# Generated by pormake.
# Topology ukp, (4)-cn, num edge types: 1
# Building blocks:
#     Node 0, Type 0, BuildingBlock: QUQFOY_clean_sbu_1, # of connection points: 4
#     Node 1, Type 0, BuildingBlock: QUQFOY_clean_sbu_1, # of connection points: 4
#     Node 2, Type 0, BuildingBlock: QUQFOY_clean_sbu_1, # of connection points: 4
#     Node 3, Type 0, BuildingBlock: QUQFOY_clean_sbu_1, # of connection points: 4
#     Node 4, Type 0, BuildingBlock: QUQFOY_clean_sbu_1, # of connection points: 4
#     Node 5, Type 0, BuildingBlock: QUQFOY_clean_sbu_1, # of connection points: 4
#     Node 6, Type 0, BuildingBlock: QUQFOY_clean_sbu_1, # of connection points: 4
#     Node 7, Type 0, BuildingBlock: QUQFOY_clean_sbu_1, # of connection points: 4
#     Node 8, Type 0, BuildingBlock: QUQFOY_clean_sbu_1, # of connection points: 4
#     Node 9, Type 0, BuildingBlock: QUQFOY_clean_sbu_1, # of connection points: 4
#     Node 10, Type 0, BuildingBlock: QUQFOY_clean_sbu_1, # of connection points: 4
#     Node 11, Type 0, BuildingBlock: QUQFOY_clean_sbu_1, # of connection points: 4
#     Node 12, Type 0, BuildingBlock: QUQFOY_clean_sbu_1, # of connection points: 4
#     Node 13, Type 0, BuildingBlock: QUQFOY_clean_sbu_1, # of connection points: 4
#     Node 14, Type 0, BuildingBlock: QUQFOY_clean_sbu_1, # of connection points: 4
#     Node 15, Type 0, BuildingBlock: QUQFOY_clean_sbu_1, # of connection points: 4
#     Node 16, Type 0, BuildingBlock: QUQFOY_clean_sbu_1, # of connection points: 4
#     Node 17, Type 0, BuildingBlock: QUQFOY_clean_sbu_1, # of connection points: 4
#     Node 18, Type 0, BuildingBlock: QUQFOY_clean_sbu_1, # of connection points: 4
#     Node 19, Type 0, BuildingBlock: QUQFOY_clean_sbu_1, # of connection points: 4
#     Node 20, Type 0, BuildingBlock: QUQFOY_clean_sbu_1, # of connection points: 4
#     Node 21, Type 0, BuildingBlock: QUQFOY_clean_sbu_1, # of connection points: 4
#     Node 22, Type 0, BuildingBlock: QUQFOY_clean_sbu_1, # of connection points: 4
#     Node 23, Type 0, BuildingBlock: QUQFOY_clean_sbu_1, # of connection points: 4
#     Node 24, Type 0, BuildingBlock: QUQFOY_clean_sbu_1, # of connection points: 4
#     Node 25, Type 0, BuildingBlock: QUQFOY_clean_sbu_1, # of connection points: 4
#     Node 26, Type 0, BuildingBlock: QUQFOY_clean_sbu_1, # of connection points: 4
#     Node 27, Type 0, BuildingBlock: QUQFOY_clean_sbu_1, # of connection points: 4
#     Node 28, Type 0, BuildingBlock: QUQFOY_clean_sbu_1, # of connection points: 4
#     Node 29, Type 0, BuildingBlock: QUQFOY_clean_sbu_1, # of connection points: 4
#     Node 30, Type 0, BuildingBlock: QUQFOY_clean_sbu_1, # of connection points: 4
#     Node 31, Type 0, BuildingBlock: QUQFOY_clean_sbu_1, # of connection points: 4
#     Node 32, Type 0, BuildingBlock: QUQFOY_clean_sbu_1, # of connection points: 4
#     Node 33, Type 0, BuildingBlock: QUQFOY_clean_sbu_1, # of connection points: 4
#     Node 34, Type 0, BuildingBlock: QUQFOY_clean_sbu_1, # of connection points: 4
#     Node 35, Type 0, BuildingBlock: QUQFOY_clean_sbu_1, # of connection points: 4
#     Node 36, Type 0, BuildingBlock: QUQFOY_clean_sbu_1, # of connection points: 4
#     Node 37, Type 0, BuildingBlock: QUQFOY_clean_sbu_1, # of connection points: 4
#     Node 38, Type 0, BuildingBlock: QUQFOY_clean_sbu_1, # of connection points: 4
#     Node 39, Type 0, BuildingBlock: QUQFOY_clean_sbu_1, # of connection points: 4
#     Node 40, Type 0, BuildingBlock: QUQFOY_clean_sbu_1, # of connection points: 4
#     Node 41, Type 0, BuildingBlock: QUQFOY_clean_sbu_1, # of connection points: 4
#     Node 42, Type 0, BuildingBlock: QUQFOY_clean_sbu_1, # of connection points: 4
#     Node 43, Type 0, BuildingBlock: QUQFOY_clean_sbu_1, # of connection points: 4
#     Node 44, Type 0, BuildingBlock: QUQFOY_clean_sbu_1, # of connection points: 4
#     Node 45, Type 0, BuildingBlock: QUQFOY_clean_sbu_1, # of connection points: 4
#     Node 46, Type 0, BuildingBlock: QUQFOY_clean_sbu_1, # of connection points: 4
#     Node 47, Type 0, BuildingBlock: QUQFOY_clean_sbu_1, # of connection points: 4
#     Edge 48, Type (0, 0), BuildingBlock: OJICUG_clean_linker_0, # of connection points: 2
#     Edge 49, Type (0, 0), BuildingBlock: OJICUG_clean_linker_0, # of connection points: 2
#     Edge 50, Type (0, 0), BuildingBlock: OJICUG_clean_linker_0, # of connection points: 2
#     Edge 51, Type (0, 0), BuildingBlock: OJICUG_clean_linker_0, # of connection points: 2
#     Edge 52, Type (0, 0), BuildingBlock: OJICUG_clean_linker_0, # of connection points: 2
#     Edge 53, Type (0, 0), BuildingBlock: OJICUG_clean_linker_0, # of connection points: 2
#     Edge 54, Type (0, 0), BuildingBlock: OJICUG_clean_linker_0, # of connection points: 2
#     Edge 55, Type (0, 0), BuildingBlock: OJICUG_clean_linker_0, # of connection points: 2
#     Edge 56, Type (0, 0), BuildingBlock: OJICUG_clean_linker_0, # of connection points: 2
#     Edge 57, Type (0, 0), BuildingBlock: OJICUG_clean_linker_0, # of connection points: 2
#     Edge 58, Type (0, 0), BuildingBlock: OJICUG_clean_linker_0, # of connection points: 2
#     Edge 59, Type (0, 0), BuildingBlock: OJICUG_clean_linker_0, # of connection points: 2
#     Edge 60, Type (0, 0), BuildingBlock: OJICUG_clean_linker_0, # of connection points: 2
#     Edge 61, Type (0, 0), BuildingBlock: OJICUG_clean_linker_0, # of connection points: 2
#     Edge 62, Type (0, 0), BuildingBlock: OJICUG_clean_linker_0, # of connection points: 2
#     Edge 63, Type (0, 0), BuildingBlock: OJICUG_clean_linker_0, # of connection points: 2
#     Edge 64, Type (0, 0), BuildingBlock: OJICUG_clean_linker_0, # of connection points: 2
#     Edge 65, Type (0, 0), BuildingBlock: OJICUG_clean_linker_0, # of connection points: 2
#     Edge 66, Type (0, 0), BuildingBlock: OJICUG_clean_linker_0, # of connection points: 2
#     Edge 67, Type (0, 0), BuildingBlock: OJICUG_clean_linker_0, # of connection points: 2
#     Edge 68, Type (0, 0), BuildingBlock: OJICUG_clean_linker_0, # of connection points: 2
#     Edge 69, Type (0, 0), BuildingBlock: OJICUG_clean_linker_0, # of connection points: 2
#     Edge 70, Type (0, 0), BuildingBlock: OJICUG_clean_linker_0, # of connection points: 2
#     Edge 71, Type (0, 0), BuildingBlock: OJICUG_clean_linker_0, # of connection points: 2
#     Edge 72, Type (0, 0), BuildingBlock: OJICUG_clean_linker_0, # of connection points: 2
#     Edge 73, Type (0, 0), BuildingBlock: OJICUG_clean_linker_0, # of connection points: 2
#     Edge 74, Type (0, 0), BuildingBlock: OJICUG_clean_linker_0, # of connection points: 2
#     Edge 75, Type (0, 0), BuildingBlock: OJICUG_clean_linker_0, # of connection points: 2
#     Edge 76, Type (0, 0), BuildingBlock: OJICUG_clean_linker_0, # of connection points: 2
#     Edge 77, Type (0, 0), BuildingBlock: OJICUG_clean_linker_0, # of connection points: 2
#     Edge 78, Type (0, 0), BuildingBlock: OJICUG_clean_linker_0, # of connection points: 2
#     Edge 79, Type (0, 0), BuildingBlock: OJICUG_clean_linker_0, # of connection points: 2
#     Edge 80, Type (0, 0), BuildingBlock: OJICUG_clean_linker_0, # of connection points: 2
#     Edge 81, Type (0, 0), BuildingBlock: OJICUG_clean_linker_0, # of connection points: 2
#     Edge 82, Type (0, 0), BuildingBlock: OJICUG_clean_linker_0, # of connection points: 2
#     Edge 83, Type (0, 0), BuildingBlock: OJICUG_clean_linker_0, # of connection points: 2
#     Edge 84, Type (0, 0), BuildingBlock: OJICUG_clean_linker_0, # of connection points: 2
#     Edge 85, Type (0, 0), BuildingBlock: OJICUG_clean_linker_0, # of connection points: 2
#     Edge 86, Type (0, 0), BuildingBlock: OJICUG_clean_linker_0, # of connection points: 2
#     Edge 87, Type (0, 0), BuildingBlock: OJICUG_clean_linker_0, # of connection points: 2
#     Edge 88, Type (0, 0), BuildingBlock: OJICUG_clean_linker_0, # of connection points: 2
#     Edge 89, Type (0, 0), BuildingBlock: OJICUG_clean_linker_0, # of connection points: 2
#     Edge 90, Type (0, 0), BuildingBlock: OJICUG_clean_linker_0, # of connection points: 2
#     Edge 91, Type (0, 0), BuildingBlock: OJICUG_clean_linker_0, # of connection points: 2
#     Edge 92, Type (0, 0), BuildingBlock: OJICUG_clean_linker_0, # of connection points: 2
#     Edge 93, Type (0, 0), BuildingBlock: OJICUG_clean_linker_0, # of connection points: 2
#     Edge 94, Type (0, 0), BuildingBlock: OJICUG_clean_linker_0, # of connection points: 2
#     Edge 95, Type (0, 0), BuildingBlock: OJICUG_clean_linker_0, # of connection points: 2
#     Edge 96, Type (0, 0), BuildingBlock: OJICUG_clean_linker_0, # of connection points: 2
#     Edge 97, Type (0, 0), BuildingBlock: OJICUG_clean_linker_0, # of connection points: 2
#     Edge 98, Type (0, 0), BuildingBlock: OJICUG_clean_linker_0, # of connection points: 2
#     Edge 99, Type (0, 0), BuildingBlock: OJICUG_clean_linker_0, # of connection points: 2
#     Edge 100, Type (0, 0), BuildingBlock: OJICUG_clean_linker_0, # of connection points: 2
#     Edge 101, Type (0, 0), BuildingBlock: OJICUG_clean_linker_0, # of connection points: 2
#     Edge 102, Type (0, 0), BuildingBlock: OJICUG_clean_linker_0, # of connection points: 2
#     Edge 103, Type (0, 0), BuildingBlock: OJICUG_clean_linker_0, # of connection points: 2
#     Edge 104, Type (0, 0), BuildingBlock: OJICUG_clean_linker_0, # of connection points: 2
#     Edge 105, Type (0, 0), BuildingBlock: OJICUG_clean_linker_0, # of connection points: 2
#     Edge 106, Type (0, 0), BuildingBlock: OJICUG_clean_linker_0, # of connection points: 2
#     Edge 107, Type (0, 0), BuildingBlock: OJICUG_clean_linker_0, # of connection points: 2
#     Edge 108, Type (0, 0), BuildingBlock: OJICUG_clean_linker_0, # of connection points: 2
#     Edge 109, Type (0, 0), BuildingBlock: OJICUG_clean_linker_0, # of connection points: 2
#     Edge 110, Type (0, 0), BuildingBlock: OJICUG_clean_linker_0, # of connection points: 2
#     Edge 111, Type (0, 0), BuildingBlock: OJICUG_clean_linker_0, # of connection points: 2
#     Edge 112, Type (0, 0), BuildingBlock: OJICUG_clean_linker_0, # of connection points: 2
#     Edge 113, Type (0, 0), BuildingBlock: OJICUG_clean_linker_0, # of connection points: 2
#     Edge 114, Type (0, 0), BuildingBlock: OJICUG_clean_linker_0, # of connection points: 2
#     Edge 115, Type (0, 0), BuildingBlock: OJICUG_clean_linker_0, # of connection points: 2
#     Edge 116, Type (0, 0), BuildingBlock: OJICUG_clean_linker_0, # of connection points: 2
#     Edge 117, Type (0, 0), BuildingBlock: OJICUG_clean_linker_0, # of connection points: 2
#     Edge 118, Type (0, 0), BuildingBlock: OJICUG_clean_linker_0, # of connection points: 2
#     Edge 119, Type (0, 0), BuildingBlock: OJICUG_clean_linker_0, # of connection points: 2
#     Edge 120, Type (0, 0), BuildingBlock: OJICUG_clean_linker_0, # of connection points: 2
#     Edge 121, Type (0, 0), BuildingBlock: OJICUG_clean_linker_0, # of connection points: 2
#     Edge 122, Type (0, 0), BuildingBlock: OJICUG_clean_linker_0, # of connection points: 2
#     Edge 123, Type (0, 0), BuildingBlock: OJICUG_clean_linker_0, # of connection points: 2
#     Edge 124, Type (0, 0), BuildingBlock: OJICUG_clean_linker_0, # of connection points: 2
#     Edge 125, Type (0, 0), BuildingBlock: OJICUG_clean_linker_0, # of connection points: 2
#     Edge 126, Type (0, 0), BuildingBlock: OJICUG_clean_linker_0, # of connection points: 2
#     Edge 127, Type (0, 0), BuildingBlock: OJICUG_clean_linker_0, # of connection points: 2
#     Edge 128, Type (0, 0), BuildingBlock: OJICUG_clean_linker_0, # of connection points: 2
#     Edge 129, Type (0, 0), BuildingBlock: OJICUG_clean_linker_0, # of connection points: 2
#     Edge 130, Type (0, 0), BuildingBlock: OJICUG_clean_linker_0, # of connection points: 2
#     Edge 131, Type (0, 0), BuildingBlock: OJICUG_clean_linker_0, # of connection points: 2
#     Edge 132, Type (0, 0), BuildingBlock: OJICUG_clean_linker_0, # of connection points: 2
#     Edge 133, Type (0, 0), BuildingBlock: OJICUG_clean_linker_0, # of connection points: 2
#     Edge 134, Type (0, 0), BuildingBlock: OJICUG_clean_linker_0, # of connection points: 2
#     Edge 135, Type (0, 0), BuildingBlock: OJICUG_clean_linker_0, # of connection points: 2
#     Edge 136, Type (0, 0), BuildingBlock: OJICUG_clean_linker_0, # of connection points: 2
#     Edge 137, Type (0, 0), BuildingBlock: OJICUG_clean_linker_0, # of connection points: 2
#     Edge 138, Type (0, 0), BuildingBlock: OJICUG_clean_linker_0, # of connection points: 2
#     Edge 139, Type (0, 0), BuildingBlock: OJICUG_clean_linker_0, # of connection points: 2
#     Edge 140, Type (0, 0), BuildingBlock: OJICUG_clean_linker_0, # of connection points: 2
#     Edge 141, Type (0, 0), BuildingBlock: OJICUG_clean_linker_0, # of connection points: 2
#     Edge 142, Type (0, 0), BuildingBlock: OJICUG_clean_linker_0, # of connection points: 2
#     Edge 143, Type (0, 0), BuildingBlock: OJICUG_clean_linker_0, # of connection points: 2
# Relax obj value: 0.062
# Max RMSD: 0.236
# Mean RMSD: 0.236
data_MOF--net-ukp--node1-QUQFOY_clean_sbu_1--edge1-OJICUG_clean_linker_0
_symmetry_space_group_name_H-M    P1
_symmetry_Int_Tables_number       1
_symmetry_cell_setting            triclinic
loop_
_symmetry_equiv_pos_as_xyz
'x, y, z'
_cell_length_a     46.299456
_cell_length_b     46.351777
_cell_length_c     46.27338
_cell_angle_alpha  89.985662
_cell_angle_beta   89.941368
_cell_angle_gamma 90.021027
loop_
_atom_site_label
_atom_site_type_symbol
_atom_site_fract_x
_atom_site_fract_y
_atom_site_fract_z
_atom_type_partial_charge
O0 O 0.24828 0.24438 0.3866 0.0
Cd1 Cd 0.21117 0.26679 0.39717 0.0
Cd2 Cd 0.25044 0.30149 0.42246 0.0
O3 O 0.27845 0.26742 0.41537 0.0
O4 O 0.17931 0.23786 0.39842 0.0
O5 O 0.1936 0.26254 0.43684 0.0
C6 C 0.17714 0.24288 0.4258 0.0
C7 C 0.25203 0.33444 0.46035 0.0
C8 C 0.27344 0.24737 0.39719 0.0
C9 C 0.21863 0.32253 0.3687 0.0
O10 O 0.2393 0.32458 0.38652 0.0
O11 O 0.20169 0.30093 0.36962 0.0
O12 O 0.27296 0.33246 0.44211 0.0
O13 O 0.23207 0.31496 0.45947 0.0
O14 O 0.0302 0.99571 0.63462 0.0
Cd15 Cd 1.00745 0.95884 0.64526 0.0
Cd16 Cd 0.97341 0.99814 0.67094 0.0
O17 O 1.0077 0.02584 0.66385 0.0
O18 O 0.03615 0.92675 0.64693 0.0
O19 O 1.01157 0.94177 0.68516 0.0
C20 C 0.03119 0.92508 0.67436 0.0
C21 C 0.94127 0.99972 0.70956 0.0
C22 C 0.02756 0.02078 0.64546 0.0
C23 C 0.95151 0.96707 0.61712 0.0
O24 O 0.94979 0.98759 0.63514 0.0
O25 O 0.97294 0.94988 0.61781 0.0
O26 O 0.94295 0.02068 0.69137 0.0
O27 O 0.96053 0.9796 0.70804 0.0
O28 O 0.28079 0.78078 0.88406 0.0
Cd29 Cd 0.31774 0.75815 0.89467 0.0
Cd30 Cd 0.2783 0.72364 0.92051 0.0
O31 O 0.25052 0.75779 0.91285 0.0
O32 O 0.34986 0.78684 0.89644 0.0
O33 O 0.33483 0.7621 0.93457 0.0
C34 C 0.35157 0.78173 0.92383 0.0
C35 C 0.27543 0.69138 0.95908 0.0
C36 C 0.25561 0.77782 0.89466 0.0
C37 C 0.31004 0.70211 0.86665 0.0
O38 O 0.28968 0.70005 0.88488 0.0
O39 O 0.32685 0.72384 0.8671 0.0
O40 O 0.2551 0.69313 0.94022 0.0
O41 O 0.29568 0.71056 0.95818 0.0
O42 O 0.4967 0.03002 0.13394 0.0
Cd43 Cd 0.51976 0.06658 0.14492 0.0
Cd44 Cd 0.55334 0.02693 0.17047 0.0
O45 O 0.5188 0.99956 0.16312 0.0
O46 O 0.49136 0.0989 0.14706 0.0
O47 O 0.51581 0.08315 0.18504 0.0
C48 C 0.49634 0.10016 0.1745 0.0
C49 C 0.58502 0.02532 0.20942 0.0
C50 C 0.49905 1.00489 0.1447 0.0
C51 C 0.57579 0.05819 0.11693 0.0
O52 O 0.5773 0.03753 0.13482 0.0
O53 O 0.55446 0.07549 0.11765 0.0
O54 O 0.58351 1.00433 0.19126 0.0
O55 O 0.56583 0.04548 0.20766 0.0
O56 O 0.24567 0.77656 0.14575 0.0
Cd57 Cd 0.2017 0.76601 0.14187 0.0
Cd58 Cd 0.24805 0.7091 0.11669 0.0
O59 O 0.27552 0.74261 0.1278 0.0
O60 O 0.17645 0.80046 0.13691 0.0
O61 O 0.18399 0.76801 0.1024 0.0
C62 C 0.17199 0.79185 0.11068 0.0
C63 C 0.25557 0.67088 0.0851 0.0
C64 C 0.27105 0.76709 0.13995 0.0
C65 C 0.2006 0.71195 0.16159 0.0
O66 O 0.20873 0.71321 0.13538 0.0
O67 O 0.18757 0.73415 0.17067 0.0
O68 O 0.26321 0.66908 0.11187 0.0
O69 O 0.24574 0.69535 0.07581 0.0
O70 O 0.49778 0.99607 0.39341 0.0
Cd71 Cd 0.52039 0.95929 0.38232 0.0
Cd72 Cd 0.5547 0.99884 0.35708 0.0
O73 O 0.52056 0.02664 0.3648 0.0
O74 O 0.4915 0.92739 0.38063 0.0
O75 O 0.51608 0.94241 0.34237 0.0
C76 C 0.4964 0.92578 0.35319 0.0
C77 C 0.58668 1.00057 0.31826 0.0
C78 C 0.5006 0.02132 0.38305 0.0
C79 C 0.57638 0.96683 0.4105 0.0
O80 O 0.57831 0.98752 0.39267 0.0
O81 O 0.55479 0.94986 0.40967 0.0
O82 O 0.5853 0.02133 0.3367 0.0
O83 O 0.56722 0.98061 0.31969 0.0
O84 O 0.28004 0.24519 0.64326 0.0
Cd85 Cd 0.31721 0.26758 0.63273 0.0
Cd86 Cd 0.27806 0.30211 0.60677 0.0
O87 O 0.25006 0.2681 0.61419 0.0
O88 O 0.34911 0.23864 0.6315 0.0
O89 O 0.33474 0.26316 0.59302 0.0
C90 C 0.3512 0.2435 0.60409 0.0
C91 C 0.27598 0.33425 0.56814 0.0
C92 C 0.25495 0.24815 0.63251 0.0
C93 C 0.30953 0.32373 0.66059 0.0
O94 O 0.28915 0.32572 0.64242 0.0
O95 O 0.32635 0.30202 0.66013 0.0
O96 O 0.2553 0.33263 0.58668 0.0
O97 O 0.29611 0.31498 0.56937 0.0
O98 O 0.02743 0.03249 0.89139 0.0
Cd99 Cd 1.00423 0.0689 0.88029 0.0
Cd100 Cd 0.97104 0.02867 0.8548 0.0
O101 O 1.00577 1.00165 0.86229 0.0
O102 O 0.03259 0.1013 0.87917 0.0
O103 O 1.00894 0.08606 0.84048 0.0
C104 C 0.02819 0.10292 0.85165 0.0
C105 C 0.93917 0.02645 0.81605 0.0
C106 C 0.02538 1.00728 0.88076 0.0
C107 C 0.9482 0.05995 0.90814 0.0
O108 O 0.94701 0.03914 0.8904 0.0
O109 O 0.96929 0.07755 0.90732 0.0
O110 O 0.94105 1.00558 0.83432 0.0
O111 O 0.95815 0.04686 0.81756 0.0
O112 O 0.38598 0.24407 0.24863 0.0
Cd113 Cd 0.3969 0.2074 0.27151 0.0
Cd114 Cd 0.42237 0.24723 0.30522 0.0
O115 O 0.41509 0.27462 0.27069 0.0
O116 O 0.39818 0.1753 0.24279 0.0
O117 O 0.43671 0.19028 0.26685 0.0
C118 C 0.42565 0.17363 0.24734 0.0
C119 C 0.46088 0.24913 0.3374 0.0
C120 C 0.39666 0.26924 0.25096 0.0
C121 C 0.36882 0.21589 0.32751 0.0
O122 O 0.38663 0.23662 0.32897 0.0
O123 O 0.36966 0.19848 0.30626 0.0
O124 O 0.44268 0.27004 0.33555 0.0
O125 O 0.45948 0.2289 0.31823 0.0
O126 O 0.03013 0.13281 0.49643 0.0
Cd127 Cd 0.06677 0.14362 0.51945 0.0
Cd128 Cd 0.02708 0.16931 0.5533 0.0
O129 O 0.99958 0.16163 0.51891 0.0
O130 O 0.09918 0.14495 0.49107 0.0
O131 O 0.08408 0.18333 0.51528 0.0
C132 C 0.101 0.17233 0.49595 0.0
C133 C 0.02502 0.20833 0.58489 0.0
C134 C 1.00492 0.14339 0.49901 0.0
C135 C 0.05861 0.11594 0.57565 0.0
O136 O 0.03803 0.1339 0.57736 0.0
O137 O 0.07567 0.11646 0.55409 0.0
O138 O 1.00424 0.18992 0.58347 0.0
O139 O 0.04525 0.20671 0.56569 0.0
O140 O 0.14162 0.78011 0.74748 0.0
Cd141 Cd 0.13123 0.81718 0.77001 0.0
Cd142 Cd 0.10573 0.77805 0.8047 0.0
O143 O 0.11283 0.75 0.77064 0.0
O144 O 0.12974 0.84903 0.741 0.0
O145 O 0.09148 0.83454 0.76584 0.0
C146 C 0.10236 0.85098 0.74603 0.0
C147 C 0.06712 0.77693 0.83695 0.0
C148 C 0.13098 0.755 0.75051 0.0
C149 C 0.15973 0.80936 0.82589 0.0
O150 O 0.14163 0.78894 0.82801 0.0
O151 O 0.15896 0.8263 0.80424 0.0
O152 O 0.08528 0.75594 0.83554 0.0
O153 O 0.06868 0.79679 0.81739 0.0
O154 O 0.49714 0.89135 0.99765 0.0
Cd155 Cd 0.45994 0.88086 0.02 0.0
Cd156 Cd 0.49934 0.85565 0.05521 0.0
O157 O 0.52742 0.86303 0.02111 0.0
O158 O 0.42827 0.87952 0.99079 0.0
O159 O 0.44244 0.8412 0.01561 0.0
C160 C 0.42616 0.85217 0.99574 0.0
C161 C 0.50176 0.81776 0.08825 0.0
C162 C 0.52236 0.88098 1.00086 0.0
C163 C 0.46717 0.90944 0.0759 0.0
O164 O 0.48767 0.89147 0.07821 0.0
O165 O 0.45045 0.90861 0.0541 0.0
O166 O 0.52221 0.83648 0.08631 0.0
O167 O 0.48174 0.81831 0.06882 0.0
O168 O 0.38633 0.78036 0.28385 0.0
Cd169 Cd 0.39685 0.81616 0.25951 0.0
Cd170 Cd 0.42325 0.77579 0.22839 0.0
O171 O 0.41709 0.74977 0.26424 0.0
O172 O 0.39784 0.8495 0.28676 0.0
O173 O 0.4365 0.83374 0.26333 0.0
C174 C 0.42532 0.8511 0.28215 0.0
C175 C 0.46178 0.77569 0.19612 0.0
C176 C 0.39784 0.75548 0.28312 0.0
C177 C 0.36856 0.80353 0.20478 0.0
O178 O 0.38676 0.78311 0.20473 0.0
O179 O 0.36947 0.82272 0.22444 0.0
O180 O 0.44515 0.75354 0.19868 0.0
O181 O 0.45895 0.79632 0.21469 0.0
O182 O 0.49708 0.13206 0.53301 0.0
Cd183 Cd 0.46036 0.14305 0.51012 0.0
Cd184 Cd 0.50011 0.16895 0.47656 0.0
O185 O 0.52753 0.16136 0.51099 0.0
O186 O 0.42794 0.14469 0.53856 0.0
O187 O 0.44342 0.18293 0.51433 0.0
C188 C 0.42641 0.1721 0.5337 0.0
C189 C 0.50218 0.20763 0.44459 0.0
C190 C 0.52225 0.14279 0.53062 0.0
C191 C 0.46888 0.11557 0.45388 0.0
O192 O 0.48951 0.1335 0.4525 0.0
O193 O 0.45153 0.11606 0.47524 0.0
O194 O 0.52307 0.1894 0.44638 0.0
O195 O 0.48188 0.20616 0.46373 0.0
O196 O 0.14132 0.24718 0.78026 0.0
Cd197 Cd 0.13035 0.21037 0.75757 0.0
Cd198 Cd 0.10537 0.24981 0.72317 0.0
O199 O 0.11285 0.27766 0.75729 0.0
O200 O 0.12815 0.17839 0.78637 0.0
O201 O 0.09029 0.19368 0.76147 0.0
C202 C 0.10078 0.17692 0.7812 0.0
C203 C 0.06671 0.2515 0.69112 0.0
C204 C 0.13096 0.27241 0.77735 0.0
C205 C 0.15886 0.21785 0.70164 0.0
O206 O 0.14105 0.23853 0.69962 0.0
O207 O 0.15791 0.20092 0.72327 0.0
O208 O 0.08513 0.27227 0.69251 0.0
O209 O 0.06806 0.23155 0.71059 0.0
O210 O 0.02927 0.89793 0.03073 0.0
Cd211 Cd 0.0665 0.8875 1.00858 0.0
Cd212 Cd 0.02763 0.85998 0.97462 0.0
O213 O 0.99983 0.86754 1.00884 0.0
O214 O 0.09841 0.88782 0.03752 0.0
O215 O 0.08423 0.84831 0.01462 0.0
C216 C 0.10056 0.86027 0.03388 0.0
C217 C 0.02569 0.82083 0.94311 0.0
C218 C 1.00445 0.88643 0.02831 0.0
C219 C 0.05839 0.91371 0.9517 0.0
O220 O 0.03817 0.89532 0.95024 0.0
O221 O 0.07534 0.9139 0.97333 0.0
O222 O 1.00486 0.83916 0.94456 0.0
O223 O 0.04594 0.82261 0.96223 0.0
O224 O 0.24728 0.37969 0.24779 0.0
Cd225 Cd 0.26962 0.39024 0.2107 0.0
Cd226 Cd 0.30347 0.41701 0.24971 0.0
O227 O 0.26921 0.40974 0.27751 0.0
O228 O 0.24052 0.39075 0.17898 0.0
O229 O 0.2644 0.42969 0.19322 0.0
C230 C 0.24477 0.41822 0.17699 0.0
C231 C 0.33517 0.45595 0.25128 0.0
C232 C 0.24965 0.391 0.2727 0.0
C233 C 0.32607 0.36334 0.21877 0.0
O234 O 0.32756 0.38151 0.23919 0.0
O235 O 0.30456 0.3635 0.20167 0.0
O236 O 0.33369 0.43777 0.27227 0.0
O237 O 0.31597 0.45418 0.23111 0.0
O238 O 0.74397 0.14261 0.77913 0.0
Cd239 Cd 0.76711 0.13148 0.81569 0.0
Cd240 Cd 0.80027 0.10587 0.77563 0.0
O241 O 0.76568 0.1134 0.7484 0.0
O242 O 0.73889 0.12967 0.84833 0.0
O243 O 0.763 0.09152 0.83257 0.0
C244 C 0.74374 0.10226 0.84974 0.0
C245 C 0.83214 0.06717 0.77388 0.0
C246 C 0.74614 0.13197 0.75389 0.0
C247 C 0.82319 0.15918 0.80664 0.0
O248 O 0.82435 0.14138 0.78588 0.0
O249 O 0.80208 0.15849 0.82428 0.0
O250 O 0.83031 0.08517 0.75277 0.0
O251 O 0.81304 0.06884 0.79421 0.0
O252 O 0.13118 0.48754 0.03231 0.0
Cd253 Cd 0.14194 0.51034 0.0691 0.0
Cd254 Cd 0.17089 0.54185 0.03098 0.0
O255 O 0.16269 0.50802 1.00298 0.0
O256 O 0.14354 0.48259 0.10218 0.0
O257 O 0.18182 0.50605 0.08556 0.0
C258 C 0.17105 0.48724 0.10316 0.0
C259 C 0.21303 0.56893 0.0347 0.0
C260 C 0.143 0.48933 1.00755 0.0
C261 C 0.11749 0.56781 0.05914 0.0
O262 O 0.13637 0.56834 0.03924 0.0
O263 O 0.11641 0.54657 0.07657 0.0
O264 O 0.19734 0.56994 1.01172 0.0
O265 O 0.20673 0.54976 0.05395 0.0
O266 O 0.78119 0.88236 0.28053 0.0
Cd267 Cd 0.7583 0.89347 0.31724 0.0
Cd268 Cd 0.72459 0.91903 0.27746 0.0
O269 O 0.75893 0.91122 0.24986 0.0
O270 O 0.7868 0.89513 0.34955 0.0
O271 O 0.76259 0.93336 0.33414 0.0
C272 C 0.78199 0.92254 0.35107 0.0
C273 C 0.69291 0.95798 0.27569 0.0
C274 C 0.77868 0.89284 0.25525 0.0
C275 C 0.70213 0.86575 0.3091 0.0
O276 O 0.70057 0.88362 0.28842 0.0
O277 O 0.72356 0.86637 0.3263 0.0
O278 O 0.69435 0.93969 0.2548 0.0
O279 O 0.71218 0.95634 0.29581 0.0
O280 O 0.88904 0.03182 0.02872 0.0
Cd281 Cd 0.8787 1.00954 0.06599 0.0
Cd282 Cd 0.8537 0.97436 0.02698 0.0
O283 O 0.86054 1.00828 0.99869 0.0
O284 O 0.87731 0.03869 0.09764 0.0
O285 O 0.83905 0.01364 0.08362 0.0
C286 C 0.84999 0.03352 0.09989 0.0
C287 C 0.81587 0.94133 0.02558 0.0
C288 C 0.8785 0.02855 1.00357 0.0
C289 C 0.90766 0.95401 0.05887 0.0
O290 O 0.8898 0.9516 0.03827 0.0
O291 O 0.90658 0.97573 0.07564 0.0
O292 O 0.83415 0.94317 1.00468 0.0
O293 O 0.81674 0.96091 0.04545 0.0
O294 O 0.2802 0.64338 0.74635 0.0
Cd295 Cd 0.25702 0.63252 0.70977 0.0
Cd296 Cd 0.22377 0.60653 0.7496 0.0
O297 O 0.25829 0.61412 0.77694 0.0
O298 O 0.28522 0.6313 0.67713 0.0
O299 O 0.26133 0.5928 0.69247 0.0
C300 C 0.28052 0.60388 0.67542 0.0
C301 C 0.19254 0.56721 0.75084 0.0
C302 C 0.27794 0.63263 0.77154 0.0
C303 C 0.20082 0.65997 0.71876 0.0
O304 O 0.19948 0.64196 0.73935 0.0
O305 O 0.22209 0.65951 0.70132 0.0
O306 O 0.19386 0.58513 0.77207 0.0
O307 O 0.2117 0.56946 0.73062 0.0
O308 O 0.13484 0.53213 0.49308 0.0
Cd309 Cd 0.14511 0.50958 0.45585 0.0
Cd310 Cd 0.17113 0.47487 0.49545 0.0
O311 O 0.16359 0.50901 0.52324 0.0
O312 O 0.14612 0.53835 0.42362 0.0
O313 O 0.18465 0.5139 0.43779 0.0
C314 C 0.17348 0.53342 0.42123 0.0
C315 C 0.20939 0.44232 0.49855 0.0
C316 C 0.14543 0.52906 0.51825 0.0
C317 C 0.11711 0.4534 0.46407 0.0
O318 O 0.13544 0.45137 0.48429 0.0
O319 O 0.11748 0.4751 0.44719 0.0
O320 O 0.19052 0.44438 0.51889 0.0
O321 O 0.2087 0.46136 0.47816 0.0
O322 O 0.39172 0.49592 0.99691 0.0
Cd323 Cd 0.38108 0.51852 0.95994 0.0
Cd324 Cd 0.35561 0.55301 0.99945 0.0
O325 O 0.36309 0.5189 0.0273 0.0
O326 O 0.37964 0.48968 0.92793 0.0
O327 O 0.34132 0.51426 0.94262 0.0
C328 C 0.35225 0.49461 0.92605 0.0
C329 C 0.31675 0.58486 1.00134 0.0
C330 C 0.38122 0.49886 0.02214 0.0
C331 C 0.40934 0.5745 0.96764 0.0
O332 O 0.3913 0.57658 0.98817 0.0
O333 O 0.40863 0.55283 0.95076 0.0
O334 O 0.3352 0.58347 0.02209 0.0
O335 O 0.31826 0.56554 0.98125 0.0
O336 O 0.74812 0.74414 0.8843 0.0
Cd337 Cd 0.71088 0.76638 0.89488 0.0
Cd338 Cd 0.74998 0.80138 0.92032 0.0
O339 O 0.77819 0.76754 0.9129 0.0
O340 O 0.67909 0.73733 0.89647 0.0
O341 O 0.69351 0.76224 0.93468 0.0
C342 C 0.67705 0.74246 0.92383 0.0
C343 C 0.75195 0.83392 0.95859 0.0
C344 C 0.77328 0.74739 0.89481 0.0
C345 C 0.71793 0.82238 0.8666 0.0
O346 O 0.73841 0.82465 0.8846 0.0
O347 O 0.70131 0.80051 0.86727 0.0
O348 O 0.77257 0.8323 0.93998 0.0
O349 O 0.73203 0.8144 0.95771 0.0
O350 O 0.52986 0.496 0.13438 0.0
Cd351 Cd 0.50699 0.45928 0.14529 0.0
Cd352 Cd 0.47327 0.49877 0.17085 0.0
O353 O 0.50762 0.52639 0.16355 0.0
O354 O 0.53557 0.42711 0.14699 0.0
O355 O 0.51116 0.44237 0.18524 0.0
C356 C 0.53067 0.42556 0.17443 0.0
C357 C 0.44138 0.49976 0.20966 0.0
C358 C 0.52739 0.52114 0.14509 0.0
C359 C 0.45104 0.46757 0.11729 0.0
O360 O 0.44949 0.48825 0.13515 0.0
O361 O 0.47237 0.45027 0.11805 0.0
O362 O 0.44286 0.52096 0.19173 0.0
O363 O 0.46077 0.47979 0.20783 0.0
O364 O 0.77945 0.28098 0.38444 0.0
Cd365 Cd 0.81665 0.25863 0.39475 0.0
Cd366 Cd 0.7775 0.22386 0.42058 0.0
O367 O 0.7494 0.25781 0.41331 0.0
O368 O 0.8485 0.28764 0.39587 0.0
O369 O 0.83434 0.26297 0.43436 0.0
C370 C 0.8507 0.2827 0.42325 0.0
C371 C 0.77569 0.19145 0.45902 0.0
C372 C 0.75432 0.27788 0.39512 0.0
C373 C 0.80901 0.20267 0.36655 0.0
O374 O 0.78865 0.20052 0.38476 0.0
O375 O 0.82581 0.22441 0.36709 0.0
O376 O 0.75494 0.19308 0.44059 0.0
O377 O 0.7957 0.21087 0.45784 0.0
O378 O 0.99761 0.5309 0.63236 0.0
Cd379 Cd 0.02053 0.5676 0.64313 0.0
Cd380 Cd 0.05491 0.5279 0.66824 0.0
O381 O 0.02059 0.50031 0.66071 0.0
O382 O 0.99188 0.59973 0.64522 0.0
O383 O 0.01667 0.58445 0.68317 0.0
C384 C 0.997 0.60123 0.67262 0.0
C385 C 0.08677 0.52545 0.70709 0.0
C386 C 1.00046 0.50566 0.64273 0.0
C387 C 0.07645 0.55976 0.61452 0.0
O388 O 0.07851 0.53923 0.63252 0.0
O389 O 0.05482 0.5767 0.61539 0.0
O390 O 0.08535 0.50498 0.68834 0.0
O391 O 0.06755 0.54562 0.70582 0.0
O392 O 0.74442 0.28111 0.642 0.0
Cd393 Cd 0.7074 0.2586 0.63131 0.0
Cd394 Cd 0.74686 0.22418 0.60552 0.0
O395 O 0.77458 0.2584 0.61292 0.0
O396 O 0.67547 0.28748 0.6298 0.0
O397 O 0.69026 0.26295 0.59146 0.0
C398 C 0.67369 0.28261 0.60238 0.0
C399 C 0.74968 0.19182 0.56713 0.0
C400 C 0.76953 0.27831 0.63123 0.0
C401 C 0.715 0.2025 0.65923 0.0
O402 O 0.73553 0.20059 0.64118 0.0
O403 O 0.69812 0.22416 0.65869 0.0
O404 O 0.77012 0.19375 0.58586 0.0
O405 O 0.72938 0.21094 0.56801 0.0
O406 O 0.99561 0.49353 0.89357 0.0
Cd407 Cd 0.01764 0.45641 0.88235 0.0
Cd408 Cd 0.05352 0.49576 0.8578 0.0
O409 O 0.01977 0.52392 0.86591 0.0
O410 O 0.9883 0.42495 0.88006 0.0
O411 O 0.01354 0.43989 0.84222 0.0
C412 C 0.99355 0.42341 0.85269 0.0
C413 C 0.08602 0.49945 0.81943 0.0
C414 C 0.9993 0.51884 0.88363 0.0
C415 C 0.07377 0.46197 0.9109 0.0
O416 O 0.07661 0.48268 0.89321 0.0
O417 O 0.05149 0.44591 0.90992 0.0
O418 O 0.08456 0.51908 0.83904 0.0
O419 O 0.06653 0.47948 0.81962 0.0
O420 O 0.78137 0.74421 0.14287 0.0
Cd421 Cd 0.81852 0.7667 0.13237 0.0
Cd422 Cd 0.77913 0.80126 0.10647 0.0
O423 O 0.75127 0.76715 0.11394 0.0
O424 O 0.85056 0.73787 0.1311 0.0
O425 O 0.83614 0.76239 0.09267 0.0
C426 C 0.85268 0.74279 0.1037 0.0
C427 C 0.77652 0.83373 0.06813 0.0
C428 C 0.75624 0.74718 0.13221 0.0
C429 C 0.81061 0.82279 0.16036 0.0
O430 O 0.79026 0.82476 0.14216 0.0
O431 O 0.8275 0.80113 0.15989 0.0
O432 O 0.75601 0.8318 0.08683 0.0
O433 O 0.79677 0.81457 0.069 0.0
O434 O 0.52841 0.53025 0.39092 0.0
Cd435 Cd 0.5057 0.56702 0.37994 0.0
Cd436 Cd 0.47199 0.52766 0.35413 0.0
O437 O 0.50603 0.4998 0.36195 0.0
O438 O 0.5344 0.59916 0.37888 0.0
O439 O 0.51049 0.58433 0.3402 0.0
C440 C 0.5299 0.60098 0.3514 0.0
C441 C 0.44126 0.52728 0.31437 0.0
C442 C 0.52578 0.50505 0.38039 0.0
C443 C 0.44938 0.55876 0.40761 0.0
O444 O 0.44773 0.53823 0.38958 0.0
O445 O 0.47087 0.57589 0.40705 0.0
O446 O 0.44185 0.50601 0.33227 0.0
O447 O 0.46076 0.54707 0.31698 0.0
O448 O 0.88663 0.74557 0.74703 0.0
Cd449 Cd 0.89749 0.70865 0.76957 0.0
Cd450 Cd 0.92292 0.74809 0.80391 0.0
O451 O 0.91534 0.77598 0.76981 0.0
O452 O 0.89883 0.67676 0.74058 0.0
O453 O 0.93729 0.69144 0.76492 0.0
C454 C 0.92627 0.67495 0.74525 0.0
C455 C 0.96177 0.74958 0.83578 0.0
C456 C 0.89708 0.77078 0.74988 0.0
C457 C 0.86928 0.71646 0.82568 0.0
O458 O 0.88724 0.73704 0.82758 0.0
O459 O 0.87008 0.69944 0.8041 0.0
O460 O 0.94346 0.77044 0.83447 0.0
O461 O 0.96019 0.72963 0.81634 0.0
O462 O 0.53029 0.63276 0.9959 0.0
Cd463 Cd 0.56724 0.64341 0.01859 0.0
Cd464 Cd 0.52787 0.66941 0.05265 0.0
O465 O 0.50012 0.66192 0.01845 0.0
O466 O 0.59946 0.64466 0.98994 0.0
O467 O 0.58466 0.68309 0.01424 0.0
C468 C 0.6014 0.67204 0.99478 0.0
C469 C 0.52597 0.70815 0.08458 0.0
C470 C 0.50518 0.64352 0.99862 0.0
C471 C 0.55912 0.61582 0.07487 0.0
O472 O 0.53866 0.63391 0.07659 0.0
O473 O 0.57616 0.61623 0.05327 0.0
O474 O 0.50513 0.68982 0.08301 0.0
O475 O 0.54614 0.70669 0.06531 0.0
O476 O 0.64107 0.28069 0.24705 0.0
Cd477 Cd 0.6305 0.31748 0.26992 0.0
Cd478 Cd 0.60482 0.27807 0.30389 0.0
O479 O 0.61186 0.25048 0.2695 0.0
O480 O 0.62911 0.3496 0.24123 0.0
O481 O 0.59073 0.33474 0.26569 0.0
C482 C 0.60169 0.35139 0.2461 0.0
C483 C 0.56618 0.27649 0.33599 0.0
C484 C 0.63022 0.25561 0.24962 0.0
C485 C 0.65864 0.3091 0.32585 0.0
O486 O 0.64064 0.28856 0.32754 0.0
O487 O 0.65792 0.32635 0.30445 0.0
O488 O 0.58431 0.25551 0.33431 0.0
O489 O 0.56777 0.29665 0.31676 0.0
O490 O 0.99686 0.39402 0.49389 0.0
Cd491 Cd 0.96012 0.3831 0.51684 0.0
Cd492 Cd 0.99975 0.35746 0.55064 0.0
O493 O 0.02744 0.3652 0.5163 0.0
O494 O 0.92776 0.38146 0.48839 0.0
O495 O 0.94304 0.34325 0.51274 0.0
C496 C 0.92611 0.35407 0.49334 0.0
C497 C 1.00099 0.31851 0.58239 0.0
C498 C 0.02211 0.38354 0.49647 0.0
C499 C 0.96837 0.41089 0.57297 0.0
O500 O 0.98896 0.39294 0.57458 0.0
O501 O 0.95119 0.41031 0.55152 0.0
O502 O 0.02206 0.33661 0.58102 0.0
O503 O 0.98099 0.32031 0.563 0.0
O504 O 0.88326 0.27911 0.77812 0.0
Cd505 Cd 0.89401 0.31621 0.75583 0.0
Cd506 Cd 0.91923 0.27707 0.72083 0.0
O507 O 0.91168 0.24885 0.75473 0.0
O508 O 0.89535 0.34785 0.78503 0.0
O509 O 0.93376 0.33349 0.76034 0.0
C510 C 0.92276 0.34982 0.78017 0.0
C511 C 0.95786 0.27571 0.68857 0.0
C512 C 0.8936 0.2539 0.77491 0.0
C513 C 0.86558 0.30912 0.69985 0.0
O514 O 0.8835 0.28857 0.69755 0.0
O515 O 0.86643 0.32581 0.72166 0.0
O516 O 0.93943 0.25493 0.68984 0.0
O517 O 0.95654 0.29546 0.70824 0.0
O518 O 0.99929 0.63191 0.03121 0.0
Cd519 Cd 0.96214 0.64299 1.00902 0.0
Cd520 Cd 1.00176 0.66786 0.97393 0.0
O521 O 0.03011 0.65942 1.00742 0.0
O522 O 0.93032 0.64461 0.03819 0.0
O523 O 0.94492 0.68279 0.0134 0.0
C524 C 0.92838 0.67195 0.03316 0.0
C525 C 1.0041 0.70659 0.9419 0.0
C526 C 0.02478 0.64153 0.02766 0.0
C527 C 0.96897 0.61467 0.95283 0.0
O528 O 0.98955 0.63256 0.95044 0.0
O529 O 0.95243 0.61544 0.97481 0.0
O530 O 0.02441 0.68767 0.94304 0.0
O531 O 0.98428 0.70563 0.96157 0.0
O532 O 0.64265 0.74571 0.28034 0.0
Cd533 Cd 0.63183 0.70893 0.25754 0.0
Cd534 Cd 0.60671 0.74844 0.22321 0.0
O535 O 0.61407 0.77615 0.25746 0.0
O536 O 0.62973 0.67684 0.28625 0.0
O537 O 0.59181 0.6921 0.26142 0.0
C538 C 0.60236 0.67531 0.28109 0.0
C539 C 0.56805 0.75022 0.19116 0.0
C540 C 0.63218 0.77091 0.27751 0.0
C541 C 0.66031 0.7167 0.2016 0.0
O542 O 0.64244 0.73733 0.19964 0.0
O543 O 0.65941 0.69969 0.22318 0.0
O544 O 0.58644 0.77101 0.19265 0.0
O545 O 0.56945 0.73017 0.21052 0.0
O546 O 0.52911 0.39452 0.5306 0.0
Cd547 Cd 0.56575 0.38337 0.50762 0.0
Cd548 Cd 0.52602 0.35752 0.47434 0.0
O549 O 0.49866 0.36507 0.50887 0.0
O550 O 0.59814 0.38167 0.53601 0.0
O551 O 0.5825 0.34343 0.51195 0.0
C552 C 0.59951 0.35424 0.53128 0.0
C553 C 0.52422 0.31863 0.44268 0.0
C554 C 0.50396 0.38371 0.5284 0.0
C555 C 0.55721 0.41079 0.45136 0.0
O556 O 0.5365 0.39293 0.45012 0.0
O557 O 0.57462 0.41025 0.47262 0.0
O558 O 0.50322 0.33675 0.44433 0.0
O559 O 0.54449 0.32036 0.46179 0.0
O560 O 0.74693 0.88127 0.7463 0.0
Cd561 Cd 0.77001 0.89246 0.70972 0.0
Cd562 Cd 0.80308 0.91832 0.74956 0.0
O563 O 0.76846 0.9108 0.77681 0.0
O564 O 0.74171 0.89406 0.67726 0.0
O565 O 0.7656 0.93239 0.69296 0.0
C566 C 0.74634 0.92152 0.67591 0.0
C567 C 0.83463 0.9573 0.7513 0.0
C568 C 0.74899 0.89212 0.77145 0.0
C569 C 0.82621 0.86511 0.71848 0.0
O570 O 0.82734 0.88291 0.73923 0.0
O571 O 0.80505 0.86567 0.70094 0.0
O572 O 0.83296 0.93923 0.77238 0.0
O573 O 0.8156 0.95545 0.73097 0.0
O574 O 0.24742 0.64605 0.27482 0.0
Cd575 Cd 0.2688 0.63388 0.31228 0.0
Cd576 Cd 0.30615 0.61141 0.27233 0.0
O577 O 0.27489 0.62355 0.24286 0.0
O578 O 0.23878 0.63169 0.34338 0.0
O579 O 0.26381 0.59374 0.3288 0.0
C580 C 0.24378 0.60435 0.34513 0.0
C581 C 0.33729 0.57216 0.26904 0.0
C582 C 0.25328 0.63953 0.24874 0.0
C583 C 0.32616 0.6617 0.30975 0.0
O584 O 0.32983 0.64461 0.28871 0.0
O585 O 0.30279 0.66102 0.32428 0.0
O586 O 0.33768 0.59242 0.25 0.0
O587 O 0.31646 0.57216 0.28767 0.0
O588 O 0.63495 0.9946 0.53139 0.0
Cd589 Cd 0.6457 0.01699 0.56847 0.0
Cd590 Cd 0.67111 0.05173 0.52905 0.0
O591 O 0.66373 0.01764 0.50116 0.0
O592 O 0.64744 0.98798 0.60029 0.0
O593 O 0.6856 0.01278 0.58547 0.0
C594 C 0.67483 0.993 0.60201 0.0
C595 C 0.70933 0.08429 0.52632 0.0
C596 C 0.64556 0.9976 0.50621 0.0
C597 C 0.61747 0.07295 0.56124 0.0
O598 O 0.63541 0.07506 0.54063 0.0
O599 O 0.6182 0.05121 0.57804 0.0
O600 O 0.69057 0.0824 0.50589 0.0
O601 O 0.70858 0.06504 0.54652 0.0
O602 O 0.28052 0.38336 0.78069 0.0
Cd603 Cd 0.2576 0.39447 0.81738 0.0
Cd604 Cd 0.22418 0.42032 0.77762 0.0
O605 O 0.25858 0.41254 0.75011 0.0
O606 O 0.28602 0.39599 0.84976 0.0
O607 O 0.26199 0.43433 0.83433 0.0
C608 C 0.28131 0.42342 0.85129 0.0
C609 C 0.19263 0.45936 0.77601 0.0
C610 C 0.27818 0.39399 0.75546 0.0
C611 C 0.20136 0.36701 0.80893 0.0
O612 O 0.19999 0.38492 0.78827 0.0
O613 O 0.2227 0.36753 0.82626 0.0
O614 O 0.19415 0.44125 0.75496 0.0
O615 O 0.21181 0.45751 0.79621 0.0
O616 O 0.39052 0.53126 0.52868 0.0
Cd617 Cd 0.38013 0.50915 0.56608 0.0
Cd618 Cd 0.35475 0.47393 0.52717 0.0
O619 O 0.36196 0.50765 0.49876 0.0
O620 O 0.37858 0.53838 0.59771 0.0
O621 O 0.34039 0.51329 0.58357 0.0
C622 C 0.35124 0.5332 0.59986 0.0
C623 C 0.31662 0.44122 0.52545 0.0
C624 C 0.37999 0.52788 0.50354 0.0
C625 C 0.40861 0.45326 0.55917 0.0
O626 O 0.39057 0.45085 0.53872 0.0
O627 O 0.40787 0.47516 0.57574 0.0
O628 O 0.33515 0.44286 0.50475 0.0
O629 O 0.31749 0.46081 0.54531 0.0
O630 O 0.77923 0.14416 0.24611 0.0
Cd631 Cd 0.75612 0.13322 0.20954 0.0
Cd632 Cd 0.7226 0.10742 0.24936 0.0
O633 O 0.75707 0.11511 0.27672 0.0
O634 O 0.78438 0.13181 0.17703 0.0
O635 O 0.76031 0.09344 0.19244 0.0
C636 C 0.77958 0.10441 0.1754 0.0
C637 C 0.69111 0.06833 0.25139 0.0
C638 C 0.77684 0.13349 0.27132 0.0
C639 C 0.69995 0.16073 0.21795 0.0
O640 O 0.69843 0.14279 0.23858 0.0
O641 O 0.72139 0.16024 0.20073 0.0
O642 O 0.69257 0.08665 0.27225 0.0
O643 O 0.71024 0.07006 0.2311 0.0
O644 O 0.63495 0.02933 0.9966 0.0
Cd645 Cd 0.64549 1.00655 0.95965 0.0
Cd646 Cd 0.67148 0.97281 0.99918 0.0
O647 O 0.66427 1.00712 0.02685 0.0
O648 O 0.64644 0.03519 0.92738 0.0
O649 O 0.6851 1.0111 0.9419 0.0
C650 C 0.67387 0.03053 0.92529 0.0
C651 C 0.71016 0.9408 1.00045 0.0
C652 C 0.64578 0.02683 0.02172 0.0
C653 C 0.61761 0.95054 0.96852 0.0
O654 O 0.63571 0.94904 0.989 0.0
O655 O 0.61818 0.97181 0.95112 0.0
O656 O 0.6922 0.94251 0.02165 0.0
O657 O 0.70843 0.96 0.98027 0.0
O658 O 0.89243 0.99553 0.49652 0.0
Cd659 Cd 0.88172 0.01799 0.45947 0.0
Cd660 Cd 0.85607 0.05241 0.49885 0.0
O661 O 0.86357 0.01836 0.52681 0.0
O662 O 0.88028 0.9891 0.42752 0.0
O663 O 0.84194 0.01364 0.44222 0.0
C664 C 0.85288 0.99398 0.42566 0.0
C665 C 0.81754 0.08463 0.50076 0.0
C666 C 0.88185 0.99843 0.52172 0.0
C667 C 0.90978 0.074 0.46712 0.0
O668 O 0.89175 0.07595 0.48766 0.0
O669 O 0.90916 0.05238 0.45019 0.0
O670 O 0.83596 0.08302 0.52152 0.0
O671 O 0.81877 0.06527 0.4807 0.0
C672 C 0.13052 0.18083 0.45155 0.0
C673 C 0.12084 0.19059 0.47862 0.0
H674 H 0.15527 0.1899 0.41356 0.0
C675 C 0.12963 0.218 0.48826 0.0
H676 H 0.12399 0.15993 0.44338 0.0
C677 C 0.14806 0.2351 0.47126 0.0
C678 C 0.15739 0.22538 0.444 0.0
H679 H 0.12247 0.22611 0.50902 0.0
H680 H 0.15476 0.256 0.4793 0.0
C681 C 0.1483 0.19813 0.43434 0.0
C682 C 0.09353 0.87928 0.7009 0.0
C683 C 0.08394 0.87031 0.7283 0.0
H684 H 0.08419 0.90293 0.66233 0.0
C685 C 0.05651 0.87925 0.73785 0.0
H686 H 0.11444 0.87261 0.69278 0.0
C687 C 0.03924 0.89713 0.72047 0.0
C688 C 0.04879 0.90576 0.69291 0.0
H689 H 0.04851 0.87264 0.75884 0.0
H690 H 0.01835 0.90398 0.72847 0.0
C691 C 0.07607 0.8965 0.68333 0.0
C692 C 0.39789 0.84361 0.95056 0.0
C693 C 0.40677 0.8339 0.97791 0.0
H694 H 0.37415 0.83455 0.91197 0.0
C695 C 0.39764 0.80652 0.98737 0.0
H696 H 0.40471 0.86448 0.94251 0.0
C697 C 0.37961 0.78945 0.96993 0.0
C698 C 0.37104 0.79913 0.94243 0.0
H699 H 0.40418 0.79843 1.00832 0.0
H700 H 0.37261 0.7686 0.97786 0.0
C701 C 0.38053 0.82634 0.93293 0.0
C702 C 0.43416 0.14566 0.20198 0.0
C703 C 0.44396 0.15444 0.22933 0.0
H704 H 0.44324 0.12231 0.16314 0.0
C705 C 0.47149 0.14551 0.23854 0.0
H706 H 0.41318 0.15235 0.19411 0.0
C707 C 0.48864 0.12777 0.22087 0.0
C708 C 0.47888 0.11933 0.19335 0.0
H709 H 0.47965 0.15199 0.25949 0.0
H710 H 0.50961 0.1209 0.22861 0.0
C711 C 0.45152 0.12861 0.1841 0.0
C712 C 0.14776 0.83817 0.09701 0.0
C713 C 0.1541 0.80924 0.09056 0.0
H714 H 0.12646 0.87699 0.08399 0.0
C715 C 0.14341 0.79735 0.06472 0.0
H716 H 0.15581 0.84806 0.11662 0.0
C717 C 0.12624 0.81392 0.04606 0.0
C718 C 0.11988 0.84286 0.0526 0.0
H719 H 0.14794 0.77512 0.05912 0.0
H720 H 0.1179 0.80405 0.02656 0.0
C721 C 0.13107 0.85483 0.07817 0.0
C722 C 0.45115 0.89789 0.34403 0.0
C723 C 0.4787 0.90656 0.33466 0.0
H724 H 0.41261 0.87428 0.33454 0.0
C725 C 0.48849 0.89733 0.3074 0.0
H726 H 0.44285 0.90482 0.3648 0.0
C727 C 0.47124 0.87931 0.29015 0.0
C728 C 0.44357 0.87089 0.29953 0.0
H729 H 0.5096 0.90373 0.29958 0.0
H730 H 0.47946 0.87213 0.26945 0.0
C731 C 0.4337 0.88056 0.32656 0.0
C732 C 0.37969 0.1985 0.59555 0.0
C733 C 0.37077 0.22581 0.58585 0.0
H734 H 0.40359 0.16006 0.58648 0.0
C735 C 0.38004 0.23536 0.5585 0.0
H736 H 0.37276 0.19039 0.61639 0.0
C737 C 0.39823 0.21805 0.54145 0.0
C738 C 0.40682 0.19058 0.55111 0.0
H739 H 0.37348 0.25628 0.55042 0.0
H740 H 0.40533 0.22605 0.52062 0.0
C741 C 0.3972 0.181 0.57828 0.0
C742 C 0.05462 0.14892 0.78869 0.0
C743 C 0.08194 0.15772 0.79865 0.0
H744 H 0.01624 0.12425 0.79745 0.0
C745 C 0.09104 0.14868 0.82616 0.0
H746 H 0.047 0.15559 0.76759 0.0
C747 C 0.07322 0.13149 0.84345 0.0
C748 C 0.04609 0.12232 0.83344 0.0
H749 H 0.11184 0.15526 0.83459 0.0
H750 H 0.08098 0.12497 0.86454 0.0
C751 C 0.03701 0.13104 0.80577 0.0
C752 C 0.19884 0.42616 0.14982 0.0
C753 C 0.22636 0.43611 0.15787 0.0
H754 H 0.15964 0.43479 0.12692 0.0
C755 C 0.23544 0.46342 0.14825 0.0
H756 H 0.19109 0.40533 0.1571 0.0
C757 C 0.21751 0.48017 0.13048 0.0
C758 C 0.18988 0.47025 0.12268 0.0
H759 H 0.2565 0.47169 0.15418 0.0
H760 H 0.22519 0.50096 0.123 0.0
C761 C 0.18069 0.44315 0.13273 0.0
C762 C 0.69926 0.0931 0.87902 0.0
C763 C 0.72645 0.08367 0.86938 0.0
H764 H 0.66125 0.08352 0.90356 0.0
C765 C 0.73625 0.05626 0.878 0.0
H766 H 0.69095 0.11399 0.87261 0.0
C767 C 0.71932 0.03888 0.89626 0.0
C768 C 0.69195 0.04827 0.90557 0.0
H769 H 0.75709 0.04838 0.87087 0.0
H770 H 0.72751 0.01801 0.90286 0.0
C771 C 0.68211 0.07551 0.8966 0.0
C772 C 0.82672 0.93145 0.37992 0.0
C773 C 0.79952 0.94104 0.37051 0.0
H774 H 0.86497 0.94085 0.40404 0.0
C775 C 0.78996 0.96853 0.37914 0.0
H776 H 0.83484 0.91049 0.37349 0.0
C777 C 0.80713 0.98585 0.39717 0.0
C778 C 0.83451 0.97629 0.40623 0.0
H779 H 0.76911 0.97653 0.37219 0.0
H780 H 0.79913 1.00679 0.40377 0.0
C781 C 0.84411 0.94896 0.39727 0.0
C782 C 0.84123 0.0785 0.12828 0.0
C783 C 0.83171 0.0511 0.11947 0.0
H784 H 0.83202 0.11689 0.15221 0.0
C785 C 0.80451 0.04134 0.1289 0.0
H786 H 0.86196 0.08677 0.12121 0.0
C787 C 0.78744 0.05853 0.14717 0.0
C788 C 0.79694 0.08608 0.15568 0.0
H789 H 0.79657 0.02033 0.12242 0.0
H790 H 0.76674 0.05037 0.15442 0.0
C791 C 0.82395 0.09588 0.14588 0.0
C792 C 0.32492 0.59553 0.64582 0.0
C793 C 0.29794 0.58564 0.65562 0.0
H794 H 0.36298 0.58655 0.62116 0.0
C795 C 0.28854 0.55805 0.64709 0.0
H796 H 0.33292 0.61656 0.65215 0.0
C797 C 0.30568 0.54093 0.62882 0.0
C798 C 0.33286 0.55077 0.6194 0.0
H799 H 0.26787 0.54982 0.65433 0.0
H800 H 0.29782 0.51989 0.62234 0.0
C801 C 0.34228 0.57821 0.62821 0.0
C802 C 0.23599 0.55856 0.37372 0.0
C803 C 0.22615 0.58578 0.36454 0.0
H804 H 0.22728 0.52074 0.39923 0.0
C805 C 0.1988 0.59521 0.37377 0.0
H806 H 0.25696 0.55069 0.36697 0.0
C807 C 0.18162 0.57786 0.39158 0.0
C808 C 0.19155 0.55086 0.40119 0.0
H809 H 0.19046 0.61595 0.36695 0.0
H810 H 0.16068 0.58589 0.39824 0.0
C811 C 0.21901 0.54142 0.39218 0.0
C812 C 0.30655 0.48662 0.89747 0.0
C813 C 0.33388 0.47698 0.90659 0.0
H814 H 0.26855 0.47743 0.87241 0.0
C815 C 0.34341 0.44962 0.89764 0.0
H816 H 0.2986 0.50759 0.90406 0.0
C817 C 0.326 0.43216 0.88025 0.0
C818 C 0.29885 0.44184 0.87079 0.0
H819 H 0.36423 0.44144 0.90445 0.0
H820 H 0.33407 0.41119 0.87383 0.0
C821 C 0.28935 0.46936 0.8794 0.0
C822 C 0.63066 0.68042 0.95014 0.0
C823 C 0.62115 0.69025 0.97725 0.0
H824 H 0.65514 0.68939 0.91195 0.0
C825 C 0.62998 0.71771 0.98673 0.0
H826 H 0.62409 0.65949 0.94209 0.0
C827 C 0.64829 0.73477 0.96954 0.0
C828 C 0.65745 0.72499 0.94225 0.0
H829 H 0.62296 0.72589 1.00751 0.0
H830 H 0.65501 0.75571 0.97747 0.0
C831 C 0.64831 0.69768 0.93275 0.0
C832 C 0.55585 0.37964 0.2379 0.0
C833 C 0.58332 0.37076 0.22839 0.0
H834 H 0.5177 0.40437 0.22847 0.0
C835 C 0.59297 0.37979 0.20105 0.0
H836 H 0.5478 0.37298 0.25885 0.0
C837 C 0.57554 0.39702 0.18346 0.0
C838 C 0.54824 0.40624 0.193 0.0
H839 H 0.6139 0.37315 0.19296 0.0
H840 H 0.58371 0.40351 0.1625 0.0
C841 C 0.53862 0.39756 0.22051 0.0
C842 C 0.89786 0.30814 0.48571 0.0
C843 C 0.90647 0.3356 0.47601 0.0
H844 H 0.87305 0.26992 0.47683 0.0
C845 C 0.89683 0.34518 0.44887 0.0
H846 H 0.90499 0.30015 0.50651 0.0
C847 C 0.87926 0.32769 0.43167 0.0
C848 C 0.87032 0.30039 0.44141 0.0
H849 H 0.90323 0.36612 0.44064 0.0
H850 H 0.87231 0.3358 0.41085 0.0
C851 C 0.87963 0.29084 0.46872 0.0
C852 C 0.97213 0.64681 0.73652 0.0
C853 C 0.94459 0.65571 0.72728 0.0
H854 H 1.01025 0.62217 0.72667 0.0
C855 C 0.9348 0.64682 0.69996 0.0
H856 H 0.98028 0.65336 0.75744 0.0
C857 C 0.95215 0.6297 0.68215 0.0
C858 C 0.97952 0.62046 0.69142 0.0
H859 H 0.91381 0.65348 0.69207 0.0
H860 H 0.94387 0.62332 0.66121 0.0
C861 C 0.98928 0.62901 0.71891 0.0
C862 C 0.62827 0.34528 0.57607 0.0
C863 C 0.61887 0.3357 0.54885 0.0
H864 H 0.65228 0.33583 0.61439 0.0
C865 C 0.62739 0.30816 0.53932 0.0
H866 H 0.62191 0.36627 0.58416 0.0
C867 C 0.64532 0.29079 0.55656 0.0
C868 C 0.65437 0.30034 0.58395 0.0
H869 H 0.62044 0.30016 0.51847 0.0
H870 H 0.65185 0.26981 0.54859 0.0
C871 C 0.64551 0.32772 0.59351 0.0
C872 C 0.96864 0.37792 0.78882 0.0
C873 C 0.94107 0.36907 0.79809 0.0
H874 H 1.00682 0.40246 0.79864 0.0
C875 C 0.93122 0.37805 0.82538 0.0
H876 H 0.97683 0.3713 0.76792 0.0
C877 C 0.94857 0.39518 0.84314 0.0
C878 C 0.97599 0.40434 0.83386 0.0
H879 H 0.91021 0.37144 0.83328 0.0
H880 H 0.94026 0.40161 0.86407 0.0
C881 C 0.98579 0.39572 0.8064 0.0
C882 C 0.88144 0.7348 0.05802 0.0
C883 C 0.87242 0.72527 0.08546 0.0
H884 H 0.90662 0.72563 0.02003 0.0
C885 C 0.88176 0.69812 0.09523 0.0
H886 H 0.87456 0.7556 0.04987 0.0
C887 C 0.89942 0.68077 0.07795 0.0
C888 C 0.90876 0.69033 0.05067 0.0
H889 H 0.87505 0.69002 0.11615 0.0
H890 H 0.90612 0.65995 0.0862 0.0
C891 C 0.89976 0.71765 0.04094 0.0
C892 C 0.575 0.62949 0.34317 0.0
C893 C 0.54781 0.62042 0.33322 0.0
H894 H 0.61362 0.65327 0.33431 0.0
C895 C 0.53865 0.62932 0.30564 0.0
H896 H 0.58282 0.62284 0.3642 0.0
C897 C 0.55621 0.64728 0.28859 0.0
C898 C 0.58358 0.65599 0.2985 0.0
H899 H 0.51782 0.62263 0.29736 0.0
H900 H 0.54852 0.65409 0.26758 0.0
C901 C 0.59277 0.64677 0.32592 0.0
C902 C 0.73806 0.96763 0.64813 0.0
C903 C 0.72869 0.94 0.65658 0.0
H904 H 0.72856 1.00602 0.6238 0.0
C905 C 0.70153 0.93029 0.64717 0.0
H906 H 0.75886 0.97573 0.6551 0.0
C907 C 0.68398 0.94782 0.63 0.0
C908 C 0.69338 0.97529 0.62122 0.0
H909 H 0.69356 0.90923 0.65347 0.0
H910 H 0.66315 0.9396 0.62322 0.0
C911 C 0.72072 0.98496 0.63027 0.0
C912 C 0.2386 0.38797 0.3255 0.0
C913 C 0.23349 0.37819 0.29726 0.0
H914 H 0.2371 0.37799 0.37055 0.0
C915 C 0.21707 0.35286 0.29334 0.0
H916 H 0.25074 0.40757 0.32937 0.0
C917 C 0.20916 0.33582 0.31709 0.0
C918 C 0.2176 0.34392 0.34504 0.0
H919 H 0.21243 0.34486 0.27185 0.0
H920 H 0.19893 0.31515 0.3133 0.0
C921 C 0.23076 0.37097 0.34913 0.0
C922 C 0.92031 0.96592 0.54196 0.0
C923 C 0.89506 0.98244 0.54619 0.0
H924 H 0.95817 0.94757 0.56146 0.0
C925 C 0.88574 0.98773 0.57457 0.0
H926 H 0.928 0.96118 0.52037 0.0
C927 C 0.903 0.97985 0.59799 0.0
C928 C 0.9299 0.96643 0.59358 0.0
H929 H 0.86624 0.99998 0.5787 0.0
H930 H 0.89626 0.98626 0.61949 0.0
C931 C 0.93761 0.95796 0.56551 0.0
C932 C 0.2978 0.65348 0.84754 0.0
C933 C 0.31076 0.68059 0.84305 0.0
H934 H 0.27778 0.61661 0.82841 0.0
C935 C 0.31862 0.68856 0.81486 0.0
H936 H 0.29187 0.64656 0.86912 0.0
C937 C 0.31045 0.6713 0.79136 0.0
C938 C 0.29432 0.64584 0.79575 0.0
H939 H 0.32864 0.70928 0.81074 0.0
H940 H 0.31467 0.67919 0.76973 0.0
C941 C 0.28971 0.63627 0.82417 0.0
C942 C 0.64178 0.03762 0.07455 0.0
C943 C 0.63257 0.04293 0.04614 0.0
H944 H 0.63105 0.03902 0.11944 0.0
C945 C 0.60735 0.05947 0.04188 0.0
H946 H 0.66125 0.02535 0.07871 0.0
C947 C 0.58996 0.06741 0.06539 0.0
C948 C 0.59754 0.05889 0.09347 0.0
H949 H 0.59974 0.06423 0.02027 0.0
H950 H 0.56942 0.07781 0.06131 0.0
C951 C 0.62442 0.04546 0.09794 0.0
C952 C 0.23986 0.67833 0.17826 0.0
C953 C 0.21279 0.69112 0.18277 0.0
H954 H 0.27337 0.65131 0.19485 0.0
C955 C 0.19809 0.68515 0.20872 0.0
H956 H 0.25265 0.68391 0.15981 0.0
C957 C 0.21051 0.6672 0.22974 0.0
C958 C 0.23774 0.65453 0.22507 0.0
H959 H 0.17726 0.69488 0.21303 0.0
H960 H 0.19911 0.66379 0.24991 0.0
C961 C 0.25197 0.65988 0.19881 0.0
C962 C 0.60713 0.9652 0.48576 0.0
C963 C 0.6325 0.98159 0.4817 0.0
H964 H 0.56927 0.94713 0.46601 0.0
C965 C 0.64209 0.9868 0.45338 0.0
H966 H 0.59924 0.96053 0.5073 0.0
C967 C 0.62494 0.97904 0.42985 0.0
C968 C 0.5979 0.96583 0.43408 0.0
H969 H 0.66169 0.99893 0.44939 0.0
H970 H 0.63186 0.98543 0.4084 0.0
C971 C 0.58994 0.95737 0.4621 0.0
C972 C 0.29743 0.37249 0.67945 0.0
C973 C 0.31036 0.3454 0.68405 0.0
H974 H 0.27764 0.40956 0.69847 0.0
C975 C 0.3184 0.33763 0.71222 0.0
H976 H 0.29137 0.37926 0.65788 0.0
C977 C 0.31044 0.3551 0.73565 0.0
C978 C 0.29435 0.38056 0.73121 0.0
H979 H 0.3284 0.31693 0.71641 0.0
H980 H 0.31479 0.34737 0.75731 0.0
C981 C 0.28955 0.3899 0.70276 0.0
C982 C 0.88249 0.03862 0.95061 0.0
C983 C 0.8915 0.04452 0.97895 0.0
H984 H 0.89333 0.03964 0.90573 0.0
C985 C 0.91638 0.06162 0.98306 0.0
H986 H 0.86328 0.02591 0.94656 0.0
C987 C 0.9337 0.06957 0.9595 0.0
C988 C 0.92639 0.06051 0.93152 0.0
H989 H 0.92382 0.06684 1.00462 0.0
H990 H 0.95403 0.08044 0.9635 0.0
C991 C 0.89978 0.0465 0.92717 0.0
C992 C 0.31731 0.20661 0.34164 0.0
C993 C 0.34534 0.21526 0.34922 0.0
H994 H 0.27219 0.20973 0.35133 0.0
C995 C 0.34971 0.22889 0.37604 0.0
H996 H 0.3133 0.19606 0.32115 0.0
C997 C 0.32628 0.2368 0.3933 0.0
C998 C 0.29793 0.23134 0.38408 0.0
H999 H 0.37118 0.23543 0.38267 0.0
H1000 H 0.33037 0.24922 0.4127 0.0
C1001 C 0.29376 0.2146 0.35895 0.0
C1002 C 0.06024 0.04105 0.60711 0.0
C1003 C 0.04365 0.04522 0.63235 0.0
H1004 H 0.07852 0.06055 0.56917 0.0
C1005 C 0.03824 0.07353 0.64165 0.0
H1006 H 0.06508 0.01951 0.59944 0.0
C1007 C 0.046 0.09693 0.62432 0.0
C1008 C 0.05942 0.09255 0.59738 0.0
H1009 H 0.02595 0.07761 0.66116 0.0
H1010 H 0.03947 0.11837 0.631 0.0
C1011 C 0.06809 0.06457 0.58974 0.0
C1012 C 0.17931 0.79692 0.87433 0.0
C1013 C 0.18349 0.81008 0.84724 0.0
H1014 H 0.19887 0.77689 0.91102 0.0
C1015 C 0.21152 0.81826 0.83911 0.0
H1016 H 0.15785 0.79074 0.88139 0.0
C1017 C 0.2352 0.81024 0.85619 0.0
C1018 C 0.23115 0.79393 0.88163 0.0
H1019 H 0.2154 0.82845 0.81839 0.0
H1020 H 0.25673 0.81472 0.84816 0.0
C1021 C 0.20286 0.78896 0.89136 0.0
C1022 C 0.46673 0.98486 0.10596 0.0
C1023 C 0.48262 0.98067 0.13163 0.0
H1024 H 0.4488 0.96519 0.06798 0.0
C1025 C 0.48695 0.95239 0.14157 0.0
H1026 H 0.46274 1.00638 0.09779 0.0
C1027 C 0.47885 0.92891 0.12453 0.0
C1028 C 0.4662 0.93318 0.09723 0.0
H1029 H 0.49867 0.94832 0.16141 0.0
H1030 H 0.4846 0.90742 0.13175 0.0
C1031 C 0.45857 0.96125 0.08887 0.0
C1032 C 0.31693 0.81212 0.19047 0.0
C1033 C 0.3446 0.80177 0.1837 0.0
H1034 H 0.27162 0.8094 0.18157 0.0
C1035 C 0.34819 0.78463 0.15885 0.0
H1036 H 0.31351 0.82535 0.20946 0.0
C1037 C 0.32433 0.77528 0.14304 0.0
C1038 C 0.2963 0.78301 0.15161 0.0
H1039 H 0.36935 0.77669 0.15277 0.0
H1040 H 0.32777 0.7605 0.12524 0.0
C1041 C 0.29293 0.80284 0.17449 0.0
C1042 C 0.48978 0.074 0.38754 0.0
C1043 C 0.48447 0.04555 0.39649 0.0
H1044 H 0.48822 0.1187 0.39866 0.0
C1045 C 0.46782 0.04099 0.42164 0.0
H1046 H 0.50212 0.07838 0.36813 0.0
C1047 C 0.45976 0.06426 0.43924 0.0
C1048 C 0.46827 0.09238 0.43193 0.0
H1049 H 0.46306 0.01934 0.42905 0.0
H1050 H 0.44929 0.05995 0.45974 0.0
C1051 C 0.48179 0.09715 0.40509 0.0
C1052 C 0.21046 0.20822 0.68817 0.0
C1053 C 0.18253 0.21679 0.68016 0.0
H1054 H 0.25568 0.21116 0.67893 0.0
C1055 C 0.17846 0.22997 0.65308 0.0
H1056 H 0.21424 0.198 0.70888 0.0
C1057 C 0.20208 0.23759 0.63593 0.0
C1058 C 0.23032 0.23226 0.64557 0.0
H1059 H 0.15707 0.23643 0.64611 0.0
H1060 H 0.19821 0.24969 0.61629 0.0
C1061 C 0.2342 0.21591 0.67099 0.0
C1062 C 0.06687 0.96506 0.93688 0.0
C1063 C 0.05878 0.9368 0.92963 0.0
H1064 H 0.06291 1.00991 0.92664 0.0
C1065 C 0.04542 0.93179 0.9028 0.0
H1066 H 0.07724 0.96956 0.95737 0.0
C1067 C 0.03713 0.9548 0.88521 0.0
C1068 C 0.04195 0.98334 0.89414 0.0
H1069 H 0.03932 0.91014 0.89641 0.0
H1070 H 0.02488 0.95021 0.86581 0.0
C1071 C 0.0585 0.98818 0.91926 0.0
C1072 C 0.37484 0.34498 0.23168 0.0
C1073 C 0.34803 0.34017 0.21822 0.0
H1074 H 0.41175 0.32627 0.25207 0.0
C1075 C 0.34071 0.31202 0.20984 0.0
H1076 H 0.38128 0.36655 0.238 0.0
C1077 C 0.35826 0.28877 0.21799 0.0
C1078 C 0.38337 0.29338 0.23462 0.0
H1079 H 0.32024 0.30768 0.1994 0.0
H1080 H 0.35084 0.26711 0.21335 0.0
C1081 C 0.39236 0.32185 0.23975 0.0
C1082 C 0.87174 0.17784 0.79316 0.0
C1083 C 0.84511 0.18242 0.80712 0.0
H1084 H 0.90842 0.19685 0.77253 0.0
C1085 C 0.83791 0.21045 0.81599 0.0
H1086 H 0.87809 0.15636 0.78643 0.0
C1087 C 0.8554 0.23382 0.80794 0.0
C1088 C 0.88032 0.22947 0.79091 0.0
H1089 H 0.81757 0.21462 0.8268 0.0
H1090 H 0.84806 0.25542 0.81303 0.0
C1091 C 0.88918 0.20108 0.78518 0.0
C1092 C 0.04408 0.60319 0.06089 0.0
C1093 C 0.04908 0.62748 0.04319 0.0
H1094 H 0.06207 0.56513 0.08025 0.0
C1095 C 0.07771 0.63481 0.03634 0.0
H1096 H 0.0223 0.59702 0.06683 0.0
C1097 C 0.10039 0.61652 0.04404 0.0
C1098 C 0.09501 0.59055 0.05888 0.0
H1099 H 0.08246 0.6535 0.02311 0.0
H1100 H 0.12196 0.62176 0.0366 0.0
C1101 C 0.06688 0.58488 0.06869 0.0
C1102 C 0.67058 0.79088 0.31027 0.0
C1103 C 0.64537 0.79522 0.29372 0.0
H1104 H 0.70852 0.81019 0.32867 0.0
C1105 C 0.63613 0.82359 0.28853 0.0
H1106 H 0.67821 0.76929 0.31493 0.0
C1107 C 0.65347 0.8469 0.29649 0.0
C1108 C 0.68037 0.84238 0.30987 0.0
H1109 H 0.61666 0.82779 0.27628 0.0
H1110 H 0.64682 0.8684 0.29012 0.0
C1111 C 0.68796 0.81432 0.3183 0.0
C1112 C 0.98336 0.9246 0.06056 0.0
C1113 C 0.97973 0.89912 0.0443 0.0
H1114 H 0.96297 0.96217 0.07847 0.0
C1115 C 0.95162 0.889 0.03922 0.0
H1116 H 1.00475 0.93288 0.06516 0.0
C1117 C 0.9278 0.90576 0.04695 0.0
C1118 C 0.93158 0.93292 0.05998 0.0
H1119 H 0.94797 0.86928 0.02721 0.0
H1120 H 0.90648 0.89844 0.04065 0.0
C1121 C 0.95942 0.9414 0.06835 0.0
C1122 C 0.15236 0.67884 0.73229 0.0
C1123 C 0.17901 0.6833 0.71833 0.0
H1124 H 0.11579 0.69803 0.75289 0.0
C1125 C 0.18634 0.71129 0.70939 0.0
H1126 H 0.1459 0.65739 0.73905 0.0
C1127 C 0.16898 0.73474 0.71741 0.0
C1128 C 0.14405 0.73051 0.73446 0.0
H1129 H 0.20668 0.71537 0.69855 0.0
H1130 H 0.17643 0.7563 0.71229 0.0
C1131 C 0.13504 0.70217 0.74022 0.0
C1132 C 0.07478 0.38752 0.48493 0.0
C1133 C 0.04635 0.39688 0.48018 0.0
H1134 H 0.11967 0.39799 0.48274 0.0
C1135 C 0.04193 0.42224 0.46389 0.0
H1136 H 0.07906 0.36794 0.49698 0.0
C1137 C 0.06537 0.43958 0.45565 0.0
C1138 C 0.09355 0.43179 0.46357 0.0
H1139 H 0.02029 0.42999 0.45957 0.0
H1140 H 0.06119 0.46021 0.44547 0.0
C1141 C 0.0981 0.40479 0.47674 0.0
C1142 C 0.46105 0.58786 0.95844 0.0
C1143 C 0.43304 0.59591 0.96674 0.0
H1144 H 0.50625 0.59705 0.96175 0.0
C1145 C 0.42885 0.62299 0.97984 0.0
H1146 H 0.46493 0.56716 0.9483 0.0
C1147 C 0.4524 0.64009 0.98762 0.0
C1148 C 0.48069 0.63044 0.98256 0.0
H1149 H 0.4074 0.62998 0.9861 0.0
H1150 H 0.44842 0.65974 0.99965 0.0
C1151 C 0.48473 0.60501 0.96631 0.0
C1152 C 0.72933 0.87118 0.84747 0.0
C1153 C 0.71678 0.84389 0.84302 0.0
H1154 H 0.74882 0.90831 0.82824 0.0
C1155 C 0.70897 0.8358 0.81488 0.0
H1156 H 0.73519 0.87819 0.86902 0.0
C1157 C 0.71688 0.85315 0.79135 0.0
C1158 C 0.73269 0.87881 0.79567 0.0
H1159 H 0.69924 0.81493 0.81082 0.0
H1160 H 0.71276 0.84518 0.76974 0.0
C1161 C 0.73716 0.88849 0.82406 0.0
C1162 C 0.40246 0.48028 0.09834 0.0
C1163 C 0.42934 0.46683 0.09386 0.0
H1164 H 0.36569 0.50042 0.07913 0.0
C1165 C 0.43695 0.45828 0.06579 0.0
H1166 H 0.39581 0.48674 0.11985 0.0
C1167 C 0.41959 0.46621 0.04229 0.0
C1168 C 0.39439 0.48279 0.04656 0.0
H1169 H 0.45749 0.44786 0.06171 0.0
H1170 H 0.42723 0.46143 0.02068 0.0
C1171 C 0.38514 0.48813 0.07496 0.0
C1172 C 0.81754 0.18932 0.31472 0.0
C1173 C 0.80975 0.18123 0.34289 0.0
H1174 H 0.81348 0.18012 0.26957 0.0
C1175 C 0.79687 0.15408 0.34732 0.0
H1176 H 0.8275 0.21008 0.31065 0.0
C1177 C 0.78874 0.13695 0.32391 0.0
C1178 C 0.79325 0.14664 0.29552 0.0
H1179 H 0.79101 0.14706 0.36889 0.0
H1180 H 0.77686 0.11724 0.32811 0.0
C1181 C 0.80934 0.17214 0.29118 0.0
C1182 C 0.1249 0.54742 0.59479 0.0
C1183 C 0.09784 0.56062 0.59073 0.0
H1184 H 0.16163 0.52765 0.57504 0.0
C1185 C 0.08978 0.56905 0.56275 0.0
H1186 H 0.13191 0.54105 0.6162 0.0
C1187 C 0.10691 0.56127 0.53898 0.0
C1188 C 0.13234 0.54497 0.54288 0.0
H1189 H 0.06909 0.57926 0.55896 0.0
H1190 H 0.09894 0.56594 0.51748 0.0
C1191 C 0.14199 0.53973 0.57115 0.0
C1192 C 0.72683 0.15364 0.67798 0.0
C1193 C 0.71405 0.18078 0.68265 0.0
H1194 H 0.74645 0.11644 0.69689 0.0
C1195 C 0.70606 0.18853 0.71086 0.0
H1196 H 0.73285 0.14689 0.65638 0.0
C1197 C 0.71396 0.17099 0.73425 0.0
C1198 C 0.72993 0.14547 0.72973 0.0
H1199 H 0.69616 0.20928 0.7151 0.0
H1200 H 0.70967 0.17871 0.75592 0.0
C1201 C 0.73464 0.13614 0.70125 0.0
C1202 C 0.08655 0.45145 0.96248 0.0
C1203 C 0.09505 0.45995 0.93464 0.0
H1204 H 0.0955 0.45376 1.0078 0.0
C1205 C 0.1226 0.4722 0.9308 0.0
H1206 H 0.06548 0.44191 0.96609 0.0
C1207 C 0.13981 0.47903 0.95459 0.0
C1208 C 0.12975 0.47389 0.98276 0.0
H1209 H 0.12994 0.47858 0.90949 0.0
H1210 H 0.15987 0.49051 0.95091 0.0
C1211 C 0.10377 0.45839 0.98639 0.0
C1212 C 0.79022 0.88882 0.20258 0.0
C1213 C 0.79493 0.87944 0.23103 0.0
H1214 H 0.79229 0.87828 0.15768 0.0
C1215 C 0.81109 0.85403 0.23549 0.0
H1216 H 0.77827 0.90844 0.19828 0.0
C1217 C 0.81922 0.83663 0.21206 0.0
C1218 C 0.81129 0.84443 0.18387 0.0
H1219 H 0.81539 0.84628 0.25715 0.0
H1220 H 0.82928 0.81596 0.21626 0.0
C1221 C 0.79828 0.87148 0.17927 0.0
C1222 C 0.41804 0.56059 0.48277 0.0
C1223 C 0.39301 0.54368 0.47882 0.0
H1224 H 0.45569 0.57914 0.46297 0.0
C1225 C 0.38379 0.53783 0.45053 0.0
H1226 H 0.42565 0.56576 0.50428 0.0
C1227 C 0.40098 0.54557 0.42697 0.0
C1228 C 0.42771 0.55941 0.43115 0.0
H1229 H 0.36445 0.52527 0.44661 0.0
H1230 H 0.39434 0.53876 0.40558 0.0
C1231 C 0.43527 0.56841 0.45909 0.0
C1232 C 0.79394 0.71495 0.85646 0.0
C1233 C 0.79789 0.73149 0.88174 0.0
H1234 H 0.8138 0.6967 0.81869 0.0
C1235 C 0.82617 0.73689 0.89125 0.0
H1236 H 0.77244 0.71014 0.84861 0.0
C1237 C 0.84975 0.72908 0.87414 0.0
C1238 C 0.84561 0.71566 0.84719 0.0
H1239 H 0.83008 0.74914 0.91079 0.0
H1240 H 0.87115 0.73557 0.88103 0.0
C1241 C 0.81764 0.70709 0.83929 0.0
C1242 C 0.56011 0.541 0.10655 0.0
C1243 C 0.54362 0.5454 0.13182 0.0
H1244 H 0.57849 0.56021 0.0685 0.0
C1245 C 0.53851 0.5738 0.14104 0.0
H1246 H 0.56473 0.51939 0.09894 0.0
C1247 C 0.54648 0.59707 0.12362 0.0
C1248 C 0.5598 0.59248 0.09667 0.0
H1249 H 0.5263 0.57805 0.16056 0.0
H1250 H 0.54018 0.61859 0.13026 0.0
C1251 C 0.56816 0.56439 0.08909 0.0
C1252 C 0.71018 0.31846 0.33972 0.0
C1253 C 0.6822 0.30971 0.34743 0.0
H1254 H 0.75533 0.31552 0.34922 0.0
C1255 C 0.67794 0.29606 0.37426 0.0
H1256 H 0.71411 0.32904 0.31922 0.0
C1257 C 0.70143 0.28824 0.39144 0.0
C1258 C 0.72974 0.29382 0.38209 0.0
H1259 H 0.65651 0.28945 0.38101 0.0
H1260 H 0.69743 0.27581 0.41086 0.0
C1261 C 0.7338 0.31056 0.35694 0.0
C1262 C 0.9676 0.48581 0.60435 0.0
C1263 C 0.98412 0.48142 0.62958 0.0
H1264 H 0.94912 0.46653 0.56644 0.0
C1265 C 0.98913 0.45304 0.63891 0.0
H1266 H 0.96308 0.50741 0.59667 0.0
C1267 C 0.98103 0.42974 0.62162 0.0
C1268 C 0.9677 0.43429 0.59469 0.0
H1269 H 1.00134 0.44881 0.65841 0.0
H1270 H 0.98726 0.40822 0.62832 0.0
C1271 C 0.95944 0.46238 0.58702 0.0
C1272 C 0.8459 0.2973 0.6513 0.0
C1273 C 0.84182 0.3102 0.67853 0.0
H1274 H 0.82618 0.27761 0.61454 0.0
C1275 C 0.81384 0.31836 0.68682 0.0
H1276 H 0.86733 0.29116 0.64413 0.0
C1277 C 0.79009 0.31051 0.66977 0.0
C1278 C 0.79404 0.2944 0.64421 0.0
H1279 H 0.81005 0.32835 0.70764 0.0
H1280 H 0.7686 0.31493 0.67792 0.0
C1281 C 0.82228 0.28952 0.6343 0.0
C1282 C 0.98066 0.59512 0.90418 0.0
C1283 C 0.96774 0.591 0.93141 0.0
H1284 H 1.0003 0.57549 0.8673 0.0
C1285 C 0.95951 0.56303 0.93962 0.0
H1286 H 0.98686 0.61653 0.89707 0.0
C1287 C 0.96729 0.53934 0.92244 0.0
C1288 C 0.9834 0.54333 0.89686 0.0
H1289 H 0.94953 0.55919 0.96045 0.0
H1290 H 0.96281 0.51786 0.9305 0.0
C1291 C 0.9884 0.57157 0.88708 0.0
C1292 C 0.71192 0.70721 0.18802 0.0
C1293 C 0.68396 0.71574 0.18008 0.0
H1294 H 0.75712 0.71019 0.17865 0.0
C1295 C 0.67981 0.72894 0.15302 0.0
H1296 H 0.71577 0.69697 0.20871 0.0
C1297 C 0.70338 0.73658 0.13581 0.0
C1298 C 0.73166 0.73127 0.14535 0.0
H1299 H 0.6584 0.73537 0.1461 0.0
H1300 H 0.69945 0.74868 0.11618 0.0
C1301 C 0.73562 0.71493 0.17077 0.0
C1302 C 0.53642 0.45234 0.38498 0.0
C1303 C 0.54183 0.48079 0.39385 0.0
H1304 H 0.53779 0.40765 0.39621 0.0
C1305 C 0.55848 0.48532 0.41896 0.0
H1306 H 0.52406 0.44797 0.3656 0.0
C1307 C 0.56646 0.46205 0.4366 0.0
C1308 C 0.55785 0.43395 0.42936 0.0
H1309 H 0.56333 0.50697 0.42631 0.0
H1310 H 0.57695 0.46635 0.45706 0.0
C1311 C 0.5443 0.42919 0.40257 0.0
C1312 C 0.8749 0.8467 0.73161 0.0
C1313 C 0.84821 0.84197 0.71788 0.0
H1314 H 0.91177 0.82788 0.75196 0.0
C1315 C 0.84106 0.8139 0.7091 0.0
H1316 H 0.88121 0.86822 0.73826 0.0
C1317 C 0.85867 0.79062 0.71705 0.0
C1318 C 0.88368 0.79511 0.73387 0.0
H1319 H 0.82068 0.80962 0.69846 0.0
H1320 H 0.85138 0.76898 0.71206 0.0
C1321 C 0.89248 0.82354 0.73947 0.0
C1322 C 0.37615 0.68002 0.30308 0.0
C1323 C 0.34797 0.6847 0.31353 0.0
H1324 H 0.41455 0.69892 0.28573 0.0
C1325 C 0.3396 0.71284 0.32083 0.0
H1326 H 0.38337 0.65844 0.29769 0.0
C1327 C 0.3576 0.73618 0.31397 0.0
C1328 C 0.38414 0.73165 0.29965 0.0
H1329 H 0.31808 0.71709 0.32899 0.0
H1330 H 0.34941 0.7578 0.31735 0.0
C1331 C 0.39407 0.70325 0.2962 0.0
C1332 C 0.54229 0.10387 0.56269 0.0
C1333 C 0.54656 0.12946 0.54672 0.0
H1334 H 0.56177 0.0657 0.58036 0.0
C1335 C 0.57493 0.13902 0.54191 0.0
H1336 H 0.5207 0.09598 0.56705 0.0
C1337 C 0.59834 0.1217 0.54961 0.0
C1338 C 0.59392 0.09449 0.56237 0.0
H1339 H 0.57909 0.15878 0.53011 0.0
H1340 H 0.61986 0.12864 0.54351 0.0
C1341 C 0.56583 0.0865 0.57047 0.0
C1342 C 0.18687 0.31566 0.81815 0.0
C1343 C 0.17949 0.34374 0.80958 0.0
H1344 H 0.17685 0.27068 0.81494 0.0
C1345 C 0.15269 0.34836 0.79603 0.0
H1346 H 0.20734 0.31146 0.82865 0.0
C1347 C 0.13524 0.32512 0.7881 0.0
C1348 C 0.14427 0.29672 0.79347 0.0
H1349 H 0.1462 0.36988 0.78955 0.0
H1350 H 0.11585 0.3294 0.77574 0.0
C1351 C 0.16938 0.2923 0.81014 0.0
C1352 C 0.42789 0.40451 0.54787 0.0
C1353 C 0.43225 0.43184 0.56035 0.0
H1354 H 0.44722 0.36738 0.5285 0.0
C1355 C 0.46035 0.44004 0.56817 0.0
H1356 H 0.40638 0.39741 0.542 0.0
C1357 C 0.48392 0.42274 0.56034 0.0
C1358 C 0.47969 0.39702 0.5446 0.0
H1359 H 0.46434 0.46094 0.57784 0.0
H1360 H 0.5055 0.43079 0.56446 0.0
C1361 C 0.45134 0.38725 0.54011 0.0
C1362 C 0.66838 0.23554 0.21663 0.0
C1363 C 0.64326 0.23126 0.23337 0.0
H1364 H 0.70623 0.21617 0.19808 0.0
C1365 C 0.63402 0.20291 0.23875 0.0
H1366 H 0.67599 0.25711 0.21181 0.0
C1367 C 0.65134 0.17957 0.23082 0.0
C1368 C 0.67818 0.18406 0.21726 0.0
H1369 H 0.61461 0.19875 0.25115 0.0
H1370 H 0.64473 0.1581 0.23734 0.0
C1371 C 0.68573 0.21208 0.20862 0.0
C1372 C 0.5752 0.88497 0.9902 0.0
C1373 C 0.54682 0.89408 0.98472 0.0
H1374 H 0.62007 0.89562 0.98858 0.0
C1375 C 0.54257 0.91905 0.96779 0.0
H1376 H 0.57935 0.86569 1.00276 0.0
C1377 C 0.56607 0.93632 0.95959 0.0
C1378 C 0.59413 0.92885 0.9682 0.0
H1379 H 0.52098 0.92658 0.9629 0.0
H1380 H 0.56198 0.95669 0.94887 0.0
C1381 C 0.59858 0.90219 0.98206 0.0
C1382 C 0.98499 0.10486 0.46641 0.0
C1383 C 0.98067 0.13025 0.48266 0.0
H1384 H 0.96555 0.06694 0.44818 0.0
C1385 C 0.95229 0.1398 0.48741 0.0
H1386 H 1.00659 0.097 0.46208 0.0
C1387 C 0.9289 0.12261 0.47935 0.0
C1388 C 0.93335 0.09555 0.4663 0.0
H1389 H 0.94811 0.15942 0.49942 0.0
H1390 H 0.90736 0.1295 0.4854 0.0
C1391 C 0.96147 0.08763 0.45827 0.0
C1392 C 0.24912 0.41412 0.47515 0.0
C1393 C 0.22651 0.41557 0.49529 0.0
H1394 H 0.27587 0.38696 0.44913 0.0
C1395 C 0.21655 0.38985 0.5081 0.0
H1396 H 0.25731 0.43354 0.46501 0.0
C1397 C 0.22672 0.36307 0.49858 0.0
C1398 C 0.24753 0.36156 0.47659 0.0
H1399 H 0.19912 0.39021 0.52372 0.0
H1400 H 0.21698 0.3436 0.50711 0.0
C1401 C 0.25978 0.38736 0.46613 0.0
C1402 C 0.88847 1.00731 0.71657 0.0
C1403 C 0.91459 0.99542 0.7266 0.0
H1404 H 0.84224 1.00454 0.71668 0.0
C1405 C 0.91375 0.97511 0.74904 0.0
H1406 H 0.88838 0.02301 0.69922 0.0
C1407 C 0.88725 0.96504 0.75948 0.0
C1408 C 0.86115 0.97458 0.74714 0.0
H1409 H 0.93351 0.96565 0.75723 0.0
H1410 H 0.88736 0.94794 0.77544 0.0
C1411 C 0.86198 0.99672 0.72649 0.0
C1412 C 0.26739 0.63867 0.96585 0.0
C1413 C 0.27898 0.66473 0.97632 0.0
H1414 H 0.27032 0.59252 0.96564 0.0
C1415 C 0.29849 0.6638 0.99948 0.0
H1416 H 0.25228 0.63863 0.94799 0.0
C1417 C 0.30822 0.63728 1.01013 0.0
C1418 C 0.29928 0.61126 0.99719 0.0
H1419 H 0.30769 0.68351 1.00805 0.0
H1420 H 0.32478 0.63734 0.02664 0.0
C1421 C 0.27775 0.61217 0.9759 0.0
C1422 C 0.63851 0.06029 0.25956 0.0
C1423 C 0.66473 0.0508 0.24738 0.0
H1424 H 0.59228 0.05953 0.25704 0.0
C1425 C 0.66413 0.02845 0.22696 0.0
H1426 H 0.63823 0.07752 0.27537 0.0
C1427 C 0.63774 0.01769 0.21698 0.0
C1428 C 0.61151 0.02961 0.22672 0.0
H1429 H 0.68396 0.02063 0.21731 0.0
H1430 H 0.63802 1.00187 0.19976 0.0
C1431 C 0.61212 0.05005 0.24905 0.0
C1432 C 0.2601 0.61741 0.07943 0.0
C1433 C 0.25325 0.64441 0.06733 0.0
H1434 H 0.25303 0.57175 0.07811 0.0
C1435 C 0.23907 0.64525 0.04054 0.0
H1436 H 0.27131 0.61597 0.09991 0.0
C1437 C 0.22887 0.61984 0.02791 0.0
C1438 C 0.23251 0.59317 0.04195 0.0
H1439 H 0.23377 0.66566 0.03045 0.0
H1440 H 0.21586 0.62151 1.00855 0.0
C1441 C 0.24969 0.592 0.0669 0.0
C1442 C 0.66582 0.99765 0.3004 0.0
C1443 C 0.66644 0.97534 0.27994 0.0
H1444 H 0.6397 0.0241 0.32776 0.0
C1445 C 0.64021 0.96572 0.26792 0.0
H1446 H 0.68565 1.00555 0.30995 0.0
C1447 C 0.61381 0.97585 0.27858 0.0
C1448 C 0.61319 0.99628 0.30092 0.0
H1449 H 0.63993 0.94852 0.25209 0.0
H1450 H 0.59398 0.96631 0.27066 0.0
C1451 C 0.63942 1.00828 0.31054 0.0
C1452 C 0.27748 0.41334 0.55023 0.0
C1453 C 0.2999 0.41438 0.52985 0.0
H1454 H 0.25138 0.38677 0.57752 0.0
C1455 C 0.31018 0.38836 0.51797 0.0
H1456 H 0.26907 0.43301 0.55966 0.0
C1457 C 0.30053 0.36181 0.52863 0.0
C1458 C 0.27994 0.36081 0.55086 0.0
H1459 H 0.32748 0.3884 0.5022 0.0
H1460 H 0.31052 0.34219 0.52078 0.0
C1461 C 0.26734 0.38678 0.56039 0.0
C1462 C 0.88652 0.018 0.80883 0.0
C1463 C 0.91252 0.0303 0.79891 0.0
H1464 H 0.84025 0.02003 0.80853 0.0
C1465 C 0.91149 0.0506 0.77645 0.0
H1466 H 0.88657 1.00231 0.82618 0.0
C1467 C 0.8849 0.06023 0.76589 0.0
C1468 C 0.85888 0.05027 0.77813 0.0
H1469 H 0.93115 0.06037 0.76834 0.0
H1470 H 0.88485 0.07733 0.74993 0.0
C1471 C 0.85992 0.02815 0.79879 0.0
C1472 C 0.4776 0.24686 0.4168 0.0
C1473 C 0.49814 0.22466 0.41787 0.0
H1474 H 0.45052 0.27298 0.39011 0.0
C1475 C 0.51049 0.21481 0.39185 0.0
H1476 H 0.46778 0.25492 0.43647 0.0
C1477 C 0.50016 0.22464 0.36523 0.0
C1478 C 0.47781 0.24503 0.36416 0.0
H1479 H 0.52638 0.19766 0.39192 0.0
H1480 H 0.50835 0.21496 0.34556 0.0
C1481 C 0.46778 0.25721 0.39018 0.0
C1482 C 0.01673 0.21646 0.63749 0.0
C1483 C 0.02901 0.22588 0.61127 0.0
H1484 H 0.01906 0.21734 0.68376 0.0
C1485 C 0.04947 0.24819 0.61189 0.0
H1486 H 1.00088 0.19928 0.63777 0.0
C1487 C 0.05939 0.25898 0.6383 0.0
C1488 C 0.04953 0.24714 0.66455 0.0
H1489 H 0.05921 0.25596 0.59206 0.0
H1490 H 0.07664 0.27477 0.63803 0.0
C1491 C 0.02716 0.22675 0.66391 0.0
C1492 C 0.04998 0.78076 0.91623 0.0
C1493 C 0.02964 0.80317 0.91679 0.0
H1494 H 0.07697 0.75391 0.89014 0.0
C1495 C 0.01741 0.81253 0.89055 0.0
H1496 H 0.05967 0.77304 0.93607 0.0
C1497 C 0.02779 0.80208 0.86416 0.0
C1498 C 0.05003 0.78156 0.86356 0.0
H1499 H 1.00165 0.82979 0.89023 0.0
H1500 H 0.01974 0.81143 0.84428 0.0
C1501 C 0.05982 0.76979 0.88984 0.0
C1502 C 0.51012 0.81125 0.14111 0.0
C1503 C 0.49791 0.80097 0.1152 0.0
H1504 H 0.5082 0.81122 0.18743 0.0
C1505 C 0.47784 0.77833 0.11652 0.0
H1506 H 0.52562 0.82875 0.14086 0.0
C1507 C 0.46841 0.76784 0.14326 0.0
C1508 C 0.47835 0.78029 0.16916 0.0
H1509 H 0.46814 0.76994 0.09696 0.0
H1510 H 0.45152 0.75167 0.14353 0.0
C1511 C 0.50014 0.80127 0.16785 0.0
C1512 C 0.38851 0.50676 0.21685 0.0
C1513 C 0.41477 0.49504 0.22671 0.0
H1514 H 0.34231 0.50354 0.21701 0.0
C1515 C 0.41416 0.47445 0.24891 0.0
H1516 H 0.38824 0.52266 0.19969 0.0
C1517 C 0.38777 0.46401 0.2593 0.0
C1518 C 0.36156 0.47344 0.24711 0.0
H1519 H 0.43403 0.4651 0.25696 0.0
H1520 H 0.38808 0.44675 0.27507 0.0
C1521 C 0.36214 0.49579 0.22669 0.0
C1522 C 0.80968 0.88845 0.01789 0.0
C1523 C 0.79944 0.91432 0.03012 0.0
H1524 H 0.81033 0.84225 0.02033 0.0
C1525 C 0.77739 0.91299 0.05089 0.0
H1526 H 0.82671 0.88871 1.00183 0.0
C1527 C 0.76758 0.88629 0.06101 0.0
C1528 C 0.78014 0.86047 0.05105 0.0
H1529 H 0.76903 0.93253 0.06062 0.0
H1530 H 0.75191 0.88606 0.07841 0.0
C1531 C 0.80037 0.86176 0.0285 0.0
C1532 C 0.16574 0.52786 0.72539 0.0
C1533 C 0.16622 0.5497 0.74636 0.0
H1534 H 0.13979 0.50207 0.69728 0.0
C1535 C 0.13993 0.55888 0.75863 0.0
H1536 H 0.18563 0.52028 0.71566 0.0
C1537 C 0.1136 0.54898 0.74764 0.0
C1538 C 0.11313 0.52918 0.72473 0.0
H1539 H 0.13955 0.57568 0.77488 0.0
H1540 H 0.09371 0.55828 0.75573 0.0
C1541 C 0.13941 0.51742 0.71492 0.0
C1542 C 0.74925 0.91324 0.97527 0.0
C1543 C 0.72721 0.91417 0.99606 0.0
H1544 H 0.77533 0.88675 0.94792 0.0
C1545 C 0.71758 0.88814 1.00849 0.0
H1546 H 0.75713 0.93292 0.96539 0.0
C1547 C 0.72751 0.86162 0.99806 0.0
C1548 C 0.74775 0.86066 0.97551 0.0
H1549 H 0.70056 0.8881 0.02457 0.0
H1550 H 0.71802 0.84193 1.00637 0.0
C1551 C 0.75969 0.88672 0.96534 0.0
C1552 C 0.80032 0.16384 0.4984 0.0
C1553 C 0.77988 0.16478 0.47607 0.0
H1554 H 0.82745 0.13736 0.52468 0.0
C1555 C 0.76772 0.13873 0.46619 0.0
H1556 H 0.80997 0.18352 0.50651 0.0
C1557 C 0.77816 0.11221 0.47612 0.0
C1558 C 0.80045 0.11127 0.4966 0.0
H1559 H 0.75189 0.1387 0.44897 0.0
H1560 H 0.77011 0.09253 0.46641 0.0
C1561 C 0.81026 0.13732 0.50883 0.0
C1562 C 0.75863 0.13926 0.56017 0.0
C1563 C 0.74606 0.16505 0.55013 0.0
H1564 H 0.75685 0.09304 0.56033 0.0
C1565 C 0.72569 0.16366 0.52777 0.0
H1566 H 0.77444 0.13957 0.57739 0.0
C1567 C 0.71609 0.13693 0.51757 0.0
C1568 C 0.72621 0.11113 0.53005 0.0
H1569 H 0.71575 0.18314 0.51952 0.0
H1570 H 0.69889 0.13661 0.50173 0.0
C1571 C 0.74854 0.11252 0.55046 0.0
C1572 C 0.11346 0.47664 0.77881 0.0
C1573 C 0.11256 0.49624 0.80189 0.0
H1574 H 0.13993 0.45045 0.75155 0.0
C1575 C 0.13863 0.50828 0.81191 0.0
H1576 H 0.09376 0.46716 0.77052 0.0
C1577 C 0.16517 0.49826 0.8015 0.0
C1578 C 0.16608 0.47656 0.7804 0.0
H1579 H 0.1387 0.52352 0.82965 0.0
H1580 H 0.18488 0.50604 0.81139 0.0
C1581 C 0.13999 0.46715 0.76792 0.0
C1582 C 0.39011 0.56358 0.2627 0.0
C1583 C 0.36331 0.55421 0.27369 0.0
H1584 H 0.4362 0.56227 0.26701 0.0
C1585 C 0.36289 0.53156 0.29381 0.0
H1586 H 0.39124 0.58099 0.24712 0.0
C1587 C 0.38874 0.52045 0.30474 0.0
C1588 C 0.41546 0.53221 0.2962 0.0
H1589 H 0.34262 0.52379 0.30257 0.0
H1590 H 0.38762 0.5044 0.32173 0.0
C1591 C 0.41595 0.55293 0.27411 0.0
C1592 C 0.97974 0.74652 0.91489 0.0
C1593 C 1.00001 0.72405 0.91544 0.0
H1594 H 0.95253 0.77317 0.88886 0.0
C1595 C 1.01198 0.71443 0.88916 0.0
H1596 H 0.97026 0.75446 0.93477 0.0
C1597 C 1.00138 0.72466 0.86278 0.0
C1598 C 0.97915 0.7452 0.86224 0.0
H1599 H 0.0277 0.69713 0.88881 0.0
H1600 H 1.00921 0.71511 0.8429 0.0
C1601 C 0.96965 0.75725 0.88852 0.0
C1602 C 0.55039 0.74777 0.11196 0.0
C1603 C 0.5301 0.72532 0.11118 0.0
H1604 H 0.5775 0.77425 0.13829 0.0
C1605 C 0.51811 0.71542 0.13735 0.0
H1606 H 0.55992 0.75589 0.09217 0.0
C1607 C 0.52863 0.72543 0.16383 0.0
C1608 C 0.55081 0.74603 0.1646 0.0
H1609 H 0.5024 0.6981 0.13751 0.0
H1610 H 0.52073 0.71569 0.18361 0.0
C1611 C 0.5604 0.7583 0.13845 0.0
C1612 C 0.52669 0.3011 0.36347 0.0
C1613 C 0.54907 0.28073 0.36264 0.0
H1614 H 0.50029 0.32823 0.38987 0.0
C1615 C 0.55896 0.26872 0.38878 0.0
H1616 H 0.51861 0.31065 0.3437 0.0
C1617 C 0.54897 0.27923 0.41529 0.0
C1618 C 0.5284 0.30142 0.41611 0.0
H1619 H 0.57623 0.25297 0.38889 0.0
H1620 H 0.55868 0.27131 0.43504 0.0
C1621 C 0.51619 0.31109 0.38999 0.0
C1622 C 0.99755 0.3006 0.66154 0.0
C1623 C 0.97518 0.28019 0.66205 0.0
H1624 H 0.02423 0.3279 0.63556 0.0
C1625 C 0.96561 0.2683 0.63574 0.0
H1626 H 1.00544 0.31005 0.68144 0.0
C1627 C 0.97589 0.27897 0.60938 0.0
C1628 C 0.99645 0.3012 0.60887 0.0
H1629 H 0.94836 0.25252 0.63537 0.0
H1630 H 0.96641 0.27113 0.58948 0.0
C1631 C 1.00835 0.31075 0.63519 0.0
loop_
_geom_bond_atom_site_label_1
_geom_bond_atom_site_label_2
_geom_bond_distance
_geom_bond_site_symmetry_2
_ccdc_geom_bond_type
O0 Cd1 2.223 . S
O0 C8 1.315 . S
Cd1 O0 2.223 . S
Cd1 O4 2.297 . S
Cd1 O5 2.439 . S
Cd1 O11 2.240 . S
Cd2 O3 2.240 . S
Cd2 O10 2.223 . S
Cd2 O12 2.297 . S
Cd2 O13 2.439 . S
O3 Cd2 2.240 . S
O3 C8 1.279 . S
O4 Cd1 2.297 . S
O4 C6 1.247 . S
O5 Cd1 2.439 . S
O5 C6 1.208 . S
C6 O4 1.247 . S
C6 O5 1.208 . S
C7 O12 1.247 . S
C7 O13 1.208 . S
C8 O0 1.315 . S
C8 O3 1.279 . S
C9 O10 1.315 . S
C9 O11 1.279 . S
O10 Cd2 2.223 . S
O10 C9 1.315 . S
O11 Cd1 2.240 . S
O11 C9 1.279 . S
O12 Cd2 2.297 . S
O12 C7 1.247 . S
O13 Cd2 2.439 . S
O13 C7 1.208 . S
O14 Cd15 2.223 . S
O14 C22 1.315 . S
Cd15 O14 2.223 . S
Cd15 O18 2.297 . S
Cd15 O19 2.439 . S
Cd15 O25 2.240 1_455 S
Cd16 O17 2.240 1_655 S
Cd16 O24 2.223 . S
Cd16 O26 2.297 . S
Cd16 O27 2.439 . S
O17 Cd16 2.240 1_455 S
O17 C22 1.279 . S
O18 Cd15 2.297 . S
O18 C20 1.247 . S
O19 Cd15 2.439 . S
O19 C20 1.208 . S
C20 O18 1.247 . S
C20 O19 1.208 . S
C21 O26 1.247 . S
C21 O27 1.208 . S
C22 O14 1.315 . S
C22 O17 1.279 . S
C23 O24 1.315 . S
C23 O25 1.279 . S
O24 Cd16 2.223 . S
O24 C23 1.315 . S
O25 Cd15 2.240 1_655 S
O25 C23 1.279 . S
O26 Cd16 2.297 . S
O26 C21 1.247 . S
O27 Cd16 2.439 . S
O27 C21 1.208 . S
O28 Cd29 2.223 . S
O28 C36 1.315 . S
Cd29 O28 2.223 . S
Cd29 O32 2.297 . S
Cd29 O33 2.439 . S
Cd29 O39 2.240 . S
Cd30 O31 2.240 . S
Cd30 O38 2.223 . S
Cd30 O40 2.297 . S
Cd30 O41 2.439 . S
O31 Cd30 2.240 . S
O31 C36 1.279 . S
O32 Cd29 2.297 . S
O32 C34 1.247 . S
O33 Cd29 2.439 . S
O33 C34 1.208 . S
C34 O32 1.247 . S
C34 O33 1.208 . S
C35 O40 1.247 . S
C35 O41 1.208 . S
C36 O28 1.315 . S
C36 O31 1.279 . S
C37 O38 1.315 . S
C37 O39 1.279 . S
O38 Cd30 2.223 . S
O38 C37 1.315 . S
O39 Cd29 2.240 . S
O39 C37 1.279 . S
O40 Cd30 2.297 . S
O40 C35 1.247 . S
O41 Cd30 2.439 . S
O41 C35 1.208 . S
O42 Cd43 2.223 . S
O42 C50 1.315 . S
Cd43 O42 2.223 . S
Cd43 O46 2.297 . S
Cd43 O47 2.439 . S
Cd43 O53 2.240 . S
Cd44 O45 2.240 . S
Cd44 O52 2.223 . S
Cd44 O54 2.297 . S
Cd44 O55 2.439 . S
O45 Cd44 2.240 . S
O45 C50 1.279 . S
O46 Cd43 2.297 . S
O46 C48 1.247 . S
O47 Cd43 2.439 . S
O47 C48 1.208 . S
C48 O46 1.247 . S
C48 O47 1.208 . S
C49 O54 1.247 . S
C49 O55 1.208 . S
C50 O42 1.315 . S
C50 O45 1.279 . S
C51 O52 1.315 . S
C51 O53 1.279 . S
O52 Cd44 2.223 . S
O52 C51 1.315 . S
O53 Cd43 2.240 . S
O53 C51 1.279 . S
O54 Cd44 2.297 . S
O54 C49 1.247 . S
O55 Cd44 2.439 . S
O55 C49 1.208 . S
O56 Cd57 2.223 . S
O56 C64 1.315 . S
Cd57 O56 2.223 . S
Cd57 O60 2.297 . S
Cd57 O61 2.439 . S
Cd57 O67 2.240 . S
Cd58 O59 2.240 . S
Cd58 O66 2.223 . S
Cd58 O68 2.297 . S
Cd58 O69 2.439 . S
O59 Cd58 2.240 . S
O59 C64 1.279 . S
O60 Cd57 2.297 . S
O60 C62 1.247 . S
O61 Cd57 2.439 . S
O61 C62 1.208 . S
C62 O60 1.247 . S
C62 O61 1.208 . S
C63 O68 1.247 . S
C63 O69 1.208 . S
C64 O56 1.315 . S
C64 O59 1.279 . S
C65 O66 1.315 . S
C65 O67 1.279 . S
O66 Cd58 2.223 . S
O66 C65 1.315 . S
O67 Cd57 2.240 . S
O67 C65 1.279 . S
O68 Cd58 2.297 . S
O68 C63 1.247 . S
O69 Cd58 2.439 . S
O69 C63 1.208 . S
O70 Cd71 2.223 . S
O70 C78 1.315 . S
Cd71 O70 2.223 . S
Cd71 O74 2.297 . S
Cd71 O75 2.439 . S
Cd71 O81 2.240 . S
Cd72 O73 2.240 . S
Cd72 O80 2.223 . S
Cd72 O82 2.297 . S
Cd72 O83 2.439 . S
O73 Cd72 2.240 . S
O73 C78 1.279 . S
O74 Cd71 2.297 . S
O74 C76 1.247 . S
O75 Cd71 2.439 . S
O75 C76 1.208 . S
C76 O74 1.247 . S
C76 O75 1.208 . S
C77 O82 1.247 . S
C77 O83 1.208 . S
C78 O70 1.315 . S
C78 O73 1.279 . S
C79 O80 1.315 . S
C79 O81 1.279 . S
O80 Cd72 2.223 . S
O80 C79 1.315 . S
O81 Cd71 2.240 . S
O81 C79 1.279 . S
O82 Cd72 2.297 . S
O82 C77 1.247 . S
O83 Cd72 2.439 . S
O83 C77 1.208 . S
O84 Cd85 2.223 . S
O84 C92 1.315 . S
Cd85 O84 2.223 . S
Cd85 O88 2.297 . S
Cd85 O89 2.439 . S
Cd85 O95 2.240 . S
Cd86 O87 2.240 . S
Cd86 O94 2.223 . S
Cd86 O96 2.297 . S
Cd86 O97 2.439 . S
O87 Cd86 2.240 . S
O87 C92 1.279 . S
O88 Cd85 2.297 . S
O88 C90 1.247 . S
O89 Cd85 2.439 . S
O89 C90 1.208 . S
C90 O88 1.247 . S
C90 O89 1.208 . S
C91 O96 1.247 . S
C91 O97 1.208 . S
C92 O84 1.315 . S
C92 O87 1.279 . S
C93 O94 1.315 . S
C93 O95 1.279 . S
O94 Cd86 2.223 . S
O94 C93 1.315 . S
O95 Cd85 2.240 . S
O95 C93 1.279 . S
O96 Cd86 2.297 . S
O96 C91 1.247 . S
O97 Cd86 2.439 . S
O97 C91 1.208 . S
O98 Cd99 2.223 . S
O98 C106 1.315 . S
Cd99 O98 2.223 . S
Cd99 O102 2.297 . S
Cd99 O103 2.439 . S
Cd99 O109 2.240 1_455 S
Cd100 O101 2.240 1_655 S
Cd100 O108 2.223 . S
Cd100 O110 2.297 . S
Cd100 O111 2.439 . S
O101 Cd100 2.240 1_455 S
O101 C106 1.279 . S
O102 Cd99 2.297 . S
O102 C104 1.247 . S
O103 Cd99 2.439 . S
O103 C104 1.208 . S
C104 O102 1.247 . S
C104 O103 1.208 . S
C105 O110 1.247 . S
C105 O111 1.208 . S
C106 O98 1.315 . S
C106 O101 1.279 . S
C107 O108 1.315 . S
C107 O109 1.279 . S
O108 Cd100 2.223 . S
O108 C107 1.315 . S
O109 Cd99 2.240 1_655 S
O109 C107 1.279 . S
O110 Cd100 2.297 . S
O110 C105 1.247 . S
O111 Cd100 2.439 . S
O111 C105 1.208 . S
O112 Cd113 2.223 . S
O112 C120 1.315 . S
Cd113 O112 2.223 . S
Cd113 O116 2.297 . S
Cd113 O117 2.439 . S
Cd113 O123 2.240 . S
Cd114 O115 2.240 . S
Cd114 O122 2.223 . S
Cd114 O124 2.297 . S
Cd114 O125 2.439 . S
O115 Cd114 2.240 . S
O115 C120 1.279 . S
O116 Cd113 2.297 . S
O116 C118 1.247 . S
O117 Cd113 2.439 . S
O117 C118 1.208 . S
C118 O116 1.247 . S
C118 O117 1.208 . S
C119 O124 1.247 . S
C119 O125 1.208 . S
C120 O112 1.315 . S
C120 O115 1.279 . S
C121 O122 1.315 . S
C121 O123 1.279 . S
O122 Cd114 2.223 . S
O122 C121 1.315 . S
O123 Cd113 2.240 . S
O123 C121 1.279 . S
O124 Cd114 2.297 . S
O124 C119 1.247 . S
O125 Cd114 2.439 . S
O125 C119 1.208 . S
O126 Cd127 2.223 . S
O126 C134 1.315 . S
Cd127 O126 2.223 . S
Cd127 O130 2.297 . S
Cd127 O131 2.439 . S
Cd127 O137 2.240 . S
Cd128 O129 2.240 . S
Cd128 O136 2.223 . S
Cd128 O138 2.297 . S
Cd128 O139 2.439 . S
O129 Cd128 2.240 . S
O129 C134 1.279 . S
O130 Cd127 2.297 . S
O130 C132 1.247 . S
O131 Cd127 2.439 . S
O131 C132 1.208 . S
C132 O130 1.247 . S
C132 O131 1.208 . S
C133 O138 1.247 . S
C133 O139 1.208 . S
C134 O126 1.315 . S
C134 O129 1.279 . S
C135 O136 1.315 . S
C135 O137 1.279 . S
O136 Cd128 2.223 . S
O136 C135 1.315 . S
O137 Cd127 2.240 . S
O137 C135 1.279 . S
O138 Cd128 2.297 . S
O138 C133 1.247 . S
O139 Cd128 2.439 . S
O139 C133 1.208 . S
O140 Cd141 2.223 . S
O140 C148 1.315 . S
Cd141 O140 2.223 . S
Cd141 O144 2.297 . S
Cd141 O145 2.439 . S
Cd141 O151 2.240 . S
Cd142 O143 2.240 . S
Cd142 O150 2.223 . S
Cd142 O152 2.297 . S
Cd142 O153 2.439 . S
O143 Cd142 2.240 . S
O143 C148 1.279 . S
O144 Cd141 2.297 . S
O144 C146 1.247 . S
O145 Cd141 2.439 . S
O145 C146 1.208 . S
C146 O144 1.247 . S
C146 O145 1.208 . S
C147 O152 1.247 . S
C147 O153 1.208 . S
C148 O140 1.315 . S
C148 O143 1.279 . S
C149 O150 1.315 . S
C149 O151 1.279 . S
O150 Cd142 2.223 . S
O150 C149 1.315 . S
O151 Cd141 2.240 . S
O151 C149 1.279 . S
O152 Cd142 2.297 . S
O152 C147 1.247 . S
O153 Cd142 2.439 . S
O153 C147 1.208 . S
O154 Cd155 2.223 . S
O154 C162 1.315 . S
Cd155 O154 2.223 . S
Cd155 O158 2.297 . S
Cd155 O159 2.439 . S
Cd155 O165 2.240 1_556 S
Cd156 O157 2.240 1_554 S
Cd156 O164 2.223 . S
Cd156 O166 2.297 . S
Cd156 O167 2.439 . S
O157 Cd156 2.240 1_556 S
O157 C162 1.279 . S
O158 Cd155 2.297 . S
O158 C160 1.247 . S
O159 Cd155 2.439 . S
O159 C160 1.208 . S
C160 O158 1.247 . S
C160 O159 1.208 . S
C161 O166 1.247 . S
C161 O167 1.208 . S
C162 O154 1.315 . S
C162 O157 1.279 . S
C163 O164 1.315 . S
C163 O165 1.279 . S
O164 Cd156 2.223 . S
O164 C163 1.315 . S
O165 Cd155 2.240 1_554 S
O165 C163 1.279 . S
O166 Cd156 2.297 . S
O166 C161 1.247 . S
O167 Cd156 2.439 . S
O167 C161 1.208 . S
O168 Cd169 2.223 . S
O168 C176 1.315 . S
Cd169 O168 2.223 . S
Cd169 O172 2.297 . S
Cd169 O173 2.439 . S
Cd169 O179 2.240 . S
Cd170 O171 2.240 . S
Cd170 O178 2.223 . S
Cd170 O180 2.297 . S
Cd170 O181 2.439 . S
O171 Cd170 2.240 . S
O171 C176 1.279 . S
O172 Cd169 2.297 . S
O172 C174 1.247 . S
O173 Cd169 2.439 . S
O173 C174 1.208 . S
C174 O172 1.247 . S
C174 O173 1.208 . S
C175 O180 1.247 . S
C175 O181 1.208 . S
C176 O168 1.315 . S
C176 O171 1.279 . S
C177 O178 1.315 . S
C177 O179 1.279 . S
O178 Cd170 2.223 . S
O178 C177 1.315 . S
O179 Cd169 2.240 . S
O179 C177 1.279 . S
O180 Cd170 2.297 . S
O180 C175 1.247 . S
O181 Cd170 2.439 . S
O181 C175 1.208 . S
O182 Cd183 2.223 . S
O182 C190 1.315 . S
Cd183 O182 2.223 . S
Cd183 O186 2.297 . S
Cd183 O187 2.439 . S
Cd183 O193 2.240 . S
Cd184 O185 2.240 . S
Cd184 O192 2.223 . S
Cd184 O194 2.297 . S
Cd184 O195 2.439 . S
O185 Cd184 2.240 . S
O185 C190 1.279 . S
O186 Cd183 2.297 . S
O186 C188 1.247 . S
O187 Cd183 2.439 . S
O187 C188 1.208 . S
C188 O186 1.247 . S
C188 O187 1.208 . S
C189 O194 1.247 . S
C189 O195 1.208 . S
C190 O182 1.315 . S
C190 O185 1.279 . S
C191 O192 1.315 . S
C191 O193 1.279 . S
O192 Cd184 2.223 . S
O192 C191 1.315 . S
O193 Cd183 2.240 . S
O193 C191 1.279 . S
O194 Cd184 2.297 . S
O194 C189 1.247 . S
O195 Cd184 2.439 . S
O195 C189 1.208 . S
O196 Cd197 2.223 . S
O196 C204 1.315 . S
Cd197 O196 2.223 . S
Cd197 O200 2.297 . S
Cd197 O201 2.439 . S
Cd197 O207 2.240 . S
Cd198 O199 2.240 . S
Cd198 O206 2.223 . S
Cd198 O208 2.297 . S
Cd198 O209 2.439 . S
O199 Cd198 2.240 . S
O199 C204 1.279 . S
O200 Cd197 2.297 . S
O200 C202 1.247 . S
O201 Cd197 2.439 . S
O201 C202 1.208 . S
C202 O200 1.247 . S
C202 O201 1.208 . S
C203 O208 1.247 . S
C203 O209 1.208 . S
C204 O196 1.315 . S
C204 O199 1.279 . S
C205 O206 1.315 . S
C205 O207 1.279 . S
O206 Cd198 2.223 . S
O206 C205 1.315 . S
O207 Cd197 2.240 . S
O207 C205 1.279 . S
O208 Cd198 2.297 . S
O208 C203 1.247 . S
O209 Cd198 2.439 . S
O209 C203 1.208 . S
O210 Cd211 2.223 . S
O210 C218 1.315 . S
Cd211 O210 2.223 . S
Cd211 O214 2.297 . S
Cd211 O215 2.439 . S
Cd211 O221 2.240 1_554 S
Cd212 O213 2.240 1_556 S
Cd212 O220 2.223 . S
Cd212 O222 2.297 . S
Cd212 O223 2.439 . S
O213 Cd212 2.240 1_554 S
O213 C218 1.279 . S
O214 Cd211 2.297 . S
O214 C216 1.247 . S
O215 Cd211 2.439 . S
O215 C216 1.208 . S
C216 O214 1.247 . S
C216 O215 1.208 . S
C217 O222 1.247 . S
C217 O223 1.208 . S
C218 O210 1.315 . S
C218 O213 1.279 . S
C219 O220 1.315 . S
C219 O221 1.279 . S
O220 Cd212 2.223 . S
O220 C219 1.315 . S
O221 Cd211 2.240 1_556 S
O221 C219 1.279 . S
O222 Cd212 2.297 . S
O222 C217 1.247 . S
O223 Cd212 2.439 . S
O223 C217 1.208 . S
O224 Cd225 2.223 . S
O224 C232 1.315 . S
Cd225 O224 2.223 . S
Cd225 O228 2.297 . S
Cd225 O229 2.439 . S
Cd225 O235 2.240 . S
Cd226 O227 2.240 . S
Cd226 O234 2.223 . S
Cd226 O236 2.297 . S
Cd226 O237 2.439 . S
O227 Cd226 2.240 . S
O227 C232 1.279 . S
O228 Cd225 2.297 . S
O228 C230 1.247 . S
O229 Cd225 2.439 . S
O229 C230 1.208 . S
C230 O228 1.247 . S
C230 O229 1.208 . S
C231 O236 1.247 . S
C231 O237 1.208 . S
C232 O224 1.315 . S
C232 O227 1.279 . S
C233 O234 1.315 . S
C233 O235 1.279 . S
O234 Cd226 2.223 . S
O234 C233 1.315 . S
O235 Cd225 2.240 . S
O235 C233 1.279 . S
O236 Cd226 2.297 . S
O236 C231 1.247 . S
O237 Cd226 2.439 . S
O237 C231 1.208 . S
O238 Cd239 2.223 . S
O238 C246 1.315 . S
Cd239 O238 2.223 . S
Cd239 O242 2.297 . S
Cd239 O243 2.439 . S
Cd239 O249 2.240 . S
Cd240 O241 2.240 . S
Cd240 O248 2.223 . S
Cd240 O250 2.297 . S
Cd240 O251 2.439 . S
O241 Cd240 2.240 . S
O241 C246 1.279 . S
O242 Cd239 2.297 . S
O242 C244 1.247 . S
O243 Cd239 2.439 . S
O243 C244 1.208 . S
C244 O242 1.247 . S
C244 O243 1.208 . S
C245 O250 1.247 . S
C245 O251 1.208 . S
C246 O238 1.315 . S
C246 O241 1.279 . S
C247 O248 1.315 . S
C247 O249 1.279 . S
O248 Cd240 2.223 . S
O248 C247 1.315 . S
O249 Cd239 2.240 . S
O249 C247 1.279 . S
O250 Cd240 2.297 . S
O250 C245 1.247 . S
O251 Cd240 2.439 . S
O251 C245 1.208 . S
O252 Cd253 2.223 . S
O252 C260 1.315 . S
Cd253 O252 2.223 . S
Cd253 O256 2.297 . S
Cd253 O257 2.439 . S
Cd253 O263 2.240 . S
Cd254 O255 2.240 . S
Cd254 O262 2.223 . S
Cd254 O264 2.297 . S
Cd254 O265 2.439 . S
O255 Cd254 2.240 . S
O255 C260 1.279 . S
O256 Cd253 2.297 . S
O256 C258 1.247 . S
O257 Cd253 2.439 . S
O257 C258 1.208 . S
C258 O256 1.247 . S
C258 O257 1.208 . S
C259 O264 1.247 . S
C259 O265 1.208 . S
C260 O252 1.315 . S
C260 O255 1.279 . S
C261 O262 1.315 . S
C261 O263 1.279 . S
O262 Cd254 2.223 . S
O262 C261 1.315 . S
O263 Cd253 2.240 . S
O263 C261 1.279 . S
O264 Cd254 2.297 . S
O264 C259 1.247 . S
O265 Cd254 2.439 . S
O265 C259 1.208 . S
O266 Cd267 2.223 . S
O266 C274 1.315 . S
Cd267 O266 2.223 . S
Cd267 O270 2.297 . S
Cd267 O271 2.439 . S
Cd267 O277 2.240 . S
Cd268 O269 2.240 . S
Cd268 O276 2.223 . S
Cd268 O278 2.297 . S
Cd268 O279 2.439 . S
O269 Cd268 2.240 . S
O269 C274 1.279 . S
O270 Cd267 2.297 . S
O270 C272 1.247 . S
O271 Cd267 2.439 . S
O271 C272 1.208 . S
C272 O270 1.247 . S
C272 O271 1.208 . S
C273 O278 1.247 . S
C273 O279 1.208 . S
C274 O266 1.315 . S
C274 O269 1.279 . S
C275 O276 1.315 . S
C275 O277 1.279 . S
O276 Cd268 2.223 . S
O276 C275 1.315 . S
O277 Cd267 2.240 . S
O277 C275 1.279 . S
O278 Cd268 2.297 . S
O278 C273 1.247 . S
O279 Cd268 2.439 . S
O279 C273 1.208 . S
O280 Cd281 2.223 . S
O280 C288 1.315 . S
Cd281 O280 2.223 . S
Cd281 O284 2.297 . S
Cd281 O285 2.439 . S
Cd281 O291 2.240 1_545 S
Cd282 O283 2.240 1_565 S
Cd282 O290 2.223 . S
Cd282 O292 2.297 . S
Cd282 O293 2.439 . S
O283 Cd282 2.240 1_545 S
O283 C288 1.279 . S
O284 Cd281 2.297 . S
O284 C286 1.247 . S
O285 Cd281 2.439 . S
O285 C286 1.208 . S
C286 O284 1.247 . S
C286 O285 1.208 . S
C287 O292 1.247 . S
C287 O293 1.208 . S
C288 O280 1.315 . S
C288 O283 1.279 . S
C289 O290 1.315 . S
C289 O291 1.279 . S
O290 Cd282 2.223 . S
O290 C289 1.315 . S
O291 Cd281 2.240 1_565 S
O291 C289 1.279 . S
O292 Cd282 2.297 . S
O292 C287 1.247 . S
O293 Cd282 2.439 . S
O293 C287 1.208 . S
O294 Cd295 2.223 . S
O294 C302 1.315 . S
Cd295 O294 2.223 . S
Cd295 O298 2.297 . S
Cd295 O299 2.439 . S
Cd295 O305 2.240 . S
Cd296 O297 2.240 . S
Cd296 O304 2.223 . S
Cd296 O306 2.297 . S
Cd296 O307 2.439 . S
O297 Cd296 2.240 . S
O297 C302 1.279 . S
O298 Cd295 2.297 . S
O298 C300 1.247 . S
O299 Cd295 2.439 . S
O299 C300 1.208 . S
C300 O298 1.247 . S
C300 O299 1.208 . S
C301 O306 1.247 . S
C301 O307 1.208 . S
C302 O294 1.315 . S
C302 O297 1.279 . S
C303 O304 1.315 . S
C303 O305 1.279 . S
O304 Cd296 2.223 . S
O304 C303 1.315 . S
O305 Cd295 2.240 . S
O305 C303 1.279 . S
O306 Cd296 2.297 . S
O306 C301 1.247 . S
O307 Cd296 2.439 . S
O307 C301 1.208 . S
O308 Cd309 2.223 . S
O308 C316 1.315 . S
Cd309 O308 2.223 . S
Cd309 O312 2.297 . S
Cd309 O313 2.439 . S
Cd309 O319 2.240 . S
Cd310 O311 2.240 . S
Cd310 O318 2.223 . S
Cd310 O320 2.297 . S
Cd310 O321 2.439 . S
O311 Cd310 2.240 . S
O311 C316 1.279 . S
O312 Cd309 2.297 . S
O312 C314 1.247 . S
O313 Cd309 2.439 . S
O313 C314 1.208 . S
C314 O312 1.247 . S
C314 O313 1.208 . S
C315 O320 1.247 . S
C315 O321 1.208 . S
C316 O308 1.315 . S
C316 O311 1.279 . S
C317 O318 1.315 . S
C317 O319 1.279 . S
O318 Cd310 2.223 . S
O318 C317 1.315 . S
O319 Cd309 2.240 . S
O319 C317 1.279 . S
O320 Cd310 2.297 . S
O320 C315 1.247 . S
O321 Cd310 2.439 . S
O321 C315 1.208 . S
O322 Cd323 2.223 . S
O322 C330 1.315 . S
Cd323 O322 2.223 . S
Cd323 O326 2.297 . S
Cd323 O327 2.439 . S
Cd323 O333 2.240 . S
Cd324 O325 2.240 . S
Cd324 O332 2.223 . S
Cd324 O334 2.297 . S
Cd324 O335 2.439 . S
O325 Cd324 2.240 . S
O325 C330 1.279 . S
O326 Cd323 2.297 . S
O326 C328 1.247 . S
O327 Cd323 2.439 . S
O327 C328 1.208 . S
C328 O326 1.247 . S
C328 O327 1.208 . S
C329 O334 1.247 . S
C329 O335 1.208 . S
C330 O322 1.315 . S
C330 O325 1.279 . S
C331 O332 1.315 . S
C331 O333 1.279 . S
O332 Cd324 2.223 . S
O332 C331 1.315 . S
O333 Cd323 2.240 . S
O333 C331 1.279 . S
O334 Cd324 2.297 . S
O334 C329 1.247 . S
O335 Cd324 2.439 . S
O335 C329 1.208 . S
O336 Cd337 2.223 . S
O336 C344 1.315 . S
Cd337 O336 2.223 . S
Cd337 O340 2.297 . S
Cd337 O341 2.439 . S
Cd337 O347 2.240 . S
Cd338 O339 2.240 . S
Cd338 O346 2.223 . S
Cd338 O348 2.297 . S
Cd338 O349 2.439 . S
O339 Cd338 2.240 . S
O339 C344 1.279 . S
O340 Cd337 2.297 . S
O340 C342 1.247 . S
O341 Cd337 2.439 . S
O341 C342 1.208 . S
C342 O340 1.247 . S
C342 O341 1.208 . S
C343 O348 1.247 . S
C343 O349 1.208 . S
C344 O336 1.315 . S
C344 O339 1.279 . S
C345 O346 1.315 . S
C345 O347 1.279 . S
O346 Cd338 2.223 . S
O346 C345 1.315 . S
O347 Cd337 2.240 . S
O347 C345 1.279 . S
O348 Cd338 2.297 . S
O348 C343 1.247 . S
O349 Cd338 2.439 . S
O349 C343 1.208 . S
O350 Cd351 2.223 . S
O350 C358 1.315 . S
Cd351 O350 2.223 . S
Cd351 O354 2.297 . S
Cd351 O355 2.439 . S
Cd351 O361 2.240 . S
Cd352 O353 2.240 . S
Cd352 O360 2.223 . S
Cd352 O362 2.297 . S
Cd352 O363 2.439 . S
O353 Cd352 2.240 . S
O353 C358 1.279 . S
O354 Cd351 2.297 . S
O354 C356 1.247 . S
O355 Cd351 2.439 . S
O355 C356 1.208 . S
C356 O354 1.247 . S
C356 O355 1.208 . S
C357 O362 1.247 . S
C357 O363 1.208 . S
C358 O350 1.315 . S
C358 O353 1.279 . S
C359 O360 1.315 . S
C359 O361 1.279 . S
O360 Cd352 2.223 . S
O360 C359 1.315 . S
O361 Cd351 2.240 . S
O361 C359 1.279 . S
O362 Cd352 2.297 . S
O362 C357 1.247 . S
O363 Cd352 2.439 . S
O363 C357 1.208 . S
O364 Cd365 2.223 . S
O364 C372 1.315 . S
Cd365 O364 2.223 . S
Cd365 O368 2.297 . S
Cd365 O369 2.439 . S
Cd365 O375 2.240 . S
Cd366 O367 2.240 . S
Cd366 O374 2.223 . S
Cd366 O376 2.297 . S
Cd366 O377 2.439 . S
O367 Cd366 2.240 . S
O367 C372 1.279 . S
O368 Cd365 2.297 . S
O368 C370 1.247 . S
O369 Cd365 2.439 . S
O369 C370 1.208 . S
C370 O368 1.247 . S
C370 O369 1.208 . S
C371 O376 1.247 . S
C371 O377 1.208 . S
C372 O364 1.315 . S
C372 O367 1.279 . S
C373 O374 1.315 . S
C373 O375 1.279 . S
O374 Cd366 2.223 . S
O374 C373 1.315 . S
O375 Cd365 2.240 . S
O375 C373 1.279 . S
O376 Cd366 2.297 . S
O376 C371 1.247 . S
O377 Cd366 2.439 . S
O377 C371 1.208 . S
O378 Cd379 2.223 . S
O378 C386 1.315 . S
Cd379 O378 2.223 . S
Cd379 O382 2.297 . S
Cd379 O383 2.439 . S
Cd379 O389 2.240 1_655 S
Cd380 O381 2.240 1_455 S
Cd380 O388 2.223 . S
Cd380 O390 2.297 . S
Cd380 O391 2.439 . S
O381 Cd380 2.240 1_655 S
O381 C386 1.279 . S
O382 Cd379 2.297 . S
O382 C384 1.247 . S
O383 Cd379 2.439 . S
O383 C384 1.208 . S
C384 O382 1.247 . S
C384 O383 1.208 . S
C385 O390 1.247 . S
C385 O391 1.208 . S
C386 O378 1.315 . S
C386 O381 1.279 . S
C387 O388 1.315 . S
C387 O389 1.279 . S
O388 Cd380 2.223 . S
O388 C387 1.315 . S
O389 Cd379 2.240 1_455 S
O389 C387 1.279 . S
O390 Cd380 2.297 . S
O390 C385 1.247 . S
O391 Cd380 2.439 . S
O391 C385 1.208 . S
O392 Cd393 2.223 . S
O392 C400 1.315 . S
Cd393 O392 2.223 . S
Cd393 O396 2.297 . S
Cd393 O397 2.439 . S
Cd393 O403 2.240 . S
Cd394 O395 2.240 . S
Cd394 O402 2.223 . S
Cd394 O404 2.297 . S
Cd394 O405 2.439 . S
O395 Cd394 2.240 . S
O395 C400 1.279 . S
O396 Cd393 2.297 . S
O396 C398 1.247 . S
O397 Cd393 2.439 . S
O397 C398 1.208 . S
C398 O396 1.247 . S
C398 O397 1.208 . S
C399 O404 1.247 . S
C399 O405 1.208 . S
C400 O392 1.315 . S
C400 O395 1.279 . S
C401 O402 1.315 . S
C401 O403 1.279 . S
O402 Cd394 2.223 . S
O402 C401 1.315 . S
O403 Cd393 2.240 . S
O403 C401 1.279 . S
O404 Cd394 2.297 . S
O404 C399 1.247 . S
O405 Cd394 2.439 . S
O405 C399 1.208 . S
O406 Cd407 2.223 . S
O406 C414 1.315 . S
Cd407 O406 2.223 . S
Cd407 O410 2.297 . S
Cd407 O411 2.439 . S
Cd407 O417 2.240 1_655 S
Cd408 O409 2.240 1_455 S
Cd408 O416 2.223 . S
Cd408 O418 2.297 . S
Cd408 O419 2.439 . S
O409 Cd408 2.240 1_655 S
O409 C414 1.279 . S
O410 Cd407 2.297 . S
O410 C412 1.247 . S
O411 Cd407 2.439 . S
O411 C412 1.208 . S
C412 O410 1.247 . S
C412 O411 1.208 . S
C413 O418 1.247 . S
C413 O419 1.208 . S
C414 O406 1.315 . S
C414 O409 1.279 . S
C415 O416 1.315 . S
C415 O417 1.279 . S
O416 Cd408 2.223 . S
O416 C415 1.315 . S
O417 Cd407 2.240 1_455 S
O417 C415 1.279 . S
O418 Cd408 2.297 . S
O418 C413 1.247 . S
O419 Cd408 2.439 . S
O419 C413 1.208 . S
O420 Cd421 2.223 . S
O420 C428 1.315 . S
Cd421 O420 2.223 . S
Cd421 O424 2.297 . S
Cd421 O425 2.439 . S
Cd421 O431 2.240 . S
Cd422 O423 2.240 . S
Cd422 O430 2.223 . S
Cd422 O432 2.297 . S
Cd422 O433 2.439 . S
O423 Cd422 2.240 . S
O423 C428 1.279 . S
O424 Cd421 2.297 . S
O424 C426 1.247 . S
O425 Cd421 2.439 . S
O425 C426 1.208 . S
C426 O424 1.247 . S
C426 O425 1.208 . S
C427 O432 1.247 . S
C427 O433 1.208 . S
C428 O420 1.315 . S
C428 O423 1.279 . S
C429 O430 1.315 . S
C429 O431 1.279 . S
O430 Cd422 2.223 . S
O430 C429 1.315 . S
O431 Cd421 2.240 . S
O431 C429 1.279 . S
O432 Cd422 2.297 . S
O432 C427 1.247 . S
O433 Cd422 2.439 . S
O433 C427 1.208 . S
O434 Cd435 2.223 . S
O434 C442 1.315 . S
Cd435 O434 2.223 . S
Cd435 O438 2.297 . S
Cd435 O439 2.439 . S
Cd435 O445 2.240 . S
Cd436 O437 2.240 . S
Cd436 O444 2.223 . S
Cd436 O446 2.297 . S
Cd436 O447 2.439 . S
O437 Cd436 2.240 . S
O437 C442 1.279 . S
O438 Cd435 2.297 . S
O438 C440 1.247 . S
O439 Cd435 2.439 . S
O439 C440 1.208 . S
C440 O438 1.247 . S
C440 O439 1.208 . S
C441 O446 1.247 . S
C441 O447 1.208 . S
C442 O434 1.315 . S
C442 O437 1.279 . S
C443 O444 1.315 . S
C443 O445 1.279 . S
O444 Cd436 2.223 . S
O444 C443 1.315 . S
O445 Cd435 2.240 . S
O445 C443 1.279 . S
O446 Cd436 2.297 . S
O446 C441 1.247 . S
O447 Cd436 2.439 . S
O447 C441 1.208 . S
O448 Cd449 2.223 . S
O448 C456 1.315 . S
Cd449 O448 2.223 . S
Cd449 O452 2.297 . S
Cd449 O453 2.439 . S
Cd449 O459 2.240 . S
Cd450 O451 2.240 . S
Cd450 O458 2.223 . S
Cd450 O460 2.297 . S
Cd450 O461 2.439 . S
O451 Cd450 2.240 . S
O451 C456 1.279 . S
O452 Cd449 2.297 . S
O452 C454 1.247 . S
O453 Cd449 2.439 . S
O453 C454 1.208 . S
C454 O452 1.247 . S
C454 O453 1.208 . S
C455 O460 1.247 . S
C455 O461 1.208 . S
C456 O448 1.315 . S
C456 O451 1.279 . S
C457 O458 1.315 . S
C457 O459 1.279 . S
O458 Cd450 2.223 . S
O458 C457 1.315 . S
O459 Cd449 2.240 . S
O459 C457 1.279 . S
O460 Cd450 2.297 . S
O460 C455 1.247 . S
O461 Cd450 2.439 . S
O461 C455 1.208 . S
O462 Cd463 2.223 . S
O462 C470 1.315 . S
Cd463 O462 2.223 . S
Cd463 O466 2.297 . S
Cd463 O467 2.439 . S
Cd463 O473 2.240 1_556 S
Cd464 O465 2.240 1_554 S
Cd464 O472 2.223 . S
Cd464 O474 2.297 . S
Cd464 O475 2.439 . S
O465 Cd464 2.240 1_556 S
O465 C470 1.279 . S
O466 Cd463 2.297 . S
O466 C468 1.247 . S
O467 Cd463 2.439 . S
O467 C468 1.208 . S
C468 O466 1.247 . S
C468 O467 1.208 . S
C469 O474 1.247 . S
C469 O475 1.208 . S
C470 O462 1.315 . S
C470 O465 1.279 . S
C471 O472 1.315 . S
C471 O473 1.279 . S
O472 Cd464 2.223 . S
O472 C471 1.315 . S
O473 Cd463 2.240 1_554 S
O473 C471 1.279 . S
O474 Cd464 2.297 . S
O474 C469 1.247 . S
O475 Cd464 2.439 . S
O475 C469 1.208 . S
O476 Cd477 2.223 . S
O476 C484 1.315 . S
Cd477 O476 2.223 . S
Cd477 O480 2.297 . S
Cd477 O481 2.439 . S
Cd477 O487 2.240 . S
Cd478 O479 2.240 . S
Cd478 O486 2.223 . S
Cd478 O488 2.297 . S
Cd478 O489 2.439 . S
O479 Cd478 2.240 . S
O479 C484 1.279 . S
O480 Cd477 2.297 . S
O480 C482 1.247 . S
O481 Cd477 2.439 . S
O481 C482 1.208 . S
C482 O480 1.247 . S
C482 O481 1.208 . S
C483 O488 1.247 . S
C483 O489 1.208 . S
C484 O476 1.315 . S
C484 O479 1.279 . S
C485 O486 1.315 . S
C485 O487 1.279 . S
O486 Cd478 2.223 . S
O486 C485 1.315 . S
O487 Cd477 2.240 . S
O487 C485 1.279 . S
O488 Cd478 2.297 . S
O488 C483 1.247 . S
O489 Cd478 2.439 . S
O489 C483 1.208 . S
O490 Cd491 2.223 . S
O490 C498 1.315 . S
Cd491 O490 2.223 . S
Cd491 O494 2.297 . S
Cd491 O495 2.439 . S
Cd491 O501 2.240 . S
Cd492 O493 2.240 . S
Cd492 O500 2.223 . S
Cd492 O502 2.297 . S
Cd492 O503 2.439 . S
O493 Cd492 2.240 . S
O493 C498 1.279 . S
O494 Cd491 2.297 . S
O494 C496 1.247 . S
O495 Cd491 2.439 . S
O495 C496 1.208 . S
C496 O494 1.247 . S
C496 O495 1.208 . S
C497 O502 1.247 . S
C497 O503 1.208 . S
C498 O490 1.315 . S
C498 O493 1.279 . S
C499 O500 1.315 . S
C499 O501 1.279 . S
O500 Cd492 2.223 . S
O500 C499 1.315 . S
O501 Cd491 2.240 . S
O501 C499 1.279 . S
O502 Cd492 2.297 . S
O502 C497 1.247 . S
O503 Cd492 2.439 . S
O503 C497 1.208 . S
O504 Cd505 2.223 . S
O504 C512 1.315 . S
Cd505 O504 2.223 . S
Cd505 O508 2.297 . S
Cd505 O509 2.439 . S
Cd505 O515 2.240 . S
Cd506 O507 2.240 . S
Cd506 O514 2.223 . S
Cd506 O516 2.297 . S
Cd506 O517 2.439 . S
O507 Cd506 2.240 . S
O507 C512 1.279 . S
O508 Cd505 2.297 . S
O508 C510 1.247 . S
O509 Cd505 2.439 . S
O509 C510 1.208 . S
C510 O508 1.247 . S
C510 O509 1.208 . S
C511 O516 1.247 . S
C511 O517 1.208 . S
C512 O504 1.315 . S
C512 O507 1.279 . S
C513 O514 1.315 . S
C513 O515 1.279 . S
O514 Cd506 2.223 . S
O514 C513 1.315 . S
O515 Cd505 2.240 . S
O515 C513 1.279 . S
O516 Cd506 2.297 . S
O516 C511 1.247 . S
O517 Cd506 2.439 . S
O517 C511 1.208 . S
O518 Cd519 2.223 . S
O518 C526 1.315 . S
Cd519 O518 2.223 . S
Cd519 O522 2.297 . S
Cd519 O523 2.439 . S
Cd519 O529 2.240 1_554 S
Cd520 O521 2.240 1_556 S
Cd520 O528 2.223 . S
Cd520 O530 2.297 . S
Cd520 O531 2.439 . S
O521 Cd520 2.240 1_554 S
O521 C526 1.279 . S
O522 Cd519 2.297 . S
O522 C524 1.247 . S
O523 Cd519 2.439 . S
O523 C524 1.208 . S
C524 O522 1.247 . S
C524 O523 1.208 . S
C525 O530 1.247 . S
C525 O531 1.208 . S
C526 O518 1.315 . S
C526 O521 1.279 . S
C527 O528 1.315 . S
C527 O529 1.279 . S
O528 Cd520 2.223 . S
O528 C527 1.315 . S
O529 Cd519 2.240 1_556 S
O529 C527 1.279 . S
O530 Cd520 2.297 . S
O530 C525 1.247 . S
O531 Cd520 2.439 . S
O531 C525 1.208 . S
O532 Cd533 2.223 . S
O532 C540 1.315 . S
Cd533 O532 2.223 . S
Cd533 O536 2.297 . S
Cd533 O537 2.439 . S
Cd533 O543 2.240 . S
Cd534 O535 2.240 . S
Cd534 O542 2.223 . S
Cd534 O544 2.297 . S
Cd534 O545 2.439 . S
O535 Cd534 2.240 . S
O535 C540 1.279 . S
O536 Cd533 2.297 . S
O536 C538 1.247 . S
O537 Cd533 2.439 . S
O537 C538 1.208 . S
C538 O536 1.247 . S
C538 O537 1.208 . S
C539 O544 1.247 . S
C539 O545 1.208 . S
C540 O532 1.315 . S
C540 O535 1.279 . S
C541 O542 1.315 . S
C541 O543 1.279 . S
O542 Cd534 2.223 . S
O542 C541 1.315 . S
O543 Cd533 2.240 . S
O543 C541 1.279 . S
O544 Cd534 2.297 . S
O544 C539 1.247 . S
O545 Cd534 2.439 . S
O545 C539 1.208 . S
O546 Cd547 2.223 . S
O546 C554 1.315 . S
Cd547 O546 2.223 . S
Cd547 O550 2.297 . S
Cd547 O551 2.439 . S
Cd547 O557 2.240 . S
Cd548 O549 2.240 . S
Cd548 O556 2.223 . S
Cd548 O558 2.297 . S
Cd548 O559 2.439 . S
O549 Cd548 2.240 . S
O549 C554 1.279 . S
O550 Cd547 2.297 . S
O550 C552 1.247 . S
O551 Cd547 2.439 . S
O551 C552 1.208 . S
C552 O550 1.247 . S
C552 O551 1.208 . S
C553 O558 1.247 . S
C553 O559 1.208 . S
C554 O546 1.315 . S
C554 O549 1.279 . S
C555 O556 1.315 . S
C555 O557 1.279 . S
O556 Cd548 2.223 . S
O556 C555 1.315 . S
O557 Cd547 2.240 . S
O557 C555 1.279 . S
O558 Cd548 2.297 . S
O558 C553 1.247 . S
O559 Cd548 2.439 . S
O559 C553 1.208 . S
O560 Cd561 2.223 . S
O560 C568 1.315 . S
Cd561 O560 2.223 . S
Cd561 O564 2.297 . S
Cd561 O565 2.439 . S
Cd561 O571 2.240 . S
Cd562 O563 2.240 . S
Cd562 O570 2.223 . S
Cd562 O572 2.297 . S
Cd562 O573 2.439 . S
O563 Cd562 2.240 . S
O563 C568 1.279 . S
O564 Cd561 2.297 . S
O564 C566 1.247 . S
O565 Cd561 2.439 . S
O565 C566 1.208 . S
C566 O564 1.247 . S
C566 O565 1.208 . S
C567 O572 1.247 . S
C567 O573 1.208 . S
C568 O560 1.315 . S
C568 O563 1.279 . S
C569 O570 1.315 . S
C569 O571 1.279 . S
O570 Cd562 2.223 . S
O570 C569 1.315 . S
O571 Cd561 2.240 . S
O571 C569 1.279 . S
O572 Cd562 2.297 . S
O572 C567 1.247 . S
O573 Cd562 2.439 . S
O573 C567 1.208 . S
O574 Cd575 2.223 . S
O574 C582 1.315 . S
Cd575 O574 2.223 . S
Cd575 O578 2.297 . S
Cd575 O579 2.439 . S
Cd575 O585 2.240 . S
Cd576 O577 2.240 . S
Cd576 O584 2.223 . S
Cd576 O586 2.297 . S
Cd576 O587 2.439 . S
O577 Cd576 2.240 . S
O577 C582 1.279 . S
O578 Cd575 2.297 . S
O578 C580 1.247 . S
O579 Cd575 2.439 . S
O579 C580 1.208 . S
C580 O578 1.247 . S
C580 O579 1.208 . S
C581 O586 1.247 . S
C581 O587 1.208 . S
C582 O574 1.315 . S
C582 O577 1.279 . S
C583 O584 1.315 . S
C583 O585 1.279 . S
O584 Cd576 2.223 . S
O584 C583 1.315 . S
O585 Cd575 2.240 . S
O585 C583 1.279 . S
O586 Cd576 2.297 . S
O586 C581 1.247 . S
O587 Cd576 2.439 . S
O587 C581 1.208 . S
O588 Cd589 2.223 . S
O588 C596 1.315 . S
Cd589 O588 2.223 . S
Cd589 O592 2.297 . S
Cd589 O593 2.439 . S
Cd589 O599 2.240 1_565 S
Cd590 O591 2.240 1_545 S
Cd590 O598 2.223 . S
Cd590 O600 2.297 . S
Cd590 O601 2.439 . S
O591 Cd590 2.240 1_565 S
O591 C596 1.279 . S
O592 Cd589 2.297 . S
O592 C594 1.247 . S
O593 Cd589 2.439 . S
O593 C594 1.208 . S
C594 O592 1.247 . S
C594 O593 1.208 . S
C595 O600 1.247 . S
C595 O601 1.208 . S
C596 O588 1.315 . S
C596 O591 1.279 . S
C597 O598 1.315 . S
C597 O599 1.279 . S
O598 Cd590 2.223 . S
O598 C597 1.315 . S
O599 Cd589 2.240 1_545 S
O599 C597 1.279 . S
O600 Cd590 2.297 . S
O600 C595 1.247 . S
O601 Cd590 2.439 . S
O601 C595 1.208 . S
O602 Cd603 2.223 . S
O602 C610 1.315 . S
Cd603 O602 2.223 . S
Cd603 O606 2.297 . S
Cd603 O607 2.439 . S
Cd603 O613 2.240 . S
Cd604 O605 2.240 . S
Cd604 O612 2.223 . S
Cd604 O614 2.297 . S
Cd604 O615 2.439 . S
O605 Cd604 2.240 . S
O605 C610 1.279 . S
O606 Cd603 2.297 . S
O606 C608 1.247 . S
O607 Cd603 2.439 . S
O607 C608 1.208 . S
C608 O606 1.247 . S
C608 O607 1.208 . S
C609 O614 1.247 . S
C609 O615 1.208 . S
C610 O602 1.315 . S
C610 O605 1.279 . S
C611 O612 1.315 . S
C611 O613 1.279 . S
O612 Cd604 2.223 . S
O612 C611 1.315 . S
O613 Cd603 2.240 . S
O613 C611 1.279 . S
O614 Cd604 2.297 . S
O614 C609 1.247 . S
O615 Cd604 2.439 . S
O615 C609 1.208 . S
O616 Cd617 2.223 . S
O616 C624 1.315 . S
Cd617 O616 2.223 . S
Cd617 O620 2.297 . S
Cd617 O621 2.439 . S
Cd617 O627 2.240 . S
Cd618 O619 2.240 . S
Cd618 O626 2.223 . S
Cd618 O628 2.297 . S
Cd618 O629 2.439 . S
O619 Cd618 2.240 . S
O619 C624 1.279 . S
O620 Cd617 2.297 . S
O620 C622 1.247 . S
O621 Cd617 2.439 . S
O621 C622 1.208 . S
C622 O620 1.247 . S
C622 O621 1.208 . S
C623 O628 1.247 . S
C623 O629 1.208 . S
C624 O616 1.315 . S
C624 O619 1.279 . S
C625 O626 1.315 . S
C625 O627 1.279 . S
O626 Cd618 2.223 . S
O626 C625 1.315 . S
O627 Cd617 2.240 . S
O627 C625 1.279 . S
O628 Cd618 2.297 . S
O628 C623 1.247 . S
O629 Cd618 2.439 . S
O629 C623 1.208 . S
O630 Cd631 2.223 . S
O630 C638 1.315 . S
Cd631 O630 2.223 . S
Cd631 O634 2.297 . S
Cd631 O635 2.439 . S
Cd631 O641 2.240 . S
Cd632 O633 2.240 . S
Cd632 O640 2.223 . S
Cd632 O642 2.297 . S
Cd632 O643 2.439 . S
O633 Cd632 2.240 . S
O633 C638 1.279 . S
O634 Cd631 2.297 . S
O634 C636 1.247 . S
O635 Cd631 2.439 . S
O635 C636 1.208 . S
C636 O634 1.247 . S
C636 O635 1.208 . S
C637 O642 1.247 . S
C637 O643 1.208 . S
C638 O630 1.315 . S
C638 O633 1.279 . S
C639 O640 1.315 . S
C639 O641 1.279 . S
O640 Cd632 2.223 . S
O640 C639 1.315 . S
O641 Cd631 2.240 . S
O641 C639 1.279 . S
O642 Cd632 2.297 . S
O642 C637 1.247 . S
O643 Cd632 2.439 . S
O643 C637 1.208 . S
O644 Cd645 2.223 . S
O644 C652 1.315 . S
Cd645 O644 2.223 . S
Cd645 O648 2.297 . S
Cd645 O649 2.439 . S
Cd645 O655 2.240 1_545 S
Cd646 O647 2.240 1_565 S
Cd646 O654 2.223 . S
Cd646 O656 2.297 . S
Cd646 O657 2.439 . S
O647 Cd646 2.240 1_545 S
O647 C652 1.279 . S
O648 Cd645 2.297 . S
O648 C650 1.247 . S
O649 Cd645 2.439 . S
O649 C650 1.208 . S
C650 O648 1.247 . S
C650 O649 1.208 . S
C651 O656 1.247 . S
C651 O657 1.208 . S
C652 O644 1.315 . S
C652 O647 1.279 . S
C653 O654 1.315 . S
C653 O655 1.279 . S
O654 Cd646 2.223 . S
O654 C653 1.315 . S
O655 Cd645 2.240 1_565 S
O655 C653 1.279 . S
O656 Cd646 2.297 . S
O656 C651 1.247 . S
O657 Cd646 2.439 . S
O657 C651 1.208 . S
O658 Cd659 2.223 . S
O658 C666 1.315 . S
Cd659 O658 2.223 . S
Cd659 O662 2.297 . S
Cd659 O663 2.439 . S
Cd659 O669 2.240 1_565 S
Cd660 O661 2.240 1_545 S
Cd660 O668 2.223 . S
Cd660 O670 2.297 . S
Cd660 O671 2.439 . S
O661 Cd660 2.240 1_565 S
O661 C666 1.279 . S
O662 Cd659 2.297 . S
O662 C664 1.247 . S
O663 Cd659 2.439 . S
O663 C664 1.208 . S
C664 O662 1.247 . S
C664 O663 1.208 . S
C665 O670 1.247 . S
C665 O671 1.208 . S
C666 O658 1.315 . S
C666 O661 1.279 . S
C667 O668 1.315 . S
C667 O669 1.279 . S
O668 Cd660 2.223 . S
O668 C667 1.315 . S
O669 Cd659 2.240 1_545 S
O669 C667 1.279 . S
O670 Cd660 2.297 . S
O670 C665 1.247 . S
O671 Cd660 2.439 . S
O671 C665 1.208 . S
C672 C673 1.387 . S
C672 H676 0.950 . S
C672 C681 1.390 . S
C673 C672 1.387 . S
C673 C675 1.387 . S
H674 C681 0.950 . S
C675 C673 1.387 . S
C675 C677 1.390 . S
C675 H679 0.950 . S
H676 C672 0.950 . S
C677 C675 1.390 . S
C677 C678 1.387 . S
C677 H680 0.950 . S
C678 C677 1.387 . S
C678 C681 1.387 . S
H679 C675 0.950 . S
H680 C677 0.950 . S
C681 C672 1.390 . S
C681 H674 0.950 . S
C681 C678 1.387 . S
C682 C683 1.387 . S
C682 H686 0.950 . S
C682 C691 1.390 . S
C683 C682 1.387 . S
C683 C685 1.387 . S
H684 C691 0.950 . S
C685 C683 1.387 . S
C685 C687 1.390 . S
C685 H689 0.950 . S
H686 C682 0.950 . S
C687 C685 1.390 . S
C687 C688 1.387 . S
C687 H690 0.950 . S
C688 C687 1.387 . S
C688 C691 1.387 . S
H689 C685 0.950 . S
H690 C687 0.950 . S
C691 C682 1.390 . S
C691 H684 0.950 . S
C691 C688 1.387 . S
C692 C693 1.387 . S
C692 H696 0.950 . S
C692 C701 1.390 . S
C693 C692 1.387 . S
C693 C695 1.387 . S
H694 C701 0.950 . S
C695 C693 1.387 . S
C695 C697 1.390 . S
C695 H699 0.950 . S
H696 C692 0.950 . S
C697 C695 1.390 . S
C697 C698 1.387 . S
C697 H700 0.950 . S
C698 C697 1.387 . S
C698 C701 1.387 . S
H699 C695 0.950 . S
H700 C697 0.950 . S
C701 C692 1.390 . S
C701 H694 0.950 . S
C701 C698 1.387 . S
C702 C703 1.387 . S
C702 H706 0.950 . S
C702 C711 1.390 . S
C703 C702 1.387 . S
C703 C705 1.387 . S
H704 C711 0.950 . S
C705 C703 1.387 . S
C705 C707 1.390 . S
C705 H709 0.950 . S
H706 C702 0.950 . S
C707 C705 1.390 . S
C707 C708 1.387 . S
C707 H710 0.950 . S
C708 C707 1.387 . S
C708 C711 1.387 . S
H709 C705 0.950 . S
H710 C707 0.950 . S
C711 C702 1.390 . S
C711 H704 0.950 . S
C711 C708 1.387 . S
C712 C713 1.387 . S
C712 H716 0.950 . S
C712 C721 1.390 . S
C713 C712 1.387 . S
C713 C715 1.387 . S
H714 C721 0.950 . S
C715 C713 1.387 . S
C715 C717 1.390 . S
C715 H719 0.950 . S
H716 C712 0.950 . S
C717 C715 1.390 . S
C717 C718 1.387 . S
C717 H720 0.950 . S
C718 C717 1.387 . S
C718 C721 1.387 . S
H719 C715 0.950 . S
H720 C717 0.950 . S
C721 C712 1.390 . S
C721 H714 0.950 . S
C721 C718 1.387 . S
C722 C723 1.387 . S
C722 H726 0.950 . S
C722 C731 1.390 . S
C723 C722 1.387 . S
C723 C725 1.387 . S
H724 C731 0.950 . S
C725 C723 1.387 . S
C725 C727 1.390 . S
C725 H729 0.950 . S
H726 C722 0.950 . S
C727 C725 1.390 . S
C727 C728 1.387 . S
C727 H730 0.950 . S
C728 C727 1.387 . S
C728 C731 1.387 . S
H729 C725 0.950 . S
H730 C727 0.950 . S
C731 C722 1.390 . S
C731 H724 0.950 . S
C731 C728 1.387 . S
C732 C733 1.387 . S
C732 H736 0.950 . S
C732 C741 1.390 . S
C733 C732 1.387 . S
C733 C735 1.387 . S
H734 C741 0.950 . S
C735 C733 1.387 . S
C735 C737 1.390 . S
C735 H739 0.950 . S
H736 C732 0.950 . S
C737 C735 1.390 . S
C737 C738 1.387 . S
C737 H740 0.950 . S
C738 C737 1.387 . S
C738 C741 1.387 . S
H739 C735 0.950 . S
H740 C737 0.950 . S
C741 C732 1.390 . S
C741 H734 0.950 . S
C741 C738 1.387 . S
C742 C743 1.387 . S
C742 H746 0.950 . S
C742 C751 1.390 . S
C743 C742 1.387 . S
C743 C745 1.387 . S
H744 C751 0.950 . S
C745 C743 1.387 . S
C745 C747 1.390 . S
C745 H749 0.950 . S
H746 C742 0.950 . S
C747 C745 1.390 . S
C747 C748 1.387 . S
C747 H750 0.950 . S
C748 C747 1.387 . S
C748 C751 1.387 . S
H749 C745 0.950 . S
H750 C747 0.950 . S
C751 C742 1.390 . S
C751 H744 0.950 . S
C751 C748 1.387 . S
C752 C753 1.387 . S
C752 H756 0.950 . S
C752 C761 1.390 . S
C753 C752 1.387 . S
C753 C755 1.387 . S
H754 C761 0.950 . S
C755 C753 1.387 . S
C755 C757 1.390 . S
C755 H759 0.950 . S
H756 C752 0.950 . S
C757 C755 1.390 . S
C757 C758 1.387 . S
C757 H760 0.950 . S
C758 C757 1.387 . S
C758 C761 1.387 . S
H759 C755 0.950 . S
H760 C757 0.950 . S
C761 C752 1.390 . S
C761 H754 0.950 . S
C761 C758 1.387 . S
C762 C763 1.387 . S
C762 H766 0.950 . S
C762 C771 1.390 . S
C763 C762 1.387 . S
C763 C765 1.387 . S
H764 C771 0.950 . S
C765 C763 1.387 . S
C765 C767 1.390 . S
C765 H769 0.950 . S
H766 C762 0.950 . S
C767 C765 1.390 . S
C767 C768 1.387 . S
C767 H770 0.950 . S
C768 C767 1.387 . S
C768 C771 1.387 . S
H769 C765 0.950 . S
H770 C767 0.950 . S
C771 C762 1.390 . S
C771 H764 0.950 . S
C771 C768 1.387 . S
C772 C773 1.387 . S
C772 H776 0.950 . S
C772 C781 1.390 . S
C773 C772 1.387 . S
C773 C775 1.387 . S
H774 C781 0.950 . S
C775 C773 1.387 . S
C775 C777 1.390 . S
C775 H779 0.950 . S
H776 C772 0.950 . S
C777 C775 1.390 . S
C777 C778 1.387 . S
C777 H780 0.950 . S
C778 C777 1.387 . S
C778 C781 1.387 . S
H779 C775 0.950 . S
H780 C777 0.950 . S
C781 C772 1.390 . S
C781 H774 0.950 . S
C781 C778 1.387 . S
C782 C783 1.387 . S
C782 H786 0.950 . S
C782 C791 1.390 . S
C783 C782 1.387 . S
C783 C785 1.387 . S
H784 C791 0.950 . S
C785 C783 1.387 . S
C785 C787 1.390 . S
C785 H789 0.950 . S
H786 C782 0.950 . S
C787 C785 1.390 . S
C787 C788 1.387 . S
C787 H790 0.950 . S
C788 C787 1.387 . S
C788 C791 1.387 . S
H789 C785 0.950 . S
H790 C787 0.950 . S
C791 C782 1.390 . S
C791 H784 0.950 . S
C791 C788 1.387 . S
C792 C793 1.387 . S
C792 H796 0.950 . S
C792 C801 1.390 . S
C793 C792 1.387 . S
C793 C795 1.387 . S
H794 C801 0.950 . S
C795 C793 1.387 . S
C795 C797 1.390 . S
C795 H799 0.950 . S
H796 C792 0.950 . S
C797 C795 1.390 . S
C797 C798 1.387 . S
C797 H800 0.950 . S
C798 C797 1.387 . S
C798 C801 1.387 . S
H799 C795 0.950 . S
H800 C797 0.950 . S
C801 C792 1.390 . S
C801 H794 0.950 . S
C801 C798 1.387 . S
C802 C803 1.387 . S
C802 H806 0.950 . S
C802 C811 1.390 . S
C803 C802 1.387 . S
C803 C805 1.387 . S
H804 C811 0.950 . S
C805 C803 1.387 . S
C805 C807 1.390 . S
C805 H809 0.950 . S
H806 C802 0.950 . S
C807 C805 1.390 . S
C807 C808 1.387 . S
C807 H810 0.950 . S
C808 C807 1.387 . S
C808 C811 1.387 . S
H809 C805 0.950 . S
H810 C807 0.950 . S
C811 C802 1.390 . S
C811 H804 0.950 . S
C811 C808 1.387 . S
C812 C813 1.387 . S
C812 H816 0.950 . S
C812 C821 1.390 . S
C813 C812 1.387 . S
C813 C815 1.387 . S
H814 C821 0.950 . S
C815 C813 1.387 . S
C815 C817 1.390 . S
C815 H819 0.950 . S
H816 C812 0.950 . S
C817 C815 1.390 . S
C817 C818 1.387 . S
C817 H820 0.950 . S
C818 C817 1.387 . S
C818 C821 1.387 . S
H819 C815 0.950 . S
H820 C817 0.950 . S
C821 C812 1.390 . S
C821 H814 0.950 . S
C821 C818 1.387 . S
C822 C823 1.387 . S
C822 H826 0.950 . S
C822 C831 1.390 . S
C823 C822 1.387 . S
C823 C825 1.387 . S
H824 C831 0.950 . S
C825 C823 1.387 . S
C825 C827 1.390 . S
C825 H829 0.950 . S
H826 C822 0.950 . S
C827 C825 1.390 . S
C827 C828 1.387 . S
C827 H830 0.950 . S
C828 C827 1.387 . S
C828 C831 1.387 . S
H829 C825 0.950 . S
H830 C827 0.950 . S
C831 C822 1.390 . S
C831 H824 0.950 . S
C831 C828 1.387 . S
C832 C833 1.387 . S
C832 H836 0.950 . S
C832 C841 1.390 . S
C833 C832 1.387 . S
C833 C835 1.387 . S
H834 C841 0.950 . S
C835 C833 1.387 . S
C835 C837 1.390 . S
C835 H839 0.950 . S
H836 C832 0.950 . S
C837 C835 1.390 . S
C837 C838 1.387 . S
C837 H840 0.950 . S
C838 C837 1.387 . S
C838 C841 1.387 . S
H839 C835 0.950 . S
H840 C837 0.950 . S
C841 C832 1.390 . S
C841 H834 0.950 . S
C841 C838 1.387 . S
C842 C843 1.387 . S
C842 H846 0.950 . S
C842 C851 1.390 . S
C843 C842 1.387 . S
C843 C845 1.387 . S
H844 C851 0.950 . S
C845 C843 1.387 . S
C845 C847 1.390 . S
C845 H849 0.950 . S
H846 C842 0.950 . S
C847 C845 1.390 . S
C847 C848 1.387 . S
C847 H850 0.950 . S
C848 C847 1.387 . S
C848 C851 1.387 . S
H849 C845 0.950 . S
H850 C847 0.950 . S
C851 C842 1.390 . S
C851 H844 0.950 . S
C851 C848 1.387 . S
C852 C853 1.387 . S
C852 H856 0.950 . S
C852 C861 1.390 . S
C853 C852 1.387 . S
C853 C855 1.387 . S
H854 C861 0.950 . S
C855 C853 1.387 . S
C855 C857 1.390 . S
C855 H859 0.950 . S
H856 C852 0.950 . S
C857 C855 1.390 . S
C857 C858 1.387 . S
C857 H860 0.950 . S
C858 C857 1.387 . S
C858 C861 1.387 . S
H859 C855 0.950 . S
H860 C857 0.950 . S
C861 C852 1.390 . S
C861 H854 0.950 . S
C861 C858 1.387 . S
C862 C863 1.387 . S
C862 H866 0.950 . S
C862 C871 1.390 . S
C863 C862 1.387 . S
C863 C865 1.387 . S
H864 C871 0.950 . S
C865 C863 1.387 . S
C865 C867 1.390 . S
C865 H869 0.950 . S
H866 C862 0.950 . S
C867 C865 1.390 . S
C867 C868 1.387 . S
C867 H870 0.950 . S
C868 C867 1.387 . S
C868 C871 1.387 . S
H869 C865 0.950 . S
H870 C867 0.950 . S
C871 C862 1.390 . S
C871 H864 0.950 . S
C871 C868 1.387 . S
C872 C873 1.387 . S
C872 H876 0.950 . S
C872 C881 1.390 . S
C873 C872 1.387 . S
C873 C875 1.387 . S
H874 C881 0.950 . S
C875 C873 1.387 . S
C875 C877 1.390 . S
C875 H879 0.950 . S
H876 C872 0.950 . S
C877 C875 1.390 . S
C877 C878 1.387 . S
C877 H880 0.950 . S
C878 C877 1.387 . S
C878 C881 1.387 . S
H879 C875 0.950 . S
H880 C877 0.950 . S
C881 C872 1.390 . S
C881 H874 0.950 . S
C881 C878 1.387 . S
C882 C883 1.387 . S
C882 H886 0.950 . S
C882 C891 1.390 . S
C883 C882 1.387 . S
C883 C885 1.387 . S
H884 C891 0.950 . S
C885 C883 1.387 . S
C885 C887 1.390 . S
C885 H889 0.950 . S
H886 C882 0.950 . S
C887 C885 1.390 . S
C887 C888 1.387 . S
C887 H890 0.950 . S
C888 C887 1.387 . S
C888 C891 1.387 . S
H889 C885 0.950 . S
H890 C887 0.950 . S
C891 C882 1.390 . S
C891 H884 0.950 . S
C891 C888 1.387 . S
C892 C893 1.387 . S
C892 H896 0.950 . S
C892 C901 1.390 . S
C893 C892 1.387 . S
C893 C895 1.387 . S
H894 C901 0.950 . S
C895 C893 1.387 . S
C895 C897 1.390 . S
C895 H899 0.950 . S
H896 C892 0.950 . S
C897 C895 1.390 . S
C897 C898 1.387 . S
C897 H900 0.950 . S
C898 C897 1.387 . S
C898 C901 1.387 . S
H899 C895 0.950 . S
H900 C897 0.950 . S
C901 C892 1.390 . S
C901 H894 0.950 . S
C901 C898 1.387 . S
C902 C903 1.387 . S
C902 H906 0.950 . S
C902 C911 1.390 . S
C903 C902 1.387 . S
C903 C905 1.387 . S
H904 C911 0.950 . S
C905 C903 1.387 . S
C905 C907 1.390 . S
C905 H909 0.950 . S
H906 C902 0.950 . S
C907 C905 1.390 . S
C907 C908 1.387 . S
C907 H910 0.950 . S
C908 C907 1.387 . S
C908 C911 1.387 . S
H909 C905 0.950 . S
H910 C907 0.950 . S
C911 C902 1.390 . S
C911 H904 0.950 . S
C911 C908 1.387 . S
C912 C913 1.387 . S
C912 H916 0.950 . S
C912 C921 1.390 . S
C913 C912 1.387 . S
C913 C915 1.387 . S
H914 C921 0.950 . S
C915 C913 1.387 . S
C915 C917 1.390 . S
C915 H919 0.950 . S
H916 C912 0.950 . S
C917 C915 1.390 . S
C917 C918 1.387 . S
C917 H920 0.950 . S
C918 C917 1.387 . S
C918 C921 1.387 . S
H919 C915 0.950 . S
H920 C917 0.950 . S
C921 C912 1.390 . S
C921 H914 0.950 . S
C921 C918 1.387 . S
C922 C923 1.387 . S
C922 H926 0.950 . S
C922 C931 1.390 . S
C923 C922 1.387 . S
C923 C925 1.387 . S
H924 C931 0.950 . S
C925 C923 1.387 . S
C925 C927 1.390 . S
C925 H929 0.950 . S
H926 C922 0.950 . S
C927 C925 1.390 . S
C927 C928 1.387 . S
C927 H930 0.950 . S
C928 C927 1.387 . S
C928 C931 1.387 . S
H929 C925 0.950 . S
H930 C927 0.950 . S
C931 C922 1.390 . S
C931 H924 0.950 . S
C931 C928 1.387 . S
C932 C933 1.387 . S
C932 H936 0.950 . S
C932 C941 1.390 . S
C933 C932 1.387 . S
C933 C935 1.387 . S
H934 C941 0.950 . S
C935 C933 1.387 . S
C935 C937 1.390 . S
C935 H939 0.950 . S
H936 C932 0.950 . S
C937 C935 1.390 . S
C937 C938 1.387 . S
C937 H940 0.950 . S
C938 C937 1.387 . S
C938 C941 1.387 . S
H939 C935 0.950 . S
H940 C937 0.950 . S
C941 C932 1.390 . S
C941 H934 0.950 . S
C941 C938 1.387 . S
C942 C943 1.387 . S
C942 H946 0.950 1_556 S
C942 C951 1.390 1_556 S
C943 C942 1.387 . S
C943 C945 1.387 . S
H944 C951 0.950 . S
C945 C943 1.387 . S
C945 C947 1.390 . S
C945 H949 0.950 . S
H946 C942 0.950 1_554 S
C947 C945 1.390 . S
C947 C948 1.387 . S
C947 H950 0.950 . S
C948 C947 1.387 . S
C948 C951 1.387 1_556 S
H949 C945 0.950 . S
H950 C947 0.950 . S
C951 C942 1.390 1_554 S
C951 H944 0.950 . S
C951 C948 1.387 1_554 S
C952 C953 1.387 . S
C952 H956 0.950 . S
C952 C961 1.390 . S
C953 C952 1.387 . S
C953 C955 1.387 . S
H954 C961 0.950 . S
C955 C953 1.387 . S
C955 C957 1.390 . S
C955 H959 0.950 . S
H956 C952 0.950 . S
C957 C955 1.390 . S
C957 C958 1.387 . S
C957 H960 0.950 . S
C958 C957 1.387 . S
C958 C961 1.387 . S
H959 C955 0.950 . S
H960 C957 0.950 . S
C961 C952 1.390 . S
C961 H954 0.950 . S
C961 C958 1.387 . S
C962 C963 1.387 . S
C962 H966 0.950 . S
C962 C971 1.390 . S
C963 C962 1.387 . S
C963 C965 1.387 . S
H964 C971 0.950 . S
C965 C963 1.387 . S
C965 C967 1.390 . S
C965 H969 0.950 . S
H966 C962 0.950 . S
C967 C965 1.390 . S
C967 C968 1.387 . S
C967 H970 0.950 . S
C968 C967 1.387 . S
C968 C971 1.387 . S
H969 C965 0.950 . S
H970 C967 0.950 . S
C971 C962 1.390 . S
C971 H964 0.950 . S
C971 C968 1.387 . S
C972 C973 1.387 . S
C972 H976 0.950 . S
C972 C981 1.390 . S
C973 C972 1.387 . S
C973 C975 1.387 . S
H974 C981 0.950 . S
C975 C973 1.387 . S
C975 C977 1.390 . S
C975 H979 0.950 . S
H976 C972 0.950 . S
C977 C975 1.390 . S
C977 C978 1.387 . S
C977 H980 0.950 . S
C978 C977 1.387 . S
C978 C981 1.387 . S
H979 C975 0.950 . S
H980 C977 0.950 . S
C981 C972 1.390 . S
C981 H974 0.950 . S
C981 C978 1.387 . S
C982 C983 1.387 . S
C982 H986 0.950 . S
C982 C991 1.390 1_554 S
C983 C982 1.387 . S
C983 C985 1.387 . S
H984 C991 0.950 . S
C985 C983 1.387 . S
C985 C987 1.390 . S
C985 H989 0.950 . S
H986 C982 0.950 . S
C987 C985 1.390 . S
C987 C988 1.387 . S
C987 H990 0.950 . S
C988 C987 1.387 . S
C988 C991 1.387 1_554 S
H989 C985 0.950 . S
H990 C987 0.950 . S
C991 C982 1.390 1_556 S
C991 H984 0.950 . S
C991 C988 1.387 1_556 S
C992 C993 1.387 . S
C992 H996 0.950 . S
C992 C1001 1.390 . S
C993 C992 1.387 . S
C993 C995 1.387 . S
H994 C1001 0.950 . S
C995 C993 1.387 . S
C995 C997 1.390 . S
C995 H999 0.950 . S
H996 C992 0.950 . S
C997 C995 1.390 . S
C997 C998 1.387 . S
C997 H1000 0.950 . S
C998 C997 1.387 . S
C998 C1001 1.387 . S
H999 C995 0.950 . S
H1000 C997 0.950 . S
C1001 C992 1.390 . S
C1001 H994 0.950 . S
C1001 C998 1.387 . S
C1002 C1003 1.387 . S
C1002 H1006 0.950 . S
C1002 C1011 1.390 . S
C1003 C1002 1.387 . S
C1003 C1005 1.387 . S
H1004 C1011 0.950 . S
C1005 C1003 1.387 . S
C1005 C1007 1.390 1_565 S
C1005 H1009 0.950 1_565 S
H1006 C1002 0.950 . S
C1007 C1005 1.390 1_545 S
C1007 C1008 1.387 1_545 S
C1007 H1010 0.950 . S
C1008 C1007 1.387 1_565 S
C1008 C1011 1.387 . S
H1009 C1005 0.950 1_545 S
H1010 C1007 0.950 . S
C1011 C1002 1.390 . S
C1011 H1004 0.950 . S
C1011 C1008 1.387 . S
C1012 C1013 1.387 . S
C1012 H1016 0.950 . S
C1012 C1021 1.390 . S
C1013 C1012 1.387 . S
C1013 C1015 1.387 . S
H1014 C1021 0.950 . S
C1015 C1013 1.387 . S
C1015 C1017 1.390 . S
C1015 H1019 0.950 . S
H1016 C1012 0.950 . S
C1017 C1015 1.390 . S
C1017 C1018 1.387 . S
C1017 H1020 0.950 . S
C1018 C1017 1.387 . S
C1018 C1021 1.387 . S
H1019 C1015 0.950 . S
H1020 C1017 0.950 . S
C1021 C1012 1.390 . S
C1021 H1014 0.950 . S
C1021 C1018 1.387 . S
C1022 C1023 1.387 . S
C1022 H1026 0.950 . S
C1022 C1031 1.390 . S
C1023 C1022 1.387 . S
C1023 C1025 1.387 . S
H1024 C1031 0.950 . S
C1025 C1023 1.387 . S
C1025 C1027 1.390 1_545 S
C1025 H1029 0.950 1_545 S
H1026 C1022 0.950 . S
C1027 C1025 1.390 1_565 S
C1027 C1028 1.387 1_565 S
C1027 H1030 0.950 . S
C1028 C1027 1.387 1_545 S
C1028 C1031 1.387 . S
H1029 C1025 0.950 1_565 S
H1030 C1027 0.950 . S
C1031 C1022 1.390 . S
C1031 H1024 0.950 . S
C1031 C1028 1.387 . S
C1032 C1033 1.387 . S
C1032 H1036 0.950 . S
C1032 C1041 1.390 . S
C1033 C1032 1.387 . S
C1033 C1035 1.387 . S
H1034 C1041 0.950 . S
C1035 C1033 1.387 . S
C1035 C1037 1.390 . S
C1035 H1039 0.950 . S
H1036 C1032 0.950 . S
C1037 C1035 1.390 . S
C1037 C1038 1.387 . S
C1037 H1040 0.950 . S
C1038 C1037 1.387 . S
C1038 C1041 1.387 . S
H1039 C1035 0.950 . S
H1040 C1037 0.950 . S
C1041 C1032 1.390 . S
C1041 H1034 0.950 . S
C1041 C1038 1.387 . S
C1042 C1043 1.387 . S
C1042 H1046 0.950 1_565 S
C1042 C1051 1.390 1_565 S
C1043 C1042 1.387 . S
C1043 C1045 1.387 . S
H1044 C1051 0.950 . S
C1045 C1043 1.387 . S
C1045 C1047 1.390 . S
C1045 H1049 0.950 . S
H1046 C1042 0.950 1_545 S
C1047 C1045 1.390 . S
C1047 C1048 1.387 . S
C1047 H1050 0.950 . S
C1048 C1047 1.387 . S
C1048 C1051 1.387 1_565 S
H1049 C1045 0.950 . S
H1050 C1047 0.950 . S
C1051 C1042 1.390 1_545 S
C1051 H1044 0.950 . S
C1051 C1048 1.387 1_545 S
C1052 C1053 1.387 . S
C1052 H1056 0.950 . S
C1052 C1061 1.390 . S
C1053 C1052 1.387 . S
C1053 C1055 1.387 . S
H1054 C1061 0.950 . S
C1055 C1053 1.387 . S
C1055 C1057 1.390 . S
C1055 H1059 0.950 . S
H1056 C1052 0.950 . S
C1057 C1055 1.390 . S
C1057 C1058 1.387 . S
C1057 H1060 0.950 . S
C1058 C1057 1.387 . S
C1058 C1061 1.387 . S
H1059 C1055 0.950 . S
H1060 C1057 0.950 . S
C1061 C1052 1.390 . S
C1061 H1054 0.950 . S
C1061 C1058 1.387 . S
C1062 C1063 1.387 . S
C1062 H1066 0.950 . S
C1062 C1071 1.390 . S
C1063 C1062 1.387 . S
C1063 C1065 1.387 1_545 S
H1064 C1071 0.950 . S
C1065 C1063 1.387 1_565 S
C1065 C1067 1.390 1_565 S
C1065 H1069 0.950 . S
H1066 C1062 0.950 . S
C1067 C1065 1.390 1_545 S
C1067 C1068 1.387 . S
C1067 H1070 0.945 1_545 S
C1068 C1067 1.387 . S
C1068 C1071 1.387 . S
H1069 C1065 0.950 . S
H1070 C1067 0.945 1_565 S
C1071 C1062 1.390 . S
C1071 H1064 0.950 . S
C1071 C1068 1.387 . S
C1072 C1073 1.387 . S
C1072 H1076 0.950 . S
C1072 C1081 1.390 . S
C1073 C1072 1.387 . S
C1073 C1075 1.387 . S
H1074 C1081 0.950 . S
C1075 C1073 1.387 . S
C1075 C1077 1.390 . S
C1075 H1079 0.950 . S
H1076 C1072 0.950 . S
C1077 C1075 1.390 . S
C1077 C1078 1.387 . S
C1077 H1080 0.950 . S
C1078 C1077 1.387 . S
C1078 C1081 1.387 . S
H1079 C1075 0.950 . S
H1080 C1077 0.950 . S
C1081 C1072 1.390 . S
C1081 H1074 0.950 . S
C1081 C1078 1.387 . S
C1082 C1083 1.387 . S
C1082 H1086 0.950 . S
C1082 C1091 1.390 . S
C1083 C1082 1.387 . S
C1083 C1085 1.387 . S
H1084 C1091 0.950 . S
C1085 C1083 1.387 . S
C1085 C1087 1.390 . S
C1085 H1089 0.950 . S
H1086 C1082 0.950 . S
C1087 C1085 1.390 . S
C1087 C1088 1.387 . S
C1087 H1090 0.950 . S
C1088 C1087 1.387 . S
C1088 C1091 1.387 . S
H1089 C1085 0.950 . S
H1090 C1087 0.950 . S
C1091 C1082 1.390 . S
C1091 H1084 0.950 . S
C1091 C1088 1.387 . S
C1092 C1093 1.387 . S
C1092 H1096 0.950 . S
C1092 C1101 1.390 . S
C1093 C1092 1.387 . S
C1093 C1095 1.387 . S
H1094 C1101 0.950 . S
C1095 C1093 1.387 . S
C1095 C1097 1.390 . S
C1095 H1099 0.950 . S
H1096 C1092 0.950 . S
C1097 C1095 1.390 . S
C1097 C1098 1.387 . S
C1097 H1100 0.950 . S
C1098 C1097 1.387 . S
C1098 C1101 1.387 . S
H1099 C1095 0.950 . S
H1100 C1097 0.950 . S
C1101 C1092 1.390 . S
C1101 H1094 0.950 . S
C1101 C1098 1.387 . S
C1102 C1103 1.387 . S
C1102 H1106 0.950 . S
C1102 C1111 1.390 . S
C1103 C1102 1.387 . S
C1103 C1105 1.387 . S
H1104 C1111 0.950 . S
C1105 C1103 1.387 . S
C1105 C1107 1.390 . S
C1105 H1109 0.950 . S
H1106 C1102 0.950 . S
C1107 C1105 1.390 . S
C1107 C1108 1.387 . S
C1107 H1110 0.950 . S
C1108 C1107 1.387 . S
C1108 C1111 1.387 . S
H1109 C1105 0.950 . S
H1110 C1107 0.950 . S
C1111 C1102 1.390 . S
C1111 H1104 0.950 . S
C1111 C1108 1.387 . S
C1112 C1113 1.387 . S
C1112 H1116 0.950 . S
C1112 C1121 1.390 . S
C1113 C1112 1.387 . S
C1113 C1115 1.387 . S
H1114 C1121 0.950 1_545 S
C1115 C1113 1.387 . S
C1115 C1117 1.390 . S
C1115 H1119 0.950 . S
H1116 C1112 0.950 . S
C1117 C1115 1.390 . S
C1117 C1118 1.387 . S
C1117 H1120 0.950 . S
C1118 C1117 1.387 . S
C1118 C1121 1.387 . S
H1119 C1115 0.950 . S
H1120 C1117 0.950 . S
C1121 C1112 1.390 . S
C1121 H1114 0.950 1_565 S
C1121 C1118 1.387 . S
C1122 C1123 1.387 . S
C1122 H1126 0.950 . S
C1122 C1131 1.390 . S
C1123 C1122 1.387 . S
C1123 C1125 1.387 . S
H1124 C1131 0.950 . S
C1125 C1123 1.387 . S
C1125 C1127 1.390 . S
C1125 H1129 0.950 . S
H1126 C1122 0.950 . S
C1127 C1125 1.390 . S
C1127 C1128 1.387 . S
C1127 H1130 0.950 . S
C1128 C1127 1.387 . S
C1128 C1131 1.387 . S
H1129 C1125 0.950 . S
H1130 C1127 0.950 . S
C1131 C1122 1.390 . S
C1131 H1124 0.950 . S
C1131 C1128 1.387 . S
C1132 C1133 1.387 . S
C1132 H1136 0.950 . S
C1132 C1141 1.390 . S
C1133 C1132 1.387 . S
C1133 C1135 1.387 . S
H1134 C1141 0.950 1_455 S
C1135 C1133 1.387 . S
C1135 C1137 1.390 . S
C1135 H1139 0.950 . S
H1136 C1132 0.950 . S
C1137 C1135 1.390 . S
C1137 C1138 1.387 . S
C1137 H1140 0.950 . S
C1138 C1137 1.387 . S
C1138 C1141 1.387 . S
H1139 C1135 0.950 . S
H1140 C1137 0.950 . S
C1141 C1132 1.390 . S
C1141 H1134 0.950 1_655 S
C1141 C1138 1.387 . S
C1142 C1143 1.387 . S
C1142 H1146 0.950 . S
C1142 C1151 1.390 . S
C1143 C1142 1.387 . S
C1143 C1145 1.387 . S
H1144 C1151 0.950 . S
C1145 C1143 1.387 . S
C1145 C1147 1.390 . S
C1145 H1149 0.950 . S
H1146 C1142 0.950 . S
C1147 C1145 1.390 . S
C1147 C1148 1.387 . S
C1147 H1150 0.950 . S
C1148 C1147 1.387 . S
C1148 C1151 1.387 . S
H1149 C1145 0.950 . S
H1150 C1147 0.950 . S
C1151 C1142 1.390 . S
C1151 H1144 0.950 . S
C1151 C1148 1.387 . S
C1152 C1153 1.387 . S
C1152 H1156 0.950 . S
C1152 C1161 1.390 . S
C1153 C1152 1.387 . S
C1153 C1155 1.387 . S
H1154 C1161 0.950 . S
C1155 C1153 1.387 . S
C1155 C1157 1.390 . S
C1155 H1159 0.950 . S
H1156 C1152 0.950 . S
C1157 C1155 1.390 . S
C1157 C1158 1.387 . S
C1157 H1160 0.950 . S
C1158 C1157 1.387 . S
C1158 C1161 1.387 . S
H1159 C1155 0.950 . S
H1160 C1157 0.950 . S
C1161 C1152 1.390 . S
C1161 H1154 0.950 . S
C1161 C1158 1.387 . S
C1162 C1163 1.387 1_554 S
C1162 H1166 0.950 . S
C1162 C1171 1.390 1_554 S
C1163 C1162 1.387 1_556 S
C1163 C1165 1.387 . S
H1164 C1171 0.950 . S
C1165 C1163 1.387 . S
C1165 C1167 1.390 . S
C1165 H1169 0.950 . S
H1166 C1162 0.950 . S
C1167 C1165 1.390 . S
C1167 C1168 1.387 . S
C1167 H1170 0.950 . S
C1168 C1167 1.387 . S
C1168 C1171 1.387 . S
H1169 C1165 0.950 . S
H1170 C1167 0.950 . S
C1171 C1162 1.390 1_556 S
C1171 H1164 0.950 . S
C1171 C1168 1.387 . S
C1172 C1173 1.387 . S
C1172 H1176 0.950 . S
C1172 C1181 1.390 . S
C1173 C1172 1.387 . S
C1173 C1175 1.387 . S
H1174 C1181 0.950 . S
C1175 C1173 1.387 . S
C1175 C1177 1.390 . S
C1175 H1179 0.950 . S
H1176 C1172 0.950 . S
C1177 C1175 1.390 . S
C1177 C1178 1.387 . S
C1177 H1180 0.950 . S
C1178 C1177 1.387 . S
C1178 C1181 1.387 . S
H1179 C1175 0.950 . S
H1180 C1177 0.950 . S
C1181 C1172 1.390 . S
C1181 H1174 0.950 . S
C1181 C1178 1.387 . S
C1182 C1183 1.387 . S
C1182 H1186 0.950 . S
C1182 C1191 1.390 . S
C1183 C1182 1.387 . S
C1183 C1185 1.387 . S
H1184 C1191 0.950 . S
C1185 C1183 1.387 . S
C1185 C1187 1.390 . S
C1185 H1189 0.930 1_455 S
H1186 C1182 0.950 . S
C1187 C1185 1.390 . S
C1187 C1188 1.387 . S
C1187 H1190 0.950 . S
C1188 C1187 1.387 . S
C1188 C1191 1.387 . S
H1189 C1185 0.930 1_655 S
H1190 C1187 0.950 . S
C1191 C1182 1.390 . S
C1191 H1184 0.950 . S
C1191 C1188 1.387 . S
C1192 C1193 1.387 . S
C1192 H1196 0.950 . S
C1192 C1201 1.390 . S
C1193 C1192 1.387 . S
C1193 C1195 1.387 . S
H1194 C1201 0.950 . S
C1195 C1193 1.387 . S
C1195 C1197 1.390 . S
C1195 H1199 0.950 . S
H1196 C1192 0.950 . S
C1197 C1195 1.390 . S
C1197 C1198 1.387 . S
C1197 H1200 0.950 . S
C1198 C1197 1.387 . S
C1198 C1201 1.387 . S
H1199 C1195 0.950 . S
H1200 C1197 0.950 . S
C1201 C1192 1.390 . S
C1201 H1194 0.950 . S
C1201 C1198 1.387 . S
C1202 C1203 1.387 . S
C1202 H1206 0.950 1_455 S
C1202 C1211 1.390 . S
C1203 C1202 1.387 . S
C1203 C1205 1.387 1_554 S
H1204 C1211 0.950 . S
C1205 C1203 1.387 1_556 S
C1205 C1207 1.390 1_556 S
C1205 H1209 0.950 . S
H1206 C1202 0.950 1_655 S
C1207 C1205 1.390 1_554 S
C1207 C1208 1.387 . S
C1207 H1210 0.950 . S
C1208 C1207 1.387 . S
C1208 C1211 1.387 . S
H1209 C1205 0.950 . S
H1210 C1207 0.950 . S
C1211 C1202 1.390 . S
C1211 H1204 0.950 . S
C1211 C1208 1.387 . S
C1212 C1213 1.387 . S
C1212 H1216 0.950 . S
C1212 C1221 1.390 . S
C1213 C1212 1.387 . S
C1213 C1215 1.387 . S
H1214 C1221 0.950 . S
C1215 C1213 1.387 . S
C1215 C1217 1.390 . S
C1215 H1219 0.950 . S
H1216 C1212 0.950 . S
C1217 C1215 1.390 . S
C1217 C1218 1.387 . S
C1217 H1220 0.950 . S
C1218 C1217 1.387 . S
C1218 C1221 1.387 . S
H1219 C1215 0.950 . S
H1220 C1217 0.950 . S
C1221 C1212 1.390 . S
C1221 H1214 0.950 . S
C1221 C1218 1.387 . S
C1222 C1223 1.387 . S
C1222 H1226 0.950 . S
C1222 C1231 1.390 . S
C1223 C1222 1.387 . S
C1223 C1225 1.387 . S
H1224 C1231 0.950 . S
C1225 C1223 1.387 . S
C1225 C1227 1.390 . S
C1225 H1229 0.950 . S
H1226 C1222 0.950 . S
C1227 C1225 1.390 . S
C1227 C1228 1.387 . S
C1227 H1230 0.950 . S
C1228 C1227 1.387 . S
C1228 C1231 1.387 . S
H1229 C1225 0.950 . S
H1230 C1227 0.950 . S
C1231 C1222 1.390 . S
C1231 H1224 0.950 . S
C1231 C1228 1.387 . S
C1232 C1233 1.387 . S
C1232 H1236 0.950 . S
C1232 C1241 1.390 . S
C1233 C1232 1.387 . S
C1233 C1235 1.387 . S
H1234 C1241 0.950 . S
C1235 C1233 1.387 . S
C1235 C1237 1.390 . S
C1235 H1239 0.950 . S
H1236 C1232 0.950 . S
C1237 C1235 1.390 . S
C1237 C1238 1.387 . S
C1237 H1240 0.950 . S
C1238 C1237 1.387 . S
C1238 C1241 1.387 . S
H1239 C1235 0.950 . S
H1240 C1237 0.950 . S
C1241 C1232 1.390 . S
C1241 H1234 0.950 . S
C1241 C1238 1.387 . S
C1242 C1243 1.387 . S
C1242 H1246 0.950 . S
C1242 C1251 1.390 . S
C1243 C1242 1.387 . S
C1243 C1245 1.387 . S
H1244 C1251 0.950 1_556 S
C1245 C1243 1.387 . S
C1245 C1247 1.390 . S
C1245 H1249 0.950 . S
H1246 C1242 0.950 . S
C1247 C1245 1.390 . S
C1247 C1248 1.387 . S
C1247 H1250 0.950 . S
C1248 C1247 1.387 . S
C1248 C1251 1.387 . S
H1249 C1245 0.950 . S
H1250 C1247 0.950 . S
C1251 C1242 1.390 . S
C1251 H1244 0.950 1_554 S
C1251 C1248 1.387 . S
C1252 C1253 1.387 . S
C1252 H1256 0.950 . S
C1252 C1261 1.390 . S
C1253 C1252 1.387 . S
C1253 C1255 1.387 . S
H1254 C1261 0.950 . S
C1255 C1253 1.387 . S
C1255 C1257 1.390 . S
C1255 H1259 0.950 . S
H1256 C1252 0.950 . S
C1257 C1255 1.390 . S
C1257 C1258 1.387 . S
C1257 H1260 0.950 . S
C1258 C1257 1.387 . S
C1258 C1261 1.387 . S
H1259 C1255 0.950 . S
H1260 C1257 0.950 . S
C1261 C1252 1.390 . S
C1261 H1254 0.950 . S
C1261 C1258 1.387 . S
C1262 C1263 1.387 . S
C1262 H1266 0.950 . S
C1262 C1271 1.390 . S
C1263 C1262 1.387 . S
C1263 C1265 1.387 . S
H1264 C1271 0.950 . S
C1265 C1263 1.387 . S
C1265 C1267 1.390 . S
C1265 H1269 0.950 . S
H1266 C1262 0.950 . S
C1267 C1265 1.390 . S
C1267 C1268 1.387 . S
C1267 H1270 0.950 . S
C1268 C1267 1.387 . S
C1268 C1271 1.387 . S
H1269 C1265 0.950 . S
H1270 C1267 0.950 . S
C1271 C1262 1.390 . S
C1271 H1264 0.950 . S
C1271 C1268 1.387 . S
C1272 C1273 1.387 . S
C1272 H1276 0.950 . S
C1272 C1281 1.390 . S
C1273 C1272 1.387 . S
C1273 C1275 1.387 . S
H1274 C1281 0.950 . S
C1275 C1273 1.387 . S
C1275 C1277 1.390 . S
C1275 H1279 0.950 . S
H1276 C1272 0.950 . S
C1277 C1275 1.390 . S
C1277 C1278 1.387 . S
C1277 H1280 0.950 . S
C1278 C1277 1.387 . S
C1278 C1281 1.387 . S
H1279 C1275 0.950 . S
H1280 C1277 0.950 . S
C1281 C1272 1.390 . S
C1281 H1274 0.950 . S
C1281 C1278 1.387 . S
C1282 C1283 1.387 . S
C1282 H1286 0.950 . S
C1282 C1291 1.390 . S
C1283 C1282 1.387 . S
C1283 C1285 1.387 . S
H1284 C1291 0.950 . S
C1285 C1283 1.387 . S
C1285 C1287 1.390 . S
C1285 H1289 0.950 . S
H1286 C1282 0.950 . S
C1287 C1285 1.390 . S
C1287 C1288 1.387 . S
C1287 H1290 0.950 . S
C1288 C1287 1.387 . S
C1288 C1291 1.387 . S
H1289 C1285 0.950 . S
H1290 C1287 0.950 . S
C1291 C1282 1.390 . S
C1291 H1284 0.950 . S
C1291 C1288 1.387 . S
C1292 C1293 1.387 . S
C1292 H1296 0.950 . S
C1292 C1301 1.390 . S
C1293 C1292 1.387 . S
C1293 C1295 1.387 . S
H1294 C1301 0.950 . S
C1295 C1293 1.387 . S
C1295 C1297 1.390 . S
C1295 H1299 0.950 . S
H1296 C1292 0.950 . S
C1297 C1295 1.390 . S
C1297 C1298 1.387 . S
C1297 H1300 0.950 . S
C1298 C1297 1.387 . S
C1298 C1301 1.387 . S
H1299 C1295 0.950 . S
H1300 C1297 0.950 . S
C1301 C1292 1.390 . S
C1301 H1294 0.950 . S
C1301 C1298 1.387 . S
C1302 C1303 1.387 . S
C1302 H1306 0.950 . S
C1302 C1311 1.390 . S
C1303 C1302 1.387 . S
C1303 C1305 1.387 . S
H1304 C1311 0.950 . S
C1305 C1303 1.387 . S
C1305 C1307 1.390 . S
C1305 H1309 0.950 . S
H1306 C1302 0.950 . S
C1307 C1305 1.390 . S
C1307 C1308 1.387 . S
C1307 H1310 0.950 . S
C1308 C1307 1.387 . S
C1308 C1311 1.387 . S
H1309 C1305 0.950 . S
H1310 C1307 0.950 . S
C1311 C1302 1.390 . S
C1311 H1304 0.950 . S
C1311 C1308 1.387 . S
C1312 C1313 1.387 . S
C1312 H1316 0.950 . S
C1312 C1321 1.390 . S
C1313 C1312 1.387 . S
C1313 C1315 1.387 . S
H1314 C1321 0.950 . S
C1315 C1313 1.387 . S
C1315 C1317 1.390 . S
C1315 H1319 0.950 . S
H1316 C1312 0.950 . S
C1317 C1315 1.390 . S
C1317 C1318 1.387 . S
C1317 H1320 0.950 . S
C1318 C1317 1.387 . S
C1318 C1321 1.387 . S
H1319 C1315 0.950 . S
H1320 C1317 0.950 . S
C1321 C1312 1.390 . S
C1321 H1314 0.950 . S
C1321 C1318 1.387 . S
C1322 C1323 1.387 . S
C1322 H1326 0.950 . S
C1322 C1331 1.390 . S
C1323 C1322 1.387 . S
C1323 C1325 1.387 . S
H1324 C1331 0.950 . S
C1325 C1323 1.387 . S
C1325 C1327 1.390 . S
C1325 H1329 0.950 . S
H1326 C1322 0.950 . S
C1327 C1325 1.390 . S
C1327 C1328 1.387 . S
C1327 H1330 0.950 . S
C1328 C1327 1.387 . S
C1328 C1331 1.387 . S
H1329 C1325 0.950 . S
H1330 C1327 0.950 . S
C1331 C1322 1.390 . S
C1331 H1324 0.950 . S
C1331 C1328 1.387 . S
C1332 C1333 1.387 . S
C1332 H1336 0.950 . S
C1332 C1341 1.390 . S
C1333 C1332 1.387 . S
C1333 C1335 1.387 . S
H1334 C1341 0.950 1_565 S
C1335 C1333 1.387 . S
C1335 C1337 1.390 . S
C1335 H1339 0.950 . S
H1336 C1332 0.950 . S
C1337 C1335 1.390 . S
C1337 C1338 1.387 . S
C1337 H1340 0.950 . S
C1338 C1337 1.387 . S
C1338 C1341 1.387 . S
H1339 C1335 0.950 . S
H1340 C1337 0.950 . S
C1341 C1332 1.390 . S
C1341 H1334 0.950 1_545 S
C1341 C1338 1.387 . S
C1342 C1343 1.387 . S
C1342 H1346 0.950 . S
C1342 C1351 1.390 . S
C1343 C1342 1.387 . S
C1343 C1345 1.387 . S
H1344 C1351 0.950 . S
C1345 C1343 1.387 . S
C1345 C1347 1.390 . S
C1345 H1349 0.950 . S
H1346 C1342 0.950 . S
C1347 C1345 1.390 . S
C1347 C1348 1.387 . S
C1347 H1350 0.950 . S
C1348 C1347 1.387 . S
C1348 C1351 1.387 . S
H1349 C1345 0.950 . S
H1350 C1347 0.950 . S
C1351 C1342 1.390 . S
C1351 H1344 0.950 . S
C1351 C1348 1.387 . S
C1352 C1353 1.387 . S
C1352 H1356 0.950 . S
C1352 C1361 1.390 . S
C1353 C1352 1.387 . S
C1353 C1355 1.387 . S
H1354 C1361 0.950 . S
C1355 C1353 1.387 . S
C1355 C1357 1.390 . S
C1355 H1359 0.950 . S
H1356 C1352 0.950 . S
C1357 C1355 1.390 . S
C1357 C1358 1.387 . S
C1357 H1360 0.950 . S
C1358 C1357 1.387 . S
C1358 C1361 1.387 . S
H1359 C1355 0.950 . S
H1360 C1357 0.950 . S
C1361 C1352 1.390 . S
C1361 H1354 0.950 . S
C1361 C1358 1.387 . S
C1362 C1363 1.387 . S
C1362 H1366 0.950 . S
C1362 C1371 1.390 . S
C1363 C1362 1.387 . S
C1363 C1365 1.387 . S
H1364 C1371 0.950 . S
C1365 C1363 1.387 . S
C1365 C1367 1.390 . S
C1365 H1369 0.950 . S
H1366 C1362 0.950 . S
C1367 C1365 1.390 . S
C1367 C1368 1.387 . S
C1367 H1370 0.950 . S
C1368 C1367 1.387 . S
C1368 C1371 1.387 . S
H1369 C1365 0.950 . S
H1370 C1367 0.950 . S
C1371 C1362 1.390 . S
C1371 H1364 0.950 . S
C1371 C1368 1.387 . S
C1372 C1373 1.387 . S
C1372 H1376 0.950 . S
C1372 C1381 1.390 . S
C1373 C1372 1.387 . S
C1373 C1375 1.387 . S
H1374 C1381 0.950 . S
C1375 C1373 1.387 . S
C1375 C1377 1.390 . S
C1375 H1379 0.950 . S
H1376 C1372 0.950 . S
C1377 C1375 1.390 . S
C1377 C1378 1.387 . S
C1377 H1380 0.950 1_565 S
C1378 C1377 1.387 . S
C1378 C1381 1.387 . S
H1379 C1375 0.950 . S
H1380 C1377 0.950 1_545 S
C1381 C1372 1.390 . S
C1381 H1374 0.950 . S
C1381 C1378 1.387 . S
C1382 C1383 1.387 . S
C1382 H1386 0.950 . S
C1382 C1391 1.390 . S
C1383 C1382 1.387 . S
C1383 C1385 1.387 . S
H1384 C1391 0.950 1_565 S
C1385 C1383 1.387 . S
C1385 C1387 1.390 1_455 S
C1385 H1389 0.950 . S
H1386 C1382 0.950 . S
C1387 C1385 1.390 1_655 S
C1387 C1388 1.387 1_655 S
C1387 H1390 0.950 . S
C1388 C1387 1.387 1_455 S
C1388 C1391 1.387 . S
H1389 C1385 0.950 . S
H1390 C1387 0.950 . S
C1391 C1382 1.390 . S
C1391 H1384 0.950 1_545 S
C1391 C1388 1.387 . S
C1392 C1393 1.387 . S
C1392 H1396 0.950 . S
C1392 C1401 1.390 . S
C1393 C1392 1.387 . S
C1393 C1395 1.387 . S
H1394 C1401 0.950 . S
C1395 C1393 1.387 . S
C1395 C1397 1.390 . S
C1395 H1399 0.950 . S
H1396 C1392 0.950 . S
C1397 C1395 1.390 . S
C1397 C1398 1.387 . S
C1397 H1400 0.950 . S
C1398 C1397 1.387 . S
C1398 C1401 1.387 . S
H1399 C1395 0.950 . S
H1400 C1397 0.950 . S
C1401 C1392 1.390 . S
C1401 H1394 0.950 . S
C1401 C1398 1.387 . S
C1402 C1403 1.387 . S
C1402 H1406 0.950 . S
C1402 C1411 1.390 . S
C1403 C1402 1.387 . S
C1403 C1405 1.387 . S
H1404 C1411 0.950 . S
C1405 C1403 1.387 . S
C1405 C1407 1.390 . S
C1405 H1409 0.950 . S
H1406 C1402 0.950 . S
C1407 C1405 1.390 . S
C1407 C1408 1.387 . S
C1407 H1410 0.950 . S
C1408 C1407 1.387 . S
C1408 C1411 1.387 . S
H1409 C1405 0.950 . S
H1410 C1407 0.950 . S
C1411 C1402 1.390 . S
C1411 H1404 0.950 . S
C1411 C1408 1.387 . S
C1412 C1413 1.387 . S
C1412 H1416 0.950 . S
C1412 C1421 1.390 . S
C1413 C1412 1.387 . S
C1413 C1415 1.387 . S
H1414 C1421 0.950 . S
C1415 C1413 1.387 . S
C1415 C1417 1.390 . S
C1415 H1419 0.950 . S
H1416 C1412 0.950 . S
C1417 C1415 1.390 . S
C1417 C1418 1.387 . S
C1417 H1420 0.950 . S
C1418 C1417 1.387 . S
C1418 C1421 1.387 . S
H1419 C1415 0.950 . S
H1420 C1417 0.950 . S
C1421 C1412 1.390 . S
C1421 H1414 0.950 . S
C1421 C1418 1.387 . S
C1422 C1423 1.387 . S
C1422 H1426 0.950 . S
C1422 C1431 1.390 . S
C1423 C1422 1.387 . S
C1423 C1425 1.387 . S
H1424 C1431 0.950 . S
C1425 C1423 1.387 . S
C1425 C1427 1.390 . S
C1425 H1429 0.950 . S
H1426 C1422 0.950 . S
C1427 C1425 1.390 . S
C1427 C1428 1.387 . S
C1427 H1430 0.950 . S
C1428 C1427 1.387 . S
C1428 C1431 1.387 . S
H1429 C1425 0.950 . S
H1430 C1427 0.950 . S
C1431 C1422 1.390 . S
C1431 H1424 0.950 . S
C1431 C1428 1.387 . S
C1432 C1433 1.387 . S
C1432 H1436 0.950 . S
C1432 C1441 1.390 . S
C1433 C1432 1.387 . S
C1433 C1435 1.387 . S
H1434 C1441 0.950 . S
C1435 C1433 1.387 . S
C1435 C1437 1.390 . S
C1435 H1439 0.950 . S
H1436 C1432 0.950 . S
C1437 C1435 1.390 . S
C1437 C1438 1.387 . S
C1437 H1440 0.950 . S
C1438 C1437 1.387 . S
C1438 C1441 1.387 . S
H1439 C1435 0.950 . S
H1440 C1437 0.950 . S
C1441 C1432 1.390 . S
C1441 H1434 0.950 . S
C1441 C1438 1.387 . S
C1442 C1443 1.387 . S
C1442 H1446 0.950 . S
C1442 C1451 1.390 . S
C1443 C1442 1.387 . S
C1443 C1445 1.387 . S
H1444 C1451 0.950 . S
C1445 C1443 1.387 . S
C1445 C1447 1.390 . S
C1445 H1449 0.950 . S
H1446 C1442 0.950 . S
C1447 C1445 1.390 . S
C1447 C1448 1.387 . S
C1447 H1450 0.950 . S
C1448 C1447 1.387 . S
C1448 C1451 1.387 . S
H1449 C1445 0.950 . S
H1450 C1447 0.950 . S
C1451 C1442 1.390 . S
C1451 H1444 0.950 . S
C1451 C1448 1.387 . S
C1452 C1453 1.387 . S
C1452 H1456 0.950 . S
C1452 C1461 1.390 . S
C1453 C1452 1.387 . S
C1453 C1455 1.387 . S
H1454 C1461 0.950 . S
C1455 C1453 1.387 . S
C1455 C1457 1.390 . S
C1455 H1459 0.950 . S
H1456 C1452 0.950 . S
C1457 C1455 1.390 . S
C1457 C1458 1.387 . S
C1457 H1460 0.950 . S
C1458 C1457 1.387 . S
C1458 C1461 1.387 . S
H1459 C1455 0.950 . S
H1460 C1457 0.950 . S
C1461 C1452 1.390 . S
C1461 H1454 0.950 . S
C1461 C1458 1.387 . S
C1462 C1463 1.387 . S
C1462 H1466 0.950 . S
C1462 C1471 1.390 . S
C1463 C1462 1.387 . S
C1463 C1465 1.387 . S
H1464 C1471 0.950 . S
C1465 C1463 1.387 . S
C1465 C1467 1.390 . S
C1465 H1469 0.950 . S
H1466 C1462 0.950 . S
C1467 C1465 1.390 . S
C1467 C1468 1.387 . S
C1467 H1470 0.950 . S
C1468 C1467 1.387 . S
C1468 C1471 1.387 . S
H1469 C1465 0.950 . S
H1470 C1467 0.950 . S
C1471 C1462 1.390 . S
C1471 H1464 0.950 . S
C1471 C1468 1.387 . S
C1472 C1473 1.387 . S
C1472 H1476 0.950 . S
C1472 C1481 1.390 . S
C1473 C1472 1.387 . S
C1473 C1475 1.387 . S
H1474 C1481 0.950 . S
C1475 C1473 1.387 . S
C1475 C1477 1.390 . S
C1475 H1479 0.950 . S
H1476 C1472 0.950 . S
C1477 C1475 1.390 . S
C1477 C1478 1.387 . S
C1477 H1480 0.950 . S
C1478 C1477 1.387 . S
C1478 C1481 1.387 . S
H1479 C1475 0.950 . S
H1480 C1477 0.950 . S
C1481 C1472 1.390 . S
C1481 H1474 0.950 . S
C1481 C1478 1.387 . S
C1482 C1483 1.387 . S
C1482 H1486 0.950 . S
C1482 C1491 1.390 . S
C1483 C1482 1.387 . S
C1483 C1485 1.387 . S
H1484 C1491 0.950 . S
C1485 C1483 1.387 . S
C1485 C1487 1.390 . S
C1485 H1489 0.950 . S
H1486 C1482 0.950 . S
C1487 C1485 1.390 . S
C1487 C1488 1.387 . S
C1487 H1490 0.950 . S
C1488 C1487 1.387 . S
C1488 C1491 1.387 . S
H1489 C1485 0.950 . S
H1490 C1487 0.950 . S
C1491 C1482 1.390 . S
C1491 H1484 0.950 . S
C1491 C1488 1.387 . S
C1492 C1493 1.387 . S
C1492 H1496 0.950 . S
C1492 C1501 1.390 . S
C1493 C1492 1.387 . S
C1493 C1495 1.387 . S
H1494 C1501 0.950 . S
C1495 C1493 1.387 . S
C1495 C1497 1.390 . S
C1495 H1499 0.950 . S
H1496 C1492 0.950 . S
C1497 C1495 1.390 . S
C1497 C1498 1.387 . S
C1497 H1500 0.950 . S
C1498 C1497 1.387 . S
C1498 C1501 1.387 . S
H1499 C1495 0.950 . S
H1500 C1497 0.950 . S
C1501 C1492 1.390 . S
C1501 H1494 0.950 . S
C1501 C1498 1.387 . S
C1502 C1503 1.387 . S
C1502 H1506 0.950 . S
C1502 C1511 1.390 . S
C1503 C1502 1.387 . S
C1503 C1505 1.387 . S
H1504 C1511 0.950 . S
C1505 C1503 1.387 . S
C1505 C1507 1.390 . S
C1505 H1509 0.950 . S
H1506 C1502 0.950 . S
C1507 C1505 1.390 . S
C1507 C1508 1.387 . S
C1507 H1510 0.950 . S
C1508 C1507 1.387 . S
C1508 C1511 1.387 . S
H1509 C1505 0.950 . S
H1510 C1507 0.950 . S
C1511 C1502 1.390 . S
C1511 H1504 0.950 . S
C1511 C1508 1.387 . S
C1512 C1513 1.387 . S
C1512 H1516 0.950 . S
C1512 C1521 1.390 . S
C1513 C1512 1.387 . S
C1513 C1515 1.387 . S
H1514 C1521 0.950 . S
C1515 C1513 1.387 . S
C1515 C1517 1.390 . S
C1515 H1519 0.950 . S
H1516 C1512 0.950 . S
C1517 C1515 1.390 . S
C1517 C1518 1.387 . S
C1517 H1520 0.950 . S
C1518 C1517 1.387 . S
C1518 C1521 1.387 . S
H1519 C1515 0.950 . S
H1520 C1517 0.950 . S
C1521 C1512 1.390 . S
C1521 H1514 0.950 . S
C1521 C1518 1.387 . S
C1522 C1523 1.387 . S
C1522 H1526 0.950 . S
C1522 C1531 1.390 . S
C1523 C1522 1.387 . S
C1523 C1525 1.387 . S
H1524 C1531 0.950 . S
C1525 C1523 1.387 . S
C1525 C1527 1.390 . S
C1525 H1529 0.950 . S
H1526 C1522 0.950 . S
C1527 C1525 1.390 . S
C1527 C1528 1.387 . S
C1527 H1530 0.950 . S
C1528 C1527 1.387 . S
C1528 C1531 1.387 . S
H1529 C1525 0.950 . S
H1530 C1527 0.950 . S
C1531 C1522 1.390 . S
C1531 H1524 0.950 . S
C1531 C1528 1.387 . S
C1532 C1533 1.387 . S
C1532 H1536 0.950 . S
C1532 C1541 1.390 . S
C1533 C1532 1.387 . S
C1533 C1535 1.387 . S
H1534 C1541 0.950 . S
C1535 C1533 1.387 . S
C1535 C1537 1.390 . S
C1535 H1539 0.950 . S
H1536 C1532 0.950 . S
C1537 C1535 1.390 . S
C1537 C1538 1.387 . S
C1537 H1540 0.950 . S
C1538 C1537 1.387 . S
C1538 C1541 1.387 . S
H1539 C1535 0.950 . S
H1540 C1537 0.950 . S
C1541 C1532 1.390 . S
C1541 H1534 0.950 . S
C1541 C1538 1.387 . S
C1542 C1543 1.387 . S
C1542 H1546 0.950 . S
C1542 C1551 1.390 . S
C1543 C1542 1.387 . S
C1543 C1545 1.387 . S
H1544 C1551 0.950 . S
C1545 C1543 1.387 . S
C1545 C1547 1.390 . S
C1545 H1549 0.950 . S
H1546 C1542 0.950 . S
C1547 C1545 1.390 . S
C1547 C1548 1.387 . S
C1547 H1550 0.950 . S
C1548 C1547 1.387 . S
C1548 C1551 1.387 . S
H1549 C1545 0.950 . S
H1550 C1547 0.950 . S
C1551 C1542 1.390 . S
C1551 H1544 0.950 . S
C1551 C1548 1.387 . S
C1552 C1553 1.387 . S
C1552 H1556 0.950 . S
C1552 C1561 1.390 . S
C1553 C1552 1.387 . S
C1553 C1555 1.387 . S
H1554 C1561 0.950 . S
C1555 C1553 1.387 . S
C1555 C1557 1.390 . S
C1555 H1559 0.950 . S
H1556 C1552 0.950 . S
C1557 C1555 1.390 . S
C1557 C1558 1.387 . S
C1557 H1560 0.950 . S
C1558 C1557 1.387 . S
C1558 C1561 1.387 . S
H1559 C1555 0.950 . S
H1560 C1557 0.950 . S
C1561 C1552 1.390 . S
C1561 H1554 0.950 . S
C1561 C1558 1.387 . S
C1562 C1563 1.387 . S
C1562 H1566 0.950 . S
C1562 C1571 1.390 . S
C1563 C1562 1.387 . S
C1563 C1565 1.387 . S
H1564 C1571 0.950 . S
C1565 C1563 1.387 . S
C1565 C1567 1.390 . S
C1565 H1569 0.950 . S
H1566 C1562 0.950 . S
C1567 C1565 1.390 . S
C1567 C1568 1.387 . S
C1567 H1570 0.950 . S
C1568 C1567 1.387 . S
C1568 C1571 1.387 . S
H1569 C1565 0.950 . S
H1570 C1567 0.950 . S
C1571 C1562 1.390 . S
C1571 H1564 0.950 . S
C1571 C1568 1.387 . S
C1572 C1573 1.387 . S
C1572 H1576 0.950 . S
C1572 C1581 1.390 . S
C1573 C1572 1.387 . S
C1573 C1575 1.387 . S
H1574 C1581 0.950 . S
C1575 C1573 1.387 . S
C1575 C1577 1.390 . S
C1575 H1579 0.950 . S
H1576 C1572 0.950 . S
C1577 C1575 1.390 . S
C1577 C1578 1.387 . S
C1577 H1580 0.950 . S
C1578 C1577 1.387 . S
C1578 C1581 1.387 . S
H1579 C1575 0.950 . S
H1580 C1577 0.950 . S
C1581 C1572 1.390 . S
C1581 H1574 0.950 . S
C1581 C1578 1.387 . S
C1582 C1583 1.387 . S
C1582 H1586 0.950 . S
C1582 C1591 1.390 . S
C1583 C1582 1.387 . S
C1583 C1585 1.387 . S
H1584 C1591 0.950 . S
C1585 C1583 1.387 . S
C1585 C1587 1.390 . S
C1585 H1589 0.950 . S
H1586 C1582 0.950 . S
C1587 C1585 1.390 . S
C1587 C1588 1.387 . S
C1587 H1590 0.950 . S
C1588 C1587 1.387 . S
C1588 C1591 1.387 . S
H1589 C1585 0.950 . S
H1590 C1587 0.950 . S
C1591 C1582 1.390 . S
C1591 H1584 0.950 . S
C1591 C1588 1.387 . S
C1592 C1593 1.387 . S
C1592 H1596 0.950 . S
C1592 C1601 1.390 . S
C1593 C1592 1.387 . S
C1593 C1595 1.387 . S
H1594 C1601 0.950 . S
C1595 C1593 1.387 . S
C1595 C1597 1.390 . S
C1595 H1599 0.950 . S
H1596 C1592 0.950 . S
C1597 C1595 1.390 . S
C1597 C1598 1.387 . S
C1597 H1600 0.950 . S
C1598 C1597 1.387 . S
C1598 C1601 1.387 . S
H1599 C1595 0.950 . S
H1600 C1597 0.950 . S
C1601 C1592 1.390 . S
C1601 H1594 0.950 . S
C1601 C1598 1.387 . S
C1602 C1603 1.387 . S
C1602 H1606 0.950 . S
C1602 C1611 1.390 . S
C1603 C1602 1.387 . S
C1603 C1605 1.387 . S
H1604 C1611 0.950 . S
C1605 C1603 1.387 . S
C1605 C1607 1.390 . S
C1605 H1609 0.950 . S
H1606 C1602 0.950 . S
C1607 C1605 1.390 . S
C1607 C1608 1.387 . S
C1607 H1610 0.950 . S
C1608 C1607 1.387 . S
C1608 C1611 1.387 . S
H1609 C1605 0.950 . S
H1610 C1607 0.950 . S
C1611 C1602 1.390 . S
C1611 H1604 0.950 . S
C1611 C1608 1.387 . S
C1612 C1613 1.387 . S
C1612 H1616 0.950 . S
C1612 C1621 1.390 . S
C1613 C1612 1.387 . S
C1613 C1615 1.387 . S
H1614 C1621 0.950 . S
C1615 C1613 1.387 . S
C1615 C1617 1.390 . S
C1615 H1619 0.950 . S
H1616 C1612 0.950 . S
C1617 C1615 1.390 . S
C1617 C1618 1.387 . S
C1617 H1620 0.950 . S
C1618 C1617 1.387 . S
C1618 C1621 1.387 . S
H1619 C1615 0.950 . S
H1620 C1617 0.950 . S
C1621 C1612 1.390 . S
C1621 H1614 0.950 . S
C1621 C1618 1.387 . S
C1622 C1623 1.387 . S
C1622 H1626 0.950 . S
C1622 C1631 1.390 . S
C1623 C1622 1.387 . S
C1623 C1625 1.387 . S
H1624 C1631 0.950 . S
C1625 C1623 1.387 . S
C1625 C1627 1.390 . S
C1625 H1629 0.950 . S
H1626 C1622 0.950 . S
C1627 C1625 1.390 . S
C1627 C1628 1.387 . S
C1627 H1630 0.950 . S
C1628 C1627 1.387 . S
C1628 C1631 1.387 . S
H1629 C1625 0.950 . S
H1630 C1627 0.950 . S
C1631 C1622 1.390 . S
C1631 H1624 0.950 . S
C1631 C1628 1.387 . S
C673 C132 1.732 . S
C678 C6 1.733 . S
C683 C146 1.731 . S
C688 C20 1.733 . S
C693 C160 1.733 . S
C698 C34 1.732 . S
C703 C118 1.733 . S
C708 C48 1.733 . S
C713 C62 1.731 . S
C718 C216 1.732 . S
C723 C76 1.731 . S
C728 C174 1.732 . S
C733 C90 1.731 . S
C738 C188 1.732 . S
C743 C202 1.731 . S
C748 C104 1.732 . S
C753 C230 1.731 . S
C758 C258 1.732 . S
C763 C244 1.731 . S
C768 C650 1.732 . S
C773 C272 1.731 . S
C778 C664 1.732 . S
C783 C286 1.733 . S
C788 C636 1.732 . S
C793 C300 1.731 . S
C798 C622 1.732 . S
C803 C580 1.732 . S
C808 C314 1.731 . S
C813 C328 1.731 . S
C818 C608 1.732 . S
C823 C468 1.733 . S
C828 C342 1.733 . S
C833 C482 1.731 . S
C838 C356 1.732 . S
C843 C496 1.731 . S
C848 C370 1.730 . S
C853 C454 1.731 . S
C858 C384 1.730 . S
C863 C552 1.733 . S
C868 C398 1.732 . S
C873 C510 1.730 . S
C878 C412 1.731 . S
C883 C426 1.730 . S
C888 C524 1.731 . S
C893 C440 1.731 . S
C898 C538 1.732 . S
C903 C566 1.732 . S
C908 C594 1.731 . S
C913 C232 1.394 . S
C918 C9 1.288 . S
C923 C666 1.390 . S
C928 C23 1.283 . S
C933 C37 1.286 . S
C938 C302 1.392 . S
C943 C652 1.393 . S
C948 C51 1.286 1_556 S
C953 C65 1.285 . S
C958 C582 1.392 . S
C963 C596 1.391 . S
C968 C79 1.284 . S
C973 C93 1.288 . S
C978 C610 1.394 . S
C983 C288 1.391 . S
C988 C107 1.284 1_554 S
C993 C121 1.283 . S
C998 C8 1.390 . S
C1003 C22 1.392 . S
C1008 C135 1.285 1_565 S
C1013 C149 1.289 . S
C1018 C36 1.395 . S
C1023 C50 1.392 . S
C1028 C163 1.285 1_545 S
C1033 C177 1.283 . S
C1038 C64 1.390 . S
C1043 C78 1.393 . S
C1048 C191 1.287 1_565 S
C1053 C205 1.283 . S
C1058 C92 1.390 . S
C1063 C219 1.284 1_545 S
C1068 C106 1.391 . S
C1073 C233 1.288 . S
C1078 C120 1.394 . S
C1083 C247 1.286 . S
C1088 C512 1.393 . S
C1093 C526 1.390 . S
C1098 C261 1.283 1_655 S
C1103 C540 1.392 . S
C1108 C275 1.286 . S
C1113 C218 1.390 . S
C1118 C289 1.283 1_455 S
C1123 C303 1.289 . S
C1128 C148 1.395 . S
C1133 C498 1.395 . S
C1138 C317 1.289 1_655 S
C1143 C331 1.283 . S
C1148 C470 1.390 . S
C1153 C345 1.288 . S
C1158 C568 1.394 . S
C1163 C359 1.284 1_556 S
C1168 C330 1.391 . S
C1173 C373 1.285 . S
C1178 C638 1.392 . S
C1183 C387 1.288 . S
C1188 C316 1.394 . S
C1193 C401 1.289 . S
C1198 C246 1.394 . S
C1203 C415 1.283 1_554 S
C1208 C260 1.391 . S
C1213 C274 1.392 . S
C1218 C429 1.286 . S
C1223 C624 1.394 . S
C1228 C443 1.288 . S
C1233 C344 1.390 . S
C1238 C457 1.283 . S
C1243 C358 1.390 . S
C1248 C471 1.283 . S
C1253 C485 1.283 . S
C1258 C372 1.390 . S
C1263 C386 1.390 . S
C1268 C499 1.283 . S
C1273 C513 1.289 . S
C1278 C400 1.395 . S
C1283 C527 1.287 . S
C1288 C414 1.393 . S
C1293 C541 1.283 . S
C1298 C428 1.390 . S
C1303 C442 1.393 . S
C1308 C555 1.287 . S
C1313 C569 1.289 . S
C1318 C456 1.395 . S
C1323 C583 1.287 . S
C1328 C176 1.393 . S
C1333 C190 1.390 . S
C1338 C597 1.283 . S
C1343 C611 1.283 . S
C1348 C204 1.390 . S
C1353 C625 1.289 . S
C1358 C554 1.395 . S
C1363 C484 1.393 . S
C1368 C639 1.286 . S
C1373 C162 1.394 . S
C1378 C653 1.289 . S
C1383 C134 1.390 . S
C1388 C667 1.283 1_455 S
C1393 C315 1.493 . S
C1398 C7 1.492 . S
C1403 C21 1.492 . S
C1408 C567 1.492 . S
C1413 C35 1.493 . S
C1418 C329 1.494 . S
C1423 C637 1.494 . S
C1428 C49 1.494 . S
C1433 C63 1.492 . S
C1438 C259 1.493 . S
C1443 C273 1.493 . S
C1448 C77 1.492 . S
C1453 C623 1.493 . S
C1458 C91 1.492 . S
C1463 C105 1.494 . S
C1468 C245 1.494 . S
C1473 C189 1.492 . S
C1478 C119 1.492 . S
C1483 C133 1.492 . S
C1488 C203 1.493 . S
C1493 C217 1.492 . S
C1498 C147 1.492 . S
C1503 C161 1.492 . S
C1508 C175 1.493 . S
C1513 C357 1.492 . S
C1518 C231 1.492 . S
C1523 C287 1.492 . S
C1528 C427 1.492 . S
C1533 C301 1.494 . S
C1538 C385 1.493 . S
C1543 C651 1.492 . S
C1548 C343 1.492 . S
C1553 C371 1.492 . S
C1558 C665 1.492 . S
C1563 C399 1.492 . S
C1568 C595 1.492 . S
C1573 C413 1.493 . S
C1578 C609 1.492 . S
C1583 C581 1.492 . S
C1588 C441 1.492 . S
C1593 C525 1.494 . S
C1598 C455 1.493 . S
C1603 C469 1.494 . S
C1608 C539 1.494 . S
C1613 C483 1.492 . S
C1618 C553 1.492 . S
C1623 C511 1.492 . S
C1628 C497 1.492 . S
