# Generated by pormake.
# Topology ske, (6)-cn, num edge types: 1
# Building blocks:
#     Node 0, Type 0, BuildingBlock: BETDIP_clean_sbu_0, # of connection points: 6
#     Node 1, Type 0, BuildingBlock: BETDIP_clean_sbu_0, # of connection points: 6
#     Node 2, Type 0, BuildingBlock: BETDIP_clean_sbu_0, # of connection points: 6
#     Node 3, Type 0, BuildingBlock: BETDIP_clean_sbu_0, # of connection points: 6
#     Node 4, Type 0, BuildingBlock: BETDIP_clean_sbu_0, # of connection points: 6
#     Node 5, Type 0, BuildingBlock: BETDIP_clean_sbu_0, # of connection points: 6
#     Node 6, Type 0, BuildingBlock: BETDIP_clean_sbu_0, # of connection points: 6
#     Node 7, Type 0, BuildingBlock: BETDIP_clean_sbu_0, # of connection points: 6
#     Edge 8, Type (0, 0), BuildingBlock: XIVTED_clean_linker_0, # of connection points: 2
#     Edge 9, Type (0, 0), BuildingBlock: XIVTED_clean_linker_0, # of connection points: 2
#     Edge 10, Type (0, 0), BuildingBlock: XIVTED_clean_linker_0, # of connection points: 2
#     Edge 11, Type (0, 0), BuildingBlock: XIVTED_clean_linker_0, # of connection points: 2
#     Edge 12, Type (0, 0), BuildingBlock: XIVTED_clean_linker_0, # of connection points: 2
#     Edge 13, Type (0, 0), BuildingBlock: XIVTED_clean_linker_0, # of connection points: 2
#     Edge 14, Type (0, 0), BuildingBlock: XIVTED_clean_linker_0, # of connection points: 2
#     Edge 15, Type (0, 0), BuildingBlock: XIVTED_clean_linker_0, # of connection points: 2
#     Edge 16, Type (0, 0), BuildingBlock: XIVTED_clean_linker_0, # of connection points: 2
#     Edge 17, Type (0, 0), BuildingBlock: XIVTED_clean_linker_0, # of connection points: 2
#     Edge 18, Type (0, 0), BuildingBlock: XIVTED_clean_linker_0, # of connection points: 2
#     Edge 19, Type (0, 0), BuildingBlock: XIVTED_clean_linker_0, # of connection points: 2
#     Edge 20, Type (0, 0), BuildingBlock: XIVTED_clean_linker_0, # of connection points: 2
#     Edge 21, Type (0, 0), BuildingBlock: XIVTED_clean_linker_0, # of connection points: 2
#     Edge 22, Type (0, 0), BuildingBlock: XIVTED_clean_linker_0, # of connection points: 2
#     Edge 23, Type (0, 0), BuildingBlock: XIVTED_clean_linker_0, # of connection points: 2
#     Edge 24, Type (0, 0), BuildingBlock: XIVTED_clean_linker_0, # of connection points: 2
#     Edge 25, Type (0, 0), BuildingBlock: XIVTED_clean_linker_0, # of connection points: 2
#     Edge 26, Type (0, 0), BuildingBlock: XIVTED_clean_linker_0, # of connection points: 2
#     Edge 27, Type (0, 0), BuildingBlock: XIVTED_clean_linker_0, # of connection points: 2
#     Edge 28, Type (0, 0), BuildingBlock: XIVTED_clean_linker_0, # of connection points: 2
#     Edge 29, Type (0, 0), BuildingBlock: XIVTED_clean_linker_0, # of connection points: 2
#     Edge 30, Type (0, 0), BuildingBlock: XIVTED_clean_linker_0, # of connection points: 2
#     Edge 31, Type (0, 0), BuildingBlock: XIVTED_clean_linker_0, # of connection points: 2
# Relax obj value: 0.222
# Max RMSD: 0.215
# Mean RMSD: 0.208
data_MOF--net-ske--node1-BETDIP_clean_sbu_0--edge1-XIVTED_clean_linker_0
_symmetry_space_group_name_H-M    P1
_symmetry_Int_Tables_number       1
_symmetry_cell_setting            triclinic
loop_
_symmetry_equiv_pos_as_xyz
'x, y, z'
_cell_length_a     101.77921
_cell_length_b     29.111019
_cell_length_c     15.552707
_cell_angle_alpha  90.225923
_cell_angle_beta   90.188769
_cell_angle_gamma 89.860436
loop_
_atom_site_label
_atom_site_type_symbol
_atom_site_fract_x
_atom_site_fract_y
_atom_site_fract_z
_atom_type_partial_charge
Tb0 Tb 0.16374 0.26519 0.50678 0.0
Tb1 Tb 0.13491 0.26022 0.51394 0.0
C2 C 0.18766 0.28701 0.52059 0.0
C3 C 0.19993 0.27751 0.5694 0.0
C4 C 0.2031 0.30255 0.64415 0.0
C5 C 0.21555 0.29836 0.68217 0.0
C6 C 0.22515 0.26937 0.64587 0.0
C7 C 0.2218 0.24319 0.57291 0.0
C8 C 0.20937 0.24733 0.53503 0.0
C9 C 0.15437 0.1812 0.48602 0.0
C10 C 0.14926 0.25545 0.68931 0.0
C11 C 0.11064 0.24947 0.49584 0.0
C12 C 0.09623 0.24562 0.48402 0.0
C13 C 0.08957 0.20437 0.50029 0.0
C14 C 0.07583 0.2022 0.49282 0.0
C15 C 0.06849 0.24127 0.46896 0.0
C16 C 0.07526 0.28229 0.45198 0.0
C17 C 0.08892 0.2844 0.45925 0.0
C18 C 0.14502 0.343 0.53809 0.0
C19 C 0.14916 0.26554 0.33509 0.0
O20 O 0.17811 0.30908 0.55929 0.0
O21 O 0.18328 0.2545 0.46992 0.0
O22 O 0.15014 0.21113 0.53753 0.0
O23 O 0.16482 0.19667 0.44942 0.0
O24 O 0.16019 0.26522 0.64674 0.0
O25 O 0.13808 0.24713 0.649 0.0
O26 O 0.11828 0.21636 0.52374 0.0
O27 O 0.11679 0.28742 0.47698 0.0
O28 O 0.14858 0.31383 0.48301 0.0
O29 O 0.13533 0.32631 0.5813 0.0
O30 O 0.13947 0.24623 0.37821 0.0
O31 O 0.15892 0.28541 0.37668 0.0
H32 H 0.19614 0.32663 0.67162 0.0
H33 H 0.21783 0.31936 0.73785 0.0
H34 H 0.22886 0.22 0.54399 0.0
H35 H 0.20734 0.22791 0.47696 0.0
H36 H 0.09494 0.17392 0.51952 0.0
H37 H 0.07098 0.16989 0.50558 0.0
H38 H 0.06998 0.31334 0.43513 0.0
H39 H 0.09372 0.31686 0.44682 0.0
Tb40 Tb 0.8772 0.2387 0.53472 0.0
Tb41 Tb 0.90696 0.26435 0.53634 0.0
C42 C 0.85576 0.19581 0.53083 0.0
C43 C 0.84223 0.20217 0.56362 0.0
C44 C 0.83614 0.16605 0.60747 0.0
C45 C 0.82322 0.1705 0.63699 0.0
C46 C 0.81604 0.21121 0.62294 0.0
C47 C 0.82223 0.24758 0.57957 0.0
C48 C 0.83519 0.24316 0.5504 0.0
C49 C 0.88049 0.33012 0.54015 0.0
C50 C 0.89046 0.25975 0.71245 0.0
C51 C 0.92975 0.29521 0.55945 0.0
C52 C 0.94331 0.2857 0.53075 0.0
C53 C 0.9521 0.32231 0.5211 0.0
C54 C 0.96537 0.31395 0.50346 0.0
C55 C 0.97013 0.2687 0.49573 0.0
C56 C 0.9612 0.23209 0.50273 0.0
C57 C 0.94791 0.2405 0.51971 0.0
C58 C 0.90153 0.17655 0.50415 0.0
C59 C 0.89254 0.25705 0.36092 0.0
O60 O 0.86494 0.18846 0.58843 0.0
O61 O 0.85965 0.22355 0.46987 0.0
O62 O 0.88885 0.29859 0.5363 0.0
O63 O 0.86919 0.3097 0.5433 0.0
O64 O 0.88026 0.24122 0.67255 0.0
O65 O 0.90092 0.27519 0.67068 0.0
O66 O 0.92153 0.3123 0.50274 0.0
O67 O 0.92434 0.26375 0.60777 0.0
O68 O 0.89549 0.203 0.55484 0.0
O69 O 0.91165 0.19838 0.47532 0.0
O70 O 0.90175 0.27968 0.4039 0.0
O71 O 0.8836 0.23165 0.40065 0.0
H72 H 0.84138 0.13417 0.61871 0.0
H73 H 0.81891 0.14206 0.67147 0.0
H74 H 0.817 0.27924 0.56666 0.0
H75 H 0.83963 0.2717 0.51686 0.0
H76 H 0.94877 0.35741 0.52977 0.0
H77 H 0.97199 0.34291 0.4992 0.0
H78 H 0.96452 0.19689 0.49595 0.0
H79 H 0.94131 0.21161 0.5264 0.0
Tb80 Tb 0.16183 0.75439 0.51253 0.0
Tb81 Tb 0.13288 0.76999 0.49866 0.0
C82 C 0.18515 0.72492 0.50414 0.0
C83 C 0.19738 0.72724 0.4529 0.0
C84 C 0.20415 0.68637 0.43426 0.0
C85 C 0.21658 0.68743 0.39613 0.0
C86 C 0.22261 0.7295 0.37596 0.0
C87 C 0.21563 0.77045 0.39237 0.0
C88 C 0.20315 0.76936 0.43034 0.0
C89 C 0.15431 0.84118 0.52672 0.0
C90 C 0.14867 0.76894 0.32885 0.0
C91 C 0.10943 0.79868 0.50346 0.0
C92 C 0.09616 0.79009 0.53854 0.0
C93 C 0.0883 0.82781 0.56146 0.0
C94 C 0.07494 0.82205 0.57959 0.0
C95 C 0.06909 0.77833 0.57494 0.0
C96 C 0.07716 0.74017 0.55641 0.0
C97 C 0.09055 0.74598 0.53824 0.0
C98 C 0.14044 0.68282 0.48897 0.0
C99 C 0.14627 0.75793 0.68307 0.0
O100 O 0.17509 0.70311 0.47102 0.0
O101 O 0.18163 0.76193 0.54607 0.0
O102 O 0.14965 0.81182 0.4758 0.0
O103 O 0.16426 0.82346 0.56638 0.0
O104 O 0.15845 0.75002 0.37269 0.0
O105 O 0.13869 0.78838 0.36914 0.0
O106 O 0.11865 0.81357 0.55541 0.0
O107 O 0.1139 0.76911 0.44728 0.0
O108 O 0.14504 0.7133 0.53729 0.0
O109 O 0.1303 0.69951 0.45003 0.0
O110 O 0.13638 0.77591 0.63852 0.0
O111 O 0.15638 0.7387 0.64375 0.0
H112 H 0.19999 0.65351 0.45189 0.0
H113 H 0.22168 0.65522 0.38552 0.0
H114 H 0.21987 0.80344 0.37658 0.0
H115 H 0.19818 0.8015 0.44396 0.0
H116 H 0.09238 0.86217 0.56182 0.0
H117 H 0.06912 0.85211 0.59525 0.0
H118 H 0.07301 0.70603 0.55174 0.0
H119 H 0.09636 0.71624 0.52038 0.0
Tb120 Tb 0.87952 0.7659 0.52193 0.0
Tb121 Tb 0.90746 0.74026 0.51081 0.0
C122 C 0.85712 0.8031 0.51034 0.0
C123 C 0.84443 0.79787 0.46487 0.0
C124 C 0.83669 0.83697 0.45032 0.0
C125 C 0.824 0.83287 0.41626 0.0
C126 C 0.81873 0.78945 0.39615 0.0
C127 C 0.82671 0.75034 0.40809 0.0
C128 C 0.83944 0.75451 0.44218 0.0
C129 C 0.88379 0.67617 0.54 0.0
C130 C 0.892 0.74457 0.33973 0.0
C131 C 0.93017 0.70474 0.51975 0.0
C132 C 0.94377 0.71541 0.54626 0.0
C133 C 0.95292 0.67949 0.55161 0.0
C134 C 0.96624 0.68865 0.56625 0.0
C135 C 0.97073 0.7341 0.57593 0.0
C136 C 0.96141 0.77003 0.57325 0.0
C137 C 0.94806 0.76078 0.55842 0.0
C138 C 0.90288 0.83035 0.49719 0.0
C139 C 0.89457 0.75758 0.6931 0.0
O140 O 0.86728 0.81606 0.46529 0.0
O141 O 0.86016 0.77119 0.56575 0.0
O142 O 0.88974 0.70241 0.48894 0.0
O143 O 0.87436 0.69915 0.57506 0.0
O144 O 0.88302 0.76803 0.38269 0.0
O145 O 0.90125 0.72168 0.38125 0.0
O146 O 0.9213 0.70059 0.57977 0.0
O147 O 0.92568 0.72721 0.45348 0.0
O148 O 0.89721 0.80273 0.54633 0.0
O149 O 0.91242 0.80862 0.46089 0.0
O150 O 0.90336 0.73364 0.64906 0.0
O151 O 0.8856 0.78227 0.65255 0.0
H152 H 0.84035 0.87075 0.46729 0.0
H153 H 0.81828 0.86382 0.40636 0.0
H154 H 0.82298 0.71634 0.3939 0.0
H155 H 0.84523 0.72378 0.45299 0.0
H156 H 0.94983 0.64427 0.54159 0.0
H157 H 0.97307 0.66008 0.56654 0.0
H158 H 0.96444 0.80539 0.58164 0.0
H159 H 0.94114 0.78906 0.55432 0.0
Tb160 Tb 0.66449 0.75789 0.02824 0.0
Tb161 Tb 0.63527 0.75435 0.03385 0.0
C162 C 0.68835 0.78019 0.04328 0.0
C163 C 0.70019 0.77711 0.09897 0.0
C164 C 0.70612 0.8178 0.12815 0.0
C165 C 0.71835 0.81677 0.16959 0.0
C166 C 0.72502 0.77494 0.18254 0.0
C167 C 0.71886 0.73399 0.15583 0.0
C168 C 0.7066 0.73504 0.11447 0.0
C169 C 0.6546 0.67495 1.00673 0.0
C170 C 0.64963 0.74995 0.20978 0.0
C171 C 0.61099 0.7432 1.01618 0.0
C172 C 0.59657 0.73848 1.0044 0.0
C173 C 0.58994 0.69841 0.02931 0.0
C174 C 0.5762 0.69566 0.02275 0.0
C175 C 0.56879 0.73291 0.99095 0.0
C176 C 0.57552 0.77264 0.96489 0.0
C177 C 0.5892 0.77537 0.97152 0.0
C178 C 0.64589 0.83645 0.05534 0.0
C179 C 0.64997 0.75729 0.85522 0.0
O180 O 0.6786 0.80616 0.06921 0.0
O181 O 0.6843 0.74273 1.00494 0.0
O182 O 0.65046 0.70517 0.05813 0.0
O183 O 0.66522 0.6895 0.97054 0.0
O184 O 0.66068 0.75856 0.16768 0.0
O185 O 0.63841 0.74241 0.16933 0.0
O186 O 0.61871 0.71045 0.04468 0.0
O187 O 0.61707 0.78118 0.99637 0.0
O188 O 0.64937 0.80619 1.00227 0.0
O189 O 0.63586 0.82154 0.09764 0.0
O190 O 0.63991 0.7402 0.89821 0.0
O191 O 0.66007 0.77545 0.89627 0.0
H192 H 0.70152 0.85076 0.11595 0.0
H193 H 0.72282 0.84906 0.18814 0.0
H194 H 0.72361 0.7011 0.16581 0.0
H195 H 0.70234 0.703 0.09251 0.0
H196 H 0.59535 0.66941 0.05497 0.0
H197 H 0.57139 0.66432 0.04256 0.0
H198 H 0.57019 0.80231 0.94144 0.0
H199 H 0.59397 0.80687 0.95213 0.0
Tb200 Tb 0.37792 0.74639 0.04287 0.0
Tb201 Tb 0.40637 0.7643 0.05778 0.0
C202 C 0.35475 0.7157 0.05132 0.0
C203 C 0.34235 0.71972 0.10044 0.0
C204 C 0.33556 0.67956 0.12213 0.0
C205 C 0.32295 0.6819 0.15765 0.0
C206 C 0.31678 0.72457 0.17202 0.0
C207 C 0.32383 0.76491 0.15342 0.0
C208 C 0.33647 0.76252 0.11793 0.0
C209 C 0.38449 0.83397 0.02632 0.0
C210 C 0.39059 0.76408 0.22691 0.0
C211 C 0.42979 0.79298 0.05199 0.0
C212 C 0.44315 0.77942 0.0244 0.0
C213 C 0.45155 0.81305 0.99129 0.0
C214 C 0.46484 0.80327 0.97662 0.0
C215 C 0.47005 0.75956 0.99518 0.0
C216 C 0.46147 0.72533 0.02528 0.0
C217 C 0.44816 0.73511 0.0396 0.0
C218 C 0.39978 0.67596 0.0678 0.0
C219 C 0.39331 0.75115 0.87326 0.0
O220 O 0.36482 0.69604 0.0888 0.0
O221 O 0.35822 0.75095 1.00494 0.0
O222 O 0.3894 0.80596 0.07875 0.0
O223 O 0.37485 0.81439 0.98658 0.0
O224 O 0.38116 0.74328 0.18292 0.0
O225 O 0.40032 0.78448 0.18636 0.0
O226 O 0.42101 0.80193 0.99274 0.0
O227 O 0.4248 0.77034 0.11628 0.0
O228 O 0.39494 0.70552 1.01867 0.0
O229 O 0.40954 0.69454 0.10759 0.0
O230 O 0.40266 0.77182 0.91847 0.0
O231 O 0.38368 0.72938 0.91251 0.0
H232 H 0.33985 0.64616 0.10913 0.0
H233 H 0.31797 0.65013 0.17272 0.0
H234 H 0.31939 0.79837 0.16304 0.0
H235 H 0.34145 0.79414 0.10167 0.0
H236 H 0.44795 0.84756 0.97984 0.0
H237 H 0.47114 0.83064 0.95431 0.0
H238 H 0.4651 0.69112 0.03902 0.0
H239 H 0.44189 0.70845 0.06511 0.0
Tb240 Tb 0.66453 0.2536 0.02184 0.0
Tb241 Tb 0.63544 0.25698 1.01251 0.0
C242 C 0.68849 0.23224 1.00828 0.0
C243 C 0.70019 0.23721 0.9524 0.0
C244 C 0.70165 0.21153 0.87619 0.0
C245 C 0.71354 0.21216 0.83087 0.0
C246 C 0.72425 0.23838 0.86079 0.0
C247 C 0.7226 0.26506 0.9356 0.0
C248 C 0.71075 0.26434 0.98087 0.0
C249 C 0.65451 0.33662 0.04157 0.0
C250 C 0.65002 0.26096 0.83831 0.0
C251 C 0.61117 0.26819 0.02919 0.0
C252 C 0.59676 0.27289 0.04057 0.0
C253 C 0.59002 0.31263 1.01424 0.0
C254 C 0.57631 0.3156 0.02214 0.0
C255 C 0.56907 0.27892 0.05683 0.0
C256 C 0.5759 0.23944 0.08381 0.0
C257 C 0.58954 0.23648 0.0758 0.0
C258 C 0.64615 0.17479 0.99267 0.0
C259 C 0.64979 0.25428 0.19295 0.0
O260 O 0.67884 0.20605 0.98165 0.0
O261 O 0.68427 0.26913 0.04782 0.0
O262 O 0.65052 0.30637 0.98964 0.0
O263 O 0.66502 0.32199 0.07963 0.0
O264 O 0.66099 0.25258 0.882 0.0
O265 O 0.6387 0.2685 0.8772 0.0
O266 O 0.61881 0.30074 0.99991 0.0
O267 O 0.6173 0.23029 0.04965 0.0
O268 O 0.6495 0.20503 0.04619 0.0
O269 O 0.63621 0.18978 0.94894 0.0
O270 O 0.63985 0.27154 0.14846 0.0
O271 O 0.65997 0.2359 0.15331 0.0
H272 H 0.69374 0.19 0.85263 0.0
H273 H 0.71439 0.19163 0.77293 0.0
H274 H 0.73065 0.28512 0.96144 0.0
H275 H 0.71002 0.28392 0.04006 0.0
H276 H 0.59532 0.34125 0.98681 0.0
H277 H 0.5714 0.34669 1.00143 0.0
H278 H 0.57067 0.2102 0.10941 0.0
H279 H 0.59441 0.20525 0.09638 0.0
Tb280 Tb 0.37864 0.26449 1.01426 0.0
Tb281 Tb 0.40692 0.24627 0.9998 0.0
C282 C 0.35534 0.29421 1.00491 0.0
C283 C 0.34272 0.28524 0.95958 0.0
C284 C 0.3391 0.31092 0.88682 0.0
C285 C 0.32657 0.30614 0.85021 0.0
C286 C 0.31732 0.2759 0.88602 0.0
C287 C 0.32107 0.24949 0.95754 0.0
C288 C 0.33358 0.25419 0.99397 0.0
C289 C 0.3851 0.17656 0.03064 0.0
C290 C 0.39116 0.24694 0.83037 0.0
C291 C 0.43033 0.21725 1.00645 0.0
C292 C 0.44371 0.23183 0.03136 0.0
C293 C 0.45252 0.19889 0.06323 0.0
C294 C 0.46576 0.20977 0.0759 0.0
C295 C 0.47052 0.25389 0.05655 0.0
C296 C 0.46155 0.2874 0.02763 0.0
C297 C 0.44827 0.27651 1.01531 0.0
C298 C 0.40038 0.33484 0.98895 0.0
C299 C 0.39406 0.26 0.18373 0.0
O300 O 0.36509 0.31131 0.96079 0.0
O301 O 0.35932 0.26321 0.05965 0.0
O302 O 0.39001 0.20445 0.97845 0.0
O303 O 0.37548 0.19642 0.06978 0.0
O304 O 0.38184 0.26829 0.87427 0.0
O305 O 0.40082 0.22596 0.87123 0.0
O306 O 0.42177 0.2105 0.06747 0.0
O307 O 0.42513 0.23779 0.94014 0.0
O308 O 0.39558 0.30552 0.03831 0.0
O309 O 0.41012 0.31593 0.94952 0.0
O310 O 0.40318 0.23802 0.1388 0.0
O311 O 0.38465 0.28286 0.14375 0.0
H312 H 0.34581 0.33567 0.85951 0.0
H313 H 0.32397 0.3274 0.79572 0.0
H314 H 0.31428 0.22539 0.98606 0.0
H315 H 0.33595 0.23416 0.0505 0.0
H316 H 0.44924 0.16412 0.07533 0.0
H317 H 0.47238 0.18294 0.09731 0.0
H318 H 0.46484 0.32188 1.01329 0.0
H319 H 0.44166 0.30261 0.99075 0.0
H320 H 0.24832 0.26706 0.5563 0.0
H321 H 0.29423 0.26991 0.97594 0.0
H322 H 0.23322 0.26965 0.81524 0.0
H323 H 0.30919 0.27604 0.71694 0.0
H324 H 0.2719 0.26637 0.91838 0.0
H325 H 0.27065 0.26682 0.61402 0.0
C326 C 0.24968 0.26713 0.62539 0.0
C327 C 0.23881 0.26819 0.68092 0.0
C328 C 0.28005 0.26842 0.87407 0.0
C329 C 0.26449 0.26858 0.74764 0.0
C330 C 0.29284 0.27013 0.90688 0.0
C331 C 0.30366 0.27315 0.85126 0.0
C332 C 0.27799 0.26965 0.78478 0.0
C333 C 0.30118 0.2742 0.76236 0.0
C334 C 0.26246 0.26734 0.65831 0.0
C335 C 0.24126 0.26923 0.76989 0.0
N336 N 0.28863 0.2724 0.73197 0.0
N337 N 0.25381 0.26935 0.80041 0.0
H338 H 0.74186 0.30843 0.83321 0.0
H339 H 0.79673 0.14515 0.6232 0.0
H340 H 0.73658 0.16307 0.79009 0.0
H341 H 0.80351 0.28709 0.69118 0.0
H342 H 0.77424 0.15229 0.67571 0.0
H343 H 0.7639 0.30259 0.77207 0.0
C344 C 0.74531 0.27526 0.81087 0.0
C345 C 0.7373 0.23615 0.81736 0.0
C346 C 0.78064 0.18192 0.67902 0.0
C347 C 0.7626 0.22929 0.74654 0.0
C348 C 0.79354 0.1778 0.64953 0.0
C349 C 0.80215 0.21549 0.65305 0.0
C350 C 0.77619 0.22409 0.71228 0.0
C351 C 0.79726 0.25717 0.68618 0.0
C352 C 0.7579 0.272 0.77567 0.0
C353 C 0.74228 0.19429 0.78571 0.0
N354 N 0.78466 0.26029 0.71461 0.0
N355 N 0.7546 0.19196 0.75213 0.0
H356 H 0.3055 0.78572 0.28645 0.0
H357 H 0.23387 0.67162 0.25675 0.0
H358 H 0.29615 0.66875 0.12639 0.0
H359 H 0.24267 0.78927 0.41632 0.0
H360 H 0.25661 0.67103 0.20707 0.0
H361 H 0.28255 0.78876 0.33303 0.0
C362 C 0.29864 0.76075 0.26082 0.0
C363 C 0.30287 0.72677 0.20257 0.0
C364 C 0.25357 0.6971 0.25277 0.0
C365 C 0.2765 0.72993 0.25622 0.0
C366 C 0.24057 0.69734 0.2815 0.0
C367 C 0.23628 0.73045 0.34119 0.0
C368 C 0.26247 0.73013 0.28388 0.0
C369 C 0.24544 0.76337 0.36964 0.0
C370 C 0.28553 0.76241 0.28778 0.0
C371 C 0.29349 0.69507 0.1725 0.0
N372 N 0.25808 0.76225 0.34106 0.0
N373 N 0.28081 0.69745 0.19958 0.0
H374 H 0.73493 0.82757 0.31502 0.0
H375 H 0.80859 0.73106 0.27251 0.0
H376 H 0.74617 0.72169 0.13452 0.0
H377 H 0.79704 0.83763 0.45078 0.0
H378 H 0.78573 0.72504 0.22435 0.0
H379 H 0.75752 0.82989 0.36824 0.0
C380 C 0.74213 0.80477 0.28648 0.0
C381 C 0.73858 0.7745 0.2198 0.0
C382 C 0.7882 0.74974 0.27402 0.0
C383 C 0.76459 0.77683 0.28106 0.0
C384 C 0.80127 0.75307 0.30188 0.0
C385 C 0.80484 0.78511 0.36561 0.0
C386 C 0.77857 0.77856 0.31018 0.0
C387 C 0.79487 0.81301 0.40044 0.0
C388 C 0.75505 0.806 0.3172 0.0
C389 C 0.74836 0.74526 0.18658 0.0
N390 N 0.78225 0.8091 0.3723 0.0
N391 N 0.7609 0.7473 0.21721 0.0
H392 H 0.15848 0.90386 0.65363 0.0
H393 H 0.15683 0.11868 0.35751 0.0
H394 H 0.14406 0.89122 0.39367 0.0
H395 H 0.14523 0.13173 0.6228 0.0
H396 H 0.15421 0.03505 0.36775 0.0
H397 H 0.15576 0.98757 0.64456 0.0
C398 C 0.15464 0.91879 0.59496 0.0
C399 C 0.15153 0.89087 0.52419 0.0
C400 C 0.15206 0.05631 0.42328 0.0
C401 C 0.14868 0.98613 0.51282 0.0
C402 C 0.15358 0.10385 0.41757 0.0
C403 C 0.15124 0.13184 0.48941 0.0
C404 C 0.14858 0.03665 0.50219 0.0
C405 C 0.14707 0.11117 0.5659 0.0
C406 C 0.15304 0.96637 0.58999 0.0
C407 C 0.14655 0.91169 0.44964 0.0
N408 N 0.14612 0.0646 0.57087 0.0
N409 N 0.14552 0.95825 0.44524 0.0
H410 H 0.90262 0.38112 0.49935 0.0
H411 H 0.86779 0.61899 0.62736 0.0
H412 H 0.86272 0.39427 0.58806 0.0
H413 H 0.90149 0.61684 0.46008 0.0
H414 H 0.868 0.53552 0.63049 0.0
H415 H 0.90449 0.46586 0.49994 0.0
C416 C 0.89433 0.40175 0.51971 0.0
C417 C 0.88251 0.38064 0.54401 0.0
C418 C 0.87538 0.55304 0.59291 0.0
C419 C 0.88456 0.47708 0.54508 0.0
C420 C 0.87528 0.60091 0.59117 0.0
C421 C 0.88455 0.6251 0.54265 0.0
C422 C 0.8849 0.52847 0.54638 0.0
C423 C 0.89409 0.59953 0.49779 0.0
C424 C 0.89537 0.45002 0.51949 0.0
C425 C 0.87202 0.40898 0.5689 0.0
N426 N 0.89403 0.55251 0.50066 0.0
N427 N 0.87331 0.45542 0.56909 0.0
H428 H 0.88592 0.88452 0.59249 0.0
H429 H 0.91465 0.11899 0.39731 0.0
H430 H 0.91621 0.89193 0.40005 0.0
H431 H 0.88537 0.11838 0.59687 0.0
H432 H 0.91403 0.03537 0.39284 0.0
H433 H 0.88436 0.96908 0.59151 0.0
C434 C 0.89221 0.90391 0.54993 0.0
C435 C 0.90128 0.88115 0.49663 0.0
C436 C 0.90767 0.05326 0.43753 0.0
C437 C 0.89952 0.97772 0.49491 0.0
C438 C 0.90801 0.10119 0.43997 0.0
C439 C 0.90009 0.12581 0.49776 0.0
C440 C 0.89938 0.02918 0.49358 0.0
C441 C 0.89163 0.10076 0.55125 0.0
C442 C 0.89132 0.95213 0.54939 0.0
C443 C 0.90914 0.90794 0.44256 0.0
N444 N 0.89155 0.05379 0.54827 0.0
N445 N 0.9081 0.95454 0.44327 0.0
H446 H 0.15204 0.63722 0.6226 0.0
H447 H 0.15228 0.39151 0.39588 0.0
H448 H 0.13572 0.61643 0.36926 0.0
H449 H 0.14278 0.4074 0.66436 0.0
H450 H 0.15303 0.4756 0.38215 0.0
H451 H 0.15533 0.55377 0.63523 0.0
C452 C 0.14932 0.61511 0.5693 0.0
C453 C 0.1435 0.63342 0.49502 0.0
C454 C 0.15096 0.4605 0.44419 0.0
C455 C 0.1475 0.53876 0.50836 0.0
C456 C 0.15062 0.41272 0.45223 0.0
C457 C 0.1474 0.39277 0.53133 0.0
C458 C 0.14841 0.48826 0.51625 0.0
C459 C 0.14523 0.42165 0.60225 0.0
C460 C 0.15116 0.56769 0.57668 0.0
C461 C 0.14013 0.60343 0.4278 0.0
N462 N 0.1458 0.46806 0.59316 0.0
N463 N 0.14222 0.55748 0.43587 0.0
H464 H 0.65717 0.613 0.87736 0.0
H465 H 0.6565 0.39852 0.17144 0.0
H466 H 0.64402 0.62591 0.13953 0.0
H467 H 0.64452 0.38581 0.90635 0.0
H468 H 0.65321 0.48191 0.16276 0.0
H469 H 0.65384 0.52967 0.88525 0.0
C470 C 0.65341 0.59822 0.93618 0.0
C471 C 0.6509 0.62606 1.00799 0.0
C472 C 0.65109 0.46078 0.10696 0.0
C473 C 0.64739 0.53112 1.01813 0.0
C474 C 0.653 0.41336 0.11178 0.0
C475 C 0.6508 0.38556 0.03943 0.0
C476 C 0.64736 0.48056 0.02844 0.0
C477 C 0.64629 0.40623 0.96356 0.0
C478 C 0.65147 0.55084 0.94053 0.0
C479 C 0.64604 0.60547 0.08276 0.0
N480 N 0.64498 0.45273 0.95941 0.0
N481 N 0.64471 0.55899 0.08658 0.0
H482 H 0.38055 0.89211 0.89266 0.0
H483 H 0.38126 0.11855 0.16413 0.0
H484 H 0.39376 0.88927 0.15619 0.0
H485 H 0.39389 0.12086 0.89994 0.0
H486 H 0.3833 0.03447 0.16353 0.0
H487 H 0.3829 0.97608 0.89287 0.0
C488 C 0.38403 0.90924 0.95035 0.0
C489 C 0.38695 0.88394 0.02456 0.0
C490 C 0.38575 0.05345 0.10604 0.0
C491 C 0.38935 0.97967 0.0258 0.0
C492 C 0.38455 0.10126 0.1062 0.0
C493 C 0.3874 0.12646 0.03195 0.0
C494 C 0.38944 0.0306 0.03026 0.0
C495 C 0.39164 0.10258 0.95855 0.0
C496 C 0.38541 0.95699 0.95028 0.0
C497 C 0.39144 0.90763 0.09763 0.0
N498 N 0.39231 0.05581 0.959 0.0
N499 N 0.39229 0.95434 0.09697 0.0
H500 H 0.4054 0.40062 0.86958 0.0
H501 H 0.40448 0.61019 0.18772 0.0
H502 H 0.39156 0.38293 0.12898 0.0
H503 H 0.3915 0.62798 0.92583 0.0
H504 H 0.40308 0.52645 0.16847 0.0
H505 H 0.40365 0.48439 0.88814 0.0
C506 C 0.40195 0.41444 0.93022 0.0
C507 C 0.39861 0.38502 0.99783 0.0
C508 C 0.40044 0.54877 0.11556 0.0
C509 C 0.3969 0.48027 1.02005 0.0
C510 C 0.40127 0.59638 0.12638 0.0
C511 C 0.39808 0.62582 0.05831 0.0
C512 C 0.39679 0.53058 0.03529 0.0
C513 C 0.39398 0.60635 0.98001 0.0
C514 C 0.40091 0.46206 0.94062 0.0
C515 C 0.39417 0.40452 0.07519 0.0
N516 N 0.39365 0.55985 0.97011 0.0
N517 N 0.39364 0.451 0.08474 0.0
H518 H 0.65562 0.12975 0.13374 0.0
H519 H 0.65594 0.88127 0.9164 0.0
H520 H 0.6437 0.1082 0.87036 0.0
H521 H 0.64299 0.90311 0.17714 0.0
H522 H 0.65848 0.96472 0.89993 0.0
H523 H 0.65801 0.04623 0.1508 0.0
C524 C 0.65375 0.10746 0.07913 0.0
C525 C 0.64936 0.1256 1.00066 0.0
C526 C 0.65526 0.95104 0.96099 0.0
C527 C 0.65226 0.03076 1.01943 0.0
C528 C 0.65387 0.9036 0.97061 0.0
C529 C 0.64915 0.88557 0.04809 0.0
C530 C 0.65222 0.98033 0.03002 0.0
C531 C 0.64656 0.91587 0.11625 0.0
C532 C 0.65505 0.05998 0.08907 0.0
C533 C 0.64701 0.09535 0.932 0.0
N534 N 0.64814 0.96188 0.10572 0.0
N535 N 0.6485 0.0493 0.94289 0.0
H536 H 0.16831 0.29679 0.22713 0.0
H537 H 0.12957 0.22828 0.79715 0.0
H538 H 0.13036 0.23086 0.22595 0.0
H539 H 0.16928 0.28024 0.79889 0.0
H540 H 0.12957 0.23009 0.95389 0.0
H541 H 0.16862 0.29275 0.07038 0.0
C542 C 0.16002 0.28156 0.19397 0.0
C543 C 0.14927 0.26419 0.23992 0.0
C544 C 0.1383 0.24095 0.92009 0.0
C545 C 0.1496 0.25938 0.06003 0.0
C546 C 0.13833 0.23994 0.8304 0.0
C547 C 0.14945 0.25421 0.78453 0.0
C548 C 0.14946 0.2566 0.96462 0.0
C549 C 0.16049 0.26885 0.83142 0.0
C550 C 0.16023 0.27914 0.10435 0.0
C551 C 0.13884 0.24472 0.19329 0.0
N552 N 0.16019 0.26985 0.91886 0.0
N553 N 0.13926 0.24291 0.10595 0.0
H554 H 0.91012 0.29948 0.25315 0.0
H555 H 0.87146 0.22843 0.82242 0.0
H556 H 0.8744 0.21979 0.24998 0.0
H557 H 0.90913 0.29632 0.82155 0.0
H558 H 0.87184 0.22913 0.97925 0.0
H559 H 0.90945 0.30231 0.09589 0.0
C560 C 0.90213 0.28258 0.2196 0.0
C561 C 0.89232 0.25925 0.26532 0.0
C562 C 0.88002 0.24399 0.94486 0.0
C563 C 0.89148 0.26254 0.08473 0.0
C564 C 0.8798 0.24373 0.85499 0.0
C565 C 0.8903 0.26227 0.80812 0.0
C566 C 0.8908 0.26301 0.98888 0.0
C567 C 0.90082 0.28155 0.8546 0.0
C568 C 0.90176 0.28422 0.12965 0.0
C569 C 0.88221 0.23807 0.21788 0.0
N570 N 0.90081 0.28135 0.94221 0.0
N571 N 0.88206 0.24026 0.1305 0.0
H572 H 0.16716 0.73132 0.22109 0.0
H573 H 0.12782 0.79655 0.7903 0.0
H574 H 0.13046 0.80606 0.2193 0.0
H575 H 0.16448 0.72158 0.79327 0.0
H576 H 0.12853 0.80028 0.94753 0.0
H577 H 0.16645 0.72822 0.06399 0.0
C578 C 0.15899 0.74732 0.18775 0.0
C579 C 0.14886 0.769 0.23361 0.0
C580 C 0.1364 0.78293 0.9137 0.0
C581 C 0.14793 0.76528 0.05363 0.0
C582 C 0.13597 0.78067 0.82389 0.0
C583 C 0.14609 0.75871 0.77833 0.0
C584 C 0.14703 0.76312 0.9583 0.0
C585 C 0.15645 0.7389 0.82545 0.0
C586 C 0.15857 0.74542 0.09799 0.0
C587 C 0.1385 0.78899 0.18679 0.0
N588 N 0.15665 0.74164 0.91265 0.0
N589 N 0.13829 0.78656 0.09953 0.0
H590 H 0.91147 0.71083 0.7997 0.0
H591 H 0.87466 0.78838 0.2322 0.0
H592 H 0.87768 0.80071 0.80442 0.0
H593 H 0.90904 0.70129 0.2292 0.0
H594 H 0.87535 0.79183 0.07535 0.0
H595 H 0.91067 0.70634 0.95663 0.0
C596 C 0.90392 0.72981 0.83364 0.0
C597 C 0.89464 0.75625 0.78854 0.0
C598 C 0.88273 0.77183 0.10892 0.0
C599 C 0.89362 0.75097 0.96859 0.0
C600 C 0.88231 0.76971 0.19865 0.0
C601 C 0.8918 0.74446 0.24425 0.0
C602 C 0.89271 0.74858 0.06407 0.0
C603 C 0.9015 0.72113 0.19695 0.0
C604 C 0.90345 0.72713 0.92335 0.0
C605 C 0.88506 0.77996 0.83624 0.0
N606 N 0.90172 0.72384 0.10962 0.0
N607 N 0.88479 0.77669 0.92345 0.0
H608 H 0.62957 0.726 0.31746 0.0
H609 H 0.66959 0.7847 0.74726 0.0
H610 H 0.66995 0.77125 0.31932 0.0
H611 H 0.6306 0.7265 0.74626 0.0
H612 H 0.66972 0.78145 0.59057 0.0
H613 H 0.62966 0.72695 0.47422 0.0
C614 C 0.63848 0.73603 0.35072 0.0
C615 C 0.64978 0.74865 0.30492 0.0
C616 C 0.66114 0.76934 0.62455 0.0
C617 C 0.6499 0.74997 0.48492 0.0
C618 C 0.66103 0.77129 0.71416 0.0
C619 C 0.65004 0.75591 0.76013 0.0
C620 C 0.65016 0.75205 0.58028 0.0
C621 C 0.63928 0.73876 0.71356 0.0
C622 C 0.63852 0.73654 0.4404 0.0
C623 C 0.66103 0.76122 0.3518 0.0
N624 N 0.6396 0.73737 0.62619 0.0
N625 N 0.66078 0.76171 0.4392 0.0
H626 H 0.41092 0.79439 0.76706 0.0
H627 H 0.37259 0.72411 0.33425 0.0
H628 H 0.37575 0.71179 0.76172 0.0
H629 H 0.40825 0.80413 0.3374 0.0
H630 H 0.37334 0.72089 0.49126 0.0
H631 H 0.41007 0.79905 0.60993 0.0
C632 C 0.40306 0.77703 0.73297 0.0
C633 C 0.39341 0.7526 0.77789 0.0
C634 C 0.38098 0.73929 0.45764 0.0
C635 C 0.39231 0.7581 0.59789 0.0
C636 C 0.38053 0.74128 0.36786 0.0
C637 C 0.39037 0.76443 0.32232 0.0
C638 C 0.39135 0.76056 0.50247 0.0
C639 C 0.40044 0.78589 0.36961 0.0
C640 C 0.40255 0.77983 0.6432 0.0
C641 C 0.38343 0.73098 0.73007 0.0
N642 N 0.40068 0.78334 0.45692 0.0
N643 N 0.38313 0.7343 0.64294 0.0
H644 H 0.63011 0.28533 0.29843 0.0
H645 H 0.67072 0.24009 0.73236 0.0
H646 H 0.66919 0.22732 0.3042 0.0
H647 H 0.63013 0.28368 0.72721 0.0
H648 H 0.67076 0.23922 0.57522 0.0
H649 H 0.6303 0.28851 0.45551 0.0
C650 C 0.63872 0.27322 0.33265 0.0
C651 C 0.64964 0.25594 0.288 0.0
C652 C 0.66185 0.24903 0.60853 0.0
C653 C 0.64994 0.25967 0.46785 0.0
C654 C 0.66183 0.24967 0.69831 0.0
C655 C 0.6504 0.2619 0.74321 0.0
C656 C 0.65037 0.26085 0.56321 0.0
C657 C 0.63917 0.27389 0.69548 0.0
C658 C 0.63882 0.27504 0.42238 0.0
C659 C 0.66054 0.24079 0.33584 0.0
N660 N 0.63944 0.27304 0.60817 0.0
N661 N 0.66041 0.24306 0.42309 0.0
H662 H 0.4113 0.21482 0.29088 0.0
H663 H 0.37343 0.28886 0.72227 0.0
H664 H 0.37681 0.30142 0.29449 0.0
H665 H 0.40855 0.20541 0.72039 0.0
H666 H 0.37422 0.29222 0.56521 0.0
H667 H 0.41038 0.21027 0.44797 0.0
C668 C 0.40358 0.23308 0.32459 0.0
C669 C 0.39413 0.2586 0.27917 0.0
C670 C 0.38174 0.27304 0.59914 0.0
C671 C 0.39296 0.25323 0.45921 0.0
C672 C 0.38126 0.27097 0.68893 0.0
C673 C 0.39094 0.2468 0.73487 0.0
C674 C 0.39197 0.25082 0.55466 0.0
C675 C 0.40087 0.22445 0.6879 0.0
C676 C 0.40304 0.23035 0.41436 0.0
C677 C 0.38432 0.28136 0.32653 0.0
N678 N 0.40114 0.22708 0.6006 0.0
N679 N 0.38399 0.27807 0.41369 0.0
H680 H 0.05227 0.28407 0.35217 0.0
H681 H 0.98543 0.20431 0.57693 0.0
H682 H 0.05117 0.19618 0.57498 0.0
H683 H 0.98752 0.31322 0.39016 0.0
H684 H 1.00919 0.19327 0.5643 0.0
H685 H 0.02832 0.28769 0.35326 0.0
C686 C 0.04702 0.2655 0.40143 0.0
C687 C 0.05384 0.24019 0.46423 0.0
C688 C 1.00444 0.21944 0.52579 0.0
C689 C 0.02627 0.24375 0.46498 0.0
C690 C 0.99086 0.22556 0.53248 0.0
C691 C 0.98445 0.25984 0.48465 0.0
C692 C 1.01171 0.24758 0.4704 0.0
C693 C 0.99205 0.28675 0.42901 0.0
C694 C 0.03331 0.26746 0.40173 0.0
C695 C 0.0464 0.2159 0.52493 0.0
N696 N 1.00525 0.28007 0.42347 0.0
N697 N 0.03304 0.21848 0.52403 0.0
H698 H 0.98481 0.80527 0.50575 0.0
H699 H 0.05519 0.70946 0.65543 0.0
H700 H 0.98968 0.68478 0.66375 0.0
H701 H 0.04967 0.83496 0.51288 0.0
H702 H 0.03129 0.70024 0.66167 0.0
H703 H 1.00849 0.81779 0.51207 0.0
C704 C 0.9908 0.78169 0.54274 0.0
C705 C 0.98513 0.74379 0.58411 0.0
C706 C 0.03532 0.72994 0.62948 0.0
C707 C 1.01248 0.75755 0.59018 0.0
C708 C 0.04898 0.73512 0.62553 0.0
C709 C 0.05453 0.7731 0.58366 0.0
C710 C 0.02707 0.7628 0.59079 0.0
C711 C 0.04591 0.80546 0.54699 0.0
C712 C 1.00439 0.7887 0.54574 0.0
C713 C 0.99356 0.71406 0.62961 0.0
N714 N 0.03268 0.79946 0.55108 0.0
N715 N 1.00677 0.72145 0.63109 0.0
H716 H 0.55166 0.69506 0.10765 0.0
H717 H 0.487 0.78845 0.86894 0.0
H718 H 0.55232 0.76736 0.86595 0.0
H719 H 0.4861 0.71106 0.10491 0.0
H720 H 0.51085 0.77845 0.86402 0.0
H721 H 0.52765 0.69715 0.1043 0.0
C722 C 0.54679 0.71093 0.05333 0.0
C723 C 0.55412 0.73128 0.98721 0.0
C724 C 0.50543 0.76339 0.91665 0.0
C725 C 0.52649 0.73439 0.98365 0.0
C726 C 0.4918 0.76927 0.91969 0.0
C727 C 0.48447 0.75074 0.98762 0.0
C728 C 0.51189 0.73898 0.98224 0.0
C729 C 0.49127 0.72559 0.05079 0.0
C730 C 0.53304 0.71238 0.05177 0.0
C731 C 0.54715 0.75192 0.91921 0.0
N732 N 0.50457 0.72072 0.04684 0.0
N733 N 0.53379 0.75311 0.91941 0.0
H734 H 0.48568 0.30312 0.9439 0.0
H735 H 0.55338 0.24756 0.18745 0.0
H736 H 0.4882 0.22681 0.18073 0.0
H737 H 0.55131 0.3146 0.94073 0.0
H738 H 0.52942 0.24556 0.19173 0.0
H739 H 0.50948 0.31417 0.94823 0.0
C740 C 0.4912 0.28918 0.99747 0.0
C741 C 0.48488 0.26384 0.06194 0.0
C742 C 0.53419 0.26091 0.13679 0.0
C743 C 0.51225 0.27588 0.06661 0.0
C744 C 0.5479 0.26189 0.13407 0.0
C745 C 0.55444 0.2809 0.0632 0.0
C746 C 0.52686 0.27908 0.06817 0.0
C747 C 0.54674 0.29986 0.99695 0.0
C748 C 0.50483 0.29522 0.99952 0.0
C749 C 0.49263 0.24602 0.12897 0.0
N750 N 0.53339 0.29821 1.00082 0.0
N751 N 0.50588 0.25226 0.12939 0.0
loop_
_geom_bond_atom_site_label_1
_geom_bond_atom_site_label_2
_geom_bond_distance
_geom_bond_site_symmetry_2
_ccdc_geom_bond_type
Tb0 C2 2.809 . S
Tb0 O20 2.484 . S
Tb0 O21 2.440 . S
Tb0 O22 2.658 . S
Tb0 O23 2.409 . S
Tb0 O24 2.378 . S
Tb0 O28 2.325 . S
Tb0 O31 2.341 . S
Tb1 C11 2.809 . S
Tb1 O22 2.325 . S
Tb1 O25 2.341 . S
Tb1 O26 2.484 . S
Tb1 O27 2.440 . S
Tb1 O28 2.658 . S
Tb1 O29 2.409 . S
Tb1 O30 2.378 . S
C2 Tb0 2.809 . S
C2 C3 1.514 . S
C2 O20 1.248 . S
C2 O21 1.266 . S
C3 C2 1.514 . S
C3 C4 1.359 . S
C3 C8 1.348 . S
C4 C3 1.359 . S
C4 C5 1.380 . S
C4 H32 0.929 . S
C5 C4 1.380 . S
C5 C6 1.347 . S
C5 H33 0.931 . S
C6 C5 1.347 . S
C6 C7 1.369 . S
C7 C6 1.369 . S
C7 C8 1.408 . S
C7 H34 0.930 . S
C8 C3 1.348 . S
C8 C7 1.408 . S
C8 H35 0.930 . S
C9 O22 1.281 . S
C9 O23 1.254 . S
C10 O24 1.236 . S
C10 O25 1.266 . S
C11 Tb1 2.809 . S
C11 C12 1.514 . S
C11 O26 1.248 . S
C11 O27 1.266 . S
C12 C11 1.514 . S
C12 C13 1.359 . S
C12 C17 1.348 . S
C13 C12 1.359 . S
C13 C14 1.380 . S
C13 H36 0.929 . S
C14 C13 1.380 . S
C14 C15 1.347 . S
C14 H37 0.931 . S
C15 C14 1.347 . S
C15 C16 1.369 . S
C16 C15 1.369 . S
C16 C17 1.408 . S
C16 H38 0.930 . S
C17 C12 1.348 . S
C17 C16 1.408 . S
C17 H39 0.930 . S
C18 O28 1.281 . S
C18 O29 1.254 . S
C19 O30 1.236 . S
C19 O31 1.266 . S
O20 Tb0 2.484 . S
O20 C2 1.248 . S
O21 Tb0 2.440 . S
O21 C2 1.266 . S
O22 Tb0 2.658 . S
O22 Tb1 2.325 . S
O22 C9 1.281 . S
O23 Tb0 2.409 . S
O23 C9 1.254 . S
O24 Tb0 2.378 . S
O24 C10 1.236 . S
O25 Tb1 2.341 . S
O25 C10 1.266 . S
O26 Tb1 2.484 . S
O26 C11 1.248 . S
O27 Tb1 2.440 . S
O27 C11 1.266 . S
O28 Tb0 2.325 . S
O28 Tb1 2.658 . S
O28 C18 1.281 . S
O29 Tb1 2.409 . S
O29 C18 1.254 . S
O30 Tb1 2.378 . S
O30 C19 1.236 . S
O31 Tb0 2.341 . S
O31 C19 1.266 . S
H32 C4 0.929 . S
H33 C5 0.931 . S
H34 C7 0.930 . S
H35 C8 0.930 . S
H36 C13 0.929 . S
H37 C14 0.931 . S
H38 C16 0.930 . S
H39 C17 0.930 . S
Tb40 C42 2.809 . S
Tb40 O60 2.484 . S
Tb40 O61 2.440 . S
Tb40 O62 2.658 . S
Tb40 O63 2.409 . S
Tb40 O64 2.378 . S
Tb40 O68 2.325 . S
Tb40 O71 2.341 . S
Tb41 C51 2.809 . S
Tb41 O62 2.325 . S
Tb41 O65 2.341 . S
Tb41 O66 2.484 . S
Tb41 O67 2.440 . S
Tb41 O68 2.658 . S
Tb41 O69 2.409 . S
Tb41 O70 2.378 . S
C42 Tb40 2.809 . S
C42 C43 1.514 . S
C42 O60 1.248 . S
C42 O61 1.266 . S
C43 C42 1.514 . S
C43 C44 1.359 . S
C43 C48 1.348 . S
C44 C43 1.359 . S
C44 C45 1.380 . S
C44 H72 0.929 . S
C45 C44 1.380 . S
C45 C46 1.347 . S
C45 H73 0.931 . S
C46 C45 1.347 . S
C46 C47 1.369 . S
C47 C46 1.369 . S
C47 C48 1.408 . S
C47 H74 0.930 . S
C48 C43 1.348 . S
C48 C47 1.408 . S
C48 H75 0.930 . S
C49 O62 1.281 . S
C49 O63 1.254 . S
C50 O64 1.236 . S
C50 O65 1.266 . S
C51 Tb41 2.809 . S
C51 C52 1.514 . S
C51 O66 1.248 . S
C51 O67 1.266 . S
C52 C51 1.514 . S
C52 C53 1.359 . S
C52 C57 1.348 . S
C53 C52 1.359 . S
C53 C54 1.380 . S
C53 H76 0.929 . S
C54 C53 1.380 . S
C54 C55 1.347 . S
C54 H77 0.931 . S
C55 C54 1.347 . S
C55 C56 1.369 . S
C56 C55 1.369 . S
C56 C57 1.408 . S
C56 H78 0.930 . S
C57 C52 1.348 . S
C57 C56 1.408 . S
C57 H79 0.930 . S
C58 O68 1.281 . S
C58 O69 1.254 . S
C59 O70 1.236 . S
C59 O71 1.266 . S
O60 Tb40 2.484 . S
O60 C42 1.248 . S
O61 Tb40 2.440 . S
O61 C42 1.266 . S
O62 Tb40 2.658 . S
O62 Tb41 2.325 . S
O62 C49 1.281 . S
O63 Tb40 2.409 . S
O63 C49 1.254 . S
O64 Tb40 2.378 . S
O64 C50 1.236 . S
O65 Tb41 2.341 . S
O65 C50 1.266 . S
O66 Tb41 2.484 . S
O66 C51 1.248 . S
O67 Tb41 2.440 . S
O67 C51 1.266 . S
O68 Tb40 2.325 . S
O68 Tb41 2.658 . S
O68 C58 1.281 . S
O69 Tb41 2.409 . S
O69 C58 1.254 . S
O70 Tb41 2.378 . S
O70 C59 1.236 . S
O71 Tb40 2.341 . S
O71 C59 1.266 . S
H72 C44 0.929 . S
H73 C45 0.931 . S
H74 C47 0.930 . S
H75 C48 0.930 . S
H76 C53 0.929 . S
H77 C54 0.931 . S
H78 C56 0.930 . S
H79 C57 0.930 . S
Tb80 C82 2.809 . S
Tb80 O100 2.484 . S
Tb80 O101 2.440 . S
Tb80 O102 2.658 . S
Tb80 O103 2.409 . S
Tb80 O104 2.378 . S
Tb80 O108 2.325 . S
Tb80 O111 2.341 . S
Tb81 C91 2.809 . S
Tb81 O102 2.325 . S
Tb81 O105 2.341 . S
Tb81 O106 2.484 . S
Tb81 O107 2.440 . S
Tb81 O108 2.658 . S
Tb81 O109 2.409 . S
Tb81 O110 2.378 . S
C82 Tb80 2.809 . S
C82 C83 1.514 . S
C82 O100 1.248 . S
C82 O101 1.266 . S
C83 C82 1.514 . S
C83 C84 1.359 . S
C83 C88 1.348 . S
C84 C83 1.359 . S
C84 C85 1.380 . S
C84 H112 0.929 . S
C85 C84 1.380 . S
C85 C86 1.347 . S
C85 H113 0.931 . S
C86 C85 1.347 . S
C86 C87 1.369 . S
C87 C86 1.369 . S
C87 C88 1.408 . S
C87 H114 0.930 . S
C88 C83 1.348 . S
C88 C87 1.408 . S
C88 H115 0.930 . S
C89 O102 1.281 . S
C89 O103 1.254 . S
C90 O104 1.236 . S
C90 O105 1.266 . S
C91 Tb81 2.809 . S
C91 C92 1.514 . S
C91 O106 1.248 . S
C91 O107 1.266 . S
C92 C91 1.514 . S
C92 C93 1.359 . S
C92 C97 1.348 . S
C93 C92 1.359 . S
C93 C94 1.380 . S
C93 H116 0.929 . S
C94 C93 1.380 . S
C94 C95 1.347 . S
C94 H117 0.931 . S
C95 C94 1.347 . S
C95 C96 1.369 . S
C96 C95 1.369 . S
C96 C97 1.408 . S
C96 H118 0.930 . S
C97 C92 1.348 . S
C97 C96 1.408 . S
C97 H119 0.930 . S
C98 O108 1.281 . S
C98 O109 1.254 . S
C99 O110 1.236 . S
C99 O111 1.266 . S
O100 Tb80 2.484 . S
O100 C82 1.248 . S
O101 Tb80 2.440 . S
O101 C82 1.266 . S
O102 Tb80 2.658 . S
O102 Tb81 2.325 . S
O102 C89 1.281 . S
O103 Tb80 2.409 . S
O103 C89 1.254 . S
O104 Tb80 2.378 . S
O104 C90 1.236 . S
O105 Tb81 2.341 . S
O105 C90 1.266 . S
O106 Tb81 2.484 . S
O106 C91 1.248 . S
O107 Tb81 2.440 . S
O107 C91 1.266 . S
O108 Tb80 2.325 . S
O108 Tb81 2.658 . S
O108 C98 1.281 . S
O109 Tb81 2.409 . S
O109 C98 1.254 . S
O110 Tb81 2.378 . S
O110 C99 1.236 . S
O111 Tb80 2.341 . S
O111 C99 1.266 . S
H112 C84 0.929 . S
H113 C85 0.931 . S
H114 C87 0.930 . S
H115 C88 0.930 . S
H116 C93 0.929 . S
H117 C94 0.931 . S
H118 C96 0.930 . S
H119 C97 0.930 . S
Tb120 C122 2.809 . S
Tb120 O140 2.484 . S
Tb120 O141 2.440 . S
Tb120 O142 2.658 . S
Tb120 O143 2.409 . S
Tb120 O144 2.378 . S
Tb120 O148 2.325 . S
Tb120 O151 2.341 . S
Tb121 C131 2.809 . S
Tb121 O142 2.325 . S
Tb121 O145 2.341 . S
Tb121 O146 2.484 . S
Tb121 O147 2.440 . S
Tb121 O148 2.658 . S
Tb121 O149 2.409 . S
Tb121 O150 2.378 . S
C122 Tb120 2.809 . S
C122 C123 1.514 . S
C122 O140 1.248 . S
C122 O141 1.266 . S
C123 C122 1.514 . S
C123 C124 1.359 . S
C123 C128 1.348 . S
C124 C123 1.359 . S
C124 C125 1.380 . S
C124 H152 0.929 . S
C125 C124 1.380 . S
C125 C126 1.347 . S
C125 H153 0.931 . S
C126 C125 1.347 . S
C126 C127 1.369 . S
C127 C126 1.369 . S
C127 C128 1.408 . S
C127 H154 0.930 . S
C128 C123 1.348 . S
C128 C127 1.408 . S
C128 H155 0.930 . S
C129 O142 1.281 . S
C129 O143 1.254 . S
C130 O144 1.236 . S
C130 O145 1.266 . S
C131 Tb121 2.809 . S
C131 C132 1.514 . S
C131 O146 1.248 . S
C131 O147 1.266 . S
C132 C131 1.514 . S
C132 C133 1.359 . S
C132 C137 1.348 . S
C133 C132 1.359 . S
C133 C134 1.380 . S
C133 H156 0.929 . S
C134 C133 1.380 . S
C134 C135 1.347 . S
C134 H157 0.931 . S
C135 C134 1.347 . S
C135 C136 1.369 . S
C136 C135 1.369 . S
C136 C137 1.408 . S
C136 H158 0.930 . S
C137 C132 1.348 . S
C137 C136 1.408 . S
C137 H159 0.930 . S
C138 O148 1.281 . S
C138 O149 1.254 . S
C139 O150 1.236 . S
C139 O151 1.266 . S
O140 Tb120 2.484 . S
O140 C122 1.248 . S
O141 Tb120 2.440 . S
O141 C122 1.266 . S
O142 Tb120 2.658 . S
O142 Tb121 2.325 . S
O142 C129 1.281 . S
O143 Tb120 2.409 . S
O143 C129 1.254 . S
O144 Tb120 2.378 . S
O144 C130 1.236 . S
O145 Tb121 2.341 . S
O145 C130 1.266 . S
O146 Tb121 2.484 . S
O146 C131 1.248 . S
O147 Tb121 2.440 . S
O147 C131 1.266 . S
O148 Tb120 2.325 . S
O148 Tb121 2.658 . S
O148 C138 1.281 . S
O149 Tb121 2.409 . S
O149 C138 1.254 . S
O150 Tb121 2.378 . S
O150 C139 1.236 . S
O151 Tb120 2.341 . S
O151 C139 1.266 . S
H152 C124 0.929 . S
H153 C125 0.931 . S
H154 C127 0.930 . S
H155 C128 0.930 . S
H156 C133 0.929 . S
H157 C134 0.931 . S
H158 C136 0.930 . S
H159 C137 0.930 . S
Tb160 C162 2.809 1_556 S
Tb160 O180 2.484 1_556 S
Tb160 O181 2.440 1_556 S
Tb160 O182 2.658 . S
Tb160 O183 2.409 . S
Tb160 O184 2.378 1_556 S
Tb160 O188 2.325 1_556 S
Tb160 O191 2.341 . S
Tb161 C171 2.809 1_554 S
Tb161 O182 2.325 1_554 S
Tb161 O185 2.341 . S
Tb161 O186 2.484 1_554 S
Tb161 O187 2.440 1_554 S
Tb161 O188 2.658 . S
Tb161 O189 2.409 . S
Tb161 O190 2.378 1_554 S
C162 Tb160 2.809 1_554 S
C162 C163 1.514 . S
C162 O180 1.248 . S
C162 O181 1.266 . S
C163 C162 1.514 . S
C163 C164 1.359 . S
C163 C168 1.348 . S
C164 C163 1.359 . S
C164 C165 1.380 . S
C164 H192 0.929 . S
C165 C164 1.380 . S
C165 C166 1.347 . S
C165 H193 0.931 . S
C166 C165 1.347 . S
C166 C167 1.369 . S
C167 C166 1.369 . S
C167 C168 1.408 . S
C167 H194 0.930 . S
C168 C163 1.348 . S
C168 C167 1.408 . S
C168 H195 0.930 . S
C169 O182 1.281 . S
C169 O183 1.254 . S
C170 O184 1.236 . S
C170 O185 1.266 . S
C171 Tb161 2.809 1_556 S
C171 C172 1.514 . S
C171 O186 1.248 . S
C171 O187 1.266 . S
C172 C171 1.514 . S
C172 C173 1.359 . S
C172 C177 1.348 . S
C173 C172 1.359 . S
C173 C174 1.380 . S
C173 H196 0.929 . S
C174 C173 1.380 . S
C174 C175 1.347 . S
C174 H197 0.931 . S
C175 C174 1.347 . S
C175 C176 1.369 . S
C176 C175 1.369 . S
C176 C177 1.408 . S
C176 H198 0.930 . S
C177 C172 1.348 . S
C177 C176 1.408 . S
C177 H199 0.930 . S
C178 O188 1.281 . S
C178 O189 1.254 . S
C179 O190 1.236 . S
C179 O191 1.266 . S
O180 Tb160 2.484 1_554 S
O180 C162 1.248 . S
O181 Tb160 2.440 1_554 S
O181 C162 1.266 . S
O182 Tb160 2.658 . S
O182 Tb161 2.325 1_556 S
O182 C169 1.281 . S
O183 Tb160 2.409 . S
O183 C169 1.254 . S
O184 Tb160 2.378 1_554 S
O184 C170 1.236 . S
O185 Tb161 2.341 . S
O185 C170 1.266 . S
O186 Tb161 2.484 1_556 S
O186 C171 1.248 . S
O187 Tb161 2.440 1_556 S
O187 C171 1.266 . S
O188 Tb160 2.325 1_554 S
O188 Tb161 2.658 . S
O188 C178 1.281 . S
O189 Tb161 2.409 . S
O189 C178 1.254 . S
O190 Tb161 2.378 1_556 S
O190 C179 1.236 . S
O191 Tb160 2.341 . S
O191 C179 1.266 . S
H192 C164 0.929 . S
H193 C165 0.931 . S
H194 C167 0.930 . S
H195 C168 0.930 . S
H196 C173 0.929 . S
H197 C174 0.931 . S
H198 C176 0.930 . S
H199 C177 0.930 . S
Tb200 C202 2.809 1_556 S
Tb200 O220 2.484 1_556 S
Tb200 O221 2.440 1_556 S
Tb200 O222 2.658 . S
Tb200 O223 2.409 . S
Tb200 O224 2.378 1_556 S
Tb200 O228 2.325 1_556 S
Tb200 O231 2.341 . S
Tb201 C211 2.809 1_554 S
Tb201 O222 2.325 1_554 S
Tb201 O225 2.341 . S
Tb201 O226 2.484 1_554 S
Tb201 O227 2.440 1_554 S
Tb201 O228 2.658 . S
Tb201 O229 2.409 . S
Tb201 O230 2.378 1_554 S
C202 Tb200 2.809 1_554 S
C202 C203 1.514 . S
C202 O220 1.248 . S
C202 O221 1.266 . S
C203 C202 1.514 . S
C203 C204 1.359 . S
C203 C208 1.348 . S
C204 C203 1.359 . S
C204 C205 1.380 . S
C204 H232 0.929 . S
C205 C204 1.380 . S
C205 C206 1.347 . S
C205 H233 0.931 . S
C206 C205 1.347 . S
C206 C207 1.369 . S
C207 C206 1.369 . S
C207 C208 1.408 . S
C207 H234 0.930 . S
C208 C203 1.348 . S
C208 C207 1.408 . S
C208 H235 0.930 . S
C209 O222 1.281 . S
C209 O223 1.254 . S
C210 O224 1.236 . S
C210 O225 1.266 . S
C211 Tb201 2.809 1_556 S
C211 C212 1.514 . S
C211 O226 1.248 . S
C211 O227 1.266 . S
C212 C211 1.514 . S
C212 C213 1.359 . S
C212 C217 1.348 . S
C213 C212 1.359 . S
C213 C214 1.380 . S
C213 H236 0.929 . S
C214 C213 1.380 . S
C214 C215 1.347 . S
C214 H237 0.931 . S
C215 C214 1.347 . S
C215 C216 1.369 . S
C216 C215 1.369 . S
C216 C217 1.408 . S
C216 H238 0.930 . S
C217 C212 1.348 . S
C217 C216 1.408 . S
C217 H239 0.930 . S
C218 O228 1.281 . S
C218 O229 1.254 . S
C219 O230 1.236 . S
C219 O231 1.266 . S
O220 Tb200 2.484 1_554 S
O220 C202 1.248 . S
O221 Tb200 2.440 1_554 S
O221 C202 1.266 . S
O222 Tb200 2.658 . S
O222 Tb201 2.325 1_556 S
O222 C209 1.281 . S
O223 Tb200 2.409 . S
O223 C209 1.254 . S
O224 Tb200 2.378 1_554 S
O224 C210 1.236 . S
O225 Tb201 2.341 . S
O225 C210 1.266 . S
O226 Tb201 2.484 1_556 S
O226 C211 1.248 . S
O227 Tb201 2.440 1_556 S
O227 C211 1.266 . S
O228 Tb200 2.325 1_554 S
O228 Tb201 2.658 . S
O228 C218 1.281 . S
O229 Tb201 2.409 . S
O229 C218 1.254 . S
O230 Tb201 2.378 1_556 S
O230 C219 1.236 . S
O231 Tb200 2.341 . S
O231 C219 1.266 . S
H232 C204 0.929 . S
H233 C205 0.931 . S
H234 C207 0.930 . S
H235 C208 0.930 . S
H236 C213 0.929 . S
H237 C214 0.931 . S
H238 C216 0.930 . S
H239 C217 0.930 . S
Tb240 C242 2.809 1_554 S
Tb240 O260 2.484 1_554 S
Tb240 O261 2.440 1_554 S
Tb240 O262 2.658 . S
Tb240 O263 2.409 . S
Tb240 O264 2.378 1_554 S
Tb240 O268 2.325 1_554 S
Tb240 O271 2.341 . S
Tb241 C251 2.809 1_556 S
Tb241 O262 2.325 1_556 S
Tb241 O265 2.341 . S
Tb241 O266 2.484 1_556 S
Tb241 O267 2.440 1_556 S
Tb241 O268 2.658 . S
Tb241 O269 2.409 . S
Tb241 O270 2.378 1_556 S
C242 Tb240 2.809 1_556 S
C242 C243 1.514 . S
C242 O260 1.248 . S
C242 O261 1.266 . S
C243 C242 1.514 . S
C243 C244 1.359 . S
C243 C248 1.348 . S
C244 C243 1.359 . S
C244 C245 1.380 . S
C244 H272 0.929 . S
C245 C244 1.380 . S
C245 C246 1.347 . S
C245 H273 0.931 . S
C246 C245 1.347 . S
C246 C247 1.369 . S
C247 C246 1.369 . S
C247 C248 1.408 . S
C247 H274 0.930 . S
C248 C243 1.348 . S
C248 C247 1.408 . S
C248 H275 0.930 . S
C249 O262 1.281 . S
C249 O263 1.254 . S
C250 O264 1.236 . S
C250 O265 1.266 . S
C251 Tb241 2.809 1_554 S
C251 C252 1.514 . S
C251 O266 1.248 . S
C251 O267 1.266 . S
C252 C251 1.514 . S
C252 C253 1.359 . S
C252 C257 1.348 . S
C253 C252 1.359 . S
C253 C254 1.380 . S
C253 H276 0.929 . S
C254 C253 1.380 . S
C254 C255 1.347 . S
C254 H277 0.931 . S
C255 C254 1.347 . S
C255 C256 1.369 . S
C256 C255 1.369 . S
C256 C257 1.408 . S
C256 H278 0.930 . S
C257 C252 1.348 . S
C257 C256 1.408 . S
C257 H279 0.930 . S
C258 O268 1.281 . S
C258 O269 1.254 . S
C259 O270 1.236 . S
C259 O271 1.266 . S
O260 Tb240 2.484 1_556 S
O260 C242 1.248 . S
O261 Tb240 2.440 1_556 S
O261 C242 1.266 . S
O262 Tb240 2.658 . S
O262 Tb241 2.325 1_554 S
O262 C249 1.281 . S
O263 Tb240 2.409 . S
O263 C249 1.254 . S
O264 Tb240 2.378 1_556 S
O264 C250 1.236 . S
O265 Tb241 2.341 . S
O265 C250 1.266 . S
O266 Tb241 2.484 1_554 S
O266 C251 1.248 . S
O267 Tb241 2.440 1_554 S
O267 C251 1.266 . S
O268 Tb240 2.325 1_556 S
O268 Tb241 2.658 . S
O268 C258 1.281 . S
O269 Tb241 2.409 . S
O269 C258 1.254 . S
O270 Tb241 2.378 1_554 S
O270 C259 1.236 . S
O271 Tb240 2.341 . S
O271 C259 1.266 . S
H272 C244 0.929 . S
H273 C245 0.931 . S
H274 C247 0.930 . S
H275 C248 0.930 . S
H276 C253 0.929 . S
H277 C254 0.931 . S
H278 C256 0.930 . S
H279 C257 0.930 . S
Tb280 C282 2.809 1_554 S
Tb280 O300 2.484 1_554 S
Tb280 O301 2.440 1_554 S
Tb280 O302 2.658 . S
Tb280 O303 2.409 . S
Tb280 O304 2.378 1_554 S
Tb280 O308 2.325 1_554 S
Tb280 O311 2.341 . S
Tb281 C291 2.809 1_556 S
Tb281 O302 2.325 1_556 S
Tb281 O305 2.341 . S
Tb281 O306 2.484 1_556 S
Tb281 O307 2.440 1_556 S
Tb281 O308 2.658 . S
Tb281 O309 2.409 . S
Tb281 O310 2.378 1_556 S
C282 Tb280 2.809 1_556 S
C282 C283 1.514 . S
C282 O300 1.248 . S
C282 O301 1.266 . S
C283 C282 1.514 . S
C283 C284 1.359 . S
C283 C288 1.348 . S
C284 C283 1.359 . S
C284 C285 1.380 . S
C284 H312 0.929 . S
C285 C284 1.380 . S
C285 C286 1.347 . S
C285 H313 0.931 . S
C286 C285 1.347 . S
C286 C287 1.369 . S
C287 C286 1.369 . S
C287 C288 1.408 . S
C287 H314 0.930 . S
C288 C283 1.348 . S
C288 C287 1.408 . S
C288 H315 0.930 . S
C289 O302 1.281 . S
C289 O303 1.254 . S
C290 O304 1.236 . S
C290 O305 1.266 . S
C291 Tb281 2.809 1_554 S
C291 C292 1.514 . S
C291 O306 1.248 . S
C291 O307 1.266 . S
C292 C291 1.514 . S
C292 C293 1.359 . S
C292 C297 1.348 . S
C293 C292 1.359 . S
C293 C294 1.380 . S
C293 H316 0.929 . S
C294 C293 1.380 . S
C294 C295 1.347 . S
C294 H317 0.931 . S
C295 C294 1.347 . S
C295 C296 1.369 . S
C296 C295 1.369 . S
C296 C297 1.408 . S
C296 H318 0.930 . S
C297 C292 1.348 . S
C297 C296 1.408 . S
C297 H319 0.930 . S
C298 O308 1.281 . S
C298 O309 1.254 . S
C299 O310 1.236 . S
C299 O311 1.266 . S
O300 Tb280 2.484 1_556 S
O300 C282 1.248 . S
O301 Tb280 2.440 1_556 S
O301 C282 1.266 . S
O302 Tb280 2.658 . S
O302 Tb281 2.325 1_554 S
O302 C289 1.281 . S
O303 Tb280 2.409 . S
O303 C289 1.254 . S
O304 Tb280 2.378 1_556 S
O304 C290 1.236 . S
O305 Tb281 2.341 . S
O305 C290 1.266 . S
O306 Tb281 2.484 1_554 S
O306 C291 1.248 . S
O307 Tb281 2.440 1_554 S
O307 C291 1.266 . S
O308 Tb280 2.325 1_556 S
O308 Tb281 2.658 . S
O308 C298 1.281 . S
O309 Tb281 2.409 . S
O309 C298 1.254 . S
O310 Tb281 2.378 1_554 S
O310 C299 1.236 . S
O311 Tb280 2.341 . S
O311 C299 1.266 . S
H312 C284 0.929 . S
H313 C285 0.931 . S
H314 C287 0.930 . S
H315 C288 0.930 . S
H316 C293 0.929 . S
H317 C294 0.931 . S
H318 C296 0.930 . S
H319 C297 0.930 . S
H320 C326 0.930 . S
H321 C330 0.930 . S
H322 C335 0.929 . S
H323 C333 0.929 . S
H324 C328 0.929 . S
H325 C334 0.929 . S
C326 H320 0.930 . S
C326 C327 1.367 . S
C326 C334 1.378 . S
C327 C326 1.367 . S
C327 C335 1.433 . S
C328 H324 0.929 . S
C328 C330 1.378 . S
C328 C332 1.350 . S
C329 C332 1.463 . S
C329 C334 1.350 . S
C329 N337 1.427 . S
C330 H321 0.930 . S
C330 C328 1.378 . S
C330 C331 1.367 . S
C331 C330 1.367 . S
C331 C333 1.433 . S
C332 C328 1.350 . S
C332 C329 1.463 . S
C332 N336 1.427 . S
C333 H323 0.929 . S
C333 C331 1.433 . S
C333 N336 1.384 . S
C334 H325 0.929 . S
C334 C326 1.378 . S
C334 C329 1.350 . S
C335 H322 0.929 . S
C335 C327 1.433 . S
C335 N337 1.384 . S
N336 C332 1.427 . S
N336 C333 1.384 . S
N337 C329 1.427 . S
N337 C335 1.384 . S
H338 C344 0.930 . S
H339 C348 0.930 . S
H340 C353 0.929 . S
H341 C351 0.929 . S
H342 C346 0.929 . S
H343 C352 0.929 . S
C344 H338 0.930 . S
C344 C345 1.367 . S
C344 C352 1.378 . S
C345 C344 1.367 . S
C345 C353 1.433 . S
C346 H342 0.929 . S
C346 C348 1.378 . S
C346 C350 1.350 . S
C347 C350 1.463 . S
C347 C352 1.350 . S
C347 N355 1.427 . S
C348 H339 0.930 . S
C348 C346 1.378 . S
C348 C349 1.367 . S
C349 C348 1.367 . S
C349 C351 1.433 . S
C350 C346 1.350 . S
C350 C347 1.463 . S
C350 N354 1.427 . S
C351 H341 0.929 . S
C351 C349 1.433 . S
C351 N354 1.384 . S
C352 H343 0.929 . S
C352 C344 1.378 . S
C352 C347 1.350 . S
C353 H340 0.929 . S
C353 C345 1.433 . S
C353 N355 1.384 . S
N354 C350 1.427 . S
N354 C351 1.384 . S
N355 C347 1.427 . S
N355 C353 1.384 . S
H356 C362 0.930 . S
H357 C366 0.930 . S
H358 C371 0.929 . S
H359 C369 0.929 . S
H360 C364 0.929 . S
H361 C370 0.929 . S
C362 H356 0.930 . S
C362 C363 1.367 . S
C362 C370 1.378 . S
C363 C362 1.367 . S
C363 C371 1.433 . S
C364 H360 0.929 . S
C364 C366 1.378 . S
C364 C368 1.350 . S
C365 C368 1.463 . S
C365 C370 1.350 . S
C365 N373 1.427 . S
C366 H357 0.930 . S
C366 C364 1.378 . S
C366 C367 1.367 . S
C367 C366 1.367 . S
C367 C369 1.433 . S
C368 C364 1.350 . S
C368 C365 1.463 . S
C368 N372 1.427 . S
C369 H359 0.929 . S
C369 C367 1.433 . S
C369 N372 1.384 . S
C370 H361 0.929 . S
C370 C362 1.378 . S
C370 C365 1.350 . S
C371 H358 0.929 . S
C371 C363 1.433 . S
C371 N373 1.384 . S
N372 C368 1.427 . S
N372 C369 1.384 . S
N373 C365 1.427 . S
N373 C371 1.384 . S
H374 C380 0.930 . S
H375 C384 0.930 . S
H376 C389 0.929 . S
H377 C387 0.929 . S
H378 C382 0.929 . S
H379 C388 0.929 . S
C380 H374 0.930 . S
C380 C381 1.367 . S
C380 C388 1.378 . S
C381 C380 1.367 . S
C381 C389 1.433 . S
C382 H378 0.929 . S
C382 C384 1.378 . S
C382 C386 1.350 . S
C383 C386 1.463 . S
C383 C388 1.350 . S
C383 N391 1.427 . S
C384 H375 0.930 . S
C384 C382 1.378 . S
C384 C385 1.367 . S
C385 C384 1.367 . S
C385 C387 1.433 . S
C386 C382 1.350 . S
C386 C383 1.463 . S
C386 N390 1.427 . S
C387 H377 0.929 . S
C387 C385 1.433 . S
C387 N390 1.384 . S
C388 H379 0.929 . S
C388 C380 1.378 . S
C388 C383 1.350 . S
C389 H376 0.929 . S
C389 C381 1.433 . S
C389 N391 1.384 . S
N390 C386 1.427 . S
N390 C387 1.384 . S
N391 C383 1.427 . S
N391 C389 1.384 . S
H392 C398 0.930 . S
H393 C402 0.930 . S
H394 C407 0.929 . S
H395 C405 0.929 . S
H396 C400 0.929 . S
H397 C406 0.929 . S
C398 H392 0.930 . S
C398 C399 1.367 . S
C398 C406 1.378 . S
C399 C398 1.367 . S
C399 C407 1.433 . S
C400 H396 0.929 . S
C400 C402 1.378 . S
C400 C404 1.350 . S
C401 C404 1.463 1_565 S
C401 C406 1.350 . S
C401 N409 1.427 . S
C402 H393 0.930 . S
C402 C400 1.378 . S
C402 C403 1.367 . S
C403 C402 1.367 . S
C403 C405 1.433 . S
C404 C400 1.350 . S
C404 C401 1.463 1_545 S
C404 N408 1.427 . S
C405 H395 0.929 . S
C405 C403 1.433 . S
C405 N408 1.384 . S
C406 H397 0.929 . S
C406 C398 1.378 . S
C406 C401 1.350 . S
C407 H394 0.929 . S
C407 C399 1.433 . S
C407 N409 1.384 . S
N408 C404 1.427 . S
N408 C405 1.384 . S
N409 C401 1.427 . S
N409 C407 1.384 . S
H410 C416 0.930 . S
H411 C420 0.930 . S
H412 C425 0.929 . S
H413 C423 0.929 . S
H414 C418 0.929 . S
H415 C424 0.929 . S
C416 H410 0.930 . S
C416 C417 1.367 . S
C416 C424 1.378 . S
C417 C416 1.367 . S
C417 C425 1.433 . S
C418 H414 0.929 . S
C418 C420 1.378 . S
C418 C422 1.350 . S
C419 C422 1.463 . S
C419 C424 1.350 . S
C419 N427 1.427 . S
C420 H411 0.930 . S
C420 C418 1.378 . S
C420 C421 1.367 . S
C421 C420 1.367 . S
C421 C423 1.433 . S
C422 C418 1.350 . S
C422 C419 1.463 . S
C422 N426 1.427 . S
C423 H413 0.929 . S
C423 C421 1.433 . S
C423 N426 1.384 . S
C424 H415 0.929 . S
C424 C416 1.378 . S
C424 C419 1.350 . S
C425 H412 0.929 . S
C425 C417 1.433 . S
C425 N427 1.384 . S
N426 C422 1.427 . S
N426 C423 1.384 . S
N427 C419 1.427 . S
N427 C425 1.384 . S
H428 C434 0.930 . S
H429 C438 0.930 . S
H430 C443 0.929 . S
H431 C441 0.929 . S
H432 C436 0.929 . S
H433 C442 0.929 . S
C434 H428 0.930 . S
C434 C435 1.367 . S
C434 C442 1.378 . S
C435 C434 1.367 . S
C435 C443 1.433 . S
C436 H432 0.929 . S
C436 C438 1.378 . S
C436 C440 1.350 . S
C437 C440 1.463 1_565 S
C437 C442 1.350 . S
C437 N445 1.427 . S
C438 H429 0.930 . S
C438 C436 1.378 . S
C438 C439 1.367 . S
C439 C438 1.367 . S
C439 C441 1.433 . S
C440 C436 1.350 . S
C440 C437 1.463 1_545 S
C440 N444 1.427 . S
C441 H431 0.929 . S
C441 C439 1.433 . S
C441 N444 1.384 . S
C442 H433 0.929 . S
C442 C434 1.378 . S
C442 C437 1.350 . S
C443 H430 0.929 . S
C443 C435 1.433 . S
C443 N445 1.384 . S
N444 C440 1.427 . S
N444 C441 1.384 . S
N445 C437 1.427 . S
N445 C443 1.384 . S
H446 C452 0.930 . S
H447 C456 0.930 . S
H448 C461 0.929 . S
H449 C459 0.929 . S
H450 C454 0.929 . S
H451 C460 0.929 . S
C452 H446 0.930 . S
C452 C453 1.367 . S
C452 C460 1.378 . S
C453 C452 1.367 . S
C453 C461 1.433 . S
C454 H450 0.929 . S
C454 C456 1.378 . S
C454 C458 1.350 . S
C455 C458 1.463 . S
C455 C460 1.350 . S
C455 N463 1.427 . S
C456 H447 0.930 . S
C456 C454 1.378 . S
C456 C457 1.367 . S
C457 C456 1.367 . S
C457 C459 1.433 . S
C458 C454 1.350 . S
C458 C455 1.463 . S
C458 N462 1.427 . S
C459 H449 0.929 . S
C459 C457 1.433 . S
C459 N462 1.384 . S
C460 H451 0.929 . S
C460 C452 1.378 . S
C460 C455 1.350 . S
C461 H448 0.929 . S
C461 C453 1.433 . S
C461 N463 1.384 . S
N462 C458 1.427 . S
N462 C459 1.384 . S
N463 C455 1.427 . S
N463 C461 1.384 . S
H464 C470 0.930 . S
H465 C474 0.930 . S
H466 C479 0.929 . S
H467 C477 0.929 . S
H468 C472 0.929 . S
H469 C478 0.929 . S
C470 H464 0.930 . S
C470 C471 1.369 . S
C470 C478 1.378 . S
C471 C470 1.369 . S
C471 C479 1.431 1_556 S
C472 H468 0.929 . S
C472 C474 1.378 . S
C472 C476 1.350 . S
C473 C476 1.463 1_556 S
C473 C478 1.350 . S
C473 N481 1.427 1_556 S
C474 H465 0.930 . S
C474 C472 1.378 . S
C474 C475 1.371 . S
C475 C474 1.371 . S
C475 C477 1.429 1_554 S
C476 C472 1.350 . S
C476 C473 1.463 1_554 S
C476 N480 1.427 1_554 S
C477 H467 0.929 . S
C477 C475 1.429 1_556 S
C477 N480 1.384 . S
C478 H469 0.929 . S
C478 C470 1.378 . S
C478 C473 1.350 . S
C479 H466 0.929 . S
C479 C471 1.431 1_554 S
C479 N481 1.384 . S
N480 C476 1.427 1_556 S
N480 C477 1.384 . S
N481 C473 1.427 1_554 S
N481 C479 1.384 . S
H482 C488 0.930 . S
H483 C492 0.930 . S
H484 C497 0.929 . S
H485 C495 0.929 . S
H486 C490 0.929 . S
H487 C496 0.929 . S
C488 H482 0.930 . S
C488 C489 1.374 . S
C488 C496 1.378 . S
C489 C488 1.374 . S
C489 C497 1.426 1_556 S
C490 H486 0.929 . S
C490 C492 1.378 . S
C490 C494 1.350 . S
C491 C494 1.463 1_566 S
C491 C496 1.350 . S
C491 N499 1.427 1_556 S
C492 H483 0.930 . S
C492 C490 1.378 . S
C492 C493 1.377 . S
C493 C492 1.377 . S
C493 C495 1.423 1_554 S
C494 C490 1.350 . S
C494 C491 1.463 1_544 S
C494 N498 1.427 1_554 S
C495 H485 0.929 . S
C495 C493 1.423 1_556 S
C495 N498 1.384 . S
C496 H487 0.929 . S
C496 C488 1.378 . S
C496 C491 1.350 . S
C497 H484 0.929 . S
C497 C489 1.426 1_554 S
C497 N499 1.384 . S
N498 C494 1.427 1_556 S
N498 C495 1.384 . S
N499 C491 1.427 1_554 S
N499 C497 1.384 . S
H500 C506 0.930 . S
H501 C510 0.930 . S
H502 C515 0.929 . S
H503 C513 0.929 . S
H504 C508 0.929 . S
H505 C514 0.929 . S
C506 H500 0.930 . S
C506 C507 1.379 . S
C506 C514 1.378 . S
C507 C506 1.379 . S
C507 C515 1.421 1_556 S
C508 H504 0.929 . S
C508 C510 1.378 . S
C508 C512 1.350 . S
C509 C512 1.463 1_556 S
C509 C514 1.350 . S
C509 N517 1.427 1_556 S
C510 H501 0.930 . S
C510 C508 1.378 . S
C510 C511 1.376 . S
C511 C510 1.376 . S
C511 C513 1.424 1_554 S
C512 C508 1.350 . S
C512 C509 1.463 1_554 S
C512 N516 1.427 1_554 S
C513 H503 0.929 . S
C513 C511 1.424 1_556 S
C513 N516 1.384 . S
C514 H505 0.929 . S
C514 C506 1.378 . S
C514 C509 1.350 . S
C515 H502 0.929 . S
C515 C507 1.421 1_554 S
C515 N517 1.384 . S
N516 C512 1.427 1_556 S
N516 C513 1.384 . S
N517 C509 1.427 1_554 S
N517 C515 1.384 . S
H518 C524 0.930 . S
H519 C528 0.930 . S
H520 C533 0.929 . S
H521 C531 0.929 . S
H522 C526 0.929 . S
H523 C532 0.929 . S
C524 H518 0.930 . S
C524 C525 1.367 . S
C524 C532 1.378 . S
C525 C524 1.367 . S
C525 C533 1.433 1_554 S
C526 H522 0.929 . S
C526 C528 1.378 . S
C526 C530 1.350 . S
C527 C530 1.463 1_544 S
C527 C532 1.350 . S
C527 N535 1.427 1_554 S
C528 H519 0.930 . S
C528 C526 1.378 . S
C528 C529 1.367 . S
C529 C528 1.367 . S
C529 C531 1.433 1_556 S
C530 C526 1.350 . S
C530 C527 1.463 1_566 S
C530 N534 1.427 1_556 S
C531 H521 0.929 . S
C531 C529 1.433 1_554 S
C531 N534 1.384 . S
C532 H523 0.929 . S
C532 C524 1.378 . S
C532 C527 1.350 . S
C533 H520 0.929 . S
C533 C525 1.433 1_556 S
C533 N535 1.384 . S
N534 C530 1.427 1_554 S
N534 C531 1.384 . S
N535 C527 1.427 1_556 S
N535 C533 1.384 . S
H536 C542 0.930 . S
H537 C546 0.930 . S
H538 C551 0.929 . S
H539 C549 0.929 . S
H540 C544 0.929 . S
H541 C550 0.929 . S
C542 H536 0.930 . S
C542 C543 1.367 . S
C542 C550 1.378 . S
C543 C542 1.367 . S
C543 C551 1.433 . S
C544 H540 0.929 . S
C544 C546 1.378 . S
C544 C548 1.350 . S
C545 C548 1.463 . S
C545 C550 1.350 1_556 S
C545 N553 1.427 1_556 S
C546 H537 0.930 . S
C546 C544 1.378 . S
C546 C547 1.367 . S
C547 C546 1.367 . S
C547 C549 1.433 . S
C548 C544 1.350 . S
C548 C545 1.463 . S
C548 N552 1.427 . S
C549 H539 0.929 . S
C549 C547 1.433 . S
C549 N552 1.384 . S
C550 H541 0.929 . S
C550 C542 1.378 . S
C550 C545 1.350 1_554 S
C551 H538 0.929 . S
C551 C543 1.433 . S
C551 N553 1.384 . S
N552 C548 1.427 . S
N552 C549 1.384 . S
N553 C545 1.427 1_554 S
N553 C551 1.384 . S
H554 C560 0.930 . S
H555 C564 0.930 . S
H556 C569 0.929 . S
H557 C567 0.929 . S
H558 C562 0.929 . S
H559 C568 0.929 1_556 S
C560 H554 0.930 . S
C560 C561 1.367 . S
C560 C568 1.378 . S
C561 C560 1.367 . S
C561 C569 1.433 . S
C562 H558 0.929 . S
C562 C564 1.378 . S
C562 C566 1.350 . S
C563 C566 1.463 . S
C563 C568 1.350 1_556 S
C563 N571 1.427 1_556 S
C564 H555 0.930 . S
C564 C562 1.378 . S
C564 C565 1.367 . S
C565 C564 1.367 . S
C565 C567 1.433 . S
C566 C562 1.350 . S
C566 C563 1.463 . S
C566 N570 1.427 . S
C567 H557 0.929 . S
C567 C565 1.433 . S
C567 N570 1.384 . S
C568 H559 0.929 1_554 S
C568 C560 1.378 . S
C568 C563 1.350 1_554 S
C569 H556 0.929 . S
C569 C561 1.433 . S
C569 N571 1.384 . S
N570 C566 1.427 . S
N570 C567 1.384 . S
N571 C563 1.427 1_554 S
N571 C569 1.384 . S
H572 C578 0.930 . S
H573 C582 0.930 . S
H574 C587 0.929 . S
H575 C585 0.929 . S
H576 C580 0.929 1_554 S
H577 C586 0.929 . S
C578 H572 0.930 . S
C578 C579 1.367 . S
C578 C586 1.378 . S
C579 C578 1.367 . S
C579 C587 1.433 . S
C580 H576 0.929 1_556 S
C580 C582 1.378 . S
C580 C584 1.350 1_556 S
C581 C584 1.463 . S
C581 C586 1.350 . S
C581 N589 1.427 . S
C582 H573 0.930 . S
C582 C580 1.378 . S
C582 C583 1.367 . S
C583 C582 1.367 . S
C583 C585 1.433 . S
C584 C580 1.350 1_554 S
C584 C581 1.463 . S
C584 N588 1.427 1_554 S
C585 H575 0.929 . S
C585 C583 1.433 . S
C585 N588 1.384 . S
C586 H577 0.929 . S
C586 C578 1.378 . S
C586 C581 1.350 . S
C587 H574 0.929 . S
C587 C579 1.433 . S
C587 N589 1.384 . S
N588 C584 1.427 1_556 S
N588 C585 1.384 . S
N589 C581 1.427 . S
N589 C587 1.384 . S
H590 C596 0.930 . S
H591 C600 0.930 . S
H592 C605 0.929 . S
H593 C603 0.929 . S
H594 C598 0.929 . S
H595 C604 0.929 1_554 S
C596 H590 0.930 . S
C596 C597 1.367 . S
C596 C604 1.378 . S
C597 C596 1.367 . S
C597 C605 1.433 . S
C598 H594 0.929 . S
C598 C600 1.378 . S
C598 C602 1.350 . S
C599 C602 1.463 . S
C599 C604 1.350 1_554 S
C599 N607 1.427 1_554 S
C600 H591 0.930 . S
C600 C598 1.378 . S
C600 C601 1.367 . S
C601 C600 1.367 . S
C601 C603 1.433 . S
C602 C598 1.350 . S
C602 C599 1.463 . S
C602 N606 1.427 . S
C603 H593 0.929 . S
C603 C601 1.433 . S
C603 N606 1.384 . S
C604 H595 0.929 1_556 S
C604 C596 1.378 . S
C604 C599 1.350 1_556 S
C605 H592 0.929 . S
C605 C597 1.433 . S
C605 N607 1.384 . S
N606 C602 1.427 . S
N606 C603 1.384 . S
N607 C599 1.427 1_556 S
N607 C605 1.384 . S
H608 C614 0.930 . S
H609 C618 0.930 . S
H610 C623 0.929 . S
H611 C621 0.929 . S
H612 C616 0.929 . S
H613 C622 0.929 . S
C614 H608 0.930 . S
C614 C615 1.367 . S
C614 C622 1.378 . S
C615 C614 1.367 . S
C615 C623 1.433 . S
C616 H612 0.929 . S
C616 C618 1.378 . S
C616 C620 1.350 . S
C617 C620 1.463 . S
C617 C622 1.350 . S
C617 N625 1.427 . S
C618 H609 0.930 . S
C618 C616 1.378 . S
C618 C619 1.367 . S
C619 C618 1.367 . S
C619 C621 1.433 . S
C620 C616 1.350 . S
C620 C617 1.463 . S
C620 N624 1.427 . S
C621 H611 0.929 . S
C621 C619 1.433 . S
C621 N624 1.384 . S
C622 H613 0.929 . S
C622 C614 1.378 . S
C622 C617 1.350 . S
C623 H610 0.929 . S
C623 C615 1.433 . S
C623 N625 1.384 . S
N624 C620 1.427 . S
N624 C621 1.384 . S
N625 C617 1.427 . S
N625 C623 1.384 . S
H626 C632 0.930 . S
H627 C636 0.930 . S
H628 C641 0.929 . S
H629 C639 0.929 . S
H630 C634 0.929 . S
H631 C640 0.929 . S
C632 H626 0.930 . S
C632 C633 1.367 . S
C632 C640 1.378 . S
C633 C632 1.367 . S
C633 C641 1.433 . S
C634 H630 0.929 . S
C634 C636 1.378 . S
C634 C638 1.350 . S
C635 C638 1.463 . S
C635 C640 1.350 . S
C635 N643 1.427 . S
C636 H627 0.930 . S
C636 C634 1.378 . S
C636 C637 1.367 . S
C637 C636 1.367 . S
C637 C639 1.433 . S
C638 C634 1.350 . S
C638 C635 1.463 . S
C638 N642 1.427 . S
C639 H629 0.929 . S
C639 C637 1.433 . S
C639 N642 1.384 . S
C640 H631 0.929 . S
C640 C632 1.378 . S
C640 C635 1.350 . S
C641 H628 0.929 . S
C641 C633 1.433 . S
C641 N643 1.384 . S
N642 C638 1.427 . S
N642 C639 1.384 . S
N643 C635 1.427 . S
N643 C641 1.384 . S
H644 C650 0.930 . S
H645 C654 0.930 . S
H646 C659 0.929 . S
H647 C657 0.929 . S
H648 C652 0.929 . S
H649 C658 0.929 . S
C650 H644 0.930 . S
C650 C651 1.367 . S
C650 C658 1.378 . S
C651 C650 1.367 . S
C651 C659 1.433 . S
C652 H648 0.929 . S
C652 C654 1.378 . S
C652 C656 1.350 . S
C653 C656 1.463 . S
C653 C658 1.350 . S
C653 N661 1.427 . S
C654 H645 0.930 . S
C654 C652 1.378 . S
C654 C655 1.367 . S
C655 C654 1.367 . S
C655 C657 1.433 . S
C656 C652 1.350 . S
C656 C653 1.463 . S
C656 N660 1.427 . S
C657 H647 0.929 . S
C657 C655 1.433 . S
C657 N660 1.384 . S
C658 H649 0.929 . S
C658 C650 1.378 . S
C658 C653 1.350 . S
C659 H646 0.929 . S
C659 C651 1.433 . S
C659 N661 1.384 . S
N660 C656 1.427 . S
N660 C657 1.384 . S
N661 C653 1.427 . S
N661 C659 1.384 . S
H662 C668 0.930 . S
H663 C672 0.930 . S
H664 C677 0.929 . S
H665 C675 0.929 . S
H666 C670 0.929 . S
H667 C676 0.929 . S
C668 H662 0.930 . S
C668 C669 1.367 . S
C668 C676 1.378 . S
C669 C668 1.367 . S
C669 C677 1.433 . S
C670 H666 0.929 . S
C670 C672 1.378 . S
C670 C674 1.350 . S
C671 C674 1.463 . S
C671 C676 1.350 . S
C671 N679 1.427 . S
C672 H663 0.930 . S
C672 C670 1.378 . S
C672 C673 1.367 . S
C673 C672 1.367 . S
C673 C675 1.433 . S
C674 C670 1.350 . S
C674 C671 1.463 . S
C674 N678 1.427 . S
C675 H665 0.929 . S
C675 C673 1.433 . S
C675 N678 1.384 . S
C676 H667 0.929 . S
C676 C668 1.378 . S
C676 C671 1.350 . S
C677 H664 0.929 . S
C677 C669 1.433 . S
C677 N679 1.384 . S
N678 C674 1.427 . S
N678 C675 1.384 . S
N679 C671 1.427 . S
N679 C677 1.384 . S
H680 C686 0.930 . S
H681 C690 0.930 . S
H682 C695 0.929 . S
H683 C693 0.929 . S
H684 C688 0.929 . S
H685 C694 0.929 . S
C686 H680 0.930 . S
C686 C687 1.367 . S
C686 C694 1.378 . S
C687 C686 1.367 . S
C687 C695 1.433 . S
C688 H684 0.929 . S
C688 C690 1.378 . S
C688 C692 1.350 . S
C689 C692 1.463 1_455 S
C689 C694 1.350 . S
C689 N697 1.427 . S
C690 H681 0.930 . S
C690 C688 1.378 . S
C690 C691 1.367 . S
C691 C690 1.367 . S
C691 C693 1.433 . S
C692 C688 1.350 . S
C692 C689 1.463 1_655 S
C692 N696 1.427 . S
C693 H683 0.929 . S
C693 C691 1.433 . S
C693 N696 1.384 . S
C694 H685 0.929 . S
C694 C686 1.378 . S
C694 C689 1.350 . S
C695 H682 0.929 . S
C695 C687 1.433 . S
C695 N697 1.384 . S
N696 C692 1.427 . S
N696 C693 1.384 . S
N697 C689 1.427 . S
N697 C695 1.384 . S
H698 C704 0.930 . S
H699 C708 0.930 . S
H700 C713 0.929 . S
H701 C711 0.929 . S
H702 C706 0.929 . S
H703 C712 0.929 . S
C704 H698 0.930 . S
C704 C705 1.367 . S
C704 C712 1.378 . S
C705 C704 1.367 . S
C705 C713 1.433 . S
C706 H702 0.929 . S
C706 C708 1.378 . S
C706 C710 1.350 . S
C707 C710 1.463 1_655 S
C707 C712 1.350 . S
C707 N715 1.427 . S
C708 H699 0.930 . S
C708 C706 1.378 . S
C708 C709 1.367 . S
C709 C708 1.367 . S
C709 C711 1.433 . S
C710 C706 1.350 . S
C710 C707 1.463 1_455 S
C710 N714 1.427 . S
C711 H701 0.929 . S
C711 C709 1.433 . S
C711 N714 1.384 . S
C712 H703 0.929 . S
C712 C704 1.378 . S
C712 C707 1.350 . S
C713 H700 0.929 . S
C713 C705 1.433 . S
C713 N715 1.384 . S
N714 C710 1.427 . S
N714 C711 1.384 . S
N715 C707 1.427 . S
N715 C713 1.384 . S
H716 C722 0.930 . S
H717 C726 0.930 . S
H718 C731 0.929 . S
H719 C729 0.929 . S
H720 C724 0.929 . S
H721 C730 0.929 . S
C722 H716 0.930 . S
C722 C723 1.367 . S
C722 C730 1.378 . S
C723 C722 1.367 . S
C723 C731 1.433 . S
C724 H720 0.929 . S
C724 C726 1.378 . S
C724 C728 1.350 . S
C725 C728 1.463 . S
C725 C730 1.350 . S
C725 N733 1.427 . S
C726 H717 0.930 . S
C726 C724 1.378 . S
C726 C727 1.367 . S
C727 C726 1.367 . S
C727 C729 1.433 . S
C728 C724 1.350 . S
C728 C725 1.463 . S
C728 N732 1.427 . S
C729 H719 0.929 . S
C729 C727 1.433 . S
C729 N732 1.384 . S
C730 H721 0.929 . S
C730 C722 1.378 . S
C730 C725 1.350 . S
C731 H718 0.929 . S
C731 C723 1.433 . S
C731 N733 1.384 . S
N732 C728 1.427 . S
N732 C729 1.384 . S
N733 C725 1.427 . S
N733 C731 1.384 . S
H734 C740 0.930 . S
H735 C744 0.930 . S
H736 C749 0.929 . S
H737 C747 0.929 . S
H738 C742 0.929 . S
H739 C748 0.929 . S
C740 H734 0.930 . S
C740 C741 1.367 . S
C740 C748 1.378 . S
C741 C740 1.367 . S
C741 C749 1.433 . S
C742 H738 0.929 . S
C742 C744 1.378 . S
C742 C746 1.350 . S
C743 C746 1.463 . S
C743 C748 1.350 . S
C743 N751 1.427 . S
C744 H735 0.930 . S
C744 C742 1.378 . S
C744 C745 1.367 . S
C745 C744 1.367 . S
C745 C747 1.433 . S
C746 C742 1.350 . S
C746 C743 1.463 . S
C746 N750 1.427 . S
C747 H737 0.929 . S
C747 C745 1.433 . S
C747 N750 1.384 . S
C748 H739 0.929 . S
C748 C740 1.378 . S
C748 C743 1.350 . S
C749 H736 0.929 . S
C749 C741 1.433 . S
C749 N751 1.384 . S
N750 C746 1.427 . S
N750 C747 1.384 . S
N751 C743 1.427 . S
N751 C749 1.384 . S
C327 C6 1.698 . S
C331 C286 1.697 . S
C345 C246 1.700 . S
C349 C46 1.702 . S
C363 C206 1.701 . S
C367 C86 1.702 . S
C381 C166 1.703 . S
C385 C126 1.701 . S
C399 C89 1.845 . S
C403 C9 1.837 . S
C417 C49 1.846 . S
C421 C129 1.835 . S
C435 C138 1.287 . S
C439 C58 1.272 . S
C453 C98 1.282 . S
C457 C18 1.292 . S
C471 C169 1.706 . S
C475 C249 1.715 . S
C489 C209 1.707 . S
C493 C289 1.713 . S
C507 C298 1.153 . S
C511 C218 1.151 . S
C525 C258 1.148 1_554 S
C529 C178 1.163 1_556 S
C543 C19 2.083 . S
C547 C10 2.083 . S
C561 C59 2.088 . S
C565 C50 2.088 . S
C579 C90 2.085 . S
C583 C99 2.085 . S
C597 C139 2.089 . S
C601 C130 2.089 . S
C615 C170 2.080 . S
C619 C179 2.080 . S
C633 C219 2.089 . S
C637 C210 2.089 . S
C651 C259 2.086 . S
C655 C250 2.086 . S
C669 C299 2.086 . S
C673 C290 2.086 . S
C687 C15 2.349 . S
C691 C55 2.341 . S
C705 C135 2.341 . S
C709 C95 2.349 . S
C723 C175 2.343 . S
C727 C215 2.351 . S
C741 C295 2.342 . S
C745 C255 2.350 . S
