# Generated by pormake.
# Topology sml, (6)-cn, num edge types: 1
# Building blocks:
#     Node 0, Type 0, BuildingBlock: HISSIN_clean_sbu_0, # of connection points: 6
#     Node 1, Type 0, BuildingBlock: HISSIN_clean_sbu_0, # of connection points: 6
#     Node 2, Type 0, BuildingBlock: HISSIN_clean_sbu_0, # of connection points: 6
#     Node 3, Type 0, BuildingBlock: HISSIN_clean_sbu_0, # of connection points: 6
#     Node 4, Type 0, BuildingBlock: HISSIN_clean_sbu_0, # of connection points: 6
#     Node 5, Type 0, BuildingBlock: HISSIN_clean_sbu_0, # of connection points: 6
#     Edge 6, Type (0, 0), BuildingBlock: AJUNOK_clean_linker_0, # of connection points: 2
#     Edge 7, Type (0, 0), BuildingBlock: AJUNOK_clean_linker_0, # of connection points: 2
#     Edge 8, Type (0, 0), BuildingBlock: AJUNOK_clean_linker_0, # of connection points: 2
#     Edge 9, Type (0, 0), BuildingBlock: AJUNOK_clean_linker_0, # of connection points: 2
#     Edge 10, Type (0, 0), BuildingBlock: AJUNOK_clean_linker_0, # of connection points: 2
#     Edge 11, Type (0, 0), BuildingBlock: AJUNOK_clean_linker_0, # of connection points: 2
#     Edge 12, Type (0, 0), BuildingBlock: AJUNOK_clean_linker_0, # of connection points: 2
#     Edge 13, Type (0, 0), BuildingBlock: AJUNOK_clean_linker_0, # of connection points: 2
#     Edge 14, Type (0, 0), BuildingBlock: AJUNOK_clean_linker_0, # of connection points: 2
#     Edge 15, Type (0, 0), BuildingBlock: AJUNOK_clean_linker_0, # of connection points: 2
#     Edge 16, Type (0, 0), BuildingBlock: AJUNOK_clean_linker_0, # of connection points: 2
#     Edge 17, Type (0, 0), BuildingBlock: AJUNOK_clean_linker_0, # of connection points: 2
#     Edge 18, Type (0, 0), BuildingBlock: AJUNOK_clean_linker_0, # of connection points: 2
#     Edge 19, Type (0, 0), BuildingBlock: AJUNOK_clean_linker_0, # of connection points: 2
#     Edge 20, Type (0, 0), BuildingBlock: AJUNOK_clean_linker_0, # of connection points: 2
#     Edge 21, Type (0, 0), BuildingBlock: AJUNOK_clean_linker_0, # of connection points: 2
#     Edge 22, Type (0, 0), BuildingBlock: AJUNOK_clean_linker_0, # of connection points: 2
#     Edge 23, Type (0, 0), BuildingBlock: AJUNOK_clean_linker_0, # of connection points: 2
# Relax obj value: 0.240
# Max RMSD: 0.269
# Mean RMSD: 0.269
data_MOF--net-sml--node1-HISSIN_clean_sbu_0--edge1-AJUNOK_clean_linker_0
_symmetry_space_group_name_H-M    P1
_symmetry_Int_Tables_number       1
_symmetry_cell_setting            triclinic
loop_
_symmetry_equiv_pos_as_xyz
'x, y, z'
_cell_length_a     23.211029
_cell_length_b     22.856726
_cell_length_c     20.152838
_cell_angle_alpha  90.093777
_cell_angle_beta   89.151543
_cell_angle_gamma 120.02606
loop_
_atom_site_label
_atom_site_type_symbol
_atom_site_fract_x
_atom_site_fract_y
_atom_site_fract_z
_atom_type_partial_charge
Eu0 Eu 0.21674 0.39659 0.27215 0.0
Eu1 Eu 0.11862 0.40498 0.15409 0.0
C2 C 0.15285 0.49431 0.28443 0.0
C3 C 0.27047 0.40807 0.44539 0.0
C4 C 0.21394 0.41324 0.45953 0.0
C5 C 0.29272 0.41544 0.56398 0.0
C6 C 0.19654 0.419 0.52467 0.0
C7 C 0.31066 0.41036 0.49796 0.0
C8 C 0.23433 0.41806 0.57786 0.0
C9 C 0.28409 0.3982 0.37557 0.0
O10 O 0.22373 0.49093 0.14749 0.0
O11 O 0.2816 0.44084 0.17983 0.0
C12 C 0.27416 0.48114 0.13887 0.0
O13 O 0.19357 0.30824 0.20559 0.0
O14 O 0.1054 0.46779 0.08073 0.0
O15 O 0.04099 0.35921 0.07992 0.0
O16 O 0.1619 0.34407 0.11367 0.0
C17 C 0.18204 0.30591 0.14162 0.0
O18 O 0.11257 0.34819 0.31484 0.0
O19 O 0.04498 0.32461 0.22403 0.0
O20 O 0.10715 0.46143 0.23975 0.0
O21 O 0.23785 0.34266 0.34868 0.0
O22 O 0.30286 0.45041 0.3364 0.0
O23 O 0.20546 0.48751 0.291 0.0
C24 C 0.08344 0.41429 0.97564 0.0
C25 C 0.08221 0.3566 0.94921 0.0
C26 C 0.13383 0.47388 0.87151 0.0
C27 C 0.10626 0.35755 0.88495 0.0
C28 C 0.10868 0.47264 0.93564 0.0
C29 C 0.13292 0.41629 0.8456 0.0
C30 C 0.06396 0.4155 0.04616 0.0
C31 C 0.05358 0.31934 0.28765 0.0
H32 H 0.18237 0.41141 0.4198 0.0
H33 H 0.32308 0.4151 0.60411 0.0
H34 H 0.15259 0.42293 0.53378 0.0
H35 H 0.35481 0.40678 0.48819 0.0
H36 H 0.06385 0.31084 0.9785 0.0
H37 H 0.15367 0.51971 0.84202 0.0
H38 H 0.10531 0.31255 0.86645 0.0
H39 H 0.11032 0.51783 0.95457 0.0
Eu40 Eu 0.65396 0.12105 0.46364 0.0
Eu41 Eu 0.74447 0.2253 0.58442 0.0
C42 C 0.73197 0.28556 0.44707 0.0
C43 C 0.59006 0.07217 0.2923 0.0
C44 C 0.60498 0.13789 0.27509 0.0
C45 C 0.60103 0.05063 0.17587 0.0
C46 C 0.61713 0.15961 0.20907 0.0
C47 C 0.58743 0.02843 0.24204 0.0
C48 C 0.61647 0.11674 0.15863 0.0
C49 C 0.58412 0.05202 0.36282 0.0
O50 O 0.64399 0.21331 0.57061 0.0
O51 O 0.58778 0.1025 0.55488 0.0
C52 C 0.59324 0.15496 0.58652 0.0
O53 O 0.67966 0.05813 0.52848 0.0
O54 O 0.74744 0.29801 0.65696 0.0
O55 O 0.81786 0.26238 0.66309 0.0
O56 O 0.69744 0.11906 0.62423 0.0
C57 C 0.68459 0.06333 0.59326 0.0
O58 O 0.76002 0.17183 0.42543 0.0
O59 O 0.82058 0.21739 0.52067 0.0
O60 O 0.77046 0.29573 0.49805 0.0
O61 O 0.634 0.04714 0.3855 0.0
O62 O 0.56458 0.08299 0.40427 0.0
O63 O 0.67896 0.22675 0.43474 0.0
C64 C 0.76677 0.26955 0.76314 0.0
C65 C 0.74949 0.20388 0.78332 0.0
C66 C 0.72839 0.28653 0.8707 0.0
C67 C 0.72188 0.17966 0.84621 0.0
C68 C 0.75601 0.31077 0.80738 0.0
C69 C 0.71043 0.2204 0.89047 0.0
C70 C 0.78977 0.29212 0.69418 0.0
C71 C 0.81678 0.20233 0.45712 0.0
H72 H 0.60877 0.17317 0.31294 0.0
H73 H 0.60193 0.01682 0.13874 0.0
H74 H 0.62851 0.21064 0.19773 0.0
H75 H 0.57723 -0.02205 0.25425 0.0
H76 H 0.75686 0.1709 0.75016 0.0
H77 H 0.72018 0.3191 0.90386 0.0
H78 H 0.71009 0.12912 0.86043 0.0
H79 H 0.76805 0.36125 0.79263 0.0
Eu80 Eu 0.51249 0.75763 0.89999 0.0
Eu81 Eu 0.52722 0.66607 0.77945 0.0
C82 C 0.45029 0.6024 0.91288 0.0
C83 C 0.49189 0.78193 0.08035 0.0
C84 C 0.46332 0.71297 0.0968 0.0
C85 C 0.52967 0.81012 0.19411 0.0
C86 C 0.46792 0.69283 0.16106 0.0
C87 C 0.52454 0.83028 0.12979 0.0
C88 C 0.50208 0.74117 0.21015 0.0
C89 C 0.49155 0.80323 1.01099 0.0
O90 O 0.47033 0.70978 0.73411 0.0
O91 O 0.43042 0.73661 0.82744 0.0
C92 C 0.43125 0.72843 0.76264 0.0
O93 O 0.56066 0.8359 0.82016 0.0
O94 O 0.47841 0.58323 0.70885 0.0
O95 O 0.58606 0.63922 0.71381 0.0
O96 O 0.58912 0.77538 0.74659 0.0
C97 C 0.59027 0.83124 0.76579 0.0
O98 O 0.61821 0.78168 0.89695 0.0
O99 O 0.60041 0.67951 0.85925 0.0
O100 O 0.44112 0.59836 0.84871 0.0
O101 O 0.54897 0.83249 0.97964 0.0
O102 O 0.44375 0.75917 0.97388 0.0
O103 O 0.49728 0.65848 0.93689 0.0
C104 C 0.53753 0.616 0.60712 0.0
C105 C 0.5771 0.68329 0.58559 0.0
C106 C 0.49175 0.58616 0.49605 0.0
C107 C 0.57383 0.70188 0.52041 0.0
C108 C 0.49507 0.56746 0.56162 0.0
C109 C 0.53098 0.65384 0.4746 0.0
C110 C 0.53441 0.59882 0.67846 0.0
C111 C 0.63515 0.73513 0.89371 0.0
H112 H 0.4385 0.67448 0.05966 0.0
H113 H 0.55558 0.84844 0.23127 0.0
H114 H 0.44644 0.63943 0.17184 0.0
H115 H 0.5471 0.88366 0.11835 0.0
H116 H 0.60914 0.72236 0.61976 0.0
H117 H 0.4583 0.54762 0.46222 0.0
H118 H 0.60336 0.75469 0.50684 0.0
H119 H 0.46328 0.51542 0.57721 0.0
Eu120 Eu 0.81236 0.58013 0.12644 0.0
Eu121 Eu 0.73797 0.61503 0.25047 0.0
C122 C 0.65642 0.50859 0.13749 0.0
C123 C 0.84608 0.55214 0.94979 0.0
C124 C 0.77949 0.51924 0.92929 0.0
C125 C 0.88154 0.59142 0.83627 0.0
C126 C 0.76409 0.52294 0.86321 0.0
C127 C 0.89699 0.58743 0.90248 0.0
C128 C 0.81483 0.55992 0.81609 0.0
C129 C 0.86219 0.55449 1.0209 0.0
O130 O 0.7824 0.55731 0.29332 0.0
O131 O 0.7771 0.49509 0.20247 0.0
C132 C 0.77813 0.50297 0.26733 0.0
O133 O 0.88835 0.6293 0.2055 0.0
O134 O 0.66152 0.57866 0.32869 0.0
O135 O 0.73369 0.68538 0.32111 0.0
O136 O 0.84639 0.69461 0.24348 0.0
C137 C 0.89386 0.67945 0.24183 0.0
O138 O 0.81292 0.67688 0.1031 0.0
O139 O 0.71929 0.65928 0.16008 0.0
O140 O 0.66111 0.51846 0.20186 0.0
O141 O 0.88932 0.61402 0.04847 0.0
O142 O 0.81646 0.50758 0.05904 0.0
O143 O 0.70725 0.54292 0.09747 0.0
C144 C 0.70735 0.63473 0.42837 0.0
C145 C 0.77444 0.66265 0.44596 0.0
C146 C 0.67421 0.58614 0.5393 0.0
C147 C 0.79116 0.65197 0.50938 0.0
C148 C 0.65749 0.59703 0.47582 0.0
C149 C 0.74125 0.61233 0.55627 0.0
C150 C 0.68919 0.63677 0.35876 0.0
C151 C 0.76156 0.68596 0.10997 0.0
H152 H 0.73898 0.49253 0.96473 0.0
H153 H 0.92171 0.62038 0.80111 0.0
H154 H 0.71224 0.49966 0.84981 0.0
H155 H 0.94864 0.61359 0.91713 0.0
H156 H 0.81407 0.69068 0.40999 0.0
H157 H 0.63468 0.55639 0.57477 0.0
H158 H 0.84321 0.67242 0.52083 0.0
H159 H 0.60557 0.57393 0.46291 0.0
Eu160 Eu 0.13059 0.7553 0.59686 0.0
Eu161 Eu 0.22851 0.85687 0.47288 0.0
C162 C 0.28399 0.81201 0.59599 0.0
C163 C 0.08937 0.71669 0.77687 0.0
C164 C 0.12441 0.69274 0.81385 0.0
C165 C 0.10324 0.79345 0.8675 0.0
C166 C 0.15 0.72002 0.87601 0.0
C167 C 0.07793 0.76647 0.80513 0.0
C168 C 0.14078 0.77156 0.90292 0.0
C169 C 0.07105 0.69457 0.70704 0.0
O170 O 0.17582 0.75438 0.42971 0.0
O171 O 0.14791 0.68837 0.52439 0.0
C172 C 0.15696 0.69658 0.45926 0.0
O173 O 0.06139 0.73235 0.5132 0.0
O174 O 0.30996 0.88718 0.40112 0.0
O175 O 0.25521 0.94085 0.40397 0.0
O176 O 0.1225 0.83447 0.45907 0.0
C177 C 0.06808 0.77509 0.46626 0.0
O178 O 0.14355 0.85928 0.60224 0.0
O179 O 0.24915 0.92069 0.563 0.0
O180 O 0.28605 0.8174 0.5308 0.0
O181 O 0.05147 0.72878 0.67099 0.0
O182 O 0.11174 0.68079 0.67412 0.0
O183 O 0.23532 0.81039 0.63036 0.0
C184 C 0.28462 0.9174 0.29727 0.0
C185 C 0.24885 0.94241 0.26326 0.0
C186 C 0.28691 0.85967 0.19614 0.0
C187 C 0.23111 0.92505 0.19697 0.0
C188 C 0.30495 0.87729 0.26224 0.0
C189 C 0.24888 0.88246 0.16296 0.0
C190 C 0.29639 0.9287 0.3698 0.0
C191 C 0.20324 0.91178 0.60695 0.0
H192 H 0.1337 0.65414 0.79389 0.0
H193 H 0.09512 0.83291 0.88723 0.0
H194 H 0.17745 0.70108 0.9029 0.0
H195 H 0.05104 0.78608 0.77834 0.0
H196 H 0.23302 0.97406 0.28833 0.0
H197 H 0.30049 0.82585 0.17196 0.0
H198 H 0.20255 0.94417 0.17254 0.0
H199 H 0.33289 0.85739 0.28654 0.0
Eu200 Eu 0.39728 0.22018 0.85405 0.0
Eu201 Eu 0.39257 0.11612 0.97402 0.0
C202 C 0.49 0.15953 0.85085 0.0
C203 C 0.40284 0.26141 0.67554 0.0
C204 C 0.36995 0.19191 0.66167 0.0
C205 C 0.43636 0.28494 0.55927 0.0
C206 C 0.37045 0.16908 0.59758 0.0
C207 C 0.43614 0.30785 0.62387 0.0
C208 C 0.40379 0.21519 0.54563 0.0
C209 C 0.40484 0.28426 0.74447 0.0
O210 O 0.46768 0.22441 0.9997 0.0
O211 O 0.4341 0.28865 0.94123 0.0
C212 C 0.46596 0.28067 0.99053 0.0
O213 O 0.30379 0.19066 0.91294 0.0
O214 O 0.44829 0.09258 0.04534 0.0
O215 O 0.34063 0.0326 0.04426 0.0
O216 O 0.33192 0.16154 1.01136 0.0
C217 C 0.29664 0.1812 0.9775 0.0
O218 O 0.35472 0.11633 0.81444 0.0
O219 O 0.30766 0.04982 0.90682 0.0
O220 O 0.44896 0.10567 0.88553 0.0
O221 O 0.3499 0.25012 0.7792 0.0
O222 O 0.45703 0.29555 0.778 0.0
O223 O 0.49096 0.21579 0.86489 0.0
C224 C 0.39178 0.06592 0.14855 0.0
C225 C 0.35523 0.09718 0.16791 0.0
C226 C 0.43188 0.07789 0.26143 0.0
C227 C 0.35704 0.11863 0.23308 0.0
C228 C 0.42975 0.05591 0.19596 0.0
C229 C 0.39611 0.11013 0.28019 0.0
C230 C 0.39443 0.04972 0.07796 0.0
C231 C 0.31088 0.05948 0.84244 0.0
H232 H 0.34388 0.15492 0.70043 0.0
H233 H 0.46149 0.32174 0.51997 0.0
H234 H 0.34528 0.11513 0.58882 0.0
H235 H 0.46205 0.36165 0.6335 0.0
H236 H 0.32604 0.10617 0.13231 0.0
H237 H 0.46129 0.06976 0.29749 0.0
H238 H 0.3291 0.14339 0.24635 0.0
H239 H 0.45847 0.03217 0.18211 0.0
C240 C 0.2379 0.18445 0.08131 0.0
C241 C 0.25711 0.20504 1.01491 0.0
C242 C 0.21118 0.21538 0.12164 0.0
C243 C 0.20259 0.26792 0.09693 0.0
H244 H 0.24555 0.1456 0.10303 0.0
H245 H 0.19882 0.19921 0.17292 0.0
S246 S 0.24627 0.34158 0.92645 0.0
N247 N 0.26538 0.28117 0.92623 0.0
N248 N 0.21573 0.33935 1.00135 0.0
C249 C 0.21974 0.28757 1.02983 0.0
C250 C 0.24674 0.25603 0.98895 0.0
C251 C 0.93565 0.2296 0.31298 0.0
C252 C -0.00527 0.28704 0.33261 0.0
C253 C 0.87892 0.20069 0.3547 0.0
C254 C 0.87923 0.22847 0.41734 0.0
H255 H 0.93315 0.20705 0.26501 0.0
H256 H 0.83419 0.15688 0.33726 0.0
S257 S 0.01957 0.38354 0.48818 0.0
N258 N 0.04882 0.37332 0.41667 0.0
N259 N 0.94286 0.31942 0.49471 0.0
C260 C 0.93811 0.28619 0.4372 0.0
C261 C -0.00436 0.3154 0.39489 0.0
C262 C 0.68604 0.00992 0.70049 0.0
C263 C 0.66619 0.00261 0.63385 0.0
C264 C 0.66241 0.95397 0.74295 0.0
C265 C 0.6192 0.88877 0.71974 0.0
H266 H 0.71904 0.05935 0.72051 0.0
H267 H 0.67749 0.96179 0.79433 0.0
S268 S 0.54834 0.84203 0.55152 0.0
N269 N 0.59807 0.92469 0.54784 0.0
N270 N 0.55518 0.81939 0.62743 0.0
C271 C 0.59966 0.88026 0.65321 0.0
C272 C 0.62294 0.93725 0.61017 0.0
C273 C 0.66505 0.74653 1.01175 0.0
C274 C 0.67845 0.73567 0.94603 0.0
C275 C 0.69635 0.73538 0.06484 0.0
C276 C 0.74288 0.71404 0.05389 0.0
H277 H 0.62688 0.75944 1.0226 0.0
H278 H 0.6814 0.74014 0.11484 0.0
S279 S 0.80369 0.69117 0.88973 0.0
N280 N 0.74606 0.71055 0.8718 0.0
N281 N 0.80733 0.69142 0.97151 0.0
C282 C 0.76096 0.70889 0.98788 0.0
C283 C 0.72781 0.71891 0.93385 0.0
C284 C 0.00884 0.7945 0.37389 0.0
C285 C 0.02057 0.74991 0.41154 0.0
C286 C -0.03123 0.77188 0.31763 0.0
C287 C 0.94217 0.705 0.29565 0.0
H288 H 0.0303 0.84691 0.3883 0.0
H289 H -0.04126 0.80689 0.29101 0.0
S290 S -0.03944 0.56906 0.37535 0.0
N291 N 0.00133 0.63536 0.42346 0.0
N292 N 0.93156 0.59491 0.31474 0.0
C293 C 0.95496 0.66047 0.33196 0.0
C294 C -0.00736 0.68239 0.39085 0.0
C295 C 0.31534 -0.00801 0.75204 0.0
C296 C 0.27558 0.00371 0.7968 0.0
C297 C 0.29127 0.9627 0.69082 0.0
C298 C 0.22571 0.94247 0.67254 0.0
H299 H 0.36731 0.0108 0.76218 0.0
H300 H 0.32509 0.9571 0.65728 0.0
S301 S 0.09865 0.95354 0.77679 0.0
N302 N 0.16638 -0.01162 0.82229 0.0
N303 N 0.11886 0.92901 0.70735 0.0
C304 C 0.18342 0.94852 0.71928 0.0
C305 C 0.20883 -0.01999 0.78161 0.0
C306 C 0.22434 0.4649 0.75824 0.0
C307 C 0.15872 0.41659 0.77737 0.0
C308 C 0.24956 0.46427 0.6943 0.0
C309 C 0.20963 0.41593 0.64706 0.0
H310 H 0.25654 0.50301 0.79315 0.0
H311 H 0.30006 0.50261 0.68129 0.0
S312 S 0.03448 0.2791 0.6724 0.0
N313 N 0.05459 0.3196 0.74376 0.0
N314 N 0.10157 0.31821 0.62439 0.0
C315 C 0.14409 0.36744 0.66587 0.0
C316 C 0.11876 0.36781 0.73074 0.0
C317 C 0.69194 0.20801 0.0784 0.0
C318 C 0.63663 0.143 0.08942 0.0
C319 C 0.71418 0.2333 1.01405 0.0
C320 C 0.68232 0.19454 0.95796 0.0
H321 H 0.71963 0.23911 0.11986 0.0
H322 H 0.75801 0.2828 1.00824 0.0
S323 S 0.53176 0.0239 0.95897 0.0
N324 N 0.54782 0.04228 1.03824 0.0
N325 N 0.58997 0.08969 0.91736 0.0
C326 C 0.62591 0.13024 0.96804 0.0
C327 C 0.60307 0.10449 1.03364 0.0
C328 C 0.46217 0.64882 0.37668 0.0
C329 C 0.52517 0.67508 0.40588 0.0
C330 C 0.45505 0.67023 0.31351 0.0
C331 C 0.51049 0.7194 0.27722 0.0
H332 H 0.41768 0.61235 0.40333 0.0
H333 H 0.40559 0.64892 0.29333 0.0
S334 S 0.68673 0.80047 0.32789 0.0
N335 N 0.64461 0.74997 0.39062 0.0
N336 N 0.63061 0.79106 0.27311 0.0
C337 C 0.57371 0.74537 0.30511 0.0
C338 C 0.58119 0.72308 0.36901 0.0
C339 C 0.82793 0.63684 0.72131 0.0
C340 C 0.79774 0.57097 0.74803 0.0
C341 C 0.80925 0.64968 0.65954 0.0
C342 C 0.75959 0.59722 0.62196 0.0
H343 H 0.86522 0.67919 0.74907 0.0
H344 H 0.83319 0.70134 0.64154 0.0
S345 S 0.67035 0.41476 0.66609 0.0
N346 N 0.71923 0.45195 0.72971 0.0
N347 N 0.68399 0.47607 0.61375 0.0
C348 C 0.73012 0.53085 0.64727 0.0
C349 C 0.74926 0.51775 0.71015 0.0
C350 C 0.13004 0.80649 1.01849 0.0
C351 C 0.17021 0.80242 0.96785 0.0
C352 C 0.15622 0.83352 0.08079 0.0
C353 C 0.22376 0.85797 0.0949 0.0
H354 H 0.07754 0.78721 1.01038 0.0
H355 H 0.1228 0.8337 0.11879 0.0
S356 S 0.35154 0.86547 0.97662 0.0
N357 N 0.28188 0.82938 0.93423 0.0
N358 N 0.33127 0.88064 0.05099 0.0
C359 C 0.26491 0.85592 0.04395 0.0
C360 C 0.23813 0.82812 0.98058 0.0
C361 C 0.3432 0.13936 0.45043 0.0
C362 C 0.40341 0.18963 0.47757 0.0
C363 C 0.34136 0.1136 0.38679 0.0
C364 C 0.39978 0.13609 0.3484 0.0
H365 H 0.29692 0.12042 0.47827 0.0
H366 H 0.29386 0.07579 0.36743 0.0
S367 S 0.56956 0.26795 0.39529 0.0
N368 N 0.52271 0.26152 0.4604 0.0
N369 N 0.51899 0.21261 0.34093 0.0
C370 C 0.4602 0.1861 0.37479 0.0
C371 C 0.46206 0.21306 0.43926 0.0
C372 C 0.16031 0.5424 0.39679 0.0
C373 C 0.14665 0.54189 0.32892 0.0
C374 C 0.15964 0.59014 0.4399 0.0
C375 C 0.1476 0.64049 0.41589 0.0
H376 H 0.17243 0.50618 0.41669 0.0
H377 H 0.1718 0.58951 0.4915 0.0
S378 S 0.10918 0.66089 0.24153 0.0
N379 N 0.11864 0.59395 0.23987 0.0
N380 N 0.12098 0.68655 0.3193 0.0
C381 C 0.13322 0.64006 0.34786 0.0
C382 C 0.13174 0.58997 0.30472 0.0
C383 C 0.56338 0.20853 0.67707 0.0
C384 C 0.56007 0.14973 0.65158 0.0
C385 C 0.54315 0.21115 0.74197 0.0
C386 C 0.51692 0.15456 0.7847 0.0
H387 H 0.58323 0.25393 0.64689 0.0
H388 H 0.54799 0.25852 0.75825 0.0
S389 S 0.49894 -0.01213 0.74303 0.0
N390 N 0.53022 0.03333 0.67457 0.0
N391 N 0.49 0.03755 0.79681 0.0
C392 C 0.51287 0.09487 0.75999 0.0
C393 C 0.53444 0.09245 0.69336 0.0
C394 C 0.36972 0.49659 0.06562 0.0
C395 C 0.31675 0.50881 0.07804 0.0
C396 C 0.41011 0.52216 1.00828 0.0
C397 C 0.3975 0.55871 0.96027 0.0
H398 H 0.38131 0.46867 0.10121 0.0
H399 H 0.45303 0.51558 1.00269 0.0
S400 S 0.26715 0.60656 0.96832 0.0
N401 N 0.25541 0.56194 1.03662 0.0
N402 N 0.32993 0.60698 0.92849 0.0
C403 C 0.34376 0.5694 0.97065 0.0
C404 C 0.30374 0.54524 1.02961 0.0
C405 C 0.73763 0.33096 0.33338 0.0
C406 C 0.74769 0.34227 0.40194 0.0
C407 C 0.74978 0.38366 0.28964 0.0
C408 C 0.77151 0.44928 0.31321 0.0
H409 H 0.72018 0.28096 0.31337 0.0
H410 H 0.74038 0.37238 0.23737 0.0
S411 S 0.8053 0.50429 0.48937 0.0
N412 N 0.78159 0.42319 0.49158 0.0
N413 N 0.80271 0.52221 0.41059 0.0
C414 C 0.78216 0.46106 0.38205 0.0
C415 C 0.77088 0.4076 0.42611 0.0
C416 C 0.34201 0.81757 0.70011 0.0
C417 C 0.32986 0.79774 0.63317 0.0
C418 C 0.37344 0.7938 0.74198 0.0
C419 C 0.39383 0.74899 0.71865 0.0
H420 H 0.3256 0.85065 0.72089 0.0
H421 H 0.38201 0.81104 0.7929 0.0
S422 S 0.3724 0.68045 0.54744 0.0
N423 N 0.34023 0.73056 0.54539 0.0
N424 N 0.39921 0.68522 0.62379 0.0
C425 C 0.38274 0.72934 0.65136 0.0
C426 C 0.35104 0.75408 0.60862 0.0
C427 C 0.57611 0.46045 0.04633 0.0
C428 C 0.59717 0.45191 0.10873 0.0
C429 C 0.53058 0.40475 1.00982 0.0
C430 C 0.50599 0.33862 1.03391 0.0
H431 H 0.59729 0.51041 1.02432 0.0
H432 H 0.51763 0.41355 0.96087 0.0
S433 S 0.54168 0.29008 0.1973 0.0
N434 N 0.58671 0.3734 0.19551 0.0
N435 N 0.50143 0.26805 0.12656 0.0
C436 C 0.52389 0.3297 0.09796 0.0
C437 C 0.56943 0.38662 0.13558 0.0
loop_
_geom_bond_atom_site_label_1
_geom_bond_atom_site_label_2
_geom_bond_distance
_geom_bond_site_symmetry_2
_ccdc_geom_bond_type
Eu0 C9 2.828 . S
Eu0 O11 2.392 . S
Eu0 O13 2.418 . S
Eu0 O18 2.373 . S
Eu0 O21 2.488 . S
Eu0 O22 2.471 . S
Eu0 O23 2.349 . S
Eu1 O10 2.373 . S
Eu1 O14 2.488 1_554 S
Eu1 O15 2.471 1_554 S
Eu1 O16 2.349 . S
Eu1 O19 2.392 . S
Eu1 O20 2.418 . S
Eu1 C30 2.828 1_554 S
C2 O20 1.244 . S
C2 O23 1.265 . S
C3 C4 1.379 . S
C3 C7 1.373 . S
C3 C9 1.505 . S
C4 C3 1.379 . S
C4 C6 1.369 . S
C4 H32 0.930 . S
C5 C7 1.383 . S
C5 C8 1.382 . S
C5 H33 0.930 . S
C6 C4 1.369 . S
C6 C8 1.392 . S
C6 H34 0.930 . S
C7 C3 1.373 . S
C7 C5 1.383 . S
C7 H35 0.931 . S
C8 C5 1.382 . S
C8 C6 1.392 . S
C9 Eu0 2.828 . S
C9 C3 1.505 . S
C9 O21 1.249 . S
C9 O22 1.244 . S
O10 Eu1 2.373 . S
O10 C12 1.258 . S
O11 Eu0 2.392 . S
O11 C12 1.242 . S
C12 O10 1.258 . S
C12 O11 1.242 . S
O13 Eu0 2.418 . S
O13 C17 1.244 . S
O14 Eu1 2.488 1_556 S
O14 C30 1.249 . S
O15 Eu1 2.471 1_556 S
O15 C30 1.244 . S
O16 Eu1 2.349 . S
O16 C17 1.265 . S
C17 O13 1.244 . S
C17 O16 1.265 . S
O18 Eu0 2.373 . S
O18 C31 1.258 . S
O19 Eu1 2.392 . S
O19 C31 1.242 . S
O20 Eu1 2.418 . S
O20 C2 1.244 . S
O21 Eu0 2.488 . S
O21 C9 1.249 . S
O22 Eu0 2.471 . S
O22 C9 1.244 . S
O23 Eu0 2.349 . S
O23 C2 1.265 . S
C24 C25 1.379 . S
C24 C28 1.373 . S
C24 C30 1.505 . S
C25 C24 1.379 . S
C25 C27 1.369 . S
C25 H36 0.930 . S
C26 C28 1.383 . S
C26 C29 1.382 . S
C26 H37 0.930 . S
C27 C25 1.369 . S
C27 C29 1.392 . S
C27 H38 0.930 . S
C28 C24 1.373 . S
C28 C26 1.383 . S
C28 H39 0.931 . S
C29 C26 1.382 . S
C29 C27 1.392 . S
C30 Eu1 2.828 1_556 S
C30 O14 1.249 . S
C30 O15 1.244 . S
C30 C24 1.505 . S
C31 O18 1.258 . S
C31 O19 1.242 . S
H32 C4 0.930 . S
H33 C5 0.930 . S
H34 C6 0.930 . S
H35 C7 0.931 . S
H36 C25 0.930 . S
H37 C26 0.930 . S
H38 C27 0.930 . S
H39 C28 0.931 . S
Eu40 C49 2.828 . S
Eu40 O51 2.392 . S
Eu40 O53 2.418 . S
Eu40 O58 2.373 . S
Eu40 O61 2.488 . S
Eu40 O62 2.471 . S
Eu40 O63 2.349 . S
Eu41 O50 2.373 . S
Eu41 O54 2.488 . S
Eu41 O55 2.471 . S
Eu41 O56 2.349 . S
Eu41 O59 2.392 . S
Eu41 O60 2.418 . S
Eu41 C70 2.828 . S
C42 O60 1.244 . S
C42 O63 1.265 . S
C43 C44 1.379 . S
C43 C47 1.373 . S
C43 C49 1.505 . S
C44 C43 1.379 . S
C44 C46 1.369 . S
C44 H72 0.930 . S
C45 C47 1.383 . S
C45 C48 1.382 . S
C45 H73 0.930 . S
C46 C44 1.369 . S
C46 C48 1.392 . S
C46 H74 0.930 . S
C47 C43 1.373 . S
C47 C45 1.383 . S
C47 H75 0.931 . S
C48 C45 1.382 . S
C48 C46 1.392 . S
C49 Eu40 2.828 . S
C49 C43 1.505 . S
C49 O61 1.249 . S
C49 O62 1.244 . S
O50 Eu41 2.373 . S
O50 C52 1.258 . S
O51 Eu40 2.392 . S
O51 C52 1.242 . S
C52 O50 1.258 . S
C52 O51 1.242 . S
O53 Eu40 2.418 . S
O53 C57 1.244 . S
O54 Eu41 2.488 . S
O54 C70 1.249 . S
O55 Eu41 2.471 . S
O55 C70 1.244 . S
O56 Eu41 2.349 . S
O56 C57 1.265 . S
C57 O53 1.244 . S
C57 O56 1.265 . S
O58 Eu40 2.373 . S
O58 C71 1.258 . S
O59 Eu41 2.392 . S
O59 C71 1.242 . S
O60 Eu41 2.418 . S
O60 C42 1.244 . S
O61 Eu40 2.488 . S
O61 C49 1.249 . S
O62 Eu40 2.471 . S
O62 C49 1.244 . S
O63 Eu40 2.349 . S
O63 C42 1.265 . S
C64 C65 1.379 . S
C64 C68 1.373 . S
C64 C70 1.505 . S
C65 C64 1.379 . S
C65 C67 1.369 . S
C65 H76 0.930 . S
C66 C68 1.383 . S
C66 C69 1.382 . S
C66 H77 0.930 . S
C67 C65 1.369 . S
C67 C69 1.392 . S
C67 H78 0.930 . S
C68 C64 1.373 . S
C68 C66 1.383 . S
C68 H79 0.931 . S
C69 C66 1.382 . S
C69 C67 1.392 . S
C70 Eu41 2.828 . S
C70 O54 1.249 . S
C70 O55 1.244 . S
C70 C64 1.505 . S
C71 O58 1.258 . S
C71 O59 1.242 . S
H72 C44 0.930 . S
H73 C45 0.930 . S
H74 C46 0.930 . S
H75 C47 0.931 . S
H76 C65 0.930 . S
H77 C66 0.930 . S
H78 C67 0.930 . S
H79 C68 0.931 . S
Eu80 C89 2.828 . S
Eu80 O91 2.392 . S
Eu80 O93 2.418 . S
Eu80 O98 2.373 . S
Eu80 O101 2.488 . S
Eu80 O102 2.471 . S
Eu80 O103 2.349 . S
Eu81 O90 2.373 . S
Eu81 O94 2.488 . S
Eu81 O95 2.471 . S
Eu81 O96 2.349 . S
Eu81 O99 2.392 . S
Eu81 O100 2.418 . S
Eu81 C110 2.828 . S
C82 O100 1.244 . S
C82 O103 1.265 . S
C83 C84 1.379 . S
C83 C87 1.373 . S
C83 C89 1.505 1_554 S
C84 C83 1.379 . S
C84 C86 1.369 . S
C84 H112 0.930 . S
C85 C87 1.383 . S
C85 C88 1.382 . S
C85 H113 0.930 . S
C86 C84 1.369 . S
C86 C88 1.392 . S
C86 H114 0.930 . S
C87 C83 1.373 . S
C87 C85 1.383 . S
C87 H115 0.931 . S
C88 C85 1.382 . S
C88 C86 1.392 . S
C89 Eu80 2.828 . S
C89 C83 1.505 1_556 S
C89 O101 1.249 . S
C89 O102 1.244 . S
O90 Eu81 2.373 . S
O90 C92 1.258 . S
O91 Eu80 2.392 . S
O91 C92 1.242 . S
C92 O90 1.258 . S
C92 O91 1.242 . S
O93 Eu80 2.418 . S
O93 C97 1.244 . S
O94 Eu81 2.488 . S
O94 C110 1.249 . S
O95 Eu81 2.471 . S
O95 C110 1.244 . S
O96 Eu81 2.349 . S
O96 C97 1.265 . S
C97 O93 1.244 . S
C97 O96 1.265 . S
O98 Eu80 2.373 . S
O98 C111 1.258 . S
O99 Eu81 2.392 . S
O99 C111 1.242 . S
O100 Eu81 2.418 . S
O100 C82 1.244 . S
O101 Eu80 2.488 . S
O101 C89 1.249 . S
O102 Eu80 2.471 . S
O102 C89 1.244 . S
O103 Eu80 2.349 . S
O103 C82 1.265 . S
C104 C105 1.379 . S
C104 C108 1.373 . S
C104 C110 1.505 . S
C105 C104 1.379 . S
C105 C107 1.369 . S
C105 H116 0.930 . S
C106 C108 1.383 . S
C106 C109 1.382 . S
C106 H117 0.930 . S
C107 C105 1.369 . S
C107 C109 1.392 . S
C107 H118 0.930 . S
C108 C104 1.373 . S
C108 C106 1.383 . S
C108 H119 0.931 . S
C109 C106 1.382 . S
C109 C107 1.392 . S
C110 Eu81 2.828 . S
C110 O94 1.249 . S
C110 O95 1.244 . S
C110 C104 1.505 . S
C111 O98 1.258 . S
C111 O99 1.242 . S
H112 C84 0.930 . S
H113 C85 0.930 . S
H114 C86 0.930 . S
H115 C87 0.931 . S
H116 C105 0.930 . S
H117 C106 0.930 . S
H118 C107 0.930 . S
H119 C108 0.931 . S
Eu120 C129 2.828 . S
Eu120 O131 2.392 . S
Eu120 O133 2.418 . S
Eu120 O138 2.373 . S
Eu120 O141 2.488 . S
Eu120 O142 2.471 . S
Eu120 O143 2.349 . S
Eu121 O130 2.373 . S
Eu121 O134 2.488 . S
Eu121 O135 2.471 . S
Eu121 O136 2.349 . S
Eu121 O139 2.392 . S
Eu121 O140 2.418 . S
Eu121 C150 2.828 . S
C122 O140 1.244 . S
C122 O143 1.265 . S
C123 C124 1.379 . S
C123 C127 1.373 . S
C123 C129 1.505 1_556 S
C124 C123 1.379 . S
C124 C126 1.369 . S
C124 H152 0.930 . S
C125 C127 1.383 . S
C125 C128 1.382 . S
C125 H153 0.930 . S
C126 C124 1.369 . S
C126 C128 1.392 . S
C126 H154 0.930 . S
C127 C123 1.373 . S
C127 C125 1.383 . S
C127 H155 0.931 . S
C128 C125 1.382 . S
C128 C126 1.392 . S
C129 Eu120 2.828 . S
C129 C123 1.505 1_554 S
C129 O141 1.249 . S
C129 O142 1.244 . S
O130 Eu121 2.373 . S
O130 C132 1.258 . S
O131 Eu120 2.392 . S
O131 C132 1.242 . S
C132 O130 1.258 . S
C132 O131 1.242 . S
O133 Eu120 2.418 . S
O133 C137 1.244 . S
O134 Eu121 2.488 . S
O134 C150 1.249 . S
O135 Eu121 2.471 . S
O135 C150 1.244 . S
O136 Eu121 2.349 . S
O136 C137 1.265 . S
C137 O133 1.244 . S
C137 O136 1.265 . S
O138 Eu120 2.373 . S
O138 C151 1.258 . S
O139 Eu121 2.392 . S
O139 C151 1.242 . S
O140 Eu121 2.418 . S
O140 C122 1.244 . S
O141 Eu120 2.488 . S
O141 C129 1.249 . S
O142 Eu120 2.471 . S
O142 C129 1.244 . S
O143 Eu120 2.349 . S
O143 C122 1.265 . S
C144 C145 1.379 . S
C144 C148 1.373 . S
C144 C150 1.505 . S
C145 C144 1.379 . S
C145 C147 1.369 . S
C145 H156 0.930 . S
C146 C148 1.383 . S
C146 C149 1.382 . S
C146 H157 0.930 . S
C147 C145 1.369 . S
C147 C149 1.392 . S
C147 H158 0.930 . S
C148 C144 1.373 . S
C148 C146 1.383 . S
C148 H159 0.931 . S
C149 C146 1.382 . S
C149 C147 1.392 . S
C150 Eu121 2.828 . S
C150 O134 1.249 . S
C150 O135 1.244 . S
C150 C144 1.505 . S
C151 O138 1.258 . S
C151 O139 1.242 . S
H152 C124 0.930 . S
H153 C125 0.930 . S
H154 C126 0.930 . S
H155 C127 0.931 . S
H156 C145 0.930 . S
H157 C146 0.930 . S
H158 C147 0.930 . S
H159 C148 0.931 . S
Eu160 C169 2.828 . S
Eu160 O171 2.392 . S
Eu160 O173 2.418 . S
Eu160 O178 2.373 . S
Eu160 O181 2.488 . S
Eu160 O182 2.471 . S
Eu160 O183 2.349 . S
Eu161 O170 2.373 . S
Eu161 O174 2.488 . S
Eu161 O175 2.471 . S
Eu161 O176 2.349 . S
Eu161 O179 2.392 . S
Eu161 O180 2.418 . S
Eu161 C190 2.828 . S
C162 O180 1.244 . S
C162 O183 1.265 . S
C163 C164 1.379 . S
C163 C167 1.373 . S
C163 C169 1.505 . S
C164 C163 1.379 . S
C164 C166 1.369 . S
C164 H192 0.930 . S
C165 C167 1.383 . S
C165 C168 1.382 . S
C165 H193 0.930 . S
C166 C164 1.369 . S
C166 C168 1.392 . S
C166 H194 0.930 . S
C167 C163 1.373 . S
C167 C165 1.383 . S
C167 H195 0.931 . S
C168 C165 1.382 . S
C168 C166 1.392 . S
C169 Eu160 2.828 . S
C169 C163 1.505 . S
C169 O181 1.249 . S
C169 O182 1.244 . S
O170 Eu161 2.373 . S
O170 C172 1.258 . S
O171 Eu160 2.392 . S
O171 C172 1.242 . S
C172 O170 1.258 . S
C172 O171 1.242 . S
O173 Eu160 2.418 . S
O173 C177 1.244 . S
O174 Eu161 2.488 . S
O174 C190 1.249 . S
O175 Eu161 2.471 . S
O175 C190 1.244 . S
O176 Eu161 2.349 . S
O176 C177 1.265 . S
C177 O173 1.244 . S
C177 O176 1.265 . S
O178 Eu160 2.373 . S
O178 C191 1.258 . S
O179 Eu161 2.392 . S
O179 C191 1.242 . S
O180 Eu161 2.418 . S
O180 C162 1.244 . S
O181 Eu160 2.488 . S
O181 C169 1.249 . S
O182 Eu160 2.471 . S
O182 C169 1.244 . S
O183 Eu160 2.349 . S
O183 C162 1.265 . S
C184 C185 1.379 . S
C184 C188 1.373 . S
C184 C190 1.505 . S
C185 C184 1.379 . S
C185 C187 1.369 . S
C185 H196 0.930 . S
C186 C188 1.383 . S
C186 C189 1.382 . S
C186 H197 0.930 . S
C187 C185 1.369 . S
C187 C189 1.392 . S
C187 H198 0.930 . S
C188 C184 1.373 . S
C188 C186 1.383 . S
C188 H199 0.931 . S
C189 C186 1.382 . S
C189 C187 1.392 . S
C190 Eu161 2.828 . S
C190 O174 1.249 . S
C190 O175 1.244 . S
C190 C184 1.505 . S
C191 O178 1.258 . S
C191 O179 1.242 . S
H192 C164 0.930 . S
H193 C165 0.930 . S
H194 C166 0.930 . S
H195 C167 0.931 . S
H196 C185 0.930 . S
H197 C186 0.930 . S
H198 C187 0.930 . S
H199 C188 0.931 . S
Eu200 C209 2.828 . S
Eu200 O211 2.392 . S
Eu200 O213 2.418 . S
Eu200 O218 2.373 . S
Eu200 O221 2.488 . S
Eu200 O222 2.471 . S
Eu200 O223 2.349 . S
Eu201 O210 2.373 . S
Eu201 O214 2.488 1_556 S
Eu201 O215 2.471 1_556 S
Eu201 O216 2.349 . S
Eu201 O219 2.392 . S
Eu201 O220 2.418 . S
Eu201 C230 2.828 1_556 S
C202 O220 1.244 . S
C202 O223 1.265 . S
C203 C204 1.379 . S
C203 C207 1.373 . S
C203 C209 1.505 . S
C204 C203 1.379 . S
C204 C206 1.369 . S
C204 H232 0.930 . S
C205 C207 1.383 . S
C205 C208 1.382 . S
C205 H233 0.930 . S
C206 C204 1.369 . S
C206 C208 1.392 . S
C206 H234 0.930 . S
C207 C203 1.373 . S
C207 C205 1.383 . S
C207 H235 0.931 . S
C208 C205 1.382 . S
C208 C206 1.392 . S
C209 Eu200 2.828 . S
C209 C203 1.505 . S
C209 O221 1.249 . S
C209 O222 1.244 . S
O210 Eu201 2.373 . S
O210 C212 1.258 . S
O211 Eu200 2.392 . S
O211 C212 1.242 . S
C212 O210 1.258 . S
C212 O211 1.242 . S
O213 Eu200 2.418 . S
O213 C217 1.244 . S
O214 Eu201 2.488 1_554 S
O214 C230 1.249 . S
O215 Eu201 2.471 1_554 S
O215 C230 1.244 . S
O216 Eu201 2.349 . S
O216 C217 1.265 . S
C217 O213 1.244 . S
C217 O216 1.265 . S
O218 Eu200 2.373 . S
O218 C231 1.258 . S
O219 Eu201 2.392 . S
O219 C231 1.242 . S
O220 Eu201 2.418 . S
O220 C202 1.244 . S
O221 Eu200 2.488 . S
O221 C209 1.249 . S
O222 Eu200 2.471 . S
O222 C209 1.244 . S
O223 Eu200 2.349 . S
O223 C202 1.265 . S
C224 C225 1.379 . S
C224 C228 1.373 . S
C224 C230 1.505 . S
C225 C224 1.379 . S
C225 C227 1.369 . S
C225 H236 0.930 . S
C226 C228 1.383 . S
C226 C229 1.382 . S
C226 H237 0.930 . S
C227 C225 1.369 . S
C227 C229 1.392 . S
C227 H238 0.930 . S
C228 C224 1.373 . S
C228 C226 1.383 . S
C228 H239 0.931 . S
C229 C226 1.382 . S
C229 C227 1.392 . S
C230 Eu201 2.828 1_554 S
C230 O214 1.249 . S
C230 O215 1.244 . S
C230 C224 1.505 . S
C231 O218 1.258 . S
C231 O219 1.242 . S
H232 C204 0.930 . S
H233 C205 0.930 . S
H234 C206 0.930 . S
H235 C207 0.931 . S
H236 C225 0.930 . S
H237 C226 0.930 . S
H238 C227 0.930 . S
H239 C228 0.931 . S
C240 C241 1.369 1_554 S
C240 C242 1.419 . S
C240 H244 0.930 . S
C241 C240 1.369 1_556 S
C241 C250 1.429 . S
C242 C240 1.419 . S
C242 C243 1.363 . S
C242 H245 0.929 . S
C243 C242 1.363 . S
C243 C249 1.428 1_554 S
H244 C240 0.930 . S
H245 C242 0.929 . S
S246 N247 1.613 . S
S246 N248 1.610 . S
N247 S246 1.613 . S
N247 C250 1.350 . S
N248 S246 1.610 . S
N248 C249 1.351 . S
C249 C243 1.428 1_556 S
C249 N248 1.351 . S
C249 C250 1.434 . S
C250 C241 1.429 . S
C250 N247 1.350 . S
C250 C249 1.434 . S
C251 C252 1.369 . S
C251 C253 1.419 . S
C251 H255 0.930 . S
C252 C251 1.369 . S
C252 C261 1.429 1_455 S
C253 C251 1.419 . S
C253 C254 1.363 1_455 S
C253 H256 0.929 . S
C254 C253 1.363 1_655 S
C254 C260 1.428 . S
H255 C251 0.930 . S
H256 C253 0.929 . S
S257 N258 1.613 . S
S257 N259 1.610 . S
N258 S257 1.613 . S
N258 C261 1.350 . S
N259 S257 1.610 . S
N259 C260 1.351 . S
C260 C254 1.428 . S
C260 N259 1.351 . S
C260 C261 1.434 . S
C261 C252 1.429 1_655 S
C261 N258 1.350 . S
C261 C260 1.434 . S
C262 C263 1.369 . S
C262 C264 1.419 1_545 S
C262 H266 0.930 . S
C263 C262 1.369 . S
C263 C272 1.429 . S
C264 C262 1.419 1_565 S
C264 C265 1.363 . S
C264 H267 0.929 . S
C265 C264 1.363 . S
C265 C271 1.428 . S
H266 C262 0.930 . S
H267 C264 0.929 . S
S268 N269 1.613 1_565 S
S268 N270 1.610 . S
N269 S268 1.613 1_545 S
N269 C272 1.350 . S
N270 S268 1.610 . S
N270 C271 1.351 . S
C271 C265 1.428 . S
C271 N270 1.351 . S
C271 C272 1.434 1_565 S
C272 C263 1.429 . S
C272 N269 1.350 . S
C272 C271 1.434 1_545 S
C273 C274 1.369 . S
C273 C275 1.419 1_556 S
C273 H277 0.930 . S
C274 C273 1.369 . S
C274 C283 1.429 . S
C275 C273 1.419 1_554 S
C275 C276 1.363 . S
C275 H278 0.929 . S
C276 C275 1.363 . S
C276 C282 1.428 . S
H277 C273 0.930 . S
H278 C275 0.929 . S
S279 N280 1.613 . S
S279 N281 1.610 1_556 S
N280 S279 1.613 . S
N280 C283 1.350 . S
N281 S279 1.610 1_554 S
N281 C282 1.351 . S
C282 C276 1.428 . S
C282 N281 1.351 . S
C282 C283 1.434 1_554 S
C283 C274 1.429 . S
C283 N280 1.350 . S
C283 C282 1.434 1_556 S
C284 C285 1.369 . S
C284 C286 1.419 1_455 S
C284 H288 0.930 . S
C285 C284 1.369 . S
C285 C294 1.429 . S
C286 C284 1.419 1_655 S
C286 C287 1.363 . S
C286 H289 0.929 . S
C287 C286 1.363 . S
C287 C293 1.428 . S
H288 C284 0.930 . S
H289 C286 0.929 . S
S290 N291 1.613 . S
S290 N292 1.610 1_455 S
N291 S290 1.613 . S
N291 C294 1.350 . S
N292 S290 1.610 1_655 S
N292 C293 1.351 . S
C293 C287 1.428 . S
C293 N292 1.351 . S
C293 C294 1.434 1_655 S
C294 C285 1.429 . S
C294 N291 1.350 . S
C294 C293 1.434 1_455 S
C295 C296 1.369 . S
C295 C297 1.419 . S
C295 H299 0.930 . S
C296 C295 1.369 . S
C296 C305 1.429 1_545 S
C297 C295 1.419 . S
C297 C298 1.363 1_545 S
C297 H300 0.929 . S
C298 C297 1.363 1_565 S
C298 C304 1.428 . S
H299 C295 0.930 . S
H300 C297 0.929 . S
S301 N302 1.613 . S
S301 N303 1.610 . S
N302 S301 1.613 . S
N302 C305 1.350 . S
N303 S301 1.610 . S
N303 C304 1.351 . S
C304 C298 1.428 . S
C304 N303 1.351 . S
C304 C305 1.434 . S
C305 C296 1.429 1_565 S
C305 N302 1.350 . S
C305 C304 1.434 . S
C306 C307 1.369 . S
C306 C308 1.419 . S
C306 H310 0.930 . S
C307 C306 1.369 . S
C307 C316 1.429 . S
C308 C306 1.419 . S
C308 C309 1.363 . S
C308 H311 0.929 . S
C309 C308 1.363 . S
C309 C315 1.428 . S
H310 C306 0.930 . S
H311 C308 0.929 . S
S312 N313 1.613 1_655 S
S312 N314 1.610 1_655 S
N313 S312 1.613 1_455 S
N313 C316 1.349 . S
N314 S312 1.610 1_455 S
N314 C315 1.351 . S
C315 C309 1.428 . S
C315 N314 1.351 . S
C315 C316 1.434 . S
C316 C307 1.429 . S
C316 N313 1.349 . S
C316 C315 1.434 . S
C317 C318 1.369 . S
C317 C319 1.419 . S
C317 H321 0.930 . S
C318 C317 1.369 . S
C318 C327 1.429 . S
C319 C317 1.419 . S
C319 C320 1.363 . S
C319 H322 0.929 . S
C320 C319 1.363 . S
C320 C326 1.428 1_554 S
H321 C317 0.930 . S
H322 C319 0.929 . S
S323 N324 1.613 1_556 S
S323 N325 1.610 . S
N324 S323 1.613 1_554 S
N324 C327 1.350 . S
N325 S323 1.610 . S
N325 C326 1.351 . S
C326 C320 1.428 1_556 S
C326 N325 1.351 . S
C326 C327 1.434 1_556 S
C327 C318 1.429 . S
C327 N324 1.350 . S
C327 C326 1.434 1_554 S
C328 C329 1.369 . S
C328 C330 1.419 . S
C328 H332 0.930 . S
C329 C328 1.369 . S
C329 C338 1.429 . S
C330 C328 1.419 . S
C330 C331 1.363 . S
C330 H333 0.929 . S
C331 C330 1.363 . S
C331 C337 1.428 . S
H332 C328 0.930 . S
H333 C330 0.929 . S
S334 N335 1.613 . S
S334 N336 1.610 . S
N335 S334 1.613 . S
N335 C338 1.350 . S
N336 S334 1.610 . S
N336 C337 1.351 . S
C337 C331 1.428 . S
C337 N336 1.351 . S
C337 C338 1.434 . S
C338 C329 1.429 . S
C338 N335 1.350 . S
C338 C337 1.434 . S
C339 C340 1.369 . S
C339 C341 1.419 . S
C339 H343 0.930 . S
C340 C339 1.369 . S
C340 C349 1.429 . S
C341 C339 1.419 . S
C341 C342 1.363 . S
C341 H344 0.929 . S
C342 C341 1.363 . S
C342 C348 1.428 . S
H343 C339 0.930 . S
H344 C341 0.929 . S
S345 N346 1.613 . S
S345 N347 1.610 . S
N346 S345 1.613 . S
N346 C349 1.350 . S
N347 S345 1.610 . S
N347 C348 1.351 . S
C348 C342 1.428 . S
C348 N347 1.351 . S
C348 C349 1.434 . S
C349 C340 1.429 . S
C349 N346 1.350 . S
C349 C348 1.434 . S
C350 C351 1.369 . S
C350 C352 1.419 . S
C350 H354 0.930 . S
C351 C350 1.369 . S
C351 C360 1.429 . S
C352 C350 1.419 . S
C352 C353 1.363 . S
C352 H355 0.929 1_556 S
C353 C352 1.363 . S
C353 C359 1.428 . S
H354 C350 0.930 . S
H355 C352 0.929 1_554 S
S356 N357 1.613 . S
S356 N358 1.610 . S
N357 S356 1.613 . S
N357 C360 1.350 . S
N358 S356 1.610 . S
N358 C359 1.351 . S
C359 C353 1.428 . S
C359 N358 1.351 . S
C359 C360 1.434 . S
C360 C351 1.429 . S
C360 N357 1.350 . S
C360 C359 1.434 . S
C361 C362 1.369 . S
C361 C363 1.419 . S
C361 H365 0.930 . S
C362 C361 1.369 . S
C362 C371 1.429 . S
C363 C361 1.419 . S
C363 C364 1.363 . S
C363 H366 0.929 . S
C364 C363 1.363 . S
C364 C370 1.428 . S
H365 C361 0.930 . S
H366 C363 0.929 . S
S367 N368 1.613 . S
S367 N369 1.610 . S
N368 S367 1.613 . S
N368 C371 1.350 . S
N369 S367 1.610 . S
N369 C370 1.351 . S
C370 C364 1.428 . S
C370 N369 1.351 . S
C370 C371 1.434 . S
C371 C362 1.429 . S
C371 N368 1.350 . S
C371 C370 1.434 . S
C372 C373 1.369 . S
C372 C374 1.419 . S
C372 H376 0.930 . S
C373 C372 1.369 . S
C373 C382 1.429 . S
C374 C372 1.419 . S
C374 C375 1.363 . S
C374 H377 0.929 . S
C375 C374 1.363 . S
C375 C381 1.428 . S
H376 C372 0.930 . S
H377 C374 0.929 . S
S378 N379 1.613 . S
S378 N380 1.610 . S
N379 S378 1.613 . S
N379 C382 1.350 . S
N380 S378 1.610 . S
N380 C381 1.351 . S
C381 C375 1.428 . S
C381 N380 1.351 . S
C381 C382 1.434 . S
C382 C373 1.429 . S
C382 N379 1.350 . S
C382 C381 1.434 . S
C383 C384 1.369 . S
C383 C385 1.419 . S
C383 H387 0.930 . S
C384 C383 1.369 . S
C384 C393 1.429 . S
C385 C383 1.419 . S
C385 C386 1.363 . S
C385 H388 0.929 . S
C386 C385 1.363 . S
C386 C392 1.428 . S
H387 C383 0.930 . S
H388 C385 0.929 . S
S389 N390 1.613 . S
S389 N391 1.610 . S
N390 S389 1.613 . S
N390 C393 1.350 . S
N391 S389 1.610 . S
N391 C392 1.351 . S
C392 C386 1.428 . S
C392 N391 1.351 . S
C392 C393 1.434 . S
C393 C384 1.429 . S
C393 N390 1.350 . S
C393 C392 1.434 . S
C394 C395 1.369 . S
C394 C396 1.419 . S
C394 H398 0.930 . S
C395 C394 1.369 . S
C395 C404 1.429 . S
C396 C394 1.419 . S
C396 C397 1.363 . S
C396 H399 0.929 . S
C397 C396 1.363 . S
C397 C403 1.428 . S
H398 C394 0.930 . S
H399 C396 0.929 . S
S400 N401 1.613 . S
S400 N402 1.610 . S
N401 S400 1.613 . S
N401 C404 1.350 . S
N402 S400 1.610 . S
N402 C403 1.351 . S
C403 C397 1.428 . S
C403 N402 1.351 . S
C403 C404 1.434 . S
C404 C395 1.429 . S
C404 N401 1.350 . S
C404 C403 1.434 . S
C405 C406 1.369 . S
C405 C407 1.419 . S
C405 H409 0.930 . S
C406 C405 1.369 . S
C406 C415 1.429 . S
C407 C405 1.419 . S
C407 C408 1.363 . S
C407 H410 0.929 . S
C408 C407 1.363 . S
C408 C414 1.428 . S
H409 C405 0.930 . S
H410 C407 0.929 . S
S411 N412 1.613 . S
S411 N413 1.610 . S
N412 S411 1.613 . S
N412 C415 1.350 . S
N413 S411 1.610 . S
N413 C414 1.351 . S
C414 C408 1.428 . S
C414 N413 1.351 . S
C414 C415 1.434 . S
C415 C406 1.429 . S
C415 N412 1.350 . S
C415 C414 1.434 . S
C416 C417 1.369 . S
C416 C418 1.419 . S
C416 H420 0.930 . S
C417 C416 1.369 . S
C417 C426 1.429 . S
C418 C416 1.419 . S
C418 C419 1.363 . S
C418 H421 0.929 . S
C419 C418 1.363 . S
C419 C425 1.428 . S
H420 C416 0.930 . S
H421 C418 0.929 . S
S422 N423 1.613 . S
S422 N424 1.610 . S
N423 S422 1.613 . S
N423 C426 1.350 . S
N424 S422 1.610 . S
N424 C425 1.351 . S
C425 C419 1.428 . S
C425 N424 1.351 . S
C425 C426 1.434 . S
C426 C417 1.429 . S
C426 N423 1.350 . S
C426 C425 1.434 . S
C427 C428 1.369 . S
C427 C429 1.419 . S
C427 H431 0.930 . S
C428 C427 1.369 . S
C428 C437 1.429 . S
C429 C427 1.419 . S
C429 C430 1.363 . S
C429 H432 0.929 . S
C430 C429 1.363 . S
C430 C436 1.428 . S
H431 C427 0.930 . S
H432 C429 0.929 . S
S433 N434 1.613 1_556 S
S433 N435 1.610 . S
N434 S433 1.613 1_554 S
N434 C437 1.350 . S
N435 S433 1.610 . S
N435 C436 1.351 1_556 S
C436 C430 1.428 . S
C436 N435 1.351 1_554 S
C436 C437 1.434 . S
C437 C428 1.429 . S
C437 N434 1.350 . S
C437 C436 1.434 . S
C241 C217 1.443 . S
C243 C17 1.445 . S
C252 C31 1.903 . S
C254 C71 1.904 . S
C263 C57 1.443 . S
C265 C97 1.444 . S
C274 C111 1.907 . S
C276 C151 1.902 . S
C285 C177 1.447 . S
C287 C137 1.445 . S
C296 C231 1.909 . S
C298 C191 1.904 . S
C307 C29 1.706 . S
C309 C8 1.706 . S
C318 C48 1.712 . S
C320 C69 1.702 1_554 S
C329 C109 1.700 . S
C331 C88 1.711 . S
C340 C128 1.710 . S
C342 C149 1.703 . S
C351 C168 1.700 . S
C353 C189 1.711 1_556 S
C362 C208 1.702 . S
C364 C229 1.710 . S
C373 C2 1.950 . S
C375 C172 1.949 . S
C384 C52 1.950 . S
C386 C202 1.948 . S
C395 C12 1.950 1_556 S
C397 C82 1.949 . S
C406 C42 1.950 . S
C408 C132 1.949 . S
C417 C162 1.949 . S
C419 C92 1.950 . S
C428 C122 1.947 . S
C430 C212 1.951 1_554 S
