# Generated by pormake.
# Topology ukw, (4)-cn, num edge types: 1
# Building blocks:
#     Node 0, Type 0, BuildingBlock: GALJAG_clean_sbu_0, # of connection points: 4
#     Node 1, Type 0, BuildingBlock: GALJAG_clean_sbu_0, # of connection points: 4
#     Node 2, Type 0, BuildingBlock: GALJAG_clean_sbu_0, # of connection points: 4
#     Node 3, Type 0, BuildingBlock: GALJAG_clean_sbu_0, # of connection points: 4
#     Node 4, Type 0, BuildingBlock: GALJAG_clean_sbu_0, # of connection points: 4
#     Node 5, Type 0, BuildingBlock: GALJAG_clean_sbu_0, # of connection points: 4
#     Node 6, Type 0, BuildingBlock: GALJAG_clean_sbu_0, # of connection points: 4
#     Node 7, Type 0, BuildingBlock: GALJAG_clean_sbu_0, # of connection points: 4
#     Node 8, Type 0, BuildingBlock: GALJAG_clean_sbu_0, # of connection points: 4
#     Node 9, Type 0, BuildingBlock: GALJAG_clean_sbu_0, # of connection points: 4
#     Node 10, Type 0, BuildingBlock: GALJAG_clean_sbu_0, # of connection points: 4
#     Node 11, Type 0, BuildingBlock: GALJAG_clean_sbu_0, # of connection points: 4
#     Node 12, Type 0, BuildingBlock: GALJAG_clean_sbu_0, # of connection points: 4
#     Node 13, Type 0, BuildingBlock: GALJAG_clean_sbu_0, # of connection points: 4
#     Node 14, Type 0, BuildingBlock: GALJAG_clean_sbu_0, # of connection points: 4
#     Node 15, Type 0, BuildingBlock: GALJAG_clean_sbu_0, # of connection points: 4
#     Node 16, Type 0, BuildingBlock: GALJAG_clean_sbu_0, # of connection points: 4
#     Node 17, Type 0, BuildingBlock: GALJAG_clean_sbu_0, # of connection points: 4
#     Node 18, Type 0, BuildingBlock: GALJAG_clean_sbu_0, # of connection points: 4
#     Node 19, Type 0, BuildingBlock: GALJAG_clean_sbu_0, # of connection points: 4
#     Node 20, Type 0, BuildingBlock: GALJAG_clean_sbu_0, # of connection points: 4
#     Node 21, Type 0, BuildingBlock: GALJAG_clean_sbu_0, # of connection points: 4
#     Node 22, Type 0, BuildingBlock: GALJAG_clean_sbu_0, # of connection points: 4
#     Node 23, Type 0, BuildingBlock: GALJAG_clean_sbu_0, # of connection points: 4
#     Node 24, Type 0, BuildingBlock: GALJAG_clean_sbu_0, # of connection points: 4
#     Node 25, Type 0, BuildingBlock: GALJAG_clean_sbu_0, # of connection points: 4
#     Node 26, Type 0, BuildingBlock: GALJAG_clean_sbu_0, # of connection points: 4
#     Node 27, Type 0, BuildingBlock: GALJAG_clean_sbu_0, # of connection points: 4
#     Node 28, Type 0, BuildingBlock: GALJAG_clean_sbu_0, # of connection points: 4
#     Node 29, Type 0, BuildingBlock: GALJAG_clean_sbu_0, # of connection points: 4
#     Node 30, Type 0, BuildingBlock: GALJAG_clean_sbu_0, # of connection points: 4
#     Node 31, Type 0, BuildingBlock: GALJAG_clean_sbu_0, # of connection points: 4
#     Node 32, Type 0, BuildingBlock: GALJAG_clean_sbu_0, # of connection points: 4
#     Node 33, Type 0, BuildingBlock: GALJAG_clean_sbu_0, # of connection points: 4
#     Node 34, Type 0, BuildingBlock: GALJAG_clean_sbu_0, # of connection points: 4
#     Node 35, Type 0, BuildingBlock: GALJAG_clean_sbu_0, # of connection points: 4
#     Node 36, Type 0, BuildingBlock: GALJAG_clean_sbu_0, # of connection points: 4
#     Node 37, Type 0, BuildingBlock: GALJAG_clean_sbu_0, # of connection points: 4
#     Node 38, Type 0, BuildingBlock: GALJAG_clean_sbu_0, # of connection points: 4
#     Node 39, Type 0, BuildingBlock: GALJAG_clean_sbu_0, # of connection points: 4
#     Node 40, Type 0, BuildingBlock: GALJAG_clean_sbu_0, # of connection points: 4
#     Node 41, Type 0, BuildingBlock: GALJAG_clean_sbu_0, # of connection points: 4
#     Node 42, Type 0, BuildingBlock: GALJAG_clean_sbu_0, # of connection points: 4
#     Node 43, Type 0, BuildingBlock: GALJAG_clean_sbu_0, # of connection points: 4
#     Node 44, Type 0, BuildingBlock: GALJAG_clean_sbu_0, # of connection points: 4
#     Node 45, Type 0, BuildingBlock: GALJAG_clean_sbu_0, # of connection points: 4
#     Node 46, Type 0, BuildingBlock: GALJAG_clean_sbu_0, # of connection points: 4
#     Node 47, Type 0, BuildingBlock: GALJAG_clean_sbu_0, # of connection points: 4
#     Node 48, Type 0, BuildingBlock: GALJAG_clean_sbu_0, # of connection points: 4
#     Node 49, Type 0, BuildingBlock: GALJAG_clean_sbu_0, # of connection points: 4
#     Node 50, Type 0, BuildingBlock: GALJAG_clean_sbu_0, # of connection points: 4
#     Node 51, Type 0, BuildingBlock: GALJAG_clean_sbu_0, # of connection points: 4
#     Node 52, Type 0, BuildingBlock: GALJAG_clean_sbu_0, # of connection points: 4
#     Node 53, Type 0, BuildingBlock: GALJAG_clean_sbu_0, # of connection points: 4
#     Node 54, Type 0, BuildingBlock: GALJAG_clean_sbu_0, # of connection points: 4
#     Node 55, Type 0, BuildingBlock: GALJAG_clean_sbu_0, # of connection points: 4
#     Node 56, Type 0, BuildingBlock: GALJAG_clean_sbu_0, # of connection points: 4
#     Node 57, Type 0, BuildingBlock: GALJAG_clean_sbu_0, # of connection points: 4
#     Node 58, Type 0, BuildingBlock: GALJAG_clean_sbu_0, # of connection points: 4
#     Node 59, Type 0, BuildingBlock: GALJAG_clean_sbu_0, # of connection points: 4
#     Node 60, Type 0, BuildingBlock: GALJAG_clean_sbu_0, # of connection points: 4
#     Node 61, Type 0, BuildingBlock: GALJAG_clean_sbu_0, # of connection points: 4
#     Node 62, Type 0, BuildingBlock: GALJAG_clean_sbu_0, # of connection points: 4
#     Node 63, Type 0, BuildingBlock: GALJAG_clean_sbu_0, # of connection points: 4
#     Node 64, Type 0, BuildingBlock: GALJAG_clean_sbu_0, # of connection points: 4
#     Node 65, Type 0, BuildingBlock: GALJAG_clean_sbu_0, # of connection points: 4
#     Node 66, Type 0, BuildingBlock: GALJAG_clean_sbu_0, # of connection points: 4
#     Node 67, Type 0, BuildingBlock: GALJAG_clean_sbu_0, # of connection points: 4
#     Node 68, Type 0, BuildingBlock: GALJAG_clean_sbu_0, # of connection points: 4
#     Node 69, Type 0, BuildingBlock: GALJAG_clean_sbu_0, # of connection points: 4
#     Node 70, Type 0, BuildingBlock: GALJAG_clean_sbu_0, # of connection points: 4
#     Node 71, Type 0, BuildingBlock: GALJAG_clean_sbu_0, # of connection points: 4
#     Node 72, Type 0, BuildingBlock: GALJAG_clean_sbu_0, # of connection points: 4
#     Node 73, Type 0, BuildingBlock: GALJAG_clean_sbu_0, # of connection points: 4
#     Node 74, Type 0, BuildingBlock: GALJAG_clean_sbu_0, # of connection points: 4
#     Node 75, Type 0, BuildingBlock: GALJAG_clean_sbu_0, # of connection points: 4
#     Node 76, Type 0, BuildingBlock: GALJAG_clean_sbu_0, # of connection points: 4
#     Node 77, Type 0, BuildingBlock: GALJAG_clean_sbu_0, # of connection points: 4
#     Node 78, Type 0, BuildingBlock: GALJAG_clean_sbu_0, # of connection points: 4
#     Node 79, Type 0, BuildingBlock: GALJAG_clean_sbu_0, # of connection points: 4
#     Node 80, Type 0, BuildingBlock: GALJAG_clean_sbu_0, # of connection points: 4
#     Node 81, Type 0, BuildingBlock: GALJAG_clean_sbu_0, # of connection points: 4
#     Node 82, Type 0, BuildingBlock: GALJAG_clean_sbu_0, # of connection points: 4
#     Node 83, Type 0, BuildingBlock: GALJAG_clean_sbu_0, # of connection points: 4
#     Node 84, Type 0, BuildingBlock: GALJAG_clean_sbu_0, # of connection points: 4
#     Node 85, Type 0, BuildingBlock: GALJAG_clean_sbu_0, # of connection points: 4
#     Node 86, Type 0, BuildingBlock: GALJAG_clean_sbu_0, # of connection points: 4
#     Node 87, Type 0, BuildingBlock: GALJAG_clean_sbu_0, # of connection points: 4
#     Node 88, Type 0, BuildingBlock: GALJAG_clean_sbu_0, # of connection points: 4
#     Node 89, Type 0, BuildingBlock: GALJAG_clean_sbu_0, # of connection points: 4
#     Node 90, Type 0, BuildingBlock: GALJAG_clean_sbu_0, # of connection points: 4
#     Node 91, Type 0, BuildingBlock: GALJAG_clean_sbu_0, # of connection points: 4
#     Node 92, Type 0, BuildingBlock: GALJAG_clean_sbu_0, # of connection points: 4
#     Node 93, Type 0, BuildingBlock: GALJAG_clean_sbu_0, # of connection points: 4
#     Node 94, Type 0, BuildingBlock: GALJAG_clean_sbu_0, # of connection points: 4
#     Node 95, Type 0, BuildingBlock: GALJAG_clean_sbu_0, # of connection points: 4
#     Edge 96, Type (0, 0), BuildingBlock: CIFDUS_clean_linker_0, # of connection points: 2
#     Edge 97, Type (0, 0), BuildingBlock: CIFDUS_clean_linker_0, # of connection points: 2
#     Edge 98, Type (0, 0), BuildingBlock: CIFDUS_clean_linker_0, # of connection points: 2
#     Edge 99, Type (0, 0), BuildingBlock: CIFDUS_clean_linker_0, # of connection points: 2
#     Edge 100, Type (0, 0), BuildingBlock: CIFDUS_clean_linker_0, # of connection points: 2
#     Edge 101, Type (0, 0), BuildingBlock: CIFDUS_clean_linker_0, # of connection points: 2
#     Edge 102, Type (0, 0), BuildingBlock: CIFDUS_clean_linker_0, # of connection points: 2
#     Edge 103, Type (0, 0), BuildingBlock: CIFDUS_clean_linker_0, # of connection points: 2
#     Edge 104, Type (0, 0), BuildingBlock: CIFDUS_clean_linker_0, # of connection points: 2
#     Edge 105, Type (0, 0), BuildingBlock: CIFDUS_clean_linker_0, # of connection points: 2
#     Edge 106, Type (0, 0), BuildingBlock: CIFDUS_clean_linker_0, # of connection points: 2
#     Edge 107, Type (0, 0), BuildingBlock: CIFDUS_clean_linker_0, # of connection points: 2
#     Edge 108, Type (0, 0), BuildingBlock: CIFDUS_clean_linker_0, # of connection points: 2
#     Edge 109, Type (0, 0), BuildingBlock: CIFDUS_clean_linker_0, # of connection points: 2
#     Edge 110, Type (0, 0), BuildingBlock: CIFDUS_clean_linker_0, # of connection points: 2
#     Edge 111, Type (0, 0), BuildingBlock: CIFDUS_clean_linker_0, # of connection points: 2
#     Edge 112, Type (0, 0), BuildingBlock: CIFDUS_clean_linker_0, # of connection points: 2
#     Edge 113, Type (0, 0), BuildingBlock: CIFDUS_clean_linker_0, # of connection points: 2
#     Edge 114, Type (0, 0), BuildingBlock: CIFDUS_clean_linker_0, # of connection points: 2
#     Edge 115, Type (0, 0), BuildingBlock: CIFDUS_clean_linker_0, # of connection points: 2
#     Edge 116, Type (0, 0), BuildingBlock: CIFDUS_clean_linker_0, # of connection points: 2
#     Edge 117, Type (0, 0), BuildingBlock: CIFDUS_clean_linker_0, # of connection points: 2
#     Edge 118, Type (0, 0), BuildingBlock: CIFDUS_clean_linker_0, # of connection points: 2
#     Edge 119, Type (0, 0), BuildingBlock: CIFDUS_clean_linker_0, # of connection points: 2
#     Edge 120, Type (0, 0), BuildingBlock: CIFDUS_clean_linker_0, # of connection points: 2
#     Edge 121, Type (0, 0), BuildingBlock: CIFDUS_clean_linker_0, # of connection points: 2
#     Edge 122, Type (0, 0), BuildingBlock: CIFDUS_clean_linker_0, # of connection points: 2
#     Edge 123, Type (0, 0), BuildingBlock: CIFDUS_clean_linker_0, # of connection points: 2
#     Edge 124, Type (0, 0), BuildingBlock: CIFDUS_clean_linker_0, # of connection points: 2
#     Edge 125, Type (0, 0), BuildingBlock: CIFDUS_clean_linker_0, # of connection points: 2
#     Edge 126, Type (0, 0), BuildingBlock: CIFDUS_clean_linker_0, # of connection points: 2
#     Edge 127, Type (0, 0), BuildingBlock: CIFDUS_clean_linker_0, # of connection points: 2
#     Edge 128, Type (0, 0), BuildingBlock: CIFDUS_clean_linker_0, # of connection points: 2
#     Edge 129, Type (0, 0), BuildingBlock: CIFDUS_clean_linker_0, # of connection points: 2
#     Edge 130, Type (0, 0), BuildingBlock: CIFDUS_clean_linker_0, # of connection points: 2
#     Edge 131, Type (0, 0), BuildingBlock: CIFDUS_clean_linker_0, # of connection points: 2
#     Edge 132, Type (0, 0), BuildingBlock: CIFDUS_clean_linker_0, # of connection points: 2
#     Edge 133, Type (0, 0), BuildingBlock: CIFDUS_clean_linker_0, # of connection points: 2
#     Edge 134, Type (0, 0), BuildingBlock: CIFDUS_clean_linker_0, # of connection points: 2
#     Edge 135, Type (0, 0), BuildingBlock: CIFDUS_clean_linker_0, # of connection points: 2
#     Edge 136, Type (0, 0), BuildingBlock: CIFDUS_clean_linker_0, # of connection points: 2
#     Edge 137, Type (0, 0), BuildingBlock: CIFDUS_clean_linker_0, # of connection points: 2
#     Edge 138, Type (0, 0), BuildingBlock: CIFDUS_clean_linker_0, # of connection points: 2
#     Edge 139, Type (0, 0), BuildingBlock: CIFDUS_clean_linker_0, # of connection points: 2
#     Edge 140, Type (0, 0), BuildingBlock: CIFDUS_clean_linker_0, # of connection points: 2
#     Edge 141, Type (0, 0), BuildingBlock: CIFDUS_clean_linker_0, # of connection points: 2
#     Edge 142, Type (0, 0), BuildingBlock: CIFDUS_clean_linker_0, # of connection points: 2
#     Edge 143, Type (0, 0), BuildingBlock: CIFDUS_clean_linker_0, # of connection points: 2
#     Edge 144, Type (0, 0), BuildingBlock: CIFDUS_clean_linker_0, # of connection points: 2
#     Edge 145, Type (0, 0), BuildingBlock: CIFDUS_clean_linker_0, # of connection points: 2
#     Edge 146, Type (0, 0), BuildingBlock: CIFDUS_clean_linker_0, # of connection points: 2
#     Edge 147, Type (0, 0), BuildingBlock: CIFDUS_clean_linker_0, # of connection points: 2
#     Edge 148, Type (0, 0), BuildingBlock: CIFDUS_clean_linker_0, # of connection points: 2
#     Edge 149, Type (0, 0), BuildingBlock: CIFDUS_clean_linker_0, # of connection points: 2
#     Edge 150, Type (0, 0), BuildingBlock: CIFDUS_clean_linker_0, # of connection points: 2
#     Edge 151, Type (0, 0), BuildingBlock: CIFDUS_clean_linker_0, # of connection points: 2
#     Edge 152, Type (0, 0), BuildingBlock: CIFDUS_clean_linker_0, # of connection points: 2
#     Edge 153, Type (0, 0), BuildingBlock: CIFDUS_clean_linker_0, # of connection points: 2
#     Edge 154, Type (0, 0), BuildingBlock: CIFDUS_clean_linker_0, # of connection points: 2
#     Edge 155, Type (0, 0), BuildingBlock: CIFDUS_clean_linker_0, # of connection points: 2
#     Edge 156, Type (0, 0), BuildingBlock: CIFDUS_clean_linker_0, # of connection points: 2
#     Edge 157, Type (0, 0), BuildingBlock: CIFDUS_clean_linker_0, # of connection points: 2
#     Edge 158, Type (0, 0), BuildingBlock: CIFDUS_clean_linker_0, # of connection points: 2
#     Edge 159, Type (0, 0), BuildingBlock: CIFDUS_clean_linker_0, # of connection points: 2
#     Edge 160, Type (0, 0), BuildingBlock: CIFDUS_clean_linker_0, # of connection points: 2
#     Edge 161, Type (0, 0), BuildingBlock: CIFDUS_clean_linker_0, # of connection points: 2
#     Edge 162, Type (0, 0), BuildingBlock: CIFDUS_clean_linker_0, # of connection points: 2
#     Edge 163, Type (0, 0), BuildingBlock: CIFDUS_clean_linker_0, # of connection points: 2
#     Edge 164, Type (0, 0), BuildingBlock: CIFDUS_clean_linker_0, # of connection points: 2
#     Edge 165, Type (0, 0), BuildingBlock: CIFDUS_clean_linker_0, # of connection points: 2
#     Edge 166, Type (0, 0), BuildingBlock: CIFDUS_clean_linker_0, # of connection points: 2
#     Edge 167, Type (0, 0), BuildingBlock: CIFDUS_clean_linker_0, # of connection points: 2
#     Edge 168, Type (0, 0), BuildingBlock: CIFDUS_clean_linker_0, # of connection points: 2
#     Edge 169, Type (0, 0), BuildingBlock: CIFDUS_clean_linker_0, # of connection points: 2
#     Edge 170, Type (0, 0), BuildingBlock: CIFDUS_clean_linker_0, # of connection points: 2
#     Edge 171, Type (0, 0), BuildingBlock: CIFDUS_clean_linker_0, # of connection points: 2
#     Edge 172, Type (0, 0), BuildingBlock: CIFDUS_clean_linker_0, # of connection points: 2
#     Edge 173, Type (0, 0), BuildingBlock: CIFDUS_clean_linker_0, # of connection points: 2
#     Edge 174, Type (0, 0), BuildingBlock: CIFDUS_clean_linker_0, # of connection points: 2
#     Edge 175, Type (0, 0), BuildingBlock: CIFDUS_clean_linker_0, # of connection points: 2
#     Edge 176, Type (0, 0), BuildingBlock: CIFDUS_clean_linker_0, # of connection points: 2
#     Edge 177, Type (0, 0), BuildingBlock: CIFDUS_clean_linker_0, # of connection points: 2
#     Edge 178, Type (0, 0), BuildingBlock: CIFDUS_clean_linker_0, # of connection points: 2
#     Edge 179, Type (0, 0), BuildingBlock: CIFDUS_clean_linker_0, # of connection points: 2
#     Edge 180, Type (0, 0), BuildingBlock: CIFDUS_clean_linker_0, # of connection points: 2
#     Edge 181, Type (0, 0), BuildingBlock: CIFDUS_clean_linker_0, # of connection points: 2
#     Edge 182, Type (0, 0), BuildingBlock: CIFDUS_clean_linker_0, # of connection points: 2
#     Edge 183, Type (0, 0), BuildingBlock: CIFDUS_clean_linker_0, # of connection points: 2
#     Edge 184, Type (0, 0), BuildingBlock: CIFDUS_clean_linker_0, # of connection points: 2
#     Edge 185, Type (0, 0), BuildingBlock: CIFDUS_clean_linker_0, # of connection points: 2
#     Edge 186, Type (0, 0), BuildingBlock: CIFDUS_clean_linker_0, # of connection points: 2
#     Edge 187, Type (0, 0), BuildingBlock: CIFDUS_clean_linker_0, # of connection points: 2
#     Edge 188, Type (0, 0), BuildingBlock: CIFDUS_clean_linker_0, # of connection points: 2
#     Edge 189, Type (0, 0), BuildingBlock: CIFDUS_clean_linker_0, # of connection points: 2
#     Edge 190, Type (0, 0), BuildingBlock: CIFDUS_clean_linker_0, # of connection points: 2
#     Edge 191, Type (0, 0), BuildingBlock: CIFDUS_clean_linker_0, # of connection points: 2
#     Edge 192, Type (0, 0), BuildingBlock: CIFDUS_clean_linker_0, # of connection points: 2
#     Edge 193, Type (0, 0), BuildingBlock: CIFDUS_clean_linker_0, # of connection points: 2
#     Edge 194, Type (0, 0), BuildingBlock: CIFDUS_clean_linker_0, # of connection points: 2
#     Edge 195, Type (0, 0), BuildingBlock: CIFDUS_clean_linker_0, # of connection points: 2
#     Edge 196, Type (0, 0), BuildingBlock: CIFDUS_clean_linker_0, # of connection points: 2
#     Edge 197, Type (0, 0), BuildingBlock: CIFDUS_clean_linker_0, # of connection points: 2
#     Edge 198, Type (0, 0), BuildingBlock: CIFDUS_clean_linker_0, # of connection points: 2
#     Edge 199, Type (0, 0), BuildingBlock: CIFDUS_clean_linker_0, # of connection points: 2
#     Edge 200, Type (0, 0), BuildingBlock: CIFDUS_clean_linker_0, # of connection points: 2
#     Edge 201, Type (0, 0), BuildingBlock: CIFDUS_clean_linker_0, # of connection points: 2
#     Edge 202, Type (0, 0), BuildingBlock: CIFDUS_clean_linker_0, # of connection points: 2
#     Edge 203, Type (0, 0), BuildingBlock: CIFDUS_clean_linker_0, # of connection points: 2
#     Edge 204, Type (0, 0), BuildingBlock: CIFDUS_clean_linker_0, # of connection points: 2
#     Edge 205, Type (0, 0), BuildingBlock: CIFDUS_clean_linker_0, # of connection points: 2
#     Edge 206, Type (0, 0), BuildingBlock: CIFDUS_clean_linker_0, # of connection points: 2
#     Edge 207, Type (0, 0), BuildingBlock: CIFDUS_clean_linker_0, # of connection points: 2
#     Edge 208, Type (0, 0), BuildingBlock: CIFDUS_clean_linker_0, # of connection points: 2
#     Edge 209, Type (0, 0), BuildingBlock: CIFDUS_clean_linker_0, # of connection points: 2
#     Edge 210, Type (0, 0), BuildingBlock: CIFDUS_clean_linker_0, # of connection points: 2
#     Edge 211, Type (0, 0), BuildingBlock: CIFDUS_clean_linker_0, # of connection points: 2
#     Edge 212, Type (0, 0), BuildingBlock: CIFDUS_clean_linker_0, # of connection points: 2
#     Edge 213, Type (0, 0), BuildingBlock: CIFDUS_clean_linker_0, # of connection points: 2
#     Edge 214, Type (0, 0), BuildingBlock: CIFDUS_clean_linker_0, # of connection points: 2
#     Edge 215, Type (0, 0), BuildingBlock: CIFDUS_clean_linker_0, # of connection points: 2
#     Edge 216, Type (0, 0), BuildingBlock: CIFDUS_clean_linker_0, # of connection points: 2
#     Edge 217, Type (0, 0), BuildingBlock: CIFDUS_clean_linker_0, # of connection points: 2
#     Edge 218, Type (0, 0), BuildingBlock: CIFDUS_clean_linker_0, # of connection points: 2
#     Edge 219, Type (0, 0), BuildingBlock: CIFDUS_clean_linker_0, # of connection points: 2
#     Edge 220, Type (0, 0), BuildingBlock: CIFDUS_clean_linker_0, # of connection points: 2
#     Edge 221, Type (0, 0), BuildingBlock: CIFDUS_clean_linker_0, # of connection points: 2
#     Edge 222, Type (0, 0), BuildingBlock: CIFDUS_clean_linker_0, # of connection points: 2
#     Edge 223, Type (0, 0), BuildingBlock: CIFDUS_clean_linker_0, # of connection points: 2
#     Edge 224, Type (0, 0), BuildingBlock: CIFDUS_clean_linker_0, # of connection points: 2
#     Edge 225, Type (0, 0), BuildingBlock: CIFDUS_clean_linker_0, # of connection points: 2
#     Edge 226, Type (0, 0), BuildingBlock: CIFDUS_clean_linker_0, # of connection points: 2
#     Edge 227, Type (0, 0), BuildingBlock: CIFDUS_clean_linker_0, # of connection points: 2
#     Edge 228, Type (0, 0), BuildingBlock: CIFDUS_clean_linker_0, # of connection points: 2
#     Edge 229, Type (0, 0), BuildingBlock: CIFDUS_clean_linker_0, # of connection points: 2
#     Edge 230, Type (0, 0), BuildingBlock: CIFDUS_clean_linker_0, # of connection points: 2
#     Edge 231, Type (0, 0), BuildingBlock: CIFDUS_clean_linker_0, # of connection points: 2
#     Edge 232, Type (0, 0), BuildingBlock: CIFDUS_clean_linker_0, # of connection points: 2
#     Edge 233, Type (0, 0), BuildingBlock: CIFDUS_clean_linker_0, # of connection points: 2
#     Edge 234, Type (0, 0), BuildingBlock: CIFDUS_clean_linker_0, # of connection points: 2
#     Edge 235, Type (0, 0), BuildingBlock: CIFDUS_clean_linker_0, # of connection points: 2
#     Edge 236, Type (0, 0), BuildingBlock: CIFDUS_clean_linker_0, # of connection points: 2
#     Edge 237, Type (0, 0), BuildingBlock: CIFDUS_clean_linker_0, # of connection points: 2
#     Edge 238, Type (0, 0), BuildingBlock: CIFDUS_clean_linker_0, # of connection points: 2
#     Edge 239, Type (0, 0), BuildingBlock: CIFDUS_clean_linker_0, # of connection points: 2
#     Edge 240, Type (0, 0), BuildingBlock: CIFDUS_clean_linker_0, # of connection points: 2
#     Edge 241, Type (0, 0), BuildingBlock: CIFDUS_clean_linker_0, # of connection points: 2
#     Edge 242, Type (0, 0), BuildingBlock: CIFDUS_clean_linker_0, # of connection points: 2
#     Edge 243, Type (0, 0), BuildingBlock: CIFDUS_clean_linker_0, # of connection points: 2
#     Edge 244, Type (0, 0), BuildingBlock: CIFDUS_clean_linker_0, # of connection points: 2
#     Edge 245, Type (0, 0), BuildingBlock: CIFDUS_clean_linker_0, # of connection points: 2
#     Edge 246, Type (0, 0), BuildingBlock: CIFDUS_clean_linker_0, # of connection points: 2
#     Edge 247, Type (0, 0), BuildingBlock: CIFDUS_clean_linker_0, # of connection points: 2
#     Edge 248, Type (0, 0), BuildingBlock: CIFDUS_clean_linker_0, # of connection points: 2
#     Edge 249, Type (0, 0), BuildingBlock: CIFDUS_clean_linker_0, # of connection points: 2
#     Edge 250, Type (0, 0), BuildingBlock: CIFDUS_clean_linker_0, # of connection points: 2
#     Edge 251, Type (0, 0), BuildingBlock: CIFDUS_clean_linker_0, # of connection points: 2
#     Edge 252, Type (0, 0), BuildingBlock: CIFDUS_clean_linker_0, # of connection points: 2
#     Edge 253, Type (0, 0), BuildingBlock: CIFDUS_clean_linker_0, # of connection points: 2
#     Edge 254, Type (0, 0), BuildingBlock: CIFDUS_clean_linker_0, # of connection points: 2
#     Edge 255, Type (0, 0), BuildingBlock: CIFDUS_clean_linker_0, # of connection points: 2
#     Edge 256, Type (0, 0), BuildingBlock: CIFDUS_clean_linker_0, # of connection points: 2
#     Edge 257, Type (0, 0), BuildingBlock: CIFDUS_clean_linker_0, # of connection points: 2
#     Edge 258, Type (0, 0), BuildingBlock: CIFDUS_clean_linker_0, # of connection points: 2
#     Edge 259, Type (0, 0), BuildingBlock: CIFDUS_clean_linker_0, # of connection points: 2
#     Edge 260, Type (0, 0), BuildingBlock: CIFDUS_clean_linker_0, # of connection points: 2
#     Edge 261, Type (0, 0), BuildingBlock: CIFDUS_clean_linker_0, # of connection points: 2
#     Edge 262, Type (0, 0), BuildingBlock: CIFDUS_clean_linker_0, # of connection points: 2
#     Edge 263, Type (0, 0), BuildingBlock: CIFDUS_clean_linker_0, # of connection points: 2
#     Edge 264, Type (0, 0), BuildingBlock: CIFDUS_clean_linker_0, # of connection points: 2
#     Edge 265, Type (0, 0), BuildingBlock: CIFDUS_clean_linker_0, # of connection points: 2
#     Edge 266, Type (0, 0), BuildingBlock: CIFDUS_clean_linker_0, # of connection points: 2
#     Edge 267, Type (0, 0), BuildingBlock: CIFDUS_clean_linker_0, # of connection points: 2
#     Edge 268, Type (0, 0), BuildingBlock: CIFDUS_clean_linker_0, # of connection points: 2
#     Edge 269, Type (0, 0), BuildingBlock: CIFDUS_clean_linker_0, # of connection points: 2
#     Edge 270, Type (0, 0), BuildingBlock: CIFDUS_clean_linker_0, # of connection points: 2
#     Edge 271, Type (0, 0), BuildingBlock: CIFDUS_clean_linker_0, # of connection points: 2
#     Edge 272, Type (0, 0), BuildingBlock: CIFDUS_clean_linker_0, # of connection points: 2
#     Edge 273, Type (0, 0), BuildingBlock: CIFDUS_clean_linker_0, # of connection points: 2
#     Edge 274, Type (0, 0), BuildingBlock: CIFDUS_clean_linker_0, # of connection points: 2
#     Edge 275, Type (0, 0), BuildingBlock: CIFDUS_clean_linker_0, # of connection points: 2
#     Edge 276, Type (0, 0), BuildingBlock: CIFDUS_clean_linker_0, # of connection points: 2
#     Edge 277, Type (0, 0), BuildingBlock: CIFDUS_clean_linker_0, # of connection points: 2
#     Edge 278, Type (0, 0), BuildingBlock: CIFDUS_clean_linker_0, # of connection points: 2
#     Edge 279, Type (0, 0), BuildingBlock: CIFDUS_clean_linker_0, # of connection points: 2
#     Edge 280, Type (0, 0), BuildingBlock: CIFDUS_clean_linker_0, # of connection points: 2
#     Edge 281, Type (0, 0), BuildingBlock: CIFDUS_clean_linker_0, # of connection points: 2
#     Edge 282, Type (0, 0), BuildingBlock: CIFDUS_clean_linker_0, # of connection points: 2
#     Edge 283, Type (0, 0), BuildingBlock: CIFDUS_clean_linker_0, # of connection points: 2
#     Edge 284, Type (0, 0), BuildingBlock: CIFDUS_clean_linker_0, # of connection points: 2
#     Edge 285, Type (0, 0), BuildingBlock: CIFDUS_clean_linker_0, # of connection points: 2
#     Edge 286, Type (0, 0), BuildingBlock: CIFDUS_clean_linker_0, # of connection points: 2
#     Edge 287, Type (0, 0), BuildingBlock: CIFDUS_clean_linker_0, # of connection points: 2
# Relax obj value: 0.112
# Max RMSD: 0.144
# Mean RMSD: 0.144
data_MOF--net-ukw--node1-GALJAG_clean_sbu_0--edge1-CIFDUS_clean_linker_0
_symmetry_space_group_name_H-M    P1
_symmetry_Int_Tables_number       1
_symmetry_cell_setting            triclinic
loop_
_symmetry_equiv_pos_as_xyz
'x, y, z'
_cell_length_a     65.577011
_cell_length_b     65.5973
_cell_length_c     65.547902
_cell_angle_alpha  89.97528
_cell_angle_beta   89.965182
_cell_angle_gamma 90.015127
loop_
_atom_site_label
_atom_site_type_symbol
_atom_site_fract_x
_atom_site_fract_y
_atom_site_fract_z
_atom_type_partial_charge
In0 In 0.02858 0.0889 0.3443 0.0
O1 O 0.01732 0.11346 0.32273 0.0
O2 O 0.01646 0.08229 0.31295 0.0
C3 C 0.03612 0.1063 0.38048 0.0
C4 C 0.99474 0.06929 0.35605 0.0
C5 C 0.06711 0.08174 0.33266 0.0
O6 O 0.03005 0.11674 0.36537 0.0
O7 O 0.03884 0.08757 0.37692 0.0
O8 O 0.05676 0.06828 0.34195 0.0
O9 O 0.05788 0.09824 0.32917 0.0
C10 C 0.01268 0.10075 0.3089 0.0
O11 O 0.00965 0.05956 0.34841 0.0
O12 O 0.99728 0.08828 0.35765 0.0
In13 In 0.17132 0.77737 0.60242 0.0
O14 O 0.14302 0.76582 0.58529 0.0
O15 O 0.17243 0.75791 0.57413 0.0
C16 C 0.15011 0.79125 0.63473 0.0
C17 C 0.19524 0.74845 0.61954 0.0
C18 C 0.18477 0.81277 0.58625 0.0
O19 O 0.1449 0.77514 0.62546 0.0
O20 O 0.16536 0.80034 0.62729 0.0
O21 O 0.1955 0.80225 0.59836 0.0
O22 O 0.16776 0.80497 0.58179 0.0
C23 C 0.15341 0.7564 0.57204 0.0
O24 O 0.1988 0.75545 0.60197 0.0
O25 O 0.18062 0.75684 0.62864 0.0
In26 In 0.47057 0.9089 0.84014 0.0
O27 O 0.48977 0.9383 0.84169 0.0
O28 O 0.49553 0.91432 0.86281 0.0
C29 C 0.43657 0.91789 0.81913 0.0
C30 C 0.49343 0.8889 0.81291 0.0
C31 C 0.45333 0.89518 0.87466 0.0
O32 O 0.44588 0.93117 0.82961 0.0
O33 O 0.44486 0.90054 0.81879 0.0
O34 O 0.46636 0.88472 0.86499 0.0
O35 O 0.44881 0.91208 0.86664 0.0
C36 C 0.50051 0.93168 0.85631 0.0
O37 O 0.48311 0.87957 0.82631 0.0
O38 O 0.49173 0.90806 0.81311 0.0
In39 In 0.32757 0.22547 0.09928 0.0
O40 O 0.35404 0.23673 0.07996 0.0
O41 O 0.32368 0.23895 0.068 0.0
C42 C 0.34076 0.21366 0.13624 0.0
C43 C 0.30823 0.25977 0.11009 0.0
C44 C 0.32119 0.18867 0.08275 0.0
O45 O 0.35237 0.22302 0.12393 0.0
O46 O 0.32295 0.21031 0.12977 0.0
O47 O 0.30666 0.19876 0.09064 0.0
O48 O 0.33843 0.19723 0.08326 0.0
C49 C 0.3425 0.24233 0.06544 0.0
O50 O 0.29821 0.24408 0.10471 0.0
O51 O 0.32733 0.25756 0.11053 0.0
In52 In 0.02775 0.91363 0.15257 0.0
O53 O 0.01915 0.88407 0.16862 0.0
O54 O 0.01252 0.91235 0.18335 0.0
C55 C 0.03939 0.90111 0.1153 0.0
C56 C 0.99351 0.93349 0.14175 0.0
C57 C 0.0644 0.92369 0.16806 0.0
O58 O 0.03032 0.88933 0.12763 0.0
O59 O 0.0429 0.91882 0.12202 0.0
O60 O 0.05284 0.93689 0.15995 0.0
O61 O 0.05723 0.90585 0.16855 0.0
C62 C 0.01157 0.89313 0.18391 0.0
O63 O 0.00676 0.94199 0.15297 0.0
O64 O 0.99797 0.91572 0.13602 0.0
In65 In 0.33317 0.77616 0.39535 0.0
O66 O 0.30356 0.7571 0.39567 0.0
O67 O 0.32707 0.74994 0.37443 0.0
C68 C 0.32648 0.8109 0.41604 0.0
C69 C 0.35303 0.75384 0.42295 0.0
C70 C 0.34679 0.79079 0.35966 0.0
O71 O 0.31253 0.80252 0.4056 0.0
O72 O 0.34328 0.80157 0.41612 0.0
O73 O 0.35741 0.77889 0.37051 0.0
O74 O 0.32972 0.79569 0.36714 0.0
C75 C 0.30993 0.74532 0.38173 0.0
O76 O 0.3624 0.76333 0.40896 0.0
O77 O 0.33392 0.75608 0.42308 0.0
In78 In 0.46783 0.08822 0.65851 0.0
O79 O 0.47815 0.11459 0.67858 0.0
O80 O 0.48205 0.08424 0.68968 0.0
C81 C 0.45837 0.1068 0.62318 0.0
C82 C 0.50288 0.07126 0.64613 0.0
C83 C 0.43069 0.07426 0.66958 0.0
O84 O 0.45911 0.11652 0.63985 0.0
O85 O 0.46181 0.08795 0.62457 0.0
O86 O 0.44284 0.06357 0.65906 0.0
O87 O 0.43755 0.09142 0.6748 0.0
C88 C 0.48472 0.10308 0.69263 0.0
O89 O 0.48905 0.06054 0.65443 0.0
O90 O 0.49877 0.08995 0.64428 0.0
In91 In 0.15615 0.21404 0.89697 0.0
O92 O 0.12892 0.22403 0.91601 0.0
O93 O 0.15892 0.22799 0.92818 0.0
C94 C 0.14249 0.20435 0.85974 0.0
C95 C 0.17321 0.24889 0.88439 0.0
C96 C 0.16666 0.17681 0.91047 0.0
O97 O 0.13034 0.20819 0.8743 0.0
O98 O 0.16119 0.20452 0.86436 0.0
O99 O 0.17978 0.18886 0.90291 0.0
O100 O 0.14872 0.1837 0.9112 0.0
C101 C 0.13994 0.23032 0.93059 0.0
O102 O 0.18371 0.23558 0.89378 0.0
O103 O 0.15466 0.24451 0.88181 0.0
In104 In 0.33964 0.03259 0.08388 0.0
O105 O 0.34656 0.01617 0.05355 0.0
O106 O 0.34951 2e-05 0.08174 0.0
C107 C 0.32289 0.0695 0.0785 0.0
C108 C 0.30633 0.01521 0.0992 0.0
C109 C 0.37653 0.04375 0.09766 0.0
O110 O 0.33035 0.05961 0.06362 0.0
O111 O 0.32382 0.06066 0.09558 0.0
O112 O 0.36439 0.03357 0.10871 0.0
O113 O 0.36993 0.04819 0.08016 0.0
C114 C 0.35071 -0.00045 0.06256 0.0
O115 O 0.32111 0.02067 0.11046 0.0
O116 O 0.30834 0.01902 0.08037 0.0
In117 In 0.22412 0.10523 0.35025 0.0
O118 O 0.23732 0.11252 0.31856 0.0
O119 O 0.25764 0.10827 0.34362 0.0
C120 C 0.18591 0.09099 0.3444 0.0
C121 C 0.24067 0.0722 0.36722 0.0
C122 C 0.22087 0.14291 0.36661 0.0
O123 O 0.19671 0.09726 0.3297 0.0
O124 O 0.19424 0.09232 0.36163 0.0
O125 O 0.22484 0.12741 0.37727 0.0
O126 O 0.21797 0.1393 0.34796 0.0
C127 C 0.25556 0.11211 0.32491 0.0
O128 O 0.23584 0.08774 0.37758 0.0
O129 O 0.23675 0.07322 0.34835 0.0
In130 In 0.15736 0.96648 0.58101 0.0
O131 O 0.15401 0.98739 0.55292 0.0
O132 O 0.14064 0.99621 0.58124 0.0
C133 C 0.1722 0.93006 0.5696 0.0
C134 C 0.19036 0.98378 0.59755 0.0
C135 C 0.12171 0.95294 0.59598 0.0
O136 O 0.1629 0.94157 0.55715 0.0
O137 O 0.17449 0.93734 0.58729 0.0
O138 O 0.13428 0.96245 0.60713 0.0
O139 O 0.12728 0.9503 0.57774 0.0
C140 C 0.14413 0.00071 0.56288 0.0
O141 O 0.17628 0.97622 0.60846 0.0
O142 O 0.18792 0.98194 0.57852 0.0
In143 In 0.28323 0.9025 0.83052 0.0
O144 O 0.27104 0.92127 0.85713 0.0
O145 O 0.26537 0.93145 0.82667 0.0
C146 C 0.29885 0.86855 0.84705 0.0
C147 C 0.25119 0.88563 0.81155 0.0
C148 C 0.31841 0.92037 0.81983 0.0
O149 O 0.28731 0.88027 0.85719 0.0
O150 O 0.30271 0.87429 0.82907 0.0
O151 O 0.30841 0.9095 0.80735 0.0
O152 O 0.31036 0.92243 0.83721 0.0
C153 C 0.26281 0.93437 0.84554 0.0
O154 O 0.26329 0.89735 0.80204 0.0
O155 O 0.25582 0.88222 0.82987 0.0
In156 In 0.34826 0.96545 0.41988 0.0
O157 O 0.34287 0.98916 0.44506 0.0
O158 O 0.37314 0.97966 0.43974 0.0
C159 C 0.32968 0.92921 0.42621 0.0
C160 C 0.32051 0.988 0.40034 0.0
C161 C 0.38263 0.95733 0.39903 0.0
O162 O 0.34078 0.93736 0.4397 0.0
O163 O 0.32784 0.93946 0.4101 0.0
O164 O 0.37198 0.97296 0.39524 0.0
O165 O 0.3755 0.94577 0.41268 0.0
C166 C 0.36146 0.99167 0.44905 0.0
O167 O 0.33575 0.98057 0.39109 0.0
O168 O 0.31947 0.98389 0.41911 0.0
In169 In 0.27384 0.09372 0.67682 0.0
O170 O 0.25457 0.09842 0.70582 0.0
O171 O 0.24038 0.10048 0.67652 0.0
C172 C 0.31206 0.0816 0.68522 0.0
C173 C 0.26042 0.05915 0.66022 0.0
C174 C 0.28181 0.13198 0.66442 0.0
O175 O 0.29989 0.08712 0.69922 0.0
O176 O 0.30473 0.08187 0.66742 0.0
O177 O 0.27508 0.11868 0.65214 0.0
O178 O 0.28447 0.12582 0.68245 0.0
C179 C 0.23835 0.10122 0.69563 0.0
O180 O 0.26528 0.07447 0.64942 0.0
O181 O 0.26309 0.06118 0.67923 0.0
In182 In 0.14716 0.02079 0.9144 0.0
O183 O 0.14308 0.00081 0.94304 0.0
O184 O 0.1342 0.98924 0.91392 0.0
C185 C 0.15642 0.05879 0.92717 0.0
C186 C 0.18238 0.00484 0.90141 0.0
C187 C 0.1135 0.02854 0.89224 0.0
O188 O 0.1447 0.0473 0.93734 0.0
O189 O 0.1637 0.05082 0.9113 0.0
O190 O 0.13105 0.02796 0.88426 0.0
O191 O 0.11307 0.02558 0.91125 0.0
C192 C 0.13585 0.98605 0.93282 0.0
O193 O 0.16847 0.01039 0.88923 0.0
O194 O 0.17865 0.00788 0.92007 0.0
In195 In 0.21987 0.90231 0.17024 0.0
O196 O 0.24179 0.89779 0.19739 0.0
O197 O 0.25158 0.89052 0.16713 0.0
C198 C 0.18218 0.91171 0.18368 0.0
C199 C 0.23458 0.93782 0.15687 0.0
C200 C 0.21227 0.86761 0.14993 0.0
O201 O 0.19419 0.90093 0.1943 0.0
O202 O 0.18944 0.91785 0.167 0.0
O203 O 0.21248 0.88473 0.14103 0.0
O204 O 0.21522 0.86817 0.16894 0.0
C205 C 0.25596 0.89134 0.18584 0.0
O206 O 0.22856 0.924 0.14479 0.0
O207 O 0.23255 0.93385 0.17564 0.0
In208 In 0.09732 0.34767 0.02627 0.0
O209 O 0.06918 0.34918 0.00521 0.0
O210 O 0.09881 0.35549 0.99319 0.0
C211 C 0.08638 0.33876 0.06479 0.0
C212 C 0.11336 0.31239 0.01397 0.0
C213 C 0.11208 0.38563 0.03068 0.0
O214 O 0.07362 0.34565 0.05201 0.0
O215 O 0.1042 0.3363 0.05799 0.0
O216 O 0.12377 0.37039 0.02869 0.0
O217 O 0.0933 0.38146 0.03115 0.0
C218 C 0.07995 0.35385 0.98978 0.0
O219 O 0.12444 0.32749 0.01877 0.0
O220 O 0.0944 0.31497 0.01633 0.0
In221 In 0.57616 0.15469 0.97122 0.0
O222 O 0.54982 0.16142 0.99377 0.0
O223 O 0.5619 0.13158 0.99239 0.0
C224 C 0.5677 0.17218 0.93486 0.0
C225 C 0.59992 0.1791 0.99388 0.0
C226 C 0.59096 0.11915 0.95729 0.0
O227 O 0.55422 0.16341 0.94552 0.0
O228 O 0.58513 0.17291 0.94299 0.0
O229 O 0.60108 0.1303 0.96936 0.0
O230 O 0.57382 0.1262 0.95208 0.0
C231 C 0.54989 0.14365 0.00114 0.0
O232 O 0.60534 0.16135 0.98876 0.0
O233 O 0.58304 0.18485 0.98665 0.0
In234 In 0.10183 0.33823 0.22356 0.0
O235 O 0.10874 0.30843 0.24078 0.0
O236 O 0.10623 0.33629 0.25742 0.0
C237 C 0.09426 0.32814 0.18438 0.0
C238 C 0.06516 0.35057 0.23641 0.0
C239 C 0.13734 0.35892 0.22115 0.0
O240 O 0.1024 0.31571 0.19669 0.0
O241 O 0.08986 0.34522 0.19194 0.0
O242 O 0.12035 0.3679 0.22257 0.0
O243 O 0.13625 0.33976 0.22051 0.0
C244 C 0.1093 0.31733 0.25795 0.0
O245 O 0.07948 0.36294 0.23251 0.0
O246 O 0.06919 0.33201 0.23307 0.0
In247 In 0.92491 0.85084 0.46806 0.0
O248 O 0.9546 0.85448 0.48635 0.0
O249 O 0.92998 0.87495 0.49186 0.0
C250 C 0.93345 0.83183 0.43277 0.0
C251 C 0.9105 0.82072 0.49158 0.0
C252 C 0.90651 0.884 0.45288 0.0
O253 O 0.94665 0.84247 0.44203 0.0
O254 O 0.91645 0.83044 0.4417 0.0
O255 O 0.89805 0.87309 0.46643 0.0
O256 O 0.92377 0.87785 0.44691 0.0
C257 C 0.94766 0.86926 0.49663 0.0
O258 O 0.89865 0.83286 0.48235 0.0
O259 O 0.92925 0.82375 0.48864 0.0
In260 In 0.90246 0.16137 0.21351 0.0
O261 O 0.8932 0.19033 0.23086 0.0
O262 O 0.8973 0.16235 0.24721 0.0
C263 C 0.91442 0.16986 0.17524 0.0
C264 C 0.93825 0.14979 0.22876 0.0
C265 C 0.86674 0.14203 0.20796 0.0
O266 O 0.90647 0.18347 0.18643 0.0
O267 O 0.91596 0.15254 0.18338 0.0
O268 O 0.88336 0.13241 0.20966 0.0
O269 O 0.86828 0.16116 0.20872 0.0
C270 C 0.89297 0.18106 0.24788 0.0
O271 O 0.92407 0.13718 0.22504 0.0
O272 O 0.93446 0.16814 0.22418 0.0
In273 In 0.41058 0.64023 0.52139 0.0
O274 O 0.44056 0.64181 0.50279 0.0
O275 O 0.41722 0.62094 0.49408 0.0
C276 C 0.4147 0.65892 0.55767 0.0
C277 C 0.39078 0.66878 0.50032 0.0
C278 C 0.3986 0.60337 0.53428 0.0
O279 O 0.42969 0.6503 0.549 0.0
O280 O 0.39819 0.65833 0.54784 0.0
O281 O 0.38729 0.61442 0.5232 0.0
O282 O 0.41554 0.61118 0.53913 0.0
C283 C 0.43448 0.62841 0.49024 0.0
O284 O 0.38155 0.65365 0.50803 0.0
O285 O 0.40975 0.66944 0.50355 0.0
In286 In 0.09449 0.67057 0.28327 0.0
O287 O 0.07463 0.64429 0.27231 0.0
O288 O 0.06453 0.67483 0.26708 0.0
C289 C 0.12931 0.65385 0.29666 0.0
C290 C 0.11027 0.68905 0.25028 0.0
C291 C 0.07918 0.6812 0.31979 0.0
O292 O 0.11648 0.64356 0.28652 0.0
O293 O 0.12425 0.67208 0.30024 0.0
O294 O 0.08865 0.69389 0.30865 0.0
O295 O 0.07712 0.66364 0.31217 0.0
C296 C 0.0612 0.65601 0.26482 0.0
O297 O 0.09967 0.69898 0.26307 0.0
O298 O 0.11288 0.67051 0.25453 0.0
In299 In 0.4083 0.32176 0.77927 0.0
O300 O 0.42682 0.34893 0.7688 0.0
O301 O 0.43932 0.31901 0.76477 0.0
C302 C 0.37148 0.33426 0.79143 0.0
C303 C 0.39517 0.30459 0.7446 0.0
C304 C 0.42229 0.31385 0.81689 0.0
O305 O 0.38412 0.34653 0.78341 0.0
O306 O 0.37765 0.31612 0.79339 0.0
O307 O 0.41511 0.2998 0.80564 0.0
O308 O 0.42309 0.33127 0.80871 0.0
C309 C 0.44132 0.33801 0.7621 0.0
O310 O 0.40445 0.29399 0.75795 0.0
O311 O 0.39264 0.32309 0.74917 0.0
In312 In 0.97784 0.90434 0.65035 0.0
O313 O 0.99771 0.93348 0.64877 0.0
O314 O 0.00939 0.90518 0.6377 0.0
C315 C 0.93979 0.91189 0.66381 0.0
C316 C 0.99302 0.88649 0.68353 0.0
C317 C 0.97099 0.89009 0.61264 0.0
O318 O 0.95079 0.92603 0.65648 0.0
O319 O 0.94803 0.89454 0.6641 0.0
O320 O 0.97645 0.87856 0.62712 0.0
O321 O 0.96806 0.9085 0.61753 0.0
C322 C 0.01244 0.92392 0.64057 0.0
O323 O 0.98685 0.87632 0.66832 0.0
O324 O 0.99126 0.90562 0.68198 0.0
In325 In 0.84578 0.21857 0.3969 0.0
O326 O 0.87404 0.23117 0.41253 0.0
O327 O 0.84494 0.23643 0.4262 0.0
C328 C 0.86324 0.20577 0.36222 0.0
C329 C 0.82575 0.25109 0.38234 0.0
C330 C 0.83386 0.18307 0.41393 0.0
O331 O 0.8736 0.20919 0.37813 0.0
O332 O 0.84423 0.20805 0.36412 0.0
O333 O 0.8225 0.19264 0.40163 0.0
O334 O 0.85066 0.19155 0.4176 0.0
C335 C 0.86399 0.23906 0.42699 0.0
O336 O 0.81738 0.23918 0.39508 0.0
O337 O 0.84365 0.24642 0.3772 0.0
In338 In 0.52297 0.08571 0.14959 0.0
O339 O 0.5025 0.0572 0.14723 0.0
O340 O 0.49127 0.08632 0.13762 0.0
C341 C 0.56165 0.0786 0.1606 0.0
C342 C 0.50816 0.1005 0.18439 0.0
C343 C 0.53005 0.09804 0.11132 0.0
O344 O 0.55008 0.06428 0.15465 0.0
O345 O 0.55351 0.09604 0.16124 0.0
O346 O 0.52479 0.11058 0.12509 0.0
O347 O 0.53233 0.07984 0.11723 0.0
C348 C 0.48786 0.06751 0.13978 0.0
O349 O 0.51283 0.11207 0.16958 0.0
O350 O 0.51165 0.08173 0.18168 0.0
In351 In 0.67916 0.78364 0.89822 0.0
O352 O 0.64961 0.77067 0.91109 0.0
O353 O 0.67717 0.76633 0.92789 0.0
C354 C 0.6602 0.78646 0.86181 0.0
C355 C 0.70694 0.7542 0.88996 0.0
C356 C 0.68657 0.8218 0.91234 0.0
O357 O 0.65138 0.7793 0.87741 0.0
O358 O 0.67816 0.79268 0.86483 0.0
O359 O 0.70006 0.81156 0.90325 0.0
O360 O 0.6698 0.8128 0.91431 0.0
C361 C 0.65819 0.76331 0.92674 0.0
O362 O 0.70228 0.75915 0.90793 0.0
O363 O 0.69881 0.76508 0.87642 0.0
In364 In 0.96855 0.07452 0.84397 0.0
O365 O 0.98499 0.04485 0.8527 0.0
O366 O 0.00256 0.07173 0.84724 0.0
C367 C 0.92921 0.06651 0.83516 0.0
C368 C 0.98103 0.0868 0.80719 0.0
C369 C 0.96656 0.09339 0.88043 0.0
O370 O 0.94111 0.05272 0.84157 0.0
O371 O 0.93718 0.08389 0.83336 0.0
O372 O 0.96941 0.1032 0.86406 0.0
O373 O 0.96415 0.07447 0.87817 0.0
C374 C 0.00245 0.05316 0.85219 0.0
O375 O 0.9776 0.09921 0.8216 0.0
O376 O 0.97772 0.06824 0.8113 0.0
In377 In 0.6666 0.22463 0.59785 0.0
O378 O 0.68659 0.24187 0.6205 0.0
O379 O 0.68903 0.24991 0.58931 0.0
C380 C 0.6818 0.18815 0.58595 0.0
C381 C 0.64377 0.24334 0.56938 0.0
C382 C 0.64282 0.21648 0.63057 0.0
O383 O 0.68966 0.19829 0.60031 0.0
O384 O 0.66715 0.19689 0.5772 0.0
O385 O 0.64594 0.20379 0.61644 0.0
O386 O 0.65103 0.23366 0.62781 0.0
C387 C 0.69399 0.2539 0.60743 0.0
O388 O 0.63631 0.23746 0.58613 0.0
O389 O 0.66239 0.23936 0.56698 0.0
In390 In 0.52819 0.90684 0.34859 0.0
O391 O 0.51828 0.88306 0.32559 0.0
O392 O 0.51405 0.9146 0.31826 0.0
C393 C 0.53925 0.88765 0.38288 0.0
C394 C 0.49237 0.91926 0.36336 0.0
C395 C 0.56484 0.92032 0.33641 0.0
O396 O 0.53739 0.87814 0.36615 0.0
O397 O 0.53617 0.90663 0.38202 0.0
O398 O 0.55277 0.93177 0.34631 0.0
O399 O 0.55817 0.90267 0.33275 0.0
C400 C 0.51177 0.8962 0.31298 0.0
O401 O 0.50546 0.93216 0.35713 0.0
O402 O 0.49756 0.90079 0.3619 0.0
In403 In 0.82924 0.77363 0.10515 0.0
O404 O 0.80059 0.75317 0.10675 0.0
O405 O 0.82812 0.7434 0.12094 0.0
C406 C 0.81446 0.81009 0.0928 0.0
C407 C 0.84738 0.75606 0.07325 0.0
C408 C 0.85136 0.78334 0.1382 0.0
O409 O 0.8079 0.80135 0.10867 0.0
O410 O 0.82751 0.80006 0.08301 0.0
O411 O 0.85894 0.78345 0.12047 0.0
O412 O 0.83265 0.77899 0.13908 0.0
C413 C 0.80984 0.73941 0.11668 0.0
O414 O 0.85749 0.7643 0.08748 0.0
O415 O 0.82824 0.75713 0.07505 0.0
In416 In 0.64427 0.97217 0.91792 0.0
O417 O 0.64331 0.99431 0.94534 0.0
O418 O 0.62823 0.00219 0.91765 0.0
C419 C 0.66091 0.9366 0.92943 0.0
C420 C 0.6754 0.98772 0.8969 0.0
C421 C 0.60759 0.95922 0.90537 0.0
O422 O 0.65144 0.94776 0.94206 0.0
O423 O 0.66201 0.94358 0.91155 0.0
O424 O 0.62018 0.96745 0.89328 0.0
O425 O 0.61379 0.95709 0.92348 0.0
C426 C 0.63286 0.00732 0.93556 0.0
O427 O 0.66011 0.97986 0.88811 0.0
O428 O 0.67492 0.98742 0.91618 0.0
In429 In 0.78275 0.90836 0.65378 0.0
O430 O 0.77166 0.9254 0.62588 0.0
O431 O 0.76857 0.93973 0.65504 0.0
C432 C 0.79038 0.87246 0.63531 0.0
C433 C 0.7487 0.89965 0.67487 0.0
C434 C 0.82037 0.9214 0.66467 0.0
O435 O 0.79086 0.88916 0.62576 0.0
O436 O 0.78648 0.87394 0.65406 0.0
O437 O 0.81028 0.90924 0.67574 0.0
O438 O 0.81121 0.92724 0.64887 0.0
C439 C 0.76545 0.9406 0.63602 0.0
O440 O 0.76495 0.9049 0.68399 0.0
O441 O 0.75008 0.89872 0.65571 0.0
In442 In 0.8479 0.02795 0.41058 0.0
O443 O 0.82832 0.01597 0.38473 0.0
O444 O 0.81726 0.01375 0.41548 0.0
C445 C 0.88415 0.04134 0.39758 0.0
C446 C 0.86145 0.99406 0.42871 0.0
C447 C 0.83103 0.06451 0.41642 0.0
O448 O 0.87227 0.03156 0.38585 0.0
O449 O 0.87754 0.04439 0.41544 0.0
O450 O 0.83893 0.05469 0.43116 0.0
O451 O 0.83166 0.05572 0.39928 0.0
C452 C 0.81423 0.01025 0.39675 0.0
O453 O 0.85325 0.0082 0.43915 0.0
O454 O 0.86293 0.99756 0.40983 0.0
In455 In 0.71948 0.10414 0.15992 0.0
O456 O 0.73541 0.11482 0.18926 0.0
O457 O 0.75345 0.10658 0.16337 0.0
C458 C 0.68022 0.0967 0.16994 0.0
C459 C 0.73305 0.06671 0.15148 0.0
C460 C 0.71868 0.13801 0.13641 0.0
O461 O 0.6921 0.10609 0.18188 0.0
O462 O 0.68813 0.09131 0.1533 0.0
O463 O 0.71807 0.12037 0.1287 0.0
O464 O 0.71908 0.13836 0.15561 0.0
C465 C 0.75304 0.11278 0.18157 0.0
O466 O 0.72971 0.07982 0.13768 0.0
O467 O 0.72878 0.07232 0.16943 0.0
In468 In 0.64769 0.03509 0.58313 0.0
O469 O 0.64666 0.01454 0.55451 0.0
O470 O 0.62899 0.00656 0.58057 0.0
C471 C 0.66396 0.07117 0.57242 0.0
C472 C 0.6794 0.01771 0.60195 0.0
C473 C 0.61218 0.04844 0.59844 0.0
O474 O 0.65442 0.0602 0.55967 0.0
O475 O 0.66545 0.06367 0.59008 0.0
O476 O 0.62423 0.03754 0.60883 0.0
O477 O 0.61824 0.05276 0.58066 0.0
C478 C 0.63459 0.00193 0.56279 0.0
O479 O 0.66471 0.02538 0.61186 0.0
O480 O 0.67801 0.01908 0.5828 0.0
In481 In 0.72057 0.89989 0.33262 0.0
O482 O 0.7315 0.92177 0.35681 0.0
O483 O 0.7325 0.93153 0.32568 0.0
C484 C 0.71347 0.86627 0.35522 0.0
C485 C 0.75516 0.88932 0.31358 0.0
C486 C 0.68267 0.91048 0.32071 0.0
O487 O 0.71383 0.88389 0.36294 0.0
O488 O 0.71651 0.86568 0.33625 0.0
O489 O 0.69415 0.8998 0.30944 0.0
O490 O 0.69052 0.91586 0.33737 0.0
C491 C 0.73629 0.93556 0.34415 0.0
O492 O 0.73853 0.89101 0.30382 0.0
O493 O 0.75395 0.89262 0.33249 0.0
In494 In 0.84215 0.96646 0.09344 0.0
O495 O 0.8472 0.9807 0.06178 0.0
O496 O 0.8516 0.99876 0.08867 0.0
C497 C 0.82602 0.92904 0.09418 0.0
C498 C 0.80846 0.98466 0.10668 0.0
C499 C 0.88048 0.95704 0.10401 0.0
O500 O 0.83041 0.93779 0.07744 0.0
O501 O 0.82997 0.93919 0.11009 0.0
O502 O 0.86888 0.96672 0.11612 0.0
O503 O 0.87254 0.95221 0.08713 0.0
C504 C 0.85167 0.99794 0.06942 0.0
O505 O 0.8236 0.98169 0.11843 0.0
O506 O 0.81042 0.97802 0.08866 0.0
In507 In 0.77395 0.09656 0.83553 0.0
O508 O 0.76578 0.07929 0.86426 0.0
O509 O 0.75823 0.06591 0.83552 0.0
C510 C 0.7838 0.13257 0.85223 0.0
C511 C 0.73957 0.10866 0.81665 0.0
C512 C 0.81102 0.08341 0.82335 0.0
O513 O 0.77838 0.11752 0.86301 0.0
O514 O 0.78494 0.12908 0.83332 0.0
O515 O 0.79955 0.0936 0.81164 0.0
O516 O 0.80349 0.07951 0.84058 0.0
C517 C 0.75771 0.06459 0.85475 0.0
O518 O 0.75251 0.09761 0.80745 0.0
O519 O 0.74419 0.11322 0.83471 0.0
In520 In 0.90297 0.64305 0.97493 0.0
O521 O 0.87391 0.65899 0.9851 0.0
O522 O 0.90267 0.67275 0.99189 0.0
C523 C 0.8896 0.60712 0.96101 0.0
C524 C 0.92148 0.62864 0.00851 0.0
C525 C 0.91429 0.66049 0.93954 0.0
O526 O 0.87755 0.62013 0.96867 0.0
O527 O 0.90801 0.61271 0.95977 0.0
O528 O 0.92705 0.65139 0.95085 0.0
O529 O 0.89628 0.66081 0.94626 0.0
C530 C 0.88349 0.67364 0.99325 0.0
O531 O 0.93033 0.64148 0.99706 0.0
O532 O 0.90395 0.62329 0.00284 0.0
In533 In 0.40753 0.85367 0.02398 0.0
O534 O 0.43563 0.85509 0.00298 0.0
O535 O 0.40702 0.86595 0.99203 0.0
C536 C 0.42414 0.84281 0.06011 0.0
C537 C 0.38941 0.82031 0.00896 0.0
C538 C 0.38739 0.8881 0.03396 0.0
O539 O 0.43236 0.85604 0.04875 0.0
O540 O 0.40816 0.83499 0.05296 0.0
O541 O 0.37942 0.87065 0.03575 0.0
O542 O 0.40547 0.88812 0.02744 0.0
C543 C 0.42559 0.86268 0.98831 0.0
O544 O 0.37929 0.83552 0.01517 0.0
O545 O 0.40851 0.82189 0.01082 0.0
In546 In 0.89661 0.67319 0.78505 0.0
O547 O 0.91776 0.64817 0.77406 0.0
O548 O 0.92784 0.67906 0.77173 0.0
C549 C 0.86401 0.64982 0.79346 0.0
C550 C 0.88444 0.69207 0.75079 0.0
C551 C 0.90596 0.68554 0.82319 0.0
O552 O 0.88176 0.64243 0.79192 0.0
O553 O 0.86285 0.66886 0.79101 0.0
O554 O 0.89339 0.69526 0.81223 0.0
O555 O 0.91411 0.6705 0.81453 0.0
C556 C 0.93157 0.66045 0.76847 0.0
O557 O 0.89295 0.70194 0.76508 0.0
O558 O 0.88187 0.67334 0.75424 0.0
In559 In 0.08916 0.14808 0.52542 0.0
O560 O 0.06139 0.14802 0.50379 0.0
O561 O 0.08423 0.12524 0.50032 0.0
C562 C 0.07657 0.16459 0.56088 0.0
C563 C 0.10923 0.17817 0.50629 0.0
C564 C 0.1044 0.11314 0.54027 0.0
O565 O 0.06451 0.15523 0.54907 0.0
O566 O 0.09459 0.16626 0.55431 0.0
O567 O 0.11441 0.12404 0.52783 0.0
O568 O 0.08722 0.12016 0.54536 0.0
C569 C 0.06775 0.13269 0.49397 0.0
O570 O 0.11857 0.16432 0.51594 0.0
O571 O 0.09006 0.17681 0.50663 0.0
In572 In 0.1021 0.83025 0.78355 0.0
O573 O 0.10387 0.80211 0.76223 0.0
O574 O 0.11488 0.831 0.75208 0.0
C575 C 0.08505 0.82202 0.81986 0.0
C576 C 0.07046 0.84999 0.76766 0.0
C577 C 0.1398 0.84155 0.79451 0.0
O578 O 0.09297 0.80797 0.80915 0.0
O579 O 0.08598 0.83965 0.81223 0.0
O580 O 0.12734 0.85393 0.78655 0.0
O581 O 0.13296 0.8238 0.79752 0.0
C582 C 0.11169 0.81254 0.74786 0.0
O583 O 0.0858 0.85942 0.77471 0.0
O584 O 0.07106 0.83078 0.76922 0.0
In585 In 0.57932 0.35024 0.46821 0.0
O586 O 0.55052 0.34981 0.48862 0.0
O587 O 0.57632 0.36775 0.49714 0.0
C588 C 0.57286 0.3311 0.43251 0.0
C589 C 0.60017 0.32153 0.48805 0.0
C590 C 0.58962 0.388 0.45621 0.0
O591 O 0.55837 0.33968 0.44202 0.0
O592 O 0.59004 0.33232 0.44102 0.0
O593 O 0.60241 0.37597 0.46422 0.0
O594 O 0.57208 0.38054 0.45337 0.0
C595 C 0.55859 0.36178 0.50152 0.0
O596 O 0.60904 0.33624 0.47919 0.0
O597 O 0.58097 0.32126 0.48648 0.0
In598 In 0.90249 0.34579 0.71425 0.0
O599 O 0.92142 0.37254 0.72537 0.0
O600 O 0.93251 0.34238 0.73062 0.0
C601 C 0.86772 0.36441 0.70355 0.0
C602 C 0.88833 0.32817 0.74819 0.0
C603 C 0.91621 0.33255 0.67784 0.0
O604 O 0.88424 0.37419 0.70548 0.0
O605 O 0.86901 0.3454 0.7062 0.0
O606 O 0.90549 0.32129 0.68931 0.0
O607 O 0.92004 0.34995 0.68497 0.0
C608 C 0.93512 0.36129 0.73299 0.0
O609 O 0.89852 0.31798 0.73528 0.0
O610 O 0.88551 0.34666 0.74377 0.0
In611 In 0.59998 0.67152 0.21856 0.0
O612 O 0.60331 0.701 0.23737 0.0
O613 O 0.62458 0.67695 0.24195 0.0
C614 C 0.5834 0.6824 0.18256 0.0
C615 C 0.56853 0.65727 0.24049 0.0
C616 C 0.63159 0.64977 0.20418 0.0
O617 O 0.59638 0.69347 0.19159 0.0
O618 O 0.57822 0.66658 0.19218 0.0
O619 O 0.62067 0.64316 0.21871 0.0
O620 O 0.62629 0.66683 0.19706 0.0
C621 C 0.61853 0.69437 0.24719 0.0
O622 O 0.58036 0.64545 0.23084 0.0
O623 O 0.57263 0.67598 0.23892 0.0
In624 In 0.53012 0.59919 0.84905 0.0
O625 O 0.50961 0.57216 0.85791 0.0
O626 O 0.49952 0.60275 0.86342 0.0
C627 C 0.56767 0.58671 0.83858 0.0
C628 C 0.51284 0.60729 0.81317 0.0
C629 C 0.53966 0.6216 0.88178 0.0
O630 O 0.55646 0.57613 0.85025 0.0
O631 O 0.55971 0.60295 0.83212 0.0
O632 O 0.53761 0.62973 0.86435 0.0
O633 O 0.53752 0.6025 0.88233 0.0
C634 C 0.49583 0.58392 0.86479 0.0
O635 O 0.51843 0.62136 0.8252 0.0
O636 O 0.51646 0.58934 0.81917 0.0
In637 In 0.67111 0.27731 0.09923 0.0
O638 O 0.69813 0.26315 0.11567 0.0
O639 O 0.69254 0.25323 0.08548 0.0
C640 C 0.67764 0.31405 0.08178 0.0
C641 C 0.64503 0.2568 0.07518 0.0
C642 C 0.65763 0.28458 0.13766 0.0
O643 O 0.69227 0.30245 0.08664 0.0
O644 O 0.66017 0.30692 0.08532 0.0
O645 O 0.64831 0.27256 0.12589 0.0
O646 O 0.67292 0.29305 0.12979 0.0
C647 C 0.70262 0.25081 0.10167 0.0
O648 O 0.65351 0.24872 0.09046 0.0
O649 O 0.64893 0.27546 0.07262 0.0
In650 In 0.96319 0.41882 0.33911 0.0
O651 O 0.98098 0.44893 0.34332 0.0
O652 O 0.99105 0.42184 0.35837 0.0
C653 C 0.9264 0.42404 0.32211 0.0
C654 C 0.98397 0.4045 0.30718 0.0
C655 C 0.94969 0.4039 0.37464 0.0
O656 O 0.93557 0.43859 0.33099 0.0
O657 O 0.93614 0.40745 0.32136 0.0
O658 O 0.96124 0.3935 0.36311 0.0
O659 O 0.94484 0.4213 0.36795 0.0
C660 C 0.99402 0.4405 0.3549 0.0
O661 O 0.97721 0.39276 0.32101 0.0
O662 O 0.97986 0.42318 0.30947 0.0
In663 In 0.83829 0.72545 0.59883 0.0
O664 O 0.86514 0.73881 0.58162 0.0
O665 O 0.83578 0.7383 0.56717 0.0
C666 C 0.84872 0.71506 0.63703 0.0
C667 C 0.81626 0.75842 0.60779 0.0
C668 C 0.83521 0.6882 0.58243 0.0
O669 O 0.86108 0.72439 0.62545 0.0
O670 O 0.83161 0.71104 0.62921 0.0
O671 O 0.81952 0.69819 0.58781 0.0
O672 O 0.85205 0.69716 0.58521 0.0
C673 C 0.85435 0.74349 0.56621 0.0
O674 O 0.80753 0.74172 0.60336 0.0
O675 O 0.83547 0.75801 0.60812 0.0
In676 In 0.52332 0.41643 0.64986 0.0
O677 O 0.51533 0.38922 0.66971 0.0
O678 O 0.51027 0.41932 0.6814 0.0
C679 C 0.53457 0.40405 0.61262 0.0
C680 C 0.48731 0.43189 0.6385 0.0
C681 C 0.56048 0.42723 0.66289 0.0
O682 O 0.52755 0.39156 0.62563 0.0
O683 O 0.53613 0.42226 0.61868 0.0
O684 O 0.54831 0.44023 0.65529 0.0
O685 O 0.55361 0.40929 0.66422 0.0
C686 C 0.50888 0.4003 0.68423 0.0
O687 O 0.50078 0.4432 0.64665 0.0
O688 O 0.4924 0.4135 0.63612 0.0
In689 In 0.84563 0.27164 0.89309 0.0
O690 O 0.87395 0.25768 0.90757 0.0
O691 O 0.84474 0.25009 0.91979 0.0
C692 C 0.8632 0.28426 0.85836 0.0
C693 C 0.81907 0.24441 0.87787 0.0
C694 C 0.83858 0.30761 0.9116 0.0
O695 O 0.87199 0.27172 0.87013 0.0
O696 O 0.8461 0.29062 0.86455 0.0
O697 O 0.82535 0.29905 0.9005 0.0
O698 O 0.85479 0.29761 0.91395 0.0
C699 C 0.8638 0.24773 0.92063 0.0
O700 O 0.81566 0.25341 0.89457 0.0
O701 O 0.83524 0.2496 0.86895 0.0
In702 In 0.96586 0.58527 0.1576 0.0
O703 O 0.9771 0.61108 0.17765 0.0
O704 O 0.98141 0.58042 0.18791 0.0
C705 C 0.95505 0.60237 0.12195 0.0
C706 C -0.0002 0.56735 0.14344 0.0
C707 C 0.92889 0.57533 0.17241 0.0
O708 O 0.96177 0.61296 0.13664 0.0
O709 O 0.95318 0.58357 0.12569 0.0
O710 O 0.93965 0.56251 0.16273 0.0
O711 O 0.93696 0.59263 0.17471 0.0
C712 C 0.9842 0.59921 0.19116 0.0
O713 O 0.98574 0.5568 0.15162 0.0
O714 O 0.9963 0.58622 0.14248 0.0
In715 In 0.65714 0.72452 0.40014 0.0
O716 O 0.62939 0.73406 0.41835 0.0
O717 O 0.65863 0.73558 0.43275 0.0
C718 C 0.64216 0.72156 0.36191 0.0
C719 C 0.68138 0.75685 0.39337 0.0
C720 C 0.66361 0.68587 0.41254 0.0
O721 O 0.63123 0.72728 0.37672 0.0
O722 O 0.66018 0.71686 0.36661 0.0
O723 O 0.67825 0.69774 0.40836 0.0
O724 O 0.64613 0.69348 0.41023 0.0
C725 C 0.63962 0.73856 0.4341 0.0
O726 O 0.68834 0.73885 0.39294 0.0
O727 O 0.66267 0.75828 0.39745 0.0
In728 In 0.84295 0.53082 0.59101 0.0
O729 O 0.85318 0.51566 0.56117 0.0
O730 O 0.8503 0.49753 0.58815 0.0
C731 C 0.83096 0.56875 0.5804 0.0
C732 C 0.8077 0.51339 0.60178 0.0
C733 C 0.87681 0.5373 0.61362 0.0
O734 O 0.84287 0.55848 0.56924 0.0
O735 O 0.82516 0.55981 0.59635 0.0
O736 O 0.85924 0.53693 0.62152 0.0
O737 O 0.87715 0.53461 0.59463 0.0
C738 C 0.85466 0.49823 0.56941 0.0
O739 O 0.82119 0.5182 0.61475 0.0
O740 O 0.8119 0.51778 0.58346 0.0
In741 In 0.726 0.59975 0.85397 0.0
O742 O 0.73852 0.60839 0.82239 0.0
O743 O 0.75932 0.6034 0.84698 0.0
C744 C 0.68687 0.58795 0.8501 0.0
C745 C 0.7422 0.56488 0.86701 0.0
C746 C 0.72444 0.63721 0.87062 0.0
O747 O 0.69755 0.5928 0.83475 0.0
O748 O 0.69587 0.58939 0.86701 0.0
O749 O 0.72814 0.62161 0.88132 0.0
O750 O 0.72086 0.63367 0.85207 0.0
C751 C 0.75687 0.60809 0.82849 0.0
O752 O 0.7392 0.57982 0.87889 0.0
O753 O 0.73644 0.56746 0.84878 0.0
In754 In 0.64165 0.46704 0.07419 0.0
O755 O 0.65718 0.47501 0.10419 0.0
O756 O 0.67239 0.48222 0.07627 0.0
C757 C 0.60433 0.45685 0.08769 0.0
C758 C 0.63203 0.50135 0.05377 0.0
C759 C 0.65588 0.43 0.06343 0.0
O760 O 0.61727 0.46543 0.09915 0.0
O761 O 0.61053 0.45296 0.06987 0.0
O762 O 0.64617 0.44113 0.051 0.0
O763 O 0.6587 0.43778 0.08078 0.0
C764 C 0.67259 0.48281 0.09553 0.0
O765 O 0.64421 0.48841 0.04617 0.0
O766 O 0.62471 0.4965 0.07084 0.0
In767 In 0.77224 0.3978 0.34153 0.0
O768 O 0.75224 0.39481 0.3127 0.0
O769 O 0.74265 0.38077 0.34042 0.0
C770 C 0.80794 0.41516 0.33094 0.0
C771 C 0.75366 0.42932 0.35929 0.0
C772 C 0.78472 0.3622 0.35746 0.0
O773 O 0.79782 0.40453 0.31838 0.0
O774 O 0.79998 0.4169 0.34835 0.0
O775 O 0.77677 0.37599 0.36836 0.0
O776 O 0.78691 0.36676 0.33887 0.0
C777 C 0.73879 0.38443 0.32195 0.0
O778 O 0.76189 0.41524 0.36962 0.0
O779 O 0.75514 0.4275 0.34016 0.0
In780 In 0.86141 0.46352 0.89653 0.0
O781 O 0.84215 0.47659 0.87066 0.0
O782 O 0.83101 0.47833 0.90126 0.0
C783 C 0.89798 0.45541 0.88023 0.0
C784 C 0.87391 0.49531 0.91867 0.0
C785 C 0.84656 0.42617 0.90416 0.0
O786 O 0.88329 0.46175 0.86939 0.0
O787 O 0.8937 0.45217 0.89875 0.0
O788 O 0.85592 0.43623 0.91773 0.0
O789 O 0.84512 0.43485 0.88706 0.0
C790 C 0.82814 0.48237 0.88267 0.0
O791 O 0.86353 0.48114 0.92673 0.0
O792 O 0.87783 0.49322 0.89997 0.0
In793 In 0.7738 0.58786 0.16048 0.0
O794 O 0.75258 0.58961 0.1887 0.0
O795 O 0.74374 0.60359 0.16067 0.0
C796 C 0.8099 0.57042 0.16885 0.0
C797 C 0.75631 0.55781 0.13946 0.0
C798 C 0.78705 0.62526 0.15059 0.0
O799 O 0.79894 0.57808 0.18285 0.0
O800 O 0.80232 0.57119 0.15119 0.0
O801 O 0.77809 0.61399 0.13773 0.0
O802 O 0.78967 0.61742 0.16798 0.0
C803 C 0.73917 0.59961 0.17892 0.0
O804 O 0.7646 0.57292 0.1307 0.0
O805 O 0.75746 0.55771 0.15873 0.0
In806 In 0.64163 0.53042 0.41258 0.0
O807 O 0.65703 0.51784 0.38398 0.0
O808 O 0.67291 0.51582 0.41214 0.0
C809 C 0.61201 0.53606 0.38461 0.0
C810 C 0.62988 0.50094 0.43883 0.0
C811 C 0.64926 0.56786 0.42828 0.0
O812 O 0.61295 0.52039 0.39571 0.0
O813 O 0.62645 0.54855 0.38711 0.0
O814 O 0.63398 0.55744 0.43363 0.0
O815 O 0.66101 0.55892 0.41606 0.0
C816 C 0.67278 0.51199 0.39332 0.0
O817 O 0.64821 0.5065 0.43716 0.0
O818 O 0.61742 0.5116 0.42881 0.0
In819 In 0.71692 0.40208 0.66776 0.0
O820 O 0.73637 0.39686 0.69642 0.0
O821 O 0.75072 0.39759 0.66707 0.0
C822 C 0.67842 0.41268 0.67663 0.0
C823 C 0.72961 0.43772 0.65297 0.0
C824 C 0.71219 0.36344 0.65496 0.0
O825 O 0.69082 0.40724 0.69044 0.0
O826 O 0.68551 0.4127 0.65872 0.0
O827 O 0.71579 0.37777 0.64248 0.0
O828 O 0.71039 0.36892 0.67331 0.0
C829 C 0.75272 0.39559 0.6861 0.0
O830 O 0.72591 0.42264 0.64138 0.0
O831 O 0.72602 0.43484 0.67173 0.0
In832 In 0.58526 0.85066 0.53146 0.0
O833 O 0.61441 0.83444 0.52215 0.0
O834 O 0.5859 0.81869 0.51934 0.0
C835 C 0.59537 0.88934 0.54076 0.0
C836 C 0.56476 0.85761 0.49674 0.0
C837 C 0.5778 0.8345 0.56837 0.0
O838 O 0.60809 0.87726 0.53273 0.0
O839 O 0.57806 0.88173 0.54426 0.0
O840 O 0.5634 0.84 0.55671 0.0
O841 O 0.59552 0.83732 0.56138 0.0
C842 C 0.60502 0.81841 0.51673 0.0
O843 O 0.55539 0.85465 0.51342 0.0
O844 O 0.58392 0.85726 0.4979 0.0
In845 In 0.07343 0.65531 0.47482 0.0
O846 O 0.04426 0.6541 0.49455 0.0
O847 O 0.06916 0.63431 0.50147 0.0
C848 C 0.06108 0.66785 0.43741 0.0
C849 C 0.08978 0.68605 0.49641 0.0
C850 C 0.0949 0.62197 0.46439 0.0
O851 O 0.05081 0.65541 0.44795 0.0
O852 O 0.07682 0.67449 0.44613 0.0
O853 O 0.10326 0.63929 0.46592 0.0
O854 O 0.07595 0.62171 0.46761 0.0
C855 C 0.05149 0.64028 0.50595 0.0
O856 O 0.10044 0.67184 0.48894 0.0
O857 O 0.07097 0.68498 0.49254 0.0
In858 In 0.61095 0.83038 0.71883 0.0
O859 O 0.59675 0.85948 0.73174 0.0
O860 O 0.58084 0.83148 0.73561 0.0
C861 C 0.64007 0.85698 0.70683 0.0
C862 C 0.62692 0.80501 0.7472 0.0
C863 C 0.5969 0.81363 0.68382 0.0
O864 O 0.63836 0.85124 0.72513 0.0
O865 O 0.62662 0.85005 0.69499 0.0
O866 O 0.61238 0.80671 0.69297 0.0
O867 O 0.58808 0.82798 0.693 0.0
C868 C 0.5813 0.85041 0.73883 0.0
O869 O 0.60812 0.80865 0.74592 0.0
O870 O 0.63744 0.81272 0.73307 0.0
In871 In 0.41376 0.34921 0.97142 0.0
O872 O 0.44127 0.35345 0.99292 0.0
O873 O 0.41145 0.3619 0.00295 0.0
C874 C 0.42689 0.33749 0.93424 0.0
C875 C 0.39963 0.31454 0.98754 0.0
C876 C 0.39569 0.38516 0.96345 0.0
O877 O 0.43822 0.34742 0.94631 0.0
O878 O 0.40932 0.33355 0.94101 0.0
O879 O 0.38543 0.36901 0.96613 0.0
O880 O 0.41479 0.3828 0.96381 0.0
C881 C 0.43016 0.36051 0.00714 0.0
O882 O 0.3878 0.32819 0.98068 0.0
O883 O 0.41844 0.31814 0.98539 0.0
In884 In 0.39788 0.65691 0.71587 0.0
O885 O 0.3877 0.68677 0.73124 0.0
O886 O 0.3923 0.66003 0.7494 0.0
C887 C 0.41038 0.66334 0.67725 0.0
C888 C 0.4339 0.64766 0.73221 0.0
C889 C 0.36309 0.63559 0.71143 0.0
O890 O 0.40086 0.67704 0.68703 0.0
O891 O 0.41308 0.64694 0.68684 0.0
O892 O 0.38016 0.62689 0.71355 0.0
O893 O 0.36372 0.65479 0.71115 0.0
C894 C 0.38752 0.67864 0.74883 0.0
O895 O 0.42017 0.63435 0.72935 0.0
O896 O 0.42951 0.66551 0.72634 0.0
In897 In 0.91804 0.1358 0.02283 0.0
O898 O 0.93924 0.14183 0.99604 0.0
O899 O 0.93996 0.1123 0.00912 0.0
C900 C 0.93236 0.14963 0.05901 0.0
C901 C 0.89793 0.16381 0.00089 0.0
C902 C 0.89183 0.10535 0.03213 0.0
O903 O 0.94017 0.13448 0.05006 0.0
O904 O 0.91819 0.15808 0.04928 0.0
O905 O 0.89259 0.12187 0.04194 0.0
O906 O 0.90381 0.10443 0.01711 0.0
C907 C 0.946 0.12391 0.99498 0.0
O908 O 0.88979 0.14704 0.00579 0.0
O909 O 0.91582 0.16641 0.00739 0.0
In910 In 0.59661 0.17641 0.77959 0.0
O911 O 0.60207 0.20496 0.75973 0.0
O912 O 0.60718 0.17542 0.74709 0.0
C913 C 0.58412 0.18745 0.81709 0.0
C914 C 0.56167 0.16147 0.76485 0.0
C915 C 0.63297 0.16055 0.79011 0.0
O916 O 0.59275 0.19999 0.80517 0.0
O917 O 0.58138 0.16985 0.80981 0.0
O918 O 0.6191 0.14954 0.78241 0.0
O919 O 0.62834 0.17907 0.79235 0.0
C920 C 0.60705 0.19443 0.74428 0.0
O921 O 0.57604 0.14994 0.77075 0.0
O922 O 0.5648 0.18036 0.76714 0.0
In923 In 0.90185 0.83135 0.28107 0.0
O924 O 0.89185 0.80127 0.26591 0.0
O925 O 0.90001 0.82647 0.24717 0.0
C926 C 0.91319 0.8142 0.31695 0.0
C927 C 0.93379 0.85192 0.2662 0.0
C928 C 0.86808 0.85398 0.28854 0.0
O929 O 0.89668 0.80966 0.30818 0.0
O930 O 0.92423 0.82639 0.30709 0.0
O931 O 0.8849 0.85737 0.29723 0.0
O932 O 0.86845 0.83954 0.27596 0.0
C933 C 0.89376 0.80836 0.24805 0.0
O934 O 0.91795 0.86088 0.27266 0.0
O935 O 0.9336 0.83272 0.26784 0.0
In936 In 0.46528 0.41635 0.1544 0.0
O937 O 0.47938 0.38945 0.17107 0.0
O938 O 0.48471 0.41948 0.18256 0.0
C939 C 0.45023 0.40033 0.11999 0.0
C940 C 0.49556 0.43768 0.137 0.0
C941 C 0.42988 0.4232 0.17385 0.0
O942 O 0.46241 0.39047 0.13127 0.0
O943 O 0.44533 0.41782 0.12643 0.0
O944 O 0.43876 0.43718 0.16382 0.0
O945 O 0.43919 0.40637 0.17435 0.0
C946 C 0.48801 0.40059 0.18429 0.0
O947 O 0.48388 0.446 0.15001 0.0
O948 O 0.49133 0.41945 0.13276 0.0
In949 In 0.33829 0.72017 0.89676 0.0
O950 O 0.31086 0.74206 0.89452 0.0
O951 O 0.33993 0.75149 0.8833 0.0
C952 C 0.32354 0.68386 0.90949 0.0
C953 C 0.35609 0.73621 0.92973 0.0
C954 C 0.35646 0.70947 0.86153 0.0
O955 O 0.31352 0.69515 0.89746 0.0
O956 O 0.34031 0.69119 0.91523 0.0
O957 O 0.36604 0.71001 0.87825 0.0
O958 O 0.33778 0.71392 0.86271 0.0
C959 C 0.3215 0.75604 0.88637 0.0
O960 O 0.36636 0.72932 0.91489 0.0
O961 O 0.33698 0.73439 0.92806 0.0
In962 In 0.01996 0.59291 0.65584 0.0
O963 O 0.00897 0.6182 0.67645 0.0
O964 O 0.01021 0.58785 0.68849 0.0
C965 C 0.02278 0.61074 0.61887 0.0
C966 C 0.98741 0.56915 0.64843 0.0
C967 C 0.05907 0.5873 0.66705 0.0
O968 O 0.01782 0.62074 0.63458 0.0
O969 O 0.02667 0.5922 0.62205 0.0
O970 O 0.04847 0.57282 0.65995 0.0
O971 O 0.04999 0.60417 0.66826 0.0
C972 C 0.00579 0.6064 0.69144 0.0
O973 O 0.00533 0.56188 0.64837 0.0
O974 O 0.98622 0.58794 0.65221 0.0
In975 In 0.16947 0.28562 0.40246 0.0
O976 O 0.19188 0.26019 0.4101 0.0
O977 O 0.192 0.27163 0.37986 0.0
C978 C 0.18194 0.32337 0.41399 0.0
C979 C 0.14849 0.26395 0.43024 0.0
C980 C 0.1444 0.29099 0.3702 0.0
O981 O 0.19001 0.31389 0.39934 0.0
O982 O 0.16861 0.31334 0.42344 0.0
O983 O 0.1436 0.30204 0.38594 0.0
O984 O 0.15732 0.27681 0.37105 0.0
C985 C 0.19858 0.25838 0.39217 0.0
O986 O 0.14057 0.26987 0.41372 0.0
O987 O 0.16673 0.2694 0.43291 0.0
In988 In 0.46743 0.58184 0.33876 0.0
O989 O 0.48494 0.55139 0.34063 0.0
O990 O 0.50009 0.57944 0.34759 0.0
C991 C 0.4296 0.57772 0.32367 0.0
C992 C 0.48504 0.59989 0.30689 0.0
C993 C 0.45915 0.59091 0.3779 0.0
O994 O 0.44 0.56236 0.32915 0.0
O995 O 0.43837 0.59473 0.32572 0.0
O996 O 0.46586 0.6043 0.36567 0.0
O997 O 0.45634 0.57353 0.37015 0.0
C998 C 0.50135 0.56036 0.34569 0.0
O999 O 0.48027 0.60974 0.32287 0.0
O1000 O 0.47991 0.58129 0.30679 0.0
In1001 In 0.17533 0.71928 0.10469 0.0
O1002 O 0.20447 0.73757 0.11197 0.0
O1003 O 0.17541 0.75232 0.11294 0.0
C1004 C 0.18387 0.68219 0.08963 0.0
C1005 C 0.15986 0.73504 0.07062 0.0
C1006 C 0.16052 0.70941 0.14168 0.0
O1007 O 0.19769 0.69334 0.0973 0.0
O1008 O 0.16624 0.68989 0.0895 0.0
O1009 O 0.14947 0.71791 0.12834 0.0
O1010 O 0.17858 0.70577 0.13615 0.0
C1011 C 0.19445 0.75387 0.11487 0.0
O1012 O 0.14861 0.72908 0.08522 0.0
O1013 O 0.17881 0.73232 0.07308 0.0
In1014 In 0.0423 0.40779 0.84323 0.0
O1015 O 0.02797 0.37941 0.82876 0.0
O1016 O 0.02288 0.40846 0.81512 0.0
C1017 C 0.05647 0.38788 0.87603 0.0
C1018 C 0.01451 0.43371 0.85913 0.0
C1019 C 0.07762 0.41689 0.82443 0.0
O1020 O 0.04034 0.38225 0.86703 0.0
O1021 O 0.06537 0.40307 0.86823 0.0
O1022 O 0.06899 0.42929 0.83645 0.0
O1023 O 0.06804 0.40048 0.82153 0.0
C1024 C 0.01955 0.38956 0.81467 0.0
O1025 O 0.0218 0.43623 0.8415 0.0
O1026 O 0.02232 0.41927 0.86899 0.0
In1027 In 0.32971 0.2705 0.60034 0.0
O1028 O 0.35557 0.25726 0.58128 0.0
O1029 O 0.32481 0.25291 0.57138 0.0
C1030 C 0.34719 0.28389 0.63484 0.0
C1031 C 0.30762 0.24004 0.61648 0.0
C1032 C 0.32266 0.30643 0.58208 0.0
O1033 O 0.35635 0.27174 0.62293 0.0
O1034 O 0.3297 0.28947 0.62901 0.0
O1035 O 0.309 0.29761 0.59259 0.0
O1036 O 0.33939 0.29702 0.58085 0.0
C1037 C 0.34353 0.24982 0.56811 0.0
O1038 O 0.29943 0.25308 0.60479 0.0
O1039 O 0.32626 0.24289 0.6201 0.0
In1040 In 0.13935 0.47586 0.41717 0.0
O1041 O 0.15609 0.48383 0.38798 0.0
O1042 O 0.17124 0.48863 0.41652 0.0
C1043 C 0.10137 0.4664 0.40448 0.0
C1044 C 0.13126 0.51021 0.43802 0.0
C1045 C 0.15557 0.4393 0.42637 0.0
O1046 O 0.11398 0.47532 0.39294 0.0
O1047 O 0.10807 0.46216 0.42198 0.0
O1048 O 0.14935 0.4513 0.44017 0.0
O1049 O 0.15349 0.44578 0.40838 0.0
C1050 C 0.17188 0.48999 0.39727 0.0
O1051 O 0.13335 0.49329 0.44709 0.0
O1052 O 0.1332 0.50955 0.41892 0.0
In1053 In 0.27491 0.40674 0.16666 0.0
O1054 O 0.24891 0.41291 0.18882 0.0
O1055 O 0.26367 0.38429 0.19099 0.0
C1056 C 0.31074 0.42393 0.17806 0.0
C1057 C 0.25224 0.43236 0.14408 0.0
C1058 C 0.28362 0.37342 0.14396 0.0
O1059 O 0.30286 0.40928 0.18778 0.0
O1060 O 0.30013 0.43029 0.16341 0.0
O1061 O 0.29599 0.38791 0.14653 0.0
O1062 O 0.26644 0.37603 0.15221 0.0
C1063 C 0.24918 0.3955 0.19688 0.0
O1064 O 0.25959 0.41613 0.13676 0.0
O1065 O 0.25671 0.43571 0.16247 0.0
In1066 In 0.35369 0.53077 0.92035 0.0
O1067 O 0.37813 0.51374 0.93845 0.0
O1068 O 0.34759 0.50466 0.94297 0.0
C1069 C 0.33662 0.56721 0.9295 0.0
C1070 C 0.32604 0.51008 0.89878 0.0
C1071 C 0.38843 0.54048 0.90091 0.0
O1072 O 0.3461 0.55681 0.94267 0.0
O1073 O 0.33529 0.5589 0.91225 0.0
O1074 O 0.37677 0.52655 0.89441 0.0
O1075 O 0.38224 0.54953 0.91674 0.0
C1076 C 0.36611 0.50117 0.94653 0.0
O1077 O 0.34193 0.51734 0.89054 0.0
O1078 O 0.32406 0.51381 0.91757 0.0
In1079 In 0.2186 0.59522 0.66138 0.0
O1080 O 0.23317 0.60238 0.69255 0.0
O1081 O 0.25225 0.59832 0.66642 0.0
C1082 C 0.17933 0.58415 0.66585 0.0
C1083 C 0.23319 0.55993 0.64765 0.0
C1084 C 0.21662 0.63279 0.64487 0.0
O1085 O 0.18978 0.59039 0.68086 0.0
O1086 O 0.18865 0.58369 0.64906 0.0
O1087 O 0.22121 0.61734 0.6343 0.0
O1088 O 0.21252 0.62904 0.66328 0.0
C1089 C 0.25108 0.60208 0.68523 0.0
O1090 O 0.23011 0.57504 0.63598 0.0
O1091 O 0.22831 0.56254 0.66615 0.0
In1092 In 0.14367 0.53168 0.07741 0.0
O1093 O 0.14852 0.50988 0.05036 0.0
O1094 O 0.11924 0.51117 0.06397 0.0
C1095 C 0.162 0.56719 0.06725 0.0
C1096 C 0.17067 0.51011 0.09933 0.0
C1097 C 0.10913 0.54458 0.09539 0.0
O1098 O 0.15032 0.55784 0.05509 0.0
O1099 O 0.16498 0.55818 0.08396 0.0
O1100 O 0.11884 0.52927 0.102 0.0
O1101 O 0.11704 0.55329 0.08014 0.0
C1102 C 0.13067 0.50274 0.0511 0.0
O1103 O 0.15694 0.52071 0.10778 0.0
O1104 O 0.17075 0.51071 0.08012 0.0
In1105 In 0.23088 0.39376 0.84116 0.0
O1106 O 0.25045 0.39235 0.81194 0.0
O1107 O 0.25851 0.374 0.8375 0.0
C1108 C 0.19575 0.41207 0.83048 0.0
C1109 C 0.25051 0.42404 0.86004 0.0
C1110 C 0.21745 0.35874 0.85779 0.0
O1111 O 0.20532 0.40067 0.8182 0.0
O1112 O 0.20403 0.41419 0.84769 0.0
O1113 O 0.22772 0.37156 0.86789 0.0
O1114 O 0.21355 0.36395 0.83965 0.0
C1115 C 0.26276 0.37962 0.81964 0.0
O1116 O 0.24107 0.41035 0.86983 0.0
O1117 O 0.24989 0.42238 0.84087 0.0
In1118 In 0.33972 0.46157 0.58002 0.0
O1119 O 0.34482 0.47951 0.55016 0.0
O1120 O 0.35827 0.48996 0.57794 0.0
C1121 C 0.32228 0.4252 0.57374 0.0
C1122 C 0.30734 0.48203 0.59354 0.0
C1123 C 0.37474 0.44854 0.5964 0.0
O1124 O 0.33221 0.43414 0.55971 0.0
O1125 O 0.32101 0.43482 0.59036 0.0
O1126 O 0.36263 0.4599 0.60628 0.0
O1127 O 0.36884 0.44351 0.57876 0.0
C1128 C 0.35549 0.49294 0.55915 0.0
O1129 O 0.3206 0.47487 0.60567 0.0
O1130 O 0.31042 0.4785 0.57484 0.0
In1131 In 0.27425 0.59485 0.33528 0.0
O1132 O 0.25195 0.59593 0.30795 0.0
O1133 O 0.24447 0.61112 0.33577 0.0
C1134 C 0.31029 0.57792 0.32571 0.0
C1135 C 0.25718 0.56439 0.35607 0.0
C1136 C 0.28692 0.63242 0.34499 0.0
O1137 O 0.29913 0.58608 0.31218 0.0
O1138 O 0.30304 0.57808 0.34354 0.0
O1139 O 0.27927 0.6206 0.35824 0.0
O1140 O 0.28876 0.62492 0.32734 0.0
C1141 C 0.23916 0.6066 0.31786 0.0
O1142 O 0.26535 0.57946 0.36501 0.0
O1143 O 0.25826 0.5646 0.3368 0.0
In1144 In 0.4119 0.14219 0.47414 0.0
O1145 O 0.44159 0.1343 0.49128 0.0
O1146 O 0.41401 0.13848 0.50811 0.0
C1147 C 0.42065 0.15362 0.43552 0.0
C1148 C 0.39807 0.17749 0.48878 0.0
C1149 C 0.39324 0.1057 0.47058 0.0
O1150 O 0.43415 0.14621 0.44716 0.0
O1151 O 0.40316 0.15499 0.44333 0.0
O1152 O 0.38335 0.12204 0.47305 0.0
O1153 O 0.41228 0.10794 0.46927 0.0
C1154 C 0.43281 0.13459 0.50854 0.0
O1155 O 0.38633 0.16274 0.48452 0.0
O1156 O 0.41674 0.17462 0.48482 0.0
In1157 In 0.91379 0.35518 0.52432 0.0
O1158 O 0.941 0.35816 0.50223 0.0
O1159 O 0.91188 0.36967 0.49345 0.0
C1160 C 0.92968 0.34304 0.56028 0.0
C1161 C 0.89664 0.32208 0.50802 0.0
C1162 C 0.8936 0.38878 0.53622 0.0
O1163 O 0.93883 0.35574 0.54898 0.0
O1164 O 0.9133 0.33622 0.553 0.0
O1165 O 0.88523 0.37144 0.53572 0.0
O1166 O 0.91211 0.38909 0.53098 0.0
C1167 C 0.93025 0.36669 0.4886 0.0
O1168 O 0.88611 0.33664 0.51503 0.0
O1169 O 0.91571 0.32409 0.50979 0.0
In1170 In 0.39864 0.16687 0.27941 0.0
O1171 O 0.41934 0.14215 0.26698 0.0
O1172 O 0.42949 0.17308 0.26527 0.0
C1173 C 0.36491 0.14536 0.28806 0.0
C1174 C 0.38527 0.18648 0.24603 0.0
C1175 C 0.40934 0.17681 0.31793 0.0
O1176 O 0.38201 0.13681 0.28547 0.0
O1177 O 0.365 0.16453 0.2865 0.0
O1178 O 0.39809 0.18833 0.30727 0.0
O1179 O 0.41567 0.16116 0.30881 0.0
C1180 C 0.433 0.15456 0.26129 0.0
O1181 O 0.39412 0.1961 0.26032 0.0
O1182 O 0.38315 0.1676 0.24899 0.0
In1183 In 0.59336 0.65644 0.02637 0.0
O1184 O 0.62355 0.66933 0.0153 0.0
O1185 O 0.59666 0.68773 0.01278 0.0
C1186 C 0.60051 0.61672 0.03424 0.0
C1187 C 0.56973 0.65219 0.99329 0.0
C1188 C 0.58943 0.67329 0.0636 0.0
O1189 O 0.61394 0.62801 0.02624 0.0
O1190 O 0.58402 0.62561 0.03851 0.0
O1191 O 0.574 0.66886 0.05286 0.0
O1192 O 0.60641 0.66914 0.05556 0.0
C1193 C 0.61556 0.68591 0.00937 0.0
O1194 O 0.56195 0.6558 0.01063 0.0
O1195 O 0.58885 0.65047 0.99302 0.0
In1196 In 0.5947 0.32442 0.27858 0.0
O1197 O 0.57821 0.35129 0.26425 0.0
O1198 O 0.5661 0.3213 0.25991 0.0
C1199 C 0.62949 0.33946 0.29384 0.0
C1200 C 0.61112 0.30297 0.24787 0.0
C1201 C 0.57518 0.31874 0.31415 0.0
O1202 O 0.61823 0.34996 0.28216 0.0
O1203 O 0.62292 0.32182 0.29796 0.0
O1204 O 0.58529 0.30449 0.30583 0.0
O1205 O 0.57462 0.33521 0.30423 0.0
C1206 C 0.56456 0.34016 0.25629 0.0
O1207 O 0.59861 0.29462 0.26008 0.0
O1208 O 0.61533 0.32129 0.25178 0.0
In1209 In 0.08368 0.83869 0.97435 0.0
O1210 O 0.05424 0.84271 0.99326 0.0
O1211 O 0.08139 0.85843 0.00199 0.0
C1212 C 0.07726 0.82002 0.93852 0.0
C1213 C 0.09951 0.80769 0.99536 0.0
C1214 C 0.09789 0.87383 0.95919 0.0
O1215 O 0.06306 0.82953 0.94762 0.0
O1216 O 0.09411 0.8196 0.94782 0.0
O1217 O 0.10869 0.86279 0.97083 0.0
O1218 O 0.0804 0.86688 0.9551 0.0
C1219 C 0.06296 0.85456 0.00585 0.0
O1220 O 0.11068 0.82144 0.98756 0.0
O1221 O 0.0806 0.8096 0.99221 0.0
In1222 In 0.40366 0.83261 0.21497 0.0
O1223 O 0.42413 0.85812 0.22643 0.0
O1224 O 0.43433 0.82726 0.22926 0.0
C1225 C 0.36823 0.84879 0.2029 0.0
C1226 C 0.38916 0.81394 0.2483 0.0
C1227 C 0.41792 0.82394 0.17769 0.0
O1228 O 0.3811 0.85916 0.21291 0.0
O1229 O 0.37349 0.83072 0.19885 0.0
O1230 O 0.40961 0.8104 0.18877 0.0
O1231 O 0.41939 0.84136 0.18576 0.0
C1232 C 0.43782 0.84591 0.23256 0.0
O1233 O 0.39829 0.80387 0.2345 0.0
O1234 O 0.38726 0.83273 0.2448 0.0
In1235 In 0.08903 0.15554 0.71741 0.0
O1236 O 0.09713 0.18375 0.73653 0.0
O1237 O 0.08886 0.15614 0.75175 0.0
C1238 C 0.08268 0.17129 0.6798 0.0
C1239 C 0.05252 0.14117 0.72853 0.0
C1240 C 0.12377 0.1335 0.71376 0.0
O1241 O 0.09313 0.18063 0.69302 0.0
O1242 O 0.07541 0.15458 0.68574 0.0
O1243 O 0.10664 0.12654 0.70845 0.0
O1244 O 0.12329 0.15132 0.72078 0.0
C1245 C 0.09421 0.17451 0.75327 0.0
O1246 O 0.06763 0.12957 0.72533 0.0
O1247 O 0.05575 0.15992 0.72535 0.0
H1248 H 0.09531 0.06213 0.35546 0.0
H1249 H 0.08803 0.09843 0.30117 0.0
H1250 H 0.12501 0.10219 0.29824 0.0
H1251 H 0.159 0.09923 0.31393 0.0
H1252 H 0.16565 0.06595 0.37027 0.0
H1253 H 0.12958 0.0568 0.36959 0.0
C1254 C 0.10191 0.07033 0.34269 0.0
C1255 C 0.0891 0.07994 0.32852 0.0
C1256 C 0.12311 0.07328 0.3417 0.0
C1257 C 0.09771 0.0909 0.31223 0.0
C1258 C 0.11882 0.09316 0.31063 0.0
C1259 C 0.15258 0.08967 0.32581 0.0
C1260 C 0.16485 0.08341 0.34219 0.0
C1261 C 0.13163 0.08507 0.32571 0.0
C1262 C 0.15639 0.07113 0.3576 0.0
C1263 C 0.13578 0.06587 0.35723 0.0
H1264 H 0.20021 0.9066 0.58866 0.0
H1265 H 0.15466 0.9052 0.54128 0.0
H1266 H 0.15666 0.86797 0.54018 0.0
H1267 H 0.16733 0.83594 0.55671 0.0
H1268 H 0.213 0.8375 0.60403 0.0
H1269 H 0.21529 0.87453 0.60088 0.0
C1270 C 0.1911 0.89814 0.57775 0.0
C1271 C 0.17711 0.90854 0.56527 0.0
C1272 C 0.19221 0.87678 0.57735 0.0
C1273 C 0.16554 0.8975 0.55103 0.0
C1274 C 0.16656 0.87621 0.55053 0.0
C1275 C 0.17813 0.84436 0.56598 0.0
C1276 C 0.18973 0.83406 0.58081 0.0
C1277 C 0.17923 0.86568 0.56421 0.0
C1278 C 0.20384 0.84508 0.59256 0.0
C1279 C 0.20506 0.86628 0.59087 0.0
H1280 H 0.409 0.94617 0.83111 0.0
H1281 H 0.4174 0.89573 0.78981 0.0
H1282 H 0.38079 0.8948 0.78302 0.0
H1283 H 0.34612 0.90406 0.79387 0.0
H1284 H 0.33778 0.95208 0.83797 0.0
H1285 H 0.37446 0.95852 0.83837 0.0
C1286 C 0.40286 0.93542 0.82014 0.0
C1287 C 0.41578 0.92093 0.81111 0.0
C1288 C 0.3817 0.93436 0.81706 0.0
C1289 C 0.40767 0.90695 0.79705 0.0
C1290 C 0.38673 0.90634 0.79325 0.0
C1291 C 0.35231 0.91635 0.80305 0.0
C1292 C 0.33938 0.92748 0.81598 0.0
C1293 C 0.37351 0.91932 0.80391 0.0
C1294 C 0.34753 0.94323 0.82799 0.0
C1295 C 0.3685 0.94685 0.8283 0.0
H1296 H 0.29593 0.15911 0.0969 0.0
H1297 H 0.34268 0.17104 0.05224 0.0
H1298 H 0.3447 0.13474 0.0441 0.0
H1299 H 0.33698 0.09926 0.0535 0.0
H1300 H 0.29316 0.08723 0.10102 0.0
H1301 H 0.28589 0.12366 0.10404 0.0
C1302 C 0.30612 0.15375 0.08501 0.0
C1303 C 0.31914 0.16761 0.07518 0.0
C1304 C 0.30788 0.13274 0.0811 0.0
C1305 C 0.33255 0.16055 0.06003 0.0
C1306 C 0.33377 0.1398 0.05543 0.0
C1307 C 0.32544 0.10464 0.06407 0.0
C1308 C 0.31561 0.0907 0.07701 0.0
C1309 C 0.32207 0.12568 0.06641 0.0
C1310 C 0.30093 0.09778 0.09093 0.0
C1311 C 0.29684 0.11859 0.09273 0.0
H1312 H 0.08803 0.90104 0.19324 0.0
H1313 H 0.08855 0.95541 0.1562 0.0
H1314 H 0.12552 0.95813 0.16038 0.0
H1315 H 0.15792 0.94207 0.1702 0.0
H1316 H 0.15755 0.88775 0.20726 0.0
H1317 H 0.1202 0.88818 0.20782 0.0
C1318 C 0.09621 0.91372 0.18644 0.0
C1319 C 0.08568 0.92783 0.17415 0.0
C1320 C 0.11745 0.91509 0.18881 0.0
C1321 C 0.09635 0.94433 0.16565 0.0
C1322 C 0.11749 0.94582 0.16794 0.0
C1323 C 0.14964 0.9306 0.1788 0.0
C1324 C 0.16038 0.91473 0.18845 0.0
C1325 C 0.12825 0.93085 0.17884 0.0
C1326 C 0.14958 0.9001 0.19973 0.0
C1327 C 0.12823 0.90026 0.19989 0.0
H1328 H 0.3443 0.89821 0.44937 0.0
H1329 H 0.29803 0.91303 0.40509 0.0
H1330 H 0.29013 0.87691 0.40074 0.0
H1331 H 0.30048 0.84117 0.40514 0.0
H1332 H 0.349 0.82651 0.447 0.0
H1333 H 0.35169 0.86228 0.45696 0.0
C1334 C 0.3321 0.89351 0.43924 0.0
C1335 C 0.32187 0.90816 0.42745 0.0
C1336 C 0.32823 0.87267 0.43617 0.0
C1337 C 0.30621 0.90194 0.41422 0.0
C1338 C 0.30174 0.8813 0.41166 0.0
C1339 C 0.31121 0.84577 0.41685 0.0
C1340 C 0.32463 0.83134 0.4252 0.0
C1341 C 0.31326 0.86649 0.42189 0.0
C1342 C 0.33861 0.83745 0.44025 0.0
C1343 C 0.34022 0.8579 0.4459 0.0
H1344 H 0.40618 0.0879 0.69988 0.0
H1345 H 0.40686 0.04873 0.64707 0.0
H1346 H 0.3697 0.04567 0.64864 0.0
H1347 H 0.33692 0.05808 0.66221 0.0
H1348 H 0.33623 0.09647 0.71557 0.0
H1349 H 0.37354 0.09568 0.71685 0.0
C1350 C 0.3982 0.07834 0.68899 0.0
C1351 C 0.40915 0.06875 0.67322 0.0
C1352 C 0.37686 0.07668 0.69 0.0
C1353 C 0.39873 0.05624 0.65934 0.0
C1354 C 0.37748 0.05462 0.66015 0.0
C1355 C 0.34496 0.06591 0.67436 0.0
C1356 C 0.33394 0.07754 0.68863 0.0
C1357 C 0.36636 0.06536 0.67497 0.0
C1358 C 0.34443 0.08743 0.70444 0.0
C1359 C 0.36575 0.08709 0.70507 0.0
H1360 H 0.18609 0.08341 0.91248 0.0
H1361 H 0.13252 0.08346 0.9507 0.0
H1362 H 0.1325 0.12076 0.95085 0.0
H1363 H 0.14475 0.15292 0.93592 0.0
H1364 H 0.19827 0.15292 0.89766 0.0
H1365 H 0.20147 0.11597 0.90191 0.0
C1366 C 0.17467 0.0916 0.92121 0.0
C1367 C 0.15915 0.08075 0.93133 0.0
C1368 C 0.17463 0.113 0.921 0.0
C1369 C 0.1446 0.09149 0.94278 0.0
C1370 C 0.14449 0.11281 0.94272 0.0
C1371 C 0.15733 0.14486 0.92882 0.0
C1372 C 0.17108 0.15551 0.91622 0.0
C1373 C 0.15896 0.12367 0.93124 0.0
C1374 C 0.18748 0.14501 0.90736 0.0
C1375 C 0.18923 0.12388 0.90969 0.0
H1376 H 0.06811 0.34661 0.15836 0.0
H1377 H 0.11528 0.30089 0.16108 0.0
H1378 H 0.11558 0.29871 0.12381 0.0
H1379 H 0.10527 0.31284 0.09059 0.0
H1380 H 0.0574 0.35779 0.08777 0.0
H1381 H 0.05428 0.35708 0.12501 0.0
C1382 C 0.07821 0.33593 0.15077 0.0
C1383 C 0.09186 0.32412 0.16236 0.0
C1384 C 0.07824 0.33474 0.12938 0.0
C1385 C 0.10467 0.31014 0.15244 0.0
C1386 C 0.10493 0.30899 0.13115 0.0
C1387 C 0.09392 0.32221 0.09815 0.0
C1388 C 0.08175 0.33555 0.08658 0.0
C1389 C 0.09221 0.32166 0.11948 0.0
C1390 C 0.06691 0.34742 0.09641 0.0
C1391 C 0.06523 0.3471 0.11769 0.0
H1392 H 0.59028 0.19823 0.91175 0.0
H1393 H 0.53811 0.15824 0.90943 0.0
H1394 H 0.53712 0.16132 0.87231 0.0
H1395 H 0.55413 0.17145 0.8404 0.0
H1396 H 0.60544 0.21245 0.84247 0.0
H1397 H 0.60357 0.21321 0.87979 0.0
C1398 C 0.57843 0.19058 0.90312 0.0
C1399 C 0.56446 0.17781 0.91326 0.0
C1400 C 0.57792 0.19247 0.88175 0.0
C1401 C 0.54904 0.16814 0.90197 0.0
C1402 C 0.54855 0.16978 0.88073 0.0
C1403 C 0.56458 0.18093 0.84905 0.0
C1404 C 0.58003 0.19171 0.83882 0.0
C1405 C 0.56336 0.18131 0.87043 0.0
C1406 C 0.59339 0.20408 0.85007 0.0
C1407 C 0.59242 0.20437 0.8714 0.0
H1408 H 0.94675 0.82436 0.33879 0.0
H1409 H 0.88881 0.79352 0.34368 0.0
H1410 H 0.89182 0.79335 0.38083 0.0
H1411 H 0.90796 0.80727 0.41158 0.0
H1412 H 0.96499 0.83972 0.40665 0.0
H1413 H 0.96547 0.83368 0.36985 0.0
C1414 C 0.93501 0.81715 0.34796 0.0
C1415 C 0.91741 0.80928 0.33853 0.0
C1416 C 0.93656 0.81766 0.36931 0.0
C1417 C 0.90244 0.79981 0.35059 0.0
C1418 C 0.90409 0.79984 0.37184 0.0
C1419 C 0.92072 0.81265 0.40251 0.0
C1420 C 0.93624 0.82424 0.41174 0.0
C1421 C 0.92062 0.80955 0.38134 0.0
C1422 C 0.95279 0.83088 0.39988 0.0
C1423 C 0.95301 0.82753 0.37882 0.0
H1424 H 0.94109 0.14739 0.15368 0.0
H1425 H 0.90065 0.19897 0.14863 0.0
H1426 H 0.90541 0.19922 0.11152 0.0
H1427 H 0.91695 0.18138 0.08054 0.0
H1428 H 0.95656 0.12911 0.08592 0.0
H1429 H 0.95662 0.13278 0.123 0.0
C1430 C 0.93359 0.15891 0.14447 0.0
C1431 C 0.92025 0.17292 0.15373 0.0
C1432 C 0.93619 0.15874 0.12326 0.0
C1433 C 0.91091 0.18799 0.14177 0.0
C1434 C 0.91355 0.18804 0.12058 0.0
C1435 C 0.92597 0.17107 0.08981 0.0
C1436 C 0.93647 0.15478 0.08055 0.0
C1437 C 0.92554 0.17299 0.11113 0.0
C1438 C 0.94826 0.14168 0.09269 0.0
C1439 C 0.94818 0.14369 0.1139 0.0
H1440 H 0.39313 0.68587 0.64685 0.0
H1441 H 0.44259 0.64458 0.6598 0.0
H1442 H 0.45071 0.64228 0.62356 0.0
H1443 H 0.44064 0.648 0.58797 0.0
H1444 H 0.38925 0.68675 0.57476 0.0
H1445 H 0.3852 0.69434 0.61104 0.0
C1446 C 0.40596 0.67679 0.64171 0.0
C1447 C 0.41716 0.66531 0.65588 0.0
C1448 C 0.41009 0.67493 0.62071 0.0
C1449 C 0.43365 0.65342 0.64908 0.0
C1450 C 0.43829 0.65207 0.62836 0.0
C1451 C 0.42893 0.65852 0.59302 0.0
C1452 C 0.41522 0.66673 0.57879 0.0
C1453 C 0.42616 0.66216 0.61397 0.0
C1454 C 0.39993 0.68017 0.58551 0.0
C1455 C 0.39755 0.68445 0.60626 0.0
H1456 H 0.07775 0.69749 0.41386 0.0
H1457 H 0.0363 0.64646 0.41176 0.0
H1458 H 0.03626 0.64782 0.37449 0.0
H1459 H 0.05203 0.66023 0.34278 0.0
H1460 H 0.09354 0.7112 0.3448 0.0
H1461 H 0.08932 0.71337 0.38183 0.0
C1462 C 0.06836 0.68696 0.40524 0.0
C1463 C 0.05727 0.67171 0.41552 0.0
C1464 C 0.06861 0.68769 0.38382 0.0
C1465 C 0.045 0.6583 0.4042 0.0
C1466 C 0.04509 0.65898 0.38288 0.0
C1467 C 0.05983 0.67208 0.35129 0.0
C1468 C 0.07331 0.68536 0.34116 0.0
C1469 C 0.05745 0.6731 0.37256 0.0
C1470 C 0.08312 0.70078 0.35228 0.0
C1471 C 0.08081 0.70193 0.37347 0.0
H1472 H 0.44663 0.33714 0.84069 0.0
H1473 H 0.4059 0.28556 0.8426 0.0
H1474 H 0.40537 0.28709 0.8799 0.0
H1475 H 0.41255 0.30629 0.91141 0.0
H1476 H 0.45387 0.35739 0.90962 0.0
H1477 H 0.45832 0.35278 0.87281 0.0
C1478 C 0.43805 0.32593 0.84933 0.0
C1479 C 0.42614 0.3114 0.83896 0.0
C1480 C 0.43772 0.32702 0.87073 0.0
C1481 C 0.41523 0.29684 0.85025 0.0
C1482 C 0.41477 0.29785 0.87157 0.0
C1483 C 0.42282 0.31617 0.90298 0.0
C1484 C 0.43264 0.33235 0.91307 0.0
C1485 C 0.42533 0.31336 0.88189 0.0
C1486 C 0.44613 0.34487 0.90213 0.0
C1487 C 0.44858 0.34229 0.88109 0.0
H1488 H 0.91297 0.94165 0.65257 0.0
H1489 H 0.91859 0.88754 0.68952 0.0
H1490 H 0.88199 0.88767 0.69604 0.0
H1491 H 0.84786 0.90022 0.68724 0.0
H1492 H 0.84184 0.95281 0.64825 0.0
H1493 H 0.87888 0.95648 0.64685 0.0
C1494 C 0.9062 0.9302 0.6624 0.0
C1495 C 0.91839 0.91451 0.67037 0.0
C1496 C 0.88496 0.92999 0.6656 0.0
C1497 C 0.90945 0.89967 0.68302 0.0
C1498 C 0.88851 0.89971 0.68675 0.0
C1499 C 0.85467 0.91279 0.67891 0.0
C1500 C 0.84218 0.92613 0.66778 0.0
C1501 C 0.87601 0.91436 0.67755 0.0
C1502 C 0.85119 0.94226 0.65687 0.0
C1503 C 0.87238 0.94432 0.65597 0.0
H1504 H 0.80869 0.15484 0.39716 0.0
H1505 H 0.85024 0.16465 0.44714 0.0
H1506 H 0.84997 0.12828 0.455 0.0
H1507 H 0.84278 0.09324 0.44381 0.0
H1508 H 0.80367 0.08337 0.3919 0.0
H1509 H 0.7978 0.11998 0.38887 0.0
C1510 C 0.81718 0.14905 0.41012 0.0
C1511 C 0.82962 0.16229 0.42141 0.0
C1512 C 0.81761 0.12799 0.41404 0.0
C1513 C 0.84069 0.15465 0.43811 0.0
C1514 C 0.84061 0.13384 0.44257 0.0
C1515 C 0.8325 0.09911 0.43225 0.0
C1516 C 0.82383 0.08574 0.41799 0.0
C1517 C 0.82986 0.12026 0.43007 0.0
C1518 C 0.81066 0.09347 0.40295 0.0
C1519 C 0.80736 0.1144 0.40115 0.0
H1520 H 0.65632 0.06684 0.15469 0.0
H1521 H 0.65521 0.11924 0.19436 0.0
H1522 H 0.61799 0.11696 0.19666 0.0
H1523 H 0.58574 0.1024 0.18408 0.0
H1524 H 0.5869 0.04934 0.14528 0.0
H1525 H 0.62423 0.04927 0.14618 0.0
C1526 C 0.64791 0.07757 0.16407 0.0
C1527 C 0.65836 0.09338 0.17411 0.0
C1528 C 0.6266 0.07606 0.16538 0.0
C1529 C 0.64744 0.10699 0.18648 0.0
C1530 C 0.62618 0.10574 0.1877 0.0
C1531 C 0.5942 0.09061 0.17613 0.0
C1532 C 0.58368 0.07604 0.16441 0.0
C1533 C 0.61559 0.09069 0.17674 0.0
C1534 C 0.59471 0.06069 0.15439 0.0
C1535 C 0.61603 0.06075 0.15479 0.0
H1536 H 0.69212 0.91671 0.91163 0.0
H1537 H 0.64484 0.90974 0.95681 0.0
H1538 H 0.65067 0.87286 0.95751 0.0
H1539 H 0.6653 0.84248 0.94095 0.0
H1540 H 0.71282 0.84956 0.89598 0.0
H1541 H 0.71109 0.88664 0.89971 0.0
C1542 C 0.68348 0.90713 0.922 0.0
C1543 C 0.66789 0.91575 0.93394 0.0
C1544 C 0.6868 0.88602 0.92215 0.0
C1545 C 0.65692 0.90336 0.94751 0.0
C1546 C 0.66012 0.88229 0.94775 0.0
C1547 C 0.67558 0.85216 0.93232 0.0
C1548 C 0.68892 0.84343 0.91795 0.0
C1549 C 0.67442 0.87341 0.93449 0.0
C1550 C 0.70239 0.856 0.90707 0.0
C1551 C 0.7013 0.87718 0.9091 0.0
H1552 H 0.83455 0.05433 0.84077 0.0
H1553 H 0.83597 0.10278 0.79629 0.0
H1554 H 0.87317 0.10038 0.79455 0.0
H1555 H 0.90529 0.08763 0.80919 0.0
H1556 H 0.90397 0.03865 0.85305 0.0
H1557 H 0.86664 0.03793 0.8514 0.0
C1558 C 0.843 0.06406 0.83038 0.0
C1559 C 0.83262 0.07889 0.81885 0.0
C1560 C 0.86435 0.06263 0.82955 0.0
C1561 C 0.84365 0.09125 0.80529 0.0
C1562 C 0.86492 0.08999 0.80443 0.0
C1563 C 0.8968 0.07657 0.81811 0.0
C1564 C 0.90724 0.0634 0.83145 0.0
C1565 C 0.87543 0.07623 0.81702 0.0
C1566 C 0.89621 0.04894 0.84272 0.0
C1567 C 0.87489 0.04861 0.84185 0.0
H1568 H 0.66802 0.1647 0.55484 0.0
H1569 H 0.70525 0.16269 0.60907 0.0
H1570 H 0.70539 0.12546 0.6078 0.0
H1571 H 0.69021 0.09389 0.59461 0.0
H1572 H 0.6522 0.09585 0.54096 0.0
H1573 H 0.65731 0.13272 0.53848 0.0
C1574 C 0.67658 0.15612 0.5661 0.0
C1575 C 0.68634 0.1664 0.58222 0.0
C1576 C 0.67621 0.13473 0.56553 0.0
C1577 C 0.69754 0.15513 0.59657 0.0
C1578 C 0.69749 0.13383 0.59594 0.0
C1579 C 0.68338 0.10234 0.58213 0.0
C1580 C 0.67057 0.09227 0.56818 0.0
C1581 C 0.68614 0.12352 0.58101 0.0
C1582 C 0.66205 0.1033 0.55193 0.0
C1583 C 0.66487 0.12439 0.55059 0.0
H1584 H 0.58865 0.90278 0.30783 0.0
H1585 H 0.58874 0.94959 0.35401 0.0
H1586 H 0.62584 0.95274 0.35091 0.0
H1587 H 0.65832 0.93828 0.33895 0.0
H1588 H 0.65816 0.89094 0.29328 0.0
H1589 H 0.62089 0.8921 0.29202 0.0
C1590 C 0.59677 0.91397 0.31692 0.0
C1591 C 0.5861 0.92572 0.33138 0.0
C1592 C 0.61803 0.91543 0.31527 0.0
C1593 C 0.59666 0.94036 0.34284 0.0
C1594 C 0.61787 0.94204 0.34117 0.0
C1595 C 0.65012 0.92851 0.32842 0.0
C1596 C 0.6609 0.91429 0.31646 0.0
C1597 C 0.62874 0.92906 0.32803 0.0
C1598 C 0.65018 0.90193 0.30268 0.0
C1599 C 0.62888 0.90251 0.30206 0.0
H1600 H 0.8022 0.83976 0.11877 0.0
H1601 H 0.81935 0.82892 0.05621 0.0
H1602 H 0.82193 0.86559 0.05018 0.0
H1603 H 0.82446 0.90032 0.06419 0.0
H1604 H 0.80972 0.91066 0.1275 0.0
H1605 H 0.80096 0.8748 0.13171 0.0
C1606 C 0.80588 0.84547 0.10367 0.0
C1607 C 0.81066 0.83172 0.08799 0.0
C1608 C 0.80819 0.86653 0.10056 0.0
C1609 C 0.81566 0.83928 0.06854 0.0
C1610 C 0.81728 0.86023 0.06512 0.0
C1611 C 0.81898 0.89476 0.07878 0.0
C1612 C 0.81802 0.90803 0.09555 0.0
C1613 C 0.81442 0.87396 0.08125 0.0
C1614 C 0.81085 0.90066 0.11439 0.0
C1615 C 0.80582 0.88015 0.11683 0.0
H1616 H 0.89231 0.68737 0.91731 0.0
H1617 H 0.94698 0.65084 0.91558 0.0
H1618 H 0.95104 0.65834 0.87922 0.0
H1619 H 0.93604 0.67085 0.84723 0.0
H1620 H 0.88103 0.70686 0.84887 0.0
H1621 H 0.88034 0.70441 0.88611 0.0
C1622 C 0.90533 0.68137 0.90904 0.0
C1623 C 0.91915 0.66829 0.91896 0.0
C1624 C 0.90742 0.68558 0.88815 0.0
C1625 C 0.9361 0.66086 0.90822 0.0
C1626 C 0.93836 0.66506 0.88742 0.0
C1627 C 0.92417 0.67858 0.85578 0.0
C1628 C 0.90843 0.68877 0.84534 0.0
C1629 C 0.92367 0.67675 0.87711 0.0
C1630 C 0.89328 0.69891 0.85657 0.0
C1631 C 0.89279 0.69734 0.87784 0.0
H1632 H 0.41347 0.81062 0.08353 0.0
H1633 H 0.44881 0.86608 0.08426 0.0
H1634 H 0.45262 0.86333 0.12129 0.0
H1635 H 0.44114 0.84815 0.15363 0.0
H1636 H 0.40524 0.79303 0.15288 0.0
H1637 H 0.4067 0.79243 0.1156 0.0
C1638 C 0.42238 0.82186 0.09176 0.0
C1639 C 0.43057 0.83871 0.08129 0.0
C1640 C 0.42422 0.82033 0.11303 0.0
C1641 C 0.44231 0.85302 0.09202 0.0
C1642 C 0.44436 0.85153 0.1132 0.0
C1643 C 0.43401 0.83577 0.14531 0.0
C1644 C 0.4228 0.82084 0.15592 0.0
C1645 C 0.43466 0.83571 0.12391 0.0
C1646 C 0.41388 0.80473 0.14503 0.0
C1647 C 0.41459 0.80446 0.12372 0.0
H1648 H 0.0533 0.16067 0.65308 0.0
H1649 H 0.10868 0.19571 0.65826 0.0
H1650 H 0.11009 0.19936 0.6211 0.0
H1651 H 0.09843 0.18782 0.58727 0.0
H1652 H 0.04307 0.1526 0.58235 0.0
H1653 H 0.03854 0.15412 0.6193 0.0
C1654 C 0.06543 0.16949 0.64607 0.0
C1655 C 0.08105 0.17764 0.65827 0.0
C1656 C 0.06621 0.17132 0.62476 0.0
C1657 C 0.09653 0.18927 0.64913 0.0
C1658 C 0.0974 0.19122 0.62788 0.0
C1659 C 0.08513 0.18089 0.59425 0.0
C1660 C 0.07128 0.16981 0.58216 0.0
C1661 C 0.08277 0.18161 0.61554 0.0
C1662 C 0.05399 0.16112 0.59134 0.0
C1663 C 0.05147 0.16187 0.61249 0.0
H1664 H 0.0977 0.79518 0.84883 0.0
H1665 H 0.05404 0.84286 0.83717 0.0
H1666 H 0.04462 0.84359 0.8732 0.0
H1667 H 0.05293 0.83479 0.90861 0.0
H1668 H 0.09923 0.78979 0.92073 0.0
H1669 H 0.10322 0.78355 0.88418 0.0
C1670 C 0.08573 0.80527 0.85416 0.0
C1671 C 0.07663 0.81899 0.84049 0.0
C1672 C 0.08103 0.80624 0.87509 0.0
C1673 C 0.06132 0.83224 0.84753 0.0
C1674 C 0.05597 0.83271 0.86812 0.0
C1675 C 0.0634 0.82317 0.90323 0.0
C1676 C 0.0758 0.8128 0.91726 0.0
C1677 C 0.06631 0.82038 0.88217 0.0
C1678 C 0.08956 0.798 0.91014 0.0
C1679 C 0.09193 0.79451 0.88925 0.0
H1680 H 0.54675 0.34183 0.40212 0.0
H1681 H 0.59527 0.30014 0.41709 0.0
H1682 H 0.59756 0.28941 0.3815 0.0
H1683 H 0.58973 0.29607 0.34549 0.0
H1684 H 0.54373 0.34038 0.3301 0.0
H1685 H 0.53617 0.3456 0.36624 0.0
C1686 C 0.55738 0.32999 0.39762 0.0
C1687 C 0.57088 0.32184 0.41209 0.0
C1688 C 0.55921 0.32452 0.37693 0.0
C1689 C 0.58481 0.3067 0.40611 0.0
C1690 C 0.58617 0.3006 0.38576 0.0
C1691 C 0.57762 0.30637 0.35008 0.0
C1692 C 0.56733 0.31786 0.33524 0.0
C1693 C 0.57403 0.31 0.37091 0.0
C1694 C 0.55188 0.33141 0.34133 0.0
C1695 C 0.54763 0.33449 0.36199 0.0
H1696 H 0.94367 0.35169 0.65377 0.0
H1697 H 0.90079 0.30181 0.65433 0.0
H1698 H 0.90419 0.29831 0.61733 0.0
H1699 H 0.9148 0.31334 0.58468 0.0
H1700 H 0.9566 0.36413 0.58408 0.0
H1701 H 0.95858 0.3631 0.62133 0.0
C1702 C 0.93539 0.33978 0.64584 0.0
C1703 C 0.92169 0.32727 0.65665 0.0
C1704 C 0.93713 0.33815 0.62458 0.0
C1705 C 0.91131 0.31169 0.64629 0.0
C1706 C 0.91317 0.30978 0.62513 0.0
C1707 C 0.92473 0.32387 0.59269 0.0
C1708 C 0.93526 0.33904 0.58172 0.0
C1709 C 0.92535 0.32351 0.61407 0.0
C1710 C 0.94828 0.3524 0.59221 0.0
C1711 C 0.94927 0.35191 0.61351 0.0
H1712 H 0.60565 0.70124 0.15344 0.0
H1713 H 0.54958 0.66832 0.16306 0.0
H1714 H 0.54472 0.66531 0.12617 0.0
H1715 H 0.55923 0.66743 0.09148 0.0
H1716 H 0.61729 0.69699 0.08262 0.0
H1717 H 0.61853 0.7061 0.11871 0.0
C1718 C 0.59206 0.69397 0.14743 0.0
C1719 C 0.57798 0.68505 0.16088 0.0
C1720 C 0.58994 0.69139 0.12627 0.0
C1721 C 0.56062 0.67533 0.15293 0.0
C1722 C 0.55791 0.67347 0.13186 0.0
C1723 C 0.57188 0.67626 0.09742 0.0
C1724 C 0.58819 0.68146 0.08452 0.0
C1725 C 0.57289 0.68073 0.1184 0.0
C1726 C 0.60464 0.69271 0.09237 0.0
C1727 C 0.60537 0.6979 0.11299 0.0
H1728 H 0.59421 0.56833 0.86425 0.0
H1729 H 0.58983 0.59686 0.80519 0.0
H1730 H 0.62699 0.59734 0.80223 0.0
H1731 H 0.66058 0.59412 0.81861 0.0
H1732 H 0.66464 0.5685 0.87908 0.0
H1733 H 0.62795 0.56231 0.87933 0.0
C1734 C 0.60143 0.57407 0.85051 0.0
C1735 C 0.58942 0.58251 0.83495 0.0
C1736 C 0.6228 0.57519 0.84935 0.0
C1737 C 0.59888 0.59028 0.81735 0.0
C1738 C 0.6201 0.59068 0.81571 0.0
C1739 C 0.65344 0.58687 0.83166 0.0
C1740 C 0.66521 0.58197 0.84886 0.0
C1741 C 0.63222 0.5839 0.83196 0.0
C1742 C 0.65581 0.57263 0.86573 0.0
C1743 C 0.63484 0.56905 0.86589 0.0
H1744 H 0.68777 0.40869 0.07861 0.0
H1745 H 0.63484 0.403 0.04006 0.0
H1746 H 0.63834 0.36584 0.04038 0.0
H1747 H 0.65346 0.33513 0.05595 0.0
H1748 H 0.70728 0.34073 0.09323 0.0
H1749 H 0.70672 0.37781 0.08884 0.0
C1750 C 0.67734 0.39929 0.06987 0.0
C1751 C 0.66095 0.40845 0.05951 0.0
C1752 C 0.67952 0.37798 0.07007 0.0
C1753 C 0.6476 0.39624 0.04809 0.0
C1754 C 0.6495 0.375 0.04841 0.0
C1755 C 0.66534 0.34448 0.06266 0.0
C1756 C 0.68026 0.33535 0.07507 0.0
C1757 C 0.66495 0.36572 0.05998 0.0
C1758 C 0.6957 0.34747 0.08357 0.0
C1759 C 0.69527 0.36867 0.0812 0.0
H1760 H 0.83581 0.40131 0.30352 0.0
H1761 H 0.82613 0.44718 0.3496 0.0
H1762 H 0.86203 0.45688 0.348 0.0
H1763 H 0.897 0.44856 0.33759 0.0
H1764 H 0.90723 0.40045 0.294 0.0
H1765 H 0.87047 0.39566 0.29017 0.0
C1766 C 0.84151 0.41377 0.31279 0.0
C1767 C 0.82845 0.42342 0.32676 0.0
C1768 C 0.86237 0.41874 0.31236 0.0
C1769 C 0.83599 0.43942 0.33885 0.0
C1770 C 0.85652 0.44495 0.33798 0.0
C1771 C 0.89113 0.43748 0.3268 0.0
C1772 C 0.90472 0.42483 0.31615 0.0
C1773 C 0.87001 0.43418 0.32538 0.0
C1774 C 0.89699 0.41032 0.30242 0.0
C1775 C 0.87598 0.40749 0.30031 0.0
H1776 H 0.80556 0.66021 0.58948 0.0
H1777 H 0.86378 0.66837 0.56 0.0
H1778 H 0.86599 0.63179 0.55347 0.0
H1779 H 0.85373 0.59706 0.5606 0.0
H1780 H 0.79716 0.5888 0.59308 0.0
H1781 H 0.79172 0.62564 0.59368 0.0
C1782 C 0.81847 0.65399 0.5812 0.0
C1783 C 0.83452 0.66687 0.57534 0.0
C1784 C 0.82001 0.63283 0.5782 0.0
C1785 C 0.85129 0.65867 0.5648 0.0
C1786 C 0.85259 0.63775 0.56109 0.0
C1787 C 0.83998 0.60335 0.5673 0.0
C1788 C 0.8259 0.59034 0.57682 0.0
C1789 C 0.83739 0.6246 0.56837 0.0
C1790 C 0.80825 0.59861 0.58572 0.0
C1791 C 0.80517 0.61966 0.58615 0.0
H1792 H 0.58417 0.40903 0.69123 0.0
H1793 H 0.58523 0.45449 0.64373 0.0
H1794 H 0.62253 0.45546 0.64517 0.0
H1795 H 0.65469 0.43967 0.6566 0.0
H1796 H 0.65368 0.39528 0.70508 0.0
H1797 H 0.61644 0.3977 0.70685 0.0
C1798 C 0.5926 0.4195 0.68157 0.0
C1799 C 0.5821 0.43152 0.66724 0.0
C1800 C 0.61398 0.41996 0.68252 0.0
C1801 C 0.59304 0.44516 0.65491 0.0
C1802 C 0.61435 0.44557 0.65561 0.0
C1803 C 0.64629 0.43085 0.66781 0.0
C1804 C 0.65674 0.4171 0.6805 0.0
C1805 C 0.62497 0.43248 0.66882 0.0
C1806 C 0.64587 0.40594 0.69517 0.0
C1807 C 0.6246 0.40724 0.69609 0.0
H1808 H 0.81485 0.33679 0.89491 0.0
H1809 H 0.86019 0.32675 0.94143 0.0
H1810 H 0.86447 0.36354 0.94561 0.0
H1811 H 0.85936 0.39819 0.93196 0.0
H1812 H 0.81652 0.4075 0.88294 0.0
H1813 H 0.80709 0.37154 0.88388 0.0
C1814 C 0.8252 0.34268 0.90638 0.0
C1815 C 0.83725 0.32917 0.91777 0.0
C1816 C 0.82831 0.36377 0.90796 0.0
C1817 C 0.8508 0.33694 0.93244 0.0
C1818 C 0.85335 0.35796 0.93473 0.0
C1819 C 0.84766 0.39237 0.92183 0.0
C1820 C 0.8388 0.40533 0.90727 0.0
C1821 C 0.84284 0.37149 0.92194 0.0
C1822 C 0.82372 0.39768 0.89412 0.0
C1823 C 0.81831 0.37714 0.89464 0.0
H1824 H 0.90175 0.54897 0.15552 0.0
H1825 H 0.90813 0.59417 0.2028 0.0
H1826 H 0.87136 0.59373 0.2087 0.0
H1827 H 0.83705 0.58465 0.19659 0.0
H1828 H 0.83057 0.54215 0.1469 0.0
H1829 H 0.86747 0.53703 0.14599 0.0
C1830 C 0.8951 0.55828 0.16747 0.0
C1831 C 0.90755 0.57165 0.17863 0.0
C1832 C 0.87382 0.55857 0.1702 0.0
C1833 C 0.89878 0.58384 0.19393 0.0
C1834 C 0.87775 0.58364 0.19727 0.0
C1835 C 0.84372 0.57381 0.18603 0.0
C1836 C 0.8312 0.56381 0.17183 0.0
C1837 C 0.86503 0.57168 0.18495 0.0
C1838 C 0.83999 0.55005 0.15796 0.0
C1839 C 0.86108 0.5472 0.15735 0.0
H1840 H 0.68158 0.59218 0.41965 0.0
H1841 H 0.62113 0.59308 0.44567 0.0
H1842 H 0.62116 0.63032 0.44488 0.0
H1843 H 0.63641 0.66215 0.43235 0.0
H1844 H 0.69677 0.66145 0.40619 0.0
H1845 H 0.69882 0.62454 0.41158 0.0
C1846 C 0.6686 0.60055 0.42557 0.0
C1847 C 0.65126 0.58991 0.43246 0.0
C1848 C 0.6686 0.62194 0.42474 0.0
C1849 C 0.63463 0.60092 0.44025 0.0
C1850 C 0.63458 0.62221 0.43964 0.0
C1851 C 0.65013 0.65393 0.42808 0.0
C1852 C 0.66629 0.66436 0.41856 0.0
C1853 C 0.65115 0.6328 0.43119 0.0
C1854 C 0.6841 0.65368 0.41343 0.0
C1855 C 0.68524 0.6326 0.41645 0.0
H1856 H 0.60252 0.80921 0.58926 0.0
H1857 H 0.5464 0.84302 0.59438 0.0
H1858 H 0.54546 0.83627 0.63115 0.0
H1859 H 0.56372 0.82559 0.6622 0.0
H1860 H 0.62006 0.79204 0.65685 0.0
H1861 H 0.6175 0.79329 0.6197 0.0
C1862 C 0.58987 0.81473 0.5984 0.0
C1863 C 0.57474 0.82689 0.58932 0.0
C1864 C 0.58954 0.81088 0.61944 0.0
C1865 C 0.55825 0.8337 0.60112 0.0
C1866 C 0.55778 0.82993 0.62214 0.0
C1867 C 0.57514 0.81807 0.6529 0.0
C1868 C 0.59226 0.80906 0.66224 0.0
C1869 C 0.57379 0.81923 0.63155 0.0
C1870 C 0.60681 0.79916 0.65003 0.0
C1871 C 0.60545 0.80004 0.62878 0.0
H1872 H 0.40096 0.45121 0.16371 0.0
H1873 H 0.41168 0.39865 0.20177 0.0
H1874 H 0.37536 0.39635 0.20945 0.0
H1875 H 0.3402 0.40575 0.20081 0.0
H1876 H 0.32924 0.45695 0.161 0.0
H1877 H 0.36582 0.46353 0.15887 0.0
C1878 C 0.39539 0.43962 0.17412 0.0
C1879 C 0.40892 0.42499 0.18197 0.0
C1880 C 0.37434 0.43797 0.17797 0.0
C1881 C 0.4015 0.40998 0.19538 0.0
C1882 C 0.38072 0.4086 0.19973 0.0
C1883 C 0.34579 0.41867 0.19213 0.0
C1884 C 0.33207 0.43068 0.18089 0.0
C1885 C 0.3669 0.42198 0.19043 0.0
C1886 C 0.33954 0.44736 0.16966 0.0
C1887 C 0.36047 0.45109 0.16835 0.0
H1888 H 0.3365 0.66156 0.94159 0.0
H1889 H 0.29887 0.6583 0.88777 0.0
H1890 H 0.29711 0.62116 0.89106 0.0
H1891 H 0.31106 0.58963 0.906 0.0
H1892 H 0.34895 0.59304 0.95967 0.0
H1893 H 0.34554 0.63015 0.95993 0.0
C1894 C 0.32751 0.65274 0.93087 0.0
C1895 C 0.31808 0.66255 0.91428 0.0
C1896 C 0.32682 0.63143 0.93273 0.0
C1897 C 0.30627 0.65105 0.90064 0.0
C1898 C 0.30542 0.62981 0.90243 0.0
C1899 C 0.31818 0.59848 0.91802 0.0
C1900 C 0.33053 0.58868 0.9326 0.0
C1901 C 0.31635 0.61982 0.91791 0.0
C1902 C 0.33945 0.60025 0.94824 0.0
C1903 C 0.33761 0.62148 0.94831 0.0
H1904 H 0.15086 0.60036 0.69115 0.0
H1905 H 0.15896 0.55674 0.64268 0.0
H1906 H 0.12211 0.55151 0.64073 0.0
H1907 H 0.0874 0.56236 0.65004 0.0
H1908 H 0.07936 0.60876 0.69587 0.0
H1909 H 0.11613 0.60977 0.70184 0.0
C1910 C 0.14451 0.58942 0.6805 0.0
C1911 C 0.15749 0.57895 0.66709 0.0
C1912 C 0.12325 0.58714 0.67887 0.0
C1913 C 0.14917 0.56502 0.6531 0.0
C1914 C 0.12812 0.56205 0.65195 0.0
C1915 C 0.09373 0.57234 0.66161 0.0
C1916 C 0.0808 0.58545 0.6725 0.0
C1917 C 0.11497 0.57346 0.66434 0.0
C1918 C 0.08911 0.59858 0.68725 0.0
C1919 C 0.11012 0.5992 0.69064 0.0
H1920 H 0.18175 0.41787 0.40305 0.0
H1921 H 0.14651 0.41429 0.45847 0.0
H1922 H 0.15424 0.37783 0.46125 0.0
H1923 H 0.16689 0.34633 0.44505 0.0
H1924 H 0.2022 0.35027 0.38961 0.0
H1925 H 0.19902 0.38734 0.38996 0.0
C1926 C 0.17608 0.40915 0.41593 0.0
C1927 C 0.16332 0.41857 0.43037 0.0
C1928 C 0.18055 0.38829 0.41736 0.0
C1929 C 0.15631 0.40729 0.44716 0.0
C1930 C 0.16064 0.38645 0.44867 0.0
C1931 C 0.17431 0.35535 0.43332 0.0
C1932 C 0.1845 0.34555 0.41715 0.0
C1933 C 0.17215 0.37666 0.43346 0.0
C1934 C 0.1942 0.35742 0.40217 0.0
C1935 C 0.19225 0.37862 0.40227 0.0
H1936 H 0.40099 0.55044 0.33593 0.0
H1937 H 0.41004 0.603 0.29751 0.0
H1938 H 0.37334 0.60531 0.29144 0.0
H1939 H 0.33846 0.59555 0.30125 0.0
H1940 H 0.32941 0.54575 0.34315 0.0
H1941 H 0.36607 0.53888 0.34343 0.0
C1942 C 0.39491 0.56204 0.32582 0.0
C1943 C 0.4081 0.57654 0.31718 0.0
C1944 C 0.3737 0.56385 0.32318 0.0
C1945 C 0.40009 0.59173 0.30437 0.0
C1946 C 0.37912 0.59309 0.30094 0.0
C1947 C 0.34452 0.58282 0.30991 0.0
C1948 C 0.33137 0.57108 0.32205 0.0
C1949 C 0.36571 0.57968 0.31085 0.0
C1950 C 0.33934 0.55492 0.33363 0.0
C1951 C 0.36029 0.55107 0.33389 0.0
H1952 H 0.1923 0.58739 0.0869 0.0
H1953 H 0.14577 0.59496 0.04102 0.0
H1954 H 0.15045 0.63189 0.04206 0.0
H1955 H 0.16379 0.66197 0.06003 0.0
H1956 H 0.21074 0.65468 0.10542 0.0
H1957 H 0.21014 0.61766 0.10039 0.0
C1958 C 0.18356 0.59712 0.07677 0.0
C1959 C 0.16849 0.58853 0.06413 0.0
C1960 C 0.18624 0.61836 0.07755 0.0
C1961 C 0.15742 0.60122 0.05091 0.0
C1962 C 0.15998 0.62236 0.05162 0.0
C1963 C 0.17422 0.65227 0.06845 0.0
C1964 C 0.18709 0.66088 0.08326 0.0
C1965 C 0.17373 0.63109 0.06548 0.0
C1966 C 0.20072 0.64832 0.09394 0.0
C1967 C 0.20025 0.62717 0.09117 0.0
H1968 H 0.16819 0.39885 0.80252 0.0
H1969 H 0.17722 0.44343 0.85001 0.0
H1970 H 0.14104 0.45206 0.84927 0.0
H1971 H 0.10625 0.44246 0.83966 0.0
H1972 H 0.09682 0.39582 0.7943 0.0
H1973 H 0.13361 0.3928 0.7893 0.0
C1974 C 0.16229 0.41084 0.81227 0.0
C1975 C 0.17522 0.4203 0.82648 0.0
C1976 C 0.14131 0.4152 0.81231 0.0
C1977 C 0.16745 0.43577 0.8391 0.0
C1978 C 0.14676 0.44068 0.83873 0.0
C1979 C 0.11224 0.43211 0.82823 0.0
C1980 C 0.09892 0.41921 0.81755 0.0
C1981 C 0.13341 0.42984 0.82607 0.0
C1982 C 0.10685 0.40579 0.80284 0.0
C1983 C 0.12788 0.40396 0.80006 0.0
H1984 H 0.33776 0.395 0.55014 0.0
H1985 H 0.29144 0.40774 0.59504 0.0
H1986 H 0.28484 0.37131 0.59913 0.0
H1987 H 0.29623 0.33597 0.59411 0.0
H1988 H 0.34479 0.32346 0.55154 0.0
H1989 H 0.34636 0.35944 0.54216 0.0
C1990 C 0.32581 0.38978 0.56034 0.0
C1991 C 0.31516 0.40393 0.57234 0.0
C1992 C 0.32274 0.36878 0.56327 0.0
C1993 C 0.29989 0.39703 0.58572 0.0
C1994 C 0.29619 0.37622 0.58814 0.0
C1995 C 0.30677 0.34108 0.58241 0.0
C1996 C 0.32049 0.32718 0.57367 0.0
C1997 C 0.30811 0.36193 0.57764 0.0
C1998 C 0.33419 0.33397 0.55862 0.0
C1999 C 0.33513 0.35454 0.55327 0.0
H2000 H 0.39895 0.18034 0.41287 0.0
H2001 H 0.45047 0.13962 0.40998 0.0
H2002 H 0.45309 0.14528 0.37312 0.0
H2003 H 0.43809 0.15866 0.34138 0.0
H2004 H 0.38685 0.19978 0.3444 0.0
H2005 H 0.38701 0.19748 0.38166 0.0
C2006 C 0.41092 0.17293 0.40418 0.0
C2007 C 0.42432 0.15933 0.41401 0.0
C2008 C 0.41234 0.17632 0.38307 0.0
C2009 C 0.43996 0.15007 0.40271 0.0
C2010 C 0.44139 0.15325 0.38164 0.0
C2011 C 0.42723 0.16745 0.35023 0.0
C2012 C 0.41233 0.17921 0.34017 0.0
C2013 C 0.4273 0.16589 0.3716 0.0
C2014 C 0.39847 0.19066 0.35179 0.0
C2015 C 0.39845 0.1892 0.37308 0.0
H2016 H 0.00671 0.13896 0.29421 0.0
H2017 H 0.99407 0.0756 0.2818 0.0
H2018 H 0.97152 0.08524 0.25388 0.0
H2019 H 0.95224 0.11169 0.23589 0.0
H2020 H 0.96485 0.17508 0.24809 0.0
H2021 H 0.99084 0.16543 0.27293 0.0
C2022 C -0.00076 0.1273 0.28518 0.0
C2023 C 0.00174 0.10666 0.29023 0.0
C2024 C 0.98624 0.13294 0.26918 0.0
C2025 C 0.99224 0.09163 0.27828 0.0
C2026 C 0.9793 0.09711 0.26234 0.0
C2027 C 0.96096 0.12337 0.24373 0.0
C2028 C 0.95649 0.14401 0.24044 0.0
C2029 C 0.9757 0.11772 0.2581 0.0
C2030 C 0.968 0.15905 0.25046 0.0
C2031 C 0.98277 0.15355 0.26475 0.0
H2032 H 0.1132 0.75217 0.5622 0.0
H2033 H 0.1736 0.73206 0.54544 0.0
H2034 H 0.1593 0.70926 0.51989 0.0
H2035 H 0.12968 0.69371 0.50344 0.0
H2036 H 0.06915 0.71378 0.51956 0.0
H2037 H 0.08343 0.73799 0.54406 0.0
C2038 C 0.12319 0.74287 0.55286 0.0
C2039 C 0.14439 0.7437 0.55581 0.0
C2040 C 0.11486 0.72976 0.53809 0.0
C2041 C 0.1572 0.73167 0.54351 0.0
C2042 C 0.14905 0.71859 0.5289 0.0
C2043 C 0.11963 0.70349 0.51221 0.0
C2044 C 0.09844 0.70189 0.50981 0.0
C2045 C 0.12791 0.71732 0.52623 0.0
C2046 C 0.08557 0.71475 0.52116 0.0
C2047 C 0.0937 0.72854 0.53521 0.0
H2048 H 0.5511 0.83274 0.76063 0.0
H2049 H 0.57579 0.89133 0.74363 0.0
H2050 H 0.54986 0.90841 0.7643 0.0
H2051 H 0.52111 0.90656 0.78807 0.0
H2052 H 0.49735 0.84797 0.80634 0.0
H2053 H 0.52203 0.83091 0.78413 0.0
C2054 C 0.55072 0.84925 0.76135 0.0
C2055 C 0.56529 0.8608 0.75065 0.0
C2056 C 0.53601 0.8589 0.77348 0.0
C2057 C 0.56474 0.88215 0.75179 0.0
C2058 C 0.54993 0.8919 0.76358 0.0
C2059 C 0.52122 0.89006 0.78707 0.0
C2060 C 0.50744 0.8785 0.79876 0.0
C2061 C 0.53563 0.88041 0.77461 0.0
C2062 C 0.50783 0.85715 0.79746 0.0
C2063 C 0.52193 0.84742 0.7848 0.0
H2064 H 0.36043 0.30248 0.99309 0.0
H2065 H 0.42241 0.28775 0.00953 0.0
H2066 H 0.41021 0.26274 0.03425 0.0
H2067 H 0.38188 0.24772 0.0537 0.0
H2068 H 0.31993 0.26231 0.03702 0.0
H2069 H 0.33216 0.28455 0.00983 0.0
C2070 C 0.37125 0.29355 0.00185 0.0
C2071 C 0.39225 0.29711 -0.00033 0.0
C2072 C 0.36415 0.2793 0.01615 0.0
C2073 C 0.40614 0.28533 0.01099 0.0
C2074 C 0.39919 0.27109 0.02521 0.0
C2075 C 0.37109 0.25559 0.04395 0.0
C2076 C 0.35008 0.25361 0.04752 0.0
C2077 C 0.37822 0.26838 0.02833 0.0
C2078 C 0.33622 0.26368 0.03464 0.0
C2079 C 0.34319 0.27645 0.01911 0.0
H2080 H 0.98918 0.90994 0.21411 0.0
H2081 H 0.01 0.8521 0.19068 0.0
H2082 H 0.9894 0.83419 0.21613 0.0
H2083 H 0.96312 0.83506 0.24271 0.0
H2084 H 0.9405 0.89291 0.26441 0.0
H2085 H 0.96443 0.91083 0.24208 0.0
C2086 C 0.98941 0.89341 0.21474 0.0
C2087 C 0.00096 0.88231 0.20049 0.0
C2088 C 0.97718 0.88328 0.22903 0.0
C2089 C 0.00112 0.86094 0.20144 0.0
C2090 C 0.98935 0.85072 0.21596 0.0
C2091 C 0.96367 0.85159 0.2428 0.0
C2092 C 0.95006 0.86269 0.25509 0.0
C2093 C 0.97697 0.86174 0.2295 0.0
C2094 C 0.95082 0.88407 0.255 0.0
C2095 C 0.96443 0.8943 0.24221 0.0
H2096 H 0.40867 0.69792 0.47742 0.0
H2097 H 0.34987 0.6742 0.49516 0.0
H2098 H 0.33299 0.69936 0.47341 0.0
H2099 H 0.3351 0.72717 0.4486 0.0
H2100 H 0.39392 0.74988 0.42964 0.0
H2101 H 0.41077 0.72597 0.45282 0.0
C2102 C 0.39215 0.69835 0.47662 0.0
C2103 C 0.38048 0.68429 0.48784 0.0
C2104 C 0.38263 0.71259 0.4639 0.0
C2105 C 0.35913 0.68488 0.4866 0.0
C2106 C 0.3495 0.69924 0.4742 0.0
C2107 C 0.35161 0.727 0.44966 0.0
C2108 C 0.3633 0.74024 0.43751 0.0
C2109 C 0.36112 0.71303 0.46268 0.0
C2110 C 0.38465 0.73978 0.43887 0.0
C2111 C 0.39426 0.72613 0.45208 0.0
H2112 H 0.4901 0.14248 0.70417 0.0
H2113 H 0.50672 0.08079 0.71984 0.0
H2114 H 0.53091 0.09341 0.74513 0.0
H2115 H 0.5499 0.12201 0.76017 0.0
H2116 H 0.53305 0.18369 0.74468 0.0
H2117 H 0.50628 0.17105 0.72218 0.0
C2118 C 0.4988 0.13182 0.71335 0.0
C2119 C 0.49681 0.11077 0.70998 0.0
C2120 C 0.51276 0.13917 0.72781 0.0
C2121 C 0.50803 0.0971 0.7221 0.0
C2122 C 0.52194 0.10429 0.73651 0.0
C2123 C 0.54016 0.13267 0.7521 0.0
C2124 C 0.54361 0.15372 0.75389 0.0
C2125 C 0.52483 0.1253 0.7391 0.0
C2126 C 0.53076 0.16738 0.7435 0.0
C2127 C 0.51549 0.16018 0.73055 0.0
H2128 H 0.16126 0.25034 0.95959 0.0
H2129 H 0.09994 0.23532 0.94103 0.0
H2130 H 0.08625 0.25744 0.96776 0.0
H2131 H 0.09184 0.28392 0.99347 0.0
H2132 H 0.15319 0.30098 0.01005 0.0
H2133 H 0.16682 0.27485 0.9872 0.0
C2134 C 0.14489 0.25166 0.9616 0.0
C2135 C 0.1316 0.24138 0.94828 0.0
C2136 C 0.13719 0.2648 0.97656 0.0
C2137 C 0.11045 0.24321 0.95103 0.0
C2138 C 0.10264 0.25586 0.96628 0.0
C2139 C 0.10819 0.28164 0.99241 0.0
C2140 C 0.12153 0.29439 0.00331 0.0
C2141 C 0.11588 0.26715 0.97872 0.0
C2142 C 0.14266 0.29137 0.00172 0.0
C2143 C 0.15044 0.27651 0.98861 0.0
H2144 H 0.29624 0.00852 0.13877 0.0
H2145 H 0.27761 0.99516 0.07707 0.0
H2146 H 0.25199 0.97131 0.0897 0.0
H2147 H 0.23762 0.95152 0.11801 0.0
H2148 H 0.25615 0.96489 0.17973 0.0
H2149 H 0.27885 0.99168 0.16738 0.0
C2150 C 0.28637 0.00059 0.12813 0.0
C2151 C 0.28897 0.00334 0.10706 0.0
C2152 C 0.27174 0.98683 0.13548 0.0
C2153 C 0.27595 0.99319 0.0934 0.0
C2154 C 0.26134 0.9795 0.10058 0.0
C2155 C 0.2464 0.96052 0.12876 0.0
C2156 C 0.24546 0.95609 0.14968 0.0
C2157 C 0.25952 0.97578 0.12155 0.0
C2158 C 0.2567 0.96798 0.16351 0.0
C2159 C 0.26976 0.98323 0.15646 0.0
H2160 H 0.29113 0.00975 0.41897 0.0
H2161 H 0.31617 0.99612 0.35963 0.0
H2162 H 0.29195 0.01975 0.34381 0.0
H2163 H 0.2652 0.04579 0.3473 0.0
H2164 H 0.24211 0.06093 0.40705 0.0
H2165 H 0.26394 0.03489 0.42236 0.0
C2166 C 0.29119 0.01181 0.40255 0.0
C2167 C 0.30539 0.00129 0.39045 0.0
C2168 C 0.27759 0.02563 0.3937 0.0
C2169 C 0.30539 0.00415 0.36922 0.0
C2170 C 0.29156 0.01762 0.36021 0.0
C2171 C 0.26475 0.04313 0.36363 0.0
C2172 C 0.2521 0.05512 0.37609 0.0
C2173 C 0.27779 0.02863 0.37235 0.0
C2174 C 0.25179 0.05183 0.39723 0.0
C2175 C 0.26427 0.03702 0.40596 0.0
H2176 H 0.20111 0.98762 0.63741 0.0
H2177 H 0.21745 0.00721 0.5767 0.0
H2178 H 0.24218 0.03114 0.59073 0.0
H2179 H 0.25652 0.04901 0.6203 0.0
H2180 H 0.24056 0.02924 0.68104 0.0
H2181 H 0.21858 0.00273 0.66696 0.0
C2182 C 0.21031 0.99693 0.62728 0.0
C2183 C 0.20728 0.99585 0.60611 0.0
C2184 C 0.22449 0.01071 0.63544 0.0
C2185 C 0.21942 0.00783 0.5931 0.0
C2186 C 0.23353 0.02158 0.60109 0.0
C2187 C 0.24847 0.03869 0.63043 0.0
C2188 C 0.24995 0.04121 0.65163 0.0
C2189 C 0.23579 0.02354 0.62224 0.0
C2190 C 0.23961 0.02763 0.66462 0.0
C2191 C 0.22695 0.01253 0.65659 0.0
H2192 H 0.25514 0.94473 0.88501 0.0
H2193 H 0.24089 0.96114 0.82284 0.0
H2194 H 0.21584 0.9858 0.83478 0.0
H2195 H 0.19575 0.00039 0.86264 0.0
H2196 H 0.20982 0.98429 0.92488 0.0
H2197 H 0.23731 0.96204 0.91317 0.0
C2198 C 0.24672 0.9539 0.87412 0.0
C2199 C 0.24967 0.95095 0.85311 0.0
C2200 C 0.23223 0.96803 0.88107 0.0
C2201 C 0.2388 0.96303 0.83913 0.0
C2202 C 0.22443 0.97712 0.84591 0.0
C2203 C 0.20501 0.9922 0.87364 0.0
C2204 C 0.20066 0.99377 0.89453 0.0
C2205 C 0.22067 0.97938 0.86682 0.0
C2206 C 0.21287 0.98326 0.90867 0.0
C2207 C 0.22852 0.97047 0.902 0.0
H2208 H 0.64986 0.21693 0.06659 0.0
H2209 H 0.61577 0.27034 0.04908 0.0
H2210 H 0.59903 0.25103 0.02185 0.0
H2211 H 0.5944 0.21901 0.00294 0.0
H2212 H 0.63023 0.16627 0.01914 0.0
H2213 H 0.64628 0.18537 0.04681 0.0
C2214 C 0.63855 0.22423 0.05696 0.0
C2215 C 0.63373 0.24486 0.05996 0.0
C2216 C 0.62959 0.21326 0.04096 0.0
C2217 C 0.61951 0.25437 0.0471 0.0
C2218 C 0.61005 0.24339 0.03151 0.0
C2219 C 0.60584 0.21177 0.01244 0.0
C2220 C 0.61115 0.1913 0.00904 0.0
C2221 C 0.61507 0.22286 0.02822 0.0
C2222 C 0.62602 0.18208 0.02139 0.0
C2223 C 0.63508 0.19293 0.0373 0.0
H2224 H 0.99179 0.36534 0.29601 0.0
H2225 H 0.0057 0.42784 0.28078 0.0
H2226 H 0.03075 0.41653 0.25576 0.0
H2227 H 0.05112 0.38907 0.24079 0.0
H2228 H 0.03724 0.32651 0.25561 0.0
H2229 H 0.00954 0.33763 0.27793 0.0
C2230 C 0.00015 0.37644 0.28703 0.0
C2231 C 0.99713 0.39736 0.29042 0.0
C2232 C 0.01456 0.36984 0.27264 0.0
C2233 C 0.00785 0.41162 0.27853 0.0
C2234 C 0.02222 0.40519 0.26424 0.0
C2235 C 0.04181 0.37788 0.24865 0.0
C2236 C 0.04633 0.35706 0.24678 0.0
C2237 C 0.02605 0.38437 0.26155 0.0
C2238 C 0.03405 0.34266 0.25686 0.0
C2239 C 0.0183 0.349 0.26972 0.0
H2240 H 0.89351 0.75487 0.5593 0.0
H2241 H 0.83249 0.76056 0.53537 0.0
H2242 H 0.84449 0.78471 0.5097 0.0
H2243 H 0.87201 0.80581 0.49536 0.0
H2244 H 0.9331 0.79952 0.51895 0.0
H2245 H 0.9214 0.77404 0.54339 0.0
C2246 C 0.88291 0.76123 0.54832 0.0
C2247 C 0.86217 0.75605 0.54929 0.0
C2248 C 0.88988 0.77514 0.53364 0.0
C2249 C 0.84857 0.76432 0.53492 0.0
C2250 C 0.85538 0.7782 0.52029 0.0
C2251 C 0.88273 0.79877 0.50581 0.0
C2252 C 0.9033 0.80461 0.50549 0.0
C2253 C 0.87594 0.784 0.51974 0.0
C2254 C 0.91714 0.79527 0.51894 0.0
C2255 C 0.91048 0.78071 0.53294 0.0
H2256 H 0.99057 0.63839 0.2026 0.0
H2257 H 0.00602 0.57634 0.21808 0.0
H2258 H 0.03036 0.58844 0.2435 0.0
H2259 H 0.04944 0.61669 0.25911 0.0
H2260 H 0.03384 0.67869 0.24355 0.0
H2261 H 0.0073 0.66657 0.22053 0.0
C2262 C 0.99908 0.62753 0.21173 0.0
C2263 C 0.99668 0.60655 0.20835 0.0
C2264 C 0.01314 0.63458 0.22621 0.0
C2265 C 0.00766 0.59262 0.22037 0.0
C2266 C 0.02165 0.59951 0.23486 0.0
C2267 C 0.04006 0.62752 0.25085 0.0
C2268 C 0.04373 0.64851 0.25284 0.0
C2269 C 0.02485 0.62046 0.23756 0.0
C2270 C 0.03138 0.66242 0.24219 0.0
C2271 C 0.01622 0.65552 0.22898 0.0
H2272 H 0.45093 0.37785 0.75697 0.0
H2273 H 0.46919 0.31711 0.73953 0.0
H2274 H 0.49331 0.33113 0.71486 0.0
H2275 H 0.5064 0.36057 0.69568 0.0
H2276 H 0.48816 0.42127 0.71333 0.0
H2277 H 0.46702 0.40735 0.74058 0.0
C2278 C 0.46042 0.36771 0.74798 0.0
C2279 C 0.45812 0.34653 0.74985 0.0
C2280 C 0.47414 0.37585 0.73374 0.0
C2281 C 0.47064 0.33352 0.73829 0.0
C2282 C 0.48436 0.3415 0.72411 0.0
C2283 C 0.49801 0.37073 0.70568 0.0
C2284 C 0.4986 0.39186 0.70234 0.0
C2285 C 0.48581 0.36263 0.7213 0.0
C2286 C 0.48785 0.40491 0.71553 0.0
C2287 C 0.4757 0.39697 0.73108 0.0
H2288 H 0.01511 0.90525 0.7128 0.0
H2289 H 0.99381 0.84616 0.69321 0.0
H2290 H 0.01417 0.82978 0.71976 0.0
H2291 H 0.04063 0.8321 0.74583 0.0
H2292 H 0.06399 0.89094 0.76375 0.0
H2293 H 0.03992 0.9077 0.74069 0.0
C2294 C 0.01469 0.88881 0.71457 0.0
C2295 C 0.00316 0.87687 0.70104 0.0
C2296 C 0.02685 0.8795 0.72945 0.0
C2297 C 0.00274 0.85561 0.7034 0.0
C2298 C 0.01436 0.84626 0.71854 0.0
C2299 C 0.04023 0.84861 0.74494 0.0
C2300 C 0.05411 0.8603 0.7563 0.0
C2301 C 0.02688 0.85803 0.73125 0.0
C2302 C 0.05348 0.88165 0.75503 0.0
C2303 C 0.03979 0.89121 0.74182 0.0
H2304 H 0.8447 0.26102 0.45596 0.0
H2305 H 0.9046 0.24497 0.43387 0.0
H2306 H 0.92014 0.2679 0.45883 0.0
H2307 H 0.91645 0.29442 0.48486 0.0
H2308 H 0.85643 0.31191 0.50547 0.0
H2309 H 0.8411 0.28622 0.48324 0.0
C2310 C 0.86117 0.26238 0.45675 0.0
C2311 C 0.87352 0.25147 0.44306 0.0
C2312 C 0.86992 0.27584 0.4708 0.0
C2313 C 0.89481 0.25334 0.44421 0.0
C2314 C 0.90368 0.26643 0.45845 0.0
C2315 C 0.90003 0.2924 0.4847 0.0
C2316 C 0.88754 0.30503 0.49668 0.0
C2317 C 0.89135 0.27803 0.47153 0.0
C2318 C 0.86631 0.30236 0.49629 0.0
C2319 C 0.85756 0.28774 0.48357 0.0
H2320 H 0.44761 0.11628 0.25664 0.0
H2321 H 0.4578 0.17862 0.2383 0.0
H2322 H 0.48372 0.16754 0.21391 0.0
H2323 H 0.50069 0.13976 0.19529 0.0
H2324 H 0.49065 0.07749 0.21407 0.0
H2325 H 0.46769 0.08894 0.24097 0.0
C2326 C 0.45572 0.12744 0.24749 0.0
C2327 C 0.45067 0.14816 0.24902 0.0
C2328 C 0.47054 0.12097 0.23351 0.0
C2329 C 0.46142 0.16254 0.23731 0.0
C2330 C 0.47617 0.15622 0.22331 0.0
C2331 C 0.49371 0.12876 0.20549 0.0
C2332 C 0.49712 0.10784 0.20254 0.0
C2333 C 0.48044 0.13543 0.22089 0.0
C2334 C 0.48817 0.0937 0.21597 0.0
C2335 C 0.47497 0.10021 0.23131 0.0
H2336 H 0.59935 0.7144 0.98462 0.0
H2337 H 0.65678 0.69067 0.0062 0.0
H2338 H 0.67513 0.71368 0.98318 0.0
H2339 H 0.67463 0.73899 0.95562 0.0
H2340 H 0.61708 0.76081 0.93237 0.0
H2341 H 0.59886 0.73999 0.95743 0.0
C2342 C 0.61589 0.71448 0.98449 0.0
C2343 C 0.62676 0.701 0.99712 0.0
C2344 C 0.62624 0.72722 0.97082 0.0
C2345 C 0.64815 0.70098 0.9966 0.0
C2346 C 0.65861 0.71406 0.98343 0.0
C2347 C 0.6581 0.7393 0.95616 0.0
C2348 C 0.64716 0.75138 0.94224 0.0
C2349 C 0.64778 0.727 0.97026 0.0
C2350 C 0.62578 0.75155 0.94293 0.0
C2351 C 0.61538 0.73969 0.95724 0.0
H2352 H 0.04063 0.10201 0.73438 0.0
H2353 H 0.02306 0.16424 0.74642 0.0
H2354 H 0.99715 0.15257 0.77046 0.0
H2355 H 0.98334 0.12505 0.7918 0.0
H2356 H 0.00084 0.06281 0.77976 0.0
H2357 H 0.02272 0.07408 0.7518 0.0
C2358 C 0.0308 0.11297 0.74193 0.0
C2359 C 0.03396 0.13393 0.73894 0.0
C2360 C 0.01611 0.10617 0.75591 0.0
C2361 C 0.02099 0.148 0.74858 0.0
C2362 C 0.00626 0.14136 0.76243 0.0
C2363 C 0.99166 0.11395 0.78279 0.0
C2364 C 0.99081 0.09322 0.78801 0.0
C2365 C 0.00428 0.12054 0.76682 0.0
C2366 C 0.00137 0.0789 0.77607 0.0
C2367 C 0.01396 0.08533 0.76015 0.0
H2368 H 0.58399 0.2957 0.51572 0.0
H2369 H 0.64098 0.31365 0.48809 0.0
H2370 H 0.65934 0.28967 0.51 0.0
H2371 H 0.65926 0.26505 0.53808 0.0
H2372 H 0.60256 0.24878 0.5673 0.0
H2373 H 0.58386 0.27066 0.54352 0.0
C2374 C 0.60041 0.29421 0.51437 0.0
C2375 C 0.61117 0.30635 0.50035 0.0
C2376 C 0.61085 0.2808 0.5273 0.0
C2377 C 0.63243 0.30446 0.49884 0.0
C2378 C 0.6429 0.29078 0.51134 0.0
C2379 C 0.64278 0.26614 0.53911 0.0
C2380 C 0.63224 0.25534 0.55434 0.0
C2381 C 0.63228 0.27908 0.52578 0.0
C2382 C 0.61095 0.257 0.55567 0.0
C2383 C 0.60029 0.2695 0.54212 0.0
H2384 H 0.50743 0.85849 0.29675 0.0
H2385 H 0.49033 0.92139 0.28793 0.0
H2386 H 0.46717 0.91156 0.26051 0.0
H2387 H 0.44904 0.88469 0.24175 0.0
H2388 H 0.46616 0.8218 0.25075 0.0
H2389 H 0.49221 0.83205 0.27518 0.0
C2390 C 0.49885 0.87005 0.28862 0.0
C2391 C 0.50034 0.89055 0.2945 0.0
C2392 C 0.48546 0.8643 0.27299 0.0
C2393 C 0.48933 0.90545 0.28373 0.0
C2394 C 0.47603 0.89985 0.2681 0.0
C2395 C 0.4587 0.87329 0.24883 0.0
C2396 C 0.45551 0.85254 0.24469 0.0
C2397 C 0.47355 0.87926 0.26301 0.0
C2398 C 0.46823 0.83789 0.25381 0.0
C2399 C 0.48309 0.84372 0.26784 0.0
H2400 H 0.82865 0.73184 0.04577 0.0
H2401 H 0.88786 0.75405 0.06404 0.0
H2402 H 0.90414 0.73156 0.03917 0.0
H2403 H 0.90162 0.70366 0.01463 0.0
H2404 H 0.84257 0.68001 0.99772 0.0
H2405 H 0.82604 0.70523 0.01969 0.0
C2406 C 0.84508 0.73195 0.04411 0.0
C2407 C 0.85707 0.74444 0.05674 0.0
C2408 C 0.85434 0.71868 0.0302 0.0
C2409 C 0.87835 0.74445 0.0545 0.0
C2410 C 0.88767 0.7316 0.04035 0.0
C2411 C 0.88514 0.70416 0.01558 0.0
C2412 C 0.87331 0.68996 0.00475 0.0
C2413 C 0.87581 0.71833 0.02848 0.0
C2414 C 0.85197 0.69077 0.00605 0.0
C2415 C 0.84252 0.70513 0.01859 0.0
H2416 H 0.73266 0.03659 0.8378 0.0
H2417 H 0.75779 0.05616 0.89541 0.0
H2418 H 0.7358 0.03211 0.91346 0.0
H2419 H 0.70712 0.00834 0.91302 0.0
H2420 H 0.68048 0.99022 0.85563 0.0
H2421 H 0.70558 0.0108 0.83724 0.0
C2422 C 0.73355 0.03534 0.85428 0.0
C2423 C 0.74666 0.04818 0.86531 0.0
C2424 C 0.7205 0.02191 0.86456 0.0
C2425 C 0.74768 0.04648 0.88663 0.0
C2426 C 0.7351 0.03279 0.89695 0.0
C2427 C 0.70696 0.00868 0.89648 0.0
C2428 C 0.6919 0.99798 0.88567 0.0
C2429 C 0.72108 0.02086 0.8861 0.0
C2430 C 0.69189 0.99847 0.86426 0.0
C2431 C 0.70619 0.01025 0.85376 0.0
H2432 H 0.74126 0.96774 0.65545 0.0
H2433 H 0.76203 0.94964 0.59566 0.0
H2434 H 0.73827 0.97361 0.57989 0.0
H2435 H 0.70961 0.99717 0.58308 0.0
H2436 H 0.68717 0.0137 0.64273 0.0
H2437 H 0.71372 0.99289 0.65867 0.0
C2438 C 0.74082 0.96931 0.63898 0.0
C2439 C 0.75329 0.95696 0.62669 0.0
C2440 C 0.72672 0.98265 0.63004 0.0
C2441 C 0.75249 0.95898 0.60539 0.0
C2442 C 0.7389 0.97262 0.59638 0.0
C2443 C 0.71065 0.9964 0.59958 0.0
C2444 C 0.69641 0.00681 0.61174 0.0
C2445 C 0.7256 0.98412 0.60856 0.0
C2446 C 0.69793 0.00571 0.63307 0.0
C2447 C 0.71308 0.99382 0.64217 0.0
H2448 H 0.7417 0.94986 0.38235 0.0
H2449 H 0.75759 0.96142 0.31953 0.0
H2450 H 0.78227 0.9872 0.33023 0.0
H2451 H 0.80207 0.00341 0.35771 0.0
H2452 H 0.78592 0.99157 0.42047 0.0
H2453 H 0.75851 0.96905 0.40951 0.0
C2454 C 0.75033 0.95828 0.37101 0.0
C2455 C 0.74808 0.95362 0.35026 0.0
C2456 C 0.76459 0.97285 0.37726 0.0
C2457 C 0.75913 0.96475 0.33564 0.0
C2458 C 0.77333 0.97938 0.34175 0.0
C2459 C 0.79237 0.99608 0.36894 0.0
C2460 C 0.79619 0.99886 0.38982 0.0
C2461 C 0.77664 0.98308 0.36255 0.0
C2462 C 0.78338 0.98952 0.40427 0.0
C2463 C 0.76772 0.97661 0.39804 0.0
H2464 H 0.7373 0.04776 0.11513 0.0
H2465 H 0.75419 0.04346 0.17857 0.0
H2466 H 0.7782 0.01611 0.17061 0.0
H2467 H 0.79728 0.99639 0.14491 0.0
H2468 H 0.77966 0.00045 0.0816 0.0
H2469 H 0.75296 0.02475 0.09024 0.0
C2470 C 0.74597 0.04055 0.12724 0.0
C2471 C 0.74422 0.04771 0.14731 0.0
C2472 C 0.75978 0.02495 0.12256 0.0
C2473 C 0.75533 0.03816 0.16296 0.0
C2474 C 0.76916 0.02264 0.15841 0.0
C2475 C 0.78739 0.0024 0.13309 0.0
C2476 C 0.79062 0.99692 0.11265 0.0
C2477 C 0.77198 0.01637 0.13816 0.0
C2478 C 0.77755 0.00455 0.09747 0.0
C2479 C 0.76231 0.0185 0.10236 0.0
H2480 H 0.33664 0.75897 0.95803 0.0
H2481 H 0.39652 0.73943 0.93896 0.0
H2482 H 0.41213 0.7623 0.96392 0.0
H2483 H 0.40872 0.79034 0.98835 0.0
H2484 H 0.34887 0.81159 0.00559 0.0
H2485 H 0.3332 0.78535 0.98425 0.0
C2486 C 0.3531 0.75947 0.95957 0.0
C2487 C 0.36544 0.74766 0.94663 0.0
C2488 C 0.36193 0.77306 0.97348 0.0
C2489 C 0.38673 0.74848 0.94872 0.0
C2490 C 0.39565 0.76157 0.96293 0.0
C2491 C 0.39224 0.78903 0.98768 0.0
C2492 C 0.37994 0.80293 0.99838 0.0
C2493 C 0.38339 0.77432 0.97497 0.0
C2494 C 0.35863 0.80111 0.99738 0.0
C2495 C 0.34968 0.78615 0.98516 0.0
H2496 H 0.94541 0.62185 0.76367 0.0
H2497 H 0.9579 0.6843 0.74709 0.0
H2498 H 0.98402 0.67303 0.72309 0.0
H2499 H 8e-05 0.64529 0.70383 0.0
H2500 H 0.9877 0.58284 0.72043 0.0
H2501 H 0.96498 0.59425 0.74764 0.0
C2502 C 0.9541 0.63298 0.75503 0.0
C2503 C 0.94957 0.65381 0.75685 0.0
C2504 C 0.96899 0.6264 0.74119 0.0
C2505 C 0.96107 0.66814 0.74583 0.0
C2506 C 0.97594 0.66172 0.73204 0.0
C2507 C 0.99266 0.63422 0.71364 0.0
C2508 C 0.99525 0.61331 0.70999 0.0
C2509 C 0.97953 0.64087 0.72913 0.0
C2510 C 0.98583 0.59906 0.72293 0.0
C2511 C 0.97276 0.60555 0.73841 0.0
H2512 H 0.09195 0.20486 0.48024 0.0
H2513 H 0.14986 0.18761 0.50627 0.0
H2514 H 0.16699 0.21382 0.48589 0.0
H2515 H 0.16553 0.24061 0.45967 0.0
H2516 H 0.10776 0.25632 0.4324 0.0
H2517 H 0.09042 0.23176 0.45446 0.0
C2518 C 0.10831 0.20692 0.48157 0.0
C2519 C 0.11966 0.19437 0.49472 0.0
C2520 C 0.11802 0.22171 0.46961 0.0
C2521 C 0.14084 0.1971 0.4962 0.0
C2522 C 0.15061 0.21206 0.48458 0.0
C2523 C 0.14912 0.2388 0.45874 0.0
C2524 C 0.13788 0.25026 0.44453 0.0
C2525 C 0.13936 0.22433 0.47111 0.0
C2526 C 0.11668 0.24764 0.44325 0.0
C2527 C 0.10679 0.2336 0.45582 0.0
H2528 H 0.96061 0.34003 0.75743 0.0
H2529 H 0.94713 0.40087 0.73626 0.0
H2530 H 0.97319 0.41474 0.75898 0.0
H2531 H 0.99812 0.40976 0.7861 0.0
H2532 H 0.01063 0.34922 0.80869 0.0
H2533 H 0.98653 0.33492 0.78399 0.0
C2534 C 0.96356 0.3563 0.75762 0.0
C2535 C 0.95202 0.36946 0.74524 0.0
C2536 C 0.97821 0.36417 0.77102 0.0
C2537 C 0.95583 0.3905 0.74571 0.0
C2538 C 0.97068 0.39841 0.7587 0.0
C2539 C 0.99571 0.3934 0.78555 0.0
C2540 C 0.00605 0.38053 0.7992 0.0
C2541 C 0.98169 0.38542 0.77162 0.0
C2542 C 0.00276 0.35941 0.79834 0.0
C2543 C 0.98901 0.35126 0.78425 0.0
H2544 H 0.5509 0.61979 0.24004 0.0
H2545 H 0.54769 0.67871 0.2691 0.0
H2546 H 0.52027 0.66668 0.29122 0.0
H2547 H 0.49861 0.63884 0.30368 0.0
H2548 H 0.50138 0.58004 0.2743 0.0
H2549 H 0.52726 0.59269 0.25073 0.0
C2550 C 0.54413 0.62997 0.25118 0.0
C2551 C 0.55141 0.65 0.25311 0.0
C2552 C 0.52823 0.62303 0.26373 0.0
C2553 C 0.54236 0.66317 0.26739 0.0
C2554 C 0.52669 0.65632 0.28005 0.0
C2555 C 0.50467 0.6289 0.29192 0.0
C2556 C 0.49819 0.60854 0.29081 0.0
C2557 C 0.51967 0.63621 0.27852 0.0
C2558 C 0.50612 0.59582 0.27547 0.0
C2559 C 0.52102 0.60299 0.26206 0.0
H2560 H 0.50532 0.64393 0.79546 0.0
H2561 H 0.49355 0.57948 0.78929 0.0
H2562 H 0.46944 0.58621 0.76181 0.0
H2563 H 0.44881 0.61061 0.74245 0.0
H2564 H 0.46046 0.67506 0.74851 0.0
H2565 H 0.48772 0.66811 0.7729 0.0
C2566 C 0.49769 0.63136 0.78787 0.0
C2567 C 0.50094 0.6113 0.79456 0.0
C2568 C 0.48375 0.63534 0.77217 0.0
C2569 C 0.49118 0.5951 0.78448 0.0
C2570 C 0.47734 0.59892 0.76882 0.0
C2571 C 0.45755 0.62309 0.74887 0.0
C2572 C 0.45249 0.64328 0.74396 0.0
C2573 C 0.47305 0.61901 0.76298 0.0
C2574 C 0.46405 0.65935 0.75216 0.0
C2575 C 0.47956 0.65541 0.76617 0.0
H2576 H 0.9163 0.19431 0.98044 0.0
H2577 H 0.85765 0.16631 0.99079 0.0
H2578 H 0.84177 0.19049 0.96718 0.0
H2579 H 0.84488 0.21894 0.94311 0.0
H2580 H 0.90389 0.24564 0.93137 0.0
H2581 H 0.91946 0.22247 0.95613 0.0
C2582 C 0.90001 0.19361 0.97765 0.0
C2583 C 0.88808 0.1787 0.98737 0.0
C2584 C 0.89115 0.2072 0.9638 0.0
C2585 C 0.86707 0.17772 0.98345 0.0
C2586 C 0.85803 0.1915 0.96997 0.0
C2587 C 0.86114 0.21974 0.94605 0.0
C2588 C 0.87326 0.23396 0.93556 0.0
C2589 C 0.86997 0.20621 0.95999 0.0
C2590 C 0.89431 0.23475 0.9393 0.0
C2591 C 0.90318 0.22156 0.95344 0.0
H2592 H 0.65907 0.76093 0.46271 0.0
H2593 H 0.59951 0.73963 0.44462 0.0
H2594 H 0.58371 0.76072 0.47098 0.0
H2595 H 0.58663 0.78794 0.49623 0.0
H2596 H 0.64589 0.81162 0.51222 0.0
H2597 H 0.66213 0.78664 0.48975 0.0
C2598 C 0.64267 0.76063 0.46482 0.0
C2599 C 0.63041 0.74886 0.45176 0.0
C2600 C 0.63368 0.77332 0.47947 0.0
C2601 C 0.60919 0.74869 0.45447 0.0
C2602 C 0.60017 0.76076 0.46949 0.0
C2603 C 0.60312 0.78741 0.49508 0.0
C2604 C 0.61508 0.80163 0.50574 0.0
C2605 C 0.61223 0.77356 0.48164 0.0
C2606 C 0.6364 0.80085 0.50406 0.0
C2607 C 0.64566 0.78663 0.49119 0.0
H2608 H 0.73875 0.44822 0.61386 0.0
H2609 H 0.74504 0.46829 0.67625 0.0
H2610 H 0.76862 0.49495 0.66558 0.0
H2611 H 0.79063 0.50976 0.63919 0.0
H2612 H 0.78414 0.49024 0.57671 0.0
H2613 H 0.75734 0.46633 0.5867 0.0
C2614 C 0.74498 0.45869 0.62504 0.0
C2615 C 0.74041 0.4561 0.64581 0.0
C2616 C 0.75867 0.47395 0.61883 0.0
C2617 C 0.74843 0.46988 0.66015 0.0
C2618 C 0.762 0.48508 0.65409 0.0
C2619 C 0.78312 0.50047 0.62775 0.0
C2620 C 0.78948 0.50149 0.60734 0.0
C2621 C 0.76775 0.4868 0.63359 0.0
C2622 C 0.77949 0.48963 0.59256 0.0
C2623 C 0.76424 0.47591 0.59827 0.0
H2624 H 0.80072 0.50102 0.90686 0.0
H2625 H 0.81604 0.49084 0.84363 0.0
H2626 H 0.7885 0.51376 0.83314 0.0
H2627 H 0.76248 0.5391 0.84219 0.0
H2628 H 0.74939 0.55127 0.90555 0.0
H2629 H 0.77357 0.52482 0.91583 0.0
C2630 C 0.79788 0.5036 0.89076 0.0
C2631 C 0.81041 0.49439 0.87601 0.0
C2632 C 0.78249 0.51715 0.88493 0.0
C2633 C 0.80662 0.49789 0.85523 0.0
C2634 C 0.79091 0.51097 0.84925 0.0
C2635 C 0.76464 0.53566 0.85823 0.0
C2636 C 0.75425 0.54704 0.87314 0.0
C2637 C 0.77908 0.52103 0.864 0.0
C2638 C 0.75731 0.54268 0.89386 0.0
C2639 C 0.77114 0.52764 0.89972 0.0
H2640 H 0.70348 0.50498 0.07966 0.0
H2641 H 0.67821 0.4841 0.13678 0.0
H2642 H 0.70354 0.50409 0.15548 0.0
H2643 H 0.73092 0.52955 0.15548 0.0
H2644 H 0.75476 0.55193 0.09832 0.0
H2645 H 0.73199 0.52907 0.07966 0.0
C2646 C 0.70366 0.50461 0.0962 0.0
C2647 C 0.68897 0.49319 0.10686 0.0
C2648 C 0.71793 0.51644 0.10679 0.0
C2649 C 0.68934 0.49287 0.12827 0.0
C2650 C 0.70378 0.50429 0.13895 0.0
C2651 C 0.73133 0.52921 0.13894 0.0
C2652 C 0.74441 0.54242 0.12825 0.0
C2653 C 0.71787 0.51644 0.12836 0.0
C2654 C 0.74474 0.54193 0.10685 0.0
C2655 C 0.73172 0.52891 0.09619 0.0
H2656 H 0.72942 0.45635 0.33997 0.0
H2657 H 0.75154 0.43939 0.39961 0.0
H2658 H 0.7297 0.46524 0.41528 0.0
H2659 H 0.70249 0.49063 0.41212 0.0
H2660 H 0.67879 0.50592 0.35264 0.0
H2661 H 0.70331 0.48279 0.33669 0.0
C2662 C 0.72963 0.45847 0.35638 0.0
C2663 C 0.74196 0.44599 0.36866 0.0
C2664 C 0.71673 0.47296 0.36526 0.0
C2665 C 0.74207 0.4488 0.38989 0.0
C2666 C 0.72959 0.46354 0.39883 0.0
C2667 C 0.70289 0.4891 0.39565 0.0
C2668 C 0.68888 0.49986 0.38353 0.0
C2669 C 0.71659 0.47541 0.38669 0.0
C2670 C 0.68942 0.49769 0.36224 0.0
C2671 C 0.70339 0.48447 0.35314 0.0
H2672 H 0.55491 0.37986 0.24992 0.0
H2673 H 0.53788 0.3186 0.23305 0.0
H2674 H 0.5121 0.33185 0.20974 0.0
H2675 H 0.49531 0.36087 0.19314 0.0
H2676 H 0.51196 0.42214 0.21038 0.0
H2677 H 0.53686 0.40887 0.23464 0.0
C2678 C 0.54548 0.36944 0.24119 0.0
C2679 C 0.54834 0.34833 0.24308 0.0
C2680 C 0.53064 0.37715 0.22788 0.0
C2681 C 0.53596 0.33495 0.23182 0.0
C2682 C 0.52124 0.3425 0.21847 0.0
C2683 C 0.50431 0.37129 0.20231 0.0
C2684 C 0.5019 0.39241 0.19992 0.0
C2685 C 0.51858 0.36357 0.21623 0.0
C2686 C 0.51356 0.40578 0.21195 0.0
C2687 C 0.52784 0.39822 0.22578 0.0
H2688 H 0.1202 0.74062 0.06056 0.0
H2689 H 0.18146 0.75551 0.04165 0.0
H2690 H 0.16816 0.77864 0.01569 0.0
H2691 H 0.13915 0.79684 0.00041 0.0
H2692 H 0.07793 0.78161 0.01922 0.0
H2693 H 0.09118 0.75637 0.04309 0.0
C2694 C 0.13061 0.74873 0.05057 0.0
C2695 C 0.15174 0.74653 0.05312 0.0
C2696 C 0.12288 0.76208 0.03578 0.0
C2697 C 0.1651 0.75699 0.03999 0.0
C2698 C 0.15752 0.7703 0.02521 0.0
C2699 C 0.12875 0.78785 0.00963 0.0
C2700 C 0.10766 0.79122 0.00826 0.0
C2701 C 0.13645 0.77333 0.02331 0.0
C2702 C 0.09427 0.77935 0.02008 0.0
C2703 C 0.10182 0.76493 0.03377 0.0
H2704 H 0.35908 0.18803 0.49678 0.0
H2705 H 0.42134 0.20623 0.50775 0.0
H2706 H 0.40985 0.23135 0.53275 0.0
H2707 H 0.3823 0.24552 0.55402 0.0
H2708 H 0.32013 0.22707 0.54277 0.0
H2709 H 0.3314 0.20467 0.51536 0.0
C2710 C 0.3701 0.19774 0.50439 0.0
C2711 C 0.39099 0.19517 0.50063 0.0
C2712 C 0.36343 0.2119 0.51891 0.0
C2713 C 0.40513 0.20794 0.51044 0.0
C2714 C 0.3986 0.22219 0.52484 0.0
C2715 C 0.37125 0.2367 0.54544 0.0
C2716 C 0.35049 0.23769 0.55057 0.0
C2717 C 0.37783 0.22386 0.52964 0.0
C2718 C 0.33624 0.22643 0.53919 0.0
C2719 C 0.34265 0.21362 0.52351 0.0
H2720 H 0.20263 0.5115 0.41432 0.0
H2721 H 0.17936 0.49067 0.35639 0.0
H2722 H 0.20561 0.51026 0.33855 0.0
H2723 H 0.23284 0.53571 0.33941 0.0
H2724 H 0.25459 0.55843 0.39723 0.0
H2725 H 0.23135 0.53544 0.41523 0.0
C2726 C 0.2035 0.51102 0.3978 0.0
C2727 C 0.18906 0.49978 0.38664 0.0
C2728 C 0.21825 0.52272 0.38768 0.0
C2729 C 0.19027 0.49932 0.36527 0.0
C2730 C 0.20524 0.51052 0.35508 0.0
C2731 C 0.23273 0.53542 0.35596 0.0
C2732 C 0.2453 0.54879 0.36701 0.0
C2733 C 0.21896 0.52264 0.36613 0.0
C2734 C 0.24496 0.54831 0.38842 0.0
C2735 C 0.23166 0.53522 0.39869 0.0
H2736 H 0.19593 0.48153 0.08393 0.0
H2737 H 0.1782 0.5105 0.14031 0.0
H2738 H 0.20263 0.48938 0.15903 0.0
H2739 H 0.22854 0.4624 0.15931 0.0
H2740 H 0.24512 0.43244 0.10309 0.0
H2741 H 0.22157 0.45438 0.08423 0.0
C2742 C 0.19747 0.48328 0.10031 0.0
C2743 C 0.18537 0.49757 0.11076 0.0
C2744 C 0.21129 0.47095 0.11093 0.0
C2745 C 0.18736 0.49957 0.13198 0.0
C2746 C 0.20132 0.48753 0.14265 0.0
C2747 C 0.22709 0.46077 0.1429 0.0
C2748 C 0.23858 0.44593 0.13254 0.0
C2749 C 0.21331 0.47316 0.13228 0.0
C2750 C 0.23642 0.44379 0.11135 0.0
C2751 C 0.22297 0.45631 0.1006 0.0
H2752 H 0.29646 0.48706 0.91561 0.0
H2753 H 0.32394 0.50269 0.85783 0.0
H2754 H 0.30193 0.47801 0.84052 0.0
H2755 H 0.27634 0.45078 0.84225 0.0
H2756 H 0.25028 0.43401 0.90038 0.0
H2757 H 0.27038 0.46049 0.91723 0.0
C2758 C 0.29748 0.48523 0.89919 0.0
C2759 C 0.31174 0.49663 0.88796 0.0
C2760 C 0.28519 0.47076 0.8895 0.0
C2761 C 0.31305 0.49403 0.86675 0.0
C2762 C 0.30052 0.47992 0.85689 0.0
C2763 C 0.27496 0.45302 0.85859 0.0
C2764 C 0.26193 0.44049 0.87011 0.0
C2765 C 0.28677 0.468 0.86817 0.0
C2766 C 0.26031 0.44346 0.89125 0.0
C2767 C 0.27176 0.45858 0.90086 0.0
H2768 H 0.29395 0.48775 0.63233 0.0
H2769 H 0.28256 0.50521 0.56987 0.0
H2770 H 0.25692 0.52966 0.58107 0.0
H2771 H 0.2402 0.54836 0.60872 0.0
H2772 H 0.25113 0.53084 0.67121 0.0
H2773 H 0.27423 0.5039 0.65988 0.0
C2774 C 0.28568 0.49677 0.6212 0.0
C2775 C 0.2903 0.49492 0.60038 0.0
C2776 C 0.27092 0.5108 0.62773 0.0
C2777 C 0.27933 0.50646 0.58603 0.0
C2778 C 0.2647 0.52048 0.5924 0.0
C2779 C 0.24742 0.53843 0.61982 0.0
C2780 C 0.24421 0.54167 0.64072 0.0
C2781 C 0.26073 0.52311 0.61323 0.0
C2782 C 0.25343 0.52862 0.655 0.0
C2783 C 0.26673 0.5133 0.64855 0.0
H2784 H 0.04593 0.0854 0.41438 0.0
H2785 H 0.033 0.1462 0.39291 0.0
H2786 H 0.03904 0.15972 0.42729 0.0
H2787 H 0.05044 0.15425 0.46302 0.0
H2788 H 0.06486 0.09332 0.48306 0.0
H2789 H 0.05532 0.07973 0.44977 0.0
C2790 C 0.04436 0.10163 0.41718 0.0
C2791 C 0.03925 0.11482 0.4011 0.0
C2792 C 0.04793 0.1092 0.4368 0.0
C2793 C 0.0371 0.13576 0.40504 0.0
C2794 C 0.04049 0.14347 0.42469 0.0
C2795 C 0.05095 0.13797 0.46015 0.0
C2796 C 0.05814 0.12472 0.47538 0.0
C2797 C 0.04616 0.13034 0.44066 0.0
C2798 C 0.05924 0.10372 0.4715 0.0
C2799 C 0.05394 0.09598 0.45246 0.0
H2800 H 0.12608 0.83427 0.71637 0.0
H2801 H 0.10753 0.77335 0.73283 0.0
H2802 H 0.11597 0.76149 0.69823 0.0
H2803 H 0.13037 0.76853 0.6637 0.0
H2804 H 0.14958 0.82973 0.64898 0.0
H2805 H 0.13879 0.8415 0.68251 0.0
C2806 C 0.12382 0.81835 0.71249 0.0
C2807 C 0.11635 0.80466 0.72722 0.0
C2808 C 0.1287 0.81177 0.69281 0.0
C2809 C 0.11339 0.78416 0.72179 0.0
C2810 C 0.11817 0.77742 0.70202 0.0
C2811 C 0.1318 0.78448 0.66778 0.0
C2812 C 0.14069 0.79829 0.65391 0.0
C2813 C 0.12601 0.79109 0.68742 0.0
C2814 C 0.14279 0.81885 0.65942 0.0
C2815 C 0.1367 0.82557 0.6786 0.0
H2816 H 0.40773 0.88372 0.95802 0.0
H2817 H 0.46268 0.85079 0.97285 0.0
H2818 H 0.47566 0.85664 0.93821 0.0
H2819 H 0.4713 0.87162 0.90373 0.0
H2820 H 0.41679 0.90588 0.89029 0.0
H2821 H 0.40351 0.89872 0.92433 0.0
C2822 C 0.42258 0.87782 0.95371 0.0
C2823 C 0.43425 0.86685 0.96793 0.0
C2824 C 0.42989 0.88132 0.93397 0.0
C2825 C 0.45347 0.85938 0.96217 0.0
C2826 C 0.46083 0.86263 0.94235 0.0
C2827 C 0.45641 0.87724 0.90825 0.0
C2828 C 0.44491 0.88909 0.89456 0.0
C2829 C 0.44913 0.87357 0.9281 0.0
C2830 C 0.42584 0.89668 0.90061 0.0
C2831 C 0.41828 0.89265 0.92006 0.0
H2832 H 0.36965 0.23032 0.16139 0.0
H2833 H 0.32587 0.18141 0.15686 0.0
H2834 H 0.33534 0.1693 0.19068 0.0
H2835 H 0.3562 0.17211 0.22121 0.0
H2836 H 0.399 0.22157 0.22755 0.0
H2837 H 0.38956 0.23425 0.19353 0.0
C2838 C 0.36231 0.21698 0.16786 0.0
C2839 C 0.34723 0.20663 0.15662 0.0
C2840 C 0.36749 0.21035 0.18765 0.0
C2841 C 0.33754 0.18958 0.16522 0.0
C2842 C 0.34292 0.18266 0.18456 0.0
C2843 C 0.3634 0.18576 0.21521 0.0
C2844 C 0.37833 0.19585 0.22676 0.0
C2845 C 0.35785 0.19289 0.19587 0.0
C2846 C 0.38737 0.21362 0.21893 0.0
C2847 C 0.38208 0.22076 0.19944 0.0
H2848 H 0.0235 0.87029 0.09225 0.0
H2849 H 0.06792 0.91885 0.09139 0.0
H2850 H 0.07783 0.90961 0.05677 0.0
H2851 H 0.07494 0.88712 0.02739 0.0
H2852 H 0.03035 0.83884 0.02701 0.0
H2853 H 0.01902 0.84886 0.06132 0.0
C2854 C 0.03537 0.87876 0.08444 0.0
C2855 C 0.04516 0.89507 0.09441 0.0
C2856 C 0.04078 0.87357 0.06431 0.0
C2857 C 0.06025 0.90619 0.08406 0.0
C2858 C 0.0659 0.90095 0.06426 0.0
C2859 C 0.06257 0.87891 0.03472 0.0
C2860 C 0.05354 0.86222 0.0248 0.0
C2861 C 0.05637 0.88463 0.05432 0.0
C2862 C 0.03743 0.85183 0.03435 0.0
C2863 C 0.03111 0.85744 0.05401 0.0
H2864 H 0.37319 0.77209 0.33364 0.0
H2865 H 0.33398 0.82456 0.33977 0.0
H2866 H 0.34302 0.83566 0.3054 0.0
H2867 H 0.36216 0.83076 0.27397 0.0
H2868 H 0.40065 0.77799 0.26655 0.0
H2869 H 0.39147 0.76637 0.30099 0.0
C2870 C 0.36679 0.78602 0.32744 0.0
C2871 C 0.35314 0.79766 0.33923 0.0
C2872 C 0.3717 0.79207 0.30744 0.0
C2873 C 0.34459 0.81544 0.33097 0.0
C2874 C 0.3497 0.82176 0.31133 0.0
C2875 C 0.36847 0.81663 0.27982 0.0
C2876 C 0.38211 0.80527 0.26784 0.0
C2877 C 0.3632 0.81019 0.29947 0.0
C2878 C 0.39002 0.78692 0.27551 0.0
C2879 C 0.3849 0.78039 0.29522 0.0
H2880 H 0.42414 0.15077 0.54517 0.0
H2881 H 0.46377 0.10759 0.51543 0.0
H2882 H 0.47591 0.0956 0.54875 0.0
H2883 H 0.47265 0.09539 0.58628 0.0
H2884 H 0.43432 0.13986 0.61588 0.0
H2885 H 0.42421 0.15353 0.58258 0.0
C2886 C 0.43568 0.13894 0.54603 0.0
C2887 C 0.44296 0.12988 0.52801 0.0
C2888 C 0.44258 0.13229 0.56514 0.0
C2889 C 0.45805 0.11478 0.52916 0.0
C2890 C 0.46483 0.10785 0.54818 0.0
C2891 C 0.4622 0.10818 0.58538 0.0
C2892 C 0.45392 0.11645 0.60338 0.0
C2893 C 0.45679 0.11614 0.56625 0.0
C2894 C 0.44076 0.13325 0.60217 0.0
C2895 C 0.43497 0.141 0.58317 0.0
H2896 H 0.12889 0.19284 0.76524 0.0
H2897 H 0.06947 0.17437 0.78623 0.0
H2898 H 0.07863 0.18333 0.82134 0.0
H2899 H 0.10467 0.19368 0.84639 0.0
H2900 H 0.16528 0.20852 0.8255 0.0
H2901 H 0.15472 0.20361 0.79016 0.0
C2902 C 0.11786 0.19132 0.7775 0.0
C2903 C 0.09847 0.1834 0.77333 0.0
C2904 C 0.12362 0.19544 0.7977 0.0
C2905 C 0.0844 0.18076 0.78925 0.0
C2906 C 0.08969 0.18571 0.80928 0.0
C2907 C 0.11548 0.19591 0.83406 0.0
C2908 C 0.13571 0.20131 0.83851 0.0
C2909 C 0.10944 0.19259 0.81376 0.0
C2910 C 0.14965 0.20411 0.82244 0.0
C2911 C 0.14362 0.20142 0.80222 0.0
H2912 H 0.46175 0.08404 0.11331 0.0
H2913 H 0.46941 0.03192 0.15263 0.0
H2914 H 0.43489 0.0201 0.1438 0.0
H2915 H 0.4022 0.02531 0.12502 0.0
H2916 H 0.39654 0.0771 0.08476 0.0
H2917 H 0.43059 0.08852 0.09406 0.0
C2918 C 0.45591 0.07005 0.11997 0.0
C2919 C 0.46798 0.05891 0.1337 0.0
C2920 C 0.43635 0.06343 0.11476 0.0
C2921 C 0.46036 0.04069 0.14197 0.0
C2922 C 0.44062 0.03404 0.13701 0.0
C2923 C 0.40846 0.03914 0.11846 0.0
C2924 C 0.39689 0.05047 0.10436 0.0
C2925 C 0.42839 0.04541 0.12352 0.0
C2926 C 0.40519 0.06817 0.09565 0.0
C2927 C 0.42465 0.0747 0.10093 0.0
H2928 H 0.22175 0.17847 0.34569 0.0
H2929 H 0.21777 0.15394 0.40663 0.0
H2930 H 0.21358 0.18835 0.42043 0.0
H2931 H 0.20771 0.2249 0.4147 0.0
H2932 H 0.21126 0.24925 0.35362 0.0
H2933 H 0.21959 0.21546 0.3404 0.0
C2934 C 0.22007 0.18068 0.362 0.0
C2935 C 0.21971 0.16371 0.37511 0.0
C2936 C 0.21778 0.20047 0.3698 0.0
C2937 C 0.21791 0.16678 0.39624 0.0
C2938 C 0.21555 0.18644 0.40412 0.0
C2939 C 0.21081 0.22292 0.39856 0.0
C2940 C 0.20872 0.23953 0.38514 0.0
C2941 C 0.21506 0.20335 0.391 0.0
C2942 C 0.21276 0.23671 0.36427 0.0
C2943 C 0.21733 0.21735 0.35667 0.0
H2944 H 0.03858 0.90893 0.61316 0.0
H2945 H 0.03016 0.95964 0.6541 0.0
H2946 H 0.06406 0.97283 0.64477 0.0
H2947 H 0.09638 0.96938 0.62488 0.0
H2948 H 0.10268 0.91914 0.58287 0.0
H2949 H 0.06939 0.9061 0.59294 0.0
C2950 C 0.04412 0.9229 0.62008 0.0
C2951 C 0.032 0.93325 0.63438 0.0
C2952 C 0.06332 0.93033 0.61455 0.0
C2953 C 0.03925 0.95146 0.64299 0.0
C2954 C 0.05864 0.9589 0.63774 0.0
C2955 C 0.09043 0.95551 0.61813 0.0
C2956 C 0.10196 0.94509 0.60329 0.0
C2957 C 0.0709 0.94836 0.6236 0.0
C2958 C 0.09405 0.92736 0.59433 0.0
C2959 C 0.07503 0.91992 0.60004 0.0
H2960 H 0.34082 0.78448 0.86412 0.0
H2961 H 0.28498 0.77369 0.89721 0.0
H2962 H 0.27359 0.80852 0.88944 0.0
H2963 H 0.27953 0.84192 0.87248 0.0
H2964 H 0.33487 0.85102 0.83805 0.0
H2965 H 0.34667 0.81702 0.84744 0.0
C2966 C 0.32613 0.78969 0.86967 0.0
C2967 C 0.31374 0.77655 0.88121 0.0
C2968 C 0.31973 0.80951 0.86506 0.0
C2969 C 0.29472 0.78352 0.88818 0.0
C2970 C 0.28828 0.80344 0.88383 0.0
C2971 C 0.29429 0.83648 0.86736 0.0
C2972 C 0.30646 0.84892 0.85479 0.0
C2973 C 0.30069 0.81659 0.87227 0.0
C2974 C 0.32534 0.84167 0.84781 0.0
C2975 C 0.33204 0.82224 0.8531 0.0
H2976 H 0.46952 0.95372 0.35682 0.0
H2977 H 0.47032 0.89647 0.38932 0.0
H2978 H 0.43637 0.90304 0.40264 0.0
H2979 H 0.40637 0.92448 0.40488 0.0
H2980 H 0.40412 0.98163 0.37243 0.0
H2981 H 0.43855 0.97558 0.35904 0.0
C2982 C 0.46226 0.94285 0.36695 0.0
C2983 C 0.47238 0.92467 0.3721 0.0
C2984 C 0.44242 0.94656 0.37436 0.0
C2985 C 0.46278 0.91055 0.38506 0.0
C2986 C 0.44336 0.91425 0.39269 0.0
C2987 C 0.41334 0.93561 0.3948 0.0
C2988 C 0.40273 0.95344 0.38962 0.0
C2989 C 0.433 0.93209 0.38732 0.0
C2990 C 0.41198 0.96771 0.37655 0.0
C2991 C 0.43169 0.9643 0.36899 0.0
H2992 H 0.26771 0.15394 0.63173 0.0
H2993 H 0.3074 0.15734 0.68415 0.0
H2994 H 0.31731 0.19185 0.67485 0.0
H2995 H 0.31637 0.22024 0.651 0.0
H2996 H 0.27641 0.21836 0.5989 0.0
H2997 H 0.2645 0.1843 0.6091 0.0
C2998 C 0.27849 0.16232 0.64106 0.0
C2999 C 0.287 0.15305 0.65846 0.0
C3000 C 0.28392 0.18244 0.6358 0.0
C3001 C 0.3007 0.16412 0.67065 0.0
C3002 C 0.30637 0.18386 0.66537 0.0
C3003 C 0.30481 0.21249 0.64205 0.0
C3004 C 0.29731 0.22164 0.62423 0.0
C3005 C 0.29826 0.19306 0.64791 0.0
C3006 C 0.28225 0.2116 0.6128 0.0
C3007 C 0.27564 0.19207 0.61851 0.0
H3008 H 0.07558 0.01448 0.9002 0.0
H3009 H 0.10971 0.0516 0.85796 0.0
H3010 H 0.0781 0.06119 0.84052 0.0
H3011 H 0.04062 0.06127 0.83932 0.0
H3012 H 0.00652 0.02284 0.88038 0.0
H3013 H 0.03833 0.01108 0.89608 0.0
C3014 C 0.07605 0.02453 0.88706 0.0
C3015 C 0.0948 0.03263 0.8805 0.0
C3016 C 0.0579 0.02964 0.87694 0.0
C3017 C 0.09538 0.0453 0.86327 0.0
C3018 C 0.07735 0.05079 0.85335 0.0
C3019 C 0.04022 0.05004 0.85147 0.0
C3020 C 0.02135 0.04302 0.85885 0.0
C3021 C 0.0585 0.04337 0.86032 0.0
C3022 C 0.02092 0.02835 0.87443 0.0
C3023 C 0.03907 0.02179 0.88351 0.0
H3024 H 0.22931 0.83123 0.15881 0.0
H3025 H 0.18836 0.86083 0.11676 0.0
H3026 H 0.18058 0.82795 0.10086 0.0
H3027 H 0.18322 0.7906 0.10109 0.0
H3028 H 0.22553 0.76095 0.14168 0.0
H3029 H 0.23544 0.79416 0.15586 0.0
C3030 C 0.2188 0.83042 0.14606 0.0
C3031 C 0.20908 0.84823 0.13912 0.0
C3032 C 0.21477 0.81156 0.13678 0.0
C3033 C 0.19586 0.84723 0.12236 0.0
C3034 C 0.19141 0.82847 0.11332 0.0
C3035 C 0.19489 0.7915 0.11279 0.0
C3036 C 0.20357 0.77352 0.12053 0.0
C3037 C 0.20047 0.81053 0.12069 0.0
C3038 C 0.21878 0.7747 0.1355 0.0
C3039 C 0.22427 0.79363 0.14369 0.0
H3040 H 0.08919 0.4198 0.03017 0.0
H3041 H 0.15155 0.39913 0.03342 0.0
H3042 H 0.16324 0.43446 0.03671 0.0
H3043 H 0.15529 0.4709 0.04182 0.0
H3044 H 0.09264 0.49081 0.04034 0.0
H3045 H 0.0815 0.45613 0.03258 0.0
C3046 C 0.10536 0.423 0.03151 0.0
C3047 C 0.11947 0.40688 0.03185 0.0
C3048 C 0.1119 0.44324 0.03348 0.0
C3049 C 0.14038 0.41129 0.03332 0.0
C3050 C 0.14706 0.43148 0.03514 0.0
C3051 C 0.13927 0.46771 0.03917 0.0
C3052 C 0.12477 0.48333 0.04149 0.0
C3053 C 0.13292 0.44756 0.03558 0.0
C3054 C 0.10404 0.479 0.03849 0.0
C3055 C 0.09766 0.45916 0.03426 0.0
H3056 H 0.60633 0.03321 0.9184 0.0
H3057 H 0.64628 0.02689 0.97026 0.0
H3058 H 0.6376 0.06165 0.98124 0.0
H3059 H 0.61861 0.09398 0.97562 0.0
H3060 H 0.57819 0.09881 0.92389 0.0
H3061 H 0.58738 0.06449 0.91311 0.0
C3062 C 0.61316 0.03937 0.93216 0.0
C3063 C 0.62695 0.02754 0.9435 0.0
C3064 C 0.60815 0.05916 0.93824 0.0
C3065 C 0.63553 0.0357 0.96134 0.0
C3066 C 0.63066 0.05558 0.96753 0.0
C3067 C 0.61201 0.08751 0.96191 0.0
C3068 C 0.59785 0.0989 0.95047 0.0
C3069 C 0.61706 0.06751 0.956 0.0
C3070 C 0.58913 0.09032 0.93291 0.0
C3071 C 0.59433 0.0707 0.92676 0.0
H3072 H 0.17504 0.3426 0.22479 0.0
H3073 H 0.14376 0.39963 0.21505 0.0
H3074 H 0.17646 0.41689 0.20997 0.0
H3075 H 0.21345 0.41483 0.2045 0.0
H3076 H 0.24452 0.35748 0.21317 0.0
H3077 H 0.2124 0.34139 0.22309 0.0
C3078 C 0.17539 0.35884 0.22171 0.0
C3079 C 0.15703 0.36978 0.21994 0.0
C3080 C 0.1942 0.36861 0.21875 0.0
C3081 C 0.1577 0.39086 0.2163 0.0
C3082 C 0.17638 0.40073 0.2134 0.0
C3083 C 0.2133 0.39893 0.20906 0.0
C3084 C 0.23131 0.38731 0.20793 0.0
C3085 C 0.19468 0.38964 0.2141 0.0
C3086 C 0.23086 0.36675 0.21388 0.0
C3087 C 0.21247 0.35749 0.21937 0.0
H3088 H 0.88195 0.91077 0.4732 0.0
H3089 H 0.9125 0.90061 0.41578 0.0
H3090 H 0.9013 0.93387 0.40354 0.0
H3091 H 0.88386 0.96593 0.40931 0.0
H3092 H 0.85418 0.97777 0.46682 0.0
H3093 H 0.86429 0.94383 0.4791 0.0
C3094 C 0.88587 0.91581 0.45794 0.0
C3095 C 0.89787 0.90327 0.4453 0.0
C3096 C 0.87983 0.93528 0.45118 0.0
C3097 C 0.90323 0.91003 0.42571 0.0
C3098 C 0.8969 0.92904 0.41874 0.0
C3099 C 0.87958 0.96115 0.42457 0.0
C3100 C 0.86829 0.97432 0.43715 0.0
C3101 C 0.88542 0.94184 0.43141 0.0
C3102 C 0.86298 0.96793 0.45691 0.0
C3103 C 0.86865 0.9485 0.46385 0.0
H3104 H 0.82959 0.15573 0.21934 0.0
H3105 H 0.8598 0.10578 0.18908 0.0
H3106 H 0.82673 0.09118 0.17973 0.0
H3107 H 0.78949 0.0946 0.17735 0.0
H3108 H 0.75904 0.14354 0.20891 0.0
H3109 H 0.79199 0.15649 0.22098 0.0
C3110 C 0.82886 0.14153 0.21088 0.0
C3111 C 0.84698 0.13195 0.20457 0.0
C3112 C 0.80984 0.13313 0.20585 0.0
C3113 C 0.84598 0.1134 0.19398 0.0
C3114 C 0.82712 0.10512 0.1886 0.0
C3115 C 0.7901 0.10791 0.18717 0.0
C3116 C 0.77204 0.1183 0.19211 0.0
C3117 C 0.809 0.11512 0.19404 0.0
C3118 C 0.77283 0.13533 0.20501 0.0
C3119 C 0.79164 0.14279 0.21174 0.0
H3120 H 0.37048 0.57808 0.51696 0.0
H3121 H 0.41464 0.58192 0.56562 0.0
H3122 H 0.40623 0.54737 0.57639 0.0
H3123 H 0.38568 0.51672 0.57288 0.0
H3124 H 0.34169 0.51173 0.52428 0.0
H3125 H 0.35103 0.54595 0.51219 0.0
C3126 C 0.37816 0.57131 0.52995 0.0
C3127 C 0.39299 0.58256 0.54065 0.0
C3128 C 0.37347 0.55124 0.53588 0.0
C3129 C 0.40312 0.57357 0.55722 0.0
C3130 C 0.39836 0.55382 0.56336 0.0
C3131 C 0.37826 0.52302 0.55949 0.0
C3132 C 0.36297 0.51183 0.54952 0.0
C3133 C 0.38352 0.54259 0.55288 0.0
C3134 C 0.35361 0.52006 0.53211 0.0
C3135 C 0.35881 0.53967 0.52535 0.0
H3136 H 0.21498 0.63495 0.33446 0.0
H3137 H 0.2182 0.59294 0.28398 0.0
H3138 H 0.18364 0.60299 0.27339 0.0
H3139 H 0.15238 0.62392 0.27894 0.0
H3140 H 0.15097 0.66645 0.32915 0.0
H3141 H 0.18492 0.6557 0.33964 0.0
C3142 C 0.20819 0.62794 0.3211 0.0
C3143 C 0.21908 0.61318 0.31004 0.0
C3144 C 0.18856 0.63376 0.31522 0.0
C3145 C 0.21012 0.60442 0.29267 0.0
C3146 C 0.19034 0.61008 0.28672 0.0
C3147 C 0.1595 0.63061 0.29229 0.0
C3148 C 0.14919 0.64583 0.30339 0.0
C3149 C 0.17936 0.62468 0.29798 0.0
C3150 C 0.15863 0.65469 0.32042 0.0
C3151 C 0.17804 0.6486 0.3264 0.0
H3152 H 0.28441 0.34639 0.82922 0.0
H3153 H 0.28382 0.39785 0.7883 0.0
H3154 H 0.31794 0.38859 0.77591 0.0
H3155 H 0.34871 0.36658 0.77828 0.0
H3156 H 0.34794 0.31487 0.81904 0.0
H3157 H 0.31363 0.32367 0.83015 0.0
C3158 C 0.29166 0.35549 0.81744 0.0
C3159 C 0.28175 0.37281 0.80973 0.0
C3160 C 0.31113 0.35018 0.81061 0.0
C3161 C 0.29118 0.38437 0.79436 0.0
C3162 C 0.31073 0.37917 0.78743 0.0
C3163 C 0.34098 0.35734 0.78963 0.0
C3164 C 0.35086 0.34024 0.798 0.0
C3165 C 0.32101 0.36229 0.79573 0.0
C3166 C 0.34065 0.32815 0.81244 0.0
C3167 C 0.32103 0.33313 0.81878 0.0
H3168 H 0.96465 0.84705 0.52677 0.0
H3169 H 0.94986 0.90847 0.50881 0.0
H3170 H 0.95676 0.9206 0.54339 0.0
H3171 H 0.96321 0.91308 0.57933 0.0
H3172 H 0.97586 0.85132 0.59813 0.0
H3173 H 0.97331 0.83984 0.5627 0.0
C3174 C 0.96366 0.86316 0.53036 0.0
C3175 C 0.95712 0.87697 0.51536 0.0
C3176 C 0.96664 0.86981 0.55051 0.0
C3177 C 0.95518 0.89771 0.52017 0.0
C3178 C 0.95887 0.90457 0.53995 0.0
C3179 C 0.96544 0.89711 0.57569 0.0
C3180 C 0.96943 0.88302 0.59133 0.0
C3181 C 0.96391 0.89065 0.55537 0.0
C3182 C 0.97253 0.86242 0.58635 0.0
C3183 C 0.97119 0.85587 0.5661 0.0
H3184 H 0.85096 0.21869 0.32524 0.0
H3185 H 0.89652 0.18205 0.35526 0.0
H3186 H 0.9107 0.17217 0.32208 0.0
H3187 H 0.90858 0.17236 0.28466 0.0
H3188 H 0.86456 0.21073 0.25452 0.0
H3189 H 0.85143 0.222 0.28774 0.0
C3190 C 0.86402 0.20858 0.32443 0.0
C3191 C 0.87253 0.20072 0.34247 0.0
C3192 C 0.87235 0.20346 0.3054 0.0
C3193 C 0.88972 0.18808 0.34146 0.0
C3194 C 0.89779 0.18247 0.32255 0.0
C3195 C 0.89629 0.18342 0.28542 0.0
C3196 C 0.88735 0.19064 0.26734 0.0
C3197 C 0.88903 0.18985 0.30445 0.0
C3198 C 0.87166 0.2051 0.26834 0.0
C3199 C 0.86408 0.21137 0.28728 0.0
H3200 H 0.52381 0.13521 0.09315 0.0
H3201 H 0.54168 0.07308 0.08064 0.0
H3202 H 0.54633 0.08126 0.0448 0.0
H3203 H 0.54772 0.10621 0.01752 0.0
H3204 H 0.53156 0.16885 0.0292 0.0
H3205 H 0.52318 0.1602 0.06465 0.0
C3206 C 0.5287 0.12351 0.08254 0.0
C3207 C 0.53263 0.10363 0.08963 0.0
C3208 C 0.53142 0.12833 0.06177 0.0
C3209 C 0.53874 0.08855 0.07567 0.0
C3210 C 0.54132 0.09317 0.05512 0.0
C3211 C 0.54202 0.11795 0.0277 0.0
C3212 C 0.54034 0.13814 0.0208 0.0
C3213 C 0.53797 0.11302 0.04807 0.0
C3214 C 0.53287 0.15314 0.03414 0.0
C3215 C 0.52832 0.14825 0.05447 0.0
H3216 H 0.67946 0.79035 0.82558 0.0
H3217 H 0.61978 0.78303 0.85227 0.0
H3218 H 0.60418 0.78544 0.8184 0.0
H3219 H 0.60748 0.79255 0.78165 0.0
H3220 H 0.66735 0.79978 0.75521 0.0
H3221 H 0.68295 0.79392 0.78849 0.0
C3222 C 0.66304 0.78923 0.82397 0.0
C3223 C 0.65073 0.78689 0.84138 0.0
C3224 C 0.65425 0.79043 0.8045 0.0
C3225 C 0.62953 0.78503 0.83907 0.0
C3226 C 0.62063 0.78637 0.81972 0.0
C3227 C 0.62396 0.79238 0.78309 0.0
C3228 C 0.63623 0.79673 0.766 0.0
C3229 C 0.63283 0.78941 0.80237 0.0
C3230 C 0.65755 0.79647 0.76811 0.0
C3231 C 0.66649 0.79331 0.78718 0.0
H3232 H 0.95421 0.145 0.96036 0.0
H3233 H 0.95916 0.08519 0.98738 0.0
H3234 H 0.96746 0.07069 0.95408 0.0
H3235 H 0.969 0.07436 0.91689 0.0
H3236 H 0.96318 0.13393 0.88958 0.0
H3237 H 0.95943 0.14922 0.92346 0.0
C3238 C 0.95758 0.12887 0.95905 0.0
C3239 C 0.95591 0.11615 0.97629 0.0
C3240 C 0.96175 0.12055 0.93977 0.0
C3241 C 0.96032 0.09529 0.97435 0.0
C3242 C 0.96489 0.08696 0.95528 0.0
C3243 C 0.96704 0.09072 0.91836 0.0
C3244 C 0.966 0.10299 0.90079 0.0
C3245 C 0.96488 0.09933 0.93781 0.0
C3246 C 0.96384 0.12417 0.9029 0.0
C3247 C 0.96171 0.1329 0.92225 0.0
H3248 H 0.60607 0.17471 0.70845 0.0
H3249 H 0.61902 0.23351 0.73481 0.0
H3250 H 0.62986 0.24625 0.70125 0.0
H3251 H 0.63793 0.23959 0.66489 0.0
H3252 H 0.62453 0.18042 0.63932 0.0
H3253 H 0.61133 0.16896 0.67213 0.0
C3254 C 0.61119 0.19036 0.70687 0.0
C3255 C 0.61206 0.20309 0.72408 0.0
C3256 C 0.61729 0.19748 0.68767 0.0
C3257 C 0.61834 0.22342 0.72175 0.0
C3258 C 0.62456 0.23066 0.7026 0.0
C3259 C 0.63184 0.22429 0.66646 0.0
C3260 C 0.63235 0.21081 0.64973 0.0
C3261 C 0.62442 0.21769 0.6855 0.0
C3262 C 0.6244 0.19106 0.65196 0.0
C3263 C 0.61691 0.18446 0.67074 0.0
H3264 H 0.52282 0.89563 0.41965 0.0
H3265 H 0.56656 0.8571 0.38929 0.0
H3266 H 0.57739 0.84312 0.42226 0.0
H3267 H 0.57631 0.84426 0.4598 0.0
H3268 H 0.53104 0.881 0.49011 0.0
H3269 H 0.5185 0.89313 0.45699 0.0
C3270 C 0.5346 0.88402 0.42032 0.0
C3271 C 0.54419 0.87756 0.40227 0.0
C3272 C 0.54035 0.8758 0.43922 0.0
C3273 C 0.5591 0.86228 0.4031 0.0
C3274 C 0.56529 0.85436 0.4219 0.0
C3275 C 0.56347 0.85466 0.45907 0.0
C3276 C 0.55466 0.86195 0.47721 0.0
C3277 C 0.5563 0.86134 0.44006 0.0
C3278 C 0.53793 0.8752 0.47625 0.0
C3279 C 0.53091 0.88223 0.45737 0.0
H3280 H 0.90641 0.81546 0.20966 0.0
H3281 H 0.86522 0.7782 0.24493 0.0
H3282 H 0.84878 0.76641 0.21351 0.0
H3283 H 0.84395 0.7697 0.17637 0.0
H3284 H 0.88583 0.80625 0.14116 0.0
H3285 H 0.90425 0.81546 0.1723 0.0
C3286 C 0.89407 0.80446 0.21042 0.0
C3287 C 0.88685 0.79782 0.22949 0.0
C3288 C 0.88467 0.79794 0.19239 0.0
C3289 C 0.87104 0.78344 0.23037 0.0
C3290 C 0.86153 0.77688 0.21244 0.0
C3291 C 0.85718 0.7796 0.17556 0.0
C3292 C 0.86337 0.78764 0.15666 0.0
C3293 C 0.86782 0.78454 0.19344 0.0
C3294 C 0.88076 0.80005 0.15562 0.0
C3295 C 0.89126 0.8053 0.17338 0.0
H3296 H 0.5864 0.97164 0.87188 0.0
H3297 H 0.58226 0.93348 0.9254 0.0
H3298 H 0.54788 0.92316 0.91574 0.0
H3299 H 0.51976 0.92372 0.89151 0.0
H3300 H 0.523 0.96184 0.83799 0.0
H3301 H 0.55684 0.97391 0.84849 0.0
C3302 C 0.57794 0.96104 0.88136 0.0
C3303 C 0.58689 0.95311 0.89918 0.0
C3304 C 0.55801 0.95537 0.87585 0.0
C3305 C 0.57571 0.93968 0.91155 0.0
C3306 C 0.55605 0.93381 0.90607 0.0
C3307 C 0.52776 0.93487 0.88225 0.0
C3308 C 0.51902 0.94183 0.86398 0.0
C3309 C 0.54714 0.94144 0.88821 0.0
C3310 C 0.52943 0.95637 0.8522 0.0
C3311 C 0.54883 0.9631 0.85809 0.0
H3312 H 0.82493 0.79472 0.59162 0.0
H3313 H 0.7842 0.76481 0.63363 0.0
H3314 H 0.77169 0.79809 0.64548 0.0
H3315 H 0.77527 0.83563 0.64614 0.0
H3316 H 0.81491 0.86521 0.60274 0.0
H3317 H 0.82498 0.83204 0.58896 0.0
C3318 C 0.813 0.79557 0.60308 0.0
C3319 C 0.80549 0.77757 0.61191 0.0
C3320 C 0.80596 0.8146 0.60965 0.0
C3321 C 0.79 0.77859 0.62661 0.0
C3322 C 0.78305 0.79757 0.63347 0.0
C3323 C 0.78596 0.83474 0.63354 0.0
C3324 C 0.79465 0.85269 0.62562 0.0
C3325 C 0.79137 0.81566 0.6255 0.0
C3326 C 0.80815 0.85153 0.60907 0.0
C3327 C 0.81393 0.8326 0.60125 0.0
H3328 H 0.91051 0.02431 0.37015 0.0
H3329 H 0.90311 0.07496 0.41148 0.0
H3330 H 0.93694 0.08756 0.40261 0.0
H3331 H 0.96834 0.08447 0.38317 0.0
H3332 H 0.97755 0.0333 0.34299 0.0
H3333 H 0.94342 0.02031 0.35158 0.0
C3334 C 0.91634 0.03816 0.37704 0.0
C3335 C 0.90434 0.04885 0.39127 0.0
C3336 C 0.93613 0.04505 0.37227 0.0
C3337 C 0.9121 0.06654 0.40045 0.0
C3338 C 0.93143 0.07374 0.39542 0.0
C3339 C 0.96293 0.07041 0.37634 0.0
C3340 C 0.97531 0.05988 0.3624 0.0
C3341 C 0.94354 0.06311 0.38141 0.0
C3342 C 0.96826 0.04158 0.35384 0.0
C3343 C 0.94872 0.03427 0.35865 0.0
H3344 H 0.70008 0.21449 0.08182 0.0
H3345 H 0.72925 0.24436 0.13268 0.0
H3346 H 0.73871 0.21135 0.14698 0.0
H3347 H 0.73362 0.17441 0.14795 0.0
H3348 H 0.70382 0.14409 0.09783 0.0
H3349 H 0.69963 0.17686 0.08026 0.0
C3350 C 0.70914 0.21378 0.09565 0.0
C3351 C 0.71383 0.23183 0.10629 0.0
C3352 C 0.7139 0.19467 0.10417 0.0
C3353 C 0.72542 0.23067 0.12426 0.0
C3354 C 0.73065 0.21179 0.13255 0.0
C3355 C 0.72643 0.17496 0.13305 0.0
C3356 C 0.71864 0.15701 0.12434 0.0
C3357 C 0.7241 0.19376 0.12315 0.0
C3358 C 0.70976 0.15779 0.10488 0.0
C3359 C 0.70736 0.17651 0.09487 0.0
H3360 H 0.58783 0.02993 0.62662 0.0
H3361 H 0.59168 0.08214 0.58674 0.0
H3362 H 0.55808 0.09353 0.59796 0.0
H3363 H 0.52777 0.08872 0.61881 0.0
H3364 H 0.5222 0.03583 0.65749 0.0
H3365 H 0.55626 0.02437 0.64683 0.0
C3366 C 0.5813 0.04386 0.62055 0.0
C3367 C 0.59221 0.05533 0.60604 0.0
C3368 C 0.56168 0.05003 0.62668 0.0
C3369 C 0.58353 0.07313 0.59796 0.0
C3370 C 0.56434 0.07962 0.60433 0.0
C3371 C 0.53398 0.07465 0.62492 0.0
C3372 C 0.52262 0.06317 0.639 0.0
C3373 C 0.5533 0.06818 0.61861 0.0
C3374 C 0.5307 0.04486 0.64658 0.0
C3375 C 0.55018 0.0384 0.64057 0.0
H3376 H 0.67621 0.7951 0.40723 0.0
H3377 H 0.71253 0.75913 0.3659 0.0
H3378 H 0.72684 0.79029 0.35099 0.0
H3379 H 0.72583 0.82773 0.34727 0.0
H3380 H 0.69059 0.86356 0.38969 0.0
H3381 H 0.67906 0.83246 0.40679 0.0
C3382 C 0.68758 0.79413 0.39523 0.0
C3383 C 0.69322 0.77498 0.38748 0.0
C3384 C 0.69568 0.81204 0.38682 0.0
C3385 C 0.70806 0.77377 0.37211 0.0
C3386 C 0.71608 0.79156 0.36348 0.0
C3387 C 0.71581 0.82867 0.36041 0.0
C3388 C 0.70876 0.84778 0.36707 0.0
C3389 C 0.7095 0.81077 0.3703 0.0
C3390 C 0.69611 0.84896 0.3843 0.0
C3391 C 0.68948 0.8312 0.39402 0.0
H3392 H 0.96912 0.92167 0.11127 0.0
H3393 H 0.97309 0.96517 0.16037 0.0
H3394 H 0.93803 0.97647 0.15329 0.0
H3395 H 0.90559 0.97257 0.13379 0.0
H3396 H 0.90321 0.92889 0.08455 0.0
H3397 H 0.93824 0.91893 0.09121 0.0
C3398 C 0.9624 0.93374 0.12037 0.0
C3399 C 0.97358 0.94251 0.13637 0.0
C3400 C 0.94242 0.93995 0.11632 0.0
C3401 C 0.96476 0.95826 0.14789 0.0
C3402 C 0.94469 0.96459 0.14394 0.0
C3403 C 0.91279 0.96086 0.1246 0.0
C3404 C 0.90176 0.95138 0.10879 0.0
C3405 C 0.93323 0.9553 0.12835 0.0
C3406 C 0.91132 0.93641 0.09682 0.0
C3407 C 0.93138 0.93069 0.10058 0.0
H3408 H 0.80344 0.21354 0.90034 0.0
H3409 H 0.80999 0.2357 0.83877 0.0
H3410 H 0.79835 0.20298 0.82537 0.0
H3411 H 0.79021 0.16718 0.83107 0.0
H3412 H 0.7854 0.14386 0.89243 0.0
H3413 H 0.79265 0.17786 0.9061 0.0
C3414 C 0.80166 0.21131 0.88404 0.0
C3415 C 0.80731 0.22691 0.87049 0.0
C3416 C 0.79584 0.19214 0.87645 0.0
C3417 C 0.80552 0.22385 0.84939 0.0
C3418 C 0.79907 0.20512 0.84175 0.0
C3419 C 0.79069 0.16953 0.84745 0.0
C3420 C 0.7876 0.15303 0.86073 0.0
C3421 C 0.79491 0.18898 0.85512 0.0
C3422 C 0.78797 0.15633 0.8819 0.0
C3423 C 0.79203 0.17576 0.88971 0.0
H3424 H 0.91339 0.57756 0.94534 0.0
H3425 H 0.85157 0.59002 0.9641 0.0
H3426 H 0.84163 0.55515 0.9551 0.0
H3427 H 0.85038 0.52156 0.94014 0.0
H3428 H 0.91185 0.51054 0.9197 0.0
H3429 H 0.92229 0.54426 0.93162 0.0
C3430 C 0.89773 0.57268 0.94748 0.0
C3431 C 0.8832 0.58636 0.95521 0.0
C3432 C 0.89218 0.55276 0.94224 0.0
C3433 C 0.86299 0.57978 0.95799 0.0
C3434 C 0.85733 0.55983 0.95295 0.0
C3435 C 0.86613 0.52646 0.93886 0.0
C3436 C 0.88049 0.51368 0.92946 0.0
C3437 C 0.87179 0.54621 0.94496 0.0
C3438 C 0.90072 0.5202 0.92718 0.0
C3439 C 0.90661 0.53948 0.93381 0.0
H3440 H 0.39357 0.92596 0.0185 0.0
H3441 H 0.35726 0.89251 0.06202 0.0
H3442 H 0.34163 0.92426 0.07375 0.0
H3443 H 0.34024 0.9616 0.07334 0.0
H3444 H 0.37483 0.99529 0.02873 0.0
H3445 H 0.38903 0.96331 0.01535 0.0
C3446 C 0.38212 0.92568 0.03045 0.0
C3447 C 0.37673 0.90704 0.03964 0.0
C3448 C 0.37294 0.94395 0.03683 0.0
C3449 C 0.36166 0.90672 0.05482 0.0
C3450 C 0.35277 0.92484 0.06154 0.0
C3451 C 0.35069 0.96187 0.06049 0.0
C3452 C 0.3567 0.98064 0.05209 0.0
C3453 C 0.35856 0.94354 0.0529 0.0
C3454 C 0.36999 0.98094 0.03533 0.0
C3455 C 0.3782 0.9627 0.02783 0.0
H3456 H 0.79552 0.59475 0.83133 0.0
H3457 H 0.75722 0.63679 0.79838 0.0
H3458 H 0.78747 0.65293 0.78343 0.0
H3459 H 0.82484 0.65743 0.78309 0.0
H3460 H 0.86297 0.61445 0.81505 0.0
H3461 H 0.83271 0.59616 0.82705 0.0
C3462 C 0.79383 0.60719 0.82054 0.0
C3463 C 0.77431 0.61476 0.81605 0.0
C3464 C 0.81122 0.61633 0.81211 0.0
C3465 C 0.77216 0.6307 0.80194 0.0
C3466 C 0.78944 0.64003 0.79358 0.0
C3467 C 0.82646 0.64392 0.7925 0.0
C3468 C 0.84599 0.63743 0.79852 0.0
C3469 C 0.80904 0.63337 0.79908 0.0
C3470 C 0.84804 0.61973 0.81036 0.0
C3471 C 0.83077 0.60933 0.81724 0.0
H3472 H 0.13037 0.08672 0.5213 0.0
H3473 H 0.0931 0.09428 0.57504 0.0
H3474 H 0.10171 0.05993 0.58628 0.0
H3475 H 0.11923 0.0278 0.58077 0.0
H3476 H 0.15591 0.01885 0.52688 0.0
H3477 H 0.14784 0.0536 0.51549 0.0
C3478 C 0.12438 0.08085 0.53556 0.0
C3479 C 0.11127 0.093 0.54745 0.0
C3480 C 0.12901 0.06081 0.54171 0.0
C3481 C 0.10326 0.08519 0.56571 0.0
C3482 C 0.10811 0.06555 0.5721 0.0
C3483 C 0.12543 0.03338 0.56646 0.0
C3484 C 0.13814 0.0208 0.55467 0.0
C3485 C 0.12081 0.05321 0.56016 0.0
C3486 C 0.14597 0.02823 0.53615 0.0
C3487 C 0.14147 0.04812 0.52973 0.0
H3488 H 0.22973 0.85359 0.8252 0.0
H3489 H 0.22889 0.90111 0.77974 0.0
H3490 H 0.19384 0.8918 0.7705 0.0
H3491 H 0.16272 0.87141 0.77711 0.0
H3492 H 0.16457 0.82341 0.8221 0.0
H3493 H 0.19995 0.83184 0.83002 0.0
C3494 C 0.22196 0.86175 0.81307 0.0
C3495 C 0.23176 0.87805 0.8032 0.0
C3496 C 0.20192 0.85645 0.80805 0.0
C3497 C 0.22165 0.8884 0.78743 0.0
C3498 C 0.20157 0.88322 0.78232 0.0
C3499 C 0.17091 0.86289 0.78869 0.0
C3500 C 0.16105 0.84702 0.79925 0.0
C3501 C 0.19141 0.86755 0.79285 0.0
C3502 C 0.17185 0.83578 0.8139 0.0
C3503 C 0.19206 0.84054 0.81839 0.0
H3504 H 0.59399 0.48132 0.43411 0.0
H3505 H 0.65337 0.47515 0.4617 0.0
H3506 H 0.64617 0.43939 0.4696 0.0
H3507 H 0.62384 0.40926 0.46638 0.0
H3508 H 0.56505 0.4156 0.43748 0.0
H3509 H 0.57134 0.45184 0.43205 0.0
C3510 C 0.60521 0.47229 0.44223 0.0
C3511 C 0.62415 0.4809 0.44739 0.0
C3512 C 0.60125 0.45163 0.44605 0.0
C3513 C 0.63862 0.46891 0.45769 0.0
C3514 C 0.63458 0.44841 0.46202 0.0
C3515 C 0.61247 0.41857 0.45881 0.0
C3516 C 0.5941 0.40971 0.45215 0.0
C3517 C 0.61615 0.43948 0.4558 0.0
C3518 C 0.57939 0.42201 0.4426 0.0
C3519 C 0.58292 0.44276 0.43959 0.0
H3520 H 0.78896 0.40972 0.67328 0.0
H3521 H 0.76118 0.37034 0.71802 0.0
H3522 H 0.79488 0.35737 0.72777 0.0
H3523 H 0.83185 0.35511 0.72113 0.0
H3524 H 0.85979 0.39609 0.67796 0.0
H3525 H 0.82632 0.4107 0.66988 0.0
C3526 C 0.79038 0.39855 0.68542 0.0
C3527 C 0.77277 0.3908 0.69487 0.0
C3528 C 0.80971 0.39133 0.69094 0.0
C3529 C 0.77463 0.37653 0.71068 0.0
C3530 C 0.79384 0.36901 0.71609 0.0
C3531 C 0.83054 0.36732 0.71003 0.0
C3532 C 0.84801 0.37434 0.69979 0.0
C3533 C 0.8114 0.37592 0.70592 0.0
C3534 C 0.84641 0.39044 0.68584 0.0
C3535 C 0.82733 0.39874 0.68124 0.0
H3536 H 0.71045 0.62078 0.15908 0.0
H3537 H 0.72312 0.59314 0.21743 0.0
H3538 H 0.6898 0.60479 0.2302 0.0
H3539 H 0.65751 0.62423 0.22476 0.0
H3540 H 0.64684 0.65244 0.16623 0.0
H3541 H 0.67891 0.63886 0.15341 0.0
C3542 C 0.70601 0.61721 0.17463 0.0
C3543 C 0.71929 0.6062 0.18734 0.0
C3544 C 0.68711 0.62398 0.18175 0.0
C3545 C 0.71319 0.6017 0.20739 0.0
C3546 C 0.69414 0.60832 0.21464 0.0
C3547 C 0.66215 0.62707 0.20913 0.0
C3548 C 0.64986 0.63926 0.1964 0.0
C3549 C 0.681 0.6196 0.20196 0.0
C3550 C 0.65608 0.64314 0.17629 0.0
C3551 C 0.67443 0.63543 0.16896 0.0
H3552 H 0.5231 0.61576 0.9188 0.0
H3553 H 0.56646 0.65297 0.88627 0.0
H3554 H 0.57821 0.66778 0.91856 0.0
H3555 H 0.57897 0.66655 0.95612 0.0
H3556 H 0.53459 0.63055 0.98862 0.0
H3557 H 0.51996 0.61903 0.95616 0.0
C3558 C 0.53488 0.62738 0.91884 0.0
C3559 C 0.54422 0.63313 0.90041 0.0
C3560 C 0.54131 0.63591 0.93736 0.0
C3561 C 0.55918 0.64837 0.90039 0.0
C3562 C 0.56593 0.65672 0.91881 0.0
C3563 C 0.56578 0.65656 0.95601 0.0
C3564 C 0.5579 0.64917 0.97453 0.0
C3565 C 0.55752 0.65011 0.93739 0.0
C3566 C 0.54076 0.63642 0.97445 0.0
C3567 C 0.53256 0.62972 0.95593 0.0
H3568 H 0.62695 0.26676 0.16014 0.0
H3569 H 0.67586 0.31078 0.16357 0.0
H3570 H 0.66718 0.31817 0.19877 0.0
H3571 H 0.64473 0.31406 0.22778 0.0
H3572 H 0.59497 0.27121 0.22554 0.0
H3573 H 0.60526 0.26099 0.19091 0.0
C3574 C 0.63567 0.27793 0.16866 0.0
C3575 C 0.65188 0.28838 0.15914 0.0
C3576 C 0.63058 0.28219 0.18913 0.0
C3577 C 0.66321 0.30265 0.17041 0.0
C3578 C 0.65832 0.30686 0.19061 0.0
C3579 C 0.63626 0.30226 0.21984 0.0
C3580 C 0.61908 0.29347 0.22908 0.0
C3581 C 0.64193 0.29695 0.19999 0.0
C3582 C 0.60836 0.27809 0.21873 0.0
C3583 C 0.61411 0.27244 0.19887 0.0
H3584 H 0.96982 0.37909 0.40131 0.0
H3585 H 0.91476 0.41423 0.39359 0.0
H3586 H 0.9042 0.40596 0.42828 0.0
H3587 H 0.9108 0.38959 0.46084 0.0
H3588 H 0.96621 0.35543 0.47009 0.0
H3589 H 0.9767 0.36273 0.43485 0.0
C3590 C 0.95542 0.38466 0.40723 0.0
C3591 C 0.94295 0.39708 0.39494 0.0
C3592 C 0.94969 0.38031 0.42747 0.0
C3593 C 0.92452 0.4046 0.4028 0.0
C3594 C 0.91852 0.39994 0.42263 0.0
C3595 C 0.92522 0.38375 0.4552 0.0
C3596 C 0.93772 0.37199 0.46801 0.0
C3597 C 0.93106 0.388 0.43513 0.0
C3598 C 0.95639 0.36463 0.46052 0.0
C3599 C 0.9623 0.3687 0.44036 0.0
H3600 H 0.85718 0.6769 0.72447 0.0
H3601 H 0.89943 0.72662 0.7323 0.0
H3602 H 0.89267 0.73806 0.69723 0.0
H3603 H 0.87542 0.73284 0.66377 0.0
H3604 H 0.83232 0.6835 0.65754 0.0
H3605 H 0.83893 0.67281 0.69249 0.0
C3606 C 0.86482 0.69035 0.71856 0.0
C3607 C 0.87882 0.70087 0.73085 0.0
C3608 C 0.86087 0.69672 0.69859 0.0
C3609 C 0.88847 0.71836 0.72311 0.0
C3610 C 0.88473 0.72478 0.70303 0.0
C3611 C 0.86761 0.71971 0.67012 0.0
C3612 C 0.85355 0.70884 0.65809 0.0
C3613 C 0.87114 0.71388 0.69052 0.0
C3614 C 0.84322 0.69208 0.66652 0.0
C3615 C 0.84696 0.68596 0.68649 0.0
H3616 H 0.52112 0.37167 0.58985 0.0
H3617 H 0.56088 0.42412 0.58832 0.0
H3618 H 0.57041 0.41636 0.55331 0.0
H3619 H 0.56828 0.39455 0.52358 0.0
H3620 H 0.5286 0.34217 0.52356 0.0
H3621 H 0.51773 0.35026 0.55858 0.0
C3622 C 0.53194 0.38126 0.58181 0.0
C3623 C 0.54045 0.39833 0.59167 0.0
C3624 C 0.53713 0.3769 0.5614 0.0
C3625 C 0.55417 0.41088 0.58106 0.0
C3626 C 0.5596 0.4065 0.56103 0.0
C3627 C 0.5571 0.38497 0.53116 0.0
C3628 C 0.54929 0.36776 0.52112 0.0
C3629 C 0.55122 0.38957 0.55111 0.0
C3630 C 0.53469 0.35559 0.53099 0.0
C3631 C 0.52867 0.36011 0.55105 0.0
H3632 H 0.90523 0.29897 0.77262 0.0
H3633 H 0.85374 0.33949 0.76689 0.0
H3634 H 0.84159 0.32948 0.80055 0.0
H3635 H 0.84616 0.31051 0.83196 0.0
H3636 H 0.89784 0.2705 0.8392 0.0
H3637 H 0.90958 0.2792 0.80471 0.0
C3638 C 0.89121 0.30528 0.77871 0.0
C3639 C 0.8803 0.31983 0.76738 0.0
C3640 C 0.88456 0.29985 0.7984 0.0
C3641 C 0.86235 0.32825 0.77543 0.0
C3642 C 0.85543 0.32261 0.79467 0.0
C3643 C 0.86004 0.3037 0.82605 0.0
C3644 C 0.87117 0.28997 0.8381 0.0
C3645 C 0.86657 0.3087 0.80638 0.0
C3646 C 0.88908 0.28124 0.83021 0.0
C3647 C 0.89572 0.28612 0.81048 0.0
H3648 H 0.94121 0.64944 0.03863 0.0
H3649 H 0.9198 0.5898 0.0212 0.0
H3650 H 0.92869 0.57636 0.05474 0.0
H3651 H 0.94045 0.5819 0.08948 0.0
H3652 H 0.96041 0.64163 0.10837 0.0
H3653 H 0.95398 0.65482 0.07394 0.0
C3654 C 0.93896 0.63343 0.04215 0.0
C3655 C 0.93012 0.62051 0.02752 0.0
C3656 C 0.94344 0.62596 0.0618 0.0
C3657 C 0.92674 0.59992 0.03226 0.0
C3658 C 0.93169 0.59227 0.05144 0.0
C3659 C 0.94341 0.59782 0.08611 0.0
C3660 C 0.95076 0.61079 0.10147 0.0
C3661 C 0.93964 0.60523 0.06643 0.0
C3662 C 0.95458 0.63136 0.09682 0.0
C3663 C 0.951 0.63888 0.07712 0.0
H3664 H 0.5974 0.71366 0.277 0.0
H3665 H 0.6579 0.69534 0.25899 0.0
H3666 H 0.67088 0.7037 0.29289 0.0
H3667 H 0.66428 0.7123 0.32848 0.0
H3668 H 0.60349 0.72858 0.34766 0.0
H3669 H 0.59127 0.72486 0.31254 0.0
C3670 C 0.61352 0.71215 0.2804 0.0
C3671 C 0.62678 0.70413 0.26559 0.0
C3672 C 0.62068 0.71612 0.30023 0.0
C3673 C 0.64752 0.70167 0.27019 0.0
C3674 C 0.65489 0.70626 0.28959 0.0
C3675 C 0.64836 0.71516 0.32498 0.0
C3676 C 0.63475 0.72044 0.34066 0.0
C3677 C 0.64147 0.71281 0.30489 0.0
C3678 C 0.61423 0.7243 0.33585 0.0
C3679 C 0.60726 0.72222 0.31578 0.0
H3680 H 0.91502 0.52455 0.60488 0.0
H3681 H 0.88049 0.56008 0.64812 0.0
H3682 H 0.91215 0.57168 0.66416 0.0
H3683 H 0.94955 0.57457 0.6633 0.0
H3684 H 0.98421 0.53793 0.62114 0.0
H3685 H 0.95256 0.52353 0.60739 0.0
C3686 C 0.91447 0.53461 0.618 0.0
C3687 C 0.89556 0.54175 0.62518 0.0
C3688 C 0.9327 0.541 0.62723 0.0
C3689 C 0.89492 0.55448 0.64235 0.0
C3690 C 0.913 0.56116 0.65144 0.0
C3691 C 0.95014 0.56314 0.65135 0.0
C3692 C 0.96905 0.55742 0.64303 0.0
C3693 C 0.93195 0.55494 0.64365 0.0
C3694 C 0.96977 0.54247 0.62777 0.0
C3695 C 0.95169 0.53439 0.61981 0.0
H3696 H 0.71283 0.72157 0.91485 0.0
H3697 H 0.72224 0.74284 0.85324 0.0
H3698 H 0.73008 0.70822 0.8422 0.0
H3699 H 0.72969 0.67164 0.84905 0.0
H3700 H 0.7197 0.64968 0.91025 0.0
H3701 H 0.71662 0.68488 0.92254 0.0
C3702 C 0.71719 0.71869 0.89915 0.0
C3703 C 0.71684 0.73468 0.88483 0.0
C3704 C 0.72109 0.6986 0.89277 0.0
C3705 C 0.72235 0.73075 0.86451 0.0
C3706 C 0.72667 0.71094 0.85815 0.0
C3707 C 0.72698 0.67457 0.86512 0.0
C3708 C 0.72451 0.65818 0.87869 0.0
C3709 C 0.72527 0.6947 0.87197 0.0
C3710 C 0.72146 0.66212 0.89952 0.0
C3711 C 0.7197 0.68221 0.90651 0.0
H3712 H 0.58323 0.47292 0.11985 0.0
H3713 H 0.57799 0.43103 0.06934 0.0
H3714 H 0.54296 0.42333 0.07899 0.0
H3715 H 0.51458 0.42701 0.10255 0.0
H3716 H 0.51876 0.46859 0.15327 0.0
H3717 H 0.55328 0.47843 0.14245 0.0
C3718 C 0.57438 0.46208 0.11104 0.0
C3719 C 0.58324 0.45234 0.09407 0.0
C3720 C 0.55405 0.4579 0.11654 0.0
C3721 C 0.57155 0.43861 0.08254 0.0
C3722 C 0.55151 0.43425 0.08799 0.0
C3723 C 0.52293 0.43847 0.11109 0.0
C3724 C 0.51426 0.44702 0.1287 0.0
C3725 C 0.5427 0.44366 0.10502 0.0
C3726 C 0.52511 0.46193 0.13955 0.0
C3727 C 0.54491 0.46735 0.1335 0.0
H3728 H 0.80264 0.3316 0.33669 0.0
H3729 H 0.77866 0.34707 0.39598 0.0
H3730 H 0.78717 0.31293 0.40856 0.0
H3731 H 0.8029 0.27899 0.40289 0.0
H3732 H 0.82837 0.26499 0.3439 0.0
H3733 H 0.81743 0.29806 0.33084 0.0
C3734 C 0.79925 0.32753 0.35238 0.0
C3735 C 0.79016 0.34185 0.36542 0.0
C3736 C 0.80427 0.30803 0.35947 0.0
C3737 C 0.78581 0.33633 0.38568 0.0
C3738 C 0.79059 0.31679 0.39285 0.0
C3739 C 0.80561 0.28313 0.3871 0.0
C3740 C 0.81619 0.26965 0.37425 0.0
C3741 C 0.79992 0.30252 0.37989 0.0
C3742 C 0.82013 0.27519 0.35395 0.0
C3743 C 0.81399 0.29411 0.34653 0.0
H3744 H 0.93202 0.45138 0.90283 0.0
H3745 H 0.91131 0.45618 0.84057 0.0
H3746 H 0.94656 0.45315 0.82844 0.0
H3747 H 0.98294 0.4464 0.83569 0.0
H3748 H 0.00284 0.4405 0.89811 0.0
H3749 H 0.96826 0.44739 0.91012 0.0
C3750 C 0.93519 0.45175 0.88659 0.0
C3751 C 0.91909 0.45362 0.87258 0.0
C3752 C 0.95538 0.45014 0.87982 0.0
C3753 C 0.92346 0.45448 0.85162 0.0
C3754 C 0.9436 0.45286 0.84471 0.0
C3755 C 0.97977 0.44728 0.85191 0.0
C3756 C 0.99536 0.44312 0.86605 0.0
C3757 C 0.95967 0.45044 0.85867 0.0
C3758 C 0.99105 0.44382 0.88701 0.0
C3759 C 0.97127 0.44753 0.89386 0.0
H3760 H 0.77071 0.65163 0.12291 0.0
H3761 H 0.81736 0.64614 0.16898 0.0
H3762 H 0.82761 0.68141 0.16324 0.0
H3763 H 0.82378 0.71344 0.14497 0.0
H3764 H 0.77673 0.72025 0.09956 0.0
H3765 H 0.76577 0.68491 0.10549 0.0
C3766 C 0.78319 0.65819 0.13154 0.0
C3767 C 0.79345 0.64632 0.14618 0.0
C3768 C 0.78871 0.6787 0.12848 0.0
C3769 C 0.80933 0.655 0.15758 0.0
C3770 C 0.81516 0.67516 0.15435 0.0
C3771 C 0.811 0.70726 0.13646 0.0
C3772 C 0.8011 0.71933 0.12181 0.0
C3773 C 0.80496 0.68711 0.13988 0.0
C3774 C 0.78448 0.71123 0.11102 0.0
C3775 C 0.77836 0.691 0.11429 0.0
H3776 H 0.53835 0.57617 0.33952 0.0
H3777 H 0.50807 0.52169 0.36038 0.0
H3778 H 0.54084 0.50793 0.37228 0.0
H3779 H 0.5772 0.51375 0.38061 0.0
H3780 H 0.60661 0.569 0.36011 0.0
H3781 H 0.57504 0.58005 0.34392 0.0
C3782 C 0.53898 0.56113 0.34642 0.0
C3783 C 0.52092 0.55003 0.34942 0.0
C3784 C 0.55766 0.55359 0.35337 0.0
C3785 C 0.52186 0.53047 0.358 0.0
C3786 C 0.54054 0.52271 0.3649 0.0
C3787 C 0.57678 0.52802 0.37226 0.0
C3788 C 0.59412 0.5407 0.37179 0.0
C3789 C 0.55843 0.53446 0.36325 0.0
C3790 C 0.59342 0.55907 0.36083 0.0
C3791 C 0.57537 0.56543 0.35162 0.0
H3792 H 0.69843 0.26903 0.64549 0.0
H3793 H 0.70916 0.28347 0.58219 0.0
H3794 H 0.71668 0.31885 0.5913 0.0
H3795 H 0.71669 0.34648 0.61704 0.0
H3796 H 0.70443 0.33154 0.68002 0.0
H3797 H 0.70085 0.29573 0.67121 0.0
C3798 C 0.70287 0.27979 0.63372 0.0
C3799 C 0.70319 0.27364 0.61321 0.0
C3800 C 0.70646 0.30019 0.63897 0.0
C3801 C 0.70886 0.28782 0.59813 0.0
C3802 C 0.71296 0.30811 0.6033 0.0
C3803 C 0.7133 0.33535 0.6288 0.0
C3804 C 0.71058 0.34173 0.6491 0.0
C3805 C 0.71117 0.31462 0.62362 0.0
C3806 C 0.7064 0.3271 0.66423 0.0
C3807 C 0.70442 0.30656 0.65924 0.0
H3808 H 0.62612 0.91341 0.52591 0.0
H3809 H 0.57455 0.91338 0.56689 0.0
H3810 H 0.58131 0.9487 0.57596 0.0
H3811 H 0.60243 0.97906 0.57345 0.0
H3812 H 0.65373 0.98041 0.53233 0.0
H3813 H 0.64629 0.94527 0.52172 0.0
C3814 C 0.61644 0.92119 0.53683 0.0
C3815 C 0.59999 0.91075 0.54588 0.0
C3816 C 0.62023 0.94174 0.54179 0.0
C3817 C 0.58734 0.92105 0.55977 0.0
C3818 C 0.59117 0.94127 0.56495 0.0
C3819 C 0.61187 0.97175 0.56199 0.0
C3820 C 0.62864 0.98221 0.55374 0.0
C3821 C 0.60761 0.95168 0.55618 0.0
C3822 C 0.64065 0.97266 0.53879 0.0
C3823 C 0.6365 0.95253 0.53289 0.0
H3824 H 0.08822 0.58458 0.47996 0.0
H3825 H 0.12675 0.61757 0.4381 0.0
H3826 H 0.14271 0.58555 0.42723 0.0
H3827 H 0.14333 0.54801 0.4276 0.0
H3828 H 0.10641 0.51516 0.47099 0.0
H3829 H 0.09233 0.54738 0.4837 0.0
C3830 C 0.10026 0.5847 0.46859 0.0
C3831 C 0.10616 0.60321 0.45953 0.0
C3832 C 0.10958 0.56635 0.46279 0.0
C3833 C 0.12199 0.6034 0.44515 0.0
C3834 C 0.13103 0.58514 0.43893 0.0
C3835 C 0.13245 0.54799 0.44008 0.0
C3836 C 0.12569 0.52936 0.44827 0.0
C3837 C 0.12463 0.5665 0.44735 0.0
C3838 C 0.11182 0.52938 0.46455 0.0
C3839 C 0.10368 0.54776 0.47167 0.0
H3840 H 0.67442 0.86819 0.72762 0.0
H3841 H 0.64544 0.87171 0.66858 0.0
H3842 H 0.67623 0.88654 0.65403 0.0
H3843 H 0.71198 0.89574 0.65725 0.0
H3844 H 0.74199 0.89204 0.71565 0.0
H3845 H 0.71009 0.88023 0.73139 0.0
C3846 C 0.67477 0.87254 0.71166 0.0
C3847 C 0.6577 0.86875 0.69917 0.0
C3848 C 0.69271 0.88083 0.70327 0.0
C3849 C 0.65837 0.8744 0.67851 0.0
C3850 C 0.676 0.88282 0.67014 0.0
C3851 C 0.71156 0.89248 0.67347 0.0
C3852 C 0.72936 0.89449 0.68524 0.0
C3853 C 0.69336 0.88563 0.68226 0.0
C3854 C 0.72848 0.89051 0.70627 0.0
C3855 C 0.71028 0.88371 0.71523 0.0
H3856 H 0.34475 0.46592 0.9508 0.0
H3857 H 0.40428 0.49239 0.96004 0.0
H3858 H 0.41853 0.45863 0.96656 0.0
H3859 H 0.41476 0.42152 0.9665 0.0
H3860 H 0.35556 0.3946 0.95663 0.0
H3861 H 0.34049 0.42862 0.95326 0.0
C3862 C 0.36073 0.46433 0.95476 0.0
C3863 C 0.37345 0.48163 0.95498 0.0
C3864 C 0.36896 0.44478 0.95787 0.0
C3865 C 0.39418 0.47932 0.95984 0.0
C3866 C 0.40237 0.46 0.96339 0.0
C3867 C 0.39855 0.42308 0.96359 0.0
C3868 C 0.38633 0.40558 0.96149 0.0
C3869 C 0.39003 0.44261 0.96183 0.0
C3870 C 0.36531 0.40785 0.9581 0.0
C3871 C 0.35669 0.42729 0.95625 0.0
H3872 H 0.32552 0.64733 0.72363 0.0
H3873 H 0.35771 0.59883 0.69308 0.0
H3874 H 0.32526 0.58259 0.68425 0.0
H3875 H 0.2879 0.58458 0.68182 0.0
H3876 H 0.25552 0.63209 0.71361 0.0
H3877 H 0.28793 0.64621 0.72586 0.0
C3878 C 0.32537 0.63306 0.71527 0.0
C3879 C 0.34384 0.6244 0.70865 0.0
C3880 C 0.3067 0.62371 0.71056 0.0
C3881 C 0.34361 0.60576 0.6982 0.0
C3882 C 0.3251 0.59653 0.69312 0.0
C3883 C 0.28798 0.59773 0.69186 0.0
C3884 C 0.26953 0.60744 0.69676 0.0
C3885 C 0.30658 0.60568 0.69875 0.0
C3886 C 0.26962 0.62435 0.70982 0.0
C3887 C 0.28813 0.63252 0.71661 0.0
H3888 H 0.88943 0.06749 0.015 0.0
H3889 H 0.86708 0.10369 0.06528 0.0
H3890 H 0.85112 0.07364 0.08019 0.0
H3891 H 0.84654 0.03677 0.08085 0.0
H3892 H 0.86849 -0.00011 0.03106 0.0
H3893 H 0.88141 0.03058 0.01384 0.0
C3894 C 0.88079 0.06883 0.02904 0.0
C3895 C 0.87964 0.08775 0.03915 0.0
C3896 C 0.87175 0.05138 0.03767 0.0
C3897 C 0.8683 0.0893 0.05727 0.0
C3898 C 0.85921 0.07211 0.06585 0.0
C3899 C 0.85398 0.03547 0.06611 0.0
C3900 C 0.85687 0.01617 0.05732 0.0
C3901 C 0.86134 0.05303 0.05648 0.0
C3902 C 0.86617 0.01465 0.03809 0.0
C3903 C 0.87362 0.03216 0.02834 0.0
H3904 H 0.71836 0.14126 0.82869 0.0
H3905 H 0.71749 0.09245 0.78471 0.0
H3906 H 0.68375 0.10372 0.77275 0.0
H3907 H 0.65402 0.12733 0.77575 0.0
H3908 H 0.65693 0.17669 0.81919 0.0
H3909 H 0.69029 0.1652 0.83058 0.0
C3910 C 0.71084 0.13309 0.81642 0.0
C3911 C 0.72027 0.11599 0.80767 0.0
C3912 C 0.69173 0.13969 0.80968 0.0
C3913 C 0.7105 0.10571 0.79162 0.0
C3914 C 0.69119 0.11209 0.7849 0.0
C3915 C 0.662 0.13544 0.78775 0.0
C3916 C 0.653 0.15274 0.79673 0.0
C3917 C 0.68154 0.12898 0.79398 0.0
C3918 C 0.66355 0.16335 0.81205 0.0
C3919 C 0.68263 0.15681 0.81857 0.0
H3920 H 0.83155 0.85166 0.26915 0.0
H3921 H 0.86194 0.88025 0.32007 0.0
H3922 H 0.8296 0.89477 0.33147 0.0
H3923 H 0.7925 0.89705 0.32853 0.0
H3924 H 0.76175 0.86907 0.27759 0.0
H3925 H 0.79454 0.85669 0.26445 0.0
C3926 C 0.83111 0.86126 0.28262 0.0
C3927 C 0.84905 0.86473 0.29389 0.0
C3928 C 0.81244 0.86952 0.28911 0.0
C3929 C 0.84832 0.87732 0.31118 0.0
C3930 C 0.82984 0.88556 0.31775 0.0
C3931 C 0.79299 0.88835 0.31446 0.0
C3932 C 0.77479 0.8837 0.30415 0.0
C3933 C 0.81178 0.88139 0.30708 0.0
C3934 C 0.77561 0.87276 0.28578 0.0
C3935 C 0.79432 0.86563 0.27834 0.0
H3936 H 0.47079 0.37611 0.09331 0.0
H3937 H 0.41436 0.40883 0.10174 0.0
H3938 H 0.40339 0.39934 0.06745 0.0
H3939 H 0.41008 0.38264 0.03505 0.0
H3940 H 0.467 0.35128 0.02501 0.0
H3941 H 0.4778 0.35961 0.05992 0.0
C3942 C 0.456 0.38088 0.08765 0.0
C3943 C 0.44324 0.39293 0.1 0.0
C3944 C 0.45007 0.37589 0.06763 0.0
C3945 C 0.42433 0.39946 0.09247 0.0
C3946 C 0.4181 0.39411 0.07288 0.0
C3947 C 0.42488 0.37761 0.04045 0.0
C3948 C 0.43772 0.36633 0.02753 0.0
C3949 C 0.43092 0.38252 0.0603 0.0
C3950 C 0.4569 0.36008 0.03468 0.0
C3951 C 0.463 0.36474 0.05465 0.0
H3952 H 0.40249 0.67192 0.78628 0.0
H3953 H 0.35926 0.70897 0.75349 0.0
H3954 H 0.34599 0.72235 0.78587 0.0
H3955 H 0.34506 0.72118 0.82357 0.0
H3956 H 0.38965 0.68532 0.85598 0.0
H3957 H 0.40414 0.67372 0.8236 0.0
C3958 C 0.39033 0.68314 0.78625 0.0
C3959 C 0.38167 0.68936 0.76767 0.0
C3960 C 0.38296 0.69075 0.80481 0.0
C3961 C 0.36614 0.70406 0.76768 0.0
C3962 C 0.35849 0.71155 0.78616 0.0
C3963 C 0.35802 0.71091 0.82348 0.0
C3964 C 0.36613 0.70382 0.84204 0.0
C3965 C 0.36648 0.70463 0.80482 0.0
C3966 C 0.38314 0.69087 0.84184 0.0
C3967 C 0.39139 0.68422 0.82336 0.0
H3968 H 0.03463 0.66115 0.53752 0.0
H3969 H 0.04669 0.60069 0.51484 0.0
H3970 H 0.03709 0.58602 0.54771 0.0
H3971 H 0.0293 0.59063 0.58369 0.0
H3972 H 0.0192 0.65096 0.60778 0.0
H3973 H 0.02402 0.66554 0.57364 0.0
C3974 C 0.03449 0.64475 0.53971 0.0
C3975 C 0.04107 0.6319 0.52389 0.0
C3976 C 0.02979 0.63649 0.55898 0.0
C3977 C 0.04145 0.61074 0.52687 0.0
C3978 C 0.03615 0.60239 0.54567 0.0
C3979 C 0.028 0.60697 0.58149 0.0
C3980 C 0.02418 0.61974 0.59824 0.0
C3981 C 0.03099 0.61517 0.56199 0.0
C3982 C 0.02231 0.64084 0.5951 0.0
C3983 C 0.02504 0.64916 0.5756 0.0
H3984 H 0.14648 0.27156 0.33357 0.0
H3985 H 0.11666 0.32129 0.36473 0.0
H3986 H 0.10152 0.33256 0.33267 0.0
H3987 H 0.09972 0.33047 0.29552 0.0
H3988 H 0.12966 0.2813 0.26379 0.0
H3989 H 0.14168 0.26743 0.29642 0.0
C3990 C 0.13641 0.28467 0.33338 0.0
C3991 C 0.13286 0.29573 0.35145 0.0
C3992 C 0.12795 0.29124 0.31481 0.0
C3993 C 0.11972 0.31261 0.35101 0.0
C3994 C 0.11111 0.3191 0.33268 0.0
C3995 C 0.10869 0.31657 0.29577 0.0
C3996 C 0.11406 0.30703 0.27735 0.0
C3997 C 0.1156 0.30888 0.31445 0.0
C3998 C 0.1254 0.28889 0.27783 0.0
C3999 C 0.13233 0.28105 0.29645 0.0
H4000 H 0.47038 0.62386 0.40119 0.0
H4001 H 0.43846 0.5663 0.40362 0.0
H4002 H 0.43032 0.5719 0.43935 0.0
H4003 H 0.43018 0.59381 0.46917 0.0
H4004 H 0.46152 0.65154 0.46797 0.0
H4005 H 0.47251 0.64499 0.4327 0.0
C4006 C 0.46167 0.61259 0.4096 0.0
C4007 C 0.45482 0.59481 0.39969 0.0
C4008 C 0.45713 0.61582 0.43038 0.0
C4009 C 0.44381 0.58017 0.41082 0.0
C4010 C 0.43917 0.58331 0.43129 0.0
C4011 C 0.43971 0.60484 0.46131 0.0
C4012 C 0.44498 0.62314 0.47104 0.0
C4013 C 0.44552 0.60115 0.44112 0.0
C4014 C 0.45742 0.63724 0.46079 0.0
C4015 C 0.46348 0.6336 0.44057 0.0
H4016 H 0.12964 0.72683 0.16368 0.0
H4017 H 0.17567 0.67987 0.16588 0.0
H4018 H 0.16482 0.67037 0.20013 0.0
H4019 H 0.14194 0.67466 0.22898 0.0
H4020 H 0.09647 0.72208 0.2284 0.0
H4021 H 0.10765 0.73251 0.19414 0.0
C4022 C 0.13717 0.71449 0.1717 0.0
C4023 C 0.15328 0.7039 0.16224 0.0
C4024 C 0.13112 0.70936 0.19168 0.0
C4025 C 0.1632 0.68818 0.17285 0.0
C4026 C 0.15704 0.68276 0.19243 0.0
C4027 C 0.13456 0.6874 0.22143 0.0
C4028 C 0.11836 0.69754 0.23107 0.0
C4029 C 0.14102 0.69318 0.20193 0.0
C4030 C 0.10907 0.71414 0.22126 0.0
C4031 C 0.11535 0.71997 0.20164 0.0
H4032 H 0.10154 0.36409 0.95655 0.0
H4033 H 0.04011 0.35149 0.9765 0.0
H4034 H 0.02741 0.35882 0.942 0.0
H4035 H 0.0339 0.37099 0.90663 0.0
H4036 H 0.09551 0.38526 0.88843 0.0
H4037 H 0.10812 0.37476 0.92179 0.0
C4038 C 0.08534 0.36284 0.95342 0.0
C4039 C 0.07175 0.3574 0.96908 0.0
C4040 C 0.07825 0.36729 0.93382 0.0
C4041 C 0.05085 0.35577 0.96469 0.0
C4042 C 0.04362 0.35993 0.94499 0.0
C4043 C 0.0501 0.37139 0.90994 0.0
C4044 C 0.06382 0.37877 0.89516 0.0
C4045 C 0.05718 0.36595 0.92947 0.0
C4046 C 0.08472 0.37961 0.89962 0.0
C4047 C 0.09192 0.37369 0.91869 0.0
H4048 H 0.37449 0.26401 0.6593 0.0
H4049 H 0.33808 0.31862 0.65482 0.0
H4050 H 0.3496 0.32944 0.68845 0.0
H4051 H 0.36933 0.32335 0.71912 0.0
H4052 H 0.40504 0.2685 0.72534 0.0
H4053 H 0.39425 0.25757 0.69112 0.0
C4054 C 0.36931 0.27836 0.66568 0.0
C4055 C 0.35559 0.29061 0.65459 0.0
C4056 C 0.37563 0.28427 0.68535 0.0
C4057 C 0.34866 0.30898 0.66308 0.0
C4058 C 0.35519 0.31515 0.68231 0.0
C4059 C 0.37479 0.30896 0.71305 0.0
C4060 C 0.38801 0.29676 0.7247 0.0
C4061 C 0.36853 0.30287 0.6936 0.0
C4062 C 0.39477 0.2781 0.71667 0.0
C4063 C 0.38869 0.27193 0.69709 0.0
H4064 H 0.07909 0.48169 0.37263 0.0
H4065 H 0.07668 0.43892 0.42266 0.0
H4066 H 0.04248 0.4286 0.41263 0.0
H4067 H 0.01413 0.43023 0.38881 0.0
H4068 H 0.01516 0.47303 0.33894 0.0
H4069 H 0.04885 0.48525 0.34998 0.0
C4070 C 0.07101 0.47014 0.38129 0.0
C4071 C 0.08047 0.4609 0.39822 0.0
C4072 C 0.05111 0.46443 0.37559 0.0
C4073 C 0.06977 0.44619 0.40953 0.0
C4074 C 0.0502 0.44028 0.40383 0.0
C4075 C 0.02162 0.44242 0.38049 0.0
C4076 C 0.01233 0.45066 0.36305 0.0
C4077 C 0.04085 0.44913 0.3868 0.0
C4078 C 0.02203 0.46657 0.35251 0.0
C4079 C 0.04134 0.47339 0.3587 0.0
H4080 H 0.26128 0.33841 0.14008 0.0
H4081 H 0.31972 0.36514 0.1256 0.0
H4082 H 0.33185 0.33243 0.11295 0.0
H4083 H 0.32693 0.296 0.10836 0.0
H4084 H 0.26892 0.26834 0.12227 0.0
H4085 H 0.25543 0.30173 0.1327 0.0
C4086 C 0.27656 0.3371 0.13389 0.0
C4087 C 0.28964 0.35416 0.13393 0.0
C4088 C 0.28355 0.3181 0.12674 0.0
C4089 C 0.30939 0.35226 0.12584 0.0
C4090 C 0.31637 0.33354 0.11865 0.0
C4091 C 0.31128 0.29725 0.11362 0.0
C4092 C 0.299 0.27974 0.11488 0.0
C4093 C 0.30375 0.31632 0.11946 0.0
C4094 C 0.27867 0.28164 0.1213 0.0
C4095 C 0.27101 0.30069 0.12728 0.0
H4096 H 0.413 0.57171 0.9108 0.0
H4097 H 0.40857 0.52006 0.87037 0.0
H4098 H 0.44238 0.52794 0.85633 0.0
H4099 H 0.47313 0.55017 0.8554 0.0
H4100 H 0.47583 0.6024 0.8953 0.0
H4101 H 0.4429 0.59346 0.90994 0.0
C4102 C 0.41939 0.56215 0.8989 0.0
C4103 C 0.40834 0.54537 0.8916 0.0
C4104 C 0.43862 0.56681 0.89094 0.0
C4105 C 0.4168 0.53316 0.87615 0.0
C4106 C 0.43614 0.53761 0.8682 0.0
C4107 C 0.46653 0.55936 0.86746 0.0
C4108 C 0.47682 0.57684 0.87436 0.0
C4109 C 0.44722 0.55442 0.8755 0.0
C4110 C 0.46809 0.58889 0.88976 0.0
C4111 C 0.44927 0.58383 0.89811 0.0
H4112 H 0.21196 0.66745 0.66642 0.0
H4113 H 0.22061 0.64522 0.6051 0.0
H4114 H 0.21794 0.6801 0.5919 0.0
H4115 H 0.20984 0.71646 0.59773 0.0
H4116 H 0.19959 0.73775 0.65912 0.0
H4117 H 0.20672 0.70375 0.67246 0.0
C4118 C 0.21337 0.67022 0.65016 0.0
C4119 C 0.21618 0.65378 0.63671 0.0
C4120 C 0.21171 0.69017 0.64275 0.0
C4121 C 0.21826 0.65764 0.61573 0.0
C4122 C 0.21677 0.67756 0.6082 0.0
C4123 C 0.20978 0.71373 0.61405 0.0
C4124 C 0.20431 0.72953 0.62748 0.0
C4125 C 0.21313 0.69391 0.62155 0.0
C4126 C 0.20386 0.72579 0.64856 0.0
C4127 C 0.20776 0.70633 0.65616 0.0
H4128 H 0.08213 0.52305 0.11889 0.0
H4129 H 0.09214 0.58173 0.09076 0.0
H4130 H 0.05915 0.59354 0.10298 0.0
H4131 H 0.02754 0.58734 0.12105 0.0
H4132 H 0.0159 0.52884 0.14877 0.0
H4133 H 0.0494 0.51665 0.13709 0.0
C4134 C 0.07708 0.53845 0.11563 0.0
C4135 C 0.08957 0.55156 0.10403 0.0
C4136 C 0.0578 0.54508 0.12242 0.0
C4137 C 0.08281 0.57138 0.09965 0.0
C4138 C 0.06393 0.57814 0.10659 0.0
C4139 C 0.03225 0.57188 0.12458 0.0
C4140 C 0.0193 0.55901 0.1358 0.0
C4141 C 0.05131 0.5651 0.11786 0.0
C4142 C 0.02561 0.539 0.14009 0.0
C4143 C 0.04477 0.5321 0.13349 0.0
H4144 H 0.19224 0.33152 0.84017 0.0
H4145 H 0.22939 0.34082 0.89362 0.0
H4146 H 0.22038 0.30674 0.90607 0.0
H4147 H 0.20126 0.27429 0.90184 0.0
H4148 H 0.16289 0.26661 0.84899 0.0
H4149 H 0.1733 0.29986 0.83605 0.0
C4150 C 0.19836 0.32611 0.85456 0.0
C4151 C 0.21141 0.33864 0.86597 0.0
C4152 C 0.19303 0.30668 0.86163 0.0
C4153 C 0.21918 0.33146 0.88462 0.0
C4154 C 0.21413 0.31195 0.89169 0.0
C4155 C 0.19548 0.27988 0.88738 0.0
C4156 C 0.18149 0.26808 0.87627 0.0
C4157 C 0.20105 0.29939 0.8803 0.0
C4158 C 0.17371 0.27551 0.85775 0.0
C4159 C 0.17959 0.29452 0.85037 0.0
H4160 H 0.39978 0.46932 0.6223 0.0
H4161 H 0.39497 0.41409 0.58689 0.0
H4162 H 0.42946 0.40437 0.59678 0.0
H4163 H 0.461 0.41175 0.61462 0.0
H4164 H 0.4675 0.46742 0.64899 0.0
H4165 H 0.43237 0.47704 0.64013 0.0
C4166 C 0.40628 0.45506 0.61702 0.0
C4167 C 0.39488 0.4423 0.60407 0.0
C4168 C 0.42641 0.44983 0.62232 0.0
C4169 C 0.40349 0.42408 0.59693 0.0
C4170 C 0.4232 0.41855 0.60251 0.0
C4171 C 0.45478 0.42603 0.6202 0.0
C4172 C 0.46677 0.43885 0.63247 0.0
C4173 C 0.43482 0.43138 0.61502 0.0
C4174 C 0.45855 0.45735 0.63943 0.0
C4175 C 0.43846 0.46277 0.63446 0.0
H4176 H 0.27399 0.65643 0.37647 0.0
H4177 H 0.31155 0.6565 0.32235 0.0
H4178 H 0.31999 0.69223 0.32786 0.0
H4179 H 0.31793 0.72288 0.34854 0.0
H4180 H 0.28083 0.72376 0.40286 0.0
H4181 H 0.27041 0.68838 0.39646 0.0
C4182 C 0.2841 0.6643 0.366 0.0
C4183 C 0.29236 0.65382 0.34917 0.0
C4184 C 0.28869 0.68502 0.3691 0.0
C4185 C 0.30512 0.66422 0.33548 0.0
C4186 C 0.30989 0.68466 0.33856 0.0
C4187 C 0.30732 0.71544 0.35886 0.0
C4188 C 0.30019 0.72583 0.37617 0.0
C4189 C 0.30185 0.69515 0.35533 0.0
C4190 C 0.28638 0.71608 0.38933 0.0
C4191 C 0.28064 0.6958 0.3858 0.0
H4192 H 0.4119 0.06898 0.4724 0.0
H4193 H 0.35266 0.09698 0.4666 0.0
H4194 H 0.33694 0.06335 0.4627 0.0
H4195 H 0.34063 0.02638 0.45752 0.0
H4196 H 0.40015 0.99875 0.46222 0.0
H4197 H 0.4151 0.0318 0.4706 0.0
C4198 C 0.39552 0.06772 0.47039 0.0
C4199 C 0.38348 0.08542 0.46945 0.0
C4200 C 0.38664 0.04839 0.46815 0.0
C4201 C 0.36227 0.08356 0.46718 0.0
C4202 C 0.35328 0.06434 0.46499 0.0
C4203 C 0.35678 0.0275 0.46095 0.0
C4204 C 0.3693 0.01016 0.45921 0.0
C4205 C 0.36538 0.04669 0.46505 0.0
C4206 C 0.39021 0.01188 0.46348 0.0
C4207 C 0.3988 0.0308 0.46808 0.0
H4208 H 0.90113 0.42755 0.52429 0.0
H4209 H 0.86171 0.39131 0.56253 0.0
H4210 H 0.8453 0.42224 0.57538 0.0
H4211 H 0.84376 0.45956 0.57728 0.0
H4212 H 0.8816 0.49598 0.53771 0.0
H4213 H 0.89693 0.46496 0.52349 0.0
C4214 C 0.88887 0.42649 0.53536 0.0
C4215 C 0.88276 0.40731 0.54272 0.0
C4216 C 0.87926 0.4443 0.54234 0.0
C4217 C 0.86665 0.40597 0.55675 0.0
C4218 C 0.85732 0.42362 0.56411 0.0
C4219 C 0.85521 0.46065 0.56537 0.0
C4220 C 0.86176 0.4799 0.55863 0.0
C4221 C 0.86372 0.44285 0.55723 0.0
C4222 C 0.87635 0.48125 0.54304 0.0
C4223 C 0.88518 0.46356 0.53504 0.0
H4224 H 0.32637 0.15517 0.27753 0.0
H4225 H 0.36176 0.11055 0.31036 0.0
H4226 H 0.3304 0.09482 0.32323 0.0
H4227 H 0.29323 0.09632 0.32805 0.0
H4228 H 0.25765 0.13983 0.294 0.0
H4229 H 0.2888 0.15331 0.27827 0.0
C4230 C 0.32713 0.14183 0.28729 0.0
C4231 C 0.34621 0.13415 0.29332 0.0
C4232 C 0.30909 0.13276 0.29436 0.0
C4233 C 0.34717 0.11669 0.30563 0.0
C4234 C 0.32929 0.10778 0.31303 0.0
C4235 C 0.29233 0.10849 0.31686 0.0
C4236 C 0.27335 0.11729 0.31228 0.0
C4237 C 0.31021 0.11603 0.30792 0.0
C4238 C 0.27216 0.13285 0.29766 0.0
C4239 C 0.28996 0.14064 0.28883 0.0
H4240 H 0.6308 0.59156 0.02019 0.0
H4241 H 0.57639 0.59256 0.05734 0.0
H4242 H 0.58049 0.55652 0.06493 0.0
H4243 H 0.60014 0.52524 0.06256 0.0
H4244 H 0.65454 0.523 0.02569 0.0
H4245 H 0.64961 0.55887 0.01603 0.0
C4246 C 0.61989 0.58383 0.02994 0.0
C4247 C 0.60344 0.59477 0.03837 0.0
C4248 C 0.62223 0.56289 0.03414 0.0
C4249 C 0.58924 0.58454 0.05074 0.0
C4250 C 0.59153 0.5639 0.05508 0.0
C4251 C 0.61082 0.53252 0.05221 0.0
C4252 C 0.62772 0.52159 0.04492 0.0
C4253 C 0.60803 0.55301 0.04703 0.0
C4254 C 0.64133 0.53112 0.03139 0.0
C4255 C 0.63861 0.55166 0.02604 0.0
H4256 H 0.65492 0.36792 0.27709 0.0
H4257 H 0.64863 0.32649 0.32787 0.0
H4258 H 0.68211 0.33643 0.34053 0.0
H4259 H 0.71303 0.35659 0.3373 0.0
H4260 H 0.72085 0.39736 0.28626 0.0
H4261 H 0.68703 0.38775 0.27331 0.0
C4262 C 0.66088 0.36125 0.291 0.0
C4263 C 0.64931 0.34663 0.30166 0.0
C4264 C 0.68044 0.36672 0.29798 0.0
C4265 C 0.65726 0.3378 0.31946 0.0
C4266 C 0.67641 0.34344 0.32668 0.0
C4267 C 0.7074 0.36336 0.32328 0.0
C4268 C 0.71936 0.3777 0.31277 0.0
C4269 C 0.68813 0.35779 0.31604 0.0
C4270 C 0.71193 0.3862 0.29456 0.0
C4271 C 0.69257 0.3808 0.28725 0.0
H4272 H 0.11272 0.95739 0.91509 0.0
H4273 H 0.14661 0.96991 0.97003 0.0
H4274 H 0.13895 0.93549 0.98272 0.0
H4275 H 0.12255 0.90165 0.97781 0.0
H4276 H 0.08736 0.89079 0.9233 0.0
H4277 H 0.09589 0.92469 0.9106 0.0
C4278 C 0.11843 0.95263 0.92988 0.0
C4279 C 0.13025 0.96609 0.94161 0.0
C4280 C 0.1139 0.93305 0.93701 0.0
C4281 C 0.13737 0.9598 0.9608 0.0
C4282 C 0.13311 0.94011 0.96797 0.0
C4283 C 0.11699 0.90672 0.96307 0.0
C4284 C 0.10454 0.89377 0.95135 0.0
C4285 C 0.12147 0.92654 0.95613 0.0
C4286 C 0.09703 0.90053 0.93249 0.0
C4287 C 0.10184 0.9199 0.92527 0.0
H4288 H 0.34299 0.87417 0.22407 0.0
H4289 H 0.34846 0.84008 0.16807 0.0
H4290 H 0.31415 0.85034 0.15807 0.0
H4291 H 0.28256 0.86813 0.16542 0.0
H4292 H 0.27517 0.90076 0.22202 0.0
H4293 H 0.3102 0.89169 0.23189 0.0
C4294 C 0.33666 0.86927 0.20959 0.0
C4295 C 0.34819 0.85661 0.19666 0.0
C4296 C 0.31658 0.87469 0.20424 0.0
C4297 C 0.33981 0.84991 0.17816 0.0
C4298 C 0.32021 0.8557 0.17248 0.0
C4299 C 0.28858 0.87329 0.17994 0.0
C4300 C 0.27639 0.88515 0.19296 0.0
C4301 C 0.30844 0.86791 0.18546 0.0
C4302 C 0.2843 0.89152 0.21181 0.0
C4303 C 0.30432 0.88644 0.21736 0.0
H4304 H 0.15936 0.13939 0.73389 0.0
H4305 H 0.13154 0.10319 0.68654 0.0
H4306 H 0.16476 0.08855 0.67794 0.0
H4307 H 0.20201 0.08882 0.6816 0.0
H4308 H 0.22997 0.12379 0.72968 0.0
H4309 H 0.19629 0.136 0.74059 0.0
C4310 C 0.16058 0.12809 0.72187 0.0
C4311 C 0.14315 0.12254 0.71064 0.0
C4312 C 0.17969 0.11963 0.71715 0.0
C4313 C 0.14478 0.10769 0.69533 0.0
C4314 C 0.16376 0.09941 0.69036 0.0
C4315 C 0.20065 0.09887 0.69468 0.0
C4316 C 0.21831 0.10564 0.70473 0.0
C4317 C 0.18135 0.10566 0.70083 0.0
C4318 C 0.2165 0.1184 0.72179 0.0
C4319 C 0.19729 0.12547 0.7279 0.0
loop_
_geom_bond_atom_site_label_1
_geom_bond_atom_site_label_2
_geom_bond_distance
_geom_bond_site_symmetry_2
_ccdc_geom_bond_type
In0 O1 2.294 . S
In0 O2 2.326 . S
In0 O6 2.266 . S
In0 O7 2.326 . S
In0 O8 2.266 . S
In0 O9 2.326 . S
In0 O11 2.294 . S
In0 O12 2.326 1_455 S
O1 In0 2.294 . S
O1 C10 1.240 . S
O2 In0 2.326 . S
O2 C10 1.252 . S
C3 O6 1.252 . S
C3 O7 1.260 . S
C4 O11 1.240 1_655 S
C4 O12 1.252 . S
C5 O8 1.252 . S
C5 O9 1.260 . S
O6 In0 2.266 . S
O6 C3 1.252 . S
O7 In0 2.326 . S
O7 C3 1.260 . S
O8 In0 2.266 . S
O8 C5 1.252 . S
O9 In0 2.326 . S
O9 C5 1.260 . S
C10 O1 1.240 . S
C10 O2 1.252 . S
O11 In0 2.294 . S
O11 C4 1.240 1_455 S
O12 In0 2.326 1_655 S
O12 C4 1.252 . S
In13 O14 2.294 . S
In13 O15 2.326 . S
In13 O19 2.266 . S
In13 O20 2.326 . S
In13 O21 2.266 . S
In13 O22 2.326 . S
In13 O24 2.294 . S
In13 O25 2.326 . S
O14 In13 2.294 . S
O14 C23 1.240 . S
O15 In13 2.326 . S
O15 C23 1.252 . S
C16 O19 1.252 . S
C16 O20 1.260 . S
C17 O24 1.240 . S
C17 O25 1.252 . S
C18 O21 1.252 . S
C18 O22 1.260 . S
O19 In13 2.266 . S
O19 C16 1.252 . S
O20 In13 2.326 . S
O20 C16 1.260 . S
O21 In13 2.266 . S
O21 C18 1.252 . S
O22 In13 2.326 . S
O22 C18 1.260 . S
C23 O14 1.240 . S
C23 O15 1.252 . S
O24 In13 2.294 . S
O24 C17 1.240 . S
O25 In13 2.326 . S
O25 C17 1.252 . S
In26 O27 2.294 . S
In26 O28 2.326 . S
In26 O32 2.266 . S
In26 O33 2.326 . S
In26 O34 2.266 . S
In26 O35 2.326 . S
In26 O37 2.294 . S
In26 O38 2.326 . S
O27 In26 2.294 . S
O27 C36 1.240 . S
O28 In26 2.326 . S
O28 C36 1.252 . S
C29 O32 1.252 . S
C29 O33 1.260 . S
C30 O37 1.240 . S
C30 O38 1.252 . S
C31 O34 1.252 . S
C31 O35 1.260 . S
O32 In26 2.266 . S
O32 C29 1.252 . S
O33 In26 2.326 . S
O33 C29 1.260 . S
O34 In26 2.266 . S
O34 C31 1.252 . S
O35 In26 2.326 . S
O35 C31 1.260 . S
C36 O27 1.240 . S
C36 O28 1.252 . S
O37 In26 2.294 . S
O37 C30 1.240 . S
O38 In26 2.326 . S
O38 C30 1.252 . S
In39 O40 2.294 . S
In39 O41 2.326 . S
In39 O45 2.266 . S
In39 O46 2.326 . S
In39 O47 2.266 . S
In39 O48 2.326 . S
In39 O50 2.294 . S
In39 O51 2.326 . S
O40 In39 2.294 . S
O40 C49 1.240 . S
O41 In39 2.326 . S
O41 C49 1.252 . S
C42 O45 1.252 . S
C42 O46 1.260 . S
C43 O50 1.240 . S
C43 O51 1.252 . S
C44 O47 1.252 . S
C44 O48 1.260 . S
O45 In39 2.266 . S
O45 C42 1.252 . S
O46 In39 2.326 . S
O46 C42 1.260 . S
O47 In39 2.266 . S
O47 C44 1.252 . S
O48 In39 2.326 . S
O48 C44 1.260 . S
C49 O40 1.240 . S
C49 O41 1.252 . S
O50 In39 2.294 . S
O50 C43 1.240 . S
O51 In39 2.326 . S
O51 C43 1.252 . S
In52 O53 2.294 . S
In52 O54 2.326 . S
In52 O58 2.266 . S
In52 O59 2.326 . S
In52 O60 2.266 . S
In52 O61 2.326 . S
In52 O63 2.294 . S
In52 O64 2.326 1_455 S
O53 In52 2.294 . S
O53 C62 1.240 . S
O54 In52 2.326 . S
O54 C62 1.252 . S
C55 O58 1.252 . S
C55 O59 1.260 . S
C56 O63 1.240 1_655 S
C56 O64 1.252 . S
C57 O60 1.252 . S
C57 O61 1.260 . S
O58 In52 2.266 . S
O58 C55 1.252 . S
O59 In52 2.326 . S
O59 C55 1.260 . S
O60 In52 2.266 . S
O60 C57 1.252 . S
O61 In52 2.326 . S
O61 C57 1.260 . S
C62 O53 1.240 . S
C62 O54 1.252 . S
O63 In52 2.294 . S
O63 C56 1.240 1_455 S
O64 In52 2.326 1_655 S
O64 C56 1.252 . S
In65 O66 2.294 . S
In65 O67 2.326 . S
In65 O71 2.266 . S
In65 O72 2.326 . S
In65 O73 2.266 . S
In65 O74 2.326 . S
In65 O76 2.294 . S
In65 O77 2.326 . S
O66 In65 2.294 . S
O66 C75 1.240 . S
O67 In65 2.326 . S
O67 C75 1.252 . S
C68 O71 1.252 . S
C68 O72 1.260 . S
C69 O76 1.240 . S
C69 O77 1.252 . S
C70 O73 1.252 . S
C70 O74 1.260 . S
O71 In65 2.266 . S
O71 C68 1.252 . S
O72 In65 2.326 . S
O72 C68 1.260 . S
O73 In65 2.266 . S
O73 C70 1.252 . S
O74 In65 2.326 . S
O74 C70 1.260 . S
C75 O66 1.240 . S
C75 O67 1.252 . S
O76 In65 2.294 . S
O76 C69 1.240 . S
O77 In65 2.326 . S
O77 C69 1.252 . S
In78 O79 2.294 . S
In78 O80 2.326 . S
In78 O84 2.266 . S
In78 O85 2.326 . S
In78 O86 2.266 . S
In78 O87 2.326 . S
In78 O89 2.294 . S
In78 O90 2.326 . S
O79 In78 2.294 . S
O79 C88 1.240 . S
O80 In78 2.326 . S
O80 C88 1.252 . S
C81 O84 1.252 . S
C81 O85 1.260 . S
C82 O89 1.240 . S
C82 O90 1.252 . S
C83 O86 1.252 . S
C83 O87 1.260 . S
O84 In78 2.266 . S
O84 C81 1.252 . S
O85 In78 2.326 . S
O85 C81 1.260 . S
O86 In78 2.266 . S
O86 C83 1.252 . S
O87 In78 2.326 . S
O87 C83 1.260 . S
C88 O79 1.240 . S
C88 O80 1.252 . S
O89 In78 2.294 . S
O89 C82 1.240 . S
O90 In78 2.326 . S
O90 C82 1.252 . S
In91 O92 2.294 . S
In91 O93 2.326 . S
In91 O97 2.266 . S
In91 O98 2.326 . S
In91 O99 2.266 . S
In91 O100 2.326 . S
In91 O102 2.294 . S
In91 O103 2.326 . S
O92 In91 2.294 . S
O92 C101 1.240 . S
O93 In91 2.326 . S
O93 C101 1.252 . S
C94 O97 1.252 . S
C94 O98 1.260 . S
C95 O102 1.240 . S
C95 O103 1.252 . S
C96 O99 1.252 . S
C96 O100 1.260 . S
O97 In91 2.266 . S
O97 C94 1.252 . S
O98 In91 2.326 . S
O98 C94 1.260 . S
O99 In91 2.266 . S
O99 C96 1.252 . S
O100 In91 2.326 . S
O100 C96 1.260 . S
C101 O92 1.240 . S
C101 O93 1.252 . S
O102 In91 2.294 . S
O102 C95 1.240 . S
O103 In91 2.326 . S
O103 C95 1.252 . S
In104 O105 2.294 . S
In104 O106 2.326 1_545 S
In104 O110 2.266 . S
In104 O111 2.326 . S
In104 O112 2.266 . S
In104 O113 2.326 . S
In104 O115 2.294 . S
In104 O116 2.326 . S
O105 In104 2.294 . S
O105 C114 1.240 1_545 S
O106 In104 2.326 1_565 S
O106 C114 1.252 . S
C107 O110 1.252 . S
C107 O111 1.260 . S
C108 O115 1.240 . S
C108 O116 1.252 . S
C109 O112 1.252 . S
C109 O113 1.260 . S
O110 In104 2.266 . S
O110 C107 1.252 . S
O111 In104 2.326 . S
O111 C107 1.260 . S
O112 In104 2.266 . S
O112 C109 1.252 . S
O113 In104 2.326 . S
O113 C109 1.260 . S
C114 O105 1.240 1_565 S
C114 O106 1.252 . S
O115 In104 2.294 . S
O115 C108 1.240 . S
O116 In104 2.326 . S
O116 C108 1.252 . S
In117 O118 2.294 . S
In117 O119 2.326 . S
In117 O123 2.266 . S
In117 O124 2.326 . S
In117 O125 2.266 . S
In117 O126 2.326 . S
In117 O128 2.294 . S
In117 O129 2.326 . S
O118 In117 2.294 . S
O118 C127 1.240 . S
O119 In117 2.326 . S
O119 C127 1.252 . S
C120 O123 1.252 . S
C120 O124 1.260 . S
C121 O128 1.240 . S
C121 O129 1.252 . S
C122 O125 1.252 . S
C122 O126 1.260 . S
O123 In117 2.266 . S
O123 C120 1.252 . S
O124 In117 2.326 . S
O124 C120 1.260 . S
O125 In117 2.266 . S
O125 C122 1.252 . S
O126 In117 2.326 . S
O126 C122 1.260 . S
C127 O118 1.240 . S
C127 O119 1.252 . S
O128 In117 2.294 . S
O128 C121 1.240 . S
O129 In117 2.326 . S
O129 C121 1.252 . S
In130 O131 2.294 . S
In130 O132 2.326 1_565 S
In130 O136 2.266 . S
In130 O137 2.326 . S
In130 O138 2.266 . S
In130 O139 2.326 . S
In130 O141 2.294 . S
In130 O142 2.326 . S
O131 In130 2.294 . S
O131 C140 1.240 1_565 S
O132 In130 2.326 1_545 S
O132 C140 1.252 . S
C133 O136 1.252 . S
C133 O137 1.260 . S
C134 O141 1.240 . S
C134 O142 1.252 . S
C135 O138 1.252 . S
C135 O139 1.260 . S
O136 In130 2.266 . S
O136 C133 1.252 . S
O137 In130 2.326 . S
O137 C133 1.260 . S
O138 In130 2.266 . S
O138 C135 1.252 . S
O139 In130 2.326 . S
O139 C135 1.260 . S
C140 O131 1.240 1_545 S
C140 O132 1.252 . S
O141 In130 2.294 . S
O141 C134 1.240 . S
O142 In130 2.326 . S
O142 C134 1.252 . S
In143 O144 2.294 . S
In143 O145 2.326 . S
In143 O149 2.266 . S
In143 O150 2.326 . S
In143 O151 2.266 . S
In143 O152 2.326 . S
In143 O154 2.294 . S
In143 O155 2.326 . S
O144 In143 2.294 . S
O144 C153 1.240 . S
O145 In143 2.326 . S
O145 C153 1.252 . S
C146 O149 1.252 . S
C146 O150 1.260 . S
C147 O154 1.240 . S
C147 O155 1.252 . S
C148 O151 1.252 . S
C148 O152 1.260 . S
O149 In143 2.266 . S
O149 C146 1.252 . S
O150 In143 2.326 . S
O150 C146 1.260 . S
O151 In143 2.266 . S
O151 C148 1.252 . S
O152 In143 2.326 . S
O152 C148 1.260 . S
C153 O144 1.240 . S
C153 O145 1.252 . S
O154 In143 2.294 . S
O154 C147 1.240 . S
O155 In143 2.326 . S
O155 C147 1.252 . S
In156 O157 2.294 . S
In156 O158 2.326 1_565 S
In156 O162 2.266 . S
In156 O163 2.326 . S
In156 O164 2.266 . S
In156 O165 2.326 . S
In156 O167 2.294 . S
In156 O168 2.326 . S
O157 In156 2.294 . S
O157 C166 1.240 1_565 S
O158 In156 2.326 1_545 S
O158 C166 1.252 . S
C159 O162 1.252 . S
C159 O163 1.260 . S
C160 O167 1.240 . S
C160 O168 1.252 . S
C161 O164 1.252 . S
C161 O165 1.260 . S
O162 In156 2.266 . S
O162 C159 1.252 . S
O163 In156 2.326 . S
O163 C159 1.260 . S
O164 In156 2.266 . S
O164 C161 1.252 . S
O165 In156 2.326 . S
O165 C161 1.260 . S
C166 O157 1.240 1_545 S
C166 O158 1.252 . S
O167 In156 2.294 . S
O167 C160 1.240 . S
O168 In156 2.326 . S
O168 C160 1.252 . S
In169 O170 2.294 . S
In169 O171 2.326 . S
In169 O175 2.266 . S
In169 O176 2.326 . S
In169 O177 2.266 . S
In169 O178 2.326 . S
In169 O180 2.294 . S
In169 O181 2.326 . S
O170 In169 2.294 . S
O170 C179 1.240 . S
O171 In169 2.326 . S
O171 C179 1.252 . S
C172 O175 1.252 . S
C172 O176 1.260 . S
C173 O180 1.240 . S
C173 O181 1.252 . S
C174 O177 1.252 . S
C174 O178 1.260 . S
O175 In169 2.266 . S
O175 C172 1.252 . S
O176 In169 2.326 . S
O176 C172 1.260 . S
O177 In169 2.266 . S
O177 C174 1.252 . S
O178 In169 2.326 . S
O178 C174 1.260 . S
C179 O170 1.240 . S
C179 O171 1.252 . S
O180 In169 2.294 . S
O180 C173 1.240 . S
O181 In169 2.326 . S
O181 C173 1.252 . S
In182 O183 2.294 . S
In182 O184 2.326 1_545 S
In182 O188 2.266 . S
In182 O189 2.326 . S
In182 O190 2.266 . S
In182 O191 2.326 . S
In182 O193 2.294 . S
In182 O194 2.326 . S
O183 In182 2.294 . S
O183 C192 1.240 1_545 S
O184 In182 2.326 1_565 S
O184 C192 1.252 . S
C185 O188 1.252 . S
C185 O189 1.260 . S
C186 O193 1.240 . S
C186 O194 1.252 . S
C187 O190 1.252 . S
C187 O191 1.260 . S
O188 In182 2.266 . S
O188 C185 1.252 . S
O189 In182 2.326 . S
O189 C185 1.260 . S
O190 In182 2.266 . S
O190 C187 1.252 . S
O191 In182 2.326 . S
O191 C187 1.260 . S
C192 O183 1.240 1_565 S
C192 O184 1.252 . S
O193 In182 2.294 . S
O193 C186 1.240 . S
O194 In182 2.326 . S
O194 C186 1.252 . S
In195 O196 2.294 . S
In195 O197 2.326 . S
In195 O201 2.266 . S
In195 O202 2.326 . S
In195 O203 2.266 . S
In195 O204 2.326 . S
In195 O206 2.294 . S
In195 O207 2.326 . S
O196 In195 2.294 . S
O196 C205 1.240 . S
O197 In195 2.326 . S
O197 C205 1.252 . S
C198 O201 1.252 . S
C198 O202 1.260 . S
C199 O206 1.240 . S
C199 O207 1.252 . S
C200 O203 1.252 . S
C200 O204 1.260 . S
O201 In195 2.266 . S
O201 C198 1.252 . S
O202 In195 2.326 . S
O202 C198 1.260 . S
O203 In195 2.266 . S
O203 C200 1.252 . S
O204 In195 2.326 . S
O204 C200 1.260 . S
C205 O196 1.240 . S
C205 O197 1.252 . S
O206 In195 2.294 . S
O206 C199 1.240 . S
O207 In195 2.326 . S
O207 C199 1.252 . S
In208 O209 2.294 . S
In208 O210 2.326 1_554 S
In208 O214 2.266 . S
In208 O215 2.326 . S
In208 O216 2.266 . S
In208 O217 2.326 . S
In208 O219 2.294 . S
In208 O220 2.326 . S
O209 In208 2.294 . S
O209 C218 1.240 1_554 S
O210 In208 2.326 1_556 S
O210 C218 1.252 . S
C211 O214 1.252 . S
C211 O215 1.260 . S
C212 O219 1.240 . S
C212 O220 1.252 . S
C213 O216 1.252 . S
C213 O217 1.260 . S
O214 In208 2.266 . S
O214 C211 1.252 . S
O215 In208 2.326 . S
O215 C211 1.260 . S
O216 In208 2.266 . S
O216 C213 1.252 . S
O217 In208 2.326 . S
O217 C213 1.260 . S
C218 O209 1.240 1_556 S
C218 O210 1.252 . S
O219 In208 2.294 . S
O219 C212 1.240 . S
O220 In208 2.326 . S
O220 C212 1.252 . S
In221 O222 2.294 . S
In221 O223 2.326 1_556 S
In221 O227 2.266 . S
In221 O228 2.326 . S
In221 O229 2.266 . S
In221 O230 2.326 . S
In221 O232 2.294 . S
In221 O233 2.326 . S
O222 In221 2.294 . S
O222 C231 1.240 1_556 S
O223 In221 2.326 1_554 S
O223 C231 1.252 . S
C224 O227 1.252 . S
C224 O228 1.260 . S
C225 O232 1.240 . S
C225 O233 1.252 . S
C226 O229 1.252 . S
C226 O230 1.260 . S
O227 In221 2.266 . S
O227 C224 1.252 . S
O228 In221 2.326 . S
O228 C224 1.260 . S
O229 In221 2.266 . S
O229 C226 1.252 . S
O230 In221 2.326 . S
O230 C226 1.260 . S
C231 O222 1.240 1_554 S
C231 O223 1.252 . S
O232 In221 2.294 . S
O232 C225 1.240 . S
O233 In221 2.326 . S
O233 C225 1.252 . S
In234 O235 2.294 . S
In234 O236 2.326 . S
In234 O240 2.266 . S
In234 O241 2.326 . S
In234 O242 2.266 . S
In234 O243 2.326 . S
In234 O245 2.294 . S
In234 O246 2.326 . S
O235 In234 2.294 . S
O235 C244 1.240 . S
O236 In234 2.326 . S
O236 C244 1.252 . S
C237 O240 1.252 . S
C237 O241 1.260 . S
C238 O245 1.240 . S
C238 O246 1.252 . S
C239 O242 1.252 . S
C239 O243 1.260 . S
O240 In234 2.266 . S
O240 C237 1.252 . S
O241 In234 2.326 . S
O241 C237 1.260 . S
O242 In234 2.266 . S
O242 C239 1.252 . S
O243 In234 2.326 . S
O243 C239 1.260 . S
C244 O235 1.240 . S
C244 O236 1.252 . S
O245 In234 2.294 . S
O245 C238 1.240 . S
O246 In234 2.326 . S
O246 C238 1.252 . S
In247 O248 2.294 . S
In247 O249 2.326 . S
In247 O253 2.266 . S
In247 O254 2.326 . S
In247 O255 2.266 . S
In247 O256 2.326 . S
In247 O258 2.294 . S
In247 O259 2.326 . S
O248 In247 2.294 . S
O248 C257 1.240 . S
O249 In247 2.326 . S
O249 C257 1.252 . S
C250 O253 1.252 . S
C250 O254 1.260 . S
C251 O258 1.240 . S
C251 O259 1.252 . S
C252 O255 1.252 . S
C252 O256 1.260 . S
O253 In247 2.266 . S
O253 C250 1.252 . S
O254 In247 2.326 . S
O254 C250 1.260 . S
O255 In247 2.266 . S
O255 C252 1.252 . S
O256 In247 2.326 . S
O256 C252 1.260 . S
C257 O248 1.240 . S
C257 O249 1.252 . S
O258 In247 2.294 . S
O258 C251 1.240 . S
O259 In247 2.326 . S
O259 C251 1.252 . S
In260 O261 2.294 . S
In260 O262 2.326 . S
In260 O266 2.266 . S
In260 O267 2.326 . S
In260 O268 2.266 . S
In260 O269 2.326 . S
In260 O271 2.294 . S
In260 O272 2.326 . S
O261 In260 2.294 . S
O261 C270 1.240 . S
O262 In260 2.326 . S
O262 C270 1.252 . S
C263 O266 1.252 . S
C263 O267 1.260 . S
C264 O271 1.240 . S
C264 O272 1.252 . S
C265 O268 1.252 . S
C265 O269 1.260 . S
O266 In260 2.266 . S
O266 C263 1.252 . S
O267 In260 2.326 . S
O267 C263 1.260 . S
O268 In260 2.266 . S
O268 C265 1.252 . S
O269 In260 2.326 . S
O269 C265 1.260 . S
C270 O261 1.240 . S
C270 O262 1.252 . S
O271 In260 2.294 . S
O271 C264 1.240 . S
O272 In260 2.326 . S
O272 C264 1.252 . S
In273 O274 2.294 . S
In273 O275 2.326 . S
In273 O279 2.266 . S
In273 O280 2.326 . S
In273 O281 2.266 . S
In273 O282 2.326 . S
In273 O284 2.294 . S
In273 O285 2.326 . S
O274 In273 2.294 . S
O274 C283 1.240 . S
O275 In273 2.326 . S
O275 C283 1.252 . S
C276 O279 1.252 . S
C276 O280 1.260 . S
C277 O284 1.240 . S
C277 O285 1.252 . S
C278 O281 1.252 . S
C278 O282 1.260 . S
O279 In273 2.266 . S
O279 C276 1.252 . S
O280 In273 2.326 . S
O280 C276 1.260 . S
O281 In273 2.266 . S
O281 C278 1.252 . S
O282 In273 2.326 . S
O282 C278 1.260 . S
C283 O274 1.240 . S
C283 O275 1.252 . S
O284 In273 2.294 . S
O284 C277 1.240 . S
O285 In273 2.326 . S
O285 C277 1.252 . S
In286 O287 2.294 . S
In286 O288 2.326 . S
In286 O292 2.266 . S
In286 O293 2.326 . S
In286 O294 2.266 . S
In286 O295 2.326 . S
In286 O297 2.294 . S
In286 O298 2.326 . S
O287 In286 2.294 . S
O287 C296 1.240 . S
O288 In286 2.326 . S
O288 C296 1.252 . S
C289 O292 1.252 . S
C289 O293 1.260 . S
C290 O297 1.240 . S
C290 O298 1.252 . S
C291 O294 1.252 . S
C291 O295 1.260 . S
O292 In286 2.266 . S
O292 C289 1.252 . S
O293 In286 2.326 . S
O293 C289 1.260 . S
O294 In286 2.266 . S
O294 C291 1.252 . S
O295 In286 2.326 . S
O295 C291 1.260 . S
C296 O287 1.240 . S
C296 O288 1.252 . S
O297 In286 2.294 . S
O297 C290 1.240 . S
O298 In286 2.326 . S
O298 C290 1.252 . S
In299 O300 2.294 . S
In299 O301 2.326 . S
In299 O305 2.266 . S
In299 O306 2.326 . S
In299 O307 2.266 . S
In299 O308 2.326 . S
In299 O310 2.294 . S
In299 O311 2.326 . S
O300 In299 2.294 . S
O300 C309 1.240 . S
O301 In299 2.326 . S
O301 C309 1.252 . S
C302 O305 1.252 . S
C302 O306 1.260 . S
C303 O310 1.240 . S
C303 O311 1.252 . S
C304 O307 1.252 . S
C304 O308 1.260 . S
O305 In299 2.266 . S
O305 C302 1.252 . S
O306 In299 2.326 . S
O306 C302 1.260 . S
O307 In299 2.266 . S
O307 C304 1.252 . S
O308 In299 2.326 . S
O308 C304 1.260 . S
C309 O300 1.240 . S
C309 O301 1.252 . S
O310 In299 2.294 . S
O310 C303 1.240 . S
O311 In299 2.326 . S
O311 C303 1.252 . S
In312 O313 2.294 . S
In312 O314 2.326 1_655 S
In312 O318 2.266 . S
In312 O319 2.326 . S
In312 O320 2.266 . S
In312 O321 2.326 . S
In312 O323 2.294 . S
In312 O324 2.326 . S
O313 In312 2.294 . S
O313 C322 1.240 1_655 S
O314 In312 2.326 1_455 S
O314 C322 1.252 . S
C315 O318 1.252 . S
C315 O319 1.260 . S
C316 O323 1.240 . S
C316 O324 1.252 . S
C317 O320 1.252 . S
C317 O321 1.260 . S
O318 In312 2.266 . S
O318 C315 1.252 . S
O319 In312 2.326 . S
O319 C315 1.260 . S
O320 In312 2.266 . S
O320 C317 1.252 . S
O321 In312 2.326 . S
O321 C317 1.260 . S
C322 O313 1.240 1_455 S
C322 O314 1.252 . S
O323 In312 2.294 . S
O323 C316 1.240 . S
O324 In312 2.326 . S
O324 C316 1.252 . S
In325 O326 2.294 . S
In325 O327 2.326 . S
In325 O331 2.266 . S
In325 O332 2.326 . S
In325 O333 2.266 . S
In325 O334 2.326 . S
In325 O336 2.294 . S
In325 O337 2.326 . S
O326 In325 2.294 . S
O326 C335 1.240 . S
O327 In325 2.326 . S
O327 C335 1.252 . S
C328 O331 1.252 . S
C328 O332 1.260 . S
C329 O336 1.240 . S
C329 O337 1.252 . S
C330 O333 1.252 . S
C330 O334 1.260 . S
O331 In325 2.266 . S
O331 C328 1.252 . S
O332 In325 2.326 . S
O332 C328 1.260 . S
O333 In325 2.266 . S
O333 C330 1.252 . S
O334 In325 2.326 . S
O334 C330 1.260 . S
C335 O326 1.240 . S
C335 O327 1.252 . S
O336 In325 2.294 . S
O336 C329 1.240 . S
O337 In325 2.326 . S
O337 C329 1.252 . S
In338 O339 2.294 . S
In338 O340 2.326 . S
In338 O344 2.266 . S
In338 O345 2.326 . S
In338 O346 2.266 . S
In338 O347 2.326 . S
In338 O349 2.294 . S
In338 O350 2.326 . S
O339 In338 2.294 . S
O339 C348 1.240 . S
O340 In338 2.326 . S
O340 C348 1.252 . S
C341 O344 1.252 . S
C341 O345 1.260 . S
C342 O349 1.240 . S
C342 O350 1.252 . S
C343 O346 1.252 . S
C343 O347 1.260 . S
O344 In338 2.266 . S
O344 C341 1.252 . S
O345 In338 2.326 . S
O345 C341 1.260 . S
O346 In338 2.266 . S
O346 C343 1.252 . S
O347 In338 2.326 . S
O347 C343 1.260 . S
C348 O339 1.240 . S
C348 O340 1.252 . S
O349 In338 2.294 . S
O349 C342 1.240 . S
O350 In338 2.326 . S
O350 C342 1.252 . S
In351 O352 2.294 . S
In351 O353 2.326 . S
In351 O357 2.266 . S
In351 O358 2.326 . S
In351 O359 2.266 . S
In351 O360 2.326 . S
In351 O362 2.294 . S
In351 O363 2.326 . S
O352 In351 2.294 . S
O352 C361 1.240 . S
O353 In351 2.326 . S
O353 C361 1.252 . S
C354 O357 1.252 . S
C354 O358 1.260 . S
C355 O362 1.240 . S
C355 O363 1.252 . S
C356 O359 1.252 . S
C356 O360 1.260 . S
O357 In351 2.266 . S
O357 C354 1.252 . S
O358 In351 2.326 . S
O358 C354 1.260 . S
O359 In351 2.266 . S
O359 C356 1.252 . S
O360 In351 2.326 . S
O360 C356 1.260 . S
C361 O352 1.240 . S
C361 O353 1.252 . S
O362 In351 2.294 . S
O362 C355 1.240 . S
O363 In351 2.326 . S
O363 C355 1.252 . S
In364 O365 2.294 . S
In364 O366 2.326 1_655 S
In364 O370 2.266 . S
In364 O371 2.326 . S
In364 O372 2.266 . S
In364 O373 2.326 . S
In364 O375 2.294 . S
In364 O376 2.326 . S
O365 In364 2.294 . S
O365 C374 1.240 1_655 S
O366 In364 2.326 1_455 S
O366 C374 1.252 . S
C367 O370 1.252 . S
C367 O371 1.260 . S
C368 O375 1.240 . S
C368 O376 1.252 . S
C369 O372 1.252 . S
C369 O373 1.260 . S
O370 In364 2.266 . S
O370 C367 1.252 . S
O371 In364 2.326 . S
O371 C367 1.260 . S
O372 In364 2.266 . S
O372 C369 1.252 . S
O373 In364 2.326 . S
O373 C369 1.260 . S
C374 O365 1.240 1_455 S
C374 O366 1.252 . S
O375 In364 2.294 . S
O375 C368 1.240 . S
O376 In364 2.326 . S
O376 C368 1.252 . S
In377 O378 2.294 . S
In377 O379 2.326 . S
In377 O383 2.266 . S
In377 O384 2.326 . S
In377 O385 2.266 . S
In377 O386 2.326 . S
In377 O388 2.294 . S
In377 O389 2.326 . S
O378 In377 2.294 . S
O378 C387 1.240 . S
O379 In377 2.326 . S
O379 C387 1.252 . S
C380 O383 1.252 . S
C380 O384 1.260 . S
C381 O388 1.240 . S
C381 O389 1.252 . S
C382 O385 1.252 . S
C382 O386 1.260 . S
O383 In377 2.266 . S
O383 C380 1.252 . S
O384 In377 2.326 . S
O384 C380 1.260 . S
O385 In377 2.266 . S
O385 C382 1.252 . S
O386 In377 2.326 . S
O386 C382 1.260 . S
C387 O378 1.240 . S
C387 O379 1.252 . S
O388 In377 2.294 . S
O388 C381 1.240 . S
O389 In377 2.326 . S
O389 C381 1.252 . S
In390 O391 2.294 . S
In390 O392 2.326 . S
In390 O396 2.266 . S
In390 O397 2.326 . S
In390 O398 2.266 . S
In390 O399 2.326 . S
In390 O401 2.294 . S
In390 O402 2.326 . S
O391 In390 2.294 . S
O391 C400 1.240 . S
O392 In390 2.326 . S
O392 C400 1.252 . S
C393 O396 1.252 . S
C393 O397 1.260 . S
C394 O401 1.240 . S
C394 O402 1.252 . S
C395 O398 1.252 . S
C395 O399 1.260 . S
O396 In390 2.266 . S
O396 C393 1.252 . S
O397 In390 2.326 . S
O397 C393 1.260 . S
O398 In390 2.266 . S
O398 C395 1.252 . S
O399 In390 2.326 . S
O399 C395 1.260 . S
C400 O391 1.240 . S
C400 O392 1.252 . S
O401 In390 2.294 . S
O401 C394 1.240 . S
O402 In390 2.326 . S
O402 C394 1.252 . S
In403 O404 2.294 . S
In403 O405 2.326 . S
In403 O409 2.266 . S
In403 O410 2.326 . S
In403 O411 2.266 . S
In403 O412 2.326 . S
In403 O414 2.294 . S
In403 O415 2.326 . S
O404 In403 2.294 . S
O404 C413 1.240 . S
O405 In403 2.326 . S
O405 C413 1.252 . S
C406 O409 1.252 . S
C406 O410 1.260 . S
C407 O414 1.240 . S
C407 O415 1.252 . S
C408 O411 1.252 . S
C408 O412 1.260 . S
O409 In403 2.266 . S
O409 C406 1.252 . S
O410 In403 2.326 . S
O410 C406 1.260 . S
O411 In403 2.266 . S
O411 C408 1.252 . S
O412 In403 2.326 . S
O412 C408 1.260 . S
C413 O404 1.240 . S
C413 O405 1.252 . S
O414 In403 2.294 . S
O414 C407 1.240 . S
O415 In403 2.326 . S
O415 C407 1.252 . S
In416 O417 2.294 . S
In416 O418 2.326 1_565 S
In416 O422 2.266 . S
In416 O423 2.326 . S
In416 O424 2.266 . S
In416 O425 2.326 . S
In416 O427 2.294 . S
In416 O428 2.326 . S
O417 In416 2.294 . S
O417 C426 1.240 1_565 S
O418 In416 2.326 1_545 S
O418 C426 1.252 . S
C419 O422 1.252 . S
C419 O423 1.260 . S
C420 O427 1.240 . S
C420 O428 1.252 . S
C421 O424 1.252 . S
C421 O425 1.260 . S
O422 In416 2.266 . S
O422 C419 1.252 . S
O423 In416 2.326 . S
O423 C419 1.260 . S
O424 In416 2.266 . S
O424 C421 1.252 . S
O425 In416 2.326 . S
O425 C421 1.260 . S
C426 O417 1.240 1_545 S
C426 O418 1.252 . S
O427 In416 2.294 . S
O427 C420 1.240 . S
O428 In416 2.326 . S
O428 C420 1.252 . S
In429 O430 2.294 . S
In429 O431 2.326 . S
In429 O435 2.266 . S
In429 O436 2.326 . S
In429 O437 2.266 . S
In429 O438 2.326 . S
In429 O440 2.294 . S
In429 O441 2.326 . S
O430 In429 2.294 . S
O430 C439 1.240 . S
O431 In429 2.326 . S
O431 C439 1.252 . S
C432 O435 1.252 . S
C432 O436 1.260 . S
C433 O440 1.240 . S
C433 O441 1.252 . S
C434 O437 1.252 . S
C434 O438 1.260 . S
O435 In429 2.266 . S
O435 C432 1.252 . S
O436 In429 2.326 . S
O436 C432 1.260 . S
O437 In429 2.266 . S
O437 C434 1.252 . S
O438 In429 2.326 . S
O438 C434 1.260 . S
C439 O430 1.240 . S
C439 O431 1.252 . S
O440 In429 2.294 . S
O440 C433 1.240 . S
O441 In429 2.326 . S
O441 C433 1.252 . S
In442 O443 2.294 . S
In442 O444 2.326 . S
In442 O448 2.266 . S
In442 O449 2.326 . S
In442 O450 2.266 . S
In442 O451 2.326 . S
In442 O453 2.294 . S
In442 O454 2.326 1_545 S
O443 In442 2.294 . S
O443 C452 1.240 . S
O444 In442 2.326 . S
O444 C452 1.252 . S
C445 O448 1.252 . S
C445 O449 1.260 . S
C446 O453 1.240 1_565 S
C446 O454 1.252 . S
C447 O450 1.252 . S
C447 O451 1.260 . S
O448 In442 2.266 . S
O448 C445 1.252 . S
O449 In442 2.326 . S
O449 C445 1.260 . S
O450 In442 2.266 . S
O450 C447 1.252 . S
O451 In442 2.326 . S
O451 C447 1.260 . S
C452 O443 1.240 . S
C452 O444 1.252 . S
O453 In442 2.294 . S
O453 C446 1.240 1_545 S
O454 In442 2.326 1_565 S
O454 C446 1.252 . S
In455 O456 2.294 . S
In455 O457 2.326 . S
In455 O461 2.266 . S
In455 O462 2.326 . S
In455 O463 2.266 . S
In455 O464 2.326 . S
In455 O466 2.294 . S
In455 O467 2.326 . S
O456 In455 2.294 . S
O456 C465 1.240 . S
O457 In455 2.326 . S
O457 C465 1.252 . S
C458 O461 1.252 . S
C458 O462 1.260 . S
C459 O466 1.240 . S
C459 O467 1.252 . S
C460 O463 1.252 . S
C460 O464 1.260 . S
O461 In455 2.266 . S
O461 C458 1.252 . S
O462 In455 2.326 . S
O462 C458 1.260 . S
O463 In455 2.266 . S
O463 C460 1.252 . S
O464 In455 2.326 . S
O464 C460 1.260 . S
C465 O456 1.240 . S
C465 O457 1.252 . S
O466 In455 2.294 . S
O466 C459 1.240 . S
O467 In455 2.326 . S
O467 C459 1.252 . S
In468 O469 2.294 . S
In468 O470 2.326 1_545 S
In468 O474 2.266 . S
In468 O475 2.326 . S
In468 O476 2.266 . S
In468 O477 2.326 . S
In468 O479 2.294 . S
In468 O480 2.326 . S
O469 In468 2.294 . S
O469 C478 1.240 1_545 S
O470 In468 2.326 1_565 S
O470 C478 1.252 . S
C471 O474 1.252 . S
C471 O475 1.260 . S
C472 O479 1.240 . S
C472 O480 1.252 . S
C473 O476 1.252 . S
C473 O477 1.260 . S
O474 In468 2.266 . S
O474 C471 1.252 . S
O475 In468 2.326 . S
O475 C471 1.260 . S
O476 In468 2.266 . S
O476 C473 1.252 . S
O477 In468 2.326 . S
O477 C473 1.260 . S
C478 O469 1.240 1_565 S
C478 O470 1.252 . S
O479 In468 2.294 . S
O479 C472 1.240 . S
O480 In468 2.326 . S
O480 C472 1.252 . S
In481 O482 2.294 . S
In481 O483 2.326 . S
In481 O487 2.266 . S
In481 O488 2.326 . S
In481 O489 2.266 . S
In481 O490 2.326 . S
In481 O492 2.294 . S
In481 O493 2.326 . S
O482 In481 2.294 . S
O482 C491 1.240 . S
O483 In481 2.326 . S
O483 C491 1.252 . S
C484 O487 1.252 . S
C484 O488 1.260 . S
C485 O492 1.240 . S
C485 O493 1.252 . S
C486 O489 1.252 . S
C486 O490 1.260 . S
O487 In481 2.266 . S
O487 C484 1.252 . S
O488 In481 2.326 . S
O488 C484 1.260 . S
O489 In481 2.266 . S
O489 C486 1.252 . S
O490 In481 2.326 . S
O490 C486 1.260 . S
C491 O482 1.240 . S
C491 O483 1.252 . S
O492 In481 2.294 . S
O492 C485 1.240 . S
O493 In481 2.326 . S
O493 C485 1.252 . S
In494 O495 2.294 . S
In494 O496 2.326 1_565 S
In494 O500 2.266 . S
In494 O501 2.326 . S
In494 O502 2.266 . S
In494 O503 2.326 . S
In494 O505 2.294 . S
In494 O506 2.326 . S
O495 In494 2.294 . S
O495 C504 1.240 1_565 S
O496 In494 2.326 1_545 S
O496 C504 1.252 . S
C497 O500 1.252 . S
C497 O501 1.260 . S
C498 O505 1.240 . S
C498 O506 1.252 . S
C499 O502 1.252 . S
C499 O503 1.260 . S
O500 In494 2.266 . S
O500 C497 1.252 . S
O501 In494 2.326 . S
O501 C497 1.260 . S
O502 In494 2.266 . S
O502 C499 1.252 . S
O503 In494 2.326 . S
O503 C499 1.260 . S
C504 O495 1.240 1_545 S
C504 O496 1.252 . S
O505 In494 2.294 . S
O505 C498 1.240 . S
O506 In494 2.326 . S
O506 C498 1.252 . S
In507 O508 2.294 . S
In507 O509 2.326 . S
In507 O513 2.266 . S
In507 O514 2.326 . S
In507 O515 2.266 . S
In507 O516 2.326 . S
In507 O518 2.294 . S
In507 O519 2.326 . S
O508 In507 2.294 . S
O508 C517 1.240 . S
O509 In507 2.326 . S
O509 C517 1.252 . S
C510 O513 1.252 . S
C510 O514 1.260 . S
C511 O518 1.240 . S
C511 O519 1.252 . S
C512 O515 1.252 . S
C512 O516 1.260 . S
O513 In507 2.266 . S
O513 C510 1.252 . S
O514 In507 2.326 . S
O514 C510 1.260 . S
O515 In507 2.266 . S
O515 C512 1.252 . S
O516 In507 2.326 . S
O516 C512 1.260 . S
C517 O508 1.240 . S
C517 O509 1.252 . S
O518 In507 2.294 . S
O518 C511 1.240 . S
O519 In507 2.326 . S
O519 C511 1.252 . S
In520 O521 2.294 . S
In520 O522 2.326 . S
In520 O526 2.266 . S
In520 O527 2.326 . S
In520 O528 2.266 . S
In520 O529 2.326 . S
In520 O531 2.294 . S
In520 O532 2.326 1_556 S
O521 In520 2.294 . S
O521 C530 1.240 . S
O522 In520 2.326 . S
O522 C530 1.252 . S
C523 O526 1.252 . S
C523 O527 1.260 . S
C524 O531 1.240 1_554 S
C524 O532 1.252 . S
C525 O528 1.252 . S
C525 O529 1.260 . S
O526 In520 2.266 . S
O526 C523 1.252 . S
O527 In520 2.326 . S
O527 C523 1.260 . S
O528 In520 2.266 . S
O528 C525 1.252 . S
O529 In520 2.326 . S
O529 C525 1.260 . S
C530 O521 1.240 . S
C530 O522 1.252 . S
O531 In520 2.294 . S
O531 C524 1.240 1_556 S
O532 In520 2.326 1_554 S
O532 C524 1.252 . S
In533 O534 2.294 . S
In533 O535 2.326 1_554 S
In533 O539 2.266 . S
In533 O540 2.326 . S
In533 O541 2.266 . S
In533 O542 2.326 . S
In533 O544 2.294 . S
In533 O545 2.326 . S
O534 In533 2.294 . S
O534 C543 1.240 1_554 S
O535 In533 2.326 1_556 S
O535 C543 1.252 . S
C536 O539 1.252 . S
C536 O540 1.260 . S
C537 O544 1.240 . S
C537 O545 1.252 . S
C538 O541 1.252 . S
C538 O542 1.260 . S
O539 In533 2.266 . S
O539 C536 1.252 . S
O540 In533 2.326 . S
O540 C536 1.260 . S
O541 In533 2.266 . S
O541 C538 1.252 . S
O542 In533 2.326 . S
O542 C538 1.260 . S
C543 O534 1.240 1_556 S
C543 O535 1.252 . S
O544 In533 2.294 . S
O544 C537 1.240 . S
O545 In533 2.326 . S
O545 C537 1.252 . S
In546 O547 2.294 . S
In546 O548 2.326 . S
In546 O552 2.266 . S
In546 O553 2.326 . S
In546 O554 2.266 . S
In546 O555 2.326 . S
In546 O557 2.294 . S
In546 O558 2.326 . S
O547 In546 2.294 . S
O547 C556 1.240 . S
O548 In546 2.326 . S
O548 C556 1.252 . S
C549 O552 1.252 . S
C549 O553 1.260 . S
C550 O557 1.240 . S
C550 O558 1.252 . S
C551 O554 1.252 . S
C551 O555 1.260 . S
O552 In546 2.266 . S
O552 C549 1.252 . S
O553 In546 2.326 . S
O553 C549 1.260 . S
O554 In546 2.266 . S
O554 C551 1.252 . S
O555 In546 2.326 . S
O555 C551 1.260 . S
C556 O547 1.240 . S
C556 O548 1.252 . S
O557 In546 2.294 . S
O557 C550 1.240 . S
O558 In546 2.326 . S
O558 C550 1.252 . S
In559 O560 2.294 . S
In559 O561 2.326 . S
In559 O565 2.266 . S
In559 O566 2.326 . S
In559 O567 2.266 . S
In559 O568 2.326 . S
In559 O570 2.294 . S
In559 O571 2.326 . S
O560 In559 2.294 . S
O560 C569 1.240 . S
O561 In559 2.326 . S
O561 C569 1.252 . S
C562 O565 1.252 . S
C562 O566 1.260 . S
C563 O570 1.240 . S
C563 O571 1.252 . S
C564 O567 1.252 . S
C564 O568 1.260 . S
O565 In559 2.266 . S
O565 C562 1.252 . S
O566 In559 2.326 . S
O566 C562 1.260 . S
O567 In559 2.266 . S
O567 C564 1.252 . S
O568 In559 2.326 . S
O568 C564 1.260 . S
C569 O560 1.240 . S
C569 O561 1.252 . S
O570 In559 2.294 . S
O570 C563 1.240 . S
O571 In559 2.326 . S
O571 C563 1.252 . S
In572 O573 2.294 . S
In572 O574 2.326 . S
In572 O578 2.266 . S
In572 O579 2.326 . S
In572 O580 2.266 . S
In572 O581 2.326 . S
In572 O583 2.294 . S
In572 O584 2.326 . S
O573 In572 2.294 . S
O573 C582 1.240 . S
O574 In572 2.326 . S
O574 C582 1.252 . S
C575 O578 1.252 . S
C575 O579 1.260 . S
C576 O583 1.240 . S
C576 O584 1.252 . S
C577 O580 1.252 . S
C577 O581 1.260 . S
O578 In572 2.266 . S
O578 C575 1.252 . S
O579 In572 2.326 . S
O579 C575 1.260 . S
O580 In572 2.266 . S
O580 C577 1.252 . S
O581 In572 2.326 . S
O581 C577 1.260 . S
C582 O573 1.240 . S
C582 O574 1.252 . S
O583 In572 2.294 . S
O583 C576 1.240 . S
O584 In572 2.326 . S
O584 C576 1.252 . S
In585 O586 2.294 . S
In585 O587 2.326 . S
In585 O591 2.266 . S
In585 O592 2.326 . S
In585 O593 2.266 . S
In585 O594 2.326 . S
In585 O596 2.294 . S
In585 O597 2.326 . S
O586 In585 2.294 . S
O586 C595 1.240 . S
O587 In585 2.326 . S
O587 C595 1.252 . S
C588 O591 1.252 . S
C588 O592 1.260 . S
C589 O596 1.240 . S
C589 O597 1.252 . S
C590 O593 1.252 . S
C590 O594 1.260 . S
O591 In585 2.266 . S
O591 C588 1.252 . S
O592 In585 2.326 . S
O592 C588 1.260 . S
O593 In585 2.266 . S
O593 C590 1.252 . S
O594 In585 2.326 . S
O594 C590 1.260 . S
C595 O586 1.240 . S
C595 O587 1.252 . S
O596 In585 2.294 . S
O596 C589 1.240 . S
O597 In585 2.326 . S
O597 C589 1.252 . S
In598 O599 2.294 . S
In598 O600 2.326 . S
In598 O604 2.266 . S
In598 O605 2.326 . S
In598 O606 2.266 . S
In598 O607 2.326 . S
In598 O609 2.294 . S
In598 O610 2.326 . S
O599 In598 2.294 . S
O599 C608 1.240 . S
O600 In598 2.326 . S
O600 C608 1.252 . S
C601 O604 1.252 . S
C601 O605 1.260 . S
C602 O609 1.240 . S
C602 O610 1.252 . S
C603 O606 1.252 . S
C603 O607 1.260 . S
O604 In598 2.266 . S
O604 C601 1.252 . S
O605 In598 2.326 . S
O605 C601 1.260 . S
O606 In598 2.266 . S
O606 C603 1.252 . S
O607 In598 2.326 . S
O607 C603 1.260 . S
C608 O599 1.240 . S
C608 O600 1.252 . S
O609 In598 2.294 . S
O609 C602 1.240 . S
O610 In598 2.326 . S
O610 C602 1.252 . S
In611 O612 2.294 . S
In611 O613 2.326 . S
In611 O617 2.266 . S
In611 O618 2.326 . S
In611 O619 2.266 . S
In611 O620 2.326 . S
In611 O622 2.294 . S
In611 O623 2.326 . S
O612 In611 2.294 . S
O612 C621 1.240 . S
O613 In611 2.326 . S
O613 C621 1.252 . S
C614 O617 1.252 . S
C614 O618 1.260 . S
C615 O622 1.240 . S
C615 O623 1.252 . S
C616 O619 1.252 . S
C616 O620 1.260 . S
O617 In611 2.266 . S
O617 C614 1.252 . S
O618 In611 2.326 . S
O618 C614 1.260 . S
O619 In611 2.266 . S
O619 C616 1.252 . S
O620 In611 2.326 . S
O620 C616 1.260 . S
C621 O612 1.240 . S
C621 O613 1.252 . S
O622 In611 2.294 . S
O622 C615 1.240 . S
O623 In611 2.326 . S
O623 C615 1.252 . S
In624 O625 2.294 . S
In624 O626 2.326 . S
In624 O630 2.266 . S
In624 O631 2.326 . S
In624 O632 2.266 . S
In624 O633 2.326 . S
In624 O635 2.294 . S
In624 O636 2.326 . S
O625 In624 2.294 . S
O625 C634 1.240 . S
O626 In624 2.326 . S
O626 C634 1.252 . S
C627 O630 1.252 . S
C627 O631 1.260 . S
C628 O635 1.240 . S
C628 O636 1.252 . S
C629 O632 1.252 . S
C629 O633 1.260 . S
O630 In624 2.266 . S
O630 C627 1.252 . S
O631 In624 2.326 . S
O631 C627 1.260 . S
O632 In624 2.266 . S
O632 C629 1.252 . S
O633 In624 2.326 . S
O633 C629 1.260 . S
C634 O625 1.240 . S
C634 O626 1.252 . S
O635 In624 2.294 . S
O635 C628 1.240 . S
O636 In624 2.326 . S
O636 C628 1.252 . S
In637 O638 2.294 . S
In637 O639 2.326 . S
In637 O643 2.266 . S
In637 O644 2.326 . S
In637 O645 2.266 . S
In637 O646 2.326 . S
In637 O648 2.294 . S
In637 O649 2.326 . S
O638 In637 2.294 . S
O638 C647 1.240 . S
O639 In637 2.326 . S
O639 C647 1.252 . S
C640 O643 1.252 . S
C640 O644 1.260 . S
C641 O648 1.240 . S
C641 O649 1.252 . S
C642 O645 1.252 . S
C642 O646 1.260 . S
O643 In637 2.266 . S
O643 C640 1.252 . S
O644 In637 2.326 . S
O644 C640 1.260 . S
O645 In637 2.266 . S
O645 C642 1.252 . S
O646 In637 2.326 . S
O646 C642 1.260 . S
C647 O638 1.240 . S
C647 O639 1.252 . S
O648 In637 2.294 . S
O648 C641 1.240 . S
O649 In637 2.326 . S
O649 C641 1.252 . S
In650 O651 2.294 . S
In650 O652 2.326 1_655 S
In650 O656 2.266 . S
In650 O657 2.326 . S
In650 O658 2.266 . S
In650 O659 2.326 . S
In650 O661 2.294 . S
In650 O662 2.326 . S
O651 In650 2.294 . S
O651 C660 1.240 1_655 S
O652 In650 2.326 1_455 S
O652 C660 1.252 . S
C653 O656 1.252 . S
C653 O657 1.260 . S
C654 O661 1.240 . S
C654 O662 1.252 . S
C655 O658 1.252 . S
C655 O659 1.260 . S
O656 In650 2.266 . S
O656 C653 1.252 . S
O657 In650 2.326 . S
O657 C653 1.260 . S
O658 In650 2.266 . S
O658 C655 1.252 . S
O659 In650 2.326 . S
O659 C655 1.260 . S
C660 O651 1.240 1_455 S
C660 O652 1.252 . S
O661 In650 2.294 . S
O661 C654 1.240 . S
O662 In650 2.326 . S
O662 C654 1.252 . S
In663 O664 2.294 . S
In663 O665 2.326 . S
In663 O669 2.266 . S
In663 O670 2.326 . S
In663 O671 2.266 . S
In663 O672 2.326 . S
In663 O674 2.294 . S
In663 O675 2.326 . S
O664 In663 2.294 . S
O664 C673 1.240 . S
O665 In663 2.326 . S
O665 C673 1.252 . S
C666 O669 1.252 . S
C666 O670 1.260 . S
C667 O674 1.240 . S
C667 O675 1.252 . S
C668 O671 1.252 . S
C668 O672 1.260 . S
O669 In663 2.266 . S
O669 C666 1.252 . S
O670 In663 2.326 . S
O670 C666 1.260 . S
O671 In663 2.266 . S
O671 C668 1.252 . S
O672 In663 2.326 . S
O672 C668 1.260 . S
C673 O664 1.240 . S
C673 O665 1.252 . S
O674 In663 2.294 . S
O674 C667 1.240 . S
O675 In663 2.326 . S
O675 C667 1.252 . S
In676 O677 2.294 . S
In676 O678 2.326 . S
In676 O682 2.266 . S
In676 O683 2.326 . S
In676 O684 2.266 . S
In676 O685 2.326 . S
In676 O687 2.294 . S
In676 O688 2.326 . S
O677 In676 2.294 . S
O677 C686 1.240 . S
O678 In676 2.326 . S
O678 C686 1.252 . S
C679 O682 1.252 . S
C679 O683 1.260 . S
C680 O687 1.240 . S
C680 O688 1.252 . S
C681 O684 1.252 . S
C681 O685 1.260 . S
O682 In676 2.266 . S
O682 C679 1.252 . S
O683 In676 2.326 . S
O683 C679 1.260 . S
O684 In676 2.266 . S
O684 C681 1.252 . S
O685 In676 2.326 . S
O685 C681 1.260 . S
C686 O677 1.240 . S
C686 O678 1.252 . S
O687 In676 2.294 . S
O687 C680 1.240 . S
O688 In676 2.326 . S
O688 C680 1.252 . S
In689 O690 2.294 . S
In689 O691 2.326 . S
In689 O695 2.266 . S
In689 O696 2.326 . S
In689 O697 2.266 . S
In689 O698 2.326 . S
In689 O700 2.294 . S
In689 O701 2.326 . S
O690 In689 2.294 . S
O690 C699 1.240 . S
O691 In689 2.326 . S
O691 C699 1.252 . S
C692 O695 1.252 . S
C692 O696 1.260 . S
C693 O700 1.240 . S
C693 O701 1.252 . S
C694 O697 1.252 . S
C694 O698 1.260 . S
O695 In689 2.266 . S
O695 C692 1.252 . S
O696 In689 2.326 . S
O696 C692 1.260 . S
O697 In689 2.266 . S
O697 C694 1.252 . S
O698 In689 2.326 . S
O698 C694 1.260 . S
C699 O690 1.240 . S
C699 O691 1.252 . S
O700 In689 2.294 . S
O700 C693 1.240 . S
O701 In689 2.326 . S
O701 C693 1.252 . S
In702 O703 2.294 . S
In702 O704 2.326 . S
In702 O708 2.266 . S
In702 O709 2.326 . S
In702 O710 2.266 . S
In702 O711 2.326 . S
In702 O713 2.294 . S
In702 O714 2.326 1_655 S
O703 In702 2.294 . S
O703 C712 1.240 . S
O704 In702 2.326 . S
O704 C712 1.252 . S
C705 O708 1.252 . S
C705 O709 1.260 . S
C706 O713 1.240 1_455 S
C706 O714 1.252 . S
C707 O710 1.252 . S
C707 O711 1.260 . S
O708 In702 2.266 . S
O708 C705 1.252 . S
O709 In702 2.326 . S
O709 C705 1.260 . S
O710 In702 2.266 . S
O710 C707 1.252 . S
O711 In702 2.326 . S
O711 C707 1.260 . S
C712 O703 1.240 . S
C712 O704 1.252 . S
O713 In702 2.294 . S
O713 C706 1.240 1_655 S
O714 In702 2.326 1_455 S
O714 C706 1.252 . S
In715 O716 2.294 . S
In715 O717 2.326 . S
In715 O721 2.266 . S
In715 O722 2.326 . S
In715 O723 2.266 . S
In715 O724 2.326 . S
In715 O726 2.294 . S
In715 O727 2.326 . S
O716 In715 2.294 . S
O716 C725 1.240 . S
O717 In715 2.326 . S
O717 C725 1.252 . S
C718 O721 1.252 . S
C718 O722 1.260 . S
C719 O726 1.240 . S
C719 O727 1.252 . S
C720 O723 1.252 . S
C720 O724 1.260 . S
O721 In715 2.266 . S
O721 C718 1.252 . S
O722 In715 2.326 . S
O722 C718 1.260 . S
O723 In715 2.266 . S
O723 C720 1.252 . S
O724 In715 2.326 . S
O724 C720 1.260 . S
C725 O716 1.240 . S
C725 O717 1.252 . S
O726 In715 2.294 . S
O726 C719 1.240 . S
O727 In715 2.326 . S
O727 C719 1.252 . S
In728 O729 2.294 . S
In728 O730 2.326 . S
In728 O734 2.266 . S
In728 O735 2.326 . S
In728 O736 2.266 . S
In728 O737 2.326 . S
In728 O739 2.294 . S
In728 O740 2.326 . S
O729 In728 2.294 . S
O729 C738 1.240 . S
O730 In728 2.326 . S
O730 C738 1.252 . S
C731 O734 1.252 . S
C731 O735 1.260 . S
C732 O739 1.240 . S
C732 O740 1.252 . S
C733 O736 1.252 . S
C733 O737 1.260 . S
O734 In728 2.266 . S
O734 C731 1.252 . S
O735 In728 2.326 . S
O735 C731 1.260 . S
O736 In728 2.266 . S
O736 C733 1.252 . S
O737 In728 2.326 . S
O737 C733 1.260 . S
C738 O729 1.240 . S
C738 O730 1.252 . S
O739 In728 2.294 . S
O739 C732 1.240 . S
O740 In728 2.326 . S
O740 C732 1.252 . S
In741 O742 2.294 . S
In741 O743 2.326 . S
In741 O747 2.266 . S
In741 O748 2.326 . S
In741 O749 2.266 . S
In741 O750 2.326 . S
In741 O752 2.294 . S
In741 O753 2.326 . S
O742 In741 2.294 . S
O742 C751 1.240 . S
O743 In741 2.326 . S
O743 C751 1.252 . S
C744 O747 1.252 . S
C744 O748 1.260 . S
C745 O752 1.240 . S
C745 O753 1.252 . S
C746 O749 1.252 . S
C746 O750 1.260 . S
O747 In741 2.266 . S
O747 C744 1.252 . S
O748 In741 2.326 . S
O748 C744 1.260 . S
O749 In741 2.266 . S
O749 C746 1.252 . S
O750 In741 2.326 . S
O750 C746 1.260 . S
C751 O742 1.240 . S
C751 O743 1.252 . S
O752 In741 2.294 . S
O752 C745 1.240 . S
O753 In741 2.326 . S
O753 C745 1.252 . S
In754 O755 2.294 . S
In754 O756 2.326 . S
In754 O760 2.266 . S
In754 O761 2.326 . S
In754 O762 2.266 . S
In754 O763 2.326 . S
In754 O765 2.294 . S
In754 O766 2.326 . S
O755 In754 2.294 . S
O755 C764 1.240 . S
O756 In754 2.326 . S
O756 C764 1.252 . S
C757 O760 1.252 . S
C757 O761 1.260 . S
C758 O765 1.240 . S
C758 O766 1.252 . S
C759 O762 1.252 . S
C759 O763 1.260 . S
O760 In754 2.266 . S
O760 C757 1.252 . S
O761 In754 2.326 . S
O761 C757 1.260 . S
O762 In754 2.266 . S
O762 C759 1.252 . S
O763 In754 2.326 . S
O763 C759 1.260 . S
C764 O755 1.240 . S
C764 O756 1.252 . S
O765 In754 2.294 . S
O765 C758 1.240 . S
O766 In754 2.326 . S
O766 C758 1.252 . S
In767 O768 2.294 . S
In767 O769 2.326 . S
In767 O773 2.266 . S
In767 O774 2.326 . S
In767 O775 2.266 . S
In767 O776 2.326 . S
In767 O778 2.294 . S
In767 O779 2.326 . S
O768 In767 2.294 . S
O768 C777 1.240 . S
O769 In767 2.326 . S
O769 C777 1.252 . S
C770 O773 1.252 . S
C770 O774 1.260 . S
C771 O778 1.240 . S
C771 O779 1.252 . S
C772 O775 1.252 . S
C772 O776 1.260 . S
O773 In767 2.266 . S
O773 C770 1.252 . S
O774 In767 2.326 . S
O774 C770 1.260 . S
O775 In767 2.266 . S
O775 C772 1.252 . S
O776 In767 2.326 . S
O776 C772 1.260 . S
C777 O768 1.240 . S
C777 O769 1.252 . S
O778 In767 2.294 . S
O778 C771 1.240 . S
O779 In767 2.326 . S
O779 C771 1.252 . S
In780 O781 2.294 . S
In780 O782 2.326 . S
In780 O786 2.266 . S
In780 O787 2.326 . S
In780 O788 2.266 . S
In780 O789 2.326 . S
In780 O791 2.294 . S
In780 O792 2.326 . S
O781 In780 2.294 . S
O781 C790 1.240 . S
O782 In780 2.326 . S
O782 C790 1.252 . S
C783 O786 1.252 . S
C783 O787 1.260 . S
C784 O791 1.240 . S
C784 O792 1.252 . S
C785 O788 1.252 . S
C785 O789 1.260 . S
O786 In780 2.266 . S
O786 C783 1.252 . S
O787 In780 2.326 . S
O787 C783 1.260 . S
O788 In780 2.266 . S
O788 C785 1.252 . S
O789 In780 2.326 . S
O789 C785 1.260 . S
C790 O781 1.240 . S
C790 O782 1.252 . S
O791 In780 2.294 . S
O791 C784 1.240 . S
O792 In780 2.326 . S
O792 C784 1.252 . S
In793 O794 2.294 . S
In793 O795 2.326 . S
In793 O799 2.266 . S
In793 O800 2.326 . S
In793 O801 2.266 . S
In793 O802 2.326 . S
In793 O804 2.294 . S
In793 O805 2.326 . S
O794 In793 2.294 . S
O794 C803 1.240 . S
O795 In793 2.326 . S
O795 C803 1.252 . S
C796 O799 1.252 . S
C796 O800 1.260 . S
C797 O804 1.240 . S
C797 O805 1.252 . S
C798 O801 1.252 . S
C798 O802 1.260 . S
O799 In793 2.266 . S
O799 C796 1.252 . S
O800 In793 2.326 . S
O800 C796 1.260 . S
O801 In793 2.266 . S
O801 C798 1.252 . S
O802 In793 2.326 . S
O802 C798 1.260 . S
C803 O794 1.240 . S
C803 O795 1.252 . S
O804 In793 2.294 . S
O804 C797 1.240 . S
O805 In793 2.326 . S
O805 C797 1.252 . S
In806 O807 2.294 . S
In806 O808 2.326 . S
In806 O812 2.266 . S
In806 O813 2.326 . S
In806 O814 2.266 . S
In806 O815 2.326 . S
In806 O817 2.294 . S
In806 O818 2.326 . S
O807 In806 2.294 . S
O807 C816 1.240 . S
O808 In806 2.326 . S
O808 C816 1.252 . S
C809 O812 1.252 . S
C809 O813 1.260 . S
C810 O817 1.240 . S
C810 O818 1.252 . S
C811 O814 1.252 . S
C811 O815 1.260 . S
O812 In806 2.266 . S
O812 C809 1.252 . S
O813 In806 2.326 . S
O813 C809 1.260 . S
O814 In806 2.266 . S
O814 C811 1.252 . S
O815 In806 2.326 . S
O815 C811 1.260 . S
C816 O807 1.240 . S
C816 O808 1.252 . S
O817 In806 2.294 . S
O817 C810 1.240 . S
O818 In806 2.326 . S
O818 C810 1.252 . S
In819 O820 2.294 . S
In819 O821 2.326 . S
In819 O825 2.266 . S
In819 O826 2.326 . S
In819 O827 2.266 . S
In819 O828 2.326 . S
In819 O830 2.294 . S
In819 O831 2.326 . S
O820 In819 2.294 . S
O820 C829 1.240 . S
O821 In819 2.326 . S
O821 C829 1.252 . S
C822 O825 1.252 . S
C822 O826 1.260 . S
C823 O830 1.240 . S
C823 O831 1.252 . S
C824 O827 1.252 . S
C824 O828 1.260 . S
O825 In819 2.266 . S
O825 C822 1.252 . S
O826 In819 2.326 . S
O826 C822 1.260 . S
O827 In819 2.266 . S
O827 C824 1.252 . S
O828 In819 2.326 . S
O828 C824 1.260 . S
C829 O820 1.240 . S
C829 O821 1.252 . S
O830 In819 2.294 . S
O830 C823 1.240 . S
O831 In819 2.326 . S
O831 C823 1.252 . S
In832 O833 2.294 . S
In832 O834 2.326 . S
In832 O838 2.266 . S
In832 O839 2.326 . S
In832 O840 2.266 . S
In832 O841 2.326 . S
In832 O843 2.294 . S
In832 O844 2.326 . S
O833 In832 2.294 . S
O833 C842 1.240 . S
O834 In832 2.326 . S
O834 C842 1.252 . S
C835 O838 1.252 . S
C835 O839 1.260 . S
C836 O843 1.240 . S
C836 O844 1.252 . S
C837 O840 1.252 . S
C837 O841 1.260 . S
O838 In832 2.266 . S
O838 C835 1.252 . S
O839 In832 2.326 . S
O839 C835 1.260 . S
O840 In832 2.266 . S
O840 C837 1.252 . S
O841 In832 2.326 . S
O841 C837 1.260 . S
C842 O833 1.240 . S
C842 O834 1.252 . S
O843 In832 2.294 . S
O843 C836 1.240 . S
O844 In832 2.326 . S
O844 C836 1.252 . S
In845 O846 2.294 . S
In845 O847 2.326 . S
In845 O851 2.266 . S
In845 O852 2.326 . S
In845 O853 2.266 . S
In845 O854 2.326 . S
In845 O856 2.294 . S
In845 O857 2.326 . S
O846 In845 2.294 . S
O846 C855 1.240 . S
O847 In845 2.326 . S
O847 C855 1.252 . S
C848 O851 1.252 . S
C848 O852 1.260 . S
C849 O856 1.240 . S
C849 O857 1.252 . S
C850 O853 1.252 . S
C850 O854 1.260 . S
O851 In845 2.266 . S
O851 C848 1.252 . S
O852 In845 2.326 . S
O852 C848 1.260 . S
O853 In845 2.266 . S
O853 C850 1.252 . S
O854 In845 2.326 . S
O854 C850 1.260 . S
C855 O846 1.240 . S
C855 O847 1.252 . S
O856 In845 2.294 . S
O856 C849 1.240 . S
O857 In845 2.326 . S
O857 C849 1.252 . S
In858 O859 2.294 . S
In858 O860 2.326 . S
In858 O864 2.266 . S
In858 O865 2.326 . S
In858 O866 2.266 . S
In858 O867 2.326 . S
In858 O869 2.294 . S
In858 O870 2.326 . S
O859 In858 2.294 . S
O859 C868 1.240 . S
O860 In858 2.326 . S
O860 C868 1.252 . S
C861 O864 1.252 . S
C861 O865 1.260 . S
C862 O869 1.240 . S
C862 O870 1.252 . S
C863 O866 1.252 . S
C863 O867 1.260 . S
O864 In858 2.266 . S
O864 C861 1.252 . S
O865 In858 2.326 . S
O865 C861 1.260 . S
O866 In858 2.266 . S
O866 C863 1.252 . S
O867 In858 2.326 . S
O867 C863 1.260 . S
C868 O859 1.240 . S
C868 O860 1.252 . S
O869 In858 2.294 . S
O869 C862 1.240 . S
O870 In858 2.326 . S
O870 C862 1.252 . S
In871 O872 2.294 . S
In871 O873 2.326 1_556 S
In871 O877 2.266 . S
In871 O878 2.326 . S
In871 O879 2.266 . S
In871 O880 2.326 . S
In871 O882 2.294 . S
In871 O883 2.326 . S
O872 In871 2.294 . S
O872 C881 1.240 1_556 S
O873 In871 2.326 1_554 S
O873 C881 1.252 . S
C874 O877 1.252 . S
C874 O878 1.260 . S
C875 O882 1.240 . S
C875 O883 1.252 . S
C876 O879 1.252 . S
C876 O880 1.260 . S
O877 In871 2.266 . S
O877 C874 1.252 . S
O878 In871 2.326 . S
O878 C874 1.260 . S
O879 In871 2.266 . S
O879 C876 1.252 . S
O880 In871 2.326 . S
O880 C876 1.260 . S
C881 O872 1.240 1_554 S
C881 O873 1.252 . S
O882 In871 2.294 . S
O882 C875 1.240 . S
O883 In871 2.326 . S
O883 C875 1.252 . S
In884 O885 2.294 . S
In884 O886 2.326 . S
In884 O890 2.266 . S
In884 O891 2.326 . S
In884 O892 2.266 . S
In884 O893 2.326 . S
In884 O895 2.294 . S
In884 O896 2.326 . S
O885 In884 2.294 . S
O885 C894 1.240 . S
O886 In884 2.326 . S
O886 C894 1.252 . S
C887 O890 1.252 . S
C887 O891 1.260 . S
C888 O895 1.240 . S
C888 O896 1.252 . S
C889 O892 1.252 . S
C889 O893 1.260 . S
O890 In884 2.266 . S
O890 C887 1.252 . S
O891 In884 2.326 . S
O891 C887 1.260 . S
O892 In884 2.266 . S
O892 C889 1.252 . S
O893 In884 2.326 . S
O893 C889 1.260 . S
C894 O885 1.240 . S
C894 O886 1.252 . S
O895 In884 2.294 . S
O895 C888 1.240 . S
O896 In884 2.326 . S
O896 C888 1.252 . S
In897 O898 2.294 . S
In897 O899 2.326 1_554 S
In897 O903 2.266 . S
In897 O904 2.326 . S
In897 O905 2.266 . S
In897 O906 2.326 . S
In897 O908 2.294 . S
In897 O909 2.326 . S
O898 In897 2.294 . S
O898 C907 1.240 1_554 S
O899 In897 2.326 1_556 S
O899 C907 1.252 . S
C900 O903 1.252 . S
C900 O904 1.260 . S
C901 O908 1.240 . S
C901 O909 1.252 . S
C902 O905 1.252 . S
C902 O906 1.260 . S
O903 In897 2.266 . S
O903 C900 1.252 . S
O904 In897 2.326 . S
O904 C900 1.260 . S
O905 In897 2.266 . S
O905 C902 1.252 . S
O906 In897 2.326 . S
O906 C902 1.260 . S
C907 O898 1.240 1_556 S
C907 O899 1.252 . S
O908 In897 2.294 . S
O908 C901 1.240 . S
O909 In897 2.326 . S
O909 C901 1.252 . S
In910 O911 2.294 . S
In910 O912 2.326 . S
In910 O916 2.266 . S
In910 O917 2.326 . S
In910 O918 2.266 . S
In910 O919 2.326 . S
In910 O921 2.294 . S
In910 O922 2.326 . S
O911 In910 2.294 . S
O911 C920 1.240 . S
O912 In910 2.326 . S
O912 C920 1.252 . S
C913 O916 1.252 . S
C913 O917 1.260 . S
C914 O921 1.240 . S
C914 O922 1.252 . S
C915 O918 1.252 . S
C915 O919 1.260 . S
O916 In910 2.266 . S
O916 C913 1.252 . S
O917 In910 2.326 . S
O917 C913 1.260 . S
O918 In910 2.266 . S
O918 C915 1.252 . S
O919 In910 2.326 . S
O919 C915 1.260 . S
C920 O911 1.240 . S
C920 O912 1.252 . S
O921 In910 2.294 . S
O921 C914 1.240 . S
O922 In910 2.326 . S
O922 C914 1.252 . S
In923 O924 2.294 . S
In923 O925 2.326 . S
In923 O929 2.266 . S
In923 O930 2.326 . S
In923 O931 2.266 . S
In923 O932 2.326 . S
In923 O934 2.294 . S
In923 O935 2.326 . S
O924 In923 2.294 . S
O924 C933 1.240 . S
O925 In923 2.326 . S
O925 C933 1.252 . S
C926 O929 1.252 . S
C926 O930 1.260 . S
C927 O934 1.240 . S
C927 O935 1.252 . S
C928 O931 1.252 . S
C928 O932 1.260 . S
O929 In923 2.266 . S
O929 C926 1.252 . S
O930 In923 2.326 . S
O930 C926 1.260 . S
O931 In923 2.266 . S
O931 C928 1.252 . S
O932 In923 2.326 . S
O932 C928 1.260 . S
C933 O924 1.240 . S
C933 O925 1.252 . S
O934 In923 2.294 . S
O934 C927 1.240 . S
O935 In923 2.326 . S
O935 C927 1.252 . S
In936 O937 2.294 . S
In936 O938 2.326 . S
In936 O942 2.266 . S
In936 O943 2.326 . S
In936 O944 2.266 . S
In936 O945 2.326 . S
In936 O947 2.294 . S
In936 O948 2.326 . S
O937 In936 2.294 . S
O937 C946 1.240 . S
O938 In936 2.326 . S
O938 C946 1.252 . S
C939 O942 1.252 . S
C939 O943 1.260 . S
C940 O947 1.240 . S
C940 O948 1.252 . S
C941 O944 1.252 . S
C941 O945 1.260 . S
O942 In936 2.266 . S
O942 C939 1.252 . S
O943 In936 2.326 . S
O943 C939 1.260 . S
O944 In936 2.266 . S
O944 C941 1.252 . S
O945 In936 2.326 . S
O945 C941 1.260 . S
C946 O937 1.240 . S
C946 O938 1.252 . S
O947 In936 2.294 . S
O947 C940 1.240 . S
O948 In936 2.326 . S
O948 C940 1.252 . S
In949 O950 2.294 . S
In949 O951 2.326 . S
In949 O955 2.266 . S
In949 O956 2.326 . S
In949 O957 2.266 . S
In949 O958 2.326 . S
In949 O960 2.294 . S
In949 O961 2.326 . S
O950 In949 2.294 . S
O950 C959 1.240 . S
O951 In949 2.326 . S
O951 C959 1.252 . S
C952 O955 1.252 . S
C952 O956 1.260 . S
C953 O960 1.240 . S
C953 O961 1.252 . S
C954 O957 1.252 . S
C954 O958 1.260 . S
O955 In949 2.266 . S
O955 C952 1.252 . S
O956 In949 2.326 . S
O956 C952 1.260 . S
O957 In949 2.266 . S
O957 C954 1.252 . S
O958 In949 2.326 . S
O958 C954 1.260 . S
C959 O950 1.240 . S
C959 O951 1.252 . S
O960 In949 2.294 . S
O960 C953 1.240 . S
O961 In949 2.326 . S
O961 C953 1.252 . S
In962 O963 2.294 . S
In962 O964 2.326 . S
In962 O968 2.266 . S
In962 O969 2.326 . S
In962 O970 2.266 . S
In962 O971 2.326 . S
In962 O973 2.294 . S
In962 O974 2.326 1_455 S
O963 In962 2.294 . S
O963 C972 1.240 . S
O964 In962 2.326 . S
O964 C972 1.252 . S
C965 O968 1.252 . S
C965 O969 1.260 . S
C966 O973 1.240 1_655 S
C966 O974 1.252 . S
C967 O970 1.252 . S
C967 O971 1.260 . S
O968 In962 2.266 . S
O968 C965 1.252 . S
O969 In962 2.326 . S
O969 C965 1.260 . S
O970 In962 2.266 . S
O970 C967 1.252 . S
O971 In962 2.326 . S
O971 C967 1.260 . S
C972 O963 1.240 . S
C972 O964 1.252 . S
O973 In962 2.294 . S
O973 C966 1.240 1_455 S
O974 In962 2.326 1_655 S
O974 C966 1.252 . S
In975 O976 2.294 . S
In975 O977 2.326 . S
In975 O981 2.266 . S
In975 O982 2.326 . S
In975 O983 2.266 . S
In975 O984 2.326 . S
In975 O986 2.294 . S
In975 O987 2.326 . S
O976 In975 2.294 . S
O976 C985 1.240 . S
O977 In975 2.326 . S
O977 C985 1.252 . S
C978 O981 1.252 . S
C978 O982 1.260 . S
C979 O986 1.240 . S
C979 O987 1.252 . S
C980 O983 1.252 . S
C980 O984 1.260 . S
O981 In975 2.266 . S
O981 C978 1.252 . S
O982 In975 2.326 . S
O982 C978 1.260 . S
O983 In975 2.266 . S
O983 C980 1.252 . S
O984 In975 2.326 . S
O984 C980 1.260 . S
C985 O976 1.240 . S
C985 O977 1.252 . S
O986 In975 2.294 . S
O986 C979 1.240 . S
O987 In975 2.326 . S
O987 C979 1.252 . S
In988 O989 2.294 . S
In988 O990 2.326 . S
In988 O994 2.266 . S
In988 O995 2.326 . S
In988 O996 2.266 . S
In988 O997 2.326 . S
In988 O999 2.294 . S
In988 O1000 2.326 . S
O989 In988 2.294 . S
O989 C998 1.240 . S
O990 In988 2.326 . S
O990 C998 1.252 . S
C991 O994 1.252 . S
C991 O995 1.260 . S
C992 O999 1.240 . S
C992 O1000 1.252 . S
C993 O996 1.252 . S
C993 O997 1.260 . S
O994 In988 2.266 . S
O994 C991 1.252 . S
O995 In988 2.326 . S
O995 C991 1.260 . S
O996 In988 2.266 . S
O996 C993 1.252 . S
O997 In988 2.326 . S
O997 C993 1.260 . S
C998 O989 1.240 . S
C998 O990 1.252 . S
O999 In988 2.294 . S
O999 C992 1.240 . S
O1000 In988 2.326 . S
O1000 C992 1.252 . S
In1001 O1002 2.294 . S
In1001 O1003 2.326 . S
In1001 O1007 2.266 . S
In1001 O1008 2.326 . S
In1001 O1009 2.266 . S
In1001 O1010 2.326 . S
In1001 O1012 2.294 . S
In1001 O1013 2.326 . S
O1002 In1001 2.294 . S
O1002 C1011 1.240 . S
O1003 In1001 2.326 . S
O1003 C1011 1.252 . S
C1004 O1007 1.252 . S
C1004 O1008 1.260 . S
C1005 O1012 1.240 . S
C1005 O1013 1.252 . S
C1006 O1009 1.252 . S
C1006 O1010 1.260 . S
O1007 In1001 2.266 . S
O1007 C1004 1.252 . S
O1008 In1001 2.326 . S
O1008 C1004 1.260 . S
O1009 In1001 2.266 . S
O1009 C1006 1.252 . S
O1010 In1001 2.326 . S
O1010 C1006 1.260 . S
C1011 O1002 1.240 . S
C1011 O1003 1.252 . S
O1012 In1001 2.294 . S
O1012 C1005 1.240 . S
O1013 In1001 2.326 . S
O1013 C1005 1.252 . S
In1014 O1015 2.294 . S
In1014 O1016 2.326 . S
In1014 O1020 2.266 . S
In1014 O1021 2.326 . S
In1014 O1022 2.266 . S
In1014 O1023 2.326 . S
In1014 O1025 2.294 . S
In1014 O1026 2.326 1_455 S
O1015 In1014 2.294 . S
O1015 C1024 1.240 . S
O1016 In1014 2.326 . S
O1016 C1024 1.252 . S
C1017 O1020 1.252 . S
C1017 O1021 1.260 . S
C1018 O1025 1.240 1_655 S
C1018 O1026 1.252 . S
C1019 O1022 1.252 . S
C1019 O1023 1.260 . S
O1020 In1014 2.266 . S
O1020 C1017 1.252 . S
O1021 In1014 2.326 . S
O1021 C1017 1.260 . S
O1022 In1014 2.266 . S
O1022 C1019 1.252 . S
O1023 In1014 2.326 . S
O1023 C1019 1.260 . S
C1024 O1015 1.240 . S
C1024 O1016 1.252 . S
O1025 In1014 2.294 . S
O1025 C1018 1.240 1_455 S
O1026 In1014 2.326 1_655 S
O1026 C1018 1.252 . S
In1027 O1028 2.294 . S
In1027 O1029 2.326 . S
In1027 O1033 2.266 . S
In1027 O1034 2.326 . S
In1027 O1035 2.266 . S
In1027 O1036 2.326 . S
In1027 O1038 2.294 . S
In1027 O1039 2.326 . S
O1028 In1027 2.294 . S
O1028 C1037 1.240 . S
O1029 In1027 2.326 . S
O1029 C1037 1.252 . S
C1030 O1033 1.252 . S
C1030 O1034 1.260 . S
C1031 O1038 1.240 . S
C1031 O1039 1.252 . S
C1032 O1035 1.252 . S
C1032 O1036 1.260 . S
O1033 In1027 2.266 . S
O1033 C1030 1.252 . S
O1034 In1027 2.326 . S
O1034 C1030 1.260 . S
O1035 In1027 2.266 . S
O1035 C1032 1.252 . S
O1036 In1027 2.326 . S
O1036 C1032 1.260 . S
C1037 O1028 1.240 . S
C1037 O1029 1.252 . S
O1038 In1027 2.294 . S
O1038 C1031 1.240 . S
O1039 In1027 2.326 . S
O1039 C1031 1.252 . S
In1040 O1041 2.294 . S
In1040 O1042 2.326 . S
In1040 O1046 2.266 . S
In1040 O1047 2.326 . S
In1040 O1048 2.266 . S
In1040 O1049 2.326 . S
In1040 O1051 2.294 . S
In1040 O1052 2.326 . S
O1041 In1040 2.294 . S
O1041 C1050 1.240 . S
O1042 In1040 2.326 . S
O1042 C1050 1.252 . S
C1043 O1046 1.252 . S
C1043 O1047 1.260 . S
C1044 O1051 1.240 . S
C1044 O1052 1.252 . S
C1045 O1048 1.252 . S
C1045 O1049 1.260 . S
O1046 In1040 2.266 . S
O1046 C1043 1.252 . S
O1047 In1040 2.326 . S
O1047 C1043 1.260 . S
O1048 In1040 2.266 . S
O1048 C1045 1.252 . S
O1049 In1040 2.326 . S
O1049 C1045 1.260 . S
C1050 O1041 1.240 . S
C1050 O1042 1.252 . S
O1051 In1040 2.294 . S
O1051 C1044 1.240 . S
O1052 In1040 2.326 . S
O1052 C1044 1.252 . S
In1053 O1054 2.294 . S
In1053 O1055 2.326 . S
In1053 O1059 2.266 . S
In1053 O1060 2.326 . S
In1053 O1061 2.266 . S
In1053 O1062 2.326 . S
In1053 O1064 2.294 . S
In1053 O1065 2.326 . S
O1054 In1053 2.294 . S
O1054 C1063 1.240 . S
O1055 In1053 2.326 . S
O1055 C1063 1.252 . S
C1056 O1059 1.252 . S
C1056 O1060 1.260 . S
C1057 O1064 1.240 . S
C1057 O1065 1.252 . S
C1058 O1061 1.252 . S
C1058 O1062 1.260 . S
O1059 In1053 2.266 . S
O1059 C1056 1.252 . S
O1060 In1053 2.326 . S
O1060 C1056 1.260 . S
O1061 In1053 2.266 . S
O1061 C1058 1.252 . S
O1062 In1053 2.326 . S
O1062 C1058 1.260 . S
C1063 O1054 1.240 . S
C1063 O1055 1.252 . S
O1064 In1053 2.294 . S
O1064 C1057 1.240 . S
O1065 In1053 2.326 . S
O1065 C1057 1.252 . S
In1066 O1067 2.294 . S
In1066 O1068 2.326 . S
In1066 O1072 2.266 . S
In1066 O1073 2.326 . S
In1066 O1074 2.266 . S
In1066 O1075 2.326 . S
In1066 O1077 2.294 . S
In1066 O1078 2.326 . S
O1067 In1066 2.294 . S
O1067 C1076 1.240 . S
O1068 In1066 2.326 . S
O1068 C1076 1.252 . S
C1069 O1072 1.252 . S
C1069 O1073 1.260 . S
C1070 O1077 1.240 . S
C1070 O1078 1.252 . S
C1071 O1074 1.252 . S
C1071 O1075 1.260 . S
O1072 In1066 2.266 . S
O1072 C1069 1.252 . S
O1073 In1066 2.326 . S
O1073 C1069 1.260 . S
O1074 In1066 2.266 . S
O1074 C1071 1.252 . S
O1075 In1066 2.326 . S
O1075 C1071 1.260 . S
C1076 O1067 1.240 . S
C1076 O1068 1.252 . S
O1077 In1066 2.294 . S
O1077 C1070 1.240 . S
O1078 In1066 2.326 . S
O1078 C1070 1.252 . S
In1079 O1080 2.294 . S
In1079 O1081 2.326 . S
In1079 O1085 2.266 . S
In1079 O1086 2.326 . S
In1079 O1087 2.266 . S
In1079 O1088 2.326 . S
In1079 O1090 2.294 . S
In1079 O1091 2.326 . S
O1080 In1079 2.294 . S
O1080 C1089 1.240 . S
O1081 In1079 2.326 . S
O1081 C1089 1.252 . S
C1082 O1085 1.252 . S
C1082 O1086 1.260 . S
C1083 O1090 1.240 . S
C1083 O1091 1.252 . S
C1084 O1087 1.252 . S
C1084 O1088 1.260 . S
O1085 In1079 2.266 . S
O1085 C1082 1.252 . S
O1086 In1079 2.326 . S
O1086 C1082 1.260 . S
O1087 In1079 2.266 . S
O1087 C1084 1.252 . S
O1088 In1079 2.326 . S
O1088 C1084 1.260 . S
C1089 O1080 1.240 . S
C1089 O1081 1.252 . S
O1090 In1079 2.294 . S
O1090 C1083 1.240 . S
O1091 In1079 2.326 . S
O1091 C1083 1.252 . S
In1092 O1093 2.294 . S
In1092 O1094 2.326 . S
In1092 O1098 2.266 . S
In1092 O1099 2.326 . S
In1092 O1100 2.266 . S
In1092 O1101 2.326 . S
In1092 O1103 2.294 . S
In1092 O1104 2.326 . S
O1093 In1092 2.294 . S
O1093 C1102 1.240 . S
O1094 In1092 2.326 . S
O1094 C1102 1.252 . S
C1095 O1098 1.252 . S
C1095 O1099 1.260 . S
C1096 O1103 1.240 . S
C1096 O1104 1.252 . S
C1097 O1100 1.252 . S
C1097 O1101 1.260 . S
O1098 In1092 2.266 . S
O1098 C1095 1.252 . S
O1099 In1092 2.326 . S
O1099 C1095 1.260 . S
O1100 In1092 2.266 . S
O1100 C1097 1.252 . S
O1101 In1092 2.326 . S
O1101 C1097 1.260 . S
C1102 O1093 1.240 . S
C1102 O1094 1.252 . S
O1103 In1092 2.294 . S
O1103 C1096 1.240 . S
O1104 In1092 2.326 . S
O1104 C1096 1.252 . S
In1105 O1106 2.294 . S
In1105 O1107 2.326 . S
In1105 O1111 2.266 . S
In1105 O1112 2.326 . S
In1105 O1113 2.266 . S
In1105 O1114 2.326 . S
In1105 O1116 2.294 . S
In1105 O1117 2.326 . S
O1106 In1105 2.294 . S
O1106 C1115 1.240 . S
O1107 In1105 2.326 . S
O1107 C1115 1.252 . S
C1108 O1111 1.252 . S
C1108 O1112 1.260 . S
C1109 O1116 1.240 . S
C1109 O1117 1.252 . S
C1110 O1113 1.252 . S
C1110 O1114 1.260 . S
O1111 In1105 2.266 . S
O1111 C1108 1.252 . S
O1112 In1105 2.326 . S
O1112 C1108 1.260 . S
O1113 In1105 2.266 . S
O1113 C1110 1.252 . S
O1114 In1105 2.326 . S
O1114 C1110 1.260 . S
C1115 O1106 1.240 . S
C1115 O1107 1.252 . S
O1116 In1105 2.294 . S
O1116 C1109 1.240 . S
O1117 In1105 2.326 . S
O1117 C1109 1.252 . S
In1118 O1119 2.294 . S
In1118 O1120 2.326 . S
In1118 O1124 2.266 . S
In1118 O1125 2.326 . S
In1118 O1126 2.266 . S
In1118 O1127 2.326 . S
In1118 O1129 2.294 . S
In1118 O1130 2.326 . S
O1119 In1118 2.294 . S
O1119 C1128 1.240 . S
O1120 In1118 2.326 . S
O1120 C1128 1.252 . S
C1121 O1124 1.252 . S
C1121 O1125 1.260 . S
C1122 O1129 1.240 . S
C1122 O1130 1.252 . S
C1123 O1126 1.252 . S
C1123 O1127 1.260 . S
O1124 In1118 2.266 . S
O1124 C1121 1.252 . S
O1125 In1118 2.326 . S
O1125 C1121 1.260 . S
O1126 In1118 2.266 . S
O1126 C1123 1.252 . S
O1127 In1118 2.326 . S
O1127 C1123 1.260 . S
C1128 O1119 1.240 . S
C1128 O1120 1.252 . S
O1129 In1118 2.294 . S
O1129 C1122 1.240 . S
O1130 In1118 2.326 . S
O1130 C1122 1.252 . S
In1131 O1132 2.294 . S
In1131 O1133 2.326 . S
In1131 O1137 2.266 . S
In1131 O1138 2.326 . S
In1131 O1139 2.266 . S
In1131 O1140 2.326 . S
In1131 O1142 2.294 . S
In1131 O1143 2.326 . S
O1132 In1131 2.294 . S
O1132 C1141 1.240 . S
O1133 In1131 2.326 . S
O1133 C1141 1.252 . S
C1134 O1137 1.252 . S
C1134 O1138 1.260 . S
C1135 O1142 1.240 . S
C1135 O1143 1.252 . S
C1136 O1139 1.252 . S
C1136 O1140 1.260 . S
O1137 In1131 2.266 . S
O1137 C1134 1.252 . S
O1138 In1131 2.326 . S
O1138 C1134 1.260 . S
O1139 In1131 2.266 . S
O1139 C1136 1.252 . S
O1140 In1131 2.326 . S
O1140 C1136 1.260 . S
C1141 O1132 1.240 . S
C1141 O1133 1.252 . S
O1142 In1131 2.294 . S
O1142 C1135 1.240 . S
O1143 In1131 2.326 . S
O1143 C1135 1.252 . S
In1144 O1145 2.294 . S
In1144 O1146 2.326 . S
In1144 O1150 2.266 . S
In1144 O1151 2.326 . S
In1144 O1152 2.266 . S
In1144 O1153 2.326 . S
In1144 O1155 2.294 . S
In1144 O1156 2.326 . S
O1145 In1144 2.294 . S
O1145 C1154 1.240 . S
O1146 In1144 2.326 . S
O1146 C1154 1.252 . S
C1147 O1150 1.252 . S
C1147 O1151 1.260 . S
C1148 O1155 1.240 . S
C1148 O1156 1.252 . S
C1149 O1152 1.252 . S
C1149 O1153 1.260 . S
O1150 In1144 2.266 . S
O1150 C1147 1.252 . S
O1151 In1144 2.326 . S
O1151 C1147 1.260 . S
O1152 In1144 2.266 . S
O1152 C1149 1.252 . S
O1153 In1144 2.326 . S
O1153 C1149 1.260 . S
C1154 O1145 1.240 . S
C1154 O1146 1.252 . S
O1155 In1144 2.294 . S
O1155 C1148 1.240 . S
O1156 In1144 2.326 . S
O1156 C1148 1.252 . S
In1157 O1158 2.294 . S
In1157 O1159 2.326 . S
In1157 O1163 2.266 . S
In1157 O1164 2.326 . S
In1157 O1165 2.266 . S
In1157 O1166 2.326 . S
In1157 O1168 2.294 . S
In1157 O1169 2.326 . S
O1158 In1157 2.294 . S
O1158 C1167 1.240 . S
O1159 In1157 2.326 . S
O1159 C1167 1.252 . S
C1160 O1163 1.252 . S
C1160 O1164 1.260 . S
C1161 O1168 1.240 . S
C1161 O1169 1.252 . S
C1162 O1165 1.252 . S
C1162 O1166 1.260 . S
O1163 In1157 2.266 . S
O1163 C1160 1.252 . S
O1164 In1157 2.326 . S
O1164 C1160 1.260 . S
O1165 In1157 2.266 . S
O1165 C1162 1.252 . S
O1166 In1157 2.326 . S
O1166 C1162 1.260 . S
C1167 O1158 1.240 . S
C1167 O1159 1.252 . S
O1168 In1157 2.294 . S
O1168 C1161 1.240 . S
O1169 In1157 2.326 . S
O1169 C1161 1.252 . S
In1170 O1171 2.294 . S
In1170 O1172 2.326 . S
In1170 O1176 2.266 . S
In1170 O1177 2.326 . S
In1170 O1178 2.266 . S
In1170 O1179 2.326 . S
In1170 O1181 2.294 . S
In1170 O1182 2.326 . S
O1171 In1170 2.294 . S
O1171 C1180 1.240 . S
O1172 In1170 2.326 . S
O1172 C1180 1.252 . S
C1173 O1176 1.252 . S
C1173 O1177 1.260 . S
C1174 O1181 1.240 . S
C1174 O1182 1.252 . S
C1175 O1178 1.252 . S
C1175 O1179 1.260 . S
O1176 In1170 2.266 . S
O1176 C1173 1.252 . S
O1177 In1170 2.326 . S
O1177 C1173 1.260 . S
O1178 In1170 2.266 . S
O1178 C1175 1.252 . S
O1179 In1170 2.326 . S
O1179 C1175 1.260 . S
C1180 O1171 1.240 . S
C1180 O1172 1.252 . S
O1181 In1170 2.294 . S
O1181 C1174 1.240 . S
O1182 In1170 2.326 . S
O1182 C1174 1.252 . S
In1183 O1184 2.294 . S
In1183 O1185 2.326 . S
In1183 O1189 2.266 . S
In1183 O1190 2.326 . S
In1183 O1191 2.266 . S
In1183 O1192 2.326 . S
In1183 O1194 2.294 . S
In1183 O1195 2.326 1_554 S
O1184 In1183 2.294 . S
O1184 C1193 1.240 . S
O1185 In1183 2.326 . S
O1185 C1193 1.252 . S
C1186 O1189 1.252 . S
C1186 O1190 1.260 . S
C1187 O1194 1.240 1_556 S
C1187 O1195 1.252 . S
C1188 O1191 1.252 . S
C1188 O1192 1.260 . S
O1189 In1183 2.266 . S
O1189 C1186 1.252 . S
O1190 In1183 2.326 . S
O1190 C1186 1.260 . S
O1191 In1183 2.266 . S
O1191 C1188 1.252 . S
O1192 In1183 2.326 . S
O1192 C1188 1.260 . S
C1193 O1184 1.240 . S
C1193 O1185 1.252 . S
O1194 In1183 2.294 . S
O1194 C1187 1.240 1_554 S
O1195 In1183 2.326 1_556 S
O1195 C1187 1.252 . S
In1196 O1197 2.294 . S
In1196 O1198 2.326 . S
In1196 O1202 2.266 . S
In1196 O1203 2.326 . S
In1196 O1204 2.266 . S
In1196 O1205 2.326 . S
In1196 O1207 2.294 . S
In1196 O1208 2.326 . S
O1197 In1196 2.294 . S
O1197 C1206 1.240 . S
O1198 In1196 2.326 . S
O1198 C1206 1.252 . S
C1199 O1202 1.252 . S
C1199 O1203 1.260 . S
C1200 O1207 1.240 . S
C1200 O1208 1.252 . S
C1201 O1204 1.252 . S
C1201 O1205 1.260 . S
O1202 In1196 2.266 . S
O1202 C1199 1.252 . S
O1203 In1196 2.326 . S
O1203 C1199 1.260 . S
O1204 In1196 2.266 . S
O1204 C1201 1.252 . S
O1205 In1196 2.326 . S
O1205 C1201 1.260 . S
C1206 O1197 1.240 . S
C1206 O1198 1.252 . S
O1207 In1196 2.294 . S
O1207 C1200 1.240 . S
O1208 In1196 2.326 . S
O1208 C1200 1.252 . S
In1209 O1210 2.294 . S
In1209 O1211 2.326 1_556 S
In1209 O1215 2.266 . S
In1209 O1216 2.326 . S
In1209 O1217 2.266 . S
In1209 O1218 2.326 . S
In1209 O1220 2.294 . S
In1209 O1221 2.326 . S
O1210 In1209 2.294 . S
O1210 C1219 1.240 1_556 S
O1211 In1209 2.326 1_554 S
O1211 C1219 1.252 . S
C1212 O1215 1.252 . S
C1212 O1216 1.260 . S
C1213 O1220 1.240 . S
C1213 O1221 1.252 . S
C1214 O1217 1.252 . S
C1214 O1218 1.260 . S
O1215 In1209 2.266 . S
O1215 C1212 1.252 . S
O1216 In1209 2.326 . S
O1216 C1212 1.260 . S
O1217 In1209 2.266 . S
O1217 C1214 1.252 . S
O1218 In1209 2.326 . S
O1218 C1214 1.260 . S
C1219 O1210 1.240 1_554 S
C1219 O1211 1.252 . S
O1220 In1209 2.294 . S
O1220 C1213 1.240 . S
O1221 In1209 2.326 . S
O1221 C1213 1.252 . S
In1222 O1223 2.294 . S
In1222 O1224 2.326 . S
In1222 O1228 2.266 . S
In1222 O1229 2.326 . S
In1222 O1230 2.266 . S
In1222 O1231 2.326 . S
In1222 O1233 2.294 . S
In1222 O1234 2.326 . S
O1223 In1222 2.294 . S
O1223 C1232 1.240 . S
O1224 In1222 2.326 . S
O1224 C1232 1.252 . S
C1225 O1228 1.252 . S
C1225 O1229 1.260 . S
C1226 O1233 1.240 . S
C1226 O1234 1.252 . S
C1227 O1230 1.252 . S
C1227 O1231 1.260 . S
O1228 In1222 2.266 . S
O1228 C1225 1.252 . S
O1229 In1222 2.326 . S
O1229 C1225 1.260 . S
O1230 In1222 2.266 . S
O1230 C1227 1.252 . S
O1231 In1222 2.326 . S
O1231 C1227 1.260 . S
C1232 O1223 1.240 . S
C1232 O1224 1.252 . S
O1233 In1222 2.294 . S
O1233 C1226 1.240 . S
O1234 In1222 2.326 . S
O1234 C1226 1.252 . S
In1235 O1236 2.294 . S
In1235 O1237 2.326 . S
In1235 O1241 2.266 . S
In1235 O1242 2.326 . S
In1235 O1243 2.266 . S
In1235 O1244 2.326 . S
In1235 O1246 2.294 . S
In1235 O1247 2.326 . S
O1236 In1235 2.294 . S
O1236 C1245 1.240 . S
O1237 In1235 2.326 . S
O1237 C1245 1.252 . S
C1238 O1241 1.252 . S
C1238 O1242 1.260 . S
C1239 O1246 1.240 . S
C1239 O1247 1.252 . S
C1240 O1243 1.252 . S
C1240 O1244 1.260 . S
O1241 In1235 2.266 . S
O1241 C1238 1.252 . S
O1242 In1235 2.326 . S
O1242 C1238 1.260 . S
O1243 In1235 2.266 . S
O1243 C1240 1.252 . S
O1244 In1235 2.326 . S
O1244 C1240 1.260 . S
C1245 O1236 1.240 . S
C1245 O1237 1.252 . S
O1246 In1235 2.294 . S
O1246 C1239 1.240 . S
O1247 In1235 2.326 . S
O1247 C1239 1.252 . S
H1248 C1254 0.930 . S
H1249 C1257 0.930 . S
H1250 C1258 0.930 . S
H1251 C1259 0.930 . S
H1252 C1262 0.930 . S
H1253 C1263 0.930 . S
C1254 H1248 0.930 . S
C1254 C1255 1.355 . S
C1254 C1256 1.415 . S
C1255 C1254 1.355 . S
C1255 C1257 1.419 . S
C1256 C1254 1.415 . S
C1256 C1261 1.425 . S
C1256 C1263 1.409 . S
C1257 H1249 0.930 . S
C1257 C1255 1.419 . S
C1257 C1258 1.362 . S
C1258 H1250 0.930 . S
C1258 C1257 1.362 . S
C1258 C1261 1.409 . S
C1259 H1251 0.930 . S
C1259 C1260 1.355 . S
C1259 C1261 1.415 . S
C1260 C1259 1.355 . S
C1260 C1262 1.419 . S
C1261 C1256 1.425 . S
C1261 C1258 1.409 . S
C1261 C1259 1.415 . S
C1262 H1252 0.930 . S
C1262 C1260 1.419 . S
C1262 C1263 1.362 . S
C1263 H1253 0.930 . S
C1263 C1256 1.409 . S
C1263 C1262 1.362 . S
H1264 C1270 0.930 . S
H1265 C1273 0.930 . S
H1266 C1274 0.930 . S
H1267 C1275 0.930 . S
H1268 C1278 0.930 . S
H1269 C1279 0.930 . S
C1270 H1264 0.930 . S
C1270 C1271 1.355 . S
C1270 C1272 1.415 . S
C1271 C1270 1.355 . S
C1271 C1273 1.419 . S
C1272 C1270 1.415 . S
C1272 C1277 1.425 . S
C1272 C1279 1.409 . S
C1273 H1265 0.930 . S
C1273 C1271 1.419 . S
C1273 C1274 1.362 . S
C1274 H1266 0.930 . S
C1274 C1273 1.362 . S
C1274 C1277 1.409 . S
C1275 H1267 0.930 . S
C1275 C1276 1.355 . S
C1275 C1277 1.415 . S
C1276 C1275 1.355 . S
C1276 C1278 1.419 . S
C1277 C1272 1.425 . S
C1277 C1274 1.409 . S
C1277 C1275 1.415 . S
C1278 H1268 0.930 . S
C1278 C1276 1.419 . S
C1278 C1279 1.362 . S
C1279 H1269 0.930 . S
C1279 C1272 1.409 . S
C1279 C1278 1.362 . S
H1280 C1286 0.930 . S
H1281 C1289 0.930 . S
H1282 C1290 0.930 . S
H1283 C1291 0.930 . S
H1284 C1294 0.930 . S
H1285 C1295 0.930 . S
C1286 H1280 0.930 . S
C1286 C1287 1.355 . S
C1286 C1288 1.415 . S
C1287 C1286 1.355 . S
C1287 C1289 1.419 . S
C1288 C1286 1.415 . S
C1288 C1293 1.425 . S
C1288 C1295 1.409 . S
C1289 H1281 0.930 . S
C1289 C1287 1.419 . S
C1289 C1290 1.362 . S
C1290 H1282 0.930 . S
C1290 C1289 1.362 . S
C1290 C1293 1.409 . S
C1291 H1283 0.930 . S
C1291 C1292 1.355 . S
C1291 C1293 1.415 . S
C1292 C1291 1.355 . S
C1292 C1294 1.419 . S
C1293 C1288 1.425 . S
C1293 C1290 1.409 . S
C1293 C1291 1.415 . S
C1294 H1284 0.930 . S
C1294 C1292 1.419 . S
C1294 C1295 1.362 . S
C1295 H1285 0.930 . S
C1295 C1288 1.409 . S
C1295 C1294 1.362 . S
H1296 C1302 0.930 . S
H1297 C1305 0.930 . S
H1298 C1306 0.930 . S
H1299 C1307 0.930 . S
H1300 C1310 0.930 . S
H1301 C1311 0.930 . S
C1302 H1296 0.930 . S
C1302 C1303 1.355 . S
C1302 C1304 1.415 . S
C1303 C1302 1.355 . S
C1303 C1305 1.419 . S
C1304 C1302 1.415 . S
C1304 C1309 1.425 . S
C1304 C1311 1.409 . S
C1305 H1297 0.930 . S
C1305 C1303 1.419 . S
C1305 C1306 1.362 . S
C1306 H1298 0.930 . S
C1306 C1305 1.362 . S
C1306 C1309 1.409 . S
C1307 H1299 0.930 . S
C1307 C1308 1.355 . S
C1307 C1309 1.415 . S
C1308 C1307 1.355 . S
C1308 C1310 1.419 . S
C1309 C1304 1.425 . S
C1309 C1306 1.409 . S
C1309 C1307 1.415 . S
C1310 H1300 0.930 . S
C1310 C1308 1.419 . S
C1310 C1311 1.362 . S
C1311 H1301 0.930 . S
C1311 C1304 1.409 . S
C1311 C1310 1.362 . S
H1312 C1318 0.930 . S
H1313 C1321 0.930 . S
H1314 C1322 0.930 . S
H1315 C1323 0.930 . S
H1316 C1326 0.930 . S
H1317 C1327 0.930 . S
C1318 H1312 0.930 . S
C1318 C1319 1.355 . S
C1318 C1320 1.415 . S
C1319 C1318 1.355 . S
C1319 C1321 1.419 . S
C1320 C1318 1.415 . S
C1320 C1325 1.425 . S
C1320 C1327 1.409 . S
C1321 H1313 0.930 . S
C1321 C1319 1.419 . S
C1321 C1322 1.362 . S
C1322 H1314 0.930 . S
C1322 C1321 1.362 . S
C1322 C1325 1.409 . S
C1323 H1315 0.930 . S
C1323 C1324 1.355 . S
C1323 C1325 1.415 . S
C1324 C1323 1.355 . S
C1324 C1326 1.419 . S
C1325 C1320 1.425 . S
C1325 C1322 1.409 . S
C1325 C1323 1.415 . S
C1326 H1316 0.930 . S
C1326 C1324 1.419 . S
C1326 C1327 1.362 . S
C1327 H1317 0.930 . S
C1327 C1320 1.409 . S
C1327 C1326 1.362 . S
H1328 C1334 0.930 . S
H1329 C1337 0.930 . S
H1330 C1338 0.930 . S
H1331 C1339 0.930 . S
H1332 C1342 0.930 . S
H1333 C1343 0.930 . S
C1334 H1328 0.930 . S
C1334 C1335 1.355 . S
C1334 C1336 1.415 . S
C1335 C1334 1.355 . S
C1335 C1337 1.419 . S
C1336 C1334 1.415 . S
C1336 C1341 1.425 . S
C1336 C1343 1.409 . S
C1337 H1329 0.930 . S
C1337 C1335 1.419 . S
C1337 C1338 1.362 . S
C1338 H1330 0.930 . S
C1338 C1337 1.362 . S
C1338 C1341 1.409 . S
C1339 H1331 0.930 . S
C1339 C1340 1.355 . S
C1339 C1341 1.415 . S
C1340 C1339 1.355 . S
C1340 C1342 1.419 . S
C1341 C1336 1.425 . S
C1341 C1338 1.409 . S
C1341 C1339 1.415 . S
C1342 H1332 0.930 . S
C1342 C1340 1.419 . S
C1342 C1343 1.362 . S
C1343 H1333 0.930 . S
C1343 C1336 1.409 . S
C1343 C1342 1.362 . S
H1344 C1350 0.930 . S
H1345 C1353 0.930 . S
H1346 C1354 0.930 . S
H1347 C1355 0.930 . S
H1348 C1358 0.930 . S
H1349 C1359 0.930 . S
C1350 H1344 0.930 . S
C1350 C1351 1.355 . S
C1350 C1352 1.415 . S
C1351 C1350 1.355 . S
C1351 C1353 1.419 . S
C1352 C1350 1.415 . S
C1352 C1357 1.425 . S
C1352 C1359 1.409 . S
C1353 H1345 0.930 . S
C1353 C1351 1.419 . S
C1353 C1354 1.362 . S
C1354 H1346 0.930 . S
C1354 C1353 1.362 . S
C1354 C1357 1.409 . S
C1355 H1347 0.930 . S
C1355 C1356 1.355 . S
C1355 C1357 1.415 . S
C1356 C1355 1.355 . S
C1356 C1358 1.419 . S
C1357 C1352 1.425 . S
C1357 C1354 1.409 . S
C1357 C1355 1.415 . S
C1358 H1348 0.930 . S
C1358 C1356 1.419 . S
C1358 C1359 1.362 . S
C1359 H1349 0.930 . S
C1359 C1352 1.409 . S
C1359 C1358 1.362 . S
H1360 C1366 0.930 . S
H1361 C1369 0.930 . S
H1362 C1370 0.930 . S
H1363 C1371 0.930 . S
H1364 C1374 0.930 . S
H1365 C1375 0.930 . S
C1366 H1360 0.930 . S
C1366 C1367 1.355 . S
C1366 C1368 1.415 . S
C1367 C1366 1.355 . S
C1367 C1369 1.419 . S
C1368 C1366 1.415 . S
C1368 C1373 1.425 . S
C1368 C1375 1.409 . S
C1369 H1361 0.930 . S
C1369 C1367 1.419 . S
C1369 C1370 1.362 . S
C1370 H1362 0.930 . S
C1370 C1369 1.362 . S
C1370 C1373 1.409 . S
C1371 H1363 0.930 . S
C1371 C1372 1.355 . S
C1371 C1373 1.415 . S
C1372 C1371 1.355 . S
C1372 C1374 1.419 . S
C1373 C1368 1.425 . S
C1373 C1370 1.409 . S
C1373 C1371 1.415 . S
C1374 H1364 0.930 . S
C1374 C1372 1.419 . S
C1374 C1375 1.362 . S
C1375 H1365 0.930 . S
C1375 C1368 1.409 . S
C1375 C1374 1.362 . S
H1376 C1382 0.930 . S
H1377 C1385 0.930 . S
H1378 C1386 0.930 . S
H1379 C1387 0.930 . S
H1380 C1390 0.930 . S
H1381 C1391 0.930 . S
C1382 H1376 0.930 . S
C1382 C1383 1.355 . S
C1382 C1384 1.415 . S
C1383 C1382 1.355 . S
C1383 C1385 1.419 . S
C1384 C1382 1.415 . S
C1384 C1389 1.425 . S
C1384 C1391 1.409 . S
C1385 H1377 0.930 . S
C1385 C1383 1.419 . S
C1385 C1386 1.362 . S
C1386 H1378 0.930 . S
C1386 C1385 1.362 . S
C1386 C1389 1.409 . S
C1387 H1379 0.930 . S
C1387 C1388 1.355 . S
C1387 C1389 1.415 . S
C1388 C1387 1.355 . S
C1388 C1390 1.419 . S
C1389 C1384 1.425 . S
C1389 C1386 1.409 . S
C1389 C1387 1.415 . S
C1390 H1380 0.930 . S
C1390 C1388 1.419 . S
C1390 C1391 1.362 . S
C1391 H1381 0.930 . S
C1391 C1384 1.409 . S
C1391 C1390 1.362 . S
H1392 C1398 0.930 . S
H1393 C1401 0.930 . S
H1394 C1402 0.930 . S
H1395 C1403 0.930 . S
H1396 C1406 0.930 . S
H1397 C1407 0.930 . S
C1398 H1392 0.930 . S
C1398 C1399 1.355 . S
C1398 C1400 1.415 . S
C1399 C1398 1.355 . S
C1399 C1401 1.419 . S
C1400 C1398 1.415 . S
C1400 C1405 1.425 . S
C1400 C1407 1.409 . S
C1401 H1393 0.930 . S
C1401 C1399 1.419 . S
C1401 C1402 1.362 . S
C1402 H1394 0.930 . S
C1402 C1401 1.362 . S
C1402 C1405 1.409 . S
C1403 H1395 0.930 . S
C1403 C1404 1.355 . S
C1403 C1405 1.415 . S
C1404 C1403 1.355 . S
C1404 C1406 1.419 . S
C1405 C1400 1.425 . S
C1405 C1402 1.409 . S
C1405 C1403 1.415 . S
C1406 H1396 0.930 . S
C1406 C1404 1.419 . S
C1406 C1407 1.362 . S
C1407 H1397 0.930 . S
C1407 C1400 1.409 . S
C1407 C1406 1.362 . S
H1408 C1414 0.930 . S
H1409 C1417 0.930 . S
H1410 C1418 0.930 . S
H1411 C1419 0.930 . S
H1412 C1422 0.930 . S
H1413 C1423 0.930 . S
C1414 H1408 0.930 . S
C1414 C1415 1.355 . S
C1414 C1416 1.415 . S
C1415 C1414 1.355 . S
C1415 C1417 1.419 . S
C1416 C1414 1.415 . S
C1416 C1421 1.425 . S
C1416 C1423 1.409 . S
C1417 H1409 0.930 . S
C1417 C1415 1.419 . S
C1417 C1418 1.362 . S
C1418 H1410 0.930 . S
C1418 C1417 1.362 . S
C1418 C1421 1.409 . S
C1419 H1411 0.930 . S
C1419 C1420 1.355 . S
C1419 C1421 1.415 . S
C1420 C1419 1.355 . S
C1420 C1422 1.419 . S
C1421 C1416 1.425 . S
C1421 C1418 1.409 . S
C1421 C1419 1.415 . S
C1422 H1412 0.930 . S
C1422 C1420 1.419 . S
C1422 C1423 1.362 . S
C1423 H1413 0.930 . S
C1423 C1416 1.409 . S
C1423 C1422 1.362 . S
H1424 C1430 0.930 . S
H1425 C1433 0.930 . S
H1426 C1434 0.930 . S
H1427 C1435 0.930 . S
H1428 C1438 0.930 . S
H1429 C1439 0.930 . S
C1430 H1424 0.930 . S
C1430 C1431 1.355 . S
C1430 C1432 1.415 . S
C1431 C1430 1.355 . S
C1431 C1433 1.419 . S
C1432 C1430 1.415 . S
C1432 C1437 1.425 . S
C1432 C1439 1.409 . S
C1433 H1425 0.930 . S
C1433 C1431 1.419 . S
C1433 C1434 1.362 . S
C1434 H1426 0.930 . S
C1434 C1433 1.362 . S
C1434 C1437 1.409 . S
C1435 H1427 0.930 . S
C1435 C1436 1.355 . S
C1435 C1437 1.415 . S
C1436 C1435 1.355 . S
C1436 C1438 1.419 . S
C1437 C1432 1.425 . S
C1437 C1434 1.409 . S
C1437 C1435 1.415 . S
C1438 H1428 0.930 . S
C1438 C1436 1.419 . S
C1438 C1439 1.362 . S
C1439 H1429 0.930 . S
C1439 C1432 1.409 . S
C1439 C1438 1.362 . S
H1440 C1446 0.930 . S
H1441 C1449 0.930 . S
H1442 C1450 0.930 . S
H1443 C1451 0.930 . S
H1444 C1454 0.930 . S
H1445 C1455 0.930 . S
C1446 H1440 0.930 . S
C1446 C1447 1.355 . S
C1446 C1448 1.415 . S
C1447 C1446 1.355 . S
C1447 C1449 1.419 . S
C1448 C1446 1.415 . S
C1448 C1453 1.425 . S
C1448 C1455 1.409 . S
C1449 H1441 0.930 . S
C1449 C1447 1.419 . S
C1449 C1450 1.362 . S
C1450 H1442 0.930 . S
C1450 C1449 1.362 . S
C1450 C1453 1.409 . S
C1451 H1443 0.930 . S
C1451 C1452 1.355 . S
C1451 C1453 1.415 . S
C1452 C1451 1.355 . S
C1452 C1454 1.419 . S
C1453 C1448 1.425 . S
C1453 C1450 1.409 . S
C1453 C1451 1.415 . S
C1454 H1444 0.930 . S
C1454 C1452 1.419 . S
C1454 C1455 1.362 . S
C1455 H1445 0.930 . S
C1455 C1448 1.409 . S
C1455 C1454 1.362 . S
H1456 C1462 0.930 . S
H1457 C1465 0.930 . S
H1458 C1466 0.930 . S
H1459 C1467 0.930 . S
H1460 C1470 0.930 . S
H1461 C1471 0.930 . S
C1462 H1456 0.930 . S
C1462 C1463 1.355 . S
C1462 C1464 1.415 . S
C1463 C1462 1.355 . S
C1463 C1465 1.419 . S
C1464 C1462 1.415 . S
C1464 C1469 1.425 . S
C1464 C1471 1.409 . S
C1465 H1457 0.930 . S
C1465 C1463 1.419 . S
C1465 C1466 1.362 . S
C1466 H1458 0.930 . S
C1466 C1465 1.362 . S
C1466 C1469 1.409 . S
C1467 H1459 0.930 . S
C1467 C1468 1.355 . S
C1467 C1469 1.415 . S
C1468 C1467 1.355 . S
C1468 C1470 1.419 . S
C1469 C1464 1.425 . S
C1469 C1466 1.409 . S
C1469 C1467 1.415 . S
C1470 H1460 0.930 . S
C1470 C1468 1.419 . S
C1470 C1471 1.362 . S
C1471 H1461 0.930 . S
C1471 C1464 1.409 . S
C1471 C1470 1.362 . S
H1472 C1478 0.930 . S
H1473 C1481 0.930 . S
H1474 C1482 0.930 . S
H1475 C1483 0.930 . S
H1476 C1486 0.930 . S
H1477 C1487 0.930 . S
C1478 H1472 0.930 . S
C1478 C1479 1.355 . S
C1478 C1480 1.415 . S
C1479 C1478 1.355 . S
C1479 C1481 1.419 . S
C1480 C1478 1.415 . S
C1480 C1485 1.425 . S
C1480 C1487 1.409 . S
C1481 H1473 0.930 . S
C1481 C1479 1.419 . S
C1481 C1482 1.362 . S
C1482 H1474 0.930 . S
C1482 C1481 1.362 . S
C1482 C1485 1.409 . S
C1483 H1475 0.930 . S
C1483 C1484 1.355 . S
C1483 C1485 1.415 . S
C1484 C1483 1.355 . S
C1484 C1486 1.419 . S
C1485 C1480 1.425 . S
C1485 C1482 1.409 . S
C1485 C1483 1.415 . S
C1486 H1476 0.930 . S
C1486 C1484 1.419 . S
C1486 C1487 1.362 . S
C1487 H1477 0.930 . S
C1487 C1480 1.409 . S
C1487 C1486 1.362 . S
H1488 C1494 0.930 . S
H1489 C1497 0.930 . S
H1490 C1498 0.930 . S
H1491 C1499 0.930 . S
H1492 C1502 0.930 . S
H1493 C1503 0.930 . S
C1494 H1488 0.930 . S
C1494 C1495 1.355 . S
C1494 C1496 1.415 . S
C1495 C1494 1.355 . S
C1495 C1497 1.419 . S
C1496 C1494 1.415 . S
C1496 C1501 1.425 . S
C1496 C1503 1.409 . S
C1497 H1489 0.930 . S
C1497 C1495 1.419 . S
C1497 C1498 1.362 . S
C1498 H1490 0.930 . S
C1498 C1497 1.362 . S
C1498 C1501 1.409 . S
C1499 H1491 0.930 . S
C1499 C1500 1.355 . S
C1499 C1501 1.415 . S
C1500 C1499 1.355 . S
C1500 C1502 1.419 . S
C1501 C1496 1.425 . S
C1501 C1498 1.409 . S
C1501 C1499 1.415 . S
C1502 H1492 0.930 . S
C1502 C1500 1.419 . S
C1502 C1503 1.362 . S
C1503 H1493 0.930 . S
C1503 C1496 1.409 . S
C1503 C1502 1.362 . S
H1504 C1510 0.930 . S
H1505 C1513 0.930 . S
H1506 C1514 0.930 . S
H1507 C1515 0.930 . S
H1508 C1518 0.930 . S
H1509 C1519 0.930 . S
C1510 H1504 0.930 . S
C1510 C1511 1.355 . S
C1510 C1512 1.415 . S
C1511 C1510 1.355 . S
C1511 C1513 1.419 . S
C1512 C1510 1.415 . S
C1512 C1517 1.425 . S
C1512 C1519 1.409 . S
C1513 H1505 0.930 . S
C1513 C1511 1.419 . S
C1513 C1514 1.362 . S
C1514 H1506 0.930 . S
C1514 C1513 1.362 . S
C1514 C1517 1.409 . S
C1515 H1507 0.930 . S
C1515 C1516 1.355 . S
C1515 C1517 1.415 . S
C1516 C1515 1.355 . S
C1516 C1518 1.419 . S
C1517 C1512 1.425 . S
C1517 C1514 1.409 . S
C1517 C1515 1.415 . S
C1518 H1508 0.930 . S
C1518 C1516 1.419 . S
C1518 C1519 1.362 . S
C1519 H1509 0.930 . S
C1519 C1512 1.409 . S
C1519 C1518 1.362 . S
H1520 C1526 0.930 . S
H1521 C1529 0.930 . S
H1522 C1530 0.930 . S
H1523 C1531 0.930 . S
H1524 C1534 0.930 . S
H1525 C1535 0.930 . S
C1526 H1520 0.930 . S
C1526 C1527 1.355 . S
C1526 C1528 1.415 . S
C1527 C1526 1.355 . S
C1527 C1529 1.419 . S
C1528 C1526 1.415 . S
C1528 C1533 1.425 . S
C1528 C1535 1.409 . S
C1529 H1521 0.930 . S
C1529 C1527 1.419 . S
C1529 C1530 1.362 . S
C1530 H1522 0.930 . S
C1530 C1529 1.362 . S
C1530 C1533 1.409 . S
C1531 H1523 0.930 . S
C1531 C1532 1.355 . S
C1531 C1533 1.415 . S
C1532 C1531 1.355 . S
C1532 C1534 1.419 . S
C1533 C1528 1.425 . S
C1533 C1530 1.409 . S
C1533 C1531 1.415 . S
C1534 H1524 0.930 . S
C1534 C1532 1.419 . S
C1534 C1535 1.362 . S
C1535 H1525 0.930 . S
C1535 C1528 1.409 . S
C1535 C1534 1.362 . S
H1536 C1542 0.930 . S
H1537 C1545 0.930 . S
H1538 C1546 0.930 . S
H1539 C1547 0.930 . S
H1540 C1550 0.930 . S
H1541 C1551 0.930 . S
C1542 H1536 0.930 . S
C1542 C1543 1.355 . S
C1542 C1544 1.415 . S
C1543 C1542 1.355 . S
C1543 C1545 1.419 . S
C1544 C1542 1.415 . S
C1544 C1549 1.425 . S
C1544 C1551 1.409 . S
C1545 H1537 0.930 . S
C1545 C1543 1.419 . S
C1545 C1546 1.362 . S
C1546 H1538 0.930 . S
C1546 C1545 1.362 . S
C1546 C1549 1.409 . S
C1547 H1539 0.930 . S
C1547 C1548 1.355 . S
C1547 C1549 1.415 . S
C1548 C1547 1.355 . S
C1548 C1550 1.419 . S
C1549 C1544 1.425 . S
C1549 C1546 1.409 . S
C1549 C1547 1.415 . S
C1550 H1540 0.930 . S
C1550 C1548 1.419 . S
C1550 C1551 1.362 . S
C1551 H1541 0.930 . S
C1551 C1544 1.409 . S
C1551 C1550 1.362 . S
H1552 C1558 0.930 . S
H1553 C1561 0.930 . S
H1554 C1562 0.930 . S
H1555 C1563 0.930 . S
H1556 C1566 0.930 . S
H1557 C1567 0.930 . S
C1558 H1552 0.930 . S
C1558 C1559 1.355 . S
C1558 C1560 1.415 . S
C1559 C1558 1.355 . S
C1559 C1561 1.419 . S
C1560 C1558 1.415 . S
C1560 C1565 1.425 . S
C1560 C1567 1.409 . S
C1561 H1553 0.930 . S
C1561 C1559 1.419 . S
C1561 C1562 1.362 . S
C1562 H1554 0.930 . S
C1562 C1561 1.362 . S
C1562 C1565 1.409 . S
C1563 H1555 0.930 . S
C1563 C1564 1.355 . S
C1563 C1565 1.415 . S
C1564 C1563 1.355 . S
C1564 C1566 1.419 . S
C1565 C1560 1.425 . S
C1565 C1562 1.409 . S
C1565 C1563 1.415 . S
C1566 H1556 0.930 . S
C1566 C1564 1.419 . S
C1566 C1567 1.362 . S
C1567 H1557 0.930 . S
C1567 C1560 1.409 . S
C1567 C1566 1.362 . S
H1568 C1574 0.930 . S
H1569 C1577 0.930 . S
H1570 C1578 0.930 . S
H1571 C1579 0.930 . S
H1572 C1582 0.930 . S
H1573 C1583 0.930 . S
C1574 H1568 0.930 . S
C1574 C1575 1.355 . S
C1574 C1576 1.415 . S
C1575 C1574 1.355 . S
C1575 C1577 1.419 . S
C1576 C1574 1.415 . S
C1576 C1581 1.425 . S
C1576 C1583 1.409 . S
C1577 H1569 0.930 . S
C1577 C1575 1.419 . S
C1577 C1578 1.362 . S
C1578 H1570 0.930 . S
C1578 C1577 1.362 . S
C1578 C1581 1.409 . S
C1579 H1571 0.930 . S
C1579 C1580 1.355 . S
C1579 C1581 1.415 . S
C1580 C1579 1.355 . S
C1580 C1582 1.419 . S
C1581 C1576 1.425 . S
C1581 C1578 1.409 . S
C1581 C1579 1.415 . S
C1582 H1572 0.930 . S
C1582 C1580 1.419 . S
C1582 C1583 1.362 . S
C1583 H1573 0.930 . S
C1583 C1576 1.409 . S
C1583 C1582 1.362 . S
H1584 C1590 0.930 . S
H1585 C1593 0.930 . S
H1586 C1594 0.930 . S
H1587 C1595 0.930 . S
H1588 C1598 0.930 . S
H1589 C1599 0.930 . S
C1590 H1584 0.930 . S
C1590 C1591 1.355 . S
C1590 C1592 1.415 . S
C1591 C1590 1.355 . S
C1591 C1593 1.419 . S
C1592 C1590 1.415 . S
C1592 C1597 1.425 . S
C1592 C1599 1.409 . S
C1593 H1585 0.930 . S
C1593 C1591 1.419 . S
C1593 C1594 1.362 . S
C1594 H1586 0.930 . S
C1594 C1593 1.362 . S
C1594 C1597 1.409 . S
C1595 H1587 0.930 . S
C1595 C1596 1.355 . S
C1595 C1597 1.415 . S
C1596 C1595 1.355 . S
C1596 C1598 1.419 . S
C1597 C1592 1.425 . S
C1597 C1594 1.409 . S
C1597 C1595 1.415 . S
C1598 H1588 0.930 . S
C1598 C1596 1.419 . S
C1598 C1599 1.362 . S
C1599 H1589 0.930 . S
C1599 C1592 1.409 . S
C1599 C1598 1.362 . S
H1600 C1606 0.930 . S
H1601 C1609 0.930 . S
H1602 C1610 0.930 . S
H1603 C1611 0.930 . S
H1604 C1614 0.930 . S
H1605 C1615 0.930 . S
C1606 H1600 0.930 . S
C1606 C1607 1.355 . S
C1606 C1608 1.415 . S
C1607 C1606 1.355 . S
C1607 C1609 1.419 . S
C1608 C1606 1.415 . S
C1608 C1613 1.425 . S
C1608 C1615 1.409 . S
C1609 H1601 0.930 . S
C1609 C1607 1.419 . S
C1609 C1610 1.362 . S
C1610 H1602 0.930 . S
C1610 C1609 1.362 . S
C1610 C1613 1.409 . S
C1611 H1603 0.930 . S
C1611 C1612 1.355 . S
C1611 C1613 1.415 . S
C1612 C1611 1.355 . S
C1612 C1614 1.419 . S
C1613 C1608 1.425 . S
C1613 C1610 1.409 . S
C1613 C1611 1.415 . S
C1614 H1604 0.930 . S
C1614 C1612 1.419 . S
C1614 C1615 1.362 . S
C1615 H1605 0.930 . S
C1615 C1608 1.409 . S
C1615 C1614 1.362 . S
H1616 C1622 0.930 . S
H1617 C1625 0.930 . S
H1618 C1626 0.930 . S
H1619 C1627 0.930 . S
H1620 C1630 0.930 . S
H1621 C1631 0.930 . S
C1622 H1616 0.930 . S
C1622 C1623 1.355 . S
C1622 C1624 1.415 . S
C1623 C1622 1.355 . S
C1623 C1625 1.419 . S
C1624 C1622 1.415 . S
C1624 C1629 1.425 . S
C1624 C1631 1.409 . S
C1625 H1617 0.930 . S
C1625 C1623 1.419 . S
C1625 C1626 1.362 . S
C1626 H1618 0.930 . S
C1626 C1625 1.362 . S
C1626 C1629 1.409 . S
C1627 H1619 0.930 . S
C1627 C1628 1.355 . S
C1627 C1629 1.415 . S
C1628 C1627 1.355 . S
C1628 C1630 1.419 . S
C1629 C1624 1.425 . S
C1629 C1626 1.409 . S
C1629 C1627 1.415 . S
C1630 H1620 0.930 . S
C1630 C1628 1.419 . S
C1630 C1631 1.362 . S
C1631 H1621 0.930 . S
C1631 C1624 1.409 . S
C1631 C1630 1.362 . S
H1632 C1638 0.930 . S
H1633 C1641 0.930 . S
H1634 C1642 0.930 . S
H1635 C1643 0.930 . S
H1636 C1646 0.930 . S
H1637 C1647 0.930 . S
C1638 H1632 0.930 . S
C1638 C1639 1.355 . S
C1638 C1640 1.415 . S
C1639 C1638 1.355 . S
C1639 C1641 1.419 . S
C1640 C1638 1.415 . S
C1640 C1645 1.425 . S
C1640 C1647 1.409 . S
C1641 H1633 0.930 . S
C1641 C1639 1.419 . S
C1641 C1642 1.362 . S
C1642 H1634 0.930 . S
C1642 C1641 1.362 . S
C1642 C1645 1.409 . S
C1643 H1635 0.930 . S
C1643 C1644 1.355 . S
C1643 C1645 1.415 . S
C1644 C1643 1.355 . S
C1644 C1646 1.419 . S
C1645 C1640 1.425 . S
C1645 C1642 1.409 . S
C1645 C1643 1.415 . S
C1646 H1636 0.930 . S
C1646 C1644 1.419 . S
C1646 C1647 1.362 . S
C1647 H1637 0.930 . S
C1647 C1640 1.409 . S
C1647 C1646 1.362 . S
H1648 C1654 0.930 . S
H1649 C1657 0.930 . S
H1650 C1658 0.930 . S
H1651 C1659 0.930 . S
H1652 C1662 0.930 . S
H1653 C1663 0.930 . S
C1654 H1648 0.930 . S
C1654 C1655 1.355 . S
C1654 C1656 1.415 . S
C1655 C1654 1.355 . S
C1655 C1657 1.419 . S
C1656 C1654 1.415 . S
C1656 C1661 1.425 . S
C1656 C1663 1.409 . S
C1657 H1649 0.930 . S
C1657 C1655 1.419 . S
C1657 C1658 1.362 . S
C1658 H1650 0.930 . S
C1658 C1657 1.362 . S
C1658 C1661 1.409 . S
C1659 H1651 0.930 . S
C1659 C1660 1.355 . S
C1659 C1661 1.415 . S
C1660 C1659 1.355 . S
C1660 C1662 1.419 . S
C1661 C1656 1.425 . S
C1661 C1658 1.409 . S
C1661 C1659 1.415 . S
C1662 H1652 0.930 . S
C1662 C1660 1.419 . S
C1662 C1663 1.362 . S
C1663 H1653 0.930 . S
C1663 C1656 1.409 . S
C1663 C1662 1.362 . S
H1664 C1670 0.930 . S
H1665 C1673 0.930 . S
H1666 C1674 0.930 . S
H1667 C1675 0.930 . S
H1668 C1678 0.930 . S
H1669 C1679 0.930 . S
C1670 H1664 0.930 . S
C1670 C1671 1.355 . S
C1670 C1672 1.415 . S
C1671 C1670 1.355 . S
C1671 C1673 1.419 . S
C1672 C1670 1.415 . S
C1672 C1677 1.425 . S
C1672 C1679 1.409 . S
C1673 H1665 0.930 . S
C1673 C1671 1.419 . S
C1673 C1674 1.362 . S
C1674 H1666 0.930 . S
C1674 C1673 1.362 . S
C1674 C1677 1.409 . S
C1675 H1667 0.930 . S
C1675 C1676 1.355 . S
C1675 C1677 1.415 . S
C1676 C1675 1.355 . S
C1676 C1678 1.419 . S
C1677 C1672 1.425 . S
C1677 C1674 1.409 . S
C1677 C1675 1.415 . S
C1678 H1668 0.930 . S
C1678 C1676 1.419 . S
C1678 C1679 1.362 . S
C1679 H1669 0.930 . S
C1679 C1672 1.409 . S
C1679 C1678 1.362 . S
H1680 C1686 0.930 . S
H1681 C1689 0.930 . S
H1682 C1690 0.930 . S
H1683 C1691 0.930 . S
H1684 C1694 0.930 . S
H1685 C1695 0.930 . S
C1686 H1680 0.930 . S
C1686 C1687 1.355 . S
C1686 C1688 1.415 . S
C1687 C1686 1.355 . S
C1687 C1689 1.419 . S
C1688 C1686 1.415 . S
C1688 C1693 1.425 . S
C1688 C1695 1.409 . S
C1689 H1681 0.930 . S
C1689 C1687 1.419 . S
C1689 C1690 1.362 . S
C1690 H1682 0.930 . S
C1690 C1689 1.362 . S
C1690 C1693 1.409 . S
C1691 H1683 0.930 . S
C1691 C1692 1.355 . S
C1691 C1693 1.415 . S
C1692 C1691 1.355 . S
C1692 C1694 1.419 . S
C1693 C1688 1.425 . S
C1693 C1690 1.409 . S
C1693 C1691 1.415 . S
C1694 H1684 0.930 . S
C1694 C1692 1.419 . S
C1694 C1695 1.362 . S
C1695 H1685 0.930 . S
C1695 C1688 1.409 . S
C1695 C1694 1.362 . S
H1696 C1702 0.930 . S
H1697 C1705 0.930 . S
H1698 C1706 0.930 . S
H1699 C1707 0.930 . S
H1700 C1710 0.930 . S
H1701 C1711 0.930 . S
C1702 H1696 0.930 . S
C1702 C1703 1.355 . S
C1702 C1704 1.415 . S
C1703 C1702 1.355 . S
C1703 C1705 1.419 . S
C1704 C1702 1.415 . S
C1704 C1709 1.425 . S
C1704 C1711 1.409 . S
C1705 H1697 0.930 . S
C1705 C1703 1.419 . S
C1705 C1706 1.362 . S
C1706 H1698 0.930 . S
C1706 C1705 1.362 . S
C1706 C1709 1.409 . S
C1707 H1699 0.930 . S
C1707 C1708 1.355 . S
C1707 C1709 1.415 . S
C1708 C1707 1.355 . S
C1708 C1710 1.419 . S
C1709 C1704 1.425 . S
C1709 C1706 1.409 . S
C1709 C1707 1.415 . S
C1710 H1700 0.930 . S
C1710 C1708 1.419 . S
C1710 C1711 1.362 . S
C1711 H1701 0.930 . S
C1711 C1704 1.409 . S
C1711 C1710 1.362 . S
H1712 C1718 0.930 . S
H1713 C1721 0.930 . S
H1714 C1722 0.930 . S
H1715 C1723 0.930 . S
H1716 C1726 0.930 . S
H1717 C1727 0.930 . S
C1718 H1712 0.930 . S
C1718 C1719 1.355 . S
C1718 C1720 1.415 . S
C1719 C1718 1.355 . S
C1719 C1721 1.419 . S
C1720 C1718 1.415 . S
C1720 C1725 1.425 . S
C1720 C1727 1.409 . S
C1721 H1713 0.930 . S
C1721 C1719 1.419 . S
C1721 C1722 1.362 . S
C1722 H1714 0.930 . S
C1722 C1721 1.362 . S
C1722 C1725 1.409 . S
C1723 H1715 0.930 . S
C1723 C1724 1.355 . S
C1723 C1725 1.415 . S
C1724 C1723 1.355 . S
C1724 C1726 1.419 . S
C1725 C1720 1.425 . S
C1725 C1722 1.409 . S
C1725 C1723 1.415 . S
C1726 H1716 0.930 . S
C1726 C1724 1.419 . S
C1726 C1727 1.362 . S
C1727 H1717 0.930 . S
C1727 C1720 1.409 . S
C1727 C1726 1.362 . S
H1728 C1734 0.930 . S
H1729 C1737 0.930 . S
H1730 C1738 0.930 . S
H1731 C1739 0.930 . S
H1732 C1742 0.930 . S
H1733 C1743 0.930 . S
C1734 H1728 0.930 . S
C1734 C1735 1.355 . S
C1734 C1736 1.415 . S
C1735 C1734 1.355 . S
C1735 C1737 1.419 . S
C1736 C1734 1.415 . S
C1736 C1741 1.425 . S
C1736 C1743 1.409 . S
C1737 H1729 0.930 . S
C1737 C1735 1.419 . S
C1737 C1738 1.362 . S
C1738 H1730 0.930 . S
C1738 C1737 1.362 . S
C1738 C1741 1.409 . S
C1739 H1731 0.930 . S
C1739 C1740 1.355 . S
C1739 C1741 1.415 . S
C1740 C1739 1.355 . S
C1740 C1742 1.419 . S
C1741 C1736 1.425 . S
C1741 C1738 1.409 . S
C1741 C1739 1.415 . S
C1742 H1732 0.930 . S
C1742 C1740 1.419 . S
C1742 C1743 1.362 . S
C1743 H1733 0.930 . S
C1743 C1736 1.409 . S
C1743 C1742 1.362 . S
H1744 C1750 0.930 . S
H1745 C1753 0.930 . S
H1746 C1754 0.930 . S
H1747 C1755 0.930 . S
H1748 C1758 0.930 . S
H1749 C1759 0.930 . S
C1750 H1744 0.930 . S
C1750 C1751 1.355 . S
C1750 C1752 1.415 . S
C1751 C1750 1.355 . S
C1751 C1753 1.419 . S
C1752 C1750 1.415 . S
C1752 C1757 1.425 . S
C1752 C1759 1.409 . S
C1753 H1745 0.930 . S
C1753 C1751 1.419 . S
C1753 C1754 1.362 . S
C1754 H1746 0.930 . S
C1754 C1753 1.362 . S
C1754 C1757 1.409 . S
C1755 H1747 0.930 . S
C1755 C1756 1.355 . S
C1755 C1757 1.415 . S
C1756 C1755 1.355 . S
C1756 C1758 1.419 . S
C1757 C1752 1.425 . S
C1757 C1754 1.409 . S
C1757 C1755 1.415 . S
C1758 H1748 0.930 . S
C1758 C1756 1.419 . S
C1758 C1759 1.362 . S
C1759 H1749 0.930 . S
C1759 C1752 1.409 . S
C1759 C1758 1.362 . S
H1760 C1766 0.930 . S
H1761 C1769 0.930 . S
H1762 C1770 0.930 . S
H1763 C1771 0.930 . S
H1764 C1774 0.930 . S
H1765 C1775 0.930 . S
C1766 H1760 0.930 . S
C1766 C1767 1.355 . S
C1766 C1768 1.415 . S
C1767 C1766 1.355 . S
C1767 C1769 1.419 . S
C1768 C1766 1.415 . S
C1768 C1773 1.425 . S
C1768 C1775 1.409 . S
C1769 H1761 0.930 . S
C1769 C1767 1.419 . S
C1769 C1770 1.362 . S
C1770 H1762 0.930 . S
C1770 C1769 1.362 . S
C1770 C1773 1.409 . S
C1771 H1763 0.930 . S
C1771 C1772 1.355 . S
C1771 C1773 1.415 . S
C1772 C1771 1.355 . S
C1772 C1774 1.419 . S
C1773 C1768 1.425 . S
C1773 C1770 1.409 . S
C1773 C1771 1.415 . S
C1774 H1764 0.930 . S
C1774 C1772 1.419 . S
C1774 C1775 1.362 . S
C1775 H1765 0.930 . S
C1775 C1768 1.409 . S
C1775 C1774 1.362 . S
H1776 C1782 0.930 . S
H1777 C1785 0.930 . S
H1778 C1786 0.930 . S
H1779 C1787 0.930 . S
H1780 C1790 0.930 . S
H1781 C1791 0.930 . S
C1782 H1776 0.930 . S
C1782 C1783 1.355 . S
C1782 C1784 1.415 . S
C1783 C1782 1.355 . S
C1783 C1785 1.419 . S
C1784 C1782 1.415 . S
C1784 C1789 1.425 . S
C1784 C1791 1.409 . S
C1785 H1777 0.930 . S
C1785 C1783 1.419 . S
C1785 C1786 1.362 . S
C1786 H1778 0.930 . S
C1786 C1785 1.362 . S
C1786 C1789 1.409 . S
C1787 H1779 0.930 . S
C1787 C1788 1.355 . S
C1787 C1789 1.415 . S
C1788 C1787 1.355 . S
C1788 C1790 1.419 . S
C1789 C1784 1.425 . S
C1789 C1786 1.409 . S
C1789 C1787 1.415 . S
C1790 H1780 0.930 . S
C1790 C1788 1.419 . S
C1790 C1791 1.362 . S
C1791 H1781 0.930 . S
C1791 C1784 1.409 . S
C1791 C1790 1.362 . S
H1792 C1798 0.930 . S
H1793 C1801 0.930 . S
H1794 C1802 0.930 . S
H1795 C1803 0.930 . S
H1796 C1806 0.930 . S
H1797 C1807 0.930 . S
C1798 H1792 0.930 . S
C1798 C1799 1.355 . S
C1798 C1800 1.415 . S
C1799 C1798 1.355 . S
C1799 C1801 1.419 . S
C1800 C1798 1.415 . S
C1800 C1805 1.425 . S
C1800 C1807 1.409 . S
C1801 H1793 0.930 . S
C1801 C1799 1.419 . S
C1801 C1802 1.362 . S
C1802 H1794 0.930 . S
C1802 C1801 1.362 . S
C1802 C1805 1.409 . S
C1803 H1795 0.930 . S
C1803 C1804 1.355 . S
C1803 C1805 1.415 . S
C1804 C1803 1.355 . S
C1804 C1806 1.419 . S
C1805 C1800 1.425 . S
C1805 C1802 1.409 . S
C1805 C1803 1.415 . S
C1806 H1796 0.930 . S
C1806 C1804 1.419 . S
C1806 C1807 1.362 . S
C1807 H1797 0.930 . S
C1807 C1800 1.409 . S
C1807 C1806 1.362 . S
H1808 C1814 0.930 . S
H1809 C1817 0.930 . S
H1810 C1818 0.930 . S
H1811 C1819 0.930 . S
H1812 C1822 0.930 . S
H1813 C1823 0.930 . S
C1814 H1808 0.930 . S
C1814 C1815 1.355 . S
C1814 C1816 1.415 . S
C1815 C1814 1.355 . S
C1815 C1817 1.419 . S
C1816 C1814 1.415 . S
C1816 C1821 1.425 . S
C1816 C1823 1.409 . S
C1817 H1809 0.930 . S
C1817 C1815 1.419 . S
C1817 C1818 1.362 . S
C1818 H1810 0.930 . S
C1818 C1817 1.362 . S
C1818 C1821 1.409 . S
C1819 H1811 0.930 . S
C1819 C1820 1.355 . S
C1819 C1821 1.415 . S
C1820 C1819 1.355 . S
C1820 C1822 1.419 . S
C1821 C1816 1.425 . S
C1821 C1818 1.409 . S
C1821 C1819 1.415 . S
C1822 H1812 0.930 . S
C1822 C1820 1.419 . S
C1822 C1823 1.362 . S
C1823 H1813 0.930 . S
C1823 C1816 1.409 . S
C1823 C1822 1.362 . S
H1824 C1830 0.930 . S
H1825 C1833 0.930 . S
H1826 C1834 0.930 . S
H1827 C1835 0.930 . S
H1828 C1838 0.930 . S
H1829 C1839 0.930 . S
C1830 H1824 0.930 . S
C1830 C1831 1.355 . S
C1830 C1832 1.415 . S
C1831 C1830 1.355 . S
C1831 C1833 1.419 . S
C1832 C1830 1.415 . S
C1832 C1837 1.425 . S
C1832 C1839 1.409 . S
C1833 H1825 0.930 . S
C1833 C1831 1.419 . S
C1833 C1834 1.362 . S
C1834 H1826 0.930 . S
C1834 C1833 1.362 . S
C1834 C1837 1.409 . S
C1835 H1827 0.930 . S
C1835 C1836 1.355 . S
C1835 C1837 1.415 . S
C1836 C1835 1.355 . S
C1836 C1838 1.419 . S
C1837 C1832 1.425 . S
C1837 C1834 1.409 . S
C1837 C1835 1.415 . S
C1838 H1828 0.930 . S
C1838 C1836 1.419 . S
C1838 C1839 1.362 . S
C1839 H1829 0.930 . S
C1839 C1832 1.409 . S
C1839 C1838 1.362 . S
H1840 C1846 0.930 . S
H1841 C1849 0.930 . S
H1842 C1850 0.930 . S
H1843 C1851 0.930 . S
H1844 C1854 0.930 . S
H1845 C1855 0.930 . S
C1846 H1840 0.930 . S
C1846 C1847 1.355 . S
C1846 C1848 1.415 . S
C1847 C1846 1.355 . S
C1847 C1849 1.419 . S
C1848 C1846 1.415 . S
C1848 C1853 1.425 . S
C1848 C1855 1.409 . S
C1849 H1841 0.930 . S
C1849 C1847 1.419 . S
C1849 C1850 1.362 . S
C1850 H1842 0.930 . S
C1850 C1849 1.362 . S
C1850 C1853 1.409 . S
C1851 H1843 0.930 . S
C1851 C1852 1.355 . S
C1851 C1853 1.415 . S
C1852 C1851 1.355 . S
C1852 C1854 1.419 . S
C1853 C1848 1.425 . S
C1853 C1850 1.409 . S
C1853 C1851 1.415 . S
C1854 H1844 0.930 . S
C1854 C1852 1.419 . S
C1854 C1855 1.362 . S
C1855 H1845 0.930 . S
C1855 C1848 1.409 . S
C1855 C1854 1.362 . S
H1856 C1862 0.930 . S
H1857 C1865 0.930 . S
H1858 C1866 0.930 . S
H1859 C1867 0.930 . S
H1860 C1870 0.930 . S
H1861 C1871 0.930 . S
C1862 H1856 0.930 . S
C1862 C1863 1.355 . S
C1862 C1864 1.415 . S
C1863 C1862 1.355 . S
C1863 C1865 1.419 . S
C1864 C1862 1.415 . S
C1864 C1869 1.425 . S
C1864 C1871 1.409 . S
C1865 H1857 0.930 . S
C1865 C1863 1.419 . S
C1865 C1866 1.362 . S
C1866 H1858 0.930 . S
C1866 C1865 1.362 . S
C1866 C1869 1.409 . S
C1867 H1859 0.930 . S
C1867 C1868 1.355 . S
C1867 C1869 1.415 . S
C1868 C1867 1.355 . S
C1868 C1870 1.419 . S
C1869 C1864 1.425 . S
C1869 C1866 1.409 . S
C1869 C1867 1.415 . S
C1870 H1860 0.930 . S
C1870 C1868 1.419 . S
C1870 C1871 1.362 . S
C1871 H1861 0.930 . S
C1871 C1864 1.409 . S
C1871 C1870 1.362 . S
H1872 C1878 0.930 . S
H1873 C1881 0.930 . S
H1874 C1882 0.930 . S
H1875 C1883 0.930 . S
H1876 C1886 0.930 . S
H1877 C1887 0.930 . S
C1878 H1872 0.930 . S
C1878 C1879 1.355 . S
C1878 C1880 1.415 . S
C1879 C1878 1.355 . S
C1879 C1881 1.419 . S
C1880 C1878 1.415 . S
C1880 C1885 1.425 . S
C1880 C1887 1.409 . S
C1881 H1873 0.930 . S
C1881 C1879 1.419 . S
C1881 C1882 1.362 . S
C1882 H1874 0.930 . S
C1882 C1881 1.362 . S
C1882 C1885 1.409 . S
C1883 H1875 0.930 . S
C1883 C1884 1.355 . S
C1883 C1885 1.415 . S
C1884 C1883 1.355 . S
C1884 C1886 1.419 . S
C1885 C1880 1.425 . S
C1885 C1882 1.409 . S
C1885 C1883 1.415 . S
C1886 H1876 0.930 . S
C1886 C1884 1.419 . S
C1886 C1887 1.362 . S
C1887 H1877 0.930 . S
C1887 C1880 1.409 . S
C1887 C1886 1.362 . S
H1888 C1894 0.930 . S
H1889 C1897 0.930 . S
H1890 C1898 0.930 . S
H1891 C1899 0.930 . S
H1892 C1902 0.930 . S
H1893 C1903 0.930 . S
C1894 H1888 0.930 . S
C1894 C1895 1.355 . S
C1894 C1896 1.415 . S
C1895 C1894 1.355 . S
C1895 C1897 1.419 . S
C1896 C1894 1.415 . S
C1896 C1901 1.425 . S
C1896 C1903 1.409 . S
C1897 H1889 0.930 . S
C1897 C1895 1.419 . S
C1897 C1898 1.362 . S
C1898 H1890 0.930 . S
C1898 C1897 1.362 . S
C1898 C1901 1.409 . S
C1899 H1891 0.930 . S
C1899 C1900 1.355 . S
C1899 C1901 1.415 . S
C1900 C1899 1.355 . S
C1900 C1902 1.419 . S
C1901 C1896 1.425 . S
C1901 C1898 1.409 . S
C1901 C1899 1.415 . S
C1902 H1892 0.930 . S
C1902 C1900 1.419 . S
C1902 C1903 1.362 . S
C1903 H1893 0.930 . S
C1903 C1896 1.409 . S
C1903 C1902 1.362 . S
H1904 C1910 0.930 . S
H1905 C1913 0.930 . S
H1906 C1914 0.930 . S
H1907 C1915 0.930 . S
H1908 C1918 0.930 . S
H1909 C1919 0.930 . S
C1910 H1904 0.930 . S
C1910 C1911 1.355 . S
C1910 C1912 1.415 . S
C1911 C1910 1.355 . S
C1911 C1913 1.419 . S
C1912 C1910 1.415 . S
C1912 C1917 1.425 . S
C1912 C1919 1.409 . S
C1913 H1905 0.930 . S
C1913 C1911 1.419 . S
C1913 C1914 1.362 . S
C1914 H1906 0.930 . S
C1914 C1913 1.362 . S
C1914 C1917 1.409 . S
C1915 H1907 0.930 . S
C1915 C1916 1.355 . S
C1915 C1917 1.415 . S
C1916 C1915 1.355 . S
C1916 C1918 1.419 . S
C1917 C1912 1.425 . S
C1917 C1914 1.409 . S
C1917 C1915 1.415 . S
C1918 H1908 0.930 . S
C1918 C1916 1.419 . S
C1918 C1919 1.362 . S
C1919 H1909 0.930 . S
C1919 C1912 1.409 . S
C1919 C1918 1.362 . S
H1920 C1926 0.930 . S
H1921 C1929 0.930 . S
H1922 C1930 0.930 . S
H1923 C1931 0.930 . S
H1924 C1934 0.930 . S
H1925 C1935 0.930 . S
C1926 H1920 0.930 . S
C1926 C1927 1.355 . S
C1926 C1928 1.415 . S
C1927 C1926 1.355 . S
C1927 C1929 1.419 . S
C1928 C1926 1.415 . S
C1928 C1933 1.425 . S
C1928 C1935 1.409 . S
C1929 H1921 0.930 . S
C1929 C1927 1.419 . S
C1929 C1930 1.362 . S
C1930 H1922 0.930 . S
C1930 C1929 1.362 . S
C1930 C1933 1.409 . S
C1931 H1923 0.930 . S
C1931 C1932 1.355 . S
C1931 C1933 1.415 . S
C1932 C1931 1.355 . S
C1932 C1934 1.419 . S
C1933 C1928 1.425 . S
C1933 C1930 1.409 . S
C1933 C1931 1.415 . S
C1934 H1924 0.930 . S
C1934 C1932 1.419 . S
C1934 C1935 1.362 . S
C1935 H1925 0.930 . S
C1935 C1928 1.409 . S
C1935 C1934 1.362 . S
H1936 C1942 0.930 . S
H1937 C1945 0.930 . S
H1938 C1946 0.930 . S
H1939 C1947 0.930 . S
H1940 C1950 0.930 . S
H1941 C1951 0.930 . S
C1942 H1936 0.930 . S
C1942 C1943 1.355 . S
C1942 C1944 1.415 . S
C1943 C1942 1.355 . S
C1943 C1945 1.419 . S
C1944 C1942 1.415 . S
C1944 C1949 1.425 . S
C1944 C1951 1.409 . S
C1945 H1937 0.930 . S
C1945 C1943 1.419 . S
C1945 C1946 1.362 . S
C1946 H1938 0.930 . S
C1946 C1945 1.362 . S
C1946 C1949 1.409 . S
C1947 H1939 0.930 . S
C1947 C1948 1.355 . S
C1947 C1949 1.415 . S
C1948 C1947 1.355 . S
C1948 C1950 1.419 . S
C1949 C1944 1.425 . S
C1949 C1946 1.409 . S
C1949 C1947 1.415 . S
C1950 H1940 0.930 . S
C1950 C1948 1.419 . S
C1950 C1951 1.362 . S
C1951 H1941 0.930 . S
C1951 C1944 1.409 . S
C1951 C1950 1.362 . S
H1952 C1958 0.930 . S
H1953 C1961 0.930 . S
H1954 C1962 0.930 . S
H1955 C1963 0.930 . S
H1956 C1966 0.930 . S
H1957 C1967 0.930 . S
C1958 H1952 0.930 . S
C1958 C1959 1.355 . S
C1958 C1960 1.415 . S
C1959 C1958 1.355 . S
C1959 C1961 1.419 . S
C1960 C1958 1.415 . S
C1960 C1965 1.425 . S
C1960 C1967 1.409 . S
C1961 H1953 0.930 . S
C1961 C1959 1.419 . S
C1961 C1962 1.362 . S
C1962 H1954 0.930 . S
C1962 C1961 1.362 . S
C1962 C1965 1.409 . S
C1963 H1955 0.930 . S
C1963 C1964 1.355 . S
C1963 C1965 1.415 . S
C1964 C1963 1.355 . S
C1964 C1966 1.419 . S
C1965 C1960 1.425 . S
C1965 C1962 1.409 . S
C1965 C1963 1.415 . S
C1966 H1956 0.930 . S
C1966 C1964 1.419 . S
C1966 C1967 1.362 . S
C1967 H1957 0.930 . S
C1967 C1960 1.409 . S
C1967 C1966 1.362 . S
H1968 C1974 0.930 . S
H1969 C1977 0.930 . S
H1970 C1978 0.930 . S
H1971 C1979 0.930 . S
H1972 C1982 0.930 . S
H1973 C1983 0.930 . S
C1974 H1968 0.930 . S
C1974 C1975 1.355 . S
C1974 C1976 1.415 . S
C1975 C1974 1.355 . S
C1975 C1977 1.419 . S
C1976 C1974 1.415 . S
C1976 C1981 1.425 . S
C1976 C1983 1.409 . S
C1977 H1969 0.930 . S
C1977 C1975 1.419 . S
C1977 C1978 1.362 . S
C1978 H1970 0.930 . S
C1978 C1977 1.362 . S
C1978 C1981 1.409 . S
C1979 H1971 0.930 . S
C1979 C1980 1.355 . S
C1979 C1981 1.415 . S
C1980 C1979 1.355 . S
C1980 C1982 1.419 . S
C1981 C1976 1.425 . S
C1981 C1978 1.409 . S
C1981 C1979 1.415 . S
C1982 H1972 0.930 . S
C1982 C1980 1.419 . S
C1982 C1983 1.362 . S
C1983 H1973 0.930 . S
C1983 C1976 1.409 . S
C1983 C1982 1.362 . S
H1984 C1990 0.930 . S
H1985 C1993 0.930 . S
H1986 C1994 0.930 . S
H1987 C1995 0.930 . S
H1988 C1998 0.930 . S
H1989 C1999 0.930 . S
C1990 H1984 0.930 . S
C1990 C1991 1.355 . S
C1990 C1992 1.415 . S
C1991 C1990 1.355 . S
C1991 C1993 1.419 . S
C1992 C1990 1.415 . S
C1992 C1997 1.425 . S
C1992 C1999 1.409 . S
C1993 H1985 0.930 . S
C1993 C1991 1.419 . S
C1993 C1994 1.362 . S
C1994 H1986 0.930 . S
C1994 C1993 1.362 . S
C1994 C1997 1.409 . S
C1995 H1987 0.930 . S
C1995 C1996 1.355 . S
C1995 C1997 1.415 . S
C1996 C1995 1.355 . S
C1996 C1998 1.419 . S
C1997 C1992 1.425 . S
C1997 C1994 1.409 . S
C1997 C1995 1.415 . S
C1998 H1988 0.930 . S
C1998 C1996 1.419 . S
C1998 C1999 1.362 . S
C1999 H1989 0.930 . S
C1999 C1992 1.409 . S
C1999 C1998 1.362 . S
H2000 C2006 0.930 . S
H2001 C2009 0.930 . S
H2002 C2010 0.930 . S
H2003 C2011 0.930 . S
H2004 C2014 0.930 . S
H2005 C2015 0.930 . S
C2006 H2000 0.930 . S
C2006 C2007 1.355 . S
C2006 C2008 1.415 . S
C2007 C2006 1.355 . S
C2007 C2009 1.419 . S
C2008 C2006 1.415 . S
C2008 C2013 1.425 . S
C2008 C2015 1.409 . S
C2009 H2001 0.930 . S
C2009 C2007 1.419 . S
C2009 C2010 1.362 . S
C2010 H2002 0.930 . S
C2010 C2009 1.362 . S
C2010 C2013 1.409 . S
C2011 H2003 0.930 . S
C2011 C2012 1.355 . S
C2011 C2013 1.415 . S
C2012 C2011 1.355 . S
C2012 C2014 1.419 . S
C2013 C2008 1.425 . S
C2013 C2010 1.409 . S
C2013 C2011 1.415 . S
C2014 H2004 0.930 . S
C2014 C2012 1.419 . S
C2014 C2015 1.362 . S
C2015 H2005 0.930 . S
C2015 C2008 1.409 . S
C2015 C2014 1.362 . S
H2016 C2022 0.930 . S
H2017 C2025 0.930 1_455 S
H2018 C2026 0.930 . S
H2019 C2027 0.930 . S
H2020 C2030 0.930 . S
H2021 C2031 0.930 . S
C2022 H2016 0.930 . S
C2022 C2023 1.355 . S
C2022 C2024 1.415 . S
C2023 C2022 1.355 . S
C2023 C2025 1.419 . S
C2024 C2022 1.415 . S
C2024 C2029 1.425 . S
C2024 C2031 1.409 . S
C2025 H2017 0.930 1_655 S
C2025 C2023 1.419 . S
C2025 C2026 1.362 . S
C2026 H2018 0.930 . S
C2026 C2025 1.362 . S
C2026 C2029 1.409 . S
C2027 H2019 0.930 . S
C2027 C2028 1.355 . S
C2027 C2029 1.415 . S
C2028 C2027 1.355 . S
C2028 C2030 1.419 . S
C2029 C2024 1.425 . S
C2029 C2026 1.409 . S
C2029 C2027 1.415 . S
C2030 H2020 0.930 . S
C2030 C2028 1.419 . S
C2030 C2031 1.362 . S
C2031 H2021 0.930 . S
C2031 C2024 1.409 . S
C2031 C2030 1.362 . S
H2032 C2038 0.930 . S
H2033 C2041 0.930 . S
H2034 C2042 0.930 . S
H2035 C2043 0.930 . S
H2036 C2046 0.930 . S
H2037 C2047 0.930 . S
C2038 H2032 0.930 . S
C2038 C2039 1.355 . S
C2038 C2040 1.415 . S
C2039 C2038 1.355 . S
C2039 C2041 1.419 . S
C2040 C2038 1.415 . S
C2040 C2045 1.425 . S
C2040 C2047 1.409 . S
C2041 H2033 0.930 . S
C2041 C2039 1.419 . S
C2041 C2042 1.362 . S
C2042 H2034 0.930 . S
C2042 C2041 1.362 . S
C2042 C2045 1.409 . S
C2043 H2035 0.930 . S
C2043 C2044 1.355 . S
C2043 C2045 1.415 . S
C2044 C2043 1.355 . S
C2044 C2046 1.419 . S
C2045 C2040 1.425 . S
C2045 C2042 1.409 . S
C2045 C2043 1.415 . S
C2046 H2036 0.930 . S
C2046 C2044 1.419 . S
C2046 C2047 1.362 . S
C2047 H2037 0.930 . S
C2047 C2040 1.409 . S
C2047 C2046 1.362 . S
H2048 C2054 0.930 . S
H2049 C2057 0.930 . S
H2050 C2058 0.930 . S
H2051 C2059 0.930 . S
H2052 C2062 0.930 . S
H2053 C2063 0.930 . S
C2054 H2048 0.930 . S
C2054 C2055 1.355 . S
C2054 C2056 1.415 . S
C2055 C2054 1.355 . S
C2055 C2057 1.419 . S
C2056 C2054 1.415 . S
C2056 C2061 1.425 . S
C2056 C2063 1.409 . S
C2057 H2049 0.930 . S
C2057 C2055 1.419 . S
C2057 C2058 1.362 . S
C2058 H2050 0.930 . S
C2058 C2057 1.362 . S
C2058 C2061 1.409 . S
C2059 H2051 0.930 . S
C2059 C2060 1.355 . S
C2059 C2061 1.415 . S
C2060 C2059 1.355 . S
C2060 C2062 1.419 . S
C2061 C2056 1.425 . S
C2061 C2058 1.409 . S
C2061 C2059 1.415 . S
C2062 H2052 0.930 . S
C2062 C2060 1.419 . S
C2062 C2063 1.362 . S
C2063 H2053 0.930 . S
C2063 C2056 1.409 . S
C2063 C2062 1.362 . S
H2064 C2070 0.930 1_556 S
H2065 C2073 0.930 . S
H2066 C2074 0.930 . S
H2067 C2075 0.930 . S
H2068 C2078 0.930 . S
H2069 C2079 0.930 . S
C2070 H2064 0.930 1_554 S
C2070 C2071 1.355 . S
C2070 C2072 1.415 . S
C2071 C2070 1.355 . S
C2071 C2073 1.419 . S
C2072 C2070 1.415 . S
C2072 C2077 1.425 . S
C2072 C2079 1.409 . S
C2073 H2065 0.930 . S
C2073 C2071 1.419 . S
C2073 C2074 1.362 . S
C2074 H2066 0.930 . S
C2074 C2073 1.362 . S
C2074 C2077 1.409 . S
C2075 H2067 0.930 . S
C2075 C2076 1.355 . S
C2075 C2077 1.415 . S
C2076 C2075 1.355 . S
C2076 C2078 1.419 . S
C2077 C2072 1.425 . S
C2077 C2074 1.409 . S
C2077 C2075 1.415 . S
C2078 H2068 0.930 . S
C2078 C2076 1.419 . S
C2078 C2079 1.362 . S
C2079 H2069 0.930 . S
C2079 C2072 1.409 . S
C2079 C2078 1.362 . S
H2080 C2086 0.930 . S
H2081 C2089 0.930 . S
H2082 C2090 0.930 1_455 S
H2083 C2091 0.930 . S
H2084 C2094 0.930 . S
H2085 C2095 0.930 . S
C2086 H2080 0.930 . S
C2086 C2087 1.355 . S
C2086 C2088 1.415 . S
C2087 C2086 1.355 . S
C2087 C2089 1.419 1_655 S
C2088 C2086 1.415 . S
C2088 C2093 1.425 . S
C2088 C2095 1.409 . S
C2089 H2081 0.930 . S
C2089 C2087 1.419 1_455 S
C2089 C2090 1.362 1_455 S
C2090 H2082 0.930 1_655 S
C2090 C2089 1.362 1_655 S
C2090 C2093 1.409 . S
C2091 H2083 0.930 . S
C2091 C2092 1.355 . S
C2091 C2093 1.415 . S
C2092 C2091 1.355 . S
C2092 C2094 1.419 . S
C2093 C2088 1.425 . S
C2093 C2090 1.409 . S
C2093 C2091 1.415 . S
C2094 H2084 0.930 . S
C2094 C2092 1.419 . S
C2094 C2095 1.362 . S
C2095 H2085 0.930 . S
C2095 C2088 1.409 . S
C2095 C2094 1.362 . S
H2096 C2102 0.930 . S
H2097 C2105 0.930 . S
H2098 C2106 0.930 . S
H2099 C2107 0.930 . S
H2100 C2110 0.930 . S
H2101 C2111 0.930 . S
C2102 H2096 0.930 . S
C2102 C2103 1.355 . S
C2102 C2104 1.415 . S
C2103 C2102 1.355 . S
C2103 C2105 1.419 . S
C2104 C2102 1.415 . S
C2104 C2109 1.425 . S
C2104 C2111 1.409 . S
C2105 H2097 0.930 . S
C2105 C2103 1.419 . S
C2105 C2106 1.362 . S
C2106 H2098 0.930 . S
C2106 C2105 1.362 . S
C2106 C2109 1.409 . S
C2107 H2099 0.930 . S
C2107 C2108 1.355 . S
C2107 C2109 1.415 . S
C2108 C2107 1.355 . S
C2108 C2110 1.419 . S
C2109 C2104 1.425 . S
C2109 C2106 1.409 . S
C2109 C2107 1.415 . S
C2110 H2100 0.930 . S
C2110 C2108 1.419 . S
C2110 C2111 1.362 . S
C2111 H2101 0.930 . S
C2111 C2104 1.409 . S
C2111 C2110 1.362 . S
H2112 C2118 0.930 . S
H2113 C2121 0.930 . S
H2114 C2122 0.930 . S
H2115 C2123 0.930 . S
H2116 C2126 0.930 . S
H2117 C2127 0.930 . S
C2118 H2112 0.930 . S
C2118 C2119 1.355 . S
C2118 C2120 1.415 . S
C2119 C2118 1.355 . S
C2119 C2121 1.419 . S
C2120 C2118 1.415 . S
C2120 C2125 1.425 . S
C2120 C2127 1.409 . S
C2121 H2113 0.930 . S
C2121 C2119 1.419 . S
C2121 C2122 1.362 . S
C2122 H2114 0.930 . S
C2122 C2121 1.362 . S
C2122 C2125 1.409 . S
C2123 H2115 0.930 . S
C2123 C2124 1.355 . S
C2123 C2125 1.415 . S
C2124 C2123 1.355 . S
C2124 C2126 1.419 . S
C2125 C2120 1.425 . S
C2125 C2122 1.409 . S
C2125 C2123 1.415 . S
C2126 H2116 0.930 . S
C2126 C2124 1.419 . S
C2126 C2127 1.362 . S
C2127 H2117 0.930 . S
C2127 C2120 1.409 . S
C2127 C2126 1.362 . S
H2128 C2134 0.930 . S
H2129 C2137 0.930 . S
H2130 C2138 0.930 . S
H2131 C2139 0.930 . S
H2132 C2142 0.930 . S
H2133 C2143 0.930 1_554 S
C2134 H2128 0.930 . S
C2134 C2135 1.355 . S
C2134 C2136 1.415 . S
C2135 C2134 1.355 . S
C2135 C2137 1.419 . S
C2136 C2134 1.415 . S
C2136 C2141 1.425 . S
C2136 C2143 1.409 . S
C2137 H2129 0.930 . S
C2137 C2135 1.419 . S
C2137 C2138 1.362 . S
C2138 H2130 0.930 . S
C2138 C2137 1.362 . S
C2138 C2141 1.409 . S
C2139 H2131 0.930 . S
C2139 C2140 1.355 . S
C2139 C2141 1.415 . S
C2140 C2139 1.355 . S
C2140 C2142 1.419 1_556 S
C2141 C2136 1.425 . S
C2141 C2138 1.409 . S
C2141 C2139 1.415 . S
C2142 H2132 0.930 . S
C2142 C2140 1.419 1_554 S
C2142 C2143 1.362 1_554 S
C2143 H2133 0.930 1_556 S
C2143 C2136 1.409 . S
C2143 C2142 1.362 1_556 S
H2144 C2150 0.930 . S
H2145 C2153 0.930 . S
H2146 C2154 0.930 . S
H2147 C2155 0.930 . S
H2148 C2158 0.930 . S
H2149 C2159 0.930 . S
C2150 H2144 0.930 . S
C2150 C2151 1.355 . S
C2150 C2152 1.415 . S
C2151 C2150 1.355 . S
C2151 C2153 1.419 . S
C2152 C2150 1.415 . S
C2152 C2157 1.425 . S
C2152 C2159 1.409 . S
C2153 H2145 0.930 . S
C2153 C2151 1.419 . S
C2153 C2154 1.362 . S
C2154 H2146 0.930 . S
C2154 C2153 1.362 . S
C2154 C2157 1.409 . S
C2155 H2147 0.930 . S
C2155 C2156 1.355 . S
C2155 C2157 1.415 . S
C2156 C2155 1.355 . S
C2156 C2158 1.419 . S
C2157 C2152 1.425 . S
C2157 C2154 1.409 . S
C2157 C2155 1.415 . S
C2158 H2148 0.930 . S
C2158 C2156 1.419 . S
C2158 C2159 1.362 . S
C2159 H2149 0.930 . S
C2159 C2152 1.409 . S
C2159 C2158 1.362 . S
H2160 C2166 0.930 . S
H2161 C2169 0.930 . S
H2162 C2170 0.930 . S
H2163 C2171 0.930 . S
H2164 C2174 0.930 . S
H2165 C2175 0.930 . S
C2166 H2160 0.930 . S
C2166 C2167 1.355 . S
C2166 C2168 1.415 . S
C2167 C2166 1.355 . S
C2167 C2169 1.419 . S
C2168 C2166 1.415 . S
C2168 C2173 1.425 . S
C2168 C2175 1.409 . S
C2169 H2161 0.930 . S
C2169 C2167 1.419 . S
C2169 C2170 1.362 . S
C2170 H2162 0.930 . S
C2170 C2169 1.362 . S
C2170 C2173 1.409 . S
C2171 H2163 0.930 . S
C2171 C2172 1.355 . S
C2171 C2173 1.415 . S
C2172 C2171 1.355 . S
C2172 C2174 1.419 . S
C2173 C2168 1.425 . S
C2173 C2170 1.409 . S
C2173 C2171 1.415 . S
C2174 H2164 0.930 . S
C2174 C2172 1.419 . S
C2174 C2175 1.362 . S
C2175 H2165 0.930 . S
C2175 C2168 1.409 . S
C2175 C2174 1.362 . S
H2176 C2182 0.930 . S
H2177 C2185 0.923 1_565 S
H2178 C2186 0.930 . S
H2179 C2187 0.930 . S
H2180 C2190 0.930 . S
H2181 C2191 0.930 . S
C2182 H2176 0.930 . S
C2182 C2183 1.355 . S
C2182 C2184 1.415 . S
C2183 C2182 1.355 . S
C2183 C2185 1.419 . S
C2184 C2182 1.415 . S
C2184 C2189 1.425 . S
C2184 C2191 1.409 . S
C2185 H2177 0.923 1_545 S
C2185 C2183 1.419 . S
C2185 C2186 1.362 . S
C2186 H2178 0.930 . S
C2186 C2185 1.362 . S
C2186 C2189 1.409 . S
C2187 H2179 0.930 . S
C2187 C2188 1.355 . S
C2187 C2189 1.415 . S
C2188 C2187 1.355 . S
C2188 C2190 1.419 . S
C2189 C2184 1.425 . S
C2189 C2186 1.409 . S
C2189 C2187 1.415 . S
C2190 H2180 0.930 . S
C2190 C2188 1.419 . S
C2190 C2191 1.362 . S
C2191 H2181 0.930 . S
C2191 C2184 1.409 . S
C2191 C2190 1.362 . S
H2192 C2198 0.930 . S
H2193 C2201 0.930 . S
H2194 C2202 0.930 . S
H2195 C2203 0.930 1_545 S
H2196 C2206 0.930 . S
H2197 C2207 0.930 . S
C2198 H2192 0.930 . S
C2198 C2199 1.355 . S
C2198 C2200 1.415 . S
C2199 C2198 1.355 . S
C2199 C2201 1.419 . S
C2200 C2198 1.415 . S
C2200 C2205 1.425 . S
C2200 C2207 1.409 . S
C2201 H2193 0.930 . S
C2201 C2199 1.419 . S
C2201 C2202 1.362 . S
C2202 H2194 0.930 . S
C2202 C2201 1.362 . S
C2202 C2205 1.409 . S
C2203 H2195 0.930 1_565 S
C2203 C2204 1.355 . S
C2203 C2205 1.415 . S
C2204 C2203 1.355 . S
C2204 C2206 1.419 . S
C2205 C2200 1.425 . S
C2205 C2202 1.409 . S
C2205 C2203 1.415 . S
C2206 H2196 0.930 . S
C2206 C2204 1.419 . S
C2206 C2207 1.362 . S
C2207 H2197 0.930 . S
C2207 C2200 1.409 . S
C2207 C2206 1.362 . S
H2208 C2214 0.930 . S
H2209 C2217 0.930 . S
H2210 C2218 0.930 . S
H2211 C2219 0.930 1_556 S
H2212 C2222 0.930 . S
H2213 C2223 0.930 . S
C2214 H2208 0.930 . S
C2214 C2215 1.355 . S
C2214 C2216 1.415 . S
C2215 C2214 1.355 . S
C2215 C2217 1.419 . S
C2216 C2214 1.415 . S
C2216 C2221 1.425 . S
C2216 C2223 1.409 . S
C2217 H2209 0.930 . S
C2217 C2215 1.419 . S
C2217 C2218 1.362 . S
C2218 H2210 0.930 . S
C2218 C2217 1.362 . S
C2218 C2221 1.409 . S
C2219 H2211 0.930 1_554 S
C2219 C2220 1.355 . S
C2219 C2221 1.415 . S
C2220 C2219 1.355 . S
C2220 C2222 1.419 . S
C2221 C2216 1.425 . S
C2221 C2218 1.409 . S
C2221 C2219 1.415 . S
C2222 H2212 0.930 . S
C2222 C2220 1.419 . S
C2222 C2223 1.362 . S
C2223 H2213 0.930 . S
C2223 C2216 1.409 . S
C2223 C2222 1.362 . S
H2224 C2230 0.930 1_655 S
H2225 C2233 0.930 . S
H2226 C2234 0.930 . S
H2227 C2235 0.930 . S
H2228 C2238 0.930 . S
H2229 C2239 0.930 . S
C2230 H2224 0.930 1_455 S
C2230 C2231 1.355 . S
C2230 C2232 1.415 . S
C2231 C2230 1.355 . S
C2231 C2233 1.419 . S
C2232 C2230 1.415 . S
C2232 C2237 1.425 . S
C2232 C2239 1.409 . S
C2233 H2225 0.930 . S
C2233 C2231 1.419 . S
C2233 C2234 1.362 . S
C2234 H2226 0.930 . S
C2234 C2233 1.362 . S
C2234 C2237 1.409 . S
C2235 H2227 0.930 . S
C2235 C2236 1.355 . S
C2235 C2237 1.415 . S
C2236 C2235 1.355 . S
C2236 C2238 1.419 . S
C2237 C2232 1.425 . S
C2237 C2234 1.409 . S
C2237 C2235 1.415 . S
C2238 H2228 0.930 . S
C2238 C2236 1.419 . S
C2238 C2239 1.362 . S
C2239 H2229 0.930 . S
C2239 C2232 1.409 . S
C2239 C2238 1.362 . S
H2240 C2246 0.930 . S
H2241 C2249 0.930 . S
H2242 C2250 0.930 . S
H2243 C2251 0.930 . S
H2244 C2254 0.930 . S
H2245 C2255 0.930 . S
C2246 H2240 0.930 . S
C2246 C2247 1.355 . S
C2246 C2248 1.415 . S
C2247 C2246 1.355 . S
C2247 C2249 1.419 . S
C2248 C2246 1.415 . S
C2248 C2253 1.425 . S
C2248 C2255 1.409 . S
C2249 H2241 0.930 . S
C2249 C2247 1.419 . S
C2249 C2250 1.362 . S
C2250 H2242 0.930 . S
C2250 C2249 1.362 . S
C2250 C2253 1.409 . S
C2251 H2243 0.930 . S
C2251 C2252 1.355 . S
C2251 C2253 1.415 . S
C2252 C2251 1.355 . S
C2252 C2254 1.419 . S
C2253 C2248 1.425 . S
C2253 C2250 1.409 . S
C2253 C2251 1.415 . S
C2254 H2244 0.930 . S
C2254 C2252 1.419 . S
C2254 C2255 1.362 . S
C2255 H2245 0.930 . S
C2255 C2248 1.409 . S
C2255 C2254 1.362 . S
H2256 C2262 0.930 1_655 S
H2257 C2265 0.930 . S
H2258 C2266 0.930 . S
H2259 C2267 0.930 . S
H2260 C2270 0.930 . S
H2261 C2271 0.930 . S
C2262 H2256 0.930 1_455 S
C2262 C2263 1.355 . S
C2262 C2264 1.415 . S
C2263 C2262 1.355 . S
C2263 C2265 1.419 . S
C2264 C2262 1.415 . S
C2264 C2269 1.425 . S
C2264 C2271 1.409 . S
C2265 H2257 0.930 . S
C2265 C2263 1.419 . S
C2265 C2266 1.362 . S
C2266 H2258 0.930 . S
C2266 C2265 1.362 . S
C2266 C2269 1.409 . S
C2267 H2259 0.930 . S
C2267 C2268 1.355 . S
C2267 C2269 1.415 . S
C2268 C2267 1.355 . S
C2268 C2270 1.419 . S
C2269 C2264 1.425 . S
C2269 C2266 1.409 . S
C2269 C2267 1.415 . S
C2270 H2260 0.930 . S
C2270 C2268 1.419 . S
C2270 C2271 1.362 . S
C2271 H2261 0.930 . S
C2271 C2264 1.409 . S
C2271 C2270 1.362 . S
H2272 C2278 0.930 . S
H2273 C2281 0.930 . S
H2274 C2282 0.930 . S
H2275 C2283 0.930 . S
H2276 C2286 0.930 . S
H2277 C2287 0.930 . S
C2278 H2272 0.930 . S
C2278 C2279 1.355 . S
C2278 C2280 1.415 . S
C2279 C2278 1.355 . S
C2279 C2281 1.419 . S
C2280 C2278 1.415 . S
C2280 C2285 1.425 . S
C2280 C2287 1.409 . S
C2281 H2273 0.930 . S
C2281 C2279 1.419 . S
C2281 C2282 1.362 . S
C2282 H2274 0.930 . S
C2282 C2281 1.362 . S
C2282 C2285 1.409 . S
C2283 H2275 0.930 . S
C2283 C2284 1.355 . S
C2283 C2285 1.415 . S
C2284 C2283 1.355 . S
C2284 C2286 1.419 . S
C2285 C2280 1.425 . S
C2285 C2282 1.409 . S
C2285 C2283 1.415 . S
C2286 H2276 0.930 . S
C2286 C2284 1.419 . S
C2286 C2287 1.362 . S
C2287 H2277 0.930 . S
C2287 C2280 1.409 . S
C2287 C2286 1.362 . S
H2288 C2294 0.930 . S
H2289 C2297 0.930 . S
H2290 C2298 0.930 1_655 S
H2291 C2299 0.930 . S
H2292 C2302 0.930 . S
H2293 C2303 0.930 . S
C2294 H2288 0.930 . S
C2294 C2295 1.355 . S
C2294 C2296 1.415 . S
C2295 C2294 1.355 . S
C2295 C2297 1.419 1_455 S
C2296 C2294 1.415 . S
C2296 C2301 1.425 . S
C2296 C2303 1.409 . S
C2297 H2289 0.930 . S
C2297 C2295 1.419 1_655 S
C2297 C2298 1.362 1_655 S
C2298 H2290 0.930 1_455 S
C2298 C2297 1.362 1_455 S
C2298 C2301 1.409 . S
C2299 H2291 0.930 . S
C2299 C2300 1.355 . S
C2299 C2301 1.415 . S
C2300 C2299 1.355 . S
C2300 C2302 1.419 . S
C2301 C2296 1.425 . S
C2301 C2298 1.409 . S
C2301 C2299 1.415 . S
C2302 H2292 0.930 . S
C2302 C2300 1.419 . S
C2302 C2303 1.362 . S
C2303 H2293 0.930 . S
C2303 C2296 1.409 . S
C2303 C2302 1.362 . S
H2304 C2310 0.930 . S
H2305 C2313 0.930 . S
H2306 C2314 0.930 . S
H2307 C2315 0.930 . S
H2308 C2318 0.930 . S
H2309 C2319 0.930 . S
C2310 H2304 0.930 . S
C2310 C2311 1.355 . S
C2310 C2312 1.415 . S
C2311 C2310 1.355 . S
C2311 C2313 1.419 . S
C2312 C2310 1.415 . S
C2312 C2317 1.425 . S
C2312 C2319 1.409 . S
C2313 H2305 0.930 . S
C2313 C2311 1.419 . S
C2313 C2314 1.362 . S
C2314 H2306 0.930 . S
C2314 C2313 1.362 . S
C2314 C2317 1.409 . S
C2315 H2307 0.930 . S
C2315 C2316 1.355 . S
C2315 C2317 1.415 . S
C2316 C2315 1.355 . S
C2316 C2318 1.419 . S
C2317 C2312 1.425 . S
C2317 C2314 1.409 . S
C2317 C2315 1.415 . S
C2318 H2308 0.930 . S
C2318 C2316 1.419 . S
C2318 C2319 1.362 . S
C2319 H2309 0.930 . S
C2319 C2312 1.409 . S
C2319 C2318 1.362 . S
H2320 C2326 0.930 . S
H2321 C2329 0.930 . S
H2322 C2330 0.930 . S
H2323 C2331 0.930 . S
H2324 C2334 0.930 . S
H2325 C2335 0.930 . S
C2326 H2320 0.930 . S
C2326 C2327 1.355 . S
C2326 C2328 1.415 . S
C2327 C2326 1.355 . S
C2327 C2329 1.419 . S
C2328 C2326 1.415 . S
C2328 C2333 1.425 . S
C2328 C2335 1.409 . S
C2329 H2321 0.930 . S
C2329 C2327 1.419 . S
C2329 C2330 1.362 . S
C2330 H2322 0.930 . S
C2330 C2329 1.362 . S
C2330 C2333 1.409 . S
C2331 H2323 0.930 . S
C2331 C2332 1.355 . S
C2331 C2333 1.415 . S
C2332 C2331 1.355 . S
C2332 C2334 1.419 . S
C2333 C2328 1.425 . S
C2333 C2330 1.409 . S
C2333 C2331 1.415 . S
C2334 H2324 0.930 . S
C2334 C2332 1.419 . S
C2334 C2335 1.362 . S
C2335 H2325 0.930 . S
C2335 C2328 1.409 . S
C2335 C2334 1.362 . S
H2336 C2342 0.930 . S
H2337 C2345 0.930 . S
H2338 C2346 0.930 1_554 S
H2339 C2347 0.930 . S
H2340 C2350 0.930 . S
H2341 C2351 0.930 . S
C2342 H2336 0.930 . S
C2342 C2343 1.355 . S
C2342 C2344 1.415 . S
C2343 C2342 1.355 . S
C2343 C2345 1.419 1_556 S
C2344 C2342 1.415 . S
C2344 C2349 1.425 . S
C2344 C2351 1.409 . S
C2345 H2337 0.930 . S
C2345 C2343 1.419 1_554 S
C2345 C2346 1.362 1_554 S
C2346 H2338 0.930 1_556 S
C2346 C2345 1.362 1_556 S
C2346 C2349 1.409 . S
C2347 H2339 0.930 . S
C2347 C2348 1.355 . S
C2347 C2349 1.415 . S
C2348 C2347 1.355 . S
C2348 C2350 1.419 . S
C2349 C2344 1.425 . S
C2349 C2346 1.409 . S
C2349 C2347 1.415 . S
C2350 H2340 0.930 . S
C2350 C2348 1.419 . S
C2350 C2351 1.362 . S
C2351 H2341 0.930 . S
C2351 C2344 1.409 . S
C2351 C2350 1.362 . S
H2352 C2358 0.930 . S
H2353 C2361 0.930 . S
H2354 C2362 0.930 . S
H2355 C2363 0.930 . S
H2356 C2366 0.930 . S
H2357 C2367 0.930 . S
C2358 H2352 0.930 . S
C2358 C2359 1.355 . S
C2358 C2360 1.415 . S
C2359 C2358 1.355 . S
C2359 C2361 1.419 . S
C2360 C2358 1.415 . S
C2360 C2365 1.425 . S
C2360 C2367 1.409 . S
C2361 H2353 0.930 . S
C2361 C2359 1.419 . S
C2361 C2362 1.362 . S
C2362 H2354 0.930 . S
C2362 C2361 1.362 . S
C2362 C2365 1.409 . S
C2363 H2355 0.930 . S
C2363 C2364 1.355 . S
C2363 C2365 1.415 . S
C2364 C2363 1.355 . S
C2364 C2366 1.419 . S
C2365 C2360 1.425 . S
C2365 C2362 1.409 . S
C2365 C2363 1.415 . S
C2366 H2356 0.930 . S
C2366 C2364 1.419 . S
C2366 C2367 1.362 . S
C2367 H2357 0.930 . S
C2367 C2360 1.409 . S
C2367 C2366 1.362 . S
H2368 C2374 0.930 . S
H2369 C2377 0.930 . S
H2370 C2378 0.930 . S
H2371 C2379 0.930 . S
H2372 C2382 0.930 . S
H2373 C2383 0.930 . S
C2374 H2368 0.930 . S
C2374 C2375 1.355 . S
C2374 C2376 1.415 . S
C2375 C2374 1.355 . S
C2375 C2377 1.419 . S
C2376 C2374 1.415 . S
C2376 C2381 1.425 . S
C2376 C2383 1.409 . S
C2377 H2369 0.930 . S
C2377 C2375 1.419 . S
C2377 C2378 1.362 . S
C2378 H2370 0.930 . S
C2378 C2377 1.362 . S
C2378 C2381 1.409 . S
C2379 H2371 0.930 . S
C2379 C2380 1.355 . S
C2379 C2381 1.415 . S
C2380 C2379 1.355 . S
C2380 C2382 1.419 . S
C2381 C2376 1.425 . S
C2381 C2378 1.409 . S
C2381 C2379 1.415 . S
C2382 H2372 0.930 . S
C2382 C2380 1.419 . S
C2382 C2383 1.362 . S
C2383 H2373 0.930 . S
C2383 C2376 1.409 . S
C2383 C2382 1.362 . S
H2384 C2390 0.930 . S
H2385 C2393 0.930 . S
H2386 C2394 0.930 . S
H2387 C2395 0.930 . S
H2388 C2398 0.930 . S
H2389 C2399 0.930 . S
C2390 H2384 0.930 . S
C2390 C2391 1.355 . S
C2390 C2392 1.415 . S
C2391 C2390 1.355 . S
C2391 C2393 1.419 . S
C2392 C2390 1.415 . S
C2392 C2397 1.425 . S
C2392 C2399 1.409 . S
C2393 H2385 0.930 . S
C2393 C2391 1.419 . S
C2393 C2394 1.362 . S
C2394 H2386 0.930 . S
C2394 C2393 1.362 . S
C2394 C2397 1.409 . S
C2395 H2387 0.930 . S
C2395 C2396 1.355 . S
C2395 C2397 1.415 . S
C2396 C2395 1.355 . S
C2396 C2398 1.419 . S
C2397 C2392 1.425 . S
C2397 C2394 1.409 . S
C2397 C2395 1.415 . S
C2398 H2388 0.930 . S
C2398 C2396 1.419 . S
C2398 C2399 1.362 . S
C2399 H2389 0.930 . S
C2399 C2392 1.409 . S
C2399 C2398 1.362 . S
H2400 C2406 0.930 . S
H2401 C2409 0.930 . S
H2402 C2410 0.930 . S
H2403 C2411 0.930 . S
H2404 C2414 0.930 1_556 S
H2405 C2415 0.930 . S
C2406 H2400 0.930 . S
C2406 C2407 1.355 . S
C2406 C2408 1.415 . S
C2407 C2406 1.355 . S
C2407 C2409 1.419 . S
C2408 C2406 1.415 . S
C2408 C2413 1.425 . S
C2408 C2415 1.409 . S
C2409 H2401 0.930 . S
C2409 C2407 1.419 . S
C2409 C2410 1.362 . S
C2410 H2402 0.930 . S
C2410 C2409 1.362 . S
C2410 C2413 1.409 . S
C2411 H2403 0.930 . S
C2411 C2412 1.355 . S
C2411 C2413 1.415 . S
C2412 C2411 1.355 . S
C2412 C2414 1.419 . S
C2413 C2408 1.425 . S
C2413 C2410 1.409 . S
C2413 C2411 1.415 . S
C2414 H2404 0.930 1_554 S
C2414 C2412 1.419 . S
C2414 C2415 1.362 . S
C2415 H2405 0.930 . S
C2415 C2408 1.409 . S
C2415 C2414 1.362 . S
H2416 C2422 0.930 . S
H2417 C2425 0.930 . S
H2418 C2426 0.930 . S
H2419 C2427 0.930 . S
H2420 C2430 0.930 . S
H2421 C2431 0.930 1_565 S
C2422 H2416 0.930 . S
C2422 C2423 1.355 . S
C2422 C2424 1.415 . S
C2423 C2422 1.355 . S
C2423 C2425 1.419 . S
C2424 C2422 1.415 . S
C2424 C2429 1.425 . S
C2424 C2431 1.409 . S
C2425 H2417 0.930 . S
C2425 C2423 1.419 . S
C2425 C2426 1.362 . S
C2426 H2418 0.930 . S
C2426 C2425 1.362 . S
C2426 C2429 1.409 . S
C2427 H2419 0.930 . S
C2427 C2428 1.355 . S
C2427 C2429 1.415 . S
C2428 C2427 1.355 . S
C2428 C2430 1.419 1_545 S
C2429 C2424 1.425 . S
C2429 C2426 1.409 . S
C2429 C2427 1.415 . S
C2430 H2420 0.930 . S
C2430 C2428 1.419 1_565 S
C2430 C2431 1.362 1_565 S
C2431 H2421 0.930 1_545 S
C2431 C2424 1.409 . S
C2431 C2430 1.362 1_545 S
H2432 C2438 0.930 . S
H2433 C2441 0.930 . S
H2434 C2442 0.930 . S
H2435 C2443 0.930 . S
H2436 C2446 0.930 . S
H2437 C2447 0.930 1_545 S
C2438 H2432 0.930 . S
C2438 C2439 1.355 . S
C2438 C2440 1.415 . S
C2439 C2438 1.355 . S
C2439 C2441 1.419 . S
C2440 C2438 1.415 . S
C2440 C2445 1.425 . S
C2440 C2447 1.409 . S
C2441 H2433 0.930 . S
C2441 C2439 1.419 . S
C2441 C2442 1.362 . S
C2442 H2434 0.930 . S
C2442 C2441 1.362 . S
C2442 C2445 1.409 . S
C2443 H2435 0.930 . S
C2443 C2444 1.355 . S
C2443 C2445 1.415 . S
C2444 C2443 1.355 . S
C2444 C2446 1.419 1_565 S
C2445 C2440 1.425 . S
C2445 C2442 1.409 . S
C2445 C2443 1.415 . S
C2446 H2436 0.930 . S
C2446 C2444 1.419 1_545 S
C2446 C2447 1.362 1_545 S
C2447 H2437 0.930 1_565 S
C2447 C2440 1.409 . S
C2447 C2446 1.362 1_565 S
H2448 C2454 0.930 . S
H2449 C2457 0.930 . S
H2450 C2458 0.930 . S
H2451 C2459 0.930 . S
H2452 C2462 0.930 . S
H2453 C2463 0.930 . S
C2454 H2448 0.930 . S
C2454 C2455 1.355 . S
C2454 C2456 1.415 . S
C2455 C2454 1.355 . S
C2455 C2457 1.419 . S
C2456 C2454 1.415 . S
C2456 C2461 1.425 . S
C2456 C2463 1.409 . S
C2457 H2449 0.930 . S
C2457 C2455 1.419 . S
C2457 C2458 1.362 . S
C2458 H2450 0.930 . S
C2458 C2457 1.362 . S
C2458 C2461 1.409 . S
C2459 H2451 0.930 . S
C2459 C2460 1.355 . S
C2459 C2461 1.415 . S
C2460 C2459 1.355 . S
C2460 C2462 1.419 . S
C2461 C2456 1.425 . S
C2461 C2458 1.409 . S
C2461 C2459 1.415 . S
C2462 H2452 0.930 . S
C2462 C2460 1.419 . S
C2462 C2463 1.362 . S
C2463 H2453 0.930 . S
C2463 C2456 1.409 . S
C2463 C2462 1.362 . S
H2464 C2470 0.930 . S
H2465 C2473 0.930 . S
H2466 C2474 0.930 . S
H2467 C2475 0.930 . S
H2468 C2478 0.930 . S
H2469 C2479 0.929 . S
C2470 H2464 0.930 . S
C2470 C2471 1.355 . S
C2470 C2472 1.415 . S
C2471 C2470 1.355 . S
C2471 C2473 1.419 . S
C2472 C2470 1.415 . S
C2472 C2477 1.425 . S
C2472 C2479 1.409 . S
C2473 H2465 0.930 . S
C2473 C2471 1.419 . S
C2473 C2474 1.362 . S
C2474 H2466 0.930 . S
C2474 C2473 1.362 . S
C2474 C2477 1.409 . S
C2475 H2467 0.930 . S
C2475 C2476 1.355 . S
C2475 C2477 1.415 . S
C2476 C2475 1.355 . S
C2476 C2478 1.419 1_545 S
C2477 C2472 1.425 . S
C2477 C2474 1.409 . S
C2477 C2475 1.415 . S
C2478 H2468 0.930 . S
C2478 C2476 1.419 1_565 S
C2478 C2479 1.362 1_565 S
C2479 H2469 0.929 . S
C2479 C2472 1.409 . S
C2479 C2478 1.362 1_545 S
H2480 C2486 0.930 . S
H2481 C2489 0.930 . S
H2482 C2490 0.930 . S
H2483 C2491 0.930 . S
H2484 C2494 0.930 1_554 S
H2485 C2495 0.930 . S
C2486 H2480 0.930 . S
C2486 C2487 1.355 . S
C2486 C2488 1.415 . S
C2487 C2486 1.355 . S
C2487 C2489 1.419 . S
C2488 C2486 1.415 . S
C2488 C2493 1.425 . S
C2488 C2495 1.409 . S
C2489 H2481 0.930 . S
C2489 C2487 1.419 . S
C2489 C2490 1.362 . S
C2490 H2482 0.930 . S
C2490 C2489 1.362 . S
C2490 C2493 1.409 . S
C2491 H2483 0.930 . S
C2491 C2492 1.355 . S
C2491 C2493 1.415 . S
C2492 C2491 1.355 . S
C2492 C2494 1.419 . S
C2493 C2488 1.425 . S
C2493 C2490 1.409 . S
C2493 C2491 1.415 . S
C2494 H2484 0.930 1_556 S
C2494 C2492 1.419 . S
C2494 C2495 1.362 . S
C2495 H2485 0.930 . S
C2495 C2488 1.409 . S
C2495 C2494 1.362 . S
H2496 C2502 0.930 . S
H2497 C2505 0.930 . S
H2498 C2506 0.930 . S
H2499 C2507 0.930 1_455 S
H2500 C2510 0.930 . S
H2501 C2511 0.930 . S
C2502 H2496 0.930 . S
C2502 C2503 1.355 . S
C2502 C2504 1.415 . S
C2503 C2502 1.355 . S
C2503 C2505 1.419 . S
C2504 C2502 1.415 . S
C2504 C2509 1.425 . S
C2504 C2511 1.409 . S
C2505 H2497 0.930 . S
C2505 C2503 1.419 . S
C2505 C2506 1.362 . S
C2506 H2498 0.930 . S
C2506 C2505 1.362 . S
C2506 C2509 1.409 . S
C2507 H2499 0.930 1_655 S
C2507 C2508 1.355 . S
C2507 C2509 1.415 . S
C2508 C2507 1.355 . S
C2508 C2510 1.419 . S
C2509 C2504 1.425 . S
C2509 C2506 1.409 . S
C2509 C2507 1.415 . S
C2510 H2500 0.930 . S
C2510 C2508 1.419 . S
C2510 C2511 1.362 . S
C2511 H2501 0.930 . S
C2511 C2504 1.409 . S
C2511 C2510 1.362 . S
H2512 C2518 0.930 . S
H2513 C2521 0.930 . S
H2514 C2522 0.930 . S
H2515 C2523 0.930 . S
H2516 C2526 0.930 . S
H2517 C2527 0.930 . S
C2518 H2512 0.930 . S
C2518 C2519 1.355 . S
C2518 C2520 1.415 . S
C2519 C2518 1.355 . S
C2519 C2521 1.419 . S
C2520 C2518 1.415 . S
C2520 C2525 1.425 . S
C2520 C2527 1.409 . S
C2521 H2513 0.930 . S
C2521 C2519 1.419 . S
C2521 C2522 1.362 . S
C2522 H2514 0.930 . S
C2522 C2521 1.362 . S
C2522 C2525 1.409 . S
C2523 H2515 0.930 . S
C2523 C2524 1.355 . S
C2523 C2525 1.415 . S
C2524 C2523 1.355 . S
C2524 C2526 1.419 . S
C2525 C2520 1.425 . S
C2525 C2522 1.409 . S
C2525 C2523 1.415 . S
C2526 H2516 0.930 . S
C2526 C2524 1.419 . S
C2526 C2527 1.362 . S
C2527 H2517 0.930 . S
C2527 C2520 1.409 . S
C2527 C2526 1.362 . S
H2528 C2534 0.930 . S
H2529 C2537 0.930 . S
H2530 C2538 0.930 . S
H2531 C2539 0.930 . S
H2532 C2542 0.930 . S
H2533 C2543 0.930 1_455 S
C2534 H2528 0.930 . S
C2534 C2535 1.355 . S
C2534 C2536 1.415 . S
C2535 C2534 1.355 . S
C2535 C2537 1.419 . S
C2536 C2534 1.415 . S
C2536 C2541 1.425 . S
C2536 C2543 1.409 . S
C2537 H2529 0.930 . S
C2537 C2535 1.419 . S
C2537 C2538 1.362 . S
C2538 H2530 0.930 . S
C2538 C2537 1.362 . S
C2538 C2541 1.409 . S
C2539 H2531 0.930 . S
C2539 C2540 1.355 . S
C2539 C2541 1.415 . S
C2540 C2539 1.355 . S
C2540 C2542 1.419 1_655 S
C2541 C2536 1.425 . S
C2541 C2538 1.409 . S
C2541 C2539 1.415 . S
C2542 H2532 0.930 . S
C2542 C2540 1.419 1_455 S
C2542 C2543 1.362 1_455 S
C2543 H2533 0.930 1_655 S
C2543 C2536 1.409 . S
C2543 C2542 1.362 1_655 S
H2544 C2550 0.930 . S
H2545 C2553 0.930 . S
H2546 C2554 0.930 . S
H2547 C2555 0.930 . S
H2548 C2558 0.930 . S
H2549 C2559 0.930 . S
C2550 H2544 0.930 . S
C2550 C2551 1.355 . S
C2550 C2552 1.415 . S
C2551 C2550 1.355 . S
C2551 C2553 1.419 . S
C2552 C2550 1.415 . S
C2552 C2557 1.425 . S
C2552 C2559 1.409 . S
C2553 H2545 0.930 . S
C2553 C2551 1.419 . S
C2553 C2554 1.362 . S
C2554 H2546 0.930 . S
C2554 C2553 1.362 . S
C2554 C2557 1.409 . S
C2555 H2547 0.930 . S
C2555 C2556 1.355 . S
C2555 C2557 1.415 . S
C2556 C2555 1.355 . S
C2556 C2558 1.419 . S
C2557 C2552 1.425 . S
C2557 C2554 1.409 . S
C2557 C2555 1.415 . S
C2558 H2548 0.930 . S
C2558 C2556 1.419 . S
C2558 C2559 1.362 . S
C2559 H2549 0.930 . S
C2559 C2552 1.409 . S
C2559 C2558 1.362 . S
H2560 C2566 0.930 . S
H2561 C2569 0.930 . S
H2562 C2570 0.930 . S
H2563 C2571 0.930 . S
H2564 C2574 0.930 . S
H2565 C2575 0.930 . S
C2566 H2560 0.930 . S
C2566 C2567 1.355 . S
C2566 C2568 1.415 . S
C2567 C2566 1.355 . S
C2567 C2569 1.419 . S
C2568 C2566 1.415 . S
C2568 C2573 1.425 . S
C2568 C2575 1.409 . S
C2569 H2561 0.930 . S
C2569 C2567 1.419 . S
C2569 C2570 1.362 . S
C2570 H2562 0.930 . S
C2570 C2569 1.362 . S
C2570 C2573 1.409 . S
C2571 H2563 0.930 . S
C2571 C2572 1.355 . S
C2571 C2573 1.415 . S
C2572 C2571 1.355 . S
C2572 C2574 1.419 . S
C2573 C2568 1.425 . S
C2573 C2570 1.409 . S
C2573 C2571 1.415 . S
C2574 H2564 0.930 . S
C2574 C2572 1.419 . S
C2574 C2575 1.362 . S
C2575 H2565 0.930 . S
C2575 C2568 1.409 . S
C2575 C2574 1.362 . S
H2576 C2582 0.930 . S
H2577 C2585 0.930 . S
H2578 C2586 0.930 1_554 S
H2579 C2587 0.930 . S
H2580 C2590 0.930 . S
H2581 C2591 0.930 . S
C2582 H2576 0.930 . S
C2582 C2583 1.355 . S
C2582 C2584 1.415 . S
C2583 C2582 1.355 . S
C2583 C2585 1.419 1_556 S
C2584 C2582 1.415 . S
C2584 C2589 1.425 . S
C2584 C2591 1.409 . S
C2585 H2577 0.930 . S
C2585 C2583 1.419 1_554 S
C2585 C2586 1.362 1_554 S
C2586 H2578 0.930 1_556 S
C2586 C2585 1.362 1_556 S
C2586 C2589 1.409 . S
C2587 H2579 0.930 . S
C2587 C2588 1.355 . S
C2587 C2589 1.415 . S
C2588 C2587 1.355 . S
C2588 C2590 1.419 . S
C2589 C2584 1.425 . S
C2589 C2586 1.409 . S
C2589 C2587 1.415 . S
C2590 H2580 0.930 . S
C2590 C2588 1.419 . S
C2590 C2591 1.362 . S
C2591 H2581 0.930 . S
C2591 C2584 1.409 . S
C2591 C2590 1.362 . S
H2592 C2598 0.930 . S
H2593 C2601 0.930 . S
H2594 C2602 0.930 . S
H2595 C2603 0.930 . S
H2596 C2606 0.930 . S
H2597 C2607 0.930 . S
C2598 H2592 0.930 . S
C2598 C2599 1.355 . S
C2598 C2600 1.415 . S
C2599 C2598 1.355 . S
C2599 C2601 1.419 . S
C2600 C2598 1.415 . S
C2600 C2605 1.425 . S
C2600 C2607 1.409 . S
C2601 H2593 0.930 . S
C2601 C2599 1.419 . S
C2601 C2602 1.362 . S
C2602 H2594 0.930 . S
C2602 C2601 1.362 . S
C2602 C2605 1.409 . S
C2603 H2595 0.930 . S
C2603 C2604 1.355 . S
C2603 C2605 1.415 . S
C2604 C2603 1.355 . S
C2604 C2606 1.419 . S
C2605 C2600 1.425 . S
C2605 C2602 1.409 . S
C2605 C2603 1.415 . S
C2606 H2596 0.930 . S
C2606 C2604 1.419 . S
C2606 C2607 1.362 . S
C2607 H2597 0.930 . S
C2607 C2600 1.409 . S
C2607 C2606 1.362 . S
H2608 C2614 0.930 . S
H2609 C2617 0.930 . S
H2610 C2618 0.930 . S
H2611 C2619 0.930 . S
H2612 C2622 0.930 . S
H2613 C2623 0.930 . S
C2614 H2608 0.930 . S
C2614 C2615 1.355 . S
C2614 C2616 1.415 . S
C2615 C2614 1.355 . S
C2615 C2617 1.419 . S
C2616 C2614 1.415 . S
C2616 C2621 1.425 . S
C2616 C2623 1.409 . S
C2617 H2609 0.930 . S
C2617 C2615 1.419 . S
C2617 C2618 1.362 . S
C2618 H2610 0.930 . S
C2618 C2617 1.362 . S
C2618 C2621 1.409 . S
C2619 H2611 0.930 . S
C2619 C2620 1.355 . S
C2619 C2621 1.415 . S
C2620 C2619 1.355 . S
C2620 C2622 1.419 . S
C2621 C2616 1.425 . S
C2621 C2618 1.409 . S
C2621 C2619 1.415 . S
C2622 H2612 0.930 . S
C2622 C2620 1.419 . S
C2622 C2623 1.362 . S
C2623 H2613 0.930 . S
C2623 C2616 1.409 . S
C2623 C2622 1.362 . S
H2624 C2630 0.930 . S
H2625 C2633 0.930 . S
H2626 C2634 0.930 . S
H2627 C2635 0.930 . S
H2628 C2638 0.930 . S
H2629 C2639 0.930 . S
C2630 H2624 0.930 . S
C2630 C2631 1.355 . S
C2630 C2632 1.415 . S
C2631 C2630 1.355 . S
C2631 C2633 1.419 . S
C2632 C2630 1.415 . S
C2632 C2637 1.425 . S
C2632 C2639 1.409 . S
C2633 H2625 0.930 . S
C2633 C2631 1.419 . S
C2633 C2634 1.362 . S
C2634 H2626 0.930 . S
C2634 C2633 1.362 . S
C2634 C2637 1.409 . S
C2635 H2627 0.930 . S
C2635 C2636 1.355 . S
C2635 C2637 1.415 . S
C2636 C2635 1.355 . S
C2636 C2638 1.419 . S
C2637 C2632 1.425 . S
C2637 C2634 1.409 . S
C2637 C2635 1.415 . S
C2638 H2628 0.930 . S
C2638 C2636 1.419 . S
C2638 C2639 1.362 . S
C2639 H2629 0.930 . S
C2639 C2632 1.409 . S
C2639 C2638 1.362 . S
H2640 C2646 0.930 . S
H2641 C2649 0.930 . S
H2642 C2650 0.930 . S
H2643 C2651 0.930 . S
H2644 C2654 0.930 . S
H2645 C2655 0.930 . S
C2646 H2640 0.930 . S
C2646 C2647 1.355 . S
C2646 C2648 1.415 . S
C2647 C2646 1.355 . S
C2647 C2649 1.419 . S
C2648 C2646 1.415 . S
C2648 C2653 1.425 . S
C2648 C2655 1.409 . S
C2649 H2641 0.930 . S
C2649 C2647 1.419 . S
C2649 C2650 1.362 . S
C2650 H2642 0.930 . S
C2650 C2649 1.362 . S
C2650 C2653 1.409 . S
C2651 H2643 0.930 . S
C2651 C2652 1.355 . S
C2651 C2653 1.415 . S
C2652 C2651 1.355 . S
C2652 C2654 1.419 . S
C2653 C2648 1.425 . S
C2653 C2650 1.409 . S
C2653 C2651 1.415 . S
C2654 H2644 0.930 . S
C2654 C2652 1.419 . S
C2654 C2655 1.362 . S
C2655 H2645 0.930 . S
C2655 C2648 1.409 . S
C2655 C2654 1.362 . S
H2656 C2662 0.930 . S
H2657 C2665 0.930 . S
H2658 C2666 0.930 . S
H2659 C2667 0.930 . S
H2660 C2670 0.930 . S
H2661 C2671 0.930 . S
C2662 H2656 0.930 . S
C2662 C2663 1.355 . S
C2662 C2664 1.415 . S
C2663 C2662 1.355 . S
C2663 C2665 1.419 . S
C2664 C2662 1.415 . S
C2664 C2669 1.425 . S
C2664 C2671 1.409 . S
C2665 H2657 0.930 . S
C2665 C2663 1.419 . S
C2665 C2666 1.362 . S
C2666 H2658 0.930 . S
C2666 C2665 1.362 . S
C2666 C2669 1.409 . S
C2667 H2659 0.930 . S
C2667 C2668 1.355 . S
C2667 C2669 1.415 . S
C2668 C2667 1.355 . S
C2668 C2670 1.419 . S
C2669 C2664 1.425 . S
C2669 C2666 1.409 . S
C2669 C2667 1.415 . S
C2670 H2660 0.930 . S
C2670 C2668 1.419 . S
C2670 C2671 1.362 . S
C2671 H2661 0.930 . S
C2671 C2664 1.409 . S
C2671 C2670 1.362 . S
H2672 C2678 0.930 . S
H2673 C2681 0.930 . S
H2674 C2682 0.930 . S
H2675 C2683 0.930 . S
H2676 C2686 0.930 . S
H2677 C2687 0.930 . S
C2678 H2672 0.930 . S
C2678 C2679 1.355 . S
C2678 C2680 1.415 . S
C2679 C2678 1.355 . S
C2679 C2681 1.419 . S
C2680 C2678 1.415 . S
C2680 C2685 1.425 . S
C2680 C2687 1.409 . S
C2681 H2673 0.930 . S
C2681 C2679 1.419 . S
C2681 C2682 1.362 . S
C2682 H2674 0.930 . S
C2682 C2681 1.362 . S
C2682 C2685 1.409 . S
C2683 H2675 0.930 . S
C2683 C2684 1.355 . S
C2683 C2685 1.415 . S
C2684 C2683 1.355 . S
C2684 C2686 1.419 . S
C2685 C2680 1.425 . S
C2685 C2682 1.409 . S
C2685 C2683 1.415 . S
C2686 H2676 0.930 . S
C2686 C2684 1.419 . S
C2686 C2687 1.362 . S
C2687 H2677 0.930 . S
C2687 C2680 1.409 . S
C2687 C2686 1.362 . S
H2688 C2694 0.930 . S
H2689 C2697 0.930 . S
H2690 C2698 0.930 . S
H2691 C2699 0.930 1_556 S
H2692 C2702 0.930 . S
H2693 C2703 0.930 . S
C2694 H2688 0.930 . S
C2694 C2695 1.355 . S
C2694 C2696 1.415 . S
C2695 C2694 1.355 . S
C2695 C2697 1.419 . S
C2696 C2694 1.415 . S
C2696 C2701 1.425 . S
C2696 C2703 1.409 . S
C2697 H2689 0.930 . S
C2697 C2695 1.419 . S
C2697 C2698 1.362 . S
C2698 H2690 0.930 . S
C2698 C2697 1.362 . S
C2698 C2701 1.409 . S
C2699 H2691 0.930 1_554 S
C2699 C2700 1.355 . S
C2699 C2701 1.415 . S
C2700 C2699 1.355 . S
C2700 C2702 1.419 . S
C2701 C2696 1.425 . S
C2701 C2698 1.409 . S
C2701 C2699 1.415 . S
C2702 H2692 0.930 . S
C2702 C2700 1.419 . S
C2702 C2703 1.362 . S
C2703 H2693 0.930 . S
C2703 C2696 1.409 . S
C2703 C2702 1.362 . S
H2704 C2710 0.930 . S
H2705 C2713 0.930 . S
H2706 C2714 0.930 . S
H2707 C2715 0.930 . S
H2708 C2718 0.930 . S
H2709 C2719 0.930 . S
C2710 H2704 0.930 . S
C2710 C2711 1.355 . S
C2710 C2712 1.415 . S
C2711 C2710 1.355 . S
C2711 C2713 1.419 . S
C2712 C2710 1.415 . S
C2712 C2717 1.425 . S
C2712 C2719 1.409 . S
C2713 H2705 0.930 . S
C2713 C2711 1.419 . S
C2713 C2714 1.362 . S
C2714 H2706 0.930 . S
C2714 C2713 1.362 . S
C2714 C2717 1.409 . S
C2715 H2707 0.930 . S
C2715 C2716 1.355 . S
C2715 C2717 1.415 . S
C2716 C2715 1.355 . S
C2716 C2718 1.419 . S
C2717 C2712 1.425 . S
C2717 C2714 1.409 . S
C2717 C2715 1.415 . S
C2718 H2708 0.930 . S
C2718 C2716 1.419 . S
C2718 C2719 1.362 . S
C2719 H2709 0.930 . S
C2719 C2712 1.409 . S
C2719 C2718 1.362 . S
H2720 C2726 0.930 . S
H2721 C2729 0.930 . S
H2722 C2730 0.930 . S
H2723 C2731 0.930 . S
H2724 C2734 0.930 . S
H2725 C2735 0.930 . S
C2726 H2720 0.930 . S
C2726 C2727 1.355 . S
C2726 C2728 1.415 . S
C2727 C2726 1.355 . S
C2727 C2729 1.419 . S
C2728 C2726 1.415 . S
C2728 C2733 1.425 . S
C2728 C2735 1.409 . S
C2729 H2721 0.930 . S
C2729 C2727 1.419 . S
C2729 C2730 1.362 . S
C2730 H2722 0.930 . S
C2730 C2729 1.362 . S
C2730 C2733 1.409 . S
C2731 H2723 0.930 . S
C2731 C2732 1.355 . S
C2731 C2733 1.415 . S
C2732 C2731 1.355 . S
C2732 C2734 1.419 . S
C2733 C2728 1.425 . S
C2733 C2730 1.409 . S
C2733 C2731 1.415 . S
C2734 H2724 0.930 . S
C2734 C2732 1.419 . S
C2734 C2735 1.362 . S
C2735 H2725 0.930 . S
C2735 C2728 1.409 . S
C2735 C2734 1.362 . S
H2736 C2742 0.930 . S
H2737 C2745 0.930 . S
H2738 C2746 0.930 . S
H2739 C2747 0.930 . S
H2740 C2750 0.930 . S
H2741 C2751 0.930 . S
C2742 H2736 0.930 . S
C2742 C2743 1.355 . S
C2742 C2744 1.415 . S
C2743 C2742 1.355 . S
C2743 C2745 1.419 . S
C2744 C2742 1.415 . S
C2744 C2749 1.425 . S
C2744 C2751 1.409 . S
C2745 H2737 0.930 . S
C2745 C2743 1.419 . S
C2745 C2746 1.362 . S
C2746 H2738 0.930 . S
C2746 C2745 1.362 . S
C2746 C2749 1.409 . S
C2747 H2739 0.930 . S
C2747 C2748 1.355 . S
C2747 C2749 1.415 . S
C2748 C2747 1.355 . S
C2748 C2750 1.419 . S
C2749 C2744 1.425 . S
C2749 C2746 1.409 . S
C2749 C2747 1.415 . S
C2750 H2740 0.930 . S
C2750 C2748 1.419 . S
C2750 C2751 1.362 . S
C2751 H2741 0.930 . S
C2751 C2744 1.409 . S
C2751 C2750 1.362 . S
H2752 C2758 0.930 . S
H2753 C2761 0.930 . S
H2754 C2762 0.930 . S
H2755 C2763 0.930 . S
H2756 C2766 0.930 . S
H2757 C2767 0.930 . S
C2758 H2752 0.930 . S
C2758 C2759 1.355 . S
C2758 C2760 1.415 . S
C2759 C2758 1.355 . S
C2759 C2761 1.419 . S
C2760 C2758 1.415 . S
C2760 C2765 1.425 . S
C2760 C2767 1.409 . S
C2761 H2753 0.930 . S
C2761 C2759 1.419 . S
C2761 C2762 1.362 . S
C2762 H2754 0.930 . S
C2762 C2761 1.362 . S
C2762 C2765 1.409 . S
C2763 H2755 0.930 . S
C2763 C2764 1.355 . S
C2763 C2765 1.415 . S
C2764 C2763 1.355 . S
C2764 C2766 1.419 . S
C2765 C2760 1.425 . S
C2765 C2762 1.409 . S
C2765 C2763 1.415 . S
C2766 H2756 0.930 . S
C2766 C2764 1.419 . S
C2766 C2767 1.362 . S
C2767 H2757 0.930 . S
C2767 C2760 1.409 . S
C2767 C2766 1.362 . S
H2768 C2774 0.930 . S
H2769 C2777 0.930 . S
H2770 C2778 0.930 . S
H2771 C2779 0.930 . S
H2772 C2782 0.930 . S
H2773 C2783 0.930 . S
C2774 H2768 0.930 . S
C2774 C2775 1.355 . S
C2774 C2776 1.415 . S
C2775 C2774 1.355 . S
C2775 C2777 1.419 . S
C2776 C2774 1.415 . S
C2776 C2781 1.425 . S
C2776 C2783 1.409 . S
C2777 H2769 0.930 . S
C2777 C2775 1.419 . S
C2777 C2778 1.362 . S
C2778 H2770 0.930 . S
C2778 C2777 1.362 . S
C2778 C2781 1.409 . S
C2779 H2771 0.930 . S
C2779 C2780 1.355 . S
C2779 C2781 1.415 . S
C2780 C2779 1.355 . S
C2780 C2782 1.419 . S
C2781 C2776 1.425 . S
C2781 C2778 1.409 . S
C2781 C2779 1.415 . S
C2782 H2772 0.930 . S
C2782 C2780 1.419 . S
C2782 C2783 1.362 . S
C2783 H2773 0.930 . S
C2783 C2776 1.409 . S
C2783 C2782 1.362 . S
H2784 C2790 0.930 . S
H2785 C2793 0.930 . S
H2786 C2794 0.930 . S
H2787 C2795 0.930 . S
H2788 C2798 0.930 . S
H2789 C2799 0.930 . S
C2790 H2784 0.930 . S
C2790 C2791 1.355 . S
C2790 C2792 1.415 . S
C2791 C2790 1.355 . S
C2791 C2793 1.419 . S
C2792 C2790 1.415 . S
C2792 C2797 1.425 . S
C2792 C2799 1.409 . S
C2793 H2785 0.930 . S
C2793 C2791 1.419 . S
C2793 C2794 1.362 . S
C2794 H2786 0.930 . S
C2794 C2793 1.362 . S
C2794 C2797 1.409 . S
C2795 H2787 0.930 . S
C2795 C2796 1.355 . S
C2795 C2797 1.415 . S
C2796 C2795 1.355 . S
C2796 C2798 1.419 . S
C2797 C2792 1.425 . S
C2797 C2794 1.409 . S
C2797 C2795 1.415 . S
C2798 H2788 0.930 . S
C2798 C2796 1.419 . S
C2798 C2799 1.362 . S
C2799 H2789 0.930 . S
C2799 C2792 1.409 . S
C2799 C2798 1.362 . S
H2800 C2806 0.930 . S
H2801 C2809 0.930 . S
H2802 C2810 0.930 . S
H2803 C2811 0.930 . S
H2804 C2814 0.930 . S
H2805 C2815 0.930 . S
C2806 H2800 0.930 . S
C2806 C2807 1.355 . S
C2806 C2808 1.415 . S
C2807 C2806 1.355 . S
C2807 C2809 1.419 . S
C2808 C2806 1.415 . S
C2808 C2813 1.425 . S
C2808 C2815 1.409 . S
C2809 H2801 0.930 . S
C2809 C2807 1.419 . S
C2809 C2810 1.362 . S
C2810 H2802 0.930 . S
C2810 C2809 1.362 . S
C2810 C2813 1.409 . S
C2811 H2803 0.930 . S
C2811 C2812 1.355 . S
C2811 C2813 1.415 . S
C2812 C2811 1.355 . S
C2812 C2814 1.419 . S
C2813 C2808 1.425 . S
C2813 C2810 1.409 . S
C2813 C2811 1.415 . S
C2814 H2804 0.930 . S
C2814 C2812 1.419 . S
C2814 C2815 1.362 . S
C2815 H2805 0.930 . S
C2815 C2808 1.409 . S
C2815 C2814 1.362 . S
H2816 C2822 0.930 . S
H2817 C2825 0.930 . S
H2818 C2826 0.930 . S
H2819 C2827 0.930 . S
H2820 C2830 0.930 . S
H2821 C2831 0.930 . S
C2822 H2816 0.930 . S
C2822 C2823 1.355 . S
C2822 C2824 1.415 . S
C2823 C2822 1.355 . S
C2823 C2825 1.419 . S
C2824 C2822 1.415 . S
C2824 C2829 1.425 . S
C2824 C2831 1.409 . S
C2825 H2817 0.930 . S
C2825 C2823 1.419 . S
C2825 C2826 1.362 . S
C2826 H2818 0.930 . S
C2826 C2825 1.362 . S
C2826 C2829 1.409 . S
C2827 H2819 0.930 . S
C2827 C2828 1.355 . S
C2827 C2829 1.415 . S
C2828 C2827 1.355 . S
C2828 C2830 1.419 . S
C2829 C2824 1.425 . S
C2829 C2826 1.409 . S
C2829 C2827 1.415 . S
C2830 H2820 0.930 . S
C2830 C2828 1.419 . S
C2830 C2831 1.362 . S
C2831 H2821 0.930 . S
C2831 C2824 1.409 . S
C2831 C2830 1.362 . S
H2832 C2838 0.930 . S
H2833 C2841 0.930 . S
H2834 C2842 0.930 . S
H2835 C2843 0.930 . S
H2836 C2846 0.930 . S
H2837 C2847 0.930 . S
C2838 H2832 0.930 . S
C2838 C2839 1.355 . S
C2838 C2840 1.415 . S
C2839 C2838 1.355 . S
C2839 C2841 1.419 . S
C2840 C2838 1.415 . S
C2840 C2845 1.425 . S
C2840 C2847 1.409 . S
C2841 H2833 0.930 . S
C2841 C2839 1.419 . S
C2841 C2842 1.362 . S
C2842 H2834 0.930 . S
C2842 C2841 1.362 . S
C2842 C2845 1.409 . S
C2843 H2835 0.930 . S
C2843 C2844 1.355 . S
C2843 C2845 1.415 . S
C2844 C2843 1.355 . S
C2844 C2846 1.419 . S
C2845 C2840 1.425 . S
C2845 C2842 1.409 . S
C2845 C2843 1.415 . S
C2846 H2836 0.930 . S
C2846 C2844 1.419 . S
C2846 C2847 1.362 . S
C2847 H2837 0.930 . S
C2847 C2840 1.409 . S
C2847 C2846 1.362 . S
H2848 C2854 0.930 . S
H2849 C2857 0.930 . S
H2850 C2858 0.930 . S
H2851 C2859 0.930 . S
H2852 C2862 0.930 . S
H2853 C2863 0.930 . S
C2854 H2848 0.930 . S
C2854 C2855 1.355 . S
C2854 C2856 1.415 . S
C2855 C2854 1.355 . S
C2855 C2857 1.419 . S
C2856 C2854 1.415 . S
C2856 C2861 1.425 . S
C2856 C2863 1.409 . S
C2857 H2849 0.930 . S
C2857 C2855 1.419 . S
C2857 C2858 1.362 . S
C2858 H2850 0.930 . S
C2858 C2857 1.362 . S
C2858 C2861 1.409 . S
C2859 H2851 0.930 . S
C2859 C2860 1.355 . S
C2859 C2861 1.415 . S
C2860 C2859 1.355 . S
C2860 C2862 1.419 . S
C2861 C2856 1.425 . S
C2861 C2858 1.409 . S
C2861 C2859 1.415 . S
C2862 H2852 0.930 . S
C2862 C2860 1.419 . S
C2862 C2863 1.362 . S
C2863 H2853 0.930 . S
C2863 C2856 1.409 . S
C2863 C2862 1.362 . S
H2864 C2870 0.930 . S
H2865 C2873 0.930 . S
H2866 C2874 0.930 . S
H2867 C2875 0.930 . S
H2868 C2878 0.930 . S
H2869 C2879 0.930 . S
C2870 H2864 0.930 . S
C2870 C2871 1.355 . S
C2870 C2872 1.415 . S
C2871 C2870 1.355 . S
C2871 C2873 1.419 . S
C2872 C2870 1.415 . S
C2872 C2877 1.425 . S
C2872 C2879 1.409 . S
C2873 H2865 0.930 . S
C2873 C2871 1.419 . S
C2873 C2874 1.362 . S
C2874 H2866 0.930 . S
C2874 C2873 1.362 . S
C2874 C2877 1.409 . S
C2875 H2867 0.930 . S
C2875 C2876 1.355 . S
C2875 C2877 1.415 . S
C2876 C2875 1.355 . S
C2876 C2878 1.419 . S
C2877 C2872 1.425 . S
C2877 C2874 1.409 . S
C2877 C2875 1.415 . S
C2878 H2868 0.930 . S
C2878 C2876 1.419 . S
C2878 C2879 1.362 . S
C2879 H2869 0.930 . S
C2879 C2872 1.409 . S
C2879 C2878 1.362 . S
H2880 C2886 0.930 . S
H2881 C2889 0.930 . S
H2882 C2890 0.930 . S
H2883 C2891 0.930 . S
H2884 C2894 0.930 . S
H2885 C2895 0.930 . S
C2886 H2880 0.930 . S
C2886 C2887 1.355 . S
C2886 C2888 1.415 . S
C2887 C2886 1.355 . S
C2887 C2889 1.419 . S
C2888 C2886 1.415 . S
C2888 C2893 1.425 . S
C2888 C2895 1.409 . S
C2889 H2881 0.930 . S
C2889 C2887 1.419 . S
C2889 C2890 1.362 . S
C2890 H2882 0.930 . S
C2890 C2889 1.362 . S
C2890 C2893 1.409 . S
C2891 H2883 0.930 . S
C2891 C2892 1.355 . S
C2891 C2893 1.415 . S
C2892 C2891 1.355 . S
C2892 C2894 1.419 . S
C2893 C2888 1.425 . S
C2893 C2890 1.409 . S
C2893 C2891 1.415 . S
C2894 H2884 0.930 . S
C2894 C2892 1.419 . S
C2894 C2895 1.362 . S
C2895 H2885 0.930 . S
C2895 C2888 1.409 . S
C2895 C2894 1.362 . S
H2896 C2902 0.930 . S
H2897 C2905 0.930 . S
H2898 C2906 0.930 . S
H2899 C2907 0.930 . S
H2900 C2910 0.930 . S
H2901 C2911 0.930 . S
C2902 H2896 0.930 . S
C2902 C2903 1.355 . S
C2902 C2904 1.415 . S
C2903 C2902 1.355 . S
C2903 C2905 1.419 . S
C2904 C2902 1.415 . S
C2904 C2909 1.425 . S
C2904 C2911 1.409 . S
C2905 H2897 0.930 . S
C2905 C2903 1.419 . S
C2905 C2906 1.362 . S
C2906 H2898 0.930 . S
C2906 C2905 1.362 . S
C2906 C2909 1.409 . S
C2907 H2899 0.930 . S
C2907 C2908 1.355 . S
C2907 C2909 1.415 . S
C2908 C2907 1.355 . S
C2908 C2910 1.419 . S
C2909 C2904 1.425 . S
C2909 C2906 1.409 . S
C2909 C2907 1.415 . S
C2910 H2900 0.930 . S
C2910 C2908 1.419 . S
C2910 C2911 1.362 . S
C2911 H2901 0.930 . S
C2911 C2904 1.409 . S
C2911 C2910 1.362 . S
H2912 C2918 0.930 . S
H2913 C2921 0.930 . S
H2914 C2922 0.930 . S
H2915 C2923 0.930 . S
H2916 C2926 0.930 . S
H2917 C2927 0.930 . S
C2918 H2912 0.930 . S
C2918 C2919 1.355 . S
C2918 C2920 1.415 . S
C2919 C2918 1.355 . S
C2919 C2921 1.419 . S
C2920 C2918 1.415 . S
C2920 C2925 1.425 . S
C2920 C2927 1.409 . S
C2921 H2913 0.930 . S
C2921 C2919 1.419 . S
C2921 C2922 1.362 . S
C2922 H2914 0.930 . S
C2922 C2921 1.362 . S
C2922 C2925 1.409 . S
C2923 H2915 0.930 . S
C2923 C2924 1.355 . S
C2923 C2925 1.415 . S
C2924 C2923 1.355 . S
C2924 C2926 1.419 . S
C2925 C2920 1.425 . S
C2925 C2922 1.409 . S
C2925 C2923 1.415 . S
C2926 H2916 0.930 . S
C2926 C2924 1.419 . S
C2926 C2927 1.362 . S
C2927 H2917 0.930 . S
C2927 C2920 1.409 . S
C2927 C2926 1.362 . S
H2928 C2934 0.930 . S
H2929 C2937 0.930 . S
H2930 C2938 0.930 . S
H2931 C2939 0.930 . S
H2932 C2942 0.930 . S
H2933 C2943 0.930 . S
C2934 H2928 0.930 . S
C2934 C2935 1.355 . S
C2934 C2936 1.415 . S
C2935 C2934 1.355 . S
C2935 C2937 1.419 . S
C2936 C2934 1.415 . S
C2936 C2941 1.425 . S
C2936 C2943 1.409 . S
C2937 H2929 0.930 . S
C2937 C2935 1.419 . S
C2937 C2938 1.362 . S
C2938 H2930 0.930 . S
C2938 C2937 1.362 . S
C2938 C2941 1.409 . S
C2939 H2931 0.930 . S
C2939 C2940 1.355 . S
C2939 C2941 1.415 . S
C2940 C2939 1.355 . S
C2940 C2942 1.419 . S
C2941 C2936 1.425 . S
C2941 C2938 1.409 . S
C2941 C2939 1.415 . S
C2942 H2932 0.930 . S
C2942 C2940 1.419 . S
C2942 C2943 1.362 . S
C2943 H2933 0.930 . S
C2943 C2936 1.409 . S
C2943 C2942 1.362 . S
H2944 C2950 0.930 . S
H2945 C2953 0.930 . S
H2946 C2954 0.930 . S
H2947 C2955 0.930 . S
H2948 C2958 0.930 . S
H2949 C2959 0.930 . S
C2950 H2944 0.930 . S
C2950 C2951 1.355 . S
C2950 C2952 1.415 . S
C2951 C2950 1.355 . S
C2951 C2953 1.419 . S
C2952 C2950 1.415 . S
C2952 C2957 1.425 . S
C2952 C2959 1.409 . S
C2953 H2945 0.930 . S
C2953 C2951 1.419 . S
C2953 C2954 1.362 . S
C2954 H2946 0.930 . S
C2954 C2953 1.362 . S
C2954 C2957 1.409 . S
C2955 H2947 0.930 . S
C2955 C2956 1.355 . S
C2955 C2957 1.415 . S
C2956 C2955 1.355 . S
C2956 C2958 1.419 . S
C2957 C2952 1.425 . S
C2957 C2954 1.409 . S
C2957 C2955 1.415 . S
C2958 H2948 0.930 . S
C2958 C2956 1.419 . S
C2958 C2959 1.362 . S
C2959 H2949 0.930 . S
C2959 C2952 1.409 . S
C2959 C2958 1.362 . S
H2960 C2966 0.930 . S
H2961 C2969 0.930 . S
H2962 C2970 0.930 . S
H2963 C2971 0.930 . S
H2964 C2974 0.930 . S
H2965 C2975 0.930 . S
C2966 H2960 0.930 . S
C2966 C2967 1.355 . S
C2966 C2968 1.415 . S
C2967 C2966 1.355 . S
C2967 C2969 1.419 . S
C2968 C2966 1.415 . S
C2968 C2973 1.425 . S
C2968 C2975 1.409 . S
C2969 H2961 0.930 . S
C2969 C2967 1.419 . S
C2969 C2970 1.362 . S
C2970 H2962 0.930 . S
C2970 C2969 1.362 . S
C2970 C2973 1.409 . S
C2971 H2963 0.930 . S
C2971 C2972 1.355 . S
C2971 C2973 1.415 . S
C2972 C2971 1.355 . S
C2972 C2974 1.419 . S
C2973 C2968 1.425 . S
C2973 C2970 1.409 . S
C2973 C2971 1.415 . S
C2974 H2964 0.930 . S
C2974 C2972 1.419 . S
C2974 C2975 1.362 . S
C2975 H2965 0.930 . S
C2975 C2968 1.409 . S
C2975 C2974 1.362 . S
H2976 C2982 0.930 . S
H2977 C2985 0.930 . S
H2978 C2986 0.930 . S
H2979 C2987 0.930 . S
H2980 C2990 0.930 . S
H2981 C2991 0.930 . S
C2982 H2976 0.930 . S
C2982 C2983 1.355 . S
C2982 C2984 1.415 . S
C2983 C2982 1.355 . S
C2983 C2985 1.419 . S
C2984 C2982 1.415 . S
C2984 C2989 1.425 . S
C2984 C2991 1.409 . S
C2985 H2977 0.930 . S
C2985 C2983 1.419 . S
C2985 C2986 1.362 . S
C2986 H2978 0.930 . S
C2986 C2985 1.362 . S
C2986 C2989 1.409 . S
C2987 H2979 0.930 . S
C2987 C2988 1.355 . S
C2987 C2989 1.415 . S
C2988 C2987 1.355 . S
C2988 C2990 1.419 . S
C2989 C2984 1.425 . S
C2989 C2986 1.409 . S
C2989 C2987 1.415 . S
C2990 H2980 0.930 . S
C2990 C2988 1.419 . S
C2990 C2991 1.362 . S
C2991 H2981 0.930 . S
C2991 C2984 1.409 . S
C2991 C2990 1.362 . S
H2992 C2998 0.930 . S
H2993 C3001 0.930 . S
H2994 C3002 0.930 . S
H2995 C3003 0.930 . S
H2996 C3006 0.930 . S
H2997 C3007 0.930 . S
C2998 H2992 0.930 . S
C2998 C2999 1.355 . S
C2998 C3000 1.415 . S
C2999 C2998 1.355 . S
C2999 C3001 1.419 . S
C3000 C2998 1.415 . S
C3000 C3005 1.425 . S
C3000 C3007 1.409 . S
C3001 H2993 0.930 . S
C3001 C2999 1.419 . S
C3001 C3002 1.362 . S
C3002 H2994 0.930 . S
C3002 C3001 1.362 . S
C3002 C3005 1.409 . S
C3003 H2995 0.930 . S
C3003 C3004 1.355 . S
C3003 C3005 1.415 . S
C3004 C3003 1.355 . S
C3004 C3006 1.419 . S
C3005 C3000 1.425 . S
C3005 C3002 1.409 . S
C3005 C3003 1.415 . S
C3006 H2996 0.930 . S
C3006 C3004 1.419 . S
C3006 C3007 1.362 . S
C3007 H2997 0.930 . S
C3007 C3000 1.409 . S
C3007 C3006 1.362 . S
H3008 C3014 0.930 . S
H3009 C3017 0.930 . S
H3010 C3018 0.930 . S
H3011 C3019 0.930 . S
H3012 C3022 0.930 . S
H3013 C3023 0.930 . S
C3014 H3008 0.930 . S
C3014 C3015 1.355 . S
C3014 C3016 1.415 . S
C3015 C3014 1.355 . S
C3015 C3017 1.419 . S
C3016 C3014 1.415 . S
C3016 C3021 1.425 . S
C3016 C3023 1.409 . S
C3017 H3009 0.930 . S
C3017 C3015 1.419 . S
C3017 C3018 1.362 . S
C3018 H3010 0.930 . S
C3018 C3017 1.362 . S
C3018 C3021 1.409 . S
C3019 H3011 0.930 . S
C3019 C3020 1.355 . S
C3019 C3021 1.415 . S
C3020 C3019 1.355 . S
C3020 C3022 1.419 . S
C3021 C3016 1.425 . S
C3021 C3018 1.409 . S
C3021 C3019 1.415 . S
C3022 H3012 0.930 . S
C3022 C3020 1.419 . S
C3022 C3023 1.362 . S
C3023 H3013 0.930 . S
C3023 C3016 1.409 . S
C3023 C3022 1.362 . S
H3024 C3030 0.930 . S
H3025 C3033 0.930 . S
H3026 C3034 0.930 . S
H3027 C3035 0.930 . S
H3028 C3038 0.930 . S
H3029 C3039 0.930 . S
C3030 H3024 0.930 . S
C3030 C3031 1.355 . S
C3030 C3032 1.415 . S
C3031 C3030 1.355 . S
C3031 C3033 1.419 . S
C3032 C3030 1.415 . S
C3032 C3037 1.425 . S
C3032 C3039 1.409 . S
C3033 H3025 0.930 . S
C3033 C3031 1.419 . S
C3033 C3034 1.362 . S
C3034 H3026 0.930 . S
C3034 C3033 1.362 . S
C3034 C3037 1.409 . S
C3035 H3027 0.930 . S
C3035 C3036 1.355 . S
C3035 C3037 1.415 . S
C3036 C3035 1.355 . S
C3036 C3038 1.419 . S
C3037 C3032 1.425 . S
C3037 C3034 1.409 . S
C3037 C3035 1.415 . S
C3038 H3028 0.930 . S
C3038 C3036 1.419 . S
C3038 C3039 1.362 . S
C3039 H3029 0.930 . S
C3039 C3032 1.409 . S
C3039 C3038 1.362 . S
H3040 C3046 0.930 . S
H3041 C3049 0.930 . S
H3042 C3050 0.930 . S
H3043 C3051 0.930 . S
H3044 C3054 0.930 . S
H3045 C3055 0.930 . S
C3046 H3040 0.930 . S
C3046 C3047 1.355 . S
C3046 C3048 1.415 . S
C3047 C3046 1.355 . S
C3047 C3049 1.419 . S
C3048 C3046 1.415 . S
C3048 C3053 1.425 . S
C3048 C3055 1.409 . S
C3049 H3041 0.930 . S
C3049 C3047 1.419 . S
C3049 C3050 1.362 . S
C3050 H3042 0.930 . S
C3050 C3049 1.362 . S
C3050 C3053 1.409 . S
C3051 H3043 0.930 . S
C3051 C3052 1.355 . S
C3051 C3053 1.415 . S
C3052 C3051 1.355 . S
C3052 C3054 1.419 . S
C3053 C3048 1.425 . S
C3053 C3050 1.409 . S
C3053 C3051 1.415 . S
C3054 H3044 0.930 . S
C3054 C3052 1.419 . S
C3054 C3055 1.362 . S
C3055 H3045 0.930 . S
C3055 C3048 1.409 . S
C3055 C3054 1.362 . S
H3056 C3062 0.930 . S
H3057 C3065 0.930 . S
H3058 C3066 0.930 . S
H3059 C3067 0.930 . S
H3060 C3070 0.930 . S
H3061 C3071 0.930 . S
C3062 H3056 0.930 . S
C3062 C3063 1.355 . S
C3062 C3064 1.415 . S
C3063 C3062 1.355 . S
C3063 C3065 1.419 . S
C3064 C3062 1.415 . S
C3064 C3069 1.425 . S
C3064 C3071 1.409 . S
C3065 H3057 0.930 . S
C3065 C3063 1.419 . S
C3065 C3066 1.362 . S
C3066 H3058 0.930 . S
C3066 C3065 1.362 . S
C3066 C3069 1.409 . S
C3067 H3059 0.930 . S
C3067 C3068 1.355 . S
C3067 C3069 1.415 . S
C3068 C3067 1.355 . S
C3068 C3070 1.419 . S
C3069 C3064 1.425 . S
C3069 C3066 1.409 . S
C3069 C3067 1.415 . S
C3070 H3060 0.930 . S
C3070 C3068 1.419 . S
C3070 C3071 1.362 . S
C3071 H3061 0.930 . S
C3071 C3064 1.409 . S
C3071 C3070 1.362 . S
H3072 C3078 0.930 . S
H3073 C3081 0.930 . S
H3074 C3082 0.930 . S
H3075 C3083 0.930 . S
H3076 C3086 0.930 . S
H3077 C3087 0.930 . S
C3078 H3072 0.930 . S
C3078 C3079 1.355 . S
C3078 C3080 1.415 . S
C3079 C3078 1.355 . S
C3079 C3081 1.419 . S
C3080 C3078 1.415 . S
C3080 C3085 1.425 . S
C3080 C3087 1.409 . S
C3081 H3073 0.930 . S
C3081 C3079 1.419 . S
C3081 C3082 1.362 . S
C3082 H3074 0.930 . S
C3082 C3081 1.362 . S
C3082 C3085 1.409 . S
C3083 H3075 0.930 . S
C3083 C3084 1.355 . S
C3083 C3085 1.415 . S
C3084 C3083 1.355 . S
C3084 C3086 1.419 . S
C3085 C3080 1.425 . S
C3085 C3082 1.409 . S
C3085 C3083 1.415 . S
C3086 H3076 0.930 . S
C3086 C3084 1.419 . S
C3086 C3087 1.362 . S
C3087 H3077 0.930 . S
C3087 C3080 1.409 . S
C3087 C3086 1.362 . S
H3088 C3094 0.930 . S
H3089 C3097 0.930 . S
H3090 C3098 0.930 . S
H3091 C3099 0.930 . S
H3092 C3102 0.930 . S
H3093 C3103 0.930 . S
C3094 H3088 0.930 . S
C3094 C3095 1.355 . S
C3094 C3096 1.415 . S
C3095 C3094 1.355 . S
C3095 C3097 1.419 . S
C3096 C3094 1.415 . S
C3096 C3101 1.425 . S
C3096 C3103 1.409 . S
C3097 H3089 0.930 . S
C3097 C3095 1.419 . S
C3097 C3098 1.362 . S
C3098 H3090 0.930 . S
C3098 C3097 1.362 . S
C3098 C3101 1.409 . S
C3099 H3091 0.930 . S
C3099 C3100 1.355 . S
C3099 C3101 1.415 . S
C3100 C3099 1.355 . S
C3100 C3102 1.419 . S
C3101 C3096 1.425 . S
C3101 C3098 1.409 . S
C3101 C3099 1.415 . S
C3102 H3092 0.930 . S
C3102 C3100 1.419 . S
C3102 C3103 1.362 . S
C3103 H3093 0.930 . S
C3103 C3096 1.409 . S
C3103 C3102 1.362 . S
H3104 C3110 0.930 . S
H3105 C3113 0.930 . S
H3106 C3114 0.930 . S
H3107 C3115 0.930 . S
H3108 C3118 0.930 . S
H3109 C3119 0.930 . S
C3110 H3104 0.930 . S
C3110 C3111 1.355 . S
C3110 C3112 1.415 . S
C3111 C3110 1.355 . S
C3111 C3113 1.419 . S
C3112 C3110 1.415 . S
C3112 C3117 1.425 . S
C3112 C3119 1.409 . S
C3113 H3105 0.930 . S
C3113 C3111 1.419 . S
C3113 C3114 1.362 . S
C3114 H3106 0.930 . S
C3114 C3113 1.362 . S
C3114 C3117 1.409 . S
C3115 H3107 0.930 . S
C3115 C3116 1.355 . S
C3115 C3117 1.415 . S
C3116 C3115 1.355 . S
C3116 C3118 1.419 . S
C3117 C3112 1.425 . S
C3117 C3114 1.409 . S
C3117 C3115 1.415 . S
C3118 H3108 0.930 . S
C3118 C3116 1.419 . S
C3118 C3119 1.362 . S
C3119 H3109 0.930 . S
C3119 C3112 1.409 . S
C3119 C3118 1.362 . S
H3120 C3126 0.930 . S
H3121 C3129 0.930 . S
H3122 C3130 0.930 . S
H3123 C3131 0.930 . S
H3124 C3134 0.930 . S
H3125 C3135 0.930 . S
C3126 H3120 0.930 . S
C3126 C3127 1.355 . S
C3126 C3128 1.415 . S
C3127 C3126 1.355 . S
C3127 C3129 1.419 . S
C3128 C3126 1.415 . S
C3128 C3133 1.425 . S
C3128 C3135 1.409 . S
C3129 H3121 0.930 . S
C3129 C3127 1.419 . S
C3129 C3130 1.362 . S
C3130 H3122 0.930 . S
C3130 C3129 1.362 . S
C3130 C3133 1.409 . S
C3131 H3123 0.930 . S
C3131 C3132 1.355 . S
C3131 C3133 1.415 . S
C3132 C3131 1.355 . S
C3132 C3134 1.419 . S
C3133 C3128 1.425 . S
C3133 C3130 1.409 . S
C3133 C3131 1.415 . S
C3134 H3124 0.930 . S
C3134 C3132 1.419 . S
C3134 C3135 1.362 . S
C3135 H3125 0.930 . S
C3135 C3128 1.409 . S
C3135 C3134 1.362 . S
H3136 C3142 0.930 . S
H3137 C3145 0.930 . S
H3138 C3146 0.930 . S
H3139 C3147 0.930 . S
H3140 C3150 0.930 . S
H3141 C3151 0.930 . S
C3142 H3136 0.930 . S
C3142 C3143 1.355 . S
C3142 C3144 1.415 . S
C3143 C3142 1.355 . S
C3143 C3145 1.419 . S
C3144 C3142 1.415 . S
C3144 C3149 1.425 . S
C3144 C3151 1.409 . S
C3145 H3137 0.930 . S
C3145 C3143 1.419 . S
C3145 C3146 1.362 . S
C3146 H3138 0.930 . S
C3146 C3145 1.362 . S
C3146 C3149 1.409 . S
C3147 H3139 0.930 . S
C3147 C3148 1.355 . S
C3147 C3149 1.415 . S
C3148 C3147 1.355 . S
C3148 C3150 1.419 . S
C3149 C3144 1.425 . S
C3149 C3146 1.409 . S
C3149 C3147 1.415 . S
C3150 H3140 0.930 . S
C3150 C3148 1.419 . S
C3150 C3151 1.362 . S
C3151 H3141 0.930 . S
C3151 C3144 1.409 . S
C3151 C3150 1.362 . S
H3152 C3158 0.930 . S
H3153 C3161 0.930 . S
H3154 C3162 0.930 . S
H3155 C3163 0.930 . S
H3156 C3166 0.930 . S
H3157 C3167 0.930 . S
C3158 H3152 0.930 . S
C3158 C3159 1.355 . S
C3158 C3160 1.415 . S
C3159 C3158 1.355 . S
C3159 C3161 1.419 . S
C3160 C3158 1.415 . S
C3160 C3165 1.425 . S
C3160 C3167 1.409 . S
C3161 H3153 0.930 . S
C3161 C3159 1.419 . S
C3161 C3162 1.362 . S
C3162 H3154 0.930 . S
C3162 C3161 1.362 . S
C3162 C3165 1.409 . S
C3163 H3155 0.930 . S
C3163 C3164 1.355 . S
C3163 C3165 1.415 . S
C3164 C3163 1.355 . S
C3164 C3166 1.419 . S
C3165 C3160 1.425 . S
C3165 C3162 1.409 . S
C3165 C3163 1.415 . S
C3166 H3156 0.930 . S
C3166 C3164 1.419 . S
C3166 C3167 1.362 . S
C3167 H3157 0.930 . S
C3167 C3160 1.409 . S
C3167 C3166 1.362 . S
H3168 C3174 0.930 . S
H3169 C3177 0.930 . S
H3170 C3178 0.930 . S
H3171 C3179 0.930 . S
H3172 C3182 0.930 . S
H3173 C3183 0.930 . S
C3174 H3168 0.930 . S
C3174 C3175 1.355 . S
C3174 C3176 1.415 . S
C3175 C3174 1.355 . S
C3175 C3177 1.419 . S
C3176 C3174 1.415 . S
C3176 C3181 1.425 . S
C3176 C3183 1.409 . S
C3177 H3169 0.930 . S
C3177 C3175 1.419 . S
C3177 C3178 1.362 . S
C3178 H3170 0.930 . S
C3178 C3177 1.362 . S
C3178 C3181 1.409 . S
C3179 H3171 0.930 . S
C3179 C3180 1.355 . S
C3179 C3181 1.415 . S
C3180 C3179 1.355 . S
C3180 C3182 1.419 . S
C3181 C3176 1.425 . S
C3181 C3178 1.409 . S
C3181 C3179 1.415 . S
C3182 H3172 0.930 . S
C3182 C3180 1.419 . S
C3182 C3183 1.362 . S
C3183 H3173 0.930 . S
C3183 C3176 1.409 . S
C3183 C3182 1.362 . S
H3184 C3190 0.930 . S
H3185 C3193 0.930 . S
H3186 C3194 0.930 . S
H3187 C3195 0.930 . S
H3188 C3198 0.930 . S
H3189 C3199 0.930 . S
C3190 H3184 0.930 . S
C3190 C3191 1.355 . S
C3190 C3192 1.415 . S
C3191 C3190 1.355 . S
C3191 C3193 1.419 . S
C3192 C3190 1.415 . S
C3192 C3197 1.425 . S
C3192 C3199 1.409 . S
C3193 H3185 0.930 . S
C3193 C3191 1.419 . S
C3193 C3194 1.362 . S
C3194 H3186 0.930 . S
C3194 C3193 1.362 . S
C3194 C3197 1.409 . S
C3195 H3187 0.930 . S
C3195 C3196 1.355 . S
C3195 C3197 1.415 . S
C3196 C3195 1.355 . S
C3196 C3198 1.419 . S
C3197 C3192 1.425 . S
C3197 C3194 1.409 . S
C3197 C3195 1.415 . S
C3198 H3188 0.930 . S
C3198 C3196 1.419 . S
C3198 C3199 1.362 . S
C3199 H3189 0.930 . S
C3199 C3192 1.409 . S
C3199 C3198 1.362 . S
H3200 C3206 0.930 . S
H3201 C3209 0.930 . S
H3202 C3210 0.930 . S
H3203 C3211 0.930 . S
H3204 C3214 0.930 . S
H3205 C3215 0.930 . S
C3206 H3200 0.930 . S
C3206 C3207 1.355 . S
C3206 C3208 1.415 . S
C3207 C3206 1.355 . S
C3207 C3209 1.419 . S
C3208 C3206 1.415 . S
C3208 C3213 1.425 . S
C3208 C3215 1.409 . S
C3209 H3201 0.930 . S
C3209 C3207 1.419 . S
C3209 C3210 1.362 . S
C3210 H3202 0.930 . S
C3210 C3209 1.362 . S
C3210 C3213 1.409 . S
C3211 H3203 0.930 . S
C3211 C3212 1.355 . S
C3211 C3213 1.415 . S
C3212 C3211 1.355 . S
C3212 C3214 1.419 . S
C3213 C3208 1.425 . S
C3213 C3210 1.409 . S
C3213 C3211 1.415 . S
C3214 H3204 0.930 . S
C3214 C3212 1.419 . S
C3214 C3215 1.362 . S
C3215 H3205 0.930 . S
C3215 C3208 1.409 . S
C3215 C3214 1.362 . S
H3216 C3222 0.930 . S
H3217 C3225 0.930 . S
H3218 C3226 0.930 . S
H3219 C3227 0.930 . S
H3220 C3230 0.930 . S
H3221 C3231 0.930 . S
C3222 H3216 0.930 . S
C3222 C3223 1.355 . S
C3222 C3224 1.415 . S
C3223 C3222 1.355 . S
C3223 C3225 1.419 . S
C3224 C3222 1.415 . S
C3224 C3229 1.425 . S
C3224 C3231 1.409 . S
C3225 H3217 0.930 . S
C3225 C3223 1.419 . S
C3225 C3226 1.362 . S
C3226 H3218 0.930 . S
C3226 C3225 1.362 . S
C3226 C3229 1.409 . S
C3227 H3219 0.930 . S
C3227 C3228 1.355 . S
C3227 C3229 1.415 . S
C3228 C3227 1.355 . S
C3228 C3230 1.419 . S
C3229 C3224 1.425 . S
C3229 C3226 1.409 . S
C3229 C3227 1.415 . S
C3230 H3220 0.930 . S
C3230 C3228 1.419 . S
C3230 C3231 1.362 . S
C3231 H3221 0.930 . S
C3231 C3224 1.409 . S
C3231 C3230 1.362 . S
H3232 C3238 0.930 . S
H3233 C3241 0.930 . S
H3234 C3242 0.930 . S
H3235 C3243 0.930 . S
H3236 C3246 0.930 . S
H3237 C3247 0.930 . S
C3238 H3232 0.930 . S
C3238 C3239 1.355 . S
C3238 C3240 1.415 . S
C3239 C3238 1.355 . S
C3239 C3241 1.419 . S
C3240 C3238 1.415 . S
C3240 C3245 1.425 . S
C3240 C3247 1.409 . S
C3241 H3233 0.930 . S
C3241 C3239 1.419 . S
C3241 C3242 1.362 . S
C3242 H3234 0.930 . S
C3242 C3241 1.362 . S
C3242 C3245 1.409 . S
C3243 H3235 0.930 . S
C3243 C3244 1.355 . S
C3243 C3245 1.415 . S
C3244 C3243 1.355 . S
C3244 C3246 1.419 . S
C3245 C3240 1.425 . S
C3245 C3242 1.409 . S
C3245 C3243 1.415 . S
C3246 H3236 0.930 . S
C3246 C3244 1.419 . S
C3246 C3247 1.362 . S
C3247 H3237 0.930 . S
C3247 C3240 1.409 . S
C3247 C3246 1.362 . S
H3248 C3254 0.930 . S
H3249 C3257 0.930 . S
H3250 C3258 0.930 . S
H3251 C3259 0.930 . S
H3252 C3262 0.930 . S
H3253 C3263 0.930 . S
C3254 H3248 0.930 . S
C3254 C3255 1.355 . S
C3254 C3256 1.415 . S
C3255 C3254 1.355 . S
C3255 C3257 1.419 . S
C3256 C3254 1.415 . S
C3256 C3261 1.425 . S
C3256 C3263 1.409 . S
C3257 H3249 0.930 . S
C3257 C3255 1.419 . S
C3257 C3258 1.362 . S
C3258 H3250 0.930 . S
C3258 C3257 1.362 . S
C3258 C3261 1.409 . S
C3259 H3251 0.930 . S
C3259 C3260 1.355 . S
C3259 C3261 1.415 . S
C3260 C3259 1.355 . S
C3260 C3262 1.419 . S
C3261 C3256 1.425 . S
C3261 C3258 1.409 . S
C3261 C3259 1.415 . S
C3262 H3252 0.930 . S
C3262 C3260 1.419 . S
C3262 C3263 1.362 . S
C3263 H3253 0.930 . S
C3263 C3256 1.409 . S
C3263 C3262 1.362 . S
H3264 C3270 0.930 . S
H3265 C3273 0.930 . S
H3266 C3274 0.930 . S
H3267 C3275 0.930 . S
H3268 C3278 0.930 . S
H3269 C3279 0.930 . S
C3270 H3264 0.930 . S
C3270 C3271 1.355 . S
C3270 C3272 1.415 . S
C3271 C3270 1.355 . S
C3271 C3273 1.419 . S
C3272 C3270 1.415 . S
C3272 C3277 1.425 . S
C3272 C3279 1.409 . S
C3273 H3265 0.930 . S
C3273 C3271 1.419 . S
C3273 C3274 1.362 . S
C3274 H3266 0.930 . S
C3274 C3273 1.362 . S
C3274 C3277 1.409 . S
C3275 H3267 0.930 . S
C3275 C3276 1.355 . S
C3275 C3277 1.415 . S
C3276 C3275 1.355 . S
C3276 C3278 1.419 . S
C3277 C3272 1.425 . S
C3277 C3274 1.409 . S
C3277 C3275 1.415 . S
C3278 H3268 0.930 . S
C3278 C3276 1.419 . S
C3278 C3279 1.362 . S
C3279 H3269 0.930 . S
C3279 C3272 1.409 . S
C3279 C3278 1.362 . S
H3280 C3286 0.930 . S
H3281 C3289 0.930 . S
H3282 C3290 0.930 . S
H3283 C3291 0.930 . S
H3284 C3294 0.930 . S
H3285 C3295 0.930 . S
C3286 H3280 0.930 . S
C3286 C3287 1.355 . S
C3286 C3288 1.415 . S
C3287 C3286 1.355 . S
C3287 C3289 1.419 . S
C3288 C3286 1.415 . S
C3288 C3293 1.425 . S
C3288 C3295 1.409 . S
C3289 H3281 0.930 . S
C3289 C3287 1.419 . S
C3289 C3290 1.362 . S
C3290 H3282 0.930 . S
C3290 C3289 1.362 . S
C3290 C3293 1.409 . S
C3291 H3283 0.930 . S
C3291 C3292 1.355 . S
C3291 C3293 1.415 . S
C3292 C3291 1.355 . S
C3292 C3294 1.419 . S
C3293 C3288 1.425 . S
C3293 C3290 1.409 . S
C3293 C3291 1.415 . S
C3294 H3284 0.930 . S
C3294 C3292 1.419 . S
C3294 C3295 1.362 . S
C3295 H3285 0.930 . S
C3295 C3288 1.409 . S
C3295 C3294 1.362 . S
H3296 C3302 0.930 . S
H3297 C3305 0.930 . S
H3298 C3306 0.930 . S
H3299 C3307 0.930 . S
H3300 C3310 0.930 . S
H3301 C3311 0.930 . S
C3302 H3296 0.930 . S
C3302 C3303 1.355 . S
C3302 C3304 1.415 . S
C3303 C3302 1.355 . S
C3303 C3305 1.419 . S
C3304 C3302 1.415 . S
C3304 C3309 1.425 . S
C3304 C3311 1.409 . S
C3305 H3297 0.930 . S
C3305 C3303 1.419 . S
C3305 C3306 1.362 . S
C3306 H3298 0.930 . S
C3306 C3305 1.362 . S
C3306 C3309 1.409 . S
C3307 H3299 0.930 . S
C3307 C3308 1.355 . S
C3307 C3309 1.415 . S
C3308 C3307 1.355 . S
C3308 C3310 1.419 . S
C3309 C3304 1.425 . S
C3309 C3306 1.409 . S
C3309 C3307 1.415 . S
C3310 H3300 0.930 . S
C3310 C3308 1.419 . S
C3310 C3311 1.362 . S
C3311 H3301 0.930 . S
C3311 C3304 1.409 . S
C3311 C3310 1.362 . S
H3312 C3318 0.930 . S
H3313 C3321 0.930 . S
H3314 C3322 0.930 . S
H3315 C3323 0.930 . S
H3316 C3326 0.930 . S
H3317 C3327 0.930 . S
C3318 H3312 0.930 . S
C3318 C3319 1.355 . S
C3318 C3320 1.415 . S
C3319 C3318 1.355 . S
C3319 C3321 1.419 . S
C3320 C3318 1.415 . S
C3320 C3325 1.425 . S
C3320 C3327 1.409 . S
C3321 H3313 0.930 . S
C3321 C3319 1.419 . S
C3321 C3322 1.362 . S
C3322 H3314 0.930 . S
C3322 C3321 1.362 . S
C3322 C3325 1.409 . S
C3323 H3315 0.930 . S
C3323 C3324 1.355 . S
C3323 C3325 1.415 . S
C3324 C3323 1.355 . S
C3324 C3326 1.419 . S
C3325 C3320 1.425 . S
C3325 C3322 1.409 . S
C3325 C3323 1.415 . S
C3326 H3316 0.930 . S
C3326 C3324 1.419 . S
C3326 C3327 1.362 . S
C3327 H3317 0.930 . S
C3327 C3320 1.409 . S
C3327 C3326 1.362 . S
H3328 C3334 0.930 . S
H3329 C3337 0.930 . S
H3330 C3338 0.930 . S
H3331 C3339 0.930 . S
H3332 C3342 0.930 . S
H3333 C3343 0.930 . S
C3334 H3328 0.930 . S
C3334 C3335 1.355 . S
C3334 C3336 1.415 . S
C3335 C3334 1.355 . S
C3335 C3337 1.419 . S
C3336 C3334 1.415 . S
C3336 C3341 1.425 . S
C3336 C3343 1.409 . S
C3337 H3329 0.930 . S
C3337 C3335 1.419 . S
C3337 C3338 1.362 . S
C3338 H3330 0.930 . S
C3338 C3337 1.362 . S
C3338 C3341 1.409 . S
C3339 H3331 0.930 . S
C3339 C3340 1.355 . S
C3339 C3341 1.415 . S
C3340 C3339 1.355 . S
C3340 C3342 1.419 . S
C3341 C3336 1.425 . S
C3341 C3338 1.409 . S
C3341 C3339 1.415 . S
C3342 H3332 0.930 . S
C3342 C3340 1.419 . S
C3342 C3343 1.362 . S
C3343 H3333 0.930 . S
C3343 C3336 1.409 . S
C3343 C3342 1.362 . S
H3344 C3350 0.930 . S
H3345 C3353 0.930 . S
H3346 C3354 0.930 . S
H3347 C3355 0.930 . S
H3348 C3358 0.930 . S
H3349 C3359 0.930 . S
C3350 H3344 0.930 . S
C3350 C3351 1.355 . S
C3350 C3352 1.415 . S
C3351 C3350 1.355 . S
C3351 C3353 1.419 . S
C3352 C3350 1.415 . S
C3352 C3357 1.425 . S
C3352 C3359 1.409 . S
C3353 H3345 0.930 . S
C3353 C3351 1.419 . S
C3353 C3354 1.362 . S
C3354 H3346 0.930 . S
C3354 C3353 1.362 . S
C3354 C3357 1.409 . S
C3355 H3347 0.930 . S
C3355 C3356 1.355 . S
C3355 C3357 1.415 . S
C3356 C3355 1.355 . S
C3356 C3358 1.419 . S
C3357 C3352 1.425 . S
C3357 C3354 1.409 . S
C3357 C3355 1.415 . S
C3358 H3348 0.930 . S
C3358 C3356 1.419 . S
C3358 C3359 1.362 . S
C3359 H3349 0.930 . S
C3359 C3352 1.409 . S
C3359 C3358 1.362 . S
H3360 C3366 0.930 . S
H3361 C3369 0.930 . S
H3362 C3370 0.930 . S
H3363 C3371 0.930 . S
H3364 C3374 0.930 . S
H3365 C3375 0.930 . S
C3366 H3360 0.930 . S
C3366 C3367 1.355 . S
C3366 C3368 1.415 . S
C3367 C3366 1.355 . S
C3367 C3369 1.419 . S
C3368 C3366 1.415 . S
C3368 C3373 1.425 . S
C3368 C3375 1.409 . S
C3369 H3361 0.930 . S
C3369 C3367 1.419 . S
C3369 C3370 1.362 . S
C3370 H3362 0.930 . S
C3370 C3369 1.362 . S
C3370 C3373 1.409 . S
C3371 H3363 0.930 . S
C3371 C3372 1.355 . S
C3371 C3373 1.415 . S
C3372 C3371 1.355 . S
C3372 C3374 1.419 . S
C3373 C3368 1.425 . S
C3373 C3370 1.409 . S
C3373 C3371 1.415 . S
C3374 H3364 0.930 . S
C3374 C3372 1.419 . S
C3374 C3375 1.362 . S
C3375 H3365 0.930 . S
C3375 C3368 1.409 . S
C3375 C3374 1.362 . S
H3376 C3382 0.930 . S
H3377 C3385 0.930 . S
H3378 C3386 0.930 . S
H3379 C3387 0.930 . S
H3380 C3390 0.930 . S
H3381 C3391 0.930 . S
C3382 H3376 0.930 . S
C3382 C3383 1.355 . S
C3382 C3384 1.415 . S
C3383 C3382 1.355 . S
C3383 C3385 1.419 . S
C3384 C3382 1.415 . S
C3384 C3389 1.425 . S
C3384 C3391 1.409 . S
C3385 H3377 0.930 . S
C3385 C3383 1.419 . S
C3385 C3386 1.362 . S
C3386 H3378 0.930 . S
C3386 C3385 1.362 . S
C3386 C3389 1.409 . S
C3387 H3379 0.930 . S
C3387 C3388 1.355 . S
C3387 C3389 1.415 . S
C3388 C3387 1.355 . S
C3388 C3390 1.419 . S
C3389 C3384 1.425 . S
C3389 C3386 1.409 . S
C3389 C3387 1.415 . S
C3390 H3380 0.930 . S
C3390 C3388 1.419 . S
C3390 C3391 1.362 . S
C3391 H3381 0.930 . S
C3391 C3384 1.409 . S
C3391 C3390 1.362 . S
H3392 C3398 0.930 . S
H3393 C3401 0.930 . S
H3394 C3402 0.930 . S
H3395 C3403 0.930 . S
H3396 C3406 0.930 . S
H3397 C3407 0.930 . S
C3398 H3392 0.930 . S
C3398 C3399 1.355 . S
C3398 C3400 1.415 . S
C3399 C3398 1.355 . S
C3399 C3401 1.419 . S
C3400 C3398 1.415 . S
C3400 C3405 1.425 . S
C3400 C3407 1.409 . S
C3401 H3393 0.930 . S
C3401 C3399 1.419 . S
C3401 C3402 1.362 . S
C3402 H3394 0.930 . S
C3402 C3401 1.362 . S
C3402 C3405 1.409 . S
C3403 H3395 0.930 . S
C3403 C3404 1.355 . S
C3403 C3405 1.415 . S
C3404 C3403 1.355 . S
C3404 C3406 1.419 . S
C3405 C3400 1.425 . S
C3405 C3402 1.409 . S
C3405 C3403 1.415 . S
C3406 H3396 0.930 . S
C3406 C3404 1.419 . S
C3406 C3407 1.362 . S
C3407 H3397 0.930 . S
C3407 C3400 1.409 . S
C3407 C3406 1.362 . S
H3408 C3414 0.930 . S
H3409 C3417 0.930 . S
H3410 C3418 0.930 . S
H3411 C3419 0.930 . S
H3412 C3422 0.930 . S
H3413 C3423 0.930 . S
C3414 H3408 0.930 . S
C3414 C3415 1.355 . S
C3414 C3416 1.415 . S
C3415 C3414 1.355 . S
C3415 C3417 1.419 . S
C3416 C3414 1.415 . S
C3416 C3421 1.425 . S
C3416 C3423 1.409 . S
C3417 H3409 0.930 . S
C3417 C3415 1.419 . S
C3417 C3418 1.362 . S
C3418 H3410 0.930 . S
C3418 C3417 1.362 . S
C3418 C3421 1.409 . S
C3419 H3411 0.930 . S
C3419 C3420 1.355 . S
C3419 C3421 1.415 . S
C3420 C3419 1.355 . S
C3420 C3422 1.419 . S
C3421 C3416 1.425 . S
C3421 C3418 1.409 . S
C3421 C3419 1.415 . S
C3422 H3412 0.930 . S
C3422 C3420 1.419 . S
C3422 C3423 1.362 . S
C3423 H3413 0.930 . S
C3423 C3416 1.409 . S
C3423 C3422 1.362 . S
H3424 C3430 0.930 . S
H3425 C3433 0.930 . S
H3426 C3434 0.930 . S
H3427 C3435 0.930 . S
H3428 C3438 0.930 . S
H3429 C3439 0.930 . S
C3430 H3424 0.930 . S
C3430 C3431 1.355 . S
C3430 C3432 1.415 . S
C3431 C3430 1.355 . S
C3431 C3433 1.419 . S
C3432 C3430 1.415 . S
C3432 C3437 1.425 . S
C3432 C3439 1.409 . S
C3433 H3425 0.930 . S
C3433 C3431 1.419 . S
C3433 C3434 1.362 . S
C3434 H3426 0.930 . S
C3434 C3433 1.362 . S
C3434 C3437 1.409 . S
C3435 H3427 0.930 . S
C3435 C3436 1.355 . S
C3435 C3437 1.415 . S
C3436 C3435 1.355 . S
C3436 C3438 1.419 . S
C3437 C3432 1.425 . S
C3437 C3434 1.409 . S
C3437 C3435 1.415 . S
C3438 H3428 0.930 . S
C3438 C3436 1.419 . S
C3438 C3439 1.362 . S
C3439 H3429 0.930 . S
C3439 C3432 1.409 . S
C3439 C3438 1.362 . S
H3440 C3446 0.930 . S
H3441 C3449 0.930 . S
H3442 C3450 0.930 . S
H3443 C3451 0.930 . S
H3444 C3454 0.930 . S
H3445 C3455 0.930 . S
C3446 H3440 0.930 . S
C3446 C3447 1.355 . S
C3446 C3448 1.415 . S
C3447 C3446 1.355 . S
C3447 C3449 1.419 . S
C3448 C3446 1.415 . S
C3448 C3453 1.425 . S
C3448 C3455 1.409 . S
C3449 H3441 0.930 . S
C3449 C3447 1.419 . S
C3449 C3450 1.362 . S
C3450 H3442 0.930 . S
C3450 C3449 1.362 . S
C3450 C3453 1.409 . S
C3451 H3443 0.930 . S
C3451 C3452 1.355 . S
C3451 C3453 1.415 . S
C3452 C3451 1.355 . S
C3452 C3454 1.419 . S
C3453 C3448 1.425 . S
C3453 C3450 1.409 . S
C3453 C3451 1.415 . S
C3454 H3444 0.930 . S
C3454 C3452 1.419 . S
C3454 C3455 1.362 . S
C3455 H3445 0.930 . S
C3455 C3448 1.409 . S
C3455 C3454 1.362 . S
H3456 C3462 0.930 . S
H3457 C3465 0.930 . S
H3458 C3466 0.930 . S
H3459 C3467 0.930 . S
H3460 C3470 0.930 . S
H3461 C3471 0.930 . S
C3462 H3456 0.930 . S
C3462 C3463 1.355 . S
C3462 C3464 1.415 . S
C3463 C3462 1.355 . S
C3463 C3465 1.419 . S
C3464 C3462 1.415 . S
C3464 C3469 1.425 . S
C3464 C3471 1.409 . S
C3465 H3457 0.930 . S
C3465 C3463 1.419 . S
C3465 C3466 1.362 . S
C3466 H3458 0.930 . S
C3466 C3465 1.362 . S
C3466 C3469 1.409 . S
C3467 H3459 0.930 . S
C3467 C3468 1.355 . S
C3467 C3469 1.415 . S
C3468 C3467 1.355 . S
C3468 C3470 1.419 . S
C3469 C3464 1.425 . S
C3469 C3466 1.409 . S
C3469 C3467 1.415 . S
C3470 H3460 0.930 . S
C3470 C3468 1.419 . S
C3470 C3471 1.362 . S
C3471 H3461 0.930 . S
C3471 C3464 1.409 . S
C3471 C3470 1.362 . S
H3472 C3478 0.930 . S
H3473 C3481 0.930 . S
H3474 C3482 0.930 . S
H3475 C3483 0.930 . S
H3476 C3486 0.930 . S
H3477 C3487 0.930 . S
C3478 H3472 0.930 . S
C3478 C3479 1.355 . S
C3478 C3480 1.415 . S
C3479 C3478 1.355 . S
C3479 C3481 1.419 . S
C3480 C3478 1.415 . S
C3480 C3485 1.425 . S
C3480 C3487 1.409 . S
C3481 H3473 0.930 . S
C3481 C3479 1.419 . S
C3481 C3482 1.362 . S
C3482 H3474 0.930 . S
C3482 C3481 1.362 . S
C3482 C3485 1.409 . S
C3483 H3475 0.930 . S
C3483 C3484 1.355 . S
C3483 C3485 1.415 . S
C3484 C3483 1.355 . S
C3484 C3486 1.419 . S
C3485 C3480 1.425 . S
C3485 C3482 1.409 . S
C3485 C3483 1.415 . S
C3486 H3476 0.930 . S
C3486 C3484 1.419 . S
C3486 C3487 1.362 . S
C3487 H3477 0.930 . S
C3487 C3480 1.409 . S
C3487 C3486 1.362 . S
H3488 C3494 0.930 . S
H3489 C3497 0.930 . S
H3490 C3498 0.930 . S
H3491 C3499 0.930 . S
H3492 C3502 0.930 . S
H3493 C3503 0.930 . S
C3494 H3488 0.930 . S
C3494 C3495 1.355 . S
C3494 C3496 1.415 . S
C3495 C3494 1.355 . S
C3495 C3497 1.419 . S
C3496 C3494 1.415 . S
C3496 C3501 1.425 . S
C3496 C3503 1.409 . S
C3497 H3489 0.930 . S
C3497 C3495 1.419 . S
C3497 C3498 1.362 . S
C3498 H3490 0.930 . S
C3498 C3497 1.362 . S
C3498 C3501 1.409 . S
C3499 H3491 0.930 . S
C3499 C3500 1.355 . S
C3499 C3501 1.415 . S
C3500 C3499 1.355 . S
C3500 C3502 1.419 . S
C3501 C3496 1.425 . S
C3501 C3498 1.409 . S
C3501 C3499 1.415 . S
C3502 H3492 0.930 . S
C3502 C3500 1.419 . S
C3502 C3503 1.362 . S
C3503 H3493 0.930 . S
C3503 C3496 1.409 . S
C3503 C3502 1.362 . S
H3504 C3510 0.930 . S
H3505 C3513 0.930 . S
H3506 C3514 0.930 . S
H3507 C3515 0.930 . S
H3508 C3518 0.930 . S
H3509 C3519 0.930 . S
C3510 H3504 0.930 . S
C3510 C3511 1.355 . S
C3510 C3512 1.415 . S
C3511 C3510 1.355 . S
C3511 C3513 1.419 . S
C3512 C3510 1.415 . S
C3512 C3517 1.425 . S
C3512 C3519 1.409 . S
C3513 H3505 0.930 . S
C3513 C3511 1.419 . S
C3513 C3514 1.362 . S
C3514 H3506 0.930 . S
C3514 C3513 1.362 . S
C3514 C3517 1.409 . S
C3515 H3507 0.930 . S
C3515 C3516 1.355 . S
C3515 C3517 1.415 . S
C3516 C3515 1.355 . S
C3516 C3518 1.419 . S
C3517 C3512 1.425 . S
C3517 C3514 1.409 . S
C3517 C3515 1.415 . S
C3518 H3508 0.930 . S
C3518 C3516 1.419 . S
C3518 C3519 1.362 . S
C3519 H3509 0.930 . S
C3519 C3512 1.409 . S
C3519 C3518 1.362 . S
H3520 C3526 0.930 . S
H3521 C3529 0.930 . S
H3522 C3530 0.930 . S
H3523 C3531 0.930 . S
H3524 C3534 0.930 . S
H3525 C3535 0.930 . S
C3526 H3520 0.930 . S
C3526 C3527 1.355 . S
C3526 C3528 1.415 . S
C3527 C3526 1.355 . S
C3527 C3529 1.419 . S
C3528 C3526 1.415 . S
C3528 C3533 1.425 . S
C3528 C3535 1.409 . S
C3529 H3521 0.930 . S
C3529 C3527 1.419 . S
C3529 C3530 1.362 . S
C3530 H3522 0.930 . S
C3530 C3529 1.362 . S
C3530 C3533 1.409 . S
C3531 H3523 0.930 . S
C3531 C3532 1.355 . S
C3531 C3533 1.415 . S
C3532 C3531 1.355 . S
C3532 C3534 1.419 . S
C3533 C3528 1.425 . S
C3533 C3530 1.409 . S
C3533 C3531 1.415 . S
C3534 H3524 0.930 . S
C3534 C3532 1.419 . S
C3534 C3535 1.362 . S
C3535 H3525 0.930 . S
C3535 C3528 1.409 . S
C3535 C3534 1.362 . S
H3536 C3542 0.930 . S
H3537 C3545 0.930 . S
H3538 C3546 0.930 . S
H3539 C3547 0.930 . S
H3540 C3550 0.930 . S
H3541 C3551 0.930 . S
C3542 H3536 0.930 . S
C3542 C3543 1.355 . S
C3542 C3544 1.415 . S
C3543 C3542 1.355 . S
C3543 C3545 1.419 . S
C3544 C3542 1.415 . S
C3544 C3549 1.425 . S
C3544 C3551 1.409 . S
C3545 H3537 0.930 . S
C3545 C3543 1.419 . S
C3545 C3546 1.362 . S
C3546 H3538 0.930 . S
C3546 C3545 1.362 . S
C3546 C3549 1.409 . S
C3547 H3539 0.930 . S
C3547 C3548 1.355 . S
C3547 C3549 1.415 . S
C3548 C3547 1.355 . S
C3548 C3550 1.419 . S
C3549 C3544 1.425 . S
C3549 C3546 1.409 . S
C3549 C3547 1.415 . S
C3550 H3540 0.930 . S
C3550 C3548 1.419 . S
C3550 C3551 1.362 . S
C3551 H3541 0.930 . S
C3551 C3544 1.409 . S
C3551 C3550 1.362 . S
H3552 C3558 0.930 . S
H3553 C3561 0.930 . S
H3554 C3562 0.930 . S
H3555 C3563 0.930 . S
H3556 C3566 0.930 . S
H3557 C3567 0.930 . S
C3558 H3552 0.930 . S
C3558 C3559 1.355 . S
C3558 C3560 1.415 . S
C3559 C3558 1.355 . S
C3559 C3561 1.419 . S
C3560 C3558 1.415 . S
C3560 C3565 1.425 . S
C3560 C3567 1.409 . S
C3561 H3553 0.930 . S
C3561 C3559 1.419 . S
C3561 C3562 1.362 . S
C3562 H3554 0.930 . S
C3562 C3561 1.362 . S
C3562 C3565 1.409 . S
C3563 H3555 0.930 . S
C3563 C3564 1.355 . S
C3563 C3565 1.415 . S
C3564 C3563 1.355 . S
C3564 C3566 1.419 . S
C3565 C3560 1.425 . S
C3565 C3562 1.409 . S
C3565 C3563 1.415 . S
C3566 H3556 0.930 . S
C3566 C3564 1.419 . S
C3566 C3567 1.362 . S
C3567 H3557 0.930 . S
C3567 C3560 1.409 . S
C3567 C3566 1.362 . S
H3568 C3574 0.930 . S
H3569 C3577 0.930 . S
H3570 C3578 0.930 . S
H3571 C3579 0.930 . S
H3572 C3582 0.930 . S
H3573 C3583 0.930 . S
C3574 H3568 0.930 . S
C3574 C3575 1.355 . S
C3574 C3576 1.415 . S
C3575 C3574 1.355 . S
C3575 C3577 1.419 . S
C3576 C3574 1.415 . S
C3576 C3581 1.425 . S
C3576 C3583 1.409 . S
C3577 H3569 0.930 . S
C3577 C3575 1.419 . S
C3577 C3578 1.362 . S
C3578 H3570 0.930 . S
C3578 C3577 1.362 . S
C3578 C3581 1.409 . S
C3579 H3571 0.930 . S
C3579 C3580 1.355 . S
C3579 C3581 1.415 . S
C3580 C3579 1.355 . S
C3580 C3582 1.419 . S
C3581 C3576 1.425 . S
C3581 C3578 1.409 . S
C3581 C3579 1.415 . S
C3582 H3572 0.930 . S
C3582 C3580 1.419 . S
C3582 C3583 1.362 . S
C3583 H3573 0.930 . S
C3583 C3576 1.409 . S
C3583 C3582 1.362 . S
H3584 C3590 0.930 . S
H3585 C3593 0.930 . S
H3586 C3594 0.930 . S
H3587 C3595 0.930 . S
H3588 C3598 0.930 . S
H3589 C3599 0.930 . S
C3590 H3584 0.930 . S
C3590 C3591 1.355 . S
C3590 C3592 1.415 . S
C3591 C3590 1.355 . S
C3591 C3593 1.419 . S
C3592 C3590 1.415 . S
C3592 C3597 1.425 . S
C3592 C3599 1.409 . S
C3593 H3585 0.930 . S
C3593 C3591 1.419 . S
C3593 C3594 1.362 . S
C3594 H3586 0.930 . S
C3594 C3593 1.362 . S
C3594 C3597 1.409 . S
C3595 H3587 0.930 . S
C3595 C3596 1.355 . S
C3595 C3597 1.415 . S
C3596 C3595 1.355 . S
C3596 C3598 1.419 . S
C3597 C3592 1.425 . S
C3597 C3594 1.409 . S
C3597 C3595 1.415 . S
C3598 H3588 0.930 . S
C3598 C3596 1.419 . S
C3598 C3599 1.362 . S
C3599 H3589 0.930 . S
C3599 C3592 1.409 . S
C3599 C3598 1.362 . S
H3600 C3606 0.930 . S
H3601 C3609 0.930 . S
H3602 C3610 0.930 . S
H3603 C3611 0.930 . S
H3604 C3614 0.930 . S
H3605 C3615 0.930 . S
C3606 H3600 0.930 . S
C3606 C3607 1.355 . S
C3606 C3608 1.415 . S
C3607 C3606 1.355 . S
C3607 C3609 1.419 . S
C3608 C3606 1.415 . S
C3608 C3613 1.425 . S
C3608 C3615 1.409 . S
C3609 H3601 0.930 . S
C3609 C3607 1.419 . S
C3609 C3610 1.362 . S
C3610 H3602 0.930 . S
C3610 C3609 1.362 . S
C3610 C3613 1.409 . S
C3611 H3603 0.930 . S
C3611 C3612 1.355 . S
C3611 C3613 1.415 . S
C3612 C3611 1.355 . S
C3612 C3614 1.419 . S
C3613 C3608 1.425 . S
C3613 C3610 1.409 . S
C3613 C3611 1.415 . S
C3614 H3604 0.930 . S
C3614 C3612 1.419 . S
C3614 C3615 1.362 . S
C3615 H3605 0.930 . S
C3615 C3608 1.409 . S
C3615 C3614 1.362 . S
H3616 C3622 0.930 . S
H3617 C3625 0.930 . S
H3618 C3626 0.930 . S
H3619 C3627 0.930 . S
H3620 C3630 0.930 . S
H3621 C3631 0.930 . S
C3622 H3616 0.930 . S
C3622 C3623 1.355 . S
C3622 C3624 1.415 . S
C3623 C3622 1.355 . S
C3623 C3625 1.419 . S
C3624 C3622 1.415 . S
C3624 C3629 1.425 . S
C3624 C3631 1.409 . S
C3625 H3617 0.930 . S
C3625 C3623 1.419 . S
C3625 C3626 1.362 . S
C3626 H3618 0.930 . S
C3626 C3625 1.362 . S
C3626 C3629 1.409 . S
C3627 H3619 0.930 . S
C3627 C3628 1.355 . S
C3627 C3629 1.415 . S
C3628 C3627 1.355 . S
C3628 C3630 1.419 . S
C3629 C3624 1.425 . S
C3629 C3626 1.409 . S
C3629 C3627 1.415 . S
C3630 H3620 0.930 . S
C3630 C3628 1.419 . S
C3630 C3631 1.362 . S
C3631 H3621 0.930 . S
C3631 C3624 1.409 . S
C3631 C3630 1.362 . S
H3632 C3638 0.930 . S
H3633 C3641 0.930 . S
H3634 C3642 0.930 . S
H3635 C3643 0.930 . S
H3636 C3646 0.930 . S
H3637 C3647 0.930 . S
C3638 H3632 0.930 . S
C3638 C3639 1.355 . S
C3638 C3640 1.415 . S
C3639 C3638 1.355 . S
C3639 C3641 1.419 . S
C3640 C3638 1.415 . S
C3640 C3645 1.425 . S
C3640 C3647 1.409 . S
C3641 H3633 0.930 . S
C3641 C3639 1.419 . S
C3641 C3642 1.362 . S
C3642 H3634 0.930 . S
C3642 C3641 1.362 . S
C3642 C3645 1.409 . S
C3643 H3635 0.930 . S
C3643 C3644 1.355 . S
C3643 C3645 1.415 . S
C3644 C3643 1.355 . S
C3644 C3646 1.419 . S
C3645 C3640 1.425 . S
C3645 C3642 1.409 . S
C3645 C3643 1.415 . S
C3646 H3636 0.930 . S
C3646 C3644 1.419 . S
C3646 C3647 1.362 . S
C3647 H3637 0.930 . S
C3647 C3640 1.409 . S
C3647 C3646 1.362 . S
H3648 C3654 0.930 . S
H3649 C3657 0.930 . S
H3650 C3658 0.930 . S
H3651 C3659 0.930 . S
H3652 C3662 0.930 . S
H3653 C3663 0.930 . S
C3654 H3648 0.930 . S
C3654 C3655 1.355 . S
C3654 C3656 1.415 . S
C3655 C3654 1.355 . S
C3655 C3657 1.419 . S
C3656 C3654 1.415 . S
C3656 C3661 1.425 . S
C3656 C3663 1.409 . S
C3657 H3649 0.930 . S
C3657 C3655 1.419 . S
C3657 C3658 1.362 . S
C3658 H3650 0.930 . S
C3658 C3657 1.362 . S
C3658 C3661 1.409 . S
C3659 H3651 0.930 . S
C3659 C3660 1.355 . S
C3659 C3661 1.415 . S
C3660 C3659 1.355 . S
C3660 C3662 1.419 . S
C3661 C3656 1.425 . S
C3661 C3658 1.409 . S
C3661 C3659 1.415 . S
C3662 H3652 0.930 . S
C3662 C3660 1.419 . S
C3662 C3663 1.362 . S
C3663 H3653 0.930 . S
C3663 C3656 1.409 . S
C3663 C3662 1.362 . S
H3664 C3670 0.930 . S
H3665 C3673 0.930 . S
H3666 C3674 0.930 . S
H3667 C3675 0.930 . S
H3668 C3678 0.930 . S
H3669 C3679 0.930 . S
C3670 H3664 0.930 . S
C3670 C3671 1.355 . S
C3670 C3672 1.415 . S
C3671 C3670 1.355 . S
C3671 C3673 1.419 . S
C3672 C3670 1.415 . S
C3672 C3677 1.425 . S
C3672 C3679 1.409 . S
C3673 H3665 0.930 . S
C3673 C3671 1.419 . S
C3673 C3674 1.362 . S
C3674 H3666 0.930 . S
C3674 C3673 1.362 . S
C3674 C3677 1.409 . S
C3675 H3667 0.930 . S
C3675 C3676 1.355 . S
C3675 C3677 1.415 . S
C3676 C3675 1.355 . S
C3676 C3678 1.419 . S
C3677 C3672 1.425 . S
C3677 C3674 1.409 . S
C3677 C3675 1.415 . S
C3678 H3668 0.930 . S
C3678 C3676 1.419 . S
C3678 C3679 1.362 . S
C3679 H3669 0.930 . S
C3679 C3672 1.409 . S
C3679 C3678 1.362 . S
H3680 C3686 0.930 . S
H3681 C3689 0.930 . S
H3682 C3690 0.930 . S
H3683 C3691 0.930 . S
H3684 C3694 0.930 . S
H3685 C3695 0.930 . S
C3686 H3680 0.930 . S
C3686 C3687 1.355 . S
C3686 C3688 1.415 . S
C3687 C3686 1.355 . S
C3687 C3689 1.419 . S
C3688 C3686 1.415 . S
C3688 C3693 1.425 . S
C3688 C3695 1.409 . S
C3689 H3681 0.930 . S
C3689 C3687 1.419 . S
C3689 C3690 1.362 . S
C3690 H3682 0.930 . S
C3690 C3689 1.362 . S
C3690 C3693 1.409 . S
C3691 H3683 0.930 . S
C3691 C3692 1.355 . S
C3691 C3693 1.415 . S
C3692 C3691 1.355 . S
C3692 C3694 1.419 . S
C3693 C3688 1.425 . S
C3693 C3690 1.409 . S
C3693 C3691 1.415 . S
C3694 H3684 0.930 . S
C3694 C3692 1.419 . S
C3694 C3695 1.362 . S
C3695 H3685 0.930 . S
C3695 C3688 1.409 . S
C3695 C3694 1.362 . S
H3696 C3702 0.930 . S
H3697 C3705 0.930 . S
H3698 C3706 0.930 . S
H3699 C3707 0.930 . S
H3700 C3710 0.930 . S
H3701 C3711 0.930 . S
C3702 H3696 0.930 . S
C3702 C3703 1.355 . S
C3702 C3704 1.415 . S
C3703 C3702 1.355 . S
C3703 C3705 1.419 . S
C3704 C3702 1.415 . S
C3704 C3709 1.425 . S
C3704 C3711 1.409 . S
C3705 H3697 0.930 . S
C3705 C3703 1.419 . S
C3705 C3706 1.362 . S
C3706 H3698 0.930 . S
C3706 C3705 1.362 . S
C3706 C3709 1.409 . S
C3707 H3699 0.930 . S
C3707 C3708 1.355 . S
C3707 C3709 1.415 . S
C3708 C3707 1.355 . S
C3708 C3710 1.419 . S
C3709 C3704 1.425 . S
C3709 C3706 1.409 . S
C3709 C3707 1.415 . S
C3710 H3700 0.930 . S
C3710 C3708 1.419 . S
C3710 C3711 1.362 . S
C3711 H3701 0.930 . S
C3711 C3704 1.409 . S
C3711 C3710 1.362 . S
H3712 C3718 0.930 . S
H3713 C3721 0.930 . S
H3714 C3722 0.930 . S
H3715 C3723 0.930 . S
H3716 C3726 0.930 . S
H3717 C3727 0.930 . S
C3718 H3712 0.930 . S
C3718 C3719 1.355 . S
C3718 C3720 1.415 . S
C3719 C3718 1.355 . S
C3719 C3721 1.419 . S
C3720 C3718 1.415 . S
C3720 C3725 1.425 . S
C3720 C3727 1.409 . S
C3721 H3713 0.930 . S
C3721 C3719 1.419 . S
C3721 C3722 1.362 . S
C3722 H3714 0.930 . S
C3722 C3721 1.362 . S
C3722 C3725 1.409 . S
C3723 H3715 0.930 . S
C3723 C3724 1.355 . S
C3723 C3725 1.415 . S
C3724 C3723 1.355 . S
C3724 C3726 1.419 . S
C3725 C3720 1.425 . S
C3725 C3722 1.409 . S
C3725 C3723 1.415 . S
C3726 H3716 0.930 . S
C3726 C3724 1.419 . S
C3726 C3727 1.362 . S
C3727 H3717 0.930 . S
C3727 C3720 1.409 . S
C3727 C3726 1.362 . S
H3728 C3734 0.930 . S
H3729 C3737 0.930 . S
H3730 C3738 0.930 . S
H3731 C3739 0.930 . S
H3732 C3742 0.930 . S
H3733 C3743 0.930 . S
C3734 H3728 0.930 . S
C3734 C3735 1.355 . S
C3734 C3736 1.415 . S
C3735 C3734 1.355 . S
C3735 C3737 1.419 . S
C3736 C3734 1.415 . S
C3736 C3741 1.425 . S
C3736 C3743 1.409 . S
C3737 H3729 0.930 . S
C3737 C3735 1.419 . S
C3737 C3738 1.362 . S
C3738 H3730 0.930 . S
C3738 C3737 1.362 . S
C3738 C3741 1.409 . S
C3739 H3731 0.930 . S
C3739 C3740 1.355 . S
C3739 C3741 1.415 . S
C3740 C3739 1.355 . S
C3740 C3742 1.419 . S
C3741 C3736 1.425 . S
C3741 C3738 1.409 . S
C3741 C3739 1.415 . S
C3742 H3732 0.930 . S
C3742 C3740 1.419 . S
C3742 C3743 1.362 . S
C3743 H3733 0.930 . S
C3743 C3736 1.409 . S
C3743 C3742 1.362 . S
H3744 C3750 0.930 . S
H3745 C3753 0.930 . S
H3746 C3754 0.930 . S
H3747 C3755 0.930 . S
H3748 C3758 0.930 . S
H3749 C3759 0.930 . S
C3750 H3744 0.930 . S
C3750 C3751 1.355 . S
C3750 C3752 1.415 . S
C3751 C3750 1.355 . S
C3751 C3753 1.419 . S
C3752 C3750 1.415 . S
C3752 C3757 1.425 . S
C3752 C3759 1.409 . S
C3753 H3745 0.930 . S
C3753 C3751 1.419 . S
C3753 C3754 1.362 . S
C3754 H3746 0.930 . S
C3754 C3753 1.362 . S
C3754 C3757 1.409 . S
C3755 H3747 0.930 . S
C3755 C3756 1.355 . S
C3755 C3757 1.415 . S
C3756 C3755 1.355 . S
C3756 C3758 1.419 . S
C3757 C3752 1.425 . S
C3757 C3754 1.409 . S
C3757 C3755 1.415 . S
C3758 H3748 0.930 . S
C3758 C3756 1.419 . S
C3758 C3759 1.362 . S
C3759 H3749 0.930 . S
C3759 C3752 1.409 . S
C3759 C3758 1.362 . S
H3760 C3766 0.930 . S
H3761 C3769 0.930 . S
H3762 C3770 0.930 . S
H3763 C3771 0.930 . S
H3764 C3774 0.930 . S
H3765 C3775 0.930 . S
C3766 H3760 0.930 . S
C3766 C3767 1.355 . S
C3766 C3768 1.415 . S
C3767 C3766 1.355 . S
C3767 C3769 1.419 . S
C3768 C3766 1.415 . S
C3768 C3773 1.425 . S
C3768 C3775 1.409 . S
C3769 H3761 0.930 . S
C3769 C3767 1.419 . S
C3769 C3770 1.362 . S
C3770 H3762 0.930 . S
C3770 C3769 1.362 . S
C3770 C3773 1.409 . S
C3771 H3763 0.930 . S
C3771 C3772 1.355 . S
C3771 C3773 1.415 . S
C3772 C3771 1.355 . S
C3772 C3774 1.419 . S
C3773 C3768 1.425 . S
C3773 C3770 1.409 . S
C3773 C3771 1.415 . S
C3774 H3764 0.930 . S
C3774 C3772 1.419 . S
C3774 C3775 1.362 . S
C3775 H3765 0.930 . S
C3775 C3768 1.409 . S
C3775 C3774 1.362 . S
H3776 C3782 0.930 . S
H3777 C3785 0.930 . S
H3778 C3786 0.930 . S
H3779 C3787 0.930 . S
H3780 C3790 0.930 . S
H3781 C3791 0.930 . S
C3782 H3776 0.930 . S
C3782 C3783 1.355 . S
C3782 C3784 1.415 . S
C3783 C3782 1.355 . S
C3783 C3785 1.419 . S
C3784 C3782 1.415 . S
C3784 C3789 1.425 . S
C3784 C3791 1.409 . S
C3785 H3777 0.930 . S
C3785 C3783 1.419 . S
C3785 C3786 1.362 . S
C3786 H3778 0.930 . S
C3786 C3785 1.362 . S
C3786 C3789 1.409 . S
C3787 H3779 0.930 . S
C3787 C3788 1.355 . S
C3787 C3789 1.415 . S
C3788 C3787 1.355 . S
C3788 C3790 1.419 . S
C3789 C3784 1.425 . S
C3789 C3786 1.409 . S
C3789 C3787 1.415 . S
C3790 H3780 0.930 . S
C3790 C3788 1.419 . S
C3790 C3791 1.362 . S
C3791 H3781 0.930 . S
C3791 C3784 1.409 . S
C3791 C3790 1.362 . S
H3792 C3798 0.930 . S
H3793 C3801 0.930 . S
H3794 C3802 0.930 . S
H3795 C3803 0.930 . S
H3796 C3806 0.930 . S
H3797 C3807 0.930 . S
C3798 H3792 0.930 . S
C3798 C3799 1.355 . S
C3798 C3800 1.415 . S
C3799 C3798 1.355 . S
C3799 C3801 1.419 . S
C3800 C3798 1.415 . S
C3800 C3805 1.425 . S
C3800 C3807 1.409 . S
C3801 H3793 0.930 . S
C3801 C3799 1.419 . S
C3801 C3802 1.362 . S
C3802 H3794 0.930 . S
C3802 C3801 1.362 . S
C3802 C3805 1.409 . S
C3803 H3795 0.930 . S
C3803 C3804 1.355 . S
C3803 C3805 1.415 . S
C3804 C3803 1.355 . S
C3804 C3806 1.419 . S
C3805 C3800 1.425 . S
C3805 C3802 1.409 . S
C3805 C3803 1.415 . S
C3806 H3796 0.930 . S
C3806 C3804 1.419 . S
C3806 C3807 1.362 . S
C3807 H3797 0.930 . S
C3807 C3800 1.409 . S
C3807 C3806 1.362 . S
H3808 C3814 0.930 . S
H3809 C3817 0.930 . S
H3810 C3818 0.930 . S
H3811 C3819 0.930 . S
H3812 C3822 0.930 . S
H3813 C3823 0.930 . S
C3814 H3808 0.930 . S
C3814 C3815 1.355 . S
C3814 C3816 1.415 . S
C3815 C3814 1.355 . S
C3815 C3817 1.419 . S
C3816 C3814 1.415 . S
C3816 C3821 1.425 . S
C3816 C3823 1.409 . S
C3817 H3809 0.930 . S
C3817 C3815 1.419 . S
C3817 C3818 1.362 . S
C3818 H3810 0.930 . S
C3818 C3817 1.362 . S
C3818 C3821 1.409 . S
C3819 H3811 0.930 . S
C3819 C3820 1.355 . S
C3819 C3821 1.415 . S
C3820 C3819 1.355 . S
C3820 C3822 1.419 . S
C3821 C3816 1.425 . S
C3821 C3818 1.409 . S
C3821 C3819 1.415 . S
C3822 H3812 0.930 . S
C3822 C3820 1.419 . S
C3822 C3823 1.362 . S
C3823 H3813 0.930 . S
C3823 C3816 1.409 . S
C3823 C3822 1.362 . S
H3824 C3830 0.930 . S
H3825 C3833 0.930 . S
H3826 C3834 0.930 . S
H3827 C3835 0.930 . S
H3828 C3838 0.930 . S
H3829 C3839 0.930 . S
C3830 H3824 0.930 . S
C3830 C3831 1.355 . S
C3830 C3832 1.415 . S
C3831 C3830 1.355 . S
C3831 C3833 1.419 . S
C3832 C3830 1.415 . S
C3832 C3837 1.425 . S
C3832 C3839 1.409 . S
C3833 H3825 0.930 . S
C3833 C3831 1.419 . S
C3833 C3834 1.362 . S
C3834 H3826 0.930 . S
C3834 C3833 1.362 . S
C3834 C3837 1.409 . S
C3835 H3827 0.930 . S
C3835 C3836 1.355 . S
C3835 C3837 1.415 . S
C3836 C3835 1.355 . S
C3836 C3838 1.419 . S
C3837 C3832 1.425 . S
C3837 C3834 1.409 . S
C3837 C3835 1.415 . S
C3838 H3828 0.930 . S
C3838 C3836 1.419 . S
C3838 C3839 1.362 . S
C3839 H3829 0.930 . S
C3839 C3832 1.409 . S
C3839 C3838 1.362 . S
H3840 C3846 0.930 . S
H3841 C3849 0.930 . S
H3842 C3850 0.930 . S
H3843 C3851 0.930 . S
H3844 C3854 0.930 . S
H3845 C3855 0.930 . S
C3846 H3840 0.930 . S
C3846 C3847 1.355 . S
C3846 C3848 1.415 . S
C3847 C3846 1.355 . S
C3847 C3849 1.419 . S
C3848 C3846 1.415 . S
C3848 C3853 1.425 . S
C3848 C3855 1.409 . S
C3849 H3841 0.930 . S
C3849 C3847 1.419 . S
C3849 C3850 1.362 . S
C3850 H3842 0.930 . S
C3850 C3849 1.362 . S
C3850 C3853 1.409 . S
C3851 H3843 0.930 . S
C3851 C3852 1.355 . S
C3851 C3853 1.415 . S
C3852 C3851 1.355 . S
C3852 C3854 1.419 . S
C3853 C3848 1.425 . S
C3853 C3850 1.409 . S
C3853 C3851 1.415 . S
C3854 H3844 0.930 . S
C3854 C3852 1.419 . S
C3854 C3855 1.362 . S
C3855 H3845 0.930 . S
C3855 C3848 1.409 . S
C3855 C3854 1.362 . S
H3856 C3862 0.930 . S
H3857 C3865 0.930 . S
H3858 C3866 0.930 . S
H3859 C3867 0.930 . S
H3860 C3870 0.930 . S
H3861 C3871 0.930 . S
C3862 H3856 0.930 . S
C3862 C3863 1.355 . S
C3862 C3864 1.415 . S
C3863 C3862 1.355 . S
C3863 C3865 1.419 . S
C3864 C3862 1.415 . S
C3864 C3869 1.425 . S
C3864 C3871 1.409 . S
C3865 H3857 0.930 . S
C3865 C3863 1.419 . S
C3865 C3866 1.362 . S
C3866 H3858 0.930 . S
C3866 C3865 1.362 . S
C3866 C3869 1.409 . S
C3867 H3859 0.930 . S
C3867 C3868 1.355 . S
C3867 C3869 1.415 . S
C3868 C3867 1.355 . S
C3868 C3870 1.419 . S
C3869 C3864 1.425 . S
C3869 C3866 1.409 . S
C3869 C3867 1.415 . S
C3870 H3860 0.930 . S
C3870 C3868 1.419 . S
C3870 C3871 1.362 . S
C3871 H3861 0.930 . S
C3871 C3864 1.409 . S
C3871 C3870 1.362 . S
H3872 C3878 0.930 . S
H3873 C3881 0.930 . S
H3874 C3882 0.930 . S
H3875 C3883 0.930 . S
H3876 C3886 0.930 . S
H3877 C3887 0.930 . S
C3878 H3872 0.930 . S
C3878 C3879 1.355 . S
C3878 C3880 1.415 . S
C3879 C3878 1.355 . S
C3879 C3881 1.419 . S
C3880 C3878 1.415 . S
C3880 C3885 1.425 . S
C3880 C3887 1.409 . S
C3881 H3873 0.930 . S
C3881 C3879 1.419 . S
C3881 C3882 1.362 . S
C3882 H3874 0.930 . S
C3882 C3881 1.362 . S
C3882 C3885 1.409 . S
C3883 H3875 0.930 . S
C3883 C3884 1.355 . S
C3883 C3885 1.415 . S
C3884 C3883 1.355 . S
C3884 C3886 1.419 . S
C3885 C3880 1.425 . S
C3885 C3882 1.409 . S
C3885 C3883 1.415 . S
C3886 H3876 0.930 . S
C3886 C3884 1.419 . S
C3886 C3887 1.362 . S
C3887 H3877 0.930 . S
C3887 C3880 1.409 . S
C3887 C3886 1.362 . S
H3888 C3894 0.930 . S
H3889 C3897 0.930 . S
H3890 C3898 0.930 . S
H3891 C3899 0.930 . S
H3892 C3902 0.930 . S
H3893 C3903 0.930 . S
C3894 H3888 0.930 . S
C3894 C3895 1.355 . S
C3894 C3896 1.415 . S
C3895 C3894 1.355 . S
C3895 C3897 1.419 . S
C3896 C3894 1.415 . S
C3896 C3901 1.425 . S
C3896 C3903 1.409 . S
C3897 H3889 0.930 . S
C3897 C3895 1.419 . S
C3897 C3898 1.362 . S
C3898 H3890 0.930 . S
C3898 C3897 1.362 . S
C3898 C3901 1.409 . S
C3899 H3891 0.930 . S
C3899 C3900 1.355 . S
C3899 C3901 1.415 . S
C3900 C3899 1.355 . S
C3900 C3902 1.419 . S
C3901 C3896 1.425 . S
C3901 C3898 1.409 . S
C3901 C3899 1.415 . S
C3902 H3892 0.930 . S
C3902 C3900 1.419 . S
C3902 C3903 1.362 . S
C3903 H3893 0.930 . S
C3903 C3896 1.409 . S
C3903 C3902 1.362 . S
H3904 C3910 0.930 . S
H3905 C3913 0.930 . S
H3906 C3914 0.930 . S
H3907 C3915 0.930 . S
H3908 C3918 0.930 . S
H3909 C3919 0.930 . S
C3910 H3904 0.930 . S
C3910 C3911 1.355 . S
C3910 C3912 1.415 . S
C3911 C3910 1.355 . S
C3911 C3913 1.419 . S
C3912 C3910 1.415 . S
C3912 C3917 1.425 . S
C3912 C3919 1.409 . S
C3913 H3905 0.930 . S
C3913 C3911 1.419 . S
C3913 C3914 1.362 . S
C3914 H3906 0.930 . S
C3914 C3913 1.362 . S
C3914 C3917 1.409 . S
C3915 H3907 0.930 . S
C3915 C3916 1.355 . S
C3915 C3917 1.415 . S
C3916 C3915 1.355 . S
C3916 C3918 1.419 . S
C3917 C3912 1.425 . S
C3917 C3914 1.409 . S
C3917 C3915 1.415 . S
C3918 H3908 0.930 . S
C3918 C3916 1.419 . S
C3918 C3919 1.362 . S
C3919 H3909 0.930 . S
C3919 C3912 1.409 . S
C3919 C3918 1.362 . S
H3920 C3926 0.930 . S
H3921 C3929 0.930 . S
H3922 C3930 0.930 . S
H3923 C3931 0.930 . S
H3924 C3934 0.930 . S
H3925 C3935 0.930 . S
C3926 H3920 0.930 . S
C3926 C3927 1.355 . S
C3926 C3928 1.415 . S
C3927 C3926 1.355 . S
C3927 C3929 1.419 . S
C3928 C3926 1.415 . S
C3928 C3933 1.425 . S
C3928 C3935 1.409 . S
C3929 H3921 0.930 . S
C3929 C3927 1.419 . S
C3929 C3930 1.362 . S
C3930 H3922 0.930 . S
C3930 C3929 1.362 . S
C3930 C3933 1.409 . S
C3931 H3923 0.930 . S
C3931 C3932 1.355 . S
C3931 C3933 1.415 . S
C3932 C3931 1.355 . S
C3932 C3934 1.419 . S
C3933 C3928 1.425 . S
C3933 C3930 1.409 . S
C3933 C3931 1.415 . S
C3934 H3924 0.930 . S
C3934 C3932 1.419 . S
C3934 C3935 1.362 . S
C3935 H3925 0.930 . S
C3935 C3928 1.409 . S
C3935 C3934 1.362 . S
H3936 C3942 0.930 . S
H3937 C3945 0.930 . S
H3938 C3946 0.930 . S
H3939 C3947 0.930 . S
H3940 C3950 0.930 . S
H3941 C3951 0.930 . S
C3942 H3936 0.930 . S
C3942 C3943 1.355 . S
C3942 C3944 1.415 . S
C3943 C3942 1.355 . S
C3943 C3945 1.419 . S
C3944 C3942 1.415 . S
C3944 C3949 1.425 . S
C3944 C3951 1.409 . S
C3945 H3937 0.930 . S
C3945 C3943 1.419 . S
C3945 C3946 1.362 . S
C3946 H3938 0.930 . S
C3946 C3945 1.362 . S
C3946 C3949 1.409 . S
C3947 H3939 0.930 . S
C3947 C3948 1.355 . S
C3947 C3949 1.415 . S
C3948 C3947 1.355 . S
C3948 C3950 1.419 . S
C3949 C3944 1.425 . S
C3949 C3946 1.409 . S
C3949 C3947 1.415 . S
C3950 H3940 0.930 . S
C3950 C3948 1.419 . S
C3950 C3951 1.362 . S
C3951 H3941 0.930 . S
C3951 C3944 1.409 . S
C3951 C3950 1.362 . S
H3952 C3958 0.930 . S
H3953 C3961 0.930 . S
H3954 C3962 0.930 . S
H3955 C3963 0.930 . S
H3956 C3966 0.930 . S
H3957 C3967 0.930 . S
C3958 H3952 0.930 . S
C3958 C3959 1.355 . S
C3958 C3960 1.415 . S
C3959 C3958 1.355 . S
C3959 C3961 1.419 . S
C3960 C3958 1.415 . S
C3960 C3965 1.425 . S
C3960 C3967 1.409 . S
C3961 H3953 0.930 . S
C3961 C3959 1.419 . S
C3961 C3962 1.362 . S
C3962 H3954 0.930 . S
C3962 C3961 1.362 . S
C3962 C3965 1.409 . S
C3963 H3955 0.930 . S
C3963 C3964 1.355 . S
C3963 C3965 1.415 . S
C3964 C3963 1.355 . S
C3964 C3966 1.419 . S
C3965 C3960 1.425 . S
C3965 C3962 1.409 . S
C3965 C3963 1.415 . S
C3966 H3956 0.930 . S
C3966 C3964 1.419 . S
C3966 C3967 1.362 . S
C3967 H3957 0.930 . S
C3967 C3960 1.409 . S
C3967 C3966 1.362 . S
H3968 C3974 0.930 . S
H3969 C3977 0.930 . S
H3970 C3978 0.930 . S
H3971 C3979 0.930 . S
H3972 C3982 0.930 . S
H3973 C3983 0.930 . S
C3974 H3968 0.930 . S
C3974 C3975 1.355 . S
C3974 C3976 1.415 . S
C3975 C3974 1.355 . S
C3975 C3977 1.419 . S
C3976 C3974 1.415 . S
C3976 C3981 1.425 . S
C3976 C3983 1.409 . S
C3977 H3969 0.930 . S
C3977 C3975 1.419 . S
C3977 C3978 1.362 . S
C3978 H3970 0.930 . S
C3978 C3977 1.362 . S
C3978 C3981 1.409 . S
C3979 H3971 0.930 . S
C3979 C3980 1.355 . S
C3979 C3981 1.415 . S
C3980 C3979 1.355 . S
C3980 C3982 1.419 . S
C3981 C3976 1.425 . S
C3981 C3978 1.409 . S
C3981 C3979 1.415 . S
C3982 H3972 0.930 . S
C3982 C3980 1.419 . S
C3982 C3983 1.362 . S
C3983 H3973 0.930 . S
C3983 C3976 1.409 . S
C3983 C3982 1.362 . S
H3984 C3990 0.930 . S
H3985 C3993 0.930 . S
H3986 C3994 0.930 . S
H3987 C3995 0.930 . S
H3988 C3998 0.930 . S
H3989 C3999 0.930 . S
C3990 H3984 0.930 . S
C3990 C3991 1.355 . S
C3990 C3992 1.415 . S
C3991 C3990 1.355 . S
C3991 C3993 1.419 . S
C3992 C3990 1.415 . S
C3992 C3997 1.425 . S
C3992 C3999 1.409 . S
C3993 H3985 0.930 . S
C3993 C3991 1.419 . S
C3993 C3994 1.362 . S
C3994 H3986 0.930 . S
C3994 C3993 1.362 . S
C3994 C3997 1.409 . S
C3995 H3987 0.930 . S
C3995 C3996 1.355 . S
C3995 C3997 1.415 . S
C3996 C3995 1.355 . S
C3996 C3998 1.419 . S
C3997 C3992 1.425 . S
C3997 C3994 1.409 . S
C3997 C3995 1.415 . S
C3998 H3988 0.930 . S
C3998 C3996 1.419 . S
C3998 C3999 1.362 . S
C3999 H3989 0.930 . S
C3999 C3992 1.409 . S
C3999 C3998 1.362 . S
H4000 C4006 0.930 . S
H4001 C4009 0.930 . S
H4002 C4010 0.930 . S
H4003 C4011 0.930 . S
H4004 C4014 0.930 . S
H4005 C4015 0.930 . S
C4006 H4000 0.930 . S
C4006 C4007 1.355 . S
C4006 C4008 1.415 . S
C4007 C4006 1.355 . S
C4007 C4009 1.419 . S
C4008 C4006 1.415 . S
C4008 C4013 1.425 . S
C4008 C4015 1.409 . S
C4009 H4001 0.930 . S
C4009 C4007 1.419 . S
C4009 C4010 1.362 . S
C4010 H4002 0.930 . S
C4010 C4009 1.362 . S
C4010 C4013 1.409 . S
C4011 H4003 0.930 . S
C4011 C4012 1.355 . S
C4011 C4013 1.415 . S
C4012 C4011 1.355 . S
C4012 C4014 1.419 . S
C4013 C4008 1.425 . S
C4013 C4010 1.409 . S
C4013 C4011 1.415 . S
C4014 H4004 0.930 . S
C4014 C4012 1.419 . S
C4014 C4015 1.362 . S
C4015 H4005 0.930 . S
C4015 C4008 1.409 . S
C4015 C4014 1.362 . S
H4016 C4022 0.930 . S
H4017 C4025 0.930 . S
H4018 C4026 0.930 . S
H4019 C4027 0.930 . S
H4020 C4030 0.930 . S
H4021 C4031 0.930 . S
C4022 H4016 0.930 . S
C4022 C4023 1.355 . S
C4022 C4024 1.415 . S
C4023 C4022 1.355 . S
C4023 C4025 1.419 . S
C4024 C4022 1.415 . S
C4024 C4029 1.425 . S
C4024 C4031 1.409 . S
C4025 H4017 0.930 . S
C4025 C4023 1.419 . S
C4025 C4026 1.362 . S
C4026 H4018 0.930 . S
C4026 C4025 1.362 . S
C4026 C4029 1.409 . S
C4027 H4019 0.930 . S
C4027 C4028 1.355 . S
C4027 C4029 1.415 . S
C4028 C4027 1.355 . S
C4028 C4030 1.419 . S
C4029 C4024 1.425 . S
C4029 C4026 1.409 . S
C4029 C4027 1.415 . S
C4030 H4020 0.930 . S
C4030 C4028 1.419 . S
C4030 C4031 1.362 . S
C4031 H4021 0.930 . S
C4031 C4024 1.409 . S
C4031 C4030 1.362 . S
H4032 C4038 0.930 . S
H4033 C4041 0.930 . S
H4034 C4042 0.930 . S
H4035 C4043 0.930 . S
H4036 C4046 0.930 . S
H4037 C4047 0.930 . S
C4038 H4032 0.930 . S
C4038 C4039 1.355 . S
C4038 C4040 1.415 . S
C4039 C4038 1.355 . S
C4039 C4041 1.419 . S
C4040 C4038 1.415 . S
C4040 C4045 1.425 . S
C4040 C4047 1.409 . S
C4041 H4033 0.930 . S
C4041 C4039 1.419 . S
C4041 C4042 1.362 . S
C4042 H4034 0.930 . S
C4042 C4041 1.362 . S
C4042 C4045 1.409 . S
C4043 H4035 0.930 . S
C4043 C4044 1.355 . S
C4043 C4045 1.415 . S
C4044 C4043 1.355 . S
C4044 C4046 1.419 . S
C4045 C4040 1.425 . S
C4045 C4042 1.409 . S
C4045 C4043 1.415 . S
C4046 H4036 0.930 . S
C4046 C4044 1.419 . S
C4046 C4047 1.362 . S
C4047 H4037 0.930 . S
C4047 C4040 1.409 . S
C4047 C4046 1.362 . S
H4048 C4054 0.930 . S
H4049 C4057 0.930 . S
H4050 C4058 0.930 . S
H4051 C4059 0.930 . S
H4052 C4062 0.930 . S
H4053 C4063 0.930 . S
C4054 H4048 0.930 . S
C4054 C4055 1.355 . S
C4054 C4056 1.415 . S
C4055 C4054 1.355 . S
C4055 C4057 1.419 . S
C4056 C4054 1.415 . S
C4056 C4061 1.425 . S
C4056 C4063 1.409 . S
C4057 H4049 0.930 . S
C4057 C4055 1.419 . S
C4057 C4058 1.362 . S
C4058 H4050 0.930 . S
C4058 C4057 1.362 . S
C4058 C4061 1.409 . S
C4059 H4051 0.930 . S
C4059 C4060 1.355 . S
C4059 C4061 1.415 . S
C4060 C4059 1.355 . S
C4060 C4062 1.419 . S
C4061 C4056 1.425 . S
C4061 C4058 1.409 . S
C4061 C4059 1.415 . S
C4062 H4052 0.930 . S
C4062 C4060 1.419 . S
C4062 C4063 1.362 . S
C4063 H4053 0.930 . S
C4063 C4056 1.409 . S
C4063 C4062 1.362 . S
H4064 C4070 0.930 . S
H4065 C4073 0.930 . S
H4066 C4074 0.930 . S
H4067 C4075 0.930 . S
H4068 C4078 0.930 . S
H4069 C4079 0.930 . S
C4070 H4064 0.930 . S
C4070 C4071 1.355 . S
C4070 C4072 1.415 . S
C4071 C4070 1.355 . S
C4071 C4073 1.419 . S
C4072 C4070 1.415 . S
C4072 C4077 1.425 . S
C4072 C4079 1.409 . S
C4073 H4065 0.930 . S
C4073 C4071 1.419 . S
C4073 C4074 1.362 . S
C4074 H4066 0.930 . S
C4074 C4073 1.362 . S
C4074 C4077 1.409 . S
C4075 H4067 0.930 . S
C4075 C4076 1.355 . S
C4075 C4077 1.415 . S
C4076 C4075 1.355 . S
C4076 C4078 1.419 . S
C4077 C4072 1.425 . S
C4077 C4074 1.409 . S
C4077 C4075 1.415 . S
C4078 H4068 0.930 . S
C4078 C4076 1.419 . S
C4078 C4079 1.362 . S
C4079 H4069 0.930 . S
C4079 C4072 1.409 . S
C4079 C4078 1.362 . S
H4080 C4086 0.930 . S
H4081 C4089 0.930 . S
H4082 C4090 0.930 . S
H4083 C4091 0.930 . S
H4084 C4094 0.930 . S
H4085 C4095 0.930 . S
C4086 H4080 0.930 . S
C4086 C4087 1.355 . S
C4086 C4088 1.415 . S
C4087 C4086 1.355 . S
C4087 C4089 1.419 . S
C4088 C4086 1.415 . S
C4088 C4093 1.425 . S
C4088 C4095 1.409 . S
C4089 H4081 0.930 . S
C4089 C4087 1.419 . S
C4089 C4090 1.362 . S
C4090 H4082 0.930 . S
C4090 C4089 1.362 . S
C4090 C4093 1.409 . S
C4091 H4083 0.930 . S
C4091 C4092 1.355 . S
C4091 C4093 1.415 . S
C4092 C4091 1.355 . S
C4092 C4094 1.419 . S
C4093 C4088 1.425 . S
C4093 C4090 1.409 . S
C4093 C4091 1.415 . S
C4094 H4084 0.930 . S
C4094 C4092 1.419 . S
C4094 C4095 1.362 . S
C4095 H4085 0.930 . S
C4095 C4088 1.409 . S
C4095 C4094 1.362 . S
H4096 C4102 0.930 . S
H4097 C4105 0.930 . S
H4098 C4106 0.930 . S
H4099 C4107 0.930 . S
H4100 C4110 0.930 . S
H4101 C4111 0.930 . S
C4102 H4096 0.930 . S
C4102 C4103 1.355 . S
C4102 C4104 1.415 . S
C4103 C4102 1.355 . S
C4103 C4105 1.419 . S
C4104 C4102 1.415 . S
C4104 C4109 1.425 . S
C4104 C4111 1.409 . S
C4105 H4097 0.930 . S
C4105 C4103 1.419 . S
C4105 C4106 1.362 . S
C4106 H4098 0.930 . S
C4106 C4105 1.362 . S
C4106 C4109 1.409 . S
C4107 H4099 0.930 . S
C4107 C4108 1.355 . S
C4107 C4109 1.415 . S
C4108 C4107 1.355 . S
C4108 C4110 1.419 . S
C4109 C4104 1.425 . S
C4109 C4106 1.409 . S
C4109 C4107 1.415 . S
C4110 H4100 0.930 . S
C4110 C4108 1.419 . S
C4110 C4111 1.362 . S
C4111 H4101 0.930 . S
C4111 C4104 1.409 . S
C4111 C4110 1.362 . S
H4112 C4118 0.930 . S
H4113 C4121 0.930 . S
H4114 C4122 0.930 . S
H4115 C4123 0.930 . S
H4116 C4126 0.930 . S
H4117 C4127 0.930 . S
C4118 H4112 0.930 . S
C4118 C4119 1.355 . S
C4118 C4120 1.415 . S
C4119 C4118 1.355 . S
C4119 C4121 1.419 . S
C4120 C4118 1.415 . S
C4120 C4125 1.425 . S
C4120 C4127 1.409 . S
C4121 H4113 0.930 . S
C4121 C4119 1.419 . S
C4121 C4122 1.362 . S
C4122 H4114 0.930 . S
C4122 C4121 1.362 . S
C4122 C4125 1.409 . S
C4123 H4115 0.930 . S
C4123 C4124 1.355 . S
C4123 C4125 1.415 . S
C4124 C4123 1.355 . S
C4124 C4126 1.419 . S
C4125 C4120 1.425 . S
C4125 C4122 1.409 . S
C4125 C4123 1.415 . S
C4126 H4116 0.930 . S
C4126 C4124 1.419 . S
C4126 C4127 1.362 . S
C4127 H4117 0.930 . S
C4127 C4120 1.409 . S
C4127 C4126 1.362 . S
H4128 C4134 0.930 . S
H4129 C4137 0.930 . S
H4130 C4138 0.930 . S
H4131 C4139 0.930 . S
H4132 C4142 0.930 . S
H4133 C4143 0.930 . S
C4134 H4128 0.930 . S
C4134 C4135 1.355 . S
C4134 C4136 1.415 . S
C4135 C4134 1.355 . S
C4135 C4137 1.419 . S
C4136 C4134 1.415 . S
C4136 C4141 1.425 . S
C4136 C4143 1.409 . S
C4137 H4129 0.930 . S
C4137 C4135 1.419 . S
C4137 C4138 1.362 . S
C4138 H4130 0.930 . S
C4138 C4137 1.362 . S
C4138 C4141 1.409 . S
C4139 H4131 0.930 . S
C4139 C4140 1.355 . S
C4139 C4141 1.415 . S
C4140 C4139 1.355 . S
C4140 C4142 1.419 . S
C4141 C4136 1.425 . S
C4141 C4138 1.409 . S
C4141 C4139 1.415 . S
C4142 H4132 0.930 . S
C4142 C4140 1.419 . S
C4142 C4143 1.362 . S
C4143 H4133 0.930 . S
C4143 C4136 1.409 . S
C4143 C4142 1.362 . S
H4144 C4150 0.930 . S
H4145 C4153 0.930 . S
H4146 C4154 0.930 . S
H4147 C4155 0.930 . S
H4148 C4158 0.930 . S
H4149 C4159 0.930 . S
C4150 H4144 0.930 . S
C4150 C4151 1.355 . S
C4150 C4152 1.415 . S
C4151 C4150 1.355 . S
C4151 C4153 1.419 . S
C4152 C4150 1.415 . S
C4152 C4157 1.425 . S
C4152 C4159 1.409 . S
C4153 H4145 0.930 . S
C4153 C4151 1.419 . S
C4153 C4154 1.362 . S
C4154 H4146 0.930 . S
C4154 C4153 1.362 . S
C4154 C4157 1.409 . S
C4155 H4147 0.930 . S
C4155 C4156 1.355 . S
C4155 C4157 1.415 . S
C4156 C4155 1.355 . S
C4156 C4158 1.419 . S
C4157 C4152 1.425 . S
C4157 C4154 1.409 . S
C4157 C4155 1.415 . S
C4158 H4148 0.930 . S
C4158 C4156 1.419 . S
C4158 C4159 1.362 . S
C4159 H4149 0.930 . S
C4159 C4152 1.409 . S
C4159 C4158 1.362 . S
H4160 C4166 0.930 . S
H4161 C4169 0.930 . S
H4162 C4170 0.930 . S
H4163 C4171 0.930 . S
H4164 C4174 0.930 . S
H4165 C4175 0.930 . S
C4166 H4160 0.930 . S
C4166 C4167 1.355 . S
C4166 C4168 1.415 . S
C4167 C4166 1.355 . S
C4167 C4169 1.419 . S
C4168 C4166 1.415 . S
C4168 C4173 1.425 . S
C4168 C4175 1.409 . S
C4169 H4161 0.930 . S
C4169 C4167 1.419 . S
C4169 C4170 1.362 . S
C4170 H4162 0.930 . S
C4170 C4169 1.362 . S
C4170 C4173 1.409 . S
C4171 H4163 0.930 . S
C4171 C4172 1.355 . S
C4171 C4173 1.415 . S
C4172 C4171 1.355 . S
C4172 C4174 1.419 . S
C4173 C4168 1.425 . S
C4173 C4170 1.409 . S
C4173 C4171 1.415 . S
C4174 H4164 0.930 . S
C4174 C4172 1.419 . S
C4174 C4175 1.362 . S
C4175 H4165 0.930 . S
C4175 C4168 1.409 . S
C4175 C4174 1.362 . S
H4176 C4182 0.930 . S
H4177 C4185 0.930 . S
H4178 C4186 0.930 . S
H4179 C4187 0.930 . S
H4180 C4190 0.930 . S
H4181 C4191 0.930 . S
C4182 H4176 0.930 . S
C4182 C4183 1.355 . S
C4182 C4184 1.415 . S
C4183 C4182 1.355 . S
C4183 C4185 1.419 . S
C4184 C4182 1.415 . S
C4184 C4189 1.425 . S
C4184 C4191 1.409 . S
C4185 H4177 0.930 . S
C4185 C4183 1.419 . S
C4185 C4186 1.362 . S
C4186 H4178 0.930 . S
C4186 C4185 1.362 . S
C4186 C4189 1.409 . S
C4187 H4179 0.930 . S
C4187 C4188 1.355 . S
C4187 C4189 1.415 . S
C4188 C4187 1.355 . S
C4188 C4190 1.419 . S
C4189 C4184 1.425 . S
C4189 C4186 1.409 . S
C4189 C4187 1.415 . S
C4190 H4180 0.930 . S
C4190 C4188 1.419 . S
C4190 C4191 1.362 . S
C4191 H4181 0.930 . S
C4191 C4184 1.409 . S
C4191 C4190 1.362 . S
H4192 C4198 0.930 . S
H4193 C4201 0.930 . S
H4194 C4202 0.930 . S
H4195 C4203 0.930 . S
H4196 C4206 0.930 . S
H4197 C4207 0.930 . S
C4198 H4192 0.930 . S
C4198 C4199 1.355 . S
C4198 C4200 1.415 . S
C4199 C4198 1.355 . S
C4199 C4201 1.419 . S
C4200 C4198 1.415 . S
C4200 C4205 1.425 . S
C4200 C4207 1.409 . S
C4201 H4193 0.930 . S
C4201 C4199 1.419 . S
C4201 C4202 1.362 . S
C4202 H4194 0.930 . S
C4202 C4201 1.362 . S
C4202 C4205 1.409 . S
C4203 H4195 0.930 . S
C4203 C4204 1.355 . S
C4203 C4205 1.415 . S
C4204 C4203 1.355 . S
C4204 C4206 1.419 . S
C4205 C4200 1.425 . S
C4205 C4202 1.409 . S
C4205 C4203 1.415 . S
C4206 H4196 0.930 . S
C4206 C4204 1.419 . S
C4206 C4207 1.362 . S
C4207 H4197 0.930 . S
C4207 C4200 1.409 . S
C4207 C4206 1.362 . S
H4208 C4214 0.930 . S
H4209 C4217 0.930 . S
H4210 C4218 0.930 . S
H4211 C4219 0.930 . S
H4212 C4222 0.930 . S
H4213 C4223 0.930 . S
C4214 H4208 0.930 . S
C4214 C4215 1.355 . S
C4214 C4216 1.415 . S
C4215 C4214 1.355 . S
C4215 C4217 1.419 . S
C4216 C4214 1.415 . S
C4216 C4221 1.425 . S
C4216 C4223 1.409 . S
C4217 H4209 0.930 . S
C4217 C4215 1.419 . S
C4217 C4218 1.362 . S
C4218 H4210 0.930 . S
C4218 C4217 1.362 . S
C4218 C4221 1.409 . S
C4219 H4211 0.930 . S
C4219 C4220 1.355 . S
C4219 C4221 1.415 . S
C4220 C4219 1.355 . S
C4220 C4222 1.419 . S
C4221 C4216 1.425 . S
C4221 C4218 1.409 . S
C4221 C4219 1.415 . S
C4222 H4212 0.930 . S
C4222 C4220 1.419 . S
C4222 C4223 1.362 . S
C4223 H4213 0.930 . S
C4223 C4216 1.409 . S
C4223 C4222 1.362 . S
H4224 C4230 0.930 . S
H4225 C4233 0.930 . S
H4226 C4234 0.930 . S
H4227 C4235 0.930 . S
H4228 C4238 0.930 . S
H4229 C4239 0.930 . S
C4230 H4224 0.930 . S
C4230 C4231 1.355 . S
C4230 C4232 1.415 . S
C4231 C4230 1.355 . S
C4231 C4233 1.419 . S
C4232 C4230 1.415 . S
C4232 C4237 1.425 . S
C4232 C4239 1.409 . S
C4233 H4225 0.930 . S
C4233 C4231 1.419 . S
C4233 C4234 1.362 . S
C4234 H4226 0.930 . S
C4234 C4233 1.362 . S
C4234 C4237 1.409 . S
C4235 H4227 0.930 . S
C4235 C4236 1.355 . S
C4235 C4237 1.415 . S
C4236 C4235 1.355 . S
C4236 C4238 1.419 . S
C4237 C4232 1.425 . S
C4237 C4234 1.409 . S
C4237 C4235 1.415 . S
C4238 H4228 0.930 . S
C4238 C4236 1.419 . S
C4238 C4239 1.362 . S
C4239 H4229 0.930 . S
C4239 C4232 1.409 . S
C4239 C4238 1.362 . S
H4240 C4246 0.930 . S
H4241 C4249 0.930 . S
H4242 C4250 0.930 . S
H4243 C4251 0.930 . S
H4244 C4254 0.930 . S
H4245 C4255 0.930 . S
C4246 H4240 0.930 . S
C4246 C4247 1.355 . S
C4246 C4248 1.415 . S
C4247 C4246 1.355 . S
C4247 C4249 1.419 . S
C4248 C4246 1.415 . S
C4248 C4253 1.425 . S
C4248 C4255 1.409 . S
C4249 H4241 0.930 . S
C4249 C4247 1.419 . S
C4249 C4250 1.362 . S
C4250 H4242 0.930 . S
C4250 C4249 1.362 . S
C4250 C4253 1.409 . S
C4251 H4243 0.930 . S
C4251 C4252 1.355 . S
C4251 C4253 1.415 . S
C4252 C4251 1.355 . S
C4252 C4254 1.419 . S
C4253 C4248 1.425 . S
C4253 C4250 1.409 . S
C4253 C4251 1.415 . S
C4254 H4244 0.930 . S
C4254 C4252 1.419 . S
C4254 C4255 1.362 . S
C4255 H4245 0.930 . S
C4255 C4248 1.409 . S
C4255 C4254 1.362 . S
H4256 C4262 0.930 . S
H4257 C4265 0.930 . S
H4258 C4266 0.930 . S
H4259 C4267 0.930 . S
H4260 C4270 0.930 . S
H4261 C4271 0.930 . S
C4262 H4256 0.930 . S
C4262 C4263 1.355 . S
C4262 C4264 1.415 . S
C4263 C4262 1.355 . S
C4263 C4265 1.419 . S
C4264 C4262 1.415 . S
C4264 C4269 1.425 . S
C4264 C4271 1.409 . S
C4265 H4257 0.930 . S
C4265 C4263 1.419 . S
C4265 C4266 1.362 . S
C4266 H4258 0.930 . S
C4266 C4265 1.362 . S
C4266 C4269 1.409 . S
C4267 H4259 0.930 . S
C4267 C4268 1.355 . S
C4267 C4269 1.415 . S
C4268 C4267 1.355 . S
C4268 C4270 1.419 . S
C4269 C4264 1.425 . S
C4269 C4266 1.409 . S
C4269 C4267 1.415 . S
C4270 H4260 0.930 . S
C4270 C4268 1.419 . S
C4270 C4271 1.362 . S
C4271 H4261 0.930 . S
C4271 C4264 1.409 . S
C4271 C4270 1.362 . S
H4272 C4278 0.930 . S
H4273 C4281 0.930 . S
H4274 C4282 0.930 . S
H4275 C4283 0.930 . S
H4276 C4286 0.930 . S
H4277 C4287 0.930 . S
C4278 H4272 0.930 . S
C4278 C4279 1.355 . S
C4278 C4280 1.415 . S
C4279 C4278 1.355 . S
C4279 C4281 1.419 . S
C4280 C4278 1.415 . S
C4280 C4285 1.425 . S
C4280 C4287 1.409 . S
C4281 H4273 0.930 . S
C4281 C4279 1.419 . S
C4281 C4282 1.362 . S
C4282 H4274 0.930 . S
C4282 C4281 1.362 . S
C4282 C4285 1.409 . S
C4283 H4275 0.930 . S
C4283 C4284 1.355 . S
C4283 C4285 1.415 . S
C4284 C4283 1.355 . S
C4284 C4286 1.419 . S
C4285 C4280 1.425 . S
C4285 C4282 1.409 . S
C4285 C4283 1.415 . S
C4286 H4276 0.930 . S
C4286 C4284 1.419 . S
C4286 C4287 1.362 . S
C4287 H4277 0.930 . S
C4287 C4280 1.409 . S
C4287 C4286 1.362 . S
H4288 C4294 0.930 . S
H4289 C4297 0.930 . S
H4290 C4298 0.930 . S
H4291 C4299 0.930 . S
H4292 C4302 0.930 . S
H4293 C4303 0.930 . S
C4294 H4288 0.930 . S
C4294 C4295 1.355 . S
C4294 C4296 1.415 . S
C4295 C4294 1.355 . S
C4295 C4297 1.419 . S
C4296 C4294 1.415 . S
C4296 C4301 1.425 . S
C4296 C4303 1.409 . S
C4297 H4289 0.930 . S
C4297 C4295 1.419 . S
C4297 C4298 1.362 . S
C4298 H4290 0.930 . S
C4298 C4297 1.362 . S
C4298 C4301 1.409 . S
C4299 H4291 0.930 . S
C4299 C4300 1.355 . S
C4299 C4301 1.415 . S
C4300 C4299 1.355 . S
C4300 C4302 1.419 . S
C4301 C4296 1.425 . S
C4301 C4298 1.409 . S
C4301 C4299 1.415 . S
C4302 H4292 0.930 . S
C4302 C4300 1.419 . S
C4302 C4303 1.362 . S
C4303 H4293 0.930 . S
C4303 C4296 1.409 . S
C4303 C4302 1.362 . S
H4304 C4310 0.930 . S
H4305 C4313 0.930 . S
H4306 C4314 0.930 . S
H4307 C4315 0.930 . S
H4308 C4318 0.930 . S
H4309 C4319 0.930 . S
C4310 H4304 0.930 . S
C4310 C4311 1.355 . S
C4310 C4312 1.415 . S
C4311 C4310 1.355 . S
C4311 C4313 1.419 . S
C4312 C4310 1.415 . S
C4312 C4317 1.425 . S
C4312 C4319 1.409 . S
C4313 H4305 0.930 . S
C4313 C4311 1.419 . S
C4313 C4314 1.362 . S
C4314 H4306 0.930 . S
C4314 C4313 1.362 . S
C4314 C4317 1.409 . S
C4315 H4307 0.930 . S
C4315 C4316 1.355 . S
C4315 C4317 1.415 . S
C4316 C4315 1.355 . S
C4316 C4318 1.419 . S
C4317 C4312 1.425 . S
C4317 C4314 1.409 . S
C4317 C4315 1.415 . S
C4318 H4308 0.930 . S
C4318 C4316 1.419 . S
C4318 C4319 1.362 . S
C4319 H4309 0.930 . S
C4319 C4312 1.409 . S
C4319 C4318 1.362 . S
C1255 C5 1.418 . S
C1260 C120 1.417 . S
C1271 C133 1.408 . S
C1276 C18 1.443 . S
C1287 C29 1.397 . S
C1292 C148 1.444 . S
C1303 C44 1.397 . S
C1308 C107 1.443 . S
C1319 C57 1.437 . S
C1324 C198 1.417 . S
C1335 C159 1.397 . S
C1340 C68 1.445 . S
C1351 C83 1.398 . S
C1356 C172 1.448 . S
C1367 C185 1.419 . S
C1372 C96 1.435 . S
C1383 C237 1.425 . S
C1388 C211 1.430 . S
C1399 C224 1.447 . S
C1404 C913 1.402 . S
C1415 C926 1.408 . S
C1420 C250 1.444 . S
C1431 C263 1.444 . S
C1436 C900 1.408 . S
C1447 C887 1.424 . S
C1452 C276 1.411 . S
C1463 C848 1.439 . S
C1468 C291 1.414 . S
C1479 C304 1.445 . S
C1484 C874 1.397 . S
C1495 C315 1.404 . S
C1500 C434 1.433 . S
C1511 C330 1.401 . S
C1516 C447 1.436 . S
C1527 C458 1.416 . S
C1532 C341 1.437 . S
C1543 C419 1.404 . S
C1548 C356 1.446 . S
C1559 C512 1.410 . S
C1564 C367 1.442 . S
C1575 C380 1.398 . S
C1580 C471 1.447 . S
C1591 C395 1.434 . S
C1596 C486 1.420 . S
C1607 C406 1.439 . S
C1612 C497 1.399 . S
C1623 C525 1.398 . S
C1628 C551 1.447 . S
C1639 C536 1.397 . S
C1644 C1227 1.447 . S
C1655 C1238 1.430 . S
C1660 C562 1.424 . S
C1671 C575 1.418 . S
C1676 C1212 1.417 . S
C1687 C588 1.400 . S
C1692 C1201 1.438 . S
C1703 C603 1.418 . S
C1708 C1160 1.436 . S
C1719 C614 1.446 . S
C1724 C1188 1.397 . S
C1735 C627 1.400 . S
C1740 C744 1.437 . S
C1751 C759 1.403 . S
C1756 C640 1.446 . S
C1767 C770 1.402 . S
C1772 C653 1.434 . S
C1783 C668 1.427 . S
C1788 C731 1.408 . S
C1799 C681 1.399 . S
C1804 C822 1.448 . S
C1815 C694 1.401 . S
C1820 C785 1.436 . S
C1831 C707 1.400 . S
C1836 C796 1.437 . S
C1847 C811 1.408 . S
C1852 C720 1.444 . S
C1863 C837 1.446 . S
C1868 C863 1.404 . S
C1879 C941 1.417 . S
C1884 C1056 1.418 . S
C1895 C952 1.401 . S
C1900 C1069 1.447 . S
C1911 C1082 1.440 . S
C1916 C967 1.399 . S
C1927 C1045 1.447 . S
C1932 C978 1.397 . S
C1943 C991 1.429 . S
C1948 C1134 1.406 . S
C1959 C1095 1.397 . S
C1964 C1004 1.447 . S
C1975 C1108 1.415 . S
C1980 C1019 1.419 . S
C1991 C1121 1.444 . S
C1996 C1032 1.397 . S
C2007 C1147 1.397 . S
C2012 C1175 1.445 . S
C2023 C10 1.482 1_655 S
C2028 C264 1.465 . S
C2039 C23 1.461 . S
C2044 C849 1.488 . S
C2055 C868 1.474 . S
C2060 C30 1.481 . S
C2071 C875 1.459 1_554 S
C2076 C49 1.490 . S
C2087 C62 1.491 1_655 S
C2092 C927 1.460 . S
C2103 C277 1.488 . S
C2108 C69 1.460 . S
C2119 C88 1.472 . S
C2124 C914 1.475 . S
C2135 C101 1.464 . S
C2140 C212 1.489 1_556 S
C2151 C108 1.475 1_565 S
C2156 C199 1.472 . S
C2167 C160 1.474 1_545 S
C2172 C121 1.481 . S
C2183 C134 1.477 1_545 S
C2188 C173 1.469 . S
C2199 C153 1.487 . S
C2204 C186 1.461 1_565 S
C2215 C641 1.488 . S
C2220 C225 1.460 1_554 S
C2231 C654 1.461 1_455 S
C2236 C238 1.487 . S
C2247 C673 1.486 . S
C2252 C251 1.462 . S
C2263 C712 1.461 1_455 S
C2268 C296 1.487 . S
C2279 C309 1.477 . S
C2284 C686 1.470 . S
C2295 C316 1.488 1_455 S
C2300 C576 1.465 . S
C2311 C335 1.475 . S
C2316 C1161 1.480 . S
C2327 C1180 1.484 . S
C2332 C342 1.464 . S
C2343 C1193 1.489 1_556 S
C2348 C361 1.464 . S
C2359 C1239 1.476 . S
C2364 C368 1.471 1_455 S
C2375 C589 1.479 . S
C2380 C381 1.476 . S
C2391 C400 1.466 . S
C2396 C1232 1.481 . S
C2407 C407 1.472 . S
C2412 C530 1.483 1_554 S
C2423 C517 1.459 . S
C2428 C420 1.491 1_545 S
C2439 C439 1.459 . S
C2444 C472 1.491 1_565 S
C2455 C491 1.477 . S
C2460 C452 1.469 1_565 S
C2471 C459 1.460 . S
C2476 C498 1.489 1_545 S
C2487 C953 1.474 . S
C2492 C537 1.481 1_556 S
C2503 C556 1.489 . S
C2508 C972 1.460 1_655 S
C2519 C563 1.486 . S
C2524 C979 1.468 . S
C2535 C608 1.462 . S
C2540 C1024 1.490 1_655 S
C2551 C615 1.460 . S
C2556 C992 1.488 . S
C2567 C628 1.460 . S
C2572 C888 1.489 . S
C2583 C901 1.491 1_556 S
C2588 C699 1.460 . S
C2599 C725 1.478 . S
C2604 C842 1.477 . S
C2615 C823 1.468 . S
C2620 C732 1.478 . S
C2631 C790 1.474 . S
C2636 C745 1.481 . S
C2647 C764 1.459 . S
C2652 C797 1.491 . S
C2663 C771 1.489 . S
C2668 C816 1.460 . S
C2679 C1206 1.469 . S
C2684 C946 1.477 . S
C2695 C1005 1.491 . S
C2700 C1213 1.459 1_554 S
C2711 C1148 1.482 . S
C2716 C1037 1.465 . S
C2727 C1050 1.466 . S
C2732 C1135 1.488 . S
C2743 C1096 1.471 . S
C2748 C1057 1.483 . S
C2759 C1070 1.479 . S
C2764 C1109 1.476 . S
C2775 C1122 1.467 . S
C2780 C1083 1.480 . S
C2791 C3 1.328 . S
C2796 C569 1.265 . S
C2807 C582 1.343 . S
C2812 C16 1.363 . S
C2823 C543 1.303 . S
C2828 C31 1.343 . S
C2839 C42 1.352 . S
C2844 C1174 1.323 . S
C2855 C55 1.366 . S
C2860 C1219 1.347 . S
C2871 C70 1.366 . S
C2876 C1226 1.343 . S
C2887 C1154 1.298 . S
C2892 C81 1.347 . S
C2903 C1245 1.272 . S
C2908 C94 1.330 . S
C2919 C348 1.341 . S
C2924 C109 1.362 . S
C2935 C122 1.330 . S
C2940 C985 1.266 . S
C2951 C322 1.332 . S
C2956 C135 1.357 . S
C2967 C959 1.342 . S
C2972 C146 1.363 . S
C2983 C394 1.267 . S
C2988 C161 1.331 . S
C2999 C174 1.350 . S
C3004 C1031 1.319 . S
C3015 C187 1.345 . S
C3020 C374 1.293 . S
C3031 C200 1.329 . S
C3036 C1011 1.265 . S
C3047 C213 1.340 . S
C3052 C1102 1.284 . S
C3063 C426 1.342 . S
C3068 C226 1.362 . S
C3079 C239 1.343 . S
C3084 C1063 1.289 . S
C3095 C252 1.362 . S
C3100 C446 1.342 . S
C3111 C265 1.329 . S
C3116 C465 1.269 . S
C3127 C278 1.338 . S
C3132 C1128 1.291 . S
C3143 C1141 1.287 . S
C3148 C289 1.336 . S
C3159 C1115 1.340 . S
C3164 C302 1.361 . S
C3175 C257 1.285 . S
C3180 C317 1.341 . S
C3191 C328 1.367 . S
C3196 C270 1.345 . S
C3207 C343 1.344 . S
C3212 C231 1.307 . S
C3223 C354 1.344 . S
C3228 C862 1.292 . S
C3239 C907 1.266 . S
C3244 C369 1.330 . S
C3255 C920 1.282 . S
C3260 C382 1.339 . S
C3271 C393 1.365 . S
C3276 C836 1.338 . S
C3287 C933 1.306 . S
C3292 C408 1.351 . S
C3303 C421 1.358 . S
C3308 C36 1.334 . S
C3319 C667 1.306 . S
C3324 C432 1.351 . S
C3335 C445 1.354 . S
C3340 C4 1.327 . S
C3351 C647 1.267 . S
C3356 C460 1.330 . S
C3367 C473 1.340 . S
C3372 C82 1.297 . S
C3383 C719 1.271 . S
C3388 C484 1.333 . S
C3399 C56 1.302 . S
C3404 C499 1.342 . S
C3415 C693 1.265 . S
C3420 C510 1.329 . S
C3431 C523 1.332 . S
C3436 C784 1.269 . S
C3447 C538 1.364 . S
C3452 C114 1.336 . S
C3463 C751 1.300 . S
C3468 C549 1.348 . S
C3479 C564 1.328 . S
C3484 C140 1.267 . S
C3495 C147 1.328 . S
C3500 C577 1.355 . S
C3511 C810 1.331 . S
C3516 C590 1.356 . S
C3527 C829 1.283 . S
C3532 C601 1.340 . S
C3543 C803 1.335 . S
C3548 C616 1.358 . S
C3559 C629 1.329 . S
C3564 C1187 1.265 . S
C3575 C642 1.335 . S
C3580 C1200 1.284 . S
C3591 C655 1.362 . S
C3596 C1167 1.341 . S
C3607 C550 1.327 . S
C3612 C666 1.354 . S
C3623 C679 1.357 . S
C3628 C595 1.332 . S
C3639 C602 1.267 . S
C3644 C692 1.330 . S
C3655 C524 1.265 . S
C3660 C705 1.329 . S
C3671 C621 1.310 . S
C3676 C718 1.353 . S
C3687 C733 1.343 . S
C3692 C966 1.289 . S
C3703 C355 1.295 . S
C3708 C746 1.345 . S
C3719 C757 1.361 . S
C3724 C940 1.340 . S
C3735 C772 1.331 . S
C3740 C329 1.267 . S
C3751 C783 1.337 . S
C3756 C1018 1.278 . S
C3767 C798 1.361 . S
C3772 C413 1.340 . S
C3783 C998 1.348 . S
C3788 C809 1.367 . S
C3799 C387 1.266 . S
C3804 C824 1.328 . S
C3815 C835 1.340 . S
C3820 C478 1.298 . S
C3831 C850 1.350 . S
C3836 C1044 1.303 . S
C3847 C861 1.364 . S
C3852 C433 1.345 . S
C3863 C1076 1.321 . S
C3868 C876 1.358 . S
C3879 C889 1.330 . S
C3884 C1089 1.273 . S
C3895 C902 1.329 . S
C3900 C504 1.265 . S
C3911 C511 1.308 . S
C3916 C915 1.345 . S
C3927 C928 1.352 . S
C3932 C485 1.308 . S
C3943 C939 1.367 . S
C3948 C881 1.348 . S
C3959 C894 1.279 . S
C3964 C954 1.337 . S
C3975 C855 1.283 . S
C3980 C965 1.340 . S
C3991 C980 1.360 . S
C3996 C244 1.326 . S
C4007 C993 1.329 . S
C4012 C283 1.268 . S
C4023 C1006 1.329 . S
C4028 C290 1.270 . S
C4039 C218 1.347 . S
C4044 C1017 1.366 . S
C4055 C1030 1.364 . S
C4060 C303 1.344 . S
C4071 C1043 1.334 . S
C4076 C660 1.282 . S
C4087 C1058 1.348 . S
C4092 C43 1.300 . S
C4103 C1071 1.329 . S
C4108 C634 1.265 . S
C4119 C1084 1.351 . S
C4124 C17 1.306 . S
C4135 C1097 1.338 . S
C4140 C706 1.293 . S
C4151 C1110 1.330 . S
C4156 C95 1.266 . S
C4167 C1123 1.328 . S
C4172 C680 1.266 . S
C4183 C1136 1.346 . S
C4188 C75 1.309 . S
C4199 C1149 1.357 . S
C4204 C166 1.320 . S
C4215 C1162 1.367 . S
C4220 C738 1.346 . S
C4231 C1173 1.358 . S
C4236 C127 1.322 . S
C4247 C1186 1.334 . S
C4252 C758 1.282 . S
C4263 C1199 1.358 . S
C4268 C777 1.333 . S
C4279 C192 1.342 . S
C4284 C1214 1.363 . S
C4295 C1225 1.367 . S
C4300 C205 1.348 . S
C4311 C1240 1.367 . S
C4316 C179 1.348 . S
