# Generated by pormake.
# Topology wnd, (6)-cn, num edge types: 1
# Building blocks:
#     Node 0, Type 0, BuildingBlock: KUMBOL_clean_sbu_1, # of connection points: 6
#     Node 1, Type 0, BuildingBlock: KUMBOL_clean_sbu_1, # of connection points: 6
#     Node 2, Type 0, BuildingBlock: KUMBOL_clean_sbu_1, # of connection points: 6
#     Node 3, Type 0, BuildingBlock: KUMBOL_clean_sbu_1, # of connection points: 6
#     Node 4, Type 0, BuildingBlock: KUMBOL_clean_sbu_1, # of connection points: 6
#     Node 5, Type 0, BuildingBlock: KUMBOL_clean_sbu_1, # of connection points: 6
#     Node 6, Type 0, BuildingBlock: KUMBOL_clean_sbu_1, # of connection points: 6
#     Node 7, Type 0, BuildingBlock: KUMBOL_clean_sbu_1, # of connection points: 6
#     Node 8, Type 0, BuildingBlock: KUMBOL_clean_sbu_1, # of connection points: 6
#     Node 9, Type 0, BuildingBlock: KUMBOL_clean_sbu_1, # of connection points: 6
#     Node 10, Type 0, BuildingBlock: KUMBOL_clean_sbu_1, # of connection points: 6
#     Node 11, Type 0, BuildingBlock: KUMBOL_clean_sbu_1, # of connection points: 6
#     Node 12, Type 0, BuildingBlock: KUMBOL_clean_sbu_1, # of connection points: 6
#     Node 13, Type 0, BuildingBlock: KUMBOL_clean_sbu_1, # of connection points: 6
#     Node 14, Type 0, BuildingBlock: KUMBOL_clean_sbu_1, # of connection points: 6
#     Node 15, Type 0, BuildingBlock: KUMBOL_clean_sbu_1, # of connection points: 6
#     Node 16, Type 0, BuildingBlock: KUMBOL_clean_sbu_1, # of connection points: 6
#     Node 17, Type 0, BuildingBlock: KUMBOL_clean_sbu_1, # of connection points: 6
#     Node 18, Type 0, BuildingBlock: KUMBOL_clean_sbu_1, # of connection points: 6
#     Node 19, Type 0, BuildingBlock: KUMBOL_clean_sbu_1, # of connection points: 6
#     Node 20, Type 0, BuildingBlock: KUMBOL_clean_sbu_1, # of connection points: 6
#     Node 21, Type 0, BuildingBlock: KUMBOL_clean_sbu_1, # of connection points: 6
#     Node 22, Type 0, BuildingBlock: KUMBOL_clean_sbu_1, # of connection points: 6
#     Node 23, Type 0, BuildingBlock: KUMBOL_clean_sbu_1, # of connection points: 6
#     Node 24, Type 0, BuildingBlock: KUMBOL_clean_sbu_1, # of connection points: 6
#     Node 25, Type 0, BuildingBlock: KUMBOL_clean_sbu_1, # of connection points: 6
#     Node 26, Type 0, BuildingBlock: KUMBOL_clean_sbu_1, # of connection points: 6
#     Node 27, Type 0, BuildingBlock: KUMBOL_clean_sbu_1, # of connection points: 6
#     Node 28, Type 0, BuildingBlock: KUMBOL_clean_sbu_1, # of connection points: 6
#     Node 29, Type 0, BuildingBlock: KUMBOL_clean_sbu_1, # of connection points: 6
#     Node 30, Type 0, BuildingBlock: KUMBOL_clean_sbu_1, # of connection points: 6
#     Node 31, Type 0, BuildingBlock: KUMBOL_clean_sbu_1, # of connection points: 6
#     Node 32, Type 0, BuildingBlock: KUMBOL_clean_sbu_1, # of connection points: 6
#     Node 33, Type 0, BuildingBlock: KUMBOL_clean_sbu_1, # of connection points: 6
#     Node 34, Type 0, BuildingBlock: KUMBOL_clean_sbu_1, # of connection points: 6
#     Node 35, Type 0, BuildingBlock: KUMBOL_clean_sbu_1, # of connection points: 6
#     Edge 36, Type (0, 0), BuildingBlock: AJUNOK_clean_linker_0, # of connection points: 2
#     Edge 37, Type (0, 0), BuildingBlock: AJUNOK_clean_linker_0, # of connection points: 2
#     Edge 38, Type (0, 0), BuildingBlock: AJUNOK_clean_linker_0, # of connection points: 2
#     Edge 39, Type (0, 0), BuildingBlock: AJUNOK_clean_linker_0, # of connection points: 2
#     Edge 40, Type (0, 0), BuildingBlock: AJUNOK_clean_linker_0, # of connection points: 2
#     Edge 41, Type (0, 0), BuildingBlock: AJUNOK_clean_linker_0, # of connection points: 2
#     Edge 42, Type (0, 0), BuildingBlock: AJUNOK_clean_linker_0, # of connection points: 2
#     Edge 43, Type (0, 0), BuildingBlock: AJUNOK_clean_linker_0, # of connection points: 2
#     Edge 44, Type (0, 0), BuildingBlock: AJUNOK_clean_linker_0, # of connection points: 2
#     Edge 45, Type (0, 0), BuildingBlock: AJUNOK_clean_linker_0, # of connection points: 2
#     Edge 46, Type (0, 0), BuildingBlock: AJUNOK_clean_linker_0, # of connection points: 2
#     Edge 47, Type (0, 0), BuildingBlock: AJUNOK_clean_linker_0, # of connection points: 2
#     Edge 48, Type (0, 0), BuildingBlock: AJUNOK_clean_linker_0, # of connection points: 2
#     Edge 49, Type (0, 0), BuildingBlock: AJUNOK_clean_linker_0, # of connection points: 2
#     Edge 50, Type (0, 0), BuildingBlock: AJUNOK_clean_linker_0, # of connection points: 2
#     Edge 51, Type (0, 0), BuildingBlock: AJUNOK_clean_linker_0, # of connection points: 2
#     Edge 52, Type (0, 0), BuildingBlock: AJUNOK_clean_linker_0, # of connection points: 2
#     Edge 53, Type (0, 0), BuildingBlock: AJUNOK_clean_linker_0, # of connection points: 2
#     Edge 54, Type (0, 0), BuildingBlock: AJUNOK_clean_linker_0, # of connection points: 2
#     Edge 55, Type (0, 0), BuildingBlock: AJUNOK_clean_linker_0, # of connection points: 2
#     Edge 56, Type (0, 0), BuildingBlock: AJUNOK_clean_linker_0, # of connection points: 2
#     Edge 57, Type (0, 0), BuildingBlock: AJUNOK_clean_linker_0, # of connection points: 2
#     Edge 58, Type (0, 0), BuildingBlock: AJUNOK_clean_linker_0, # of connection points: 2
#     Edge 59, Type (0, 0), BuildingBlock: AJUNOK_clean_linker_0, # of connection points: 2
#     Edge 60, Type (0, 0), BuildingBlock: AJUNOK_clean_linker_0, # of connection points: 2
#     Edge 61, Type (0, 0), BuildingBlock: AJUNOK_clean_linker_0, # of connection points: 2
#     Edge 62, Type (0, 0), BuildingBlock: AJUNOK_clean_linker_0, # of connection points: 2
#     Edge 63, Type (0, 0), BuildingBlock: AJUNOK_clean_linker_0, # of connection points: 2
#     Edge 64, Type (0, 0), BuildingBlock: AJUNOK_clean_linker_0, # of connection points: 2
#     Edge 65, Type (0, 0), BuildingBlock: AJUNOK_clean_linker_0, # of connection points: 2
#     Edge 66, Type (0, 0), BuildingBlock: AJUNOK_clean_linker_0, # of connection points: 2
#     Edge 67, Type (0, 0), BuildingBlock: AJUNOK_clean_linker_0, # of connection points: 2
#     Edge 68, Type (0, 0), BuildingBlock: AJUNOK_clean_linker_0, # of connection points: 2
#     Edge 69, Type (0, 0), BuildingBlock: AJUNOK_clean_linker_0, # of connection points: 2
#     Edge 70, Type (0, 0), BuildingBlock: AJUNOK_clean_linker_0, # of connection points: 2
#     Edge 71, Type (0, 0), BuildingBlock: AJUNOK_clean_linker_0, # of connection points: 2
#     Edge 72, Type (0, 0), BuildingBlock: AJUNOK_clean_linker_0, # of connection points: 2
#     Edge 73, Type (0, 0), BuildingBlock: AJUNOK_clean_linker_0, # of connection points: 2
#     Edge 74, Type (0, 0), BuildingBlock: AJUNOK_clean_linker_0, # of connection points: 2
#     Edge 75, Type (0, 0), BuildingBlock: AJUNOK_clean_linker_0, # of connection points: 2
#     Edge 76, Type (0, 0), BuildingBlock: AJUNOK_clean_linker_0, # of connection points: 2
#     Edge 77, Type (0, 0), BuildingBlock: AJUNOK_clean_linker_0, # of connection points: 2
#     Edge 78, Type (0, 0), BuildingBlock: AJUNOK_clean_linker_0, # of connection points: 2
#     Edge 79, Type (0, 0), BuildingBlock: AJUNOK_clean_linker_0, # of connection points: 2
#     Edge 80, Type (0, 0), BuildingBlock: AJUNOK_clean_linker_0, # of connection points: 2
#     Edge 81, Type (0, 0), BuildingBlock: AJUNOK_clean_linker_0, # of connection points: 2
#     Edge 82, Type (0, 0), BuildingBlock: AJUNOK_clean_linker_0, # of connection points: 2
#     Edge 83, Type (0, 0), BuildingBlock: AJUNOK_clean_linker_0, # of connection points: 2
#     Edge 84, Type (0, 0), BuildingBlock: AJUNOK_clean_linker_0, # of connection points: 2
#     Edge 85, Type (0, 0), BuildingBlock: AJUNOK_clean_linker_0, # of connection points: 2
#     Edge 86, Type (0, 0), BuildingBlock: AJUNOK_clean_linker_0, # of connection points: 2
#     Edge 87, Type (0, 0), BuildingBlock: AJUNOK_clean_linker_0, # of connection points: 2
#     Edge 88, Type (0, 0), BuildingBlock: AJUNOK_clean_linker_0, # of connection points: 2
#     Edge 89, Type (0, 0), BuildingBlock: AJUNOK_clean_linker_0, # of connection points: 2
#     Edge 90, Type (0, 0), BuildingBlock: AJUNOK_clean_linker_0, # of connection points: 2
#     Edge 91, Type (0, 0), BuildingBlock: AJUNOK_clean_linker_0, # of connection points: 2
#     Edge 92, Type (0, 0), BuildingBlock: AJUNOK_clean_linker_0, # of connection points: 2
#     Edge 93, Type (0, 0), BuildingBlock: AJUNOK_clean_linker_0, # of connection points: 2
#     Edge 94, Type (0, 0), BuildingBlock: AJUNOK_clean_linker_0, # of connection points: 2
#     Edge 95, Type (0, 0), BuildingBlock: AJUNOK_clean_linker_0, # of connection points: 2
#     Edge 96, Type (0, 0), BuildingBlock: AJUNOK_clean_linker_0, # of connection points: 2
#     Edge 97, Type (0, 0), BuildingBlock: AJUNOK_clean_linker_0, # of connection points: 2
#     Edge 98, Type (0, 0), BuildingBlock: AJUNOK_clean_linker_0, # of connection points: 2
#     Edge 99, Type (0, 0), BuildingBlock: AJUNOK_clean_linker_0, # of connection points: 2
#     Edge 100, Type (0, 0), BuildingBlock: AJUNOK_clean_linker_0, # of connection points: 2
#     Edge 101, Type (0, 0), BuildingBlock: AJUNOK_clean_linker_0, # of connection points: 2
#     Edge 102, Type (0, 0), BuildingBlock: AJUNOK_clean_linker_0, # of connection points: 2
#     Edge 103, Type (0, 0), BuildingBlock: AJUNOK_clean_linker_0, # of connection points: 2
#     Edge 104, Type (0, 0), BuildingBlock: AJUNOK_clean_linker_0, # of connection points: 2
#     Edge 105, Type (0, 0), BuildingBlock: AJUNOK_clean_linker_0, # of connection points: 2
#     Edge 106, Type (0, 0), BuildingBlock: AJUNOK_clean_linker_0, # of connection points: 2
#     Edge 107, Type (0, 0), BuildingBlock: AJUNOK_clean_linker_0, # of connection points: 2
#     Edge 108, Type (0, 0), BuildingBlock: AJUNOK_clean_linker_0, # of connection points: 2
#     Edge 109, Type (0, 0), BuildingBlock: AJUNOK_clean_linker_0, # of connection points: 2
#     Edge 110, Type (0, 0), BuildingBlock: AJUNOK_clean_linker_0, # of connection points: 2
#     Edge 111, Type (0, 0), BuildingBlock: AJUNOK_clean_linker_0, # of connection points: 2
#     Edge 112, Type (0, 0), BuildingBlock: AJUNOK_clean_linker_0, # of connection points: 2
#     Edge 113, Type (0, 0), BuildingBlock: AJUNOK_clean_linker_0, # of connection points: 2
#     Edge 114, Type (0, 0), BuildingBlock: AJUNOK_clean_linker_0, # of connection points: 2
#     Edge 115, Type (0, 0), BuildingBlock: AJUNOK_clean_linker_0, # of connection points: 2
#     Edge 116, Type (0, 0), BuildingBlock: AJUNOK_clean_linker_0, # of connection points: 2
#     Edge 117, Type (0, 0), BuildingBlock: AJUNOK_clean_linker_0, # of connection points: 2
#     Edge 118, Type (0, 0), BuildingBlock: AJUNOK_clean_linker_0, # of connection points: 2
#     Edge 119, Type (0, 0), BuildingBlock: AJUNOK_clean_linker_0, # of connection points: 2
#     Edge 120, Type (0, 0), BuildingBlock: AJUNOK_clean_linker_0, # of connection points: 2
#     Edge 121, Type (0, 0), BuildingBlock: AJUNOK_clean_linker_0, # of connection points: 2
#     Edge 122, Type (0, 0), BuildingBlock: AJUNOK_clean_linker_0, # of connection points: 2
#     Edge 123, Type (0, 0), BuildingBlock: AJUNOK_clean_linker_0, # of connection points: 2
#     Edge 124, Type (0, 0), BuildingBlock: AJUNOK_clean_linker_0, # of connection points: 2
#     Edge 125, Type (0, 0), BuildingBlock: AJUNOK_clean_linker_0, # of connection points: 2
#     Edge 126, Type (0, 0), BuildingBlock: AJUNOK_clean_linker_0, # of connection points: 2
#     Edge 127, Type (0, 0), BuildingBlock: AJUNOK_clean_linker_0, # of connection points: 2
#     Edge 128, Type (0, 0), BuildingBlock: AJUNOK_clean_linker_0, # of connection points: 2
#     Edge 129, Type (0, 0), BuildingBlock: AJUNOK_clean_linker_0, # of connection points: 2
#     Edge 130, Type (0, 0), BuildingBlock: AJUNOK_clean_linker_0, # of connection points: 2
#     Edge 131, Type (0, 0), BuildingBlock: AJUNOK_clean_linker_0, # of connection points: 2
#     Edge 132, Type (0, 0), BuildingBlock: AJUNOK_clean_linker_0, # of connection points: 2
#     Edge 133, Type (0, 0), BuildingBlock: AJUNOK_clean_linker_0, # of connection points: 2
#     Edge 134, Type (0, 0), BuildingBlock: AJUNOK_clean_linker_0, # of connection points: 2
#     Edge 135, Type (0, 0), BuildingBlock: AJUNOK_clean_linker_0, # of connection points: 2
#     Edge 136, Type (0, 0), BuildingBlock: AJUNOK_clean_linker_0, # of connection points: 2
#     Edge 137, Type (0, 0), BuildingBlock: AJUNOK_clean_linker_0, # of connection points: 2
#     Edge 138, Type (0, 0), BuildingBlock: AJUNOK_clean_linker_0, # of connection points: 2
#     Edge 139, Type (0, 0), BuildingBlock: AJUNOK_clean_linker_0, # of connection points: 2
#     Edge 140, Type (0, 0), BuildingBlock: AJUNOK_clean_linker_0, # of connection points: 2
#     Edge 141, Type (0, 0), BuildingBlock: AJUNOK_clean_linker_0, # of connection points: 2
#     Edge 142, Type (0, 0), BuildingBlock: AJUNOK_clean_linker_0, # of connection points: 2
#     Edge 143, Type (0, 0), BuildingBlock: AJUNOK_clean_linker_0, # of connection points: 2
# Relax obj value: 0.055
# Max RMSD: 0.174
# Mean RMSD: 0.174
data_MOF--net-wnd--node1-KUMBOL_clean_sbu_1--edge1-AJUNOK_clean_linker_0
_symmetry_space_group_name_H-M    P1
_symmetry_Int_Tables_number       1
_symmetry_cell_setting            triclinic
loop_
_symmetry_equiv_pos_as_xyz
'x, y, z'
_cell_length_a     31.473456
_cell_length_b     31.482497
_cell_length_c     118.56058
_cell_angle_alpha  89.998953
_cell_angle_beta   90.052791
_cell_angle_gamma 119.94973
loop_
_atom_site_label
_atom_site_type_symbol
_atom_site_fract_x
_atom_site_fract_y
_atom_site_fract_z
_atom_type_partial_charge
C0 C 0.38199 0.04292 0.0198 0.0
C1 C 0.30845 0.01392 0.03117 0.0
C2 C 0.35992 0.03662 0.03032 0.0
C3 C 0.27955 0.99724 0.02139 0.0
C4 C 0.35282 0.02458 0.01002 0.0
C5 C 0.30162 1.00199 0.01087 0.0
N6 N 0.43182 0.06641 0.01912 0.0
C7 C 0.45441 0.07446 0.00892 0.0
C8 C 0.37598 0.0288 -0.00032 0.0
C9 C 0.42702 0.05322 -0.00079 0.0
Gd10 Gd 0.52668 1.01175 0.04865 0.0
Gd11 Gd 0.4733 0.09326 0.03632 0.0
N12 N 0.38859 0.05059 0.03974 0.0
C13 C 0.28742 1.00805 0.04186 0.0
C14 C 0.368 0.04335 0.05015 0.0
C15 C 0.31739 0.02299 0.05138 0.0
H16 H 0.38995 0.05119 0.05749 0.0
H17 H 0.30144 0.01748 0.05972 0.0
H18 H 0.57356 0.99621 0.02441 0.0
H19 H 0.49339 0.09769 0.00818 0.0
H20 H 0.64803 0.99831 0.0183 0.0
H21 H 0.24807 0.99119 0.04286 0.0
H22 H 0.23998 0.97977 0.0219 0.0
H23 H 0.54263 0.0437 0.07547 0.0
H24 H 0.35489 0.01359 0.99203 0.0
H25 H 0.44544 0.0557 0.99141 0.0
H26 H 0.74925 0.04616 0.05095 0.0
H27 H 0.27873 0.98805 0.00342 0.0
H28 H 0.68433 0.07599 0.08522 0.0
H29 H 0.60599 0.06845 0.09009 0.0
N30 N 0.5867 0.04215 0.06242 0.0
C31 C 0.62971 0.04518 0.05946 0.0
C32 C 0.57758 0.04921 0.07323 0.0
C33 C 0.6574 0.06503 0.0787 0.0
C34 C 0.61311 0.06197 0.08151 0.0
C35 C 0.66581 0.05497 0.06763 0.0
H36 H 0.73424 0.0553 0.07057 0.0
N37 N 0.60117 0.02768 0.04056 0.0
C38 C 0.63736 0.03815 0.04821 0.0
C39 C 0.68614 0.02787 0.03389 0.0
C40 C 0.68103 0.03917 0.04501 0.0
C41 C 0.60464 0.01278 0.02995 0.0
C42 C 0.64702 0.01298 0.02646 0.0
O43 O 0.42561 1.0077 0.03635 0.0
O44 O 0.44782 0.98249 0.05222 0.0
O45 O 0.5141 0.94088 0.04203 0.0
O46 O 0.52571 0.95662 0.06003 0.0
O47 O 0.49372 0.10425 0.05459 0.0
O48 O 0.48276 0.03155 0.06175 0.0
O49 O 0.57994 0.09335 0.05012 0.0
O50 O 0.55726 0.13064 0.0363 0.0
O51 O 0.47958 0.15968 0.04405 0.0
O52 O 0.46233 0.14462 0.02645 0.0
O53 O 0.51124 0.0135 0.02949 0.0
O54 O 0.53047 0.09214 0.02546 0.0
C55 C 0.41668 0.97414 0.04415 0.0
C56 C 0.48003 0.07256 0.0628 0.0
C57 C 0.51948 0.87942 0.05389 0.0
C58 C 0.5493 0.82043 0.05148 0.0
C59 C 0.49267 0.81016 0.06662 0.0
C60 C 0.49207 0.8522 0.06322 0.0
C61 C 0.52099 0.79455 0.06086 0.0
C62 C 0.54831 0.86324 0.04791 0.0
C63 C 0.52262 0.92776 0.05182 0.0
C64 C 0.71631 0.04703 0.05318 0.0
C65 C 0.70808 0.05345 0.06446 0.0
H66 H 0.71864 0.0271 0.0312 0.0
C67 C 0.58969 0.13081 0.04352 0.0
C68 C 0.5304 0.05201 0.02261 0.0
C69 C 0.509 0.22809 0.0314 0.0
C70 C 0.54034 0.31654 0.03315 0.0
C71 C 0.56735 0.28491 0.01774 0.0
C72 C 0.53822 0.23737 0.02172 0.0
C73 C 0.56882 0.32416 0.02345 0.0
C74 C 0.51042 0.26818 0.0372 0.0
C75 C 0.47366 0.17648 0.0345 0.0
H76 H 0.47152 0.78987 0.07389 0.0
H77 H 0.47066 0.86406 0.06806 0.0
H78 H 0.52109 0.76201 0.06382 0.0
H79 H 0.57096 0.88456 0.04089 0.0
H80 H 0.58919 0.2914 0.01021 0.0
H81 H 0.53815 0.2077 0.01707 0.0
H82 H 0.59192 0.36083 0.02016 0.0
H83 H 0.48722 0.2617 0.04449 0.0
C84 C 0.06316 0.38116 0.02102 0.0
C85 C 0.0807 0.33189 0.03389 0.0
C86 C 0.06106 0.36268 0.0318 0.0
C87 C 0.1042 0.32158 0.02512 0.0
C88 C 0.08638 0.37064 0.01219 0.0
C89 C 0.1072 0.34105 0.01432 0.0
N90 N 0.04296 0.40994 0.01922 0.0
C91 C 0.04199 0.42685 0.00869 0.0
C92 C 0.08823 0.39046 0.0015 0.0
C93 C 0.0659 0.41868 -0.00024 0.0
Gd94 Gd 0.09156 0.55829 0.04833 0.0
Gd95 Gd 1.01013 0.42678 0.03513 0.0
N96 N 0.03921 0.3743 0.0402 0.0
C97 C 0.07533 0.31171 0.04468 0.0
C98 C 0.0301 0.35148 0.05038 0.0
C99 C 0.04905 0.3208 0.0529 0.0
H100 H 1.00673 0.35535 0.05638 0.0
H101 H 0.04261 0.30351 0.06109 0.0
H102 H 0.07588 0.61152 0.02439 0.0
H103 H 0.02237 0.44616 0.00711 0.0
H104 H 0.04553 0.66706 0.01983 0.0
H105 H 0.08984 0.28777 0.04663 0.0
H106 H 0.11983 0.29823 0.02659 0.0
H107 H 0.06486 0.53272 0.07588 0.0
H108 H 0.10638 0.38385 0.99453 0.0
H109 H 0.06723 0.43421 0.99156 0.0
H110 H 0.03505 0.72957 0.05567 0.0
H111 H 0.12533 0.33265 0.00765 0.0
H112 H 0.01958 0.62989 0.08802 0.0
H113 H 0.03524 0.56284 0.09133 0.0
N114 N 0.06162 0.58067 0.06363 0.0
C115 C 0.05396 0.61878 0.06163 0.0
C116 C 0.05685 0.56157 0.07419 0.0
C117 C 0.03453 0.61922 0.08121 0.0
C118 C 0.04142 0.57943 0.08306 0.0
C119 C 0.04347 0.64134 0.07052 0.0
H120 H 0.04165 0.70744 0.07495 0.0
N121 N 0.06226 0.60978 0.04201 0.0
C122 C 0.0539 0.63351 0.05054 0.0
C123 C 0.03948 0.68276 0.0371 0.0
C124 C 0.04382 0.67162 0.04828 0.0
C125 C 0.06241 0.62389 0.03111 0.0
C126 C 0.0481 0.65816 0.02848 0.0
O127 O 0.09545 0.46291 0.03424 0.0
O128 O 0.12266 0.50909 0.05027 0.0
O129 O 0.15696 0.62535 0.04205 0.0
O130 O 0.14822 0.60723 0.05994 0.0
O131 O 1.001 0.4338 0.05373 0.0
O132 O 0.0765 0.49259 0.06026 0.0
O133 O 1.00947 0.52552 0.05075 0.0
O134 O 0.98019 0.47871 0.03487 0.0
O135 O 0.93972 0.36543 0.04121 0.0
O136 O 0.95539 0.38024 0.02318 0.0
O137 O 0.09617 0.54858 0.02892 0.0
O138 O 1.01782 0.48871 0.02464 0.0
C139 C 0.13017 0.4873 0.04183 0.0
C140 C 0.03455 0.45033 0.06163 0.0
C141 C 0.22152 0.68388 0.05502 0.0
C142 C 0.2838 0.77132 0.05283 0.0
C143 C 0.28909 0.72359 0.06834 0.0
C144 C 0.24653 0.68224 0.06468 0.0
C145 C 0.30753 0.7676 0.0625 0.0
C146 C 0.24051 0.72895 0.04899 0.0
C147 C 0.17399 0.63905 0.05222 0.0
C148 C 0.03952 0.69809 0.05722 0.0
C149 C 0.04142 0.68417 0.0683 0.0
H150 H 0.03045 0.71087 0.03504 0.0
C151 C 0.97477 0.50307 0.0432 0.0
C152 C 0.05971 0.52584 0.02156 0.0
C153 C 0.87601 0.31175 0.02761 0.0
C154 C 0.78854 0.25652 0.0307 0.0
C155 C 0.82528 0.25689 0.01269 0.0
C156 C 0.87071 0.29312 0.01661 0.0
C157 C 0.78443 0.23882 0.01966 0.0
C158 C 0.83464 0.29294 0.03478 0.0
C159 C 0.92395 0.35362 0.03087 0.0
H160 H 0.30763 0.72166 0.07585 0.0
H161 H 0.23287 0.64876 0.06953 0.0
H162 H 0.34033 0.79939 0.06566 0.0
H163 H 0.22111 0.73144 0.04169 0.0
H164 H 0.8216 0.24316 0.00417 0.0
H165 H 0.90173 0.30707 0.01092 0.0
H166 H 0.74923 0.21098 0.0164 0.0
H167 H 0.83784 0.30751 0.04321 0.0
C168 C 0.72445 0.71913 0.02163 0.0
C169 C 0.77443 0.78809 0.03387 0.0
C170 C 0.74346 0.73743 0.03224 0.0
C171 C 0.78425 0.82027 0.02476 0.0
C172 C 0.73429 0.75112 0.01246 0.0
C173 C 0.76397 0.80185 0.0141 0.0
N174 N 0.69563 0.66993 0.02036 0.0
C175 C 0.6785 0.65006 0.01 0.0
C176 C 0.71339 0.73109 0.00197 0.0
C177 C 0.68532 0.68027 0.00076 0.0
Gd178 Gd 0.54443 0.58073 0.04923 0.0
Gd179 Gd 0.67591 0.62351 0.03692 0.0
N180 N 0.73161 0.7055 0.04095 0.0
C181 C 0.79488 0.80469 0.04458 0.0
C182 C 0.75403 0.72085 0.05114 0.0
C183 C 0.78537 0.77077 0.0532 0.0
H184 H 0.74874 0.69454 0.05756 0.0
H185 H 0.80243 0.78299 0.06138 0.0
H186 H 0.47465 0.5357 0.0257 0.0
H187 H 0.6596 0.61101 0.00882 0.0
H188 H 0.40227 0.45916 0.02018 0.0
H189 H 0.819 0.84338 0.04619 0.0
H190 H 0.80762 0.85945 0.02587 0.0
H191 H 0.5702 0.56441 0.07567 0.0
H192 H 0.71901 0.75442 0.99475 0.0
H193 H 0.6685 0.6643 0.99278 0.0
H194 H 0.37189 0.35175 0.05103 0.0
H195 H 0.77178 0.8271 0.00717 0.0
H196 H 0.49031 0.41255 0.08199 0.0
H197 H 0.54991 0.49418 0.08809 0.0
N198 N 0.52389 0.51968 0.06236 0.0
C199 C 0.48709 0.4748 0.05909 0.0
C200 C 0.54345 0.52803 0.07296 0.0
C201 C 0.49572 0.44215 0.07665 0.0
C202 C 0.53151 0.48873 0.08006 0.0
C203 C 0.46934 0.43536 0.06656 0.0
H204 H 0.40499 0.36408 0.06977 0.0
N205 N 0.48748 0.50673 0.04081 0.0
C206 C 0.46781 0.46843 0.04817 0.0
C207 C 0.40435 0.41944 0.03465 0.0
C208 C 0.42642 0.42347 0.04511 0.0
C209 C 0.46406 0.5038 0.03087 0.0
C210 C 0.42225 0.46035 0.0277 0.0
O211 O 0.64315 0.67598 0.03552 0.0
O212 O 0.59328 0.66076 0.05093 0.0
O213 O 0.48171 0.5892 0.04413 0.0
O214 O 0.49157 0.57669 0.06174 0.0
O215 O 0.66538 0.61044 0.05562 0.0
O216 O 0.60839 0.6306 0.06168 0.0
O217 O 0.57837 0.5325 0.05217 0.0
O218 O 0.6225 0.5415 0.03639 0.0
O219 O 0.73503 0.61489 0.04434 0.0
O220 O 0.71989 0.6054 0.02632 0.0
O221 O 0.55734 0.59246 0.02979 0.0
O222 O 0.61465 0.56981 0.02636 0.0
C223 C 0.61959 0.68925 0.04275 0.0
C224 C 0.65104 0.63145 0.06305 0.0
C225 C 0.41543 0.57647 0.05712 0.0
C226 C 0.32731 0.54689 0.05381 0.0
C227 C 0.36377 0.57757 0.07224 0.0
C228 C 0.4093 0.58678 0.06832 0.0
C229 C 0.32323 0.55768 0.0651 0.0
C230 C 0.37393 0.55661 0.04975 0.0
C231 C 0.46229 0.5779 0.05415 0.0
C232 C 0.40539 0.38551 0.05298 0.0
C233 C 0.42602 0.39185 0.06369 0.0
H234 H 0.37161 0.38593 0.03218 0.0
C235 C 0.59309 0.51365 0.04439 0.0
C236 C 0.57702 0.57311 0.02306 0.0
C237 C 0.79621 0.61559 0.0321 0.0
C238 C 0.85857 0.5915 0.0329 0.0
C239 C 0.86754 0.65524 0.01996 0.0
C240 C 0.8233 0.65023 0.02376 0.0
C241 C 0.88497 0.62582 0.02445 0.0
C242 C 0.81428 0.58663 0.03679 0.0
C243 C 0.74577 0.60319 0.03462 0.0
H244 H 0.35972 0.58532 0.08094 0.0
H245 H 0.43964 0.6008 0.07422 0.0
H246 H 0.28827 0.55085 0.0684 0.0
H247 H 0.37741 0.54719 0.04114 0.0
H248 H 0.88789 0.68132 0.01337 0.0
H249 H 0.80944 0.67215 0.01992 0.0
H250 H 0.91897 0.62957 0.02127 0.0
H251 H 0.79298 0.55898 0.04305 0.0
C252 C 0.04999 0.37426 0.47552 0.0
C253 C 0.02671 0.30411 0.46325 0.0
C254 C 0.04814 0.35502 0.46479 0.0
C255 C 1.00474 0.27259 0.47247 0.0
C256 C 0.0288 0.34276 0.48481 0.0
C257 C 1.00546 0.29183 0.48319 0.0
N258 N 0.0735 0.42377 0.47688 0.0
C259 C 0.08076 0.44402 0.48737 0.0
C260 C 0.03237 0.36345 0.49549 0.0
C261 C 0.05892 0.41432 0.49678 0.0
Gd262 Gd 0.02186 0.52215 0.44798 0.0
Gd263 Gd 0.10242 0.46888 0.46021 0.0
N264 N 0.06817 0.38626 0.45591 0.0
C265 C 0.02907 0.28654 0.45254 0.0
C266 C 0.07431 0.3699 0.44578 0.0
C267 C 0.05392 0.31969 0.44383 0.0
H268 H 0.09662 0.39559 0.4394 0.0
H269 H 0.05817 0.30669 0.43569 0.0
H270 H 0.0583 0.59493 0.47218 0.0
H271 H 0.10411 0.48293 0.48853 0.0
H272 H 0.07982 0.67787 0.47701 0.0
H273 H 1.01339 0.24762 0.45103 0.0
H274 H 0.98766 0.23325 0.47142 0.0
H275 H 0.03997 0.52383 0.41984 0.0
H276 H 1.01602 0.34048 0.50282 0.0
H277 H 0.06305 0.43064 0.50502 0.0
H278 H 0.05838 0.74238 0.44239 0.0
H279 H 0.98877 0.26699 0.49022 0.0
H280 H 0.04208 0.65211 0.40828 0.0
H281 H 0.04271 0.57636 0.40423 0.0
N282 N 0.04606 0.57428 0.43261 0.0
C283 C 0.05053 0.61845 0.43503 0.0
C284 C 0.04456 0.55934 0.42174 0.0
C285 C 0.04485 0.63183 0.41523 0.0
C286 C 0.04492 0.58849 0.41286 0.0
C287 C 0.04818 0.64769 0.42642 0.0
H288 H 0.03857 0.71013 0.42338 0.0
N289 N 0.05502 0.60335 0.45446 0.0
C290 C 0.05597 0.63378 0.44623 0.0
C291 C 0.07196 0.69665 0.46004 0.0
C292 C 0.06236 0.68029 0.44889 0.0
C293 C 0.06227 0.6186 0.46544 0.0
C294 C 0.0729 0.66591 0.46832 0.0
O295 O 1.01716 0.41983 0.46068 0.0
O296 O 0.98742 0.44193 0.44553 0.0
O297 O 0.95866 0.52742 0.45505 0.0
O298 O 0.96347 0.51465 0.43722 0.0
O299 O 0.10917 0.48178 0.44158 0.0
O300 O 0.03575 0.47294 0.43527 0.0
O301 O 0.10367 0.56972 0.44514 0.0
O302 O 0.1345 0.55167 0.46081 0.0
O303 O 0.17422 0.48635 0.45345 0.0
O304 O 0.15298 0.45805 0.47032 0.0
O305 O 1.0178 0.50508 0.4672 0.0
O306 O 0.09637 0.52295 0.47096 0.0
C307 C 0.98137 0.41128 0.45355 0.0
C308 C 0.07559 0.46864 0.43377 0.0
C309 C 0.89396 0.52435 0.44213 0.0
C310 C 0.83013 0.54714 0.44539 0.0
C311 C 0.83597 0.51424 0.42728 0.0
C312 C 0.87542 0.51 0.43112 0.0
C313 C 0.81365 0.53262 0.4343 0.0
C314 C 0.87092 0.54325 0.44936 0.0
C315 C 0.9403 0.52397 0.445 0.0
C316 C 0.05686 0.70802 0.44043 0.0
C317 C 0.04746 0.69049 0.42937 0.0
H318 H 0.0779 0.73251 0.46236 0.0
C319 C 0.13886 0.58193 0.45259 0.0
C320 C 0.05417 0.51618 0.47444 0.0
C321 C 0.23708 0.51242 0.46748 0.0
C322 C 0.3265 0.55237 0.46616 0.0
C323 C 0.28779 0.55746 0.48349 0.0
C324 C 0.24176 0.52999 0.47858 0.0
C325 C 0.32972 0.56799 0.47742 0.0
C326 C 0.27965 0.52483 0.46118 0.0
C327 C 0.18821 0.47677 0.463 0.0
H328 H 0.82272 0.50339 0.41874 0.0
H329 H 0.89199 0.49604 0.42529 0.0
H330 H 0.78302 0.53552 0.43103 0.0
H331 H 0.88476 0.55523 0.45782 0.0
H332 H 0.29095 0.5698 0.49213 0.0
H333 H 0.2098 0.52147 0.48363 0.0
H334 H 0.3648 0.58773 0.48167 0.0
H335 H 0.27597 0.51226 0.45254 0.0
C336 C 0.72479 0.72269 0.47752 0.0
C337 C 0.79693 0.77256 0.46609 0.0
C338 C 0.7463 0.73889 0.46696 0.0
C339 C 0.82556 0.78949 0.4759 0.0
C340 C 0.75394 0.73781 0.48734 0.0
C341 C 0.80427 0.77167 0.48648 0.0
N342 N 0.67583 0.69058 0.47816 0.0
C343 C 0.65363 0.67304 0.48829 0.0
C344 C 0.73182 0.71736 0.4977 0.0
C345 C 0.68154 0.68419 0.49811 0.0
Gd346 Gd 0.58667 0.53609 0.44831 0.0
Gd347 Gd 0.63426 0.6711 0.46101 0.0
N348 N 0.71839 0.71936 0.45756 0.0
C349 C 0.81767 0.78685 0.45534 0.0
C350 C 0.7393 0.73008 0.44715 0.0
C351 C 0.78881 0.76487 0.44582 0.0
H352 H 0.71869 0.71101 0.43991 0.0
H353 H 0.80496 0.7736 0.43749 0.0
H354 H 0.53048 0.47115 0.47213 0.0
H355 H 0.61445 0.65102 0.48887 0.0
H356 H 0.45584 0.39433 0.47665 0.0
H357 H 0.85636 0.81287 0.45431 0.0
H358 H 0.86455 0.81523 0.47538 0.0
H359 H 0.57326 0.56162 0.42187 0.0
H360 H 0.7532 0.72673 0.5054 0.0
H361 H 0.66406 0.66704 0.50594 0.0
H362 H 0.37299 0.33858 0.44129 0.0
H363 H 0.82717 0.78396 0.49395 0.0
H364 H 0.43742 0.45287 0.40996 0.0
H365 H 0.51393 0.52688 0.40656 0.0
N366 N 0.53061 0.50767 0.43367 0.0
C367 C 0.48886 0.46468 0.43564 0.0
C368 C 0.54037 0.52886 0.42335 0.0
C369 C 0.46377 0.46492 0.41652 0.0
C370 C 0.50679 0.50863 0.41466 0.0
C371 C 0.45516 0.44058 0.42691 0.0
H372 H 0.39034 0.37207 0.42221 0.0
N373 N 0.51135 0.47179 0.45489 0.0
C374 C 0.47924 0.44575 0.44651 0.0
C375 C 0.42767 0.38265 0.45976 0.0
C376 C 0.43663 0.40056 0.44873 0.0
C377 C 0.50336 0.45364 0.46563 0.0
C378 C 0.4613 0.40921 0.46822 0.0
O379 O 0.68367 0.63591 0.46319 0.0
O380 O 0.66514 0.59375 0.44682 0.0
O381 O 0.59465 0.47484 0.45469 0.0
O382 O 0.60685 0.49411 0.43718 0.0
O383 O 0.61653 0.66322 0.44257 0.0
O384 O 0.63016 0.60269 0.43566 0.0
O385 O 0.52468 0.55299 0.44782 0.0
O386 O 0.55283 0.62541 0.45786 0.0
O387 O 0.64108 0.73975 0.45459 0.0
O388 O 0.61267 0.7128 0.47149 0.0
O389 O 0.59747 0.55101 0.4676 0.0
O390 O 0.57624 0.60961 0.47088 0.0
C391 C 0.69303 0.6107 0.45566 0.0
C392 C 0.63106 0.64565 0.43443 0.0
C393 C 0.56534 0.40828 0.44143 0.0
C394 C 0.52556 0.31879 0.44471 0.0
C395 C 0.50447 0.3503 0.42823 0.0
C396 C 0.53833 0.39815 0.43134 0.0
C397 C 0.49791 0.31107 0.43486 0.0
C398 C 0.55937 0.36788 0.44806 0.0
C399 C 0.59952 0.46086 0.44468 0.0
C400 C 0.40504 0.37415 0.43983 0.0
C401 C 0.41455 0.39385 0.42894 0.0
H402 H 0.3955 0.34789 0.46178 0.0
C403 C 0.51799 0.58702 0.45252 0.0
C404 C 0.57663 0.57018 0.474 0.0
C405 C 0.62636 0.79224 0.46704 0.0
C406 C 0.59659 0.85036 0.466 0.0
C407 C 0.65302 0.85722 0.48088 0.0
C408 C 0.65392 0.81637 0.47663 0.0
C409 C 0.62432 0.87392 0.47567 0.0
C410 C 0.59809 0.80962 0.46163 0.0
C411 C 0.62066 0.74494 0.46366 0.0
H412 H 0.48377 0.34355 0.4205 0.0
H413 H 0.54309 0.42733 0.42574 0.0
H414 H 0.47262 0.27419 0.43198 0.0
H415 H 0.58117 0.37445 0.45561 0.0
H416 H 0.67392 0.87548 0.48836 0.0
H417 H 0.67503 0.80279 0.481 0.0
H418 H 0.62364 0.90532 0.4792 0.0
H419 H 0.57557 0.79015 0.45441 0.0
C420 C 0.39599 0.05683 0.47675 0.0
C421 C 0.34736 0.08149 0.46559 0.0
C422 C 0.3758 0.05856 0.46646 0.0
C423 C 0.34118 0.10438 0.47512 0.0
C424 C 0.39044 0.08019 0.48631 0.0
C425 C 0.36312 0.1042 0.48542 0.0
N426 N 0.42181 0.03294 0.47736 0.0
C427 C 0.43932 0.02746 0.48742 0.0
C428 C 0.41356 0.07961 0.49636 0.0
C429 C 0.4386 0.05346 0.49683 0.0
Gd430 Gd 0.56704 0.08321 0.44739 0.0
Gd431 Gd 0.43456 1.00415 0.46027 0.0
N432 N 0.38535 0.03905 0.45723 0.0
C433 C 0.32686 0.08148 0.45509 0.0
C434 C 0.36371 0.03674 0.44715 0.0
C435 C 0.33455 0.05842 0.44587 0.0
H436 H 0.3681 0.01727 0.44021 0.0
H437 H 0.31783 0.05709 0.4378 0.0
H438 H 0.62983 0.08951 0.47129 0.0
H439 H 0.45447 1.00361 0.48819 0.0
H440 H 0.70422 0.08736 0.47565 0.0
H441 H 0.30473 0.09873 0.45405 0.0
H442 H 0.31994 0.12279 0.47459 0.0
H443 H 0.53539 0.04282 0.42073 0.0
H444 H 0.41212 0.0989 0.50379 0.0
H445 H 0.4582 0.05377 0.50431 0.0
H446 H 0.7524 0.0507 0.44097 0.0
H447 H 0.35858 0.12254 0.49266 0.0
H448 H 0.64381 0.01363 0.40883 0.0
H449 H 0.57021 0.01737 0.40553 0.0
N450 N 0.58703 0.04737 0.43303 0.0
C451 C 0.62817 0.04493 0.43519 0.0
C452 C 0.56669 0.03889 0.42253 0.0
C453 C 0.63046 0.02546 0.41568 0.0
C454 C 0.58711 0.02585 0.41379 0.0
C455 C 0.65317 0.03749 0.42634 0.0
H456 H 0.7233 0.04413 0.42182 0.0
N457 N 0.62249 0.06115 0.4546 0.0
C458 C 0.64605 0.0514 0.44624 0.0
C459 C 0.70937 0.0615 0.45937 0.0
C460 C 0.69031 0.05177 0.44845 0.0
C461 C 0.64301 0.07401 0.46511 0.0
C462 C 0.68627 0.07389 0.46763 0.0
O463 O 0.47 0.08998 0.46017 0.0
O464 O 0.52096 0.11706 0.44488 0.0
O465 O 0.63388 0.15044 0.45319 0.0
O466 O 0.61847 0.13507 0.4353 0.0
O467 O 0.44299 0.99502 0.44179 0.0
O468 O 0.50245 0.06974 0.43521 0.0
O469 O 0.53506 1.00066 0.44553 0.0
O470 O 0.48289 0.97 0.46063 0.0
O471 O 0.37058 0.93831 0.45294 0.0
O472 O 0.38482 0.94644 0.47114 0.0
O473 O 0.55528 0.08761 0.46662 0.0
O474 O 0.49618 1.00916 0.4706 0.0
C475 C 0.49873 0.12547 0.45306 0.0
C476 C 0.45903 0.02885 0.43402 0.0
C477 C 0.69745 0.20691 0.43973 0.0
C478 C 0.78475 0.26823 0.44292 0.0
C479 C 0.74753 0.26019 0.42449 0.0
C480 C 0.70283 0.22283 0.42848 0.0
C481 C 0.78805 0.28248 0.4316 0.0
C482 C 0.73893 0.23026 0.44707 0.0
C483 C 0.65041 0.16202 0.44292 0.0
C484 C 0.71704 0.04779 0.43952 0.0
C485 C 0.69956 0.04278 0.42851 0.0
H486 H 0.74382 0.06315 0.4613 0.0
C487 C 0.50994 0.96541 0.4528 0.0
C488 C 0.5347 0.05002 0.47369 0.0
C489 C 0.31167 0.87337 0.46569 0.0
C490 C 0.2556 0.78529 0.46357 0.0
C491 C 0.24549 0.82985 0.47909 0.0
C492 C 0.28577 0.87311 0.47535 0.0
C493 C 0.23059 0.78623 0.47328 0.0
C494 C 0.29615 0.82922 0.45966 0.0
C495 C 0.35764 0.91875 0.46295 0.0
H496 H 0.75092 0.27167 0.41578 0.0
H497 H 0.67245 0.20574 0.42261 0.0
H498 H 0.8224 0.31144 0.42823 0.0
H499 H 0.73601 0.21826 0.45574 0.0
H500 H 0.22617 0.82999 0.48662 0.0
H501 H 0.29734 0.90639 0.48016 0.0
H502 H 0.19956 0.75281 0.47644 0.0
H503 H 0.31646 0.82865 0.45234 0.0
C504 C 0.47672 0.04381 0.93933 0.0
C505 C 0.42798 0.05395 0.95373 0.0
C506 C 0.47187 0.05586 0.95034 0.0
C507 C 0.38929 0.03885 0.94605 0.0
C508 C 0.43727 0.02625 0.93175 0.0
C509 C 0.39439 0.02625 0.93506 0.0
N510 N 0.52112 0.052 0.93582 0.0
C511 C 0.52895 0.04477 0.92492 0.0
C512 C 0.44371 1.01171 0.92097 0.0
C513 C 0.49002 0.02216 0.91743 0.0
Gd514 Gd 0.64006 1.00911 0.9608 0.0
Gd515 Gd 0.58477 0.08902 0.9486 0.0
N516 N 0.51141 0.07385 0.95734 0.0
C517 C 0.42612 0.07254 0.96428 0.0
C518 C 0.51037 0.09454 0.96742 0.0
C519 C 0.46812 0.09461 0.97093 0.0
H520 H 0.54301 0.11486 0.97242 0.0
H521 H 0.46878 0.11395 0.97852 0.0
H522 H 0.71827 0.06338 0.93836 0.0
H523 H 0.56531 0.05746 0.92211 0.0
H524 H 0.80443 0.09291 0.93423 0.0
H525 H 0.39359 0.07315 0.96703 0.0
H526 H 0.35627 0.03948 0.94833 0.0
H527 H 0.63022 0.0154 0.98907 0.0
H528 H 0.41404 0.99234 0.91521 0.0
H529 H 0.49586 0.01385 0.9089 0.0
H530 H 0.87691 0.11234 0.9707 0.0
H531 H 0.36646 0.02106 0.92911 0.0
H532 H 0.77469 0.08512 0.00281 0.0
H533 H 0.68604 0.0531 0.00512 0.0
N534 N 0.68771 0.03649 0.97714 0.0
C535 C 0.73679 0.05605 0.97554 0.0
C536 C 0.66909 0.0332 0.98769 0.0
C537 C 0.75065 0.07114 0.99555 0.0
C538 C 0.70046 0.05244 0.99694 0.0
C539 C 0.76938 0.07259 0.98478 0.0
H540 H 0.84515 0.10398 0.98998 0.0
N541 N 0.7235 0.0521 0.95576 0.0
C542 C 0.75495 0.0624 0.96457 0.0
C543 C 0.82336 0.09222 0.95165 0.0
C544 C 0.80582 0.08335 0.96273 0.0
C545 C 0.74125 0.06486 0.94507 0.0
C546 C 0.79095 0.08353 0.94279 0.0
O547 O 0.53539 1.0073 0.94677 0.0
O548 O 0.55648 0.97395 0.96163 0.0
O549 O 0.63619 0.94399 0.95315 0.0
O550 O 0.64469 0.95474 0.97112 0.0
O551 O 0.59925 0.08869 0.96796 0.0
O552 O 0.58491 1.01142 0.97207 0.0
O553 O 0.68629 0.09412 0.96202 0.0
O554 O 0.66442 0.11817 0.94601 0.0
O555 O 0.59491 0.15979 0.95435 0.0
O556 O 0.58755 0.14264 0.9364 0.0
O557 O 0.61756 0.99607 0.94258 0.0
O558 O 0.62758 0.06842 0.93534 0.0
C559 C 0.52428 0.97318 0.95434 0.0
C560 C 0.58333 0.05068 0.97496 0.0
C561 C 0.5946 0.87366 0.96485 0.0
C562 C 0.55851 0.7845 0.96379 0.0
C563 C 0.51656 0.81987 0.97394 0.0
C564 C 0.55392 0.86683 0.9712 0.0
C565 C 0.51895 0.77903 0.97034 0.0
C566 C 0.59651 0.83211 0.96098 0.0
C567 C 0.63546 0.92418 0.96285 0.0
C568 C 0.83781 0.09657 0.97198 0.0
C569 C 0.81973 0.09178 0.98296 0.0
H570 H 0.86211 0.10797 0.9499 0.0
C571 C 0.694 0.12825 0.95451 0.0
C572 C 0.62897 0.02668 0.93418 0.0
C573 C 0.59385 0.22079 0.94168 0.0
C574 C 0.56752 0.28248 0.9435 0.0
C575 C 0.63311 0.29541 0.93058 0.0
C576 C 0.62824 0.25047 0.93358 0.0
C577 C 0.60319 0.31124 0.93546 0.0
C578 C 0.56335 0.23703 0.94679 0.0
C579 C 0.59029 0.17285 0.94425 0.0
H580 H 0.48582 0.81511 0.97898 0.0
H581 H 0.5514 0.89793 0.97425 0.0
H582 H 0.48972 0.74284 0.97267 0.0
H583 H 0.62762 0.83676 0.95609 0.0
H584 H 0.66003 0.31799 0.92433 0.0
H585 H 0.65173 0.23889 0.92957 0.0
H586 H 0.60753 0.34615 0.93282 0.0
H587 H 0.53591 0.21404 0.95292 0.0
C588 C 0.05256 0.47269 0.93731 0.0
C589 C 0.039 0.41038 0.95125 0.0
C590 C 0.04213 0.45536 0.94842 0.0
C591 C 0.04297 0.38171 0.94278 0.0
C592 C 0.05969 0.44541 0.92895 0.0
C593 C 0.05098 0.39817 0.93164 0.0
N594 N 0.0537 0.51525 0.93462 0.0
C595 C 0.06541 0.53459 0.92403 0.0
C596 C 0.07369 0.46613 0.91814 0.0
C597 C 0.07721 0.51105 0.91572 0.0
Gd598 Gd 0.10317 0.67424 0.95983 0.0
Gd599 Gd 1.01805 0.54015 0.94815 0.0
N600 N 0.03262 0.48107 0.95626 0.0
C601 C 0.02775 0.39339 0.96234 0.0
C602 C 1.01853 0.46291 0.96693 0.0
C603 C 1.01699 0.41956 0.97017 0.0
H604 H 1.00439 0.4789 0.97275 0.0
H605 H 1.00436 0.4047 0.97851 0.0
H606 H 0.08478 0.73587 0.93974 0.0
H607 H 0.06479 0.56743 0.92185 0.0
H608 H 0.0493 0.79015 0.93771 0.0
H609 H 0.0247 0.35881 0.96479 0.0
H610 H 0.03777 0.34573 0.94467 0.0
H611 H 0.12102 0.66648 0.98767 0.0
H612 H 0.08295 0.44904 0.91154 0.0
H613 H 0.08744 0.52669 0.90735 0.0
H614 H 1.00345 0.80443 0.97561 0.0
H615 H 0.04861 0.37281 0.92525 0.0
H616 H 0.05111 0.73324 0.00526 0.0
H617 H 0.09865 0.68963 0.0054 0.0
N618 N 0.0843 0.6937 0.97739 0.0
C619 C 0.06153 0.72077 0.977 0.0
C620 C 0.09861 0.68355 0.98742 0.0
C621 C 0.06017 0.7223 0.99737 0.0
C622 C 0.08643 0.69729 0.99754 0.0
C623 C 0.04842 0.73539 0.98702 0.0
H624 H 1.01519 0.77549 0.994 0.0
N625 N 0.06758 0.72242 0.957 0.0
C626 C 0.05409 0.73658 0.96656 0.0
C627 C 0.03192 0.78678 0.95541 0.0
C628 C 0.03459 0.76817 0.96597 0.0
C629 C 0.06805 0.74265 0.94686 0.0
C630 C 0.04939 0.77447 0.94583 0.0
O631 O 0.09917 0.56558 0.94709 0.0
O632 O 0.13717 0.62524 0.96089 0.0
O633 O 0.16869 0.7287 0.95087 0.0
O634 O 0.16048 0.73684 0.96863 0.0
O635 O 1.01847 0.55744 0.96726 0.0
O636 O 0.09812 0.61545 0.97112 0.0
O637 O 1.01729 0.64118 0.96035 0.0
O638 O 0.98951 0.59057 0.94513 0.0
O639 O 0.94834 0.47758 0.95406 0.0
O640 O 0.9647 0.48942 0.93609 0.0
O641 O 0.10878 0.65952 0.94153 0.0
O642 O 0.03293 0.6027 0.93524 0.0
C643 C 0.13586 0.5917 0.95395 0.0
C644 C 0.05702 0.57709 0.97414 0.0
C645 C 0.23974 0.76083 0.96245 0.0
C646 C 0.3288 0.81212 0.96169 0.0
C647 C 0.29169 0.73634 0.97239 0.0
C648 C 0.2452 0.72743 0.96932 0.0
C649 C 0.33328 0.7784 0.9686 0.0
C650 C 0.28184 0.80342 0.95862 0.0
C651 C 0.19009 0.75245 0.96008 0.0
C652 C 0.0194 0.7809 0.97591 0.0
C653 C 0.02602 0.76433 0.98639 0.0
H654 H 1.01746 0.81146 0.9546 0.0
C655 C 0.98131 0.61292 0.95329 0.0
C656 C 0.07438 0.6454 0.93395 0.0
C657 C 0.88836 0.41547 0.94104 0.0
C658 C 0.82647 0.32848 0.94389 0.0
C659 C 0.82659 0.37064 0.92671 0.0
C660 C 0.86711 0.41366 0.93051 0.0
C661 C 0.80654 0.32846 0.9333 0.0
C662 C 0.86764 0.37242 0.94784 0.0
C663 C 0.93557 0.46038 0.94387 0.0
H664 H 0.29549 0.7106 0.97775 0.0
H665 H 0.21344 0.69472 0.97247 0.0
H666 H 0.36915 0.78498 0.97115 0.0
H667 H 0.27814 0.82987 0.95347 0.0
H668 H 0.81094 0.36981 0.91852 0.0
H669 H 0.88246 0.44554 0.92506 0.0
H670 H 0.77521 0.29538 0.93009 0.0
H671 H 0.88417 0.37262 0.95588 0.0
C672 C 0.62375 0.6292 0.93864 0.0
C673 C 0.68475 0.67997 0.95261 0.0
C674 C 0.6423 0.63574 0.94962 0.0
C675 C 0.70864 0.71639 0.94448 0.0
C676 C 0.64516 0.66724 0.93076 0.0
C677 C 0.68991 0.7093 0.93355 0.0
N678 N 0.58571 0.5849 0.93555 0.0
C679 C 0.56635 0.57653 0.92494 0.0
C680 C 0.62133 0.66031 0.9203 0.0
C681 C 0.58243 0.61477 0.91732 0.0
Gd682 Gd 0.43439 0.47111 0.96171 0.0
Gd683 Gd 0.56508 0.52354 0.9486 0.0
N684 N 0.62133 0.59781 0.95705 0.0
C685 C 0.70506 0.68444 0.96332 0.0
C686 C 0.64341 0.60093 0.96721 0.0
C687 C 0.68489 0.64433 0.97054 0.0
H688 H 0.63223 0.56926 0.97247 0.0
H689 H 0.70322 0.64578 0.97836 0.0
H690 H 0.40003 0.38561 0.94057 0.0
H691 H 0.53842 0.54072 0.92234 0.0
H692 H 0.34887 0.29694 0.93856 0.0
H693 H 0.73819 0.71755 0.9658 0.0
H694 H 0.74305 0.74923 0.94639 0.0
H695 H 0.44857 0.49286 0.98971 0.0
H696 H 0.63085 0.68912 0.91436 0.0
H697 H 0.56543 0.60902 0.90909 0.0
H698 H 0.31686 0.23849 0.97658 0.0
H699 H 0.71293 0.73536 0.92732 0.0
H700 H 0.39504 0.35534 0.00626 0.0
H701 H 0.44321 0.446 0.00666 0.0
N702 N 0.41833 0.43054 0.97897 0.0
C703 C 0.39259 0.38071 0.97838 0.0
C704 C 0.43272 0.45377 0.98912 0.0
C705 C 0.40061 0.37597 -0.00145 0.0
C706 C 0.42699 0.42704 -0.0011 0.0
C707 C 0.38182 0.35216 0.98825 0.0
H708 H 0.34488 0.27849 0.99503 0.0
N709 N 0.39343 0.38602 0.95834 0.0
C710 C 0.37799 0.35795 0.96785 0.0
C711 C 0.33888 0.28442 0.95646 0.0
C712 C 0.35085 0.30636 0.96712 0.0
C713 C 0.38406 0.3644 0.94797 0.0
C714 C 0.35611 0.31359 0.94684 0.0
O715 O 0.53082 0.57167 0.94704 0.0
O716 O 0.4838 0.55472 0.96296 0.0
O717 O 0.37963 0.48635 0.95439 0.0
O718 O 0.36974 0.45736 0.97114 0.0
O719 O 0.55249 0.50745 0.96796 0.0
O720 O 0.49327 0.52628 0.9725 0.0
O721 O 0.47156 0.4222 0.9611 0.0
O722 O 0.51785 0.44487 0.94506 0.0
O723 O 0.6273 0.51361 0.95368 0.0
O724 O 0.61851 0.52897 0.9362 0.0
O725 O 0.44127 0.49097 0.94344 0.0
O726 O 0.50043 0.47737 0.93591 0.0
C727 C 0.51321 0.5859 0.95524 0.0
C728 C 0.53264 0.52489 0.97521 0.0
C729 C 0.33893 0.51065 0.96753 0.0
C730 C 0.2876 0.54851 0.96602 0.0
C731 C 0.34402 0.56871 0.98173 0.0
C732 C 0.35965 0.53755 0.97747 0.0
C733 C 0.30826 0.57418 0.97606 0.0
C734 C 0.30271 0.5163 0.96177 0.0
C735 C 0.35346 0.4752 0.96352 0.0
C736 C 0.33793 0.27813 0.97701 0.0
C737 C 0.3539 0.30091 0.98752 0.0
H738 H 0.31788 0.24493 0.95556 0.0
C739 C 0.49538 0.41332 0.95303 0.0
C740 C 0.45702 0.47548 0.93514 0.0
C741 C 0.69289 0.52569 0.94036 0.0
C742 C 0.78019 0.55003 0.94313 0.0
C743 C 0.74015 0.5185 0.92501 0.0
C744 C 0.69637 0.51291 0.92919 0.0
C745 C 0.78153 0.53692 0.93186 0.0
C746 C 0.73537 0.54448 0.94742 0.0
C747 C 0.64681 0.52527 0.94367 0.0
H748 H 0.35954 0.58856 0.9895 0.0
H749 H 0.38753 0.53402 0.98205 0.0
H750 H 0.29637 0.59834 0.97956 0.0
H751 H 0.28635 0.49575 0.95411 0.0
H752 H 0.74212 0.50873 0.91635 0.0
H753 H 0.66515 0.49923 0.92355 0.0
H754 H 0.81502 0.54075 0.92832 0.0
H755 H 0.73379 0.55527 0.95602 0.0
C756 C 0.04964 0.46949 0.55797 0.0
C757 C 0.07458 0.42418 0.54556 0.0
C758 C 0.07007 0.46566 0.5478 0.0
C759 C 0.06012 0.3877 0.55376 0.0
C760 C 0.02996 0.43049 0.56561 0.0
C761 C 0.03872 0.39121 0.56377 0.0
N762 N 0.0478 0.51096 0.56021 0.0
C763 C 0.02515 0.51512 0.56959 0.0
C764 C 1.0026 0.43321 0.57472 0.0
C765 C 1.00083 0.47566 0.57679 0.0
Gd766 Gd 1.01492 0.62999 0.53525 0.0
Gd767 Gd 0.09304 0.57371 0.54775 0.0
N768 N 0.08514 0.5023 0.5401 0.0
C769 C 0.09473 0.42121 0.53528 0.0
C770 C 0.1052 0.49992 0.53006 0.0
C771 C 0.10978 0.45912 0.52747 0.0
H772 H 0.12054 0.53045 0.5243 0.0
H773 H 0.12647 0.45771 0.51961 0.0
H774 H 0.05792 0.70417 0.54438 0.0
H775 H 0.02428 0.54785 0.57145 0.0
H776 H 0.12315 0.80463 0.55761 0.0
H777 H 0.09902 0.38994 0.53332 0.0
H778 H 0.06552 0.35664 0.55247 0.0
H779 H 0.99135 0.60526 0.50763 0.0
H780 H 0.98103 0.40328 0.58022 0.0
H781 H 0.98079 0.47794 0.58397 0.0
H782 H 0.13556 0.86091 0.51965 0.0
H783 H 0.03168 0.36398 0.57004 0.0
H784 H 0.06182 0.74211 0.49008 0.0
H785 H 1.01109 0.65156 0.48985 0.0
N786 N 0.03177 0.66885 0.51782 0.0
C787 C 0.05851 0.71872 0.51824 0.0
C788 C 1.0146 0.64465 0.50782 0.0
C789 C 0.05361 0.72195 0.49793 0.0
C790 C 0.02528 0.67083 0.49774 0.0
C791 C 0.07034 0.74653 0.50825 0.0
H792 H 0.1076 0.8199 0.50127 0.0
N793 N 0.06268 0.7142 0.53874 0.0
C794 C 0.07403 0.7424 0.5287 0.0
C795 C 0.11856 0.81543 0.53987 0.0
C796 C 0.10202 0.79354 0.52931 0.0
C797 C 0.08011 0.73559 0.54935 0.0
C798 C 0.10835 0.78681 0.54961 0.0
O799 O 1.01286 0.517 0.54565 0.0
O800 O 0.97353 0.54648 0.53405 0.0
O801 O 0.94929 0.61873 0.54413 0.0
O802 O 0.96189 0.64504 0.52711 0.0
O803 O 0.09402 0.58828 0.52852 0.0
O804 O 1.01781 0.57614 0.52372 0.0
O805 O 0.10159 0.67458 0.53429 0.0
O806 O 0.1205 0.65196 0.55068 0.0
O807 O 0.16634 0.58727 0.54285 0.0
O808 O 0.14086 0.56733 0.56019 0.0
O809 O 1.00448 0.60853 0.55345 0.0
O810 O 0.07622 0.6199 0.5609 0.0
C811 C 0.97488 0.51104 0.53979 0.0
C812 C 0.05601 0.5716 0.52151 0.0
C813 C 0.87995 0.59132 0.53225 0.0
C814 C 0.79112 0.55746 0.53344 0.0
C815 C 0.82494 0.52204 0.52054 0.0
C816 C 0.87224 0.55575 0.5241 0.0
C817 C 0.78468 0.52299 0.52513 0.0
C818 C 0.83903 0.59181 0.53704 0.0
C819 C 0.93076 0.62842 0.53537 0.0
C820 C 0.11385 0.82128 0.51935 0.0
C821 C 0.09808 0.79789 0.50887 0.0
H822 H 0.14071 0.85491 0.54061 0.0
C823 C 0.13452 0.68116 0.54213 0.0
C824 C 0.03691 0.62585 0.56148 0.0
C825 C 0.21947 0.57261 0.55565 0.0
C826 C 0.2814 0.54724 0.55242 0.0
C827 C 0.27673 0.58133 0.57049 0.0
C828 C 0.23713 0.58558 0.56672 0.0
C829 C 0.29858 0.56236 0.56345 0.0
C830 C 0.24181 0.553 0.54842 0.0
C831 C 0.17337 0.57283 0.55265 0.0
H832 H 0.81946 0.49523 0.51414 0.0
H833 H 0.90295 0.55444 0.52034 0.0
H834 H 0.74823 0.49669 0.52218 0.0
H835 H 0.84441 0.61893 0.54336 0.0
H836 H 0.28999 0.59194 0.57903 0.0
H837 H 0.21988 0.59876 0.57257 0.0
H838 H 0.32874 0.55863 0.56672 0.0
H839 H 0.22737 0.54059 0.54002 0.0
C840 C 0.62945 0.62014 0.5596 0.0
C841 C 0.68191 0.68265 0.54612 0.0
C842 C 0.63731 0.63994 0.54872 0.0
C843 C 0.71784 0.70494 0.55446 0.0
C844 C 0.66698 0.63976 0.56764 0.0
C845 C 0.70988 0.68433 0.56521 0.0
N846 N 0.58488 0.58129 0.56228 0.0
C847 C 0.57544 0.5602 0.57272 0.0
C848 C 0.65908 0.61391 0.57784 0.0
C849 C 0.61315 0.57473 0.58046 0.0
Gd850 Gd 0.48468 0.43039 0.5358 0.0
Gd851 Gd 0.52551 0.56054 0.54862 0.0
N852 N 0.6006 0.61925 0.54095 0.0
C853 C 0.68745 0.70437 0.53555 0.0
C854 C 0.60495 0.64207 0.53084 0.0
C855 C 0.6483 0.68472 0.52803 0.0
H856 H 0.57414 0.63028 0.52524 0.0
H857 H 0.65054 0.7041 0.52033 0.0
H858 H 0.41549 0.35634 0.5565 0.0
H859 H 0.53935 0.53149 0.57501 0.0
H860 H 0.32748 0.30153 0.56057 0.0
H861 H 0.7207 0.73793 0.53337 0.0
H862 H 0.7512 0.73923 0.5528 0.0
H863 H 0.49575 0.44565 0.5077 0.0
H864 H 0.68746 0.62184 0.5838 0.0
H865 H 0.60679 0.55605 0.58848 0.0
H866 H 0.24835 0.29509 0.52535 0.0
H867 H 0.73605 0.70552 0.57164 0.0
H868 H 0.3513 0.38194 0.49385 0.0
H869 H 0.44131 0.43264 0.49156 0.0
N870 N 0.43734 0.40915 0.51936 0.0
C871 C 0.38826 0.3799 0.52076 0.0
C872 C 0.45665 0.42577 0.50893 0.0
C873 C 0.37509 0.38879 0.50105 0.0
C874 C 0.42585 0.41716 0.49969 0.0
C875 C 0.35571 0.36894 0.51165 0.0
H876 H 0.2794 0.3303 0.50655 0.0
N877 N 0.40313 0.37372 0.54005 0.0
C878 C 0.37065 0.36119 0.53142 0.0
C879 C 0.30443 0.30871 0.54388 0.0
C880 C 0.32019 0.3294 0.53316 0.0
C881 C 0.38865 0.35095 0.55022 0.0
C882 C 0.33899 0.31881 0.55239 0.0
O883 O 0.57761 0.53067 0.55079 0.0
O884 O 0.56608 0.48539 0.53491 0.0
O885 O 0.49405 0.3716 0.54316 0.0
O886 O 0.50507 0.38804 0.52525 0.0
O887 O 0.51237 0.54909 0.52918 0.0
O888 O 0.53614 0.49294 0.52511 0.0
O889 O 0.43103 0.46186 0.53457 0.0
O890 O 0.44608 0.50894 0.55041 0.0
O891 O 0.51569 0.6221 0.54337 0.0
O892 O 0.52507 0.61125 0.56115 0.0
O893 O 0.50038 0.44204 0.55439 0.0
O894 O 0.47632 0.49523 0.56078 0.0
C895 C 0.59468 0.51455 0.54287 0.0
C896 C 0.53052 0.52958 0.52206 0.0
C897 C 0.49432 0.31122 0.53077 0.0
C898 C 0.51757 0.24803 0.53145 0.0
C899 C 0.4568 0.24213 0.51792 0.0
C900 C 0.46127 0.2857 0.52202 0.0
C901 C 0.48506 0.22362 0.52252 0.0
C902 C 0.52189 0.29181 0.53564 0.0
C903 C 0.5068 0.36164 0.53349 0.0
C904 C 0.2874 0.31892 0.52415 0.0
C905 C 0.3051 0.33886 0.51343 0.0
H906 H 0.26593 0.284 0.54558 0.0
C907 C 0.41817 0.48536 0.54191 0.0
C908 C 0.47764 0.45368 0.56194 0.0
C909 C 0.52194 0.68547 0.55644 0.0
C910 C 0.54549 0.77203 0.5532 0.0
C911 C 0.50885 0.73206 0.571 0.0
C912 C 0.50559 0.68864 0.56724 0.0
C913 C 0.52851 0.77325 0.56408 0.0
C914 C 0.54236 0.72774 0.54935 0.0
C915 C 0.52336 0.64011 0.55353 0.0
H916 H 0.43208 0.22314 0.511 0.0
H917 H 0.44031 0.30041 0.51806 0.0
H918 H 0.48162 0.19012 0.5191 0.0
H919 H 0.54829 0.31183 0.54225 0.0
H920 H 0.49641 0.73393 0.5794 0.0
H921 H 0.4909 0.65754 0.57292 0.0
H922 H 0.5308 0.80658 0.56727 0.0
H923 H 0.55642 0.7265 0.54109 0.0
C924 C 0.47825 0.0399 0.56069 0.0
C925 C 0.42395 0.04484 0.54684 0.0
C926 C 0.46612 0.04168 0.54946 0.0
C927 C 0.39374 0.04436 0.55546 0.0
C928 C 0.44817 0.04029 0.5694 0.0
C929 C 0.40462 0.03949 0.56657 0.0
N930 N 0.51539 0.03122 0.56307 0.0
C931 C 0.52532 0.02419 0.57386 0.0
C932 C 0.46032 0.0364 0.58059 0.0
C933 C 0.49949 0.02891 0.58284 0.0
Gd934 Gd 0.68074 0.09167 0.53463 0.0
Gd935 Gd 0.54717 1.01046 0.54784 0.0
N936 N 0.49165 0.03423 0.54119 0.0
C937 C 0.40907 0.04111 0.53566 0.0
C938 C 0.47411 0.02592 0.53037 0.0
C939 C 0.43317 0.02978 0.52748 0.0
H940 H 0.48763 1.01113 0.52412 0.0
H941 H 0.41709 0.01953 0.51922 0.0
H942 H 0.71824 0.04639 0.55616 0.0
H943 H 0.54973 1.0103 0.57543 0.0
H944 H 0.78006 0.02154 0.55884 0.0
H945 H 0.37612 0.04198 0.53341 0.0
H946 H 0.35958 0.04348 0.55359 0.0
H947 H 0.65909 0.08764 0.50666 0.0
H948 H 0.4388 0.03678 0.58758 0.0
H949 H 0.50749 0.02327 0.59141 0.0
H950 H 0.81218 0.98974 0.52122 0.0
H951 H 0.37666 0.03121 0.57262 0.0
H952 H 0.72008 1.0079 0.49122 0.0
H953 H 0.66531 0.04337 0.49035 0.0
N954 N 0.69564 0.06345 0.51774 0.0
C955 C 0.72504 0.04339 0.51858 0.0
C956 C 0.67767 0.06705 0.50755 0.0
C957 C 0.71416 0.02405 0.4987 0.0
C958 C 0.68393 0.04465 0.49807 0.0
C959 C 0.73634 0.02454 0.50898 0.0
H960 H 0.77763 0.99137 0.50271 0.0
N961 N 0.72518 0.05183 0.53846 0.0
C962 C 0.74232 0.03988 0.52916 0.0
C963 C 0.79015 0.01693 0.541 0.0
C964 C 0.77428 0.02087 0.53021 0.0
C965 C 0.7366 0.04325 0.54896 0.0
C966 C 0.77056 0.02746 0.55044 0.0
O967 O 0.57566 0.09163 0.54986 0.0
O968 O 0.63189 0.12611 0.53531 0.0
O969 O 0.74138 0.15963 0.54149 0.0
O970 O 0.73774 0.14442 0.52371 0.0
O971 O 0.56187 1.01126 0.52855 0.0
O972 O 0.6205 0.09006 0.52449 0.0
O973 O 0.64323 1.00629 0.5339 0.0
O974 O 0.60151 0.98601 0.55034 0.0
O975 O 0.48454 0.94517 0.54042 0.0
O976 O 0.50132 0.94542 0.55794 0.0
O977 O 0.6788 0.10321 0.55318 0.0
O978 O 0.61186 0.03481 0.56096 0.0
C979 C 0.60169 0.1278 0.54285 0.0
C980 C 0.58097 0.04965 0.52164 0.0
C981 C 0.76591 0.22653 0.5288 0.0
C982 C 0.81194 0.31613 0.53048 0.0
C983 C 0.74254 0.27659 0.51768 0.0
C984 C 0.73491 0.23073 0.52087 0.0
C985 C 0.78072 0.31894 0.52241 0.0
C986 C 0.80449 0.26956 0.53366 0.0
C987 C 0.75866 0.17735 0.53153 0.0
C988 C 0.78785 1.00468 0.52056 0.0
C989 C 0.76818 1.00562 0.51001 0.0
H990 H 0.81518 1.00307 0.54216 0.0
C991 C 0.61849 0.97348 0.54179 0.0
C992 C 0.65674 0.07468 0.5618 0.0
C993 C 0.41599 0.90402 0.55298 0.0
C994 C 0.32709 0.85135 0.54951 0.0
C995 C 0.35601 0.90657 0.56556 0.0
C996 C 0.40435 0.92107 0.5628 0.0
C997 C 0.31773 0.87234 0.55894 0.0
C998 C 0.37661 0.86774 0.54643 0.0
C999 C 0.46891 0.92288 0.55005 0.0
H1000 H 0.71903 0.27933 0.5114 0.0
H1001 H 0.705 0.19849 0.51699 0.0
H1002 H 0.78658 0.35419 0.51958 0.0
H1003 H 0.82873 0.26685 0.53975 0.0
H1004 H 0.34813 0.92074 0.57311 0.0
H1005 H 0.4326 0.94509 0.56857 0.0
H1006 H 0.28037 0.85971 0.56162 0.0
H1007 H 0.38433 0.85126 0.53928 0.0
C1008 C 0.05088 0.37863 0.35464 0.0
C1009 C 0.98227 0.35468 0.36736 0.0
C1010 C 0.03305 0.37687 0.36543 0.0
C1011 C 0.94956 0.33236 0.35833 0.0
C1012 C 1.01834 0.35755 0.3455 0.0
C1013 C 0.96756 0.33365 0.34744 0.0
N1014 N 0.10015 0.40163 0.35308 0.0
C1015 C 0.11936 0.40868 0.3425 0.0
C1016 C 0.0379 0.36159 0.33468 0.0
C1017 C 0.08868 0.38793 0.33316 0.0
Gd1018 Gd 0.19882 0.34568 0.38161 0.0
Gd1019 Gd 0.14809 0.42791 0.36949 0.0
N1020 N 0.06561 0.39713 0.37404 0.0
C1021 C 0.96605 0.35589 0.37829 0.0
C1022 C 0.05039 0.40203 0.38443 0.0
C1023 C 1.00037 0.38063 0.38682 0.0
H1024 H 0.07678 0.42378 0.39073 0.0
H1025 H 0.9884 0.38379 0.39518 0.0
H1026 H 0.24439 0.33108 0.35676 0.0
H1027 H 0.15826 0.43092 0.34123 0.0
H1028 H 0.31862 0.33327 0.35064 0.0
H1029 H 0.92729 0.33922 0.38014 0.0
H1030 H 0.91032 0.31447 0.35967 0.0
H1031 H 0.21837 0.39035 0.40797 0.0
H1032 H 1.01417 0.34563 0.32743 0.0
H1033 H 0.1042 0.39255 0.3248 0.0
H1034 H 0.41723 0.37632 0.38334 0.0
H1035 H 0.9419 0.31675 0.34054 0.0
H1036 H 0.35967 0.41756 0.41708 0.0
H1037 H 0.28408 0.41622 0.42206 0.0
N1038 N 0.26079 0.38461 0.39468 0.0
C1039 C 0.30338 0.38674 0.39155 0.0
C1040 C 0.25298 0.39411 0.40548 0.0
C1041 C 0.33229 0.40721 0.41068 0.0
C1042 C 0.28955 0.40751 0.41354 0.0
C1043 C 0.3389 0.39473 0.3997 0.0
H1044 H 0.40086 0.38385 0.40292 0.0
N1045 N 0.27277 0.36504 0.37275 0.0
C1046 C 0.30981 0.37737 0.38031 0.0
C1047 C 0.35689 0.36338 0.36614 0.0
C1048 C 0.35237 0.37592 0.37719 0.0
C1049 C 0.27564 0.34875 0.36223 0.0
C1050 C 0.31783 0.3486 0.35874 0.0
O1051 O 0.09592 0.34181 0.36926 0.0
O1052 O 0.11987 0.31597 0.38469 0.0
O1053 O 0.19457 0.27582 0.37624 0.0
O1054 O 0.20156 0.29663 0.39391 0.0
O1055 O 0.16984 0.43627 0.38774 0.0
O1056 O 0.15083 0.36097 0.39445 0.0
O1057 O 0.24929 0.4275 0.38357 0.0
O1058 O 0.23056 0.45716 0.36792 0.0
O1059 O 0.15272 0.49419 0.37698 0.0
O1060 O 0.16509 0.48997 0.35906 0.0
O1061 O 0.17885 0.34031 0.36242 0.0
O1062 O 0.1992 0.41899 0.35834 0.0
C1063 C 0.08893 0.30656 0.37653 0.0
C1064 C 0.15038 0.40302 0.39561 0.0
C1065 C 0.20675 0.22357 0.39013 0.0
C1066 C 0.22974 0.15994 0.38707 0.0
C1067 C 0.21387 0.17853 0.40601 0.0
C1068 C 0.20379 0.21368 0.40175 0.0
C1069 C 0.22693 0.15219 0.39879 0.0
C1070 C 0.21981 0.19623 0.38269 0.0
C1071 C 0.20358 0.26737 0.38647 0.0
C1072 C 0.38621 0.38084 0.38544 0.0
C1073 C 0.37798 0.38743 0.39668 0.0
H1074 H 0.38871 0.36116 0.36353 0.0
C1075 C 0.26225 0.46001 0.37557 0.0
C1076 C 0.19302 0.3769 0.35507 0.0
C1077 C 0.1549 0.55645 0.36456 0.0
C1078 C 0.18238 0.64392 0.36494 0.0
C1079 C 0.12068 0.59047 0.35141 0.0
C1080 C 0.12278 0.55026 0.35568 0.0
C1081 C 0.1506 0.6371 0.35593 0.0
C1082 C 0.18412 0.60332 0.36933 0.0
C1083 C 0.16549 0.51722 0.36734 0.0
H1084 H 0.21188 0.17187 0.415 0.0
H1085 H 0.19468 0.23403 0.4077 0.0
H1086 H 0.23453 0.12504 0.4024 0.0
H1087 H 0.22286 0.2035 0.37371 0.0
H1088 H 0.09658 0.58568 0.34442 0.0
H1089 H 0.10078 0.5147 0.35175 0.0
H1090 H 0.14902 0.66801 0.35238 0.0
H1091 H 0.20995 0.60865 0.376 0.0
C1092 C 0.72782 0.71402 0.35168 0.0
C1093 C 0.76353 0.67549 0.36306 0.0
C1094 C 0.73851 0.7021 0.36227 0.0
C1095 C 0.77573 0.6593 0.35321 0.0
C1096 C 0.74283 0.7003 0.34179 0.0
C1097 C 0.76581 0.67203 0.34261 0.0
N1098 N 0.7053 0.74127 0.35102 0.0
C1099 C 0.69652 0.75571 0.34087 0.0
C1100 C 0.73593 0.71697 0.33137 0.0
C1101 C 0.71353 0.74559 0.33097 0.0
Gd1102 Gd 0.76467 0.89315 0.38137 0.0
Gd1103 Gd 0.68314 0.75996 0.36823 0.0
N1104 N 0.72909 0.72089 0.37169 0.0
C1105 C 0.77796 0.66812 0.37372 0.0
C1106 C 0.74648 0.71683 0.38195 0.0
C1107 C 0.77018 0.68966 0.38317 0.0
H1108 H 0.74403 0.73608 0.38915 0.0
H1109 H 0.78334 0.68625 0.39137 0.0
H1110 H 0.78714 0.95993 0.35732 0.0
H1111 H 0.6759 0.7745 0.34036 0.0
H1112 H 0.78847 0.03493 0.35168 0.0
H1113 H 0.79722 0.64784 0.37466 0.0
H1114 H 0.79466 0.63855 0.35369 0.0
H1115 H 0.72153 0.86903 0.40763 0.0
H1116 H 0.74836 0.70852 0.32361 0.0
H1117 H 0.70948 0.76016 0.32308 0.0
H1118 H 0.73597 0.08372 0.38435 0.0
H1119 H 0.77711 0.66075 0.3351 0.0
H1120 H 0.67735 0.97083 0.41597 0.0
H1121 H 0.68538 0.90079 0.42113 0.0
N1122 N 0.72872 0.91854 0.39463 0.0
C1123 C 0.72669 0.95925 0.39173 0.0
C1124 C 0.71659 0.89895 0.40517 0.0
C1125 C 0.69496 0.95925 0.4101 0.0
C1126 C 0.69752 0.91779 0.41293 0.0
C1127 C 0.71292 0.98283 0.39971 0.0
H1128 H 0.71629 0.05231 0.40334 0.0
N1129 N 0.75297 0.95429 0.37325 0.0
C1130 C 0.73987 0.97806 0.38084 0.0
C1131 C 0.75742 0.04188 0.3672 0.0
C1132 C 0.74187 0.02251 0.37798 0.0
C1133 C 0.77073 0.9746 0.3629 0.0
C1134 C 0.77268 0.0182 0.35971 0.0
O1135 O 0.76897 0.79779 0.36755 0.0
O1136 O 0.78604 0.83744 0.38406 0.0
O1137 O 0.83728 0.95325 0.37606 0.0
O1138 O 0.81933 0.94004 0.39363 0.0
O1139 O 0.66916 0.7662 0.38652 0.0
O1140 O 0.74133 0.82712 0.39415 0.0
O1141 O 0.68415 0.86847 0.38184 0.0
O1142 O 0.6473 0.80781 0.36814 0.0
O1143 O 0.61819 0.69965 0.376 0.0
O1144 O 0.62753 0.7007 0.35808 0.0
O1145 O 0.76545 0.87918 0.36205 0.0
O1146 O 0.68678 0.82007 0.35778 0.0
C1147 C 0.80123 0.82359 0.37549 0.0
C1148 C 0.69954 0.7837 0.39499 0.0
C1149 C 0.86634 0.02448 0.38819 0.0
C1150 C 0.9192 0.11339 0.38429 0.0
C1151 C 0.85901 0.08562 0.39937 0.0
C1152 C 0.84504 0.03703 0.39709 0.0
C1153 C 0.89541 0.12332 0.39303 0.0
C1154 C 0.90456 0.06344 0.38186 0.0
C1155 C 0.84949 0.97099 0.38622 0.0
C1156 C 0.73201 0.04821 0.3862 0.0
C1157 C 0.71895 0.02912 0.39707 0.0
H1158 H 0.76008 0.07631 0.36477 0.0
C1159 C 0.64754 0.84077 0.37514 0.0
C1160 C 0.72743 0.85948 0.355 0.0
C1161 C 0.54697 0.67054 0.36473 0.0
C1162 C 0.45804 0.61895 0.36681 0.0
C1163 C 0.49219 0.69581 0.35655 0.0
C1164 C 0.53948 0.70458 0.35864 0.0
C1165 C 0.45175 0.65331 0.36058 0.0
C1166 C 0.5059 0.62758 0.3689 0.0
C1167 C 0.59757 0.67992 0.36644 0.0
H1168 H 0.84201 0.09416 0.40627 0.0
H1169 H 0.81753 1.00924 0.40249 0.0
H1170 H 0.90655 0.16082 0.39529 0.0
H1171 H 0.92313 0.05512 0.37528 0.0
H1172 H 0.48686 0.72211 0.35178 0.0
H1173 H 0.57027 0.73792 0.3554 0.0
H1174 H 0.41526 0.64691 0.35876 0.0
H1175 H 0.51106 0.60077 0.37352 0.0
C1176 C 0.39562 0.0592 0.35374 0.0
C1177 C 0.4442 0.12789 0.36627 0.0
C1178 C 0.41286 0.07728 0.36456 0.0
C1179 C 0.45624 0.16023 0.35711 0.0
C1180 C 0.40751 0.09165 0.34457 0.0
C1181 C 0.43745 0.14223 0.34634 0.0
N1182 N 0.36758 1.00993 0.35219 0.0
C1183 C 0.35313 0.9907 0.34164 0.0
C1184 C 0.3893 0.07224 0.33387 0.0
C1185 C 0.36218 0.02153 0.3324 0.0
Gd1186 Gd 0.21631 0.90825 0.38076 0.0
Gd1187 Gd 0.35123 0.96328 0.3686 0.0
N1188 N 0.39912 0.04543 0.37339 0.0
C1189 C 0.46217 0.14453 0.37715 0.0
C1190 C 0.41942 0.06088 0.38377 0.0
C1191 C 0.45028 0.11076 0.38591 0.0
H1192 H 0.41365 0.03474 0.39024 0.0
H1193 H 0.46571 0.12299 0.39424 0.0
H1194 H 0.17927 0.83267 0.35735 0.0
H1195 H 0.33563 0.95175 0.34026 0.0
H1196 H 0.12134 0.74731 0.35308 0.0
H1197 H 0.48616 0.18319 0.37882 0.0
H1198 H 0.47979 0.19933 0.35829 0.0
H1199 H 0.22826 0.91197 0.40905 0.0
H1200 H 0.39692 0.09602 0.32664 0.0
H1201 H 0.34871 1.0062 0.32414 0.0
H1202 H 0.0334 0.68745 0.38757 0.0
H1203 H 0.44686 0.16773 0.3394 0.0
H1204 H 0.10628 0.78142 0.42127 0.0
H1205 H 0.18016 0.86029 0.42493 0.0
N1206 N 0.18651 0.85838 0.39657 0.0
C1207 C 0.14837 0.81291 0.39443 0.0
C1208 C 0.19882 0.87536 0.40736 0.0
C1209 C 0.12905 0.80157 0.41426 0.0
C1210 C 0.17092 0.8466 0.41639 0.0
C1211 C 0.11718 0.78414 0.40316 0.0
H1212 H 0.0449 0.72261 0.40631 0.0
N1213 N 0.16788 0.82589 0.37504 0.0
C1214 C 0.13895 0.79605 0.38338 0.0
C1215 C 0.0937 0.73087 0.36996 0.0
C1216 C 0.09953 0.74884 0.38094 0.0
C1217 C 0.16029 0.80925 0.36418 0.0
C1218 C 0.12526 0.76089 0.3616 0.0
O1219 O 0.31397 1.01201 0.36778 0.0
O1220 O 0.26838 0.98707 0.3836 0.0
O1221 O 0.15156 0.90628 0.37299 0.0
O1222 O 0.16744 0.924 0.39051 0.0
O1223 O 0.34341 0.94589 0.38715 0.0
O1224 O 0.27975 0.95594 0.39352 0.0
O1225 O 0.24928 0.85963 0.38339 0.0
O1226 O 0.30196 0.88 0.36827 0.0
O1227 O 0.40975 0.95257 0.37557 0.0
O1228 O 0.41029 0.97065 0.35802 0.0
O1229 O 0.2298 0.92311 0.36139 0.0
O1230 O 0.29262 0.90795 0.35758 0.0
C1231 C 0.2861 0.01768 0.37528 0.0
C1232 C 0.32278 0.9579 0.39514 0.0
C1233 C 0.08249 0.8797 0.3856 0.0
C1234 C 0.99361 0.84525 0.38263 0.0
C1235 C 0.02324 0.82131 0.39896 0.0
C1236 C 0.07138 0.85372 0.39582 0.0
C1237 C 0.98466 0.81668 0.39237 0.0
C1238 C 0.04289 0.87644 0.37911 0.0
C1239 C 0.13526 0.91313 0.38252 0.0
C1240 C 0.06608 0.72208 0.38943 0.0
C1241 C 0.07381 0.74103 0.40034 0.0
H1242 H 0.06467 0.69427 0.36783 0.0
C1243 C 0.27383 0.84864 0.37613 0.0
C1244 C 0.25463 0.9109 0.35425 0.0
C1245 C 0.44233 0.9192 0.36235 0.0
C1246 C 0.49279 0.88054 0.36403 0.0
C1247 C 0.43267 0.85635 0.349 0.0
C1248 C 0.41874 0.88924 0.35295 0.0
C1249 C 0.46945 0.85203 0.35448 0.0
C1250 C 0.47956 0.91469 0.36792 0.0
C1251 C 0.4303 0.95717 0.36576 0.0
H1252 H 1.01578 0.80117 0.40679 0.0
H1253 H 0.09999 0.85941 0.40165 0.0
H1254 H 0.94748 0.79331 0.39534 0.0
H1255 H 0.05032 0.89939 0.37173 0.0
H1256 H 0.41507 0.83429 0.34161 0.0
H1257 H 0.39004 0.89182 0.3485 0.0
H1258 H 0.48004 0.82651 0.3512 0.0
H1259 H 0.49819 0.93762 0.37515 0.0
C1260 C 0.71893 0.71273 0.81022 0.0
C1261 C 0.68791 0.63928 0.79872 0.0
C1262 C 0.71186 0.69077 0.79966 0.0
C1263 C 0.67238 0.61033 0.80849 0.0
C1264 C 0.70144 0.68357 0.82 0.0
C1265 C 0.67877 0.63237 0.81909 0.0
N1266 N 0.74117 0.76239 0.8109 0.0
C1267 C 0.74881 0.78514 0.82108 0.0
C1268 C 0.70614 0.70672 0.83039 0.0
C1269 C 0.72947 0.75777 0.83086 0.0
Gd1270 Gd 0.68377 0.85576 0.78148 0.0
Gd1271 Gd 0.76656 0.80438 0.79379 0.0
N1272 N 0.72499 0.71959 0.79029 0.0
C1273 C 0.67871 0.61827 0.78795 0.0
C1274 C 0.71431 0.69906 0.77982 0.0
C1275 C 0.6915 0.64832 0.77846 0.0
H1276 H 0.72104 0.72121 0.77254 0.0
H1277 H 0.68298 0.63243 0.77009 0.0
H1278 H 0.66277 0.89952 0.8057 0.0
H1279 H 0.77034 0.82441 0.82174 0.0
H1280 H 0.65905 0.972 0.81141 0.0
H1281 H 0.66039 0.57886 0.78687 0.0
H1282 H 0.65414 0.57073 0.80792 0.0
H1283 H 0.73054 0.87795 0.75554 0.0
H1284 H 0.69186 0.6856 0.83806 0.0
H1285 H 0.73267 0.77642 0.8387 0.0
H1286 H 0.70756 0.07313 0.77888 0.0
H1287 H 0.66542 0.60943 0.82653 0.0
H1288 H 0.76603 0.02117 0.74691 0.0
H1289 H 0.76179 0.94467 0.74176 0.0
N1290 N 0.71726 0.91706 0.76814 0.0
C1291 C 0.71758 0.95887 0.77105 0.0
C1292 C 0.73108 0.9109 0.7577 0.0
C1293 C 0.74834 0.99139 0.75265 0.0
C1294 C 0.74827 0.94853 0.74987 0.0
C1295 C 0.72966 0.99586 0.76307 0.0
H1296 H 0.72202 0.05952 0.75953 0.0
N1297 N 0.6958 0.92856 0.78973 0.0
C1298 C 0.70673 0.96491 0.78212 0.0
C1299 C 0.69016 1.01087 0.79604 0.0
C1300 C 0.7046 1.00715 0.78514 0.0
C1301 C 0.67846 0.9307 0.80016 0.0
C1302 C 0.67546 0.97174 0.80343 0.0
O1303 O 0.68058 0.75531 0.79387 0.0
O1304 O 0.65895 0.77819 0.77765 0.0
O1305 O 0.61138 0.83891 0.78779 0.0
O1306 O 0.62878 0.85462 0.76991 0.0
O1307 O 0.77884 0.82665 0.77563 0.0
O1308 O 0.70504 0.81265 0.76849 0.0
O1309 O 0.76473 0.91212 0.78051 0.0
O1310 O 0.80283 0.8876 0.79356 0.0
O1311 O 0.82976 0.80085 0.78653 0.0
O1312 O 0.82556 0.81355 0.80451 0.0
O1313 O 0.68407 0.83972 0.80055 0.0
O1314 O 0.76315 0.86091 0.80429 0.0
C1315 C 0.64841 0.74655 0.78568 0.0
C1316 C 0.74693 0.81152 0.76744 0.0
C1317 C 0.54958 0.84384 0.77611 0.0
C1318 C 0.48924 0.87207 0.77822 0.0
C1319 C 0.47557 0.808 0.76472 0.0
C1320 C 0.51974 0.81101 0.76776 0.0
C1321 C 0.46057 0.83816 0.76985 0.0
C1322 C 0.53413 0.87459 0.78147 0.0
C1323 C 0.59844 0.8482 0.77806 0.0
C1324 C 0.71201 0.04197 0.7769 0.0
C1325 C 0.72249 0.03524 0.76584 0.0
H1326 H 0.68704 0.04227 0.79857 0.0
C1327 C 0.80282 0.92074 0.78671 0.0
C1328 C 0.72284 0.85977 0.80727 0.0
C1329 C 0.89643 0.80894 0.79905 0.0
C1330 C 0.98433 0.83861 0.7968 0.0
C1331 C 0.93932 0.7856 0.81252 0.0
C1332 C 0.89644 0.78371 0.80881 0.0
C1333 C 0.9829 0.81285 0.80659 0.0
C1334 C 0.94072 0.83649 0.79295 0.0
C1335 C 0.85142 0.81065 0.79634 0.0
H1336 H 0.45308 0.78252 0.75822 0.0
H1337 H 0.53096 0.78784 0.76345 0.0
H1338 H 0.42636 0.83539 0.76715 0.0
H1339 H 0.55748 0.90125 0.7877 0.0
H1340 H 0.93896 0.76652 0.82014 0.0
H1341 H 0.86325 0.76315 0.81372 0.0
H1342 H 1.01604 0.81461 0.80979 0.0
H1343 H 0.94169 0.85761 0.78564 0.0
C1344 C 0.40611 0.05552 0.80698 0.0
C1345 C 0.47107 0.10168 0.79346 0.0
C1346 C 0.42093 0.07229 0.796 0.0
C1347 C 0.50615 0.11146 0.80189 0.0
C1348 C 0.44116 0.06581 0.81549 0.0
C1349 C 0.49125 0.09328 0.81285 0.0
N1350 N 0.3573 0.02856 0.80927 0.0
C1351 C 0.34118 0.0145 0.82003 0.0
C1352 C 0.42477 0.04834 0.82641 0.0
C1353 C 0.37455 0.02306 0.82871 0.0
Gd1354 Gd 0.25554 0.87679 0.78247 0.0
Gd1355 Gd 0.30538 1.01189 0.79373 0.0
N1356 N 0.38623 0.06068 0.78787 0.0
C1357 C 0.48431 0.12136 0.78258 0.0
C1358 C 0.39852 0.08341 0.77767 0.0
C1359 C 0.44778 0.11316 0.77474 0.0
H1360 H 0.37037 0.08023 0.77201 0.0
H1361 H 0.45749 0.13045 0.76653 0.0
H1362 H 0.1889 0.83056 0.80683 0.0
H1363 H 0.3028 0.99773 0.822 0.0
H1364 H 0.10367 0.78034 0.81218 0.0
H1365 H 0.52247 0.1445 0.78031 0.0
H1366 H 0.54493 0.13357 0.80007 0.0
H1367 H 0.25387 0.88113 0.75422 0.0
H1368 H 0.45056 0.05511 0.83318 0.0
H1369 H 0.36156 1.01057 0.83718 0.0
H1370 H 0.02836 0.69715 0.77794 0.0
H1371 H 0.51878 0.10138 0.81927 0.0
H1372 H 0.11566 0.76493 0.74333 0.0
H1373 H 0.19654 0.83476 0.73888 0.0
N1374 N 0.20283 0.84133 0.76726 0.0
C1375 C 0.1574 0.80427 0.76991 0.0
C1376 C 0.21733 0.85248 0.75631 0.0
C1377 C 0.13946 0.78579 0.75017 0.0
C1378 C 0.18533 0.82564 0.74758 0.0
C1379 C 0.12514 0.7743 0.76146 0.0
H1380 H 0.05793 0.70589 0.75874 0.0
N1381 N 0.17554 0.82449 0.78918 0.0
C1382 C 0.14298 0.79626 0.78115 0.0
C1383 C 0.08022 0.75477 0.79531 0.0
C1384 C 0.09507 0.75944 0.78408 0.0
C1385 C 0.1625 0.8158 0.80028 0.0
C1386 C 0.11415 0.78379 0.80344 0.0
O1387 O 0.35276 0.97365 0.795 0.0
O1388 O 0.33326 0.9309 0.77879 0.0
O1389 O 0.25288 0.81051 0.7898 0.0
O1390 O 0.28387 0.83676 0.77348 0.0
O1391 O 0.28748 1.0027 0.77523 0.0
O1392 O 0.29762 0.9388 0.76901 0.0
O1393 O 0.20261 0.90472 0.77933 0.0
O1394 O 0.22165 0.96197 0.79352 0.0
O1395 O 0.29801 0.07281 0.78716 0.0
O1396 O 0.30934 0.06778 0.80495 0.0
O1397 O 0.27059 0.89482 0.80169 0.0
O1398 O 0.25058 0.95454 0.80489 0.0
C1399 C 0.36426 0.95268 0.78686 0.0
C1400 C 0.29964 0.98179 0.76734 0.0
C1401 C 0.2502 0.75055 0.77617 0.0
C1402 C 0.2198 0.66128 0.77801 0.0
C1403 C 0.24251 0.70097 0.75965 0.0
C1404 C 0.25373 0.74563 0.76444 0.0
C1405 C 0.22645 0.6596 0.76633 0.0
C1406 C 0.23276 0.70751 0.78303 0.0
C1407 C 0.27096 0.8018 0.78081 0.0
C1408 C 0.06418 0.72753 0.77579 0.0
C1409 C 0.08029 0.73371 0.76464 0.0
H1410 H 0.04324 0.72805 0.79784 0.0
C1411 C 0.19018 0.92963 0.7862 0.0
C1412 C 0.25406 0.91724 0.80846 0.0
C1413 C 0.2612 0.10314 0.79992 0.0
C1414 C 0.22407 0.15441 0.7972 0.0
C1415 C 0.19579 0.0945 0.81228 0.0
C1416 C 0.22943 0.0803 0.80907 0.0
C1417 C 0.1927 0.1309 0.80632 0.0
C1418 C 0.25853 0.1406 0.79398 0.0
C1419 C 0.2994 0.09059 0.79716 0.0
H1420 H 0.24665 0.69848 0.75065 0.0
H1421 H 0.26685 0.77686 0.75885 0.0
H1422 H 0.21826 0.62547 0.76227 0.0
H1423 H 0.22937 0.70992 0.79206 0.0
H1424 H 0.17237 0.07762 0.81951 0.0
H1425 H 0.23096 0.05184 0.81388 0.0
H1426 H 0.16694 0.14208 0.8091 0.0
H1427 H 0.28404 0.1599 0.78719 0.0
C1428 C 0.05834 0.38303 0.81315 0.0
C1429 C 1.00722 0.40596 0.80239 0.0
C1430 C 0.04035 0.38812 0.80282 0.0
C1431 C 0.99269 0.41874 0.81241 0.0
C1432 C 0.04482 0.39711 0.82321 0.0
C1433 C 1.01179 0.41478 0.82278 0.0
N1434 N 0.08927 0.36464 0.81338 0.0
C1435 C 0.1063 0.35764 0.82338 0.0
C1436 C 0.06516 0.39331 0.8334 0.0
C1437 C 0.09639 0.37383 0.83345 0.0
Gd1438 Gd 0.23381 0.42574 0.78164 0.0
Gd1439 Gd 0.10548 0.34122 0.79592 0.0
N1440 N 0.05687 0.37771 0.7932 0.0
C1441 C 0.99003 0.41097 0.79187 0.0
C1442 C 0.04263 0.3857 0.78295 0.0
C1443 C 1.00773 0.4006 0.7821 0.0
H1444 H 0.05955 0.38299 0.77543 0.0
H1445 H 0.9962 0.40615 0.7739 0.0
H1446 H 0.30823 0.45151 0.80428 0.0
H1447 H 0.12598 0.33794 0.82367 0.0
H1448 H 0.383 0.4495 0.8089 0.0
H1449 H 0.96419 0.42407 0.79118 0.0
H1450 H 0.96725 0.43246 0.81223 0.0
H1451 H 0.20682 0.38608 0.75509 0.0
H1452 H 0.05657 0.40476 0.84128 0.0
H1453 H 0.11245 0.37064 0.84122 0.0
H1454 H 0.41207 0.3767 0.77685 0.0
H1455 H 1.00075 0.42546 0.83043 0.0
H1456 H 0.2915 0.32135 0.74655 0.0
H1457 H 0.22796 0.34013 0.74171 0.0
N1458 N 0.25577 0.38873 0.76776 0.0
C1459 C 0.29392 0.38182 0.77038 0.0
C1460 C 0.23438 0.37722 0.75737 0.0
C1461 C 0.28506 0.34353 0.75233 0.0
C1462 C 0.24717 0.35237 0.74968 0.0
C1463 C 0.31185 0.36194 0.76239 0.0
H1464 H 0.37539 0.35494 0.7583 0.0
N1465 N 0.29529 0.41201 0.78882 0.0
C1466 C 0.31485 0.3947 0.78109 0.0
C1467 C 0.38092 0.41046 0.79391 0.0
C1468 C 0.35755 0.3925 0.78356 0.0
C1469 C 0.31969 0.43218 0.79869 0.0
C1470 C 0.3627 0.43169 0.80134 0.0
O1471 O 0.13853 0.4267 0.79612 0.0
O1472 O 0.18089 0.45201 0.77956 0.0
O1473 O 0.29201 0.49823 0.78711 0.0
O1474 O 0.28411 0.47899 0.76924 0.0
O1475 O 0.10854 0.32938 0.7773 0.0
O1476 O 0.16598 0.4033 0.76962 0.0
O1477 O 0.20447 0.34394 0.77982 0.0
O1478 O 0.1579 0.3111 0.79572 0.0
O1479 O 0.04449 0.27133 0.78926 0.0
O1480 O 0.05668 0.28502 0.8073 0.0
O1481 O 0.22479 0.42827 0.80119 0.0
O1482 O 0.16951 0.34892 0.80543 0.0
C1483 C 0.16149 0.46083 0.78826 0.0
C1484 C 0.1236 0.36052 0.76891 0.0
C1485 C 0.35532 0.55819 0.77457 0.0
C1486 C 0.44387 0.61904 0.77618 0.0
C1487 C 0.39122 0.63237 0.76329 0.0
C1488 C 0.35088 0.58785 0.76641 0.0
C1489 C 0.43704 0.64782 0.76811 0.0
C1490 C 0.40226 0.57396 0.77958 0.0
C1491 C 0.31073 0.51014 0.77705 0.0
C1492 C 0.37801 0.37646 0.7753 0.0
C1493 C 0.35578 0.36212 0.76472 0.0
H1494 H 0.41448 0.4105 0.79599 0.0
C1495 C 0.18503 0.30957 0.78746 0.0
C1496 C 0.20673 0.39083 0.80834 0.0
C1497 C 0.98715 0.20727 0.80246 0.0
C1498 C 0.93106 0.11955 0.79966 0.0
C1499 C 0.92751 0.15923 0.8169 0.0
C1500 C 0.96549 0.20377 0.81304 0.0
C1501 C 0.91054 0.1174 0.8103 0.0
C1502 C 0.96933 0.16487 0.79562 0.0
C1503 C 0.03053 0.25469 0.79942 0.0
H1504 H 0.38705 0.65492 0.75699 0.0
H1505 H 0.31584 0.57648 0.7624 0.0
H1506 H 0.46774 0.68243 0.76538 0.0
H1507 H 0.40662 0.55084 0.7857 0.0
H1508 H 0.91145 0.15703 0.8251 0.0
H1509 H 0.97839 0.2356 0.81846 0.0
H1510 H 0.88114 0.08297 0.81351 0.0
H1511 H 0.9859 0.16671 0.78749 0.0
C1512 C 0.15511 0.39202 0.26904 0.0
C1513 C 0.1051 0.41146 0.28129 0.0
C1514 C 0.14797 0.40903 0.27933 0.0
C1515 C 0.07 0.39753 0.27272 0.0
C1516 C 0.11807 0.37409 0.26081 0.0
C1517 C 0.07659 0.37926 0.26252 0.0
N1518 N 0.19738 0.39102 0.2673 0.0
C1519 C 0.20475 0.37258 0.25755 0.0
C1520 C 0.12417 0.35122 0.25126 0.0
C1521 C 0.1677 0.35104 0.24957 0.0
Gd1522 Gd 0.30042 0.33571 0.29388 0.0
Gd1523 Gd 0.25505 0.42667 0.28169 0.0
N1524 N 0.1822 0.4216 0.28755 0.0
C1525 C 0.09886 0.42792 0.2918 0.0
C1526 C 0.17623 0.43708 0.29787 0.0
C1527 C 0.13443 0.4404 0.30016 0.0
H1528 H 0.20445 0.44873 0.30423 0.0
H1529 H 0.12999 0.45319 0.3083 0.0
H1530 H 0.3707 0.33678 0.27275 0.0
H1531 H 0.23862 0.37383 0.25573 0.0
H1532 H 0.45888 0.37059 0.26881 0.0
H1533 H 0.06648 0.43052 0.29358 0.0
H1534 H 0.03739 0.40039 0.27393 0.0
H1535 H 0.29006 0.34752 0.32192 0.0
H1536 H 0.09587 0.33211 0.24517 0.0
H1537 H 0.17278 0.33447 0.24207 0.0
H1538 H 0.53706 0.44433 0.30396 0.0
H1539 H 0.04962 0.37063 0.25602 0.0
H1540 H 0.43471 0.43132 0.33524 0.0
H1541 H 0.34495 0.39217 0.3376 0.0
N1542 N 0.34784 0.36887 0.31007 0.0
C1543 C 0.39704 0.38887 0.30855 0.0
C1544 C 0.32896 0.36744 0.32048 0.0
C1545 C 0.41075 0.41338 0.32813 0.0
C1546 C 0.3601 0.39112 0.32955 0.0
C1547 C 0.42981 0.4116 0.31758 0.0
H1548 H 0.5061 0.44977 0.32264 0.0
N1549 N 0.38246 0.3674 0.28909 0.0
C1550 C 0.41471 0.38758 0.29782 0.0
C1551 C 0.48133 0.40126 0.28547 0.0
C1552 C 0.46527 0.40644 0.29613 0.0
C1553 C 0.39733 0.35902 0.27899 0.0
C1554 C 0.44708 0.37666 0.27692 0.0
O1555 O 0.19183 0.34872 0.28349 0.0
O1556 O 0.21721 0.29733 0.29165 0.0
O1557 O 0.29986 0.27054 0.28721 0.0
O1558 O 0.29812 0.2807 0.30516 0.0
O1559 O 0.26342 0.41913 0.30096 0.0
O1560 O 0.24476 0.33959 0.3046 0.0
O1561 O 0.34844 0.42094 0.29573 0.0
O1562 O 0.33312 0.44821 0.27947 0.0
O1563 O 0.27026 0.49966 0.28791 0.0
O1564 O 0.26978 0.48509 0.27012 0.0
O1565 O 0.28034 0.33 0.27558 0.0
O1566 O 0.30092 0.40669 0.26932 0.0
C1567 C 0.18322 0.3059 0.28736 0.0
C1568 C 0.24202 0.37854 0.30724 0.0
C1569 C 0.25635 0.19893 0.29855 0.0
C1570 C 0.22598 0.11134 0.29568 0.0
C1571 C 0.18206 0.13804 0.30795 0.0
C1572 C 0.21615 0.18686 0.30567 0.0
C1573 C 0.18701 0.10055 0.30304 0.0
C1574 C 0.26094 0.16078 0.29344 0.0
C1575 C 0.29487 0.25095 0.29715 0.0
C1576 C 0.49799 0.42912 0.30513 0.0
C1577 C 0.48035 0.43206 0.31579 0.0
H1578 H 0.51989 0.41503 0.28384 0.0
C1579 C 0.36108 0.45581 0.28811 0.0
C1580 C 0.30089 0.36448 0.26803 0.0
C1581 C 0.25296 0.54953 0.27447 0.0
C1582 C 0.21705 0.60344 0.27764 0.0
C1583 C 0.24719 0.59802 0.25911 0.0
C1584 C 0.26034 0.5648 0.26313 0.0
C1585 C 0.22599 0.61711 0.26624 0.0
C1586 C 0.23132 0.5696 0.2819 0.0
C1587 C 0.27316 0.51653 0.27772 0.0
H1588 H 0.15182 0.12921 0.31362 0.0
H1589 H 0.21148 0.2152 0.30968 0.0
H1590 H 0.16028 0.06282 0.305 0.0
H1591 H 0.2917 0.16943 0.28794 0.0
H1592 H 0.25388 0.60941 0.25037 0.0
H1593 H 0.27759 0.55169 0.25726 0.0
H1594 H 0.21667 0.6433 0.26278 0.0
H1595 H 0.22561 0.55915 0.29071 0.0
C1596 C 0.71716 0.80379 0.26908 0.0
C1597 C 0.69616 0.73486 0.28152 0.0
C1598 C 0.70415 0.78252 0.27975 0.0
C1599 C 0.69966 0.70847 0.27242 0.0
C1600 C 0.72524 0.7794 0.2602 0.0
C1601 C 0.71303 0.73021 0.26176 0.0
N1602 N 0.72418 0.84957 0.26759 0.0
C1603 C 0.74556 0.87579 0.25809 0.0
C1604 C 0.74657 0.80624 0.25028 0.0
C1605 C 0.75768 0.85469 0.24932 0.0
Gd1606 Gd 0.76254 1.0059 0.29397 0.0
Gd1607 Gd 0.68599 0.87075 0.2813 0.0
N1608 N 0.69792 0.80798 0.28823 0.0
C1609 C 0.68185 0.71393 0.29221 0.0
C1610 C 0.68303 0.7873 0.29866 0.0
C1611 C 0.6747 0.74003 0.30076 0.0
H1612 H 0.67301 0.80475 0.3051 0.0
H1613 H 0.65976 0.72234 0.30874 0.0
H1614 H 0.71236 0.03865 0.27255 0.0
H1615 H 0.75508 0.91331 0.25738 0.0
H1616 H 0.67693 0.09167 0.27003 0.0
H1617 H 0.67434 0.67694 0.29384 0.0
H1618 H 0.69167 0.67101 0.2735 0.0
H1619 H 0.76351 0.98712 0.32213 0.0
H1620 H 0.75815 0.79241 0.24349 0.0
H1621 H 0.77551 0.87571 0.24183 0.0
H1622 H 0.65122 0.12799 0.30776 0.0
H1623 H 0.71371 0.70805 0.25493 0.0
H1624 H 0.68594 0.04943 0.33805 0.0
H1625 H 0.72549 0.99867 0.33901 0.0
N1626 N 0.73529 0.02038 0.31108 0.0
C1627 C 0.71314 0.04798 0.31026 0.0
C1628 C 0.74222 1.00507 0.32133 0.0
C1629 C 0.70005 0.04196 0.33043 0.0
C1630 C 0.72274 0.01366 0.33105 0.0
C1631 C 0.69589 0.06035 0.31999 0.0
H1632 H 0.66121 0.1 0.3264 0.0
N1633 N 0.71848 0.0462 0.29026 0.0
C1634 C 0.70633 0.06288 0.29964 0.0
C1635 C 0.67455 0.10343 0.28786 0.0
C1636 C 0.68361 0.09162 0.29864 0.0
C1637 C 0.70702 0.05525 0.27979 0.0
C1638 C 0.68562 0.08448 0.2784 0.0
O1639 O 0.76708 0.89735 0.28132 0.0
O1640 O 0.80345 0.96302 0.29377 0.0
O1641 O 0.82874 0.06728 0.28655 0.0
O1642 O 0.81389 0.0671 0.30422 0.0
O1643 O 0.68569 0.88505 0.3005 0.0
O1644 O 0.76275 0.94788 0.30461 0.0
O1645 O 0.67655 0.96666 0.29381 0.0
O1646 O 0.655 0.91897 0.27809 0.0
O1647 O 0.61553 0.80831 0.28711 0.0
O1648 O 0.634 0.8182 0.26925 0.0
O1649 O 0.77444 0.99868 0.27568 0.0
O1650 O 0.7036 0.93434 0.26834 0.0
C1651 C 0.80493 0.92979 0.28714 0.0
C1652 C 0.72443 0.90605 0.30728 0.0
C1653 C 0.89692 0.09853 0.29931 0.0
C1654 C 0.98666 0.14675 0.29737 0.0
C1655 C 0.94973 0.08252 0.3115 0.0
C1656 C 0.90311 0.07197 0.30809 0.0
C1657 C 0.99112 0.11949 0.30619 0.0
C1658 C 0.93919 0.13637 0.29396 0.0
C1659 C 0.84639 0.08754 0.29631 0.0
C1660 C 0.66863 0.10584 0.30838 0.0
C1661 C 0.67424 0.08981 0.319 0.0
H1662 H 0.65724 0.12548 0.28675 0.0
C1663 C 0.64306 0.93837 0.28627 0.0
C1664 C 0.74293 0.97949 0.26747 0.0
C1665 C 0.55898 0.74223 0.2742 0.0
C1666 C 0.4963 0.65544 0.27764 0.0
C1667 C 0.50017 0.69381 0.25958 0.0
C1668 C 0.5405 0.73735 0.26319 0.0
C1669 C 0.47832 0.65336 0.2667 0.0
C1670 C 0.53674 0.70051 0.28149 0.0
C1671 C 0.60527 0.78874 0.27706 0.0
H1672 H 0.9538 0.06206 0.31834 0.0
H1673 H 0.87175 0.04283 0.31241 0.0
H1674 H 0.02699 0.12757 0.30916 0.0
H1675 H 0.93525 0.15768 0.28728 0.0
H1676 H 0.48622 0.69112 0.25111 0.0
H1677 H 0.55724 0.76763 0.25729 0.0
H1678 H 0.4476 0.61965 0.26355 0.0
H1679 H 0.55179 0.7025 0.28983 0.0
C1680 C 0.29768 0.95258 0.27045 0.0
C1681 C 0.35692 1.00254 0.2848 0.0
C1682 C 0.3153 0.95821 0.28148 0.0
C1683 C 0.38038 0.04044 0.27698 0.0
C1684 C 0.3187 0.99187 0.26286 0.0
C1685 C 0.36201 0.03472 0.26603 0.0
N1686 N 0.25949 0.90858 0.26715 0.0
C1687 C 0.24088 0.90105 0.25648 0.0
C1688 C 0.29534 0.98598 0.25239 0.0
C1689 C 0.25722 0.9403 0.24907 0.0
Gd1690 Gd 0.10524 0.81086 0.29381 0.0
Gd1691 Gd 0.23293 0.84672 0.28041 0.0
N1692 N 0.29349 0.91979 0.28876 0.0
C1693 C 0.37596 1.00637 0.29563 0.0
C1694 C 0.31487 0.92216 0.29899 0.0
C1695 C 0.35533 0.96563 0.30267 0.0
H1696 H 0.30325 0.89012 0.30416 0.0
H1697 H 0.37203 0.96688 0.31074 0.0
H1698 H 0.0344 0.73668 0.27313 0.0
H1699 H 0.21215 0.86534 0.25385 0.0
H1700 H 0.98055 0.64811 0.26991 0.0
H1701 H 0.40812 0.03973 0.29842 0.0
H1702 H 0.41375 0.07385 0.2792 0.0
H1703 H 0.12292 0.82771 0.32172 0.0
H1704 H 0.30454 0.01607 0.24681 0.0
H1705 H 0.24033 0.93546 0.24086 0.0
H1706 H 0.96589 0.57769 0.30665 0.0
H1707 H 0.3839 0.06302 0.26011 0.0
H1708 H 0.04509 0.68761 0.33762 0.0
H1709 H 0.09754 0.77814 0.33887 0.0
N1710 N 0.08589 0.76676 0.31067 0.0
C1711 C 0.0545 0.71778 0.30975 0.0
C1712 C 0.10132 0.78838 0.32098 0.0
C1713 C 0.05634 0.70942 0.32998 0.0
C1714 C 0.08645 0.76022 0.33076 0.0
C1715 C 0.03978 0.68758 0.31938 0.0
H1716 H 0.99681 0.61298 0.32544 0.0
N1717 N 0.05 0.72843 0.29006 0.0
C1718 C 0.03637 0.69798 0.29914 0.0
C1719 C 0.98504 0.62906 0.28717 0.0
C1720 C 1.00393 0.64732 0.29791 0.0
C1721 C 0.02854 0.71156 0.27984 0.0
C1722 C 0.99674 0.66149 0.27813 0.0
O1723 O 0.20538 0.9005 0.27765 0.0
O1724 O 0.16113 0.89202 0.29357 0.0
O1725 O 0.04412 0.82274 0.28788 0.0
O1726 O 0.06516 0.82697 0.30556 0.0
O1727 O 0.22134 0.83497 0.29985 0.0
O1728 O 0.16983 0.86437 0.30365 0.0
O1729 O 0.13569 0.75664 0.29544 0.0
O1730 O 0.17701 0.76792 0.27896 0.0
O1731 O 0.293 0.83424 0.28549 0.0
O1732 O 0.27723 0.83563 0.26795 0.0
O1733 O 0.11062 0.82308 0.27498 0.0
O1734 O 0.16612 0.80143 0.26827 0.0
C1735 C 0.18976 0.91901 0.28537 0.0
C1736 C 0.20518 0.85699 0.30676 0.0
C1737 C 1.0006 0.84374 0.30261 0.0
C1738 C 0.95027 0.88234 0.30078 0.0
C1739 C 0.96404 0.85797 0.31922 0.0
C1740 C 0.99226 0.84037 0.31434 0.0
C1741 C 0.94333 0.87894 0.31252 0.0
C1742 C 0.97888 0.86432 0.29576 0.0
C1743 C 0.03729 0.83167 0.29829 0.0
C1744 C 0.99062 0.61679 0.30744 0.0
C1745 C 1.00826 0.63689 0.31814 0.0
H1746 H 0.96007 0.5903 0.28586 0.0
C1747 C 0.15568 0.74132 0.28777 0.0
C1748 C 0.12528 0.80423 0.26704 0.0
C1749 C 0.36215 0.87596 0.27313 0.0
C1750 C 0.45085 0.91594 0.2775 0.0
C1751 C 0.42184 0.94611 0.26218 0.0
C1752 C 0.37363 0.90975 0.26427 0.0
C1753 C 0.46002 0.94934 0.26874 0.0
C1754 C 0.40148 0.87897 0.27971 0.0
C1755 C 0.30937 0.83818 0.27525 0.0
H1756 H 0.95833 0.85548 0.32825 0.0
H1757 H 1.00847 0.82494 0.31987 0.0
H1758 H 0.92083 0.89166 0.31654 0.0
H1759 H 0.98535 0.86771 0.28674 0.0
H1760 H 0.42975 0.97149 0.25528 0.0
H1761 H 0.34532 0.90823 0.25882 0.0
H1762 H 0.4973 0.97679 0.26661 0.0
H1763 H 0.39391 0.85239 0.28633 0.0
C1764 C 0.72071 0.811 0.89473 0.0
C1765 C 0.72637 0.75332 0.88209 0.0
C1766 C 0.72873 0.79868 0.88396 0.0
C1767 C 0.71663 0.72122 0.89114 0.0
C1768 C 0.70614 0.777 0.90355 0.0
C1769 C 0.70742 0.73338 0.90184 0.0
N1770 N 0.72645 0.85609 0.89656 0.0
C1771 C 0.71935 0.86981 0.90694 0.0
C1772 C 0.69117 0.78886 0.91369 0.0
C1773 C 0.69902 0.83569 0.9155 0.0
Gd1774 Gd 0.67808 0.96021 0.86826 0.0
Gd1775 Gd 0.75845 0.90931 0.88159 0.0
N1776 N 0.73954 0.83125 0.8754 0.0
C1777 C 0.73689 0.74282 0.87137 0.0
C1778 C 0.75156 0.82183 0.86498 0.0
C1779 C 0.75045 0.7776 0.86286 0.0
H1780 H 0.76579 0.84944 0.85851 0.0
H1781 H 0.76268 0.7712 0.85488 0.0
H1782 H 0.73043 0.04538 0.88966 0.0
H1783 H 0.72995 0.90689 0.90873 0.0
H1784 H 0.76087 0.13294 0.89192 0.0
H1785 H 0.7367 0.70888 0.8697 0.0
H1786 H 0.71696 0.68723 0.89 0.0
H1787 H 0.6766 0.93989 0.8402 0.0
H1788 H 0.672 0.76308 0.9202 0.0
H1789 H 0.69006 0.84561 0.92354 0.0
H1790 H 0.78774 0.19313 0.85407 0.0
H1791 H 0.70348 0.70934 0.9087 0.0
H1792 H 0.7578 0.07913 0.82423 0.0
H1793 H 0.71957 0.98884 0.82359 0.0
N1794 N 0.70422 1.00157 0.85113 0.0
C1795 C 0.72669 0.05135 0.85188 0.0
C1796 C 0.69812 0.9791 0.84096 0.0
C1797 C 0.74225 0.0578 0.83182 0.0
C1798 C 0.71988 1.00686 0.83133 0.0
C1799 C 0.74474 0.08062 0.84213 0.0
H1800 H 0.77964 0.15463 0.83557 0.0
N1801 N 0.72178 0.04497 0.87194 0.0
C1802 C 0.73338 0.07338 0.86248 0.0
C1803 C 0.76335 0.14606 0.87406 0.0
C1804 C 0.75558 0.12481 0.86334 0.0
C1805 C 0.73355 0.06626 0.88234 0.0
C1806 C 0.75252 0.11663 0.8836 0.0
O1807 O 0.67628 0.85529 0.88239 0.0
O1808 O 0.64233 0.87684 0.86769 0.0
O1809 O 0.60704 0.94581 0.87511 0.0
O1810 O 0.62928 0.97541 0.85853 0.0
O1811 O 0.75982 0.92179 0.86224 0.0
O1812 O 0.68171 0.90382 0.85766 0.0
O1813 O 0.76368 1.00783 0.86758 0.0
O1814 O 0.79091 0.98946 0.88365 0.0
O1815 O 0.82629 0.91367 0.87524 0.0
O1816 O 0.81436 0.9144 0.89333 0.0
O1817 O 0.66532 0.94067 0.88657 0.0
O1818 O 0.73941 0.95698 0.89371 0.0
C1819 C 0.64028 0.84478 0.87524 0.0
C1820 C 0.72226 0.90415 0.8551 0.0
C1821 C 0.54368 0.92831 0.86145 0.0
C1822 C 0.4544 0.89179 0.86325 0.0
C1823 C 0.4907 0.89276 0.84509 0.0
C1824 C 0.53712 0.91548 0.84993 0.0
C1825 C 0.44981 0.88133 0.85164 0.0
C1826 C 0.50178 0.91622 0.86815 0.0
C1827 C 0.59434 0.95897 0.8659 0.0
C1828 C 0.77075 0.15361 0.85354 0.0
C1829 C 0.76611 0.13168 0.843 0.0
H1830 H 0.77976 0.18536 0.87505 0.0
C1831 C 0.799 0.01766 0.87498 0.0
C1832 C 0.69677 0.95641 0.89482 0.0
C1833 C 0.88918 0.91404 0.88772 0.0
C1834 C 0.94986 0.8868 0.88489 0.0
C1835 C 0.95721 0.93902 0.90077 0.0
C1836 C 0.91506 0.93945 0.8974 0.0
C1837 C 0.97435 0.91295 0.89463 0.0
C1838 C 0.90693 0.88756 0.88135 0.0
C1839 C 0.84148 0.91193 0.88536 0.0
H1840 H 0.48641 0.88429 0.83617 0.0
H1841 H 0.56809 0.92419 0.84451 0.0
H1842 H 0.41414 0.86407 0.8476 0.0
H1843 H 0.50599 0.92589 0.87702 0.0
H1844 H 0.97651 0.95865 0.9083 0.0
H1845 H 0.90227 0.95941 0.90249 0.0
H1846 H 1.00703 0.91298 0.89754 0.0
H1847 H 0.88696 0.8668 0.87398 0.0
C1848 C 0.28695 0.95309 0.8947 0.0
C1849 C 0.34332 0.01584 0.88174 0.0
C1850 C 0.29801 0.97327 0.8839 0.0
C1851 C 0.37611 0.03909 0.89065 0.0
C1852 C 0.32167 0.97363 0.90337 0.0
C1853 C 0.36491 0.01853 0.90146 0.0
N1854 N 0.24221 0.91322 0.8967 0.0
C1855 C 0.23006 0.89215 0.90712 0.0
C1856 C 0.31109 0.94812 0.91364 0.0
C1857 C 0.26503 0.90797 0.9156 0.0
Gd1858 Gd 0.14242 0.75705 0.8699 0.0
Gd1859 Gd 0.18784 0.89016 0.8817 0.0
N1860 N 0.26508 0.95043 0.87548 0.0
C1861 C 0.35389 0.03426 0.87074 0.0
C1862 C 0.27454 0.96913 0.8648 0.0
C1863 C 0.3193 1.01072 0.86223 0.0
H1864 H 0.24698 0.954 0.85834 0.0
H1865 H 0.32637 0.02558 0.85378 0.0
H1866 H 0.07255 0.69112 0.89136 0.0
H1867 H 0.19379 0.86321 0.90909 0.0
H1868 H 0.98434 0.64174 0.8959 0.0
H1869 H 0.38827 0.06696 0.86876 0.0
H1870 H 0.41012 0.0731 0.88929 0.0
H1871 H 0.15399 0.76108 0.84172 0.0
H1872 H 0.3378 0.95689 0.92008 0.0
H1873 H 0.25641 0.88947 0.92368 0.0
H1874 H 0.90585 0.62714 0.86027 0.0
H1875 H 0.38936 0.03892 0.90826 0.0
H1876 H 1.00943 0.68671 0.82773 0.0
H1877 H 0.0995 0.72913 0.82528 0.0
N1878 N 0.09544 0.73496 0.85352 0.0
C1879 C 0.04611 0.70789 0.8552 0.0
C1880 C 0.11482 0.74323 0.84293 0.0
C1881 C 0.03316 0.70036 0.83505 0.0
C1882 C 0.08397 0.72525 0.83357 0.0
C1883 C 1.0136 0.69093 0.84597 0.0
H1884 H 0.93731 0.65017 0.84093 0.0
N1885 N 0.06059 0.70876 0.87495 0.0
C1886 C 0.02822 0.69455 0.8662 0.0
C1887 C 0.96156 0.64741 0.87908 0.0
C1888 C 0.97759 0.66434 0.8681 0.0
C1889 C 0.04587 0.68752 0.88525 0.0
C1890 C 0.99602 0.65783 0.88762 0.0
O1891 O 0.24624 0.86699 0.8824 0.0
O1892 O 0.22504 0.80663 0.86881 0.0
O1893 O 0.16139 0.70468 0.87732 0.0
O1894 O 0.13069 0.69335 0.86064 0.0
O1895 O 0.17559 0.87514 0.8624 0.0
O1896 O 0.19422 0.81483 0.85818 0.0
O1897 O 0.09299 0.79275 0.86822 0.0
O1898 O 0.10871 0.83724 0.88427 0.0
O1899 O 0.18005 0.95097 0.87477 0.0
O1900 O 0.17494 0.93816 0.89258 0.0
O1901 O 0.16204 0.77059 0.88827 0.0
O1902 O 0.13999 0.82588 0.89414 0.0
C1903 C 0.25712 0.83994 0.87582 0.0
C1904 C 0.19324 0.85458 0.8554 0.0
C1905 C 0.18671 0.66605 0.86359 0.0
C1906 C 0.22714 0.61707 0.86487 0.0
C1907 C 0.23298 0.6618 0.84766 0.0
C1908 C 0.20486 0.6797 0.85255 0.0
C1909 C 0.24358 0.63029 0.8537 0.0
C1910 C 0.19903 0.63574 0.86983 0.0
C1911 C 0.15089 0.67901 0.86807 0.0
C1912 C 0.94496 0.64999 0.85895 0.0
C1913 C 0.9629 0.6631 0.84792 0.0
H1914 H 0.92295 0.62385 0.88088 0.0
C1915 C 0.07983 0.81447 0.87587 0.0
C1916 C 0.14232 0.78526 0.89586 0.0
C1917 C 0.21588 0.02228 0.88685 0.0
C1918 C 0.25126 0.11125 0.8833 0.0
C1919 C 0.28502 0.08283 0.89797 0.0
C1920 C 0.24969 0.03447 0.89575 0.0
C1921 C 0.28611 0.12077 0.89176 0.0
C1922 C 0.21615 0.0615 0.88072 0.0
C1923 C 0.17973 0.96888 0.88465 0.0
H1924 H 0.24599 0.67176 0.83909 0.0
H1925 H 0.19648 0.70342 0.84756 0.0
H1926 H 0.26405 0.61559 0.84952 0.0
H1927 H 0.1859 0.6261 0.87841 0.0
H1928 H 0.31084 0.09105 0.9048 0.0
H1929 H 0.2486 1.0066 0.90124 0.0
H1930 H 0.31256 0.15819 0.89407 0.0
H1931 H 0.1885 0.05352 0.87434 0.0
C1932 C 0.13149 0.36327 0.89396 0.0
C1933 C 0.06713 0.3478 0.88058 0.0
C1934 C 0.11261 0.3515 0.88311 0.0
C1935 C 0.04118 0.35599 0.88909 0.0
C1936 C 0.10764 0.3752 0.90231 0.0
C1937 C 0.06122 0.36938 0.89992 0.0
N1938 N 0.17382 0.3638 0.89633 0.0
C1939 C 0.1923 0.37249 0.90692 0.0
C1940 C 0.13189 0.3926 0.91268 0.0
C1941 C 0.17358 0.38988 0.91514 0.0
Gd1942 Gd 0.34088 0.42399 0.86877 0.0
Gd1943 Gd 0.20582 0.33847 0.8821 0.0
N1944 N 0.13851 0.34324 0.8751 0.0
C1945 C 0.0482 0.33414 0.86969 0.0
C1946 C 0.11936 0.32828 0.86454 0.0
C1947 C 0.07407 0.32359 0.8617 0.0
H1948 H 0.13716 0.31712 0.85843 0.0
H1949 H 0.05824 0.31021 0.85347 0.0
H1950 H 0.37646 0.37374 0.8894 0.0
H1951 H 0.21973 0.36385 0.90903 0.0
H1952 H 0.42703 0.33477 0.89109 0.0
H1953 H 1.01302 0.33022 0.86745 0.0
H1954 H 1.00553 0.35199 0.88739 0.0
H1955 H 0.32208 0.43031 0.84119 0.0
H1956 H 0.12029 0.40897 0.91889 0.0
H1957 H 0.19046 0.40004 0.92339 0.0
H1958 H 0.46452 0.31687 0.85279 0.0
H1959 H 0.03946 0.3737 0.90634 0.0
H1960 H 0.3924 0.36462 0.82339 0.0
H1961 H 0.33943 0.40239 0.82348 0.0
N1962 N 0.35659 0.40083 0.85136 0.0
C1963 C 0.38548 0.38008 0.85165 0.0
C1964 C 0.34161 0.41037 0.84139 0.0
C1965 C 0.38276 0.37479 0.83131 0.0
C1966 C 0.35328 0.39634 0.83126 0.0
C1967 C 0.39936 0.36649 0.84159 0.0
H1968 H 0.43976 0.33394 0.83443 0.0
N1969 N 0.38383 0.38196 0.87166 0.0
C1970 C 0.40001 0.37093 0.86206 0.0
C1971 C 0.43863 0.33519 0.87317 0.0
C1972 C 0.42788 0.3472 0.86258 0.0
C1973 C 0.39258 0.36863 0.88196 0.0
C1974 C 0.42035 0.3454 0.88289 0.0
O1975 O 0.2194 0.41542 0.88109 0.0
O1976 O 0.29859 0.46171 0.87413 0.0
O1977 O 0.41306 0.48554 0.87413 0.0
O1978 O 0.38123 0.48496 0.85765 0.0
O1979 O 0.22074 0.3423 0.86285 0.0
O1980 O 0.27821 0.42227 0.85981 0.0
O1981 O 0.30348 0.33823 0.86778 0.0
O1982 O 0.26781 0.32567 0.88454 0.0
O1983 O 0.15137 0.26401 0.87599 0.0
O1984 O 0.16471 0.28001 0.89372 0.0
O1985 O 0.3428 0.43591 0.88722 0.0
O1986 O 0.27351 0.3693 0.89503 0.0
C1987 C 0.25756 0.45746 0.87823 0.0
C1988 C 0.2391 0.38259 0.85659 0.0
C1989 C 0.46009 0.55483 0.86114 0.0
C1990 C 0.51482 0.64349 0.86275 0.0
C1991 C 0.51413 0.60048 0.84566 0.0
C1992 C 0.47818 0.55636 0.85025 0.0
C1993 C 0.53212 0.64375 0.85182 0.0
C1994 C 0.47901 0.59859 0.86752 0.0
C1995 C 0.41648 0.50912 0.86481 0.0
C1996 C 0.4428 0.33482 0.85255 0.0
C1997 C 0.42859 0.34443 0.84209 0.0
H1998 H 0.45979 0.31677 0.87392 0.0
C1999 C 0.2802 0.30792 0.8762 0.0
C2000 C 0.31942 0.40847 0.89586 0.0
C2001 C 0.08397 0.21658 0.88934 0.0
C2002 C 0.9955 0.16086 0.88566 0.0
C2003 C 0.02664 0.17677 0.90486 0.0
C2004 C 0.07382 0.20772 0.90096 0.0
C2005 C 0.98801 0.15359 0.89733 0.0
C2006 C 0.04411 0.19238 0.88156 0.0
C2007 C 0.13722 0.24779 0.88621 0.0
H2008 H 0.5275 0.60131 0.83721 0.0
H2009 H 0.46352 0.52341 0.84515 0.0
H2010 H 0.55969 0.67776 0.84803 0.0
H2011 H 0.46444 0.59812 0.87583 0.0
H2012 H 0.02005 0.1703 0.91382 0.0
H2013 H 0.10285 0.22416 0.90718 0.0
H2014 H 0.95172 0.12924 0.90067 0.0
H2015 H 0.05067 0.1978 0.87257 0.0
C2016 C 0.71609 0.70543 0.68502 0.0
C2017 C 0.64183 0.67232 0.69634 0.0
C2018 C 0.69342 0.69725 0.69559 0.0
C2019 C 0.6135 0.65756 0.68645 0.0
C2020 C 0.6874 0.68783 0.67516 0.0
C2021 C 0.63617 0.66486 0.67592 0.0
N2022 N 0.76594 0.72854 0.6844 0.0
C2023 C 0.78915 0.73554 0.6743 0.0
C2024 C 0.71101 0.69219 0.66486 0.0
C2025 C 0.76205 0.71512 0.66453 0.0
Gd2026 Gd 0.85691 0.67322 0.71527 0.0
Gd2027 Gd 0.80623 0.75484 0.70159 0.0
N2028 N 0.72156 0.70953 0.7051 0.0
C2029 C 0.62003 0.66104 0.70702 0.0
C2030 C 0.70021 0.69566 0.71546 0.0
C2031 C 0.64935 0.67209 0.71661 0.0
H2032 H 0.72194 0.70042 0.72281 0.0
H2033 H 0.63278 0.66146 0.72488 0.0
H2034 H 0.91285 0.66315 0.69183 0.0
H2035 H 0.82846 0.75704 0.67373 0.0
H2036 H 0.98631 0.65869 0.68751 0.0
H2037 H 0.58052 0.64197 0.70794 0.0
H2038 H 0.57384 0.63878 0.68689 0.0
H2039 H 0.86274 0.69777 0.74284 0.0
H2040 H 0.69018 0.67738 0.65716 0.0
H2041 H 0.78073 0.71677 0.6568 0.0
H2042 H 0.06927 0.6868 0.72249 0.0
H2043 H 0.61363 0.65166 0.6684 0.0
H2044 H 0.99596 0.71467 0.75529 0.0
H2045 H 0.92003 0.71568 0.75849 0.0
N2046 N 0.91048 0.69613 0.73043 0.0
C2047 C 0.95301 0.69647 0.72838 0.0
C2048 C 0.89794 0.70185 0.74109 0.0
C2049 C 0.97284 0.70941 0.74818 0.0
C2050 C 0.92972 0.71036 0.75006 0.0
C2051 C 0.98451 0.70112 0.73729 0.0
H2052 H 0.04767 0.69425 0.7416 0.0
N2053 N 0.93272 0.68518 0.70895 0.0
C2054 C 0.96444 0.69073 0.71736 0.0
C2055 C 1.01604 0.67886 0.70412 0.0
C2056 C 1.00704 0.688 0.71511 0.0
C2057 C 0.94031 0.67388 0.69827 0.0
C2058 C 0.98192 0.67062 0.69574 0.0
O2059 O 0.75967 0.66903 0.70128 0.0
O2060 O 0.78035 0.6535 0.71823 0.0
O2061 O 0.84607 0.60259 0.70867 0.0
O2062 O 0.83356 0.61032 0.72613 0.0
O2063 O 0.82509 0.77092 0.71975 0.0
O2064 O 0.8165 0.70028 0.72772 0.0
O2065 O 0.91396 0.7537 0.7162 0.0
O2066 O 0.88957 0.79035 0.7025 0.0
O2067 O 0.81554 0.82415 0.70839 0.0
O2068 O 0.79458 0.80432 0.69117 0.0
O2069 O 0.84534 0.6746 0.6958 0.0
O2070 O 0.86461 0.75316 0.69151 0.0
C2071 C 0.75104 0.6384 0.70971 0.0
C2072 C 0.81451 0.74187 0.72835 0.0
C2073 C 0.8645 0.5559 0.72238 0.0
C2074 C 0.89781 0.49966 0.71957 0.0
C2075 C 0.89408 0.52885 0.73833 0.0
C2076 C 0.8742 0.55613 0.73399 0.0
C2077 C 0.90557 0.50095 0.73126 0.0
C2078 C 0.87642 0.52698 0.71508 0.0
C2079 C 0.83813 0.58265 0.71863 0.0
C2080 C 0.03737 0.6906 0.724 0.0
C2081 C 0.0255 0.69604 0.73502 0.0
H2082 H 0.04775 0.67532 0.70215 0.0
C2083 C 0.9222 0.79122 0.70977 0.0
C2084 C 0.86526 0.71318 0.68893 0.0
C2085 C 0.84181 0.88949 0.69481 0.0
C2086 C 0.88265 0.97909 0.69717 0.0
C2087 C 0.88653 0.94387 0.67922 0.0
C2088 C 0.85935 0.89692 0.68364 0.0
C2089 C 0.89784 0.98448 0.68587 0.0
C2090 C 0.85359 0.93114 0.70162 0.0
C2091 C 0.80773 0.83843 0.69871 0.0
H2092 H 0.90029 0.52902 0.74732 0.0
H2093 H 0.86546 0.57676 0.73993 0.0
H2094 H 0.9205 0.47975 0.735 0.0
H2095 H 0.86913 0.52564 0.70612 0.0
H2096 H 0.89859 0.94882 0.67053 0.0
H2097 H 0.85111 0.86632 0.67813 0.0
H2098 H 0.91846 0.02057 0.68211 0.0
H2099 H 0.84023 0.92634 0.71021 0.0
C2100 C 0.38828 0.04226 0.68787 0.0
C2101 C 0.4132 0.99916 0.70085 0.0
C2102 C 0.39195 0.02857 0.6988 0.0
C2103 C 0.43183 0.98479 0.69177 0.0
C2104 C 0.40356 0.02488 0.67868 0.0
C2105 C 0.42653 0.99715 0.6807 0.0
N2106 N 0.36737 0.07046 0.6862 0.0
C2107 C 0.35697 0.07927 0.67559 0.0
C2108 C 0.39272 0.03356 0.66776 0.0
C2109 C 0.36745 0.05912 0.6663 0.0
Gd2110 Gd 0.4289 0.22458 0.71487 0.0
Gd2111 Gd 0.34182 0.09364 0.70236 0.0
N2112 N 0.3729 0.04248 0.70737 0.0
C2113 C 0.41334 0.98358 0.71191 0.0
C2114 C 0.36808 0.02298 0.71783 0.0
C2115 C 0.38959 0.99459 0.72039 0.0
H2116 H 0.34582 0.0273 0.72401 0.0
H2117 H 0.38669 0.98018 0.72882 0.0
H2118 H 0.44009 0.2901 0.69115 0.0
H2119 H 0.3371 0.0986 0.67432 0.0
H2120 H 0.4242 0.35525 0.68535 0.0
H2121 H 0.42943 0.96102 0.71386 0.0
H2122 H 0.44869 0.9625 0.69318 0.0
H2123 H 0.39714 0.20211 0.74205 0.0
H2124 H 0.40153 0.01871 0.66046 0.0
H2125 H 0.35388 0.06159 0.65816 0.0
H2126 H 0.36985 0.39618 0.71911 0.0
H2127 H 0.43916 0.98403 0.67374 0.0
H2128 H 0.33198 0.28594 0.75104 0.0
H2129 H 0.35422 0.225 0.75587 0.0
N2130 N 0.39532 0.24841 0.72915 0.0
C2131 C 0.38615 0.28505 0.72646 0.0
C2132 C 0.38703 0.22892 0.73974 0.0
C2133 C 0.35317 0.27924 0.74502 0.0
C2134 C 0.3639 0.24265 0.74769 0.0
C2135 C 0.36771 0.30378 0.7346 0.0
H2136 H 0.35846 0.36628 0.73834 0.0
N2137 N 0.40886 0.28157 0.70753 0.0
C2138 C 0.39367 0.30249 0.71541 0.0
C2139 C 0.39599 0.35993 0.70153 0.0
C2140 C 0.38658 0.34202 0.71257 0.0
C2141 C 0.42165 0.30148 0.69698 0.0
C2142 C 0.41413 0.33987 0.69373 0.0
O2143 O 0.42716 0.12716 0.70137 0.0
O2144 O 0.45276 0.1702 0.71777 0.0
O2145 O 0.49994 0.28294 0.70849 0.0
O2146 O 0.48421 0.27645 0.72653 0.0
O2147 O 0.3326 0.1046 0.72074 0.0
O2148 O 0.40967 0.15895 0.72723 0.0
O2149 O 0.34765 0.19595 0.71703 0.0
O2150 O 0.31421 0.14764 0.70146 0.0
O2151 O 0.27207 0.02956 0.70875 0.0
O2152 O 0.28379 0.05196 0.69108 0.0
O2153 O 0.43056 0.21244 0.69547 0.0
O2154 O 0.35161 0.15451 0.69121 0.0
C2155 C 0.46022 0.14764 0.70951 0.0
C2156 C 0.36575 0.11895 0.72871 0.0
C2157 C 0.56269 0.34583 0.72077 0.0
C2158 C 0.62457 0.43355 0.71894 0.0
C2159 C 0.63677 0.38119 0.73212 0.0
C2160 C 0.59191 0.34117 0.72904 0.0
C2161 C 0.65293 0.42681 0.72714 0.0
C2162 C 0.57921 0.39241 0.7156 0.0
C2163 C 0.51385 0.30231 0.71846 0.0
C2164 C 0.37298 0.36414 0.72097 0.0
C2165 C 0.36458 0.34573 0.73196 0.0
H2166 H 0.3912 0.39042 0.69906 0.0
C2167 C 0.31368 0.17665 0.70932 0.0
C2168 C 0.39345 0.19175 0.68819 0.0
C2169 C 0.20648 0.98186 0.69453 0.0
C2170 C 0.1179 0.92873 0.69631 0.0
C2171 C 0.1574 0.93809 0.67818 0.0
C2172 C 0.20257 0.96958 0.68301 0.0
C2173 C 0.11539 0.91794 0.68474 0.0
C2174 C 0.16389 0.96063 0.70129 0.0
C2175 C 0.25403 0.02215 0.69854 0.0
H2176 H 0.65891 0.37698 0.73853 0.0
H2177 H 0.57985 0.30631 0.73319 0.0
H2178 H 0.68762 0.45744 0.72987 0.0
H2179 H 0.55632 0.39697 0.70945 0.0
H2180 H 0.15489 0.92962 0.66927 0.0
H2181 H 0.23451 0.98544 0.67758 0.0
H2182 H 0.08062 0.89327 0.68077 0.0
H2183 H 0.16612 0.97034 0.71013 0.0
C2184 C 0.0534 0.3785 0.68528 0.0
C2185 C 0.09538 0.45537 0.69565 0.0
C2186 C 0.06708 0.40383 0.69553 0.0
C2187 C 0.10874 0.48116 0.6854 0.0
C2188 C 0.06636 0.40436 0.675 0.0
C2189 C 0.0938 0.45579 0.67512 0.0
N2190 N 0.0285 0.3286 0.68535 0.0
C2191 C 1.0181 0.30258 0.67558 0.0
C2192 C 0.05182 0.37758 0.6649 0.0
C2193 C 0.02769 0.32637 0.66526 0.0
Gd2194 Gd 0.87722 0.24 0.71491 0.0
Gd2195 Gd 1.01138 0.29295 0.70313 0.0
N2196 N 0.05129 0.37809 0.70536 0.0
C2197 C 0.10931 0.47951 0.70607 0.0
C2198 C 0.06274 0.40161 0.71549 0.0
C2199 C 0.09318 0.45244 0.71604 0.0
H2200 H 0.04645 0.38177 0.72306 0.0
H2201 H 0.10222 0.47088 0.72412 0.0
H2202 H 0.8277 0.17337 0.69055 0.0
H2203 H 1.00345 0.2635 0.67573 0.0
H2204 H 0.76645 0.08948 0.68566 0.0
H2205 H 0.13154 0.51907 0.70651 0.0
H2206 H 0.13036 0.52081 0.68533 0.0
H2207 H 0.8839 0.24179 0.74249 0.0
H2208 H 0.06016 0.3961 0.65683 0.0
H2209 H 1.01695 0.30448 0.65771 0.0
H2210 H 0.69407 0.01725 0.7211 0.0
H2211 H 0.10425 0.47631 0.6673 0.0
H2212 H 0.79381 0.09768 0.75415 0.0
H2213 H 0.85517 0.18154 0.75815 0.0
N2214 N 0.84732 0.188 0.73003 0.0
C2215 C 0.80913 0.14282 0.72774 0.0
C2216 C 0.86078 0.20357 0.74079 0.0
C2217 C 0.80456 0.12309 0.74738 0.0
C2218 C 0.84198 0.17044 0.74962 0.0
C2219 C 0.78413 0.11009 0.73651 0.0
H2220 H 0.716 0.04358 0.7406 0.0
N2221 N 0.82249 0.16082 0.70827 0.0
C2222 C 0.79516 0.12942 0.7166 0.0
C2223 C 0.74503 0.06817 0.7028 0.0
C2224 C 0.75507 0.08275 0.71407 0.0
C2225 C 0.81071 0.14772 0.69724 0.0
C2226 C 0.77369 0.10054 0.69438 0.0
O2227 O 0.97431 0.34199 0.70256 0.0
O2228 O 0.9232 0.31979 0.71773 0.0
O2229 O 0.81382 0.2417 0.70712 0.0
O2230 O 0.82517 0.24805 0.7253 0.0
O2231 O 1.00562 0.27666 0.72143 0.0
O2232 O 0.94159 0.2851 0.72804 0.0
O2233 O 0.90393 0.18511 0.7165 0.0
O2234 O 0.96508 0.20871 0.70297 0.0
O2235 O 0.06849 0.28316 0.71138 0.0
O2236 O 0.07688 0.30728 0.69418 0.0
O2237 O 0.89383 0.25598 0.69583 0.0
O2238 O 0.95299 0.23563 0.69255 0.0
C2239 C 0.94562 0.34971 0.70946 0.0
C2240 C 0.98598 0.28932 0.7294 0.0
C2241 C 0.75283 0.24936 0.71891 0.0
C2242 C 0.6647 0.22297 0.71735 0.0
C2243 C 0.71869 0.29136 0.7295 0.0
C2244 C 0.75835 0.28568 0.72659 0.0
C2245 C 0.67246 0.26042 0.72497 0.0
C2246 C 0.70555 0.21781 0.71417 0.0
C2247 C 0.79622 0.24314 0.71697 0.0
C2248 C 0.72657 0.05215 0.72285 0.0
C2249 C 0.74021 0.06656 0.73403 0.0
H2250 H 0.71534 0.03213 0.70053 0.0
C2251 C 0.93254 0.17585 0.71008 0.0
C2252 C 0.91593 0.23951 0.68904 0.0
C2253 C 0.10753 0.25523 0.69845 0.0
C2254 C 0.16238 0.22141 0.69917 0.0
C2255 C 0.10135 0.19627 0.68434 0.0
C2256 C 0.08486 0.22628 0.68885 0.0
C2257 C 0.13986 0.19382 0.68946 0.0
C2258 C 0.14622 0.25231 0.7037 0.0
C2259 C 0.09372 0.29158 0.70212 0.0
H2260 H 0.72367 0.31961 0.73544 0.0
H2261 H 0.79371 0.30984 0.7304 0.0
H2262 H 0.64221 0.26542 0.72756 0.0
H2263 H 0.70027 0.18859 0.7085 0.0
H2264 H 0.084 0.17459 0.67689 0.0
H2265 H 0.05476 0.22738 0.68469 0.0
H2266 H 0.15222 0.17028 0.68582 0.0
H2267 H 0.16454 0.27488 0.711 0.0
C2268 C 0.38371 0.04767 0.1453 0.0
C2269 C 0.34841 0.97278 0.13416 0.0
C2270 C 0.37287 0.0244 0.13478 0.0
C2271 C 0.33583 0.94505 0.14412 0.0
C2272 C 0.3685 0.01962 0.15528 0.0
C2273 C 0.34525 0.96834 0.15463 0.0
N2274 N 0.40751 0.09751 0.1458 0.0
C2275 C 0.41733 0.12143 0.15588 0.0
C2276 C 0.37578 0.04395 0.16561 0.0
C2277 C 0.39941 0.09505 0.16583 0.0
Gd2278 Gd 0.35409 0.19341 0.11514 0.0
Gd2279 Gd 0.42906 0.1369 0.12847 0.0
N2280 N 0.38246 0.05194 0.12525 0.0
C2281 C 0.33506 0.95033 0.12355 0.0
C2282 C 0.36614 0.02985 0.115 0.0
C2283 C 0.34322 0.97899 0.11395 0.0
H2284 H 0.36894 0.05095 0.10767 0.0
H2285 H 0.33091 0.96188 0.10577 0.0
H2286 H 0.35298 0.25553 0.13842 0.0
H2287 H 0.43879 0.16086 0.15631 0.0
H2288 H 0.36404 0.33694 0.14233 0.0
H2289 H 0.31635 0.91079 0.12273 0.0
H2290 H 0.31712 0.90538 0.14378 0.0
H2291 H 0.37655 0.19293 0.08785 0.0
H2292 H 0.36288 0.02366 0.17342 0.0
H2293 H 0.4036 0.11445 0.17359 0.0
H2294 H 0.41098 0.41999 0.1072 0.0
H2295 H 0.33375 0.94626 0.16222 0.0
H2296 H 0.44803 0.33857 0.0767 0.0
H2297 H 0.42119 0.25368 0.07305 0.0
N2298 N 0.38854 0.24613 0.10025 0.0
C2299 C 0.39858 0.2926 0.10222 0.0
C2300 C 0.39216 0.23097 0.08974 0.0
C2301 C 0.42725 0.31313 0.08318 0.0
C2302 C 0.41459 0.26485 0.0812 0.0
C2303 C 0.41438 0.32659 0.09341 0.0
H2304 H 0.41867 0.39497 0.08835 0.0
N2305 N 0.38006 0.27283 0.12159 0.0
C2306 C 0.39306 0.30605 0.11309 0.0
C2307 C 0.39052 0.36456 0.12585 0.0
C2308 C 0.399 0.35287 0.11505 0.0
C2309 C 0.36937 0.28329 0.13204 0.0
C2310 C 0.37482 0.32934 0.13431 0.0
O2311 O 0.3428 0.0897 0.12824 0.0
O2312 O 0.32192 0.11432 0.11222 0.0
O2313 O 0.2859 0.19115 0.12105 0.0
O2314 O 0.30297 0.19504 0.10318 0.0
O2315 O 0.44356 0.15686 0.11027 0.0
O2316 O 0.37089 0.14413 0.10298 0.0
O2317 O 0.43688 0.24167 0.11419 0.0
O2318 O 0.46494 0.21997 0.12983 0.0
O2319 O 0.49748 0.14973 0.12057 0.0
O2320 O 0.48105 0.1236 0.13759 0.0
O2321 O 0.34783 0.17777 0.13448 0.0
O2322 O 0.42466 0.19245 0.13925 0.0
C2323 C 0.30934 0.08424 0.12064 0.0
C2324 C 0.41238 0.14232 0.102 0.0
C2325 C 0.22989 0.19964 0.10758 0.0
C2326 C 0.16749 0.22437 0.11052 0.0
C2327 C 0.17394 0.19159 0.09244 0.0
C2328 C 0.21308 0.18708 0.09641 0.0
C2329 C 0.15146 0.2101 0.09939 0.0
C2330 C 0.20666 0.21846 0.11473 0.0
C2331 C 0.27497 0.19787 0.11084 0.0
C2332 C 0.4093 0.38504 0.10601 0.0
C2333 C 0.41574 0.37144 0.09521 0.0
H2334 H 0.39359 0.39977 0.12761 0.0
C2335 C 0.47052 0.25203 0.12194 0.0
C2336 C 0.38393 0.19147 0.14193 0.0
C2337 C 0.56471 0.17716 0.13338 0.0
C2338 C 0.65445 0.21783 0.13137 0.0
C2339 C 0.61813 0.23592 0.14743 0.0
C2340 C 0.57129 0.20356 0.14341 0.0
C2341 C 0.65927 0.24334 0.14145 0.0
C2342 C 0.60669 0.18431 0.12735 0.0
C2343 C 0.51415 0.14051 0.12973 0.0
H2344 H 0.16137 0.18131 0.08385 0.0
H2345 H 0.23028 0.17351 0.09065 0.0
H2346 H 0.12152 0.21388 0.096 0.0
H2347 H 0.21996 0.23 0.12324 0.0
H2348 H 0.6226 0.25519 0.15529 0.0
H2349 H 0.5401 0.19889 0.14827 0.0
H2350 H 0.69518 0.26824 0.14491 0.0
H2351 H 0.60223 0.16375 0.11968 0.0
C2352 C 0.06281 0.38466 0.14144 0.0
C2353 C 0.13175 0.43028 0.12881 0.0
C2354 C 0.08094 0.40123 0.13061 0.0
C2355 C 0.16417 0.44077 0.1379 0.0
C2356 C 0.0952 0.39557 0.15059 0.0
C2357 C 0.14597 0.42332 0.14874 0.0
N2358 N 1.01346 0.35709 0.14297 0.0
C2359 C 0.99405 0.34253 0.15347 0.0
C2360 C 0.07554 0.37825 0.16132 0.0
C2361 C 0.02472 0.35203 0.16276 0.0
Gd2362 Gd 0.92225 0.20542 0.11444 0.0
Gd2363 Gd 0.96644 0.34049 0.12663 0.0
N2364 N 0.04881 0.38897 0.12185 0.0
C2365 C 0.14837 0.44856 0.11795 0.0
C2366 C 0.06435 0.41006 0.11156 0.0
C2367 C 0.11442 0.43923 0.10934 0.0
H2368 H 0.03815 0.40619 0.10527 0.0
H2369 H 0.12672 0.45522 0.10107 0.0
H2370 H 0.87421 0.13663 0.13798 0.0
H2371 H 0.95503 0.32465 0.15476 0.0
H2372 H 0.80491 0.05493 0.14227 0.0
H2373 H 0.18718 0.47123 0.11622 0.0
H2374 H 0.20342 0.46274 0.13666 0.0
H2375 H 0.89697 0.24049 0.0893 0.0
H2376 H 0.0992 0.3856 0.16857 0.0
H2377 H 1.00904 0.3394 0.17101 0.0
H2378 H 0.7158 1.00182 0.1075 0.0
H2379 H 0.17148 0.43191 0.15566 0.0
H2380 H 0.76106 0.12477 0.07834 0.0
H2381 H 0.83107 0.20563 0.0754 0.0
N2382 N 0.86253 0.1796 0.10052 0.0
C2383 C 0.82367 0.13396 0.10234 0.0
C2384 C 0.86624 0.20485 0.09088 0.0
C2385 C 0.78977 0.13786 0.08445 0.0
C2386 C 0.82917 0.18488 0.08286 0.0
C2387 C 0.78741 0.11066 0.09406 0.0
H2388 H 0.72474 0.04046 0.08927 0.0
N2389 N 0.85157 0.13703 0.12105 0.0
C2390 C 0.8188 0.11154 0.11278 0.0
C2391 C 0.77394 0.04389 0.12562 0.0
C2392 C 0.77903 0.06425 0.11488 0.0
C2393 C 0.84671 0.11764 0.1316 0.0
C2394 C 0.80783 0.07084 0.13403 0.0
O2395 O 1.01433 0.30357 0.12861 0.0
O2396 O 1.0004 0.26213 0.11222 0.0
O2397 O 0.93646 0.147 0.12046 0.0
O2398 O 0.9388 0.16287 0.10279 0.0
O2399 O 0.9477 0.32771 0.10819 0.0
O2400 O 0.96601 0.27007 0.10163 0.0
O2401 O 0.85819 0.21963 0.11561 0.0
O2402 O 0.88338 0.29432 0.12475 0.0
O2403 O 0.96525 0.40429 0.11971 0.0
O2404 O 0.96348 0.39351 0.13771 0.0
O2405 O 0.93306 0.22189 0.13362 0.0
O2406 O 0.91127 0.28032 0.13735 0.0
C2407 C 0.02821 0.28303 0.12087 0.0
C2408 C 0.96657 0.31263 0.10042 0.0
C2409 C 0.91234 0.07883 0.10719 0.0
C2410 C 0.87663 0.98951 0.11096 0.0
C2411 C 0.88414 0.01956 0.09175 0.0
C2412 C 0.90451 0.06748 0.09561 0.0
C2413 C 0.87051 0.98119 0.09929 0.0
C2414 C 0.8984 0.03903 0.11498 0.0
C2415 C 0.93905 0.13275 0.1103 0.0
C2416 C 0.74566 0.03891 0.10621 0.0
C2417 C 0.75017 0.06177 0.09582 0.0
H2418 H 0.74398 1.0075 0.12752 0.0
C2419 C 0.8494 0.25302 0.12 0.0
C2420 C 0.91233 0.24071 0.14021 0.0
C2421 C 0.91813 0.42875 0.13069 0.0
C2422 C 0.88252 0.48136 0.12766 0.0
C2423 C 0.83747 0.40534 0.13816 0.0
C2424 C 0.87567 0.39563 0.13662 0.0
C2425 C 0.84082 0.44786 0.13373 0.0
C2426 C 0.92152 0.47188 0.12621 0.0
C2427 C 0.9591 0.41875 0.12957 0.0
H2428 H 0.87929 1.01211 0.08279 0.0
H2429 H 0.91519 0.09602 0.08933 0.0
H2430 H 0.85526 0.94439 0.09593 0.0
H2431 H 0.90446 0.04638 0.12393 0.0
H2432 H 0.8052 0.37988 0.14285 0.0
H2433 H 0.87205 0.36222 0.14015 0.0
H2434 H 0.81094 0.45499 0.13515 0.0
H2435 H 0.95414 0.49781 0.12166 0.0
C2436 C 0.71871 0.71489 0.14256 0.0
C2437 C 0.66512 0.72978 0.13052 0.0
C2438 C 0.69896 0.71334 0.13197 0.0
C2439 C 0.6536 0.75033 0.13972 0.0
C2440 C 0.70721 0.73536 0.15181 0.0
C2441 C 0.67491 0.75349 0.15031 0.0
N2442 N 0.74984 0.69706 0.14375 0.0
C2443 C 0.7681 0.69554 0.15406 0.0
C2444 C 0.72907 0.73752 0.16225 0.0
C2445 C 0.75975 0.71758 0.16335 0.0
Gd2446 Gd 0.901 0.76359 0.11451 0.0
Gd2447 Gd 0.77014 0.67144 0.12714 0.0
N2448 N 0.71269 0.69552 0.12311 0.0
C2449 C 0.64393 0.72502 0.11987 0.0
C2450 C 0.6901 0.68804 0.11293 0.0
C2451 C 0.65599 0.7034 0.11107 0.0
H2452 H 0.69695 0.66864 0.1064 0.0
H2453 H 0.63865 0.69805 0.1029 0.0
H2454 H 0.97096 0.79018 0.13829 0.0
H2455 H 0.78901 0.67733 0.15518 0.0
H2456 H 0.04435 0.78837 0.1442 0.0
H2457 H 0.6177 0.73716 0.1184 0.0
H2458 H 0.62822 0.76386 0.13873 0.0
H2459 H 0.87571 0.71787 0.08825 0.0
H2460 H 0.72219 0.75406 0.16952 0.0
H2461 H 0.77726 0.71945 0.17131 0.0
H2462 H 0.08846 0.72785 0.112 0.0
H2463 H 0.66582 0.76962 0.15731 0.0
H2464 H 0.96965 0.66058 0.08166 0.0
H2465 H 0.90254 0.67328 0.07574 0.0
N2466 N 0.92699 0.72782 0.10117 0.0
C2467 C 0.96731 0.72505 0.10419 0.0
C2468 C 0.90602 0.71317 0.09077 0.0
C2469 C 0.96144 0.68363 0.08676 0.0
C2470 C 0.92159 0.68874 0.0836 0.0
C2471 C 0.98764 0.70578 0.09668 0.0
H2472 H 0.05374 0.70212 0.0934 0.0
N2473 N 0.96444 0.75488 0.12245 0.0
C2474 C 0.98709 0.73993 0.11498 0.0
C2475 C 0.05077 0.75689 0.12867 0.0
C2476 C 0.03064 0.74024 0.11797 0.0
C2477 C 0.98527 0.77323 0.13275 0.0
C2478 C 0.02805 0.77365 0.13607 0.0
O2479 O 0.8012 0.75627 0.12908 0.0
O2480 O 0.84529 0.78637 0.113 0.0
O2481 O 0.96045 0.83614 0.1197 0.0
O2482 O 0.9448 0.81935 0.10212 0.0
O2483 O 0.7831 0.6673 0.10863 0.0
O2484 O 0.83525 0.74439 0.10213 0.0
O2485 O 0.87698 0.6828 0.11244 0.0
O2486 O 0.82356 0.6429 0.12704 0.0
O2487 O 0.70952 0.60417 0.12001 0.0
O2488 O 0.72894 0.60869 0.13777 0.0
O2489 O 0.88791 0.76052 0.13401 0.0
O2490 O 0.83236 0.68003 0.13755 0.0
C2491 C 0.82504 0.79279 0.12183 0.0
C2492 C 0.79422 0.70108 0.10097 0.0
C2493 C 0.02951 0.86525 0.10727 0.0
C2494 C 0.11795 0.91553 0.11156 0.0
C2495 C 0.0901 0.85651 0.09623 0.0
C2496 C 0.04161 0.8436 0.09836 0.0
C2497 C 0.12789 0.89195 0.10277 0.0
C2498 C 0.06838 0.90206 0.11381 0.0
C2499 C 0.97657 0.84911 0.10946 0.0
C2500 C 0.05384 0.72582 0.11005 0.0
C2501 C 0.03277 0.70926 0.09945 0.0
H2502 H 0.08433 0.75787 0.13121 0.0
C2503 C 0.85565 0.64618 0.11951 0.0
C2504 C 0.87025 0.72119 0.14064 0.0
C2505 C 0.65133 0.54309 0.13257 0.0
C2506 C 0.5892 0.45662 0.13216 0.0
C2507 C 0.58204 0.51183 0.14532 0.0
C2508 C 0.62553 0.55093 0.1412 0.0
C2509 C 0.56412 0.46482 0.1409 0.0
C2510 C 0.63269 0.49593 0.12793 0.0
C2511 C 0.70116 0.58111 0.12961 0.0
H2512 H 0.09851 0.83947 0.08932 0.0
H2513 H 1.01357 0.81646 0.09292 0.0
H2514 H 0.1654 0.90258 0.10065 0.0
H2515 H 0.06029 0.92059 0.12046 0.0
H2516 H 0.56266 0.51776 0.15212 0.0
H2517 H 0.63986 0.58686 0.14498 0.0
H2518 H 0.53077 0.43469 0.14434 0.0
H2519 H 0.65303 0.4894 0.12144 0.0
C2520 C 0.81553 0.71009 0.60353 0.0
C2521 C 0.76184 0.7178 0.61698 0.0
C2522 C 0.80655 0.71972 0.61446 0.0
C2523 C 0.72668 0.70576 0.60849 0.0
C2524 C 0.77924 0.69479 0.59518 0.0
C2525 C 0.73586 0.69549 0.5976 0.0
N2526 N 0.85997 0.71545 0.60107 0.0
C2527 C 0.87033 0.70561 0.59062 0.0
C2528 C 0.78871 0.67991 0.58474 0.0
C2529 C 0.83462 0.68637 0.58236 0.0
Gd2530 Gd 0.97302 0.67329 0.62784 0.0
Gd2531 Gd 0.91878 0.75154 0.61493 0.0
N2532 N 0.84257 0.73396 0.62236 0.0
C2533 C 0.75561 0.73266 0.62764 0.0
C2534 C 0.83752 0.75112 0.63258 0.0
C2535 C 0.79427 0.75102 0.63529 0.0
H2536 H 0.86791 0.76893 0.63833 0.0
H2537 H 0.79176 0.76784 0.64301 0.0
H2538 H 0.05827 0.71695 0.60714 0.0
H2539 H 0.90564 0.71179 0.58874 0.0
H2540 H 0.14758 0.75726 0.60542 0.0
H2541 H 0.7224 0.7332 0.62976 0.0
H2542 H 0.69306 0.70624 0.61015 0.0
H2543 H 0.94882 0.66502 0.65579 0.0
H2544 H 0.76153 0.66153 0.57842 0.0
H2545 H 0.84244 0.67645 0.57419 0.0
H2546 H 0.20437 0.7924 0.64365 0.0
H2547 H 0.71009 0.69113 0.59111 0.0
H2548 H 0.08496 0.75013 0.67291 0.0
H2549 H 0.99414 0.70513 0.673 0.0
N2550 N 1.01206 0.69829 0.64531 0.0
C2551 C 0.06194 0.72336 0.64494 0.0
C2552 C 0.98796 0.68866 0.65536 0.0
C2553 C 0.06498 0.73521 0.66512 0.0
C2554 C 1.01384 0.70924 0.66528 0.0
C2555 C 0.08971 0.74151 0.6549 0.0
H2556 H 0.163 0.77995 0.66194 0.0
N2557 N 0.0579 0.71755 0.62493 0.0
C2558 C 0.08544 0.7317 0.63453 0.0
C2559 C 0.1595 0.76527 0.62337 0.0
C2560 C 0.13706 0.75674 0.63396 0.0
C2561 C 0.07968 0.72647 0.61463 0.0
C2562 C 0.13063 0.7501 0.61367 0.0
O2563 O 0.86787 0.66917 0.6135 0.0
O2564 O 0.88967 0.63615 0.62825 0.0
O2565 O 0.96662 0.60733 0.61995 0.0
O2566 O 0.98361 0.62131 0.6376 0.0
O2567 O 0.93262 0.75265 0.63424 0.0
O2568 O 0.91515 0.67465 0.63843 0.0
O2569 O 0.01934 0.7589 0.62794 0.0
O2570 O 0.99805 0.78263 0.61173 0.0
O2571 O 0.92968 0.82339 0.62088 0.0
O2572 O 0.9159 0.80252 0.60317 0.0
O2573 O 0.95631 0.66225 0.60934 0.0
O2574 O 0.9666 0.7348 0.60228 0.0
C2575 C 0.85728 0.63379 0.62078 0.0
C2576 C 0.91483 0.71464 0.64123 0.0
C2577 C 0.93407 0.53853 0.63237 0.0
C2578 C 0.8987 0.44983 0.63033 0.0
C2579 C 0.86951 0.4824 0.64502 0.0
C2580 C 0.90231 0.52997 0.64152 0.0
C2581 C 0.86748 0.44264 0.63945 0.0
C2582 C 0.93206 0.49798 0.62671 0.0
C2583 C 0.97146 0.58963 0.62948 0.0
C2584 C 0.16467 0.77322 0.64393 0.0
C2585 C 0.1411 0.7661 0.65435 0.0
H2586 H 0.19906 0.78419 0.62259 0.0
C2587 C 0.02867 0.79181 0.61995 0.0
C2588 C 0.9701 0.69421 0.60117 0.0
C2589 C 0.91975 0.8797 0.6078 0.0
C2590 C 0.89788 0.94429 0.61099 0.0
C2591 C 0.92264 0.93201 0.59236 0.0
C2592 C 0.92922 0.89434 0.59645 0.0
C2593 C 0.9069 0.9564 0.59949 0.0
C2594 C 0.90395 0.90511 0.61518 0.0
C2595 C 0.91921 0.83331 0.61092 0.0
H2596 H 0.84617 0.47626 0.65224 0.0
H2597 H 0.90349 0.56019 0.64615 0.0
H2598 H 0.84216 0.40595 0.64243 0.0
H2599 H 0.95708 0.50383 0.61984 0.0
H2600 H 0.92947 0.94218 0.58355 0.0
H2601 H 0.94064 0.87567 0.59057 0.0
H2602 H 0.90211 0.98553 0.59597 0.0
H2603 H 0.89585 0.89419 0.62393 0.0
C2604 C 0.37619 0.13525 0.60153 0.0
C2605 C 0.38041 0.08049 0.61537 0.0
C2606 C 0.37613 0.12189 0.61274 0.0
C2607 C 0.37796 0.0493 0.60675 0.0
C2608 C 0.37703 0.10566 0.59281 0.0
C2609 C 0.37388 0.06077 0.5956 0.0
N2610 N 0.37469 0.17677 0.5992 0.0
C2611 C 0.37824 0.1931 0.58839 0.0
C2612 C 0.37978 0.12182 0.58167 0.0
C2613 C 0.38195 0.16633 0.57948 0.0
Gd2614 Gd 0.43758 0.34067 0.62595 0.0
Gd2615 Gd 0.35096 0.20633 0.61445 0.0
N2616 N 0.37348 0.15017 0.62105 0.0
C2617 C 0.38672 0.07153 0.62658 0.0
C2618 C 0.37545 0.13881 0.63209 0.0
C2619 C 0.38589 0.10204 0.63492 0.0
H2620 H 0.36786 0.15629 0.63883 0.0
H2621 H 0.39279 0.09694 0.64352 0.0
H2622 H 0.44219 0.41046 0.60428 0.0
H2623 H 0.37602 0.22532 0.58647 0.0
H2624 H 0.40865 0.46385 0.59907 0.0
H2625 H 0.39239 0.0414 0.62888 0.0
H2626 H 0.37821 0.01571 0.60861 0.0
H2627 H 0.4088 0.33877 0.64385 0.0
H2628 H 0.38044 0.10106 0.5746 0.0
H2629 H 0.3844 0.17897 0.57089 0.0
H2630 H 0.33037 0.4729 0.63304 0.0
H2631 H 0.36744 0.03364 0.58943 0.0
H2632 H 0.33675 0.38498 0.66541 0.0
H2633 H 0.37012 0.33064 0.66902 0.0
N2634 N 0.401 0.35484 0.64165 0.0
C2635 C 0.38264 0.38701 0.63942 0.0
C2636 C 0.39779 0.33434 0.65236 0.0
C2637 C 0.35493 0.37731 0.65862 0.0
C2638 C 0.374 0.34627 0.6607 0.0
C2639 C 0.35914 0.39809 0.64796 0.0
H2640 H 0.3217 0.43807 0.65207 0.0
N2641 N 0.4089 0.39308 0.62037 0.0
C2642 C 0.38681 0.40566 0.62855 0.0
C2643 C 0.37524 0.45733 0.61532 0.0
C2644 C 0.36853 0.43739 0.62617 0.0
C2645 C 0.4189 0.41534 0.61011 0.0
C2646 C 0.40131 0.4469 0.60731 0.0
O2647 O 0.43028 0.22617 0.61323 0.0
O2648 O 0.47572 0.29601 0.62412 0.0
O2649 O 0.50324 0.40805 0.62005 0.0
O2650 O 0.49413 0.38528 0.6378 0.0
O2651 O 0.35508 0.22289 0.63377 0.0
O2652 O 0.43511 0.2817 0.63654 0.0
O2653 O 0.35218 0.3036 0.62729 0.0
O2654 O 0.32481 0.25888 0.61121 0.0
O2655 O 0.28193 0.1483 0.62211 0.0
O2656 O 0.29222 0.15308 0.60388 0.0
O2657 O 0.4453 0.32778 0.60767 0.0
O2658 O 0.36882 0.27031 0.60158 0.0
C2659 C 0.47093 0.25817 0.61827 0.0
C2660 C 0.3947 0.24515 0.64035 0.0
C2661 C 0.56598 0.46156 0.63369 0.0
C2662 C 0.65366 0.51897 0.63223 0.0
C2663 C 0.60669 0.5253 0.64775 0.0
C2664 C 0.56433 0.48509 0.64359 0.0
C2665 C 0.65108 0.54209 0.64214 0.0
C2666 C 0.61075 0.47883 0.62789 0.0
C2667 C 0.5219 0.41644 0.63017 0.0
C2668 C 0.34488 0.44874 0.63472 0.0
C2669 C 0.34011 0.42906 0.64557 0.0
H2670 H 0.36178 0.48194 0.61315 0.0
C2671 C 0.31832 0.28234 0.6194 0.0
C2672 C 0.41124 0.31184 0.59994 0.0
C2673 C 0.21571 0.0845 0.61036 0.0
C2674 C 0.15536 0.99619 0.61191 0.0
C2675 C 0.14375 0.04723 0.59825 0.0
C2676 C 0.18722 0.08813 0.60172 0.0
C2677 C 0.12804 1.00178 0.60326 0.0
C2678 C 0.19948 0.03806 0.61557 0.0
C2679 C 0.26536 0.12757 0.61232 0.0
H2680 H 0.60528 0.54303 0.65544 0.0
H2681 H 0.53031 0.47185 0.6482 0.0
H2682 H 0.68384 0.57283 0.64564 0.0
H2683 H 0.6126 0.45994 0.62042 0.0
H2684 H 0.12252 0.05061 0.59149 0.0
H2685 H 0.19924 0.12269 0.59743 0.0
H2686 H 0.09449 0.97043 0.60024 0.0
H2687 H 0.22193 0.03411 0.62195 0.0
C2688 C 0.95691 0.28879 0.60139 0.0
C2689 C 1.016 0.34977 0.61422 0.0
C2690 C 0.97586 0.30251 0.61225 0.0
C2691 C 0.03682 0.38244 0.60525 0.0
C2692 C 0.9755 0.32236 0.59248 0.0
C2693 C 1.01753 0.36836 0.59442 0.0
N2694 N 0.92134 0.24183 0.59946 0.0
C2695 C 0.9033 0.22583 0.58893 0.0
C2696 C 0.9517 0.3072 0.58194 0.0
C2697 C 0.91621 0.25874 0.58012 0.0
Gd2698 Gd 0.7716 0.13975 0.62743 0.0
Gd2699 Gd 0.90222 0.18915 0.61447 0.0
N2700 N 0.95717 0.26879 0.62069 0.0
C2701 C 0.03692 0.36151 0.62494 0.0
C2702 C 0.97953 0.27922 0.63102 0.0
C2703 C 0.01929 0.32582 0.63327 0.0
H2704 H 0.96917 0.25132 0.63736 0.0
H2705 H 0.03848 0.33396 0.64116 0.0
H2706 H 0.73748 0.06568 0.61832 0.0
H2707 H 0.88044 0.18764 0.58722 0.0
H2708 H 0.68911 0.96437 0.60488 0.0
H2709 H 0.06848 0.39712 0.6267 0.0
H2710 H 0.06917 0.41805 0.6065 0.0
H2711 H 0.77329 0.16594 0.65483 0.0
H2712 H 0.95883 0.33112 0.57495 0.0
H2713 H 0.89993 0.24654 0.57186 0.0
H2714 H 0.63626 0.91013 0.64262 0.0
H2715 H 0.03778 0.39296 0.5877 0.0
H2716 H 0.68962 0.02988 0.67221 0.0
H2717 H 0.73741 0.12081 0.67236 0.0
N2718 N 0.74648 0.10153 0.6448 0.0
C2719 C 0.71903 0.0517 0.64434 0.0
C2720 C 0.75379 0.12636 0.6547 0.0
C2721 C 0.70576 0.04956 0.66446 0.0
C2722 C 0.73315 0.10078 0.66464 0.0
C2723 C 0.69803 0.02441 0.65422 0.0
H2724 H 0.65226 0.95153 0.66102 0.0
N2725 N 0.73065 0.05562 0.62391 0.0
C2726 C 0.7098 0.02786 0.63388 0.0
C2727 C 0.6712 0.9549 0.62251 0.0
C2728 C 0.67963 0.977 0.63314 0.0
C2729 C 0.72444 0.0338 0.61328 0.0
C2730 C 0.69423 0.98277 0.61289 0.0
O2731 O 0.8687 0.23779 0.61258 0.0
O2732 O 0.82221 0.2227 0.62859 0.0
O2733 O 0.72279 0.16069 0.61898 0.0
O2734 O 0.70331 0.12542 0.63512 0.0
O2735 O 0.8925 0.17809 0.63404 0.0
O2736 O 0.83001 0.19312 0.63861 0.0
O2737 O 0.80992 0.09162 0.62925 0.0
O2738 O 0.85164 0.10958 0.61281 0.0
O2739 O 0.96776 0.18764 0.62068 0.0
O2740 O 0.95217 0.18351 0.60268 0.0
O2741 O 0.77939 0.1571 0.60909 0.0
O2742 O 0.83599 0.13876 0.60236 0.0
C2743 C 0.85105 0.2527 0.62066 0.0
C2744 C 0.86992 0.19252 0.64133 0.0
C2745 C 0.6773 0.18208 0.63145 0.0
C2746 C 0.6265 0.22035 0.62981 0.0
C2747 C 0.6782 0.23583 0.64628 0.0
C2748 C 0.69521 0.20613 0.64183 0.0
C2749 C 0.64405 0.24288 0.64033 0.0
C2750 C 0.64269 0.18924 0.62543 0.0
C2751 C 0.69219 0.14713 0.62737 0.0
C2752 C 0.65933 0.94962 0.64301 0.0
C2753 C 0.66863 0.9732 0.65351 0.0
H2754 H 0.6482 0.91555 0.62166 0.0
C2755 C 0.83569 0.08243 0.62174 0.0
C2756 C 0.7931 0.13779 0.60129 0.0
C2757 C 0.02834 0.18551 0.60778 0.0
C2758 C 0.11628 0.21215 0.61005 0.0
C2759 C 0.06871 0.15732 0.59476 0.0
C2760 C 0.02697 0.15815 0.5983 0.0
C2761 C 0.11285 0.18405 0.60054 0.0
C2762 C 0.07346 0.2126 0.61378 0.0
C2763 C 0.98313 0.18772 0.61048 0.0
H2764 H 0.6913 0.25322 0.6544 0.0
H2765 H 0.72172 0.20122 0.64664 0.0
H2766 H 0.63086 0.26566 0.64401 0.0
H2767 H 0.62832 0.17063 0.61746 0.0
H2768 H 0.06695 0.13614 0.58741 0.0
H2769 H 0.99337 0.13743 0.59352 0.0
H2770 H 0.14484 0.18309 0.5975 0.0
H2771 H 0.07559 0.23475 0.62098 0.0
C2772 C 0.39284 0.14708 0.2285 0.0
C2773 C 0.40279 0.09285 0.21552 0.0
C2774 C 0.40269 0.13687 0.21765 0.0
C2775 C 0.39354 0.05986 0.22432 0.0
C2776 C 0.37896 0.11193 0.23707 0.0
C2777 C 0.38271 0.06984 0.23507 0.0
N2778 N 0.39464 0.19046 0.23053 0.0
C2779 C 0.38237 0.20075 0.2408 0.0
C2780 C 0.36127 0.12046 0.2472 0.0
C2781 C 0.36369 0.16513 0.24914 0.0
Gd2782 Gd 0.34125 0.29213 0.20337 0.0
Gd2783 Gd 0.42705 0.24595 0.21585 0.0
N2784 N 0.41272 0.17006 0.20927 0.0
C2785 C 0.41548 0.0847 0.20479 0.0
C2786 C 0.42715 0.16317 0.19889 0.0
C2787 C 0.42903 0.12062 0.19656 0.0
H2788 H 0.44108 0.19175 0.19263 0.0
H2789 H 0.44369 0.11658 0.18868 0.0
H2790 H 0.34879 0.36758 0.22399 0.0
H2791 H 0.38616 0.23584 0.24265 0.0
H2792 H 0.38601 0.4568 0.22708 0.0
H2793 H 0.41733 0.05195 0.20294 0.0
H2794 H 0.39556 0.02686 0.22297 0.0
H2795 H 0.34164 0.27532 0.17529 0.0
H2796 H 0.34344 0.09292 0.25352 0.0
H2797 H 0.35128 0.17213 0.25707 0.0
H2798 H 0.45453 0.52657 0.19094 0.0
H2799 H 0.37912 0.04511 0.24172 0.0
H2800 H 0.42993 0.4162 0.16041 0.0
H2801 H 0.38541 0.32534 0.15896 0.0
N2802 N 0.37058 0.3357 0.18662 0.0
C2803 C 0.39346 0.38531 0.18769 0.0
C2804 C 0.36444 0.31436 0.17631 0.0
C2805 C 0.41281 0.39406 0.16781 0.0
C2806 C 0.38738 0.34301 0.16688 0.0
C2807 C 0.4149 0.41586 0.17827 0.0
H2808 H 0.45438 0.49102 0.17243 0.0
N2809 N 0.37568 0.3752 0.20735 0.0
C2810 C 0.39513 0.40554 0.19829 0.0
C2811 C 0.41373 0.4752 0.21008 0.0
C2812 C 0.4161 0.45658 0.19951 0.0
C2813 C 0.37008 0.39258 0.2174 0.0
C2814 C 0.38979 0.44295 0.21901 0.0
O2815 O 0.34554 0.19019 0.21734 0.0
O2816 O 0.30577 0.20909 0.20347 0.0
O2817 O 0.27162 0.28024 0.21043 0.0
O2818 O 0.29009 0.30141 0.19306 0.0
O2819 O 0.42358 0.2565 0.19654 0.0
O2820 O 0.34405 0.23528 0.19265 0.0
O2821 O 0.42689 0.34058 0.2023 0.0
O2822 O 0.45566 0.32524 0.21847 0.0
O2823 O 0.49762 0.25823 0.20913 0.0
O2824 O 0.48298 0.24871 0.22722 0.0
O2825 O 0.33509 0.27648 0.22194 0.0
O2826 O 0.41151 0.29496 0.22815 0.0
C2827 C 0.30708 0.17838 0.2109 0.0
C2828 C 0.38456 0.23601 0.18983 0.0
C2829 C 0.20645 0.24929 0.1969 0.0
C2830 C 0.11727 0.21037 0.19821 0.0
C2831 C 0.15443 0.19254 0.18235 0.0
C2832 C 0.20085 0.22357 0.18678 0.0
C2833 C 0.11288 0.18555 0.18807 0.0
C2834 C 0.16422 0.2426 0.20262 0.0
C2835 C 0.25616 0.28647 0.2007 0.0
C2836 C 0.4378 0.48716 0.19013 0.0
C2837 C 0.43759 0.4669 0.17958 0.0
H2838 H 0.42915 0.51424 0.21136 0.0
C2839 C 0.46168 0.35386 0.21003 0.0
C2840 C 0.36952 0.29515 0.22958 0.0
C2841 C 0.56055 0.25591 0.22108 0.0
C2842 C 0.62269 0.23091 0.2179 0.0
C2843 C 0.62954 0.28235 0.2339 0.0
C2844 C 0.58651 0.28149 0.23073 0.0
C2845 C 0.64741 0.25736 0.22758 0.0
C2846 C 0.57886 0.23031 0.21457 0.0
C2847 C 0.51183 0.25179 0.219 0.0
H2848 H 0.15065 0.17351 0.17448 0.0
H2849 H 0.23243 0.22784 0.18215 0.0
H2850 H 0.07709 0.16173 0.18441 0.0
H2851 H 0.16785 0.26354 0.21018 0.0
H2852 H 0.64887 0.30202 0.24142 0.0
H2853 H 0.57304 0.30045 0.23596 0.0
H2854 H 0.68062 0.25816 0.23037 0.0
H2855 H 0.55849 0.20893 0.2073 0.0
C2856 C 0.96193 0.28658 0.22533 0.0
C2857 C 1.01268 0.34965 0.21178 0.0
C2858 C 0.96879 0.30635 0.21449 0.0
C2859 C 0.04921 0.37242 0.21998 0.0
C2860 C 0.99938 0.30812 0.23343 0.0
C2861 C 0.04216 0.3524 0.23078 0.0
N2862 N 0.91805 0.24689 0.22802 0.0
C2863 C 0.90944 0.22638 0.23849 0.0
C2864 C 0.99161 0.28484 0.24396 0.0
C2865 C 0.94655 0.24409 0.2465 0.0
Gd2866 Gd 0.80597 0.09145 0.20125 0.0
Gd2867 Gd 0.85767 0.22364 0.2144 0.0
N2868 N 0.93169 0.285 0.20684 0.0
C2869 C 1.01726 0.37091 0.20118 0.0
C2870 C 0.93503 0.30734 0.19671 0.0
C2871 C 0.97792 0.35008 0.1937 0.0
H2872 H 0.90408 0.29428 0.19111 0.0
H2873 H 0.97997 0.36787 0.18575 0.0
H2874 H 0.73441 0.05889 0.2114 0.0
H2875 H 0.87411 0.19672 0.24072 0.0
H2876 H 0.63754 0.01477 0.22647 0.0
H2877 H 0.05021 0.40449 0.19887 0.0
H2878 H 0.08242 0.40664 0.21818 0.0
H2879 H 0.8221 0.10325 0.17315 0.0
H2880 H 0.01947 0.29678 0.25031 0.0
H2881 H 0.94015 0.22688 0.25471 0.0
H2882 H 0.5703 0.97328 0.18927 0.0
H2883 H 0.06934 0.37347 0.23703 0.0
H2884 H 0.68028 0.03474 0.1578 0.0
H2885 H 0.77056 0.08259 0.15614 0.0
N2886 N 0.76156 0.07239 0.18444 0.0
C2887 C 0.71189 0.04636 0.1856 0.0
C2888 C 0.78278 0.08465 0.17404 0.0
C2889 C 0.70269 0.04493 0.16534 0.0
C2890 C 0.75367 0.07188 0.16435 0.0
C2891 C 0.68118 0.03161 0.17604 0.0
H2892 H 0.60588 0.9927 0.17021 0.0
N2893 N 0.72257 0.05289 0.20597 0.0
C2894 C 0.69137 0.03546 0.1964 0.0
C2895 C 0.62169 1.00136 0.2088 0.0
C2896 C 0.64047 1.00961 0.19784 0.0
C2897 C 0.70417 0.04663 0.21697 0.0
C2898 C 0.65307 0.02001 0.2181 0.0
O2899 O 0.91138 0.19569 0.21517 0.0
O2900 O 0.88944 0.13841 0.2008 0.0
O2901 O 0.81346 0.03259 0.20889 0.0
O2902 O 0.79826 0.03016 0.19121 0.0
O2903 O 0.84648 0.21178 0.1949 0.0
O2904 O 0.86184 0.14972 0.19045 0.0
O2905 O 0.76115 0.13277 0.20006 0.0
O2906 O 0.77838 0.17264 0.21685 0.0
O2907 O 0.84346 0.28173 0.20857 0.0
O2908 O 0.85751 0.27661 0.2264 0.0
O2909 O 0.82587 0.09907 0.21957 0.0
O2910 O 0.81154 0.15795 0.22697 0.0
C2911 C 0.92157 0.17016 0.20805 0.0
C2912 C 0.86336 0.19073 0.18785 0.0
C2913 C 0.84808 0.99764 0.19701 0.0
C2914 C 0.88248 0.94335 0.19908 0.0
C2915 C 0.92187 0.01462 0.18683 0.0
C2916 C 0.88649 0.02713 0.1896 0.0
C2917 C 0.91978 0.97294 0.19147 0.0
C2918 C 0.84645 0.95581 0.20188 0.0
C2919 C 0.80956 1.01027 0.19942 0.0
C2920 C 0.6098 0.99358 0.18832 0.0
C2921 C 0.63008 1.00468 0.17746 0.0
H2922 H 0.58245 0.98153 0.2102 0.0
C2923 C 0.75035 0.15532 0.20806 0.0
C2924 C 0.80897 0.11412 0.22772 0.0
C2925 C 0.84915 0.34735 0.22085 0.0
C2926 C 0.87732 0.43609 0.21895 0.0
C2927 C 0.81579 0.38577 0.23294 0.0
C2928 C 0.81807 0.34457 0.22961 0.0
C2929 C 0.84502 0.43087 0.22772 0.0
C2930 C 0.87893 0.39355 0.21538 0.0
C2931 C 0.85236 0.30237 0.21847 0.0
H2932 H 0.95092 0.0372 0.18099 0.0
H2933 H 0.88887 0.05964 0.18585 0.0
H2934 H 0.94744 0.96367 0.18912 0.0
H2935 H 0.81718 0.93289 0.20765 0.0
H2936 H 0.79157 0.38288 0.23974 0.0
H2937 H 0.79556 0.31024 0.23398 0.0
H2938 H 0.84271 0.46226 0.23066 0.0
H2939 H 0.90419 0.39671 0.20879 0.0
C2940 C 0.81088 0.71291 0.22545 0.0
C2941 C 0.75146 0.7042 0.21117 0.0
C2942 C 0.79451 0.70364 0.21426 0.0
C2943 C 0.72474 0.71268 0.21938 0.0
C2944 C 0.78551 0.72394 0.23357 0.0
C2945 C 0.74069 0.72066 0.23055 0.0
N2946 N 0.8507 0.70937 0.22848 0.0
C2947 C 0.86856 0.71856 0.23923 0.0
C2948 C 0.80563 0.73635 0.24449 0.0
C2949 C 0.84723 0.73387 0.24731 0.0
Gd2950 Gd 1.00649 0.75951 0.20253 0.0
Gd2951 Gd 0.87624 0.6742 0.21499 0.0
N2952 N 0.81827 0.69045 0.20666 0.0
C2953 C 0.73363 0.69143 0.20018 0.0
C2954 C 0.79821 0.67374 0.19622 0.0
C2955 C 0.75648 0.675 0.19277 0.0
H2956 H 0.81118 0.65544 0.19074 0.0
H2957 H 0.74005 0.6602 0.18466 0.0
H2958 H 0.07572 0.7558 0.22325 0.0
H2959 H 0.89888 0.71373 0.24164 0.0
H2960 H 0.12839 0.71973 0.2269 0.0
H2961 H 0.7003 0.69081 0.19758 0.0
H2962 H 0.69031 0.71079 0.21728 0.0
H2963 H 0.99138 0.75824 0.17431 0.0
H2964 H 0.79079 0.74889 0.25089 0.0
H2965 H 0.86209 0.74261 0.25577 0.0
H2966 H 0.13523 0.65247 0.19099 0.0
H2967 H 0.71635 0.72212 0.23668 0.0
H2968 H 0.05295 0.67708 0.15974 0.0
H2969 H 1.00547 0.71999 0.15774 0.0
N2970 N 0.02329 0.73064 0.18588 0.0
C2971 C 0.05169 0.70965 0.1871 0.0
C2972 C 1.00886 0.73661 0.17543 0.0
C2973 C 0.04517 0.69228 0.16713 0.0
C2974 C 1.01833 0.71638 0.16595 0.0
C2975 C 0.06316 0.68963 0.17776 0.0
H2976 H 0.10177 0.65254 0.17222 0.0
N2977 N 0.05817 0.72848 0.20661 0.0
C2978 C 0.0701 0.70903 0.19775 0.0
C2979 C 0.12104 0.6918 0.20996 0.0
C2980 C 0.10103 0.68915 0.19925 0.0
C2981 C 0.08038 0.73459 0.2168 0.0
C2982 C 0.11136 0.71546 0.21873 0.0
O2983 O 0.90479 0.7555 0.21749 0.0
O2984 O 0.95495 0.79075 0.20223 0.0
O2985 O 0.06932 0.82762 0.20938 0.0
O2986 O 0.05437 0.81596 0.19124 0.0
O2987 O 0.89065 0.6744 0.19562 0.0
O2988 O 0.9461 0.75434 0.19196 0.0
O2989 O 0.9728 0.67379 0.20202 0.0
O2990 O 0.92727 0.64626 0.21808 0.0
O2991 O 0.81622 0.60268 0.20924 0.0
O2992 O 0.82406 0.62165 0.22708 0.0
O2993 O 0.99819 0.76802 0.22111 0.0
O2994 O 0.94083 0.69198 0.22764 0.0
C2995 C 0.92438 0.79005 0.20989 0.0
C2996 C 0.90893 0.71297 0.18876 0.0
C2997 C 0.1258 0.89149 0.1961 0.0
C2998 C 0.18358 0.97818 0.19912 0.0
C2999 C 0.18574 0.93899 0.18169 0.0
C3000 C 0.14697 0.89476 0.18546 0.0
C3001 C 0.20388 0.9805 0.18845 0.0
C3002 C 0.14447 0.93344 0.20303 0.0
C3003 C 0.08195 0.84502 0.19918 0.0
C3004 C 0.11174 0.66824 0.18999 0.0
C3005 C 0.09272 0.66832 0.17929 0.0
H3006 H 0.14522 0.67716 0.21146 0.0
C3007 C 0.95147 0.64006 0.21001 0.0
C3008 C 0.98282 0.73439 0.22897 0.0
C3009 C 0.75158 0.54392 0.22187 0.0
C3010 C 0.66377 0.48318 0.21916 0.0
C3011 C 0.70785 0.47927 0.23564 0.0
C3012 C 0.75067 0.52042 0.23199 0.0
C3013 C 0.66491 0.46088 0.22932 0.0
C3014 C 0.70759 0.52509 0.21537 0.0
C3015 C 0.7967 0.59138 0.21926 0.0
H3016 H 0.20141 0.94121 0.17344 0.0
H3017 H 0.13308 0.8631 0.17996 0.0
H3018 H 0.23366 0.01484 0.1853 0.0
H3019 H 0.12788 0.93176 0.21115 0.0
H3020 H 0.70779 0.46181 0.24351 0.0
H3021 H 0.78318 0.53446 0.23722 0.0
H3022 H 0.63204 0.42909 0.23244 0.0
H3023 H 0.70708 0.54358 0.20771 0.0
C3024 C 0.42118 0.13218 0.08077 0.0
C3025 C 0.4255 0.12067 0.092 0.0
C3026 C 0.44005 0.1174 0.07174 0.0
C3027 C 0.45992 0.08582 0.07311 0.0
H3028 H 0.40566 0.15489 0.07879 0.0
H3029 H 0.43798 0.13056 0.06345 0.0
S3030 S 0.48255 0.0465 0.10087 0.0
N3031 N 0.45891 0.08137 0.10397 0.0
N3032 N 0.48223 0.04395 0.08699 0.0
C3033 C 0.46301 0.07268 0.08426 0.0
C3034 C 0.44883 0.09228 0.0936 0.0
C3035 C 0.03095 0.36266 0.08517 0.0
C3036 C 0.98307 0.34322 0.08969 0.0
C3037 C 0.0496 0.40036 0.07679 0.0
C3038 C 0.02088 0.41961 0.07233 0.0
H3039 H 0.0549 0.35014 0.08847 0.0
H3040 H 0.08606 0.41315 0.07347 0.0
S3041 S 0.89289 0.38025 0.08089 0.0
N3042 N 0.90779 0.34644 0.08877 0.0
N3043 N 0.9416 0.41481 0.0731 0.0
C3044 C 0.97299 0.39978 0.0767 0.0
C3045 C 0.95447 0.36236 0.08526 0.0
C3046 C 0.70565 0.69803 0.07751 0.0
C3047 C 0.68176 0.64862 0.07378 0.0
C3048 C 0.74423 0.7163 0.08571 0.0
C3049 C 0.76052 0.68593 0.09067 0.0
H3050 H 0.69593 0.72331 0.07372 0.0
H3051 H 0.76049 0.75412 0.0884 0.0
S3052 S 0.70946 0.55355 0.08406 0.0
N3053 N 0.67752 0.57007 0.07597 0.0
N3054 N 0.74819 0.60331 0.09108 0.0
C3055 C 0.73631 0.63649 0.08703 0.0
C3056 C 0.69762 0.61823 0.07876 0.0
C3057 C 0.06434 0.40319 0.41919 0.0
C3058 C 0.08832 0.45279 0.42279 0.0
C3059 C 0.08563 0.38576 0.41106 0.0
C3060 C 0.13159 0.41732 0.40597 0.0
H3061 H 0.02998 0.37708 0.42309 0.0
H3062 H 0.06527 0.34769 0.40849 0.0
S3063 S 0.20874 0.55055 0.41221 0.0
N3064 N 0.16046 0.53263 0.42042 0.0
N3065 N 0.19938 0.50119 0.40526 0.0
C3066 C 0.15512 0.46698 0.40943 0.0
C3067 C 0.13382 0.48429 0.4177 0.0
C3068 C 0.66994 0.731 0.42541 0.0
C3069 C 0.65169 0.67964 0.42412 0.0
C3070 C 0.68865 0.76486 0.41634 0.0
C3071 C 0.68579 0.74912 0.40512 0.0
H3072 H 0.67077 0.74592 0.43367 0.0
H3073 H 0.70313 0.80323 0.41817 0.0
S3074 S 0.63542 0.61855 0.39641 0.0
N3075 N 0.63505 0.61657 0.41028 0.0
N3076 N 0.65595 0.67649 0.39328 0.0
C3077 C 0.66438 0.69755 0.40362 0.0
C3078 C 0.65099 0.66398 0.41299 0.0
C3079 C 0.37425 0.94924 0.41022 0.0
C3080 C 0.35228 0.9756 0.40596 0.0
C3081 C 0.41026 0.9681 0.41879 0.0
C3082 C 0.42823 0.01544 0.42337 0.0
H3083 H 0.36372 0.91342 0.40678 0.0
H3084 H 0.42423 0.94507 0.42191 0.0
S3085 S 0.38487 0.1012 0.41506 0.0
N3086 N 0.35176 0.05236 0.40712 0.0
N3087 N 0.42103 0.0887 0.42279 0.0
C3088 C 0.40741 0.04287 0.41908 0.0
C3089 C 0.36906 0.02274 0.41059 0.0
C3090 C 0.67484 0.9873 0.92527 0.0
C3091 C 0.64877 0.01312 0.92381 0.0
C3092 C 0.69347 0.9724 0.91616 0.0
C3093 C 0.68257 0.9773 0.90489 0.0
H3094 H 0.68192 0.97893 0.93367 0.0
H3095 H 0.71485 0.95539 0.91818 0.0
S3096 S 0.6101 0.03626 0.896 0.0
N3097 N 0.61431 0.04308 0.90979 0.0
N3098 N 0.63867 1.0059 0.89299 0.0
C3099 C 0.65368 1.00016 0.90333 0.0
C3100 C 0.6394 0.02004 0.91259 0.0
C3101 C 0.15283 0.73408 0.91068 0.0
C3102 C 0.12498 0.75461 0.90652 0.0
C3103 C 0.13486 0.69729 0.91904 0.0
C3104 C 0.08711 0.67716 0.9235 0.0
H3105 H 0.18917 0.74636 0.90733 0.0
H3106 H 0.15896 0.68446 0.92208 0.0
S3107 S 0.99818 0.71718 0.91566 0.0
N3108 N 0.04682 0.7523 0.90785 0.0
N3109 N 1.01205 0.68123 0.92307 0.0
C3110 C 0.05826 0.69665 0.91934 0.0
C3111 C 0.07752 0.73598 0.91111 0.0
C3112 C 0.43814 0.45932 0.91393 0.0
C3113 C 0.4221 0.45474 0.92513 0.0
C3114 C 0.40461 0.44445 0.90479 0.0
C3115 C 0.35262 0.42074 0.90623 0.0
H3116 H 0.47689 0.47634 0.91211 0.0
H3117 H 0.4203 0.4522 0.89641 0.0
S3118 S 0.29105 0.39872 0.93402 0.0
N3119 N 0.34985 0.42637 0.93704 0.0
N3120 N 0.28849 0.39352 0.9202 0.0
C3121 C 0.33642 0.41452 0.91742 0.0
C3122 C 0.37051 0.43259 0.9267 0.0
C3123 C 1.01116 0.65026 0.59202 0.0
C3124 C 0.99116 0.68193 0.59083 0.0
C3125 C 0.02935 0.63536 0.5828 0.0
C3126 C 0.02411 0.64703 0.57163 0.0
H3127 H 1.01352 0.63697 0.60028 0.0
H3128 H 0.04526 0.61243 0.58445 0.0
S3129 S 0.96943 0.72389 0.56332 0.0
N3130 N 0.97112 0.72659 0.57719 0.0
N3131 N 0.99083 0.68732 0.56001 0.0
C3132 C 1.00142 0.67605 0.57027 0.0
C3133 C 0.9886 0.69617 0.57974 0.0
C3134 C 0.41204 0.39916 0.5766 0.0
C3135 C 0.4608 0.42165 0.57246 0.0
C3136 C 0.39406 0.36051 0.58476 0.0
C3137 C 0.42422 0.34304 0.5893 0.0
H3138 H 0.38708 0.41022 0.57321 0.0
H3139 H 0.35696 0.34562 0.58785 0.0
S3140 S 0.55445 0.38951 0.58145 0.0
N3141 N 0.53824 0.42272 0.57374 0.0
N3142 N 0.50537 0.35206 0.58881 0.0
C3143 C 0.47274 0.36546 0.58519 0.0
C3144 C 0.49073 0.40412 0.57694 0.0
C3145 C 0.77447 0.1254 0.58006 0.0
C3146 C 0.75811 0.11692 0.59128 0.0
C3147 C 0.7415 0.11336 0.57093 0.0
C3148 C 0.68955 0.08746 0.57223 0.0
H3149 H 0.81302 0.14366 0.57817 0.0
H3150 H 0.75763 0.12454 0.56264 0.0
S3151 S 0.62675 0.06167 0.59989 0.0
N3152 N 0.68539 0.08772 0.60311 0.0
N3153 N 0.62454 0.05849 0.58601 0.0
C3154 C 0.67266 0.07878 0.58339 0.0
C3155 C 0.7064 0.09471 0.59279 0.0
C3156 C 0.80617 0.75194 0.74957 0.0
C3157 C 0.79422 0.75618 0.73839 0.0
C3158 C 0.79129 0.77065 0.75864 0.0
C3159 C 0.7599 0.79075 0.75726 0.0
H3160 H 0.82924 0.73651 0.7514 0.0
H3161 H 0.80411 0.76829 0.76693 0.0
S3162 S 0.71833 0.81167 0.72964 0.0
N3163 N 0.75386 0.78886 0.72647 0.0
N3164 N 0.71641 0.8117 0.74352 0.0
C3165 C 0.74597 0.79326 0.74616 0.0
C3166 C 0.76545 0.7792 0.73682 0.0
C3167 C 0.36511 0.03482 0.75276 0.0
C3168 C 0.31548 1.00975 0.75632 0.0
C3169 C 0.38267 0.07291 0.7445 0.0
C3170 C 0.35105 0.08663 0.73916 0.0
H3171 H 0.39115 0.02677 0.75681 0.0
H3172 H 0.42085 0.09054 0.74203 0.0
S3173 S 0.21731 0.02991 0.74486 0.0
N3174 N 0.23536 1.00089 0.7535 0.0
N3175 N 0.26686 0.06966 0.73795 0.0
C3176 C 0.30123 0.06059 0.74249 0.0
C3177 C 0.28388 0.0229 0.75096 0.0
C3178 C 0.071 0.33941 0.73841 0.0
C3179 C 0.01909 0.31081 0.73977 0.0
C3180 C 0.10427 0.35831 0.74761 0.0
C3181 C 0.08842 0.34516 0.75881 0.0
H3182 H 0.08683 0.34713 0.73005 0.0
H3183 H 0.14279 0.38142 0.74579 0.0
S3184 S 0.95799 0.26143 0.76722 0.0
N3185 N 0.95528 0.26744 0.7535 0.0
N3186 N 1.0165 0.29465 0.77039 0.0
C3187 C 0.03702 0.31305 0.76021 0.0
C3188 C 1.00296 0.29777 0.7509 0.0
C3189 C 0.29074 0.30362 0.25302 0.0
C3190 C 0.31888 0.35137 0.25746 0.0
C3191 C 0.30874 0.28544 0.24452 0.0
C3192 C 0.35672 0.31311 0.24018 0.0
H3193 H 0.25409 0.27969 0.25621 0.0
H3194 H 0.28444 0.24903 0.24124 0.0
S3195 S 0.44669 0.44011 0.24895 0.0
N3196 N 0.39783 0.42639 0.2567 0.0
N3197 N 0.4324 0.39131 0.24112 0.0
C3198 C 0.38585 0.36073 0.24464 0.0
C3199 C 0.36673 0.38011 0.25307 0.0
C3200 C 0.78305 0.06404 0.25829 0.0
C3201 C 0.75507 1.01212 0.2571 0.0
C3202 C 0.79691 0.09667 0.24902 0.0
C3203 C 0.7883 0.07952 0.23784 0.0
H3204 H 0.79405 0.0802 0.26659 0.0
H3205 H 0.81642 0.13553 0.25073 0.0
S3206 S 0.72289 0.9467 0.22977 0.0
N3207 N 0.71873 0.94574 0.24363 0.0
N3208 N 0.75478 1.00515 0.22637 0.0
C3209 C 0.76316 0.02742 0.23655 0.0
C3210 C 0.74428 0.9944 0.24604 0.0
C3211 C 0.03482 0.72012 0.24378 0.0
C3212 C 1.0145 0.74831 0.23956 0.0
C3213 C 0.07341 0.73918 0.25198 0.0
C3214 C 0.09296 0.78704 0.25652 0.0
H3215 H 0.02222 0.68381 0.2404 0.0
H3216 H 0.08678 0.71562 0.25508 0.0
S3217 S 0.05215 0.87536 0.24858 0.0
N3218 N 1.01754 0.82664 0.24079 0.0
N3219 N 0.08772 0.86134 0.25605 0.0
C3220 C 0.07241 0.81495 0.2524 0.0
C3221 C 0.03398 0.79597 0.24405 0.0
C3222 C 0.57546 0.09414 0.00472 0.0
C3223 C 0.54491 0.04996 0.01062 0.0
C3224 C 0.58601 0.09476 0.99313 0.0
C3225 C 0.56753 0.0511 0.98692 0.0
H3226 H 0.59092 0.12896 0.00909 0.0
H3227 H 0.60982 0.1296 0.98909 0.0
S3228 S 0.4872 0.92518 -0.00166 0.0
N3229 N 0.49643 0.9615 0.00922 0.0
N3230 N 0.518 0.96179 0.98778 0.0
C3231 C 0.5376 1.00653 0.99279 0.0
C3232 C 0.52613 1.00611 0.00452 0.0
C3233 C 0.0966 0.56062 0.99073 0.0
C3234 C 0.05539 0.56118 0.98609 0.0
C3235 C 0.09959 0.55196 0.00232 0.0
C3236 C 0.06151 0.54375 0.00975 0.0
H3237 H 0.12693 0.56697 0.98531 0.0
H3238 H 0.13105 0.55011 0.00539 0.0
S3239 S 0.94935 0.54871 0.00223 0.0
N3240 N 0.97826 0.55741 0.9901 0.0
N3241 N 0.98327 0.54103 0.01175 0.0
C3242 C 0.02085 0.54565 0.00525 0.0
C3243 C 1.01784 0.55427 0.99348 0.0
C3244 C 0.5438 0.58142 0.00432 0.0
C3245 C 0.56213 0.5578 0.01107 0.0
C3246 C 0.53721 0.57224 0.99266 0.0
C3247 C 0.54869 0.53914 0.98715 0.0
H3248 H 0.53538 0.60784 0.008 0.0
H3249 H 0.52097 0.59004 0.988 0.0
S3250 S 0.59578 0.46588 0.00106 0.0
N3251 N 0.59096 0.49859 0.01134 0.0
N3252 N 0.57749 0.48149 0.98953 0.0
C3253 C 0.56676 0.51511 0.99379 0.0
C3254 C 0.5734 0.52416 0.00569 0.0
C3255 C 0.09829 0.57827 0.50309 0.0
C3256 C 0.05665 0.55392 0.50992 0.0
C3257 C 0.09623 0.56666 0.49157 0.0
C3258 C 0.05253 0.53005 0.48641 0.0
H3259 H 0.13219 0.60756 0.50654 0.0
H3260 H 0.12937 0.58679 0.48663 0.0
S3261 S 0.93421 0.45317 0.5009 0.0
N3262 N 0.97078 0.49009 0.51084 0.0
N3263 N 0.9675 0.46817 0.48927 0.0
C3264 C 1.01088 0.50503 0.4932 0.0
C3265 C 1.01291 0.51684 0.50493 0.0
C3266 C 0.58923 0.54305 0.49316 0.0
C3267 C 0.56155 0.5554 0.48601 0.0
C3268 C 0.58069 0.53818 0.50488 0.0
C3269 C 0.54381 0.54497 0.51002 0.0
H3270 H 0.61873 0.53868 0.48974 0.0
H3271 H 0.6029 0.52814 0.50998 0.0
S3272 S 0.4598 0.5759 0.49497 0.0
N3273 N 0.49489 0.57353 0.48492 0.0
N3274 N 0.47881 0.56355 0.50686 0.0
C3275 C 0.51582 0.55717 0.50297 0.0
C3276 C 0.52445 0.56219 0.49102 0.0
C3277 C 0.57216 0.09093 0.50428 0.0
C3278 C 0.56493 0.04755 0.50966 0.0
C3279 C 0.56537 0.09298 0.49255 0.0
C3280 C 0.55115 0.05171 0.48567 0.0
H3281 H 0.58369 0.12389 0.50921 0.0
H3282 H 0.56977 0.12653 0.48893 0.0
S3283 S 0.53128 0.93061 0.49536 0.0
N3284 N 0.54482 0.96339 0.50702 0.0
N3285 N 0.53296 0.96702 0.48514 0.0
C3286 C 0.54486 1.00857 0.49096 0.0
C3287 C 0.55109 1.00637 0.50288 0.0
C3288 C 0.24473 0.42092 0.32546 0.0
C3289 C 0.22475 0.37795 0.31903 0.0
C3290 C 0.23483 0.41932 0.33705 0.0
C3291 C 0.20481 0.37474 0.34288 0.0
H3292 H 0.26926 0.45599 0.3216 0.0
H3293 H 0.25054 0.45405 0.34143 0.0
S3294 S 0.13991 0.2519 0.32968 0.0
N3295 N 0.17035 0.28923 0.31918 0.0
N3296 N 0.15303 0.28684 0.34101 0.0
C3297 C 0.18376 0.33156 0.33651 0.0
C3298 C 0.19322 0.33309 0.32462 0.0
C3299 C 0.68527 0.86615 0.33767 0.0
C3300 C 0.72937 0.8753 0.34302 0.0
C3301 C 0.6827 0.87296 0.326 0.0
C3302 C 0.72432 0.88978 0.31914 0.0
H3303 H 0.65197 0.8529 0.34257 0.0
H3304 H 0.64834 0.86657 0.3224 0.0
S3305 S 0.84845 0.91823 0.32873 0.0
N3306 N 0.8152 0.90107 0.34036 0.0
N3307 N 0.81104 0.9147 0.31852 0.0
C3308 C 0.76863 0.89894 0.32436 0.0
C3309 C 0.77112 0.89188 0.33625 0.0
C3310 C 0.22187 0.91307 0.32329 0.0
C3311 C 0.22236 0.87183 0.31862 0.0
C3312 C 0.22956 0.92434 0.33489 0.0
C3313 C 0.23829 0.89494 0.34234 0.0
H3314 H 0.21474 0.93663 0.31791 0.0
H3315 H 0.2301 0.957 0.33796 0.0
S3316 S 0.238 0.7801 0.33474 0.0
N3317 N 0.22851 0.79978 0.32261 0.0
N3318 N 0.24403 0.82104 0.34426 0.0
C3319 C 0.23828 0.85333 0.33779 0.0
C3320 C 0.23021 0.84181 0.326 0.0
C3321 C 0.68023 0.8461 0.82607 0.0
C3322 C 0.72145 0.87375 0.81925 0.0
C3323 C 0.68216 0.85437 0.83779 0.0
C3324 C 0.72529 0.89064 0.84319 0.0
H3325 H 0.64675 0.81707 0.8224 0.0
H3326 H 0.64917 0.83259 0.84268 0.0
S3327 S 0.84255 0.97455 0.82902 0.0
N3328 N 0.80639 0.94006 0.81873 0.0
N3329 N 0.80953 0.95513 0.84067 0.0
C3330 C 0.76663 0.91848 0.83647 0.0
C3331 C 0.76467 0.91039 0.82454 0.0
C3332 C 0.23904 0.85822 0.83761 0.0
C3333 C 0.20933 0.87265 0.8436 0.0
C3334 C 0.25302 0.87206 0.82631 0.0
C3335 C 0.23812 0.90119 0.82045 0.0
H3336 H 0.25175 0.8358 0.84169 0.0
H3337 H 0.27594 0.86012 0.82218 0.0
S3338 S 0.15923 0.94798 0.83216 0.0
N3339 N 0.1652 0.91719 0.84269 0.0
N3340 N 0.19072 0.94323 0.8216 0.0
C3341 C 0.20821 0.91573 0.82636 0.0
C3342 C 0.19418 0.90166 0.83787 0.0
C3343 C 0.21641 0.35003 0.82547 0.0
C3344 C 0.22177 0.3933 0.8204 0.0
C3345 C 0.21841 0.34501 0.83722 0.0
C3346 C 0.22586 0.3831 0.84451 0.0
H3347 H 0.20835 0.31855 0.82031 0.0
H3348 H 0.21551 0.31164 0.84056 0.0
S3349 S 0.23823 0.50247 0.83594 0.0
N3350 N 0.23216 0.47379 0.82386 0.0
N3351 N 0.23657 0.46504 0.84592 0.0
C3352 C 0.23067 0.42638 0.83963 0.0
C3353 C 0.22884 0.4315 0.82763 0.0
C3354 C 0.85482 0.67071 0.67013 0.0
C3355 C 0.88116 0.71186 0.67708 0.0
C3356 C 0.86441 0.67308 0.65845 0.0
C3357 C 0.90068 0.71661 0.65319 0.0
H3358 H 0.8256 0.63698 0.67365 0.0
H3359 H 0.84339 0.64022 0.65346 0.0
S3360 S 0.98165 0.83387 0.66774 0.0
N3361 N 0.94653 0.79714 0.67786 0.0
N3362 N 0.96392 0.80112 0.65603 0.0
C3363 C 0.92738 0.7578 0.66005 0.0
C3364 C 0.918 0.75539 0.67194 0.0
C3365 C 0.35129 0.20357 0.65854 0.0
C3366 C 0.39508 0.23188 0.65257 0.0
C3367 C 0.35169 0.19257 0.67005 0.0
C3368 C 0.39587 0.20861 0.6762 0.0
H3369 H 0.31634 0.19008 0.65432 0.0
H3370 H 0.31655 0.17064 0.67413 0.0
S3371 S 0.52101 0.2843 0.66465 0.0
N3372 N 0.48453 0.27651 0.65388 0.0
N3373 N 0.48451 0.25491 0.67534 0.0
C3374 C 0.43988 0.23734 0.67039 0.0
C3375 C 0.43965 0.24896 0.65866 0.0
C3376 C 0.90212 0.18167 0.65997 0.0
C3377 C 0.88639 0.20767 0.65318 0.0
C3378 C 0.90955 0.19101 0.67164 0.0
C3379 C 0.90224 0.22717 0.67695 0.0
H3380 H 0.90703 0.15285 0.65633 0.0
H3381 H 0.92146 0.16986 0.67656 0.0
S3382 S 0.8629 0.3067 0.6629 0.0
N3383 N 0.86375 0.27133 0.65274 0.0
N3384 N 0.87998 0.28985 0.67444 0.0
C3385 C 0.887 0.2536 0.67027 0.0
C3386 C 0.87883 0.2438 0.65845 0.0
C3387 C 0.34524 0.18346 0.17273 0.0
C3388 C 0.38694 0.2231 0.1778 0.0
C3389 C 0.34257 0.17469 0.16099 0.0
C3390 C 0.38125 0.20572 0.15382 0.0
H3391 H 0.31418 0.15907 0.17791 0.0
H3392 H 0.31078 0.14269 0.15757 0.0
S3393 S 0.49497 0.31857 0.16256 0.0
N3394 N 0.4656 0.29568 0.17452 0.0
N3395 N 0.46055 0.28019 0.15257 0.0
C3396 C 0.42237 0.24626 0.15876 0.0
C3397 C 0.42537 0.25462 0.1707 0.0
C3398 C 0.86607 0.23656 0.15788 0.0
C3399 C 0.89889 0.22529 0.15222 0.0
C3400 C 0.8565 0.22806 0.16953 0.0
C3401 C 0.87896 0.20742 0.17599 0.0
H3402 H 0.84772 0.2525 0.15327 0.0
H3403 H 0.83027 0.23631 0.17339 0.0
S3404 S 0.969 0.17264 0.16544 0.0
N3405 N 0.95494 0.19398 0.15418 0.0
N3406 N 0.93633 0.17657 0.17584 0.0
C3407 C 0.91204 0.19621 0.17043 0.0
C3408 C 0.92194 0.20519 0.15862 0.0
C3409 C 0.89679 0.76034 0.15992 0.0
C3410 C 0.88566 0.72113 0.15262 0.0
C3411 C 0.90109 0.75583 0.17165 0.0
C3412 C 0.89445 0.71194 0.17667 0.0
H3413 H 0.90056 0.79414 0.15662 0.0
H3414 H 0.91064 0.7876 0.17686 0.0
S3415 S 0.86731 0.59909 0.16122 0.0
N3416 N 0.86925 0.63688 0.15132 0.0
N3417 N 0.87823 0.62945 0.17322 0.0
C3418 C 0.88371 0.67267 0.16947 0.0
C3419 C 0.87946 0.67716 0.15753 0.0
C3420 C 0.55882 0.76496 0.03761 0.0
C3421 C 0.57957 0.80097 0.04613 0.0
C3422 C 0.57669 0.73249 0.03535 0.0
C3423 C 0.61618 0.73465 0.04148 0.0
H3424 H 0.52567 0.75881 0.0334 0.0
H3425 H 0.55637 0.70245 0.02953 0.0
S3426 S 0.68475 0.82307 0.06432 0.0
N3427 N 0.64353 0.83794 0.06032 0.0
N3428 N 0.67645 0.77712 0.05612 0.0
C3429 C 0.6391 0.7724 0.04949 0.0
C3430 C 0.62106 0.80544 0.05179 0.0
C3431 C 0.34054 0.83666 0.0392 0.0
C3432 C 0.3047 0.82139 0.04775 0.0
C3433 C 0.37376 0.88699 0.03718 0.0
C3434 C 0.37289 0.9239 0.04375 0.0
H3435 H 0.34555 0.80957 0.03468 0.0
H3436 H 0.40289 0.89685 0.0311 0.0
S3437 S 0.28644 0.90325 0.06712 0.0
N3438 N 0.26917 0.84763 0.06239 0.0
N3439 N 0.33334 0.94097 0.0592 0.0
C3440 C 0.33621 0.90896 0.05202 0.0
C3441 C 0.30162 0.85813 0.05382 0.0
C3442 C 0.19441 0.46328 0.04517 0.0
C3443 C 0.18148 0.49675 0.0407 0.0
C3444 C 0.24353 0.47823 0.04815 0.0
C3445 C 0.28169 0.52722 0.04676 0.0
H3446 H 0.16587 0.42651 0.04733 0.0
H3447 H 0.25097 0.45231 0.05246 0.0
S3448 S 0.26759 0.62837 0.03494 0.0
N3449 N 0.21165 0.58037 0.03449 0.0
N3450 N 0.30292 0.60818 0.04015 0.0
C3451 C 0.26956 0.55996 0.04162 0.0
C3452 C 0.21982 0.54484 0.0386 0.0
C3453 C 0.75243 0.53145 0.45469 0.0
C3454 C 0.80191 0.56489 0.45223 0.0
C3455 C 0.71875 0.54732 0.45709 0.0
C3456 C 0.73235 0.59723 0.45705 0.0
H3457 H 0.73871 0.49245 0.45386 0.0
H3458 H 0.68107 0.51993 0.45838 0.0
S3459 S 0.85881 0.7002 0.45267 0.0
N3460 N 0.86402 0.65084 0.4511 0.0
N3461 N 0.80055 0.68022 0.45563 0.0
C3462 C 0.78252 0.63117 0.45559 0.0
C3463 C 0.81719 0.61511 0.45316 0.0
C3464 C 0.46961 0.18733 0.45556 0.0
C3465 C 0.50775 0.17707 0.45378 0.0
C3466 C 0.47658 0.23482 0.45367 0.0
C3467 C 0.52232 0.27428 0.45016 0.0
H3468 H 0.43335 0.15796 0.45759 0.0
H3469 H 0.44516 0.24005 0.45428 0.0
S3470 S 0.63515 0.26829 0.44518 0.0
N3471 N 0.59395 0.21207 0.44897 0.0
N3472 N 0.60667 0.30022 0.44563 0.0
C3473 C 0.56138 0.26526 0.44912 0.0
C3474 C 0.55418 0.21706 0.45085 0.0
C3475 C 0.91837 0.32185 0.45112 0.0
C3476 C 0.93049 0.36903 0.45486 0.0
C3477 C 0.86924 0.28609 0.44863 0.0
C3478 C 0.83036 0.29603 0.44985 0.0
H3479 H 0.94732 0.314 0.44912 0.0
H3480 H 0.86222 0.252 0.44477 0.0
S3481 S 0.84238 0.41264 0.46014 0.0
N3482 N 0.89901 0.4223 0.46039 0.0
N3483 N 0.80763 0.35568 0.45571 0.0
C3484 C 0.84183 0.34177 0.45437 0.0
C3485 C 0.89157 0.37806 0.45685 0.0
C3486 C 0.52345 0.35613 0.96059 0.0
C3487 C 0.49819 0.36735 0.95235 0.0
C3488 C 0.54153 0.3238 0.95821 0.0
C3489 C 0.53456 0.30122 0.94754 0.0
H3490 H 0.53325 0.37584 0.96852 0.0
H3491 H 0.56457 0.31978 0.96441 0.0
S3492 S 0.4671 0.31509 0.92346 0.0
N3493 N 0.46477 0.35069 0.93337 0.0
N3494 N 0.49683 0.28947 0.92911 0.0
C3495 C 0.5059 0.30923 0.93963 0.0
C3496 C 0.48831 0.34239 0.94197 0.0
C3497 C 0.81294 0.244 0.94735 0.0
C3498 C 0.8025 0.28123 0.95026 0.0
C3499 C 0.77986 0.19431 0.94986 0.0
C3500 C 0.73528 0.17981 0.95547 0.0
H3501 H 0.8448 0.25282 0.94224 0.0
H3502 H 0.78759 0.167 0.94655 0.0
S3503 S 0.69233 0.26336 0.96562 0.0
N3504 N 0.74535 0.30022 0.95949 0.0
N3505 N 0.68475 0.20763 0.96466 0.0
C3506 C 0.72634 0.21713 0.95915 0.0
C3507 C 0.75954 0.26755 0.95645 0.0
C3508 C 0.84319 0.53322 0.95136 0.0
C3509 C 0.82636 0.56666 0.94988 0.0
C3510 C 0.89263 0.54902 0.95372 0.0
C3511 C 0.92837 0.59904 0.95473 0.0
H3512 H 0.81869 0.49458 0.94973 0.0
H3513 H 0.90349 0.52163 0.95396 0.0
S3514 S 0.90254 0.70154 0.95319 0.0
N3515 N 0.84857 0.65234 0.95084 0.0
N3516 N 0.94163 0.68167 0.95525 0.0
C3517 C 0.91135 0.6327 0.95426 0.0
C3518 C 0.86049 0.61661 0.95183 0.0
C3519 C 0.38283 0.53876 0.53717 0.0
C3520 C 0.3748 0.49216 0.54042 0.0
C3521 C 0.34903 0.55448 0.53982 0.0
C3522 C 0.30561 0.5243 0.54585 0.0
H3523 H 0.41764 0.56501 0.53345 0.0
H3524 H 0.35913 0.59212 0.53804 0.0
S3525 S 0.26676 0.39886 0.55617 0.0
N3526 N 0.3196 0.41603 0.54983 0.0
N3527 N 0.25589 0.44474 0.55459 0.0
C3528 C 0.29584 0.4766 0.54853 0.0
C3529 C 0.3304 0.4608 0.54589 0.0
C3530 C 0.5341 0.83605 0.54342 0.0
C3531 C 0.56567 0.81827 0.5464 0.0
C3532 C 0.55233 0.88556 0.54056 0.0
C3533 C 0.60278 0.92008 0.54075 0.0
H3534 H 0.49477 0.81223 0.54409 0.0
H3535 H 0.52641 0.89741 0.53877 0.0
S3536 S 0.70143 0.89106 0.54631 0.0
N3537 N 0.65043 0.83801 0.54801 0.0
N3538 N 0.68416 0.93097 0.5428 0.0
C3539 C 0.63484 0.90188 0.54273 0.0
C3540 C 0.6164 0.85112 0.54554 0.0
C3541 C 0.24999 0.80738 0.53755 0.0
C3542 C 0.28437 0.80578 0.54495 0.0
C3543 C 0.20263 0.76605 0.53595 0.0
C3544 C 0.18702 0.72247 0.54214 0.0
H3545 H 0.25894 0.84146 0.53339 0.0
H3546 H 0.17737 0.76928 0.53033 0.0
S3547 S 0.26413 0.70097 0.5627 0.0
N3548 N 0.30046 0.75703 0.55809 0.0
N3549 N 0.21188 0.68129 0.5559 0.0
C3550 C 0.22208 0.72063 0.54934 0.0
C3551 C 0.27043 0.76172 0.55056 0.0
C3552 C 0.22253 0.04172 0.37848 0.0
C3553 C 0.27002 0.05549 0.37463 0.0
C3554 C 0.20789 0.07592 0.38109 0.0
C3555 C 0.24026 0.1265 0.38008 0.0
H3556 H 0.19696 1.00403 0.38019 0.0
H3557 H 0.17211 0.06271 0.38486 0.0
S3558 S 0.36607 0.18329 0.36836 0.0
N3559 N 0.34705 0.12394 0.36828 0.0
N3560 N 0.32036 0.18903 0.37349 0.0
C3561 C 0.28648 0.14126 0.37522 0.0
C3562 C 0.30118 0.10572 0.37242 0.0
C3563 C 0.99943 0.24258 0.37232 0.0
C3564 C 0.04659 0.2544 0.37603 0.0
C3565 C 0.9584 0.19512 0.37404 0.0
C3566 C 0.96297 0.15696 0.37918 0.0
H3567 H 0.99351 0.2708 0.36877 0.0
H3568 H 0.9223 0.18897 0.3719 0.0
S3569 S 0.07843 0.16669 0.38949 0.0
N3570 N 0.09496 0.22172 0.38451 0.0
N3571 N 0.01887 0.13372 0.38729 0.0
C3572 C 1.01021 0.1673 0.38215 0.0
C3573 C 0.05158 0.21553 0.38068 0.0
C3574 C 0.86954 0.80744 0.36913 0.0
C3575 C 0.85348 0.83415 0.37567 0.0
C3576 C 0.91712 0.81376 0.37057 0.0
C3577 C 0.9511 0.84873 0.37819 0.0
H3578 H 0.84446 0.77961 0.36334 0.0
H3579 H 0.9265 0.78953 0.36613 0.0
S3580 S 0.92905 0.92929 0.39706 0.0
N3581 N 0.87694 0.89672 0.39022 0.0
N3582 N 0.96622 0.91136 0.39195 0.0
C3583 C 0.93657 0.87754 0.38421 0.0
C3584 C 0.88795 0.86959 0.3832 0.0
C3585 C 0.4362 0.95689 0.777 0.0
C3586 C 0.40813 0.94596 0.78694 0.0
C3587 C 0.46712 0.93733 0.77489 0.0
C3588 C 0.47128 0.90536 0.78256 0.0
H3589 H 0.43142 0.97792 0.77038 0.0
H3590 H 0.48487 0.9441 0.76674 0.0
S3591 S 0.40771 0.86694 0.81017 0.0
N3592 N 0.38868 0.90311 0.80485 0.0
N3593 N 0.44639 0.86603 0.80087 0.0
C3594 C 0.44587 0.89661 0.79287 0.0
C3595 C 0.41444 0.91691 0.79506 0.0
C3596 C 0.22557 0.60027 0.79117 0.0
C3597 C 0.19737 0.61273 0.78408 0.0
C3598 C 0.21088 0.55055 0.79358 0.0
C3599 C 0.1678 0.5113 0.78888 0.0
H3600 H 0.26104 0.62875 0.79413 0.0
H3601 H 0.23547 0.54275 0.79839 0.0
S3602 S 0.08242 0.52452 0.76952 0.0
N3603 N 0.12327 0.58139 0.77289 0.0
N3604 N 0.09917 0.48968 0.77639 0.0
C3605 C 0.13914 0.52373 0.78205 0.0
C3606 C 0.15282 0.57383 0.77999 0.0
C3607 C 0.56259 0.6907 0.79322 0.0
C3608 C 0.59882 0.70148 0.78495 0.0
C3609 C 0.51196 0.65933 0.79084 0.0
C3610 C 0.49576 0.63735 0.78012 0.0
H3611 H 0.57295 0.70995 0.80121 0.0
H3612 H 0.48525 0.65552 0.7971 0.0
S3613 S 0.57623 0.65061 0.75592 0.0
N3614 N 0.61467 0.68496 0.76589 0.0
N3615 N 0.521 0.62602 0.76156 0.0
C3616 C 0.53211 0.64513 0.77215 0.0
C3617 C 0.5831 0.67712 0.77452 0.0
C3618 C 0.14794 0.62085 0.28032 0.0
C3619 C 0.19314 0.62695 0.28427 0.0
C3620 C 0.13281 0.65534 0.28265 0.0
C3621 C 0.16152 0.69724 0.28927 0.0
H3622 H 0.12638 0.59165 0.2744 0.0
H3623 H 0.10042 0.6513 0.27844 0.0
S3624 S 0.28062 0.72918 0.30254 0.0
N3625 N 0.26472 0.67735 0.2958 0.0
N3626 N 0.23575 0.74113 0.30038 0.0
C3627 C 0.20473 0.70187 0.29402 0.0
C3628 C 0.2205 0.66698 0.29154 0.0
C3629 C 0.3956 0.54482 0.29286 0.0
C3630 C 0.40372 0.50662 0.28934 0.0
C3631 C 0.42917 0.59451 0.29031 0.0
C3632 C 0.47252 0.60823 0.28418 0.0
H3633 H 0.36114 0.53595 0.29681 0.0
H3634 H 0.41903 0.62187 0.29229 0.0
S3635 S 0.51178 0.5228 0.2733 0.0
N3636 N 0.459 0.48664 0.27959 0.0
N3637 N 0.52238 0.57928 0.27513 0.0
C3638 C 0.48241 0.57064 0.28126 0.0
C3639 C 0.44801 0.52017 0.28374 0.0
C3640 C 0.5322 0.95859 0.28797 0.0
C3641 C 0.49449 0.91626 0.28265 0.0
C3642 C 0.57918 0.96429 0.28997 0.0
C3643 C 0.59111 0.92903 0.28626 0.0
H3644 H 0.52599 0.98848 0.29012 0.0
H3645 H 0.60694 0.99776 0.29382 0.0
S3646 S 0.50408 0.811 0.27232 0.0
N3647 N 0.47117 0.83754 0.27449 0.0
N3648 N 0.55904 0.84897 0.27743 0.0
C3649 C 0.55273 0.88589 0.28132 0.0
C3650 C 0.50472 0.87938 0.27973 0.0
C3651 C 0.99604 0.79688 0.88158 0.0
C3652 C 0.03712 0.82237 0.8745 0.0
C3653 C 0.96362 0.81477 0.88378 0.0
C3654 C 0.97108 0.85918 0.87908 0.0
H3655 H 0.99123 0.76507 0.8862 0.0
H3656 H 0.93508 0.79601 0.89002 0.0
S3657 S 0.07273 0.93954 0.85988 0.0
N3658 N 0.08234 0.89348 0.86253 0.0
N3659 N 0.02216 0.9272 0.86674 0.0
C3660 C 1.01045 0.88345 0.8715 0.0
C3661 C 0.04325 0.86511 0.86922 0.0
C3662 C 0.2864 0.23398 0.86912 0.0
C3663 C 0.26816 0.25495 0.87689 0.0
C3664 C 0.27751 0.18529 0.87049 0.0
C3665 C 0.24791 0.15477 0.87935 0.0
H3666 H 0.30971 0.25603 0.86226 0.0
H3667 H 0.29571 0.17223 0.86491 0.0
S3668 S 0.19273 0.1909 0.90226 0.0
N3669 N 0.22247 0.24057 0.89446 0.0
N3670 N 0.20026 0.14876 0.89583 0.0
C3671 C 0.22776 0.17444 0.8868 0.0
C3672 C 0.2393 0.22441 0.8859 0.0
C3673 C 0.86231 0.10645 0.87786 0.0
C3674 C 0.85004 0.06 0.87364 0.0
C3675 C 0.91129 0.14237 0.88015 0.0
C3676 C 0.95044 0.13323 0.87851 0.0
H3677 H 0.8339 0.11391 0.88037 0.0
H3678 H 0.91806 0.17576 0.88434 0.0
S3679 S 0.93883 0.01934 0.86639 0.0
N3680 N 0.88194 1.00898 0.86669 0.0
N3681 N 0.97353 0.07531 0.87143 0.0
C3682 C 0.93912 0.08836 0.87345 0.0
C3683 C 0.88915 0.05203 0.87098 0.0
C3684 C 0.97251 0.43957 0.71186 0.0
C3685 C 0.93706 0.39253 0.70822 0.0
C3686 C 0.96069 0.47653 0.71405 0.0
C3687 C 0.91244 0.46821 0.71287 0.0
H3688 H 1.00868 0.44699 0.71398 0.0
H3689 H 0.98876 0.51065 0.71772 0.0
S3690 S 0.80721 0.35396 0.70177 0.0
N3691 N 0.85278 0.3421 0.70201 0.0
N3692 N 0.8301 0.41059 0.70651 0.0
C3693 C 0.87745 0.42273 0.70832 0.0
C3694 C 0.88976 0.38519 0.70598 0.0
C3695 C 0.66731 0.50137 0.70445 0.0
C3696 C 0.64303 0.48507 0.71491 0.0
C3697 C 0.69872 0.55198 0.70219 0.0
C3698 C 0.70754 0.58789 0.7104 0.0
H3699 H 0.66502 0.47478 0.69833 0.0
H3700 H 0.71937 0.56263 0.69439 0.0
S3701 S 0.65012 0.5646 0.73876 0.0
N3702 N 0.62693 0.50957 0.73307 0.0
N3703 N 0.68698 0.60324 0.72913 0.0
C3704 C 0.68121 0.57198 0.72059 0.0
C3705 C 0.6487 0.52105 0.72276 0.0
C3706 C 0.52695 0.14501 0.72015 0.0
C3707 C 0.50919 0.15066 0.70966 0.0
C3708 C 0.57725 0.16366 0.72212 0.0
C3709 C 0.6126 0.18913 0.71371 0.0
H3710 H 0.50203 0.12949 0.72722 0.0
H3711 H 0.58896 0.16172 0.73061 0.0
S3712 S 0.58539 0.2093 0.68439 0.0
N3713 N 0.53083 0.17972 0.69043 0.0
N3714 N 0.62556 0.21481 0.69411 0.0
C3715 C 0.59514 0.19145 0.7029 0.0
C3716 C 0.54348 0.17221 0.70087 0.0
C3717 C 0.14923 0.29239 0.11352 0.0
C3718 C 0.14245 0.24651 0.11699 0.0
C3719 C 0.11445 0.30688 0.11599 0.0
C3720 C 0.07169 0.27645 0.12216 0.0
H3721 H 0.1794 0.31529 0.10796 0.0
H3722 H 0.11904 0.34026 0.11222 0.0
S3723 S 0.03791 0.15441 0.13389 0.0
N3724 N 0.09058 0.17196 0.12741 0.0
N3725 N 0.02637 0.19986 0.13236 0.0
C3726 C 0.06632 0.23225 0.1264 0.0
C3727 C 0.10142 0.21718 0.12377 0.0
C3728 C 0.89533 0.93221 0.12212 0.0
C3729 C 0.86049 0.94431 0.11813 0.0
C3730 C 0.88211 0.88316 0.12471 0.0
C3731 C 0.83355 0.84381 0.12343 0.0
H3732 H 0.9338 0.95998 0.12224 0.0
H3733 H 0.91096 0.87551 0.12692 0.0
S3734 S 0.72819 0.85581 0.11374 0.0
N3735 N 0.77457 0.9127 0.11373 0.0
N3736 N 0.75069 0.82136 0.11823 0.0
C3737 C 0.79807 0.85592 0.12014 0.0
C3738 C 0.81128 0.90578 0.11762 0.0
C3739 C 0.2443 0.99553 0.12482 0.0
C3740 C 0.25722 0.04233 0.12065 0.0
C3741 C 0.19747 0.95443 0.12266 0.0
C3742 C 0.16091 0.95904 0.11677 0.0
H3743 H 0.27122 0.98994 0.12916 0.0
H3744 H 0.19054 0.91844 0.12516 0.0
S3745 S 0.17313 0.07348 0.10526 0.0
N3746 N 0.22714 0.09035 0.11094 0.0
N3747 N 0.13949 0.01423 0.10762 0.0
C3748 C 0.17196 1.00596 0.11341 0.0
C3749 C 0.21983 0.04724 0.11519 0.0
C3750 C 0.91721 0.02714 0.61755 0.0
C3751 C 0.88497 0.97625 0.61798 0.0
C3752 C 0.90143 0.06064 0.61998 0.0
C3753 C 0.85294 0.04582 0.62321 0.0
H3754 H 0.95397 0.04131 0.61426 0.0
H3755 H 0.92691 0.09864 0.61849 0.0
S3756 S 0.75656 0.91687 0.62821 0.0
N3757 N 0.80358 0.91231 0.62352 0.0
N3758 N 0.77508 0.9761 0.62866 0.0
C3759 C 0.8218 0.99523 0.625 0.0
C3760 C 0.83755 0.96039 0.62227 0.0
C3761 C 0.10627 0.92822 0.62579 0.0
C3762 C 0.13693 0.94515 0.61622 0.0
C3763 C 0.07477 0.87751 0.62777 0.0
C3764 C 0.07239 0.84196 0.62017 0.0
H3765 H 0.10363 0.95433 0.63127 0.0
H3766 H 0.04907 0.86635 0.63472 0.0
S3767 S 0.1464 0.8668 0.59415 0.0
N3768 N 0.16486 0.92171 0.59953 0.0
N3769 N 0.10458 0.82747 0.60293 0.0
C3770 C 0.1046 0.85843 0.61092 0.0
C3771 C 0.13717 0.90966 0.60904 0.0
C3772 C 0.23102 0.23711 0.62615 0.0
C3773 C 0.26846 0.27675 0.62012 0.0
C3774 C 0.18083 0.21966 0.62382 0.0
C3775 C 0.16607 0.24114 0.61536 0.0
H3776 H 0.24053 0.21671 0.632 0.0
H3777 H 0.15357 0.18654 0.62797 0.0
S3778 S 0.24974 0.34647 0.59738 0.0
N3779 N 0.287 0.33751 0.60558 0.0
N3780 N 0.19353 0.30545 0.60128 0.0
C3781 C 0.20325 0.2825 0.60976 0.0
C3782 C 0.2541 0.30001 0.6121 0.0
C3783 C 0.63705 0.15956 0.21717 0.0
C3784 C 0.64359 0.20295 0.21213 0.0
C3785 C 0.66918 0.1415 0.21494 0.0
C3786 C 0.70852 0.16501 0.20731 0.0
H3787 H 0.60968 0.14196 0.22371 0.0
H3788 H 0.66548 0.11126 0.21996 0.0
S3789 S 0.74205 0.27989 0.19188 0.0
N3790 N 0.6929 0.26905 0.19917 0.0
N3791 N 0.75171 0.23394 0.19463 0.0
C3792 C 0.71388 0.20689 0.20175 0.0
C3793 C 0.68177 0.22597 0.2042 0.0
C3794 C 0.9595 0.5745 0.21989 0.0
C3795 C 0.94797 0.59077 0.20988 0.0
C3796 C 0.94109 0.52429 0.22212 0.0
C3797 C 0.90969 0.48743 0.2145 0.0
H3798 H 0.97977 0.60068 0.22651 0.0
H3799 H 0.94819 0.51401 0.23033 0.0
S3800 S 0.87053 0.51025 0.1867 0.0
N3801 N 0.90547 0.5658 0.19194 0.0
N3802 N 0.87064 0.47154 0.19611 0.0
C3803 C 0.90061 0.50329 0.2041 0.0
C3804 C 0.91971 0.55478 0.2018 0.0
C3805 C 0.54916 0.38592 0.20451 0.0
C3806 C 0.51263 0.39556 0.20851 0.0
C3807 C 0.59938 0.41794 0.20682 0.0
C3808 C 0.61533 0.46116 0.21317 0.0
H3809 H 0.53859 0.3513 0.20041 0.0
H3810 H 0.6255 0.40664 0.20444 0.0
S3811 S 0.53473 0.5044 0.22513 0.0
N3812 N 0.49641 0.45235 0.2188 0.0
N3813 N 0.59026 0.51288 0.22288 0.0
C3814 C 0.57941 0.47273 0.21656 0.0
C3815 C 0.52831 0.43988 0.21431 0.0
C3816 C 0.54154 0.43654 0.03372 0.0
C3817 C 0.57002 0.45976 0.04329 0.0
C3818 C 0.52731 0.38778 0.03116 0.0
C3819 C 0.54089 0.36025 0.03811 0.0
H3820 H 0.5316 0.45677 0.02796 0.0
H3821 H 0.5084 0.37252 0.02327 0.0
S3822 S 0.60718 0.40156 0.06534 0.0
N3823 N 0.60494 0.44986 0.06065 0.0
N3824 N 0.57865 0.35789 0.05582 0.0
C3825 C 0.56513 0.38153 0.04831 0.0
C3826 C 0.57956 0.43143 0.05092 0.0
C3827 C 0.72944 0.19593 0.04438 0.0
C3828 C 0.74292 0.2365 0.03738 0.0
C3829 C 0.68011 0.16474 0.04728 0.0
C3830 C 0.64212 0.17128 0.04282 0.0
H3831 H 0.75656 0.18626 0.04697 0.0
H3832 H 0.67194 0.13394 0.05253 0.0
S3833 S 0.66173 0.28074 0.02679 0.0
N3834 N 0.7172 0.28843 0.02822 0.0
N3835 N 0.624 0.2285 0.03312 0.0
C3836 C 0.6563 0.21509 0.03689 0.0
C3837 C 0.70677 0.24778 0.03428 0.0
C3838 C 0.93552 0.55213 0.04936 0.0
C3839 C 0.93557 0.51634 0.04222 0.0
C3840 C 0.9078 0.57452 0.04674 0.0
C3841 C 0.87739 0.56008 0.0372 0.0
H3842 H 0.95868 0.56471 0.05673 0.0
H3843 H 0.91203 0.60487 0.05188 0.0
S3844 S 0.8501 0.45616 0.01822 0.0
N3845 N 0.8931 0.45948 0.02677 0.0
N3846 N 0.8399 0.50064 0.02214 0.0
C3847 C 0.87167 0.51984 0.03093 0.0
C3848 C 0.90066 0.49778 0.03343 0.0
C3849 C 0.46149 0.6168 0.45879 0.0
C3850 C 0.46741 0.58003 0.45346 0.0
C3851 C 0.41531 0.60875 0.46198 0.0
C3852 C 0.37263 0.56328 0.46019 0.0
H3853 H 0.49298 0.65174 0.46102 0.0
H3854 H 0.41338 0.63784 0.46641 0.0
S3855 S 0.36567 0.45896 0.44409 0.0
N3856 N 0.42468 0.49998 0.44445 0.0
N3857 N 0.33814 0.48359 0.4511 0.0
C3858 C 0.37709 0.52783 0.45389 0.0
C3859 C 0.42437 0.53648 0.45041 0.0
C3860 C 0.53051 0.87143 0.46787 0.0
C3861 C 0.56512 0.86822 0.46102 0.0
C3862 C 0.50863 0.89864 0.46449 0.0
C3863 C 0.52229 0.92573 0.45437 0.0
H3864 H 0.522 0.8546 0.47615 0.0
H3865 H 0.483 0.90068 0.47022 0.0
S3866 S 0.59631 0.91312 0.43168 0.0
N3867 N 0.60154 0.8825 0.44239 0.0
N3868 N 0.56092 0.93467 0.43609 0.0
C3869 C 0.55143 0.91695 0.44677 0.0
C3870 C 0.57295 0.88813 0.45012 0.0
C3871 C 0.20449 0.72102 0.44942 0.0
C3872 C 0.23888 0.73691 0.45823 0.0
C3873 C 0.17558 0.67086 0.44684 0.0
C3874 C 0.17817 0.63466 0.45338 0.0
H3875 H 0.19763 0.74712 0.44499 0.0
H3876 H 0.14919 0.66052 0.4401 0.0
S3877 S 0.27107 0.65917 0.47555 0.0
N3878 N 0.28093 0.71404 0.47196 0.0
N3879 N 0.22524 0.61983 0.46756 0.0
C3880 C 0.21615 0.65084 0.4614 0.0
C3881 C 0.24654 0.70191 0.46377 0.0
C3882 C 0.55127 0.66196 0.96699 0.0
C3883 C 0.53154 0.6391 0.9566 0.0
C3884 C 0.56444 0.71099 0.96893 0.0
C3885 C 0.55894 0.73923 0.96048 0.0
H3886 H 0.556 0.64163 0.97371 0.0
H3887 H 0.57673 0.72625 0.97728 0.0
S3888 S 0.51604 0.69878 0.93124 0.0
N3889 N 0.51272 0.64997 0.93732 0.0
N3890 N 0.53712 0.74226 0.94097 0.0
C3891 C 0.543 0.71804 0.94976 0.0
C3892 C 0.52958 0.66796 0.9478 0.0
C3893 C 0.4038 0.85552 0.94975 0.0
C3894 C 0.37412 0.85722 0.9584 0.0
C3895 C 0.45212 0.89409 0.94823 0.0
C3896 C 0.47234 0.93494 0.95544 0.0
H3897 H 0.39023 0.82326 0.94446 0.0
H3898 H 0.47438 0.89111 0.94166 0.0
S3899 S 0.40833 0.95829 0.97877 0.0
N3900 N 0.36716 0.90415 0.97378 0.0
N3901 N 0.45791 0.97649 0.97096 0.0
C3902 C 0.44227 0.93798 0.96378 0.0
C3903 C 0.39309 0.89905 0.96525 0.0
C3904 C 0.16269 0.53188 0.95945 0.0
C3905 C 0.17437 0.57816 0.95515 0.0
C3906 C 0.19955 0.5206 0.96204 0.0
C3907 C 0.24929 0.55543 0.96047 0.0
H3908 H 0.12527 0.50528 0.9615 0.0
H3909 H 0.18928 0.48568 0.96596 0.0
S3910 S 0.29861 0.67955 0.94825 0.0
N3911 N 0.23865 0.65716 0.94853 0.0
N3912 N 0.30805 0.63638 0.95354 0.0
C3913 C 0.26117 0.60081 0.95566 0.0
C3914 C 0.22369 0.61216 0.953 0.0
C3915 C 0.67541 0.56547 0.53343 0.0
C3916 C 0.64787 0.53291 0.54212 0.0
C3917 C 0.72409 0.57731 0.53137 0.0
C3918 C 0.74664 0.55665 0.53787 0.0
H3919 H 0.65854 0.58021 0.5279 0.0
H3920 H 0.74317 0.60031 0.5242 0.0
S3921 S 0.69031 0.47049 0.56176 0.0
N3922 N 0.64695 0.48188 0.55753 0.0
N3923 N 0.73811 0.50326 0.55352 0.0
C3924 C 0.72009 0.52577 0.54688 0.0
C3925 C 0.67071 0.5141 0.54904 0.0
C3926 C 0.60121 0.19449 0.53141 0.0
C3927 C 0.58818 0.16673 0.54145 0.0
C3928 C 0.58111 0.22406 0.52866 0.0
C3929 C 0.54763 0.22757 0.53586 0.0
H3930 H 0.62474 0.19119 0.52525 0.0
H3931 H 0.58972 0.24222 0.52053 0.0
S3932 S 0.50871 0.17101 0.56409 0.0
N3933 N 0.54541 0.15143 0.55943 0.0
N3934 N 0.50704 0.20648 0.55404 0.0
C3935 C 0.53766 0.20393 0.54635 0.0
C3936 C 0.55809 0.17364 0.54919 0.0
C3937 C 0.88548 0.4484 0.54037 0.0
C3938 C 0.93402 0.46003 0.5383 0.0
C3939 C 0.8462 0.40064 0.5386 0.0
C3940 C 0.85402 0.36279 0.53466 0.0
H3941 H 0.87778 0.47657 0.54322 0.0
H3942 H 0.8092 0.39359 0.53996 0.0
S3943 S 0.97369 0.37518 0.5271 0.0
N3944 N 0.98723 0.43032 0.53148 0.0
N3945 N 0.91378 0.34059 0.52852 0.0
C3946 C 0.90242 0.37373 0.5328 0.0
C3947 C 0.94231 0.42239 0.5345 0.0
C3948 C 0.24953 0.73017 0.3622 0.0
C3949 C 0.21427 0.69418 0.36931 0.0
C3950 C 0.27245 0.78003 0.36505 0.0
C3951 C 0.25961 0.79589 0.37492 0.0
H3952 H 0.25778 0.71983 0.35413 0.0
H3953 H 0.29824 0.80636 0.35911 0.0
S3954 S 0.17868 0.7143 0.39768 0.0
N3955 N 0.17432 0.67636 0.38754 0.0
N3956 N 0.21725 0.77 0.393 0.0
C3957 C 0.22846 0.75957 0.38269 0.0
C3958 C 0.20558 0.70871 0.37982 0.0
C3959 C 0.38982 0.56941 0.38045 0.0
C3960 C 0.41341 0.57284 0.37012 0.0
C3961 C 0.34148 0.53118 0.38244 0.0
C3962 C 0.31504 0.49611 0.37405 0.0
H3963 H 0.40789 0.59774 0.38677 0.0
H3964 H 0.32382 0.53059 0.39032 0.0
S3965 S 0.36267 0.48635 0.34619 0.0
N3966 N 0.40846 0.53587 0.35191 0.0
N3967 N 0.31811 0.46443 0.35561 0.0
C3968 C 0.33941 0.49777 0.36401 0.0
C3969 C 0.38849 0.53611 0.36205 0.0
C3970 C 0.58136 0.91024 0.36787 0.0
C3971 C 0.53191 0.87444 0.3694 0.0
C3972 C 0.61891 0.8996 0.37013 0.0
C3973 C 0.60815 0.853 0.37403 0.0
H3974 H 0.59085 0.94542 0.3642 0.0
H3975 H 0.65621 0.92701 0.36815 0.0
S3976 S 0.4852 0.7497 0.38103 0.0
N3977 N 0.47456 0.79269 0.37616 0.0
N3978 N 0.54525 0.77297 0.38046 0.0
C3979 C 0.5592 0.81815 0.37623 0.0
C3980 C 0.52106 0.82891 0.37395 0.0
C3981 C 0.10104 0.87483 0.78054 0.0
C3982 C 0.13658 0.91431 0.78706 0.0
C3983 C 0.05051 0.8525 0.78296 0.0
C3984 C 0.03329 0.87038 0.79163 0.0
H3985 H 0.11224 0.8593 0.77385 0.0
H3986 H 0.02516 0.81941 0.77848 0.0
S3987 S 0.10785 0.97977 0.80917 0.0
N3988 N 0.14859 0.97496 0.80133 0.0
N3989 N 0.05385 0.93422 0.8054 0.0
C3990 C 0.0674 0.91305 0.79725 0.0
C3991 C 0.11886 0.93493 0.79505 0.0
C3992 C 0.19113 0.193 0.78394 0.0
C3993 C 0.22441 0.19794 0.79247 0.0
C3994 C 0.18063 0.23083 0.7818 0.0
C3995 C 0.20241 0.27398 0.78829 0.0
H3996 H 0.17101 0.1587 0.77941 0.0
H3997 H 0.15327 0.22513 0.77551 0.0
S3998 S 0.29384 0.30498 0.81106 0.0
N3999 N 0.28124 0.25002 0.80683 0.0
N4000 N 0.26056 0.32025 0.80308 0.0
C4001 C 0.23742 0.28 0.79641 0.0
C4002 C 0.24872 0.24215 0.79843 0.0
C4003 C 0.87279 0.06058 0.78557 0.0
C4004 C 0.91097 0.07293 0.79331 0.0
C4005 C 0.84037 1.0114 0.7827 0.0
C4006 C 0.84402 0.9726 0.7877 0.0
H4007 H 0.8656 0.08866 0.78239 0.0
H4008 H 0.81071 1.00398 0.77705 0.0
S4009 S 0.94461 0.98749 0.8067 0.0
N4010 N 0.95581 0.04396 0.80451 0.0
N4011 N 0.89489 0.95163 0.7993 0.0
C4012 C 0.88532 0.98528 0.79456 0.0
C4013 C 0.91864 0.03537 0.79734 0.0
C4014 C 0.24093 0.99987 0.29473 0.0
C4015 C 0.20907 0.97243 0.2859 0.0
C4016 C 0.25089 0.04774 0.29712 0.0
C4017 C 0.22899 0.06953 0.29079 0.0
H4018 H 0.25607 0.98323 0.30022 0.0
H4019 H 0.27286 0.06637 0.30446 0.0
S4020 S 0.14531 0.01392 0.26643 0.0
N4021 N 0.15827 0.97138 0.27043 0.0
N4022 N 0.1763 0.06104 0.27498 0.0
C4023 C 0.1995 0.0435 0.28154 0.0
C4024 C 0.18969 0.99495 0.27907 0.0
C4025 C 0.1175 0.21711 0.28641 0.0
C4026 C 0.13094 0.26626 0.28847 0.0
C4027 C 0.06942 0.17871 0.28843 0.0
C4028 C 0.03277 0.18783 0.29261 0.0
H4029 H 0.1447 0.20814 0.2835 0.0
H4030 H 0.06135 0.14131 0.2872 0.0
S4031 S 0.04954 0.30899 0.30037 0.0
N4032 N 0.10375 0.32114 0.2956 0.0
N4033 N 1.01353 0.24923 0.29904 0.0
C4034 C 0.04532 0.23669 0.29447 0.0
C4035 C 0.09434 0.27579 0.29252 0.0
C4036 C 0.92548 0.94521 0.29781 0.0
C4037 C 0.92392 0.90191 0.29419 0.0
C4038 C 0.88859 0.95554 0.2948 0.0
C4039 C 0.84884 0.92331 0.28798 0.0
H4040 H 0.95321 0.96922 0.30378 0.0
H4041 H 0.88982 0.98754 0.29844 0.0
S4042 S 0.83579 0.81145 0.27397 0.0
N4043 N 0.88491 0.83094 0.28196 0.0
N4044 N 0.81707 0.8515 0.27576 0.0
C4045 C 0.85081 0.88324 0.28313 0.0
C4046 C 0.88811 0.87237 0.28634 0.0
C4047 C 0.34926 0.89841 0.87714 0.0
C4048 C 0.30931 0.85089 0.87514 0.0
C4049 C 0.39778 0.91126 0.87432 0.0
C4050 C 0.40827 0.87648 0.86967 0.0
H4051 H 0.34315 0.92679 0.88025 0.0
H4052 H 0.4265 0.94921 0.87506 0.0
S4053 S 0.32033 0.74446 0.86573 0.0
N4054 N 0.28599 0.76722 0.87013 0.0
N4055 N 0.37693 0.7909 0.86528 0.0
C4056 C 0.36983 0.82779 0.86893 0.0
C4057 C 0.32052 0.81505 0.87153 0.0
C4058 C 0.28281 0.58399 0.86949 0.0
C4059 C 0.23696 0.58103 0.87075 0.0
C4060 C 0.29002 0.54522 0.87267 0.0
C4061 C 0.25176 0.50174 0.87737 0.0
H4062 H 0.31287 0.61568 0.86548 0.0
H4063 H 0.32535 0.54869 0.87088 0.0
S4064 S 0.12746 0.48009 0.88456 0.0
N4065 N 0.15456 0.53402 0.87833 0.0
N4066 N 0.16861 0.46224 0.88479 0.0
C4067 C 0.20723 0.50059 0.87971 0.0
C4068 C 0.19972 0.53994 0.87633 0.0
C4069 C 0.5729 0.70478 0.87662 0.0
C4070 C 0.53528 0.69132 0.86867 0.0
C4071 C 0.60394 0.75427 0.87951 0.0
C4072 C 0.59995 0.79238 0.87423 0.0
H4073 H 0.58046 0.67735 0.88007 0.0
H4074 H 0.63256 0.76244 0.88551 0.0
S4075 S 0.49863 0.77427 0.85513 0.0
N4076 N 0.48901 0.71834 0.85735 0.0
N4077 N 0.54818 0.8113 0.86245 0.0
C4078 C 0.55894 0.77853 0.86721 0.0
C4079 C 0.52665 0.72808 0.86448 0.0
C4080 C 0.86148 0.03542 0.70783 0.0
C4081 C 0.89698 0.02499 0.70367 0.0
C4082 C 0.87416 0.08369 0.71081 0.0
C4083 C 0.92206 0.12376 0.70932 0.0
H4084 H 0.8233 1.0069 0.70813 0.0
H4085 H 0.84552 0.0895 0.71375 0.0
S4086 S 0.03044 0.11202 0.70238 0.0
N4087 N 0.98379 0.05585 0.70101 0.0
N4088 N 1.00686 0.14665 0.70598 0.0
C4089 C 0.95852 0.1125 0.70636 0.0
C4090 C 0.94604 0.06322 0.70369 0.0
C4091 C 0.98289 0.87216 0.70142 0.0
C4092 C 0.97334 0.83366 0.70893 0.0
C4093 C 0.03083 0.90697 0.6984 0.0
C4094 C 0.0713 0.90477 0.70272 0.0
H4095 H 0.95318 0.8739 0.69725 0.0
H4096 H 0.0361 0.93347 0.69193 0.0
S4097 S 0.06805 0.8205 0.72487 0.0
N4098 N 1.00981 0.80276 0.72247 0.0
N4099 N 0.09986 0.86722 0.71633 0.0
C4100 C 0.063 0.87055 0.71121 0.0
C4101 C 1.01399 0.83515 0.71441 0.0
C4102 C 0.2847 0.22778 0.69979 0.0
C4103 C 0.27832 0.194 0.70828 0.0
C4104 C 0.24861 0.24042 0.69768 0.0
C4105 C 0.2046 0.21892 0.70384 0.0
H4106 H 0.31679 0.2429 0.69444 0.0
H4107 H 0.25374 0.26475 0.6907 0.0
S4108 S 0.1706 0.12841 0.72694 0.0
N4109 N 0.22592 0.14033 0.72307 0.0
N4110 N 0.157 0.16282 0.71886 0.0
C4111 C 0.19855 0.18634 0.7126 0.0
C4112 C 0.23571 0.17405 0.71486 0.0
C4113 C 0.78741 0.28087 0.12178 0.0
C4114 C 0.79725 0.24198 0.1209 0.0
C4115 C 0.74017 0.27252 0.12426 0.0
C4116 C 0.70032 0.22479 0.12592 0.0
H4117 H 0.81684 0.31837 0.12087 0.0
H4118 H 0.73523 0.30393 0.1254 0.0
S4119 S 0.7048 0.10977 0.1241 0.0
N4120 N 0.76167 0.15343 0.12159 0.0
N4121 N 0.67311 0.138 0.12595 0.0
C4122 C 0.70873 0.1854 0.12442 0.0
C4123 C 0.75705 0.1939 0.12201 0.0
C4124 C 0.84748 0.52302 0.11617 0.0
C4125 C 0.88455 0.52671 0.12345 0.0
C4126 C 0.84042 0.56313 0.1143 0.0
C4127 C 0.87011 0.6082 0.11969 0.0
H4128 H 0.82203 0.48804 0.11239 0.0
H4129 H 0.80993 0.55811 0.1091 0.0
S4130 S 0.97311 0.63726 0.13925 0.0
N4131 N 0.9526 0.57957 0.13565 0.0
N4132 N 0.9387 0.65461 0.13235 0.0
C4133 C 0.90868 0.61303 0.12657 0.0
C4134 C 0.91619 0.57236 0.12838 0.0
C4135 C 0.5404 0.39046 0.11828 0.0
C4136 C 0.56994 0.40621 0.12794 0.0
C4137 C 0.51215 0.34036 0.11575 0.0
C4138 C 0.51041 0.30424 0.12311 0.0
H4139 H 0.5373 0.41675 0.11295 0.0
H4140 H 0.49017 0.33009 0.10822 0.0
S4141 S 0.59399 0.32911 0.14744 0.0
N4142 N 0.60569 0.3839 0.14328 0.0
N4143 N 0.55082 0.28948 0.13891 0.0
C4144 C 0.54454 0.32034 0.13203 0.0
C4145 C 0.57436 0.37143 0.13441 0.0
C4146 C 0.90277 0.33288 0.63023 0.0
C4147 C 0.86927 0.30577 0.62167 0.0
C4148 C 0.9166 0.38199 0.6322 0.0
C4149 C 0.89757 0.40578 0.62561 0.0
H4150 H 0.91728 0.31566 0.63567 0.0
H4151 H 0.93982 0.40055 0.63939 0.0
S4152 S 0.81423 0.35277 0.60111 0.0
N4153 N 0.82199 0.30753 0.6057 0.0
N4154 N 0.84734 0.40001 0.60949 0.0
C4155 C 0.86704 0.38019 0.61647 0.0
C4156 C 0.85311 0.33009 0.61445 0.0
C4157 C 0.76807 0.59338 0.61492 0.0
C4158 C 0.80463 0.59474 0.6221 0.0
C4159 C 0.71793 0.56521 0.6176 0.0
C4160 C 0.70264 0.53572 0.62729 0.0
H4161 H 0.77809 0.61577 0.60745 0.0
H4162 H 0.69141 0.56883 0.61247 0.0
S4163 S 0.78096 0.51562 0.64726 0.0
N4164 N 0.81997 0.557 0.63836 0.0
N4165 N 0.72597 0.50211 0.64286 0.0
C4166 C 0.73789 0.53167 0.63366 0.0
C4167 C 0.78882 0.56143 0.63119 0.0
C4168 C 0.5408 0.19009 0.62317 0.0
C4169 C 0.58946 0.22844 0.624 0.0
C4170 C 0.50293 0.1997 0.62054 0.0
C4171 C 0.51211 0.24782 0.61875 0.0
H4172 H 0.53151 0.15297 0.62532 0.0
H4173 H 0.46614 0.16953 0.62069 0.0
S4174 S 0.63466 0.35966 0.61802 0.0
N4175 N 0.64598 0.31529 0.62133 0.0
N4176 N 0.57454 0.3333 0.61657 0.0
C4177 C 0.56112 0.28586 0.61874 0.0
C4178 C 0.59978 0.27611 0.6213 0.0
C4179 C 0.99277 0.1576 0.21207 0.0
C4180 C 0.97365 0.18433 0.20672 0.0
C4181 C 0.04139 0.16868 0.21009 0.0
C4182 C 0.07226 0.20723 0.20284 0.0
H4183 H 0.96952 0.12695 0.21748 0.0
H4184 H 0.05413 0.14557 0.21379 0.0
S4185 S 0.03977 0.28747 0.18677 0.0
N4186 N 0.98943 0.25045 0.19382 0.0
N4187 N 0.08078 0.27204 0.19044 0.0
C4188 C 0.05405 0.23515 0.19782 0.0
C4189 C 1.00468 0.22348 0.19967 0.0
C4190 C 0.86625 0.85794 0.19652 0.0
C4191 C 0.88202 0.89908 0.20356 0.0
C4192 C 0.8778 0.82122 0.199 0.0
C4193 C 0.90561 0.82446 0.20859 0.0
H4194 H 0.84735 0.85559 0.1887 0.0
H4195 H 0.86647 0.79101 0.19316 0.0
S4196 S 0.95236 0.92252 0.23015 0.0
N4197 N 0.92426 0.93928 0.22087 0.0
N4198 N 0.9455 0.86987 0.22556 0.0
C4199 C 0.91887 0.86363 0.21606 0.0
C4200 C 0.90726 0.90115 0.21352 0.0
C4201 C 0.24419 0.03908 0.21247 0.0
C4202 C 0.20323 0.02436 0.20551 0.0
C4203 C 0.27491 0.08873 0.21512 0.0
C4204 C 0.26728 0.12571 0.2105 0.0
H4205 H 0.25453 0.01263 0.2152 0.0
H4206 H 0.30623 0.09789 0.22026 0.0
S4207 S 0.15689 0.10276 0.19431 0.0
N4208 N 0.15022 0.04786 0.19604 0.0
N4209 N 0.20892 0.14166 0.20058 0.0
C4210 C 0.22311 0.1103 0.20458 0.0
C4211 C 0.19107 0.05954 0.20217 0.0
loop_
_geom_bond_atom_site_label_1
_geom_bond_atom_site_label_2
_geom_bond_distance
_geom_bond_site_symmetry_2
_ccdc_geom_bond_type
C0 C2 1.422 . S
C0 C4 1.415 . S
C0 N6 1.369 . S
C1 C2 1.421 . S
C1 C3 1.417 . S
C1 C13 1.422 . S
C2 C0 1.422 . S
C2 C1 1.421 . S
C2 N12 1.359 . S
C3 C1 1.417 . S
C3 C5 1.329 . S
C3 H22 0.930 1_545 S
C4 C0 1.415 . S
C4 C5 1.437 . S
C4 C8 1.413 . S
C5 C3 1.329 . S
C5 C4 1.437 . S
C5 H27 0.929 1_545 S
N6 C0 1.369 . S
N6 C7 1.338 . S
N6 Gd11 2.622 . S
C7 N6 1.338 . S
C7 C9 1.378 . S
C7 H19 0.929 . S
C8 C4 1.413 . S
C8 C9 1.348 . S
C8 H24 0.931 1_554 S
C9 C7 1.378 . S
C9 C8 1.348 . S
C9 H25 0.930 1_554 S
Gd10 N30 2.622 . S
Gd10 N37 2.570 . S
Gd10 O44 2.353 1_545 S
Gd10 O45 2.468 1_545 S
Gd10 O46 2.427 1_545 S
Gd10 O48 2.388 . S
Gd10 O49 2.386 . S
Gd10 O53 2.307 . S
Gd10 C63 2.805 1_545 S
Gd11 N6 2.622 . S
Gd11 N12 2.570 . S
Gd11 O43 2.386 1_545 S
Gd11 O47 2.307 . S
Gd11 O50 2.353 . S
Gd11 O51 2.468 . S
Gd11 O52 2.427 . S
Gd11 O54 2.388 . S
Gd11 C75 2.805 . S
N12 C2 1.359 . S
N12 Gd11 2.570 . S
N12 C14 1.343 . S
C13 C1 1.422 . S
C13 C15 1.321 . S
C13 H21 0.931 . S
C14 N12 1.343 . S
C14 C15 1.390 . S
C14 H16 0.931 . S
C15 C13 1.321 . S
C15 C14 1.390 . S
C15 H17 0.930 . S
H16 C14 0.931 . S
H17 C15 0.930 . S
H18 C41 0.931 . S
H19 C7 0.929 . S
H20 C42 0.930 . S
H21 C13 0.931 . S
H22 C3 0.930 1_565 S
H23 C32 0.929 . S
H24 C8 0.931 1_556 S
H25 C9 0.930 1_556 S
H26 C64 0.930 . S
H27 C5 0.929 1_565 S
H28 C33 0.931 . S
H29 C34 0.930 . S
N30 Gd10 2.622 . S
N30 C31 1.369 . S
N30 C32 1.338 . S
C31 N30 1.369 . S
C31 C35 1.415 . S
C31 C38 1.422 . S
C32 H23 0.929 . S
C32 N30 1.338 . S
C32 C34 1.378 . S
C33 H28 0.931 . S
C33 C34 1.348 . S
C33 C35 1.413 . S
C34 H29 0.930 . S
C34 C32 1.378 . S
C34 C33 1.348 . S
C35 C31 1.415 . S
C35 C33 1.413 . S
C35 C65 1.437 . S
H36 C65 0.929 . S
N37 Gd10 2.570 . S
N37 C38 1.359 . S
N37 C41 1.343 . S
C38 C31 1.422 . S
C38 N37 1.359 . S
C38 C40 1.421 . S
C39 C40 1.422 . S
C39 C42 1.321 . S
C39 H66 0.931 . S
C40 C38 1.421 . S
C40 C39 1.422 . S
C40 C64 1.417 . S
C41 H18 0.931 . S
C41 N37 1.343 . S
C41 C42 1.390 . S
C42 H20 0.930 . S
C42 C39 1.321 . S
C42 C41 1.390 . S
O43 Gd11 2.386 1_565 S
O43 C55 1.265 . S
O44 Gd10 2.353 1_565 S
O44 C55 1.242 . S
O45 Gd10 2.468 1_565 S
O45 C63 1.263 . S
O46 Gd10 2.427 1_565 S
O46 C63 1.252 . S
O47 Gd11 2.307 . S
O47 C56 1.261 . S
O48 Gd10 2.388 . S
O48 C56 1.252 . S
O49 Gd10 2.386 . S
O49 C67 1.265 . S
O50 Gd11 2.353 . S
O50 C67 1.242 . S
O51 Gd11 2.468 . S
O51 C75 1.263 . S
O52 Gd11 2.427 . S
O52 C75 1.252 . S
O53 Gd10 2.307 . S
O53 C68 1.261 . S
O54 Gd11 2.388 . S
O54 C68 1.252 . S
C55 O43 1.265 . S
C55 O44 1.242 . S
C56 O47 1.261 . S
C56 O48 1.252 . S
C57 C60 1.394 . S
C57 C62 1.370 . S
C57 C63 1.500 . S
C58 C61 1.383 . S
C58 C62 1.395 . S
C59 C60 1.396 . S
C59 C61 1.365 . S
C59 H76 0.929 . S
C60 C57 1.394 . S
C60 C59 1.396 . S
C60 H77 0.930 . S
C61 C58 1.383 . S
C61 C59 1.365 . S
C61 H78 0.931 . S
C62 C57 1.370 . S
C62 C58 1.395 . S
C62 H79 0.930 . S
C63 Gd10 2.805 1_565 S
C63 O45 1.263 . S
C63 O46 1.252 . S
C63 C57 1.500 . S
C64 H26 0.930 . S
C64 C40 1.417 . S
C64 C65 1.329 . S
C65 C35 1.437 . S
C65 H36 0.929 . S
C65 C64 1.329 . S
H66 C39 0.931 . S
C67 O49 1.265 . S
C67 O50 1.242 . S
C68 O53 1.261 . S
C68 O54 1.252 . S
C69 C72 1.394 . S
C69 C74 1.370 . S
C69 C75 1.500 . S
C70 C73 1.383 . S
C70 C74 1.395 . S
C71 C72 1.396 . S
C71 C73 1.365 . S
C71 H80 0.929 . S
C72 C69 1.394 . S
C72 C71 1.396 . S
C72 H81 0.930 . S
C73 C70 1.383 . S
C73 C71 1.365 . S
C73 H82 0.931 . S
C74 C69 1.370 . S
C74 C70 1.395 . S
C74 H83 0.930 . S
C75 Gd11 2.805 . S
C75 O51 1.263 . S
C75 O52 1.252 . S
C75 C69 1.500 . S
H76 C59 0.929 . S
H77 C60 0.930 . S
H78 C61 0.931 . S
H79 C62 0.930 . S
H80 C71 0.929 . S
H81 C72 0.930 . S
H82 C73 0.931 . S
H83 C74 0.930 . S
C84 C86 1.422 . S
C84 C88 1.415 . S
C84 N90 1.369 . S
C85 C86 1.421 . S
C85 C87 1.417 . S
C85 C97 1.422 . S
C86 C84 1.422 . S
C86 C85 1.421 . S
C86 N96 1.359 . S
C87 C85 1.417 . S
C87 C89 1.329 . S
C87 H106 0.930 . S
C88 C84 1.415 . S
C88 C89 1.437 . S
C88 C92 1.413 . S
C89 C87 1.329 . S
C89 C88 1.437 . S
C89 H111 0.929 . S
N90 C84 1.369 . S
N90 C91 1.338 . S
N90 Gd95 2.622 1_455 S
C91 N90 1.338 . S
C91 C93 1.378 . S
C91 H103 0.929 . S
C92 C88 1.413 . S
C92 C93 1.348 . S
C92 H108 0.931 1_554 S
C93 C91 1.378 . S
C93 C92 1.348 . S
C93 H109 0.930 1_554 S
Gd94 N114 2.622 . S
Gd94 N121 2.570 . S
Gd94 O128 2.353 . S
Gd94 O129 2.468 . S
Gd94 O130 2.427 . S
Gd94 O132 2.388 . S
Gd94 O133 2.386 1_455 S
Gd94 O137 2.307 . S
Gd94 C147 2.805 . S
Gd95 N90 2.622 1_655 S
Gd95 N96 2.570 1_655 S
Gd95 O127 2.386 1_655 S
Gd95 O131 2.307 1_655 S
Gd95 O134 2.353 . S
Gd95 O135 2.468 . S
Gd95 O136 2.427 . S
Gd95 O138 2.388 1_655 S
Gd95 C159 2.805 . S
N96 C86 1.359 . S
N96 Gd95 2.570 1_455 S
N96 C98 1.343 . S
C97 C85 1.422 . S
C97 C99 1.321 . S
C97 H105 0.931 . S
C98 N96 1.343 . S
C98 C99 1.390 . S
C98 H100 0.931 1_455 S
C99 C97 1.321 . S
C99 C98 1.390 . S
C99 H101 0.930 . S
H100 C98 0.931 1_655 S
H101 C99 0.930 . S
H102 C125 0.931 . S
H103 C91 0.929 . S
H104 C126 0.930 . S
H105 C97 0.931 . S
H106 C87 0.930 . S
H107 C116 0.929 . S
H108 C92 0.931 1_556 S
H109 C93 0.930 1_556 S
H110 C148 0.930 . S
H111 C89 0.929 . S
H112 C117 0.931 . S
H113 C118 0.930 . S
N114 Gd94 2.622 . S
N114 C115 1.369 . S
N114 C116 1.338 . S
C115 N114 1.369 . S
C115 C119 1.415 1_455 S
C115 C122 1.422 . S
C116 H107 0.929 . S
C116 N114 1.338 . S
C116 C118 1.378 . S
C117 H112 0.931 . S
C117 C118 1.348 1_655 S
C117 C119 1.413 . S
C118 H113 0.930 . S
C118 C116 1.378 . S
C118 C117 1.348 1_455 S
C119 C115 1.415 1_655 S
C119 C117 1.413 . S
C119 C149 1.437 . S
H120 C149 0.929 . S
N121 Gd94 2.570 . S
N121 C122 1.359 . S
N121 C125 1.343 . S
C122 C115 1.422 . S
C122 N121 1.359 . S
C122 C124 1.421 . S
C123 C124 1.422 . S
C123 C126 1.321 . S
C123 H150 0.931 1_455 S
C124 C122 1.421 . S
C124 C123 1.422 . S
C124 C148 1.417 1_455 S
C125 H102 0.931 . S
C125 N121 1.343 . S
C125 C126 1.390 . S
C126 H104 0.930 . S
C126 C123 1.321 . S
C126 C125 1.390 . S
O127 Gd95 2.386 1_455 S
O127 C139 1.265 . S
O128 Gd94 2.353 . S
O128 C139 1.242 . S
O129 Gd94 2.468 . S
O129 C147 1.263 . S
O130 Gd94 2.427 . S
O130 C147 1.252 . S
O131 Gd95 2.307 1_455 S
O131 C140 1.261 . S
O132 Gd94 2.388 . S
O132 C140 1.252 . S
O133 Gd94 2.386 1_655 S
O133 C151 1.265 . S
O134 Gd95 2.353 . S
O134 C151 1.242 . S
O135 Gd95 2.468 . S
O135 C159 1.263 . S
O136 Gd95 2.427 . S
O136 C159 1.252 . S
O137 Gd94 2.307 . S
O137 C152 1.261 . S
O138 Gd95 2.388 1_455 S
O138 C152 1.252 . S
C139 O127 1.265 . S
C139 O128 1.242 . S
C140 O131 1.261 . S
C140 O132 1.252 . S
C141 C144 1.394 . S
C141 C146 1.370 . S
C141 C147 1.500 . S
C142 C145 1.383 . S
C142 C146 1.395 . S
C143 C144 1.396 . S
C143 C145 1.365 . S
C143 H160 0.929 . S
C144 C141 1.394 . S
C144 C143 1.396 . S
C144 H161 0.930 . S
C145 C142 1.383 . S
C145 C143 1.365 . S
C145 H162 0.931 . S
C146 C141 1.370 . S
C146 C142 1.395 . S
C146 H163 0.930 . S
C147 Gd94 2.805 . S
C147 O129 1.263 . S
C147 O130 1.252 . S
C147 C141 1.500 . S
C148 H110 0.930 . S
C148 C124 1.417 1_655 S
C148 C149 1.329 . S
C149 C119 1.437 . S
C149 H120 0.929 . S
C149 C148 1.329 . S
H150 C123 0.931 1_655 S
C151 O133 1.265 . S
C151 O134 1.242 . S
C152 O137 1.261 . S
C152 O138 1.252 . S
C153 C156 1.394 . S
C153 C158 1.370 . S
C153 C159 1.500 . S
C154 C157 1.383 . S
C154 C158 1.395 . S
C155 C156 1.396 . S
C155 C157 1.365 . S
C155 H164 0.929 . S
C156 C153 1.394 . S
C156 C155 1.396 . S
C156 H165 0.930 . S
C157 C154 1.383 . S
C157 C155 1.365 . S
C157 H166 0.931 . S
C158 C153 1.370 . S
C158 C154 1.395 . S
C158 H167 0.930 . S
C159 Gd95 2.805 . S
C159 O135 1.263 . S
C159 O136 1.252 . S
C159 C153 1.500 . S
H160 C143 0.929 . S
H161 C144 0.930 . S
H162 C145 0.931 . S
H163 C146 0.930 . S
H164 C155 0.929 . S
H165 C156 0.930 . S
H166 C157 0.931 . S
H167 C158 0.930 . S
C168 C170 1.422 . S
C168 C172 1.415 . S
C168 N174 1.369 . S
C169 C170 1.421 . S
C169 C171 1.417 . S
C169 C181 1.422 . S
C170 C168 1.422 . S
C170 C169 1.421 . S
C170 N180 1.359 . S
C171 C169 1.417 . S
C171 C173 1.329 . S
C171 H190 0.930 . S
C172 C168 1.415 . S
C172 C173 1.437 . S
C172 C176 1.413 . S
C173 C171 1.329 . S
C173 C172 1.437 . S
C173 H195 0.929 . S
N174 C168 1.369 . S
N174 C175 1.338 . S
N174 Gd179 2.622 . S
C175 N174 1.338 . S
C175 C177 1.378 . S
C175 H187 0.929 . S
C176 C172 1.413 . S
C176 C177 1.348 . S
C176 H192 0.931 1_554 S
C177 C175 1.378 . S
C177 C176 1.348 . S
C177 H193 0.930 1_554 S
Gd178 N198 2.622 . S
Gd178 N205 2.570 . S
Gd178 O212 2.353 . S
Gd178 O213 2.468 . S
Gd178 O214 2.427 . S
Gd178 O216 2.388 . S
Gd178 O217 2.386 . S
Gd178 O221 2.307 . S
Gd178 C231 2.805 . S
Gd179 N174 2.622 . S
Gd179 N180 2.570 . S
Gd179 O211 2.386 . S
Gd179 O215 2.307 . S
Gd179 O218 2.353 . S
Gd179 O219 2.468 . S
Gd179 O220 2.427 . S
Gd179 O222 2.388 . S
Gd179 C243 2.805 . S
N180 C170 1.359 . S
N180 Gd179 2.570 . S
N180 C182 1.343 . S
C181 C169 1.422 . S
C181 C183 1.321 . S
C181 H189 0.931 . S
C182 N180 1.343 . S
C182 C183 1.390 . S
C182 H184 0.931 . S
C183 C181 1.321 . S
C183 C182 1.390 . S
C183 H185 0.930 . S
H184 C182 0.931 . S
H185 C183 0.930 . S
H186 C209 0.931 . S
H187 C175 0.929 . S
H188 C210 0.930 . S
H189 C181 0.931 . S
H190 C171 0.930 . S
H191 C200 0.929 . S
H192 C176 0.931 1_556 S
H193 C177 0.930 1_556 S
H194 C232 0.930 . S
H195 C173 0.929 . S
H196 C201 0.931 . S
H197 C202 0.930 . S
N198 Gd178 2.622 . S
N198 C199 1.369 . S
N198 C200 1.338 . S
C199 N198 1.369 . S
C199 C203 1.415 . S
C199 C206 1.422 . S
C200 H191 0.929 . S
C200 N198 1.338 . S
C200 C202 1.378 . S
C201 H196 0.931 . S
C201 C202 1.348 . S
C201 C203 1.413 . S
C202 H197 0.930 . S
C202 C200 1.378 . S
C202 C201 1.348 . S
C203 C199 1.415 . S
C203 C201 1.413 . S
C203 C233 1.437 . S
H204 C233 0.929 . S
N205 Gd178 2.570 . S
N205 C206 1.359 . S
N205 C209 1.343 . S
C206 C199 1.422 . S
C206 N205 1.359 . S
C206 C208 1.421 . S
C207 C208 1.422 . S
C207 C210 1.321 . S
C207 H234 0.931 . S
C208 C206 1.421 . S
C208 C207 1.422 . S
C208 C232 1.417 . S
C209 H186 0.931 . S
C209 N205 1.343 . S
C209 C210 1.390 . S
C210 H188 0.930 . S
C210 C207 1.321 . S
C210 C209 1.390 . S
O211 Gd179 2.386 . S
O211 C223 1.265 . S
O212 Gd178 2.353 . S
O212 C223 1.242 . S
O213 Gd178 2.468 . S
O213 C231 1.263 . S
O214 Gd178 2.427 . S
O214 C231 1.252 . S
O215 Gd179 2.307 . S
O215 C224 1.261 . S
O216 Gd178 2.388 . S
O216 C224 1.252 . S
O217 Gd178 2.386 . S
O217 C235 1.265 . S
O218 Gd179 2.353 . S
O218 C235 1.242 . S
O219 Gd179 2.468 . S
O219 C243 1.263 . S
O220 Gd179 2.427 . S
O220 C243 1.252 . S
O221 Gd178 2.307 . S
O221 C236 1.261 . S
O222 Gd179 2.388 . S
O222 C236 1.252 . S
C223 O211 1.265 . S
C223 O212 1.242 . S
C224 O215 1.261 . S
C224 O216 1.252 . S
C225 C228 1.394 . S
C225 C230 1.370 . S
C225 C231 1.500 . S
C226 C229 1.383 . S
C226 C230 1.395 . S
C227 C228 1.396 . S
C227 C229 1.365 . S
C227 H244 0.929 . S
C228 C225 1.394 . S
C228 C227 1.396 . S
C228 H245 0.930 . S
C229 C226 1.383 . S
C229 C227 1.365 . S
C229 H246 0.931 . S
C230 C225 1.370 . S
C230 C226 1.395 . S
C230 H247 0.930 . S
C231 Gd178 2.805 . S
C231 O213 1.263 . S
C231 O214 1.252 . S
C231 C225 1.500 . S
C232 H194 0.930 . S
C232 C208 1.417 . S
C232 C233 1.329 . S
C233 C203 1.437 . S
C233 H204 0.929 . S
C233 C232 1.329 . S
H234 C207 0.931 . S
C235 O217 1.265 . S
C235 O218 1.242 . S
C236 O221 1.261 . S
C236 O222 1.252 . S
C237 C240 1.394 . S
C237 C242 1.370 . S
C237 C243 1.500 . S
C238 C241 1.383 . S
C238 C242 1.395 . S
C239 C240 1.396 . S
C239 C241 1.365 . S
C239 H248 0.929 . S
C240 C237 1.394 . S
C240 C239 1.396 . S
C240 H249 0.930 . S
C241 C238 1.383 . S
C241 C239 1.365 . S
C241 H250 0.931 . S
C242 C237 1.370 . S
C242 C238 1.395 . S
C242 H251 0.930 . S
C243 Gd179 2.805 . S
C243 O219 1.263 . S
C243 O220 1.252 . S
C243 C237 1.500 . S
H244 C227 0.929 . S
H245 C228 0.930 . S
H246 C229 0.931 . S
H247 C230 0.930 . S
H248 C239 0.929 . S
H249 C240 0.930 . S
H250 C241 0.931 . S
H251 C242 0.930 . S
C252 C254 1.422 . S
C252 C256 1.415 . S
C252 N258 1.369 . S
C253 C254 1.421 . S
C253 C255 1.417 . S
C253 C265 1.422 . S
C254 C252 1.422 . S
C254 C253 1.421 . S
C254 N264 1.359 . S
C255 C253 1.417 . S
C255 C257 1.329 . S
C255 H274 0.930 1_455 S
C256 C252 1.415 . S
C256 C257 1.437 . S
C256 C260 1.413 . S
C257 C255 1.329 . S
C257 C256 1.437 . S
C257 H279 0.929 1_455 S
N258 C252 1.369 . S
N258 C259 1.338 . S
N258 Gd263 2.622 . S
C259 N258 1.338 . S
C259 C261 1.378 . S
C259 H271 0.929 . S
C260 C256 1.413 . S
C260 C261 1.348 . S
C260 H276 0.931 . S
C261 C259 1.378 . S
C261 C260 1.348 . S
C261 H277 0.930 . S
Gd262 N282 2.622 . S
Gd262 N289 2.570 . S
Gd262 O296 2.353 1_455 S
Gd262 O297 2.468 1_455 S
Gd262 O298 2.427 1_455 S
Gd262 O300 2.388 . S
Gd262 O301 2.386 . S
Gd262 O305 2.307 . S
Gd262 C315 2.805 1_455 S
Gd263 N258 2.622 . S
Gd263 N264 2.570 . S
Gd263 O295 2.386 1_455 S
Gd263 O299 2.307 . S
Gd263 O302 2.353 . S
Gd263 O303 2.468 . S
Gd263 O304 2.427 . S
Gd263 O306 2.388 . S
Gd263 C327 2.805 . S
N264 C254 1.359 . S
N264 Gd263 2.570 . S
N264 C266 1.343 . S
C265 C253 1.422 . S
C265 C267 1.321 . S
C265 H273 0.931 . S
C266 N264 1.343 . S
C266 C267 1.390 . S
C266 H268 0.931 . S
C267 C265 1.321 . S
C267 C266 1.390 . S
C267 H269 0.930 . S
H268 C266 0.931 . S
H269 C267 0.930 . S
H270 C293 0.931 . S
H271 C259 0.929 . S
H272 C294 0.930 . S
H273 C265 0.931 . S
H274 C255 0.930 1_655 S
H275 C284 0.929 . S
H276 C260 0.931 . S
H277 C261 0.930 . S
H278 C316 0.930 . S
H279 C257 0.929 1_655 S
H280 C285 0.931 . S
H281 C286 0.930 . S
N282 Gd262 2.622 . S
N282 C283 1.369 . S
N282 C284 1.338 . S
C283 N282 1.369 . S
C283 C287 1.415 . S
C283 C290 1.422 . S
C284 H275 0.929 . S
C284 N282 1.338 . S
C284 C286 1.378 . S
C285 H280 0.931 . S
C285 C286 1.348 . S
C285 C287 1.413 . S
C286 H281 0.930 . S
C286 C284 1.378 . S
C286 C285 1.348 . S
C287 C283 1.415 . S
C287 C285 1.413 . S
C287 C317 1.437 . S
H288 C317 0.929 . S
N289 Gd262 2.570 . S
N289 C290 1.359 . S
N289 C293 1.343 . S
C290 C283 1.422 . S
C290 N289 1.359 . S
C290 C292 1.421 . S
C291 C292 1.422 . S
C291 C294 1.321 . S
C291 H318 0.931 . S
C292 C290 1.421 . S
C292 C291 1.422 . S
C292 C316 1.417 . S
C293 H270 0.931 . S
C293 N289 1.343 . S
C293 C294 1.390 . S
C294 H272 0.930 . S
C294 C291 1.321 . S
C294 C293 1.390 . S
O295 Gd263 2.386 1_655 S
O295 C307 1.265 . S
O296 Gd262 2.353 1_655 S
O296 C307 1.242 . S
O297 Gd262 2.468 1_655 S
O297 C315 1.263 . S
O298 Gd262 2.427 1_655 S
O298 C315 1.252 . S
O299 Gd263 2.307 . S
O299 C308 1.261 . S
O300 Gd262 2.388 . S
O300 C308 1.252 . S
O301 Gd262 2.386 . S
O301 C319 1.265 . S
O302 Gd263 2.353 . S
O302 C319 1.242 . S
O303 Gd263 2.468 . S
O303 C327 1.263 . S
O304 Gd263 2.427 . S
O304 C327 1.252 . S
O305 Gd262 2.307 . S
O305 C320 1.261 . S
O306 Gd263 2.388 . S
O306 C320 1.252 . S
C307 O295 1.265 . S
C307 O296 1.242 . S
C308 O299 1.261 . S
C308 O300 1.252 . S
C309 C312 1.394 . S
C309 C314 1.370 . S
C309 C315 1.500 . S
C310 C313 1.383 . S
C310 C314 1.395 . S
C311 C312 1.396 . S
C311 C313 1.365 . S
C311 H328 0.929 . S
C312 C309 1.394 . S
C312 C311 1.396 . S
C312 H329 0.930 . S
C313 C310 1.383 . S
C313 C311 1.365 . S
C313 H330 0.931 . S
C314 C309 1.370 . S
C314 C310 1.395 . S
C314 H331 0.930 . S
C315 Gd262 2.805 1_655 S
C315 O297 1.263 . S
C315 O298 1.252 . S
C315 C309 1.500 . S
C316 H278 0.930 . S
C316 C292 1.417 . S
C316 C317 1.329 . S
C317 C287 1.437 . S
C317 H288 0.929 . S
C317 C316 1.329 . S
H318 C291 0.931 . S
C319 O301 1.265 . S
C319 O302 1.242 . S
C320 O305 1.261 . S
C320 O306 1.252 . S
C321 C324 1.394 . S
C321 C326 1.370 . S
C321 C327 1.500 . S
C322 C325 1.383 . S
C322 C326 1.395 . S
C323 C324 1.396 . S
C323 C325 1.365 . S
C323 H332 0.929 . S
C324 C321 1.394 . S
C324 C323 1.396 . S
C324 H333 0.930 . S
C325 C322 1.383 . S
C325 C323 1.365 . S
C325 H334 0.931 . S
C326 C321 1.370 . S
C326 C322 1.395 . S
C326 H335 0.930 . S
C327 Gd263 2.805 . S
C327 O303 1.263 . S
C327 O304 1.252 . S
C327 C321 1.500 . S
H328 C311 0.929 . S
H329 C312 0.930 . S
H330 C313 0.931 . S
H331 C314 0.930 . S
H332 C323 0.929 . S
H333 C324 0.930 . S
H334 C325 0.931 . S
H335 C326 0.930 . S
C336 C338 1.422 . S
C336 C340 1.415 . S
C336 N342 1.369 . S
C337 C338 1.421 . S
C337 C339 1.417 . S
C337 C349 1.422 . S
C338 C336 1.422 . S
C338 C337 1.421 . S
C338 N348 1.359 . S
C339 C337 1.417 . S
C339 C341 1.329 . S
C339 H358 0.930 . S
C340 C336 1.415 . S
C340 C341 1.437 . S
C340 C344 1.413 . S
C341 C339 1.329 . S
C341 C340 1.437 . S
C341 H363 0.929 . S
N342 C336 1.369 . S
N342 C343 1.338 . S
N342 Gd347 2.622 . S
C343 N342 1.338 . S
C343 C345 1.378 . S
C343 H355 0.929 . S
C344 C340 1.413 . S
C344 C345 1.348 . S
C344 H360 0.931 . S
C345 C343 1.378 . S
C345 C344 1.348 . S
C345 H361 0.930 . S
Gd346 N366 2.622 . S
Gd346 N373 2.570 . S
Gd346 O380 2.353 . S
Gd346 O381 2.468 . S
Gd346 O382 2.427 . S
Gd346 O384 2.388 . S
Gd346 O385 2.386 . S
Gd346 O389 2.307 . S
Gd346 C399 2.805 . S
Gd347 N342 2.622 . S
Gd347 N348 2.570 . S
Gd347 O379 2.386 . S
Gd347 O383 2.307 . S
Gd347 O386 2.353 . S
Gd347 O387 2.468 . S
Gd347 O388 2.427 . S
Gd347 O390 2.388 . S
Gd347 C411 2.805 . S
N348 C338 1.359 . S
N348 Gd347 2.570 . S
N348 C350 1.343 . S
C349 C337 1.422 . S
C349 C351 1.321 . S
C349 H357 0.931 . S
C350 N348 1.343 . S
C350 C351 1.390 . S
C350 H352 0.931 . S
C351 C349 1.321 . S
C351 C350 1.390 . S
C351 H353 0.930 . S
H352 C350 0.931 . S
H353 C351 0.930 . S
H354 C377 0.931 . S
H355 C343 0.929 . S
H356 C378 0.930 . S
H357 C349 0.931 . S
H358 C339 0.930 . S
H359 C368 0.929 . S
H360 C344 0.931 . S
H361 C345 0.930 . S
H362 C400 0.930 . S
H363 C341 0.929 . S
H364 C369 0.931 . S
H365 C370 0.930 . S
N366 Gd346 2.622 . S
N366 C367 1.369 . S
N366 C368 1.338 . S
C367 N366 1.369 . S
C367 C371 1.415 . S
C367 C374 1.422 . S
C368 H359 0.929 . S
C368 N366 1.338 . S
C368 C370 1.378 . S
C369 H364 0.931 . S
C369 C370 1.348 . S
C369 C371 1.413 . S
C370 H365 0.930 . S
C370 C368 1.378 . S
C370 C369 1.348 . S
C371 C367 1.415 . S
C371 C369 1.413 . S
C371 C401 1.437 . S
H372 C401 0.929 . S
N373 Gd346 2.570 . S
N373 C374 1.359 . S
N373 C377 1.343 . S
C374 C367 1.422 . S
C374 N373 1.359 . S
C374 C376 1.421 . S
C375 C376 1.422 . S
C375 C378 1.321 . S
C375 H402 0.931 . S
C376 C374 1.421 . S
C376 C375 1.422 . S
C376 C400 1.417 . S
C377 H354 0.931 . S
C377 N373 1.343 . S
C377 C378 1.390 . S
C378 H356 0.930 . S
C378 C375 1.321 . S
C378 C377 1.390 . S
O379 Gd347 2.386 . S
O379 C391 1.265 . S
O380 Gd346 2.353 . S
O380 C391 1.242 . S
O381 Gd346 2.468 . S
O381 C399 1.263 . S
O382 Gd346 2.427 . S
O382 C399 1.252 . S
O383 Gd347 2.307 . S
O383 C392 1.261 . S
O384 Gd346 2.388 . S
O384 C392 1.252 . S
O385 Gd346 2.386 . S
O385 C403 1.265 . S
O386 Gd347 2.353 . S
O386 C403 1.242 . S
O387 Gd347 2.468 . S
O387 C411 1.263 . S
O388 Gd347 2.427 . S
O388 C411 1.252 . S
O389 Gd346 2.307 . S
O389 C404 1.261 . S
O390 Gd347 2.388 . S
O390 C404 1.252 . S
C391 O379 1.265 . S
C391 O380 1.242 . S
C392 O383 1.261 . S
C392 O384 1.252 . S
C393 C396 1.394 . S
C393 C398 1.370 . S
C393 C399 1.500 . S
C394 C397 1.383 . S
C394 C398 1.395 . S
C395 C396 1.396 . S
C395 C397 1.365 . S
C395 H412 0.929 . S
C396 C393 1.394 . S
C396 C395 1.396 . S
C396 H413 0.930 . S
C397 C394 1.383 . S
C397 C395 1.365 . S
C397 H414 0.931 . S
C398 C393 1.370 . S
C398 C394 1.395 . S
C398 H415 0.930 . S
C399 Gd346 2.805 . S
C399 O381 1.263 . S
C399 O382 1.252 . S
C399 C393 1.500 . S
C400 H362 0.930 . S
C400 C376 1.417 . S
C400 C401 1.329 . S
C401 C371 1.437 . S
C401 H372 0.929 . S
C401 C400 1.329 . S
H402 C375 0.931 . S
C403 O385 1.265 . S
C403 O386 1.242 . S
C404 O389 1.261 . S
C404 O390 1.252 . S
C405 C408 1.394 . S
C405 C410 1.370 . S
C405 C411 1.500 . S
C406 C409 1.383 . S
C406 C410 1.395 . S
C407 C408 1.396 . S
C407 C409 1.365 . S
C407 H416 0.929 . S
C408 C405 1.394 . S
C408 C407 1.396 . S
C408 H417 0.930 . S
C409 C406 1.383 . S
C409 C407 1.365 . S
C409 H418 0.931 . S
C410 C405 1.370 . S
C410 C406 1.395 . S
C410 H419 0.930 . S
C411 Gd347 2.805 . S
C411 O387 1.263 . S
C411 O388 1.252 . S
C411 C405 1.500 . S
H412 C395 0.929 . S
H413 C396 0.930 . S
H414 C397 0.931 . S
H415 C398 0.930 . S
H416 C407 0.929 . S
H417 C408 0.930 . S
H418 C409 0.931 . S
H419 C410 0.930 . S
C420 C422 1.422 . S
C420 C424 1.415 . S
C420 N426 1.369 . S
C421 C422 1.421 . S
C421 C423 1.417 . S
C421 C433 1.422 . S
C422 C420 1.422 . S
C422 C421 1.421 . S
C422 N432 1.359 . S
C423 C421 1.417 . S
C423 C425 1.329 . S
C423 H442 0.930 . S
C424 C420 1.415 . S
C424 C425 1.437 . S
C424 C428 1.413 . S
C425 C423 1.329 . S
C425 C424 1.437 . S
C425 H447 0.929 . S
N426 C420 1.369 . S
N426 C427 1.338 . S
N426 Gd431 2.622 1_545 S
C427 N426 1.338 . S
C427 C429 1.378 . S
C427 H439 0.929 . S
C428 C424 1.413 . S
C428 C429 1.348 . S
C428 H444 0.931 . S
C429 C427 1.378 . S
C429 C428 1.348 . S
C429 H445 0.930 . S
Gd430 N450 2.622 . S
Gd430 N457 2.570 . S
Gd430 O464 2.353 . S
Gd430 O465 2.468 . S
Gd430 O466 2.427 . S
Gd430 O468 2.388 . S
Gd430 O469 2.386 1_545 S
Gd430 O473 2.307 . S
Gd430 C483 2.805 . S
Gd431 N426 2.622 1_565 S
Gd431 N432 2.570 1_565 S
Gd431 O463 2.386 1_565 S
Gd431 O467 2.307 1_565 S
Gd431 O470 2.353 . S
Gd431 O471 2.468 . S
Gd431 O472 2.427 . S
Gd431 O474 2.388 1_565 S
Gd431 C495 2.805 . S
N432 C422 1.359 . S
N432 Gd431 2.570 1_545 S
N432 C434 1.343 . S
C433 C421 1.422 . S
C433 C435 1.321 . S
C433 H441 0.931 . S
C434 N432 1.343 . S
C434 C435 1.390 . S
C434 H436 0.931 1_545 S
C435 C433 1.321 . S
C435 C434 1.390 . S
C435 H437 0.930 . S
H436 C434 0.931 1_565 S
H437 C435 0.930 . S
H438 C461 0.931 . S
H439 C427 0.929 . S
H440 C462 0.930 . S
H441 C433 0.931 . S
H442 C423 0.930 . S
H443 C452 0.929 . S
H444 C428 0.931 . S
H445 C429 0.930 . S
H446 C484 0.930 . S
H447 C425 0.929 . S
H448 C453 0.931 . S
H449 C454 0.930 . S
N450 Gd430 2.622 . S
N450 C451 1.369 . S
N450 C452 1.338 . S
C451 N450 1.369 . S
C451 C455 1.415 1_545 S
C451 C458 1.422 . S
C452 H443 0.929 . S
C452 N450 1.338 . S
C452 C454 1.378 . S
C453 H448 0.931 . S
C453 C454 1.348 1_565 S
C453 C455 1.413 . S
C454 H449 0.930 . S
C454 C452 1.378 . S
C454 C453 1.348 1_545 S
C455 C451 1.415 1_565 S
C455 C453 1.413 . S
C455 C485 1.437 . S
H456 C485 0.929 . S
N457 Gd430 2.570 . S
N457 C458 1.359 . S
N457 C461 1.343 . S
C458 C451 1.422 . S
C458 N457 1.359 . S
C458 C460 1.421 . S
C459 C460 1.422 . S
C459 C462 1.321 . S
C459 H486 0.931 1_545 S
C460 C458 1.421 . S
C460 C459 1.422 . S
C460 C484 1.417 1_545 S
C461 H438 0.931 . S
C461 N457 1.343 . S
C461 C462 1.390 . S
C462 H440 0.930 . S
C462 C459 1.321 . S
C462 C461 1.390 . S
O463 Gd431 2.386 1_545 S
O463 C475 1.265 . S
O464 Gd430 2.353 . S
O464 C475 1.242 . S
O465 Gd430 2.468 . S
O465 C483 1.263 . S
O466 Gd430 2.427 . S
O466 C483 1.252 . S
O467 Gd431 2.307 1_545 S
O467 C476 1.261 . S
O468 Gd430 2.388 . S
O468 C476 1.252 . S
O469 Gd430 2.386 1_565 S
O469 C487 1.265 . S
O470 Gd431 2.353 . S
O470 C487 1.242 . S
O471 Gd431 2.468 . S
O471 C495 1.263 . S
O472 Gd431 2.427 . S
O472 C495 1.252 . S
O473 Gd430 2.307 . S
O473 C488 1.261 . S
O474 Gd431 2.388 1_545 S
O474 C488 1.252 . S
C475 O463 1.265 . S
C475 O464 1.242 . S
C476 O467 1.261 . S
C476 O468 1.252 . S
C477 C480 1.394 . S
C477 C482 1.370 . S
C477 C483 1.500 . S
C478 C481 1.383 . S
C478 C482 1.395 . S
C479 C480 1.396 . S
C479 C481 1.365 . S
C479 H496 0.929 . S
C480 C477 1.394 . S
C480 C479 1.396 . S
C480 H497 0.930 . S
C481 C478 1.383 . S
C481 C479 1.365 . S
C481 H498 0.931 . S
C482 C477 1.370 . S
C482 C478 1.395 . S
C482 H499 0.930 . S
C483 Gd430 2.805 . S
C483 O465 1.263 . S
C483 O466 1.252 . S
C483 C477 1.500 . S
C484 H446 0.930 . S
C484 C460 1.417 1_565 S
C484 C485 1.329 . S
C485 C455 1.437 . S
C485 H456 0.929 . S
C485 C484 1.329 . S
H486 C459 0.931 1_565 S
C487 O469 1.265 . S
C487 O470 1.242 . S
C488 O473 1.261 . S
C488 O474 1.252 . S
C489 C492 1.394 . S
C489 C494 1.370 . S
C489 C495 1.500 . S
C490 C493 1.383 . S
C490 C494 1.395 . S
C491 C492 1.396 . S
C491 C493 1.365 . S
C491 H500 0.929 . S
C492 C489 1.394 . S
C492 C491 1.396 . S
C492 H501 0.930 . S
C493 C490 1.383 . S
C493 C491 1.365 . S
C493 H502 0.931 . S
C494 C489 1.370 . S
C494 C490 1.395 . S
C494 H503 0.930 . S
C495 Gd431 2.805 . S
C495 O471 1.263 . S
C495 O472 1.252 . S
C495 C489 1.500 . S
H496 C479 0.929 . S
H497 C480 0.930 . S
H498 C481 0.931 . S
H499 C482 0.930 . S
H500 C491 0.929 . S
H501 C492 0.930 . S
H502 C493 0.931 . S
H503 C494 0.930 . S
C504 C506 1.422 . S
C504 C508 1.415 1_545 S
C504 N510 1.369 . S
C505 C506 1.418 . S
C505 C507 1.416 1_545 S
C505 C517 1.428 . S
C506 C504 1.422 . S
C506 C505 1.418 . S
C506 N516 1.359 . S
C507 C505 1.416 1_565 S
C507 C509 1.329 . S
C507 H526 0.930 . S
C508 C504 1.415 1_565 S
C508 C509 1.437 . S
C508 C512 1.413 . S
C509 C507 1.329 . S
C509 C508 1.437 . S
C509 H531 0.929 . S
N510 C504 1.369 . S
N510 C511 1.338 . S
N510 Gd515 2.622 . S
C511 N510 1.338 . S
C511 C513 1.378 . S
C511 H523 0.929 . S
C512 C508 1.413 . S
C512 C513 1.348 1_565 S
C512 H528 0.931 . S
C513 C511 1.378 . S
C513 C512 1.348 1_545 S
C513 H529 0.930 . S
Gd514 N534 2.622 1_565 S
Gd514 N541 2.570 1_565 S
Gd514 O548 2.353 . S
Gd514 O549 2.468 . S
Gd514 O550 2.427 . S
Gd514 O552 2.388 1_565 S
Gd514 O553 2.386 1_565 S
Gd514 O557 2.307 1_565 S
Gd514 C567 2.805 . S
Gd515 N510 2.622 . S
Gd515 N516 2.570 . S
Gd515 O547 2.386 1_545 S
Gd515 O551 2.307 . S
Gd515 O554 2.353 . S
Gd515 O555 2.468 . S
Gd515 O556 2.427 . S
Gd515 O558 2.388 . S
Gd515 C579 2.805 . S
N516 C506 1.359 . S
N516 Gd515 2.570 . S
N516 C518 1.343 . S
C517 C505 1.428 . S
C517 C519 1.321 . S
C517 H525 0.931 1_545 S
C518 N516 1.343 . S
C518 C519 1.390 . S
C518 H520 0.931 . S
C519 C517 1.321 . S
C519 C518 1.390 . S
C519 H521 0.930 . S
H520 C518 0.931 . S
H521 C519 0.930 . S
H522 C545 0.931 1_565 S
H523 C511 0.929 . S
H524 C546 0.930 . S
H525 C517 0.931 1_565 S
H526 C507 0.930 . S
H527 C536 0.929 . S
H528 C512 0.931 . S
H529 C513 0.930 . S
H530 C568 0.930 . S
H531 C509 0.929 . S
H532 C537 0.931 1_554 S
H533 C538 0.930 1_554 S
N534 Gd514 2.622 1_545 S
N534 C535 1.369 . S
N534 C536 1.338 . S
C535 N534 1.369 . S
C535 C539 1.415 . S
C535 C542 1.422 . S
C536 H527 0.929 . S
C536 N534 1.338 . S
C536 C538 1.378 . S
C537 H532 0.931 1_556 S
C537 C538 1.348 . S
C537 C539 1.413 . S
C538 H533 0.930 1_556 S
C538 C536 1.378 . S
C538 C537 1.348 . S
C539 C535 1.415 . S
C539 C537 1.413 . S
C539 C569 1.437 . S
H540 C569 0.929 . S
N541 Gd514 2.570 1_545 S
N541 C542 1.359 . S
N541 C545 1.343 . S
C542 C535 1.422 . S
C542 N541 1.359 . S
C542 C544 1.421 . S
C543 C544 1.422 . S
C543 C546 1.321 . S
C543 H570 0.931 . S
C544 C542 1.421 . S
C544 C543 1.422 . S
C544 C568 1.417 . S
C545 H522 0.931 1_545 S
C545 N541 1.343 . S
C545 C546 1.390 . S
C546 H524 0.930 . S
C546 C543 1.321 . S
C546 C545 1.390 . S
O547 Gd515 2.386 1_565 S
O547 C559 1.265 . S
O548 Gd514 2.353 . S
O548 C559 1.242 . S
O549 Gd514 2.468 . S
O549 C567 1.263 . S
O550 Gd514 2.427 . S
O550 C567 1.252 . S
O551 Gd515 2.307 . S
O551 C560 1.261 . S
O552 Gd514 2.388 1_545 S
O552 C560 1.252 . S
O553 Gd514 2.386 1_545 S
O553 C571 1.265 . S
O554 Gd515 2.353 . S
O554 C571 1.242 . S
O555 Gd515 2.468 . S
O555 C579 1.263 . S
O556 Gd515 2.427 . S
O556 C579 1.252 . S
O557 Gd514 2.307 1_545 S
O557 C572 1.261 . S
O558 Gd515 2.388 . S
O558 C572 1.252 . S
C559 O547 1.265 . S
C559 O548 1.242 . S
C560 O551 1.261 . S
C560 O552 1.252 . S
C561 C564 1.394 . S
C561 C566 1.370 . S
C561 C567 1.500 . S
C562 C565 1.383 . S
C562 C566 1.395 . S
C563 C564 1.396 . S
C563 C565 1.365 . S
C563 H580 0.929 . S
C564 C561 1.394 . S
C564 C563 1.396 . S
C564 H581 0.930 . S
C565 C562 1.383 . S
C565 C563 1.365 . S
C565 H582 0.931 . S
C566 C561 1.370 . S
C566 C562 1.395 . S
C566 H583 0.930 . S
C567 Gd514 2.805 . S
C567 O549 1.263 . S
C567 O550 1.252 . S
C567 C561 1.500 . S
C568 H530 0.930 . S
C568 C544 1.417 . S
C568 C569 1.329 . S
C569 C539 1.437 . S
C569 H540 0.929 . S
C569 C568 1.329 . S
H570 C543 0.931 . S
C571 O553 1.265 . S
C571 O554 1.242 . S
C572 O557 1.261 . S
C572 O558 1.252 . S
C573 C576 1.394 . S
C573 C578 1.370 . S
C573 C579 1.500 . S
C574 C577 1.383 . S
C574 C578 1.395 . S
C575 C576 1.396 . S
C575 C577 1.365 . S
C575 H584 0.929 . S
C576 C573 1.394 . S
C576 C575 1.396 . S
C576 H585 0.930 . S
C577 C574 1.383 . S
C577 C575 1.365 . S
C577 H586 0.931 . S
C578 C573 1.370 . S
C578 C574 1.395 . S
C578 H587 0.930 . S
C579 Gd515 2.805 . S
C579 O555 1.263 . S
C579 O556 1.252 . S
C579 C573 1.500 . S
H580 C563 0.929 . S
H581 C564 0.930 . S
H582 C565 0.931 . S
H583 C566 0.930 . S
H584 C575 0.929 . S
H585 C576 0.930 . S
H586 C577 0.931 . S
H587 C578 0.930 . S
C588 C590 1.422 . S
C588 C592 1.415 . S
C588 N594 1.369 . S
C589 C590 1.421 . S
C589 C591 1.417 . S
C589 C601 1.422 . S
C590 C588 1.422 . S
C590 C589 1.421 . S
C590 N600 1.359 . S
C591 C589 1.417 . S
C591 C593 1.329 . S
C591 H610 0.930 . S
C592 C588 1.415 . S
C592 C593 1.437 . S
C592 C596 1.413 . S
C593 C591 1.329 . S
C593 C592 1.437 . S
C593 H615 0.929 . S
N594 C588 1.369 . S
N594 C595 1.338 . S
N594 Gd599 2.622 . S
C595 N594 1.338 . S
C595 C597 1.378 . S
C595 H607 0.929 . S
C596 C592 1.413 . S
C596 C597 1.348 . S
C596 H612 0.931 . S
C597 C595 1.378 . S
C597 C596 1.348 . S
C597 H613 0.930 . S
Gd598 N618 2.622 . S
Gd598 N625 2.570 . S
Gd598 O632 2.353 . S
Gd598 O633 2.468 . S
Gd598 O634 2.427 . S
Gd598 O636 2.388 . S
Gd598 O637 2.386 1_455 S
Gd598 O641 2.307 . S
Gd598 C651 2.805 . S
Gd599 N594 2.622 . S
Gd599 N600 2.570 . S
Gd599 O631 2.386 . S
Gd599 O635 2.307 . S
Gd599 O638 2.353 1_455 S
Gd599 O639 2.468 1_455 S
Gd599 O640 2.427 1_455 S
Gd599 O642 2.388 . S
Gd599 C663 2.805 1_455 S
N600 C590 1.359 . S
N600 Gd599 2.570 . S
N600 C602 1.343 . S
C601 C589 1.422 . S
C601 C603 1.321 . S
C601 H609 0.931 . S
C602 N600 1.343 . S
C602 C603 1.390 . S
C602 H604 0.931 . S
C603 C601 1.321 . S
C603 C602 1.390 . S
C603 H605 0.930 . S
H604 C602 0.931 . S
H605 C603 0.930 . S
H606 C629 0.931 . S
H607 C595 0.929 . S
H608 C630 0.930 . S
H609 C601 0.931 . S
H610 C591 0.930 . S
H611 C620 0.929 . S
H612 C596 0.931 . S
H613 C597 0.930 . S
H614 C652 0.930 1_655 S
H615 C593 0.929 . S
H616 C621 0.931 1_554 S
H617 C622 0.930 1_554 S
N618 Gd598 2.622 . S
N618 C619 1.369 . S
N618 C620 1.338 . S
C619 N618 1.369 . S
C619 C623 1.415 . S
C619 C626 1.422 . S
C620 H611 0.929 . S
C620 N618 1.338 . S
C620 C622 1.378 . S
C621 H616 0.931 1_556 S
C621 C622 1.348 . S
C621 C623 1.413 . S
C622 H617 0.930 1_556 S
C622 C620 1.378 . S
C622 C621 1.348 . S
C623 C619 1.415 . S
C623 C621 1.413 . S
C623 C653 1.437 . S
H624 C653 0.929 1_655 S
N625 Gd598 2.570 . S
N625 C626 1.359 . S
N625 C629 1.343 . S
C626 C619 1.422 . S
C626 N625 1.359 . S
C626 C628 1.421 . S
C627 C628 1.422 . S
C627 C630 1.321 . S
C627 H654 0.931 . S
C628 C626 1.421 . S
C628 C627 1.422 . S
C628 C652 1.417 . S
C629 H606 0.931 . S
C629 N625 1.343 . S
C629 C630 1.390 . S
C630 H608 0.930 . S
C630 C627 1.321 . S
C630 C629 1.390 . S
O631 Gd599 2.386 . S
O631 C643 1.265 . S
O632 Gd598 2.353 . S
O632 C643 1.242 . S
O633 Gd598 2.468 . S
O633 C651 1.263 . S
O634 Gd598 2.427 . S
O634 C651 1.252 . S
O635 Gd599 2.307 . S
O635 C644 1.261 . S
O636 Gd598 2.388 . S
O636 C644 1.252 . S
O637 Gd598 2.386 1_655 S
O637 C655 1.265 . S
O638 Gd599 2.353 1_655 S
O638 C655 1.242 . S
O639 Gd599 2.468 1_655 S
O639 C663 1.263 . S
O640 Gd599 2.427 1_655 S
O640 C663 1.252 . S
O641 Gd598 2.307 . S
O641 C656 1.261 . S
O642 Gd599 2.388 . S
O642 C656 1.252 . S
C643 O631 1.265 . S
C643 O632 1.242 . S
C644 O635 1.261 . S
C644 O636 1.252 . S
C645 C648 1.394 . S
C645 C650 1.370 . S
C645 C651 1.500 . S
C646 C649 1.383 . S
C646 C650 1.395 . S
C647 C648 1.396 . S
C647 C649 1.365 . S
C647 H664 0.929 . S
C648 C645 1.394 . S
C648 C647 1.396 . S
C648 H665 0.930 . S
C649 C646 1.383 . S
C649 C647 1.365 . S
C649 H666 0.931 . S
C650 C645 1.370 . S
C650 C646 1.395 . S
C650 H667 0.930 . S
C651 Gd598 2.805 . S
C651 O633 1.263 . S
C651 O634 1.252 . S
C651 C645 1.500 . S
C652 H614 0.930 1_455 S
C652 C628 1.417 . S
C652 C653 1.329 . S
C653 C623 1.437 . S
C653 H624 0.929 1_455 S
C653 C652 1.329 . S
H654 C627 0.931 . S
C655 O637 1.265 . S
C655 O638 1.242 . S
C656 O641 1.261 . S
C656 O642 1.252 . S
C657 C660 1.394 . S
C657 C662 1.370 . S
C657 C663 1.500 . S
C658 C661 1.383 . S
C658 C662 1.395 . S
C659 C660 1.396 . S
C659 C661 1.365 . S
C659 H668 0.929 . S
C660 C657 1.394 . S
C660 C659 1.396 . S
C660 H669 0.930 . S
C661 C658 1.383 . S
C661 C659 1.365 . S
C661 H670 0.931 . S
C662 C657 1.370 . S
C662 C658 1.395 . S
C662 H671 0.930 . S
C663 Gd599 2.805 1_655 S
C663 O639 1.263 . S
C663 O640 1.252 . S
C663 C657 1.500 . S
H664 C647 0.929 . S
H665 C648 0.930 . S
H666 C649 0.931 . S
H667 C650 0.930 . S
H668 C659 0.929 . S
H669 C660 0.930 . S
H670 C661 0.931 . S
H671 C662 0.930 . S
C672 C674 1.422 . S
C672 C676 1.415 . S
C672 N678 1.369 . S
C673 C674 1.421 . S
C673 C675 1.417 . S
C673 C685 1.422 . S
C674 C672 1.422 . S
C674 C673 1.421 . S
C674 N684 1.359 . S
C675 C673 1.417 . S
C675 C677 1.329 . S
C675 H694 0.930 . S
C676 C672 1.415 . S
C676 C677 1.437 . S
C676 C680 1.413 . S
C677 C675 1.329 . S
C677 C676 1.437 . S
C677 H699 0.929 . S
N678 C672 1.369 . S
N678 C679 1.338 . S
N678 Gd683 2.622 . S
C679 N678 1.338 . S
C679 C681 1.378 . S
C679 H691 0.929 . S
C680 C676 1.413 . S
C680 C681 1.348 . S
C680 H696 0.931 . S
C681 C679 1.378 . S
C681 C680 1.348 . S
C681 H697 0.930 . S
Gd682 N702 2.622 . S
Gd682 N709 2.570 . S
Gd682 O716 2.353 . S
Gd682 O717 2.468 . S
Gd682 O718 2.427 . S
Gd682 O720 2.388 . S
Gd682 O721 2.386 . S
Gd682 O725 2.307 . S
Gd682 C735 2.805 . S
Gd683 N678 2.622 . S
Gd683 N684 2.570 . S
Gd683 O715 2.386 . S
Gd683 O719 2.307 . S
Gd683 O722 2.353 . S
Gd683 O723 2.468 . S
Gd683 O724 2.427 . S
Gd683 O726 2.388 . S
Gd683 C747 2.805 . S
N684 C674 1.359 . S
N684 Gd683 2.570 . S
N684 C686 1.343 . S
C685 C673 1.422 . S
C685 C687 1.321 . S
C685 H693 0.931 . S
C686 N684 1.343 . S
C686 C687 1.390 . S
C686 H688 0.931 . S
C687 C685 1.321 . S
C687 C686 1.390 . S
C687 H689 0.930 . S
H688 C686 0.931 . S
H689 C687 0.930 . S
H690 C713 0.931 . S
H691 C679 0.929 . S
H692 C714 0.930 . S
H693 C685 0.931 . S
H694 C675 0.930 . S
H695 C704 0.929 . S
H696 C680 0.931 . S
H697 C681 0.930 . S
H698 C736 0.930 . S
H699 C677 0.929 . S
H700 C705 0.931 1_554 S
H701 C706 0.930 1_554 S
N702 Gd682 2.622 . S
N702 C703 1.369 . S
N702 C704 1.338 . S
C703 N702 1.369 . S
C703 C707 1.415 . S
C703 C710 1.422 . S
C704 H695 0.929 . S
C704 N702 1.338 . S
C704 C706 1.378 . S
C705 H700 0.931 1_556 S
C705 C706 1.348 . S
C705 C707 1.413 . S
C706 H701 0.930 1_556 S
C706 C704 1.378 . S
C706 C705 1.348 . S
C707 C703 1.415 . S
C707 C705 1.413 . S
C707 C737 1.437 . S
H708 C737 0.929 . S
N709 Gd682 2.570 . S
N709 C710 1.359 . S
N709 C713 1.343 . S
C710 C703 1.422 . S
C710 N709 1.359 . S
C710 C712 1.421 . S
C711 C712 1.422 . S
C711 C714 1.321 . S
C711 H738 0.931 . S
C712 C710 1.421 . S
C712 C711 1.422 . S
C712 C736 1.417 . S
C713 H690 0.931 . S
C713 N709 1.343 . S
C713 C714 1.390 . S
C714 H692 0.930 . S
C714 C711 1.321 . S
C714 C713 1.390 . S
O715 Gd683 2.386 . S
O715 C727 1.265 . S
O716 Gd682 2.353 . S
O716 C727 1.242 . S
O717 Gd682 2.468 . S
O717 C735 1.263 . S
O718 Gd682 2.427 . S
O718 C735 1.252 . S
O719 Gd683 2.307 . S
O719 C728 1.261 . S
O720 Gd682 2.388 . S
O720 C728 1.252 . S
O721 Gd682 2.386 . S
O721 C739 1.265 . S
O722 Gd683 2.353 . S
O722 C739 1.242 . S
O723 Gd683 2.468 . S
O723 C747 1.263 . S
O724 Gd683 2.427 . S
O724 C747 1.252 . S
O725 Gd682 2.307 . S
O725 C740 1.261 . S
O726 Gd683 2.388 . S
O726 C740 1.252 . S
C727 O715 1.265 . S
C727 O716 1.242 . S
C728 O719 1.261 . S
C728 O720 1.252 . S
C729 C732 1.394 . S
C729 C734 1.370 . S
C729 C735 1.500 . S
C730 C733 1.383 . S
C730 C734 1.395 . S
C731 C732 1.396 . S
C731 C733 1.365 . S
C731 H748 0.929 . S
C732 C729 1.394 . S
C732 C731 1.396 . S
C732 H749 0.930 . S
C733 C730 1.383 . S
C733 C731 1.365 . S
C733 H750 0.931 . S
C734 C729 1.370 . S
C734 C730 1.395 . S
C734 H751 0.930 . S
C735 Gd682 2.805 . S
C735 O717 1.263 . S
C735 O718 1.252 . S
C735 C729 1.500 . S
C736 H698 0.930 . S
C736 C712 1.417 . S
C736 C737 1.329 . S
C737 C707 1.437 . S
C737 H708 0.929 . S
C737 C736 1.329 . S
H738 C711 0.931 . S
C739 O721 1.265 . S
C739 O722 1.242 . S
C740 O725 1.261 . S
C740 O726 1.252 . S
C741 C744 1.394 . S
C741 C746 1.370 . S
C741 C747 1.500 . S
C742 C745 1.383 . S
C742 C746 1.395 . S
C743 C744 1.396 . S
C743 C745 1.365 . S
C743 H752 0.929 . S
C744 C741 1.394 . S
C744 C743 1.396 . S
C744 H753 0.930 . S
C745 C742 1.383 . S
C745 C743 1.365 . S
C745 H754 0.931 . S
C746 C741 1.370 . S
C746 C742 1.395 . S
C746 H755 0.930 . S
C747 Gd683 2.805 . S
C747 O723 1.263 . S
C747 O724 1.252 . S
C747 C741 1.500 . S
H748 C731 0.929 . S
H749 C732 0.930 . S
H750 C733 0.931 . S
H751 C734 0.930 . S
H752 C743 0.929 . S
H753 C744 0.930 . S
H754 C745 0.931 . S
H755 C746 0.930 . S
C756 C758 1.422 . S
C756 C760 1.415 1_455 S
C756 N762 1.369 . S
C757 C758 1.418 . S
C757 C759 1.416 1_455 S
C757 C769 1.428 . S
C758 C756 1.422 . S
C758 C757 1.418 . S
C758 N768 1.359 . S
C759 C757 1.416 1_655 S
C759 C761 1.329 . S
C759 H778 0.930 . S
C760 C756 1.415 1_655 S
C760 C761 1.437 . S
C760 C764 1.413 . S
C761 C759 1.329 . S
C761 C760 1.437 . S
C761 H783 0.929 . S
N762 C756 1.369 . S
N762 C763 1.338 . S
N762 Gd767 2.622 . S
C763 N762 1.338 . S
C763 C765 1.378 . S
C763 H775 0.929 . S
C764 C760 1.413 . S
C764 C765 1.348 1_655 S
C764 H780 0.931 . S
C765 C763 1.378 . S
C765 C764 1.348 1_455 S
C765 H781 0.930 . S
Gd766 N786 2.622 1_655 S
Gd766 N793 2.570 1_655 S
Gd766 O800 2.353 . S
Gd766 O801 2.468 . S
Gd766 O802 2.427 . S
Gd766 O804 2.388 1_655 S
Gd766 O805 2.386 1_655 S
Gd766 O809 2.307 1_655 S
Gd766 C819 2.805 . S
Gd767 N762 2.622 . S
Gd767 N768 2.570 . S
Gd767 O799 2.386 1_455 S
Gd767 O803 2.307 . S
Gd767 O806 2.353 . S
Gd767 O807 2.468 . S
Gd767 O808 2.427 . S
Gd767 O810 2.388 . S
Gd767 C831 2.805 . S
N768 C758 1.359 . S
N768 Gd767 2.570 . S
N768 C770 1.343 . S
C769 C757 1.428 . S
C769 C771 1.321 . S
C769 H777 0.931 1_455 S
C770 N768 1.343 . S
C770 C771 1.390 . S
C770 H772 0.931 . S
C771 C769 1.321 . S
C771 C770 1.390 . S
C771 H773 0.930 . S
H772 C770 0.931 . S
H773 C771 0.930 . S
H774 C797 0.931 1_655 S
H775 C763 0.929 . S
H776 C798 0.930 . S
H777 C769 0.931 1_655 S
H778 C759 0.930 . S
H779 C788 0.929 . S
H780 C764 0.931 . S
H781 C765 0.930 . S
H782 C820 0.930 . S
H783 C761 0.929 . S
H784 C789 0.931 . S
H785 C790 0.930 . S
N786 Gd766 2.622 1_455 S
N786 C787 1.369 . S
N786 C788 1.338 . S
C787 N786 1.369 . S
C787 C791 1.415 . S
C787 C794 1.422 . S
C788 H779 0.929 . S
C788 N786 1.338 . S
C788 C790 1.378 . S
C789 H784 0.931 . S
C789 C790 1.348 . S
C789 C791 1.413 . S
C790 H785 0.930 . S
C790 C788 1.378 . S
C790 C789 1.348 . S
C791 C787 1.415 . S
C791 C789 1.413 . S
C791 C821 1.437 . S
H792 C821 0.929 . S
N793 Gd766 2.570 1_455 S
N793 C794 1.359 . S
N793 C797 1.343 . S
C794 C787 1.422 . S
C794 N793 1.359 . S
C794 C796 1.421 . S
C795 C796 1.422 . S
C795 C798 1.321 . S
C795 H822 0.931 . S
C796 C794 1.421 . S
C796 C795 1.422 . S
C796 C820 1.417 . S
C797 H774 0.931 1_455 S
C797 N793 1.343 . S
C797 C798 1.390 . S
C798 H776 0.930 . S
C798 C795 1.321 . S
C798 C797 1.390 . S
O799 Gd767 2.386 1_655 S
O799 C811 1.265 . S
O800 Gd766 2.353 . S
O800 C811 1.242 . S
O801 Gd766 2.468 . S
O801 C819 1.263 . S
O802 Gd766 2.427 . S
O802 C819 1.252 . S
O803 Gd767 2.307 . S
O803 C812 1.261 . S
O804 Gd766 2.388 1_455 S
O804 C812 1.252 . S
O805 Gd766 2.386 1_455 S
O805 C823 1.265 . S
O806 Gd767 2.353 . S
O806 C823 1.242 . S
O807 Gd767 2.468 . S
O807 C831 1.263 . S
O808 Gd767 2.427 . S
O808 C831 1.252 . S
O809 Gd766 2.307 1_455 S
O809 C824 1.261 . S
O810 Gd767 2.388 . S
O810 C824 1.252 . S
C811 O799 1.265 . S
C811 O800 1.242 . S
C812 O803 1.261 . S
C812 O804 1.252 . S
C813 C816 1.394 . S
C813 C818 1.370 . S
C813 C819 1.500 . S
C814 C817 1.383 . S
C814 C818 1.395 . S
C815 C816 1.396 . S
C815 C817 1.365 . S
C815 H832 0.929 . S
C816 C813 1.394 . S
C816 C815 1.396 . S
C816 H833 0.930 . S
C817 C814 1.383 . S
C817 C815 1.365 . S
C817 H834 0.931 . S
C818 C813 1.370 . S
C818 C814 1.395 . S
C818 H835 0.930 . S
C819 Gd766 2.805 . S
C819 O801 1.263 . S
C819 O802 1.252 . S
C819 C813 1.500 . S
C820 H782 0.930 . S
C820 C796 1.417 . S
C820 C821 1.329 . S
C821 C791 1.437 . S
C821 H792 0.929 . S
C821 C820 1.329 . S
H822 C795 0.931 . S
C823 O805 1.265 . S
C823 O806 1.242 . S
C824 O809 1.261 . S
C824 O810 1.252 . S
C825 C828 1.394 . S
C825 C830 1.370 . S
C825 C831 1.500 . S
C826 C829 1.383 . S
C826 C830 1.395 . S
C827 C828 1.396 . S
C827 C829 1.365 . S
C827 H836 0.929 . S
C828 C825 1.394 . S
C828 C827 1.396 . S
C828 H837 0.930 . S
C829 C826 1.383 . S
C829 C827 1.365 . S
C829 H838 0.931 . S
C830 C825 1.370 . S
C830 C826 1.395 . S
C830 H839 0.930 . S
C831 Gd767 2.805 . S
C831 O807 1.263 . S
C831 O808 1.252 . S
C831 C825 1.500 . S
H832 C815 0.929 . S
H833 C816 0.930 . S
H834 C817 0.931 . S
H835 C818 0.930 . S
H836 C827 0.929 . S
H837 C828 0.930 . S
H838 C829 0.931 . S
H839 C830 0.930 . S
C840 C842 1.422 . S
C840 C844 1.415 . S
C840 N846 1.369 . S
C841 C842 1.421 . S
C841 C843 1.417 . S
C841 C853 1.422 . S
C842 C840 1.422 . S
C842 C841 1.421 . S
C842 N852 1.359 . S
C843 C841 1.417 . S
C843 C845 1.329 . S
C843 H862 0.930 . S
C844 C840 1.415 . S
C844 C845 1.437 . S
C844 C848 1.413 . S
C845 C843 1.329 . S
C845 C844 1.437 . S
C845 H867 0.929 . S
N846 C840 1.369 . S
N846 C847 1.338 . S
N846 Gd851 2.622 . S
C847 N846 1.338 . S
C847 C849 1.378 . S
C847 H859 0.929 . S
C848 C844 1.413 . S
C848 C849 1.348 . S
C848 H864 0.931 . S
C849 C847 1.378 . S
C849 C848 1.348 . S
C849 H865 0.930 . S
Gd850 N870 2.622 . S
Gd850 N877 2.570 . S
Gd850 O884 2.353 . S
Gd850 O885 2.468 . S
Gd850 O886 2.427 . S
Gd850 O888 2.388 . S
Gd850 O889 2.386 . S
Gd850 O893 2.307 . S
Gd850 C903 2.805 . S
Gd851 N846 2.622 . S
Gd851 N852 2.570 . S
Gd851 O883 2.386 . S
Gd851 O887 2.307 . S
Gd851 O890 2.353 . S
Gd851 O891 2.468 . S
Gd851 O892 2.427 . S
Gd851 O894 2.388 . S
Gd851 C915 2.805 . S
N852 C842 1.359 . S
N852 Gd851 2.570 . S
N852 C854 1.343 . S
C853 C841 1.422 . S
C853 C855 1.321 . S
C853 H861 0.931 . S
C854 N852 1.343 . S
C854 C855 1.390 . S
C854 H856 0.931 . S
C855 C853 1.321 . S
C855 C854 1.390 . S
C855 H857 0.930 . S
H856 C854 0.931 . S
H857 C855 0.930 . S
H858 C881 0.931 . S
H859 C847 0.929 . S
H860 C882 0.930 . S
H861 C853 0.931 . S
H862 C843 0.930 . S
H863 C872 0.929 . S
H864 C848 0.931 . S
H865 C849 0.930 . S
H866 C904 0.930 . S
H867 C845 0.929 . S
H868 C873 0.931 . S
H869 C874 0.930 . S
N870 Gd850 2.622 . S
N870 C871 1.369 . S
N870 C872 1.338 . S
C871 N870 1.369 . S
C871 C875 1.415 . S
C871 C878 1.422 . S
C872 H863 0.929 . S
C872 N870 1.338 . S
C872 C874 1.378 . S
C873 H868 0.931 . S
C873 C874 1.348 . S
C873 C875 1.413 . S
C874 H869 0.930 . S
C874 C872 1.378 . S
C874 C873 1.348 . S
C875 C871 1.415 . S
C875 C873 1.413 . S
C875 C905 1.437 . S
H876 C905 0.929 . S
N877 Gd850 2.570 . S
N877 C878 1.359 . S
N877 C881 1.343 . S
C878 C871 1.422 . S
C878 N877 1.359 . S
C878 C880 1.421 . S
C879 C880 1.422 . S
C879 C882 1.321 . S
C879 H906 0.931 . S
C880 C878 1.421 . S
C880 C879 1.422 . S
C880 C904 1.417 . S
C881 H858 0.931 . S
C881 N877 1.343 . S
C881 C882 1.390 . S
C882 H860 0.930 . S
C882 C879 1.321 . S
C882 C881 1.390 . S
O883 Gd851 2.386 . S
O883 C895 1.265 . S
O884 Gd850 2.353 . S
O884 C895 1.242 . S
O885 Gd850 2.468 . S
O885 C903 1.263 . S
O886 Gd850 2.427 . S
O886 C903 1.252 . S
O887 Gd851 2.307 . S
O887 C896 1.261 . S
O888 Gd850 2.388 . S
O888 C896 1.252 . S
O889 Gd850 2.386 . S
O889 C907 1.265 . S
O890 Gd851 2.353 . S
O890 C907 1.242 . S
O891 Gd851 2.468 . S
O891 C915 1.263 . S
O892 Gd851 2.427 . S
O892 C915 1.252 . S
O893 Gd850 2.307 . S
O893 C908 1.261 . S
O894 Gd851 2.388 . S
O894 C908 1.252 . S
C895 O883 1.265 . S
C895 O884 1.242 . S
C896 O887 1.261 . S
C896 O888 1.252 . S
C897 C900 1.394 . S
C897 C902 1.370 . S
C897 C903 1.500 . S
C898 C901 1.383 . S
C898 C902 1.395 . S
C899 C900 1.396 . S
C899 C901 1.365 . S
C899 H916 0.929 . S
C900 C897 1.394 . S
C900 C899 1.396 . S
C900 H917 0.930 . S
C901 C898 1.383 . S
C901 C899 1.365 . S
C901 H918 0.931 . S
C902 C897 1.370 . S
C902 C898 1.395 . S
C902 H919 0.930 . S
C903 Gd850 2.805 . S
C903 O885 1.263 . S
C903 O886 1.252 . S
C903 C897 1.500 . S
C904 H866 0.930 . S
C904 C880 1.417 . S
C904 C905 1.329 . S
C905 C875 1.437 . S
C905 H876 0.929 . S
C905 C904 1.329 . S
H906 C879 0.931 . S
C907 O889 1.265 . S
C907 O890 1.242 . S
C908 O893 1.261 . S
C908 O894 1.252 . S
C909 C912 1.394 . S
C909 C914 1.370 . S
C909 C915 1.500 . S
C910 C913 1.383 . S
C910 C914 1.395 . S
C911 C912 1.396 . S
C911 C913 1.365 . S
C911 H920 0.929 . S
C912 C909 1.394 . S
C912 C911 1.396 . S
C912 H921 0.930 . S
C913 C910 1.383 . S
C913 C911 1.365 . S
C913 H922 0.931 . S
C914 C909 1.370 . S
C914 C910 1.395 . S
C914 H923 0.930 . S
C915 Gd851 2.805 . S
C915 O891 1.263 . S
C915 O892 1.252 . S
C915 C909 1.500 . S
H916 C899 0.929 . S
H917 C900 0.930 . S
H918 C901 0.931 . S
H919 C902 0.930 . S
H920 C911 0.929 . S
H921 C912 0.930 . S
H922 C913 0.931 . S
H923 C914 0.930 . S
C924 C926 1.422 . S
C924 C928 1.415 . S
C924 N930 1.369 . S
C925 C926 1.421 . S
C925 C927 1.417 . S
C925 C937 1.422 . S
C926 C924 1.422 . S
C926 C925 1.421 . S
C926 N936 1.359 . S
C927 C925 1.417 . S
C927 C929 1.329 . S
C927 H946 0.930 . S
C928 C924 1.415 . S
C928 C929 1.437 . S
C928 C932 1.413 . S
C929 C927 1.329 . S
C929 C928 1.437 . S
C929 H951 0.929 . S
N930 C924 1.369 . S
N930 C931 1.338 . S
N930 Gd935 2.622 . S
C931 N930 1.338 . S
C931 C933 1.378 . S
C931 H943 0.929 . S
C932 C928 1.413 . S
C932 C933 1.348 . S
C932 H948 0.931 . S
C933 C931 1.378 . S
C933 C932 1.348 . S
C933 H949 0.930 . S
Gd934 N954 2.622 . S
Gd934 N961 2.570 . S
Gd934 O968 2.353 . S
Gd934 O969 2.468 . S
Gd934 O970 2.427 . S
Gd934 O972 2.388 . S
Gd934 O973 2.386 1_545 S
Gd934 O977 2.307 . S
Gd934 C987 2.805 . S
Gd935 N930 2.622 . S
Gd935 N936 2.570 . S
Gd935 O967 2.386 . S
Gd935 O971 2.307 . S
Gd935 O974 2.353 1_545 S
Gd935 O975 2.468 1_545 S
Gd935 O976 2.427 1_545 S
Gd935 O978 2.388 . S
Gd935 C999 2.805 1_545 S
N936 C926 1.359 . S
N936 Gd935 2.570 . S
N936 C938 1.343 . S
C937 C925 1.422 . S
C937 C939 1.321 . S
C937 H945 0.931 . S
C938 N936 1.343 . S
C938 C939 1.390 . S
C938 H940 0.931 . S
C939 C937 1.321 . S
C939 C938 1.390 . S
C939 H941 0.930 . S
H940 C938 0.931 . S
H941 C939 0.930 . S
H942 C965 0.931 . S
H943 C931 0.929 . S
H944 C966 0.930 . S
H945 C937 0.931 . S
H946 C927 0.930 . S
H947 C956 0.929 . S
H948 C932 0.931 . S
H949 C933 0.930 . S
H950 C988 0.930 1_565 S
H951 C929 0.929 . S
H952 C957 0.931 . S
H953 C958 0.930 . S
N954 Gd934 2.622 . S
N954 C955 1.369 . S
N954 C956 1.338 . S
C955 N954 1.369 . S
C955 C959 1.415 . S
C955 C962 1.422 . S
C956 H947 0.929 . S
C956 N954 1.338 . S
C956 C958 1.378 . S
C957 H952 0.931 . S
C957 C958 1.348 . S
C957 C959 1.413 . S
C958 H953 0.930 . S
C958 C956 1.378 . S
C958 C957 1.348 . S
C959 C955 1.415 . S
C959 C957 1.413 . S
C959 C989 1.437 . S
H960 C989 0.929 1_565 S
N961 Gd934 2.570 . S
N961 C962 1.359 . S
N961 C965 1.343 . S
C962 C955 1.422 . S
C962 N961 1.359 . S
C962 C964 1.421 . S
C963 C964 1.422 . S
C963 C966 1.321 . S
C963 H990 0.931 . S
C964 C962 1.421 . S
C964 C963 1.422 . S
C964 C988 1.417 . S
C965 H942 0.931 . S
C965 N961 1.343 . S
C965 C966 1.390 . S
C966 H944 0.930 . S
C966 C963 1.321 . S
C966 C965 1.390 . S
O967 Gd935 2.386 . S
O967 C979 1.265 . S
O968 Gd934 2.353 . S
O968 C979 1.242 . S
O969 Gd934 2.468 . S
O969 C987 1.263 . S
O970 Gd934 2.427 . S
O970 C987 1.252 . S
O971 Gd935 2.307 . S
O971 C980 1.261 . S
O972 Gd934 2.388 . S
O972 C980 1.252 . S
O973 Gd934 2.386 1_565 S
O973 C991 1.265 . S
O974 Gd935 2.353 1_565 S
O974 C991 1.242 . S
O975 Gd935 2.468 1_565 S
O975 C999 1.263 . S
O976 Gd935 2.427 1_565 S
O976 C999 1.252 . S
O977 Gd934 2.307 . S
O977 C992 1.261 . S
O978 Gd935 2.388 . S
O978 C992 1.252 . S
C979 O967 1.265 . S
C979 O968 1.242 . S
C980 O971 1.261 . S
C980 O972 1.252 . S
C981 C984 1.394 . S
C981 C986 1.370 . S
C981 C987 1.500 . S
C982 C985 1.383 . S
C982 C986 1.395 . S
C983 C984 1.396 . S
C983 C985 1.365 . S
C983 H1000 0.929 . S
C984 C981 1.394 . S
C984 C983 1.396 . S
C984 H1001 0.930 . S
C985 C982 1.383 . S
C985 C983 1.365 . S
C985 H1002 0.931 . S
C986 C981 1.370 . S
C986 C982 1.395 . S
C986 H1003 0.930 . S
C987 Gd934 2.805 . S
C987 O969 1.263 . S
C987 O970 1.252 . S
C987 C981 1.500 . S
C988 H950 0.930 1_545 S
C988 C964 1.417 . S
C988 C989 1.329 . S
C989 C959 1.437 . S
C989 H960 0.929 1_545 S
C989 C988 1.329 . S
H990 C963 0.931 . S
C991 O973 1.265 . S
C991 O974 1.242 . S
C992 O977 1.261 . S
C992 O978 1.252 . S
C993 C996 1.394 . S
C993 C998 1.370 . S
C993 C999 1.500 . S
C994 C997 1.383 . S
C994 C998 1.395 . S
C995 C996 1.396 . S
C995 C997 1.365 . S
C995 H1004 0.929 . S
C996 C993 1.394 . S
C996 C995 1.396 . S
C996 H1005 0.930 . S
C997 C994 1.383 . S
C997 C995 1.365 . S
C997 H1006 0.931 . S
C998 C993 1.370 . S
C998 C994 1.395 . S
C998 H1007 0.930 . S
C999 Gd935 2.805 1_565 S
C999 O975 1.263 . S
C999 O976 1.252 . S
C999 C993 1.500 . S
H1000 C983 0.929 . S
H1001 C984 0.930 . S
H1002 C985 0.931 . S
H1003 C986 0.930 . S
H1004 C995 0.929 . S
H1005 C996 0.930 . S
H1006 C997 0.931 . S
H1007 C998 0.930 . S
C1008 C1010 1.422 . S
C1008 C1012 1.415 . S
C1008 N1014 1.369 . S
C1009 C1010 1.421 1_655 S
C1009 C1011 1.417 . S
C1009 C1021 1.422 . S
C1010 C1008 1.422 . S
C1010 C1009 1.421 1_455 S
C1010 N1020 1.359 . S
C1011 C1009 1.417 . S
C1011 C1013 1.329 . S
C1011 H1030 0.930 . S
C1012 C1008 1.415 . S
C1012 C1013 1.437 1_455 S
C1012 C1016 1.413 . S
C1013 C1011 1.329 . S
C1013 C1012 1.437 1_655 S
C1013 H1035 0.929 . S
N1014 C1008 1.369 . S
N1014 C1015 1.338 . S
N1014 Gd1019 2.622 . S
C1015 N1014 1.338 . S
C1015 C1017 1.378 . S
C1015 H1027 0.929 . S
C1016 C1012 1.413 . S
C1016 C1017 1.348 . S
C1016 H1032 0.931 . S
C1017 C1015 1.378 . S
C1017 C1016 1.348 . S
C1017 H1033 0.930 . S
Gd1018 N1038 2.622 . S
Gd1018 N1045 2.570 . S
Gd1018 O1052 2.353 . S
Gd1018 O1053 2.468 . S
Gd1018 O1054 2.427 . S
Gd1018 O1056 2.388 . S
Gd1018 O1057 2.386 . S
Gd1018 O1061 2.307 . S
Gd1018 C1071 2.805 . S
Gd1019 N1014 2.622 . S
Gd1019 N1020 2.570 . S
Gd1019 O1051 2.386 . S
Gd1019 O1055 2.307 . S
Gd1019 O1058 2.353 . S
Gd1019 O1059 2.468 . S
Gd1019 O1060 2.427 . S
Gd1019 O1062 2.388 . S
Gd1019 C1083 2.805 . S
N1020 C1010 1.359 . S
N1020 Gd1019 2.570 . S
N1020 C1022 1.343 . S
C1021 C1009 1.422 . S
C1021 C1023 1.321 1_655 S
C1021 H1029 0.931 . S
C1022 N1020 1.343 . S
C1022 C1023 1.390 . S
C1022 H1024 0.931 . S
C1023 C1021 1.321 1_455 S
C1023 C1022 1.390 . S
C1023 H1025 0.930 1_455 S
H1024 C1022 0.931 . S
H1025 C1023 0.930 1_655 S
H1026 C1049 0.931 . S
H1027 C1015 0.929 . S
H1028 C1050 0.930 . S
H1029 C1021 0.931 . S
H1030 C1011 0.930 . S
H1031 C1040 0.929 . S
H1032 C1016 0.931 . S
H1033 C1017 0.930 . S
H1034 C1072 0.930 . S
H1035 C1013 0.929 . S
H1036 C1041 0.931 . S
H1037 C1042 0.930 . S
N1038 Gd1018 2.622 . S
N1038 C1039 1.369 . S
N1038 C1040 1.338 . S
C1039 N1038 1.369 . S
C1039 C1043 1.415 . S
C1039 C1046 1.422 . S
C1040 H1031 0.929 . S
C1040 N1038 1.338 . S
C1040 C1042 1.378 . S
C1041 H1036 0.931 . S
C1041 C1042 1.348 . S
C1041 C1043 1.413 . S
C1042 H1037 0.930 . S
C1042 C1040 1.378 . S
C1042 C1041 1.348 . S
C1043 C1039 1.415 . S
C1043 C1041 1.413 . S
C1043 C1073 1.437 . S
H1044 C1073 0.929 . S
N1045 Gd1018 2.570 . S
N1045 C1046 1.359 . S
N1045 C1049 1.343 . S
C1046 C1039 1.422 . S
C1046 N1045 1.359 . S
C1046 C1048 1.421 . S
C1047 C1048 1.422 . S
C1047 C1050 1.321 . S
C1047 H1074 0.931 . S
C1048 C1046 1.421 . S
C1048 C1047 1.422 . S
C1048 C1072 1.417 . S
C1049 H1026 0.931 . S
C1049 N1045 1.343 . S
C1049 C1050 1.390 . S
C1050 H1028 0.930 . S
C1050 C1047 1.321 . S
C1050 C1049 1.390 . S
O1051 Gd1019 2.386 . S
O1051 C1063 1.265 . S
O1052 Gd1018 2.353 . S
O1052 C1063 1.242 . S
O1053 Gd1018 2.468 . S
O1053 C1071 1.263 . S
O1054 Gd1018 2.427 . S
O1054 C1071 1.252 . S
O1055 Gd1019 2.307 . S
O1055 C1064 1.261 . S
O1056 Gd1018 2.388 . S
O1056 C1064 1.252 . S
O1057 Gd1018 2.386 . S
O1057 C1075 1.265 . S
O1058 Gd1019 2.353 . S
O1058 C1075 1.242 . S
O1059 Gd1019 2.468 . S
O1059 C1083 1.263 . S
O1060 Gd1019 2.427 . S
O1060 C1083 1.252 . S
O1061 Gd1018 2.307 . S
O1061 C1076 1.261 . S
O1062 Gd1019 2.388 . S
O1062 C1076 1.252 . S
C1063 O1051 1.265 . S
C1063 O1052 1.242 . S
C1064 O1055 1.261 . S
C1064 O1056 1.252 . S
C1065 C1068 1.394 . S
C1065 C1070 1.370 . S
C1065 C1071 1.500 . S
C1066 C1069 1.383 . S
C1066 C1070 1.395 . S
C1067 C1068 1.396 . S
C1067 C1069 1.365 . S
C1067 H1084 0.929 . S
C1068 C1065 1.394 . S
C1068 C1067 1.396 . S
C1068 H1085 0.930 . S
C1069 C1066 1.383 . S
C1069 C1067 1.365 . S
C1069 H1086 0.931 . S
C1070 C1065 1.370 . S
C1070 C1066 1.395 . S
C1070 H1087 0.930 . S
C1071 Gd1018 2.805 . S
C1071 O1053 1.263 . S
C1071 O1054 1.252 . S
C1071 C1065 1.500 . S
C1072 H1034 0.930 . S
C1072 C1048 1.417 . S
C1072 C1073 1.329 . S
C1073 C1043 1.437 . S
C1073 H1044 0.929 . S
C1073 C1072 1.329 . S
H1074 C1047 0.931 . S
C1075 O1057 1.265 . S
C1075 O1058 1.242 . S
C1076 O1061 1.261 . S
C1076 O1062 1.252 . S
C1077 C1080 1.394 . S
C1077 C1082 1.370 . S
C1077 C1083 1.500 . S
C1078 C1081 1.383 . S
C1078 C1082 1.395 . S
C1079 C1080 1.396 . S
C1079 C1081 1.365 . S
C1079 H1088 0.929 . S
C1080 C1077 1.394 . S
C1080 C1079 1.396 . S
C1080 H1089 0.930 . S
C1081 C1078 1.383 . S
C1081 C1079 1.365 . S
C1081 H1090 0.931 . S
C1082 C1077 1.370 . S
C1082 C1078 1.395 . S
C1082 H1091 0.930 . S
C1083 Gd1019 2.805 . S
C1083 O1059 1.263 . S
C1083 O1060 1.252 . S
C1083 C1077 1.500 . S
H1084 C1067 0.929 . S
H1085 C1068 0.930 . S
H1086 C1069 0.931 . S
H1087 C1070 0.930 . S
H1088 C1079 0.929 . S
H1089 C1080 0.930 . S
H1090 C1081 0.931 . S
H1091 C1082 0.930 . S
C1092 C1094 1.422 . S
C1092 C1096 1.415 . S
C1092 N1098 1.369 . S
C1093 C1094 1.421 . S
C1093 C1095 1.417 . S
C1093 C1105 1.422 . S
C1094 C1092 1.422 . S
C1094 C1093 1.421 . S
C1094 N1104 1.359 . S
C1095 C1093 1.417 . S
C1095 C1097 1.329 . S
C1095 H1114 0.930 . S
C1096 C1092 1.415 . S
C1096 C1097 1.437 . S
C1096 C1100 1.413 . S
C1097 C1095 1.329 . S
C1097 C1096 1.437 . S
C1097 H1119 0.929 . S
N1098 C1092 1.369 . S
N1098 C1099 1.338 . S
N1098 Gd1103 2.622 . S
C1099 N1098 1.338 . S
C1099 C1101 1.378 . S
C1099 H1111 0.929 . S
C1100 C1096 1.413 . S
C1100 C1101 1.348 . S
C1100 H1116 0.931 . S
C1101 C1099 1.378 . S
C1101 C1100 1.348 . S
C1101 H1117 0.930 . S
Gd1102 N1122 2.622 . S
Gd1102 N1129 2.570 . S
Gd1102 O1136 2.353 . S
Gd1102 O1137 2.468 . S
Gd1102 O1138 2.427 . S
Gd1102 O1140 2.388 . S
Gd1102 O1141 2.386 . S
Gd1102 O1145 2.307 . S
Gd1102 C1155 2.805 . S
Gd1103 N1098 2.622 . S
Gd1103 N1104 2.570 . S
Gd1103 O1135 2.386 . S
Gd1103 O1139 2.307 . S
Gd1103 O1142 2.353 . S
Gd1103 O1143 2.468 . S
Gd1103 O1144 2.427 . S
Gd1103 O1146 2.388 . S
Gd1103 C1167 2.805 . S
N1104 C1094 1.359 . S
N1104 Gd1103 2.570 . S
N1104 C1106 1.343 . S
C1105 C1093 1.422 . S
C1105 C1107 1.321 . S
C1105 H1113 0.931 . S
C1106 N1104 1.343 . S
C1106 C1107 1.390 . S
C1106 H1108 0.931 . S
C1107 C1105 1.321 . S
C1107 C1106 1.390 . S
C1107 H1109 0.930 . S
H1108 C1106 0.931 . S
H1109 C1107 0.930 . S
H1110 C1133 0.931 . S
H1111 C1099 0.929 . S
H1112 C1134 0.930 . S
H1113 C1105 0.931 . S
H1114 C1095 0.930 . S
H1115 C1124 0.929 . S
H1116 C1100 0.931 . S
H1117 C1101 0.930 . S
H1118 C1156 0.930 . S
H1119 C1097 0.929 . S
H1120 C1125 0.931 . S
H1121 C1126 0.930 . S
N1122 Gd1102 2.622 . S
N1122 C1123 1.369 . S
N1122 C1124 1.338 . S
C1123 N1122 1.369 . S
C1123 C1127 1.415 . S
C1123 C1130 1.422 . S
C1124 H1115 0.929 . S
C1124 N1122 1.338 . S
C1124 C1126 1.378 . S
C1125 H1120 0.931 . S
C1125 C1126 1.348 . S
C1125 C1127 1.413 . S
C1126 H1121 0.930 . S
C1126 C1124 1.378 . S
C1126 C1125 1.348 . S
C1127 C1123 1.415 . S
C1127 C1125 1.413 . S
C1127 C1157 1.437 1_565 S
H1128 C1157 0.929 . S
N1129 Gd1102 2.570 . S
N1129 C1130 1.359 . S
N1129 C1133 1.343 . S
C1130 C1123 1.422 . S
C1130 N1129 1.359 . S
C1130 C1132 1.421 1_565 S
C1131 C1132 1.422 . S
C1131 C1134 1.321 . S
C1131 H1158 0.931 . S
C1132 C1130 1.421 1_545 S
C1132 C1131 1.422 . S
C1132 C1156 1.417 . S
C1133 H1110 0.931 . S
C1133 N1129 1.343 . S
C1133 C1134 1.390 1_565 S
C1134 H1112 0.930 . S
C1134 C1131 1.321 . S
C1134 C1133 1.390 1_545 S
O1135 Gd1103 2.386 . S
O1135 C1147 1.265 . S
O1136 Gd1102 2.353 . S
O1136 C1147 1.242 . S
O1137 Gd1102 2.468 . S
O1137 C1155 1.263 . S
O1138 Gd1102 2.427 . S
O1138 C1155 1.252 . S
O1139 Gd1103 2.307 . S
O1139 C1148 1.261 . S
O1140 Gd1102 2.388 . S
O1140 C1148 1.252 . S
O1141 Gd1102 2.386 . S
O1141 C1159 1.265 . S
O1142 Gd1103 2.353 . S
O1142 C1159 1.242 . S
O1143 Gd1103 2.468 . S
O1143 C1167 1.263 . S
O1144 Gd1103 2.427 . S
O1144 C1167 1.252 . S
O1145 Gd1102 2.307 . S
O1145 C1160 1.261 . S
O1146 Gd1103 2.388 . S
O1146 C1160 1.252 . S
C1147 O1135 1.265 . S
C1147 O1136 1.242 . S
C1148 O1139 1.261 . S
C1148 O1140 1.252 . S
C1149 C1152 1.394 . S
C1149 C1154 1.370 . S
C1149 C1155 1.500 1_545 S
C1150 C1153 1.383 . S
C1150 C1154 1.395 . S
C1151 C1152 1.396 . S
C1151 C1153 1.365 . S
C1151 H1168 0.929 . S
C1152 C1149 1.394 . S
C1152 C1151 1.396 . S
C1152 H1169 0.930 . S
C1153 C1150 1.383 . S
C1153 C1151 1.365 . S
C1153 H1170 0.931 . S
C1154 C1149 1.370 . S
C1154 C1150 1.395 . S
C1154 H1171 0.930 . S
C1155 Gd1102 2.805 . S
C1155 O1137 1.263 . S
C1155 O1138 1.252 . S
C1155 C1149 1.500 1_565 S
C1156 H1118 0.930 . S
C1156 C1132 1.417 . S
C1156 C1157 1.329 . S
C1157 C1127 1.437 1_545 S
C1157 H1128 0.929 . S
C1157 C1156 1.329 . S
H1158 C1131 0.931 . S
C1159 O1141 1.265 . S
C1159 O1142 1.242 . S
C1160 O1145 1.261 . S
C1160 O1146 1.252 . S
C1161 C1164 1.394 . S
C1161 C1166 1.370 . S
C1161 C1167 1.500 . S
C1162 C1165 1.383 . S
C1162 C1166 1.395 . S
C1163 C1164 1.396 . S
C1163 C1165 1.365 . S
C1163 H1172 0.929 . S
C1164 C1161 1.394 . S
C1164 C1163 1.396 . S
C1164 H1173 0.930 . S
C1165 C1162 1.383 . S
C1165 C1163 1.365 . S
C1165 H1174 0.931 . S
C1166 C1161 1.370 . S
C1166 C1162 1.395 . S
C1166 H1175 0.930 . S
C1167 Gd1103 2.805 . S
C1167 O1143 1.263 . S
C1167 O1144 1.252 . S
C1167 C1161 1.500 . S
H1168 C1151 0.929 . S
H1169 C1152 0.930 . S
H1170 C1153 0.931 . S
H1171 C1154 0.930 . S
H1172 C1163 0.929 . S
H1173 C1164 0.930 . S
H1174 C1165 0.931 . S
H1175 C1166 0.930 . S
C1176 C1178 1.422 . S
C1176 C1180 1.415 . S
C1176 N1182 1.369 1_545 S
C1177 C1178 1.421 . S
C1177 C1179 1.417 . S
C1177 C1189 1.422 . S
C1178 C1176 1.422 . S
C1178 C1177 1.421 . S
C1178 N1188 1.359 . S
C1179 C1177 1.417 . S
C1179 C1181 1.329 . S
C1179 H1198 0.930 . S
C1180 C1176 1.415 . S
C1180 C1181 1.437 . S
C1180 C1184 1.413 . S
C1181 C1179 1.329 . S
C1181 C1180 1.437 . S
C1181 H1203 0.929 . S
N1182 C1176 1.369 1_565 S
N1182 C1183 1.338 . S
N1182 Gd1187 2.622 . S
C1183 N1182 1.338 . S
C1183 C1185 1.378 . S
C1183 H1195 0.929 . S
C1184 C1180 1.413 . S
C1184 C1185 1.348 1_545 S
C1184 H1200 0.931 . S
C1185 C1183 1.378 . S
C1185 C1184 1.348 1_565 S
C1185 H1201 0.930 . S
Gd1186 N1206 2.622 . S
Gd1186 N1213 2.570 . S
Gd1186 O1220 2.353 . S
Gd1186 O1221 2.468 . S
Gd1186 O1222 2.427 . S
Gd1186 O1224 2.388 . S
Gd1186 O1225 2.386 . S
Gd1186 O1229 2.307 . S
Gd1186 C1239 2.805 . S
Gd1187 N1182 2.622 . S
Gd1187 N1188 2.570 1_565 S
Gd1187 O1219 2.386 . S
Gd1187 O1223 2.307 . S
Gd1187 O1226 2.353 . S
Gd1187 O1227 2.468 . S
Gd1187 O1228 2.427 . S
Gd1187 O1230 2.388 . S
Gd1187 C1251 2.805 . S
N1188 C1178 1.359 . S
N1188 Gd1187 2.570 1_545 S
N1188 C1190 1.343 . S
C1189 C1177 1.422 . S
C1189 C1191 1.321 . S
C1189 H1197 0.931 . S
C1190 N1188 1.343 . S
C1190 C1191 1.390 . S
C1190 H1192 0.916 1_545 S
C1191 C1189 1.321 . S
C1191 C1190 1.390 . S
C1191 H1193 0.930 . S
H1192 C1190 0.916 1_565 S
H1193 C1191 0.930 . S
H1194 C1217 0.931 . S
H1195 C1183 0.929 . S
H1196 C1218 0.930 . S
H1197 C1189 0.931 . S
H1198 C1179 0.930 . S
H1199 C1208 0.929 . S
H1200 C1184 0.931 . S
H1201 C1185 0.930 . S
H1202 C1240 0.930 . S
H1203 C1181 0.929 . S
H1204 C1209 0.931 . S
H1205 C1210 0.930 . S
N1206 Gd1186 2.622 . S
N1206 C1207 1.369 . S
N1206 C1208 1.338 . S
C1207 N1206 1.369 . S
C1207 C1211 1.415 . S
C1207 C1214 1.422 . S
C1208 H1199 0.929 . S
C1208 N1206 1.338 . S
C1208 C1210 1.378 . S
C1209 H1204 0.931 . S
C1209 C1210 1.348 . S
C1209 C1211 1.413 . S
C1210 H1205 0.930 . S
C1210 C1208 1.378 . S
C1210 C1209 1.348 . S
C1211 C1207 1.415 . S
C1211 C1209 1.413 . S
C1211 C1241 1.437 . S
H1212 C1241 0.929 . S
N1213 Gd1186 2.570 . S
N1213 C1214 1.359 . S
N1213 C1217 1.343 . S
C1214 C1207 1.422 . S
C1214 N1213 1.359 . S
C1214 C1216 1.421 . S
C1215 C1216 1.422 . S
C1215 C1218 1.321 . S
C1215 H1242 0.931 . S
C1216 C1214 1.421 . S
C1216 C1215 1.422 . S
C1216 C1240 1.417 . S
C1217 H1194 0.931 . S
C1217 N1213 1.343 . S
C1217 C1218 1.390 . S
C1218 H1196 0.930 . S
C1218 C1215 1.321 . S
C1218 C1217 1.390 . S
O1219 Gd1187 2.386 . S
O1219 C1231 1.265 . S
O1220 Gd1186 2.353 . S
O1220 C1231 1.242 . S
O1221 Gd1186 2.468 . S
O1221 C1239 1.263 . S
O1222 Gd1186 2.427 . S
O1222 C1239 1.252 . S
O1223 Gd1187 2.307 . S
O1223 C1232 1.261 . S
O1224 Gd1186 2.388 . S
O1224 C1232 1.252 . S
O1225 Gd1186 2.386 . S
O1225 C1243 1.265 . S
O1226 Gd1187 2.353 . S
O1226 C1243 1.242 . S
O1227 Gd1187 2.468 . S
O1227 C1251 1.263 . S
O1228 Gd1187 2.427 . S
O1228 C1251 1.252 . S
O1229 Gd1186 2.307 . S
O1229 C1244 1.261 . S
O1230 Gd1187 2.388 . S
O1230 C1244 1.252 . S
C1231 O1219 1.265 . S
C1231 O1220 1.242 . S
C1232 O1223 1.261 . S
C1232 O1224 1.252 . S
C1233 C1236 1.394 . S
C1233 C1238 1.370 . S
C1233 C1239 1.500 . S
C1234 C1237 1.383 . S
C1234 C1238 1.395 1_655 S
C1235 C1236 1.396 1_655 S
C1235 C1237 1.365 . S
C1235 H1252 0.929 . S
C1236 C1233 1.394 . S
C1236 C1235 1.396 1_455 S
C1236 H1253 0.930 . S
C1237 C1234 1.383 . S
C1237 C1235 1.365 . S
C1237 H1254 0.931 . S
C1238 C1233 1.370 . S
C1238 C1234 1.395 1_455 S
C1238 H1255 0.930 . S
C1239 Gd1186 2.805 . S
C1239 O1221 1.263 . S
C1239 O1222 1.252 . S
C1239 C1233 1.500 . S
C1240 H1202 0.930 . S
C1240 C1216 1.417 . S
C1240 C1241 1.329 . S
C1241 C1211 1.437 . S
C1241 H1212 0.929 . S
C1241 C1240 1.329 . S
H1242 C1215 0.931 . S
C1243 O1225 1.265 . S
C1243 O1226 1.242 . S
C1244 O1229 1.261 . S
C1244 O1230 1.252 . S
C1245 C1248 1.394 . S
C1245 C1250 1.370 . S
C1245 C1251 1.500 . S
C1246 C1249 1.383 . S
C1246 C1250 1.395 . S
C1247 C1248 1.396 . S
C1247 C1249 1.365 . S
C1247 H1256 0.929 . S
C1248 C1245 1.394 . S
C1248 C1247 1.396 . S
C1248 H1257 0.930 . S
C1249 C1246 1.383 . S
C1249 C1247 1.365 . S
C1249 H1258 0.931 . S
C1250 C1245 1.370 . S
C1250 C1246 1.395 . S
C1250 H1259 0.930 . S
C1251 Gd1187 2.805 . S
C1251 O1227 1.263 . S
C1251 O1228 1.252 . S
C1251 C1245 1.500 . S
H1252 C1235 0.929 . S
H1253 C1236 0.930 . S
H1254 C1237 0.931 . S
H1255 C1238 0.930 . S
H1256 C1247 0.929 . S
H1257 C1248 0.930 . S
H1258 C1249 0.931 . S
H1259 C1250 0.930 . S
C1260 C1262 1.422 . S
C1260 C1264 1.415 . S
C1260 N1266 1.369 . S
C1261 C1262 1.421 . S
C1261 C1263 1.417 . S
C1261 C1273 1.422 . S
C1262 C1260 1.422 . S
C1262 C1261 1.421 . S
C1262 N1272 1.359 . S
C1263 C1261 1.417 . S
C1263 C1265 1.329 . S
C1263 H1282 0.930 . S
C1264 C1260 1.415 . S
C1264 C1265 1.437 . S
C1264 C1268 1.413 . S
C1265 C1263 1.329 . S
C1265 C1264 1.437 . S
C1265 H1287 0.929 . S
N1266 C1260 1.369 . S
N1266 C1267 1.338 . S
N1266 Gd1271 2.622 . S
C1267 N1266 1.338 . S
C1267 C1269 1.378 . S
C1267 H1279 0.929 . S
C1268 C1264 1.413 . S
C1268 C1269 1.348 . S
C1268 H1284 0.931 . S
C1269 C1267 1.378 . S
C1269 C1268 1.348 . S
C1269 H1285 0.930 . S
Gd1270 N1290 2.622 . S
Gd1270 N1297 2.570 . S
Gd1270 O1304 2.353 . S
Gd1270 O1305 2.468 . S
Gd1270 O1306 2.427 . S
Gd1270 O1308 2.388 . S
Gd1270 O1309 2.386 . S
Gd1270 O1313 2.307 . S
Gd1270 C1323 2.805 . S
Gd1271 N1266 2.622 . S
Gd1271 N1272 2.570 . S
Gd1271 O1303 2.386 . S
Gd1271 O1307 2.307 . S
Gd1271 O1310 2.353 . S
Gd1271 O1311 2.468 . S
Gd1271 O1312 2.427 . S
Gd1271 O1314 2.388 . S
Gd1271 C1335 2.805 . S
N1272 C1262 1.359 . S
N1272 Gd1271 2.570 . S
N1272 C1274 1.343 . S
C1273 C1261 1.422 . S
C1273 C1275 1.321 . S
C1273 H1281 0.931 . S
C1274 N1272 1.343 . S
C1274 C1275 1.390 . S
C1274 H1276 0.931 . S
C1275 C1273 1.321 . S
C1275 C1274 1.390 . S
C1275 H1277 0.930 . S
H1276 C1274 0.931 . S
H1277 C1275 0.930 . S
H1278 C1301 0.931 . S
H1279 C1267 0.929 . S
H1280 C1302 0.930 . S
H1281 C1273 0.931 . S
H1282 C1263 0.930 . S
H1283 C1292 0.929 . S
H1284 C1268 0.931 . S
H1285 C1269 0.930 . S
H1286 C1324 0.930 . S
H1287 C1265 0.929 . S
H1288 C1293 0.931 . S
H1289 C1294 0.930 . S
N1290 Gd1270 2.622 . S
N1290 C1291 1.369 . S
N1290 C1292 1.338 . S
C1291 N1290 1.369 . S
C1291 C1295 1.415 1_565 S
C1291 C1298 1.422 1_565 S
C1292 H1283 0.929 . S
C1292 N1290 1.338 . S
C1292 C1294 1.378 . S
C1293 H1288 0.931 . S
C1293 C1294 1.348 1_545 S
C1293 C1295 1.413 . S
C1294 H1289 0.930 . S
C1294 C1292 1.378 . S
C1294 C1293 1.348 1_565 S
C1295 C1291 1.415 1_545 S
C1295 C1293 1.413 . S
C1295 C1325 1.437 . S
H1296 C1325 0.929 . S
N1297 Gd1270 2.570 . S
N1297 C1298 1.359 1_565 S
N1297 C1301 1.343 . S
C1298 C1291 1.422 1_545 S
C1298 N1297 1.359 1_545 S
C1298 C1300 1.421 . S
C1299 C1300 1.422 . S
C1299 C1302 1.321 . S
C1299 H1326 0.931 . S
C1300 C1298 1.421 . S
C1300 C1299 1.422 . S
C1300 C1324 1.417 . S
C1301 H1278 0.931 . S
C1301 N1297 1.343 . S
C1301 C1302 1.390 1_565 S
C1302 H1280 0.930 . S
C1302 C1299 1.321 . S
C1302 C1301 1.390 1_545 S
O1303 Gd1271 2.386 . S
O1303 C1315 1.265 . S
O1304 Gd1270 2.353 . S
O1304 C1315 1.242 . S
O1305 Gd1270 2.468 . S
O1305 C1323 1.263 . S
O1306 Gd1270 2.427 . S
O1306 C1323 1.252 . S
O1307 Gd1271 2.307 . S
O1307 C1316 1.261 . S
O1308 Gd1270 2.388 . S
O1308 C1316 1.252 . S
O1309 Gd1270 2.386 . S
O1309 C1327 1.265 . S
O1310 Gd1271 2.353 . S
O1310 C1327 1.242 . S
O1311 Gd1271 2.468 . S
O1311 C1335 1.263 . S
O1312 Gd1271 2.427 . S
O1312 C1335 1.252 . S
O1313 Gd1270 2.307 . S
O1313 C1328 1.261 . S
O1314 Gd1271 2.388 . S
O1314 C1328 1.252 . S
C1315 O1303 1.265 . S
C1315 O1304 1.242 . S
C1316 O1307 1.261 . S
C1316 O1308 1.252 . S
C1317 C1320 1.394 . S
C1317 C1322 1.370 . S
C1317 C1323 1.500 . S
C1318 C1321 1.383 . S
C1318 C1322 1.395 . S
C1319 C1320 1.396 . S
C1319 C1321 1.365 . S
C1319 H1336 0.929 . S
C1320 C1317 1.394 . S
C1320 C1319 1.396 . S
C1320 H1337 0.930 . S
C1321 C1318 1.383 . S
C1321 C1319 1.365 . S
C1321 H1338 0.931 . S
C1322 C1317 1.370 . S
C1322 C1318 1.395 . S
C1322 H1339 0.930 . S
C1323 Gd1270 2.805 . S
C1323 O1305 1.263 . S
C1323 O1306 1.252 . S
C1323 C1317 1.500 . S
C1324 H1286 0.930 . S
C1324 C1300 1.417 . S
C1324 C1325 1.329 . S
C1325 C1295 1.437 . S
C1325 H1296 0.929 . S
C1325 C1324 1.329 . S
H1326 C1299 0.931 . S
C1327 O1309 1.265 . S
C1327 O1310 1.242 . S
C1328 O1313 1.261 . S
C1328 O1314 1.252 . S
C1329 C1332 1.394 . S
C1329 C1334 1.370 . S
C1329 C1335 1.500 . S
C1330 C1333 1.383 . S
C1330 C1334 1.395 . S
C1331 C1332 1.396 . S
C1331 C1333 1.365 . S
C1331 H1340 0.929 . S
C1332 C1329 1.394 . S
C1332 C1331 1.396 . S
C1332 H1341 0.930 . S
C1333 C1330 1.383 . S
C1333 C1331 1.365 . S
C1333 H1342 0.931 1_655 S
C1334 C1329 1.370 . S
C1334 C1330 1.395 . S
C1334 H1343 0.930 . S
C1335 Gd1271 2.805 . S
C1335 O1311 1.263 . S
C1335 O1312 1.252 . S
C1335 C1329 1.500 . S
H1336 C1319 0.929 . S
H1337 C1320 0.930 . S
H1338 C1321 0.931 . S
H1339 C1322 0.930 . S
H1340 C1331 0.929 . S
H1341 C1332 0.930 . S
H1342 C1333 0.931 1_455 S
H1343 C1334 0.930 . S
C1344 C1346 1.422 . S
C1344 C1348 1.415 . S
C1344 N1350 1.369 1_545 S
C1345 C1346 1.421 . S
C1345 C1347 1.417 . S
C1345 C1357 1.422 . S
C1346 C1344 1.422 . S
C1346 C1345 1.421 . S
C1346 N1356 1.359 . S
C1347 C1345 1.417 . S
C1347 C1349 1.329 . S
C1347 H1366 0.930 . S
C1348 C1344 1.415 . S
C1348 C1349 1.437 . S
C1348 C1352 1.413 . S
C1349 C1347 1.329 . S
C1349 C1348 1.437 . S
C1349 H1371 0.929 . S
N1350 C1344 1.369 1_565 S
N1350 C1351 1.338 . S
N1350 Gd1355 2.622 . S
C1351 N1350 1.338 . S
C1351 C1353 1.378 . S
C1351 H1363 0.929 . S
C1352 C1348 1.413 . S
C1352 C1353 1.348 1_545 S
C1352 H1368 0.931 . S
C1353 C1351 1.378 . S
C1353 C1352 1.348 1_565 S
C1353 H1369 0.930 . S
Gd1354 N1374 2.622 . S
Gd1354 N1381 2.570 . S
Gd1354 O1388 2.353 . S
Gd1354 O1389 2.468 . S
Gd1354 O1390 2.427 . S
Gd1354 O1392 2.388 . S
Gd1354 O1393 2.386 . S
Gd1354 O1397 2.307 . S
Gd1354 C1407 2.805 . S
Gd1355 N1350 2.622 . S
Gd1355 N1356 2.570 1_565 S
Gd1355 O1387 2.386 . S
Gd1355 O1391 2.307 . S
Gd1355 O1394 2.353 . S
Gd1355 O1395 2.468 1_565 S
Gd1355 O1396 2.427 1_565 S
Gd1355 O1398 2.388 . S
Gd1355 C1419 2.805 1_565 S
N1356 C1346 1.359 . S
N1356 Gd1355 2.570 1_545 S
N1356 C1358 1.343 . S
C1357 C1345 1.422 . S
C1357 C1359 1.321 . S
C1357 H1365 0.931 . S
C1358 N1356 1.343 . S
C1358 C1359 1.390 . S
C1358 H1360 0.931 . S
C1359 C1357 1.321 . S
C1359 C1358 1.390 . S
C1359 H1361 0.930 . S
H1360 C1358 0.931 . S
H1361 C1359 0.930 . S
H1362 C1385 0.931 . S
H1363 C1351 0.929 . S
H1364 C1386 0.930 . S
H1365 C1357 0.931 . S
H1366 C1347 0.930 . S
H1367 C1376 0.929 . S
H1368 C1352 0.931 . S
H1369 C1353 0.930 . S
H1370 C1408 0.930 . S
H1371 C1349 0.929 . S
H1372 C1377 0.931 . S
H1373 C1378 0.930 . S
N1374 Gd1354 2.622 . S
N1374 C1375 1.369 . S
N1374 C1376 1.338 . S
C1375 N1374 1.369 . S
C1375 C1379 1.415 . S
C1375 C1382 1.422 . S
C1376 H1367 0.929 . S
C1376 N1374 1.338 . S
C1376 C1378 1.378 . S
C1377 H1372 0.931 . S
C1377 C1378 1.348 . S
C1377 C1379 1.413 . S
C1378 H1373 0.930 . S
C1378 C1376 1.378 . S
C1378 C1377 1.348 . S
C1379 C1375 1.415 . S
C1379 C1377 1.413 . S
C1379 C1409 1.458 . S
H1380 C1409 0.913 1_655 S
N1381 Gd1354 2.570 . S
N1381 C1382 1.359 . S
N1381 C1385 1.343 . S
C1382 C1375 1.422 . S
C1382 N1381 1.359 . S
C1382 C1384 1.421 . S
C1383 C1384 1.422 . S
C1383 C1386 1.321 . S
C1383 H1410 0.931 1_455 S
C1384 C1382 1.421 . S
C1384 C1383 1.422 . S
C1384 C1408 1.417 1_455 S
C1385 H1362 0.931 . S
C1385 N1381 1.343 . S
C1385 C1386 1.390 . S
C1386 H1364 0.930 . S
C1386 C1383 1.321 . S
C1386 C1385 1.390 . S
O1387 Gd1355 2.386 . S
O1387 C1399 1.265 . S
O1388 Gd1354 2.353 . S
O1388 C1399 1.242 . S
O1389 Gd1354 2.468 . S
O1389 C1407 1.263 . S
O1390 Gd1354 2.427 . S
O1390 C1407 1.252 . S
O1391 Gd1355 2.307 . S
O1391 C1400 1.261 . S
O1392 Gd1354 2.388 . S
O1392 C1400 1.252 . S
O1393 Gd1354 2.386 . S
O1393 C1411 1.265 . S
O1394 Gd1355 2.353 . S
O1394 C1411 1.242 . S
O1395 Gd1355 2.468 1_545 S
O1395 C1419 1.263 . S
O1396 Gd1355 2.427 1_545 S
O1396 C1419 1.252 . S
O1397 Gd1354 2.307 . S
O1397 C1412 1.261 . S
O1398 Gd1355 2.388 . S
O1398 C1412 1.252 . S
C1399 O1387 1.265 . S
C1399 O1388 1.242 . S
C1400 O1391 1.261 . S
C1400 O1392 1.252 . S
C1401 C1404 1.394 . S
C1401 C1406 1.370 . S
C1401 C1407 1.500 . S
C1402 C1405 1.383 . S
C1402 C1406 1.395 . S
C1403 C1404 1.396 . S
C1403 C1405 1.365 . S
C1403 H1420 0.929 . S
C1404 C1401 1.394 . S
C1404 C1403 1.396 . S
C1404 H1421 0.930 . S
C1405 C1402 1.383 . S
C1405 C1403 1.365 . S
C1405 H1422 0.931 . S
C1406 C1401 1.370 . S
C1406 C1402 1.395 . S
C1406 H1423 0.930 . S
C1407 Gd1354 2.805 . S
C1407 O1389 1.263 . S
C1407 O1390 1.252 . S
C1407 C1401 1.500 . S
C1408 H1370 0.930 . S
C1408 C1384 1.417 1_655 S
C1408 C1409 1.325 1_655 S
C1409 C1379 1.458 . S
C1409 H1380 0.913 1_455 S
C1409 C1408 1.325 1_455 S
H1410 C1383 0.931 1_655 S
C1411 O1393 1.265 . S
C1411 O1394 1.242 . S
C1412 O1397 1.261 . S
C1412 O1398 1.252 . S
C1413 C1416 1.394 . S
C1413 C1418 1.370 . S
C1413 C1419 1.500 . S
C1414 C1417 1.383 . S
C1414 C1418 1.395 . S
C1415 C1416 1.396 . S
C1415 C1417 1.365 . S
C1415 H1424 0.929 . S
C1416 C1413 1.394 . S
C1416 C1415 1.396 . S
C1416 H1425 0.930 . S
C1417 C1414 1.383 . S
C1417 C1415 1.365 . S
C1417 H1426 0.931 . S
C1418 C1413 1.370 . S
C1418 C1414 1.395 . S
C1418 H1427 0.930 . S
C1419 Gd1355 2.805 1_545 S
C1419 O1395 1.263 . S
C1419 O1396 1.252 . S
C1419 C1413 1.500 . S
H1420 C1403 0.929 . S
H1421 C1404 0.930 . S
H1422 C1405 0.931 . S
H1423 C1406 0.930 . S
H1424 C1415 0.929 . S
H1425 C1416 0.930 . S
H1426 C1417 0.931 . S
H1427 C1418 0.930 . S
C1428 C1430 1.422 . S
C1428 C1432 1.415 . S
C1428 N1434 1.369 . S
C1429 C1430 1.421 1_655 S
C1429 C1431 1.417 . S
C1429 C1441 1.422 . S
C1430 C1428 1.422 . S
C1430 C1429 1.421 1_455 S
C1430 N1440 1.359 . S
C1431 C1429 1.417 . S
C1431 C1433 1.329 1_655 S
C1431 H1450 0.930 . S
C1432 C1428 1.415 . S
C1432 C1433 1.437 . S
C1432 C1436 1.413 . S
C1433 C1431 1.329 1_455 S
C1433 C1432 1.437 . S
C1433 H1455 0.929 1_455 S
N1434 C1428 1.369 . S
N1434 C1435 1.338 . S
N1434 Gd1439 2.622 . S
C1435 N1434 1.338 . S
C1435 C1437 1.378 . S
C1435 H1447 0.929 . S
C1436 C1432 1.413 . S
C1436 C1437 1.348 . S
C1436 H1452 0.931 . S
C1437 C1435 1.378 . S
C1437 C1436 1.348 . S
C1437 H1453 0.930 . S
Gd1438 N1458 2.622 . S
Gd1438 N1465 2.570 . S
Gd1438 O1472 2.353 . S
Gd1438 O1473 2.468 . S
Gd1438 O1474 2.427 . S
Gd1438 O1476 2.388 . S
Gd1438 O1477 2.386 . S
Gd1438 O1481 2.307 . S
Gd1438 C1491 2.805 . S
Gd1439 N1434 2.622 . S
Gd1439 N1440 2.570 . S
Gd1439 O1471 2.386 . S
Gd1439 O1475 2.307 . S
Gd1439 O1478 2.353 . S
Gd1439 O1479 2.468 . S
Gd1439 O1480 2.427 . S
Gd1439 O1482 2.388 . S
Gd1439 C1503 2.805 . S
N1440 C1430 1.359 . S
N1440 Gd1439 2.570 . S
N1440 C1442 1.343 . S
C1441 C1429 1.422 . S
C1441 C1443 1.321 . S
C1441 H1449 0.931 . S
C1442 N1440 1.343 . S
C1442 C1443 1.390 1_455 S
C1442 H1444 0.931 . S
C1443 C1441 1.321 . S
C1443 C1442 1.390 1_655 S
C1443 H1445 0.930 . S
H1444 C1442 0.931 . S
H1445 C1443 0.930 . S
H1446 C1469 0.931 . S
H1447 C1435 0.929 . S
H1448 C1470 0.930 . S
H1449 C1441 0.931 . S
H1450 C1431 0.930 . S
H1451 C1460 0.929 . S
H1452 C1436 0.931 . S
H1453 C1437 0.930 . S
H1454 C1492 0.930 . S
H1455 C1433 0.929 1_655 S
H1456 C1461 0.931 . S
H1457 C1462 0.930 . S
N1458 Gd1438 2.622 . S
N1458 C1459 1.369 . S
N1458 C1460 1.338 . S
C1459 N1458 1.369 . S
C1459 C1463 1.415 . S
C1459 C1466 1.422 . S
C1460 H1451 0.929 . S
C1460 N1458 1.338 . S
C1460 C1462 1.378 . S
C1461 H1456 0.931 . S
C1461 C1462 1.348 . S
C1461 C1463 1.413 . S
C1462 H1457 0.930 . S
C1462 C1460 1.378 . S
C1462 C1461 1.348 . S
C1463 C1459 1.415 . S
C1463 C1461 1.413 . S
C1463 C1493 1.437 . S
H1464 C1493 0.929 . S
N1465 Gd1438 2.570 . S
N1465 C1466 1.359 . S
N1465 C1469 1.343 . S
C1466 C1459 1.422 . S
C1466 N1465 1.359 . S
C1466 C1468 1.421 . S
C1467 C1468 1.422 . S
C1467 C1470 1.321 . S
C1467 H1494 0.931 . S
C1468 C1466 1.421 . S
C1468 C1467 1.422 . S
C1468 C1492 1.417 . S
C1469 H1446 0.931 . S
C1469 N1465 1.343 . S
C1469 C1470 1.390 . S
C1470 H1448 0.930 . S
C1470 C1467 1.321 . S
C1470 C1469 1.390 . S
O1471 Gd1439 2.386 . S
O1471 C1483 1.265 . S
O1472 Gd1438 2.353 . S
O1472 C1483 1.242 . S
O1473 Gd1438 2.468 . S
O1473 C1491 1.263 . S
O1474 Gd1438 2.427 . S
O1474 C1491 1.252 . S
O1475 Gd1439 2.307 . S
O1475 C1484 1.261 . S
O1476 Gd1438 2.388 . S
O1476 C1484 1.252 . S
O1477 Gd1438 2.386 . S
O1477 C1495 1.265 . S
O1478 Gd1439 2.353 . S
O1478 C1495 1.242 . S
O1479 Gd1439 2.468 . S
O1479 C1503 1.263 . S
O1480 Gd1439 2.427 . S
O1480 C1503 1.252 . S
O1481 Gd1438 2.307 . S
O1481 C1496 1.261 . S
O1482 Gd1439 2.388 . S
O1482 C1496 1.252 . S
C1483 O1471 1.265 . S
C1483 O1472 1.242 . S
C1484 O1475 1.261 . S
C1484 O1476 1.252 . S
C1485 C1488 1.394 . S
C1485 C1490 1.370 . S
C1485 C1491 1.500 . S
C1486 C1489 1.383 . S
C1486 C1490 1.395 . S
C1487 C1488 1.396 . S
C1487 C1489 1.365 . S
C1487 H1504 0.929 . S
C1488 C1485 1.394 . S
C1488 C1487 1.396 . S
C1488 H1505 0.930 . S
C1489 C1486 1.383 . S
C1489 C1487 1.365 . S
C1489 H1506 0.931 . S
C1490 C1485 1.370 . S
C1490 C1486 1.395 . S
C1490 H1507 0.930 . S
C1491 Gd1438 2.805 . S
C1491 O1473 1.263 . S
C1491 O1474 1.252 . S
C1491 C1485 1.500 . S
C1492 H1454 0.930 . S
C1492 C1468 1.417 . S
C1492 C1493 1.329 . S
C1493 C1463 1.437 . S
C1493 H1464 0.929 . S
C1493 C1492 1.329 . S
H1494 C1467 0.931 . S
C1495 O1477 1.265 . S
C1495 O1478 1.242 . S
C1496 O1481 1.261 . S
C1496 O1482 1.252 . S
C1497 C1500 1.394 . S
C1497 C1502 1.370 . S
C1497 C1503 1.500 1_655 S
C1498 C1501 1.383 . S
C1498 C1502 1.395 . S
C1499 C1500 1.396 . S
C1499 C1501 1.365 . S
C1499 H1508 0.929 . S
C1500 C1497 1.394 . S
C1500 C1499 1.396 . S
C1500 H1509 0.930 . S
C1501 C1498 1.383 . S
C1501 C1499 1.365 . S
C1501 H1510 0.931 . S
C1502 C1497 1.370 . S
C1502 C1498 1.395 . S
C1502 H1511 0.930 . S
C1503 Gd1439 2.805 . S
C1503 O1479 1.263 . S
C1503 O1480 1.252 . S
C1503 C1497 1.500 1_455 S
H1504 C1487 0.929 . S
H1505 C1488 0.930 . S
H1506 C1489 0.931 . S
H1507 C1490 0.930 . S
H1508 C1499 0.929 . S
H1509 C1500 0.930 . S
H1510 C1501 0.931 . S
H1511 C1502 0.930 . S
C1512 C1514 1.422 . S
C1512 C1516 1.415 . S
C1512 N1518 1.369 . S
C1513 C1514 1.421 . S
C1513 C1515 1.417 1_455 S
C1513 C1525 1.422 . S
C1514 C1512 1.422 . S
C1514 C1513 1.421 . S
C1514 N1524 1.359 . S
C1515 C1513 1.417 1_655 S
C1515 C1517 1.329 1_655 S
C1515 H1534 0.930 . S
C1516 C1512 1.415 . S
C1516 C1517 1.437 . S
C1516 C1520 1.413 . S
C1517 C1515 1.329 1_455 S
C1517 C1516 1.437 . S
C1517 H1539 0.929 1_455 S
N1518 C1512 1.369 . S
N1518 C1519 1.338 . S
N1518 Gd1523 2.622 . S
C1519 N1518 1.338 . S
C1519 C1521 1.378 . S
C1519 H1531 0.929 . S
C1520 C1516 1.413 . S
C1520 C1521 1.348 . S
C1520 H1536 0.931 . S
C1521 C1519 1.378 . S
C1521 C1520 1.348 . S
C1521 H1537 0.930 . S
Gd1522 N1542 2.622 . S
Gd1522 N1549 2.570 . S
Gd1522 O1556 2.353 . S
Gd1522 O1557 2.468 . S
Gd1522 O1558 2.427 . S
Gd1522 O1560 2.388 . S
Gd1522 O1561 2.386 . S
Gd1522 O1565 2.307 . S
Gd1522 C1575 2.805 . S
Gd1523 N1518 2.622 . S
Gd1523 N1524 2.570 . S
Gd1523 O1555 2.386 . S
Gd1523 O1559 2.307 . S
Gd1523 O1562 2.353 . S
Gd1523 O1563 2.468 . S
Gd1523 O1564 2.427 . S
Gd1523 O1566 2.388 . S
Gd1523 C1587 2.805 . S
N1524 C1514 1.359 . S
N1524 Gd1523 2.570 . S
N1524 C1526 1.343 . S
C1525 C1513 1.422 . S
C1525 C1527 1.321 . S
C1525 H1533 0.931 1_455 S
C1526 N1524 1.343 . S
C1526 C1527 1.390 . S
C1526 H1528 0.931 . S
C1527 C1525 1.321 . S
C1527 C1526 1.390 . S
C1527 H1529 0.930 . S
H1528 C1526 0.931 . S
H1529 C1527 0.930 . S
H1530 C1553 0.931 . S
H1531 C1519 0.929 . S
H1532 C1554 0.930 . S
H1533 C1525 0.931 1_655 S
H1534 C1515 0.930 . S
H1535 C1544 0.929 . S
H1536 C1520 0.931 . S
H1537 C1521 0.930 . S
H1538 C1576 0.930 . S
H1539 C1517 0.929 1_655 S
H1540 C1545 0.931 . S
H1541 C1546 0.930 . S
N1542 Gd1522 2.622 . S
N1542 C1543 1.369 . S
N1542 C1544 1.338 . S
C1543 N1542 1.369 . S
C1543 C1547 1.415 . S
C1543 C1550 1.422 . S
C1544 H1535 0.929 . S
C1544 N1542 1.338 . S
C1544 C1546 1.378 . S
C1545 H1540 0.931 . S
C1545 C1546 1.348 . S
C1545 C1547 1.413 . S
C1546 H1541 0.930 . S
C1546 C1544 1.378 . S
C1546 C1545 1.348 . S
C1547 C1543 1.415 . S
C1547 C1545 1.413 . S
C1547 C1577 1.437 . S
H1548 C1577 0.929 . S
N1549 Gd1522 2.570 . S
N1549 C1550 1.359 . S
N1549 C1553 1.343 . S
C1550 C1543 1.422 . S
C1550 N1549 1.359 . S
C1550 C1552 1.421 . S
C1551 C1552 1.422 . S
C1551 C1554 1.321 . S
C1551 H1578 0.931 . S
C1552 C1550 1.421 . S
C1552 C1551 1.422 . S
C1552 C1576 1.417 . S
C1553 H1530 0.931 . S
C1553 N1549 1.343 . S
C1553 C1554 1.390 . S
C1554 H1532 0.930 . S
C1554 C1551 1.321 . S
C1554 C1553 1.390 . S
O1555 Gd1523 2.386 . S
O1555 C1567 1.265 . S
O1556 Gd1522 2.353 . S
O1556 C1567 1.242 . S
O1557 Gd1522 2.468 . S
O1557 C1575 1.263 . S
O1558 Gd1522 2.427 . S
O1558 C1575 1.252 . S
O1559 Gd1523 2.307 . S
O1559 C1568 1.261 . S
O1560 Gd1522 2.388 . S
O1560 C1568 1.252 . S
O1561 Gd1522 2.386 . S
O1561 C1579 1.265 . S
O1562 Gd1523 2.353 . S
O1562 C1579 1.242 . S
O1563 Gd1523 2.468 . S
O1563 C1587 1.263 . S
O1564 Gd1523 2.427 . S
O1564 C1587 1.252 . S
O1565 Gd1522 2.307 . S
O1565 C1580 1.261 . S
O1566 Gd1523 2.388 . S
O1566 C1580 1.252 . S
C1567 O1555 1.265 . S
C1567 O1556 1.242 . S
C1568 O1559 1.261 . S
C1568 O1560 1.252 . S
C1569 C1572 1.394 . S
C1569 C1574 1.370 . S
C1569 C1575 1.500 . S
C1570 C1573 1.383 . S
C1570 C1574 1.395 . S
C1571 C1572 1.396 . S
C1571 C1573 1.365 . S
C1571 H1588 0.929 . S
C1572 C1569 1.394 . S
C1572 C1571 1.396 . S
C1572 H1589 0.930 . S
C1573 C1570 1.383 . S
C1573 C1571 1.365 . S
C1573 H1590 0.931 . S
C1574 C1569 1.370 . S
C1574 C1570 1.395 . S
C1574 H1591 0.930 . S
C1575 Gd1522 2.805 . S
C1575 O1557 1.263 . S
C1575 O1558 1.252 . S
C1575 C1569 1.500 . S
C1576 H1538 0.930 . S
C1576 C1552 1.417 . S
C1576 C1577 1.329 . S
C1577 C1547 1.437 . S
C1577 H1548 0.929 . S
C1577 C1576 1.329 . S
H1578 C1551 0.931 . S
C1579 O1561 1.265 . S
C1579 O1562 1.242 . S
C1580 O1565 1.261 . S
C1580 O1566 1.252 . S
C1581 C1584 1.394 . S
C1581 C1586 1.370 . S
C1581 C1587 1.500 . S
C1582 C1585 1.383 . S
C1582 C1586 1.395 . S
C1583 C1584 1.396 . S
C1583 C1585 1.365 . S
C1583 H1592 0.929 . S
C1584 C1581 1.394 . S
C1584 C1583 1.396 . S
C1584 H1593 0.930 . S
C1585 C1582 1.383 . S
C1585 C1583 1.365 . S
C1585 H1594 0.931 . S
C1586 C1581 1.370 . S
C1586 C1582 1.395 . S
C1586 H1595 0.930 . S
C1587 Gd1523 2.805 . S
C1587 O1563 1.263 . S
C1587 O1564 1.252 . S
C1587 C1581 1.500 . S
H1588 C1571 0.929 . S
H1589 C1572 0.930 . S
H1590 C1573 0.931 . S
H1591 C1574 0.930 . S
H1592 C1583 0.929 . S
H1593 C1584 0.930 . S
H1594 C1585 0.931 . S
H1595 C1586 0.930 . S
C1596 C1598 1.422 . S
C1596 C1600 1.415 . S
C1596 N1602 1.369 . S
C1597 C1598 1.421 . S
C1597 C1599 1.417 . S
C1597 C1609 1.422 . S
C1598 C1596 1.422 . S
C1598 C1597 1.421 . S
C1598 N1608 1.359 . S
C1599 C1597 1.417 . S
C1599 C1601 1.329 . S
C1599 H1618 0.930 . S
C1600 C1596 1.415 . S
C1600 C1601 1.437 . S
C1600 C1604 1.413 . S
C1601 C1599 1.329 . S
C1601 C1600 1.437 . S
C1601 H1623 0.929 . S
N1602 C1596 1.369 . S
N1602 C1603 1.338 . S
N1602 Gd1607 2.622 . S
C1603 N1602 1.338 . S
C1603 C1605 1.378 . S
C1603 H1615 0.929 . S
C1604 C1600 1.413 . S
C1604 C1605 1.348 . S
C1604 H1620 0.931 . S
C1605 C1603 1.378 . S
C1605 C1604 1.348 . S
C1605 H1621 0.930 . S
Gd1606 N1626 2.622 . S
Gd1606 N1633 2.570 1_565 S
Gd1606 O1640 2.353 . S
Gd1606 O1641 2.468 1_565 S
Gd1606 O1642 2.427 1_565 S
Gd1606 O1644 2.388 . S
Gd1606 O1645 2.386 . S
Gd1606 O1649 2.307 . S
Gd1606 C1659 2.805 1_565 S
Gd1607 N1602 2.622 . S
Gd1607 N1608 2.570 . S
Gd1607 O1639 2.386 . S
Gd1607 O1643 2.307 . S
Gd1607 O1646 2.353 . S
Gd1607 O1647 2.468 . S
Gd1607 O1648 2.427 . S
Gd1607 O1650 2.388 . S
Gd1607 C1671 2.805 . S
N1608 C1598 1.359 . S
N1608 Gd1607 2.570 . S
N1608 C1610 1.343 . S
C1609 C1597 1.422 . S
C1609 C1611 1.321 . S
C1609 H1617 0.931 . S
C1610 N1608 1.343 . S
C1610 C1611 1.390 . S
C1610 H1612 0.931 . S
C1611 C1609 1.321 . S
C1611 C1610 1.390 . S
C1611 H1613 0.930 . S
H1612 C1610 0.931 . S
H1613 C1611 0.930 . S
H1614 C1637 0.931 . S
H1615 C1603 0.929 . S
H1616 C1638 0.930 . S
H1617 C1609 0.931 . S
H1618 C1599 0.930 . S
H1619 C1628 0.929 . S
H1620 C1604 0.931 . S
H1621 C1605 0.930 . S
H1622 C1660 0.930 . S
H1623 C1601 0.929 . S
H1624 C1629 0.931 . S
H1625 C1630 0.930 . S
N1626 Gd1606 2.622 . S
N1626 C1627 1.369 1_565 S
N1626 C1628 1.338 . S
C1627 N1626 1.369 1_545 S
C1627 C1631 1.415 . S
C1627 C1634 1.422 . S
C1628 H1619 0.929 . S
C1628 N1626 1.338 . S
C1628 C1630 1.378 . S
C1629 H1624 0.931 . S
C1629 C1630 1.348 1_545 S
C1629 C1631 1.413 . S
C1630 H1625 0.930 . S
C1630 C1628 1.378 . S
C1630 C1629 1.348 1_565 S
C1631 C1627 1.415 . S
C1631 C1629 1.413 . S
C1631 C1661 1.437 . S
H1632 C1661 0.929 . S
N1633 Gd1606 2.570 1_545 S
N1633 C1634 1.359 . S
N1633 C1637 1.343 . S
C1634 C1627 1.422 . S
C1634 N1633 1.359 . S
C1634 C1636 1.421 . S
C1635 C1636 1.422 . S
C1635 C1638 1.321 . S
C1635 H1662 0.931 . S
C1636 C1634 1.421 . S
C1636 C1635 1.422 . S
C1636 C1660 1.417 . S
C1637 H1614 0.931 . S
C1637 N1633 1.343 . S
C1637 C1638 1.390 . S
C1638 H1616 0.930 . S
C1638 C1635 1.321 . S
C1638 C1637 1.390 . S
O1639 Gd1607 2.386 . S
O1639 C1651 1.265 . S
O1640 Gd1606 2.353 . S
O1640 C1651 1.242 . S
O1641 Gd1606 2.468 1_545 S
O1641 C1659 1.263 . S
O1642 Gd1606 2.427 1_545 S
O1642 C1659 1.252 . S
O1643 Gd1607 2.307 . S
O1643 C1652 1.261 . S
O1644 Gd1606 2.388 . S
O1644 C1652 1.252 . S
O1645 Gd1606 2.386 . S
O1645 C1663 1.265 . S
O1646 Gd1607 2.353 . S
O1646 C1663 1.242 . S
O1647 Gd1607 2.468 . S
O1647 C1671 1.263 . S
O1648 Gd1607 2.427 . S
O1648 C1671 1.252 . S
O1649 Gd1606 2.307 . S
O1649 C1664 1.261 . S
O1650 Gd1607 2.388 . S
O1650 C1664 1.252 . S
C1651 O1639 1.265 . S
C1651 O1640 1.242 . S
C1652 O1643 1.261 . S
C1652 O1644 1.252 . S
C1653 C1656 1.394 . S
C1653 C1658 1.370 . S
C1653 C1659 1.500 . S
C1654 C1657 1.383 . S
C1654 C1658 1.395 . S
C1655 C1656 1.396 . S
C1655 C1657 1.365 . S
C1655 H1672 0.929 . S
C1656 C1653 1.394 . S
C1656 C1655 1.396 . S
C1656 H1673 0.930 . S
C1657 C1654 1.383 . S
C1657 C1655 1.365 . S
C1657 H1674 0.931 1_655 S
C1658 C1653 1.370 . S
C1658 C1654 1.395 . S
C1658 H1675 0.930 . S
C1659 Gd1606 2.805 1_545 S
C1659 O1641 1.263 . S
C1659 O1642 1.252 . S
C1659 C1653 1.500 . S
C1660 H1622 0.930 . S
C1660 C1636 1.417 . S
C1660 C1661 1.329 . S
C1661 C1631 1.437 . S
C1661 H1632 0.929 . S
C1661 C1660 1.329 . S
H1662 C1635 0.931 . S
C1663 O1645 1.265 . S
C1663 O1646 1.242 . S
C1664 O1649 1.261 . S
C1664 O1650 1.252 . S
C1665 C1668 1.394 . S
C1665 C1670 1.370 . S
C1665 C1671 1.500 . S
C1666 C1669 1.383 . S
C1666 C1670 1.395 . S
C1667 C1668 1.396 . S
C1667 C1669 1.365 . S
C1667 H1676 0.929 . S
C1668 C1665 1.394 . S
C1668 C1667 1.396 . S
C1668 H1677 0.930 . S
C1669 C1666 1.383 . S
C1669 C1667 1.365 . S
C1669 H1678 0.931 . S
C1670 C1665 1.370 . S
C1670 C1666 1.395 . S
C1670 H1679 0.930 . S
C1671 Gd1607 2.805 . S
C1671 O1647 1.263 . S
C1671 O1648 1.252 . S
C1671 C1665 1.500 . S
H1672 C1655 0.929 . S
H1673 C1656 0.930 . S
H1674 C1657 0.931 1_455 S
H1675 C1658 0.930 . S
H1676 C1667 0.929 . S
H1677 C1668 0.930 . S
H1678 C1669 0.931 . S
H1679 C1670 0.930 . S
C1680 C1682 1.422 1_565 S
C1680 C1684 1.415 1_565 S
C1680 N1686 1.369 . S
C1681 C1682 1.421 . S
C1681 C1683 1.417 . S
C1681 C1693 1.422 . S
C1682 C1680 1.422 1_545 S
C1682 C1681 1.421 . S
C1682 N1692 1.359 1_545 S
C1683 C1681 1.417 . S
C1683 C1685 1.329 . S
C1683 H1702 0.930 . S
C1684 C1680 1.415 1_545 S
C1684 C1685 1.437 . S
C1684 C1688 1.413 . S
C1685 C1683 1.329 . S
C1685 C1684 1.437 . S
C1685 H1707 0.929 . S
N1686 C1680 1.369 . S
N1686 C1687 1.338 . S
N1686 Gd1691 2.622 . S
C1687 N1686 1.338 . S
C1687 C1689 1.378 . S
C1687 H1699 0.929 . S
C1688 C1684 1.413 . S
C1688 C1689 1.348 1_545 S
C1688 H1704 0.931 . S
C1689 C1687 1.378 . S
C1689 C1688 1.348 1_565 S
C1689 H1705 0.930 . S
Gd1690 N1710 2.622 . S
Gd1690 N1717 2.570 . S
Gd1690 O1724 2.353 . S
Gd1690 O1725 2.468 . S
Gd1690 O1726 2.427 . S
Gd1690 O1728 2.388 . S
Gd1690 O1729 2.386 . S
Gd1690 O1733 2.307 . S
Gd1690 C1743 2.805 . S
Gd1691 N1686 2.622 . S
Gd1691 N1692 2.570 . S
Gd1691 O1723 2.386 . S
Gd1691 O1727 2.307 . S
Gd1691 O1730 2.353 . S
Gd1691 O1731 2.468 . S
Gd1691 O1732 2.427 . S
Gd1691 O1734 2.388 . S
Gd1691 C1755 2.805 . S
N1692 C1682 1.359 1_565 S
N1692 Gd1691 2.570 . S
N1692 C1694 1.343 . S
C1693 C1681 1.422 . S
C1693 C1695 1.321 . S
C1693 H1701 0.931 . S
C1694 N1692 1.343 . S
C1694 C1695 1.390 1_565 S
C1694 H1696 0.931 . S
C1695 C1693 1.321 . S
C1695 C1694 1.390 1_545 S
C1695 H1697 0.930 . S
H1696 C1694 0.931 . S
H1697 C1695 0.930 . S
H1698 C1721 0.931 . S
H1699 C1687 0.929 . S
H1700 C1722 0.930 . S
H1701 C1693 0.931 . S
H1702 C1683 0.930 . S
H1703 C1712 0.929 . S
H1704 C1688 0.931 . S
H1705 C1689 0.930 . S
H1706 C1744 0.930 . S
H1707 C1685 0.929 . S
H1708 C1713 0.931 . S
H1709 C1714 0.930 . S
N1710 Gd1690 2.622 . S
N1710 C1711 1.369 . S
N1710 C1712 1.338 . S
C1711 N1710 1.369 . S
C1711 C1715 1.415 . S
C1711 C1718 1.422 . S
C1712 H1703 0.929 . S
C1712 N1710 1.338 . S
C1712 C1714 1.378 . S
C1713 H1708 0.931 . S
C1713 C1714 1.348 . S
C1713 C1715 1.413 . S
C1714 H1709 0.930 . S
C1714 C1712 1.378 . S
C1714 C1713 1.348 . S
C1715 C1711 1.415 . S
C1715 C1713 1.413 . S
C1715 C1745 1.437 . S
H1716 C1745 0.929 1_655 S
N1717 Gd1690 2.570 . S
N1717 C1718 1.359 . S
N1717 C1721 1.343 . S
C1718 C1711 1.422 . S
C1718 N1717 1.359 . S
C1718 C1720 1.421 1_455 S
C1719 C1720 1.422 . S
C1719 C1722 1.321 . S
C1719 H1746 0.931 . S
C1720 C1718 1.421 1_655 S
C1720 C1719 1.422 . S
C1720 C1744 1.417 . S
C1721 H1698 0.931 . S
C1721 N1717 1.343 . S
C1721 C1722 1.390 1_455 S
C1722 H1700 0.930 . S
C1722 C1719 1.321 . S
C1722 C1721 1.390 1_655 S
O1723 Gd1691 2.386 . S
O1723 C1735 1.265 . S
O1724 Gd1690 2.353 . S
O1724 C1735 1.242 . S
O1725 Gd1690 2.468 . S
O1725 C1743 1.263 . S
O1726 Gd1690 2.427 . S
O1726 C1743 1.252 . S
O1727 Gd1691 2.307 . S
O1727 C1736 1.261 . S
O1728 Gd1690 2.388 . S
O1728 C1736 1.252 . S
O1729 Gd1690 2.386 . S
O1729 C1747 1.265 . S
O1730 Gd1691 2.353 . S
O1730 C1747 1.242 . S
O1731 Gd1691 2.468 . S
O1731 C1755 1.263 . S
O1732 Gd1691 2.427 . S
O1732 C1755 1.252 . S
O1733 Gd1690 2.307 . S
O1733 C1748 1.261 . S
O1734 Gd1691 2.388 . S
O1734 C1748 1.252 . S
C1735 O1723 1.265 . S
C1735 O1724 1.242 . S
C1736 O1727 1.261 . S
C1736 O1728 1.252 . S
C1737 C1740 1.394 . S
C1737 C1742 1.370 . S
C1737 C1743 1.500 1_655 S
C1738 C1741 1.383 . S
C1738 C1742 1.395 . S
C1739 C1740 1.396 . S
C1739 C1741 1.365 . S
C1739 H1756 0.929 . S
C1740 C1737 1.394 . S
C1740 C1739 1.396 . S
C1740 H1757 0.930 . S
C1741 C1738 1.383 . S
C1741 C1739 1.365 . S
C1741 H1758 0.931 . S
C1742 C1737 1.370 . S
C1742 C1738 1.395 . S
C1742 H1759 0.930 . S
C1743 Gd1690 2.805 . S
C1743 O1725 1.263 . S
C1743 O1726 1.252 . S
C1743 C1737 1.500 1_455 S
C1744 H1706 0.930 . S
C1744 C1720 1.417 . S
C1744 C1745 1.329 1_655 S
C1745 C1715 1.437 . S
C1745 H1716 0.929 1_455 S
C1745 C1744 1.329 1_455 S
H1746 C1719 0.931 . S
C1747 O1729 1.265 . S
C1747 O1730 1.242 . S
C1748 O1733 1.261 . S
C1748 O1734 1.252 . S
C1749 C1752 1.394 . S
C1749 C1754 1.370 . S
C1749 C1755 1.500 . S
C1750 C1753 1.383 . S
C1750 C1754 1.395 . S
C1751 C1752 1.396 . S
C1751 C1753 1.365 . S
C1751 H1760 0.929 . S
C1752 C1749 1.394 . S
C1752 C1751 1.396 . S
C1752 H1761 0.930 . S
C1753 C1750 1.383 . S
C1753 C1751 1.365 . S
C1753 H1762 0.931 . S
C1754 C1749 1.370 . S
C1754 C1750 1.395 . S
C1754 H1763 0.930 . S
C1755 Gd1691 2.805 . S
C1755 O1731 1.263 . S
C1755 O1732 1.252 . S
C1755 C1749 1.500 . S
H1756 C1739 0.929 . S
H1757 C1740 0.930 . S
H1758 C1741 0.931 . S
H1759 C1742 0.930 . S
H1760 C1751 0.929 . S
H1761 C1752 0.930 . S
H1762 C1753 0.931 . S
H1763 C1754 0.930 . S
C1764 C1766 1.422 . S
C1764 C1768 1.415 . S
C1764 N1770 1.369 . S
C1765 C1766 1.421 . S
C1765 C1767 1.417 . S
C1765 C1777 1.422 . S
C1766 C1764 1.422 . S
C1766 C1765 1.421 . S
C1766 N1776 1.359 . S
C1767 C1765 1.417 . S
C1767 C1769 1.329 . S
C1767 H1786 0.930 . S
C1768 C1764 1.415 . S
C1768 C1769 1.437 . S
C1768 C1772 1.413 . S
C1769 C1767 1.329 . S
C1769 C1768 1.437 . S
C1769 H1791 0.929 . S
N1770 C1764 1.369 . S
N1770 C1771 1.338 . S
N1770 Gd1775 2.622 . S
C1771 N1770 1.338 . S
C1771 C1773 1.378 . S
C1771 H1783 0.929 . S
C1772 C1768 1.413 . S
C1772 C1773 1.348 . S
C1772 H1788 0.931 . S
C1773 C1771 1.378 . S
C1773 C1772 1.348 . S
C1773 H1789 0.930 . S
Gd1774 N1794 2.622 . S
Gd1774 N1801 2.570 1_565 S
Gd1774 O1808 2.353 . S
Gd1774 O1809 2.468 . S
Gd1774 O1810 2.427 . S
Gd1774 O1812 2.388 . S
Gd1774 O1813 2.386 . S
Gd1774 O1817 2.307 . S
Gd1774 C1827 2.805 . S
Gd1775 N1770 2.622 . S
Gd1775 N1776 2.570 . S
Gd1775 O1807 2.386 . S
Gd1775 O1811 2.307 . S
Gd1775 O1814 2.353 . S
Gd1775 O1815 2.468 . S
Gd1775 O1816 2.427 . S
Gd1775 O1818 2.388 . S
Gd1775 C1839 2.805 . S
N1776 C1766 1.359 . S
N1776 Gd1775 2.570 . S
N1776 C1778 1.343 . S
C1777 C1765 1.422 . S
C1777 C1779 1.321 . S
C1777 H1785 0.931 . S
C1778 N1776 1.343 . S
C1778 C1779 1.390 . S
C1778 H1780 0.931 . S
C1779 C1777 1.321 . S
C1779 C1778 1.390 . S
C1779 H1781 0.930 . S
H1780 C1778 0.931 . S
H1781 C1779 0.930 . S
H1782 C1805 0.931 1_565 S
H1783 C1771 0.929 . S
H1784 C1806 0.930 . S
H1785 C1777 0.931 . S
H1786 C1767 0.930 . S
H1787 C1796 0.929 . S
H1788 C1772 0.931 . S
H1789 C1773 0.930 . S
H1790 C1828 0.930 . S
H1791 C1769 0.929 . S
H1792 C1797 0.931 . S
H1793 C1798 0.930 . S
N1794 Gd1774 2.622 . S
N1794 C1795 1.369 1_565 S
N1794 C1796 1.338 . S
C1795 N1794 1.369 1_545 S
C1795 C1799 1.415 . S
C1795 C1802 1.422 . S
C1796 H1787 0.929 . S
C1796 N1794 1.338 . S
C1796 C1798 1.378 . S
C1797 H1792 0.931 . S
C1797 C1798 1.348 1_545 S
C1797 C1799 1.413 . S
C1798 H1793 0.930 . S
C1798 C1796 1.378 . S
C1798 C1797 1.348 1_565 S
C1799 C1795 1.415 . S
C1799 C1797 1.413 . S
C1799 C1829 1.437 . S
H1800 C1829 0.929 . S
N1801 Gd1774 2.570 1_545 S
N1801 C1802 1.359 . S
N1801 C1805 1.343 . S
C1802 C1795 1.422 . S
C1802 N1801 1.359 . S
C1802 C1804 1.421 . S
C1803 C1804 1.422 . S
C1803 C1806 1.321 . S
C1803 H1830 0.931 . S
C1804 C1802 1.421 . S
C1804 C1803 1.422 . S
C1804 C1828 1.417 . S
C1805 H1782 0.931 1_545 S
C1805 N1801 1.343 . S
C1805 C1806 1.390 . S
C1806 H1784 0.930 . S
C1806 C1803 1.321 . S
C1806 C1805 1.390 . S
O1807 Gd1775 2.386 . S
O1807 C1819 1.265 . S
O1808 Gd1774 2.353 . S
O1808 C1819 1.242 . S
O1809 Gd1774 2.468 . S
O1809 C1827 1.263 . S
O1810 Gd1774 2.427 . S
O1810 C1827 1.252 . S
O1811 Gd1775 2.307 . S
O1811 C1820 1.261 . S
O1812 Gd1774 2.388 . S
O1812 C1820 1.252 . S
O1813 Gd1774 2.386 . S
O1813 C1831 1.265 . S
O1814 Gd1775 2.353 . S
O1814 C1831 1.242 . S
O1815 Gd1775 2.468 . S
O1815 C1839 1.263 . S
O1816 Gd1775 2.427 . S
O1816 C1839 1.252 . S
O1817 Gd1774 2.307 . S
O1817 C1832 1.261 . S
O1818 Gd1775 2.388 . S
O1818 C1832 1.252 . S
C1819 O1807 1.265 . S
C1819 O1808 1.242 . S
C1820 O1811 1.261 . S
C1820 O1812 1.252 . S
C1821 C1824 1.394 . S
C1821 C1826 1.370 . S
C1821 C1827 1.500 . S
C1822 C1825 1.383 . S
C1822 C1826 1.395 . S
C1823 C1824 1.396 . S
C1823 C1825 1.365 . S
C1823 H1840 0.929 . S
C1824 C1821 1.394 . S
C1824 C1823 1.396 . S
C1824 H1841 0.930 . S
C1825 C1822 1.383 . S
C1825 C1823 1.365 . S
C1825 H1842 0.931 . S
C1826 C1821 1.370 . S
C1826 C1822 1.395 . S
C1826 H1843 0.930 . S
C1827 Gd1774 2.805 . S
C1827 O1809 1.263 . S
C1827 O1810 1.252 . S
C1827 C1821 1.500 . S
C1828 H1790 0.930 . S
C1828 C1804 1.417 . S
C1828 C1829 1.329 . S
C1829 C1799 1.437 . S
C1829 H1800 0.929 . S
C1829 C1828 1.329 . S
H1830 C1803 0.931 . S
C1831 O1813 1.265 . S
C1831 O1814 1.242 . S
C1832 O1817 1.261 . S
C1832 O1818 1.252 . S
C1833 C1836 1.394 . S
C1833 C1838 1.370 . S
C1833 C1839 1.500 . S
C1834 C1837 1.383 . S
C1834 C1838 1.395 . S
C1835 C1836 1.396 . S
C1835 C1837 1.365 . S
C1835 H1844 0.929 . S
C1836 C1833 1.394 . S
C1836 C1835 1.396 . S
C1836 H1845 0.930 . S
C1837 C1834 1.383 . S
C1837 C1835 1.365 . S
C1837 H1846 0.931 . S
C1838 C1833 1.370 . S
C1838 C1834 1.395 . S
C1838 H1847 0.930 . S
C1839 Gd1775 2.805 . S
C1839 O1815 1.263 . S
C1839 O1816 1.252 . S
C1839 C1833 1.500 . S
H1840 C1823 0.929 . S
H1841 C1824 0.930 . S
H1842 C1825 0.931 . S
H1843 C1826 0.930 . S
H1844 C1835 0.929 . S
H1845 C1836 0.930 . S
H1846 C1837 0.931 . S
H1847 C1838 0.930 . S
C1848 C1850 1.422 . S
C1848 C1852 1.415 . S
C1848 N1854 1.369 . S
C1849 C1850 1.421 1_545 S
C1849 C1851 1.417 . S
C1849 C1861 1.422 . S
C1850 C1848 1.422 . S
C1850 C1849 1.421 1_565 S
C1850 N1860 1.359 . S
C1851 C1849 1.417 . S
C1851 C1853 1.329 . S
C1851 H1870 0.930 . S
C1852 C1848 1.415 . S
C1852 C1853 1.437 1_565 S
C1852 C1856 1.413 . S
C1853 C1851 1.329 . S
C1853 C1852 1.437 1_545 S
C1853 H1875 0.929 . S
N1854 C1848 1.369 . S
N1854 C1855 1.338 . S
N1854 Gd1859 2.622 . S
C1855 N1854 1.338 . S
C1855 C1857 1.378 . S
C1855 H1867 0.929 . S
C1856 C1852 1.413 . S
C1856 C1857 1.348 . S
C1856 H1872 0.931 . S
C1857 C1855 1.378 . S
C1857 C1856 1.348 . S
C1857 H1873 0.930 . S
Gd1858 N1878 2.622 . S
Gd1858 N1885 2.570 . S
Gd1858 O1892 2.353 . S
Gd1858 O1893 2.468 . S
Gd1858 O1894 2.427 . S
Gd1858 O1896 2.388 . S
Gd1858 O1897 2.386 . S
Gd1858 O1901 2.307 . S
Gd1858 C1911 2.805 . S
Gd1859 N1854 2.622 . S
Gd1859 N1860 2.570 . S
Gd1859 O1891 2.386 . S
Gd1859 O1895 2.307 . S
Gd1859 O1898 2.353 . S
Gd1859 O1899 2.468 . S
Gd1859 O1900 2.427 . S
Gd1859 O1902 2.388 . S
Gd1859 C1923 2.805 . S
N1860 C1850 1.359 . S
N1860 Gd1859 2.570 . S
N1860 C1862 1.343 . S
C1861 C1849 1.422 . S
C1861 C1863 1.321 . S
C1861 H1869 0.931 . S
C1862 N1860 1.343 . S
C1862 C1863 1.390 1_565 S
C1862 H1864 0.931 . S
C1863 C1861 1.321 . S
C1863 C1862 1.390 1_545 S
C1863 H1865 0.930 . S
H1864 C1862 0.931 . S
H1865 C1863 0.930 . S
H1866 C1889 0.931 . S
H1867 C1855 0.929 . S
H1868 C1890 0.930 1_655 S
H1869 C1861 0.931 . S
H1870 C1851 0.930 . S
H1871 C1880 0.929 . S
H1872 C1856 0.931 . S
H1873 C1857 0.930 . S
H1874 C1912 0.930 . S
H1875 C1853 0.929 . S
H1876 C1881 0.931 . S
H1877 C1882 0.930 . S
N1878 Gd1858 2.622 . S
N1878 C1879 1.369 . S
N1878 C1880 1.338 . S
C1879 N1878 1.369 . S
C1879 C1883 1.415 . S
C1879 C1886 1.422 . S
C1880 H1871 0.929 . S
C1880 N1878 1.338 . S
C1880 C1882 1.378 . S
C1881 H1876 0.931 . S
C1881 C1882 1.348 . S
C1881 C1883 1.413 . S
C1882 H1877 0.930 . S
C1882 C1880 1.378 . S
C1882 C1881 1.348 . S
C1883 C1879 1.415 . S
C1883 C1881 1.413 . S
C1883 C1913 1.437 1_455 S
H1884 C1913 0.929 . S
N1885 Gd1858 2.570 . S
N1885 C1886 1.359 . S
N1885 C1889 1.343 . S
C1886 C1879 1.422 . S
C1886 N1885 1.359 . S
C1886 C1888 1.421 1_455 S
C1887 C1888 1.422 . S
C1887 C1890 1.321 1_655 S
C1887 H1914 0.931 . S
C1888 C1886 1.421 1_655 S
C1888 C1887 1.422 . S
C1888 C1912 1.417 . S
C1889 H1866 0.931 . S
C1889 N1885 1.343 . S
C1889 C1890 1.390 . S
C1890 H1868 0.930 1_455 S
C1890 C1887 1.321 1_455 S
C1890 C1889 1.390 . S
O1891 Gd1859 2.386 . S
O1891 C1903 1.265 . S
O1892 Gd1858 2.353 . S
O1892 C1903 1.242 . S
O1893 Gd1858 2.468 . S
O1893 C1911 1.263 . S
O1894 Gd1858 2.427 . S
O1894 C1911 1.252 . S
O1895 Gd1859 2.307 . S
O1895 C1904 1.261 . S
O1896 Gd1858 2.388 . S
O1896 C1904 1.252 . S
O1897 Gd1858 2.386 . S
O1897 C1915 1.265 . S
O1898 Gd1859 2.353 . S
O1898 C1915 1.242 . S
O1899 Gd1859 2.468 . S
O1899 C1923 1.263 . S
O1900 Gd1859 2.427 . S
O1900 C1923 1.252 . S
O1901 Gd1858 2.307 . S
O1901 C1916 1.261 . S
O1902 Gd1859 2.388 . S
O1902 C1916 1.252 . S
C1903 O1891 1.265 . S
C1903 O1892 1.242 . S
C1904 O1895 1.261 . S
C1904 O1896 1.252 . S
C1905 C1908 1.394 . S
C1905 C1910 1.370 . S
C1905 C1911 1.500 . S
C1906 C1909 1.383 . S
C1906 C1910 1.395 . S
C1907 C1908 1.396 . S
C1907 C1909 1.365 . S
C1907 H1924 0.929 . S
C1908 C1905 1.394 . S
C1908 C1907 1.396 . S
C1908 H1925 0.930 . S
C1909 C1906 1.383 . S
C1909 C1907 1.365 . S
C1909 H1926 0.931 . S
C1910 C1905 1.370 . S
C1910 C1906 1.395 . S
C1910 H1927 0.930 . S
C1911 Gd1858 2.805 . S
C1911 O1893 1.263 . S
C1911 O1894 1.252 . S
C1911 C1905 1.500 . S
C1912 H1874 0.930 . S
C1912 C1888 1.417 . S
C1912 C1913 1.329 . S
C1913 C1883 1.437 1_655 S
C1913 H1884 0.929 . S
C1913 C1912 1.329 . S
H1914 C1887 0.931 . S
C1915 O1897 1.265 . S
C1915 O1898 1.242 . S
C1916 O1901 1.261 . S
C1916 O1902 1.252 . S
C1917 C1920 1.394 . S
C1917 C1922 1.370 . S
C1917 C1923 1.500 1_545 S
C1918 C1921 1.383 . S
C1918 C1922 1.395 . S
C1919 C1920 1.396 . S
C1919 C1921 1.365 . S
C1919 H1928 0.929 . S
C1920 C1917 1.394 . S
C1920 C1919 1.396 . S
C1920 H1929 0.930 . S
C1921 C1918 1.383 . S
C1921 C1919 1.365 . S
C1921 H1930 0.931 . S
C1922 C1917 1.370 . S
C1922 C1918 1.395 . S
C1922 H1931 0.930 . S
C1923 Gd1859 2.805 . S
C1923 O1899 1.263 . S
C1923 O1900 1.252 . S
C1923 C1917 1.500 1_565 S
H1924 C1907 0.929 . S
H1925 C1908 0.930 . S
H1926 C1909 0.931 . S
H1927 C1910 0.930 . S
H1928 C1919 0.929 . S
H1929 C1920 0.930 . S
H1930 C1921 0.931 . S
H1931 C1922 0.930 . S
C1932 C1934 1.422 . S
C1932 C1936 1.415 . S
C1932 N1938 1.369 . S
C1933 C1934 1.421 . S
C1933 C1935 1.417 . S
C1933 C1945 1.422 . S
C1934 C1932 1.422 . S
C1934 C1933 1.421 . S
C1934 N1944 1.359 . S
C1935 C1933 1.417 . S
C1935 C1937 1.329 . S
C1935 H1954 0.930 . S
C1936 C1932 1.415 . S
C1936 C1937 1.437 . S
C1936 C1940 1.413 . S
C1937 C1935 1.329 . S
C1937 C1936 1.437 . S
C1937 H1959 0.929 . S
N1938 C1932 1.369 . S
N1938 C1939 1.338 . S
N1938 Gd1943 2.622 . S
C1939 N1938 1.338 . S
C1939 C1941 1.378 . S
C1939 H1951 0.929 . S
C1940 C1936 1.413 . S
C1940 C1941 1.348 . S
C1940 H1956 0.931 . S
C1941 C1939 1.378 . S
C1941 C1940 1.348 . S
C1941 H1957 0.930 . S
Gd1942 N1962 2.622 . S
Gd1942 N1969 2.570 . S
Gd1942 O1976 2.353 . S
Gd1942 O1977 2.468 . S
Gd1942 O1978 2.427 . S
Gd1942 O1980 2.388 . S
Gd1942 O1981 2.386 . S
Gd1942 O1985 2.307 . S
Gd1942 C1995 2.805 . S
Gd1943 N1938 2.622 . S
Gd1943 N1944 2.570 . S
Gd1943 O1975 2.386 . S
Gd1943 O1979 2.307 . S
Gd1943 O1982 2.353 . S
Gd1943 O1983 2.468 . S
Gd1943 O1984 2.427 . S
Gd1943 O1986 2.388 . S
Gd1943 C2007 2.805 . S
N1944 C1934 1.359 . S
N1944 Gd1943 2.570 . S
N1944 C1946 1.343 . S
C1945 C1933 1.422 . S
C1945 C1947 1.321 . S
C1945 H1953 0.931 . S
C1946 N1944 1.343 . S
C1946 C1947 1.390 . S
C1946 H1948 0.931 . S
C1947 C1945 1.321 . S
C1947 C1946 1.390 . S
C1947 H1949 0.930 . S
H1948 C1946 0.931 . S
H1949 C1947 0.930 . S
H1950 C1973 0.931 . S
H1951 C1939 0.929 . S
H1952 C1974 0.930 . S
H1953 C1945 0.931 . S
H1954 C1935 0.930 . S
H1955 C1964 0.929 . S
H1956 C1940 0.931 . S
H1957 C1941 0.930 . S
H1958 C1996 0.930 . S
H1959 C1937 0.929 . S
H1960 C1965 0.931 . S
H1961 C1966 0.930 . S
N1962 Gd1942 2.622 . S
N1962 C1963 1.369 . S
N1962 C1964 1.338 . S
C1963 N1962 1.369 . S
C1963 C1967 1.415 . S
C1963 C1970 1.422 . S
C1964 H1955 0.929 . S
C1964 N1962 1.338 . S
C1964 C1966 1.378 . S
C1965 H1960 0.931 . S
C1965 C1966 1.348 . S
C1965 C1967 1.413 . S
C1966 H1961 0.930 . S
C1966 C1964 1.378 . S
C1966 C1965 1.348 . S
C1967 C1963 1.415 . S
C1967 C1965 1.413 . S
C1967 C1997 1.437 . S
H1968 C1997 0.929 . S
N1969 Gd1942 2.570 . S
N1969 C1970 1.359 . S
N1969 C1973 1.343 . S
C1970 C1963 1.422 . S
C1970 N1969 1.359 . S
C1970 C1972 1.421 . S
C1971 C1972 1.422 . S
C1971 C1974 1.321 . S
C1971 H1998 0.931 . S
C1972 C1970 1.421 . S
C1972 C1971 1.422 . S
C1972 C1996 1.417 . S
C1973 H1950 0.931 . S
C1973 N1969 1.343 . S
C1973 C1974 1.390 . S
C1974 H1952 0.930 . S
C1974 C1971 1.321 . S
C1974 C1973 1.390 . S
O1975 Gd1943 2.386 . S
O1975 C1987 1.265 . S
O1976 Gd1942 2.353 . S
O1976 C1987 1.242 . S
O1977 Gd1942 2.468 . S
O1977 C1995 1.263 . S
O1978 Gd1942 2.427 . S
O1978 C1995 1.252 . S
O1979 Gd1943 2.307 . S
O1979 C1988 1.261 . S
O1980 Gd1942 2.388 . S
O1980 C1988 1.252 . S
O1981 Gd1942 2.386 . S
O1981 C1999 1.265 . S
O1982 Gd1943 2.353 . S
O1982 C1999 1.242 . S
O1983 Gd1943 2.468 . S
O1983 C2007 1.263 . S
O1984 Gd1943 2.427 . S
O1984 C2007 1.252 . S
O1985 Gd1942 2.307 . S
O1985 C2000 1.261 . S
O1986 Gd1943 2.388 . S
O1986 C2000 1.252 . S
C1987 O1975 1.265 . S
C1987 O1976 1.242 . S
C1988 O1979 1.261 . S
C1988 O1980 1.252 . S
C1989 C1992 1.394 . S
C1989 C1994 1.370 . S
C1989 C1995 1.500 . S
C1990 C1993 1.383 . S
C1990 C1994 1.395 . S
C1991 C1992 1.396 . S
C1991 C1993 1.365 . S
C1991 H2008 0.929 . S
C1992 C1989 1.394 . S
C1992 C1991 1.396 . S
C1992 H2009 0.930 . S
C1993 C1990 1.383 . S
C1993 C1991 1.365 . S
C1993 H2010 0.931 . S
C1994 C1989 1.370 . S
C1994 C1990 1.395 . S
C1994 H2011 0.930 . S
C1995 Gd1942 2.805 . S
C1995 O1977 1.263 . S
C1995 O1978 1.252 . S
C1995 C1989 1.500 . S
C1996 H1958 0.930 . S
C1996 C1972 1.417 . S
C1996 C1997 1.329 . S
C1997 C1967 1.437 . S
C1997 H1968 0.929 . S
C1997 C1996 1.329 . S
H1998 C1971 0.931 . S
C1999 O1981 1.265 . S
C1999 O1982 1.242 . S
C2000 O1985 1.261 . S
C2000 O1986 1.252 . S
C2001 C2004 1.394 . S
C2001 C2006 1.370 . S
C2001 C2007 1.500 . S
C2002 C2005 1.383 . S
C2002 C2006 1.395 1_655 S
C2003 C2004 1.396 1_655 S
C2003 C2005 1.365 . S
C2003 H2012 0.929 . S
C2004 C2001 1.394 . S
C2004 C2003 1.396 1_455 S
C2004 H2013 0.930 . S
C2005 C2002 1.383 . S
C2005 C2003 1.365 . S
C2005 H2014 0.931 . S
C2006 C2001 1.370 . S
C2006 C2002 1.395 1_455 S
C2006 H2015 0.930 . S
C2007 Gd1943 2.805 . S
C2007 O1983 1.263 . S
C2007 O1984 1.252 . S
C2007 C2001 1.500 . S
H2008 C1991 0.929 . S
H2009 C1992 0.930 . S
H2010 C1993 0.931 . S
H2011 C1994 0.930 . S
H2012 C2003 0.929 . S
H2013 C2004 0.930 . S
H2014 C2005 0.931 . S
H2015 C2006 0.930 . S
C2016 C2018 1.422 . S
C2016 C2020 1.415 . S
C2016 N2022 1.369 . S
C2017 C2018 1.421 . S
C2017 C2019 1.417 . S
C2017 C2029 1.422 . S
C2018 C2016 1.422 . S
C2018 C2017 1.421 . S
C2018 N2028 1.359 . S
C2019 C2017 1.417 . S
C2019 C2021 1.329 . S
C2019 H2038 0.930 . S
C2020 C2016 1.415 . S
C2020 C2021 1.437 . S
C2020 C2024 1.413 . S
C2021 C2019 1.329 . S
C2021 C2020 1.437 . S
C2021 H2043 0.929 . S
N2022 C2016 1.369 . S
N2022 C2023 1.338 . S
N2022 Gd2027 2.622 . S
C2023 N2022 1.338 . S
C2023 C2025 1.378 . S
C2023 H2035 0.929 . S
C2024 C2020 1.413 . S
C2024 C2025 1.348 . S
C2024 H2040 0.931 . S
C2025 C2023 1.378 . S
C2025 C2024 1.348 . S
C2025 H2041 0.930 . S
Gd2026 N2046 2.622 . S
Gd2026 N2053 2.570 . S
Gd2026 O2060 2.353 . S
Gd2026 O2061 2.468 . S
Gd2026 O2062 2.427 . S
Gd2026 O2064 2.388 . S
Gd2026 O2065 2.386 . S
Gd2026 O2069 2.307 . S
Gd2026 C2079 2.805 . S
Gd2027 N2022 2.622 . S
Gd2027 N2028 2.570 . S
Gd2027 O2059 2.386 . S
Gd2027 O2063 2.307 . S
Gd2027 O2066 2.353 . S
Gd2027 O2067 2.468 . S
Gd2027 O2068 2.427 . S
Gd2027 O2070 2.388 . S
Gd2027 C2091 2.805 . S
N2028 C2018 1.359 . S
N2028 Gd2027 2.570 . S
N2028 C2030 1.343 . S
C2029 C2017 1.422 . S
C2029 C2031 1.321 . S
C2029 H2037 0.931 . S
C2030 N2028 1.343 . S
C2030 C2031 1.390 . S
C2030 H2032 0.931 . S
C2031 C2029 1.321 . S
C2031 C2030 1.390 . S
C2031 H2033 0.930 . S
H2032 C2030 0.931 . S
H2033 C2031 0.930 . S
H2034 C2057 0.931 . S
H2035 C2023 0.929 . S
H2036 C2058 0.930 . S
H2037 C2029 0.931 . S
H2038 C2019 0.930 . S
H2039 C2048 0.929 . S
H2040 C2024 0.931 . S
H2041 C2025 0.930 . S
H2042 C2080 0.930 . S
H2043 C2021 0.929 . S
H2044 C2049 0.931 . S
H2045 C2050 0.930 . S
N2046 Gd2026 2.622 . S
N2046 C2047 1.369 . S
N2046 C2048 1.338 . S
C2047 N2046 1.369 . S
C2047 C2051 1.415 1_655 S
C2047 C2054 1.422 1_655 S
C2048 H2039 0.929 . S
C2048 N2046 1.338 . S
C2048 C2050 1.378 . S
C2049 H2044 0.931 . S
C2049 C2050 1.348 1_455 S
C2049 C2051 1.413 . S
C2050 H2045 0.930 . S
C2050 C2048 1.378 . S
C2050 C2049 1.348 1_655 S
C2051 C2047 1.415 1_455 S
C2051 C2049 1.413 . S
C2051 C2081 1.437 . S
H2052 C2081 0.929 . S
N2053 Gd2026 2.570 . S
N2053 C2054 1.359 1_655 S
N2053 C2057 1.343 . S
C2054 C2047 1.422 1_455 S
C2054 N2053 1.359 1_455 S
C2054 C2056 1.421 . S
C2055 C2056 1.422 . S
C2055 C2058 1.321 . S
C2055 H2082 0.931 . S
C2056 C2054 1.421 . S
C2056 C2055 1.422 . S
C2056 C2080 1.417 . S
C2057 H2034 0.931 . S
C2057 N2053 1.343 . S
C2057 C2058 1.390 1_655 S
C2058 H2036 0.930 . S
C2058 C2055 1.321 . S
C2058 C2057 1.390 1_455 S
O2059 Gd2027 2.386 . S
O2059 C2071 1.265 . S
O2060 Gd2026 2.353 . S
O2060 C2071 1.242 . S
O2061 Gd2026 2.468 . S
O2061 C2079 1.263 . S
O2062 Gd2026 2.427 . S
O2062 C2079 1.252 . S
O2063 Gd2027 2.307 . S
O2063 C2072 1.261 . S
O2064 Gd2026 2.388 . S
O2064 C2072 1.252 . S
O2065 Gd2026 2.386 . S
O2065 C2083 1.265 . S
O2066 Gd2027 2.353 . S
O2066 C2083 1.242 . S
O2067 Gd2027 2.468 . S
O2067 C2091 1.263 . S
O2068 Gd2027 2.427 . S
O2068 C2091 1.252 . S
O2069 Gd2026 2.307 . S
O2069 C2084 1.261 . S
O2070 Gd2027 2.388 . S
O2070 C2084 1.252 . S
C2071 O2059 1.265 . S
C2071 O2060 1.242 . S
C2072 O2063 1.261 . S
C2072 O2064 1.252 . S
C2073 C2076 1.394 . S
C2073 C2078 1.370 . S
C2073 C2079 1.500 . S
C2074 C2077 1.383 . S
C2074 C2078 1.395 . S
C2075 C2076 1.396 . S
C2075 C2077 1.365 . S
C2075 H2092 0.929 . S
C2076 C2073 1.394 . S
C2076 C2075 1.396 . S
C2076 H2093 0.930 . S
C2077 C2074 1.383 . S
C2077 C2075 1.365 . S
C2077 H2094 0.931 . S
C2078 C2073 1.370 . S
C2078 C2074 1.395 . S
C2078 H2095 0.930 . S
C2079 Gd2026 2.805 . S
C2079 O2061 1.263 . S
C2079 O2062 1.252 . S
C2079 C2073 1.500 . S
C2080 H2042 0.930 . S
C2080 C2056 1.417 . S
C2080 C2081 1.329 . S
C2081 C2051 1.437 . S
C2081 H2052 0.929 . S
C2081 C2080 1.329 . S
H2082 C2055 0.931 . S
C2083 O2065 1.265 . S
C2083 O2066 1.242 . S
C2084 O2069 1.261 . S
C2084 O2070 1.252 . S
C2085 C2088 1.394 . S
C2085 C2090 1.370 . S
C2085 C2091 1.500 . S
C2086 C2089 1.383 . S
C2086 C2090 1.395 . S
C2087 C2088 1.396 . S
C2087 C2089 1.365 . S
C2087 H2096 0.929 . S
C2088 C2085 1.394 . S
C2088 C2087 1.396 . S
C2088 H2097 0.930 . S
C2089 C2086 1.383 . S
C2089 C2087 1.365 . S
C2089 H2098 0.931 1_565 S
C2090 C2085 1.370 . S
C2090 C2086 1.395 . S
C2090 H2099 0.930 . S
C2091 Gd2027 2.805 . S
C2091 O2067 1.263 . S
C2091 O2068 1.252 . S
C2091 C2085 1.500 . S
H2092 C2075 0.929 . S
H2093 C2076 0.930 . S
H2094 C2077 0.931 . S
H2095 C2078 0.930 . S
H2096 C2087 0.929 . S
H2097 C2088 0.930 . S
H2098 C2089 0.931 1_545 S
H2099 C2090 0.930 . S
C2100 C2102 1.422 . S
C2100 C2104 1.415 . S
C2100 N2106 1.369 . S
C2101 C2102 1.421 1_565 S
C2101 C2103 1.417 . S
C2101 C2113 1.422 . S
C2102 C2100 1.422 . S
C2102 C2101 1.421 1_545 S
C2102 N2112 1.359 . S
C2103 C2101 1.417 . S
C2103 C2105 1.329 1_565 S
C2103 H2122 0.930 . S
C2104 C2100 1.415 . S
C2104 C2105 1.437 . S
C2104 C2108 1.413 . S
C2105 C2103 1.329 1_545 S
C2105 C2104 1.437 . S
C2105 H2127 0.929 1_545 S
N2106 C2100 1.369 . S
N2106 C2107 1.338 . S
N2106 Gd2111 2.622 . S
C2107 N2106 1.338 . S
C2107 C2109 1.378 . S
C2107 H2119 0.929 . S
C2108 C2104 1.413 . S
C2108 C2109 1.348 . S
C2108 H2124 0.931 . S
C2109 C2107 1.378 . S
C2109 C2108 1.348 . S
C2109 H2125 0.930 . S
Gd2110 N2130 2.622 . S
Gd2110 N2137 2.570 . S
Gd2110 O2144 2.353 . S
Gd2110 O2145 2.468 . S
Gd2110 O2146 2.427 . S
Gd2110 O2148 2.388 . S
Gd2110 O2149 2.386 . S
Gd2110 O2153 2.307 . S
Gd2110 C2163 2.805 . S
Gd2111 N2106 2.622 . S
Gd2111 N2112 2.570 . S
Gd2111 O2143 2.386 . S
Gd2111 O2147 2.307 . S
Gd2111 O2150 2.353 . S
Gd2111 O2151 2.468 . S
Gd2111 O2152 2.427 . S
Gd2111 O2154 2.388 . S
Gd2111 C2175 2.805 . S
N2112 C2102 1.359 . S
N2112 Gd2111 2.570 . S
N2112 C2114 1.343 . S
C2113 C2101 1.422 . S
C2113 C2115 1.321 . S
C2113 H2121 0.931 . S
C2114 N2112 1.343 . S
C2114 C2115 1.390 1_545 S
C2114 H2116 0.931 . S
C2115 C2113 1.321 . S
C2115 C2114 1.390 1_565 S
C2115 H2117 0.930 . S
H2116 C2114 0.931 . S
H2117 C2115 0.930 . S
H2118 C2141 0.931 . S
H2119 C2107 0.929 . S
H2120 C2142 0.930 . S
H2121 C2113 0.931 . S
H2122 C2103 0.930 . S
H2123 C2132 0.929 . S
H2124 C2108 0.931 . S
H2125 C2109 0.930 . S
H2126 C2164 0.930 . S
H2127 C2105 0.929 1_565 S
H2128 C2133 0.931 . S
H2129 C2134 0.930 . S
N2130 Gd2110 2.622 . S
N2130 C2131 1.369 . S
N2130 C2132 1.338 . S
C2131 N2130 1.369 . S
C2131 C2135 1.415 . S
C2131 C2138 1.422 . S
C2132 H2123 0.929 . S
C2132 N2130 1.338 . S
C2132 C2134 1.378 . S
C2133 H2128 0.931 . S
C2133 C2134 1.348 . S
C2133 C2135 1.413 . S
C2134 H2129 0.930 . S
C2134 C2132 1.378 . S
C2134 C2133 1.348 . S
C2135 C2131 1.415 . S
C2135 C2133 1.413 . S
C2135 C2165 1.437 . S
H2136 C2165 0.929 . S
N2137 Gd2110 2.570 . S
N2137 C2138 1.359 . S
N2137 C2141 1.343 . S
C2138 C2131 1.422 . S
C2138 N2137 1.359 . S
C2138 C2140 1.421 . S
C2139 C2140 1.422 . S
C2139 C2142 1.321 . S
C2139 H2166 0.931 . S
C2140 C2138 1.421 . S
C2140 C2139 1.422 . S
C2140 C2164 1.417 . S
C2141 H2118 0.931 . S
C2141 N2137 1.343 . S
C2141 C2142 1.390 . S
C2142 H2120 0.930 . S
C2142 C2139 1.321 . S
C2142 C2141 1.390 . S
O2143 Gd2111 2.386 . S
O2143 C2155 1.265 . S
O2144 Gd2110 2.353 . S
O2144 C2155 1.242 . S
O2145 Gd2110 2.468 . S
O2145 C2163 1.263 . S
O2146 Gd2110 2.427 . S
O2146 C2163 1.252 . S
O2147 Gd2111 2.307 . S
O2147 C2156 1.261 . S
O2148 Gd2110 2.388 . S
O2148 C2156 1.252 . S
O2149 Gd2110 2.386 . S
O2149 C2167 1.265 . S
O2150 Gd2111 2.353 . S
O2150 C2167 1.242 . S
O2151 Gd2111 2.468 . S
O2151 C2175 1.263 . S
O2152 Gd2111 2.427 . S
O2152 C2175 1.252 . S
O2153 Gd2110 2.307 . S
O2153 C2168 1.261 . S
O2154 Gd2111 2.388 . S
O2154 C2168 1.252 . S
C2155 O2143 1.265 . S
C2155 O2144 1.242 . S
C2156 O2147 1.261 . S
C2156 O2148 1.252 . S
C2157 C2160 1.394 . S
C2157 C2162 1.370 . S
C2157 C2163 1.500 . S
C2158 C2161 1.383 . S
C2158 C2162 1.395 . S
C2159 C2160 1.396 . S
C2159 C2161 1.365 . S
C2159 H2176 0.929 . S
C2160 C2157 1.394 . S
C2160 C2159 1.396 . S
C2160 H2177 0.930 . S
C2161 C2158 1.383 . S
C2161 C2159 1.365 . S
C2161 H2178 0.931 . S
C2162 C2157 1.370 . S
C2162 C2158 1.395 . S
C2162 H2179 0.930 . S
C2163 Gd2110 2.805 . S
C2163 O2145 1.263 . S
C2163 O2146 1.252 . S
C2163 C2157 1.500 . S
C2164 H2126 0.930 . S
C2164 C2140 1.417 . S
C2164 C2165 1.329 . S
C2165 C2135 1.437 . S
C2165 H2136 0.929 . S
C2165 C2164 1.329 . S
H2166 C2139 0.931 . S
C2167 O2149 1.265 . S
C2167 O2150 1.242 . S
C2168 O2153 1.261 . S
C2168 O2154 1.252 . S
C2169 C2172 1.394 . S
C2169 C2174 1.370 . S
C2169 C2175 1.500 1_565 S
C2170 C2173 1.383 . S
C2170 C2174 1.395 . S
C2171 C2172 1.396 . S
C2171 C2173 1.365 . S
C2171 H2180 0.929 . S
C2172 C2169 1.394 . S
C2172 C2171 1.396 . S
C2172 H2181 0.930 . S
C2173 C2170 1.383 . S
C2173 C2171 1.365 . S
C2173 H2182 0.931 . S
C2174 C2169 1.370 . S
C2174 C2170 1.395 . S
C2174 H2183 0.930 . S
C2175 Gd2111 2.805 . S
C2175 O2151 1.263 . S
C2175 O2152 1.252 . S
C2175 C2169 1.500 1_545 S
H2176 C2159 0.929 . S
H2177 C2160 0.930 . S
H2178 C2161 0.931 . S
H2179 C2162 0.930 . S
H2180 C2171 0.929 . S
H2181 C2172 0.930 . S
H2182 C2173 0.931 . S
H2183 C2174 0.930 . S
C2184 C2186 1.422 . S
C2184 C2188 1.415 . S
C2184 N2190 1.369 1_455 S
C2185 C2186 1.421 . S
C2185 C2187 1.417 . S
C2185 C2197 1.422 . S
C2186 C2184 1.422 . S
C2186 C2185 1.421 . S
C2186 N2196 1.359 . S
C2187 C2185 1.417 . S
C2187 C2189 1.329 . S
C2187 H2206 0.930 . S
C2188 C2184 1.415 . S
C2188 C2189 1.437 . S
C2188 C2192 1.413 . S
C2189 C2187 1.329 . S
C2189 C2188 1.437 . S
C2189 H2211 0.929 . S
N2190 C2184 1.369 1_655 S
N2190 C2191 1.338 . S
N2190 Gd2195 2.622 . S
C2191 N2190 1.338 . S
C2191 C2193 1.378 . S
C2191 H2203 0.929 . S
C2192 C2188 1.413 . S
C2192 C2193 1.348 1_455 S
C2192 H2208 0.931 . S
C2193 C2191 1.378 . S
C2193 C2192 1.348 1_655 S
C2193 H2209 0.930 . S
Gd2194 N2214 2.622 . S
Gd2194 N2221 2.570 . S
Gd2194 O2228 2.353 . S
Gd2194 O2229 2.468 . S
Gd2194 O2230 2.427 . S
Gd2194 O2232 2.388 . S
Gd2194 O2233 2.386 . S
Gd2194 O2237 2.307 . S
Gd2194 C2247 2.805 . S
Gd2195 N2190 2.622 . S
Gd2195 N2196 2.570 1_655 S
Gd2195 O2227 2.386 . S
Gd2195 O2231 2.307 . S
Gd2195 O2234 2.353 . S
Gd2195 O2235 2.468 1_655 S
Gd2195 O2236 2.427 1_655 S
Gd2195 O2238 2.388 . S
Gd2195 C2259 2.805 1_655 S
N2196 C2186 1.359 . S
N2196 Gd2195 2.570 1_455 S
N2196 C2198 1.343 . S
C2197 C2185 1.422 . S
C2197 C2199 1.321 . S
C2197 H2205 0.931 . S
C2198 N2196 1.343 . S
C2198 C2199 1.390 . S
C2198 H2200 0.931 . S
C2199 C2197 1.321 . S
C2199 C2198 1.390 . S
C2199 H2201 0.930 . S
H2200 C2198 0.931 . S
H2201 C2199 0.930 . S
H2202 C2225 0.931 . S
H2203 C2191 0.929 . S
H2204 C2226 0.930 . S
H2205 C2197 0.931 . S
H2206 C2187 0.930 . S
H2207 C2216 0.929 . S
H2208 C2192 0.931 . S
H2209 C2193 0.930 . S
H2210 C2248 0.930 . S
H2211 C2189 0.929 . S
H2212 C2217 0.931 . S
H2213 C2218 0.930 . S
N2214 Gd2194 2.622 . S
N2214 C2215 1.369 . S
N2214 C2216 1.338 . S
C2215 N2214 1.369 . S
C2215 C2219 1.415 . S
C2215 C2222 1.422 . S
C2216 H2207 0.929 . S
C2216 N2214 1.338 . S
C2216 C2218 1.378 . S
C2217 H2212 0.931 . S
C2217 C2218 1.348 . S
C2217 C2219 1.413 . S
C2218 H2213 0.930 . S
C2218 C2216 1.378 . S
C2218 C2217 1.348 . S
C2219 C2215 1.415 . S
C2219 C2217 1.413 . S
C2219 C2249 1.458 . S
H2220 C2249 0.913 1_565 S
N2221 Gd2194 2.570 . S
N2221 C2222 1.359 . S
N2221 C2225 1.343 . S
C2222 C2215 1.422 . S
C2222 N2221 1.359 . S
C2222 C2224 1.421 . S
C2223 C2224 1.422 . S
C2223 C2226 1.321 . S
C2223 H2250 0.931 1_545 S
C2224 C2222 1.421 . S
C2224 C2223 1.422 . S
C2224 C2248 1.417 1_545 S
C2225 H2202 0.931 . S
C2225 N2221 1.343 . S
C2225 C2226 1.390 . S
C2226 H2204 0.930 . S
C2226 C2223 1.321 . S
C2226 C2225 1.390 . S
O2227 Gd2195 2.386 . S
O2227 C2239 1.265 . S
O2228 Gd2194 2.353 . S
O2228 C2239 1.242 . S
O2229 Gd2194 2.468 . S
O2229 C2247 1.263 . S
O2230 Gd2194 2.427 . S
O2230 C2247 1.252 . S
O2231 Gd2195 2.307 . S
O2231 C2240 1.261 . S
O2232 Gd2194 2.388 . S
O2232 C2240 1.252 . S
O2233 Gd2194 2.386 . S
O2233 C2251 1.265 . S
O2234 Gd2195 2.353 . S
O2234 C2251 1.242 . S
O2235 Gd2195 2.468 1_455 S
O2235 C2259 1.263 . S
O2236 Gd2195 2.427 1_455 S
O2236 C2259 1.252 . S
O2237 Gd2194 2.307 . S
O2237 C2252 1.261 . S
O2238 Gd2195 2.388 . S
O2238 C2252 1.252 . S
C2239 O2227 1.265 . S
C2239 O2228 1.242 . S
C2240 O2231 1.261 . S
C2240 O2232 1.252 . S
C2241 C2244 1.394 . S
C2241 C2246 1.370 . S
C2241 C2247 1.500 . S
C2242 C2245 1.383 . S
C2242 C2246 1.395 . S
C2243 C2244 1.396 . S
C2243 C2245 1.365 . S
C2243 H2260 0.929 . S
C2244 C2241 1.394 . S
C2244 C2243 1.396 . S
C2244 H2261 0.930 . S
C2245 C2242 1.383 . S
C2245 C2243 1.365 . S
C2245 H2262 0.931 . S
C2246 C2241 1.370 . S
C2246 C2242 1.395 . S
C2246 H2263 0.930 . S
C2247 Gd2194 2.805 . S
C2247 O2229 1.263 . S
C2247 O2230 1.252 . S
C2247 C2241 1.500 . S
C2248 H2210 0.930 . S
C2248 C2224 1.417 1_565 S
C2248 C2249 1.325 1_565 S
C2249 C2219 1.458 . S
C2249 H2220 0.913 1_545 S
C2249 C2248 1.325 1_545 S
H2250 C2223 0.931 1_565 S
C2251 O2233 1.265 . S
C2251 O2234 1.242 . S
C2252 O2237 1.261 . S
C2252 O2238 1.252 . S
C2253 C2256 1.394 . S
C2253 C2258 1.370 . S
C2253 C2259 1.500 . S
C2254 C2257 1.383 . S
C2254 C2258 1.395 . S
C2255 C2256 1.396 . S
C2255 C2257 1.365 . S
C2255 H2264 0.929 . S
C2256 C2253 1.394 . S
C2256 C2255 1.396 . S
C2256 H2265 0.930 . S
C2257 C2254 1.383 . S
C2257 C2255 1.365 . S
C2257 H2266 0.931 . S
C2258 C2253 1.370 . S
C2258 C2254 1.395 . S
C2258 H2267 0.930 . S
C2259 Gd2195 2.805 1_455 S
C2259 O2235 1.263 . S
C2259 O2236 1.252 . S
C2259 C2253 1.500 . S
H2260 C2243 0.929 . S
H2261 C2244 0.930 . S
H2262 C2245 0.931 . S
H2263 C2246 0.930 . S
H2264 C2255 0.929 . S
H2265 C2256 0.930 . S
H2266 C2257 0.931 . S
H2267 C2258 0.930 . S
C2268 C2270 1.422 . S
C2268 C2272 1.415 . S
C2268 N2274 1.369 . S
C2269 C2270 1.421 1_565 S
C2269 C2271 1.417 . S
C2269 C2281 1.422 . S
C2270 C2268 1.422 . S
C2270 C2269 1.421 1_545 S
C2270 N2280 1.359 . S
C2271 C2269 1.417 . S
C2271 C2273 1.329 . S
C2271 H2290 0.930 . S
C2272 C2268 1.415 . S
C2272 C2273 1.437 1_545 S
C2272 C2276 1.413 . S
C2273 C2271 1.329 . S
C2273 C2272 1.437 1_565 S
C2273 H2295 0.929 . S
N2274 C2268 1.369 . S
N2274 C2275 1.338 . S
N2274 Gd2279 2.622 . S
C2275 N2274 1.338 . S
C2275 C2277 1.378 . S
C2275 H2287 0.929 . S
C2276 C2272 1.413 . S
C2276 C2277 1.348 . S
C2276 H2292 0.931 . S
C2277 C2275 1.378 . S
C2277 C2276 1.348 . S
C2277 H2293 0.930 . S
Gd2278 N2298 2.622 . S
Gd2278 N2305 2.570 . S
Gd2278 O2312 2.353 . S
Gd2278 O2313 2.468 . S
Gd2278 O2314 2.427 . S
Gd2278 O2316 2.388 . S
Gd2278 O2317 2.386 . S
Gd2278 O2321 2.307 . S
Gd2278 C2331 2.805 . S
Gd2279 N2274 2.622 . S
Gd2279 N2280 2.570 . S
Gd2279 O2311 2.386 . S
Gd2279 O2315 2.307 . S
Gd2279 O2318 2.353 . S
Gd2279 O2319 2.468 . S
Gd2279 O2320 2.427 . S
Gd2279 O2322 2.388 . S
Gd2279 C2343 2.805 . S
N2280 C2270 1.359 . S
N2280 Gd2279 2.570 . S
N2280 C2282 1.343 . S
C2281 C2269 1.422 . S
C2281 C2283 1.321 1_565 S
C2281 H2289 0.931 . S
C2282 N2280 1.343 . S
C2282 C2283 1.390 . S
C2282 H2284 0.931 . S
C2283 C2281 1.321 1_545 S
C2283 C2282 1.390 . S
C2283 H2285 0.930 1_545 S
H2284 C2282 0.931 . S
H2285 C2283 0.930 1_565 S
H2286 C2309 0.931 . S
H2287 C2275 0.929 . S
H2288 C2310 0.930 . S
H2289 C2281 0.931 . S
H2290 C2271 0.930 . S
H2291 C2300 0.929 . S
H2292 C2276 0.931 . S
H2293 C2277 0.930 . S
H2294 C2332 0.930 . S
H2295 C2273 0.929 . S
H2296 C2301 0.931 . S
H2297 C2302 0.930 . S
N2298 Gd2278 2.622 . S
N2298 C2299 1.369 . S
N2298 C2300 1.338 . S
C2299 N2298 1.369 . S
C2299 C2303 1.415 . S
C2299 C2306 1.422 . S
C2300 H2291 0.929 . S
C2300 N2298 1.338 . S
C2300 C2302 1.378 . S
C2301 H2296 0.931 . S
C2301 C2302 1.348 . S
C2301 C2303 1.413 . S
C2302 H2297 0.930 . S
C2302 C2300 1.378 . S
C2302 C2301 1.348 . S
C2303 C2299 1.415 . S
C2303 C2301 1.413 . S
C2303 C2333 1.437 . S
H2304 C2333 0.929 . S
N2305 Gd2278 2.570 . S
N2305 C2306 1.359 . S
N2305 C2309 1.343 . S
C2306 C2299 1.422 . S
C2306 N2305 1.359 . S
C2306 C2308 1.421 . S
C2307 C2308 1.422 . S
C2307 C2310 1.321 . S
C2307 H2334 0.931 . S
C2308 C2306 1.421 . S
C2308 C2307 1.422 . S
C2308 C2332 1.417 . S
C2309 H2286 0.931 . S
C2309 N2305 1.343 . S
C2309 C2310 1.390 . S
C2310 H2288 0.930 . S
C2310 C2307 1.321 . S
C2310 C2309 1.390 . S
O2311 Gd2279 2.386 . S
O2311 C2323 1.265 . S
O2312 Gd2278 2.353 . S
O2312 C2323 1.242 . S
O2313 Gd2278 2.468 . S
O2313 C2331 1.263 . S
O2314 Gd2278 2.427 . S
O2314 C2331 1.252 . S
O2315 Gd2279 2.307 . S
O2315 C2324 1.261 . S
O2316 Gd2278 2.388 . S
O2316 C2324 1.252 . S
O2317 Gd2278 2.386 . S
O2317 C2335 1.265 . S
O2318 Gd2279 2.353 . S
O2318 C2335 1.242 . S
O2319 Gd2279 2.468 . S
O2319 C2343 1.263 . S
O2320 Gd2279 2.427 . S
O2320 C2343 1.252 . S
O2321 Gd2278 2.307 . S
O2321 C2336 1.261 . S
O2322 Gd2279 2.388 . S
O2322 C2336 1.252 . S
C2323 O2311 1.265 . S
C2323 O2312 1.242 . S
C2324 O2315 1.261 . S
C2324 O2316 1.252 . S
C2325 C2328 1.394 . S
C2325 C2330 1.370 . S
C2325 C2331 1.500 . S
C2326 C2329 1.383 . S
C2326 C2330 1.395 . S
C2327 C2328 1.396 . S
C2327 C2329 1.365 . S
C2327 H2344 0.929 . S
C2328 C2325 1.394 . S
C2328 C2327 1.396 . S
C2328 H2345 0.930 . S
C2329 C2326 1.383 . S
C2329 C2327 1.365 . S
C2329 H2346 0.931 . S
C2330 C2325 1.370 . S
C2330 C2326 1.395 . S
C2330 H2347 0.930 . S
C2331 Gd2278 2.805 . S
C2331 O2313 1.263 . S
C2331 O2314 1.252 . S
C2331 C2325 1.500 . S
C2332 H2294 0.930 . S
C2332 C2308 1.417 . S
C2332 C2333 1.329 . S
C2333 C2303 1.437 . S
C2333 H2304 0.929 . S
C2333 C2332 1.329 . S
H2334 C2307 0.931 . S
C2335 O2317 1.265 . S
C2335 O2318 1.242 . S
C2336 O2321 1.261 . S
C2336 O2322 1.252 . S
C2337 C2340 1.394 . S
C2337 C2342 1.370 . S
C2337 C2343 1.500 . S
C2338 C2341 1.383 . S
C2338 C2342 1.395 . S
C2339 C2340 1.396 . S
C2339 C2341 1.365 . S
C2339 H2348 0.929 . S
C2340 C2337 1.394 . S
C2340 C2339 1.396 . S
C2340 H2349 0.930 . S
C2341 C2338 1.383 . S
C2341 C2339 1.365 . S
C2341 H2350 0.931 . S
C2342 C2337 1.370 . S
C2342 C2338 1.395 . S
C2342 H2351 0.930 . S
C2343 Gd2279 2.805 . S
C2343 O2319 1.263 . S
C2343 O2320 1.252 . S
C2343 C2337 1.500 . S
H2344 C2327 0.929 . S
H2345 C2328 0.930 . S
H2346 C2329 0.931 . S
H2347 C2330 0.930 . S
H2348 C2339 0.929 . S
H2349 C2340 0.930 . S
H2350 C2341 0.931 . S
H2351 C2342 0.930 . S
C2352 C2354 1.422 . S
C2352 C2356 1.415 . S
C2352 N2358 1.369 1_455 S
C2353 C2354 1.421 . S
C2353 C2355 1.417 . S
C2353 C2365 1.422 . S
C2354 C2352 1.422 . S
C2354 C2353 1.421 . S
C2354 N2364 1.359 . S
C2355 C2353 1.417 . S
C2355 C2357 1.329 . S
C2355 H2374 0.930 . S
C2356 C2352 1.415 . S
C2356 C2357 1.437 . S
C2356 C2360 1.413 . S
C2357 C2355 1.329 . S
C2357 C2356 1.437 . S
C2357 H2379 0.929 . S
N2358 C2352 1.369 1_655 S
N2358 C2359 1.338 . S
N2358 Gd2363 2.622 . S
C2359 N2358 1.338 . S
C2359 C2361 1.378 . S
C2359 H2371 0.929 . S
C2360 C2356 1.413 . S
C2360 C2361 1.348 1_455 S
C2360 H2376 0.931 . S
C2361 C2359 1.378 . S
C2361 C2360 1.348 1_655 S
C2361 H2377 0.930 . S
Gd2362 N2382 2.622 . S
Gd2362 N2389 2.570 . S
Gd2362 O2396 2.353 . S
Gd2362 O2397 2.468 . S
Gd2362 O2398 2.427 . S
Gd2362 O2400 2.388 . S
Gd2362 O2401 2.386 . S
Gd2362 O2405 2.307 . S
Gd2362 C2415 2.805 . S
Gd2363 N2358 2.622 . S
Gd2363 N2364 2.570 1_655 S
Gd2363 O2395 2.386 . S
Gd2363 O2399 2.307 . S
Gd2363 O2402 2.353 . S
Gd2363 O2403 2.468 . S
Gd2363 O2404 2.427 . S
Gd2363 O2406 2.388 . S
Gd2363 C2427 2.805 . S
N2364 C2354 1.359 . S
N2364 Gd2363 2.570 1_455 S
N2364 C2366 1.343 . S
C2365 C2353 1.422 . S
C2365 C2367 1.321 . S
C2365 H2373 0.931 . S
C2366 N2364 1.343 . S
C2366 C2367 1.390 . S
C2366 H2368 0.916 1_455 S
C2367 C2365 1.321 . S
C2367 C2366 1.390 . S
C2367 H2369 0.930 . S
H2368 C2366 0.916 1_655 S
H2369 C2367 0.930 . S
H2370 C2393 0.931 . S
H2371 C2359 0.929 . S
H2372 C2394 0.930 . S
H2373 C2365 0.931 . S
H2374 C2355 0.930 . S
H2375 C2384 0.929 . S
H2376 C2360 0.931 . S
H2377 C2361 0.930 . S
H2378 C2416 0.930 . S
H2379 C2357 0.929 . S
H2380 C2385 0.931 . S
H2381 C2386 0.930 . S
N2382 Gd2362 2.622 . S
N2382 C2383 1.369 . S
N2382 C2384 1.338 . S
C2383 N2382 1.369 . S
C2383 C2387 1.415 . S
C2383 C2390 1.422 . S
C2384 H2375 0.929 . S
C2384 N2382 1.338 . S
C2384 C2386 1.378 . S
C2385 H2380 0.931 . S
C2385 C2386 1.348 . S
C2385 C2387 1.413 . S
C2386 H2381 0.930 . S
C2386 C2384 1.378 . S
C2386 C2385 1.348 . S
C2387 C2383 1.415 . S
C2387 C2385 1.413 . S
C2387 C2417 1.437 . S
H2388 C2417 0.929 . S
N2389 Gd2362 2.570 . S
N2389 C2390 1.359 . S
N2389 C2393 1.343 . S
C2390 C2383 1.422 . S
C2390 N2389 1.359 . S
C2390 C2392 1.421 . S
C2391 C2392 1.422 . S
C2391 C2394 1.321 . S
C2391 H2418 0.931 . S
C2392 C2390 1.421 . S
C2392 C2391 1.422 . S
C2392 C2416 1.417 . S
C2393 H2370 0.931 . S
C2393 N2389 1.343 . S
C2393 C2394 1.390 . S
C2394 H2372 0.930 . S
C2394 C2391 1.321 . S
C2394 C2393 1.390 . S
O2395 Gd2363 2.386 . S
O2395 C2407 1.265 . S
O2396 Gd2362 2.353 . S
O2396 C2407 1.242 . S
O2397 Gd2362 2.468 . S
O2397 C2415 1.263 . S
O2398 Gd2362 2.427 . S
O2398 C2415 1.252 . S
O2399 Gd2363 2.307 . S
O2399 C2408 1.261 . S
O2400 Gd2362 2.388 . S
O2400 C2408 1.252 . S
O2401 Gd2362 2.386 . S
O2401 C2419 1.265 . S
O2402 Gd2363 2.353 . S
O2402 C2419 1.242 . S
O2403 Gd2363 2.468 . S
O2403 C2427 1.263 . S
O2404 Gd2363 2.427 . S
O2404 C2427 1.252 . S
O2405 Gd2362 2.307 . S
O2405 C2420 1.261 . S
O2406 Gd2363 2.388 . S
O2406 C2420 1.252 . S
C2407 O2395 1.265 . S
C2407 O2396 1.242 . S
C2408 O2399 1.261 . S
C2408 O2400 1.252 . S
C2409 C2412 1.394 . S
C2409 C2414 1.370 . S
C2409 C2415 1.500 . S
C2410 C2413 1.383 . S
C2410 C2414 1.395 1_565 S
C2411 C2412 1.396 1_565 S
C2411 C2413 1.365 . S
C2411 H2428 0.929 . S
C2412 C2409 1.394 . S
C2412 C2411 1.396 1_545 S
C2412 H2429 0.930 . S
C2413 C2410 1.383 . S
C2413 C2411 1.365 . S
C2413 H2430 0.931 . S
C2414 C2409 1.370 . S
C2414 C2410 1.395 1_545 S
C2414 H2431 0.930 . S
C2415 Gd2362 2.805 . S
C2415 O2397 1.263 . S
C2415 O2398 1.252 . S
C2415 C2409 1.500 . S
C2416 H2378 0.930 . S
C2416 C2392 1.417 . S
C2416 C2417 1.329 . S
C2417 C2387 1.437 . S
C2417 H2388 0.929 . S
C2417 C2416 1.329 . S
H2418 C2391 0.931 . S
C2419 O2401 1.265 . S
C2419 O2402 1.242 . S
C2420 O2405 1.261 . S
C2420 O2406 1.252 . S
C2421 C2424 1.394 . S
C2421 C2426 1.370 . S
C2421 C2427 1.500 . S
C2422 C2425 1.383 . S
C2422 C2426 1.395 . S
C2423 C2424 1.396 . S
C2423 C2425 1.365 . S
C2423 H2432 0.929 . S
C2424 C2421 1.394 . S
C2424 C2423 1.396 . S
C2424 H2433 0.930 . S
C2425 C2422 1.383 . S
C2425 C2423 1.365 . S
C2425 H2434 0.931 . S
C2426 C2421 1.370 . S
C2426 C2422 1.395 . S
C2426 H2435 0.930 . S
C2427 Gd2363 2.805 . S
C2427 O2403 1.263 . S
C2427 O2404 1.252 . S
C2427 C2421 1.500 . S
H2428 C2411 0.929 . S
H2429 C2412 0.930 . S
H2430 C2413 0.931 . S
H2431 C2414 0.930 . S
H2432 C2423 0.929 . S
H2433 C2424 0.930 . S
H2434 C2425 0.931 . S
H2435 C2426 0.930 . S
C2436 C2438 1.422 . S
C2436 C2440 1.415 . S
C2436 N2442 1.369 . S
C2437 C2438 1.421 . S
C2437 C2439 1.417 . S
C2437 C2449 1.422 . S
C2438 C2436 1.422 . S
C2438 C2437 1.421 . S
C2438 N2448 1.359 . S
C2439 C2437 1.417 . S
C2439 C2441 1.329 . S
C2439 H2458 0.930 . S
C2440 C2436 1.415 . S
C2440 C2441 1.437 . S
C2440 C2444 1.413 . S
C2441 C2439 1.329 . S
C2441 C2440 1.437 . S
C2441 H2463 0.929 . S
N2442 C2436 1.369 . S
N2442 C2443 1.338 . S
N2442 Gd2447 2.622 . S
C2443 N2442 1.338 . S
C2443 C2445 1.378 . S
C2443 H2455 0.929 . S
C2444 C2440 1.413 . S
C2444 C2445 1.348 . S
C2444 H2460 0.931 . S
C2445 C2443 1.378 . S
C2445 C2444 1.348 . S
C2445 H2461 0.930 . S
Gd2446 N2466 2.622 . S
Gd2446 N2473 2.570 . S
Gd2446 O2480 2.353 . S
Gd2446 O2481 2.468 . S
Gd2446 O2482 2.427 . S
Gd2446 O2484 2.388 . S
Gd2446 O2485 2.386 . S
Gd2446 O2489 2.307 . S
Gd2446 C2499 2.805 . S
Gd2447 N2442 2.622 . S
Gd2447 N2448 2.570 . S
Gd2447 O2479 2.386 . S
Gd2447 O2483 2.307 . S
Gd2447 O2486 2.353 . S
Gd2447 O2487 2.468 . S
Gd2447 O2488 2.427 . S
Gd2447 O2490 2.388 . S
Gd2447 C2511 2.805 . S
N2448 C2438 1.359 . S
N2448 Gd2447 2.570 . S
N2448 C2450 1.343 . S
C2449 C2437 1.422 . S
C2449 C2451 1.321 . S
C2449 H2457 0.931 . S
C2450 N2448 1.343 . S
C2450 C2451 1.390 . S
C2450 H2452 0.931 . S
C2451 C2449 1.321 . S
C2451 C2450 1.390 . S
C2451 H2453 0.930 . S
H2452 C2450 0.931 . S
H2453 C2451 0.930 . S
H2454 C2477 0.931 . S
H2455 C2443 0.929 . S
H2456 C2478 0.930 . S
H2457 C2449 0.931 . S
H2458 C2439 0.930 . S
H2459 C2468 0.929 . S
H2460 C2444 0.931 . S
H2461 C2445 0.930 . S
H2462 C2500 0.930 . S
H2463 C2441 0.929 . S
H2464 C2469 0.931 . S
H2465 C2470 0.930 . S
N2466 Gd2446 2.622 . S
N2466 C2467 1.369 . S
N2466 C2468 1.338 . S
C2467 N2466 1.369 . S
C2467 C2471 1.415 . S
C2467 C2474 1.422 . S
C2468 H2459 0.929 . S
C2468 N2466 1.338 . S
C2468 C2470 1.378 . S
C2469 H2464 0.931 . S
C2469 C2470 1.348 . S
C2469 C2471 1.413 . S
C2470 H2465 0.930 . S
C2470 C2468 1.378 . S
C2470 C2469 1.348 . S
C2471 C2467 1.415 . S
C2471 C2469 1.413 . S
C2471 C2501 1.437 1_655 S
H2472 C2501 0.929 . S
N2473 Gd2446 2.570 . S
N2473 C2474 1.359 . S
N2473 C2477 1.343 . S
C2474 C2467 1.422 . S
C2474 N2473 1.359 . S
C2474 C2476 1.421 1_655 S
C2475 C2476 1.422 . S
C2475 C2478 1.321 . S
C2475 H2502 0.931 . S
C2476 C2474 1.421 1_455 S
C2476 C2475 1.422 . S
C2476 C2500 1.417 . S
C2477 H2454 0.931 . S
C2477 N2473 1.343 . S
C2477 C2478 1.390 1_655 S
C2478 H2456 0.930 . S
C2478 C2475 1.321 . S
C2478 C2477 1.390 1_455 S
O2479 Gd2447 2.386 . S
O2479 C2491 1.265 . S
O2480 Gd2446 2.353 . S
O2480 C2491 1.242 . S
O2481 Gd2446 2.468 . S
O2481 C2499 1.263 . S
O2482 Gd2446 2.427 . S
O2482 C2499 1.252 . S
O2483 Gd2447 2.307 . S
O2483 C2492 1.261 . S
O2484 Gd2446 2.388 . S
O2484 C2492 1.252 . S
O2485 Gd2446 2.386 . S
O2485 C2503 1.265 . S
O2486 Gd2447 2.353 . S
O2486 C2503 1.242 . S
O2487 Gd2447 2.468 . S
O2487 C2511 1.263 . S
O2488 Gd2447 2.427 . S
O2488 C2511 1.252 . S
O2489 Gd2446 2.307 . S
O2489 C2504 1.261 . S
O2490 Gd2447 2.388 . S
O2490 C2504 1.252 . S
C2491 O2479 1.265 . S
C2491 O2480 1.242 . S
C2492 O2483 1.261 . S
C2492 O2484 1.252 . S
C2493 C2496 1.394 . S
C2493 C2498 1.370 . S
C2493 C2499 1.500 1_455 S
C2494 C2497 1.383 . S
C2494 C2498 1.395 . S
C2495 C2496 1.396 . S
C2495 C2497 1.365 . S
C2495 H2512 0.929 . S
C2496 C2493 1.394 . S
C2496 C2495 1.396 . S
C2496 H2513 0.930 . S
C2497 C2494 1.383 . S
C2497 C2495 1.365 . S
C2497 H2514 0.931 . S
C2498 C2493 1.370 . S
C2498 C2494 1.395 . S
C2498 H2515 0.930 . S
C2499 Gd2446 2.805 . S
C2499 O2481 1.263 . S
C2499 O2482 1.252 . S
C2499 C2493 1.500 1_655 S
C2500 H2462 0.930 . S
C2500 C2476 1.417 . S
C2500 C2501 1.329 . S
C2501 C2471 1.437 1_455 S
C2501 H2472 0.929 . S
C2501 C2500 1.329 . S
H2502 C2475 0.931 . S
C2503 O2485 1.265 . S
C2503 O2486 1.242 . S
C2504 O2489 1.261 . S
C2504 O2490 1.252 . S
C2505 C2508 1.394 . S
C2505 C2510 1.370 . S
C2505 C2511 1.500 . S
C2506 C2509 1.383 . S
C2506 C2510 1.395 . S
C2507 C2508 1.396 . S
C2507 C2509 1.365 . S
C2507 H2516 0.929 . S
C2508 C2505 1.394 . S
C2508 C2507 1.396 . S
C2508 H2517 0.930 . S
C2509 C2506 1.383 . S
C2509 C2507 1.365 . S
C2509 H2518 0.931 . S
C2510 C2505 1.370 . S
C2510 C2506 1.395 . S
C2510 H2519 0.930 . S
C2511 Gd2447 2.805 . S
C2511 O2487 1.263 . S
C2511 O2488 1.252 . S
C2511 C2505 1.500 . S
H2512 C2495 0.929 . S
H2513 C2496 0.930 . S
H2514 C2497 0.931 . S
H2515 C2498 0.930 . S
H2516 C2507 0.929 . S
H2517 C2508 0.930 . S
H2518 C2509 0.931 . S
H2519 C2510 0.930 . S
C2520 C2522 1.422 . S
C2520 C2524 1.415 . S
C2520 N2526 1.369 . S
C2521 C2522 1.421 . S
C2521 C2523 1.417 . S
C2521 C2533 1.422 . S
C2522 C2520 1.422 . S
C2522 C2521 1.421 . S
C2522 N2532 1.359 . S
C2523 C2521 1.417 . S
C2523 C2525 1.329 . S
C2523 H2542 0.930 . S
C2524 C2520 1.415 . S
C2524 C2525 1.437 . S
C2524 C2528 1.413 . S
C2525 C2523 1.329 . S
C2525 C2524 1.437 . S
C2525 H2547 0.929 . S
N2526 C2520 1.369 . S
N2526 C2527 1.338 . S
N2526 Gd2531 2.622 . S
C2527 N2526 1.338 . S
C2527 C2529 1.378 . S
C2527 H2539 0.929 . S
C2528 C2524 1.413 . S
C2528 C2529 1.348 . S
C2528 H2544 0.931 . S
C2529 C2527 1.378 . S
C2529 C2528 1.348 . S
C2529 H2545 0.930 . S
Gd2530 N2550 2.622 . S
Gd2530 N2557 2.570 1_655 S
Gd2530 O2564 2.353 . S
Gd2530 O2565 2.468 . S
Gd2530 O2566 2.427 . S
Gd2530 O2568 2.388 . S
Gd2530 O2569 2.386 . S
Gd2530 O2573 2.307 . S
Gd2530 C2583 2.805 . S
Gd2531 N2526 2.622 . S
Gd2531 N2532 2.570 . S
Gd2531 O2563 2.386 . S
Gd2531 O2567 2.307 . S
Gd2531 O2570 2.353 . S
Gd2531 O2571 2.468 . S
Gd2531 O2572 2.427 . S
Gd2531 O2574 2.388 . S
Gd2531 C2595 2.805 . S
N2532 C2522 1.359 . S
N2532 Gd2531 2.570 . S
N2532 C2534 1.343 . S
C2533 C2521 1.422 . S
C2533 C2535 1.321 . S
C2533 H2541 0.931 . S
C2534 N2532 1.343 . S
C2534 C2535 1.390 . S
C2534 H2536 0.931 . S
C2535 C2533 1.321 . S
C2535 C2534 1.390 . S
C2535 H2537 0.930 . S
H2536 C2534 0.931 . S
H2537 C2535 0.930 . S
H2538 C2561 0.931 1_655 S
H2539 C2527 0.929 . S
H2540 C2562 0.930 . S
H2541 C2533 0.931 . S
H2542 C2523 0.930 . S
H2543 C2552 0.929 . S
H2544 C2528 0.931 . S
H2545 C2529 0.930 . S
H2546 C2584 0.930 . S
H2547 C2525 0.929 . S
H2548 C2553 0.931 . S
H2549 C2554 0.930 . S
N2550 Gd2530 2.622 . S
N2550 C2551 1.369 1_655 S
N2550 C2552 1.338 . S
C2551 N2550 1.369 1_455 S
C2551 C2555 1.415 . S
C2551 C2558 1.422 . S
C2552 H2543 0.929 . S
C2552 N2550 1.338 . S
C2552 C2554 1.378 . S
C2553 H2548 0.931 . S
C2553 C2554 1.348 1_455 S
C2553 C2555 1.413 . S
C2554 H2549 0.930 . S
C2554 C2552 1.378 . S
C2554 C2553 1.348 1_655 S
C2555 C2551 1.415 . S
C2555 C2553 1.413 . S
C2555 C2585 1.437 . S
H2556 C2585 0.929 . S
N2557 Gd2530 2.570 1_455 S
N2557 C2558 1.359 . S
N2557 C2561 1.343 . S
C2558 C2551 1.422 . S
C2558 N2557 1.359 . S
C2558 C2560 1.421 . S
C2559 C2560 1.422 . S
C2559 C2562 1.321 . S
C2559 H2586 0.931 . S
C2560 C2558 1.421 . S
C2560 C2559 1.422 . S
C2560 C2584 1.417 . S
C2561 H2538 0.931 1_455 S
C2561 N2557 1.343 . S
C2561 C2562 1.390 . S
C2562 H2540 0.930 . S
C2562 C2559 1.321 . S
C2562 C2561 1.390 . S
O2563 Gd2531 2.386 . S
O2563 C2575 1.265 . S
O2564 Gd2530 2.353 . S
O2564 C2575 1.242 . S
O2565 Gd2530 2.468 . S
O2565 C2583 1.263 . S
O2566 Gd2530 2.427 . S
O2566 C2583 1.252 . S
O2567 Gd2531 2.307 . S
O2567 C2576 1.261 . S
O2568 Gd2530 2.388 . S
O2568 C2576 1.252 . S
O2569 Gd2530 2.386 . S
O2569 C2587 1.265 . S
O2570 Gd2531 2.353 . S
O2570 C2587 1.242 . S
O2571 Gd2531 2.468 . S
O2571 C2595 1.263 . S
O2572 Gd2531 2.427 . S
O2572 C2595 1.252 . S
O2573 Gd2530 2.307 . S
O2573 C2588 1.261 . S
O2574 Gd2531 2.388 . S
O2574 C2588 1.252 . S
C2575 O2563 1.265 . S
C2575 O2564 1.242 . S
C2576 O2567 1.261 . S
C2576 O2568 1.252 . S
C2577 C2580 1.394 . S
C2577 C2582 1.370 . S
C2577 C2583 1.500 . S
C2578 C2581 1.383 . S
C2578 C2582 1.395 . S
C2579 C2580 1.396 . S
C2579 C2581 1.365 . S
C2579 H2596 0.929 . S
C2580 C2577 1.394 . S
C2580 C2579 1.396 . S
C2580 H2597 0.930 . S
C2581 C2578 1.383 . S
C2581 C2579 1.365 . S
C2581 H2598 0.931 . S
C2582 C2577 1.370 . S
C2582 C2578 1.395 . S
C2582 H2599 0.930 . S
C2583 Gd2530 2.805 . S
C2583 O2565 1.263 . S
C2583 O2566 1.252 . S
C2583 C2577 1.500 . S
C2584 H2546 0.930 . S
C2584 C2560 1.417 . S
C2584 C2585 1.329 . S
C2585 C2555 1.437 . S
C2585 H2556 0.929 . S
C2585 C2584 1.329 . S
H2586 C2559 0.931 . S
C2587 O2569 1.265 . S
C2587 O2570 1.242 . S
C2588 O2573 1.261 . S
C2588 O2574 1.252 . S
C2589 C2592 1.394 . S
C2589 C2594 1.370 . S
C2589 C2595 1.500 . S
C2590 C2593 1.383 . S
C2590 C2594 1.395 . S
C2591 C2592 1.396 . S
C2591 C2593 1.365 . S
C2591 H2600 0.929 . S
C2592 C2589 1.394 . S
C2592 C2591 1.396 . S
C2592 H2601 0.930 . S
C2593 C2590 1.383 . S
C2593 C2591 1.365 . S
C2593 H2602 0.931 . S
C2594 C2589 1.370 . S
C2594 C2590 1.395 . S
C2594 H2603 0.930 . S
C2595 Gd2531 2.805 . S
C2595 O2571 1.263 . S
C2595 O2572 1.252 . S
C2595 C2589 1.500 . S
H2596 C2579 0.929 . S
H2597 C2580 0.930 . S
H2598 C2581 0.931 . S
H2599 C2582 0.930 . S
H2600 C2591 0.929 . S
H2601 C2592 0.930 . S
H2602 C2593 0.931 . S
H2603 C2594 0.930 . S
C2604 C2606 1.422 . S
C2604 C2608 1.415 . S
C2604 N2610 1.369 . S
C2605 C2606 1.421 . S
C2605 C2607 1.417 . S
C2605 C2617 1.422 . S
C2606 C2604 1.422 . S
C2606 C2605 1.421 . S
C2606 N2616 1.359 . S
C2607 C2605 1.417 . S
C2607 C2609 1.329 . S
C2607 H2626 0.930 . S
C2608 C2604 1.415 . S
C2608 C2609 1.437 . S
C2608 C2612 1.413 . S
C2609 C2607 1.329 . S
C2609 C2608 1.437 . S
C2609 H2631 0.929 . S
N2610 C2604 1.369 . S
N2610 C2611 1.338 . S
N2610 Gd2615 2.622 . S
C2611 N2610 1.338 . S
C2611 C2613 1.378 . S
C2611 H2623 0.929 . S
C2612 C2608 1.413 . S
C2612 C2613 1.348 . S
C2612 H2628 0.931 . S
C2613 C2611 1.378 . S
C2613 C2612 1.348 . S
C2613 H2629 0.930 . S
Gd2614 N2634 2.622 . S
Gd2614 N2641 2.570 . S
Gd2614 O2648 2.353 . S
Gd2614 O2649 2.468 . S
Gd2614 O2650 2.427 . S
Gd2614 O2652 2.388 . S
Gd2614 O2653 2.386 . S
Gd2614 O2657 2.307 . S
Gd2614 C2667 2.805 . S
Gd2615 N2610 2.622 . S
Gd2615 N2616 2.570 . S
Gd2615 O2647 2.386 . S
Gd2615 O2651 2.307 . S
Gd2615 O2654 2.353 . S
Gd2615 O2655 2.468 . S
Gd2615 O2656 2.427 . S
Gd2615 O2658 2.388 . S
Gd2615 C2679 2.805 . S
N2616 C2606 1.359 . S
N2616 Gd2615 2.570 . S
N2616 C2618 1.343 . S
C2617 C2605 1.422 . S
C2617 C2619 1.321 . S
C2617 H2625 0.931 . S
C2618 N2616 1.343 . S
C2618 C2619 1.390 . S
C2618 H2620 0.931 . S
C2619 C2617 1.321 . S
C2619 C2618 1.390 . S
C2619 H2621 0.930 . S
H2620 C2618 0.931 . S
H2621 C2619 0.930 . S
H2622 C2645 0.931 . S
H2623 C2611 0.929 . S
H2624 C2646 0.930 . S
H2625 C2617 0.931 . S
H2626 C2607 0.930 . S
H2627 C2636 0.929 . S
H2628 C2612 0.931 . S
H2629 C2613 0.930 . S
H2630 C2668 0.930 . S
H2631 C2609 0.929 . S
H2632 C2637 0.931 . S
H2633 C2638 0.930 . S
N2634 Gd2614 2.622 . S
N2634 C2635 1.369 . S
N2634 C2636 1.338 . S
C2635 N2634 1.369 . S
C2635 C2639 1.415 . S
C2635 C2642 1.422 . S
C2636 H2627 0.929 . S
C2636 N2634 1.338 . S
C2636 C2638 1.378 . S
C2637 H2632 0.931 . S
C2637 C2638 1.348 . S
C2637 C2639 1.413 . S
C2638 H2633 0.930 . S
C2638 C2636 1.378 . S
C2638 C2637 1.348 . S
C2639 C2635 1.415 . S
C2639 C2637 1.413 . S
C2639 C2669 1.437 . S
H2640 C2669 0.929 . S
N2641 Gd2614 2.570 . S
N2641 C2642 1.359 . S
N2641 C2645 1.343 . S
C2642 C2635 1.422 . S
C2642 N2641 1.359 . S
C2642 C2644 1.421 . S
C2643 C2644 1.422 . S
C2643 C2646 1.321 . S
C2643 H2670 0.931 . S
C2644 C2642 1.421 . S
C2644 C2643 1.422 . S
C2644 C2668 1.417 . S
C2645 H2622 0.931 . S
C2645 N2641 1.343 . S
C2645 C2646 1.390 . S
C2646 H2624 0.930 . S
C2646 C2643 1.321 . S
C2646 C2645 1.390 . S
O2647 Gd2615 2.386 . S
O2647 C2659 1.265 . S
O2648 Gd2614 2.353 . S
O2648 C2659 1.242 . S
O2649 Gd2614 2.468 . S
O2649 C2667 1.263 . S
O2650 Gd2614 2.427 . S
O2650 C2667 1.252 . S
O2651 Gd2615 2.307 . S
O2651 C2660 1.261 . S
O2652 Gd2614 2.388 . S
O2652 C2660 1.252 . S
O2653 Gd2614 2.386 . S
O2653 C2671 1.265 . S
O2654 Gd2615 2.353 . S
O2654 C2671 1.242 . S
O2655 Gd2615 2.468 . S
O2655 C2679 1.263 . S
O2656 Gd2615 2.427 . S
O2656 C2679 1.252 . S
O2657 Gd2614 2.307 . S
O2657 C2672 1.261 . S
O2658 Gd2615 2.388 . S
O2658 C2672 1.252 . S
C2659 O2647 1.265 . S
C2659 O2648 1.242 . S
C2660 O2651 1.261 . S
C2660 O2652 1.252 . S
C2661 C2664 1.394 . S
C2661 C2666 1.370 . S
C2661 C2667 1.500 . S
C2662 C2665 1.383 . S
C2662 C2666 1.395 . S
C2663 C2664 1.396 . S
C2663 C2665 1.365 . S
C2663 H2680 0.929 . S
C2664 C2661 1.394 . S
C2664 C2663 1.396 . S
C2664 H2681 0.930 . S
C2665 C2662 1.383 . S
C2665 C2663 1.365 . S
C2665 H2682 0.931 . S
C2666 C2661 1.370 . S
C2666 C2662 1.395 . S
C2666 H2683 0.930 . S
C2667 Gd2614 2.805 . S
C2667 O2649 1.263 . S
C2667 O2650 1.252 . S
C2667 C2661 1.500 . S
C2668 H2630 0.930 . S
C2668 C2644 1.417 . S
C2668 C2669 1.329 . S
C2669 C2639 1.437 . S
C2669 H2640 0.929 . S
C2669 C2668 1.329 . S
H2670 C2643 0.931 . S
C2671 O2653 1.265 . S
C2671 O2654 1.242 . S
C2672 O2657 1.261 . S
C2672 O2658 1.252 . S
C2673 C2676 1.394 . S
C2673 C2678 1.370 . S
C2673 C2679 1.500 . S
C2674 C2677 1.383 . S
C2674 C2678 1.395 1_565 S
C2675 C2676 1.396 1_565 S
C2675 C2677 1.365 . S
C2675 H2684 0.929 . S
C2676 C2673 1.394 . S
C2676 C2675 1.396 1_545 S
C2676 H2685 0.930 . S
C2677 C2674 1.383 . S
C2677 C2675 1.365 . S
C2677 H2686 0.931 . S
C2678 C2673 1.370 . S
C2678 C2674 1.395 1_545 S
C2678 H2687 0.930 . S
C2679 Gd2615 2.805 . S
C2679 O2655 1.263 . S
C2679 O2656 1.252 . S
C2679 C2673 1.500 . S
H2680 C2663 0.929 . S
H2681 C2664 0.930 . S
H2682 C2665 0.931 . S
H2683 C2666 0.930 . S
H2684 C2675 0.929 . S
H2685 C2676 0.930 . S
H2686 C2677 0.931 . S
H2687 C2678 0.930 . S
C2688 C2690 1.422 . S
C2688 C2692 1.415 . S
C2688 N2694 1.369 . S
C2689 C2690 1.421 1_455 S
C2689 C2691 1.417 . S
C2689 C2701 1.422 . S
C2690 C2688 1.422 . S
C2690 C2689 1.421 1_655 S
C2690 N2700 1.359 . S
C2691 C2689 1.417 . S
C2691 C2693 1.329 . S
C2691 H2710 0.930 . S
C2692 C2688 1.415 . S
C2692 C2693 1.437 1_655 S
C2692 C2696 1.413 . S
C2693 C2691 1.329 . S
C2693 C2692 1.437 1_455 S
C2693 H2715 0.929 . S
N2694 C2688 1.369 . S
N2694 C2695 1.338 . S
N2694 Gd2699 2.622 . S
C2695 N2694 1.338 . S
C2695 C2697 1.378 . S
C2695 H2707 0.929 . S
C2696 C2692 1.413 . S
C2696 C2697 1.348 . S
C2696 H2712 0.931 . S
C2697 C2695 1.378 . S
C2697 C2696 1.348 . S
C2697 H2713 0.930 . S
Gd2698 N2718 2.622 . S
Gd2698 N2725 2.570 . S
Gd2698 O2732 2.353 . S
Gd2698 O2733 2.468 . S
Gd2698 O2734 2.427 . S
Gd2698 O2736 2.388 . S
Gd2698 O2737 2.386 . S
Gd2698 O2741 2.307 . S
Gd2698 C2751 2.805 . S
Gd2699 N2694 2.622 . S
Gd2699 N2700 2.570 . S
Gd2699 O2731 2.386 . S
Gd2699 O2735 2.307 . S
Gd2699 O2738 2.353 . S
Gd2699 O2739 2.468 . S
Gd2699 O2740 2.427 . S
Gd2699 O2742 2.388 . S
Gd2699 C2763 2.805 . S
N2700 C2690 1.359 . S
N2700 Gd2699 2.570 . S
N2700 C2702 1.343 . S
C2701 C2689 1.422 . S
C2701 C2703 1.321 . S
C2701 H2709 0.931 . S
C2702 N2700 1.343 . S
C2702 C2703 1.390 1_655 S
C2702 H2704 0.931 . S
C2703 C2701 1.321 . S
C2703 C2702 1.390 1_455 S
C2703 H2705 0.930 . S
H2704 C2702 0.931 . S
H2705 C2703 0.930 . S
H2706 C2729 0.931 . S
H2707 C2695 0.929 . S
H2708 C2730 0.930 1_565 S
H2709 C2701 0.931 . S
H2710 C2691 0.930 . S
H2711 C2720 0.929 . S
H2712 C2696 0.931 . S
H2713 C2697 0.930 . S
H2714 C2752 0.930 . S
H2715 C2693 0.929 . S
H2716 C2721 0.931 . S
H2717 C2722 0.930 . S
N2718 Gd2698 2.622 . S
N2718 C2719 1.369 . S
N2718 C2720 1.338 . S
C2719 N2718 1.369 . S
C2719 C2723 1.415 . S
C2719 C2726 1.422 . S
C2720 H2711 0.929 . S
C2720 N2718 1.338 . S
C2720 C2722 1.378 . S
C2721 H2716 0.931 . S
C2721 C2722 1.348 . S
C2721 C2723 1.413 . S
C2722 H2717 0.930 . S
C2722 C2720 1.378 . S
C2722 C2721 1.348 . S
C2723 C2719 1.415 . S
C2723 C2721 1.413 . S
C2723 C2753 1.437 1_545 S
H2724 C2753 0.929 . S
N2725 Gd2698 2.570 . S
N2725 C2726 1.359 . S
N2725 C2729 1.343 . S
C2726 C2719 1.422 . S
C2726 N2725 1.359 . S
C2726 C2728 1.421 1_545 S
C2727 C2728 1.422 . S
C2727 C2730 1.321 1_565 S
C2727 H2754 0.931 . S
C2728 C2726 1.421 1_565 S
C2728 C2727 1.422 . S
C2728 C2752 1.417 . S
C2729 H2706 0.931 . S
C2729 N2725 1.343 . S
C2729 C2730 1.390 . S
C2730 H2708 0.930 1_545 S
C2730 C2727 1.321 1_545 S
C2730 C2729 1.390 . S
O2731 Gd2699 2.386 . S
O2731 C2743 1.265 . S
O2732 Gd2698 2.353 . S
O2732 C2743 1.242 . S
O2733 Gd2698 2.468 . S
O2733 C2751 1.263 . S
O2734 Gd2698 2.427 . S
O2734 C2751 1.252 . S
O2735 Gd2699 2.307 . S
O2735 C2744 1.261 . S
O2736 Gd2698 2.388 . S
O2736 C2744 1.252 . S
O2737 Gd2698 2.386 . S
O2737 C2755 1.265 . S
O2738 Gd2699 2.353 . S
O2738 C2755 1.242 . S
O2739 Gd2699 2.468 . S
O2739 C2763 1.263 . S
O2740 Gd2699 2.427 . S
O2740 C2763 1.252 . S
O2741 Gd2698 2.307 . S
O2741 C2756 1.261 . S
O2742 Gd2699 2.388 . S
O2742 C2756 1.252 . S
C2743 O2731 1.265 . S
C2743 O2732 1.242 . S
C2744 O2735 1.261 . S
C2744 O2736 1.252 . S
C2745 C2748 1.394 . S
C2745 C2750 1.370 . S
C2745 C2751 1.500 . S
C2746 C2749 1.383 . S
C2746 C2750 1.395 . S
C2747 C2748 1.396 . S
C2747 C2749 1.365 . S
C2747 H2764 0.929 . S
C2748 C2745 1.394 . S
C2748 C2747 1.396 . S
C2748 H2765 0.930 . S
C2749 C2746 1.383 . S
C2749 C2747 1.365 . S
C2749 H2766 0.931 . S
C2750 C2745 1.370 . S
C2750 C2746 1.395 . S
C2750 H2767 0.930 . S
C2751 Gd2698 2.805 . S
C2751 O2733 1.263 . S
C2751 O2734 1.252 . S
C2751 C2745 1.500 . S
C2752 H2714 0.930 . S
C2752 C2728 1.417 . S
C2752 C2753 1.329 . S
C2753 C2723 1.437 1_565 S
C2753 H2724 0.929 . S
C2753 C2752 1.329 . S
H2754 C2727 0.931 . S
C2755 O2737 1.265 . S
C2755 O2738 1.242 . S
C2756 O2741 1.261 . S
C2756 O2742 1.252 . S
C2757 C2760 1.394 . S
C2757 C2762 1.370 . S
C2757 C2763 1.500 1_455 S
C2758 C2761 1.383 . S
C2758 C2762 1.395 . S
C2759 C2760 1.396 . S
C2759 C2761 1.365 . S
C2759 H2768 0.929 . S
C2760 C2757 1.394 . S
C2760 C2759 1.396 . S
C2760 H2769 0.930 . S
C2761 C2758 1.383 . S
C2761 C2759 1.365 . S
C2761 H2770 0.931 . S
C2762 C2757 1.370 . S
C2762 C2758 1.395 . S
C2762 H2771 0.930 . S
C2763 Gd2699 2.805 . S
C2763 O2739 1.263 . S
C2763 O2740 1.252 . S
C2763 C2757 1.500 1_655 S
H2764 C2747 0.929 . S
H2765 C2748 0.930 . S
H2766 C2749 0.931 . S
H2767 C2750 0.930 . S
H2768 C2759 0.929 . S
H2769 C2760 0.930 . S
H2770 C2761 0.931 . S
H2771 C2762 0.930 . S
C2772 C2774 1.422 . S
C2772 C2776 1.415 . S
C2772 N2778 1.369 . S
C2773 C2774 1.421 . S
C2773 C2775 1.417 1_545 S
C2773 C2785 1.422 . S
C2774 C2772 1.422 . S
C2774 C2773 1.421 . S
C2774 N2784 1.359 . S
C2775 C2773 1.417 1_565 S
C2775 C2777 1.329 1_565 S
C2775 H2794 0.930 . S
C2776 C2772 1.415 . S
C2776 C2777 1.437 . S
C2776 C2780 1.413 . S
C2777 C2775 1.329 1_545 S
C2777 C2776 1.437 . S
C2777 H2799 0.929 1_545 S
N2778 C2772 1.369 . S
N2778 C2779 1.338 . S
N2778 Gd2783 2.622 . S
C2779 N2778 1.338 . S
C2779 C2781 1.378 . S
C2779 H2791 0.929 . S
C2780 C2776 1.413 . S
C2780 C2781 1.348 . S
C2780 H2796 0.931 . S
C2781 C2779 1.378 . S
C2781 C2780 1.348 . S
C2781 H2797 0.930 . S
Gd2782 N2802 2.622 . S
Gd2782 N2809 2.570 . S
Gd2782 O2816 2.353 . S
Gd2782 O2817 2.468 . S
Gd2782 O2818 2.427 . S
Gd2782 O2820 2.388 . S
Gd2782 O2821 2.386 . S
Gd2782 O2825 2.307 . S
Gd2782 C2835 2.805 . S
Gd2783 N2778 2.622 . S
Gd2783 N2784 2.570 . S
Gd2783 O2815 2.386 . S
Gd2783 O2819 2.307 . S
Gd2783 O2822 2.353 . S
Gd2783 O2823 2.468 . S
Gd2783 O2824 2.427 . S
Gd2783 O2826 2.388 . S
Gd2783 C2847 2.805 . S
N2784 C2774 1.359 . S
N2784 Gd2783 2.570 . S
N2784 C2786 1.343 . S
C2785 C2773 1.422 . S
C2785 C2787 1.321 . S
C2785 H2793 0.931 1_545 S
C2786 N2784 1.343 . S
C2786 C2787 1.390 . S
C2786 H2788 0.931 . S
C2787 C2785 1.321 . S
C2787 C2786 1.390 . S
C2787 H2789 0.930 . S
H2788 C2786 0.931 . S
H2789 C2787 0.930 . S
H2790 C2813 0.931 . S
H2791 C2779 0.929 . S
H2792 C2814 0.930 . S
H2793 C2785 0.931 1_565 S
H2794 C2775 0.930 . S
H2795 C2804 0.929 . S
H2796 C2780 0.931 . S
H2797 C2781 0.930 . S
H2798 C2836 0.930 . S
H2799 C2777 0.929 1_565 S
H2800 C2805 0.931 . S
H2801 C2806 0.930 . S
N2802 Gd2782 2.622 . S
N2802 C2803 1.369 . S
N2802 C2804 1.338 . S
C2803 N2802 1.369 . S
C2803 C2807 1.415 . S
C2803 C2810 1.422 . S
C2804 H2795 0.929 . S
C2804 N2802 1.338 . S
C2804 C2806 1.378 . S
C2805 H2800 0.931 . S
C2805 C2806 1.348 . S
C2805 C2807 1.413 . S
C2806 H2801 0.930 . S
C2806 C2804 1.378 . S
C2806 C2805 1.348 . S
C2807 C2803 1.415 . S
C2807 C2805 1.413 . S
C2807 C2837 1.437 . S
H2808 C2837 0.929 . S
N2809 Gd2782 2.570 . S
N2809 C2810 1.359 . S
N2809 C2813 1.343 . S
C2810 C2803 1.422 . S
C2810 N2809 1.359 . S
C2810 C2812 1.421 . S
C2811 C2812 1.422 . S
C2811 C2814 1.321 . S
C2811 H2838 0.931 . S
C2812 C2810 1.421 . S
C2812 C2811 1.422 . S
C2812 C2836 1.417 . S
C2813 H2790 0.931 . S
C2813 N2809 1.343 . S
C2813 C2814 1.390 . S
C2814 H2792 0.930 . S
C2814 C2811 1.321 . S
C2814 C2813 1.390 . S
O2815 Gd2783 2.386 . S
O2815 C2827 1.265 . S
O2816 Gd2782 2.353 . S
O2816 C2827 1.242 . S
O2817 Gd2782 2.468 . S
O2817 C2835 1.263 . S
O2818 Gd2782 2.427 . S
O2818 C2835 1.252 . S
O2819 Gd2783 2.307 . S
O2819 C2828 1.261 . S
O2820 Gd2782 2.388 . S
O2820 C2828 1.252 . S
O2821 Gd2782 2.386 . S
O2821 C2839 1.265 . S
O2822 Gd2783 2.353 . S
O2822 C2839 1.242 . S
O2823 Gd2783 2.468 . S
O2823 C2847 1.263 . S
O2824 Gd2783 2.427 . S
O2824 C2847 1.252 . S
O2825 Gd2782 2.307 . S
O2825 C2840 1.261 . S
O2826 Gd2783 2.388 . S
O2826 C2840 1.252 . S
C2827 O2815 1.265 . S
C2827 O2816 1.242 . S
C2828 O2819 1.261 . S
C2828 O2820 1.252 . S
C2829 C2832 1.394 . S
C2829 C2834 1.370 . S
C2829 C2835 1.500 . S
C2830 C2833 1.383 . S
C2830 C2834 1.395 . S
C2831 C2832 1.396 . S
C2831 C2833 1.365 . S
C2831 H2848 0.929 . S
C2832 C2829 1.394 . S
C2832 C2831 1.396 . S
C2832 H2849 0.930 . S
C2833 C2830 1.383 . S
C2833 C2831 1.365 . S
C2833 H2850 0.931 . S
C2834 C2829 1.370 . S
C2834 C2830 1.395 . S
C2834 H2851 0.930 . S
C2835 Gd2782 2.805 . S
C2835 O2817 1.263 . S
C2835 O2818 1.252 . S
C2835 C2829 1.500 . S
C2836 H2798 0.930 . S
C2836 C2812 1.417 . S
C2836 C2837 1.329 . S
C2837 C2807 1.437 . S
C2837 H2808 0.929 . S
C2837 C2836 1.329 . S
H2838 C2811 0.931 . S
C2839 O2821 1.265 . S
C2839 O2822 1.242 . S
C2840 O2825 1.261 . S
C2840 O2826 1.252 . S
C2841 C2844 1.394 . S
C2841 C2846 1.370 . S
C2841 C2847 1.500 . S
C2842 C2845 1.383 . S
C2842 C2846 1.395 . S
C2843 C2844 1.396 . S
C2843 C2845 1.365 . S
C2843 H2852 0.929 . S
C2844 C2841 1.394 . S
C2844 C2843 1.396 . S
C2844 H2853 0.930 . S
C2845 C2842 1.383 . S
C2845 C2843 1.365 . S
C2845 H2854 0.931 . S
C2846 C2841 1.370 . S
C2846 C2842 1.395 . S
C2846 H2855 0.930 . S
C2847 Gd2783 2.805 . S
C2847 O2823 1.263 . S
C2847 O2824 1.252 . S
C2847 C2841 1.500 . S
H2848 C2831 0.929 . S
H2849 C2832 0.930 . S
H2850 C2833 0.931 . S
H2851 C2834 0.930 . S
H2852 C2843 0.929 . S
H2853 C2844 0.930 . S
H2854 C2845 0.931 . S
H2855 C2846 0.930 . S
C2856 C2858 1.422 1_655 S
C2856 C2860 1.415 1_655 S
C2856 N2862 1.369 . S
C2857 C2858 1.421 . S
C2857 C2859 1.417 . S
C2857 C2869 1.422 . S
C2858 C2856 1.422 1_455 S
C2858 C2857 1.421 . S
C2858 N2868 1.359 1_455 S
C2859 C2857 1.417 . S
C2859 C2861 1.329 . S
C2859 H2878 0.930 . S
C2860 C2856 1.415 1_455 S
C2860 C2861 1.437 . S
C2860 C2864 1.413 . S
C2861 C2859 1.329 . S
C2861 C2860 1.437 . S
C2861 H2883 0.929 . S
N2862 C2856 1.369 . S
N2862 C2863 1.338 . S
N2862 Gd2867 2.622 . S
C2863 N2862 1.338 . S
C2863 C2865 1.378 . S
C2863 H2875 0.929 . S
C2864 C2860 1.413 . S
C2864 C2865 1.348 1_455 S
C2864 H2880 0.931 . S
C2865 C2863 1.378 . S
C2865 C2864 1.348 1_655 S
C2865 H2881 0.930 . S
Gd2866 N2886 2.622 . S
Gd2866 N2893 2.570 . S
Gd2866 O2900 2.353 . S
Gd2866 O2901 2.468 . S
Gd2866 O2902 2.427 . S
Gd2866 O2904 2.388 . S
Gd2866 O2905 2.386 . S
Gd2866 O2909 2.307 . S
Gd2866 C2919 2.805 . S
Gd2867 N2862 2.622 . S
Gd2867 N2868 2.570 . S
Gd2867 O2899 2.386 . S
Gd2867 O2903 2.307 . S
Gd2867 O2906 2.353 . S
Gd2867 O2907 2.468 . S
Gd2867 O2908 2.427 . S
Gd2867 O2910 2.388 . S
Gd2867 C2931 2.805 . S
N2868 C2858 1.359 1_655 S
N2868 Gd2867 2.570 . S
N2868 C2870 1.343 . S
C2869 C2857 1.422 . S
C2869 C2871 1.321 . S
C2869 H2877 0.931 . S
C2870 N2868 1.343 . S
C2870 C2871 1.390 1_655 S
C2870 H2872 0.931 . S
C2871 C2869 1.321 . S
C2871 C2870 1.390 1_455 S
C2871 H2873 0.930 . S
H2872 C2870 0.931 . S
H2873 C2871 0.930 . S
H2874 C2897 0.931 . S
H2875 C2863 0.929 . S
H2876 C2898 0.930 . S
H2877 C2869 0.931 . S
H2878 C2859 0.930 . S
H2879 C2888 0.929 . S
H2880 C2864 0.931 . S
H2881 C2865 0.930 . S
H2882 C2920 0.930 . S
H2883 C2861 0.929 . S
H2884 C2889 0.931 . S
H2885 C2890 0.930 . S
N2886 Gd2866 2.622 . S
N2886 C2887 1.369 . S
N2886 C2888 1.338 . S
C2887 N2886 1.369 . S
C2887 C2891 1.415 . S
C2887 C2894 1.422 . S
C2888 H2879 0.929 . S
C2888 N2886 1.338 . S
C2888 C2890 1.378 . S
C2889 H2884 0.931 . S
C2889 C2890 1.348 . S
C2889 C2891 1.413 . S
C2890 H2885 0.930 . S
C2890 C2888 1.378 . S
C2890 C2889 1.348 . S
C2891 C2887 1.415 . S
C2891 C2889 1.413 . S
C2891 C2921 1.437 . S
H2892 C2921 0.929 1_565 S
N2893 Gd2866 2.570 . S
N2893 C2894 1.359 . S
N2893 C2897 1.343 . S
C2894 C2887 1.422 . S
C2894 N2893 1.359 . S
C2894 C2896 1.421 1_545 S
C2895 C2896 1.422 . S
C2895 C2898 1.321 . S
C2895 H2922 0.931 . S
C2896 C2894 1.421 1_565 S
C2896 C2895 1.422 . S
C2896 C2920 1.417 . S
C2897 H2874 0.931 . S
C2897 N2893 1.343 . S
C2897 C2898 1.390 1_545 S
C2898 H2876 0.930 . S
C2898 C2895 1.321 . S
C2898 C2897 1.390 1_565 S
O2899 Gd2867 2.386 . S
O2899 C2911 1.265 . S
O2900 Gd2866 2.353 . S
O2900 C2911 1.242 . S
O2901 Gd2866 2.468 . S
O2901 C2919 1.263 . S
O2902 Gd2866 2.427 . S
O2902 C2919 1.252 . S
O2903 Gd2867 2.307 . S
O2903 C2912 1.261 . S
O2904 Gd2866 2.388 . S
O2904 C2912 1.252 . S
O2905 Gd2866 2.386 . S
O2905 C2923 1.265 . S
O2906 Gd2867 2.353 . S
O2906 C2923 1.242 . S
O2907 Gd2867 2.468 . S
O2907 C2931 1.263 . S
O2908 Gd2867 2.427 . S
O2908 C2931 1.252 . S
O2909 Gd2866 2.307 . S
O2909 C2924 1.261 . S
O2910 Gd2867 2.388 . S
O2910 C2924 1.252 . S
C2911 O2899 1.265 . S
C2911 O2900 1.242 . S
C2912 O2903 1.261 . S
C2912 O2904 1.252 . S
C2913 C2916 1.394 . S
C2913 C2918 1.370 . S
C2913 C2919 1.500 1_565 S
C2914 C2917 1.383 . S
C2914 C2918 1.395 . S
C2915 C2916 1.396 . S
C2915 C2917 1.365 . S
C2915 H2932 0.929 . S
C2916 C2913 1.394 . S
C2916 C2915 1.396 . S
C2916 H2933 0.930 . S
C2917 C2914 1.383 . S
C2917 C2915 1.365 . S
C2917 H2934 0.931 . S
C2918 C2913 1.370 . S
C2918 C2914 1.395 . S
C2918 H2935 0.930 . S
C2919 Gd2866 2.805 . S
C2919 O2901 1.263 . S
C2919 O2902 1.252 . S
C2919 C2913 1.500 1_545 S
C2920 H2882 0.930 . S
C2920 C2896 1.417 . S
C2920 C2921 1.329 1_565 S
C2921 C2891 1.437 . S
C2921 H2892 0.929 1_545 S
C2921 C2920 1.329 1_545 S
H2922 C2895 0.931 . S
C2923 O2905 1.265 . S
C2923 O2906 1.242 . S
C2924 O2909 1.261 . S
C2924 O2910 1.252 . S
C2925 C2928 1.394 . S
C2925 C2930 1.370 . S
C2925 C2931 1.500 . S
C2926 C2929 1.383 . S
C2926 C2930 1.395 . S
C2927 C2928 1.396 . S
C2927 C2929 1.365 . S
C2927 H2936 0.929 . S
C2928 C2925 1.394 . S
C2928 C2927 1.396 . S
C2928 H2937 0.930 . S
C2929 C2926 1.383 . S
C2929 C2927 1.365 . S
C2929 H2938 0.931 . S
C2930 C2925 1.370 . S
C2930 C2926 1.395 . S
C2930 H2939 0.930 . S
C2931 Gd2867 2.805 . S
C2931 O2907 1.263 . S
C2931 O2908 1.252 . S
C2931 C2925 1.500 . S
H2932 C2915 0.929 . S
H2933 C2916 0.930 . S
H2934 C2917 0.931 . S
H2935 C2918 0.930 . S
H2936 C2927 0.929 . S
H2937 C2928 0.930 . S
H2938 C2929 0.931 . S
H2939 C2930 0.930 . S
C2940 C2942 1.422 . S
C2940 C2944 1.415 . S
C2940 N2946 1.369 . S
C2941 C2942 1.421 . S
C2941 C2943 1.417 . S
C2941 C2953 1.422 . S
C2942 C2940 1.422 . S
C2942 C2941 1.421 . S
C2942 N2952 1.359 . S
C2943 C2941 1.417 . S
C2943 C2945 1.329 . S
C2943 H2962 0.930 . S
C2944 C2940 1.415 . S
C2944 C2945 1.437 . S
C2944 C2948 1.413 . S
C2945 C2943 1.329 . S
C2945 C2944 1.437 . S
C2945 H2967 0.929 . S
N2946 C2940 1.369 . S
N2946 C2947 1.338 . S
N2946 Gd2951 2.622 . S
C2947 N2946 1.338 . S
C2947 C2949 1.378 . S
C2947 H2959 0.929 . S
C2948 C2944 1.413 . S
C2948 C2949 1.348 . S
C2948 H2964 0.931 . S
C2949 C2947 1.378 . S
C2949 C2948 1.348 . S
C2949 H2965 0.930 . S
Gd2950 N2970 2.622 . S
Gd2950 N2977 2.570 1_655 S
Gd2950 O2984 2.353 . S
Gd2950 O2985 2.468 1_655 S
Gd2950 O2986 2.427 1_655 S
Gd2950 O2988 2.388 . S
Gd2950 O2989 2.386 . S
Gd2950 O2993 2.307 . S
Gd2950 C3003 2.805 1_655 S
Gd2951 N2946 2.622 . S
Gd2951 N2952 2.570 . S
Gd2951 O2983 2.386 . S
Gd2951 O2987 2.307 . S
Gd2951 O2990 2.353 . S
Gd2951 O2991 2.468 . S
Gd2951 O2992 2.427 . S
Gd2951 O2994 2.388 . S
Gd2951 C3015 2.805 . S
N2952 C2942 1.359 . S
N2952 Gd2951 2.570 . S
N2952 C2954 1.343 . S
C2953 C2941 1.422 . S
C2953 C2955 1.321 . S
C2953 H2961 0.931 . S
C2954 N2952 1.343 . S
C2954 C2955 1.390 . S
C2954 H2956 0.931 . S
C2955 C2953 1.321 . S
C2955 C2954 1.390 . S
C2955 H2957 0.930 . S
H2956 C2954 0.931 . S
H2957 C2955 0.930 . S
H2958 C2981 0.931 . S
H2959 C2947 0.929 . S
H2960 C2982 0.930 . S
H2961 C2953 0.931 . S
H2962 C2943 0.930 . S
H2963 C2972 0.929 . S
H2964 C2948 0.931 . S
H2965 C2949 0.930 . S
H2966 C3004 0.930 . S
H2967 C2945 0.929 . S
H2968 C2973 0.931 . S
H2969 C2974 0.930 . S
N2970 Gd2950 2.622 . S
N2970 C2971 1.369 1_655 S
N2970 C2972 1.338 . S
C2971 N2970 1.369 1_455 S
C2971 C2975 1.415 . S
C2971 C2978 1.422 . S
C2972 H2963 0.929 . S
C2972 N2970 1.338 . S
C2972 C2974 1.378 . S
C2973 H2968 0.931 . S
C2973 C2974 1.348 1_455 S
C2973 C2975 1.413 . S
C2974 H2969 0.930 . S
C2974 C2972 1.378 . S
C2974 C2973 1.348 1_655 S
C2975 C2971 1.415 . S
C2975 C2973 1.413 . S
C2975 C3005 1.437 . S
H2976 C3005 0.929 . S
N2977 Gd2950 2.570 1_455 S
N2977 C2978 1.359 . S
N2977 C2981 1.343 . S
C2978 C2971 1.422 . S
C2978 N2977 1.359 . S
C2978 C2980 1.421 . S
C2979 C2980 1.422 . S
C2979 C2982 1.321 . S
C2979 H3006 0.931 . S
C2980 C2978 1.421 . S
C2980 C2979 1.422 . S
C2980 C3004 1.417 . S
C2981 H2958 0.931 . S
C2981 N2977 1.343 . S
C2981 C2982 1.390 . S
C2982 H2960 0.930 . S
C2982 C2979 1.321 . S
C2982 C2981 1.390 . S
O2983 Gd2951 2.386 . S
O2983 C2995 1.265 . S
O2984 Gd2950 2.353 . S
O2984 C2995 1.242 . S
O2985 Gd2950 2.468 1_455 S
O2985 C3003 1.263 . S
O2986 Gd2950 2.427 1_455 S
O2986 C3003 1.252 . S
O2987 Gd2951 2.307 . S
O2987 C2996 1.261 . S
O2988 Gd2950 2.388 . S
O2988 C2996 1.252 . S
O2989 Gd2950 2.386 . S
O2989 C3007 1.265 . S
O2990 Gd2951 2.353 . S
O2990 C3007 1.242 . S
O2991 Gd2951 2.468 . S
O2991 C3015 1.263 . S
O2992 Gd2951 2.427 . S
O2992 C3015 1.252 . S
O2993 Gd2950 2.307 . S
O2993 C3008 1.261 . S
O2994 Gd2951 2.388 . S
O2994 C3008 1.252 . S
C2995 O2983 1.265 . S
C2995 O2984 1.242 . S
C2996 O2987 1.261 . S
C2996 O2988 1.252 . S
C2997 C3000 1.394 . S
C2997 C3002 1.370 . S
C2997 C3003 1.500 . S
C2998 C3001 1.383 . S
C2998 C3002 1.395 . S
C2999 C3000 1.396 . S
C2999 C3001 1.365 . S
C2999 H3016 0.929 . S
C3000 C2997 1.394 . S
C3000 C2999 1.396 . S
C3000 H3017 0.930 . S
C3001 C2998 1.383 . S
C3001 C2999 1.365 . S
C3001 H3018 0.931 1_565 S
C3002 C2997 1.370 . S
C3002 C2998 1.395 . S
C3002 H3019 0.930 . S
C3003 Gd2950 2.805 1_455 S
C3003 O2985 1.263 . S
C3003 O2986 1.252 . S
C3003 C2997 1.500 . S
C3004 H2966 0.930 . S
C3004 C2980 1.417 . S
C3004 C3005 1.329 . S
C3005 C2975 1.437 . S
C3005 H2976 0.929 . S
C3005 C3004 1.329 . S
H3006 C2979 0.931 . S
C3007 O2989 1.265 . S
C3007 O2990 1.242 . S
C3008 O2993 1.261 . S
C3008 O2994 1.252 . S
C3009 C3012 1.394 . S
C3009 C3014 1.370 . S
C3009 C3015 1.500 . S
C3010 C3013 1.383 . S
C3010 C3014 1.395 . S
C3011 C3012 1.396 . S
C3011 C3013 1.365 . S
C3011 H3020 0.929 . S
C3012 C3009 1.394 . S
C3012 C3011 1.396 . S
C3012 H3021 0.930 . S
C3013 C3010 1.383 . S
C3013 C3011 1.365 . S
C3013 H3022 0.931 . S
C3014 C3009 1.370 . S
C3014 C3010 1.395 . S
C3014 H3023 0.930 . S
C3015 Gd2951 2.805 . S
C3015 O2991 1.263 . S
C3015 O2992 1.252 . S
C3015 C3009 1.500 . S
H3016 C2999 0.929 . S
H3017 C3000 0.930 . S
H3018 C3001 0.931 1_545 S
H3019 C3002 0.930 . S
H3020 C3011 0.929 . S
H3021 C3012 0.930 . S
H3022 C3013 0.931 . S
H3023 C3014 0.930 . S
C3024 C3025 1.369 . S
C3024 C3026 1.419 . S
C3024 H3028 0.930 . S
C3025 C3024 1.369 . S
C3025 C3034 1.429 . S
C3026 C3024 1.419 . S
C3026 C3027 1.363 . S
C3026 H3029 0.929 . S
C3027 C3026 1.363 . S
C3027 C3033 1.428 . S
H3028 C3024 0.930 . S
H3029 C3026 0.929 . S
S3030 N3031 1.613 . S
S3030 N3032 1.610 . S
N3031 S3030 1.613 . S
N3031 C3034 1.350 . S
N3032 S3030 1.610 . S
N3032 C3033 1.351 . S
C3033 C3027 1.428 . S
C3033 N3032 1.351 . S
C3033 C3034 1.434 . S
C3034 C3025 1.429 . S
C3034 N3031 1.350 . S
C3034 C3033 1.434 . S
C3035 C3036 1.369 . S
C3035 C3037 1.419 1_655 S
C3035 H3039 0.930 . S
C3036 C3035 1.369 . S
C3036 C3045 1.429 . S
C3037 C3035 1.419 1_455 S
C3037 C3038 1.355 1_455 S
C3037 H3040 0.938 . S
C3038 C3037 1.355 1_655 S
C3038 C3044 1.428 . S
H3039 C3035 0.930 . S
H3040 C3037 0.938 . S
S3041 N3042 1.613 . S
S3041 N3043 1.610 . S
N3042 S3041 1.613 . S
N3042 C3045 1.350 . S
N3043 S3041 1.610 . S
N3043 C3044 1.351 . S
C3044 C3038 1.428 . S
C3044 N3043 1.351 . S
C3044 C3045 1.434 . S
C3045 C3036 1.429 . S
C3045 N3042 1.350 . S
C3045 C3044 1.434 . S
C3046 C3047 1.369 . S
C3046 C3048 1.419 . S
C3046 H3050 0.930 . S
C3047 C3046 1.369 . S
C3047 C3056 1.429 . S
C3048 C3046 1.419 . S
C3048 C3049 1.363 . S
C3048 H3051 0.929 . S
C3049 C3048 1.363 . S
C3049 C3055 1.428 . S
H3050 C3046 0.930 . S
H3051 C3048 0.929 . S
S3052 N3053 1.613 . S
S3052 N3054 1.610 . S
N3053 S3052 1.613 . S
N3053 C3056 1.350 . S
N3054 S3052 1.610 . S
N3054 C3055 1.351 . S
C3055 C3049 1.428 . S
C3055 N3054 1.351 . S
C3055 C3056 1.434 . S
C3056 C3047 1.429 . S
C3056 N3053 1.350 . S
C3056 C3055 1.434 . S
C3057 C3058 1.369 . S
C3057 C3059 1.419 . S
C3057 H3061 0.930 . S
C3058 C3057 1.369 . S
C3058 C3067 1.429 . S
C3059 C3057 1.419 . S
C3059 C3060 1.363 . S
C3059 H3062 0.929 . S
C3060 C3059 1.363 . S
C3060 C3066 1.428 . S
H3061 C3057 0.930 . S
H3062 C3059 0.929 . S
S3063 N3064 1.613 . S
S3063 N3065 1.610 . S
N3064 S3063 1.613 . S
N3064 C3067 1.350 . S
N3065 S3063 1.610 . S
N3065 C3066 1.351 . S
C3066 C3060 1.428 . S
C3066 N3065 1.351 . S
C3066 C3067 1.434 . S
C3067 C3058 1.429 . S
C3067 N3064 1.350 . S
C3067 C3066 1.434 . S
C3068 C3069 1.369 . S
C3068 C3070 1.419 . S
C3068 H3072 0.930 . S
C3069 C3068 1.369 . S
C3069 C3078 1.429 . S
C3070 C3068 1.419 . S
C3070 C3071 1.363 . S
C3070 H3073 0.929 . S
C3071 C3070 1.363 . S
C3071 C3077 1.428 . S
H3072 C3068 0.930 . S
H3073 C3070 0.929 . S
S3074 N3075 1.613 . S
S3074 N3076 1.610 . S
N3075 S3074 1.613 . S
N3075 C3078 1.350 . S
N3076 S3074 1.610 . S
N3076 C3077 1.351 . S
C3077 C3071 1.428 . S
C3077 N3076 1.351 . S
C3077 C3078 1.434 . S
C3078 C3069 1.429 . S
C3078 N3075 1.350 . S
C3078 C3077 1.434 . S
C3079 C3080 1.369 . S
C3079 C3081 1.419 . S
C3079 H3083 0.930 . S
C3080 C3079 1.369 . S
C3080 C3089 1.429 . S
C3081 C3079 1.419 . S
C3081 C3082 1.363 . S
C3081 H3084 0.929 . S
C3082 C3081 1.363 . S
C3082 C3088 1.428 . S
H3083 C3079 0.930 . S
H3084 C3081 0.929 . S
S3085 N3086 1.613 . S
S3085 N3087 1.610 1_565 S
N3086 S3085 1.613 . S
N3086 C3089 1.350 . S
N3087 S3085 1.610 1_545 S
N3087 C3088 1.351 1_545 S
C3088 C3082 1.428 . S
C3088 N3087 1.351 1_565 S
C3088 C3089 1.434 . S
C3089 C3080 1.429 . S
C3089 N3086 1.350 . S
C3089 C3088 1.434 . S
C3090 C3091 1.369 . S
C3090 C3092 1.419 . S
C3090 H3094 0.930 . S
C3091 C3090 1.369 . S
C3091 C3100 1.429 . S
C3092 C3090 1.419 . S
C3092 C3093 1.363 . S
C3092 H3095 0.929 . S
C3093 C3092 1.363 . S
C3093 C3099 1.428 . S
H3094 C3090 0.930 . S
H3095 C3092 0.929 . S
S3096 N3097 1.613 . S
S3096 N3098 1.610 . S
N3097 S3096 1.613 . S
N3097 C3100 1.350 . S
N3098 S3096 1.610 . S
N3098 C3099 1.351 . S
C3099 C3093 1.428 . S
C3099 N3098 1.351 . S
C3099 C3100 1.434 . S
C3100 C3091 1.429 . S
C3100 N3097 1.350 . S
C3100 C3099 1.434 . S
C3101 C3102 1.369 . S
C3101 C3103 1.419 . S
C3101 H3105 0.930 . S
C3102 C3101 1.369 . S
C3102 C3111 1.429 . S
C3103 C3101 1.419 . S
C3103 C3104 1.363 . S
C3103 H3106 0.929 . S
C3104 C3103 1.363 . S
C3104 C3110 1.428 . S
H3105 C3101 0.930 . S
H3106 C3103 0.929 . S
S3107 N3108 1.613 . S
S3107 N3109 1.610 . S
N3108 S3107 1.613 . S
N3108 C3111 1.350 . S
N3109 S3107 1.610 . S
N3109 C3110 1.351 . S
C3110 C3104 1.428 . S
C3110 N3109 1.351 . S
C3110 C3111 1.434 . S
C3111 C3102 1.429 . S
C3111 N3108 1.350 . S
C3111 C3110 1.434 . S
C3112 C3113 1.369 . S
C3112 C3114 1.419 . S
C3112 H3116 0.930 . S
C3113 C3112 1.369 . S
C3113 C3122 1.429 . S
C3114 C3112 1.419 . S
C3114 C3115 1.363 . S
C3114 H3117 0.929 . S
C3115 C3114 1.363 . S
C3115 C3121 1.428 . S
H3116 C3112 0.930 . S
H3117 C3114 0.929 . S
S3118 N3119 1.613 . S
S3118 N3120 1.610 . S
N3119 S3118 1.613 . S
N3119 C3122 1.350 . S
N3120 S3118 1.610 . S
N3120 C3121 1.351 . S
C3121 C3115 1.428 . S
C3121 N3120 1.351 . S
C3121 C3122 1.434 . S
C3122 C3113 1.429 . S
C3122 N3119 1.350 . S
C3122 C3121 1.434 . S
C3123 C3124 1.369 . S
C3123 C3125 1.419 . S
C3123 H3127 0.930 . S
C3124 C3123 1.369 . S
C3124 C3133 1.429 . S
C3125 C3123 1.419 . S
C3125 C3126 1.363 . S
C3125 H3128 0.929 . S
C3126 C3125 1.363 . S
C3126 C3132 1.428 . S
H3127 C3123 0.930 . S
H3128 C3125 0.929 . S
S3129 N3130 1.613 . S
S3129 N3131 1.610 . S
N3130 S3129 1.613 . S
N3130 C3133 1.350 . S
N3131 S3129 1.610 . S
N3131 C3132 1.351 . S
C3132 C3126 1.428 . S
C3132 N3131 1.351 . S
C3132 C3133 1.434 . S
C3133 C3124 1.429 . S
C3133 N3130 1.350 . S
C3133 C3132 1.434 . S
C3134 C3135 1.369 . S
C3134 C3136 1.419 . S
C3134 H3138 0.930 . S
C3135 C3134 1.369 . S
C3135 C3144 1.429 . S
C3136 C3134 1.419 . S
C3136 C3137 1.363 . S
C3136 H3139 0.929 . S
C3137 C3136 1.363 . S
C3137 C3143 1.428 . S
H3138 C3134 0.930 . S
H3139 C3136 0.929 . S
S3140 N3141 1.613 . S
S3140 N3142 1.610 . S
N3141 S3140 1.613 . S
N3141 C3144 1.350 . S
N3142 S3140 1.610 . S
N3142 C3143 1.351 . S
C3143 C3137 1.428 . S
C3143 N3142 1.351 . S
C3143 C3144 1.434 . S
C3144 C3135 1.429 . S
C3144 N3141 1.350 . S
C3144 C3143 1.434 . S
C3145 C3146 1.369 . S
C3145 C3147 1.419 . S
C3145 H3149 0.930 . S
C3146 C3145 1.369 . S
C3146 C3155 1.429 . S
C3147 C3145 1.419 . S
C3147 C3148 1.363 . S
C3147 H3150 0.929 . S
C3148 C3147 1.363 . S
C3148 C3154 1.428 . S
H3149 C3145 0.930 . S
H3150 C3147 0.929 . S
S3151 N3152 1.613 . S
S3151 N3153 1.610 . S
N3152 S3151 1.613 . S
N3152 C3155 1.350 . S
N3153 S3151 1.610 . S
N3153 C3154 1.351 . S
C3154 C3148 1.428 . S
C3154 N3153 1.351 . S
C3154 C3155 1.434 . S
C3155 C3146 1.429 . S
C3155 N3152 1.350 . S
C3155 C3154 1.434 . S
C3156 C3157 1.369 . S
C3156 C3158 1.419 . S
C3156 H3160 0.930 . S
C3157 C3156 1.369 . S
C3157 C3166 1.429 . S
C3158 C3156 1.419 . S
C3158 C3159 1.363 . S
C3158 H3161 0.929 . S
C3159 C3158 1.363 . S
C3159 C3165 1.428 . S
H3160 C3156 0.930 . S
H3161 C3158 0.929 . S
S3162 N3163 1.613 . S
S3162 N3164 1.610 . S
N3163 S3162 1.613 . S
N3163 C3166 1.350 . S
N3164 S3162 1.610 . S
N3164 C3165 1.351 . S
C3165 C3159 1.428 . S
C3165 N3164 1.351 . S
C3165 C3166 1.434 . S
C3166 C3157 1.429 . S
C3166 N3163 1.350 . S
C3166 C3165 1.434 . S
C3167 C3168 1.369 1_545 S
C3167 C3169 1.419 . S
C3167 H3171 0.930 . S
C3168 C3167 1.369 1_565 S
C3168 C3177 1.429 . S
C3169 C3167 1.419 . S
C3169 C3170 1.363 . S
C3169 H3172 0.929 . S
C3170 C3169 1.363 . S
C3170 C3176 1.428 . S
H3171 C3167 0.930 . S
H3172 C3169 0.929 . S
S3173 N3174 1.613 . S
S3173 N3175 1.610 1_565 S
N3174 S3173 1.613 . S
N3174 C3177 1.350 . S
N3175 S3173 1.610 1_545 S
N3175 C3176 1.351 . S
C3176 C3170 1.428 . S
C3176 N3175 1.351 . S
C3176 C3177 1.434 1_545 S
C3177 C3168 1.429 . S
C3177 N3174 1.350 . S
C3177 C3176 1.434 1_565 S
C3178 C3179 1.369 1_455 S
C3178 C3180 1.419 . S
C3178 H3182 0.930 . S
C3179 C3178 1.369 1_655 S
C3179 C3188 1.429 . S
C3180 C3178 1.419 . S
C3180 C3181 1.363 . S
C3180 H3183 0.929 . S
C3181 C3180 1.363 . S
C3181 C3187 1.428 . S
H3182 C3178 0.930 . S
H3183 C3180 0.929 . S
S3184 N3185 1.613 . S
S3184 N3186 1.610 1_655 S
N3185 S3184 1.613 . S
N3185 C3188 1.350 . S
N3186 S3184 1.610 1_455 S
N3186 C3187 1.351 . S
C3187 C3181 1.428 . S
C3187 N3186 1.351 . S
C3187 C3188 1.434 1_455 S
C3188 C3179 1.429 . S
C3188 N3185 1.350 . S
C3188 C3187 1.434 1_655 S
C3189 C3190 1.369 . S
C3189 C3191 1.419 . S
C3189 H3193 0.930 . S
C3190 C3189 1.369 . S
C3190 C3199 1.429 . S
C3191 C3189 1.419 . S
C3191 C3192 1.363 . S
C3191 H3194 0.929 . S
C3192 C3191 1.363 . S
C3192 C3198 1.428 . S
H3193 C3189 0.930 . S
H3194 C3191 0.929 . S
S3195 N3196 1.613 . S
S3195 N3197 1.610 . S
N3196 S3195 1.613 . S
N3196 C3199 1.350 . S
N3197 S3195 1.610 . S
N3197 C3198 1.351 . S
C3198 C3192 1.428 . S
C3198 N3197 1.351 . S
C3198 C3199 1.434 . S
C3199 C3190 1.429 . S
C3199 N3196 1.350 . S
C3199 C3198 1.434 . S
C3200 C3201 1.369 1_545 S
C3200 C3202 1.419 . S
C3200 H3204 0.930 . S
C3201 C3200 1.369 1_565 S
C3201 C3210 1.429 . S
C3202 C3200 1.419 . S
C3202 C3203 1.363 . S
C3202 H3205 0.929 . S
C3203 C3202 1.363 . S
C3203 C3209 1.428 . S
H3204 C3200 0.930 . S
H3205 C3202 0.929 . S
S3206 N3207 1.613 . S
S3206 N3208 1.610 1_565 S
N3207 S3206 1.613 . S
N3207 C3210 1.350 . S
N3208 S3206 1.610 1_545 S
N3208 C3209 1.351 . S
C3209 C3203 1.428 . S
C3209 N3208 1.351 . S
C3209 C3210 1.434 1_545 S
C3210 C3201 1.429 . S
C3210 N3207 1.350 . S
C3210 C3209 1.434 1_565 S
C3211 C3212 1.369 1_455 S
C3211 C3213 1.419 . S
C3211 H3215 0.930 . S
C3212 C3211 1.369 1_655 S
C3212 C3221 1.429 1_655 S
C3213 C3211 1.419 . S
C3213 C3214 1.363 . S
C3213 H3216 0.929 . S
C3214 C3213 1.363 . S
C3214 C3220 1.428 . S
H3215 C3211 0.930 . S
H3216 C3213 0.929 . S
S3217 N3218 1.613 1_455 S
S3217 N3219 1.610 . S
N3218 S3217 1.613 1_655 S
N3218 C3221 1.350 1_655 S
N3219 S3217 1.610 . S
N3219 C3220 1.351 . S
C3220 C3214 1.428 . S
C3220 N3219 1.351 . S
C3220 C3221 1.434 . S
C3221 C3212 1.429 1_455 S
C3221 N3218 1.350 1_455 S
C3221 C3220 1.434 . S
C3222 C3223 1.369 . S
C3222 C3224 1.419 1_554 S
C3222 H3226 0.930 . S
C3223 C3222 1.369 . S
C3223 C3232 1.429 . S
C3224 C3222 1.419 1_556 S
C3224 C3225 1.363 . S
C3224 H3227 0.929 . S
C3225 C3224 1.363 . S
C3225 C3231 1.428 . S
H3226 C3222 0.930 . S
H3227 C3224 0.929 . S
S3228 N3229 1.613 1_556 S
S3228 N3230 1.610 1_565 S
N3229 S3228 1.613 1_554 S
N3229 C3232 1.350 1_565 S
N3230 S3228 1.610 1_545 S
N3230 C3231 1.351 . S
C3231 C3225 1.428 . S
C3231 N3230 1.351 . S
C3231 C3232 1.434 1_556 S
C3232 C3223 1.429 . S
C3232 N3229 1.350 1_545 S
C3232 C3231 1.434 1_554 S
C3233 C3234 1.369 . S
C3233 C3235 1.419 1_556 S
C3233 H3237 0.930 . S
C3234 C3233 1.369 . S
C3234 C3243 1.429 . S
C3235 C3233 1.419 1_554 S
C3235 C3236 1.363 . S
C3235 H3238 0.929 . S
C3236 C3235 1.363 . S
C3236 C3242 1.428 . S
H3237 C3233 0.930 . S
H3238 C3235 0.929 . S
S3239 N3240 1.613 . S
S3239 N3241 1.610 1_556 S
N3240 S3239 1.613 . S
N3240 C3243 1.350 . S
N3241 S3239 1.610 1_554 S
N3241 C3242 1.351 . S
C3242 C3236 1.428 . S
C3242 N3241 1.351 . S
C3242 C3243 1.434 1_554 S
C3243 C3234 1.429 . S
C3243 N3240 1.350 . S
C3243 C3242 1.434 1_556 S
C3244 C3245 1.369 . S
C3244 C3246 1.419 1_554 S
C3244 H3248 0.930 . S
C3245 C3244 1.369 . S
C3245 C3254 1.429 . S
C3246 C3244 1.419 1_556 S
C3246 C3247 1.363 . S
C3246 H3249 0.929 . S
C3247 C3246 1.363 . S
C3247 C3253 1.428 . S
H3248 C3244 0.930 . S
H3249 C3246 0.929 . S
S3250 N3251 1.613 . S
S3250 N3252 1.610 1_554 S
N3251 S3250 1.613 . S
N3251 C3254 1.350 . S
N3252 S3250 1.610 1_556 S
N3252 C3253 1.351 . S
C3253 C3247 1.428 . S
C3253 N3252 1.351 . S
C3253 C3254 1.434 1_556 S
C3254 C3245 1.429 . S
C3254 N3251 1.350 . S
C3254 C3253 1.434 1_554 S
C3255 C3256 1.369 . S
C3255 C3257 1.419 . S
C3255 H3259 0.930 . S
C3256 C3255 1.369 . S
C3256 C3265 1.429 1_455 S
C3257 C3255 1.419 . S
C3257 C3258 1.363 . S
C3257 H3260 0.929 . S
C3258 C3257 1.363 . S
C3258 C3264 1.428 1_455 S
H3259 C3255 0.930 . S
H3260 C3257 0.929 . S
S3261 N3262 1.613 . S
S3261 N3263 1.610 . S
N3262 S3261 1.613 . S
N3262 C3265 1.350 . S
N3263 S3261 1.610 . S
N3263 C3264 1.351 . S
C3264 C3258 1.428 1_655 S
C3264 N3263 1.351 . S
C3264 C3265 1.434 . S
C3265 C3256 1.429 1_655 S
C3265 N3262 1.350 . S
C3265 C3264 1.434 . S
C3266 C3267 1.369 . S
C3266 C3268 1.419 . S
C3266 H3270 0.930 . S
C3267 C3266 1.369 . S
C3267 C3276 1.429 . S
C3268 C3266 1.419 . S
C3268 C3269 1.363 . S
C3268 H3271 0.929 . S
C3269 C3268 1.363 . S
C3269 C3275 1.428 . S
H3270 C3266 0.930 . S
H3271 C3268 0.929 . S
S3272 N3273 1.613 . S
S3272 N3274 1.610 . S
N3273 S3272 1.613 . S
N3273 C3276 1.350 . S
N3274 S3272 1.610 . S
N3274 C3275 1.351 . S
C3275 C3269 1.428 . S
C3275 N3274 1.351 . S
C3275 C3276 1.434 . S
C3276 C3267 1.429 . S
C3276 N3273 1.350 . S
C3276 C3275 1.434 . S
C3277 C3278 1.369 . S
C3277 C3279 1.419 . S
C3277 H3281 0.930 . S
C3278 C3277 1.369 . S
C3278 C3287 1.429 1_545 S
C3279 C3277 1.419 . S
C3279 C3280 1.363 . S
C3279 H3282 0.929 . S
C3280 C3279 1.363 . S
C3280 C3286 1.426 1_545 S
H3281 C3277 0.930 . S
H3282 C3279 0.929 . S
S3283 N3284 1.613 . S
S3283 N3285 1.610 . S
N3284 S3283 1.613 . S
N3284 C3287 1.350 . S
N3285 S3283 1.610 . S
N3285 C3286 1.353 . S
C3286 C3280 1.426 1_565 S
C3286 N3285 1.353 . S
C3286 C3287 1.434 . S
C3287 C3278 1.429 1_565 S
C3287 N3284 1.350 . S
C3287 C3286 1.434 . S
C3288 C3289 1.369 . S
C3288 C3290 1.419 . S
C3288 H3292 0.930 . S
C3289 C3288 1.369 . S
C3289 C3298 1.429 . S
C3290 C3288 1.419 . S
C3290 C3291 1.363 . S
C3290 H3293 0.929 . S
C3291 C3290 1.363 . S
C3291 C3297 1.428 . S
H3292 C3288 0.930 . S
H3293 C3290 0.929 . S
S3294 N3295 1.613 . S
S3294 N3296 1.610 . S
N3295 S3294 1.613 . S
N3295 C3298 1.350 . S
N3296 S3294 1.610 . S
N3296 C3297 1.351 . S
C3297 C3291 1.428 . S
C3297 N3296 1.351 . S
C3297 C3298 1.434 . S
C3298 C3289 1.429 . S
C3298 N3295 1.350 . S
C3298 C3297 1.434 . S
C3299 C3300 1.369 . S
C3299 C3301 1.419 . S
C3299 H3303 0.930 . S
C3300 C3299 1.369 . S
C3300 C3309 1.429 . S
C3301 C3299 1.419 . S
C3301 C3302 1.363 . S
C3301 H3304 0.929 . S
C3302 C3301 1.363 . S
C3302 C3308 1.428 . S
H3303 C3299 0.930 . S
H3304 C3301 0.929 . S
S3305 N3306 1.613 . S
S3305 N3307 1.610 . S
N3306 S3305 1.613 . S
N3306 C3309 1.350 . S
N3307 S3305 1.610 . S
N3307 C3308 1.351 . S
C3308 C3302 1.428 . S
C3308 N3307 1.351 . S
C3308 C3309 1.434 . S
C3309 C3300 1.429 . S
C3309 N3306 1.350 . S
C3309 C3308 1.434 . S
C3310 C3311 1.369 . S
C3310 C3312 1.419 . S
C3310 H3314 0.930 . S
C3311 C3310 1.369 . S
C3311 C3320 1.429 . S
C3312 C3310 1.419 . S
C3312 C3313 1.363 . S
C3312 H3315 0.929 . S
C3313 C3312 1.363 . S
C3313 C3319 1.428 . S
H3314 C3310 0.930 . S
H3315 C3312 0.929 . S
S3316 N3317 1.613 . S
S3316 N3318 1.610 . S
N3317 S3316 1.613 . S
N3317 C3320 1.350 . S
N3318 S3316 1.610 . S
N3318 C3319 1.351 . S
C3319 C3313 1.428 . S
C3319 N3318 1.351 . S
C3319 C3320 1.434 . S
C3320 C3311 1.429 . S
C3320 N3317 1.350 . S
C3320 C3319 1.434 . S
C3321 C3322 1.369 . S
C3321 C3323 1.419 . S
C3321 H3325 0.930 . S
C3322 C3321 1.369 . S
C3322 C3331 1.429 . S
C3323 C3321 1.419 . S
C3323 C3324 1.363 . S
C3323 H3326 0.929 . S
C3324 C3323 1.363 . S
C3324 C3330 1.428 . S
H3325 C3321 0.930 . S
H3326 C3323 0.929 . S
S3327 N3328 1.613 . S
S3327 N3329 1.610 . S
N3328 S3327 1.613 . S
N3328 C3331 1.350 . S
N3329 S3327 1.610 . S
N3329 C3330 1.351 . S
C3330 C3324 1.428 . S
C3330 N3329 1.351 . S
C3330 C3331 1.434 . S
C3331 C3322 1.429 . S
C3331 N3328 1.350 . S
C3331 C3330 1.434 . S
C3332 C3333 1.369 . S
C3332 C3334 1.419 . S
C3332 H3336 0.930 . S
C3333 C3332 1.369 . S
C3333 C3342 1.429 . S
C3334 C3332 1.419 . S
C3334 C3335 1.363 . S
C3334 H3337 0.929 . S
C3335 C3334 1.363 . S
C3335 C3341 1.428 . S
H3336 C3332 0.930 . S
H3337 C3334 0.929 . S
S3338 N3339 1.613 . S
S3338 N3340 1.610 . S
N3339 S3338 1.613 . S
N3339 C3342 1.350 . S
N3340 S3338 1.610 . S
N3340 C3341 1.351 . S
C3341 C3335 1.428 . S
C3341 N3340 1.351 . S
C3341 C3342 1.434 . S
C3342 C3333 1.429 . S
C3342 N3339 1.350 . S
C3342 C3341 1.434 . S
C3343 C3344 1.369 . S
C3343 C3345 1.419 . S
C3343 H3347 0.930 . S
C3344 C3343 1.369 . S
C3344 C3353 1.429 . S
C3345 C3343 1.419 . S
C3345 C3346 1.363 . S
C3345 H3348 0.929 . S
C3346 C3345 1.363 . S
C3346 C3352 1.428 . S
H3347 C3343 0.930 . S
H3348 C3345 0.929 . S
S3349 N3350 1.613 . S
S3349 N3351 1.610 . S
N3350 S3349 1.613 . S
N3350 C3353 1.350 . S
N3351 S3349 1.610 . S
N3351 C3352 1.351 . S
C3352 C3346 1.428 . S
C3352 N3351 1.351 . S
C3352 C3353 1.434 . S
C3353 C3344 1.429 . S
C3353 N3350 1.350 . S
C3353 C3352 1.434 . S
C3354 C3355 1.369 . S
C3354 C3356 1.419 . S
C3354 H3358 0.930 . S
C3355 C3354 1.369 . S
C3355 C3364 1.429 . S
C3356 C3354 1.419 . S
C3356 C3357 1.363 . S
C3356 H3359 0.929 . S
C3357 C3356 1.363 . S
C3357 C3363 1.428 . S
H3358 C3354 0.930 . S
H3359 C3356 0.929 . S
S3360 N3361 1.613 . S
S3360 N3362 1.610 . S
N3361 S3360 1.613 . S
N3361 C3364 1.350 . S
N3362 S3360 1.610 . S
N3362 C3363 1.351 . S
C3363 C3357 1.428 . S
C3363 N3362 1.351 . S
C3363 C3364 1.434 . S
C3364 C3355 1.429 . S
C3364 N3361 1.350 . S
C3364 C3363 1.434 . S
C3365 C3366 1.369 . S
C3365 C3367 1.419 . S
C3365 H3369 0.930 . S
C3366 C3365 1.369 . S
C3366 C3375 1.429 . S
C3367 C3365 1.419 . S
C3367 C3368 1.363 . S
C3367 H3370 0.929 . S
C3368 C3367 1.363 . S
C3368 C3374 1.428 . S
H3369 C3365 0.930 . S
H3370 C3367 0.929 . S
S3371 N3372 1.613 . S
S3371 N3373 1.610 . S
N3372 S3371 1.613 . S
N3372 C3375 1.350 . S
N3373 S3371 1.610 . S
N3373 C3374 1.351 . S
C3374 C3368 1.428 . S
C3374 N3373 1.351 . S
C3374 C3375 1.434 . S
C3375 C3366 1.429 . S
C3375 N3372 1.350 . S
C3375 C3374 1.434 . S
C3376 C3377 1.369 . S
C3376 C3378 1.419 . S
C3376 H3380 0.930 . S
C3377 C3376 1.369 . S
C3377 C3386 1.429 . S
C3378 C3376 1.419 . S
C3378 C3379 1.363 . S
C3378 H3381 0.929 . S
C3379 C3378 1.363 . S
C3379 C3385 1.428 . S
H3380 C3376 0.930 . S
H3381 C3378 0.929 . S
S3382 N3383 1.613 . S
S3382 N3384 1.610 . S
N3383 S3382 1.613 . S
N3383 C3386 1.350 . S
N3384 S3382 1.610 . S
N3384 C3385 1.351 . S
C3385 C3379 1.428 . S
C3385 N3384 1.351 . S
C3385 C3386 1.434 . S
C3386 C3377 1.429 . S
C3386 N3383 1.350 . S
C3386 C3385 1.434 . S
C3387 C3388 1.369 . S
C3387 C3389 1.419 . S
C3387 H3391 0.930 . S
C3388 C3387 1.369 . S
C3388 C3397 1.429 . S
C3389 C3387 1.419 . S
C3389 C3390 1.363 . S
C3389 H3392 0.929 . S
C3390 C3389 1.363 . S
C3390 C3396 1.428 . S
H3391 C3387 0.930 . S
H3392 C3389 0.929 . S
S3393 N3394 1.613 . S
S3393 N3395 1.610 . S
N3394 S3393 1.613 . S
N3394 C3397 1.350 . S
N3395 S3393 1.610 . S
N3395 C3396 1.351 . S
C3396 C3390 1.428 . S
C3396 N3395 1.351 . S
C3396 C3397 1.434 . S
C3397 C3388 1.429 . S
C3397 N3394 1.350 . S
C3397 C3396 1.434 . S
C3398 C3399 1.369 . S
C3398 C3400 1.419 . S
C3398 H3402 0.930 . S
C3399 C3398 1.369 . S
C3399 C3408 1.429 . S
C3400 C3398 1.419 . S
C3400 C3401 1.363 . S
C3400 H3403 0.929 . S
C3401 C3400 1.363 . S
C3401 C3407 1.428 . S
H3402 C3398 0.930 . S
H3403 C3400 0.929 . S
S3404 N3405 1.613 . S
S3404 N3406 1.610 . S
N3405 S3404 1.613 . S
N3405 C3408 1.350 . S
N3406 S3404 1.610 . S
N3406 C3407 1.351 . S
C3407 C3401 1.428 . S
C3407 N3406 1.351 . S
C3407 C3408 1.434 . S
C3408 C3399 1.429 . S
C3408 N3405 1.350 . S
C3408 C3407 1.434 . S
C3409 C3410 1.369 . S
C3409 C3411 1.419 . S
C3409 H3413 0.930 . S
C3410 C3409 1.369 . S
C3410 C3419 1.429 . S
C3411 C3409 1.419 . S
C3411 C3412 1.363 . S
C3411 H3414 0.929 . S
C3412 C3411 1.363 . S
C3412 C3418 1.428 . S
H3413 C3409 0.930 . S
H3414 C3411 0.929 . S
S3415 N3416 1.613 . S
S3415 N3417 1.610 . S
N3416 S3415 1.613 . S
N3416 C3419 1.350 . S
N3417 S3415 1.610 . S
N3417 C3418 1.351 . S
C3418 C3412 1.428 . S
C3418 N3417 1.351 . S
C3418 C3419 1.434 . S
C3419 C3410 1.429 . S
C3419 N3416 1.350 . S
C3419 C3418 1.434 . S
C3420 C3421 1.369 . S
C3420 C3422 1.419 . S
C3420 H3424 0.930 . S
C3421 C3420 1.369 . S
C3421 C3430 1.429 . S
C3422 C3420 1.419 . S
C3422 C3423 1.363 . S
C3422 H3425 0.929 . S
C3423 C3422 1.363 . S
C3423 C3429 1.428 . S
H3424 C3420 0.930 . S
H3425 C3422 0.929 . S
S3426 N3427 1.613 . S
S3426 N3428 1.610 . S
N3427 S3426 1.613 . S
N3427 C3430 1.350 . S
N3428 S3426 1.610 . S
N3428 C3429 1.351 . S
C3429 C3423 1.428 . S
C3429 N3428 1.351 . S
C3429 C3430 1.434 . S
C3430 C3421 1.429 . S
C3430 N3427 1.350 . S
C3430 C3429 1.434 . S
C3431 C3432 1.369 . S
C3431 C3433 1.419 . S
C3431 H3435 0.930 . S
C3432 C3431 1.369 . S
C3432 C3441 1.429 . S
C3433 C3431 1.419 . S
C3433 C3434 1.363 . S
C3433 H3436 0.929 . S
C3434 C3433 1.363 . S
C3434 C3440 1.428 . S
H3435 C3431 0.930 . S
H3436 C3433 0.929 . S
S3437 N3438 1.613 . S
S3437 N3439 1.610 . S
N3438 S3437 1.613 . S
N3438 C3441 1.350 . S
N3439 S3437 1.610 . S
N3439 C3440 1.351 . S
C3440 C3434 1.428 . S
C3440 N3439 1.351 . S
C3440 C3441 1.434 . S
C3441 C3432 1.429 . S
C3441 N3438 1.350 . S
C3441 C3440 1.434 . S
C3442 C3443 1.369 . S
C3442 C3444 1.419 . S
C3442 H3446 0.930 . S
C3443 C3442 1.369 . S
C3443 C3452 1.429 . S
C3444 C3442 1.419 . S
C3444 C3445 1.363 . S
C3444 H3447 0.929 . S
C3445 C3444 1.363 . S
C3445 C3451 1.428 . S
H3446 C3442 0.930 . S
H3447 C3444 0.929 . S
S3448 N3449 1.613 . S
S3448 N3450 1.610 . S
N3449 S3448 1.613 . S
N3449 C3452 1.350 . S
N3450 S3448 1.610 . S
N3450 C3451 1.351 . S
C3451 C3445 1.428 . S
C3451 N3450 1.351 . S
C3451 C3452 1.434 . S
C3452 C3443 1.429 . S
C3452 N3449 1.350 . S
C3452 C3451 1.434 . S
C3453 C3454 1.369 . S
C3453 C3455 1.419 . S
C3453 H3457 0.930 . S
C3454 C3453 1.369 . S
C3454 C3463 1.429 . S
C3455 C3453 1.419 . S
C3455 C3456 1.363 . S
C3455 H3458 0.929 . S
C3456 C3455 1.363 . S
C3456 C3462 1.428 . S
H3457 C3453 0.930 . S
H3458 C3455 0.929 . S
S3459 N3460 1.613 . S
S3459 N3461 1.610 . S
N3460 S3459 1.613 . S
N3460 C3463 1.350 . S
N3461 S3459 1.610 . S
N3461 C3462 1.351 . S
C3462 C3456 1.428 . S
C3462 N3461 1.351 . S
C3462 C3463 1.434 . S
C3463 C3454 1.429 . S
C3463 N3460 1.350 . S
C3463 C3462 1.434 . S
C3464 C3465 1.369 . S
C3464 C3466 1.419 . S
C3464 H3468 0.930 . S
C3465 C3464 1.369 . S
C3465 C3474 1.429 . S
C3466 C3464 1.419 . S
C3466 C3467 1.363 . S
C3466 H3469 0.929 . S
C3467 C3466 1.363 . S
C3467 C3473 1.428 . S
H3468 C3464 0.930 . S
H3469 C3466 0.929 . S
S3470 N3471 1.613 . S
S3470 N3472 1.610 . S
N3471 S3470 1.613 . S
N3471 C3474 1.350 . S
N3472 S3470 1.610 . S
N3472 C3473 1.351 . S
C3473 C3467 1.428 . S
C3473 N3472 1.351 . S
C3473 C3474 1.434 . S
C3474 C3465 1.429 . S
C3474 N3471 1.350 . S
C3474 C3473 1.434 . S
C3475 C3476 1.369 . S
C3475 C3477 1.419 . S
C3475 H3479 0.930 . S
C3476 C3475 1.369 . S
C3476 C3485 1.429 . S
C3477 C3475 1.419 . S
C3477 C3478 1.363 . S
C3477 H3480 0.929 . S
C3478 C3477 1.363 . S
C3478 C3484 1.428 . S
H3479 C3475 0.930 . S
H3480 C3477 0.929 . S
S3481 N3482 1.613 . S
S3481 N3483 1.610 . S
N3482 S3481 1.613 . S
N3482 C3485 1.350 . S
N3483 S3481 1.610 . S
N3483 C3484 1.351 . S
C3484 C3478 1.428 . S
C3484 N3483 1.351 . S
C3484 C3485 1.434 . S
C3485 C3476 1.429 . S
C3485 N3482 1.350 . S
C3485 C3484 1.434 . S
C3486 C3487 1.369 . S
C3486 C3488 1.419 . S
C3486 H3490 0.930 . S
C3487 C3486 1.369 . S
C3487 C3496 1.429 . S
C3488 C3486 1.419 . S
C3488 C3489 1.363 . S
C3488 H3491 0.929 . S
C3489 C3488 1.363 . S
C3489 C3495 1.428 . S
H3490 C3486 0.930 . S
H3491 C3488 0.929 . S
S3492 N3493 1.613 . S
S3492 N3494 1.610 . S
N3493 S3492 1.613 . S
N3493 C3496 1.350 . S
N3494 S3492 1.610 . S
N3494 C3495 1.351 . S
C3495 C3489 1.428 . S
C3495 N3494 1.351 . S
C3495 C3496 1.434 . S
C3496 C3487 1.429 . S
C3496 N3493 1.350 . S
C3496 C3495 1.434 . S
C3497 C3498 1.369 . S
C3497 C3499 1.419 . S
C3497 H3501 0.930 . S
C3498 C3497 1.369 . S
C3498 C3507 1.429 . S
C3499 C3497 1.419 . S
C3499 C3500 1.363 . S
C3499 H3502 0.929 . S
C3500 C3499 1.363 . S
C3500 C3506 1.428 . S
H3501 C3497 0.930 . S
H3502 C3499 0.929 . S
S3503 N3504 1.613 . S
S3503 N3505 1.610 . S
N3504 S3503 1.613 . S
N3504 C3507 1.350 . S
N3505 S3503 1.610 . S
N3505 C3506 1.351 . S
C3506 C3500 1.428 . S
C3506 N3505 1.351 . S
C3506 C3507 1.434 . S
C3507 C3498 1.429 . S
C3507 N3504 1.350 . S
C3507 C3506 1.434 . S
C3508 C3509 1.369 . S
C3508 C3510 1.419 . S
C3508 H3512 0.930 . S
C3509 C3508 1.369 . S
C3509 C3518 1.429 . S
C3510 C3508 1.419 . S
C3510 C3511 1.363 . S
C3510 H3513 0.929 . S
C3511 C3510 1.363 . S
C3511 C3517 1.428 . S
H3512 C3508 0.930 . S
H3513 C3510 0.929 . S
S3514 N3515 1.613 . S
S3514 N3516 1.610 . S
N3515 S3514 1.613 . S
N3515 C3518 1.350 . S
N3516 S3514 1.610 . S
N3516 C3517 1.351 . S
C3517 C3511 1.428 . S
C3517 N3516 1.351 . S
C3517 C3518 1.434 . S
C3518 C3509 1.429 . S
C3518 N3515 1.350 . S
C3518 C3517 1.434 . S
C3519 C3520 1.369 . S
C3519 C3521 1.419 . S
C3519 H3523 0.930 . S
C3520 C3519 1.369 . S
C3520 C3529 1.429 . S
C3521 C3519 1.419 . S
C3521 C3522 1.363 . S
C3521 H3524 0.929 . S
C3522 C3521 1.363 . S
C3522 C3528 1.428 . S
H3523 C3519 0.930 . S
H3524 C3521 0.929 . S
S3525 N3526 1.613 . S
S3525 N3527 1.610 . S
N3526 S3525 1.613 . S
N3526 C3529 1.350 . S
N3527 S3525 1.610 . S
N3527 C3528 1.351 . S
C3528 C3522 1.428 . S
C3528 N3527 1.351 . S
C3528 C3529 1.434 . S
C3529 C3520 1.429 . S
C3529 N3526 1.350 . S
C3529 C3528 1.434 . S
C3530 C3531 1.369 . S
C3530 C3532 1.419 . S
C3530 H3534 0.930 . S
C3531 C3530 1.369 . S
C3531 C3540 1.429 . S
C3532 C3530 1.419 . S
C3532 C3533 1.363 . S
C3532 H3535 0.929 . S
C3533 C3532 1.363 . S
C3533 C3539 1.428 . S
H3534 C3530 0.930 . S
H3535 C3532 0.929 . S
S3536 N3537 1.613 . S
S3536 N3538 1.610 . S
N3537 S3536 1.613 . S
N3537 C3540 1.350 . S
N3538 S3536 1.610 . S
N3538 C3539 1.351 . S
C3539 C3533 1.428 . S
C3539 N3538 1.351 . S
C3539 C3540 1.434 . S
C3540 C3531 1.429 . S
C3540 N3537 1.350 . S
C3540 C3539 1.434 . S
C3541 C3542 1.369 . S
C3541 C3543 1.419 . S
C3541 H3545 0.930 . S
C3542 C3541 1.369 . S
C3542 C3551 1.429 . S
C3543 C3541 1.419 . S
C3543 C3544 1.363 . S
C3543 H3546 0.929 . S
C3544 C3543 1.363 . S
C3544 C3550 1.428 . S
H3545 C3541 0.930 . S
H3546 C3543 0.929 . S
S3547 N3548 1.613 . S
S3547 N3549 1.610 . S
N3548 S3547 1.613 . S
N3548 C3551 1.350 . S
N3549 S3547 1.610 . S
N3549 C3550 1.351 . S
C3550 C3544 1.428 . S
C3550 N3549 1.351 . S
C3550 C3551 1.434 . S
C3551 C3542 1.429 . S
C3551 N3548 1.350 . S
C3551 C3550 1.434 . S
C3552 C3553 1.369 . S
C3552 C3554 1.419 . S
C3552 H3556 0.930 1_545 S
C3553 C3552 1.369 . S
C3553 C3562 1.429 . S
C3554 C3552 1.419 . S
C3554 C3555 1.363 . S
C3554 H3557 0.929 . S
C3555 C3554 1.363 . S
C3555 C3561 1.428 . S
H3556 C3552 0.930 1_565 S
H3557 C3554 0.929 . S
S3558 N3559 1.613 . S
S3558 N3560 1.610 . S
N3559 S3558 1.613 . S
N3559 C3562 1.350 . S
N3560 S3558 1.610 . S
N3560 C3561 1.351 . S
C3561 C3555 1.428 . S
C3561 N3560 1.351 . S
C3561 C3562 1.434 . S
C3562 C3553 1.429 . S
C3562 N3559 1.350 . S
C3562 C3561 1.434 . S
C3563 C3564 1.369 . S
C3563 C3565 1.419 1_455 S
C3563 H3567 0.930 . S
C3564 C3563 1.369 . S
C3564 C3573 1.429 . S
C3565 C3563 1.419 1_655 S
C3565 C3566 1.363 . S
C3565 H3568 0.929 . S
C3566 C3565 1.363 . S
C3566 C3572 1.428 1_655 S
H3567 C3563 0.930 . S
H3568 C3565 0.929 . S
S3569 N3570 1.613 . S
S3569 N3571 1.610 . S
N3570 S3569 1.613 . S
N3570 C3573 1.350 . S
N3571 S3569 1.610 . S
N3571 C3572 1.351 . S
C3572 C3566 1.428 1_455 S
C3572 N3571 1.351 . S
C3572 C3573 1.434 . S
C3573 C3564 1.429 . S
C3573 N3570 1.350 . S
C3573 C3572 1.434 . S
C3574 C3575 1.369 . S
C3574 C3576 1.419 . S
C3574 H3578 0.930 . S
C3575 C3574 1.369 . S
C3575 C3584 1.429 . S
C3576 C3574 1.419 . S
C3576 C3577 1.363 . S
C3576 H3579 0.929 . S
C3577 C3576 1.363 . S
C3577 C3583 1.428 . S
H3578 C3574 0.930 . S
H3579 C3576 0.929 . S
S3580 N3581 1.613 . S
S3580 N3582 1.610 . S
N3581 S3580 1.613 . S
N3581 C3584 1.350 . S
N3582 S3580 1.610 . S
N3582 C3583 1.351 . S
C3583 C3577 1.428 . S
C3583 N3582 1.351 . S
C3583 C3584 1.434 . S
C3584 C3575 1.429 . S
C3584 N3581 1.350 . S
C3584 C3583 1.434 . S
C3585 C3586 1.369 . S
C3585 C3587 1.419 . S
C3585 H3589 0.930 . S
C3586 C3585 1.369 . S
C3586 C3595 1.429 . S
C3587 C3585 1.419 . S
C3587 C3588 1.363 . S
C3587 H3590 0.929 . S
C3588 C3587 1.363 . S
C3588 C3594 1.428 . S
H3589 C3585 0.930 . S
H3590 C3587 0.929 . S
S3591 N3592 1.613 . S
S3591 N3593 1.610 . S
N3592 S3591 1.613 . S
N3592 C3595 1.350 . S
N3593 S3591 1.610 . S
N3593 C3594 1.351 . S
C3594 C3588 1.428 . S
C3594 N3593 1.351 . S
C3594 C3595 1.434 . S
C3595 C3586 1.429 . S
C3595 N3592 1.350 . S
C3595 C3594 1.434 . S
C3596 C3597 1.369 . S
C3596 C3598 1.419 . S
C3596 H3600 0.930 . S
C3597 C3596 1.369 . S
C3597 C3606 1.429 . S
C3598 C3596 1.419 . S
C3598 C3599 1.363 . S
C3598 H3601 0.929 . S
C3599 C3598 1.363 . S
C3599 C3605 1.428 . S
H3600 C3596 0.930 . S
H3601 C3598 0.929 . S
S3602 N3603 1.613 . S
S3602 N3604 1.610 . S
N3603 S3602 1.613 . S
N3603 C3606 1.350 . S
N3604 S3602 1.610 . S
N3604 C3605 1.351 . S
C3605 C3599 1.428 . S
C3605 N3604 1.351 . S
C3605 C3606 1.434 . S
C3606 C3597 1.429 . S
C3606 N3603 1.350 . S
C3606 C3605 1.434 . S
C3607 C3608 1.369 . S
C3607 C3609 1.419 . S
C3607 H3611 0.930 . S
C3608 C3607 1.369 . S
C3608 C3617 1.429 . S
C3609 C3607 1.419 . S
C3609 C3610 1.363 . S
C3609 H3612 0.929 . S
C3610 C3609 1.363 . S
C3610 C3616 1.428 . S
H3611 C3607 0.930 . S
H3612 C3609 0.929 . S
S3613 N3614 1.613 . S
S3613 N3615 1.610 . S
N3614 S3613 1.613 . S
N3614 C3617 1.350 . S
N3615 S3613 1.610 . S
N3615 C3616 1.351 . S
C3616 C3610 1.428 . S
C3616 N3615 1.351 . S
C3616 C3617 1.434 . S
C3617 C3608 1.429 . S
C3617 N3614 1.350 . S
C3617 C3616 1.434 . S
C3618 C3619 1.369 . S
C3618 C3620 1.419 . S
C3618 H3622 0.930 . S
C3619 C3618 1.369 . S
C3619 C3628 1.429 . S
C3620 C3618 1.419 . S
C3620 C3621 1.363 . S
C3620 H3623 0.929 . S
C3621 C3620 1.363 . S
C3621 C3627 1.428 . S
H3622 C3618 0.930 . S
H3623 C3620 0.929 . S
S3624 N3625 1.613 . S
S3624 N3626 1.610 . S
N3625 S3624 1.613 . S
N3625 C3628 1.350 . S
N3626 S3624 1.610 . S
N3626 C3627 1.351 . S
C3627 C3621 1.428 . S
C3627 N3626 1.351 . S
C3627 C3628 1.434 . S
C3628 C3619 1.429 . S
C3628 N3625 1.350 . S
C3628 C3627 1.434 . S
C3629 C3630 1.369 . S
C3629 C3631 1.419 . S
C3629 H3633 0.930 . S
C3630 C3629 1.369 . S
C3630 C3639 1.429 . S
C3631 C3629 1.419 . S
C3631 C3632 1.363 . S
C3631 H3634 0.929 . S
C3632 C3631 1.363 . S
C3632 C3638 1.428 . S
H3633 C3629 0.930 . S
H3634 C3631 0.929 . S
S3635 N3636 1.613 . S
S3635 N3637 1.610 . S
N3636 S3635 1.613 . S
N3636 C3639 1.350 . S
N3637 S3635 1.610 . S
N3637 C3638 1.351 . S
C3638 C3632 1.428 . S
C3638 N3637 1.351 . S
C3638 C3639 1.434 . S
C3639 C3630 1.429 . S
C3639 N3636 1.350 . S
C3639 C3638 1.434 . S
C3640 C3641 1.369 . S
C3640 C3642 1.419 . S
C3640 H3644 0.930 . S
C3641 C3640 1.369 . S
C3641 C3650 1.429 . S
C3642 C3640 1.419 . S
C3642 C3643 1.363 . S
C3642 H3645 0.929 . S
C3643 C3642 1.363 . S
C3643 C3649 1.428 . S
H3644 C3640 0.930 . S
H3645 C3642 0.929 . S
S3646 N3647 1.613 . S
S3646 N3648 1.610 . S
N3647 S3646 1.613 . S
N3647 C3650 1.350 . S
N3648 S3646 1.610 . S
N3648 C3649 1.351 . S
C3649 C3643 1.428 . S
C3649 N3648 1.351 . S
C3649 C3650 1.434 . S
C3650 C3641 1.429 . S
C3650 N3647 1.350 . S
C3650 C3649 1.434 . S
C3651 C3652 1.369 . S
C3651 C3653 1.419 1_455 S
C3651 H3655 0.930 . S
C3652 C3651 1.369 . S
C3652 C3661 1.429 . S
C3653 C3651 1.419 1_655 S
C3653 C3654 1.363 . S
C3653 H3656 0.929 . S
C3654 C3653 1.363 . S
C3654 C3660 1.428 1_655 S
H3655 C3651 0.930 . S
H3656 C3653 0.929 . S
S3657 N3658 1.613 . S
S3657 N3659 1.610 . S
N3658 S3657 1.613 . S
N3658 C3661 1.350 . S
N3659 S3657 1.610 . S
N3659 C3660 1.351 . S
C3660 C3654 1.428 1_455 S
C3660 N3659 1.351 . S
C3660 C3661 1.434 . S
C3661 C3652 1.429 . S
C3661 N3658 1.350 . S
C3661 C3660 1.434 . S
C3662 C3663 1.369 . S
C3662 C3664 1.419 . S
C3662 H3666 0.930 . S
C3663 C3662 1.369 . S
C3663 C3672 1.429 . S
C3664 C3662 1.419 . S
C3664 C3665 1.363 . S
C3664 H3667 0.929 . S
C3665 C3664 1.363 . S
C3665 C3671 1.428 . S
H3666 C3662 0.930 . S
H3667 C3664 0.929 . S
S3668 N3669 1.613 . S
S3668 N3670 1.610 . S
N3669 S3668 1.613 . S
N3669 C3672 1.350 . S
N3670 S3668 1.610 . S
N3670 C3671 1.351 . S
C3671 C3665 1.428 . S
C3671 N3670 1.351 . S
C3671 C3672 1.434 . S
C3672 C3663 1.429 . S
C3672 N3669 1.350 . S
C3672 C3671 1.434 . S
C3673 C3674 1.369 . S
C3673 C3675 1.419 . S
C3673 H3677 0.930 . S
C3674 C3673 1.369 . S
C3674 C3683 1.429 . S
C3675 C3673 1.419 . S
C3675 C3676 1.363 . S
C3675 H3678 0.929 . S
C3676 C3675 1.363 . S
C3676 C3682 1.428 . S
H3677 C3673 0.930 . S
H3678 C3675 0.929 . S
S3679 N3680 1.613 . S
S3679 N3681 1.610 1_565 S
N3680 S3679 1.613 . S
N3680 C3683 1.350 1_565 S
N3681 S3679 1.610 1_545 S
N3681 C3682 1.351 . S
C3682 C3676 1.428 . S
C3682 N3681 1.351 . S
C3682 C3683 1.434 . S
C3683 C3674 1.429 . S
C3683 N3680 1.350 1_545 S
C3683 C3682 1.434 . S
C3684 C3685 1.369 . S
C3684 C3686 1.419 . S
C3684 H3688 0.930 . S
C3685 C3684 1.369 . S
C3685 C3694 1.429 . S
C3686 C3684 1.419 . S
C3686 C3687 1.363 . S
C3686 H3689 0.929 . S
C3687 C3686 1.363 . S
C3687 C3693 1.428 . S
H3688 C3684 0.930 . S
H3689 C3686 0.929 . S
S3690 N3691 1.613 . S
S3690 N3692 1.610 . S
N3691 S3690 1.613 . S
N3691 C3694 1.350 . S
N3692 S3690 1.610 . S
N3692 C3693 1.351 . S
C3693 C3687 1.428 . S
C3693 N3692 1.351 . S
C3693 C3694 1.434 . S
C3694 C3685 1.429 . S
C3694 N3691 1.350 . S
C3694 C3693 1.434 . S
C3695 C3696 1.369 . S
C3695 C3697 1.419 . S
C3695 H3699 0.930 . S
C3696 C3695 1.369 . S
C3696 C3705 1.429 . S
C3697 C3695 1.419 . S
C3697 C3698 1.363 . S
C3697 H3700 0.929 . S
C3698 C3697 1.363 . S
C3698 C3704 1.428 . S
H3699 C3695 0.930 . S
H3700 C3697 0.929 . S
S3701 N3702 1.613 . S
S3701 N3703 1.610 . S
N3702 S3701 1.613 . S
N3702 C3705 1.350 . S
N3703 S3701 1.610 . S
N3703 C3704 1.351 . S
C3704 C3698 1.428 . S
C3704 N3703 1.351 . S
C3704 C3705 1.434 . S
C3705 C3696 1.429 . S
C3705 N3702 1.350 . S
C3705 C3704 1.434 . S
C3706 C3707 1.369 . S
C3706 C3708 1.419 . S
C3706 H3710 0.930 . S
C3707 C3706 1.369 . S
C3707 C3716 1.429 . S
C3708 C3706 1.419 . S
C3708 C3709 1.363 . S
C3708 H3711 0.929 . S
C3709 C3708 1.363 . S
C3709 C3715 1.428 . S
H3710 C3706 0.930 . S
H3711 C3708 0.929 . S
S3712 N3713 1.613 . S
S3712 N3714 1.610 . S
N3713 S3712 1.613 . S
N3713 C3716 1.350 . S
N3714 S3712 1.610 . S
N3714 C3715 1.351 . S
C3715 C3709 1.428 . S
C3715 N3714 1.351 . S
C3715 C3716 1.434 . S
C3716 C3707 1.429 . S
C3716 N3713 1.350 . S
C3716 C3715 1.434 . S
C3717 C3718 1.369 . S
C3717 C3719 1.419 . S
C3717 H3721 0.930 . S
C3718 C3717 1.369 . S
C3718 C3727 1.429 . S
C3719 C3717 1.419 . S
C3719 C3720 1.363 . S
C3719 H3722 0.929 . S
C3720 C3719 1.363 . S
C3720 C3726 1.428 . S
H3721 C3717 0.930 . S
H3722 C3719 0.929 . S
S3723 N3724 1.613 1_655 S
S3723 N3725 1.610 . S
N3724 S3723 1.613 1_455 S
N3724 C3727 1.350 . S
N3725 S3723 1.610 . S
N3725 C3726 1.351 1_655 S
C3726 C3720 1.428 . S
C3726 N3725 1.351 1_455 S
C3726 C3727 1.434 . S
C3727 C3718 1.429 . S
C3727 N3724 1.350 . S
C3727 C3726 1.434 . S
C3728 C3729 1.369 . S
C3728 C3730 1.419 . S
C3728 H3732 0.930 . S
C3729 C3728 1.369 . S
C3729 C3738 1.429 . S
C3730 C3728 1.419 . S
C3730 C3731 1.363 . S
C3730 H3733 0.929 . S
C3731 C3730 1.363 . S
C3731 C3737 1.428 . S
H3732 C3728 0.930 . S
H3733 C3730 0.929 . S
S3734 N3735 1.613 . S
S3734 N3736 1.610 . S
N3735 S3734 1.613 . S
N3735 C3738 1.350 . S
N3736 S3734 1.610 . S
N3736 C3737 1.351 . S
C3737 C3731 1.428 . S
C3737 N3736 1.351 . S
C3737 C3738 1.434 . S
C3738 C3729 1.429 . S
C3738 N3735 1.350 . S
C3738 C3737 1.434 . S
C3739 C3740 1.369 . S
C3739 C3741 1.419 1_545 S
C3739 H3743 0.930 . S
C3740 C3739 1.369 . S
C3740 C3749 1.429 . S
C3741 C3739 1.419 1_565 S
C3741 C3742 1.363 . S
C3741 H3744 0.929 . S
C3742 C3741 1.363 . S
C3742 C3748 1.428 1_565 S
H3743 C3739 0.930 . S
H3744 C3741 0.929 . S
S3745 N3746 1.613 . S
S3745 N3747 1.610 . S
N3746 S3745 1.613 . S
N3746 C3749 1.350 . S
N3747 S3745 1.610 . S
N3747 C3748 1.351 . S
C3748 C3742 1.428 1_545 S
C3748 N3747 1.351 . S
C3748 C3749 1.434 . S
C3749 C3740 1.429 . S
C3749 N3746 1.350 . S
C3749 C3748 1.434 . S
C3750 C3751 1.369 1_545 S
C3750 C3752 1.419 . S
C3750 H3754 0.930 . S
C3751 C3750 1.369 1_565 S
C3751 C3760 1.429 . S
C3752 C3750 1.419 . S
C3752 C3753 1.363 . S
C3752 H3755 0.929 . S
C3753 C3752 1.363 . S
C3753 C3759 1.428 . S
H3754 C3750 0.930 . S
H3755 C3752 0.929 . S
S3756 N3757 1.613 . S
S3756 N3758 1.610 . S
N3757 S3756 1.613 . S
N3757 C3760 1.350 . S
N3758 S3756 1.610 . S
N3758 C3759 1.351 1_565 S
C3759 C3753 1.428 . S
C3759 N3758 1.351 1_545 S
C3759 C3760 1.434 1_545 S
C3760 C3751 1.429 . S
C3760 N3757 1.350 . S
C3760 C3759 1.434 1_565 S
C3761 C3762 1.369 . S
C3761 C3763 1.419 . S
C3761 H3765 0.930 . S
C3762 C3761 1.369 . S
C3762 C3771 1.429 . S
C3763 C3761 1.419 . S
C3763 C3764 1.363 . S
C3763 H3766 0.936 . S
C3764 C3763 1.363 . S
C3764 C3770 1.428 . S
H3765 C3761 0.930 . S
H3766 C3763 0.936 . S
S3767 N3768 1.613 . S
S3767 N3769 1.610 . S
N3768 S3767 1.613 . S
N3768 C3771 1.350 . S
N3769 S3767 1.610 . S
N3769 C3770 1.351 . S
C3770 C3764 1.428 . S
C3770 N3769 1.351 . S
C3770 C3771 1.434 . S
C3771 C3762 1.429 . S
C3771 N3768 1.350 . S
C3771 C3770 1.434 . S
C3772 C3773 1.369 . S
C3772 C3774 1.419 . S
C3772 H3776 0.930 . S
C3773 C3772 1.369 . S
C3773 C3782 1.429 . S
C3774 C3772 1.419 . S
C3774 C3775 1.363 . S
C3774 H3777 0.929 . S
C3775 C3774 1.363 . S
C3775 C3781 1.428 . S
H3776 C3772 0.930 . S
H3777 C3774 0.929 . S
S3778 N3779 1.613 . S
S3778 N3780 1.610 . S
N3779 S3778 1.613 . S
N3779 C3782 1.350 . S
N3780 S3778 1.610 . S
N3780 C3781 1.351 . S
C3781 C3775 1.428 . S
C3781 N3780 1.351 . S
C3781 C3782 1.434 . S
C3782 C3773 1.429 . S
C3782 N3779 1.350 . S
C3782 C3781 1.434 . S
C3783 C3784 1.369 . S
C3783 C3785 1.419 . S
C3783 H3787 0.930 . S
C3784 C3783 1.369 . S
C3784 C3793 1.429 . S
C3785 C3783 1.419 . S
C3785 C3786 1.363 . S
C3785 H3788 0.929 . S
C3786 C3785 1.363 . S
C3786 C3792 1.428 . S
H3787 C3783 0.930 . S
H3788 C3785 0.929 . S
S3789 N3790 1.613 . S
S3789 N3791 1.610 . S
N3790 S3789 1.613 . S
N3790 C3793 1.350 . S
N3791 S3789 1.610 . S
N3791 C3792 1.351 . S
C3792 C3786 1.428 . S
C3792 N3791 1.351 . S
C3792 C3793 1.434 . S
C3793 C3784 1.429 . S
C3793 N3790 1.350 . S
C3793 C3792 1.434 . S
C3794 C3795 1.369 . S
C3794 C3796 1.419 . S
C3794 H3798 0.930 . S
C3795 C3794 1.369 . S
C3795 C3804 1.429 . S
C3796 C3794 1.419 . S
C3796 C3797 1.363 . S
C3796 H3799 0.929 . S
C3797 C3796 1.363 . S
C3797 C3803 1.428 . S
H3798 C3794 0.930 . S
H3799 C3796 0.929 . S
S3800 N3801 1.613 . S
S3800 N3802 1.610 . S
N3801 S3800 1.613 . S
N3801 C3804 1.350 . S
N3802 S3800 1.610 . S
N3802 C3803 1.351 . S
C3803 C3797 1.428 . S
C3803 N3802 1.351 . S
C3803 C3804 1.434 . S
C3804 C3795 1.429 . S
C3804 N3801 1.350 . S
C3804 C3803 1.434 . S
C3805 C3806 1.369 . S
C3805 C3807 1.419 . S
C3805 H3809 0.930 . S
C3806 C3805 1.369 . S
C3806 C3815 1.429 . S
C3807 C3805 1.419 . S
C3807 C3808 1.363 . S
C3807 H3810 0.929 . S
C3808 C3807 1.363 . S
C3808 C3814 1.428 . S
H3809 C3805 0.930 . S
H3810 C3807 0.929 . S
S3811 N3812 1.613 . S
S3811 N3813 1.610 . S
N3812 S3811 1.613 . S
N3812 C3815 1.350 . S
N3813 S3811 1.610 . S
N3813 C3814 1.351 . S
C3814 C3808 1.428 . S
C3814 N3813 1.351 . S
C3814 C3815 1.434 . S
C3815 C3806 1.429 . S
C3815 N3812 1.350 . S
C3815 C3814 1.434 . S
C3816 C3817 1.369 . S
C3816 C3818 1.419 . S
C3816 H3820 0.930 . S
C3817 C3816 1.369 . S
C3817 C3826 1.429 . S
C3818 C3816 1.419 . S
C3818 C3819 1.363 . S
C3818 H3821 0.929 . S
C3819 C3818 1.363 . S
C3819 C3825 1.428 . S
H3820 C3816 0.930 . S
H3821 C3818 0.929 . S
S3822 N3823 1.613 . S
S3822 N3824 1.610 . S
N3823 S3822 1.613 . S
N3823 C3826 1.350 . S
N3824 S3822 1.610 . S
N3824 C3825 1.351 . S
C3825 C3819 1.428 . S
C3825 N3824 1.351 . S
C3825 C3826 1.434 . S
C3826 C3817 1.429 . S
C3826 N3823 1.350 . S
C3826 C3825 1.434 . S
C3827 C3828 1.369 . S
C3827 C3829 1.419 . S
C3827 H3831 0.930 . S
C3828 C3827 1.369 . S
C3828 C3837 1.429 . S
C3829 C3827 1.419 . S
C3829 C3830 1.363 . S
C3829 H3832 0.929 . S
C3830 C3829 1.363 . S
C3830 C3836 1.428 . S
H3831 C3827 0.930 . S
H3832 C3829 0.929 . S
S3833 N3834 1.613 . S
S3833 N3835 1.610 . S
N3834 S3833 1.613 . S
N3834 C3837 1.350 . S
N3835 S3833 1.610 . S
N3835 C3836 1.351 . S
C3836 C3830 1.428 . S
C3836 N3835 1.351 . S
C3836 C3837 1.434 . S
C3837 C3828 1.429 . S
C3837 N3834 1.350 . S
C3837 C3836 1.434 . S
C3838 C3839 1.369 . S
C3838 C3840 1.419 . S
C3838 H3842 0.930 . S
C3839 C3838 1.369 . S
C3839 C3848 1.429 . S
C3840 C3838 1.419 . S
C3840 C3841 1.363 . S
C3840 H3843 0.929 . S
C3841 C3840 1.363 . S
C3841 C3847 1.428 . S
H3842 C3838 0.930 . S
H3843 C3840 0.929 . S
S3844 N3845 1.613 . S
S3844 N3846 1.610 . S
N3845 S3844 1.613 . S
N3845 C3848 1.350 . S
N3846 S3844 1.610 . S
N3846 C3847 1.351 . S
C3847 C3841 1.428 . S
C3847 N3846 1.351 . S
C3847 C3848 1.434 . S
C3848 C3839 1.429 . S
C3848 N3845 1.350 . S
C3848 C3847 1.434 . S
C3849 C3850 1.369 . S
C3849 C3851 1.419 . S
C3849 H3853 0.930 . S
C3850 C3849 1.369 . S
C3850 C3859 1.429 . S
C3851 C3849 1.419 . S
C3851 C3852 1.363 . S
C3851 H3854 0.929 . S
C3852 C3851 1.363 . S
C3852 C3858 1.428 . S
H3853 C3849 0.930 . S
H3854 C3851 0.929 . S
S3855 N3856 1.613 . S
S3855 N3857 1.610 . S
N3856 S3855 1.613 . S
N3856 C3859 1.350 . S
N3857 S3855 1.610 . S
N3857 C3858 1.351 . S
C3858 C3852 1.428 . S
C3858 N3857 1.351 . S
C3858 C3859 1.434 . S
C3859 C3850 1.429 . S
C3859 N3856 1.350 . S
C3859 C3858 1.434 . S
C3860 C3861 1.369 . S
C3860 C3862 1.419 . S
C3860 H3864 0.930 . S
C3861 C3860 1.369 . S
C3861 C3870 1.429 . S
C3862 C3860 1.419 . S
C3862 C3863 1.363 . S
C3862 H3865 0.929 . S
C3863 C3862 1.363 . S
C3863 C3869 1.428 . S
H3864 C3860 0.930 . S
H3865 C3862 0.929 . S
S3866 N3867 1.613 . S
S3866 N3868 1.610 . S
N3867 S3866 1.613 . S
N3867 C3870 1.350 . S
N3868 S3866 1.610 . S
N3868 C3869 1.351 . S
C3869 C3863 1.428 . S
C3869 N3868 1.351 . S
C3869 C3870 1.434 . S
C3870 C3861 1.429 . S
C3870 N3867 1.350 . S
C3870 C3869 1.434 . S
C3871 C3872 1.369 . S
C3871 C3873 1.419 . S
C3871 H3875 0.930 . S
C3872 C3871 1.369 . S
C3872 C3881 1.429 . S
C3873 C3871 1.419 . S
C3873 C3874 1.363 . S
C3873 H3876 0.929 . S
C3874 C3873 1.363 . S
C3874 C3880 1.428 . S
H3875 C3871 0.930 . S
H3876 C3873 0.929 . S
S3877 N3878 1.613 . S
S3877 N3879 1.610 . S
N3878 S3877 1.613 . S
N3878 C3881 1.350 . S
N3879 S3877 1.610 . S
N3879 C3880 1.351 . S
C3880 C3874 1.428 . S
C3880 N3879 1.351 . S
C3880 C3881 1.434 . S
C3881 C3872 1.429 . S
C3881 N3878 1.350 . S
C3881 C3880 1.434 . S
C3882 C3883 1.369 . S
C3882 C3884 1.419 . S
C3882 H3886 0.930 . S
C3883 C3882 1.369 . S
C3883 C3892 1.429 . S
C3884 C3882 1.419 . S
C3884 C3885 1.363 . S
C3884 H3887 0.929 . S
C3885 C3884 1.363 . S
C3885 C3891 1.428 . S
H3886 C3882 0.930 . S
H3887 C3884 0.929 . S
S3888 N3889 1.613 . S
S3888 N3890 1.610 . S
N3889 S3888 1.613 . S
N3889 C3892 1.350 . S
N3890 S3888 1.610 . S
N3890 C3891 1.351 . S
C3891 C3885 1.428 . S
C3891 N3890 1.351 . S
C3891 C3892 1.434 . S
C3892 C3883 1.429 . S
C3892 N3889 1.350 . S
C3892 C3891 1.434 . S
C3893 C3894 1.369 . S
C3893 C3895 1.419 . S
C3893 H3897 0.930 . S
C3894 C3893 1.369 . S
C3894 C3903 1.429 . S
C3895 C3893 1.419 . S
C3895 C3896 1.363 . S
C3895 H3898 0.929 . S
C3896 C3895 1.363 . S
C3896 C3902 1.428 . S
H3897 C3893 0.930 . S
H3898 C3895 0.929 . S
S3899 N3900 1.613 . S
S3899 N3901 1.610 . S
N3900 S3899 1.613 . S
N3900 C3903 1.350 . S
N3901 S3899 1.610 . S
N3901 C3902 1.351 . S
C3902 C3896 1.428 . S
C3902 N3901 1.351 . S
C3902 C3903 1.434 . S
C3903 C3894 1.429 . S
C3903 N3900 1.350 . S
C3903 C3902 1.434 . S
C3904 C3905 1.369 . S
C3904 C3906 1.419 . S
C3904 H3908 0.930 . S
C3905 C3904 1.369 . S
C3905 C3914 1.429 . S
C3906 C3904 1.419 . S
C3906 C3907 1.363 . S
C3906 H3909 0.929 . S
C3907 C3906 1.363 . S
C3907 C3913 1.428 . S
H3908 C3904 0.930 . S
H3909 C3906 0.929 . S
S3910 N3911 1.613 . S
S3910 N3912 1.610 . S
N3911 S3910 1.613 . S
N3911 C3914 1.350 . S
N3912 S3910 1.610 . S
N3912 C3913 1.351 . S
C3913 C3907 1.428 . S
C3913 N3912 1.351 . S
C3913 C3914 1.434 . S
C3914 C3905 1.429 . S
C3914 N3911 1.350 . S
C3914 C3913 1.434 . S
C3915 C3916 1.369 . S
C3915 C3917 1.419 . S
C3915 H3919 0.930 . S
C3916 C3915 1.369 . S
C3916 C3925 1.429 . S
C3917 C3915 1.419 . S
C3917 C3918 1.363 . S
C3917 H3920 0.929 . S
C3918 C3917 1.363 . S
C3918 C3924 1.428 . S
H3919 C3915 0.930 . S
H3920 C3917 0.929 . S
S3921 N3922 1.613 . S
S3921 N3923 1.610 . S
N3922 S3921 1.613 . S
N3922 C3925 1.350 . S
N3923 S3921 1.610 . S
N3923 C3924 1.351 . S
C3924 C3918 1.428 . S
C3924 N3923 1.351 . S
C3924 C3925 1.434 . S
C3925 C3916 1.429 . S
C3925 N3922 1.350 . S
C3925 C3924 1.434 . S
C3926 C3927 1.369 . S
C3926 C3928 1.419 . S
C3926 H3930 0.930 . S
C3927 C3926 1.369 . S
C3927 C3936 1.429 . S
C3928 C3926 1.419 . S
C3928 C3929 1.363 . S
C3928 H3931 0.929 . S
C3929 C3928 1.363 . S
C3929 C3935 1.428 . S
H3930 C3926 0.930 . S
H3931 C3928 0.929 . S
S3932 N3933 1.613 . S
S3932 N3934 1.610 . S
N3933 S3932 1.613 . S
N3933 C3936 1.350 . S
N3934 S3932 1.610 . S
N3934 C3935 1.351 . S
C3935 C3929 1.428 . S
C3935 N3934 1.351 . S
C3935 C3936 1.434 . S
C3936 C3927 1.429 . S
C3936 N3933 1.350 . S
C3936 C3935 1.434 . S
C3937 C3938 1.369 . S
C3937 C3939 1.419 . S
C3937 H3941 0.930 . S
C3938 C3937 1.369 . S
C3938 C3947 1.429 . S
C3939 C3937 1.419 . S
C3939 C3940 1.363 . S
C3939 H3942 0.929 . S
C3940 C3939 1.363 . S
C3940 C3946 1.428 . S
H3941 C3937 0.930 . S
H3942 C3939 0.929 . S
S3943 N3944 1.613 . S
S3943 N3945 1.610 . S
N3944 S3943 1.613 . S
N3944 C3947 1.350 . S
N3945 S3943 1.610 . S
N3945 C3946 1.351 . S
C3946 C3940 1.428 . S
C3946 N3945 1.351 . S
C3946 C3947 1.434 . S
C3947 C3938 1.429 . S
C3947 N3944 1.350 . S
C3947 C3946 1.434 . S
C3948 C3949 1.369 . S
C3948 C3950 1.419 . S
C3948 H3952 0.930 . S
C3949 C3948 1.369 . S
C3949 C3958 1.429 . S
C3950 C3948 1.419 . S
C3950 C3951 1.363 . S
C3950 H3953 0.929 . S
C3951 C3950 1.363 . S
C3951 C3957 1.428 . S
H3952 C3948 0.930 . S
H3953 C3950 0.929 . S
S3954 N3955 1.613 . S
S3954 N3956 1.610 . S
N3955 S3954 1.613 . S
N3955 C3958 1.350 . S
N3956 S3954 1.610 . S
N3956 C3957 1.351 . S
C3957 C3951 1.428 . S
C3957 N3956 1.351 . S
C3957 C3958 1.434 . S
C3958 C3949 1.429 . S
C3958 N3955 1.350 . S
C3958 C3957 1.434 . S
C3959 C3960 1.369 . S
C3959 C3961 1.419 . S
C3959 H3963 0.930 . S
C3960 C3959 1.369 . S
C3960 C3969 1.429 . S
C3961 C3959 1.419 . S
C3961 C3962 1.363 . S
C3961 H3964 0.929 . S
C3962 C3961 1.363 . S
C3962 C3968 1.428 . S
H3963 C3959 0.930 . S
H3964 C3961 0.929 . S
S3965 N3966 1.613 . S
S3965 N3967 1.610 . S
N3966 S3965 1.613 . S
N3966 C3969 1.350 . S
N3967 S3965 1.610 . S
N3967 C3968 1.351 . S
C3968 C3962 1.428 . S
C3968 N3967 1.351 . S
C3968 C3969 1.434 . S
C3969 C3960 1.429 . S
C3969 N3966 1.350 . S
C3969 C3968 1.434 . S
C3970 C3971 1.369 . S
C3970 C3972 1.419 . S
C3970 H3974 0.930 . S
C3971 C3970 1.369 . S
C3971 C3980 1.429 . S
C3972 C3970 1.419 . S
C3972 C3973 1.363 . S
C3972 H3975 0.929 . S
C3973 C3972 1.363 . S
C3973 C3979 1.428 . S
H3974 C3970 0.930 . S
H3975 C3972 0.929 . S
S3976 N3977 1.613 . S
S3976 N3978 1.610 . S
N3977 S3976 1.613 . S
N3977 C3980 1.350 . S
N3978 S3976 1.610 . S
N3978 C3979 1.351 . S
C3979 C3973 1.428 . S
C3979 N3978 1.351 . S
C3979 C3980 1.434 . S
C3980 C3971 1.429 . S
C3980 N3977 1.350 . S
C3980 C3979 1.434 . S
C3981 C3982 1.369 . S
C3981 C3983 1.419 . S
C3981 H3985 0.930 . S
C3982 C3981 1.369 . S
C3982 C3991 1.429 . S
C3983 C3981 1.419 . S
C3983 C3984 1.363 1_455 S
C3983 H3986 0.931 . S
C3984 C3983 1.363 1_655 S
C3984 C3990 1.428 1_655 S
H3985 C3981 0.930 . S
H3986 C3983 0.931 . S
S3987 N3988 1.613 . S
S3987 N3989 1.610 . S
N3988 S3987 1.613 . S
N3988 C3991 1.350 . S
N3989 S3987 1.610 . S
N3989 C3990 1.351 . S
C3990 C3984 1.428 1_455 S
C3990 N3989 1.351 . S
C3990 C3991 1.434 . S
C3991 C3982 1.429 . S
C3991 N3988 1.350 . S
C3991 C3990 1.434 . S
C3992 C3993 1.369 . S
C3992 C3994 1.419 . S
C3992 H3996 0.930 . S
C3993 C3992 1.369 . S
C3993 C4002 1.429 . S
C3994 C3992 1.419 . S
C3994 C3995 1.363 . S
C3994 H3997 0.929 . S
C3995 C3994 1.363 . S
C3995 C4001 1.428 . S
H3996 C3992 0.930 . S
H3997 C3994 0.929 . S
S3998 N3999 1.613 . S
S3998 N4000 1.610 . S
N3999 S3998 1.613 . S
N3999 C4002 1.350 . S
N4000 S3998 1.610 . S
N4000 C4001 1.351 . S
C4001 C3995 1.428 . S
C4001 N4000 1.351 . S
C4001 C4002 1.434 . S
C4002 C3993 1.429 . S
C4002 N3999 1.350 . S
C4002 C4001 1.434 . S
C4003 C4004 1.369 . S
C4003 C4005 1.419 . S
C4003 H4007 0.930 . S
C4004 C4003 1.369 . S
C4004 C4013 1.429 . S
C4005 C4003 1.419 . S
C4005 C4006 1.363 1_545 S
C4005 H4008 0.929 1_545 S
C4006 C4005 1.363 1_565 S
C4006 C4012 1.428 1_565 S
H4007 C4003 0.930 . S
H4008 C4005 0.929 1_565 S
S4009 N4010 1.613 . S
S4009 N4011 1.610 1_545 S
N4010 S4009 1.613 . S
N4010 C4013 1.350 . S
N4011 S4009 1.610 1_565 S
N4011 C4012 1.345 1_565 S
C4012 C4006 1.428 1_545 S
C4012 N4011 1.345 1_545 S
C4012 C4013 1.441 . S
C4013 C4004 1.429 . S
C4013 N4010 1.350 . S
C4013 C4012 1.441 . S
C4014 C4015 1.369 1_545 S
C4014 C4016 1.419 . S
C4014 H4018 0.930 1_545 S
C4015 C4014 1.369 1_565 S
C4015 C4024 1.429 . S
C4016 C4014 1.419 . S
C4016 C4017 1.363 . S
C4016 H4019 0.929 . S
C4017 C4016 1.363 . S
C4017 C4023 1.428 . S
H4018 C4014 0.930 1_565 S
H4019 C4016 0.929 . S
S4020 N4021 1.613 1_545 S
S4020 N4022 1.610 . S
N4021 S4020 1.613 1_565 S
N4021 C4024 1.350 . S
N4022 S4020 1.610 . S
N4022 C4023 1.351 . S
C4023 C4017 1.428 . S
C4023 N4022 1.351 . S
C4023 C4024 1.434 1_545 S
C4024 C4015 1.429 . S
C4024 N4021 1.350 . S
C4024 C4023 1.434 1_565 S
C4025 C4026 1.369 . S
C4025 C4027 1.419 . S
C4025 H4029 0.930 . S
C4026 C4025 1.369 . S
C4026 C4035 1.429 . S
C4027 C4025 1.419 . S
C4027 C4028 1.363 1_455 S
C4027 H4030 0.929 . S
C4028 C4027 1.363 1_655 S
C4028 C4034 1.428 1_655 S
H4029 C4025 0.930 . S
H4030 C4027 0.929 . S
S4031 N4032 1.613 . S
S4031 N4033 1.610 1_455 S
N4032 S4031 1.613 . S
N4032 C4035 1.350 . S
N4033 S4031 1.610 1_655 S
N4033 C4034 1.351 1_655 S
C4034 C4028 1.428 1_455 S
C4034 N4033 1.351 1_455 S
C4034 C4035 1.434 . S
C4035 C4026 1.429 . S
C4035 N4032 1.350 . S
C4035 C4034 1.434 . S
C4036 C4037 1.369 . S
C4036 C4038 1.419 . S
C4036 H4040 0.930 . S
C4037 C4036 1.369 . S
C4037 C4046 1.429 . S
C4038 C4036 1.419 . S
C4038 C4039 1.363 . S
C4038 H4041 0.929 . S
C4039 C4038 1.363 . S
C4039 C4045 1.428 . S
H4040 C4036 0.930 . S
H4041 C4038 0.929 . S
S4042 N4043 1.613 . S
S4042 N4044 1.610 . S
N4043 S4042 1.613 . S
N4043 C4046 1.350 . S
N4044 S4042 1.610 . S
N4044 C4045 1.351 . S
C4045 C4039 1.428 . S
C4045 N4044 1.351 . S
C4045 C4046 1.434 . S
C4046 C4037 1.429 . S
C4046 N4043 1.350 . S
C4046 C4045 1.434 . S
C4047 C4048 1.369 . S
C4047 C4049 1.419 . S
C4047 H4051 0.930 . S
C4048 C4047 1.369 . S
C4048 C4057 1.429 . S
C4049 C4047 1.419 . S
C4049 C4050 1.363 . S
C4049 H4052 0.929 . S
C4050 C4049 1.363 . S
C4050 C4056 1.428 . S
H4051 C4047 0.930 . S
H4052 C4049 0.929 . S
S4053 N4054 1.613 . S
S4053 N4055 1.610 . S
N4054 S4053 1.613 . S
N4054 C4057 1.350 . S
N4055 S4053 1.610 . S
N4055 C4056 1.351 . S
C4056 C4050 1.428 . S
C4056 N4055 1.351 . S
C4056 C4057 1.434 . S
C4057 C4048 1.429 . S
C4057 N4054 1.350 . S
C4057 C4056 1.434 . S
C4058 C4059 1.369 . S
C4058 C4060 1.419 . S
C4058 H4062 0.930 . S
C4059 C4058 1.369 . S
C4059 C4068 1.429 . S
C4060 C4058 1.419 . S
C4060 C4061 1.363 . S
C4060 H4063 0.929 . S
C4061 C4060 1.363 . S
C4061 C4067 1.428 . S
H4062 C4058 0.930 . S
H4063 C4060 0.929 . S
S4064 N4065 1.613 . S
S4064 N4066 1.610 . S
N4065 S4064 1.613 . S
N4065 C4068 1.350 . S
N4066 S4064 1.610 . S
N4066 C4067 1.351 . S
C4067 C4061 1.428 . S
C4067 N4066 1.351 . S
C4067 C4068 1.434 . S
C4068 C4059 1.429 . S
C4068 N4065 1.350 . S
C4068 C4067 1.434 . S
C4069 C4070 1.369 . S
C4069 C4071 1.419 . S
C4069 H4073 0.930 . S
C4070 C4069 1.369 . S
C4070 C4079 1.429 . S
C4071 C4069 1.419 . S
C4071 C4072 1.363 . S
C4071 H4074 0.929 . S
C4072 C4071 1.363 . S
C4072 C4078 1.428 . S
H4073 C4069 0.930 . S
H4074 C4071 0.929 . S
S4075 N4076 1.613 . S
S4075 N4077 1.610 . S
N4076 S4075 1.613 . S
N4076 C4079 1.350 . S
N4077 S4075 1.610 . S
N4077 C4078 1.351 . S
C4078 C4072 1.428 . S
C4078 N4077 1.351 . S
C4078 C4079 1.434 . S
C4079 C4070 1.429 . S
C4079 N4076 1.350 . S
C4079 C4078 1.434 . S
C4080 C4081 1.369 1_545 S
C4080 C4082 1.419 . S
C4080 H4084 0.930 1_545 S
C4081 C4080 1.369 1_565 S
C4081 C4090 1.429 1_565 S
C4082 C4080 1.419 . S
C4082 C4083 1.363 . S
C4082 H4085 0.929 . S
C4083 C4082 1.363 . S
C4083 C4089 1.428 . S
H4084 C4080 0.930 1_565 S
H4085 C4082 0.929 . S
S4086 N4087 1.613 . S
S4086 N4088 1.610 . S
N4087 S4086 1.613 . S
N4087 C4090 1.350 . S
N4088 S4086 1.610 . S
N4088 C4089 1.351 . S
C4089 C4083 1.428 . S
C4089 N4088 1.351 . S
C4089 C4090 1.434 . S
C4090 C4081 1.429 1_545 S
C4090 N4087 1.350 . S
C4090 C4089 1.434 . S
C4091 C4092 1.369 . S
C4091 C4093 1.401 1_655 S
C4091 H4095 0.949 . S
C4092 C4091 1.369 . S
C4092 C4101 1.429 1_655 S
C4093 C4091 1.401 1_455 S
C4093 C4094 1.363 . S
C4093 H4096 0.929 . S
C4094 C4093 1.363 . S
C4094 C4100 1.428 . S
H4095 C4091 0.949 . S
H4096 C4093 0.929 . S
S4097 N4098 1.613 1_455 S
S4097 N4099 1.610 . S
N4098 S4097 1.613 1_655 S
N4098 C4101 1.350 1_655 S
N4099 S4097 1.610 . S
N4099 C4100 1.351 . S
C4100 C4094 1.428 . S
C4100 N4099 1.351 . S
C4100 C4101 1.434 . S
C4101 C4092 1.429 1_455 S
C4101 N4098 1.350 1_455 S
C4101 C4100 1.434 . S
C4102 C4103 1.369 . S
C4102 C4104 1.419 . S
C4102 H4106 0.930 . S
C4103 C4102 1.369 . S
C4103 C4112 1.429 . S
C4104 C4102 1.419 . S
C4104 C4105 1.363 . S
C4104 H4107 0.929 . S
C4105 C4104 1.363 . S
C4105 C4111 1.428 . S
H4106 C4102 0.930 . S
H4107 C4104 0.929 . S
S4108 N4109 1.613 . S
S4108 N4110 1.610 . S
N4109 S4108 1.613 . S
N4109 C4112 1.350 . S
N4110 S4108 1.610 . S
N4110 C4111 1.351 . S
C4111 C4105 1.428 . S
C4111 N4110 1.351 . S
C4111 C4112 1.434 . S
C4112 C4103 1.429 . S
C4112 N4109 1.350 . S
C4112 C4111 1.434 . S
C4113 C4114 1.369 . S
C4113 C4115 1.419 . S
C4113 H4117 0.930 . S
C4114 C4113 1.369 . S
C4114 C4123 1.429 . S
C4115 C4113 1.419 . S
C4115 C4116 1.363 . S
C4115 H4118 0.929 . S
C4116 C4115 1.363 . S
C4116 C4122 1.428 . S
H4117 C4113 0.930 . S
H4118 C4115 0.929 . S
S4119 N4120 1.613 . S
S4119 N4121 1.610 . S
N4120 S4119 1.613 . S
N4120 C4123 1.350 . S
N4121 S4119 1.610 . S
N4121 C4122 1.351 . S
C4122 C4116 1.428 . S
C4122 N4121 1.351 . S
C4122 C4123 1.434 . S
C4123 C4114 1.429 . S
C4123 N4120 1.350 . S
C4123 C4122 1.434 . S
C4124 C4125 1.369 . S
C4124 C4126 1.419 . S
C4124 H4128 0.930 . S
C4125 C4124 1.369 . S
C4125 C4134 1.429 . S
C4126 C4124 1.419 . S
C4126 C4127 1.363 . S
C4126 H4129 0.929 . S
C4127 C4126 1.363 . S
C4127 C4133 1.428 . S
H4128 C4124 0.930 . S
H4129 C4126 0.929 . S
S4130 N4131 1.613 . S
S4130 N4132 1.610 . S
N4131 S4130 1.613 . S
N4131 C4134 1.350 . S
N4132 S4130 1.610 . S
N4132 C4133 1.351 . S
C4133 C4127 1.428 . S
C4133 N4132 1.351 . S
C4133 C4134 1.434 . S
C4134 C4125 1.429 . S
C4134 N4131 1.350 . S
C4134 C4133 1.434 . S
C4135 C4136 1.369 . S
C4135 C4137 1.419 . S
C4135 H4139 0.930 . S
C4136 C4135 1.369 . S
C4136 C4145 1.429 . S
C4137 C4135 1.419 . S
C4137 C4138 1.363 . S
C4137 H4140 0.929 . S
C4138 C4137 1.363 . S
C4138 C4144 1.428 . S
H4139 C4135 0.930 . S
H4140 C4137 0.929 . S
S4141 N4142 1.613 . S
S4141 N4143 1.610 . S
N4142 S4141 1.613 . S
N4142 C4145 1.350 . S
N4143 S4141 1.610 . S
N4143 C4144 1.351 . S
C4144 C4138 1.428 . S
C4144 N4143 1.351 . S
C4144 C4145 1.434 . S
C4145 C4136 1.429 . S
C4145 N4142 1.350 . S
C4145 C4144 1.434 . S
C4146 C4147 1.369 . S
C4146 C4148 1.419 . S
C4146 H4150 0.930 . S
C4147 C4146 1.369 . S
C4147 C4156 1.429 . S
C4148 C4146 1.419 . S
C4148 C4149 1.363 . S
C4148 H4151 0.929 . S
C4149 C4148 1.363 . S
C4149 C4155 1.428 . S
H4150 C4146 0.930 . S
H4151 C4148 0.929 . S
S4152 N4153 1.613 . S
S4152 N4154 1.610 . S
N4153 S4152 1.613 . S
N4153 C4156 1.350 . S
N4154 S4152 1.610 . S
N4154 C4155 1.351 . S
C4155 C4149 1.428 . S
C4155 N4154 1.351 . S
C4155 C4156 1.434 . S
C4156 C4147 1.429 . S
C4156 N4153 1.350 . S
C4156 C4155 1.434 . S
C4157 C4158 1.369 . S
C4157 C4159 1.419 . S
C4157 H4161 0.930 . S
C4158 C4157 1.369 . S
C4158 C4167 1.429 . S
C4159 C4157 1.419 . S
C4159 C4160 1.363 . S
C4159 H4162 0.929 . S
C4160 C4159 1.363 . S
C4160 C4166 1.428 . S
H4161 C4157 0.930 . S
H4162 C4159 0.929 . S
S4163 N4164 1.613 . S
S4163 N4165 1.610 . S
N4164 S4163 1.613 . S
N4164 C4167 1.350 . S
N4165 S4163 1.610 . S
N4165 C4166 1.351 . S
C4166 C4160 1.428 . S
C4166 N4165 1.351 . S
C4166 C4167 1.434 . S
C4167 C4158 1.429 . S
C4167 N4164 1.350 . S
C4167 C4166 1.434 . S
C4168 C4169 1.369 . S
C4168 C4170 1.419 . S
C4168 H4172 0.930 . S
C4169 C4168 1.369 . S
C4169 C4178 1.429 . S
C4170 C4168 1.419 . S
C4170 C4171 1.363 . S
C4170 H4173 0.929 . S
C4171 C4170 1.363 . S
C4171 C4177 1.428 . S
H4172 C4168 0.930 . S
H4173 C4170 0.929 . S
S4174 N4175 1.613 . S
S4174 N4176 1.610 . S
N4175 S4174 1.613 . S
N4175 C4178 1.350 . S
N4176 S4174 1.610 . S
N4176 C4177 1.351 . S
C4177 C4171 1.428 . S
C4177 N4176 1.351 . S
C4177 C4178 1.434 . S
C4178 C4169 1.429 . S
C4178 N4175 1.350 . S
C4178 C4177 1.434 . S
C4179 C4180 1.369 . S
C4179 C4181 1.419 1_655 S
C4179 H4183 0.930 . S
C4180 C4179 1.369 . S
C4180 C4189 1.429 1_655 S
C4181 C4179 1.419 1_455 S
C4181 C4182 1.363 . S
C4181 H4184 0.929 . S
C4182 C4181 1.363 . S
C4182 C4188 1.428 . S
H4183 C4179 0.930 . S
H4184 C4181 0.929 . S
S4185 N4186 1.613 1_455 S
S4185 N4187 1.610 . S
N4186 S4185 1.613 1_655 S
N4186 C4189 1.350 1_655 S
N4187 S4185 1.610 . S
N4187 C4188 1.351 . S
C4188 C4182 1.428 . S
C4188 N4187 1.351 . S
C4188 C4189 1.434 . S
C4189 C4180 1.429 1_455 S
C4189 N4186 1.350 1_455 S
C4189 C4188 1.434 . S
C4190 C4191 1.369 . S
C4190 C4192 1.419 . S
C4190 H4194 0.930 . S
C4191 C4190 1.369 . S
C4191 C4200 1.429 . S
C4192 C4190 1.419 . S
C4192 C4193 1.363 . S
C4192 H4195 0.929 . S
C4193 C4192 1.363 . S
C4193 C4199 1.428 . S
H4194 C4190 0.930 . S
H4195 C4192 0.929 . S
S4196 N4197 1.613 . S
S4196 N4198 1.610 . S
N4197 S4196 1.613 . S
N4197 C4200 1.350 . S
N4198 S4196 1.610 . S
N4198 C4199 1.351 . S
C4199 C4193 1.428 . S
C4199 N4198 1.351 . S
C4199 C4200 1.434 . S
C4200 C4191 1.429 . S
C4200 N4197 1.350 . S
C4200 C4199 1.434 . S
C4201 C4202 1.369 1_545 S
C4201 C4203 1.419 . S
C4201 H4205 0.930 1_545 S
C4202 C4201 1.369 1_565 S
C4202 C4211 1.429 1_565 S
C4203 C4201 1.419 . S
C4203 C4204 1.363 . S
C4203 H4206 0.929 . S
C4204 C4203 1.363 . S
C4204 C4210 1.428 . S
H4205 C4201 0.930 1_565 S
H4206 C4203 0.929 . S
S4207 N4208 1.613 . S
S4207 N4209 1.610 . S
N4208 S4207 1.613 . S
N4208 C4211 1.350 . S
N4209 S4207 1.610 . S
N4209 C4210 1.351 . S
C4210 C4204 1.428 . S
C4210 N4209 1.351 . S
C4210 C4211 1.434 . S
C4211 C4202 1.429 1_545 S
C4211 N4208 1.350 . S
C4211 C4210 1.434 . S
C3025 C2324 1.976 . S
C3027 C56 1.981 . S
C3036 C2408 1.980 . S
C3038 C140 1.977 1_655 S
C3047 C224 1.982 . S
C3049 C2492 1.978 . S
C3058 C308 1.981 . S
C3060 C1064 1.977 . S
C3069 C392 1.980 . S
C3071 C1148 1.976 . S
C3080 C1232 1.977 . S
C3082 C476 1.975 1_565 S
C3091 C572 1.981 1_565 S
C3093 C1832 1.977 . S
C3102 C1916 1.979 . S
C3104 C656 1.975 . S
C3113 C740 1.976 . S
C3115 C2000 1.981 . S
C3124 C2588 1.980 . S
C3126 C824 1.976 1_655 S
C3135 C908 1.980 . S
C3137 C2672 1.980 . S
C3146 C2756 1.974 . S
C3148 C992 1.978 . S
C3157 C2072 1.975 . S
C3159 C1316 1.980 . S
C3168 C1400 1.981 . S
C3170 C2156 1.976 . S
C3179 C2240 1.979 . S
C3181 C1484 1.976 . S
C3190 C1580 1.976 . S
C3192 C2840 1.978 . S
C3201 C1664 1.980 . S
C3203 C2924 1.975 . S
C3212 C3008 1.979 . S
C3214 C1748 1.979 . S
C3223 C68 1.793 . S
C3225 C560 1.785 . S
C3234 C644 1.783 . S
C3236 C152 1.793 . S
C3245 C236 1.783 . S
C3247 C728 1.794 . S
C3256 C812 1.786 . S
C3258 C320 1.791 . S
C3267 C404 1.783 . S
C3269 C896 1.794 . S
C3278 C980 1.793 . S
C3280 C488 1.785 . S
C3289 C1568 1.783 . S
C3291 C1076 1.793 . S
C3300 C1160 1.795 . S
C3302 C1652 1.785 . S
C3311 C1736 1.784 . S
C3313 C1244 1.793 . S
C3322 C1328 1.783 . S
C3324 C1820 1.793 . S
C3333 C1904 1.795 . S
C3335 C1412 1.785 . S
C3344 C1496 1.792 . S
C3346 C1988 1.787 . S
C3355 C2084 1.783 . S
C3357 C2576 1.794 . S
C3366 C2660 1.782 . S
C3368 C2168 1.793 . S
C3377 C2744 1.793 . S
C3379 C2252 1.787 . S
C3388 C2828 1.787 . S
C3390 C2336 1.789 . S
C3399 C2420 1.794 . S
C3401 C2912 1.785 . S
C3410 C2504 1.788 . S
C3412 C2996 1.790 . S
C3421 C58 1.503 . S
C3423 C223 1.666 . S
C3432 C142 1.504 . S
C3434 C55 1.666 . S
C3443 C139 1.661 . S
C3445 C226 1.508 . S
C3454 C310 1.510 . S
C3456 C391 1.665 . S
C3465 C475 1.662 . S
C3467 C394 1.506 . S
C3476 C307 1.661 . S
C3478 C478 1.509 . S
C3487 C739 1.665 . S
C3489 C574 1.502 . S
C3498 C658 1.512 . S
C3500 C571 1.662 . S
C3509 C742 1.507 . S
C3511 C655 1.665 . S
C3520 C907 1.666 . S
C3522 C826 1.506 . S
C3531 C910 1.504 . S
C3533 C991 1.666 . S
C3542 C994 1.504 . S
C3544 C823 1.663 . S
C3553 C1231 1.666 1_545 S
C3555 C1066 1.509 . S
C3564 C1063 1.662 . S
C3566 C1150 1.505 . S
C3575 C1147 1.662 . S
C3577 C1234 1.504 . S
C3586 C1399 1.663 . S
C3588 C1318 1.512 . S
C3597 C1402 1.505 . S
C3599 C1483 1.666 . S
C3608 C1315 1.663 . S
C3610 C1486 1.502 . S
C3619 C1582 1.514 . S
C3621 C1747 1.662 . S
C3630 C1579 1.666 . S
C3632 C1666 1.505 . S
C3641 C1750 1.505 . S
C3643 C1663 1.662 . S
C3652 C1915 1.661 . S
C3654 C1834 1.510 . S
C3663 C1999 1.664 . S
C3665 C1918 1.502 . S
C3674 C1831 1.661 1_545 S
C3676 C2002 1.509 . S
C3685 C2239 1.661 . S
C3687 C2074 1.510 . S
C3696 C2158 1.501 . S
C3698 C2071 1.665 . S
C3707 C2155 1.664 . S
C3709 C2242 1.511 . S
C3718 C2326 1.508 . S
C3720 C2407 1.662 1_455 S
C3729 C2410 1.508 . S
C3731 C2491 1.665 . S
C3740 C2323 1.662 . S
C3742 C2494 1.505 . S
C3751 C2590 1.506 . S
C3753 C2755 1.666 . S
C3762 C2674 1.500 . S
C3764 C2587 1.665 1_455 S
C3773 C2671 1.666 . S
C3775 C2758 1.503 . S
C3784 C2842 1.514 . S
C3786 C2923 1.662 . S
C3795 C3007 1.661 . S
C3797 C2926 1.512 . S
C3806 C2839 1.666 . S
C3808 C3010 1.505 . S
C3817 C235 1.196 . S
C3819 C70 1.071 . S
C3828 C154 1.060 . S
C3830 C67 1.199 . S
C3839 C151 1.198 . S
C3841 C238 1.057 . S
C3850 C403 1.193 . S
C3852 C322 1.072 . S
C3861 C406 1.075 . S
C3863 C487 1.194 . S
C3872 C490 1.056 . S
C3874 C319 1.199 . S
C3883 C727 1.194 . S
C3885 C562 1.073 . S
C3894 C646 1.061 . S
C3896 C559 1.196 . S
C3905 C643 1.197 . S
C3907 C730 1.069 . S
C3916 C895 1.196 . S
C3918 C814 1.071 . S
C3927 C979 1.193 . S
C3929 C898 1.072 . S
C3938 C811 1.194 . S
C3940 C982 1.065 . S
C3949 C1078 1.075 . S
C3951 C1243 1.194 . S
C3960 C1162 1.055 . S
C3962 C1075 1.198 . S
C3971 C1246 1.070 . S
C3973 C1159 1.197 . S
C3982 C1411 1.198 . S
C3984 C1330 1.057 . S
C3993 C1414 1.056 . S
C3995 C1495 1.197 . S
C4004 C1498 1.058 . S
C4006 C1327 1.199 . S
C4015 C1735 1.195 . S
C4017 C1570 1.072 . S
C4026 C1567 1.195 . S
C4028 C1654 1.065 . S
C4037 C1738 1.074 . S
C4039 C1651 1.194 . S
C4048 C1903 1.199 . S
C4050 C1822 1.062 . S
C4059 C1906 1.074 . S
C4061 C1987 1.194 . S
C4070 C1990 1.055 . S
C4072 C1819 1.199 . S
C4081 C2086 1.063 . S
C4083 C2251 1.199 . S
C4092 C2083 1.193 . S
C4094 C2170 1.072 . S
C4103 C2167 1.198 . S
C4105 C2254 1.067 . S
C4114 C2419 1.193 . S
C4116 C2338 1.070 . S
C4125 C2422 1.056 . S
C4127 C2503 1.197 . S
C4136 C2506 1.055 . S
C4138 C2335 1.199 . S
C4147 C2743 1.194 . S
C4149 C2578 1.073 . S
C4158 C2575 1.200 . S
C4160 C2662 1.058 . S
C4169 C2746 1.062 . S
C4171 C2659 1.199 . S
C4180 C2911 1.195 . S
C4182 C2830 1.062 . S
C4191 C2914 1.069 . S
C4193 C2995 1.197 . S
C4202 C2998 1.055 . S
C4204 C2827 1.199 . S
