# Generated by pormake.
# Topology fnu, (5)-cn, num edge types: 1
# Building blocks:
#     Node 0, Type 0, BuildingBlock: XOMCOT_clean_sbu_1, # of connection points: 5
#     Node 1, Type 0, BuildingBlock: XOMCOT_clean_sbu_1, # of connection points: 5
#     Node 2, Type 0, BuildingBlock: XOMCOT_clean_sbu_1, # of connection points: 5
#     Node 3, Type 0, BuildingBlock: XOMCOT_clean_sbu_1, # of connection points: 5
#     Node 4, Type 0, BuildingBlock: XOMCOT_clean_sbu_1, # of connection points: 5
#     Node 5, Type 0, BuildingBlock: XOMCOT_clean_sbu_1, # of connection points: 5
#     Edge 6, Type (0, 0), BuildingBlock: FUNLAD_clean_linker_1, # of connection points: 2
#     Edge 7, Type (0, 0), BuildingBlock: FUNLAD_clean_linker_1, # of connection points: 2
#     Edge 8, Type (0, 0), BuildingBlock: FUNLAD_clean_linker_1, # of connection points: 2
#     Edge 9, Type (0, 0), BuildingBlock: FUNLAD_clean_linker_1, # of connection points: 2
#     Edge 10, Type (0, 0), BuildingBlock: FUNLAD_clean_linker_1, # of connection points: 2
#     Edge 11, Type (0, 0), BuildingBlock: FUNLAD_clean_linker_1, # of connection points: 2
#     Edge 12, Type (0, 0), BuildingBlock: FUNLAD_clean_linker_1, # of connection points: 2
#     Edge 13, Type (0, 0), BuildingBlock: FUNLAD_clean_linker_1, # of connection points: 2
#     Edge 14, Type (0, 0), BuildingBlock: FUNLAD_clean_linker_1, # of connection points: 2
#     Edge 15, Type (0, 0), BuildingBlock: FUNLAD_clean_linker_1, # of connection points: 2
#     Edge 16, Type (0, 0), BuildingBlock: FUNLAD_clean_linker_1, # of connection points: 2
#     Edge 17, Type (0, 0), BuildingBlock: FUNLAD_clean_linker_1, # of connection points: 2
#     Edge 18, Type (0, 0), BuildingBlock: FUNLAD_clean_linker_1, # of connection points: 2
#     Edge 19, Type (0, 0), BuildingBlock: FUNLAD_clean_linker_1, # of connection points: 2
#     Edge 20, Type (0, 0), BuildingBlock: FUNLAD_clean_linker_1, # of connection points: 2
# Relax obj value: 0.194
# Max RMSD: 0.141
# Mean RMSD: 0.141
data_MOF--net-fnu--node1-XOMCOT_clean_sbu_1--edge1-FUNLAD_clean_linker_1
_symmetry_space_group_name_H-M    P1
_symmetry_Int_Tables_number       1
_symmetry_cell_setting            triclinic
loop_
_symmetry_equiv_pos_as_xyz
'x, y, z'
_cell_length_a     27.31205
_cell_length_b     29.2076
_cell_length_c     34.652752
_cell_angle_alpha  90.286256
_cell_angle_beta   95.765378
_cell_angle_gamma 121.2286
loop_
_atom_site_label
_atom_site_type_symbol
_atom_site_fract_x
_atom_site_fract_y
_atom_site_fract_z
_atom_type_partial_charge
C0 C 0.1803 0.07669 0.31947 0.0
C1 C 0.18682 0.07923 0.35938 0.0
N2 N 0.13451 0.05024 0.3714 0.0
N3 N 0.1239 0.04478 0.3057 0.0
C4 C 0.09697 0.03007 0.33836 0.0
H5 H 0.21498 0.09983 0.30239 0.0
Co6 Co 0.08663 0.03163 0.25397 0.0
C7 C 1.03308 0.08559 0.26309 0.0
O8 O 0.99402 0.03663 0.27058 0.0
N9 N 1.04729 1.0188 0.20468 0.0
C10 C 0.97486 0.98301 0.15703 0.0
C11 C 0.99193 0.97921 0.19492 0.0
C12 C 0.06309 0.04638 0.1726 0.0
N13 N 1.01971 0.02503 0.1431 0.0
O14 O 0.1629 0.07436 0.23261 0.0
H15 H 0.96567 0.94981 0.21436 0.0
H16 H 0.10505 0.08184 0.17124 0.0
O17 O 0.08378 0.09584 0.25946 0.0
C18 C 0.20714 0.06985 0.23141 0.0
O19 O 0.20859 0.03016 0.24805 0.0
N20 N 0.08269 0.96496 0.24691 0.0
C21 C 1.03449 0.85693 0.22133 0.0
C22 C 1.02316 0.87068 0.25689 0.0
C23 C 1.04758 0.92494 0.26903 0.0
C24 C 0.09589 0.95192 0.21303 0.0
C25 C 0.07342 0.89847 0.20036 0.0
H26 H 1.03384 0.93451 0.29437 0.0
H27 H 0.11911 0.98235 0.19337 0.0
H28 H 1.05058 1.00646 0.33778 0.0
H29 H 0.22696 0.10265 0.37829 0.0
H30 H 0.93293 0.95675 0.14077 0.0
H31 H 0.99395 0.84012 0.2745 0.0
H32 H 0.08294 0.88976 0.17259 0.0
C33 C 0.94802 1.00269 0.69625 0.0
C34 C 0.93994 0.99251 0.65665 0.0
N35 N 0.99164 1.01191 0.64406 0.0
N36 N 1.00484 0.02749 0.70931 0.0
C37 C 1.0304 0.03349 0.67645 0.0
H38 H 0.91419 0.99529 0.71343 0.0
Co39 Co 1.04335 0.05931 0.75957 0.0
C40 C 0.0816 0.16557 0.74536 0.0
O41 O 0.12908 0.16637 0.74027 0.0
N42 N 0.08391 0.09333 0.80723 0.0
C43 C 0.15815 0.13672 0.85308 0.0
C44 C 0.14142 0.11602 0.81517 0.0
C45 C 0.06647 0.10116 0.84035 0.0
N46 N 0.11097 0.12704 0.86891 0.0
O47 O 0.96814 0.02608 0.78197 0.0
H48 H 0.16905 0.11609 0.79485 0.0
H49 H 1.02188 0.08635 0.84372 0.0
O50 O 1.03621 0.12064 0.74931 0.0
C51 C 0.92705 0.97802 0.78591 0.0
O52 O 0.929 0.93702 0.77224 0.0
N53 N 0.05472 1.0011 0.77184 0.0
C54 C 0.09653 0.93555 0.79936 0.0
C55 C 0.10879 0.95816 0.76324 0.0
C56 C 0.08766 0.99099 0.75015 0.0
C57 C 1.04311 0.97953 0.8072 0.0
C58 C 0.06208 0.94573 0.8208 0.0
H59 H 0.10069 1.01072 0.72363 0.0
H60 H 1.02139 0.99036 0.82634 0.0
H61 H 0.07665 0.05554 0.6762 0.0
H62 H 0.89916 0.97435 0.63816 0.0
H63 H 0.20123 0.15514 0.86846 0.0
H64 H 0.13519 0.95144 0.74549 0.0
H65 H 1.05224 0.92987 0.84907 0.0
C66 C 0.85354 0.38364 0.65194 0.0
C67 C 0.86417 0.38866 0.69188 0.0
N68 N 0.82005 0.38816 0.70638 0.0
N69 N 0.80338 0.38124 0.64101 0.0
C70 C 0.7837 0.38368 0.67493 0.0
H71 H 0.87984 0.37994 0.63232 0.0
Co72 Co 0.7642 0.3685 0.59061 0.0
C73 C 0.72318 0.43431 0.597 0.0
O74 O 0.68113 0.38883 0.60767 0.0
N75 N 0.72356 0.35514 0.54193 0.0
C76 C 0.65037 0.32352 0.49496 0.0
C77 C 0.66668 0.31941 0.53301 0.0
C78 C 0.74102 0.38072 0.50928 0.0
N79 N 0.69725 0.36187 0.48018 0.0
O80 O 0.8381 0.39854 0.56706 0.0
H81 H 0.63886 0.29268 0.55313 0.0
H82 H 0.78455 0.41332 0.50728 0.0
O83 O 0.771 0.43782 0.59295 0.0
C84 C 0.88486 0.44477 0.57153 0.0
O85 O 0.88956 0.48171 0.59601 0.0
N86 N 0.75099 0.29835 0.58722 0.0
C87 C 0.69409 0.18714 0.57012 0.0
C88 C 0.68421 0.20827 0.60288 0.0
C89 C 0.71255 0.26389 0.61065 0.0
C90 C 0.76461 0.2788 0.55679 0.0
C91 C 0.73674 0.22327 0.5478 0.0
H92 H 0.70034 0.27955 0.63374 0.0
H93 H 0.79351 0.30587 0.53734 0.0
H94 H 0.74292 0.38098 0.67638 0.0
H95 H 0.90058 0.39048 0.70907 0.0
H96 H 0.60758 0.29991 0.47918 0.0
H97 H 0.65203 0.18205 0.62105 0.0
H98 H 0.74727 0.20929 0.52278 0.0
C99 C 0.64269 0.29473 0.03471 0.0
C100 C 0.6346 0.29183 0.99472 0.0
N101 N 0.68398 0.32939 0.98198 0.0
N102 N 0.69696 0.33463 0.04745 0.0
C103 C 0.72117 0.35498 0.01454 0.0
H104 H 0.611 0.2685 0.05305 0.0
Co105 Co 0.73325 0.35572 0.0989 0.0
C106 C 0.78249 0.46315 0.09554 0.0
O107 O 0.82441 0.45623 0.08763 0.0
N108 N 0.77319 0.37922 0.14902 0.0
C109 C 0.84107 0.40172 0.19898 0.0
C110 C 0.82105 0.37831 0.16186 0.0
C111 C 0.76741 0.4066 0.17793 0.0
N112 N 0.80669 0.41871 0.2092 0.0
O113 O 0.65442 0.31721 0.11775 0.0
H114 H 0.84024 0.36147 0.14538 0.0
H115 H 0.73466 0.41706 0.17609 0.0
O116 O 0.73268 0.42156 0.09715 0.0
C117 C 0.62927 0.30631 0.14879 0.0
O118 O 0.65996 0.32138 0.18301 0.0
N119 N 0.73856 0.29357 0.10138 0.0
C120 C 0.78688 0.23139 0.12076 0.0
C121 C 0.7994 0.26013 0.08725 0.0
C122 C 0.77535 0.29171 0.07836 0.0
C123 C 0.72121 0.26116 0.13172 0.0
C124 C 0.74542 0.23027 0.14215 0.0
H125 H 0.7904 0.31855 0.05517 0.0
H126 H 0.69363 0.26323 0.15078 0.0
H127 H 0.76532 0.38763 0.01462 0.0
H128 H 0.59558 0.26347 0.97628 0.0
H129 H 0.87675 0.40422 0.21763 0.0
H130 H 0.83105 0.26167 0.06993 0.0
H131 H 0.73398 0.20784 0.16792 0.0
C132 C 0.47662 0.75111 0.98492 0.0
C133 C 0.47162 0.74827 0.02401 0.0
N134 N 0.41527 0.72374 0.02861 0.0
N135 N 0.4239 0.72918 0.9644 0.0
C136 C 0.38732 0.71256 0.99207 0.0
H137 H 0.51659 0.7671 0.97241 0.0
Co138 Co 0.41107 0.72026 0.90923 0.0
C139 C 0.32735 0.75986 0.91609 0.0
O140 O 0.29229 0.72149 0.93684 0.0
N141 N 0.39925 0.71134 0.85533 0.0
C142 C 0.37734 0.71651 0.79278 0.0
C143 C 0.38533 0.73857 0.8296 0.0
C144 C 0.40036 0.67357 0.83351 0.0
N145 N 0.38713 0.67601 0.79539 0.0
O146 O 0.48519 0.78682 0.90588 0.0
H147 H 0.38159 0.77258 0.83684 0.0
H148 H 0.41079 0.64504 0.84541 0.0
O149 O 0.37208 0.76126 0.90652 0.0
C150 C 0.52364 0.78078 0.8924 0.0
O151 O 0.51195 0.73201 0.88389 0.0
N152 N 0.34226 0.65285 0.91033 0.0
C153 C 0.26531 0.54359 0.8883 0.0
C154 C 0.25337 0.58269 0.875 0.0
C155 C 0.29261 0.63714 0.88618 0.0
C156 C 0.35204 0.61515 0.92594 0.0
C157 C 0.31393 0.56051 0.91566 0.0
H158 H 0.28597 0.66662 0.87192 0.0
H159 H 0.39252 0.62764 0.9435 0.0
H160 H 0.34089 0.6906 0.98572 0.0
H161 H 0.50708 0.76275 0.047 0.0
H162 H 0.36756 0.73056 0.76593 0.0
H163 H 0.2163 0.5724 0.85428 0.0
H164 H 0.32498 0.53201 0.92682 0.0
C165 C 0.32816 0.68882 0.3774 0.0
C166 C 0.3196 0.68577 0.33732 0.0
N167 N 0.35941 0.67797 0.32367 0.0
N168 N 0.37247 0.68195 0.38919 0.0
C169 C 0.39075 0.67593 0.35565 0.0
H170 H 0.30605 0.69921 0.39663 0.0
Co171 Co 0.41351 0.69727 0.43941 0.0
C172 C 0.45758 0.80375 0.42579 0.0
O173 O 0.48271 0.79191 0.4005 0.0
N174 N 0.4574 0.7148 0.48702 0.0
C175 C 0.53829 0.74604 0.52709 0.0
C176 C 0.5149 0.74956 0.49107 0.0
C177 C 0.44641 0.69097 0.52089 0.0
N178 N 0.49518 0.70912 0.5456 0.0
O179 O 0.33986 0.66388 0.46448 0.0
H180 H 0.53865 0.77352 0.46833 0.0
H181 H 0.40433 0.65843 0.5262 0.0
O182 O 0.4191 0.76594 0.44343 0.0
C183 C 0.28836 0.62374 0.45472 0.0
O184 O 0.27724 0.59347 0.42299 0.0
N185 N 0.41584 0.63347 0.43698 0.0
C186 C 0.46608 0.57341 0.46016 0.0
C187 C 0.49202 0.61497 0.43512 0.0
C188 C 0.46619 0.64441 0.42401 0.0
C189 C 0.38755 0.59023 0.45872 0.0
C190 C 0.41165 0.55936 0.47007 0.0
H191 H 0.49025 0.6803 0.40882 0.0
H192 H 0.34996 0.58249 0.47151 0.0
H193 H 0.42914 0.67417 0.35451 0.0
H194 H 0.28906 0.69256 0.31994 0.0
H195 H 0.58355 0.76777 0.53848 0.0
H196 H 0.53336 0.62678 0.42576 0.0
H197 H 0.39007 0.52755 0.48934 0.0
H198 H 0.2652 0.15204 0.21279 0.0
C199 C 0.25985 0.11273 0.21568 0.0
H200 H 0.29583 0.06483 0.21043 0.0
H201 H 0.4768 0.2812 0.12012 0.0
H202 H 0.39355 0.26604 0.0769 0.0
H203 H 0.29528 0.1953 0.08789 0.0
H204 H 0.27942 0.14011 0.14275 0.0
C205 C 0.30215 0.10448 0.20721 0.0
C206 C 0.36148 0.14814 0.19925 0.0
C207 C 0.37052 0.17858 0.16593 0.0
C208 C 0.42785 0.21776 0.15834 0.0
C209 C 0.43482 0.2496 0.12634 0.0
C210 C 0.38731 0.2415 0.1014 0.0
C211 C 0.33193 0.20178 0.10767 0.0
C212 C 0.32339 0.17055 0.13945 0.0
H213 H 0.54169 0.2432 0.12129 0.0
C214 C 0.56532 0.2702 0.14695 0.0
H215 H 0.56235 0.29569 0.20301 0.0
H216 H 0.3613 0.09995 0.26693 0.0
H217 H 0.44439 0.11138 0.30793 0.0
H218 H 0.54277 0.17297 0.29181 0.0
H219 H 0.55878 0.22411 0.23481 0.0
C220 C 0.53746 0.26806 0.17778 0.0
C221 C 0.47656 0.22474 0.18289 0.0
C222 C 0.46735 0.19327 0.21564 0.0
C223 C 0.41026 0.15601 0.22416 0.0
C224 C 0.4033 0.12739 0.25816 0.0
C225 C 0.45072 0.13378 0.2822 0.0
C226 C 0.50611 0.1686 0.2732 0.0
C227 C 0.51461 0.19801 0.24043 0.0
H228 H 1.04641 0.16597 0.25107 0.0
C229 C 1.01457 0.12334 0.25036 0.0
H230 H 0.92838 0.06134 0.23408 0.0
H231 H 0.78515 0.16846 0.22613 0.0
H232 H 0.75598 0.11833 0.28335 0.0
H233 H 0.80931 0.07797 0.31335 0.0
H234 H 0.89186 0.08706 0.28595 0.0
C235 C 0.95941 0.10424 0.23503 0.0
C236 C 0.93567 0.13805 0.22074 0.0
C237 C 0.8886 0.13416 0.23777 0.0
C238 C 0.85891 0.15892 0.22114 0.0
C239 C 0.81045 0.15195 0.23801 0.0
C240 C 0.79294 0.12297 0.27084 0.0
C241 C 0.82286 0.10014 0.28766 0.0
C242 C 0.87005 0.10547 0.27147 0.0
H243 H 0.8254 0.18124 0.11411 0.0
C244 C 0.81988 0.2059 0.1347 0.0
H245 H 0.84108 0.24167 0.19149 0.0
H246 H 1.02073 0.15037 0.17806 0.0
H247 H 0.0555 0.20723 0.12458 0.0
H248 H 1.01175 0.25888 0.10074 0.0
H249 H 0.93187 0.25309 0.12989 0.0
C250 C 0.84577 0.21565 0.17161 0.0
C251 C 0.87724 0.18921 0.18801 0.0
C252 C 0.92641 0.19569 0.17224 0.0
C253 C 0.9543 0.16855 0.1877 0.0
C254 C 0.99989 0.17214 0.16908 0.0
C255 C 1.02002 0.20432 0.138 0.0
C256 C 0.99525 0.23329 0.12452 0.0
C257 C 0.94902 0.22921 0.14132 0.0
H258 H 0.76191 0.52158 0.11902 0.0
C259 C 0.79667 0.51638 0.11196 0.0
H260 H 0.88674 0.54945 0.11733 0.0
H261 H 0.91552 0.78331 0.14585 0.0
H262 H 0.87558 0.77183 0.07824 0.0
H263 H 0.83285 0.68478 0.04092 0.0
H264 H 0.82934 0.60842 0.07105 0.0
C265 C 0.85207 0.55588 0.12241 0.0
C266 C 0.86958 0.60622 0.146 0.0
C267 C 0.87122 0.65045 0.12808 0.0
C268 C 0.89689 0.70107 0.14949 0.0
C269 C 0.89755 0.74435 0.13082 0.0
C270 C 0.87459 0.73825 0.09206 0.0
C271 C 0.85046 0.6892 0.07106 0.0
C272 C 0.84872 0.64569 0.08869 0.0
H273 H 1.0247 0.79229 0.18151 0.0
C274 C 1.00451 0.80069 0.20377 0.0
H275 H 0.92879 0.76819 0.23182 0.0
H276 H 0.87129 0.52949 0.18992 0.0
H277 H 0.91119 0.54112 0.25765 0.0
H278 H 0.95397 0.62811 0.2948 0.0
H279 H 0.95893 0.70484 0.26429 0.0
C280 C 0.95147 0.76142 0.21067 0.0
C281 C 0.92139 0.70763 0.18877 0.0
C282 C 0.91737 0.66278 0.20717 0.0
C283 C 0.892 0.61229 0.18574 0.0
C284 C 0.89016 0.5687 0.20474 0.0
C285 C 0.91263 0.57473 0.24362 0.0
C286 C 0.93688 0.6238 0.26455 0.0
C287 C 0.93941 0.66748 0.2467 0.0
H288 H 1.04465 0.21483 0.75982 0.0
C289 C 0.08445 0.2163 0.75606 0.0
H290 H 0.1754 0.26368 0.76252 0.0
H291 H 0.2261 0.49639 0.77385 0.0
H292 H 0.24447 0.49046 0.7077 0.0
H293 H 0.21518 0.40322 0.67515 0.0
H294 H 0.1679 0.32128 0.7089 0.0
C295 C 0.13556 0.26213 0.76626 0.0
C296 C 0.14173 0.3123 0.7835 0.0
C297 C 0.16805 0.35986 0.76329 0.0
C298 C 0.18362 0.41009 0.78182 0.0
C299 C 0.21199 0.45697 0.76113 0.0
C300 C 0.22306 0.45423 0.72308 0.0
C301 C 0.20669 0.40513 0.70479 0.0
C302 C 0.17976 0.35844 0.72454 0.0
H303 H 0.24669 0.46016 0.88421 0.0
C304 C 0.23284 0.48641 0.87193 0.0
H305 H 0.17873 0.49168 0.82622 0.0
H306 H 0.0932 0.22969 0.83181 0.0
H307 H 0.06728 0.23424 0.89567 0.0
H308 H 0.0872 0.31986 0.92576 0.0
H309 H 0.13344 0.40168 0.89177 0.0
C310 C 0.1924 0.4666 0.84055 0.0
C311 C 0.17201 0.41286 0.82056 0.0
C312 C 0.14239 0.36475 0.83995 0.0
C313 C 0.12854 0.31473 0.82185 0.0
C314 C 0.10267 0.26829 0.84319 0.0
C315 C 0.08797 0.2704 0.8802 0.0
C316 C 0.09921 0.31862 0.89711 0.0
C317 C 0.12612 0.36535 0.87738 0.0
H318 H 0.61101 0.84952 0.9132 0.0
C319 C 0.58212 0.82629 0.88742 0.0
H320 H 0.57144 0.80544 0.82815 0.0
H321 H 0.85113 1.00621 0.86174 0.0
H322 H 0.82006 0.06062 0.89152 0.0
H323 H 0.71747 0.02351 0.89874 0.0
H324 H 0.64559 0.93103 0.87765 0.0
C325 C 0.60239 0.83028 0.8528 0.0
C326 C 0.66524 0.85611 0.84732 0.0
C327 C 0.70616 0.91146 0.85708 0.0
C328 C 0.76499 0.93425 0.85 0.0
C329 C 0.80562 0.98791 0.86389 0.0
C330 C 0.78841 1.01947 0.88143 0.0
C331 C 0.73067 0.99848 0.88569 0.0
C332 C 0.68986 0.94515 0.87372 0.0
H333 H 0.85714 0.99383 0.79324 0.0
C334 C 0.87351 0.96788 0.80116 0.0
H335 H 0.8617 0.90041 0.82953 0.0
H336 H 0.60265 0.74702 0.83073 0.0
H337 H 0.6305 0.69504 0.7945 0.0
H338 H 0.72654 0.73778 0.77192 0.0
H339 H 0.79571 0.8323 0.78653 0.0
C340 C 0.84326 0.92486 0.82182 0.0
C341 C 0.78191 0.90309 0.82976 0.0
C342 C 0.74027 0.84823 0.81878 0.0
C343 C 0.68322 0.82435 0.82919 0.0
C344 C 0.64504 0.76827 0.82119 0.0
C345 C 0.66071 0.73762 0.8008 0.0
C346 C 0.71481 0.76161 0.78827 0.0
C347 C 0.75432 0.81605 0.79718 0.0
H348 H 0.09583 0.87497 0.83798 0.0
C349 C 0.1194 0.90235 0.81638 0.0
H350 H 0.19685 0.93774 0.79052 0.0
H351 H 0.32863 0.88812 0.93019 0.0
H352 H 0.37338 0.98436 0.94065 0.0
H353 H 0.33701 0.03312 0.90139 0.0
H354 H 0.25526 0.98582 0.85157 0.0
C355 C 0.16986 0.90776 0.80954 0.0
C356 C 0.19375 0.87806 0.83166 0.0
C357 C 0.24268 0.9063 0.86002 0.0
C358 C 0.26443 0.87818 0.88228 0.0
C359 C 0.31145 0.90741 0.91164 0.0
C360 C 0.33732 0.96271 0.91817 0.0
C361 C 0.31679 0.99016 0.89609 0.0
C362 C 0.2699 0.96249 0.86749 0.0
H363 H 0.34013 0.8264 0.8796 0.0
C364 C 0.31061 0.79644 0.89764 0.0
H365 H 0.22791 0.75935 0.91606 0.0
H366 H 0.10284 0.81206 0.77746 0.0
H367 H 0.05897 0.71597 0.76602 0.0
H368 H 0.0966 0.66732 0.80415 0.0
H369 H 0.17836 0.71436 0.8539 0.0
C370 C 0.25874 0.79096 0.89964 0.0
C371 C 0.23812 0.82178 0.87559 0.0
C372 C 0.18984 0.79375 0.84666 0.0
C373 C 0.16782 0.82182 0.82469 0.0
C374 C 0.12053 0.7927 0.79549 0.0
C375 C 0.09513 0.73754 0.78845 0.0
C376 C 0.11633 0.71015 0.80991 0.0
C377 C 0.16319 0.73769 0.83856 0.0
H378 H 0.92765 0.42618 0.52777 0.0
C379 C 0.93406 0.4565 0.54935 0.0
H380 H 0.99291 0.53282 0.57758 0.0
H381 H 0.22479 0.55318 0.54079 0.0
H382 H 0.22532 0.53344 0.60849 0.0
H383 H 0.14023 0.50646 0.64254 0.0
H384 H 1.05355 0.49833 0.60887 0.0
C385 C 0.98576 0.50331 0.55502 0.0
C386 C 1.03626 0.5167 0.53309 0.0
C387 C 0.08768 0.52297 0.55315 0.0
C388 C 0.13762 0.53985 0.53358 0.0
C389 C 0.18659 0.54258 0.55426 0.0
C390 C 0.18734 0.53091 0.59317 0.0
C391 C 0.13939 0.51565 0.61234 0.0
C392 C 0.09 0.51141 0.59269 0.0
H393 H 0.25047 0.63785 0.50424 0.0
C394 C 0.24123 0.61052 0.47945 0.0
H395 H 0.17855 0.5397 0.44626 0.0
H396 H 0.94716 0.51205 0.48578 0.0
H397 H 0.94639 0.532 0.41812 0.0
H398 H 1.03239 0.56171 0.38445 0.0
H399 H 0.11985 0.57192 0.41827 0.0
C400 C 0.18764 0.5661 0.47164 0.0
C401 C 0.13718 0.55213 0.4939 0.0
C402 C 0.08564 0.54584 0.47387 0.0
C403 C 1.03554 0.52834 0.49334 0.0
C404 C 0.98586 0.52408 0.47247 0.0
C405 C 0.98489 0.53569 0.43358 0.0
C406 C 1.03331 0.55241 0.41462 0.0
C407 C 0.08321 0.55777 0.43439 0.0
H408 H 0.7446 0.51146 0.5713 0.0
C409 C 0.70989 0.47421 0.58055 0.0
H410 H 0.62012 0.42456 0.58219 0.0
H411 H 0.53136 0.58055 0.55463 0.0
H412 H 0.52517 0.57003 0.62356 0.0
H413 H 0.56961 0.52585 0.66026 0.0
H414 H 0.62097 0.49229 0.62823 0.0
C415 C 0.6546 0.4618 0.57272 0.0
C416 C 0.63594 0.4958 0.55129 0.0
C417 C 0.60564 0.5151 0.5702 0.0
C418 C 0.57925 0.54001 0.54887 0.0
C419 C 0.5508 0.56003 0.56902 0.0
C420 C 0.54725 0.5546 0.60871 0.0
C421 C 0.5723 0.52975 0.62937 0.0
C422 C 0.60138 0.51039 0.61056 0.0
H423 H 0.46933 0.50806 0.49057 0.0
C424 C 0.49585 0.54668 0.47872 0.0
H425 H 0.5819 0.60953 0.47506 0.0
H426 H 0.68822 0.4618 0.50463 0.0
H427 H 0.69633 0.47481 0.43617 0.0
H428 H 0.65329 0.5203 0.4 0.0
H429 H 0.60101 0.55276 0.43207 0.0
C430 C 0.55384 0.5704 0.48551 0.0
C431 C 0.58231 0.54509 0.50832 0.0
C432 C 0.61444 0.52775 0.48967 0.0
C433 C 0.64055 0.50245 0.51091 0.0
C434 C 0.6692 0.48282 0.49061 0.0
C435 C 0.67388 0.48964 0.45111 0.0
C436 C 0.64957 0.51525 0.43071 0.0
C437 C 0.61984 0.53384 0.44952 0.0
H438 H 0.50842 0.89043 0.41794 0.0
C439 C 0.4824 0.86115 0.43776 0.0
H440 H 0.46135 0.84951 0.49517 0.0
H441 H 0.69457 0.0597 0.56377 0.0
H442 H 0.70716 0.98931 0.59001 0.0
H443 H 0.63603 0.89412 0.57037 0.0
H444 H 0.55214 0.86876 0.52413 0.0
C445 C 0.48329 0.87855 0.47406 0.0
C446 C 0.52336 0.93637 0.48829 0.0
C447 C 0.57161 0.95078 0.51632 0.0
C448 C 0.61231 1.00588 0.52822 0.0
C449 C 0.66141 1.01872 0.55463 0.0
C450 C 0.66944 0.97866 0.56973 0.0
C451 C 0.62944 0.92507 0.55864 0.0
C452 C 0.58127 0.91108 0.53211 0.0
H453 H 0.63309 0.10231 0.58175 0.0
C454 C 0.65718 0.12798 0.55955 0.0
H455 H 0.6678 0.13012 0.49988 0.0
H456 H 0.4332 0.92304 0.4373 0.0
H457 H 0.41961 0.99327 0.41158 0.0
H458 H 0.48976 0.08843 0.43196 0.0
H459 H 0.5738 0.11404 0.47827 0.0
C460 C 0.6479 0.10519 0.52343 0.0
C461 C 0.60423 0.04681 0.51277 0.0
C462 C 0.55524 0.03222 0.48538 0.0
C463 C 0.51482 0.97716 0.47331 0.0
C464 C 0.46583 0.96412 0.44672 0.0
C465 C 0.4573 1.00403 0.43193 0.0
C466 C 0.49678 0.05761 0.44343 0.0
C467 C 0.54506 0.07176 0.46993 0.0
H468 H 0.962 0.99422 0.58199 0.0
C469 C 1.00003 1.01178 0.60346 0.0
H470 H 0.09074 0.04848 0.61115 0.0
H471 H 0.09792 0.9542 0.44731 0.0
H472 H 0.12197 0.90279 0.49151 0.0
H473 H 0.11692 0.90928 0.56182 0.0
H474 H 0.08748 0.96704 0.58841 0.0
C475 C 1.05197 0.03244 0.59065 0.0
C476 C 0.05727 0.03055 0.54797 0.0
C477 C 0.0757 0.99748 0.53279 0.0
C478 C 0.07946 0.99434 0.49215 0.0
C479 C 0.09587 0.95932 0.47791 0.0
C480 C 0.10939 0.92925 0.50295 0.0
C481 C 0.10648 0.93285 0.54253 0.0
C482 C 0.08963 0.96629 0.55742 0.0
H483 H 0.16215 0.06351 0.43376 0.0
C484 C 0.12465 0.04617 0.41185 0.0
H485 H 1.0339 1.00866 0.40308 0.0
H486 H 1.02568 0.10191 0.5672 0.0
H487 H 1.00151 0.15315 0.52298 0.0
H488 H 1.00609 0.14628 0.45263 0.0
H489 H 1.03527 0.08834 0.42606 0.0
C490 C 0.07214 0.024 0.42401 0.0
C491 C 0.06582 0.02507 0.46655 0.0
C492 C 1.04725 0.05804 0.48171 0.0
C493 C 1.0436 0.06127 0.52236 0.0
C494 C 1.02747 0.09652 0.53659 0.0
C495 C 1.0139 0.12655 0.51154 0.0
C496 C 1.01657 0.12274 0.47194 0.0
C497 C 1.03326 0.08919 0.45706 0.0
H498 H 0.65428 0.31708 0.91987 0.0
C499 C 0.69217 0.3375 0.94139 0.0
H500 H 0.78328 0.3848 0.9492 0.0
H501 H 0.78635 0.29846 0.77936 0.0
H502 H 0.8094 0.24292 0.81935 0.0
H503 H 0.80662 0.24481 0.89022 0.0
H504 H 0.77989 0.30185 0.92146 0.0
C505 C 0.74429 0.36635 0.92872 0.0
C506 C 0.75011 0.36872 0.88605 0.0
C507 C 0.768 0.33686 0.86822 0.0
C508 C 0.77146 0.33716 0.82736 0.0
C509 C 0.78563 0.30196 0.81032 0.0
C510 C 0.79838 0.26933 0.83293 0.0
C511 C 0.79668 0.27029 0.87281 0.0
C512 C 0.78138 0.30331 0.89038 0.0
H513 H 0.85254 0.40135 0.76802 0.0
C514 C 0.81454 0.38948 0.74742 0.0
H515 H 0.72537 0.36083 0.74158 0.0
H516 H 0.71632 0.43588 0.91078 0.0
H517 H 0.69412 0.49247 0.87106 0.0
H518 H 0.70187 0.49452 0.80072 0.0
H519 H 0.73181 0.44003 0.76954 0.0
C520 C 0.76398 0.37278 0.76143 0.0
C521 C 0.75934 0.37115 0.80437 0.0
C522 C 0.74148 0.40305 0.82231 0.0
C523 C 0.7369 0.40184 0.86304 0.0
C524 C 0.71981 0.43477 0.88001 0.0
C525 C 0.70716 0.4676 0.85757 0.0
C526 C 0.71155 0.46876 0.81796 0.0
C527 C 0.72864 0.43712 0.8004 0.0
H528 H 0.41312 0.68206 0.27951 0.0
C529 C 0.37349 0.68045 0.28423 0.0
H530 H 0.30072 0.68067 0.25674 0.0
H531 H 0.46619 0.81509 0.12619 0.0
H532 H 0.49907 0.89008 0.17313 0.0
H533 H 0.46844 0.87525 0.2388 0.0
H534 H 0.4048 0.7853 0.25803 0.0
C535 C 0.34094 0.68299 0.25331 0.0
C536 C 0.35998 0.69159 0.21355 0.0
C537 C 0.39715 0.74436 0.20261 0.0
C538 C 0.41495 0.75287 0.16466 0.0
C539 C 0.45187 0.80617 0.15469 0.0
C540 C 0.47089 0.84964 0.1813 0.0
C541 C 0.45362 0.8413 0.21828 0.0
C542 C 0.41713 0.78942 0.22894 0.0
H543 H 0.34317 0.69471 0.06337 0.0
C544 C 0.38924 0.71084 0.06457 0.0
H545 H 0.46639 0.73504 0.10136 0.0
H546 H 0.28661 0.58588 0.22433 0.0
H547 H 0.25419 0.51043 0.17773 0.0
H548 H 0.28706 0.52471 0.11271 0.0
H549 H 0.35196 0.61434 0.09361 0.0
C550 C 0.42027 0.7182 0.09947 0.0
C551 C 0.39558 0.70865 0.13742 0.0
C552 C 0.35781 0.65582 0.14825 0.0
C553 C 0.33963 0.64742 0.18616 0.0
C554 C 0.30185 0.59437 0.19607 0.0
C555 C 0.28301 0.55076 0.16963 0.0
C556 C 0.30148 0.55881 0.13299 0.0
C557 C 0.33859 0.61057 0.12233 0.0
H558 H 0.97857 0.02322 0.08558 0.0
C559 C 1.01961 0.04105 0.10404 0.0
H560 H 0.11022 0.09152 0.10603 0.0
H561 H 1.01456 1.01245 0.9189 0.0
H562 H 0.98836 0.9238 0.93838 0.0
H563 H 0.99987 0.90749 1.00756 0.0
H564 H 1.03704 0.97958 0.05755 0.0
C565 C 0.06851 0.07314 0.08857 0.0
C566 C 0.06679 0.08376 0.04678 0.0
C567 C 1.04613 0.04113 0.0179 0.0
C568 C 1.04114 0.05084 0.97804 0.0
C569 C 1.01967 1.00751 0.94969 0.0
C570 C 1.00451 0.95634 0.96044 0.0
C571 C 1.01086 0.94714 0.99936 0.0
C572 C 1.03169 0.98888 0.02784 0.0
H573 H 0.14949 0.14982 0.92909 0.0
C574 C 0.10939 0.1338 0.90977 0.0
H575 H 1.01867 0.09551 0.90719 0.0
H576 H 0.11145 0.17463 0.09482 0.0
H577 H 0.14086 0.26413 0.07503 0.0
H578 H 0.13317 0.28103 1.00559 0.0
H579 H 0.09592 0.20841 0.95563 0.0
C580 C 0.05976 0.11372 0.92535 0.0
C581 C 0.05916 0.1035 0.96714 0.0
C582 C 0.08102 0.14628 0.99588 0.0
C583 C 0.08507 0.13642 0.03582 0.0
C584 C 0.10711 0.17985 0.06403 0.0
C585 C 0.12425 0.23142 0.05306 0.0
C586 C 0.11996 0.24095 0.01398 0.0
C587 C 0.09865 0.19901 0.98559 0.0
H588 H 0.84157 0.44208 0.26991 0.0
C589 C 0.80633 0.43522 0.2482 0.0
H590 H 0.72167 0.42108 0.23981 0.0
H591 H 0.6992 0.30336 0.39789 0.0
H592 H 0.65269 0.22741 0.35066 0.0
H593 H 0.64984 0.24054 0.2804 0.0
H594 H 0.69363 0.32986 0.25727 0.0
C595 C 0.75925 0.43142 0.26023 0.0
C596 C 0.75152 0.42484 0.30191 0.0
C597 C 0.72259 0.37226 0.31497 0.0
C598 C 0.72254 0.36477 0.35538 0.0
C599 C 0.69784 0.31173 0.3676 0.0
C600 C 0.67156 0.26756 0.34073 0.0
C601 C 0.67 0.27492 0.30122 0.0
C602 C 0.69536 0.32651 0.28833 0.0
H603 H 0.65831 0.36178 0.42224 0.0
C604 C 0.69893 0.37651 0.44067 0.0
H605 H 0.78977 0.41771 0.44236 0.0
H606 H 0.80782 0.53024 0.28569 0.0
H607 H 0.85434 0.60724 0.33277 0.0
H608 H 0.85229 0.59471 0.40313 0.0
H609 H 0.80415 0.50536 0.42686 0.0
C610 C 0.74856 0.40262 0.42482 0.0
C611 C 0.74882 0.41009 0.38252 0.0
C612 C 0.77689 0.46267 0.36933 0.0
C613 C 0.77819 0.47 0.32887 0.0
C614 C 0.80638 0.52273 0.31623 0.0
C615 C 0.83292 0.56714 0.34291 0.0
C616 C 0.83173 0.56008 0.38252 0.0
C617 C 0.80401 0.50856 0.39575 0.0
H618 H 0.54453 0.70062 0.59546 0.0
C619 C 0.50197 0.69169 0.5833 0.0
H620 H 0.41605 0.66128 0.59357 0.0
H621 H 0.38333 0.53551 0.73854 0.0
H622 H 0.33059 0.46113 0.68896 0.0
H623 H 0.34028 0.47694 0.61944 0.0
H624 H 0.40295 0.56688 0.59898 0.0
C625 C 0.45871 0.67032 0.60533 0.0
C626 C 0.46636 0.659 0.64642 0.0
C627 C 0.43116 0.60601 0.65767 0.0
C628 C 0.42569 0.59665 0.69755 0.0
C629 C 0.38846 0.54408 0.70834 0.0
C630 C 0.35824 0.50136 0.68027 0.0
C631 C 0.36381 0.51027 0.64112 0.0
C632 C 0.39967 0.56197 0.62974 0.0
H633 H 0.36879 0.64834 0.73487 0.0
C634 C 0.39109 0.64839 0.76277 0.0
H635 H 0.45949 0.64155 0.79005 0.0
H636 H 0.54194 0.76671 0.63602 0.0
H637 H 0.60188 0.83652 0.6863 0.0
H638 H 0.59761 0.81729 0.7555 0.0
H639 H 0.53164 0.72736 0.77436 0.0
C640 C 0.43301 0.63722 0.76311 0.0
C641 C 0.45613 0.64001 0.7258 0.0
C642 C 0.49806 0.69121 0.7151 0.0
C643 C 0.50199 0.70153 0.67522 0.0
C644 C 0.539 0.75508 0.66556 0.0
C645 C 0.57343 0.79606 0.69432 0.0
C646 C 0.57092 0.7853 0.73327 0.0
C647 C 0.53314 0.73368 0.74369 0.0
loop_
_geom_bond_atom_site_label_1
_geom_bond_atom_site_label_2
_geom_bond_distance
_geom_bond_site_symmetry_2
_ccdc_geom_bond_type
C0 C1 1.351 . S
C0 N3 1.368 . S
C0 H5 0.931 . S
C1 C0 1.351 . S
C1 N2 1.373 . S
C1 H29 0.930 . S
N2 C1 1.373 . S
N2 C4 1.340 . S
N3 C0 1.368 . S
N3 C4 1.321 . S
N3 Co6 2.135 . S
C4 N2 1.340 . S
C4 N3 1.321 . S
C4 H28 0.930 . S
H5 C0 0.931 . S
Co6 N3 2.135 . S
Co6 N9 2.121 . S
Co6 O14 2.055 . S
Co6 O17 2.039 . S
Co6 N20 2.140 1_445 S
C7 O8 1.227 . S
C7 O17 1.265 1_655 S
O8 C7 1.227 . S
N9 Co6 2.121 . S
N9 C11 1.375 1_455 S
N9 C12 1.313 . S
C10 C11 1.338 . S
C10 N13 1.377 1_655 S
C10 H30 0.930 . S
C11 N9 1.375 1_655 S
C11 C10 1.338 . S
C11 H15 0.931 . S
C12 N9 1.313 . S
C12 N13 1.344 . S
C12 H16 0.930 . S
N13 C10 1.377 1_455 S
N13 C12 1.344 . S
O14 Co6 2.055 . S
O14 C18 1.253 . S
H15 C11 0.931 . S
H16 C12 0.930 . S
O17 Co6 2.039 . S
O17 C7 1.265 1_455 S
C18 O14 1.253 . S
C18 O19 1.227 . S
O19 C18 1.227 . S
N20 Co6 2.140 1_665 S
N20 C23 1.346 . S
N20 C24 1.345 . S
C21 C22 1.387 . S
C21 C25 1.391 . S
C22 C21 1.387 . S
C22 C23 1.369 . S
C22 H31 0.929 . S
C23 N20 1.346 . S
C23 C22 1.369 . S
C23 H26 0.928 . S
C24 N20 1.345 . S
C24 C25 1.371 . S
C24 H27 0.931 1_655 S
C25 C21 1.391 . S
C25 C24 1.371 . S
C25 H32 0.930 . S
H26 C23 0.928 . S
H27 C24 0.931 1_455 S
H28 C4 0.930 . S
H29 C1 0.930 . S
H30 C10 0.930 . S
H31 C22 0.929 . S
H32 C25 0.930 . S
C33 C34 1.351 . S
C33 N36 1.368 1_565 S
C33 H38 0.931 . S
C34 C33 1.351 . S
C34 N35 1.373 1_565 S
C34 H62 0.930 . S
N35 C34 1.373 1_545 S
N35 C37 1.340 1_655 S
N36 C33 1.368 1_545 S
N36 C37 1.321 1_655 S
N36 Co39 2.135 . S
C37 N35 1.340 1_455 S
C37 N36 1.321 1_455 S
C37 H61 0.930 . S
H38 C33 0.931 . S
Co39 N36 2.135 . S
Co39 N42 2.121 1_655 S
Co39 O47 2.055 1_545 S
Co39 O50 2.039 1_655 S
Co39 N53 2.140 1_645 S
C40 O41 1.227 . S
C40 O50 1.265 . S
O41 C40 1.227 . S
N42 Co39 2.121 1_455 S
N42 C44 1.375 . S
N42 C45 1.313 1_455 S
C43 C44 1.338 . S
C43 N46 1.377 . S
C43 H63 0.930 . S
C44 N42 1.375 . S
C44 C43 1.338 . S
C44 H48 0.931 . S
C45 N42 1.313 1_655 S
C45 N46 1.344 1_655 S
C45 H49 0.930 1_545 S
N46 C43 1.377 . S
N46 C45 1.344 1_455 S
O47 Co39 2.055 1_565 S
O47 C51 1.253 . S
H48 C44 0.931 . S
H49 C45 0.930 1_565 S
O50 Co39 2.039 1_455 S
O50 C40 1.265 . S
C51 O47 1.253 . S
C51 O52 1.227 . S
O52 C51 1.227 . S
N53 Co39 2.140 1_465 S
N53 C56 1.346 . S
N53 C57 1.345 . S
C54 C55 1.387 . S
C54 C58 1.391 . S
C55 C54 1.387 . S
C55 C56 1.369 . S
C55 H64 0.929 . S
C56 N53 1.346 . S
C56 C55 1.369 . S
C56 H59 0.928 1_565 S
C57 N53 1.345 . S
C57 C58 1.371 . S
C57 H60 0.931 . S
C58 C54 1.391 . S
C58 C57 1.371 . S
C58 H65 0.930 . S
H59 C56 0.928 1_545 S
H60 C57 0.931 . S
H61 C37 0.930 . S
H62 C34 0.930 . S
H63 C43 0.930 . S
H64 C55 0.929 . S
H65 C58 0.930 . S
C66 C67 1.351 . S
C66 N69 1.368 . S
C66 H71 0.931 . S
C67 C66 1.351 . S
C67 N68 1.373 . S
C67 H95 0.930 . S
N68 C67 1.373 . S
N68 C70 1.340 . S
N69 C66 1.368 . S
N69 C70 1.321 . S
N69 Co72 2.135 . S
C70 N68 1.340 . S
C70 N69 1.321 . S
C70 H94 0.930 . S
H71 C66 0.931 . S
Co72 N69 2.135 . S
Co72 N75 2.121 . S
Co72 O80 2.055 . S
Co72 O83 2.039 . S
Co72 N86 2.140 . S
C73 O74 1.227 . S
C73 O83 1.265 . S
O74 C73 1.227 . S
N75 Co72 2.121 . S
N75 C77 1.375 . S
N75 C78 1.313 . S
C76 C77 1.338 . S
C76 N79 1.377 . S
C76 H96 0.930 . S
C77 N75 1.375 . S
C77 C76 1.338 . S
C77 H81 0.931 . S
C78 N75 1.313 . S
C78 N79 1.344 . S
C78 H82 0.930 . S
N79 C76 1.377 . S
N79 C78 1.344 . S
O80 Co72 2.055 . S
O80 C84 1.253 . S
H81 C77 0.931 . S
H82 C78 0.930 . S
O83 Co72 2.039 . S
O83 C73 1.265 . S
C84 O80 1.253 . S
C84 O85 1.227 . S
O85 C84 1.227 . S
N86 Co72 2.140 . S
N86 C89 1.346 . S
N86 C90 1.345 . S
C87 C88 1.387 . S
C87 C91 1.391 . S
C88 C87 1.387 . S
C88 C89 1.369 . S
C88 H97 0.929 . S
C89 N86 1.346 . S
C89 C88 1.369 . S
C89 H92 0.928 . S
C90 N86 1.345 . S
C90 C91 1.371 . S
C90 H93 0.931 . S
C91 C87 1.391 . S
C91 C90 1.371 . S
C91 H98 0.930 . S
H92 C89 0.928 . S
H93 C90 0.931 . S
H94 C70 0.930 . S
H95 C67 0.930 . S
H96 C76 0.930 . S
H97 C88 0.929 . S
H98 C91 0.930 . S
C99 C100 1.351 . S
C99 N102 1.368 . S
C99 H104 0.931 . S
C100 C99 1.351 . S
C100 N101 1.373 1_554 S
C100 H128 0.930 1_554 S
N101 C100 1.373 1_556 S
N101 C103 1.340 1_556 S
N102 C99 1.368 . S
N102 C103 1.321 . S
N102 Co105 2.135 . S
C103 N101 1.340 1_554 S
C103 N102 1.321 . S
C103 H127 0.930 . S
H104 C99 0.931 . S
Co105 N102 2.135 . S
Co105 N108 2.121 . S
Co105 O113 2.055 . S
Co105 O116 2.039 . S
Co105 N119 2.140 . S
C106 O107 1.227 . S
C106 O116 1.265 . S
O107 C106 1.227 . S
N108 Co105 2.121 . S
N108 C110 1.375 . S
N108 C111 1.313 . S
C109 C110 1.338 . S
C109 N112 1.377 . S
C109 H129 0.930 . S
C110 N108 1.375 . S
C110 C109 1.338 . S
C110 H114 0.931 . S
C111 N108 1.313 . S
C111 N112 1.344 . S
C111 H115 0.930 . S
N112 C109 1.377 . S
N112 C111 1.344 . S
O113 Co105 2.055 . S
O113 C117 1.253 . S
H114 C110 0.931 . S
H115 C111 0.930 . S
O116 Co105 2.039 . S
O116 C106 1.265 . S
C117 O113 1.253 . S
C117 O118 1.227 . S
O118 C117 1.227 . S
N119 Co105 2.140 . S
N119 C122 1.346 . S
N119 C123 1.345 . S
C120 C121 1.387 . S
C120 C124 1.391 . S
C121 C120 1.387 . S
C121 C122 1.369 . S
C121 H130 0.929 . S
C122 N119 1.346 . S
C122 C121 1.369 . S
C122 H125 0.928 . S
C123 N119 1.345 . S
C123 C124 1.371 . S
C123 H126 0.931 . S
C124 C120 1.391 . S
C124 C123 1.371 . S
C124 H131 0.930 . S
H125 C122 0.928 . S
H126 C123 0.931 . S
H127 C103 0.930 . S
H128 C100 0.930 1_556 S
H129 C109 0.930 . S
H130 C121 0.929 . S
H131 C124 0.930 . S
C132 C133 1.351 . S
C132 N135 1.368 . S
C132 H137 0.931 . S
C133 C132 1.351 . S
C133 N134 1.373 1_556 S
C133 H161 0.930 1_556 S
N134 C133 1.373 1_554 S
N134 C136 1.340 1_554 S
N135 C132 1.368 . S
N135 C136 1.321 . S
N135 Co138 2.135 . S
C136 N134 1.340 1_556 S
C136 N135 1.321 . S
C136 H160 0.930 . S
H137 C132 0.931 . S
Co138 N135 2.135 . S
Co138 N141 2.121 . S
Co138 O146 2.055 . S
Co138 O149 2.039 . S
Co138 N152 2.140 . S
C139 O140 1.227 . S
C139 O149 1.265 . S
O140 C139 1.227 . S
N141 Co138 2.121 . S
N141 C143 1.375 . S
N141 C144 1.313 . S
C142 C143 1.338 . S
C142 N145 1.377 . S
C142 H162 0.930 . S
C143 N141 1.375 . S
C143 C142 1.338 . S
C143 H147 0.931 . S
C144 N141 1.313 . S
C144 N145 1.344 . S
C144 H148 0.930 . S
N145 C142 1.377 . S
N145 C144 1.344 . S
O146 Co138 2.055 . S
O146 C150 1.253 . S
H147 C143 0.931 . S
H148 C144 0.930 . S
O149 Co138 2.039 . S
O149 C139 1.265 . S
C150 O146 1.253 . S
C150 O151 1.227 . S
O151 C150 1.227 . S
N152 Co138 2.140 . S
N152 C155 1.346 . S
N152 C156 1.345 . S
C153 C154 1.387 . S
C153 C157 1.391 . S
C154 C153 1.387 . S
C154 C155 1.369 . S
C154 H163 0.929 . S
C155 N152 1.346 . S
C155 C154 1.369 . S
C155 H158 0.928 . S
C156 N152 1.345 . S
C156 C157 1.371 . S
C156 H159 0.931 . S
C157 C153 1.391 . S
C157 C156 1.371 . S
C157 H164 0.930 . S
H158 C155 0.928 . S
H159 C156 0.931 . S
H160 C136 0.930 . S
H161 C133 0.930 1_554 S
H162 C142 0.930 . S
H163 C154 0.929 . S
H164 C157 0.930 . S
C165 C166 1.351 . S
C165 N168 1.368 . S
C165 H170 0.931 . S
C166 C165 1.351 . S
C166 N167 1.373 . S
C166 H194 0.930 . S
N167 C166 1.373 . S
N167 C169 1.340 . S
N168 C165 1.368 . S
N168 C169 1.321 . S
N168 Co171 2.135 . S
C169 N167 1.340 . S
C169 N168 1.321 . S
C169 H193 0.930 . S
H170 C165 0.931 . S
Co171 N168 2.135 . S
Co171 N174 2.121 . S
Co171 O179 2.055 . S
Co171 O182 2.039 . S
Co171 N185 2.140 . S
C172 O173 1.227 . S
C172 O182 1.265 . S
O173 C172 1.227 . S
N174 Co171 2.121 . S
N174 C176 1.375 . S
N174 C177 1.313 . S
C175 C176 1.338 . S
C175 N178 1.377 . S
C175 H195 0.930 . S
C176 N174 1.375 . S
C176 C175 1.338 . S
C176 H180 0.931 . S
C177 N174 1.313 . S
C177 N178 1.344 . S
C177 H181 0.930 . S
N178 C175 1.377 . S
N178 C177 1.344 . S
O179 Co171 2.055 . S
O179 C183 1.253 . S
H180 C176 0.931 . S
H181 C177 0.930 . S
O182 Co171 2.039 . S
O182 C172 1.265 . S
C183 O179 1.253 . S
C183 O184 1.227 . S
O184 C183 1.227 . S
N185 Co171 2.140 . S
N185 C188 1.346 . S
N185 C189 1.345 . S
C186 C187 1.387 . S
C186 C190 1.391 . S
C187 C186 1.387 . S
C187 C188 1.369 . S
C187 H196 0.929 . S
C188 N185 1.346 . S
C188 C187 1.369 . S
C188 H191 0.928 . S
C189 N185 1.345 . S
C189 C190 1.371 . S
C189 H192 0.931 . S
C190 C186 1.391 . S
C190 C189 1.371 . S
C190 H197 0.930 . S
H191 C188 0.928 . S
H192 C189 0.931 . S
H193 C169 0.930 . S
H194 C166 0.930 . S
H195 C175 0.930 . S
H196 C187 0.929 . S
H197 C190 0.930 . S
H198 C199 0.951 . S
C199 H198 0.951 . S
C199 C205 1.265 . S
H200 C205 0.950 . S
H201 C209 0.949 . S
H202 C210 0.950 . S
H203 C211 0.951 . S
H204 C212 0.951 . S
C205 C199 1.265 . S
C205 H200 0.950 . S
C205 C206 1.478 . S
C206 C205 1.478 . S
C206 C207 1.397 . S
C206 C223 1.394 . S
C207 C206 1.397 . S
C207 C208 1.438 . S
C207 C212 1.429 . S
C208 C207 1.438 . S
C208 C209 1.428 . S
C208 C221 1.394 . S
C209 H201 0.949 . S
C209 C208 1.428 . S
C209 C210 1.345 . S
C210 H202 0.950 . S
C210 C209 1.345 . S
C210 C211 1.424 . S
C211 H203 0.951 . S
C211 C210 1.424 . S
C211 C212 1.347 . S
C212 H204 0.951 . S
C212 C207 1.429 . S
C212 C211 1.347 . S
H213 C214 0.951 . S
C214 H213 0.951 . S
C214 C220 1.265 . S
H215 C220 0.950 . S
H216 C224 0.949 . S
H217 C225 0.950 . S
H218 C226 0.951 . S
H219 C227 0.951 . S
C220 C214 1.265 . S
C220 H215 0.950 . S
C220 C221 1.478 . S
C221 C208 1.394 . S
C221 C220 1.478 . S
C221 C222 1.397 . S
C222 C221 1.397 . S
C222 C223 1.438 . S
C222 C227 1.429 . S
C223 C206 1.394 . S
C223 C222 1.438 . S
C223 C224 1.428 . S
C224 H216 0.949 . S
C224 C223 1.428 . S
C224 C225 1.345 . S
C225 H217 0.950 . S
C225 C224 1.345 . S
C225 C226 1.424 . S
C226 H218 0.951 . S
C226 C225 1.424 . S
C226 C227 1.347 . S
C227 H219 0.951 . S
C227 C222 1.429 . S
C227 C226 1.347 . S
H228 C229 0.951 . S
C229 H228 0.951 . S
C229 C235 1.265 . S
H230 C235 0.950 . S
H231 C239 0.949 . S
H232 C240 0.950 . S
H233 C241 0.951 . S
H234 C242 0.951 . S
C235 C229 1.265 . S
C235 H230 0.950 . S
C235 C236 1.478 . S
C236 C235 1.478 . S
C236 C237 1.397 . S
C236 C253 1.394 . S
C237 C236 1.397 . S
C237 C238 1.438 . S
C237 C242 1.429 . S
C238 C237 1.438 . S
C238 C239 1.428 . S
C238 C251 1.394 . S
C239 H231 0.949 . S
C239 C238 1.428 . S
C239 C240 1.345 . S
C240 H232 0.950 . S
C240 C239 1.345 . S
C240 C241 1.424 . S
C241 H233 0.951 . S
C241 C240 1.424 . S
C241 C242 1.347 . S
C242 H234 0.951 . S
C242 C237 1.429 . S
C242 C241 1.347 . S
H243 C244 0.951 . S
C244 H243 0.951 . S
C244 C250 1.265 . S
H245 C250 0.950 . S
H246 C254 0.949 . S
H247 C255 0.950 1_455 S
H248 C256 0.951 . S
H249 C257 0.951 . S
C250 C244 1.265 . S
C250 H245 0.950 . S
C250 C251 1.478 . S
C251 C238 1.394 . S
C251 C250 1.478 . S
C251 C252 1.397 . S
C252 C251 1.397 . S
C252 C253 1.438 . S
C252 C257 1.429 . S
C253 C236 1.394 . S
C253 C252 1.438 . S
C253 C254 1.428 . S
C254 H246 0.949 . S
C254 C253 1.428 . S
C254 C255 1.345 . S
C255 H247 0.950 1_655 S
C255 C254 1.345 . S
C255 C256 1.424 . S
C256 H248 0.951 . S
C256 C255 1.424 . S
C256 C257 1.347 . S
C257 H249 0.951 . S
C257 C252 1.429 . S
C257 C256 1.347 . S
H258 C259 0.951 . S
C259 H258 0.951 . S
C259 C265 1.265 . S
H260 C265 0.950 . S
H261 C269 0.949 . S
H262 C270 0.950 . S
H263 C271 0.951 . S
H264 C272 0.951 . S
C265 C259 1.265 . S
C265 H260 0.950 . S
C265 C266 1.478 . S
C266 C265 1.478 . S
C266 C267 1.397 . S
C266 C283 1.394 . S
C267 C266 1.397 . S
C267 C268 1.438 . S
C267 C272 1.429 . S
C268 C267 1.438 . S
C268 C269 1.428 . S
C268 C281 1.394 . S
C269 H261 0.949 . S
C269 C268 1.428 . S
C269 C270 1.345 . S
C270 H262 0.950 . S
C270 C269 1.345 . S
C270 C271 1.424 . S
C271 H263 0.951 . S
C271 C270 1.424 . S
C271 C272 1.347 . S
C272 H264 0.951 . S
C272 C267 1.429 . S
C272 C271 1.347 . S
H273 C274 0.951 . S
C274 H273 0.951 . S
C274 C280 1.265 . S
H275 C280 0.950 . S
H276 C284 0.949 . S
H277 C285 0.950 . S
H278 C286 0.951 1_455 S
H279 C287 0.951 . S
C280 C274 1.265 . S
C280 H275 0.950 . S
C280 C281 1.478 . S
C281 C268 1.394 . S
C281 C280 1.478 . S
C281 C282 1.397 . S
C282 C281 1.397 . S
C282 C283 1.438 . S
C282 C287 1.429 . S
C283 C266 1.394 . S
C283 C282 1.438 . S
C283 C284 1.428 . S
C284 H276 0.949 . S
C284 C283 1.428 . S
C284 C285 1.345 . S
C285 H277 0.950 . S
C285 C284 1.345 . S
C285 C286 1.424 . S
C286 H278 0.951 1_655 S
C286 C285 1.424 . S
C286 C287 1.347 . S
C287 H279 0.951 . S
C287 C282 1.429 . S
C287 C286 1.347 . S
H288 C289 0.951 . S
C289 H288 0.951 . S
C289 C295 1.265 . S
H290 C295 0.950 . S
H291 C299 0.949 . S
H292 C300 0.950 . S
H293 C301 0.951 . S
H294 C302 0.951 . S
C295 C289 1.265 . S
C295 H290 0.950 . S
C295 C296 1.478 . S
C296 C295 1.478 . S
C296 C297 1.397 . S
C296 C313 1.394 . S
C297 C296 1.397 . S
C297 C298 1.438 . S
C297 C302 1.429 . S
C298 C297 1.438 . S
C298 C299 1.428 . S
C298 C311 1.394 . S
C299 H291 0.949 . S
C299 C298 1.428 . S
C299 C300 1.345 . S
C300 H292 0.950 . S
C300 C299 1.345 . S
C300 C301 1.424 . S
C301 H293 0.951 . S
C301 C300 1.424 . S
C301 C302 1.347 . S
C302 H294 0.951 . S
C302 C297 1.429 . S
C302 C301 1.347 . S
H303 C304 0.951 . S
C304 H303 0.951 . S
C304 C310 1.265 . S
H305 C310 0.950 . S
H306 C314 0.949 . S
H307 C315 0.950 . S
H308 C316 0.951 . S
H309 C317 0.951 . S
C310 C304 1.265 . S
C310 H305 0.950 . S
C310 C311 1.478 . S
C311 C298 1.394 . S
C311 C310 1.478 . S
C311 C312 1.397 . S
C312 C311 1.397 . S
C312 C313 1.438 . S
C312 C317 1.429 . S
C313 C296 1.394 . S
C313 C312 1.438 . S
C313 C314 1.428 . S
C314 H306 0.949 . S
C314 C313 1.428 . S
C314 C315 1.345 . S
C315 H307 0.950 . S
C315 C314 1.345 . S
C315 C316 1.424 . S
C316 H308 0.951 . S
C316 C315 1.424 . S
C316 C317 1.347 . S
C317 H309 0.951 . S
C317 C312 1.429 . S
C317 C316 1.347 . S
H318 C319 0.951 . S
C319 H318 0.951 . S
C319 C325 1.265 . S
H320 C325 0.950 . S
H321 C329 0.949 . S
H322 C330 0.950 . S
H323 C331 0.951 . S
H324 C332 0.951 . S
C325 C319 1.265 . S
C325 H320 0.950 . S
C325 C326 1.478 . S
C326 C325 1.478 . S
C326 C327 1.397 . S
C326 C343 1.394 . S
C327 C326 1.397 . S
C327 C328 1.438 . S
C327 C332 1.429 . S
C328 C327 1.438 . S
C328 C329 1.428 . S
C328 C341 1.394 . S
C329 H321 0.949 . S
C329 C328 1.428 . S
C329 C330 1.345 . S
C330 H322 0.950 . S
C330 C329 1.345 . S
C330 C331 1.424 . S
C331 H323 0.951 . S
C331 C330 1.424 . S
C331 C332 1.347 . S
C332 H324 0.951 . S
C332 C327 1.429 . S
C332 C331 1.347 . S
H333 C334 0.951 . S
C334 H333 0.951 . S
C334 C340 1.265 . S
H335 C340 0.950 . S
H336 C344 0.949 . S
H337 C345 0.950 . S
H338 C346 0.951 . S
H339 C347 0.951 . S
C340 C334 1.265 . S
C340 H335 0.950 . S
C340 C341 1.478 . S
C341 C328 1.394 . S
C341 C340 1.478 . S
C341 C342 1.397 . S
C342 C341 1.397 . S
C342 C343 1.438 . S
C342 C347 1.429 . S
C343 C326 1.394 . S
C343 C342 1.438 . S
C343 C344 1.428 . S
C344 H336 0.949 . S
C344 C343 1.428 . S
C344 C345 1.345 . S
C345 H337 0.950 . S
C345 C344 1.345 . S
C345 C346 1.424 . S
C346 H338 0.951 . S
C346 C345 1.424 . S
C346 C347 1.347 . S
C347 H339 0.951 . S
C347 C342 1.429 . S
C347 C346 1.347 . S
H348 C349 0.951 . S
C349 H348 0.951 . S
C349 C355 1.265 . S
H350 C355 0.950 . S
H351 C359 0.949 . S
H352 C360 0.950 . S
H353 C361 0.951 . S
H354 C362 0.951 . S
C355 C349 1.265 . S
C355 H350 0.950 . S
C355 C356 1.478 . S
C356 C355 1.478 . S
C356 C357 1.397 . S
C356 C373 1.394 . S
C357 C356 1.397 . S
C357 C358 1.438 . S
C357 C362 1.429 . S
C358 C357 1.438 . S
C358 C359 1.428 . S
C358 C371 1.394 . S
C359 H351 0.949 . S
C359 C358 1.428 . S
C359 C360 1.345 . S
C360 H352 0.950 . S
C360 C359 1.345 . S
C360 C361 1.424 . S
C361 H353 0.951 . S
C361 C360 1.424 . S
C361 C362 1.347 . S
C362 H354 0.951 . S
C362 C357 1.429 . S
C362 C361 1.347 . S
H363 C364 0.951 . S
C364 H363 0.951 . S
C364 C370 1.265 . S
H365 C370 0.950 . S
H366 C374 0.949 . S
H367 C375 0.950 . S
H368 C376 0.951 . S
H369 C377 0.951 . S
C370 C364 1.265 . S
C370 H365 0.950 . S
C370 C371 1.478 . S
C371 C358 1.394 . S
C371 C370 1.478 . S
C371 C372 1.397 . S
C372 C371 1.397 . S
C372 C373 1.438 . S
C372 C377 1.429 . S
C373 C356 1.394 . S
C373 C372 1.438 . S
C373 C374 1.428 . S
C374 H366 0.949 . S
C374 C373 1.428 . S
C374 C375 1.345 . S
C375 H367 0.950 . S
C375 C374 1.345 . S
C375 C376 1.424 . S
C376 H368 0.951 . S
C376 C375 1.424 . S
C376 C377 1.347 . S
C377 H369 0.951 . S
C377 C372 1.429 . S
C377 C376 1.347 . S
H378 C379 0.951 . S
C379 H378 0.951 . S
C379 C385 1.265 . S
H380 C385 0.950 . S
H381 C389 0.949 . S
H382 C390 0.950 . S
H383 C391 0.951 . S
H384 C392 0.951 1_655 S
C385 C379 1.265 . S
C385 H380 0.950 . S
C385 C386 1.478 . S
C386 C385 1.478 . S
C386 C387 1.397 1_655 S
C386 C403 1.394 . S
C387 C386 1.397 1_455 S
C387 C388 1.438 . S
C387 C392 1.429 . S
C388 C387 1.438 . S
C388 C389 1.428 . S
C388 C401 1.394 . S
C389 H381 0.949 . S
C389 C388 1.428 . S
C389 C390 1.345 . S
C390 H382 0.950 . S
C390 C389 1.345 . S
C390 C391 1.424 . S
C391 H383 0.951 . S
C391 C390 1.424 . S
C391 C392 1.347 . S
C392 H384 0.951 1_455 S
C392 C387 1.429 . S
C392 C391 1.347 . S
H393 C394 0.951 . S
C394 H393 0.951 . S
C394 C400 1.265 . S
H395 C400 0.950 . S
H396 C404 0.949 . S
H397 C405 0.950 . S
H398 C406 0.951 . S
H399 C407 0.951 . S
C400 C394 1.265 . S
C400 H395 0.950 . S
C400 C401 1.478 . S
C401 C388 1.394 . S
C401 C400 1.478 . S
C401 C402 1.397 . S
C402 C401 1.397 . S
C402 C403 1.438 1_455 S
C402 C407 1.429 . S
C403 C386 1.394 . S
C403 C402 1.438 1_655 S
C403 C404 1.428 . S
C404 H396 0.949 . S
C404 C403 1.428 . S
C404 C405 1.345 . S
C405 H397 0.950 . S
C405 C404 1.345 . S
C405 C406 1.424 . S
C406 H398 0.951 . S
C406 C405 1.424 . S
C406 C407 1.347 1_655 S
C407 H399 0.951 . S
C407 C402 1.429 . S
C407 C406 1.347 1_455 S
H408 C409 0.951 . S
C409 H408 0.951 . S
C409 C415 1.265 . S
H410 C415 0.950 . S
H411 C419 0.949 . S
H412 C420 0.950 . S
H413 C421 0.951 . S
H414 C422 0.951 . S
C415 C409 1.265 . S
C415 H410 0.950 . S
C415 C416 1.478 . S
C416 C415 1.478 . S
C416 C417 1.397 . S
C416 C433 1.394 . S
C417 C416 1.397 . S
C417 C418 1.438 . S
C417 C422 1.429 . S
C418 C417 1.438 . S
C418 C419 1.428 . S
C418 C431 1.394 . S
C419 H411 0.949 . S
C419 C418 1.428 . S
C419 C420 1.345 . S
C420 H412 0.950 . S
C420 C419 1.345 . S
C420 C421 1.424 . S
C421 H413 0.951 . S
C421 C420 1.424 . S
C421 C422 1.347 . S
C422 H414 0.951 . S
C422 C417 1.429 . S
C422 C421 1.347 . S
H423 C424 0.951 . S
C424 H423 0.951 . S
C424 C430 1.265 . S
H425 C430 0.950 . S
H426 C434 0.949 . S
H427 C435 0.950 . S
H428 C436 0.951 . S
H429 C437 0.951 . S
C430 C424 1.265 . S
C430 H425 0.950 . S
C430 C431 1.478 . S
C431 C418 1.394 . S
C431 C430 1.478 . S
C431 C432 1.397 . S
C432 C431 1.397 . S
C432 C433 1.438 . S
C432 C437 1.429 . S
C433 C416 1.394 . S
C433 C432 1.438 . S
C433 C434 1.428 . S
C434 H426 0.949 . S
C434 C433 1.428 . S
C434 C435 1.345 . S
C435 H427 0.950 . S
C435 C434 1.345 . S
C435 C436 1.424 . S
C436 H428 0.951 . S
C436 C435 1.424 . S
C436 C437 1.347 . S
C437 H429 0.951 . S
C437 C432 1.429 . S
C437 C436 1.347 . S
H438 C439 0.951 . S
C439 H438 0.951 . S
C439 C445 1.265 . S
H440 C445 0.950 . S
H441 C449 0.949 . S
H442 C450 0.950 . S
H443 C451 0.951 . S
H444 C452 0.951 . S
C445 C439 1.265 . S
C445 H440 0.950 . S
C445 C446 1.478 . S
C446 C445 1.478 . S
C446 C447 1.397 . S
C446 C463 1.394 . S
C447 C446 1.397 . S
C447 C448 1.457 . S
C447 C452 1.429 . S
C448 C447 1.457 . S
C448 C449 1.419 1_565 S
C448 C461 1.385 1_565 S
C449 H441 0.949 . S
C449 C448 1.419 1_545 S
C449 C450 1.345 1_545 S
C450 H442 0.950 . S
C450 C449 1.345 1_565 S
C450 C451 1.424 . S
C451 H443 0.951 . S
C451 C450 1.424 . S
C451 C452 1.347 . S
C452 H444 0.951 . S
C452 C447 1.429 . S
C452 C451 1.347 . S
H453 C454 0.951 . S
C454 H453 0.951 . S
C454 C460 1.265 . S
H455 C460 0.950 . S
H456 C464 0.949 . S
H457 C465 0.950 . S
H458 C466 0.951 . S
H459 C467 0.951 . S
C460 C454 1.265 . S
C460 H455 0.950 . S
C460 C461 1.478 . S
C461 C448 1.385 1_545 S
C461 C460 1.478 . S
C461 C462 1.397 . S
C462 C461 1.397 . S
C462 C463 1.438 1_545 S
C462 C467 1.429 . S
C463 C446 1.394 . S
C463 C462 1.438 1_565 S
C463 C464 1.428 . S
C464 H456 0.949 . S
C464 C463 1.428 . S
C464 C465 1.345 . S
C465 H457 0.950 . S
C465 C464 1.345 . S
C465 C466 1.424 1_565 S
C466 H458 0.951 . S
C466 C465 1.424 1_545 S
C466 C467 1.347 . S
C467 H459 0.951 . S
C467 C462 1.429 . S
C467 C466 1.347 . S
H468 C469 0.951 . S
C469 H468 0.951 . S
C469 C475 1.265 1_655 S
H470 C475 0.950 . S
H471 C479 0.949 . S
H472 C480 0.950 . S
H473 C481 0.951 . S
H474 C482 0.951 . S
C475 C469 1.265 1_455 S
C475 H470 0.950 . S
C475 C476 1.478 . S
C476 C475 1.478 . S
C476 C477 1.397 1_545 S
C476 C493 1.394 . S
C477 C476 1.397 1_565 S
C477 C478 1.438 . S
C477 C482 1.429 . S
C478 C477 1.438 . S
C478 C479 1.428 . S
C478 C491 1.394 1_565 S
C479 H471 0.949 . S
C479 C478 1.428 . S
C479 C480 1.345 . S
C480 H472 0.950 . S
C480 C479 1.345 . S
C480 C481 1.424 . S
C481 H473 0.951 . S
C481 C480 1.424 . S
C481 C482 1.347 . S
C482 H474 0.951 . S
C482 C477 1.429 . S
C482 C481 1.347 . S
H483 C484 0.951 . S
C484 H483 0.951 . S
C484 C490 1.265 . S
H485 C490 0.950 1_655 S
H486 C494 0.949 . S
H487 C495 0.950 . S
H488 C496 0.950 1_655 S
H489 C497 0.951 1_655 S
C490 C484 1.265 . S
C490 H485 0.950 1_455 S
C490 C491 1.478 . S
C491 C478 1.394 1_545 S
C491 C490 1.478 . S
C491 C492 1.397 . S
C492 C491 1.397 . S
C492 C493 1.438 . S
C492 C497 1.429 . S
C493 C476 1.394 . S
C493 C492 1.438 . S
C493 C494 1.428 . S
C494 H486 0.949 . S
C494 C493 1.428 . S
C494 C495 1.345 . S
C495 H487 0.950 . S
C495 C494 1.345 . S
C495 C496 1.424 . S
C496 H488 0.950 1_455 S
C496 C495 1.424 . S
C496 C497 1.347 . S
C497 H489 0.951 1_455 S
C497 C492 1.429 . S
C497 C496 1.347 . S
H498 C499 0.951 . S
C499 H498 0.951 . S
C499 C505 1.265 . S
H500 C505 0.950 . S
H501 C509 0.949 . S
H502 C510 0.950 . S
H503 C511 0.951 . S
H504 C512 0.951 . S
C505 C499 1.265 . S
C505 H500 0.950 . S
C505 C506 1.478 . S
C506 C505 1.478 . S
C506 C507 1.397 . S
C506 C523 1.394 . S
C507 C506 1.397 . S
C507 C508 1.438 . S
C507 C512 1.429 . S
C508 C507 1.438 . S
C508 C509 1.428 . S
C508 C521 1.394 . S
C509 H501 0.949 . S
C509 C508 1.428 . S
C509 C510 1.345 . S
C510 H502 0.950 . S
C510 C509 1.345 . S
C510 C511 1.424 . S
C511 H503 0.951 . S
C511 C510 1.424 . S
C511 C512 1.347 . S
C512 H504 0.951 . S
C512 C507 1.429 . S
C512 C511 1.347 . S
H513 C514 0.951 . S
C514 H513 0.951 . S
C514 C520 1.265 . S
H515 C520 0.950 . S
H516 C524 0.949 . S
H517 C525 0.950 . S
H518 C526 0.951 . S
H519 C527 0.951 . S
C520 C514 1.265 . S
C520 H515 0.950 . S
C520 C521 1.478 . S
C521 C508 1.394 . S
C521 C520 1.478 . S
C521 C522 1.397 . S
C522 C521 1.397 . S
C522 C523 1.438 . S
C522 C527 1.429 . S
C523 C506 1.394 . S
C523 C522 1.438 . S
C523 C524 1.428 . S
C524 H516 0.949 . S
C524 C523 1.428 . S
C524 C525 1.345 . S
C525 H517 0.950 . S
C525 C524 1.345 . S
C525 C526 1.424 . S
C526 H518 0.951 . S
C526 C525 1.424 . S
C526 C527 1.347 . S
C527 H519 0.951 . S
C527 C522 1.429 . S
C527 C526 1.347 . S
H528 C529 0.951 . S
C529 H528 0.951 . S
C529 C535 1.265 . S
H530 C535 0.950 . S
H531 C539 0.949 . S
H532 C540 0.950 . S
H533 C541 0.951 . S
H534 C542 0.951 . S
C535 C529 1.265 . S
C535 H530 0.950 . S
C535 C536 1.478 . S
C536 C535 1.478 . S
C536 C537 1.397 . S
C536 C553 1.394 . S
C537 C536 1.397 . S
C537 C538 1.438 . S
C537 C542 1.429 . S
C538 C537 1.438 . S
C538 C539 1.428 . S
C538 C551 1.394 . S
C539 H531 0.949 . S
C539 C538 1.428 . S
C539 C540 1.345 . S
C540 H532 0.950 . S
C540 C539 1.345 . S
C540 C541 1.424 . S
C541 H533 0.951 . S
C541 C540 1.424 . S
C541 C542 1.347 . S
C542 H534 0.951 . S
C542 C537 1.429 . S
C542 C541 1.347 . S
H543 C544 0.951 . S
C544 H543 0.951 . S
C544 C550 1.265 . S
H545 C550 0.950 . S
H546 C554 0.949 . S
H547 C555 0.950 . S
H548 C556 0.951 . S
H549 C557 0.951 . S
C550 C544 1.265 . S
C550 H545 0.950 . S
C550 C551 1.478 . S
C551 C538 1.394 . S
C551 C550 1.478 . S
C551 C552 1.397 . S
C552 C551 1.397 . S
C552 C553 1.438 . S
C552 C557 1.429 . S
C553 C536 1.394 . S
C553 C552 1.438 . S
C553 C554 1.428 . S
C554 H546 0.949 . S
C554 C553 1.428 . S
C554 C555 1.345 . S
C555 H547 0.950 . S
C555 C554 1.345 . S
C555 C556 1.424 . S
C556 H548 0.951 . S
C556 C555 1.424 . S
C556 C557 1.347 . S
C557 H549 0.951 . S
C557 C552 1.429 . S
C557 C556 1.347 . S
H558 C559 0.951 . S
C559 H558 0.951 . S
C559 C565 1.265 . S
H560 C565 0.950 . S
H561 C569 0.949 . S
H562 C570 0.950 . S
H563 C571 0.951 . S
H564 C572 0.951 . S
C565 C559 1.265 . S
C565 H560 0.950 . S
C565 C566 1.478 . S
C566 C565 1.478 . S
C566 C567 1.397 1_545 S
C566 C583 1.394 . S
C567 C566 1.397 1_565 S
C567 C568 1.438 1_454 S
C567 C572 1.429 . S
C568 C567 1.438 1_656 S
C568 C569 1.428 . S
C568 C581 1.394 1_565 S
C569 H561 0.949 . S
C569 C568 1.428 . S
C569 C570 1.345 . S
C570 H562 0.950 . S
C570 C569 1.345 . S
C570 C571 1.424 1_556 S
C571 H563 0.951 . S
C571 C570 1.424 1_554 S
C571 C572 1.347 1_655 S
C572 H564 0.951 . S
C572 C567 1.429 . S
C572 C571 1.347 1_455 S
H573 C574 0.944 1_465 S
C574 H573 0.944 1_645 S
C574 C580 1.270 . S
H575 C580 0.950 . S
H576 C584 0.949 . S
H577 C585 0.950 . S
H578 C586 0.951 . S
H579 C587 0.951 . S
C580 C574 1.270 . S
C580 H575 0.950 . S
C580 C581 1.478 . S
C581 C568 1.394 1_545 S
C581 C580 1.478 . S
C581 C582 1.397 1_655 S
C582 C581 1.397 1_455 S
C582 C583 1.438 1_556 S
C582 C587 1.429 . S
C583 C566 1.394 . S
C583 C582 1.438 1_554 S
C583 C584 1.428 . S
C584 H576 0.949 . S
C584 C583 1.428 . S
C584 C585 1.345 . S
C585 H577 0.950 . S
C585 C584 1.345 . S
C585 C586 1.424 1_554 S
C586 H578 0.951 . S
C586 C585 1.424 1_556 S
C586 C587 1.347 . S
C587 H579 0.951 . S
C587 C582 1.429 . S
C587 C586 1.347 . S
H588 C589 0.951 . S
C589 H588 0.951 . S
C589 C595 1.265 . S
H590 C595 0.950 . S
H591 C599 0.949 . S
H592 C600 0.950 . S
H593 C601 0.951 . S
H594 C602 0.951 . S
C595 C589 1.265 . S
C595 H590 0.950 . S
C595 C596 1.478 . S
C596 C595 1.478 . S
C596 C597 1.397 . S
C596 C613 1.394 . S
C597 C596 1.397 . S
C597 C598 1.438 . S
C597 C602 1.429 . S
C598 C597 1.438 . S
C598 C599 1.428 . S
C598 C611 1.394 . S
C599 H591 0.949 . S
C599 C598 1.428 . S
C599 C600 1.345 . S
C600 H592 0.950 . S
C600 C599 1.345 . S
C600 C601 1.424 . S
C601 H593 0.951 . S
C601 C600 1.424 . S
C601 C602 1.347 . S
C602 H594 0.951 . S
C602 C597 1.429 . S
C602 C601 1.347 . S
H603 C604 0.951 . S
C604 H603 0.951 . S
C604 C610 1.265 . S
H605 C610 0.950 . S
H606 C614 0.949 . S
H607 C615 0.950 . S
H608 C616 0.951 . S
H609 C617 0.951 . S
C610 C604 1.265 . S
C610 H605 0.950 . S
C610 C611 1.478 . S
C611 C598 1.394 . S
C611 C610 1.478 . S
C611 C612 1.397 . S
C612 C611 1.397 . S
C612 C613 1.438 . S
C612 C617 1.429 . S
C613 C596 1.394 . S
C613 C612 1.438 . S
C613 C614 1.428 . S
C614 H606 0.949 . S
C614 C613 1.428 . S
C614 C615 1.345 . S
C615 H607 0.950 . S
C615 C614 1.345 . S
C615 C616 1.424 . S
C616 H608 0.951 . S
C616 C615 1.424 . S
C616 C617 1.347 . S
C617 H609 0.951 . S
C617 C612 1.429 . S
C617 C616 1.347 . S
H618 C619 0.951 . S
C619 H618 0.951 . S
C619 C625 1.265 . S
H620 C625 0.950 . S
H621 C629 0.949 . S
H622 C630 0.950 . S
H623 C631 0.951 . S
H624 C632 0.951 . S
C625 C619 1.265 . S
C625 H620 0.950 . S
C625 C626 1.478 . S
C626 C625 1.478 . S
C626 C627 1.397 . S
C626 C643 1.394 . S
C627 C626 1.397 . S
C627 C628 1.438 . S
C627 C632 1.429 . S
C628 C627 1.438 . S
C628 C629 1.428 . S
C628 C641 1.394 . S
C629 H621 0.949 . S
C629 C628 1.428 . S
C629 C630 1.345 . S
C630 H622 0.950 . S
C630 C629 1.345 . S
C630 C631 1.424 . S
C631 H623 0.951 . S
C631 C630 1.424 . S
C631 C632 1.347 . S
C632 H624 0.951 . S
C632 C627 1.429 . S
C632 C631 1.347 . S
H633 C634 0.951 . S
C634 H633 0.951 . S
C634 C640 1.265 . S
H635 C640 0.950 . S
H636 C644 0.949 . S
H637 C645 0.950 . S
H638 C646 0.951 . S
H639 C647 0.951 . S
C640 C634 1.265 . S
C640 H635 0.950 . S
C640 C641 1.478 . S
C641 C628 1.394 . S
C641 C640 1.478 . S
C641 C642 1.397 . S
C642 C641 1.397 . S
C642 C643 1.438 . S
C642 C647 1.429 . S
C643 C626 1.394 . S
C643 C642 1.438 . S
C643 C644 1.428 . S
C644 H636 0.949 . S
C644 C643 1.428 . S
C644 C645 1.345 . S
C645 H637 0.950 . S
C645 C644 1.345 . S
C645 C646 1.424 . S
C646 H638 0.951 . S
C646 C645 1.424 . S
C646 C647 1.347 . S
C647 H639 0.951 . S
C647 C642 1.429 . S
C647 C646 1.347 . S
C199 C18 2.022 . S
C214 C117 2.022 . S
C229 C7 1.570 . S
C244 C120 1.566 . S
C259 C106 1.529 . S
C274 C21 1.511 . S
C289 C40 1.555 . S
C304 C153 1.541 . S
C319 C150 2.007 . S
C334 C51 2.008 . S
C349 C54 1.513 . S
C364 C139 1.530 . S
C379 C84 2.004 . S
C394 C183 2.005 . S
C409 C73 1.560 . S
C424 C186 1.558 . S
C439 C172 1.550 . S
C454 C87 1.544 . S
C469 N35 2.201 . S
C484 N2 2.194 . S
C499 N101 2.203 . S
C514 N68 2.193 . S
C529 N167 2.223 . S
C544 N134 2.237 . S
C559 N13 0.643 . S
C574 N46 0.692 1_655 S
C589 N112 0.722 . S
C604 N79 0.666 . S
C619 N178 0.670 . S
C634 N145 0.635 . S
