# Generated by pormake.
# Topology vab, (3)-cn, num edge types: 1
# Building blocks:
#     Node 0, Type 0, BuildingBlock: OLANEW_clean_sbu_2, # of connection points: 3
#     Node 1, Type 0, BuildingBlock: OLANEW_clean_sbu_2, # of connection points: 3
#     Node 2, Type 0, BuildingBlock: OLANEW_clean_sbu_2, # of connection points: 3
#     Node 3, Type 0, BuildingBlock: OLANEW_clean_sbu_2, # of connection points: 3
#     Node 4, Type 0, BuildingBlock: OLANEW_clean_sbu_2, # of connection points: 3
#     Node 5, Type 0, BuildingBlock: OLANEW_clean_sbu_2, # of connection points: 3
#     Node 6, Type 0, BuildingBlock: OLANEW_clean_sbu_2, # of connection points: 3
#     Node 7, Type 0, BuildingBlock: OLANEW_clean_sbu_2, # of connection points: 3
#     Node 8, Type 0, BuildingBlock: OLANEW_clean_sbu_2, # of connection points: 3
#     Node 9, Type 0, BuildingBlock: OLANEW_clean_sbu_2, # of connection points: 3
#     Node 10, Type 0, BuildingBlock: OLANEW_clean_sbu_2, # of connection points: 3
#     Node 11, Type 0, BuildingBlock: OLANEW_clean_sbu_2, # of connection points: 3
#     Node 12, Type 0, BuildingBlock: OLANEW_clean_sbu_2, # of connection points: 3
#     Node 13, Type 0, BuildingBlock: OLANEW_clean_sbu_2, # of connection points: 3
#     Node 14, Type 0, BuildingBlock: OLANEW_clean_sbu_2, # of connection points: 3
#     Node 15, Type 0, BuildingBlock: OLANEW_clean_sbu_2, # of connection points: 3
#     Node 16, Type 0, BuildingBlock: OLANEW_clean_sbu_2, # of connection points: 3
#     Node 17, Type 0, BuildingBlock: OLANEW_clean_sbu_2, # of connection points: 3
#     Node 18, Type 0, BuildingBlock: OLANEW_clean_sbu_2, # of connection points: 3
#     Node 19, Type 0, BuildingBlock: OLANEW_clean_sbu_2, # of connection points: 3
#     Node 20, Type 0, BuildingBlock: OLANEW_clean_sbu_2, # of connection points: 3
#     Node 21, Type 0, BuildingBlock: OLANEW_clean_sbu_2, # of connection points: 3
#     Node 22, Type 0, BuildingBlock: OLANEW_clean_sbu_2, # of connection points: 3
#     Node 23, Type 0, BuildingBlock: OLANEW_clean_sbu_2, # of connection points: 3
#     Node 24, Type 0, BuildingBlock: OLANEW_clean_sbu_2, # of connection points: 3
#     Node 25, Type 0, BuildingBlock: OLANEW_clean_sbu_2, # of connection points: 3
#     Node 26, Type 0, BuildingBlock: OLANEW_clean_sbu_2, # of connection points: 3
#     Node 27, Type 0, BuildingBlock: OLANEW_clean_sbu_2, # of connection points: 3
#     Node 28, Type 0, BuildingBlock: OLANEW_clean_sbu_2, # of connection points: 3
#     Node 29, Type 0, BuildingBlock: OLANEW_clean_sbu_2, # of connection points: 3
#     Node 30, Type 0, BuildingBlock: OLANEW_clean_sbu_2, # of connection points: 3
#     Node 31, Type 0, BuildingBlock: OLANEW_clean_sbu_2, # of connection points: 3
#     Node 32, Type 0, BuildingBlock: OLANEW_clean_sbu_2, # of connection points: 3
#     Node 33, Type 0, BuildingBlock: OLANEW_clean_sbu_2, # of connection points: 3
#     Node 34, Type 0, BuildingBlock: OLANEW_clean_sbu_2, # of connection points: 3
#     Node 35, Type 0, BuildingBlock: OLANEW_clean_sbu_2, # of connection points: 3
#     Node 36, Type 0, BuildingBlock: OLANEW_clean_sbu_2, # of connection points: 3
#     Node 37, Type 0, BuildingBlock: OLANEW_clean_sbu_2, # of connection points: 3
#     Node 38, Type 0, BuildingBlock: OLANEW_clean_sbu_2, # of connection points: 3
#     Node 39, Type 0, BuildingBlock: OLANEW_clean_sbu_2, # of connection points: 3
#     Node 40, Type 0, BuildingBlock: OLANEW_clean_sbu_2, # of connection points: 3
#     Node 41, Type 0, BuildingBlock: OLANEW_clean_sbu_2, # of connection points: 3
#     Node 42, Type 0, BuildingBlock: OLANEW_clean_sbu_2, # of connection points: 3
#     Node 43, Type 0, BuildingBlock: OLANEW_clean_sbu_2, # of connection points: 3
#     Node 44, Type 0, BuildingBlock: OLANEW_clean_sbu_2, # of connection points: 3
#     Node 45, Type 0, BuildingBlock: OLANEW_clean_sbu_2, # of connection points: 3
#     Node 46, Type 0, BuildingBlock: OLANEW_clean_sbu_2, # of connection points: 3
#     Node 47, Type 0, BuildingBlock: OLANEW_clean_sbu_2, # of connection points: 3
#     Edge 48, Type (0, 0), BuildingBlock: EZIPEK_clean_linker_0, # of connection points: 2
#     Edge 49, Type (0, 0), BuildingBlock: EZIPEK_clean_linker_0, # of connection points: 2
#     Edge 50, Type (0, 0), BuildingBlock: EZIPEK_clean_linker_0, # of connection points: 2
#     Edge 51, Type (0, 0), BuildingBlock: EZIPEK_clean_linker_0, # of connection points: 2
#     Edge 52, Type (0, 0), BuildingBlock: EZIPEK_clean_linker_0, # of connection points: 2
#     Edge 53, Type (0, 0), BuildingBlock: EZIPEK_clean_linker_0, # of connection points: 2
#     Edge 54, Type (0, 0), BuildingBlock: EZIPEK_clean_linker_0, # of connection points: 2
#     Edge 55, Type (0, 0), BuildingBlock: EZIPEK_clean_linker_0, # of connection points: 2
#     Edge 56, Type (0, 0), BuildingBlock: EZIPEK_clean_linker_0, # of connection points: 2
#     Edge 57, Type (0, 0), BuildingBlock: EZIPEK_clean_linker_0, # of connection points: 2
#     Edge 58, Type (0, 0), BuildingBlock: EZIPEK_clean_linker_0, # of connection points: 2
#     Edge 59, Type (0, 0), BuildingBlock: EZIPEK_clean_linker_0, # of connection points: 2
#     Edge 60, Type (0, 0), BuildingBlock: EZIPEK_clean_linker_0, # of connection points: 2
#     Edge 61, Type (0, 0), BuildingBlock: EZIPEK_clean_linker_0, # of connection points: 2
#     Edge 62, Type (0, 0), BuildingBlock: EZIPEK_clean_linker_0, # of connection points: 2
#     Edge 63, Type (0, 0), BuildingBlock: EZIPEK_clean_linker_0, # of connection points: 2
#     Edge 64, Type (0, 0), BuildingBlock: EZIPEK_clean_linker_0, # of connection points: 2
#     Edge 65, Type (0, 0), BuildingBlock: EZIPEK_clean_linker_0, # of connection points: 2
#     Edge 66, Type (0, 0), BuildingBlock: EZIPEK_clean_linker_0, # of connection points: 2
#     Edge 67, Type (0, 0), BuildingBlock: EZIPEK_clean_linker_0, # of connection points: 2
#     Edge 68, Type (0, 0), BuildingBlock: EZIPEK_clean_linker_0, # of connection points: 2
#     Edge 69, Type (0, 0), BuildingBlock: EZIPEK_clean_linker_0, # of connection points: 2
#     Edge 70, Type (0, 0), BuildingBlock: EZIPEK_clean_linker_0, # of connection points: 2
#     Edge 71, Type (0, 0), BuildingBlock: EZIPEK_clean_linker_0, # of connection points: 2
#     Edge 72, Type (0, 0), BuildingBlock: EZIPEK_clean_linker_0, # of connection points: 2
#     Edge 73, Type (0, 0), BuildingBlock: EZIPEK_clean_linker_0, # of connection points: 2
#     Edge 74, Type (0, 0), BuildingBlock: EZIPEK_clean_linker_0, # of connection points: 2
#     Edge 75, Type (0, 0), BuildingBlock: EZIPEK_clean_linker_0, # of connection points: 2
#     Edge 76, Type (0, 0), BuildingBlock: EZIPEK_clean_linker_0, # of connection points: 2
#     Edge 77, Type (0, 0), BuildingBlock: EZIPEK_clean_linker_0, # of connection points: 2
#     Edge 78, Type (0, 0), BuildingBlock: EZIPEK_clean_linker_0, # of connection points: 2
#     Edge 79, Type (0, 0), BuildingBlock: EZIPEK_clean_linker_0, # of connection points: 2
#     Edge 80, Type (0, 0), BuildingBlock: EZIPEK_clean_linker_0, # of connection points: 2
#     Edge 81, Type (0, 0), BuildingBlock: EZIPEK_clean_linker_0, # of connection points: 2
#     Edge 82, Type (0, 0), BuildingBlock: EZIPEK_clean_linker_0, # of connection points: 2
#     Edge 83, Type (0, 0), BuildingBlock: EZIPEK_clean_linker_0, # of connection points: 2
#     Edge 84, Type (0, 0), BuildingBlock: EZIPEK_clean_linker_0, # of connection points: 2
#     Edge 85, Type (0, 0), BuildingBlock: EZIPEK_clean_linker_0, # of connection points: 2
#     Edge 86, Type (0, 0), BuildingBlock: EZIPEK_clean_linker_0, # of connection points: 2
#     Edge 87, Type (0, 0), BuildingBlock: EZIPEK_clean_linker_0, # of connection points: 2
#     Edge 88, Type (0, 0), BuildingBlock: EZIPEK_clean_linker_0, # of connection points: 2
#     Edge 89, Type (0, 0), BuildingBlock: EZIPEK_clean_linker_0, # of connection points: 2
#     Edge 90, Type (0, 0), BuildingBlock: EZIPEK_clean_linker_0, # of connection points: 2
#     Edge 91, Type (0, 0), BuildingBlock: EZIPEK_clean_linker_0, # of connection points: 2
#     Edge 92, Type (0, 0), BuildingBlock: EZIPEK_clean_linker_0, # of connection points: 2
#     Edge 93, Type (0, 0), BuildingBlock: EZIPEK_clean_linker_0, # of connection points: 2
#     Edge 94, Type (0, 0), BuildingBlock: EZIPEK_clean_linker_0, # of connection points: 2
#     Edge 95, Type (0, 0), BuildingBlock: EZIPEK_clean_linker_0, # of connection points: 2
#     Edge 96, Type (0, 0), BuildingBlock: EZIPEK_clean_linker_0, # of connection points: 2
#     Edge 97, Type (0, 0), BuildingBlock: EZIPEK_clean_linker_0, # of connection points: 2
#     Edge 98, Type (0, 0), BuildingBlock: EZIPEK_clean_linker_0, # of connection points: 2
#     Edge 99, Type (0, 0), BuildingBlock: EZIPEK_clean_linker_0, # of connection points: 2
#     Edge 100, Type (0, 0), BuildingBlock: EZIPEK_clean_linker_0, # of connection points: 2
#     Edge 101, Type (0, 0), BuildingBlock: EZIPEK_clean_linker_0, # of connection points: 2
#     Edge 102, Type (0, 0), BuildingBlock: EZIPEK_clean_linker_0, # of connection points: 2
#     Edge 103, Type (0, 0), BuildingBlock: EZIPEK_clean_linker_0, # of connection points: 2
#     Edge 104, Type (0, 0), BuildingBlock: EZIPEK_clean_linker_0, # of connection points: 2
#     Edge 105, Type (0, 0), BuildingBlock: EZIPEK_clean_linker_0, # of connection points: 2
#     Edge 106, Type (0, 0), BuildingBlock: EZIPEK_clean_linker_0, # of connection points: 2
#     Edge 107, Type (0, 0), BuildingBlock: EZIPEK_clean_linker_0, # of connection points: 2
#     Edge 108, Type (0, 0), BuildingBlock: EZIPEK_clean_linker_0, # of connection points: 2
#     Edge 109, Type (0, 0), BuildingBlock: EZIPEK_clean_linker_0, # of connection points: 2
#     Edge 110, Type (0, 0), BuildingBlock: EZIPEK_clean_linker_0, # of connection points: 2
#     Edge 111, Type (0, 0), BuildingBlock: EZIPEK_clean_linker_0, # of connection points: 2
#     Edge 112, Type (0, 0), BuildingBlock: EZIPEK_clean_linker_0, # of connection points: 2
#     Edge 113, Type (0, 0), BuildingBlock: EZIPEK_clean_linker_0, # of connection points: 2
#     Edge 114, Type (0, 0), BuildingBlock: EZIPEK_clean_linker_0, # of connection points: 2
#     Edge 115, Type (0, 0), BuildingBlock: EZIPEK_clean_linker_0, # of connection points: 2
#     Edge 116, Type (0, 0), BuildingBlock: EZIPEK_clean_linker_0, # of connection points: 2
#     Edge 117, Type (0, 0), BuildingBlock: EZIPEK_clean_linker_0, # of connection points: 2
#     Edge 118, Type (0, 0), BuildingBlock: EZIPEK_clean_linker_0, # of connection points: 2
#     Edge 119, Type (0, 0), BuildingBlock: EZIPEK_clean_linker_0, # of connection points: 2
# Relax obj value: 0.050
# Max RMSD: 0.127
# Mean RMSD: 0.045
data_MOF--net-vab--node1-OLANEW_clean_sbu_2--edge1-EZIPEK_clean_linker_0
_symmetry_space_group_name_H-M    P1
_symmetry_Int_Tables_number       1
_symmetry_cell_setting            triclinic
loop_
_symmetry_equiv_pos_as_xyz
'x, y, z'
_cell_length_a     47.794
_cell_length_b     48.306
_cell_length_c     48.297
_cell_angle_alpha  95.73
_cell_angle_beta   105.439
_cell_angle_gamma 105.458
loop_
_atom_site_label
_atom_site_type_symbol
_atom_site_fract_x
_atom_site_fract_y
_atom_site_fract_z
_atom_type_partial_charge
O0 O -0.0036 0.04409 0.30853 0.0
Cd1 Cd 0.03287 0.05478 0.28248 0.0
O2 O 0.9926 0.07656 0.28262 0.0
Cd3 Cd -0.00273 0.10577 0.25409 0.0
O4 O 0.03209 0.14189 0.28516 0.0
C5 C 0.02175 0.15031 0.3051 0.0
O6 O -0.00333 0.13278 0.30792 0.0
C7 C 0.9857 0.05933 0.29949 0.0
C8 C 0.06772 0.01797 0.29684 0.0
O9 O 0.04641 0.01878 0.30787 0.0
O10 O 0.0729 0.03459 0.27858 0.0
O11 O 0.41822 0.75977 0.6127 0.0
Cd12 Cd 0.44539 0.80593 0.60043 0.0
O13 O 0.38928 0.78483 0.59705 0.0
Cd14 Cd 0.37494 0.82058 0.58221 0.0
O15 O 0.39006 0.83716 0.62986 0.0
C16 C 0.375 0.85416 0.63439 0.0
O17 O 0.35981 0.86266 0.6114 0.0
C18 C 0.39147 0.76024 0.60304 0.0
C19 C 0.50662 0.80979 0.61269 0.0
O20 O 0.48552 0.78543 0.60674 0.0
O21 O 0.4991 0.83335 0.61237 0.0
O22 O 0.62929 0.10781 0.77021 0.0
Cd23 Cd 0.57875 0.11318 0.75408 0.0
O24 O 0.5985 0.06451 0.74915 0.0
Cd25 Cd 0.55456 0.03507 0.72453 0.0
O26 O 0.52673 0.01727 0.75117 0.0
C27 C 0.54328 0.01439 0.77552 0.0
O28 O 0.57283 0.02805 0.78366 0.0
C29 C 0.62499 0.08068 0.76387 0.0
C30 C 0.58716 0.17118 0.77526 0.0
O31 O 0.60512 0.15737 0.78718 0.0
O32 O 0.56397 0.15749 0.75319 0.0
O33 O 0.49686 0.45006 0.18815 0.0
Cd34 Cd 0.50844 0.41762 0.22147 0.0
O35 O 0.46611 0.44395 0.21443 0.0
Cd36 Cd 0.44544 0.42878 0.24637 0.0
O37 O 0.42356 0.38754 0.2162 0.0
C38 C 0.39639 0.38672 0.20341 0.0
O39 O 0.38739 0.40939 0.21006 0.0
C40 C 0.47508 0.4561 0.195 0.0
C41 C 0.56277 0.40838 0.21996 0.0
O42 O 0.54937 0.42183 0.20197 0.0
O43 O 0.55103 0.39951 0.23963 0.0
O44 O 0.49779 0.13698 0.06706 0.0
Cd45 Cd 0.45581 0.15657 0.04923 0.0
O46 O 0.45383 0.10317 0.05734 0.0
Cd47 Cd 0.41614 0.11593 0.07355 0.0
O48 O 0.43266 0.15166 0.11327 0.0
C49 C 0.43649 0.16316 0.13961 0.0
O50 O 0.46009 0.1867 0.15122 0.0
C51 C 0.48323 0.11198 0.06993 0.0
C52 C 0.43789 0.15881 0.99341 0.0
O53 O 0.46152 0.15104 0.00206 0.0
O54 O 0.42463 0.16851 0.00709 0.0
O55 O 0.40805 0.06707 0.31622 0.0
Cd56 Cd 0.38737 0.10758 0.31632 0.0
O57 O 0.43422 0.10373 0.3028 0.0
Cd58 Cd 0.44992 0.14392 0.28906 0.0
O59 O 0.40789 0.12753 0.25228 0.0
C60 C 0.4159 0.11763 0.23131 0.0
O61 O 0.44483 0.11885 0.23709 0.0
C62 C 0.43187 0.07875 0.30966 0.0
C63 C 0.35542 0.10767 0.35607 0.0
O64 O 0.37359 0.09233 0.35701 0.0
O65 O 0.35064 0.1217 0.33502 0.0
O66 O 0.36094 0.20237 0.55035 0.0
Cd67 Cd 0.32246 0.15809 0.55069 0.0
O68 O 0.32145 0.2123 0.52199 0.0
Cd69 Cd 0.29838 0.17368 0.4885 0.0
O70 O 0.32107 0.14478 0.47409 0.0
C71 C 0.32773 0.15096 0.45131 0.0
O72 O 0.3177 0.1707 0.43825 0.0
C73 C 0.35006 0.21916 0.5349 0.0
C74 C 0.32662 0.14219 0.60533 0.0
O75 O 0.3504 0.15226 0.59744 0.0
O76 O 0.30044 0.14012 0.5877 0.0
O77 O 0.28403 0.07854 0.7686 0.0
Cd78 Cd 0.33444 0.10975 0.77533 0.0
O79 O 0.30283 0.11013 0.80807 0.0
Cd80 Cd 0.32982 0.1471 0.84123 0.0
O81 O 0.37024 0.13418 0.85842 0.0
C82 C 0.36684 0.1248 0.88122 0.0
O83 O 0.34276 0.12675 0.88878 0.0
C84 C 0.28269 0.08662 0.7937 0.0
C85 C 0.33699 0.1162 0.72058 0.0
O86 O 0.32574 0.09136 0.72665 0.0
O87 O 0.345 0.13864 0.74089 0.0
O88 O 0.20264 0.28228 0.08869 0.0
Cd89 Cd 0.21686 0.30258 0.14064 0.0
O90 O 0.17394 0.30725 0.09745 0.0
Cd91 Cd 0.15387 0.33526 0.11704 0.0
O92 O 0.14284 0.30145 0.14325 0.0
C93 C 0.12357 0.30576 0.15545 0.0
O94 O 0.13105 0.33152 0.17204 0.0
C95 C 0.17899 0.2899 0.07924 0.0
C96 C 0.27869 0.31547 0.1666 0.0
O97 O 0.26355 0.29187 0.1481 0.0
O98 O 0.26445 0.33295 0.17335 0.0
O99 O 0.7809 0.40168 0.27535 0.0
Cd100 Cd 0.76464 0.38378 0.22287 0.0
O101 O 0.73395 0.37584 0.25434 0.0
Cd102 Cd 0.68989 0.3456 0.2334 0.0
O103 O 0.68976 0.38651 0.21801 0.0
C104 C 0.6768 0.39886 0.2329 0.0
O105 O 0.67481 0.38984 0.25739 0.0
C106 C 0.75589 0.38649 0.27771 0.0
C107 C 0.80979 0.37892 0.19969 0.0
O108 O 0.81655 0.39264 0.22574 0.0
O109 O 0.78173 0.36659 0.185 0.0
O110 O 0.04938 0.37374 0.39299 0.0
Cd111 Cd 0.03527 0.36224 0.34099 0.0
O112 O 0.06852 0.3434 0.37522 0.0
Cd113 Cd 0.08637 0.31127 0.35841 0.0
O114 O 0.04261 0.28062 0.32534 0.0
C115 C 0.02001 0.26532 0.33246 0.0
O116 O 0.04242 0.28041 0.32418 0.0
C117 C 0.06298 0.35472 0.39731 0.0
C118 C 0.03205 0.41154 0.31989 0.0
O119 O 0.01873 0.40261 0.33841 0.0
O120 O 0.05029 0.39809 0.31391 0.0
O121 O 0.26926 0.90704 0.77559 0.0
Cd122 Cd 0.25876 0.87633 0.73099 0.0
O123 O 0.22471 0.87275 0.76038 0.0
Cd124 Cd 0.18329 0.84849 0.72601 0.0
O125 O 0.18581 0.89245 0.71734 0.0
C126 C 0.15922 0.89349 0.70511 0.0
O127 O 0.13902 0.86898 0.68931 0.0
C128 C 0.24906 0.88696 0.78076 0.0
C129 C 0.30456 0.87418 0.7067 0.0
O130 O 0.31293 0.88829 0.73285 0.0
O131 O 0.27612 0.86071 0.69558 0.0
O132 O 0.69292 0.77027 0.59053 0.0
Cd133 Cd 0.71587 0.80475 0.63808 0.0
O134 O 0.66912 0.80025 0.60067 0.0
Cd135 Cd 0.65583 0.83648 0.61905 0.0
O136 O 0.64814 0.8096 0.65182 0.0
C137 C 0.62319 0.78941 0.6479 0.0
O138 O 0.62328 0.76214 0.64275 0.0
C139 C 0.67053 0.78017 0.58237 0.0
C140 C 0.77854 0.82112 0.6602 0.0
O141 O 0.76216 0.7944 0.65139 0.0
O142 O 0.76518 0.84108 0.65845 0.0
O143 O 0.19189 0.87121 0.30012 0.0
Cd144 Cd 0.17919 0.85232 0.34208 0.0
O145 O 0.19445 0.91154 0.32629 0.0
Cd146 Cd 0.19108 0.93435 0.36524 0.0
O147 O 0.14418 0.93483 0.35214 0.0
C148 C 0.14408 0.95555 0.33797 0.0
O149 O 0.17038 0.97265 0.33725 0.0
C150 C 0.19653 0.89862 0.3031 0.0
C151 C 0.14603 0.79246 0.32601 0.0
O152 O 0.16606 0.8048 0.31436 0.0
O153 O 0.14134 0.80825 0.34623 0.0
O154 O 0.69574 0.36916 0.80056 0.0
Cd155 Cd 0.67399 0.35315 0.83899 0.0
O156 O 0.6981 0.40956 0.82682 0.0
Cd157 Cd 0.69413 0.43161 0.86597 0.0
O158 O 0.64807 0.43428 0.8557 0.0
C159 C 0.64584 0.45045 0.83657 0.0
O160 O 0.6704 0.46254 0.8292 0.0
C161 C 0.70045 0.39661 0.80375 0.0
C162 C 0.64244 0.29317 0.82422 0.0
O163 O 0.63891 0.31064 0.80618 0.0
O164 O 0.66089 0.30405 0.85004 0.0
O165 O 0.16269 0.08014 0.81972 0.0
Cd166 Cd 0.11401 0.06051 0.82704 0.0
O167 O 0.14748 0.03285 0.80878 0.0
Cd168 Cd 0.1103 0.99499 0.80161 0.0
O169 O 0.11653 0.97732 0.84136 0.0
C170 C 0.14032 0.9692 0.84521 0.0
O171 O 0.15344 0.96982 0.82432 0.0
C172 C 0.16842 0.05673 0.81288 0.0
C173 C 0.10188 0.10647 0.85492 0.0
O174 O 0.12729 0.10956 0.84972 0.0
O175 O 0.08215 0.08113 0.84797 0.0
O176 O 0.02518 0.52265 0.62936 0.0
Cd177 Cd 0.02374 0.48252 0.65409 0.0
O178 O 0.00386 0.52596 0.66375 0.0
Cd179 Cd 1.00003 0.51095 0.70141 0.0
O180 O 0.95812 0.47591 0.6812 0.0
C181 C 0.93749 0.4873 0.68308 0.0
O182 O 0.94557 0.51436 0.69715 0.0
C183 C 0.00997 0.53469 0.64154 0.0
C184 C 0.05838 0.45411 0.63422 0.0
O185 O 0.03982 0.46381 0.61643 0.0
O186 O 0.06037 0.45765 0.66138 0.0
O187 O 0.53565 0.01509 0.32668 0.0
Cd188 Cd 0.58845 0.01595 0.33552 0.0
O189 O 0.56138 0.05144 0.31236 0.0
Cd190 Cd 0.59844 0.07777 0.30035 0.0
O191 O 0.63091 0.10466 0.33992 0.0
C192 C 0.62854 0.13023 0.34085 0.0
O193 O 0.6091 0.13577 0.3187 0.0
C194 C 0.53737 0.03942 0.31853 0.0
C195 C 0.5919 0.97118 0.35933 0.0
O196 O 0.57388 0.98481 0.36494 0.0
O197 O 0.60806 0.98069 0.34295 0.0
O198 O 0.95591 0.83728 0.0251 0.0
Cd199 Cd 0.97144 0.88755 0.0169 0.0
O200 O 0.91588 0.84869 0.00343 0.0
Cd201 Cd 0.89633 0.87916 0.98502 0.0
O202 O 0.88715 0.90063 0.01826 0.0
C203 C 0.859 0.89834 0.01072 0.0
O204 O 0.84293 0.88957 0.98567 0.0
C205 C 0.92706 0.8305 0.01599 0.0
C206 C 0.02455 0.91363 0.05391 0.0
O207 O 0.01281 0.88619 0.04437 0.0
O208 O 0.00776 0.92998 0.04601 0.0
O209 O 0.81277 0.13861 0.11857 0.0
Cd210 Cd 0.77201 0.09392 0.10782 0.0
O211 O 0.77914 0.13966 0.0773 0.0
Cd212 Cd 0.73515 0.10623 0.05592 0.0
O213 O 0.75044 0.07707 0.02883 0.0
C214 C 0.75104 0.08967 0.00713 0.0
O215 O 0.73719 0.11 0.00529 0.0
C216 C 0.80495 0.15074 0.09683 0.0
C217 C 0.77516 0.06799 0.15606 0.0
O218 O 0.79842 0.07635 0.14699 0.0
O219 O 0.7498 0.07161 0.14213 0.0
O220 O 0.74779 0.04089 0.81866 0.0
Cd221 Cd 0.79175 0.07163 0.81076 0.0
O222 O 0.75043 0.08747 0.82919 0.0
Cd223 Cd 0.79494 0.0977 0.8611 0.0
O224 O 0.80792 0.07874 0.90029 0.0
C225 C 0.78638 0.06178 0.90729 0.0
O226 O 0.7603 0.04848 0.88686 0.0
C227 C 0.73492 0.06092 0.818 0.0
C228 C 0.82187 0.05423 0.77412 0.0
O229 O 0.79299 0.0501 0.76375 0.0
O230 O 0.83407 0.0615 0.8019 0.0
O231 O 0.95408 0.06367 0.63361 0.0
Cd232 Cd 0.90649 0.07206 0.6035 0.0
O233 O 0.91311 0.0449 0.6443 0.0
Cd234 Cd 0.87546 0.02138 0.65594 0.0
O235 O 0.881 0.06851 0.66772 0.0
C236 C 0.88928 0.075 0.69533 0.0
O237 O 0.90862 0.06259 0.70957 0.0
C238 C 0.94083 0.04674 0.64779 0.0
C239 C 0.89058 0.06644 0.54264 0.0
O240 O 0.91824 0.07816 0.55894 0.0
O241 O 0.8701 0.05673 0.55491 0.0
O242 O 0.86855 0.00283 0.34161 0.0
Cd243 Cd 0.83178 0.02374 0.35852 0.0
O244 O 0.85678 0.03809 0.32275 0.0
Cd245 Cd 0.85366 0.07671 0.30716 0.0
O246 O 0.80871 0.04295 0.28857 0.0
C247 C 0.80693 0.03174 0.26303 0.0
O248 O 0.83252 0.02958 0.25886 0.0
C249 C 0.87339 0.02141 0.3254 0.0
C250 C 0.84194 0.03189 0.4188 0.0
O251 O 0.84586 0.01057 0.40405 0.0
O252 O 0.83391 0.05116 0.40481 0.0
O253 O 0.2546 0.95182 0.208 0.0
Cd254 Cd 0.25111 0.95263 0.15627 0.0
O255 O 0.21503 0.92047 0.17814 0.0
Cd256 Cd 0.17683 0.88997 0.14478 0.0
O257 O 0.15955 0.91648 0.11168 0.0
C258 C 0.14995 0.93712 0.12044 0.0
O259 O 0.15936 0.91633 0.11013 0.0
C260 C 0.22787 0.9352 0.20389 0.0
C261 C 0.30861 0.96974 0.15159 0.0
O262 O 0.30039 0.98564 0.16883 0.0
O263 O 0.28912 0.94612 0.13552 0.0
O264 O 0.66078 0.84331 0.00757 0.0
Cd265 Cd 0.70187 0.87533 0.05002 0.0
O266 O 0.65428 0.88183 0.02736 0.0
Cd267 Cd 0.65677 0.92683 0.03445 0.0
O268 O 0.65457 0.91468 0.07615 0.0
C269 C 0.63722 0.92844 0.08219 0.0
O270 O 0.63163 0.94845 0.06662 0.0
C271 C 0.6437 0.85943 0.00725 0.0
C272 C 0.76037 0.87764 0.05169 0.0
O273 O 0.73843 0.85374 0.04372 0.0
O274 O 0.75359 0.90138 0.05636 0.0
O275 O 0.2371 0.81162 0.88071 0.0
Cd276 Cd 0.217 0.80306 0.92305 0.0
O277 O 0.24744 0.85337 0.90817 0.0
Cd278 Cd 0.24933 0.88343 0.94517 0.0
O279 O 0.20409 0.88902 0.93 0.0
C280 C 0.20646 0.91151 0.9182 0.0
O281 O 0.23405 0.92837 0.92064 0.0
C282 C 0.24728 0.83926 0.8845 0.0
C283 C 0.18157 0.74465 0.91189 0.0
O284 O 0.17381 0.76325 0.89659 0.0
O285 O 0.20503 0.75425 0.93473 0.0
O286 O 0.16942 0.35104 0.50743 0.0
Cd287 Cd 0.20369 0.37972 0.55618 0.0
O288 O 0.16028 0.39038 0.51957 0.0
Cd289 Cd 0.14878 0.42747 0.53431 0.0
O290 O 0.14387 0.40661 0.5717 0.0
C291 C 0.1179 0.40559 0.57441 0.0
O292 O 0.09872 0.41315 0.5538 0.0
C293 C 0.15085 0.36572 0.50271 0.0
C294 C 0.26169 0.37753 0.56153 0.0
O295 O 0.24041 0.35476 0.56147 0.0
O296 O 0.2562 0.40219 0.56147 0.0
O297 O 0.75772 0.44943 0.70819 0.0
Cd298 Cd 0.75476 0.44978 0.65667 0.0
O299 O 0.71721 0.41894 0.67921 0.0
Cd300 Cd 0.68154 0.38978 0.64414 0.0
O301 O 0.66462 0.41525 0.61274 0.0
C302 C 0.65363 0.43486 0.62093 0.0
O303 O 0.66229 0.44668 0.64883 0.0
C304 C 0.73081 0.43362 0.70472 0.0
C305 C 0.81255 0.46896 0.652 0.0
O306 O 0.8048 0.48244 0.67152 0.0
O307 O 0.79252 0.44695 0.63383 0.0
O308 O 0.09841 0.31385 0.96846 0.0
Cd309 Cd 0.09111 0.31273 0.9152 0.0
O310 O 0.12395 0.29384 0.94721 0.0
Cd311 Cd 0.14615 0.27793 0.91887 0.0
O312 O 0.10592 0.24028 0.8982 0.0
C313 C 0.1157 0.22023 0.88946 0.0
O314 O 0.14501 0.22708 0.89163 0.0
C315 C 0.1151 0.29724 0.96945 0.0
C316 C 0.07882 0.35792 0.89105 0.0
O317 O 0.06878 0.34998 0.91198 0.0
O318 O 0.0948 0.34415 0.8812 0.0
O319 O 0.5908 0.80195 0.46075 0.0
Cd320 Cd 0.59562 0.81096 0.41227 0.0
O321 O 0.62256 0.785 0.44569 0.0
Cd322 Cd 0.65487 0.77483 0.42651 0.0
O323 O 0.61298 0.74282 0.39776 0.0
C324 C 0.62143 0.72145 0.38992 0.0
O325 O 0.6511 0.72543 0.39642 0.0
C326 C 0.60996 0.78776 0.46537 0.0
C327 C 0.58547 0.85983 0.39163 0.0
O328 O 0.56961 0.84658 0.4067 0.0
O329 O 0.60697 0.85064 0.38692 0.0
O330 O 0.49893 0.54798 0.81228 0.0
Cd331 Cd 0.53524 0.55758 0.78581 0.0
O332 O 0.48927 0.57958 0.78565 0.0
Cd333 Cd 0.49693 0.60438 0.75198 0.0
O334 O 0.52969 0.64083 0.78536 0.0
C335 C 0.51352 0.65585 0.79212 0.0
O336 O 0.48429 0.6482 0.77731 0.0
C337 C 0.48063 0.56232 0.80161 0.0
C338 C 0.57051 0.52102 0.79993 0.0
O339 O 0.55061 0.52302 0.81252 0.0
O340 O 0.57396 0.53614 0.78012 0.0
O341 O 0.92269 0.25815 0.10983 0.0
Cd342 Cd 0.94914 0.30481 0.09999 0.0
O343 O 0.88924 0.28009 0.09242 0.0
Cd344 Cd 0.8785 0.31748 0.07804 0.0
O345 O 0.89161 0.33926 0.123 0.0
C346 C 0.86802 0.33407 0.13143 0.0
O347 O 0.84168 0.31798 0.11276 0.0
C348 C 0.89509 0.25769 0.10082 0.0
C349 C 0.00328 0.30671 0.11322 0.0
O350 O 0.98828 0.28341 0.11066 0.0
O351 O -0.00346 0.33026 0.10913 0.0
O352 O 0.12341 0.60771 0.27293 0.0
Cd353 Cd 0.07517 0.61494 0.24892 0.0
O354 O 0.09353 0.5645 0.24991 0.0
Cd355 Cd 0.05149 0.53468 0.22112 0.0
O356 O 0.02011 0.51564 0.24519 0.0
C357 C 0.03456 0.5153 0.27143 0.0
O358 O 0.06282 0.53224 0.28242 0.0
C359 C 0.12062 0.58016 0.26433 0.0
C360 C 0.08553 0.67383 0.26909 0.0
O361 O 0.10654 0.66161 0.27354 0.0
O362 O 0.05826 0.65819 0.25463 0.0
O363 O -0.00048 0.95769 0.69714 0.0
Cd364 Cd 0.00336 0.91882 0.72599 0.0
O365 O 0.96968 0.94536 0.71625 0.0
Cd366 Cd 0.94257 0.92581 0.74135 0.0
O367 O 0.92492 0.88339 0.7135 0.0
C368 C 0.90243 0.8838 0.69263 0.0
O369 O 0.8998 0.90947 0.68744 0.0
C370 C 0.9811 0.96046 0.69983 0.0
C371 C 0.05844 0.912 0.72617 0.0
O372 O 0.0361 0.90608 0.70259 0.0
O373 O 0.05376 0.91833 0.75073 0.0
O374 O 0.99913 0.64279 0.57326 0.0
Cd375 Cd 0.95208 0.65333 0.54852 0.0
O376 O 0.95926 0.62592 0.58726 0.0
Cd377 Cd 0.92815 0.5989 0.60525 0.0
O378 O 0.94133 0.64608 0.62026 0.0
C379 C 0.95175 0.65067 0.64781 0.0
O380 O 0.96965 0.63527 0.65896 0.0
C381 C 0.98657 0.62715 0.58882 0.0
C382 C 0.9392 0.66189 0.49172 0.0
O383 O 0.96339 0.65557 0.50399 0.0
O384 O 0.9226 0.66711 0.50733 0.0
O385 O 0.90688 0.55934 0.81389 0.0
Cd386 Cd 0.88814 0.60168 0.81745 0.0
O387 O 0.92952 0.59712 0.79819 0.0
Cd388 Cd 0.931 0.63847 0.78721 0.0
O389 O 0.89389 0.61944 0.74594 0.0
C390 C 0.89756 0.60586 0.72368 0.0
O391 O 0.90999 0.58454 0.72706 0.0
C392 C 0.92864 0.57235 0.80476 0.0
C393 C 0.85847 0.60842 0.85801 0.0
O394 O 0.87504 0.59137 0.85974 0.0
O395 O 0.85436 0.62135 0.83602 0.0
O396 O 0.8541 0.71905 0.06338 0.0
Cd397 Cd 0.82407 0.66733 0.05419 0.0
O398 O 0.83007 0.70178 0.01859 0.0
Cd399 Cd 0.79624 0.67229 0.98399 0.0
O400 O 0.82169 0.64435 0.9747 0.0
C401 C 0.83113 0.65318 0.95412 0.0
O402 O 0.82375 0.6754 0.94375 0.0
C403 C 0.85131 0.72192 0.03711 0.0
C404 C 0.83027 0.6453 0.10508 0.0
O405 O 0.85164 0.66611 0.10216 0.0
O406 O 0.80554 0.63441 0.08385 0.0
O407 O 0.78705 0.57538 0.26676 0.0
Cd408 Cd 0.8372 0.60906 0.2703 0.0
O409 O 0.80802 0.6102 0.30346 0.0
Cd410 Cd 0.83248 0.64746 0.33731 0.0
O411 O 0.87039 0.63217 0.35622 0.0
C412 C 0.8679 0.62207 0.37894 0.0
O413 O 0.84306 0.62098 0.38635 0.0
C414 C 0.78667 0.58668 0.29139 0.0
C415 C 0.84629 0.61341 0.21737 0.0
O416 O 0.82491 0.59263 0.22027 0.0
O417 O 0.86458 0.63188 0.24003 0.0
O418 O 0.53451 0.8602 0.89492 0.0
Cd419 Cd 0.54091 0.86459 0.84688 0.0
O420 O 0.55901 0.83417 0.87827 0.0
Cd421 Cd 0.58785 0.81314 0.86364 0.0
O422 O 0.54025 0.78881 0.84064 0.0
C423 C 0.53362 0.76538 0.85046 0.0
O424 O 0.55222 0.76418 0.87564 0.0
C425 C 0.55302 0.84539 0.90003 0.0
C426 C 0.53448 0.91324 0.82298 0.0
O427 O 0.52702 0.90833 0.84591 0.0
O428 O 0.5488 0.8969 0.81428 0.0
O429 O 0.66236 0.58325 0.31346 0.0
Cd430 Cd 0.61664 0.56233 0.32667 0.0
O431 O 0.64944 0.53627 0.30734 0.0
Cd432 Cd 0.61513 0.49526 0.30272 0.0
O433 O 0.62261 0.47943 0.34335 0.0
C434 C 0.62917 0.45578 0.34024 0.0
O435 O 0.62682 0.44372 0.31366 0.0
C436 C 0.66989 0.56018 0.31005 0.0
C437 C 0.60412 0.60809 0.35443 0.0
O438 O 0.63094 0.61012 0.35306 0.0
O439 O 0.58304 0.58369 0.34392 0.0
O440 O 0.50502 0.00678 0.12629 0.0
Cd441 Cd 0.53483 0.99112 0.15971 0.0
O442 O 0.51982 0.03621 0.16941 0.0
Cd443 Cd 0.50227 0.00572 0.19494 0.0
O444 O 0.4544 0.9785 0.17837 0.0
C445 C 0.43415 0.99077 0.17948 0.0
O446 O 0.44488 0.01477 0.19288 0.0
C447 C 0.50949 0.0314 0.14164 0.0
C448 C 0.56158 0.9575 0.1326 0.0
O449 O 0.5637 0.98344 0.12757 0.0
O450 O 0.54634 0.9475 0.14958 0.0
O451 O 0.03591 0.52409 0.83752 0.0
Cd452 Cd 0.08658 0.52106 0.84123 0.0
O453 O 0.05764 0.55821 0.81697 0.0
Cd454 Cd 0.09487 0.57953 0.80193 0.0
O455 O 0.12766 0.60698 0.84172 0.0
C456 C 0.11792 0.62784 0.84898 0.0
O457 O 0.09235 0.62973 0.83142 0.0
C458 C 0.03525 0.54615 0.82555 0.0
C459 C 0.09103 0.47061 0.86126 0.0
O460 O 0.0779 0.48705 0.87186 0.0
O461 O 0.10269 0.47801 0.84106 0.0
O462 O 0.45309 0.33616 0.53056 0.0
Cd463 Cd 0.46701 0.38546 0.51974 0.0
O464 O 0.41329 0.34679 0.50596 0.0
Cd465 Cd 0.39481 0.37677 0.48177 0.0
O466 O 0.37992 0.40143 0.51283 0.0
C467 C 0.36486 0.38211 0.52382 0.0
O468 O 0.36204 0.35454 0.51466 0.0
C469 C 0.42442 0.32785 0.51731 0.0
C470 C 0.52733 0.41092 0.5547 0.0
O471 O 0.51404 0.38349 0.54709 0.0
O472 O 0.5117 0.42767 0.54498 0.0
O473 O 0.30713 0.64218 0.62165 0.0
Cd474 Cd 0.26682 0.59627 0.61029 0.0
O475 O 0.27414 0.64156 0.58025 0.0
Cd476 Cd 0.23063 0.62086 0.54727 0.0
O477 O 0.24257 0.58666 0.52469 0.0
C478 C 0.24446 0.59332 0.50039 0.0
O479 O 0.23674 0.61642 0.49288 0.0
C480 C 0.29974 0.65382 0.59956 0.0
C481 C 0.27077 0.56961 0.65842 0.0
O482 O 0.29462 0.58168 0.65143 0.0
O483 O 0.24462 0.56989 0.64258 0.0
O484 O 0.24015 0.53754 0.3127 0.0
Cd485 Cd 0.29015 0.56402 0.31337 0.0
O486 O 0.24969 0.58497 0.32433 0.0
Cd487 Cd 0.28036 0.60894 0.36496 0.0
O488 O 0.28983 0.57843 0.39174 0.0
C489 C 0.26968 0.57291 0.40464 0.0
O490 O 0.24643 0.58345 0.39695 0.0
C491 C 0.23112 0.55927 0.31911 0.0
C492 C 0.31832 0.55383 0.27307 0.0
O493 O 0.29004 0.55254 0.26436 0.0
O494 O 0.33131 0.55482 0.30025 0.0
O495 O 0.44511 0.55646 0.12488 0.0
Cd496 Cd 0.40281 0.57227 0.09926 0.0
O497 O 0.42295 0.55929 0.1585 0.0
Cd498 Cd 0.37589 0.53901 0.13554 0.0
O499 O 0.37189 0.57565 0.16406 0.0
C500 C 0.38392 0.58047 0.19183 0.0
O501 O 0.40877 0.57326 0.20319 0.0
C502 C 0.44352 0.55259 0.15007 0.0
C503 C 0.39169 0.57837 0.04041 0.0
O504 O 0.41605 0.57299 0.05409 0.0
O505 O 0.37425 0.5832 0.05519 0.0
O506 O 0.36409 0.50465 0.84391 0.0
Cd507 Cd 0.32586 0.52028 0.86351 0.0
O508 O 0.35108 0.53995 0.82604 0.0
Cd509 Cd 0.34963 0.57945 0.81066 0.0
O510 O 0.30634 0.54464 0.79034 0.0
C511 C 0.30623 0.5361 0.76466 0.0
O512 O 0.33305 0.53931 0.76046 0.0
C513 C 0.36795 0.52343 0.82762 0.0
C514 C 0.3291 0.52385 0.92299 0.0
O515 O 0.34217 0.50829 0.91103 0.0
O516 O 0.31283 0.53665 0.9065 0.0
O517 O 0.72981 0.31531 0.37609 0.0
Cd518 Cd 0.71915 0.30144 0.41921 0.0
O519 O 0.76788 0.35093 0.40698 0.0
Cd520 Cd 0.74636 0.37203 0.43524 0.0
O521 O 0.7045 0.38583 0.42373 0.0
C522 C 0.70545 0.41251 0.42898 0.0
O523 O 0.73056 0.43146 0.4471 0.0
C524 C 0.75325 0.33721 0.38083 0.0
C525 C 0.68736 0.2421 0.40651 0.0
O526 O 0.69185 0.25648 0.38652 0.0
O527 O 0.69786 0.25553 0.43305 0.0
C528 C 0.03473 0.22351 0.34822 0.0
C529 C 0.01367 0.23343 0.32826 0.0
C530 C 0.00293 0.19083 0.29108 0.0
C531 C 0.02489 0.18146 0.31091 0.0
N532 N 0.06468 0.1897 0.35653 0.0
N533 N 0.98029 0.22543 0.28293 0.0
C534 C 0.04201 0.19824 0.33895 0.0
C535 C -0.00381 0.21643 0.30042 0.0
N536 N 0.04752 0.23885 0.37611 0.0
N537 N 0.99482 0.17476 0.26343 0.0
H538 H 0.9745 0.24362 0.29042 0.0
H539 H 0.96669 0.21432 0.26199 0.0
H540 H -0.00239 0.16048 0.25362 0.0
H541 H 0.97355 0.17487 0.2505 0.0
H542 H 0.06834 0.23876 0.3901 0.0
H543 H 0.03624 0.25187 0.38458 0.0
H544 H 0.07844 0.20127 0.37728 0.0
H545 H 0.07089 0.17168 0.34931 0.0
C546 C 0.37691 0.87103 0.68579 0.0
C547 C 0.3619 0.85162 0.6588 0.0
C548 C 0.31232 0.85109 0.66205 0.0
C549 C 0.32601 0.87048 0.68973 0.0
N550 N 0.37263 0.90241 0.72632 0.0
N551 N 0.31774 0.81556 0.62624 0.0
C552 C 0.35886 0.88123 0.70163 0.0
C553 C 0.33029 0.83796 0.64984 0.0
N554 N 0.40819 0.87947 0.69561 0.0
N555 N 0.28244 0.84664 0.64648 0.0
H556 H 0.33107 0.80362 0.61977 0.0
H557 H 0.29535 0.80992 0.61251 0.0
H558 H 0.27197 0.86305 0.64795 0.0
H559 H 0.26882 0.82789 0.63119 0.0
H560 H 0.42171 0.89365 0.71514 0.0
H561 H 0.4206 0.87026 0.68441 0.0
H562 H 0.39612 0.90988 0.73688 0.0
H563 H 0.361 0.91471 0.7351 0.0
C564 C 0.51854 0.96013 0.82039 0.0
C565 C 0.52792 0.93738 0.80728 0.0
C566 C 0.53808 0.96587 0.76951 0.0
C567 C 0.53187 0.98933 0.78435 0.0
N568 N 0.51801 0.00686 0.82227 0.0
N569 N 0.53846 0.91583 0.7648 0.0
C570 C 0.52173 0.98683 0.80929 0.0
C571 C 0.53518 0.93948 0.78044 0.0
N572 N 0.50642 0.95629 0.84305 0.0
N573 N 0.54706 0.96908 0.74487 0.0
H574 H 0.52718 0.89434 0.76562 0.0
H575 H 0.55084 0.91708 0.74988 0.0
H576 H 0.54609 0.98648 0.73385 0.0
H577 H 0.5567 0.95527 0.73529 0.0
H578 H 0.50293 0.97282 0.85609 0.0
H579 H 0.49684 0.93591 0.84762 0.0
H580 H 0.51155 0.00777 0.84125 0.0
H581 H 0.51979 0.02628 0.81401 0.0
C582 C 0.62596 0.38672 0.19899 0.0
C583 C 0.65153 0.40922 0.21757 0.0
C584 C 0.61843 0.43203 0.23581 0.0
C585 C 0.59328 0.4074 0.22043 0.0
N586 N 0.57217 0.36017 0.18887 0.0
N587 N 0.67344 0.454 0.251 0.0
C588 C 0.59671 0.38433 0.20231 0.0
C589 C 0.64782 0.433 0.23383 0.0
N590 N 0.63073 0.36619 0.18063 0.0
N591 N 0.61413 0.45431 0.25237 0.0
H592 H 0.69418 0.45747 0.24614 0.0
H593 H 0.67446 0.46361 0.27167 0.0
H594 H 0.59352 0.45328 0.25673 0.0
H595 H 0.63104 0.47397 0.26148 0.0
H596 H 0.61596 0.34506 0.17243 0.0
H597 H 0.65059 0.37066 0.17426 0.0
H598 H 0.5731 0.34228 0.17554 0.0
H599 H 0.55094 0.35743 0.19239 0.0
C600 C 0.10585 0.00742 0.33685 0.0
C601 C 0.08722 -0.0001 0.30718 0.0
C602 C 0.0977 0.95769 0.30072 0.0
C603 C 0.11734 0.96607 0.32991 0.0
N604 N 0.13504 0.99586 0.37764 0.0
N605 N 0.06389 0.97106 0.26013 0.0
C606 C 0.11844 0.991 0.3487 0.0
C607 C 0.08165 0.97699 0.28881 0.0
N608 N 0.10978 0.03393 0.35315 0.0
N609 N 0.09485 0.9314 0.28478 0.0
H610 H 0.05314 0.98562 0.25064 0.0
H611 H 0.06026 0.95234 0.24521 0.0
H612 H 0.10499 0.91645 0.29429 0.0
H613 H 0.08158 0.92364 0.26301 0.0
H614 H 0.12257 0.04091 0.3751 0.0
H615 H 0.1013 0.05003 0.34417 0.0
H616 H 0.14257 0.01153 0.39264 0.0
H617 H 0.14337 0.9798 0.38696 0.0
C618 C 0.57334 0.78903 0.6563 0.0
C619 C 0.59332 0.79527 0.63889 0.0
C620 C 0.55828 0.81593 0.60644 0.0
C621 C 0.5386 0.81006 0.62404 0.0
N622 N 0.52768 0.79479 0.66705 0.0
N623 N 0.6008 0.80568 0.59338 0.0
C624 C 0.54638 0.7978 0.64952 0.0
C625 C 0.58495 0.80676 0.61305 0.0
N626 N 0.57986 0.77406 0.6787 0.0
N627 N 0.55058 0.8288 0.58265 0.0
H628 H 0.61548 0.79286 0.59483 0.0
H629 H 0.59892 0.81595 0.57531 0.0
H630 H 0.53105 0.83564 0.57727 0.0
H631 H 0.56406 0.8341 0.56897 0.0
H632 H 0.56592 0.76766 0.69174 0.0
H633 H 0.5987 0.76615 0.68328 0.0
H634 H 0.52917 0.78313 0.68412 0.0
H635 H 0.5106 0.8051 0.66486 0.0
C636 C 0.59214 0.21363 0.8119 0.0
C637 C 0.59583 0.20297 0.78507 0.0
C638 C 0.63302 0.24955 0.78693 0.0
C639 C 0.6289 0.261 0.81343 0.0
N640 N 0.60823 0.25319 0.85378 0.0
N641 N 0.61606 0.21013 0.74478 0.0
C642 C 0.60951 0.24282 0.82681 0.0
C643 C 0.61476 0.22103 0.77163 0.0
N644 N 0.57166 0.19556 0.82257 0.0
N645 N 0.65584 0.26566 0.77751 0.0
H646 H 0.60151 0.18987 0.73251 0.0
H647 H 0.63029 0.22119 0.73378 0.0
H648 H 0.67384 0.28308 0.79153 0.0
H649 H 0.6582 0.26117 0.75684 0.0
H650 H 0.56756 0.20077 0.84228 0.0
H651 H 0.55729 0.17507 0.81054 0.0
H652 H 0.59492 0.24115 0.86504 0.0
H653 H 0.62193 0.27367 0.86601 0.0
C654 C 0.36434 0.33681 0.2019 0.0
C655 C 0.3729 0.35946 0.1864 0.0
C656 C 0.32092 0.3465 0.15322 0.0
C657 C 0.3115 0.32705 0.17153 0.0
N658 N 0.32251 0.3015 0.21166 0.0
N659 N 0.36299 0.38145 0.14394 0.0
C660 C 0.33278 0.32109 0.19518 0.0
C661 C 0.35226 0.36226 0.16044 0.0
N662 N 0.3863 0.33191 0.22401 0.0
N663 N 0.29953 0.35088 0.12997 0.0
H664 H 0.38642 0.39065 0.14806 0.0
H665 H 0.34957 0.38746 0.12616 0.0
H666 H 0.27616 0.33963 0.12391 0.0
H667 H 0.30423 0.36602 0.11663 0.0
H668 H 0.38199 0.31861 0.23905 0.0
H669 H 0.40959 0.34057 0.22658 0.0
H670 H 0.33648 0.2967 0.22996 0.0
H671 H 0.29934 0.2901 0.20715 0.0
C672 C 0.409 0.16118 0.17817 0.0
C673 C 0.42238 0.14716 0.15996 0.0
C674 C 0.40986 0.10279 0.18067 0.0
C675 C 0.39969 0.1178 0.20066 0.0
N676 N 0.37939 0.15597 0.21285 0.0
N677 N 0.45196 0.11408 0.16122 0.0
C678 C 0.39475 0.14491 0.19651 0.0
C679 C 0.42653 0.11979 0.16472 0.0
N680 N 0.41258 0.19051 0.18004 0.0
N681 N 0.41044 0.07485 0.183 0.0
H682 H 0.46927 0.13014 0.15719 0.0
H683 H 0.45753 0.09515 0.16546 0.0
H684 H 0.39956 0.06315 0.19637 0.0
H685 H 0.42095 0.06337 0.17161 0.0
H686 H 0.40515 0.20256 0.19415 0.0
H687 H 0.42574 0.20383 0.16949 0.0
H688 H 0.37939 0.17765 0.21596 0.0
H689 H 0.36602 0.14237 0.22319 0.0
C690 C 0.36769 0.1526 0.42872 0.0
C691 C 0.3439 0.13496 0.43728 0.0
C692 C 0.3287 0.09773 0.3937 0.0
C693 C 0.35011 0.11705 0.38332 0.0
N694 N 0.3917 0.16175 0.39068 0.0
N695 N 0.3084 0.08841 0.43452 0.0
C696 C 0.37034 0.14416 0.40087 0.0
C697 C 0.32701 0.10632 0.42208 0.0
N698 N 0.38683 0.17782 0.44734 0.0
N699 N 0.30964 0.07193 0.37604 0.0
H700 H 0.3103 0.09347 0.45667 0.0
H701 H 0.29224 0.06843 0.42382 0.0
H702 H 0.30928 0.06621 0.35444 0.0
H703 H 0.29337 0.05673 0.3821 0.0
H704 H 0.40356 0.19352 0.44234 0.0
H705 H 0.38617 0.18246 0.46878 0.0
H706 H 0.40451 0.18321 0.40059 0.0
H707 H 0.39648 0.15535 0.37154 0.0
C708 C 0.34959 0.15551 0.65948 0.0
C709 C 0.32982 0.13423 0.63461 0.0
C710 C 0.32126 0.09731 0.66571 0.0
C711 C 0.33947 0.11946 0.69074 0.0
N712 N 0.37887 0.1657 0.71081 0.0
N713 N 0.29839 0.08448 0.61274 0.0
C714 C 0.35639 0.14723 0.68725 0.0
C715 C 0.31585 0.105 0.63735 0.0
N716 N 0.36165 0.18376 0.65642 0.0
N717 N 0.31053 0.06882 0.66885 0.0
H718 H 0.29595 0.08863 0.59155 0.0
H719 H 0.28598 0.06317 0.61273 0.0
H720 H 0.32044 0.0606 0.68688 0.0
H721 H 0.29391 0.05218 0.65283 0.0
H722 H 0.37877 0.1998 0.6727 0.0
H723 H 0.35343 0.19174 0.63755 0.0
H724 H 0.38667 0.18835 0.71288 0.0
H725 H 0.38999 0.15779 0.72864 0.0
C726 C 0.42054 0.14376 0.91117 0.0
C727 C 0.39243 0.12142 0.90413 0.0
C728 C 0.39634 0.12154 0.95529 0.0
C729 C 0.42184 0.14736 0.96244 0.0
N730 N 0.45926 0.18314 0.94843 0.0
N731 N 0.35928 0.08192 0.91714 0.0
C732 C 0.43458 0.15844 0.94073 0.0
C733 C 0.38305 0.10739 0.92579 0.0
N734 N 0.43249 0.15127 0.88917 0.0
N735 N 0.38477 0.11078 0.97659 0.0
H736 H 0.35114 0.071 0.89535 0.0
H737 H 0.34766 0.07185 0.93071 0.0
H738 H 0.39593 0.11768 0.99897 0.0
H739 H 0.36338 0.0955 0.97233 0.0
H740 H 0.4508 0.16969 0.89125 0.0
H741 H 0.42415 0.13759 0.86861 0.0
H742 H 0.46965 0.19255 0.93372 0.0
H743 H 0.46871 0.19506 0.9698 0.0
C744 C 0.86517 0.37969 0.15649 0.0
C745 C 0.86758 0.35124 0.15817 0.0
C746 C 0.83941 0.3455 0.19384 0.0
C747 C 0.83342 0.37213 0.18902 0.0
N748 N 0.84114 0.41614 0.16846 0.0
N749 N 0.86465 0.31023 0.18255 0.0
C750 C 0.84695 0.39006 0.17152 0.0
C751 C 0.85744 0.33539 0.17865 0.0
N752 N 0.87877 0.3956 0.13901 0.0
N753 N 0.82676 0.32957 0.212 0.0
H754 H 0.88151 0.30565 0.17456 0.0
H755 H 0.85572 0.29522 0.19446 0.0
H756 H 0.81359 0.33667 0.22375 0.0
H757 H 0.82867 0.30913 0.21555 0.0
H758 H 0.87566 0.41522 0.13381 0.0
H759 H 0.89426 0.38924 0.12999 0.0
H760 H 0.84912 0.42995 0.15512 0.0
H761 H 0.82781 0.42405 0.17941 0.0
C762 C 0.03365 0.43823 0.27834 0.0
C763 C 0.02573 0.43578 0.30471 0.0
C764 C 0.01847 0.48467 0.30665 0.0
C765 C 0.02822 0.48729 0.28142 0.0
N766 N 0.048 0.46877 0.24446 0.0
N767 N 0.00366 0.45398 0.34047 0.0
C768 C 0.0366 0.46467 0.26762 0.0
C769 C 0.01579 0.45807 0.31779 0.0
N770 N 0.03772 0.4148 0.26311 0.0
N771 N 0.01235 0.50792 0.32003 0.0
H772 H 1.00028 0.43366 0.34496 0.0
H773 H -0.00016 0.47024 0.35352 0.0
H774 H 0.01474 0.52773 0.31249 0.0
H775 H 0.00588 0.50855 0.33902 0.0
H776 H 0.05103 0.41626 0.24901 0.0
H777 H 0.02666 0.39325 0.26403 0.0
H778 H 0.05652 0.45428 0.23432 0.0
H779 H 0.05083 0.48766 0.23547 0.0
C780 C 0.10581 0.89717 0.74319 0.0
C781 C 0.0893 0.91274 0.72494 0.0
C782 C 0.13277 0.93038 0.70601 0.0
C783 C 0.14683 0.91212 0.72153 0.0
N784 N 0.15357 0.88574 0.76061 0.0
N785 N 0.08717 0.9452 0.68909 0.0
C786 C 0.13606 0.89943 0.74326 0.0
C787 C 0.10292 0.93007 0.70659 0.0
N788 N 0.09171 0.87821 0.75821 0.0
N789 N 0.14787 0.94653 0.68967 0.0
H790 H 0.0649 0.94511 0.68755 0.0
H791 H 0.09577 0.95775 0.67514 0.0
H792 H 0.17045 0.94736 0.6911 0.0
H793 H 0.13918 0.95949 0.67579 0.0
H794 H 0.10245 0.86614 0.77176 0.0
H795 H 0.06822 0.87229 0.75517 0.0
H796 H 0.14618 0.87017 0.77264 0.0
H797 H 0.17641 0.88971 0.76176 0.0
C798 C 0.10971 0.75638 0.28217 0.0
C799 C 0.12569 0.76222 0.31269 0.0
C800 C 0.10568 0.71026 0.31481 0.0
C801 C 0.093 0.70427 0.28395 0.0
N802 N 0.078 0.72047 0.23827 0.0
N803 N 0.13895 0.74533 0.35863 0.0
C804 C 0.09359 0.72703 0.26756 0.0
C805 C 0.12353 0.73934 0.32933 0.0
N806 N 0.10982 0.77923 0.26739 0.0
N807 N 0.10058 0.6876 0.32977 0.0
H808 H 0.15298 0.76619 0.36967 0.0
H809 H 0.13849 0.72975 0.37212 0.0
H810 H 0.08408 0.66738 0.31978 0.0
H811 H 0.1116 0.68841 0.3517 0.0
H812 H 0.10423 0.77712 0.24475 0.0
H813 H 0.11562 0.80083 0.27813 0.0
H814 H 0.07727 0.73576 0.22453 0.0
H815 H 0.06424 0.69937 0.22768 0.0
C816 C 0.57904 0.47238 0.79507 0.0
C817 C 0.58945 0.5022 0.80904 0.0
C818 C 0.63027 0.49362 0.84672 0.0
C819 C 0.62167 0.46462 0.8315 0.0
N820 N 0.58605 0.42396 0.79506 0.0
N821 N 0.6254 0.54247 0.84625 0.0
C822 C 0.59524 0.45312 0.80684 0.0
C823 C 0.61528 0.51324 0.83437 0.0
N824 N 0.55423 0.46305 0.77033 0.0
N825 N 0.65344 0.50209 0.87269 0.0
H826 H 0.61582 0.55764 0.83657 0.0
H827 H 0.64407 0.55217 0.86481 0.0
H828 H 0.66094 0.48672 0.8841 0.0
H829 H 0.66499 0.52363 0.88317 0.0
H830 H 0.54473 0.44162 0.75889 0.0
H831 H 0.54328 0.47732 0.76045 0.0
H832 H 0.56707 0.41363 0.7769 0.0
H833 H 0.59699 0.40963 0.8048 0.0
C834 C 0.1433 0.92172 0.85839 0.0
C835 C 0.14817 0.95177 0.8679 0.0
C836 C 0.18018 0.94964 0.91625 0.0
C837 C 0.17971 0.92132 0.9048 0.0
N838 N 0.15108 0.87635 0.87085 0.0
N839 N 0.16514 0.9933 0.9071 0.0
C840 C 0.15826 0.906 0.87758 0.0
C841 C 0.16439 0.96539 0.89747 0.0
N842 N 0.1247 0.90858 0.8307 0.0
N843 N 0.19587 0.96091 0.94513 0.0
H844 H 0.15552 0.00134 0.89372 0.0
H845 H 0.17934 0.00148 0.9283 0.0
H846 H 0.20484 0.94804 0.95921 0.0
H847 H 0.199 0.98194 0.95556 0.0
H848 H 0.12527 0.88907 0.81985 0.0
H849 H 0.10954 0.91815 0.81819 0.0
H850 H 0.13634 0.86381 0.85083 0.0
H851 H 0.16014 0.86426 0.88564 0.0
C852 C 0.12516 0.44469 0.61134 0.0
C853 C 0.11554 0.41381 0.60307 0.0
C854 C 0.07024 0.40912 0.61893 0.0
C855 C 0.07811 0.44013 0.62392 0.0
N856 N 0.11131 0.48797 0.6244 0.0
N857 N 0.08269 0.36602 0.60125 0.0
C858 C 0.10515 0.45814 0.62007 0.0
C859 C 0.08972 0.39576 0.6087 0.0
N860 N 0.15114 0.46077 0.60619 0.0
N861 N 0.04352 0.39285 0.62261 0.0
H862 H 0.09723 0.35655 0.5935 0.0
H863 H 0.06316 0.35088 0.60268 0.0
H864 H 0.02815 0.40227 0.6288 0.0
H865 H 0.03608 0.3701 0.61944 0.0
H866 H 0.15601 0.48263 0.60401 0.0
H867 H 0.16761 0.45149 0.60248 0.0
H868 H 0.12971 0.50244 0.62043 0.0
H869 H 0.09758 0.49874 0.63181 0.0
C870 C 0.64306 0.19694 0.39573 0.0
C871 C 0.67437 0.21016 0.3989 0.0
C872 C 0.67784 0.16518 0.37349 0.0
C873 C 0.64562 0.15347 0.36669 0.0
N874 N 0.59838 0.15365 0.37587 0.0
N875 N 0.72324 0.20726 0.39592 0.0
C876 C 0.62857 0.16787 0.37973 0.0
C877 C 0.6924 0.19411 0.38974 0.0
N878 N 0.6273 0.2127 0.4071 0.0
N879 N 0.69404 0.14903 0.36342 0.0
H880 H 0.73452 0.22781 0.40935 0.0
H881 H 0.73798 0.1983 0.38826 0.0
H882 H 0.68428 0.12718 0.35307 0.0
H883 H 0.7173 0.15658 0.3658 0.0
H884 H 0.60402 0.2052 0.40476 0.0
H885 H 0.63793 0.2338 0.4195 0.0
H886 H 0.58342 0.16301 0.3827 0.0
H887 H 0.58833 0.13155 0.36612 0.0
C888 C 0.83987 0.91289 0.05193 0.0
C889 C 0.84224 0.8909 0.03181 0.0
C890 C 0.79821 0.85499 0.03756 0.0
C891 C 0.79221 0.87852 0.05291 0.0
N892 N 0.81314 0.92488 0.08583 0.0
N893 N 0.83248 0.83998 0.01379 0.0
C894 C 0.81542 0.90584 0.06415 0.0
C895 C 0.82433 0.8614 0.02769 0.0
N896 N 0.8608 0.9401 0.05905 0.0
N897 N 0.77952 0.82689 0.0329 0.0
H898 H 0.85451 0.84387 0.0118 0.0
H899 H 0.81796 0.81898 0.00416 0.0
H900 H 0.76393 0.82045 0.04441 0.0
H901 H 0.78069 0.80938 0.01921 0.0
H902 H 0.85979 0.95764 0.07285 0.0
H903 H 0.87974 0.94482 0.05129 0.0
H904 H 0.82399 0.94736 0.09043 0.0
H905 H 0.79946 0.91746 0.09901 0.0
C906 C 0.11696 0.14715 0.89649 0.0
C907 C 0.09624 0.13195 0.86884 0.0
C908 C 0.07559 0.17322 0.86256 0.0
C909 C 0.09934 0.18929 0.88804 0.0
N910 N 0.1342 0.1905 0.9341 0.0
N911 N 0.05303 0.12767 0.82678 0.0
C912 C 0.11641 0.17522 0.90699 0.0
C913 C 0.07396 0.14379 0.85254 0.0
N914 N 0.13746 0.13494 0.91228 0.0
N915 N 0.05579 0.18665 0.84786 0.0
H916 H 0.05201 0.10645 0.81851 0.0
H917 H 0.0364 0.13486 0.81337 0.0
H918 H 0.05645 0.20774 0.85632 0.0
H919 H 0.03807 0.1768 0.82855 0.0
H920 H 0.15526 0.14621 0.9311 0.0
H921 H 0.13704 0.1134 0.90614 0.0
H922 H 0.15491 0.18777 0.94545 0.0
H923 H 0.12846 0.20765 0.94377 0.0
C924 C 0.88703 0.45199 0.67581 0.0
C925 C 0.90551 0.47386 0.66541 0.0
C926 C 0.86267 0.49163 0.64383 0.0
C927 C 0.84474 0.47158 0.6567 0.0
N928 N 0.83825 0.43275 0.68487 0.0
N929 N 0.91146 0.5086 0.6337 0.0
C930 C 0.85639 0.4515 0.67248 0.0
C931 C 0.89305 0.49134 0.64685 0.0
N932 N 0.89941 0.43256 0.68952 0.0
N933 N 0.8509 0.51125 0.62975 0.0
H934 H 0.93276 0.50608 0.63404 0.0
H935 H 0.90599 0.52466 0.62234 0.0
H936 H 0.82915 0.51276 0.62875 0.0
H937 H 0.86286 0.5268 0.62013 0.0
H938 H 0.88816 0.41669 0.6993 0.0
H939 H 0.92112 0.43154 0.68968 0.0
H940 H 0.84496 0.41754 0.6968 0.0
H941 H 0.81604 0.43265 0.68404 0.0
C942 C 0.6054 0.94127 0.39693 0.0
C943 C 0.59021 0.94269 0.36777 0.0
C944 C 0.56694 0.88955 0.35555 0.0
C945 C 0.58304 0.88806 0.38444 0.0
N946 N 0.61508 0.9108 0.43359 0.0
N947 N 0.55735 0.92 0.31879 0.0
C948 C 0.60127 0.91353 0.40556 0.0
C949 C 0.57111 0.91729 0.34686 0.0
N950 N 0.62438 0.96644 0.41585 0.0
N951 N 0.54793 0.86436 0.33671 0.0
H952 H 0.5609 0.93997 0.31148 0.0
H953 H 0.54279 0.9028 0.30212 0.0
H954 H 0.54335 0.84406 0.3433 0.0
H955 H 0.5359 0.86327 0.31496 0.0
H956 H 0.63647 0.96748 0.43754 0.0
H957 H 0.62894 0.98685 0.4095 0.0
H958 H 0.62954 0.92801 0.45028 0.0
H959 H 0.61174 0.89076 0.44076 0.0
C960 C 0.06403 0.90736 0.09615 0.0
C961 C 0.05606 0.92474 0.07485 0.0
C962 C 0.11023 0.95461 0.08803 0.0
C963 C 0.11778 0.93582 0.10762 0.0
N964 N 0.10328 0.89634 0.13276 0.0
N965 N 0.07101 0.96612 0.0512 0.0
C966 C 0.095 0.91269 0.1122 0.0
C967 C 0.07892 0.94906 0.07122 0.0
N968 N 0.04159 0.88627 0.10173 0.0
N969 N 0.13338 0.97677 0.08478 0.0
H970 H 0.04873 0.96305 0.03824 0.0
H971 H 0.08631 0.98399 0.04729 0.0
H972 H 0.15627 0.98108 0.0971 0.0
H973 H 0.13069 0.99101 0.07014 0.0
H974 H 0.04518 0.86885 0.11183 0.0
H975 H 0.01895 0.88663 0.09663 0.0
H976 H 0.08958 0.87651 0.13505 0.0
H977 H 0.12475 0.90299 0.14812 0.0
C978 C 0.76642 0.10186 0.96615 0.0
C979 C 0.76557 0.08258 0.98693 0.0
C980 C 0.78499 0.051 0.95704 0.0
C981 C 0.78394 0.07018 0.93658 0.0
N982 N 0.77335 0.11335 0.92066 0.0
N983 N 0.77852 0.03972 0.00032 0.0
C984 C 0.77464 0.0953 0.94098 0.0
C985 C 0.77622 0.05726 0.98293 0.0
N986 N 0.76034 0.12778 0.97074 0.0
N987 N 0.79349 0.0265 0.95083 0.0
H988 H 0.77375 0.04342 0.01991 0.0
H989 H 0.78613 0.02138 -0.00133 0.0
H990 H 0.79982 0.02209 0.93203 0.0
H991 H 0.79412 0.01014 0.96332 0.0
H992 H 0.74735 0.13581 0.95428 0.0
H993 H 0.7699 0.14179 0.99102 0.0
H994 H 0.76181 0.12891 0.91937 0.0
H995 H 0.78239 0.1125 0.90339 0.0
C996 C 0.8417 0.04932 0.70355 0.0
C997 C 0.86559 0.07606 0.70932 0.0
C998 C 0.86395 0.08635 0.75937 0.0
C999 C 0.84111 0.05873 0.7542 0.0
N1000 N 0.81248 0.01174 0.72352 0.0
N1001 N 0.89764 0.12165 0.74064 0.0
C1002 C 0.83124 0.03956 0.72683 0.0
C1003 C 0.8753 0.09556 0.73634 0.0
N1004 N 0.83082 0.03238 0.67617 0.0
N1005 N 0.87609 0.10306 0.78681 0.0
H1006 H 0.90661 0.12834 0.72397 0.0
H1007 H 0.90697 0.13682 0.76018 0.0
H1008 H 0.87977 0.0935 0.8054 0.0
H1009 H 0.88554 0.12574 0.79115 0.0
H1010 H 0.82173 0.00969 0.67181 0.0
H1011 H 0.83183 0.04118 0.6574 0.0
H1012 H 0.80207 0.9996 0.70431 0.0
H1013 H 0.80675 0.00341 0.74112 0.0
C1014 C 0.85715 0.07105 0.49517 0.0
C1015 C 0.88216 0.062 0.51032 0.0
C1016 C 0.87438 0.02628 0.46713 0.0
C1017 C 0.85033 0.03634 0.4514 0.0
N1018 N 0.81228 0.06046 0.45243 0.0
N1019 N 0.91866 0.03558 0.50993 0.0
C1020 C 0.83973 0.05651 0.4661 0.0
C1021 C 0.89237 0.04137 0.49581 0.0
N1022 N 0.85053 0.09371 0.50887 0.0
N1023 N 0.87925 0.00176 0.45496 0.0
H1024 H 0.93452 0.04898 0.52898 0.0
H1025 H 0.92633 0.019 0.5021 0.0
H1026 H 0.85931 0.98895 0.43895 0.0
H1027 H 0.89634 0.99886 0.46239 0.0
H1028 H 0.83213 0.10128 0.49989 0.0
H1029 H 0.86516 0.10635 0.52898 0.0
H1030 H 0.80374 0.07637 0.46028 0.0
H1031 H 0.79687 0.04588 0.43369 0.0
C1032 C 0.79604 0.07946 0.20992 0.0
C1033 C 0.77881 0.0583 0.18423 0.0
C1034 C 0.76941 0.01991 0.21335 0.0
C1035 C 0.78776 0.04102 0.23872 0.0
N1036 N 0.81283 0.0912 0.26263 0.0
N1037 N 0.74892 0.00885 0.16 0.0
C1038 C 0.79855 0.071 0.23734 0.0
C1039 C 0.7649 0.02861 0.18548 0.0
N1040 N 0.80938 0.1079 0.20817 0.0
N1041 N 0.75493 0.995 0.21631 0.0
H1042 H 0.74757 0.01436 0.13936 0.0
H1043 H 0.73476 0.99036 0.1589 0.0
H1044 H 0.75759 0.9891 0.23694 0.0
H1045 H 0.74174 0.97779 0.19901 0.0
H1046 H 0.82435 0.12376 0.22597 0.0
H1047 H 0.80598 0.11601 0.18869 0.0
H1048 H 0.83131 0.10956 0.26501 0.0
H1049 H 0.807 0.08856 0.28181 0.0
C1050 C 0.56733 0.92712 0.09073 0.0
C1051 C 0.57828 0.94022 0.12088 0.0
C1052 C 0.62372 0.92381 0.12741 0.0
C1053 C 0.61486 0.9157 0.09687 0.0
N1054 N 0.57593 0.89764 0.0513 0.0
N1055 N 0.61541 0.94987 0.16893 0.0
C1056 C 0.58478 0.91181 0.07967 0.0
C1057 C 0.60573 0.93751 0.13985 0.0
N1058 N 0.54136 0.93056 0.07275 0.0
N1059 N 0.65022 0.91992 0.14361 0.0
H1060 H 0.60433 0.96269 0.17801 0.0
H1061 H 0.63476 0.94817 0.18413 0.0
H1062 H 0.66201 0.90851 0.13372 0.0
H1063 H 0.6595 0.92629 0.16624 0.0
H1064 H 0.5342 0.92433 0.05007 0.0
H1065 H 0.52766 0.94117 0.08044 0.0
H1066 H 0.55855 0.90031 0.03442 0.0
H1067 H 0.58831 0.88455 0.04477 0.0
C1068 C 0.15748 0.69083 0.9139 0.0
C1069 C 0.16917 0.7129 0.89864 0.0
C1070 C 0.15392 0.67626 0.85386 0.0
C1071 C 0.13982 0.65499 0.86801 0.0
N1072 N 0.131 0.63897 0.9114 0.0
N1073 N 0.18411 0.72565 0.85635 0.0
C1074 C 0.14273 0.66128 0.89823 0.0
C1075 C 0.16874 0.70525 0.8692 0.0
N1076 N 0.15985 0.69825 0.94279 0.0
N1077 N 0.15417 0.66814 0.82587 0.0
H1078 H 0.20302 0.74323 0.86865 0.0
H1079 H 0.17839 0.72501 0.83385 0.0
H1080 H 0.14856 0.64627 0.816 0.0
H1081 H 0.16052 0.6826 0.81244 0.0
H1082 H 0.15219 0.68347 0.95549 0.0
H1083 H 0.16984 0.71967 0.95445 0.0
H1084 H 0.13136 0.64129 0.9332 0.0
H1085 H 0.12131 0.6173 0.9002 0.0
C1086 C 0.31841 0.38942 0.57478 0.0
C1087 C 0.2891 0.37473 0.55447 0.0
C1088 C 0.31066 0.3749 0.51405 0.0
C1089 C 0.34009 0.38749 0.5342 0.0
N1090 N 0.37319 0.41115 0.5824 0.0
N1091 N 0.25749 0.34864 0.50593 0.0
C1092 C 0.34445 0.39607 0.56437 0.0
C1093 C 0.28541 0.36543 0.5245 0.0
N1094 N 0.3209 0.39621 0.60376 0.0
N1095 N 0.30761 0.37146 0.48479 0.0
H1096 H 0.23952 0.33802 0.51331 0.0
H1097 H 0.25246 0.34353 0.48333 0.0
H1098 H 0.32434 0.38414 0.47699 0.0
H1099 H 0.28956 0.35616 0.46866 0.0
H1100 H 0.34118 0.40761 0.62015 0.0
H1101 H 0.30215 0.38918 0.61157 0.0
H1102 H 0.37842 0.41891 0.60469 0.0
H1103 H 0.39172 0.41748 0.57419 0.0
C1104 C 0.11332 0.43644 0.88874 0.0
C1105 C 0.08812 0.44162 0.86883 0.0
C1106 C 0.05504 0.39222 0.86582 0.0
C1107 C 0.08048 0.38704 0.88507 0.0
N1108 N 0.13226 0.40278 0.91764 0.0
N1109 N 0.03606 0.42555 0.83668 0.0
C1110 C 0.10921 0.40884 0.89746 0.0
C1111 C 0.05912 0.41984 0.857 0.0
N1112 N 0.1409 0.45799 0.89924 0.0
N1113 N 0.02755 0.37044 0.85561 0.0
H1114 H 0.03948 0.44428 0.82725 0.0
H1115 H 0.01367 0.41179 0.82836 0.0
H1116 H 0.02415 0.35015 0.86227 0.0
H1117 H 0.00785 0.37214 0.84099 0.0
H1118 H 0.16047 0.45581 0.91365 0.0
H1119 H 0.14456 0.47846 0.89304 0.0
H1120 H 0.15469 0.41632 0.92626 0.0
H1121 H 0.12904 0.38366 0.92651 0.0
C1122 C 0.58097 0.67697 0.35851 0.0
C1123 C 0.6015 0.69134 0.38625 0.0
C1124 C 0.6148 0.6475 0.39648 0.0
C1125 C 0.59799 0.63396 0.36701 0.0
N1126 N 0.56167 0.63314 0.32066 0.0
N1127 N 0.62746 0.68956 0.43514 0.0
C1128 C 0.57919 0.64755 0.34838 0.0
C1129 C 0.61372 0.67555 0.40671 0.0
N1130 N 0.56426 0.69197 0.3421 0.0
N1131 N 0.63239 0.63392 0.41411 0.0
H1132 H 0.62227 0.70811 0.44292 0.0
H1133 H 0.64503 0.68454 0.44977 0.0
H1134 H 0.63272 0.61272 0.40754 0.0
H1135 H 0.64734 0.64383 0.4349 0.0
H1136 H 0.54889 0.68342 0.32121 0.0
H1137 H 0.56474 0.71294 0.35075 0.0
H1138 H 0.54784 0.64176 0.30563 0.0
H1139 H 0.56071 0.61198 0.31227 0.0
C1140 C 0.51173 0.68649 0.83419 0.0
C1141 C 0.52652 0.68364 0.81273 0.0
C1142 C 0.53237 0.73404 0.80707 0.0
C1143 C 0.51885 0.73753 0.82955 0.0
N1144 N 0.48863 0.71656 0.85911 0.0
N1145 N 0.55784 0.70517 0.78422 0.0
C1146 C 0.50587 0.71325 0.84115 0.0
C1147 C 0.53978 0.70795 0.80148 0.0
N1148 N 0.50332 0.66312 0.8473 0.0
N1149 N 0.53859 0.75611 0.79183 0.0
H1150 H 0.56559 0.68688 0.78251 0.0
H1151 H 0.56664 0.72126 0.77327 0.0
H1152 H 0.52652 0.77146 0.79027 0.0
H1153 H 0.55442 0.75869 0.78024 0.0
H1154 H 0.49047 0.66211 0.86181 0.0
H1155 H 0.51104 0.64499 0.84413 0.0
H1156 H 0.47907 0.70027 0.8695 0.0
H1157 H 0.48269 0.73583 0.86207 0.0
C1158 C 0.05211 0.30782 0.10346 0.0
C1159 C 0.03484 0.30605 0.12323 0.0
C1160 C 0.07138 0.2884 0.15741 0.0
C1161 C 0.0904 0.29338 0.13937 0.0
N1162 N 0.09718 0.30221 0.09327 0.0
N1163 N 0.02938 0.29995 0.17057 0.0
C1164 C 0.07963 0.30048 0.11134 0.0
C1165 C 0.04468 0.29743 0.15059 0.0
N1166 N 0.04248 0.31699 0.07754 0.0
N1167 N 0.08093 0.27778 0.18236 0.0
H1168 H 0.01333 0.31149 0.16782 0.0
H1169 H 0.03392 0.29288 0.19051 0.0
H1170 H 0.09973 0.26968 0.18611 0.0
H1171 H 0.07047 0.27648 0.1988 0.0
H1172 H 0.0529 0.3171 0.06108 0.0
H1173 H 0.02421 0.32565 0.07265 0.0
H1174 H 0.09553 0.31303 0.07562 0.0
H1175 H 0.11463 0.29293 0.09722 0.0
C1176 C 0.83003 0.82158 0.65578 0.0
C1177 C 0.81203 0.82903 0.67299 0.0
C1178 C 0.85716 0.86454 0.70805 0.0
C1179 C 0.87384 0.86074 0.68835 0.0
N1180 N 0.87919 0.83459 0.64589 0.0
N1181 N 0.80864 0.85208 0.71825 0.0
C1182 C 0.86125 0.83867 0.66297 0.0
C1183 C 0.82577 0.84881 0.70009 0.0
N1184 N 0.81699 0.79898 0.63229 0.0
N1185 N 0.87133 0.88422 0.73383 0.0
H1186 H 0.78666 0.83796 0.71468 0.0
H1187 H 0.81618 0.868 0.7371 0.0
H1188 H 0.89502 0.89154 0.74334 0.0
H1189 H 0.86003 0.89423 0.74549 0.0
H1190 H 0.8272 0.79452 0.61649 0.0
H1191 H 0.79614 0.7832 0.62925 0.0
H1192 H 0.87177 0.81933 0.62657 0.0
H1193 H 0.90228 0.84671 0.65143 0.0
C1194 C 0.94457 0.66517 0.69456 0.0
C1195 C 0.93064 0.65479 0.66435 0.0
C1196 C 0.88976 0.61691 0.67264 0.0
C1197 C 0.90641 0.62424 0.70293 0.0
N1198 N 0.95058 0.65344 0.74243 0.0
N1199 N 0.88538 0.63023 0.62453 0.0
C1200 C 0.93309 0.64897 0.71404 0.0
C1201 C 0.9009 0.63446 0.6536 0.0
N1202 N 0.97226 0.68651 0.70392 0.0
N1203 N 0.86432 0.59294 0.66215 0.0
H1204 H 0.89035 0.64672 0.61239 0.0
H1205 H 0.8698 0.61046 0.61235 0.0
H1206 H 0.85572 0.57975 0.67577 0.0
H1207 H 0.85247 0.58543 0.63996 0.0
H1208 H 0.98599 0.69319 0.72565 0.0
H1209 H 0.98182 0.69701 0.68916 0.0
H1210 H 0.96567 0.67355 0.75434 0.0
H1211 H 0.95269 0.63543 0.75216 0.0
C1212 C 0.8722 0.64613 0.90179 0.0
C1213 C 0.85222 0.61882 0.88447 0.0
C1214 C 0.82897 0.60836 0.92325 0.0
C1215 C 0.84608 0.63706 0.9385 0.0
N1216 N 0.88893 0.67987 0.94828 0.0
N1217 N 0.81178 0.57372 0.87737 0.0
C1218 C 0.86966 0.65466 0.92968 0.0
C1219 C 0.83072 0.59966 0.8949 0.0
N1220 N 0.89346 0.6637 0.89152 0.0
N1221 N 0.81052 0.59026 0.93571 0.0
H1222 H 0.81138 0.5679 0.85577 0.0
H1223 H 0.79563 0.55843 0.88348 0.0
H1224 H 0.81267 0.5948 0.95794 0.0
H1225 H 0.79441 0.57025 0.92501 0.0
H1226 H 0.90624 0.68517 0.90142 0.0
H1227 H 0.89818 0.65727 0.87238 0.0
H1228 H 0.90554 0.69562 0.94321 0.0
H1229 H 0.88844 0.68452 0.96979 0.0
C1230 C 0.82984 0.6441 0.18285 0.0
C1231 C 0.84305 0.62127 0.18869 0.0
C1232 C 0.8456 0.61247 0.13884 0.0
C1233 C 0.83336 0.63596 0.1333 0.0
N1234 N 0.81245 0.67355 0.14793 0.0
N1235 N 0.86265 0.58277 0.17406 0.0
C1236 C 0.82528 0.65179 0.15481 0.0
C1237 C 0.85065 0.60503 0.16715 0.0
N1238 N 0.82091 0.65767 0.20401 0.0
N1239 N 0.85229 0.59759 0.11692 0.0
H1240 H 0.86675 0.57724 0.19487 0.0
H1241 H 0.86877 0.56966 0.15966 0.0
H1242 H 0.84835 0.60248 0.09586 0.0
H1243 H 0.86148 0.5803 0.11904 0.0
H1244 H 0.81365 0.67615 0.20272 0.0
H1245 H 0.82037 0.6504 0.22361 0.0
H1246 H 0.80599 0.68631 0.16231 0.0
H1247 H 0.8076 0.67892 0.1271 0.0
C1248 C 0.88888 0.60737 0.4244 0.0
C1249 C 0.89514 0.62313 0.40257 0.0
C1250 C 0.93364 0.66356 0.43885 0.0
C1251 C 0.92442 0.64943 0.46082 0.0
N1252 N 0.89627 0.60686 0.47589 0.0
N1253 N 0.92982 0.65944 0.38703 0.0
C1254 C 0.90304 0.62086 0.454 0.0
C1255 C 0.92022 0.64888 0.40929 0.0
N1256 N 0.86813 0.57997 0.41612 0.0
N1257 N 0.95475 0.69075 0.44633 0.0
H1258 H 0.92399 0.64594 0.36668 0.0
H1259 H 0.94386 0.68053 0.3886 0.0
H1260 H 0.96409 0.70214 0.46791 0.0
H1261 H 0.96235 0.70244 0.43132 0.0
H1262 H 0.85991 0.56754 0.43035 0.0
H1263 H 0.85944 0.56959 0.39416 0.0
H1264 H 0.87665 0.58946 0.4728 0.0
H1265 H 0.91008 0.61298 0.49768 0.0
C1266 C 0.69719 0.43711 0.38557 0.0
C1267 C 0.6851 0.42354 0.40658 0.0
C1268 C 0.63889 0.43877 0.38898 0.0
C1269 C 0.64934 0.4482 0.36553 0.0
N1270 N 0.68995 0.46187 0.34406 0.0
N1271 N 0.64526 0.41185 0.42947 0.0
C1272 C 0.67887 0.44871 0.36451 0.0
C1273 C 0.65597 0.42431 0.40852 0.0
N1274 N 0.72715 0.44093 0.38716 0.0
N1275 N 0.6133 0.4444 0.39278 0.0
H1276 H 0.65645 0.39951 0.44243 0.0
H1277 H 0.6253 0.4131 0.43384 0.0
H1278 H 0.6023 0.4571 0.38021 0.0
H1279 H 0.60437 0.43888 0.40967 0.0
H1280 H 0.73821 0.45309 0.37441 0.0
H1281 H 0.74137 0.43171 0.40112 0.0
H1282 H 0.70732 0.45745 0.33683 0.0
H1283 H 0.68141 0.47754 0.33418 0.0
C1284 C 0.38686 0.98788 0.14192 0.0
C1285 C 0.40163 0.97572 0.16479 0.0
C1286 C 0.35454 0.95729 0.17682 0.0
C1287 C 0.34095 0.97321 0.15666 0.0
N1288 N 0.34586 0.00141 0.12092 0.0
N1289 N 0.39938 0.94196 0.19779 0.0
C1290 C 0.35682 0.98885 0.13928 0.0
C1291 C 0.38521 0.95792 0.18015 0.0
N1292 N 0.40188 0.9978 0.1227 0.0
N1293 N 0.33815 0.94214 0.19296 0.0
H1294 H 0.42082 0.94028 0.19768 0.0
H1295 H 0.38978 0.92928 0.21112 0.0
H1296 H 0.31562 0.94146 0.19135 0.0
H1297 H 0.34669 0.93066 0.20862 0.0
H1298 H 0.39655 0.00569 0.10643 0.0
H1299 H 0.42199 0.99289 0.12248 0.0
H1300 H 0.35657 0.01401 0.10814 0.0
H1301 H 0.32422 0.00335 0.11974 0.0
C1302 C 0.58211 0.44666 0.57216 0.0
C1303 C 0.55947 0.42143 0.5748 0.0
C1304 C 0.59937 0.40633 0.60809 0.0
C1305 C 0.62169 0.43064 0.60455 0.0
N1306 N 0.63625 0.47581 0.58751 0.0
N1307 N 0.54627 0.38118 0.60021 0.0
C1308 C 0.6136 0.45145 0.58786 0.0
C1309 C 0.56817 0.40255 0.59431 0.0
N1310 N 0.57388 0.46589 0.55487 0.0
N1311 N 0.60803 0.38802 0.6265 0.0
H1312 H 0.52444 0.38285 0.59842 0.0
H1313 H 0.54967 0.36223 0.60728 0.0
H1314 H 0.6306 0.38928 0.6368 0.0
H1315 H 0.59332 0.37195 0.63322 0.0
H1316 H 0.58917 0.48408 0.55142 0.0
H1317 H 0.55153 0.46471 0.54389 0.0
H1318 H 0.63302 0.49263 0.57633 0.0
H1319 H 0.6592 0.47989 0.59952 0.0
C1320 C 0.2574 0.54577 0.44194 0.0
C1321 C 0.2786 0.56809 0.43469 0.0
C1322 C 0.28769 0.60077 0.47977 0.0
C1323 C 0.262 0.58089 0.48423 0.0
N1324 N 0.22736 0.53207 0.47503 0.0
N1325 N 0.3202 0.61282 0.44865 0.0
C1326 C 0.24901 0.55211 0.46753 0.0
C1327 C 0.29699 0.59365 0.45522 0.0
N1328 N 0.24361 0.51987 0.42255 0.0
N1329 N 0.30158 0.62723 0.49808 0.0
H1330 H 0.32918 0.6067 0.4323 0.0
H1331 H 0.33035 0.63472 0.45858 0.0
H1332 H 0.29465 0.6325 0.51609 0.0
H1333 H 0.31921 0.64393 0.49558 0.0
H1334 H 0.22609 0.50274 0.42462 0.0
H1335 H 0.25041 0.5159 0.40395 0.0
H1336 H 0.21529 0.51122 0.46277 0.0
H1337 H 0.22217 0.53632 0.49445 0.0
C1338 C 0.34218 0.54784 0.20518 0.0
C1339 C 0.36282 0.5765 0.20935 0.0
C1340 C 0.3561 0.58975 0.25695 0.0
C1341 C 0.33654 0.56058 0.25311 0.0
N1342 N 0.31409 0.51109 0.22661 0.0
N1343 N 0.38814 0.62556 0.23694 0.0
C1344 C 0.3298 0.53966 0.2277 0.0
C1345 C 0.36909 0.59791 0.23447 0.0
N1346 N 0.33695 0.52735 0.18103 0.0
N1347 N 0.36215 0.60941 0.28207 0.0
H1348 H 0.39713 0.63206 0.22023 0.0
H1349 H 0.39491 0.64234 0.25497 0.0
H1350 H 0.35561 0.60378 0.30024 0.0
H1351 H 0.37389 0.6316 0.28564 0.0
H1352 H 0.3201 0.50719 0.17444 0.0
H1353 H 0.35137 0.52873 0.16826 0.0
H1354 H 0.30921 0.49397 0.20941 0.0
H1355 H 0.308 0.50371 0.24441 0.0
C1356 C 0.36727 0.56491 0.95992 0.0
C1357 C 0.34401 0.53753 0.95397 0.0
C1358 C 0.35546 0.53671 0.00326 0.0
C1359 C 0.37714 0.56495 0.0093 0.0
N1360 N 0.40576 0.60524 0.99619 0.0
N1361 N 0.31517 0.4967 0.97036 0.0
C1362 C 0.38325 0.57896 0.98947 0.0
C1363 C 0.3373 0.52321 0.97682 0.0
N1364 N 0.37445 0.5769 0.93704 0.0
N1365 N 0.3527 0.52219 0.02595 0.0
H1366 H 0.30218 0.48651 0.94893 0.0
H1367 H 0.30939 0.48483 0.98601 0.0
H1368 H 0.37002 0.52735 0.04601 0.0
H1369 H 0.33359 0.50533 0.02544 0.0
H1370 H 0.38766 0.59827 0.93865 0.0
H1371 H 0.36708 0.5654 0.91555 0.0
H1372 H 0.41259 0.61679 0.98078 0.0
H1373 H 0.41896 0.61575 0.0148 0.0
C1374 C 0.27013 0.52014 0.71487 0.0
C1375 C 0.28342 0.54176 0.74055 0.0
C1376 C 0.28483 0.58104 0.71236 0.0
C1377 C 0.27392 0.55956 0.68641 0.0
N1378 N 0.25548 0.50916 0.66157 0.0
N1379 N 0.29624 0.59145 0.76511 0.0
C1380 C 0.26575 0.52909 0.68716 0.0
C1381 C 0.28753 0.57178 0.73955 0.0
N1382 N 0.26328 0.49132 0.71759 0.0
N1383 N 0.29252 0.61024 0.71089 0.0
H1384 H 0.29166 0.58537 0.78401 0.0
H1385 H 0.30805 0.61355 0.76802 0.0
H1386 H 0.28947 0.61807 0.69125 0.0
H1387 H 0.30259 0.62712 0.72899 0.0
H1388 H 0.25464 0.47369 0.70018 0.0
H1389 H 0.26555 0.48526 0.73814 0.0
H1390 H 0.24889 0.48655 0.66019 0.0
H1391 H 0.25403 0.51538 0.6412 0.0
C1392 C 0.93028 0.03454 0.28244 0.0
C1393 C 0.95613 0.05352 0.30478 0.0
C1394 C 0.92841 0.04878 0.34086 0.0
C1395 C 0.90245 0.0297 0.31862 0.0
N1396 N 0.87866 0.00109 0.26987 0.0
N1397 N 0.98053 0.08137 0.35371 0.0
C1398 C 0.90331 0.02168 0.28974 0.0
C1399 C 0.95538 0.06149 0.33361 0.0
N1400 N 0.93218 0.02821 0.25469 0.0
N1401 N 0.92693 0.05464 0.36882 0.0
H1402 H 0.99966 0.09256 0.34813 0.0
H1403 H 0.98249 0.0877 0.37559 0.0
H1404 H 0.9076 0.0455 0.37507 0.0
H1405 H 0.94476 0.06797 0.38654 0.0
H1406 H 0.91483 0.01399 0.23715 0.0
H1407 H 0.95147 0.0377 0.24849 0.0
H1408 H 0.87443 0.99786 0.24809 0.0
H1409 H 0.85716 0.99316 0.27556 0.0
C1410 C 0.32305 0.70729 0.61676 0.0
C1411 C 0.32 0.68192 0.59723 0.0
C1412 C 0.36181 0.70897 0.58034 0.0
C1413 C 0.36552 0.73407 0.6008 0.0
N1414 N 0.35219 0.75783 0.63946 0.0
N1415 N 0.3368 0.65687 0.562 0.0
C1416 C 0.3467 0.73354 0.61924 0.0
C1417 C 0.33922 0.68236 0.57905 0.0
N1418 N 0.30392 0.70565 0.63378 0.0
N1419 N 0.38045 0.7106 0.56257 0.0
H1420 H 0.32166 0.63679 0.56215 0.0
H1421 H 0.34944 0.6551 0.54769 0.0
H1422 H 0.39659 0.72997 0.56227 0.0
H1423 H 0.3802 0.6932 0.54775 0.0
H1424 H 0.30581 0.72217 0.65039 0.0
H1425 H 0.28551 0.68712 0.63146 0.0
H1426 H 0.33964 0.75938 0.65386 0.0
H1427 H 0.37009 0.777 0.64248 0.0
C1428 C 0.6576 0.06849 0.80745 0.0
C1429 C 0.64908 0.06793 0.77676 0.0
C1430 C 0.69242 0.05144 0.77258 0.0
C1431 C 0.70233 0.0547 0.80351 0.0
N1432 N 0.69519 0.06381 0.85067 0.0
N1433 N 0.65562 0.05731 0.72937 0.0
C1434 C 0.68477 0.062 0.82097 0.0
C1435 C 0.66545 0.05845 0.75899 0.0
N1436 N 0.63996 0.07591 0.82349 0.0
N1437 N 0.71002 0.04352 0.75673 0.0
H1438 H 0.63561 0.06194 0.71889 0.0
H1439 H 0.66678 0.0517 0.71485 0.0
H1440 H 0.72832 0.03579 0.76585 0.0
H1441 H 0.70692 0.04439 0.73468 0.0
H1442 H 0.64575 0.07902 0.84621 0.0
H1443 H 0.61871 0.07866 0.81384 0.0
H1444 H 0.68545 0.071 0.8658 0.0
H1445 H 0.71434 0.05769 0.86052 0.0
C1446 C 0.43205 0.49909 0.14832 0.0
C1447 C 0.45213 0.52789 0.16106 0.0
C1448 C 0.48467 0.50927 0.19798 0.0
C1449 C 0.46509 0.48055 0.18493 0.0
N1450 N 0.42052 0.44693 0.14888 0.0
N1451 N 0.49589 0.56156 0.19789 0.0
C1452 C 0.4385 0.47512 0.16069 0.0
C1453 C 0.47794 0.53333 0.18599 0.0
N1454 N 0.40728 0.49487 0.12411 0.0
N1455 N 0.50984 0.51316 0.22166 0.0
H1456 H 0.49133 0.57957 0.18941 0.0
H1457 H 0.51542 0.56757 0.21592 0.0
H1458 H 0.51459 0.49603 0.2318 0.0
H1459 H 0.5265 0.53304 0.23151 0.0
H1460 H 0.38956 0.47538 0.1155 0.0
H1461 H 0.40408 0.51117 0.11201 0.0
H1462 H 0.4008 0.44077 0.13097 0.0
H1463 H 0.42582 0.42917 0.1572 0.0
C1464 C 0.53158 0.07372 0.12097 0.0
C1465 C 0.50642 0.05595 0.12782 0.0
C1466 C 0.47571 0.08573 0.10937 0.0
C1467 C 0.49676 0.09914 0.09567 0.0
N1468 N 0.55055 0.11499 0.09854 0.0
N1469 N 0.45618 0.0479 0.13357 0.0
C1470 C 0.52684 0.0961 0.10441 0.0
C1471 C 0.47901 0.06278 0.12356 0.0
N1472 N 0.55938 0.06877 0.13033 0.0
N1473 N 0.45157 0.09524 0.10806 0.0
H1474 H 0.4587 0.0321 0.14639 0.0
H1475 H 0.43492 0.05164 0.12932 0.0
H1476 H 0.45566 0.11753 0.10857 0.0
H1477 H 0.42944 0.08074 0.09996 0.0
H1478 H 0.57841 0.07834 0.12402 0.0
H1479 H 0.56335 0.05427 0.14467 0.0
H1480 H 0.57284 0.11366 0.10454 0.0
H1481 H 0.54834 0.13358 0.08995 0.0
C1482 C 0.50024 0.06444 0.29243 0.0
C1483 C 0.51235 0.05282 0.31734 0.0
C1484 C 0.46729 0.05167 0.33375 0.0
C1485 C 0.4558 0.06419 0.30949 0.0
N1486 N 0.45526 0.0732 0.26155 0.0
N1487 N 0.5111 0.04108 0.36464 0.0
C1488 C 0.47075 0.06813 0.28772 0.0
C1489 C 0.49695 0.04836 0.33898 0.0
N1490 N 0.51645 0.07153 0.27312 0.0
N1491 N 0.44985 0.04286 0.35162 0.0
H1492 H 0.53462 0.04396 0.37143 0.0
H1493 H 0.50039 0.03346 0.3798 0.0
H1494 H 0.42613 0.03793 0.34492 0.0
H1495 H 0.45773 0.03731 0.3719 0.0
H1496 H 0.50903 0.07995 0.25443 0.0
H1497 H 0.53884 0.07136 0.27629 0.0
H1498 H 0.46421 0.07694 0.24432 0.0
H1499 H 0.43197 0.07127 0.25632 0.0
C1500 C 0.40522 0.29622 0.55111 0.0
C1501 C 0.40433 0.30088 0.52218 0.0
C1502 C 0.36926 0.25125 0.5019 0.0
C1503 C 0.37006 0.24674 0.53089 0.0
N1504 N 0.3875 0.26408 0.58296 0.0
N1505 N 0.38611 0.28371 0.46992 0.0
C1506 C 0.38804 0.26886 0.55552 0.0
C1507 C 0.38597 0.27876 0.49743 0.0
N1508 N 0.42156 0.31874 0.57425 0.0
N1509 N 0.35357 0.22854 0.47887 0.0
H1510 H 0.39934 0.30307 0.46605 0.0
H1511 H 0.3736 0.26893 0.45053 0.0
H1512 H 0.34529 0.20729 0.48212 0.0
H1513 H 0.34961 0.22995 0.45684 0.0
H1514 H 0.42553 0.31691 0.59615 0.0
H1515 H 0.43092 0.3401 0.5716 0.0
H1516 H 0.40241 0.27746 0.60238 0.0
H1517 H 0.3717 0.24636 0.58671 0.0
C1518 C 0.25419 0.0831 0.83061 0.0
C1519 C 0.25728 0.07075 0.80423 0.0
C1520 C 0.20368 0.04074 0.78815 0.0
C1521 C 0.19936 0.0575 0.81197 0.0
N1522 N 0.2212 0.08933 0.8596 0.0
N1523 N 0.23996 0.02956 0.76477 0.0
C1524 C 0.22492 0.0771 0.83443 0.0
C1525 C 0.23359 0.04653 0.78537 0.0
N1526 N 0.27982 0.0991 0.85247 0.0
N1527 N 0.17938 0.02017 0.7678 0.0
H1528 H 0.2623 0.02922 0.76676 0.0
H1529 H 0.22379 0.01523 0.74651 0.0
H1530 H 0.15682 0.01577 0.76787 0.0
H1531 H 0.18096 0.00737 0.74995 0.0
H1532 H 0.28048 0.11402 0.87002 0.0
H1533 H 0.30048 0.09531 0.85289 0.0
H1534 H 0.23762 0.10703 0.87465 0.0
H1535 H 0.20143 0.08149 0.86563 0.0
C1536 C 0.12735 0.27682 0.04191 0.0
C1537 C 0.15883 0.28022 0.04845 0.0
C1538 C 0.152 0.27481 0.99948 0.0
C1539 C 0.12546 0.28419 0.99566 0.0
N1540 N 0.0833 0.28656 0.01103 0.0
N1541 N 0.19443 0.26353 0.02914 0.0
C1542 C 0.11173 0.28323 0.01521 0.0
C1543 C 0.16994 0.27407 0.02499 0.0
N1544 N 0.11162 0.26106 0.05776 0.0
N1545 N 0.15905 0.26486 0.9757 0.0
H1546 H 0.20195 0.25448 0.04739 0.0
H1547 H 0.20479 0.2602 0.01316 0.0
H1548 H 0.14144 0.2541 0.95665 0.0
H1549 H 0.18112 0.2658 0.97558 0.0
H1550 H 0.0878 0.25523 0.05261 0.0
H1551 H 0.12312 0.25386 0.076 0.0
H1552 H 0.07404 0.28871 0.02821 0.0
H1553 H 0.06839 0.28641 0.99349 0.0
C1554 C 0.74516 0.37526 0.35066 0.0
C1555 C 0.75735 0.35168 0.35587 0.0
C1556 C 0.76584 0.34948 0.30787 0.0
C1557 C 0.7559 0.3745 0.30428 0.0
N1558 N 0.73692 0.41213 0.32116 0.0
N1559 N 0.77583 0.3137 0.33839 0.0
C1560 C 0.74601 0.3878 0.32546 0.0
C1561 C 0.76698 0.33814 0.33419 0.0
N1562 N 0.72931 0.38324 0.36794 0.0
N1563 N 0.77413 0.33677 0.28586 0.0
H1564 H 0.77788 0.30569 0.35794 0.0
H1565 H 0.78064 0.30093 0.32266 0.0
H1566 H 0.77172 0.34355 0.26568 0.0
H1567 H 0.78378 0.31981 0.28726 0.0
H1568 H 0.71106 0.3911 0.3595 0.0
H1569 H 0.7307 0.37743 0.38822 0.0
H1570 H 0.72684 0.42134 0.3346 0.0
H1571 H 0.73892 0.423 0.30373 0.0
C1572 C 0.11283 0.32989 0.45705 0.0
C1573 C 0.11998 0.35452 0.47939 0.0
C1574 C 0.07501 0.36726 0.45157 0.0
C1575 C 0.07399 0.34821 0.42697 0.0
N1576 N 0.08007 0.30307 0.40902 0.0
N1577 N 0.09897 0.38639 0.50253 0.0
C1578 C 0.08915 0.32671 0.43073 0.0
C1579 C 0.09838 0.37032 0.47787 0.0
N1580 N 0.12772 0.30926 0.46113 0.0
N1581 N 0.0533 0.3815 0.44997 0.0
H1582 H 0.1088 0.38057 0.5221 0.0
H1583 H 0.08903 0.40321 0.50294 0.0
H1584 H 0.03232 0.37463 0.4334 0.0
H1585 H 0.05504 0.3992 0.46533 0.0
H1586 H 0.12705 0.29351 0.44434 0.0
H1587 H 0.13907 0.30641 0.4818 0.0
H1588 H 0.09357 0.28988 0.40616 0.0
H1589 H 0.05897 0.29818 0.39289 0.0
C1590 C 0.27512 0.85517 0.84801 0.0
C1591 C 0.25028 0.8542 0.85939 0.0
C1592 C 0.22958 0.88127 0.82263 0.0
C1593 C 0.25283 0.88028 0.81014 0.0
N1594 N 0.30023 0.87042 0.81152 0.0
N1595 N 0.20216 0.86333 0.85549 0.0
C1596 C 0.2765 0.86852 0.82305 0.0
C1597 C 0.2272 0.86661 0.84623 0.0
N1598 N 0.29719 0.84331 0.86118 0.0
N1599 N 0.21092 0.89779 0.81263 0.0
H1600 H 0.1996 0.85394 0.87356 0.0
H1601 H 0.18277 0.86717 0.84288 0.0
H1602 H 0.21621 0.91262 0.79898 0.0
H1603 H 0.19161 0.89856 0.8186 0.0
H1604 H 0.31583 0.84254 0.85409 0.0
H1605 H 0.2968 0.83393 0.87972 0.0
H1606 H 0.31772 0.86122 0.81848 0.0
H1607 H 0.30344 0.88238 0.79516 0.0
C1608 C 0.61365 0.75819 0.50572 0.0
C1609 C 0.62439 0.78435 0.49524 0.0
C1610 C 0.66754 0.80391 0.53984 0.0
C1611 C 0.65634 0.77863 0.55104 0.0
N1612 N 0.62194 0.73007 0.54511 0.0
N1613 N 0.65901 0.83296 0.50204 0.0
C1614 C 0.63031 0.75504 0.53405 0.0
C1615 C 0.65058 0.80748 0.51233 0.0
N1616 N 0.58739 0.73707 0.48881 0.0
N1617 N 0.69455 0.82458 0.55604 0.0
H1618 H 0.6463 0.83712 0.48255 0.0
H1619 H 0.67801 0.85082 0.51284 0.0
H1620 H 0.70946 0.82107 0.57464 0.0
H1621 H 0.70305 0.84515 0.55141 0.0
H1622 H 0.57792 0.71724 0.49457 0.0
H1623 H 0.57421 0.73988 0.46877 0.0
H1624 H 0.60309 0.71189 0.53436 0.0
H1625 H 0.63493 0.72715 0.56518 0.0
C1626 C 0.18653 0.90982 0.22489 0.0
C1627 C 0.21367 0.93266 0.22843 0.0
C1628 C 0.22365 0.94051 0.28184 0.0
C1629 C 0.19975 0.9139 0.27815 0.0
N1630 N 0.1537 0.87763 0.24666 0.0
N1631 N 0.24987 0.97746 0.25842 0.0
C1632 C 0.17972 0.89993 0.24973 0.0
C1633 C 0.22951 0.9507 0.25644 0.0
N1634 N 0.16629 0.8992 0.19768 0.0
N1635 N 0.24117 0.95545 0.30933 0.0
H1636 H 0.24928 0.98792 0.24037 0.0
H1637 H 0.2662 0.99008 0.27757 0.0
H1638 H 0.2383 0.94838 0.32837 0.0
H1639 H 0.25909 0.97477 0.31374 0.0
H1640 H 0.14926 0.87906 0.19125 0.0
H1641 H 0.16594 0.91286 0.18229 0.0
H1642 H 0.14064 0.86333 0.22707 0.0
H1643 H 0.14504 0.87341 0.26409 0.0
C1644 C 0.68857 0.41065 0.72615 0.0
C1645 C 0.71723 0.43161 0.72962 0.0
C1646 C 0.72972 0.43705 0.78314 0.0
C1647 C 0.70397 0.4122 0.77921 0.0
N1648 N 0.65475 0.38028 0.74867 0.0
N1649 N 0.75796 0.47322 0.76064 0.0
C1650 C 0.682 0.40061 0.75114 0.0
C1651 C 0.73536 0.44778 0.758 0.0
N1652 N 0.66729 0.4014 0.69915 0.0
N1653 N 0.74907 0.44982 0.81066 0.0
H1654 H 0.75753 0.4852 0.7437 0.0
H1655 H 0.77633 0.48315 0.77939 0.0
H1656 H 0.74597 0.44236 0.82949 0.0
H1657 H 0.76868 0.46759 0.81526 0.0
H1658 H 0.64791 0.3832 0.69332 0.0
H1659 H 0.66818 0.4138 0.68283 0.0
H1660 H 0.63929 0.3678 0.72899 0.0
H1661 H 0.64739 0.37584 0.76679 0.0
C1662 C 0.98828 0.57666 0.58485 0.0
C1663 C 0.99926 0.60519 0.60179 0.0
C1664 C 0.01133 0.58689 0.64654 0.0
C1665 C -0.00054 0.5582 0.62959 0.0
N1666 N 0.97604 0.52437 0.58444 0.0
N1667 N 0.02226 0.63924 0.64647 0.0
C1668 C 0.98981 0.55266 0.59921 0.0
C1669 C 0.00889 0.61086 0.63208 0.0
N1670 N 0.97617 0.57295 0.55506 0.0
N1671 N 0.02534 0.59105 0.6761 0.0
H1672 H 0.02275 0.65679 0.63533 0.0
H1673 H 0.03391 0.6456 0.66875 0.0
H1674 H 0.02637 0.57398 0.68762 0.0
H1675 H 0.03536 0.61129 0.68997 0.0
H1676 H 0.96569 0.55288 0.54091 0.0
H1677 H 0.97775 0.59058 0.54396 0.0
H1678 H 0.96583 0.5183 0.5619 0.0
H1679 H 0.9737 0.50653 0.59525 0.0
C1680 C 0.91662 0.79235 0.04717 0.0
C1681 C 0.90707 0.80265 0.02062 0.0
C1682 C 0.86142 0.75872 0.00256 0.0
C1683 C 0.87134 0.74816 0.02929 0.0
N1684 N 0.91198 0.75233 0.07398 0.0
N1685 N 0.87034 0.79548 0.97545 0.0
C1686 C 0.90021 0.76414 0.05045 0.0
C1687 C 0.87905 0.78549 1.00114 0.0
N1688 N 0.94168 0.80971 0.0694 0.0
N1689 N 0.83451 0.74242 0.9838 0.0
H1690 H 0.88387 0.81296 0.96929 0.0
H1691 H 0.84958 0.78677 0.95902 0.0
H1692 H 0.81936 0.72298 0.9845 0.0
H1693 H 0.82641 0.74763 0.96344 0.0
H1694 H 0.95386 0.80246 0.08699 0.0
H1695 H 0.9502 0.83229 0.07098 0.0
H1696 H 0.92871 0.76417 0.09325 0.0
H1697 H 0.90591 0.72989 0.07401 0.0
C1698 C 0.83083 0.20315 0.11768 0.0
C1699 C 0.82437 0.17931 0.09493 0.0
C1700 C 0.86197 0.20811 0.07426 0.0
C1701 C 0.86995 0.23117 0.09828 0.0
N1702 N 0.86391 0.25152 0.14308 0.0
N1703 N 0.83089 0.15842 0.05012 0.0
C1704 C 0.85459 0.22907 0.11986 0.0
C1705 C 0.83866 0.18175 0.07238 0.0
N1706 N 0.81487 0.20026 0.13767 0.0
N1707 N 0.87761 0.21137 0.05401 0.0
H1708 H 0.81378 0.13891 0.04795 0.0
H1709 H 0.84132 0.15788 0.03374 0.0
H1710 H 0.89467 0.23056 0.05488 0.0
H1711 H 0.87454 0.1954 0.03639 0.0
H1712 H 0.82022 0.21507 0.1569 0.0
H1713 H 0.79574 0.18236 0.13523 0.0
H1714 H 0.85439 0.25185 0.16013 0.0
H1715 H 0.88255 0.2698 0.14574 0.0
C1716 C 0.96668 0.00186 0.70473 0.0
C1717 C 0.96795 0.9823 0.68643 0.0
C1718 C 0.9585 0.00268 0.64376 0.0
C1719 C 0.95452 0.02547 0.66197 0.0
N1720 N 0.95966 0.05003 0.70977 0.0
N1721 N 0.96407 0.95826 0.63852 0.0
C1722 C 0.95962 0.02579 0.69244 0.0
C1723 C 0.96296 0.98203 0.6559 0.0
N1724 N 0.97109 0.00131 0.734 0.0
N1725 N 0.95502 0.00385 0.61473 0.0
H1726 H 0.96566 0.93901 0.64608 0.0
H1727 H 0.96227 0.95667 0.61641 0.0
H1728 H 0.95091 0.0213 0.60497 0.0
H1729 H 0.95425 0.99142 0.59953 0.0
H1730 H 0.96757 0.01637 0.74866 0.0
H1731 H 0.97563 0.98874 0.74455 0.0
H1732 H 0.96142 0.05188 0.73192 0.0
H1733 H 0.95831 0.0691 0.7017 0.0
C1734 C 0.57137 0.82571 0.94509 0.0
C1735 C 0.57346 0.84939 0.92974 0.0
C1736 C 0.61979 0.87974 0.96788 0.0
C1737 C 0.61822 0.85606 0.98325 0.0
N1738 N 0.5939 0.80639 0.9875 0.0
N1739 N 0.59757 0.8992 0.92579 0.0
C1740 C 0.59426 0.82895 0.97219 0.0
C1741 C 0.5966 0.87677 0.94135 0.0
N1742 N 0.54736 0.80048 0.93364 0.0
N1743 N 0.64509 0.90397 0.97733 0.0
H1744 H 0.5826 0.89743 0.90505 0.0
H1745 H 0.61307 0.92009 0.93304 0.0
H1746 H 0.66578 0.90393 0.99173 0.0
H1747 H 0.64661 0.92388 0.97036 0.0
H1748 H 0.5441 0.78177 0.94295 0.0
H1749 H 0.52967 0.79838 0.9145 0.0
H1750 H 0.57789 0.78569 0.98068 0.0
H1751 H 0.61076 0.80849 0.00454 0.0
C1752 C 0.42652 0.53445 0.78565 0.0
C1753 C 0.45101 0.55564 0.80656 0.0
C1754 C 0.42211 0.5539 0.84188 0.0
C1755 C 0.39706 0.53263 0.82055 0.0
N1756 N 0.37599 0.49925 0.77412 0.0
N1757 N 0.47357 0.58766 0.85406 0.0
C1758 C 0.39937 0.52193 0.79285 0.0
C1759 C 0.44938 0.56626 0.83474 0.0
N1760 N 0.42982 0.52548 0.75891 0.0
N1761 N 0.41977 0.56176 0.86916 0.0
H1762 H 0.49317 0.59769 0.84866 0.0
H1763 H 0.47443 0.59625 0.87508 0.0
H1764 H 0.4006 0.55242 0.87559 0.0
H1765 H 0.43678 0.5769 0.88624 0.0
H1766 H 0.41368 0.50922 0.74229 0.0
H1767 H 0.44922 0.53476 0.75269 0.0
H1768 H 0.37571 0.49027 0.75344 0.0
H1769 H 0.35691 0.48842 0.77994 0.0
C1770 C 0.17748 0.5538 0.3174 0.0
C1771 C 0.20021 0.55781 0.30299 0.0
C1772 C 0.16773 0.57115 0.26136 0.0
C1773 C 0.14531 0.56885 0.27616 0.0
N1774 N 0.12821 0.55898 0.31802 0.0
N1775 N 0.21935 0.5717 0.2629 0.0
C1776 C 0.14983 0.55993 0.30408 0.0
C1777 C 0.19589 0.56653 0.2752 0.0
N1778 N 0.18317 0.54582 0.3444 0.0
N1779 N 0.16258 0.57987 0.23468 0.0
H1780 H 0.24189 0.57304 0.27385 0.0
H1781 H 0.21717 0.57465 0.24151 0.0
H1782 H 0.14189 0.583 0.22371 0.0
H1783 H 0.17837 0.58419 0.22313 0.0
H1784 H 0.16819 0.5432 0.35692 0.0
H1785 H 0.2034 0.54136 0.35456 0.0
H1786 H 0.12859 0.5517 0.33767 0.0
H1787 H 0.1095 0.5665 0.31014 0.0
C1788 C 0.96143 0.54618 0.78794 0.0
C1789 C 0.95685 0.56446 0.81015 0.0
C1790 C 0.00327 0.5744 0.84098 0.0
C1791 C 0.00767 0.55549 0.81901 0.0
N1792 N 0.99648 0.52439 0.77161 0.0
N1793 N 0.97472 0.59632 0.85731 0.0
C1794 C 0.99063 0.54187 0.7923 0.0
C1795 C 0.98053 0.57878 0.83657 0.0
N1796 N 0.9376 0.53273 0.76311 0.0
N1797 N 0.02694 0.58774 0.86603 0.0
H1798 H 0.95344 0.59972 0.85492 0.0
H1799 H 0.99034 0.6075 0.87736 0.0
H1800 H 0.04884 0.58569 0.86928 0.0
H1801 H 0.02546 0.60116 0.88356 0.0
H1802 H 0.93864 0.51828 0.74623 0.0
H1803 H 0.91584 0.53523 0.75969 0.0
H1804 H 0.98059 0.51267 0.7519 0.0
H1805 H 0.01156 0.52147 0.77403 0.0
C1806 C 0.73906 0.54724 0.29 0.0
C1807 C 0.76069 0.57487 0.30321 0.0
C1808 C 0.72586 0.58705 0.32858 0.0
C1809 C 0.70225 0.56184 0.31162 0.0
N1810 N 0.68708 0.51717 0.27728 0.0
N1811 N 0.77854 0.61541 0.34266 0.0
C1812 C 0.70935 0.54137 0.29329 0.0
C1813 C 0.75496 0.5933 0.3244 0.0
N1814 N 0.74722 0.52622 0.27538 0.0
N1815 N 0.72081 0.60469 0.34954 0.0
H1816 H 0.79942 0.61151 0.34927 0.0
H1817 H 0.77687 0.63472 0.35289 0.0
H1818 H 0.70323 0.59731 0.35868 0.0
H1819 H 0.73405 0.62639 0.35788 0.0
H1820 H 0.73216 0.50581 0.26417 0.0
H1821 H 0.76996 0.52826 0.27649 0.0
H1822 H 0.68689 0.50794 0.25673 0.0
H1823 H 0.66937 0.50743 0.28508 0.0
loop_
_geom_bond_atom_site_label_1
_geom_bond_atom_site_label_2
_geom_bond_distance
_geom_bond_site_symmetry_2
_ccdc_geom_bond_type
O0 Cd1 2.300 1_655 S
O0 C7 1.275 . S
Cd1 O0 2.300 1_455 S
Cd1 O9 2.381 . S
Cd1 O10 2.378 . S
O2 Cd3 2.385 . S
O2 C7 1.255 . S
Cd3 O2 2.385 . S
Cd3 O4 2.317 1_655 S
O4 Cd3 2.317 1_455 S
O4 C5 1.232 . S
C5 O4 1.232 . S
C5 O6 1.218 . S
O6 C5 1.218 . S
C7 O0 1.275 . S
C7 O2 1.255 . S
C8 O9 1.258 . S
C8 O10 1.256 . S
O9 Cd1 2.381 . S
O9 C8 1.258 . S
O10 Cd1 2.378 . S
O10 C8 1.256 . S
O11 Cd12 2.300 . S
O11 C18 1.275 . S
Cd12 O11 2.300 . S
Cd12 O20 2.381 . S
Cd12 O21 2.378 . S
O13 Cd14 2.385 . S
O13 C18 1.255 . S
Cd14 O13 2.385 . S
Cd14 O15 2.317 . S
O15 Cd14 2.317 . S
O15 C16 1.232 . S
C16 O15 1.232 . S
C16 O17 1.218 . S
O17 C16 1.218 . S
C18 O11 1.275 . S
C18 O13 1.255 . S
C19 O20 1.258 . S
C19 O21 1.256 . S
O20 Cd12 2.381 . S
O20 C19 1.258 . S
O21 Cd12 2.378 . S
O21 C19 1.256 . S
O22 Cd23 2.300 . S
O22 C29 1.275 . S
Cd23 O22 2.300 . S
Cd23 O31 2.381 . S
Cd23 O32 2.378 . S
O24 Cd25 2.385 . S
O24 C29 1.255 . S
Cd25 O24 2.385 . S
Cd25 O26 2.317 . S
O26 Cd25 2.317 . S
O26 C27 1.232 . S
C27 O26 1.232 . S
C27 O28 1.218 1_545 S
O28 C27 1.218 1_565 S
C29 O22 1.275 . S
C29 O24 1.255 . S
C30 O31 1.258 . S
C30 O32 1.256 . S
O31 Cd23 2.381 . S
O31 C30 1.258 . S
O32 Cd23 2.378 . S
O32 C30 1.256 . S
O33 Cd34 2.300 . S
O33 C40 1.275 . S
Cd34 O33 2.300 . S
Cd34 O42 2.381 . S
Cd34 O43 2.378 . S
O35 Cd36 2.385 . S
O35 C40 1.255 . S
Cd36 O35 2.385 . S
Cd36 O37 2.317 . S
O37 Cd36 2.317 . S
O37 C38 1.232 . S
C38 O37 1.232 . S
C38 O39 1.218 . S
O39 C38 1.218 . S
C40 O33 1.275 . S
C40 O35 1.255 . S
C41 O42 1.258 . S
C41 O43 1.256 . S
O42 Cd34 2.381 . S
O42 C41 1.258 . S
O43 Cd34 2.378 . S
O43 C41 1.256 . S
O44 Cd45 2.300 . S
O44 C51 1.275 . S
Cd45 O44 2.300 . S
Cd45 O53 2.381 . S
Cd45 O54 2.378 . S
O46 Cd47 2.385 . S
O46 C51 1.255 . S
Cd47 O46 2.385 . S
Cd47 O48 2.317 . S
O48 Cd47 2.317 . S
O48 C49 1.232 . S
C49 O48 1.232 . S
C49 O50 1.218 . S
O50 C49 1.218 . S
C51 O44 1.275 . S
C51 O46 1.255 . S
C52 O53 1.258 1_556 S
C52 O54 1.256 1_556 S
O53 Cd45 2.381 . S
O53 C52 1.258 1_554 S
O54 Cd45 2.378 . S
O54 C52 1.256 1_554 S
O55 Cd56 2.300 . S
O55 C62 1.275 . S
Cd56 O55 2.300 . S
Cd56 O64 2.381 . S
Cd56 O65 2.378 . S
O57 Cd58 2.385 . S
O57 C62 1.255 . S
Cd58 O57 2.385 . S
Cd58 O59 2.317 . S
O59 Cd58 2.317 . S
O59 C60 1.232 . S
C60 O59 1.232 . S
C60 O61 1.218 . S
O61 C60 1.218 . S
C62 O55 1.275 . S
C62 O57 1.255 . S
C63 O64 1.258 . S
C63 O65 1.256 . S
O64 Cd56 2.381 . S
O64 C63 1.258 . S
O65 Cd56 2.378 . S
O65 C63 1.256 . S
O66 Cd67 2.300 . S
O66 C73 1.275 . S
Cd67 O66 2.300 . S
Cd67 O75 2.381 . S
Cd67 O76 2.378 . S
O68 Cd69 2.385 . S
O68 C73 1.255 . S
Cd69 O68 2.385 . S
Cd69 O70 2.317 . S
O70 Cd69 2.317 . S
O70 C71 1.232 . S
C71 O70 1.232 . S
C71 O72 1.218 . S
O72 C71 1.218 . S
C73 O66 1.275 . S
C73 O68 1.255 . S
C74 O75 1.258 . S
C74 O76 1.256 . S
O75 Cd67 2.381 . S
O75 C74 1.258 . S
O76 Cd67 2.378 . S
O76 C74 1.256 . S
O77 Cd78 2.300 . S
O77 C84 1.275 . S
Cd78 O77 2.300 . S
Cd78 O86 2.381 . S
Cd78 O87 2.378 . S
O79 Cd80 2.385 . S
O79 C84 1.255 . S
Cd80 O79 2.385 . S
Cd80 O81 2.317 . S
O81 Cd80 2.317 . S
O81 C82 1.232 . S
C82 O81 1.232 . S
C82 O83 1.218 . S
O83 C82 1.218 . S
C84 O77 1.275 . S
C84 O79 1.255 . S
C85 O86 1.258 . S
C85 O87 1.256 . S
O86 Cd78 2.381 . S
O86 C85 1.258 . S
O87 Cd78 2.378 . S
O87 C85 1.256 . S
O88 Cd89 2.300 . S
O88 C95 1.275 . S
Cd89 O88 2.300 . S
Cd89 O97 2.381 . S
Cd89 O98 2.378 . S
O90 Cd91 2.385 . S
O90 C95 1.255 . S
Cd91 O90 2.385 . S
Cd91 O92 2.317 . S
O92 Cd91 2.317 . S
O92 C93 1.232 . S
C93 O92 1.232 . S
C93 O94 1.218 . S
O94 C93 1.218 . S
C95 O88 1.275 . S
C95 O90 1.255 . S
C96 O97 1.258 . S
C96 O98 1.256 . S
O97 Cd89 2.381 . S
O97 C96 1.258 . S
O98 Cd89 2.378 . S
O98 C96 1.256 . S
O99 Cd100 2.300 . S
O99 C106 1.275 . S
Cd100 O99 2.300 . S
Cd100 O108 2.381 . S
Cd100 O109 2.378 . S
O101 Cd102 2.385 . S
O101 C106 1.255 . S
Cd102 O101 2.385 . S
Cd102 O103 2.317 . S
O103 Cd102 2.317 . S
O103 C104 1.232 . S
C104 O103 1.232 . S
C104 O105 1.218 . S
O105 C104 1.218 . S
C106 O99 1.275 . S
C106 O101 1.255 . S
C107 O108 1.258 . S
C107 O109 1.256 . S
O108 Cd100 2.381 . S
O108 C107 1.258 . S
O109 Cd100 2.378 . S
O109 C107 1.256 . S
O110 Cd111 2.300 . S
O110 C117 1.275 . S
Cd111 O110 2.300 . S
Cd111 O119 2.381 . S
Cd111 O120 2.378 . S
O112 Cd113 2.385 . S
O112 C117 1.255 . S
Cd113 O112 2.385 . S
Cd113 O114 2.317 . S
O114 Cd113 2.317 . S
O114 C115 1.232 . S
C115 O114 1.232 . S
C115 O116 1.218 . S
O116 C115 1.218 . S
C117 O110 1.275 . S
C117 O112 1.255 . S
C118 O119 1.258 . S
C118 O120 1.256 . S
O119 Cd111 2.381 . S
O119 C118 1.258 . S
O120 Cd111 2.378 . S
O120 C118 1.256 . S
O121 Cd122 2.300 . S
O121 C128 1.275 . S
Cd122 O121 2.300 . S
Cd122 O130 2.381 . S
Cd122 O131 2.378 . S
O123 Cd124 2.385 . S
O123 C128 1.255 . S
Cd124 O123 2.385 . S
Cd124 O125 2.317 . S
O125 Cd124 2.317 . S
O125 C126 1.232 . S
C126 O125 1.232 . S
C126 O127 1.218 . S
O127 C126 1.218 . S
C128 O121 1.275 . S
C128 O123 1.255 . S
C129 O130 1.258 . S
C129 O131 1.256 . S
O130 Cd122 2.381 . S
O130 C129 1.258 . S
O131 Cd122 2.378 . S
O131 C129 1.256 . S
O132 Cd133 2.300 . S
O132 C139 1.275 . S
Cd133 O132 2.300 . S
Cd133 O141 2.381 . S
Cd133 O142 2.378 . S
O134 Cd135 2.385 . S
O134 C139 1.255 . S
Cd135 O134 2.385 . S
Cd135 O136 2.317 . S
O136 Cd135 2.317 . S
O136 C137 1.232 . S
C137 O136 1.232 . S
C137 O138 1.218 . S
O138 C137 1.218 . S
C139 O132 1.275 . S
C139 O134 1.255 . S
C140 O141 1.258 . S
C140 O142 1.256 . S
O141 Cd133 2.381 . S
O141 C140 1.258 . S
O142 Cd133 2.378 . S
O142 C140 1.256 . S
O143 Cd144 2.300 . S
O143 C150 1.275 . S
Cd144 O143 2.300 . S
Cd144 O152 2.381 . S
Cd144 O153 2.378 . S
O145 Cd146 2.385 . S
O145 C150 1.255 . S
Cd146 O145 2.385 . S
Cd146 O147 2.317 . S
O147 Cd146 2.317 . S
O147 C148 1.232 . S
C148 O147 1.232 . S
C148 O149 1.218 . S
O149 C148 1.218 . S
C150 O143 1.275 . S
C150 O145 1.255 . S
C151 O152 1.258 . S
C151 O153 1.256 . S
O152 Cd144 2.381 . S
O152 C151 1.258 . S
O153 Cd144 2.378 . S
O153 C151 1.256 . S
O154 Cd155 2.300 . S
O154 C161 1.275 . S
Cd155 O154 2.300 . S
Cd155 O163 2.381 . S
Cd155 O164 2.378 . S
O156 Cd157 2.385 . S
O156 C161 1.255 . S
Cd157 O156 2.385 . S
Cd157 O158 2.317 . S
O158 Cd157 2.317 . S
O158 C159 1.232 . S
C159 O158 1.232 . S
C159 O160 1.218 . S
O160 C159 1.218 . S
C161 O154 1.275 . S
C161 O156 1.255 . S
C162 O163 1.258 . S
C162 O164 1.256 . S
O163 Cd155 2.381 . S
O163 C162 1.258 . S
O164 Cd155 2.378 . S
O164 C162 1.256 . S
O165 Cd166 2.300 . S
O165 C172 1.275 . S
Cd166 O165 2.300 . S
Cd166 O174 2.381 . S
Cd166 O175 2.378 . S
O167 Cd168 2.385 1_545 S
O167 C172 1.255 . S
Cd168 O167 2.385 1_565 S
Cd168 O169 2.317 . S
O169 Cd168 2.317 . S
O169 C170 1.232 . S
C170 O169 1.232 . S
C170 O171 1.218 . S
O171 C170 1.218 . S
C172 O165 1.275 . S
C172 O167 1.255 . S
C173 O174 1.258 . S
C173 O175 1.256 . S
O174 Cd166 2.381 . S
O174 C173 1.258 . S
O175 Cd166 2.378 . S
O175 C173 1.256 . S
O176 Cd177 2.300 . S
O176 C183 1.275 . S
Cd177 O176 2.300 . S
Cd177 O185 2.381 . S
Cd177 O186 2.378 . S
O178 Cd179 2.385 1_455 S
O178 C183 1.255 . S
Cd179 O178 2.385 1_655 S
Cd179 O180 2.317 . S
O180 Cd179 2.317 . S
O180 C181 1.232 . S
C181 O180 1.232 . S
C181 O182 1.218 . S
O182 C181 1.218 . S
C183 O176 1.275 . S
C183 O178 1.255 . S
C184 O185 1.258 . S
C184 O186 1.256 . S
O185 Cd177 2.381 . S
O185 C184 1.258 . S
O186 Cd177 2.378 . S
O186 C184 1.256 . S
O187 Cd188 2.300 . S
O187 C194 1.275 . S
Cd188 O187 2.300 . S
Cd188 O196 2.381 1_545 S
Cd188 O197 2.378 1_545 S
O189 Cd190 2.385 . S
O189 C194 1.255 . S
Cd190 O189 2.385 . S
Cd190 O191 2.317 . S
O191 Cd190 2.317 . S
O191 C192 1.232 . S
C192 O191 1.232 . S
C192 O193 1.218 . S
O193 C192 1.218 . S
C194 O187 1.275 . S
C194 O189 1.255 . S
C195 O196 1.258 . S
C195 O197 1.256 . S
O196 Cd188 2.381 1_565 S
O196 C195 1.258 . S
O197 Cd188 2.378 1_565 S
O197 C195 1.256 . S
O198 Cd199 2.300 . S
O198 C205 1.275 . S
Cd199 O198 2.300 . S
Cd199 O207 2.381 1_655 S
Cd199 O208 2.378 1_655 S
O200 Cd201 2.385 1_554 S
O200 C205 1.255 . S
Cd201 O200 2.385 1_556 S
Cd201 O202 2.317 1_556 S
O202 Cd201 2.317 1_554 S
O202 C203 1.232 . S
C203 O202 1.232 . S
C203 O204 1.218 1_554 S
O204 C203 1.218 1_556 S
C205 O198 1.275 . S
C205 O200 1.255 . S
C206 O207 1.258 . S
C206 O208 1.256 . S
O207 Cd199 2.381 1_455 S
O207 C206 1.258 . S
O208 Cd199 2.378 1_455 S
O208 C206 1.256 . S
O209 Cd210 2.300 . S
O209 C216 1.275 . S
Cd210 O209 2.300 . S
Cd210 O218 2.381 . S
Cd210 O219 2.378 . S
O211 Cd212 2.385 . S
O211 C216 1.255 . S
Cd212 O211 2.385 . S
Cd212 O213 2.317 . S
O213 Cd212 2.317 . S
O213 C214 1.232 . S
C214 O213 1.232 . S
C214 O215 1.219 1_554 S
O215 C214 1.219 1_556 S
C216 O209 1.275 . S
C216 O211 1.255 . S
C217 O218 1.258 . S
C217 O219 1.256 . S
O218 Cd210 2.381 . S
O218 C217 1.258 . S
O219 Cd210 2.378 . S
O219 C217 1.256 . S
O220 Cd221 2.300 . S
O220 C227 1.275 . S
Cd221 O220 2.300 . S
Cd221 O229 2.381 . S
Cd221 O230 2.378 . S
O222 Cd223 2.385 . S
O222 C227 1.255 . S
Cd223 O222 2.385 . S
Cd223 O224 2.317 . S
O224 Cd223 2.317 . S
O224 C225 1.232 . S
C225 O224 1.232 . S
C225 O226 1.218 . S
O226 C225 1.218 . S
C227 O220 1.275 . S
C227 O222 1.255 . S
C228 O229 1.258 . S
C228 O230 1.256 . S
O229 Cd221 2.381 . S
O229 C228 1.258 . S
O230 Cd221 2.378 . S
O230 C228 1.256 . S
O231 Cd232 2.300 . S
O231 C238 1.275 . S
Cd232 O231 2.300 . S
Cd232 O240 2.381 . S
Cd232 O241 2.378 . S
O233 Cd234 2.385 . S
O233 C238 1.255 . S
Cd234 O233 2.385 . S
Cd234 O235 2.317 . S
O235 Cd234 2.317 . S
O235 C236 1.232 . S
C236 O235 1.232 . S
C236 O237 1.218 . S
O237 C236 1.218 . S
C238 O231 1.275 . S
C238 O233 1.255 . S
C239 O240 1.258 . S
C239 O241 1.256 . S
O240 Cd232 2.381 . S
O240 C239 1.258 . S
O241 Cd232 2.378 . S
O241 C239 1.256 . S
O242 Cd243 2.300 . S
O242 C249 1.275 . S
Cd243 O242 2.300 . S
Cd243 O251 2.381 . S
Cd243 O252 2.378 . S
O244 Cd245 2.385 . S
O244 C249 1.255 . S
Cd245 O244 2.385 . S
Cd245 O246 2.317 . S
O246 Cd245 2.317 . S
O246 C247 1.232 . S
C247 O246 1.232 . S
C247 O248 1.218 . S
O248 C247 1.218 . S
C249 O242 1.275 . S
C249 O244 1.255 . S
C250 O251 1.258 . S
C250 O252 1.256 . S
O251 Cd243 2.381 . S
O251 C250 1.258 . S
O252 Cd243 2.378 . S
O252 C250 1.256 . S
O253 Cd254 2.300 . S
O253 C260 1.275 . S
Cd254 O253 2.300 . S
Cd254 O262 2.381 . S
Cd254 O263 2.378 . S
O255 Cd256 2.385 . S
O255 C260 1.255 . S
Cd256 O255 2.385 . S
Cd256 O257 2.317 . S
O257 Cd256 2.317 . S
O257 C258 1.232 . S
C258 O257 1.232 . S
C258 O259 1.218 . S
O259 C258 1.218 . S
C260 O253 1.275 . S
C260 O255 1.255 . S
C261 O262 1.258 . S
C261 O263 1.256 . S
O262 Cd254 2.381 . S
O262 C261 1.258 . S
O263 Cd254 2.378 . S
O263 C261 1.256 . S
O264 Cd265 2.300 . S
O264 C271 1.275 . S
Cd265 O264 2.300 . S
Cd265 O273 2.381 . S
Cd265 O274 2.378 . S
O266 Cd267 2.385 . S
O266 C271 1.255 . S
Cd267 O266 2.385 . S
Cd267 O268 2.317 . S
O268 Cd267 2.317 . S
O268 C269 1.232 . S
C269 O268 1.232 . S
C269 O270 1.218 . S
O270 C269 1.218 . S
C271 O264 1.275 . S
C271 O266 1.255 . S
C272 O273 1.258 . S
C272 O274 1.256 . S
O273 Cd265 2.381 . S
O273 C272 1.258 . S
O274 Cd265 2.378 . S
O274 C272 1.256 . S
O275 Cd276 2.300 . S
O275 C282 1.275 . S
Cd276 O275 2.300 . S
Cd276 O284 2.381 . S
Cd276 O285 2.378 . S
O277 Cd278 2.385 . S
O277 C282 1.255 . S
Cd278 O277 2.385 . S
Cd278 O279 2.317 . S
O279 Cd278 2.317 . S
O279 C280 1.232 . S
C280 O279 1.232 . S
C280 O281 1.218 . S
O281 C280 1.218 . S
C282 O275 1.275 . S
C282 O277 1.255 . S
C283 O284 1.258 . S
C283 O285 1.256 . S
O284 Cd276 2.381 . S
O284 C283 1.258 . S
O285 Cd276 2.378 . S
O285 C283 1.256 . S
O286 Cd287 2.300 . S
O286 C293 1.275 . S
Cd287 O286 2.300 . S
Cd287 O295 2.381 . S
Cd287 O296 2.378 . S
O288 Cd289 2.385 . S
O288 C293 1.255 . S
Cd289 O288 2.385 . S
Cd289 O290 2.317 . S
O290 Cd289 2.317 . S
O290 C291 1.232 . S
C291 O290 1.232 . S
C291 O292 1.218 . S
O292 C291 1.218 . S
C293 O286 1.275 . S
C293 O288 1.255 . S
C294 O295 1.258 . S
C294 O296 1.256 . S
O295 Cd287 2.381 . S
O295 C294 1.258 . S
O296 Cd287 2.378 . S
O296 C294 1.256 . S
O297 Cd298 2.300 . S
O297 C304 1.275 . S
Cd298 O297 2.300 . S
Cd298 O306 2.381 . S
Cd298 O307 2.378 . S
O299 Cd300 2.385 . S
O299 C304 1.255 . S
Cd300 O299 2.385 . S
Cd300 O301 2.317 . S
O301 Cd300 2.317 . S
O301 C302 1.232 . S
C302 O301 1.232 . S
C302 O303 1.218 . S
O303 C302 1.218 . S
C304 O297 1.275 . S
C304 O299 1.255 . S
C305 O306 1.258 . S
C305 O307 1.256 . S
O306 Cd298 2.381 . S
O306 C305 1.258 . S
O307 Cd298 2.378 . S
O307 C305 1.256 . S
O308 Cd309 2.300 . S
O308 C315 1.275 . S
Cd309 O308 2.300 . S
Cd309 O317 2.381 . S
Cd309 O318 2.378 . S
O310 Cd311 2.385 . S
O310 C315 1.255 . S
Cd311 O310 2.385 . S
Cd311 O312 2.317 . S
O312 Cd311 2.317 . S
O312 C313 1.232 . S
C313 O312 1.232 . S
C313 O314 1.218 . S
O314 C313 1.218 . S
C315 O308 1.275 . S
C315 O310 1.255 . S
C316 O317 1.258 . S
C316 O318 1.256 . S
O317 Cd309 2.381 . S
O317 C316 1.258 . S
O318 Cd309 2.378 . S
O318 C316 1.256 . S
O319 Cd320 2.300 . S
O319 C326 1.275 . S
Cd320 O319 2.300 . S
Cd320 O328 2.381 . S
Cd320 O329 2.378 . S
O321 Cd322 2.385 . S
O321 C326 1.255 . S
Cd322 O321 2.385 . S
Cd322 O323 2.317 . S
O323 Cd322 2.317 . S
O323 C324 1.232 . S
C324 O323 1.232 . S
C324 O325 1.218 . S
O325 C324 1.218 . S
C326 O319 1.275 . S
C326 O321 1.255 . S
C327 O328 1.258 . S
C327 O329 1.256 . S
O328 Cd320 2.381 . S
O328 C327 1.258 . S
O329 Cd320 2.378 . S
O329 C327 1.256 . S
O330 Cd331 2.300 . S
O330 C337 1.275 . S
Cd331 O330 2.300 . S
Cd331 O339 2.381 . S
Cd331 O340 2.378 . S
O332 Cd333 2.385 . S
O332 C337 1.255 . S
Cd333 O332 2.385 . S
Cd333 O334 2.317 . S
O334 Cd333 2.317 . S
O334 C335 1.232 . S
C335 O334 1.232 . S
C335 O336 1.218 . S
O336 C335 1.218 . S
C337 O330 1.275 . S
C337 O332 1.255 . S
C338 O339 1.258 . S
C338 O340 1.256 . S
O339 Cd331 2.381 . S
O339 C338 1.258 . S
O340 Cd331 2.378 . S
O340 C338 1.256 . S
O341 Cd342 2.300 . S
O341 C348 1.275 . S
Cd342 O341 2.300 . S
Cd342 O350 2.381 . S
Cd342 O351 2.378 . S
O343 Cd344 2.385 . S
O343 C348 1.255 . S
Cd344 O343 2.385 . S
Cd344 O345 2.317 . S
O345 Cd344 2.317 . S
O345 C346 1.232 . S
C346 O345 1.232 . S
C346 O347 1.218 . S
O347 C346 1.218 . S
C348 O341 1.275 . S
C348 O343 1.255 . S
C349 O350 1.258 1_455 S
C349 O351 1.256 1_455 S
O350 Cd342 2.381 . S
O350 C349 1.258 1_655 S
O351 Cd342 2.378 . S
O351 C349 1.256 1_655 S
O352 Cd353 2.300 . S
O352 C359 1.275 . S
Cd353 O352 2.300 . S
Cd353 O361 2.381 . S
Cd353 O362 2.378 . S
O354 Cd355 2.385 . S
O354 C359 1.255 . S
Cd355 O354 2.385 . S
Cd355 O356 2.317 . S
O356 Cd355 2.317 . S
O356 C357 1.232 . S
C357 O356 1.232 . S
C357 O358 1.218 . S
O358 C357 1.218 . S
C359 O352 1.275 . S
C359 O354 1.255 . S
C360 O361 1.258 . S
C360 O362 1.256 . S
O361 Cd353 2.381 . S
O361 C360 1.258 . S
O362 Cd353 2.378 . S
O362 C360 1.256 . S
O363 Cd364 2.300 . S
O363 C370 1.275 1_455 S
Cd364 O363 2.300 . S
Cd364 O372 2.381 . S
Cd364 O373 2.378 . S
O365 Cd366 2.385 . S
O365 C370 1.255 . S
Cd366 O365 2.385 . S
Cd366 O367 2.317 . S
O367 Cd366 2.317 . S
O367 C368 1.232 . S
C368 O367 1.232 . S
C368 O369 1.218 . S
O369 C368 1.218 . S
C370 O363 1.275 1_655 S
C370 O365 1.255 . S
C371 O372 1.258 . S
C371 O373 1.256 . S
O372 Cd364 2.381 . S
O372 C371 1.258 . S
O373 Cd364 2.378 . S
O373 C371 1.256 . S
O374 Cd375 2.300 . S
O374 C381 1.275 . S
Cd375 O374 2.300 . S
Cd375 O383 2.381 . S
Cd375 O384 2.378 . S
O376 Cd377 2.385 . S
O376 C381 1.255 . S
Cd377 O376 2.385 . S
Cd377 O378 2.317 . S
O378 Cd377 2.317 . S
O378 C379 1.232 . S
C379 O378 1.232 . S
C379 O380 1.218 . S
O380 C379 1.218 . S
C381 O374 1.275 . S
C381 O376 1.255 . S
C382 O383 1.258 . S
C382 O384 1.256 . S
O383 Cd375 2.381 . S
O383 C382 1.258 . S
O384 Cd375 2.378 . S
O384 C382 1.256 . S
O385 Cd386 2.300 . S
O385 C392 1.275 . S
Cd386 O385 2.300 . S
Cd386 O394 2.381 . S
Cd386 O395 2.378 . S
O387 Cd388 2.385 . S
O387 C392 1.255 . S
Cd388 O387 2.385 . S
Cd388 O389 2.317 . S
O389 Cd388 2.317 . S
O389 C390 1.232 . S
C390 O389 1.232 . S
C390 O391 1.218 . S
O391 C390 1.218 . S
C392 O385 1.275 . S
C392 O387 1.255 . S
C393 O394 1.258 . S
C393 O395 1.256 . S
O394 Cd386 2.381 . S
O394 C393 1.258 . S
O395 Cd386 2.378 . S
O395 C393 1.256 . S
O396 Cd397 2.300 . S
O396 C403 1.275 . S
Cd397 O396 2.300 . S
Cd397 O405 2.381 . S
Cd397 O406 2.378 . S
O398 Cd399 2.385 1_554 S
O398 C403 1.255 . S
Cd399 O398 2.385 1_556 S
Cd399 O400 2.317 . S
O400 Cd399 2.317 . S
O400 C401 1.232 . S
C401 O400 1.232 . S
C401 O402 1.218 . S
O402 C401 1.218 . S
C403 O396 1.275 . S
C403 O398 1.255 . S
C404 O405 1.258 . S
C404 O406 1.256 . S
O405 Cd397 2.381 . S
O405 C404 1.258 . S
O406 Cd397 2.378 . S
O406 C404 1.256 . S
O407 Cd408 2.300 . S
O407 C414 1.275 . S
Cd408 O407 2.300 . S
Cd408 O416 2.381 . S
Cd408 O417 2.378 . S
O409 Cd410 2.385 . S
O409 C414 1.255 . S
Cd410 O409 2.385 . S
Cd410 O411 2.317 . S
O411 Cd410 2.317 . S
O411 C412 1.232 . S
C412 O411 1.232 . S
C412 O413 1.218 . S
O413 C412 1.218 . S
C414 O407 1.275 . S
C414 O409 1.255 . S
C415 O416 1.258 . S
C415 O417 1.256 . S
O416 Cd408 2.381 . S
O416 C415 1.258 . S
O417 Cd408 2.378 . S
O417 C415 1.256 . S
O418 Cd419 2.300 . S
O418 C425 1.275 . S
Cd419 O418 2.300 . S
Cd419 O427 2.381 . S
Cd419 O428 2.378 . S
O420 Cd421 2.385 . S
O420 C425 1.255 . S
Cd421 O420 2.385 . S
Cd421 O422 2.317 . S
O422 Cd421 2.317 . S
O422 C423 1.232 . S
C423 O422 1.232 . S
C423 O424 1.218 . S
O424 C423 1.218 . S
C425 O418 1.275 . S
C425 O420 1.255 . S
C426 O427 1.258 . S
C426 O428 1.256 . S
O427 Cd419 2.381 . S
O427 C426 1.258 . S
O428 Cd419 2.378 . S
O428 C426 1.256 . S
O429 Cd430 2.300 . S
O429 C436 1.275 . S
Cd430 O429 2.300 . S
Cd430 O438 2.381 . S
Cd430 O439 2.378 . S
O431 Cd432 2.385 . S
O431 C436 1.255 . S
Cd432 O431 2.385 . S
Cd432 O433 2.317 . S
O433 Cd432 2.317 . S
O433 C434 1.232 . S
C434 O433 1.232 . S
C434 O435 1.218 . S
O435 C434 1.218 . S
C436 O429 1.275 . S
C436 O431 1.255 . S
C437 O438 1.258 . S
C437 O439 1.256 . S
O438 Cd430 2.381 . S
O438 C437 1.258 . S
O439 Cd430 2.378 . S
O439 C437 1.256 . S
O440 Cd441 2.300 1_545 S
O440 C447 1.275 . S
Cd441 O440 2.300 1_565 S
Cd441 O449 2.381 . S
Cd441 O450 2.378 . S
O442 Cd443 2.385 . S
O442 C447 1.255 . S
Cd443 O442 2.385 . S
Cd443 O444 2.317 1_545 S
O444 Cd443 2.317 1_565 S
O444 C445 1.232 . S
C445 O444 1.232 . S
C445 O446 1.218 1_565 S
O446 C445 1.218 1_545 S
C447 O440 1.275 . S
C447 O442 1.255 . S
C448 O449 1.258 . S
C448 O450 1.256 . S
O449 Cd441 2.381 . S
O449 C448 1.258 . S
O450 Cd441 2.378 . S
O450 C448 1.256 . S
O451 Cd452 2.300 . S
O451 C458 1.275 . S
Cd452 O451 2.300 . S
Cd452 O460 2.381 . S
Cd452 O461 2.378 . S
O453 Cd454 2.385 . S
O453 C458 1.255 . S
Cd454 O453 2.385 . S
Cd454 O455 2.317 . S
O455 Cd454 2.317 . S
O455 C456 1.232 . S
C456 O455 1.232 . S
C456 O457 1.218 . S
O457 C456 1.218 . S
C458 O451 1.275 . S
C458 O453 1.255 . S
C459 O460 1.258 . S
C459 O461 1.256 . S
O460 Cd452 2.381 . S
O460 C459 1.258 . S
O461 Cd452 2.378 . S
O461 C459 1.256 . S
O462 Cd463 2.300 . S
O462 C469 1.275 . S
Cd463 O462 2.300 . S
Cd463 O471 2.381 . S
Cd463 O472 2.378 . S
O464 Cd465 2.385 . S
O464 C469 1.255 . S
Cd465 O464 2.385 . S
Cd465 O466 2.317 . S
O466 Cd465 2.317 . S
O466 C467 1.232 . S
C467 O466 1.232 . S
C467 O468 1.218 . S
O468 C467 1.218 . S
C469 O462 1.275 . S
C469 O464 1.255 . S
C470 O471 1.258 . S
C470 O472 1.256 . S
O471 Cd463 2.381 . S
O471 C470 1.258 . S
O472 Cd463 2.378 . S
O472 C470 1.256 . S
O473 Cd474 2.300 . S
O473 C480 1.275 . S
Cd474 O473 2.300 . S
Cd474 O482 2.381 . S
Cd474 O483 2.378 . S
O475 Cd476 2.385 . S
O475 C480 1.255 . S
Cd476 O475 2.385 . S
Cd476 O477 2.317 . S
O477 Cd476 2.317 . S
O477 C478 1.232 . S
C478 O477 1.232 . S
C478 O479 1.218 . S
O479 C478 1.218 . S
C480 O473 1.275 . S
C480 O475 1.255 . S
C481 O482 1.258 . S
C481 O483 1.256 . S
O482 Cd474 2.381 . S
O482 C481 1.258 . S
O483 Cd474 2.378 . S
O483 C481 1.256 . S
O484 Cd485 2.300 . S
O484 C491 1.275 . S
Cd485 O484 2.300 . S
Cd485 O493 2.381 . S
Cd485 O494 2.378 . S
O486 Cd487 2.385 . S
O486 C491 1.255 . S
Cd487 O486 2.385 . S
Cd487 O488 2.317 . S
O488 Cd487 2.317 . S
O488 C489 1.232 . S
C489 O488 1.232 . S
C489 O490 1.218 . S
O490 C489 1.218 . S
C491 O484 1.275 . S
C491 O486 1.255 . S
C492 O493 1.258 . S
C492 O494 1.256 . S
O493 Cd485 2.381 . S
O493 C492 1.258 . S
O494 Cd485 2.378 . S
O494 C492 1.256 . S
O495 Cd496 2.300 . S
O495 C502 1.275 . S
Cd496 O495 2.300 . S
Cd496 O504 2.381 . S
Cd496 O505 2.378 . S
O497 Cd498 2.385 . S
O497 C502 1.255 . S
Cd498 O497 2.385 . S
Cd498 O499 2.317 . S
O499 Cd498 2.317 . S
O499 C500 1.232 . S
C500 O499 1.232 . S
C500 O501 1.218 . S
O501 C500 1.218 . S
C502 O495 1.275 . S
C502 O497 1.255 . S
C503 O504 1.258 . S
C503 O505 1.256 . S
O504 Cd496 2.381 . S
O504 C503 1.258 . S
O505 Cd496 2.378 . S
O505 C503 1.256 . S
O506 Cd507 2.300 . S
O506 C513 1.275 . S
Cd507 O506 2.300 . S
Cd507 O515 2.381 . S
Cd507 O516 2.378 . S
O508 Cd509 2.385 . S
O508 C513 1.255 . S
Cd509 O508 2.385 . S
Cd509 O510 2.317 . S
O510 Cd509 2.317 . S
O510 C511 1.232 . S
C511 O510 1.232 . S
C511 O512 1.218 . S
O512 C511 1.218 . S
C513 O506 1.275 . S
C513 O508 1.255 . S
C514 O515 1.258 . S
C514 O516 1.256 . S
O515 Cd507 2.381 . S
O515 C514 1.258 . S
O516 Cd507 2.378 . S
O516 C514 1.256 . S
O517 Cd518 2.300 . S
O517 C524 1.275 . S
Cd518 O517 2.300 . S
Cd518 O526 2.381 . S
Cd518 O527 2.378 . S
O519 Cd520 2.385 . S
O519 C524 1.255 . S
Cd520 O519 2.385 . S
Cd520 O521 2.317 . S
O521 Cd520 2.317 . S
O521 C522 1.232 . S
C522 O521 1.232 . S
C522 O523 1.218 . S
O523 C522 1.218 . S
C524 O517 1.275 . S
C524 O519 1.255 . S
C525 O526 1.258 . S
C525 O527 1.256 . S
O526 Cd518 2.381 . S
O526 C525 1.258 . S
O527 Cd518 2.378 . S
O527 C525 1.256 . S
C528 C529 1.363 . S
C528 C534 1.379 . S
C528 N536 1.356 . S
C529 C528 1.363 . S
C529 C535 1.363 . S
C530 C531 1.363 . S
C530 C535 1.379 . S
C530 N537 1.356 1_455 S
C531 C530 1.363 . S
C531 C534 1.363 . S
N532 C534 1.356 . S
N532 H544 0.984 . S
N532 H545 0.985 . S
N533 C535 1.356 1_655 S
N533 H538 0.984 . S
N533 H539 0.985 . S
C534 C528 1.379 . S
C534 C531 1.363 . S
C534 N532 1.356 . S
C535 C529 1.363 . S
C535 C530 1.379 . S
C535 N533 1.356 1_455 S
N536 C528 1.356 . S
N536 H542 0.984 . S
N536 H543 0.984 . S
N537 C530 1.356 1_655 S
N537 H540 0.984 1_655 S
N537 H541 0.985 . S
H538 N533 0.984 . S
H539 N533 0.985 . S
H540 N537 0.984 1_455 S
H541 N537 0.985 . S
H542 N536 0.984 . S
H543 N536 0.984 . S
H544 N532 0.984 . S
H545 N532 0.985 . S
C546 C547 1.363 . S
C546 C552 1.379 . S
C546 N554 1.356 . S
C547 C546 1.363 . S
C547 C553 1.363 . S
C548 C549 1.363 . S
C548 C553 1.379 . S
C548 N555 1.356 . S
C549 C548 1.363 . S
C549 C552 1.363 . S
N550 C552 1.356 . S
N550 H562 0.984 . S
N550 H563 0.985 . S
N551 C553 1.356 . S
N551 H556 0.984 . S
N551 H557 0.985 . S
C552 C546 1.379 . S
C552 C549 1.363 . S
C552 N550 1.356 . S
C553 C547 1.363 . S
C553 C548 1.379 . S
C553 N551 1.356 . S
N554 C546 1.356 . S
N554 H560 0.984 . S
N554 H561 0.984 . S
N555 C548 1.356 . S
N555 H558 0.984 . S
N555 H559 0.985 . S
H556 N551 0.984 . S
H557 N551 0.985 . S
H558 N555 0.984 . S
H559 N555 0.985 . S
H560 N554 0.984 . S
H561 N554 0.984 . S
H562 N550 0.984 . S
H563 N550 0.985 . S
C564 C565 1.363 . S
C564 C570 1.379 . S
C564 N572 1.356 . S
C565 C564 1.363 . S
C565 C571 1.363 . S
C566 C567 1.363 . S
C566 C571 1.379 . S
C566 N573 1.356 . S
C567 C566 1.363 . S
C567 C570 1.363 . S
N568 C570 1.356 1_545 S
N568 H580 0.984 . S
N568 H581 0.985 . S
N569 C571 1.356 . S
N569 H574 0.984 . S
N569 H575 0.985 . S
C570 C564 1.379 . S
C570 C567 1.363 . S
C570 N568 1.356 1_565 S
C571 C565 1.363 . S
C571 C566 1.379 . S
C571 N569 1.356 . S
N572 C564 1.356 . S
N572 H578 0.984 . S
N572 H579 0.984 . S
N573 C566 1.356 . S
N573 H576 0.956 1_565 S
N573 H577 0.985 . S
H574 N569 0.984 . S
H575 N569 0.985 . S
H576 N573 0.956 1_545 S
H577 N573 0.985 . S
H578 N572 0.984 . S
H579 N572 0.984 . S
H580 N568 0.984 . S
H581 N568 0.985 . S
C582 C583 1.363 . S
C582 C588 1.379 . S
C582 N590 1.356 . S
C583 C582 1.363 . S
C583 C589 1.363 . S
C584 C585 1.363 . S
C584 C589 1.379 . S
C584 N591 1.356 . S
C585 C584 1.363 . S
C585 C588 1.363 . S
N586 C588 1.356 . S
N586 H598 0.984 . S
N586 H599 0.985 . S
N587 C589 1.356 . S
N587 H592 0.984 . S
N587 H593 0.985 . S
C588 C582 1.379 . S
C588 C585 1.363 . S
C588 N586 1.356 . S
C589 C583 1.363 . S
C589 C584 1.379 . S
C589 N587 1.356 . S
N590 C582 1.356 . S
N590 H596 0.984 . S
N590 H597 0.984 . S
N591 C584 1.356 . S
N591 H594 0.984 . S
N591 H595 0.985 . S
H592 N587 0.984 . S
H593 N587 0.985 . S
H594 N591 0.984 . S
H595 N591 0.985 . S
H596 N590 0.984 . S
H597 N590 0.984 . S
H598 N586 0.984 . S
H599 N586 0.985 . S
C600 C601 1.363 . S
C600 C606 1.379 1_545 S
C600 N608 1.356 . S
C601 C600 1.363 . S
C601 C607 1.363 1_545 S
C602 C603 1.363 . S
C602 C607 1.379 . S
C602 N609 1.356 . S
C603 C602 1.363 . S
C603 C606 1.363 . S
N604 C606 1.356 . S
N604 H616 0.984 1_565 S
N604 H617 0.985 . S
N605 C607 1.356 . S
N605 H610 0.984 . S
N605 H611 0.985 . S
C606 C600 1.379 1_565 S
C606 C603 1.363 . S
C606 N604 1.356 . S
C607 C601 1.363 1_565 S
C607 C602 1.379 . S
C607 N605 1.356 . S
N608 C600 1.356 . S
N608 H614 0.984 . S
N608 H615 0.984 . S
N609 C602 1.356 . S
N609 H612 0.984 . S
N609 H613 0.985 . S
H610 N605 0.984 . S
H611 N605 0.985 . S
H612 N609 0.984 . S
H613 N609 0.985 . S
H614 N608 0.984 . S
H615 N608 0.984 . S
H616 N604 0.984 1_545 S
H617 N604 0.985 . S
C618 C619 1.363 . S
C618 C624 1.379 . S
C618 N626 1.356 . S
C619 C618 1.363 . S
C619 C625 1.363 . S
C620 C621 1.363 . S
C620 C625 1.379 . S
C620 N627 1.356 . S
C621 C620 1.363 . S
C621 C624 1.363 . S
N622 C624 1.356 . S
N622 H634 0.984 . S
N622 H635 0.985 . S
N623 C625 1.356 . S
N623 H628 0.984 . S
N623 H629 0.985 . S
C624 C618 1.379 . S
C624 C621 1.363 . S
C624 N622 1.356 . S
C625 C619 1.363 . S
C625 C620 1.379 . S
C625 N623 1.356 . S
N626 C618 1.356 . S
N626 H632 0.984 . S
N626 H633 0.984 . S
N627 C620 1.356 . S
N627 H630 0.984 . S
N627 H631 0.985 . S
H628 N623 0.984 . S
H629 N623 0.985 . S
H630 N627 0.984 . S
H631 N627 0.985 . S
H632 N626 0.984 . S
H633 N626 0.984 . S
H634 N622 0.984 . S
H635 N622 0.985 . S
C636 C637 1.363 . S
C636 C642 1.379 . S
C636 N644 1.356 . S
C637 C636 1.363 . S
C637 C643 1.363 . S
C638 C639 1.363 . S
C638 C643 1.379 . S
C638 N645 1.356 . S
C639 C638 1.363 . S
C639 C642 1.363 . S
N640 C642 1.356 . S
N640 H652 0.984 . S
N640 H653 0.985 . S
N641 C643 1.356 . S
N641 H646 0.984 . S
N641 H647 0.985 . S
C642 C636 1.379 . S
C642 C639 1.363 . S
C642 N640 1.356 . S
C643 C637 1.363 . S
C643 C638 1.379 . S
C643 N641 1.356 . S
N644 C636 1.356 . S
N644 H650 0.984 . S
N644 H651 0.984 . S
N645 C638 1.356 . S
N645 H648 0.984 . S
N645 H649 0.985 . S
H646 N641 0.984 . S
H647 N641 0.985 . S
H648 N645 0.984 . S
H649 N645 0.985 . S
H650 N644 0.984 . S
H651 N644 0.984 . S
H652 N640 0.984 . S
H653 N640 0.985 . S
C654 C655 1.363 . S
C654 C660 1.379 . S
C654 N662 1.356 . S
C655 C654 1.363 . S
C655 C661 1.363 . S
C656 C657 1.363 . S
C656 C661 1.379 . S
C656 N663 1.356 . S
C657 C656 1.363 . S
C657 C660 1.363 . S
N658 C660 1.356 . S
N658 H670 0.984 . S
N658 H671 0.985 . S
N659 C661 1.356 . S
N659 H664 0.984 . S
N659 H665 0.985 . S
C660 C654 1.379 . S
C660 C657 1.363 . S
C660 N658 1.356 . S
C661 C655 1.363 . S
C661 C656 1.379 . S
C661 N659 1.356 . S
N662 C654 1.356 . S
N662 H668 0.984 . S
N662 H669 0.984 . S
N663 C656 1.356 . S
N663 H666 0.984 . S
N663 H667 0.985 . S
H664 N659 0.984 . S
H665 N659 0.985 . S
H666 N663 0.984 . S
H667 N663 0.985 . S
H668 N662 0.984 . S
H669 N662 0.984 . S
H670 N658 0.984 . S
H671 N658 0.985 . S
C672 C673 1.363 . S
C672 C678 1.379 . S
C672 N680 1.356 . S
C673 C672 1.363 . S
C673 C679 1.363 . S
C674 C675 1.363 . S
C674 C679 1.379 . S
C674 N681 1.356 . S
C675 C674 1.363 . S
C675 C678 1.363 . S
N676 C678 1.356 . S
N676 H688 0.984 . S
N676 H689 0.985 . S
N677 C679 1.356 . S
N677 H682 0.984 . S
N677 H683 0.985 . S
C678 C672 1.379 . S
C678 C675 1.363 . S
C678 N676 1.356 . S
C679 C673 1.363 . S
C679 C674 1.379 . S
C679 N677 1.356 . S
N680 C672 1.356 . S
N680 H686 0.984 . S
N680 H687 0.984 . S
N681 C674 1.356 . S
N681 H684 0.984 . S
N681 H685 0.985 . S
H682 N677 0.984 . S
H683 N677 0.985 . S
H684 N681 0.984 . S
H685 N681 0.985 . S
H686 N680 0.984 . S
H687 N680 0.984 . S
H688 N676 0.984 . S
H689 N676 0.985 . S
C690 C691 1.363 . S
C690 C696 1.379 . S
C690 N698 1.356 . S
C691 C690 1.363 . S
C691 C697 1.363 . S
C692 C693 1.363 . S
C692 C697 1.379 . S
C692 N699 1.356 . S
C693 C692 1.363 . S
C693 C696 1.363 . S
N694 C696 1.356 . S
N694 H706 0.984 . S
N694 H707 0.985 . S
N695 C697 1.356 . S
N695 H700 0.984 . S
N695 H701 0.985 . S
C696 C690 1.379 . S
C696 C693 1.363 . S
C696 N694 1.356 . S
C697 C691 1.363 . S
C697 C692 1.379 . S
C697 N695 1.356 . S
N698 C690 1.356 . S
N698 H704 0.984 . S
N698 H705 0.984 . S
N699 C692 1.356 . S
N699 H702 0.984 . S
N699 H703 0.985 . S
H700 N695 0.984 . S
H701 N695 0.985 . S
H702 N699 0.984 . S
H703 N699 0.985 . S
H704 N698 0.984 . S
H705 N698 0.984 . S
H706 N694 0.984 . S
H707 N694 0.985 . S
C708 C709 1.363 . S
C708 C714 1.379 . S
C708 N716 1.356 . S
C709 C708 1.363 . S
C709 C715 1.363 . S
C710 C711 1.363 . S
C710 C715 1.379 . S
C710 N717 1.356 . S
C711 C710 1.363 . S
C711 C714 1.363 . S
N712 C714 1.356 . S
N712 H724 0.984 . S
N712 H725 0.985 . S
N713 C715 1.356 . S
N713 H718 0.984 . S
N713 H719 0.985 . S
C714 C708 1.379 . S
C714 C711 1.363 . S
C714 N712 1.356 . S
C715 C709 1.363 . S
C715 C710 1.379 . S
C715 N713 1.356 . S
N716 C708 1.356 . S
N716 H722 0.984 . S
N716 H723 0.984 . S
N717 C710 1.356 . S
N717 H720 0.984 . S
N717 H721 0.985 . S
H718 N713 0.984 . S
H719 N713 0.985 . S
H720 N717 0.984 . S
H721 N717 0.985 . S
H722 N716 0.984 . S
H723 N716 0.984 . S
H724 N712 0.984 . S
H725 N712 0.985 . S
C726 C727 1.363 . S
C726 C732 1.379 . S
C726 N734 1.356 . S
C727 C726 1.363 . S
C727 C733 1.363 . S
C728 C729 1.363 . S
C728 C733 1.379 . S
C728 N735 1.356 . S
C729 C728 1.363 . S
C729 C732 1.363 . S
N730 C732 1.356 . S
N730 H742 0.984 . S
N730 H743 0.985 . S
N731 C733 1.356 . S
N731 H736 0.984 . S
N731 H737 0.985 . S
C732 C726 1.379 . S
C732 C729 1.363 . S
C732 N730 1.356 . S
C733 C727 1.363 . S
C733 C728 1.379 . S
C733 N731 1.356 . S
N734 C726 1.356 . S
N734 H740 0.984 . S
N734 H741 0.984 . S
N735 C728 1.356 . S
N735 H738 0.984 . S
N735 H739 0.985 . S
H736 N731 0.984 . S
H737 N731 0.985 . S
H738 N735 0.984 . S
H739 N735 0.985 . S
H740 N734 0.984 . S
H741 N734 0.984 . S
H742 N730 0.984 . S
H743 N730 0.985 . S
C744 C745 1.363 . S
C744 C750 1.379 . S
C744 N752 1.356 . S
C745 C744 1.363 . S
C745 C751 1.363 . S
C746 C747 1.363 . S
C746 C751 1.379 . S
C746 N753 1.356 . S
C747 C746 1.363 . S
C747 C750 1.363 . S
N748 C750 1.356 . S
N748 H760 0.984 . S
N748 H761 0.985 . S
N749 C751 1.356 . S
N749 H754 0.984 . S
N749 H755 0.985 . S
C750 C744 1.379 . S
C750 C747 1.363 . S
C750 N748 1.356 . S
C751 C745 1.363 . S
C751 C746 1.379 . S
C751 N749 1.356 . S
N752 C744 1.356 . S
N752 H758 0.984 . S
N752 H759 0.984 . S
N753 C746 1.356 . S
N753 H756 0.984 . S
N753 H757 0.985 . S
H754 N749 0.984 . S
H755 N749 0.985 . S
H756 N753 0.984 . S
H757 N753 0.985 . S
H758 N752 0.984 . S
H759 N752 0.984 . S
H760 N748 0.984 . S
H761 N748 0.985 . S
C762 C763 1.363 . S
C762 C768 1.379 . S
C762 N770 1.356 . S
C763 C762 1.363 . S
C763 C769 1.363 . S
C764 C765 1.363 . S
C764 C769 1.379 . S
C764 N771 1.356 . S
C765 C764 1.363 . S
C765 C768 1.363 . S
N766 C768 1.356 . S
N766 H778 0.984 . S
N766 H779 0.985 . S
N767 C769 1.356 . S
N767 H772 0.984 . S
N767 H773 0.985 . S
C768 C762 1.379 . S
C768 C765 1.363 . S
C768 N766 1.356 . S
C769 C763 1.363 . S
C769 C764 1.379 . S
C769 N767 1.356 . S
N770 C762 1.356 . S
N770 H776 0.984 . S
N770 H777 0.984 . S
N771 C764 1.356 . S
N771 H774 0.984 . S
N771 H775 0.985 . S
H772 N767 0.984 . S
H773 N767 0.985 . S
H774 N771 0.984 . S
H775 N771 0.985 . S
H776 N770 0.984 . S
H777 N770 0.984 . S
H778 N766 0.984 . S
H779 N766 0.985 . S
C780 C781 1.363 . S
C780 C786 1.379 . S
C780 N788 1.356 . S
C781 C780 1.363 . S
C781 C787 1.363 . S
C782 C783 1.363 . S
C782 C787 1.379 . S
C782 N789 1.356 . S
C783 C782 1.363 . S
C783 C786 1.363 . S
N784 C786 1.356 . S
N784 H796 0.984 . S
N784 H797 0.985 . S
N785 C787 1.356 . S
N785 H790 0.984 . S
N785 H791 0.985 . S
C786 C780 1.379 . S
C786 C783 1.363 . S
C786 N784 1.356 . S
C787 C781 1.363 . S
C787 C782 1.379 . S
C787 N785 1.356 . S
N788 C780 1.356 . S
N788 H794 0.984 . S
N788 H795 0.984 . S
N789 C782 1.356 . S
N789 H792 0.984 . S
N789 H793 0.985 . S
H790 N785 0.984 . S
H791 N785 0.985 . S
H792 N789 0.984 . S
H793 N789 0.985 . S
H794 N788 0.984 . S
H795 N788 0.984 . S
H796 N784 0.984 . S
H797 N784 0.985 . S
C798 C799 1.363 . S
C798 C804 1.379 . S
C798 N806 1.356 . S
C799 C798 1.363 . S
C799 C805 1.363 . S
C800 C801 1.363 . S
C800 C805 1.379 . S
C800 N807 1.356 . S
C801 C800 1.363 . S
C801 C804 1.363 . S
N802 C804 1.356 . S
N802 H814 0.984 . S
N802 H815 0.985 . S
N803 C805 1.356 . S
N803 H808 0.984 . S
N803 H809 0.985 . S
C804 C798 1.379 . S
C804 C801 1.363 . S
C804 N802 1.356 . S
C805 C799 1.363 . S
C805 C800 1.379 . S
C805 N803 1.356 . S
N806 C798 1.356 . S
N806 H812 0.984 . S
N806 H813 0.984 . S
N807 C800 1.356 . S
N807 H810 0.984 . S
N807 H811 0.985 . S
H808 N803 0.984 . S
H809 N803 0.985 . S
H810 N807 0.984 . S
H811 N807 0.985 . S
H812 N806 0.984 . S
H813 N806 0.984 . S
H814 N802 0.984 . S
H815 N802 0.985 . S
C816 C817 1.363 . S
C816 C822 1.379 . S
C816 N824 1.356 . S
C817 C816 1.363 . S
C817 C823 1.363 . S
C818 C819 1.363 . S
C818 C823 1.379 . S
C818 N825 1.356 . S
C819 C818 1.363 . S
C819 C822 1.363 . S
N820 C822 1.356 . S
N820 H832 0.984 . S
N820 H833 0.985 . S
N821 C823 1.356 . S
N821 H826 0.984 . S
N821 H827 0.985 . S
C822 C816 1.379 . S
C822 C819 1.363 . S
C822 N820 1.356 . S
C823 C817 1.363 . S
C823 C818 1.379 . S
C823 N821 1.356 . S
N824 C816 1.356 . S
N824 H830 0.984 . S
N824 H831 0.984 . S
N825 C818 1.356 . S
N825 H828 0.984 . S
N825 H829 0.985 . S
H826 N821 0.984 . S
H827 N821 0.985 . S
H828 N825 0.984 . S
H829 N825 0.985 . S
H830 N824 0.984 . S
H831 N824 0.984 . S
H832 N820 0.984 . S
H833 N820 0.985 . S
C834 C835 1.363 . S
C834 C840 1.379 . S
C834 N842 1.356 . S
C835 C834 1.363 . S
C835 C841 1.363 . S
C836 C837 1.363 . S
C836 C841 1.379 . S
C836 N843 1.356 . S
C837 C836 1.363 . S
C837 C840 1.363 . S
N838 C840 1.356 . S
N838 H850 0.984 . S
N838 H851 0.985 . S
N839 C841 1.356 . S
N839 H844 0.984 . S
N839 H845 0.985 1_565 S
C840 C834 1.379 . S
C840 C837 1.363 . S
C840 N838 1.356 . S
C841 C835 1.363 . S
C841 C836 1.379 . S
C841 N839 1.356 . S
N842 C834 1.356 . S
N842 H848 0.984 . S
N842 H849 0.984 . S
N843 C836 1.356 . S
N843 H846 0.984 . S
N843 H847 0.985 . S
H844 N839 0.984 . S
H845 N839 0.985 1_545 S
H846 N843 0.984 . S
H847 N843 0.985 . S
H848 N842 0.984 . S
H849 N842 0.984 . S
H850 N838 0.984 . S
H851 N838 0.985 . S
C852 C853 1.363 . S
C852 C858 1.379 . S
C852 N860 1.356 . S
C853 C852 1.363 . S
C853 C859 1.363 . S
C854 C855 1.363 . S
C854 C859 1.379 . S
C854 N861 1.356 . S
C855 C854 1.363 . S
C855 C858 1.363 . S
N856 C858 1.356 . S
N856 H868 0.984 . S
N856 H869 0.985 . S
N857 C859 1.356 . S
N857 H862 0.984 . S
N857 H863 0.985 . S
C858 C852 1.379 . S
C858 C855 1.363 . S
C858 N856 1.356 . S
C859 C853 1.363 . S
C859 C854 1.379 . S
C859 N857 1.356 . S
N860 C852 1.356 . S
N860 H866 0.984 . S
N860 H867 0.984 . S
N861 C854 1.356 . S
N861 H864 0.984 . S
N861 H865 0.985 . S
H862 N857 0.984 . S
H863 N857 0.985 . S
H864 N861 0.984 . S
H865 N861 0.985 . S
H866 N860 0.984 . S
H867 N860 0.984 . S
H868 N856 0.984 . S
H869 N856 0.985 . S
C870 C871 1.363 . S
C870 C876 1.379 . S
C870 N878 1.356 . S
C871 C870 1.363 . S
C871 C877 1.363 . S
C872 C873 1.363 . S
C872 C877 1.379 . S
C872 N879 1.356 . S
C873 C872 1.363 . S
C873 C876 1.363 . S
N874 C876 1.356 . S
N874 H886 0.984 . S
N874 H887 0.985 . S
N875 C877 1.356 . S
N875 H880 0.984 . S
N875 H881 0.985 . S
C876 C870 1.379 . S
C876 C873 1.363 . S
C876 N874 1.356 . S
C877 C871 1.363 . S
C877 C872 1.379 . S
C877 N875 1.356 . S
N878 C870 1.356 . S
N878 H884 0.984 . S
N878 H885 0.984 . S
N879 C872 1.356 . S
N879 H882 0.984 . S
N879 H883 0.985 . S
H880 N875 0.984 . S
H881 N875 0.985 . S
H882 N879 0.984 . S
H883 N879 0.985 . S
H884 N878 0.984 . S
H885 N878 0.984 . S
H886 N874 0.984 . S
H887 N874 0.985 . S
C888 C889 1.363 . S
C888 C894 1.379 . S
C888 N896 1.356 . S
C889 C888 1.363 . S
C889 C895 1.363 . S
C890 C891 1.363 . S
C890 C895 1.379 . S
C890 N897 1.356 . S
C891 C890 1.363 . S
C891 C894 1.363 . S
N892 C894 1.356 . S
N892 H904 0.984 . S
N892 H905 0.985 . S
N893 C895 1.356 . S
N893 H898 0.984 . S
N893 H899 0.985 . S
C894 C888 1.379 . S
C894 C891 1.363 . S
C894 N892 1.356 . S
C895 C889 1.363 . S
C895 C890 1.379 . S
C895 N893 1.356 . S
N896 C888 1.356 . S
N896 H902 0.984 . S
N896 H903 0.984 . S
N897 C890 1.356 . S
N897 H900 0.984 . S
N897 H901 0.985 . S
H898 N893 0.984 . S
H899 N893 0.985 . S
H900 N897 0.984 . S
H901 N897 0.985 . S
H902 N896 0.984 . S
H903 N896 0.984 . S
H904 N892 0.984 . S
H905 N892 0.985 . S
C906 C907 1.363 . S
C906 C912 1.379 . S
C906 N914 1.356 . S
C907 C906 1.363 . S
C907 C913 1.363 . S
C908 C909 1.363 . S
C908 C913 1.379 . S
C908 N915 1.356 . S
C909 C908 1.363 . S
C909 C912 1.363 . S
N910 C912 1.356 . S
N910 H922 0.984 . S
N910 H923 0.985 . S
N911 C913 1.356 . S
N911 H916 0.984 . S
N911 H917 0.985 . S
C912 C906 1.379 . S
C912 C909 1.363 . S
C912 N910 1.356 . S
C913 C907 1.363 . S
C913 C908 1.379 . S
C913 N911 1.356 . S
N914 C906 1.356 . S
N914 H920 0.984 . S
N914 H921 0.984 . S
N915 C908 1.356 . S
N915 H918 0.984 . S
N915 H919 0.985 . S
H916 N911 0.984 . S
H917 N911 0.985 . S
H918 N915 0.984 . S
H919 N915 0.985 . S
H920 N914 0.984 . S
H921 N914 0.984 . S
H922 N910 0.984 . S
H923 N910 0.985 . S
C924 C925 1.363 . S
C924 C930 1.379 . S
C924 N932 1.356 . S
C925 C924 1.363 . S
C925 C931 1.363 . S
C926 C927 1.363 . S
C926 C931 1.379 . S
C926 N933 1.356 . S
C927 C926 1.363 . S
C927 C930 1.363 . S
N928 C930 1.356 . S
N928 H940 0.984 . S
N928 H941 0.985 . S
N929 C931 1.356 . S
N929 H934 0.984 . S
N929 H935 0.985 . S
C930 C924 1.379 . S
C930 C927 1.363 . S
C930 N928 1.356 . S
C931 C925 1.363 . S
C931 C926 1.379 . S
C931 N929 1.356 . S
N932 C924 1.356 . S
N932 H938 0.984 . S
N932 H939 0.984 . S
N933 C926 1.356 . S
N933 H936 0.984 . S
N933 H937 0.985 . S
H934 N929 0.984 . S
H935 N929 0.985 . S
H936 N933 0.984 . S
H937 N933 0.985 . S
H938 N932 0.984 . S
H939 N932 0.984 . S
H940 N928 0.984 . S
H941 N928 0.985 . S
C942 C943 1.363 . S
C942 C948 1.379 . S
C942 N950 1.356 . S
C943 C942 1.363 . S
C943 C949 1.363 . S
C944 C945 1.363 . S
C944 C949 1.379 . S
C944 N951 1.356 . S
C945 C944 1.363 . S
C945 C948 1.363 . S
N946 C948 1.356 . S
N946 H958 0.984 . S
N946 H959 0.985 . S
N947 C949 1.356 . S
N947 H952 0.984 . S
N947 H953 0.985 . S
C948 C942 1.379 . S
C948 C945 1.363 . S
C948 N946 1.356 . S
C949 C943 1.363 . S
C949 C944 1.379 . S
C949 N947 1.356 . S
N950 C942 1.356 . S
N950 H956 0.984 . S
N950 H957 0.984 . S
N951 C944 1.356 . S
N951 H954 0.984 . S
N951 H955 0.985 . S
H952 N947 0.984 . S
H953 N947 0.985 . S
H954 N951 0.984 . S
H955 N951 0.985 . S
H956 N950 0.984 . S
H957 N950 0.984 . S
H958 N946 0.984 . S
H959 N946 0.985 . S
C960 C961 1.363 . S
C960 C966 1.379 . S
C960 N968 1.356 . S
C961 C960 1.363 . S
C961 C967 1.363 . S
C962 C963 1.363 . S
C962 C967 1.379 . S
C962 N969 1.356 . S
C963 C962 1.363 . S
C963 C966 1.363 . S
N964 C966 1.356 . S
N964 H976 0.984 . S
N964 H977 0.985 . S
N965 C967 1.356 . S
N965 H970 0.984 . S
N965 H971 0.985 . S
C966 C960 1.379 . S
C966 C963 1.363 . S
C966 N964 1.356 . S
C967 C961 1.363 . S
C967 C962 1.379 . S
C967 N965 1.356 . S
N968 C960 1.356 . S
N968 H974 0.984 . S
N968 H975 0.984 . S
N969 C962 1.356 . S
N969 H972 0.984 . S
N969 H973 0.985 . S
H970 N965 0.984 . S
H971 N965 0.985 . S
H972 N969 0.984 . S
H973 N969 0.985 . S
H974 N968 0.984 . S
H975 N968 0.984 . S
H976 N964 0.984 . S
H977 N964 0.985 . S
C978 C979 1.363 . S
C978 C984 1.379 . S
C978 N986 1.356 . S
C979 C978 1.363 . S
C979 C985 1.363 . S
C980 C981 1.363 . S
C980 C985 1.379 . S
C980 N987 1.356 . S
C981 C980 1.363 . S
C981 C984 1.363 . S
N982 C984 1.356 . S
N982 H994 0.984 . S
N982 H995 0.985 . S
N983 C985 1.356 1_554 S
N983 H988 0.984 . S
N983 H989 0.985 . S
C984 C978 1.379 . S
C984 C981 1.363 . S
C984 N982 1.356 . S
C985 C979 1.363 . S
C985 C980 1.379 . S
C985 N983 1.356 1_556 S
N986 C978 1.356 . S
N986 H992 0.984 . S
N986 H993 0.984 . S
N987 C980 1.356 . S
N987 H990 0.984 . S
N987 H991 0.985 . S
H988 N983 0.984 . S
H989 N983 0.985 . S
H990 N987 0.984 . S
H991 N987 0.985 . S
H992 N986 0.984 . S
H993 N986 0.984 . S
H994 N982 0.984 . S
H995 N982 0.985 . S
C996 C997 1.363 . S
C996 C1002 1.379 . S
C996 N1004 1.356 . S
C997 C996 1.363 . S
C997 C1003 1.363 . S
C998 C999 1.363 . S
C998 C1003 1.379 . S
C998 N1005 1.356 . S
C999 C998 1.363 . S
C999 C1002 1.363 . S
N1000 C1002 1.356 . S
N1000 H1012 0.984 . S
N1000 H1013 0.985 . S
N1001 C1003 1.356 . S
N1001 H1006 0.984 . S
N1001 H1007 0.985 . S
C1002 C996 1.379 . S
C1002 C999 1.363 . S
C1002 N1000 1.356 . S
C1003 C997 1.363 . S
C1003 C998 1.379 . S
C1003 N1001 1.356 . S
N1004 C996 1.356 . S
N1004 H1010 0.984 . S
N1004 H1011 0.984 . S
N1005 C998 1.356 . S
N1005 H1008 0.984 . S
N1005 H1009 0.985 . S
H1006 N1001 0.984 . S
H1007 N1001 0.985 . S
H1008 N1005 0.984 . S
H1009 N1005 0.985 . S
H1010 N1004 0.984 . S
H1011 N1004 0.984 . S
H1012 N1000 0.984 . S
H1013 N1000 0.985 . S
C1014 C1015 1.363 . S
C1014 C1020 1.379 . S
C1014 N1022 1.356 . S
C1015 C1014 1.363 . S
C1015 C1021 1.363 . S
C1016 C1017 1.363 . S
C1016 C1021 1.379 . S
C1016 N1023 1.356 . S
C1017 C1016 1.363 . S
C1017 C1020 1.363 . S
N1018 C1020 1.356 . S
N1018 H1030 0.984 . S
N1018 H1031 0.985 . S
N1019 C1021 1.356 . S
N1019 H1024 0.984 . S
N1019 H1025 0.985 . S
C1020 C1014 1.379 . S
C1020 C1017 1.363 . S
C1020 N1018 1.356 . S
C1021 C1015 1.363 . S
C1021 C1016 1.379 . S
C1021 N1019 1.356 . S
N1022 C1014 1.356 . S
N1022 H1028 0.984 . S
N1022 H1029 0.984 . S
N1023 C1016 1.356 . S
N1023 H1026 0.984 1_545 S
N1023 H1027 0.985 1_545 S
H1024 N1019 0.984 . S
H1025 N1019 0.985 . S
H1026 N1023 0.984 1_565 S
H1027 N1023 0.985 1_565 S
H1028 N1022 0.984 . S
H1029 N1022 0.984 . S
H1030 N1018 0.984 . S
H1031 N1018 0.985 . S
C1032 C1033 1.363 . S
C1032 C1038 1.379 . S
C1032 N1040 1.356 . S
C1033 C1032 1.363 . S
C1033 C1039 1.363 . S
C1034 C1035 1.363 . S
C1034 C1039 1.379 . S
C1034 N1041 1.356 1_545 S
C1035 C1034 1.363 . S
C1035 C1038 1.363 . S
N1036 C1038 1.356 . S
N1036 H1048 0.984 . S
N1036 H1049 0.985 . S
N1037 C1039 1.356 . S
N1037 H1042 0.984 . S
N1037 H1043 0.985 1_545 S
C1038 C1032 1.379 . S
C1038 C1035 1.363 . S
C1038 N1036 1.356 . S
C1039 C1033 1.363 . S
C1039 C1034 1.379 . S
C1039 N1037 1.356 . S
N1040 C1032 1.356 . S
N1040 H1046 0.984 . S
N1040 H1047 0.984 . S
N1041 C1034 1.356 1_565 S
N1041 H1044 0.984 . S
N1041 H1045 0.985 . S
H1042 N1037 0.984 . S
H1043 N1037 0.985 1_565 S
H1044 N1041 0.984 . S
H1045 N1041 0.985 . S
H1046 N1040 0.984 . S
H1047 N1040 0.984 . S
H1048 N1036 0.984 . S
H1049 N1036 0.985 . S
C1050 C1051 1.363 . S
C1050 C1056 1.379 . S
C1050 N1058 1.356 . S
C1051 C1050 1.363 . S
C1051 C1057 1.363 . S
C1052 C1053 1.363 . S
C1052 C1057 1.379 . S
C1052 N1059 1.356 . S
C1053 C1052 1.363 . S
C1053 C1056 1.363 . S
N1054 C1056 1.356 . S
N1054 H1066 0.984 . S
N1054 H1067 0.985 . S
N1055 C1057 1.356 . S
N1055 H1060 0.984 . S
N1055 H1061 0.985 . S
C1056 C1050 1.379 . S
C1056 C1053 1.363 . S
C1056 N1054 1.356 . S
C1057 C1051 1.363 . S
C1057 C1052 1.379 . S
C1057 N1055 1.356 . S
N1058 C1050 1.356 . S
N1058 H1064 0.984 . S
N1058 H1065 0.984 . S
N1059 C1052 1.356 . S
N1059 H1062 0.984 . S
N1059 H1063 0.985 . S
H1060 N1055 0.984 . S
H1061 N1055 0.985 . S
H1062 N1059 0.984 . S
H1063 N1059 0.985 . S
H1064 N1058 0.984 . S
H1065 N1058 0.984 . S
H1066 N1054 0.984 . S
H1067 N1054 0.985 . S
C1068 C1069 1.363 . S
C1068 C1074 1.379 . S
C1068 N1076 1.356 . S
C1069 C1068 1.363 . S
C1069 C1075 1.363 . S
C1070 C1071 1.363 . S
C1070 C1075 1.379 . S
C1070 N1077 1.356 . S
C1071 C1070 1.363 . S
C1071 C1074 1.363 . S
N1072 C1074 1.356 . S
N1072 H1084 0.984 . S
N1072 H1085 0.985 . S
N1073 C1075 1.356 . S
N1073 H1078 0.984 . S
N1073 H1079 0.985 . S
C1074 C1068 1.379 . S
C1074 C1071 1.363 . S
C1074 N1072 1.356 . S
C1075 C1069 1.363 . S
C1075 C1070 1.379 . S
C1075 N1073 1.356 . S
N1076 C1068 1.356 . S
N1076 H1082 0.984 . S
N1076 H1083 0.984 . S
N1077 C1070 1.356 . S
N1077 H1080 0.984 . S
N1077 H1081 0.985 . S
H1078 N1073 0.984 . S
H1079 N1073 0.985 . S
H1080 N1077 0.984 . S
H1081 N1077 0.985 . S
H1082 N1076 0.984 . S
H1083 N1076 0.984 . S
H1084 N1072 0.984 . S
H1085 N1072 0.985 . S
C1086 C1087 1.363 . S
C1086 C1092 1.379 . S
C1086 N1094 1.356 . S
C1087 C1086 1.363 . S
C1087 C1093 1.363 . S
C1088 C1089 1.363 . S
C1088 C1093 1.379 . S
C1088 N1095 1.356 . S
C1089 C1088 1.363 . S
C1089 C1092 1.363 . S
N1090 C1092 1.356 . S
N1090 H1102 0.984 . S
N1090 H1103 0.985 . S
N1091 C1093 1.356 . S
N1091 H1096 0.984 . S
N1091 H1097 0.985 . S
C1092 C1086 1.379 . S
C1092 C1089 1.363 . S
C1092 N1090 1.356 . S
C1093 C1087 1.363 . S
C1093 C1088 1.379 . S
C1093 N1091 1.356 . S
N1094 C1086 1.356 . S
N1094 H1100 0.984 . S
N1094 H1101 0.984 . S
N1095 C1088 1.356 . S
N1095 H1098 0.984 . S
N1095 H1099 0.985 . S
H1096 N1091 0.984 . S
H1097 N1091 0.985 . S
H1098 N1095 0.984 . S
H1099 N1095 0.985 . S
H1100 N1094 0.984 . S
H1101 N1094 0.984 . S
H1102 N1090 0.984 . S
H1103 N1090 0.985 . S
C1104 C1105 1.363 . S
C1104 C1110 1.379 . S
C1104 N1112 1.356 . S
C1105 C1104 1.363 . S
C1105 C1111 1.363 . S
C1106 C1107 1.363 . S
C1106 C1111 1.379 . S
C1106 N1113 1.356 . S
C1107 C1106 1.363 . S
C1107 C1110 1.363 . S
N1108 C1110 1.356 . S
N1108 H1120 0.984 . S
N1108 H1121 0.985 . S
N1109 C1111 1.356 . S
N1109 H1114 0.984 . S
N1109 H1115 0.985 . S
C1110 C1104 1.379 . S
C1110 C1107 1.363 . S
C1110 N1108 1.356 . S
C1111 C1105 1.363 . S
C1111 C1106 1.379 . S
C1111 N1109 1.356 . S
N1112 C1104 1.356 . S
N1112 H1118 0.984 . S
N1112 H1119 0.984 . S
N1113 C1106 1.356 . S
N1113 H1116 0.984 . S
N1113 H1117 0.985 . S
H1114 N1109 0.984 . S
H1115 N1109 0.985 . S
H1116 N1113 0.984 . S
H1117 N1113 0.985 . S
H1118 N1112 0.984 . S
H1119 N1112 0.984 . S
H1120 N1108 0.984 . S
H1121 N1108 0.985 . S
C1122 C1123 1.363 . S
C1122 C1128 1.379 . S
C1122 N1130 1.356 . S
C1123 C1122 1.363 . S
C1123 C1129 1.363 . S
C1124 C1125 1.363 . S
C1124 C1129 1.379 . S
C1124 N1131 1.356 . S
C1125 C1124 1.363 . S
C1125 C1128 1.363 . S
N1126 C1128 1.356 . S
N1126 H1138 0.984 . S
N1126 H1139 0.985 . S
N1127 C1129 1.356 . S
N1127 H1132 0.984 . S
N1127 H1133 0.985 . S
C1128 C1122 1.379 . S
C1128 C1125 1.363 . S
C1128 N1126 1.356 . S
C1129 C1123 1.363 . S
C1129 C1124 1.379 . S
C1129 N1127 1.356 . S
N1130 C1122 1.356 . S
N1130 H1136 0.984 . S
N1130 H1137 0.984 . S
N1131 C1124 1.356 . S
N1131 H1134 0.984 . S
N1131 H1135 0.985 . S
H1132 N1127 0.984 . S
H1133 N1127 0.985 . S
H1134 N1131 0.984 . S
H1135 N1131 0.985 . S
H1136 N1130 0.984 . S
H1137 N1130 0.984 . S
H1138 N1126 0.984 . S
H1139 N1126 0.985 . S
C1140 C1141 1.363 . S
C1140 C1146 1.379 . S
C1140 N1148 1.356 . S
C1141 C1140 1.363 . S
C1141 C1147 1.363 . S
C1142 C1143 1.363 . S
C1142 C1147 1.379 . S
C1142 N1149 1.356 . S
C1143 C1142 1.363 . S
C1143 C1146 1.363 . S
N1144 C1146 1.356 . S
N1144 H1156 0.984 . S
N1144 H1157 0.985 . S
N1145 C1147 1.356 . S
N1145 H1150 0.984 . S
N1145 H1151 0.985 . S
C1146 C1140 1.379 . S
C1146 C1143 1.363 . S
C1146 N1144 1.356 . S
C1147 C1141 1.363 . S
C1147 C1142 1.379 . S
C1147 N1145 1.356 . S
N1148 C1140 1.356 . S
N1148 H1154 0.984 . S
N1148 H1155 0.984 . S
N1149 C1142 1.356 . S
N1149 H1152 0.984 . S
N1149 H1153 0.985 . S
H1150 N1145 0.984 . S
H1151 N1145 0.985 . S
H1152 N1149 0.984 . S
H1153 N1149 0.985 . S
H1154 N1148 0.984 . S
H1155 N1148 0.984 . S
H1156 N1144 0.984 . S
H1157 N1144 0.985 . S
C1158 C1159 1.363 . S
C1158 C1164 1.379 . S
C1158 N1166 1.356 . S
C1159 C1158 1.363 . S
C1159 C1165 1.363 . S
C1160 C1161 1.363 . S
C1160 C1165 1.379 . S
C1160 N1167 1.356 . S
C1161 C1160 1.363 . S
C1161 C1164 1.363 . S
N1162 C1164 1.356 . S
N1162 H1174 0.984 . S
N1162 H1175 0.985 . S
N1163 C1165 1.356 . S
N1163 H1168 0.984 . S
N1163 H1169 0.985 . S
C1164 C1158 1.379 . S
C1164 C1161 1.363 . S
C1164 N1162 1.356 . S
C1165 C1159 1.363 . S
C1165 C1160 1.379 . S
C1165 N1163 1.356 . S
N1166 C1158 1.356 . S
N1166 H1172 0.984 . S
N1166 H1173 0.984 . S
N1167 C1160 1.356 . S
N1167 H1170 0.984 . S
N1167 H1171 0.985 . S
H1168 N1163 0.984 . S
H1169 N1163 0.985 . S
H1170 N1167 0.984 . S
H1171 N1167 0.985 . S
H1172 N1166 0.984 . S
H1173 N1166 0.984 . S
H1174 N1162 0.984 . S
H1175 N1162 0.985 . S
C1176 C1177 1.363 . S
C1176 C1182 1.379 . S
C1176 N1184 1.356 . S
C1177 C1176 1.363 . S
C1177 C1183 1.363 . S
C1178 C1179 1.363 . S
C1178 C1183 1.379 . S
C1178 N1185 1.356 . S
C1179 C1178 1.363 . S
C1179 C1182 1.363 . S
N1180 C1182 1.356 . S
N1180 H1192 0.984 . S
N1180 H1193 0.985 . S
N1181 C1183 1.356 . S
N1181 H1186 0.984 . S
N1181 H1187 0.985 . S
C1182 C1176 1.379 . S
C1182 C1179 1.363 . S
C1182 N1180 1.356 . S
C1183 C1177 1.363 . S
C1183 C1178 1.379 . S
C1183 N1181 1.356 . S
N1184 C1176 1.356 . S
N1184 H1190 0.984 . S
N1184 H1191 0.984 . S
N1185 C1178 1.356 . S
N1185 H1188 0.984 . S
N1185 H1189 0.985 . S
H1186 N1181 0.984 . S
H1187 N1181 0.985 . S
H1188 N1185 0.984 . S
H1189 N1185 0.985 . S
H1190 N1184 0.984 . S
H1191 N1184 0.984 . S
H1192 N1180 0.984 . S
H1193 N1180 0.985 . S
C1194 C1195 1.363 . S
C1194 C1200 1.379 . S
C1194 N1202 1.356 . S
C1195 C1194 1.363 . S
C1195 C1201 1.363 . S
C1196 C1197 1.363 . S
C1196 C1201 1.379 . S
C1196 N1203 1.356 . S
C1197 C1196 1.363 . S
C1197 C1200 1.363 . S
N1198 C1200 1.356 . S
N1198 H1210 0.984 . S
N1198 H1211 0.985 . S
N1199 C1201 1.356 . S
N1199 H1204 0.984 . S
N1199 H1205 0.985 . S
C1200 C1194 1.379 . S
C1200 C1197 1.363 . S
C1200 N1198 1.356 . S
C1201 C1195 1.363 . S
C1201 C1196 1.379 . S
C1201 N1199 1.356 . S
N1202 C1194 1.356 . S
N1202 H1208 0.984 . S
N1202 H1209 0.984 . S
N1203 C1196 1.356 . S
N1203 H1206 0.984 . S
N1203 H1207 0.985 . S
H1204 N1199 0.984 . S
H1205 N1199 0.985 . S
H1206 N1203 0.984 . S
H1207 N1203 0.985 . S
H1208 N1202 0.984 . S
H1209 N1202 0.984 . S
H1210 N1198 0.984 . S
H1211 N1198 0.985 . S
C1212 C1213 1.363 . S
C1212 C1218 1.379 . S
C1212 N1220 1.356 . S
C1213 C1212 1.363 . S
C1213 C1219 1.363 . S
C1214 C1215 1.363 . S
C1214 C1219 1.379 . S
C1214 N1221 1.356 . S
C1215 C1214 1.363 . S
C1215 C1218 1.363 . S
N1216 C1218 1.356 . S
N1216 H1228 0.984 . S
N1216 H1229 0.985 . S
N1217 C1219 1.356 . S
N1217 H1222 0.984 . S
N1217 H1223 0.985 . S
C1218 C1212 1.379 . S
C1218 C1215 1.363 . S
C1218 N1216 1.356 . S
C1219 C1213 1.363 . S
C1219 C1214 1.379 . S
C1219 N1217 1.356 . S
N1220 C1212 1.356 . S
N1220 H1226 0.984 . S
N1220 H1227 0.984 . S
N1221 C1214 1.356 . S
N1221 H1224 0.984 . S
N1221 H1225 0.985 . S
H1222 N1217 0.984 . S
H1223 N1217 0.985 . S
H1224 N1221 0.984 . S
H1225 N1221 0.985 . S
H1226 N1220 0.984 . S
H1227 N1220 0.984 . S
H1228 N1216 0.984 . S
H1229 N1216 0.985 . S
C1230 C1231 1.363 . S
C1230 C1236 1.379 . S
C1230 N1238 1.356 . S
C1231 C1230 1.363 . S
C1231 C1237 1.363 . S
C1232 C1233 1.363 . S
C1232 C1237 1.379 . S
C1232 N1239 1.356 . S
C1233 C1232 1.363 . S
C1233 C1236 1.363 . S
N1234 C1236 1.356 . S
N1234 H1246 0.984 . S
N1234 H1247 0.985 . S
N1235 C1237 1.356 . S
N1235 H1240 0.984 . S
N1235 H1241 0.985 . S
C1236 C1230 1.379 . S
C1236 C1233 1.363 . S
C1236 N1234 1.356 . S
C1237 C1231 1.363 . S
C1237 C1232 1.379 . S
C1237 N1235 1.356 . S
N1238 C1230 1.356 . S
N1238 H1244 0.984 . S
N1238 H1245 0.984 . S
N1239 C1232 1.356 . S
N1239 H1242 0.984 . S
N1239 H1243 0.985 . S
H1240 N1235 0.984 . S
H1241 N1235 0.985 . S
H1242 N1239 0.984 . S
H1243 N1239 0.985 . S
H1244 N1238 0.984 . S
H1245 N1238 0.984 . S
H1246 N1234 0.984 . S
H1247 N1234 0.985 . S
C1248 C1249 1.363 . S
C1248 C1254 1.379 . S
C1248 N1256 1.356 . S
C1249 C1248 1.363 . S
C1249 C1255 1.363 . S
C1250 C1251 1.363 . S
C1250 C1255 1.379 . S
C1250 N1257 1.356 . S
C1251 C1250 1.363 . S
C1251 C1254 1.363 . S
N1252 C1254 1.356 . S
N1252 H1264 0.984 . S
N1252 H1265 0.985 . S
N1253 C1255 1.356 . S
N1253 H1258 0.984 . S
N1253 H1259 0.985 . S
C1254 C1248 1.379 . S
C1254 C1251 1.363 . S
C1254 N1252 1.356 . S
C1255 C1249 1.363 . S
C1255 C1250 1.379 . S
C1255 N1253 1.356 . S
N1256 C1248 1.356 . S
N1256 H1262 0.984 . S
N1256 H1263 0.984 . S
N1257 C1250 1.356 . S
N1257 H1260 0.984 . S
N1257 H1261 0.985 . S
H1258 N1253 0.984 . S
H1259 N1253 0.985 . S
H1260 N1257 0.984 . S
H1261 N1257 0.985 . S
H1262 N1256 0.984 . S
H1263 N1256 0.984 . S
H1264 N1252 0.984 . S
H1265 N1252 0.985 . S
C1266 C1267 1.363 . S
C1266 C1272 1.379 . S
C1266 N1274 1.356 . S
C1267 C1266 1.363 . S
C1267 C1273 1.363 . S
C1268 C1269 1.363 . S
C1268 C1273 1.379 . S
C1268 N1275 1.356 . S
C1269 C1268 1.363 . S
C1269 C1272 1.363 . S
N1270 C1272 1.356 . S
N1270 H1282 0.984 . S
N1270 H1283 0.985 . S
N1271 C1273 1.356 . S
N1271 H1276 0.984 . S
N1271 H1277 0.985 . S
C1272 C1266 1.379 . S
C1272 C1269 1.363 . S
C1272 N1270 1.356 . S
C1273 C1267 1.363 . S
C1273 C1268 1.379 . S
C1273 N1271 1.356 . S
N1274 C1266 1.356 . S
N1274 H1280 0.984 . S
N1274 H1281 0.984 . S
N1275 C1268 1.356 . S
N1275 H1278 0.984 . S
N1275 H1279 0.985 . S
H1276 N1271 0.984 . S
H1277 N1271 0.985 . S
H1278 N1275 0.984 . S
H1279 N1275 0.985 . S
H1280 N1274 0.984 . S
H1281 N1274 0.984 . S
H1282 N1270 0.984 . S
H1283 N1270 0.985 . S
C1284 C1285 1.363 . S
C1284 C1290 1.379 . S
C1284 N1292 1.356 . S
C1285 C1284 1.363 . S
C1285 C1291 1.363 . S
C1286 C1287 1.363 . S
C1286 C1291 1.379 . S
C1286 N1293 1.356 . S
C1287 C1286 1.363 . S
C1287 C1290 1.363 . S
N1288 C1290 1.356 1_545 S
N1288 H1300 0.984 . S
N1288 H1301 0.985 1_545 S
N1289 C1291 1.356 . S
N1289 H1294 0.984 . S
N1289 H1295 0.985 . S
C1290 C1284 1.379 . S
C1290 C1287 1.363 . S
C1290 N1288 1.356 1_565 S
C1291 C1285 1.363 . S
C1291 C1286 1.379 . S
C1291 N1289 1.356 . S
N1292 C1284 1.356 . S
N1292 H1298 0.984 1_565 S
N1292 H1299 0.984 . S
N1293 C1286 1.356 . S
N1293 H1296 0.984 . S
N1293 H1297 0.985 . S
H1294 N1289 0.984 . S
H1295 N1289 0.985 . S
H1296 N1293 0.984 . S
H1297 N1293 0.985 . S
H1298 N1292 0.984 1_545 S
H1299 N1292 0.984 . S
H1300 N1288 0.984 . S
H1301 N1288 0.985 1_565 S
C1302 C1303 1.363 . S
C1302 C1308 1.379 . S
C1302 N1310 1.356 . S
C1303 C1302 1.363 . S
C1303 C1309 1.363 . S
C1304 C1305 1.363 . S
C1304 C1309 1.379 . S
C1304 N1311 1.356 . S
C1305 C1304 1.363 . S
C1305 C1308 1.363 . S
N1306 C1308 1.356 . S
N1306 H1318 0.984 . S
N1306 H1319 0.985 . S
N1307 C1309 1.356 . S
N1307 H1312 0.984 . S
N1307 H1313 0.985 . S
C1308 C1302 1.379 . S
C1308 C1305 1.363 . S
C1308 N1306 1.356 . S
C1309 C1303 1.363 . S
C1309 C1304 1.379 . S
C1309 N1307 1.356 . S
N1310 C1302 1.356 . S
N1310 H1316 0.984 . S
N1310 H1317 0.984 . S
N1311 C1304 1.356 . S
N1311 H1314 0.984 . S
N1311 H1315 0.985 . S
H1312 N1307 0.984 . S
H1313 N1307 0.985 . S
H1314 N1311 0.984 . S
H1315 N1311 0.985 . S
H1316 N1310 0.984 . S
H1317 N1310 0.984 . S
H1318 N1306 0.984 . S
H1319 N1306 0.985 . S
C1320 C1321 1.363 . S
C1320 C1326 1.379 . S
C1320 N1328 1.356 . S
C1321 C1320 1.363 . S
C1321 C1327 1.363 . S
C1322 C1323 1.363 . S
C1322 C1327 1.379 . S
C1322 N1329 1.356 . S
C1323 C1322 1.363 . S
C1323 C1326 1.363 . S
N1324 C1326 1.356 . S
N1324 H1336 0.984 . S
N1324 H1337 0.985 . S
N1325 C1327 1.356 . S
N1325 H1330 0.984 . S
N1325 H1331 0.985 . S
C1326 C1320 1.379 . S
C1326 C1323 1.363 . S
C1326 N1324 1.356 . S
C1327 C1321 1.363 . S
C1327 C1322 1.379 . S
C1327 N1325 1.356 . S
N1328 C1320 1.356 . S
N1328 H1334 0.984 . S
N1328 H1335 0.984 . S
N1329 C1322 1.356 . S
N1329 H1332 0.984 . S
N1329 H1333 0.985 . S
H1330 N1325 0.984 . S
H1331 N1325 0.985 . S
H1332 N1329 0.984 . S
H1333 N1329 0.985 . S
H1334 N1328 0.984 . S
H1335 N1328 0.984 . S
H1336 N1324 0.984 . S
H1337 N1324 0.985 . S
C1338 C1339 1.363 . S
C1338 C1344 1.379 . S
C1338 N1346 1.356 . S
C1339 C1338 1.363 . S
C1339 C1345 1.363 . S
C1340 C1341 1.363 . S
C1340 C1345 1.379 . S
C1340 N1347 1.356 . S
C1341 C1340 1.363 . S
C1341 C1344 1.363 . S
N1342 C1344 1.356 . S
N1342 H1354 0.984 . S
N1342 H1355 0.985 . S
N1343 C1345 1.356 . S
N1343 H1348 0.984 . S
N1343 H1349 0.985 . S
C1344 C1338 1.379 . S
C1344 C1341 1.363 . S
C1344 N1342 1.356 . S
C1345 C1339 1.363 . S
C1345 C1340 1.379 . S
C1345 N1343 1.356 . S
N1346 C1338 1.356 . S
N1346 H1352 0.984 . S
N1346 H1353 0.984 . S
N1347 C1340 1.356 . S
N1347 H1350 0.984 . S
N1347 H1351 0.985 . S
H1348 N1343 0.984 . S
H1349 N1343 0.985 . S
H1350 N1347 0.984 . S
H1351 N1347 0.985 . S
H1352 N1346 0.984 . S
H1353 N1346 0.984 . S
H1354 N1342 0.984 . S
H1355 N1342 0.985 . S
C1356 C1357 1.363 . S
C1356 C1362 1.379 . S
C1356 N1364 1.356 . S
C1357 C1356 1.363 . S
C1357 C1363 1.363 . S
C1358 C1359 1.363 . S
C1358 C1363 1.379 1_554 S
C1358 N1365 1.356 . S
C1359 C1358 1.363 . S
C1359 C1362 1.363 1_554 S
N1360 C1362 1.356 . S
N1360 H1372 0.984 . S
N1360 H1373 0.985 1_556 S
N1361 C1363 1.356 . S
N1361 H1366 0.984 . S
N1361 H1367 0.985 . S
C1362 C1356 1.379 . S
C1362 C1359 1.363 1_556 S
C1362 N1360 1.356 . S
C1363 C1357 1.363 . S
C1363 C1358 1.379 1_556 S
C1363 N1361 1.356 . S
N1364 C1356 1.356 . S
N1364 H1370 0.984 . S
N1364 H1371 0.984 . S
N1365 C1358 1.356 . S
N1365 H1368 0.984 . S
N1365 H1369 0.985 . S
H1366 N1361 0.984 . S
H1367 N1361 0.985 . S
H1368 N1365 0.984 . S
H1369 N1365 0.985 . S
H1370 N1364 0.984 . S
H1371 N1364 0.984 . S
H1372 N1360 0.984 . S
H1373 N1360 0.985 1_554 S
C1374 C1375 1.363 . S
C1374 C1380 1.379 . S
C1374 N1382 1.356 . S
C1375 C1374 1.363 . S
C1375 C1381 1.363 . S
C1376 C1377 1.363 . S
C1376 C1381 1.379 . S
C1376 N1383 1.356 . S
C1377 C1376 1.363 . S
C1377 C1380 1.363 . S
N1378 C1380 1.356 . S
N1378 H1390 0.984 . S
N1378 H1391 0.985 . S
N1379 C1381 1.356 . S
N1379 H1384 0.984 . S
N1379 H1385 0.985 . S
C1380 C1374 1.379 . S
C1380 C1377 1.363 . S
C1380 N1378 1.356 . S
C1381 C1375 1.363 . S
C1381 C1376 1.379 . S
C1381 N1379 1.356 . S
N1382 C1374 1.356 . S
N1382 H1388 0.984 . S
N1382 H1389 0.984 . S
N1383 C1376 1.356 . S
N1383 H1386 0.984 . S
N1383 H1387 0.985 . S
H1384 N1379 0.984 . S
H1385 N1379 0.985 . S
H1386 N1383 0.984 . S
H1387 N1383 0.985 . S
H1388 N1382 0.984 . S
H1389 N1382 0.984 . S
H1390 N1378 0.984 . S
H1391 N1378 0.985 . S
C1392 C1393 1.363 . S
C1392 C1398 1.379 . S
C1392 N1400 1.356 . S
C1393 C1392 1.363 . S
C1393 C1399 1.363 . S
C1394 C1395 1.363 . S
C1394 C1399 1.379 . S
C1394 N1401 1.356 . S
C1395 C1394 1.363 . S
C1395 C1398 1.363 . S
N1396 C1398 1.356 . S
N1396 H1408 0.984 1_545 S
N1396 H1409 0.985 1_545 S
N1397 C1399 1.356 . S
N1397 H1402 0.984 . S
N1397 H1403 0.985 . S
C1398 C1392 1.379 . S
C1398 C1395 1.363 . S
C1398 N1396 1.356 . S
C1399 C1393 1.363 . S
C1399 C1394 1.379 . S
C1399 N1397 1.356 . S
N1400 C1392 1.356 . S
N1400 H1406 0.984 . S
N1400 H1407 0.984 . S
N1401 C1394 1.356 . S
N1401 H1404 0.984 . S
N1401 H1405 0.985 . S
H1402 N1397 0.984 . S
H1403 N1397 0.985 . S
H1404 N1401 0.984 . S
H1405 N1401 0.985 . S
H1406 N1400 0.984 . S
H1407 N1400 0.984 . S
H1408 N1396 0.984 1_565 S
H1409 N1396 0.985 1_565 S
C1410 C1411 1.363 . S
C1410 C1416 1.379 . S
C1410 N1418 1.356 . S
C1411 C1410 1.363 . S
C1411 C1417 1.363 . S
C1412 C1413 1.363 . S
C1412 C1417 1.379 . S
C1412 N1419 1.356 . S
C1413 C1412 1.363 . S
C1413 C1416 1.363 . S
N1414 C1416 1.356 . S
N1414 H1426 0.984 . S
N1414 H1427 0.985 . S
N1415 C1417 1.356 . S
N1415 H1420 0.984 . S
N1415 H1421 0.985 . S
C1416 C1410 1.379 . S
C1416 C1413 1.363 . S
C1416 N1414 1.356 . S
C1417 C1411 1.363 . S
C1417 C1412 1.379 . S
C1417 N1415 1.356 . S
N1418 C1410 1.356 . S
N1418 H1424 0.984 . S
N1418 H1425 0.984 . S
N1419 C1412 1.356 . S
N1419 H1422 0.984 . S
N1419 H1423 0.985 . S
H1420 N1415 0.984 . S
H1421 N1415 0.985 . S
H1422 N1419 0.984 . S
H1423 N1419 0.985 . S
H1424 N1418 0.984 . S
H1425 N1418 0.984 . S
H1426 N1414 0.984 . S
H1427 N1414 0.985 . S
C1428 C1429 1.363 . S
C1428 C1434 1.379 . S
C1428 N1436 1.356 . S
C1429 C1428 1.363 . S
C1429 C1435 1.363 . S
C1430 C1431 1.363 . S
C1430 C1435 1.379 . S
C1430 N1437 1.356 . S
C1431 C1430 1.363 . S
C1431 C1434 1.363 . S
N1432 C1434 1.356 . S
N1432 H1444 0.984 . S
N1432 H1445 0.985 . S
N1433 C1435 1.356 . S
N1433 H1438 0.984 . S
N1433 H1439 0.985 . S
C1434 C1428 1.379 . S
C1434 C1431 1.363 . S
C1434 N1432 1.356 . S
C1435 C1429 1.363 . S
C1435 C1430 1.379 . S
C1435 N1433 1.356 . S
N1436 C1428 1.356 . S
N1436 H1442 0.984 . S
N1436 H1443 0.984 . S
N1437 C1430 1.356 . S
N1437 H1440 0.984 . S
N1437 H1441 0.985 . S
H1438 N1433 0.984 . S
H1439 N1433 0.985 . S
H1440 N1437 0.984 . S
H1441 N1437 0.985 . S
H1442 N1436 0.984 . S
H1443 N1436 0.984 . S
H1444 N1432 0.984 . S
H1445 N1432 0.985 . S
C1446 C1447 1.363 . S
C1446 C1452 1.379 . S
C1446 N1454 1.356 . S
C1447 C1446 1.363 . S
C1447 C1453 1.363 . S
C1448 C1449 1.363 . S
C1448 C1453 1.379 . S
C1448 N1455 1.356 . S
C1449 C1448 1.363 . S
C1449 C1452 1.363 . S
N1450 C1452 1.356 . S
N1450 H1462 0.984 . S
N1450 H1463 0.985 . S
N1451 C1453 1.356 . S
N1451 H1456 0.984 . S
N1451 H1457 0.985 . S
C1452 C1446 1.379 . S
C1452 C1449 1.363 . S
C1452 N1450 1.356 . S
C1453 C1447 1.363 . S
C1453 C1448 1.379 . S
C1453 N1451 1.356 . S
N1454 C1446 1.356 . S
N1454 H1460 0.984 . S
N1454 H1461 0.984 . S
N1455 C1448 1.356 . S
N1455 H1458 0.984 . S
N1455 H1459 0.985 . S
H1456 N1451 0.984 . S
H1457 N1451 0.985 . S
H1458 N1455 0.984 . S
H1459 N1455 0.985 . S
H1460 N1454 0.984 . S
H1461 N1454 0.984 . S
H1462 N1450 0.984 . S
H1463 N1450 0.985 . S
C1464 C1465 1.363 . S
C1464 C1470 1.379 . S
C1464 N1472 1.356 . S
C1465 C1464 1.363 . S
C1465 C1471 1.363 . S
C1466 C1467 1.363 . S
C1466 C1471 1.379 . S
C1466 N1473 1.356 . S
C1467 C1466 1.363 . S
C1467 C1470 1.363 . S
N1468 C1470 1.356 . S
N1468 H1480 0.984 . S
N1468 H1481 0.985 . S
N1469 C1471 1.356 . S
N1469 H1474 0.984 . S
N1469 H1475 0.985 . S
C1470 C1464 1.379 . S
C1470 C1467 1.363 . S
C1470 N1468 1.356 . S
C1471 C1465 1.363 . S
C1471 C1466 1.379 . S
C1471 N1469 1.356 . S
N1472 C1464 1.356 . S
N1472 H1478 0.984 . S
N1472 H1479 0.984 . S
N1473 C1466 1.356 . S
N1473 H1476 0.984 . S
N1473 H1477 0.985 . S
H1474 N1469 0.984 . S
H1475 N1469 0.985 . S
H1476 N1473 0.984 . S
H1477 N1473 0.985 . S
H1478 N1472 0.984 . S
H1479 N1472 0.984 . S
H1480 N1468 0.984 . S
H1481 N1468 0.985 . S
C1482 C1483 1.363 . S
C1482 C1488 1.379 . S
C1482 N1490 1.356 . S
C1483 C1482 1.363 . S
C1483 C1489 1.363 . S
C1484 C1485 1.363 . S
C1484 C1489 1.379 . S
C1484 N1491 1.356 . S
C1485 C1484 1.363 . S
C1485 C1488 1.363 . S
N1486 C1488 1.356 . S
N1486 H1498 0.984 . S
N1486 H1499 0.985 . S
N1487 C1489 1.356 . S
N1487 H1492 0.984 . S
N1487 H1493 0.985 . S
C1488 C1482 1.379 . S
C1488 C1485 1.363 . S
C1488 N1486 1.356 . S
C1489 C1483 1.363 . S
C1489 C1484 1.379 . S
C1489 N1487 1.356 . S
N1490 C1482 1.356 . S
N1490 H1496 0.984 . S
N1490 H1497 0.984 . S
N1491 C1484 1.356 . S
N1491 H1494 0.984 . S
N1491 H1495 0.985 . S
H1492 N1487 0.984 . S
H1493 N1487 0.985 . S
H1494 N1491 0.984 . S
H1495 N1491 0.985 . S
H1496 N1490 0.984 . S
H1497 N1490 0.984 . S
H1498 N1486 0.984 . S
H1499 N1486 0.985 . S
C1500 C1501 1.363 . S
C1500 C1506 1.379 . S
C1500 N1508 1.356 . S
C1501 C1500 1.363 . S
C1501 C1507 1.363 . S
C1502 C1503 1.363 . S
C1502 C1507 1.379 . S
C1502 N1509 1.356 . S
C1503 C1502 1.363 . S
C1503 C1506 1.363 . S
N1504 C1506 1.356 . S
N1504 H1516 0.984 . S
N1504 H1517 0.985 . S
N1505 C1507 1.356 . S
N1505 H1510 0.984 . S
N1505 H1511 0.985 . S
C1506 C1500 1.379 . S
C1506 C1503 1.363 . S
C1506 N1504 1.356 . S
C1507 C1501 1.363 . S
C1507 C1502 1.379 . S
C1507 N1505 1.356 . S
N1508 C1500 1.356 . S
N1508 H1514 0.984 . S
N1508 H1515 0.984 . S
N1509 C1502 1.356 . S
N1509 H1512 0.984 . S
N1509 H1513 0.985 . S
H1510 N1505 0.984 . S
H1511 N1505 0.985 . S
H1512 N1509 0.984 . S
H1513 N1509 0.985 . S
H1514 N1508 0.984 . S
H1515 N1508 0.984 . S
H1516 N1504 0.984 . S
H1517 N1504 0.985 . S
C1518 C1519 1.363 . S
C1518 C1524 1.379 . S
C1518 N1526 1.356 . S
C1519 C1518 1.363 . S
C1519 C1525 1.363 . S
C1520 C1521 1.363 . S
C1520 C1525 1.379 . S
C1520 N1527 1.356 . S
C1521 C1520 1.363 . S
C1521 C1524 1.363 . S
N1522 C1524 1.356 . S
N1522 H1534 0.984 . S
N1522 H1535 0.985 . S
N1523 C1525 1.356 . S
N1523 H1528 0.984 . S
N1523 H1529 0.985 . S
C1524 C1518 1.379 . S
C1524 C1521 1.363 . S
C1524 N1522 1.356 . S
C1525 C1519 1.363 . S
C1525 C1520 1.379 . S
C1525 N1523 1.356 . S
N1526 C1518 1.356 . S
N1526 H1532 0.984 . S
N1526 H1533 0.984 . S
N1527 C1520 1.356 . S
N1527 H1530 0.984 . S
N1527 H1531 0.985 . S
H1528 N1523 0.984 . S
H1529 N1523 0.985 . S
H1530 N1527 0.984 . S
H1531 N1527 0.985 . S
H1532 N1526 0.984 . S
H1533 N1526 0.984 . S
H1534 N1522 0.984 . S
H1535 N1522 0.985 . S
C1536 C1537 1.363 . S
C1536 C1542 1.379 . S
C1536 N1544 1.356 . S
C1537 C1536 1.363 . S
C1537 C1543 1.363 . S
C1538 C1539 1.363 . S
C1538 C1543 1.375 1_556 S
C1538 N1545 1.361 . S
C1539 C1538 1.363 . S
C1539 C1542 1.363 1_556 S
N1540 C1542 1.356 . S
N1540 H1552 0.984 . S
N1540 H1553 0.985 1_554 S
N1541 C1543 1.356 . S
N1541 H1546 0.984 . S
N1541 H1547 0.985 . S
C1542 C1536 1.379 . S
C1542 C1539 1.363 1_554 S
C1542 N1540 1.356 . S
C1543 C1537 1.363 . S
C1543 C1538 1.375 1_554 S
C1543 N1541 1.356 . S
N1544 C1536 1.356 . S
N1544 H1550 0.984 . S
N1544 H1551 0.984 . S
N1545 C1538 1.361 . S
N1545 H1548 0.984 . S
N1545 H1549 0.985 . S
H1546 N1541 0.984 . S
H1547 N1541 0.985 . S
H1548 N1545 0.984 . S
H1549 N1545 0.985 . S
H1550 N1544 0.984 . S
H1551 N1544 0.984 . S
H1552 N1540 0.984 . S
H1553 N1540 0.985 1_556 S
C1554 C1555 1.363 . S
C1554 C1560 1.379 . S
C1554 N1562 1.356 . S
C1555 C1554 1.363 . S
C1555 C1561 1.363 . S
C1556 C1557 1.363 . S
C1556 C1561 1.379 . S
C1556 N1563 1.356 . S
C1557 C1556 1.363 . S
C1557 C1560 1.363 . S
N1558 C1560 1.356 . S
N1558 H1570 0.984 . S
N1558 H1571 0.985 . S
N1559 C1561 1.356 . S
N1559 H1564 0.984 . S
N1559 H1565 0.985 . S
C1560 C1554 1.379 . S
C1560 C1557 1.363 . S
C1560 N1558 1.356 . S
C1561 C1555 1.363 . S
C1561 C1556 1.379 . S
C1561 N1559 1.356 . S
N1562 C1554 1.356 . S
N1562 H1568 0.984 . S
N1562 H1569 0.984 . S
N1563 C1556 1.356 . S
N1563 H1566 0.984 . S
N1563 H1567 0.985 . S
H1564 N1559 0.984 . S
H1565 N1559 0.985 . S
H1566 N1563 0.984 . S
H1567 N1563 0.985 . S
H1568 N1562 0.984 . S
H1569 N1562 0.984 . S
H1570 N1558 0.984 . S
H1571 N1558 0.985 . S
C1572 C1573 1.363 . S
C1572 C1578 1.379 . S
C1572 N1580 1.356 . S
C1573 C1572 1.363 . S
C1573 C1579 1.363 . S
C1574 C1575 1.363 . S
C1574 C1579 1.379 . S
C1574 N1581 1.356 . S
C1575 C1574 1.363 . S
C1575 C1578 1.363 . S
N1576 C1578 1.356 . S
N1576 H1588 0.984 . S
N1576 H1589 0.985 . S
N1577 C1579 1.356 . S
N1577 H1582 0.984 . S
N1577 H1583 0.985 . S
C1578 C1572 1.379 . S
C1578 C1575 1.363 . S
C1578 N1576 1.356 . S
C1579 C1573 1.363 . S
C1579 C1574 1.379 . S
C1579 N1577 1.356 . S
N1580 C1572 1.356 . S
N1580 H1586 0.984 . S
N1580 H1587 0.984 . S
N1581 C1574 1.356 . S
N1581 H1584 0.984 . S
N1581 H1585 0.985 . S
H1582 N1577 0.984 . S
H1583 N1577 0.985 . S
H1584 N1581 0.984 . S
H1585 N1581 0.985 . S
H1586 N1580 0.984 . S
H1587 N1580 0.984 . S
H1588 N1576 0.984 . S
H1589 N1576 0.985 . S
C1590 C1591 1.363 . S
C1590 C1596 1.379 . S
C1590 N1598 1.356 . S
C1591 C1590 1.363 . S
C1591 C1597 1.363 . S
C1592 C1593 1.363 . S
C1592 C1597 1.379 . S
C1592 N1599 1.356 . S
C1593 C1592 1.363 . S
C1593 C1596 1.363 . S
N1594 C1596 1.356 . S
N1594 H1606 0.984 . S
N1594 H1607 0.985 . S
N1595 C1597 1.356 . S
N1595 H1600 0.984 . S
N1595 H1601 0.985 . S
C1596 C1590 1.379 . S
C1596 C1593 1.363 . S
C1596 N1594 1.356 . S
C1597 C1591 1.363 . S
C1597 C1592 1.379 . S
C1597 N1595 1.356 . S
N1598 C1590 1.356 . S
N1598 H1604 0.984 . S
N1598 H1605 0.984 . S
N1599 C1592 1.356 . S
N1599 H1602 0.984 . S
N1599 H1603 0.985 . S
H1600 N1595 0.984 . S
H1601 N1595 0.985 . S
H1602 N1599 0.984 . S
H1603 N1599 0.985 . S
H1604 N1598 0.984 . S
H1605 N1598 0.984 . S
H1606 N1594 0.984 . S
H1607 N1594 0.985 . S
C1608 C1609 1.363 . S
C1608 C1614 1.379 . S
C1608 N1616 1.356 . S
C1609 C1608 1.363 . S
C1609 C1615 1.363 . S
C1610 C1611 1.363 . S
C1610 C1615 1.379 . S
C1610 N1617 1.356 . S
C1611 C1610 1.363 . S
C1611 C1614 1.363 . S
N1612 C1614 1.356 . S
N1612 H1624 0.984 . S
N1612 H1625 0.985 . S
N1613 C1615 1.356 . S
N1613 H1618 0.984 . S
N1613 H1619 0.985 . S
C1614 C1608 1.379 . S
C1614 C1611 1.363 . S
C1614 N1612 1.356 . S
C1615 C1609 1.363 . S
C1615 C1610 1.379 . S
C1615 N1613 1.356 . S
N1616 C1608 1.356 . S
N1616 H1622 0.984 . S
N1616 H1623 0.984 . S
N1617 C1610 1.356 . S
N1617 H1620 0.984 . S
N1617 H1621 0.985 . S
H1618 N1613 0.984 . S
H1619 N1613 0.985 . S
H1620 N1617 0.984 . S
H1621 N1617 0.985 . S
H1622 N1616 0.984 . S
H1623 N1616 0.984 . S
H1624 N1612 0.984 . S
H1625 N1612 0.985 . S
C1626 C1627 1.363 . S
C1626 C1632 1.379 . S
C1626 N1634 1.356 . S
C1627 C1626 1.363 . S
C1627 C1633 1.363 . S
C1628 C1629 1.363 . S
C1628 C1633 1.379 . S
C1628 N1635 1.356 . S
C1629 C1628 1.363 . S
C1629 C1632 1.363 . S
N1630 C1632 1.356 . S
N1630 H1642 0.984 . S
N1630 H1643 0.985 . S
N1631 C1633 1.356 . S
N1631 H1636 0.984 . S
N1631 H1637 0.985 . S
C1632 C1626 1.379 . S
C1632 C1629 1.363 . S
C1632 N1630 1.356 . S
C1633 C1627 1.363 . S
C1633 C1628 1.379 . S
C1633 N1631 1.356 . S
N1634 C1626 1.356 . S
N1634 H1640 0.984 . S
N1634 H1641 0.984 . S
N1635 C1628 1.356 . S
N1635 H1638 0.984 . S
N1635 H1639 0.985 . S
H1636 N1631 0.984 . S
H1637 N1631 0.985 . S
H1638 N1635 0.984 . S
H1639 N1635 0.985 . S
H1640 N1634 0.984 . S
H1641 N1634 0.984 . S
H1642 N1630 0.984 . S
H1643 N1630 0.985 . S
C1644 C1645 1.363 . S
C1644 C1650 1.379 . S
C1644 N1652 1.356 . S
C1645 C1644 1.363 . S
C1645 C1651 1.363 . S
C1646 C1647 1.363 . S
C1646 C1651 1.379 . S
C1646 N1653 1.356 . S
C1647 C1646 1.363 . S
C1647 C1650 1.363 . S
N1648 C1650 1.356 . S
N1648 H1660 0.984 . S
N1648 H1661 0.985 . S
N1649 C1651 1.356 . S
N1649 H1654 0.984 . S
N1649 H1655 0.985 . S
C1650 C1644 1.379 . S
C1650 C1647 1.363 . S
C1650 N1648 1.356 . S
C1651 C1645 1.363 . S
C1651 C1646 1.379 . S
C1651 N1649 1.356 . S
N1652 C1644 1.356 . S
N1652 H1658 0.984 . S
N1652 H1659 0.984 . S
N1653 C1646 1.356 . S
N1653 H1656 0.984 . S
N1653 H1657 0.985 . S
H1654 N1649 0.984 . S
H1655 N1649 0.985 . S
H1656 N1653 0.984 . S
H1657 N1653 0.985 . S
H1658 N1652 0.984 . S
H1659 N1652 0.984 . S
H1660 N1648 0.984 . S
H1661 N1648 0.985 . S
C1662 C1663 1.363 1_655 S
C1662 C1668 1.379 . S
C1662 N1670 1.356 . S
C1663 C1662 1.363 1_455 S
C1663 C1669 1.363 . S
C1664 C1665 1.363 . S
C1664 C1669 1.379 . S
C1664 N1671 1.356 . S
C1665 C1664 1.363 . S
C1665 C1668 1.363 1_455 S
N1666 C1668 1.356 . S
N1666 H1678 0.984 . S
N1666 H1679 0.985 . S
N1667 C1669 1.356 . S
N1667 H1672 0.984 . S
N1667 H1673 0.985 . S
C1668 C1662 1.379 . S
C1668 C1665 1.363 1_655 S
C1668 N1666 1.356 . S
C1669 C1663 1.363 . S
C1669 C1664 1.379 . S
C1669 N1667 1.356 . S
N1670 C1662 1.356 . S
N1670 H1676 0.984 . S
N1670 H1677 0.984 . S
N1671 C1664 1.356 . S
N1671 H1674 0.984 . S
N1671 H1675 0.985 . S
H1672 N1667 0.984 . S
H1673 N1667 0.985 . S
H1674 N1671 0.984 . S
H1675 N1671 0.985 . S
H1676 N1670 0.984 . S
H1677 N1670 0.984 . S
H1678 N1666 0.984 . S
H1679 N1666 0.985 . S
C1680 C1681 1.363 . S
C1680 C1686 1.379 . S
C1680 N1688 1.356 . S
C1681 C1680 1.363 . S
C1681 C1687 1.363 . S
C1682 C1683 1.363 . S
C1682 C1687 1.379 . S
C1682 N1689 1.356 1_554 S
C1683 C1682 1.363 . S
C1683 C1686 1.363 . S
N1684 C1686 1.356 . S
N1684 H1696 0.984 . S
N1684 H1697 0.985 . S
N1685 C1687 1.356 1_556 S
N1685 H1690 0.984 . S
N1685 H1691 0.985 . S
C1686 C1680 1.379 . S
C1686 C1683 1.363 . S
C1686 N1684 1.356 . S
C1687 C1681 1.363 . S
C1687 C1682 1.379 . S
C1687 N1685 1.356 1_554 S
N1688 C1680 1.356 . S
N1688 H1694 0.984 . S
N1688 H1695 0.984 . S
N1689 C1682 1.356 1_556 S
N1689 H1692 0.984 . S
N1689 H1693 0.985 . S
H1690 N1685 0.984 . S
H1691 N1685 0.985 . S
H1692 N1689 0.984 . S
H1693 N1689 0.985 . S
H1694 N1688 0.984 . S
H1695 N1688 0.984 . S
H1696 N1684 0.984 . S
H1697 N1684 0.985 . S
C1698 C1699 1.363 . S
C1698 C1704 1.379 . S
C1698 N1706 1.356 . S
C1699 C1698 1.363 . S
C1699 C1705 1.363 . S
C1700 C1701 1.363 . S
C1700 C1705 1.379 . S
C1700 N1707 1.356 . S
C1701 C1700 1.363 . S
C1701 C1704 1.363 . S
N1702 C1704 1.356 . S
N1702 H1714 0.984 . S
N1702 H1715 0.985 . S
N1703 C1705 1.356 . S
N1703 H1708 0.984 . S
N1703 H1709 0.985 . S
C1704 C1698 1.379 . S
C1704 C1701 1.363 . S
C1704 N1702 1.356 . S
C1705 C1699 1.363 . S
C1705 C1700 1.379 . S
C1705 N1703 1.356 . S
N1706 C1698 1.356 . S
N1706 H1712 0.984 . S
N1706 H1713 0.984 . S
N1707 C1700 1.356 . S
N1707 H1710 0.984 . S
N1707 H1711 0.985 . S
H1708 N1703 0.984 . S
H1709 N1703 0.985 . S
H1710 N1707 0.984 . S
H1711 N1707 0.985 . S
H1712 N1706 0.984 . S
H1713 N1706 0.984 . S
H1714 N1702 0.984 . S
H1715 N1702 0.985 . S
C1716 C1717 1.363 1_545 S
C1716 C1722 1.379 . S
C1716 N1724 1.356 1_545 S
C1717 C1716 1.363 1_565 S
C1717 C1723 1.363 . S
C1718 C1719 1.363 . S
C1718 C1723 1.379 1_545 S
C1718 N1725 1.356 . S
C1719 C1718 1.363 . S
C1719 C1722 1.363 . S
N1720 C1722 1.356 . S
N1720 H1732 0.984 . S
N1720 H1733 0.985 . S
N1721 C1723 1.356 . S
N1721 H1726 0.984 . S
N1721 H1727 0.985 . S
C1722 C1716 1.379 . S
C1722 C1719 1.363 . S
C1722 N1720 1.356 . S
C1723 C1717 1.363 . S
C1723 C1718 1.379 1_565 S
C1723 N1721 1.356 . S
N1724 C1716 1.356 1_565 S
N1724 H1730 0.984 1_565 S
N1724 H1731 0.984 . S
N1725 C1718 1.356 . S
N1725 H1728 0.984 . S
N1725 H1729 0.985 . S
H1726 N1721 0.984 . S
H1727 N1721 0.985 . S
H1728 N1725 0.984 . S
H1729 N1725 0.985 . S
H1730 N1724 0.984 1_545 S
H1731 N1724 0.984 . S
H1732 N1720 0.984 . S
H1733 N1720 0.985 . S
C1734 C1735 1.363 . S
C1734 C1740 1.379 . S
C1734 N1742 1.356 . S
C1735 C1734 1.363 . S
C1735 C1741 1.363 . S
C1736 C1737 1.363 . S
C1736 C1741 1.379 . S
C1736 N1743 1.356 . S
C1737 C1736 1.363 . S
C1737 C1740 1.363 . S
N1738 C1740 1.356 . S
N1738 H1750 0.984 . S
N1738 H1751 0.985 1_556 S
N1739 C1741 1.356 . S
N1739 H1744 0.984 . S
N1739 H1745 0.985 . S
C1740 C1734 1.379 . S
C1740 C1737 1.363 . S
C1740 N1738 1.356 . S
C1741 C1735 1.363 . S
C1741 C1736 1.379 . S
C1741 N1739 1.356 . S
N1742 C1734 1.356 . S
N1742 H1748 0.984 . S
N1742 H1749 0.984 . S
N1743 C1736 1.356 . S
N1743 H1746 0.984 1_556 S
N1743 H1747 0.985 . S
H1744 N1739 0.984 . S
H1745 N1739 0.985 . S
H1746 N1743 0.984 1_554 S
H1747 N1743 0.985 . S
H1748 N1742 0.984 . S
H1749 N1742 0.984 . S
H1750 N1738 0.984 . S
H1751 N1738 0.985 1_554 S
C1752 C1753 1.363 . S
C1752 C1758 1.379 . S
C1752 N1760 1.356 . S
C1753 C1752 1.363 . S
C1753 C1759 1.363 . S
C1754 C1755 1.363 . S
C1754 C1759 1.379 . S
C1754 N1761 1.356 . S
C1755 C1754 1.363 . S
C1755 C1758 1.363 . S
N1756 C1758 1.356 . S
N1756 H1768 0.984 . S
N1756 H1769 0.985 . S
N1757 C1759 1.356 . S
N1757 H1762 0.984 . S
N1757 H1763 0.985 . S
C1758 C1752 1.379 . S
C1758 C1755 1.363 . S
C1758 N1756 1.356 . S
C1759 C1753 1.363 . S
C1759 C1754 1.379 . S
C1759 N1757 1.356 . S
N1760 C1752 1.356 . S
N1760 H1766 0.984 . S
N1760 H1767 0.984 . S
N1761 C1754 1.356 . S
N1761 H1764 0.984 . S
N1761 H1765 0.985 . S
H1762 N1757 0.984 . S
H1763 N1757 0.985 . S
H1764 N1761 0.984 . S
H1765 N1761 0.985 . S
H1766 N1760 0.984 . S
H1767 N1760 0.984 . S
H1768 N1756 0.984 . S
H1769 N1756 0.985 . S
C1770 C1771 1.363 . S
C1770 C1776 1.379 . S
C1770 N1778 1.356 . S
C1771 C1770 1.363 . S
C1771 C1777 1.363 . S
C1772 C1773 1.363 . S
C1772 C1777 1.379 . S
C1772 N1779 1.356 . S
C1773 C1772 1.363 . S
C1773 C1776 1.363 . S
N1774 C1776 1.356 . S
N1774 H1786 0.984 . S
N1774 H1787 0.985 . S
N1775 C1777 1.356 . S
N1775 H1780 0.984 . S
N1775 H1781 0.985 . S
C1776 C1770 1.379 . S
C1776 C1773 1.363 . S
C1776 N1774 1.356 . S
C1777 C1771 1.363 . S
C1777 C1772 1.379 . S
C1777 N1775 1.356 . S
N1778 C1770 1.356 . S
N1778 H1784 0.984 . S
N1778 H1785 0.984 . S
N1779 C1772 1.356 . S
N1779 H1782 0.984 . S
N1779 H1783 0.985 . S
H1780 N1775 0.984 . S
H1781 N1775 0.985 . S
H1782 N1779 0.984 . S
H1783 N1779 0.985 . S
H1784 N1778 0.984 . S
H1785 N1778 0.984 . S
H1786 N1774 0.984 . S
H1787 N1774 0.985 . S
C1788 C1789 1.363 . S
C1788 C1794 1.379 . S
C1788 N1796 1.356 . S
C1789 C1788 1.363 . S
C1789 C1795 1.363 . S
C1790 C1791 1.363 . S
C1790 C1795 1.379 1_455 S
C1790 N1797 1.356 . S
C1791 C1790 1.363 . S
C1791 C1794 1.363 1_455 S
N1792 C1794 1.356 1_455 S
N1792 H1804 0.984 1_455 S
N1792 H1805 0.985 . S
N1793 C1795 1.356 . S
N1793 H1798 0.984 . S
N1793 H1799 0.985 . S
C1794 C1788 1.379 . S
C1794 C1791 1.363 1_655 S
C1794 N1792 1.356 1_655 S
C1795 C1789 1.363 . S
C1795 C1790 1.379 1_655 S
C1795 N1793 1.356 . S
N1796 C1788 1.356 . S
N1796 H1802 0.984 . S
N1796 H1803 0.984 . S
N1797 C1790 1.356 . S
N1797 H1800 0.984 . S
N1797 H1801 0.985 . S
H1798 N1793 0.984 . S
H1799 N1793 0.985 . S
H1800 N1797 0.984 . S
H1801 N1797 0.985 . S
H1802 N1796 0.984 . S
H1803 N1796 0.984 . S
H1804 N1792 0.984 1_655 S
H1805 N1792 0.985 . S
C1806 C1807 1.363 . S
C1806 C1812 1.379 . S
C1806 N1814 1.356 . S
C1807 C1806 1.363 . S
C1807 C1813 1.363 . S
C1808 C1809 1.363 . S
C1808 C1813 1.379 . S
C1808 N1815 1.356 . S
C1809 C1808 1.363 . S
C1809 C1812 1.363 . S
N1810 C1812 1.356 . S
N1810 H1822 0.984 . S
N1810 H1823 0.985 . S
N1811 C1813 1.356 . S
N1811 H1816 0.984 . S
N1811 H1817 0.985 . S
C1812 C1806 1.379 . S
C1812 C1809 1.363 . S
C1812 N1810 1.356 . S
C1813 C1807 1.363 . S
C1813 C1808 1.379 . S
C1813 N1811 1.356 . S
N1814 C1806 1.356 . S
N1814 H1820 0.984 . S
N1814 H1821 0.984 . S
N1815 C1808 1.356 . S
N1815 H1818 0.984 . S
N1815 H1819 0.985 . S
H1816 N1811 0.984 . S
H1817 N1811 0.985 . S
H1818 N1815 0.984 . S
H1819 N1815 0.985 . S
H1820 N1814 0.984 . S
H1821 N1814 0.984 . S
H1822 N1810 0.984 . S
H1823 N1810 0.985 . S
C529 C115 1.264 . S
C531 C5 1.484 . S
C547 C16 1.363 . S
C549 C129 1.477 . S
C565 C426 1.586 . S
C567 C27 1.424 1_565 S
C583 C104 1.228 . S
C585 C41 1.639 . S
C601 C8 1.714 . S
C603 C148 1.613 . S
C619 C137 1.169 . S
C621 C19 1.743 . S
C637 C30 1.926 . S
C639 C162 1.976 . S
C655 C38 1.388 . S
C657 C96 1.518 . S
C673 C49 1.200 . S
C675 C60 1.342 . S
C691 C71 1.352 . S
C693 C63 1.499 . S
C709 C74 1.616 . S
C711 C85 1.562 . S
C727 C82 1.382 . S
C729 C52 1.671 . S
C745 C346 1.363 . S
C747 C107 1.477 . S
C763 C118 1.585 . S
C765 C357 1.423 . S
C781 C371 1.639 . S
C783 C126 1.228 . S
C799 C151 1.975 . S
C801 C360 1.925 . S
C817 C338 1.712 . S
C819 C159 1.610 . S
C835 C170 1.885 . S
C837 C280 1.863 . S
C853 C291 1.217 . S
C855 C184 1.515 . S
C871 C525 1.780 . S
C873 C192 1.757 . S
C889 C203 1.666 . S
C891 C272 1.643 . S
C907 C173 1.548 . S
C909 C313 1.364 . S
C925 C181 1.477 . S
C927 C305 1.588 . S
C943 C195 1.601 . S
C945 C327 1.559 . S
C961 C206 1.572 . S
C963 C258 1.359 . S
C979 C214 1.640 1_556 S
C981 C225 1.361 . S
C997 C236 1.191 . S
C999 C228 1.633 . S
C1015 C239 1.836 . S
C1017 C250 1.803 . S
C1033 C217 1.609 . S
C1035 C247 1.210 . S
C1051 C448 1.511 . S
C1053 C269 1.218 . S
C1069 C283 1.780 . S
C1071 C456 1.757 . S
C1087 C294 1.644 . S
C1089 C467 1.667 . S
C1105 C459 1.600 . S
C1107 C316 1.558 . S
C1123 C324 1.364 . S
C1125 C437 1.549 . S
C1141 C335 1.483 . S
C1143 C423 1.264 . S
C1159 C349 1.742 . S
C1161 C93 1.169 . S
C1177 C140 1.518 . S
C1179 C368 1.388 . S
C1195 C379 1.199 . S
C1197 C390 1.342 . S
C1213 C393 1.499 . S
C1215 C401 1.353 . S
C1231 C415 1.563 . S
C1233 C404 1.617 . S
C1249 C412 1.382 . S
C1251 C382 1.671 . S
C1267 C522 1.863 . S
C1269 C434 1.886 . S
C1285 C445 1.478 . S
C1287 C261 1.594 . S
C1303 C470 1.571 . S
C1305 C302 1.357 . S
C1321 C489 1.361 . S
C1323 C478 1.641 . S
C1339 C500 1.192 . S
C1341 C492 1.634 . S
C1357 C514 1.803 . S
C1359 C503 1.835 . S
C1375 C511 1.210 . S
C1377 C481 1.609 . S
C1393 C7 1.244 . S
C1395 C249 1.176 . S
C1411 C480 1.456 . S
C1413 C18 1.465 . S
C1429 C29 1.280 . S
C1431 C227 1.200 . S
C1447 C502 1.246 . S
C1449 C40 1.342 . S
C1465 C447 1.263 . S
C1467 C51 1.164 . S
C1483 C194 1.404 . S
C1485 C62 1.335 . S
C1501 C469 1.460 . S
C1503 C73 1.461 . S
C1519 C84 1.347 . S
C1521 C172 1.418 . S
C1537 C95 1.352 . S
C1539 C315 1.394 . S
C1555 C524 1.282 . S
C1557 C106 1.198 . S
C1573 C293 1.408 . S
C1575 C117 1.363 . S
C1591 C282 1.283 . S
C1593 C128 1.200 . S
C1609 C326 1.395 . S
C1611 C139 1.353 . S
C1627 C260 1.306 . S
C1629 C150 1.353 . S
C1645 C304 1.306 . S
C1647 C161 1.353 . S
C1663 C381 1.162 1_455 S
C1665 C183 1.260 . S
C1681 C205 1.462 . S
C1683 C403 1.464 . S
C1699 C216 1.457 . S
C1701 C348 1.465 . S
C1717 C370 1.342 . S
C1719 C238 1.246 . S
C1735 C425 1.363 . S
C1737 C271 1.409 1_556 S
C1753 C337 1.242 . S
C1755 C513 1.175 . S
C1771 C491 1.200 . S
C1773 C359 1.280 . S
C1789 C392 1.336 . S
C1791 C458 1.404 . S
C1807 C414 1.348 . S
C1809 C436 1.419 . S
