# Generated by pormake.
# Topology sxb, (6)-cn, num edge types: 1
# Building blocks:
#     Node 0, Type 0, BuildingBlock: UKALOJ_clean_sbu_0, # of connection points: 6
#     Node 1, Type 0, BuildingBlock: UKALOJ_clean_sbu_0, # of connection points: 6
#     Node 2, Type 0, BuildingBlock: UKALOJ_clean_sbu_0, # of connection points: 6
#     Node 3, Type 0, BuildingBlock: UKALOJ_clean_sbu_0, # of connection points: 6
#     Edge 4, Type (0, 0), BuildingBlock: XIVTED_clean_linker_0, # of connection points: 2
#     Edge 5, Type (0, 0), BuildingBlock: XIVTED_clean_linker_0, # of connection points: 2
#     Edge 6, Type (0, 0), BuildingBlock: XIVTED_clean_linker_0, # of connection points: 2
#     Edge 7, Type (0, 0), BuildingBlock: XIVTED_clean_linker_0, # of connection points: 2
#     Edge 8, Type (0, 0), BuildingBlock: XIVTED_clean_linker_0, # of connection points: 2
#     Edge 9, Type (0, 0), BuildingBlock: XIVTED_clean_linker_0, # of connection points: 2
#     Edge 10, Type (0, 0), BuildingBlock: XIVTED_clean_linker_0, # of connection points: 2
#     Edge 11, Type (0, 0), BuildingBlock: XIVTED_clean_linker_0, # of connection points: 2
#     Edge 12, Type (0, 0), BuildingBlock: XIVTED_clean_linker_0, # of connection points: 2
#     Edge 13, Type (0, 0), BuildingBlock: XIVTED_clean_linker_0, # of connection points: 2
#     Edge 14, Type (0, 0), BuildingBlock: XIVTED_clean_linker_0, # of connection points: 2
#     Edge 15, Type (0, 0), BuildingBlock: XIVTED_clean_linker_0, # of connection points: 2
# Relax obj value: 0.093
# Max RMSD: 0.145
# Mean RMSD: 0.145
data_MOF--net-sxb--node1-UKALOJ_clean_sbu_0--edge1-XIVTED_clean_linker_0
_symmetry_space_group_name_H-M    P1
_symmetry_Int_Tables_number       1
_symmetry_cell_setting            triclinic
loop_
_symmetry_equiv_pos_as_xyz
'x, y, z'
_cell_length_a     15.160933
_cell_length_b     26.908799
_cell_length_c     40.683556
_cell_angle_alpha  100.62722
_cell_angle_beta   89.900031
_cell_angle_gamma 90.002793
loop_
_atom_site_label
_atom_site_type_symbol
_atom_site_fract_x
_atom_site_fract_y
_atom_site_fract_z
_atom_type_partial_charge
Zn0 Zn -0.04642 0.03907 0.06778 0.0
O1 O -0.00437 0.96378 0.06864 0.0
C2 C 0.12916 0.05849 0.04214 0.0
Zn3 Zn -0.04476 0.02483 1.01203 0.0
C4 C 0.01255 0.93459 0.04103 0.0
O5 O -0.00225 0.94998 1.01382 0.0
C6 C 0.89621 0.12931 0.0388 0.0
O7 O 0.822 0.00296 1.01042 0.0
O8 O 0.82021 0.01717 0.06533 0.0
N9 N -0.03542 0.00802 0.96089 0.0
C10 C 0.9215 0.0244 0.93592 0.0
C11 C 0.01868 0.9716 0.91343 0.0
N12 N 0.02467 0.97511 0.94679 0.0
N13 N -0.04539 0.00227 0.9059 0.0
C14 C -0.01293 0.04016 0.14405 0.0
C15 C 0.89036 0.09356 0.16616 0.0
N16 N 0.94412 0.05613 0.11889 0.0
N17 N 0.88429 0.08938 0.13276 0.0
N18 N -0.04579 0.06297 0.17396 0.0
H19 H 0.03906 0.96535 0.13736 0.0
H20 H 0.10929 0.01274 0.16102 0.0
H21 H 0.10045 0.00721 0.11614 0.0
C22 C 0.06385 0.00454 0.13934 0.0
C23 C 0.84436 0.05976 0.94087 0.0
H24 H 0.8079 0.05667 0.96402 0.0
H25 H 0.7989 0.05169 0.9192 0.0
H26 H 0.86874 0.09905 0.94305 0.0
O27 O 0.91319 0.10014 1.01119 0.0
O28 O 0.91106 0.11389 0.06599 0.0
C29 C 0.77968 0.00539 0.03767 0.0
O30 O 0.08683 0.06092 0.06939 0.0
O31 O 0.08863 0.04673 1.01448 0.0
Zn32 Zn -0.0484 0.04411 0.5686 0.0
O33 O 0.81832 0.06592 0.57029 0.0
C34 C 0.89292 0.93963 0.54184 0.0
Zn35 Zn -0.04959 0.02991 0.51285 0.0
C36 C 0.77625 0.06356 0.54305 0.0
O37 O 0.81703 0.05186 0.51537 0.0
C38 C 0.12576 0.01049 0.53841 0.0
O39 O -0.00746 0.10517 0.51197 0.0
O40 O -0.00597 0.11897 0.56678 0.0
N41 N 0.94127 0.0129 0.46174 0.0
C42 C -0.01545 0.02883 0.43659 0.0
C43 C 0.88779 0.97561 0.41446 0.0
N44 N 0.8814 0.97976 0.44786 0.0
N45 N -0.04813 0.00611 0.40667 0.0
C46 C 0.91817 0.04448 0.64479 0.0
C47 C 0.01482 0.09766 0.66706 0.0
N48 N -0.03919 0.06099 0.61972 0.0
N49 N 0.02057 0.09414 0.63369 0.0
N50 N -0.04877 0.06676 0.67473 0.0
H51 H 0.80462 0.01194 0.61698 0.0
H52 H 0.79624 0.01662 0.66182 0.0
H53 H 0.86639 0.96961 0.63765 0.0
C54 C 0.84147 0.00883 0.64 0.0
C55 C 0.06146 0.06434 0.4413 0.0
H56 H 0.09774 0.06166 0.46452 0.0
H57 H 0.03685 0.10356 0.44324 0.0
H58 H 0.10715 0.05603 0.41964 0.0
O59 O 0.08366 0.00802 0.51117 0.0
O60 O 0.085 0.02226 0.56607 0.0
C61 C 0.00919 0.13436 0.53959 0.0
O62 O 0.90968 0.96879 0.56946 0.0
O63 O 0.90787 0.95507 0.51466 0.0
Zn64 Zn 0.45232 0.5382 0.06769 0.0
O65 O 0.49451 0.46291 0.06832 0.0
C66 C 0.62711 0.55752 0.0413 0.0
Zn67 Zn 0.45239 0.52395 1.01195 0.0
C68 C 0.51077 0.43368 0.04066 0.0
O69 O 0.49513 0.44903 1.01351 0.0
C70 C 0.39404 0.62851 0.039 0.0
O71 O 0.31906 0.50221 1.0109 0.0
O72 O 0.31896 0.51632 0.06581 0.0
N73 N 0.46032 0.50712 0.9608 0.0
C74 C 0.41687 0.52362 0.93595 0.0
C75 C 0.51318 0.47047 0.91318 0.0
N76 N 0.51987 0.474 0.94652 0.0
N77 N 0.4492 0.50134 0.90584 0.0
C78 C 0.48821 0.53868 0.14368 0.0
C79 C 0.39124 0.59138 0.16645 0.0
N80 N 0.44437 0.55497 0.11884 0.0
N81 N 0.3844 0.5878 0.13312 0.0
N82 N 0.45573 0.56082 0.1738 0.0
H83 H 0.54129 0.46409 0.13645 0.0
H84 H 0.61154 0.51161 0.15993 0.0
H85 H 0.60113 0.50642 0.11513 0.0
C86 C 0.56545 0.5034 0.13846 0.0
C87 C 0.34013 0.55925 0.94115 0.0
H88 H 0.30404 0.55621 0.96439 0.0
H89 H 0.29424 0.55138 0.91959 0.0
H90 H 0.36488 0.59846 0.9433 0.0
O91 O 0.41028 0.59929 1.01134 0.0
O92 O 0.40956 0.61311 0.06615 0.0
C93 C 0.2776 0.5046 0.03832 0.0
O94 O 0.58564 0.55997 0.06873 0.0
O95 O 0.58575 0.54577 1.01382 0.0
Zn96 Zn 0.45242 0.54357 0.56882 0.0
O97 O 0.31908 0.5653 0.56993 0.0
C98 C 0.39423 0.43903 0.54182 0.0
Zn99 Zn 0.45285 0.52929 0.51308 0.0
C100 C 0.27786 0.56288 0.5425 0.0
O101 O 0.31947 0.55115 0.51501 0.0
C102 C 0.6274 0.50997 0.53941 0.0
O103 O 0.49495 0.60458 0.51239 0.0
O104 O 0.49514 0.61848 0.5672 0.0
N105 N 0.44516 0.51243 0.46194 0.0
C106 C 0.48895 0.52873 0.43704 0.0
C107 C 0.39226 0.47587 0.41439 0.0
N108 N 0.38537 0.4795 0.44773 0.0
N109 N 0.45661 0.5065 0.40696 0.0
C110 C 0.41668 0.54394 0.64486 0.0
C111 C 0.51279 0.59716 0.66752 0.0
N112 N 0.46011 0.56046 0.61996 0.0
N113 N 0.51953 0.59363 0.63418 0.0
N114 N 0.4489 0.56624 0.67494 0.0
H115 H 0.30396 0.51128 0.61655 0.0
H116 H 0.29416 0.51605 0.66136 0.0
H117 H 0.36496 0.46905 0.63755 0.0
C118 C 0.34007 0.50824 0.63975 0.0
C119 C 0.56601 0.56411 0.44217 0.0
H120 H 0.60176 0.56109 0.46544 0.0
H121 H 0.54166 0.6034 0.44424 0.0
H122 H 0.6121 0.55599 0.42062 0.0
O123 O 0.58619 0.50753 0.51198 0.0
O124 O 0.58579 0.52172 0.56689 0.0
C125 C 0.51092 0.63384 0.54003 0.0
O126 O 0.41025 0.46825 0.56948 0.0
O127 O 0.4101 0.4544 0.51467 0.0
H128 H 0.33526 0.69525 0.09386 0.0
H129 H 0.07039 0.86732 0.9863 0.0
H130 H 0.34057 0.67146 0.98603 0.0
H131 H 0.06696 0.89226 0.09417 0.0
H132 H 0.16663 0.79443 0.98573 0.0
H133 H 0.23896 0.76818 0.09452 0.0
C134 C 0.31716 0.70566 0.07029 0.0
C135 C 0.34615 0.67689 0.03979 0.0
C136 C 0.14449 0.81567 1.00954 0.0
C137 C 0.23427 0.76019 0.04041 0.0
C138 C 0.08888 0.85717 1.0099 0.0
C139 C 0.0604 0.88623 0.04037 0.0
C140 C 0.17223 0.80295 0.03986 0.0
C141 C 0.08718 0.87119 0.0701 0.0
C142 C 0.26153 0.74718 0.0707 0.0
C143 C 0.31986 0.69225 1.01011 0.0
N144 N 0.14183 0.8308 0.0691 0.0
N145 N 0.26517 0.73262 1.01116 0.0
H146 H 0.57044 0.36721 0.98583 0.0
H147 H 0.83679 0.19599 0.09354 0.0
H148 H 0.56432 0.39081 0.09365 0.0
H149 H 0.84247 0.17195 0.9857 0.0
H150 H 0.7395 0.26841 0.09407 0.0
H151 H 0.66777 0.29475 0.98524 0.0
C152 C 0.58856 0.35685 1.00942 0.0
C153 C 0.55907 0.38544 0.03989 0.0
C154 C 0.76235 0.24747 0.07027 0.0
C155 C 0.67215 0.30269 0.03935 0.0
C156 C 0.81858 0.20624 0.06993 0.0
C157 C 0.84795 0.17754 0.03948 0.0
C158 C 0.73489 0.26027 0.03994 0.0
C159 C 0.82149 0.19271 1.00975 0.0
C160 C 0.6448 0.3156 1.00904 0.0
C161 C 0.58542 0.37015 0.06959 0.0
N162 N 0.76621 0.23281 1.01073 0.0
N163 N 0.64071 0.33006 0.06858 0.0
H164 H 0.06639 0.20161 0.59435 0.0
H165 H 0.33614 0.37227 0.48694 0.0
H166 H 0.06505 0.17644 0.48647 0.0
H167 H 0.33913 0.3964 0.59479 0.0
H168 H 0.23889 0.29974 0.48623 0.0
H169 H 0.16354 0.27412 0.59498 0.0
C170 C 0.08553 0.21164 0.57075 0.0
C171 C 0.05738 0.18261 0.54026 0.0
C172 C 0.26117 0.32072 0.51006 0.0
C173 C 0.17028 0.26546 0.54085 0.0
C174 C 0.31735 0.36201 0.51051 0.0
C175 C 0.34596 0.39077 0.54103 0.0
C176 C 0.23296 0.30793 0.54034 0.0
C177 C 0.31877 0.37561 0.57069 0.0
C178 C 0.14166 0.25293 0.57115 0.0
C179 C 0.08498 0.1975 0.51055 0.0
N180 N 0.26354 0.33546 0.56961 0.0
N181 N 0.14015 0.23767 0.51159 0.0
H182 H 0.83445 0.87277 0.48711 0.0
H183 H 0.56953 0.70055 0.59484 0.0
H184 H 0.83906 0.8969 0.59495 0.0
H185 H 0.56461 0.67675 0.48702 0.0
H186 H 0.66595 0.7734 0.59543 0.0
H187 H 0.73804 0.79996 0.48658 0.0
C188 C 0.81618 0.86246 0.51072 0.0
C189 C 0.84502 0.89128 0.54117 0.0
C190 C 0.64344 0.75241 0.57162 0.0
C191 C 0.73299 0.8081 0.54071 0.0
C192 C 0.58773 0.71094 0.57125 0.0
C193 C 0.55883 0.68219 0.54078 0.0
C194 C 0.67085 0.7654 0.54131 0.0
C195 C 0.58525 0.69753 0.51108 0.0
C196 C 0.76047 0.821 0.51038 0.0
C197 C 0.81851 0.87604 0.5709 0.0
N198 N 0.64001 0.73786 0.51208 0.0
N199 N 0.76375 0.83571 0.56993 0.0
H200 H 0.23913 0.06785 0.09623 0.0
H201 H 0.6697 0.99597 0.98358 0.0
H202 H 0.24069 0.04836 0.98843 0.0
H203 H 0.66816 0.0155 0.09138 0.0
H204 H 0.51146 0.01267 0.98476 0.0
H205 H 0.39737 0.05112 0.09505 0.0
C206 C 0.27298 0.06104 0.07235 0.0
C207 C 0.22645 0.05932 0.04237 0.0
C208 C 0.54562 0.01287 1.00814 0.0
C209 C 0.40718 0.03895 0.04081 0.0
C210 C 0.63586 0.00278 1.00746 0.0
C211 C 0.68239 0.00453 0.03744 0.0
C212 C 0.50165 0.02486 0.039 0.0
C213 C 0.63505 0.01387 0.06765 0.0
C214 C 0.36321 0.05094 0.07167 0.0
C215 C 0.27379 0.04998 1.01217 0.0
N216 N 0.54739 0.02409 0.06767 0.0
N217 N 0.36144 0.03974 1.01214 0.0
H218 H 0.23624 0.00146 0.48433 0.0
H219 H 0.66573 0.07275 0.59712 0.0
H220 H 0.23677 0.02036 0.59211 0.0
H221 H 0.66526 0.05379 0.48934 0.0
H222 H 0.50747 0.05611 0.59588 0.0
H223 H 0.39446 0.01824 0.48557 0.0
C224 C 0.26986 0.00815 0.50822 0.0
C225 C 0.22306 0.00968 0.53818 0.0
C226 C 0.54187 0.05602 0.57252 0.0
C227 C 0.40375 0.03012 0.5398 0.0
C228 C 0.63212 0.06608 0.57323 0.0
C229 C 0.67895 0.06447 0.54327 0.0
C230 C 0.49821 0.0442 0.54165 0.0
C231 C 0.63191 0.05531 0.51306 0.0
C232 C 0.36008 0.01829 0.50893 0.0
C233 C 0.2701 0.01889 0.56839 0.0
N234 N 0.54424 0.04512 0.51301 0.0
N235 N 0.35774 0.02915 0.56844 0.0
H236 H 0.73675 0.55049 0.98721 0.0
H237 H 0.16795 0.51148 0.09241 0.0
H238 H 0.73896 0.5636 0.09463 0.0
H239 H 0.16575 0.49846 0.98499 0.0
H240 H 0.0098 0.52819 0.09352 0.0
H241 H 0.89486 0.53367 0.98609 0.0
C242 C 0.77073 0.55075 1.01064 0.0
C243 C 0.7244 0.55828 0.04106 0.0
C244 C 0.04376 0.52126 0.06968 0.0
C245 C 0.90509 0.53789 0.03984 0.0
C246 C 0.13397 0.51121 0.06897 0.0
C247 C 0.18031 0.50375 0.03856 0.0
C248 C -0.00043 0.52402 0.03977 0.0
C249 C 0.13277 0.50396 1.00901 0.0
C250 C 0.86091 0.54064 1.00994 0.0
C251 C 0.77193 0.55805 0.07061 0.0
N252 N 0.04509 0.51442 1.0104 0.0
N253 N 0.85959 0.54754 0.06922 0.0
H254 H 0.16876 0.55609 0.48841 0.0
H255 H 0.7365 0.51681 0.5935 0.0
H256 H 0.16551 0.56883 0.59581 0.0
H257 H 0.73978 0.50398 0.48609 0.0
H258 H 0.89462 0.53357 0.59465 0.0
H259 H 0.01063 0.53932 0.48727 0.0
C260 C 0.13454 0.55628 0.51184 0.0
C261 C 0.18058 0.56369 0.54225 0.0
C262 C 0.86091 0.52667 0.5708 0.0
C263 C -0.00013 0.54336 0.541 0.0
C264 C 0.77072 0.51659 0.57007 0.0
C265 C 0.72469 0.50916 0.53965 0.0
C266 C 0.9054 0.52949 0.54091 0.0
C267 C 0.77252 0.50945 0.51012 0.0
C268 C 0.04435 0.54621 0.51112 0.0
C269 C 0.13276 0.56338 0.57179 0.0
N270 N 0.86018 0.51993 0.51152 0.0
N271 N 0.0451 0.5529 0.57039 0.0
H272 H -0.03304 0.93425 0.35142 0.0
H273 H -0.031 0.1348 0.22921 0.0
H274 H -0.02172 0.09531 0.38602 0.0
H275 H -0.02026 0.97372 0.19462 0.0
H276 H -0.01524 0.12136 0.28685 0.0
H277 H -0.01606 0.94765 0.2938 0.0
C278 C -0.02545 0.97239 0.3468 0.0
C279 C -0.02741 0.01366 0.37344 0.0
C280 C -0.01483 0.08893 0.26666 0.0
C281 C -0.00961 0.02959 0.30771 0.0
C282 C -0.02378 0.09665 0.23383 0.0
C283 C -0.02557 0.05538 0.2072 0.0
C284 C -0.00919 0.03941 0.27295 0.0
C285 C -0.01687 0.0066 0.21436 0.0
C286 C -0.0158 0.98008 0.31399 0.0
C287 C -0.01821 0.06242 0.36628 0.0
N288 N -0.00979 0.99993 0.24658 0.0
N289 N -0.01043 0.06907 0.33407 0.0
H290 H 0.94067 0.93186 0.84985 0.0
H291 H 0.93702 0.13708 0.73083 0.0
H292 H 0.92887 0.09242 0.88649 0.0
H293 H 0.92727 0.97648 0.69419 0.0
H294 H 0.9223 0.12171 0.78811 0.0
H295 H 0.92416 0.94712 0.79262 0.0
C296 C 0.93309 0.97027 0.84576 0.0
C297 C 0.93465 0.01086 0.87285 0.0
C298 C 0.9219 0.0898 0.76754 0.0
C299 C 0.91736 0.02891 0.80761 0.0
C300 C 0.93024 0.09863 0.73493 0.0
C301 C 0.9319 0.05806 0.70783 0.0
C302 C 0.91672 0.03989 0.77313 0.0
C303 C 0.92386 0.00885 0.71431 0.0
C304 C 0.9237 0.97903 0.81319 0.0
C305 C 0.92555 0.06002 0.86639 0.0
N306 N 0.91731 1.00111 0.74633 0.0
N307 N 0.91797 0.0677 0.8344 0.0
H308 H 0.48439 0.59648 0.38749 0.0
H309 H 0.48404 0.47088 0.19322 0.0
H310 H 0.47016 0.43594 0.35091 0.0
H311 H 0.46906 0.6314 0.22983 0.0
H312 H 0.50241 0.45735 0.25064 0.0
H313 H 0.50226 0.61003 0.33004 0.0
C314 C 0.48751 0.56401 0.36742 0.0
C315 C 0.47733 0.51493 0.37391 0.0
C316 C 0.49646 0.49563 0.24612 0.0
C317 C 0.49479 0.53012 0.30801 0.0
C318 C 0.48709 0.50335 0.21329 0.0
C319 C 0.47657 0.55241 0.20681 0.0
C320 C 0.49461 0.53726 0.27268 0.0
C321 C 0.47737 0.59305 0.2339 0.0
C322 C 0.49659 0.57174 0.33456 0.0
C323 C 0.47821 0.4743 0.34682 0.0
N324 N 0.48591 0.5846 0.26566 0.0
N325 N 0.48645 0.48276 0.31505 0.0
H326 H 0.43345 0.63653 0.731 0.0
H327 H 0.43398 0.43104 0.8498 0.0
H328 H 0.42404 0.47594 0.69426 0.0
H329 H 0.42399 0.59162 0.88654 0.0
H330 H 0.41769 0.44644 0.79261 0.0
H331 H 0.41731 0.6211 0.78821 0.0
C332 C 0.42642 0.59807 0.73506 0.0
C333 C 0.42862 0.55752 0.70795 0.0
C334 C 0.41756 0.47833 0.81318 0.0
C335 C 0.41183 0.53928 0.77318 0.0
C336 C 0.4268 0.46949 0.84574 0.0
C337 C 0.42888 0.51004 0.87285 0.0
C338 C 0.41189 0.52825 0.80764 0.0
C339 C 0.42028 0.55926 0.86643 0.0
C340 C 0.41727 0.58921 0.76763 0.0
C341 C 0.42023 0.5083 0.71438 0.0
N342 N 0.41286 0.56701 0.83445 0.0
N343 N 0.41291 0.50053 0.74636 0.0
loop_
_geom_bond_atom_site_label_1
_geom_bond_atom_site_label_2
_geom_bond_distance
_geom_bond_site_symmetry_2
_ccdc_geom_bond_type
Zn0 O1 2.055 1_645 S
Zn0 O8 2.046 1_545 S
Zn0 N16 2.036 . S
Zn0 O28 2.053 . S
Zn0 O30 2.066 1_655 S
O1 Zn0 2.055 1_465 S
O1 C4 1.259 . S
C2 O30 1.256 . S
C2 O31 1.220 1_554 S
Zn3 O5 2.056 . S
Zn3 O7 2.057 1_455 S
Zn3 N9 2.035 . S
Zn3 O27 2.056 1_465 S
Zn3 O31 2.059 1_565 S
C4 O1 1.259 . S
C4 O5 1.254 1_554 S
O5 Zn3 2.056 . S
O5 C4 1.254 1_556 S
C6 O27 1.256 1_554 S
C6 O28 1.244 . S
O7 Zn3 2.057 1_655 S
O7 C29 1.259 1_556 S
O8 Zn0 2.046 1_565 S
O8 C29 1.254 . S
N9 Zn3 2.035 . S
N9 C10 1.298 1_465 S
N9 N12 1.398 . S
C10 N9 1.298 1_645 S
C10 N13 1.367 1_655 S
C10 C23 1.481 . S
C11 N12 1.299 1_545 S
C11 N13 1.379 . S
N12 N9 1.398 . S
N12 C11 1.299 1_565 S
N13 C10 1.367 1_455 S
N13 C11 1.379 . S
C14 N16 1.298 1_455 S
C14 N18 1.367 . S
C14 C22 1.481 1_545 S
C15 N17 1.299 . S
C15 N18 1.379 1_655 S
N16 Zn0 2.036 . S
N16 C14 1.298 1_655 S
N16 N17 1.398 . S
N17 C15 1.299 . S
N17 N16 1.398 . S
N18 C14 1.367 . S
N18 C15 1.379 1_455 S
H19 C22 0.980 . S
H20 C22 0.981 . S
H21 C22 0.981 . S
C22 C14 1.481 1_565 S
C22 H19 0.980 . S
C22 H20 0.981 . S
C22 H21 0.981 . S
C23 C10 1.481 . S
C23 H24 0.980 . S
C23 H25 0.981 . S
C23 H26 0.981 . S
H24 C23 0.980 . S
H25 C23 0.981 . S
H26 C23 0.981 . S
O27 Zn3 2.056 1_645 S
O27 C6 1.256 1_556 S
O28 Zn0 2.053 . S
O28 C6 1.244 . S
C29 O7 1.259 1_554 S
C29 O8 1.254 . S
O30 Zn0 2.066 1_455 S
O30 C2 1.256 . S
O31 C2 1.220 1_556 S
O31 Zn3 2.059 1_545 S
Zn32 O33 2.055 1_455 S
Zn32 O40 2.046 . S
Zn32 N48 2.036 . S
Zn32 O60 2.053 . S
Zn32 O62 2.066 1_445 S
O33 Zn32 2.055 1_655 S
O33 C36 1.259 . S
C34 O62 1.256 . S
C34 O63 1.244 . S
Zn35 O37 2.046 . S
Zn35 O39 2.055 1_655 S
Zn35 N41 2.036 . S
Zn35 O59 2.066 1_655 S
Zn35 O63 2.053 1_545 S
C36 O33 1.259 . S
C36 O37 1.254 . S
O37 Zn35 2.046 . S
O37 C36 1.254 . S
C38 O59 1.256 . S
C38 O60 1.244 . S
O39 Zn35 2.055 1_455 S
O39 C61 1.259 . S
O40 Zn32 2.046 . S
O40 C61 1.254 . S
N41 Zn35 2.036 . S
N41 C42 1.298 1_655 S
N41 N44 1.398 1_545 S
C42 N41 1.298 1_455 S
C42 N45 1.367 . S
C42 C55 1.481 . S
C43 N44 1.299 . S
C43 N45 1.379 1_665 S
N44 N41 1.398 1_565 S
N44 C43 1.299 . S
N45 C42 1.367 . S
N45 C43 1.379 1_445 S
C46 N48 1.298 1_655 S
C46 N50 1.367 1_655 S
C46 C54 1.481 . S
C47 N49 1.299 . S
C47 N50 1.379 . S
N48 Zn32 2.036 . S
N48 C46 1.298 1_455 S
N48 N49 1.398 . S
N49 C47 1.299 . S
N49 N48 1.398 . S
N50 C46 1.367 1_455 S
N50 C47 1.379 . S
H51 C54 0.980 . S
H52 C54 0.981 . S
H53 C54 0.981 . S
C54 C46 1.481 . S
C54 H51 0.980 . S
C54 H52 0.981 . S
C54 H53 0.981 . S
C55 C42 1.481 . S
C55 H56 0.980 . S
C55 H57 0.981 . S
C55 H58 0.981 . S
H56 C55 0.980 . S
H57 C55 0.981 . S
H58 C55 0.981 . S
O59 Zn35 2.066 1_455 S
O59 C38 1.256 . S
O60 Zn32 2.053 . S
O60 C38 1.244 . S
C61 O39 1.259 . S
C61 O40 1.254 . S
O62 Zn32 2.066 1_665 S
O62 C34 1.256 . S
O63 C34 1.244 . S
O63 Zn35 2.053 1_565 S
Zn64 O65 2.055 . S
Zn64 O72 2.046 . S
Zn64 N80 2.036 . S
Zn64 O92 2.053 . S
Zn64 O94 2.066 . S
O65 Zn64 2.055 . S
O65 C68 1.259 . S
C66 O94 1.256 . S
C66 O95 1.220 1_554 S
Zn67 O69 2.046 . S
Zn67 O71 2.055 . S
Zn67 N73 2.036 . S
Zn67 O91 2.066 . S
Zn67 O95 2.061 . S
C68 O65 1.259 . S
C68 O69 1.254 1_554 S
O69 Zn67 2.046 . S
O69 C68 1.254 1_556 S
C70 O91 1.256 1_554 S
C70 O92 1.244 . S
O71 Zn67 2.055 . S
O71 C93 1.259 1_556 S
O72 Zn64 2.046 . S
O72 C93 1.254 . S
N73 Zn67 2.036 . S
N73 C74 1.298 . S
N73 N76 1.398 . S
C74 N73 1.298 . S
C74 N77 1.367 . S
C74 C87 1.481 . S
C75 N76 1.299 . S
C75 N77 1.379 . S
N76 N73 1.398 . S
N76 C75 1.299 . S
N77 C74 1.367 . S
N77 C75 1.379 . S
C78 N80 1.298 . S
C78 N82 1.367 . S
C78 C86 1.481 . S
C79 N81 1.299 . S
C79 N82 1.379 . S
N80 Zn64 2.036 . S
N80 C78 1.298 . S
N80 N81 1.398 . S
N81 C79 1.299 . S
N81 N80 1.398 . S
N82 C78 1.367 . S
N82 C79 1.379 . S
H83 C86 0.980 . S
H84 C86 0.981 . S
H85 C86 0.981 . S
C86 C78 1.481 . S
C86 H83 0.980 . S
C86 H84 0.981 . S
C86 H85 0.981 . S
C87 C74 1.481 . S
C87 H88 0.980 . S
C87 H89 0.981 . S
C87 H90 0.981 . S
H88 C87 0.980 . S
H89 C87 0.981 . S
H90 C87 0.981 . S
O91 Zn67 2.066 . S
O91 C70 1.256 1_556 S
O92 Zn64 2.053 . S
O92 C70 1.244 . S
C93 O71 1.259 1_554 S
C93 O72 1.254 . S
O94 Zn64 2.066 . S
O94 C66 1.256 . S
O95 C66 1.220 1_556 S
O95 Zn67 2.061 . S
Zn96 O97 2.055 . S
Zn96 O104 2.046 . S
Zn96 N112 2.036 . S
Zn96 O124 2.053 . S
Zn96 O126 2.066 . S
O97 Zn96 2.055 . S
O97 C100 1.259 . S
C98 O126 1.256 . S
C98 O127 1.244 . S
Zn99 O101 2.046 . S
Zn99 O103 2.055 . S
Zn99 N105 2.036 . S
Zn99 O123 2.066 . S
Zn99 O127 2.053 . S
C100 O97 1.259 . S
C100 O101 1.254 . S
O101 Zn99 2.046 . S
O101 C100 1.254 . S
C102 O123 1.256 . S
C102 O124 1.244 . S
O103 Zn99 2.055 . S
O103 C125 1.259 . S
O104 Zn96 2.046 . S
O104 C125 1.254 . S
N105 Zn99 2.036 . S
N105 C106 1.298 . S
N105 N108 1.398 . S
C106 N105 1.298 . S
C106 N109 1.367 . S
C106 C119 1.481 . S
C107 N108 1.299 . S
C107 N109 1.379 . S
N108 N105 1.398 . S
N108 C107 1.299 . S
N109 C106 1.367 . S
N109 C107 1.379 . S
C110 N112 1.298 . S
C110 N114 1.367 . S
C110 C118 1.481 . S
C111 N113 1.299 . S
C111 N114 1.379 . S
N112 Zn96 2.036 . S
N112 C110 1.298 . S
N112 N113 1.398 . S
N113 C111 1.299 . S
N113 N112 1.398 . S
N114 C110 1.367 . S
N114 C111 1.379 . S
H115 C118 0.980 . S
H116 C118 0.981 . S
H117 C118 0.981 . S
C118 C110 1.481 . S
C118 H115 0.980 . S
C118 H116 0.981 . S
C118 H117 0.981 . S
C119 C106 1.481 . S
C119 H120 0.980 . S
C119 H121 0.981 . S
C119 H122 0.981 . S
H120 C119 0.980 . S
H121 C119 0.981 . S
H122 C119 0.981 . S
O123 Zn99 2.066 . S
O123 C102 1.256 . S
O124 Zn96 2.053 . S
O124 C102 1.244 . S
C125 O103 1.259 . S
C125 O104 1.254 . S
O126 Zn96 2.066 . S
O126 C98 1.256 . S
O127 C98 1.244 . S
O127 Zn99 2.053 . S
H128 C134 0.930 . S
H129 C138 0.930 . S
H130 C143 0.929 . S
H131 C141 0.929 . S
H132 C136 0.929 . S
H133 C142 0.929 . S
C134 H128 0.930 . S
C134 C135 1.367 . S
C134 C142 1.378 . S
C135 C134 1.367 . S
C135 C143 1.433 1_554 S
C136 H132 0.929 . S
C136 C138 1.378 . S
C136 C140 1.350 1_556 S
C137 C140 1.463 . S
C137 C142 1.350 . S
C137 N145 1.427 1_554 S
C138 H129 0.930 . S
C138 C136 1.378 . S
C138 C139 1.367 1_556 S
C139 C138 1.367 1_554 S
C139 C141 1.433 . S
C140 C136 1.350 1_554 S
C140 C137 1.463 . S
C140 N144 1.427 . S
C141 H131 0.929 . S
C141 C139 1.433 . S
C141 N144 1.384 . S
C142 H133 0.929 . S
C142 C134 1.378 . S
C142 C137 1.350 . S
C143 H130 0.929 . S
C143 C135 1.433 1_556 S
C143 N145 1.384 . S
N144 C140 1.427 . S
N144 C141 1.384 . S
N145 C137 1.427 1_556 S
N145 C143 1.384 . S
H146 C152 0.930 . S
H147 C156 0.930 . S
H148 C161 0.929 . S
H149 C159 0.929 . S
H150 C154 0.929 . S
H151 C160 0.929 . S
C152 H146 0.930 . S
C152 C153 1.367 1_556 S
C152 C160 1.378 . S
C153 C152 1.367 1_554 S
C153 C161 1.433 . S
C154 H150 0.929 . S
C154 C156 1.378 . S
C154 C158 1.350 . S
C155 C158 1.463 . S
C155 C160 1.350 1_554 S
C155 N163 1.427 . S
C156 H147 0.930 . S
C156 C154 1.378 . S
C156 C157 1.367 . S
C157 C156 1.367 . S
C157 C159 1.433 1_554 S
C158 C154 1.350 . S
C158 C155 1.463 . S
C158 N162 1.427 1_554 S
C159 H149 0.929 . S
C159 C157 1.433 1_556 S
C159 N162 1.384 . S
C160 H151 0.929 . S
C160 C152 1.378 . S
C160 C155 1.350 1_556 S
C161 H148 0.929 . S
C161 C153 1.433 . S
C161 N163 1.384 . S
N162 C158 1.427 1_556 S
N162 C159 1.384 . S
N163 C155 1.427 . S
N163 C161 1.384 . S
H164 C170 0.930 . S
H165 C174 0.930 . S
H166 C179 0.929 . S
H167 C177 0.929 . S
H168 C172 0.929 . S
H169 C178 0.929 . S
C170 H164 0.930 . S
C170 C171 1.367 . S
C170 C178 1.378 . S
C171 C170 1.367 . S
C171 C179 1.433 . S
C172 H168 0.929 . S
C172 C174 1.378 . S
C172 C176 1.350 . S
C173 C176 1.463 . S
C173 C178 1.350 . S
C173 N181 1.427 . S
C174 H165 0.930 . S
C174 C172 1.378 . S
C174 C175 1.367 . S
C175 C174 1.367 . S
C175 C177 1.433 . S
C176 C172 1.350 . S
C176 C173 1.463 . S
C176 N180 1.427 . S
C177 H167 0.929 . S
C177 C175 1.433 . S
C177 N180 1.384 . S
C178 H169 0.929 . S
C178 C170 1.378 . S
C178 C173 1.350 . S
C179 H166 0.929 . S
C179 C171 1.433 . S
C179 N181 1.384 . S
N180 C176 1.427 . S
N180 C177 1.384 . S
N181 C173 1.427 . S
N181 C179 1.384 . S
H182 C188 0.930 . S
H183 C192 0.930 . S
H184 C197 0.929 . S
H185 C195 0.929 . S
H186 C190 0.929 . S
H187 C196 0.929 . S
C188 H182 0.930 . S
C188 C189 1.367 . S
C188 C196 1.378 . S
C189 C188 1.367 . S
C189 C197 1.433 . S
C190 H186 0.929 . S
C190 C192 1.378 . S
C190 C194 1.350 . S
C191 C194 1.463 . S
C191 C196 1.350 . S
C191 N199 1.427 . S
C192 H183 0.930 . S
C192 C190 1.378 . S
C192 C193 1.367 . S
C193 C192 1.367 . S
C193 C195 1.433 . S
C194 C190 1.350 . S
C194 C191 1.463 . S
C194 N198 1.427 . S
C195 H185 0.929 . S
C195 C193 1.433 . S
C195 N198 1.384 . S
C196 H187 0.929 . S
C196 C188 1.378 . S
C196 C191 1.350 . S
C197 H184 0.929 . S
C197 C189 1.433 . S
C197 N199 1.384 . S
N198 C194 1.427 . S
N198 C195 1.384 . S
N199 C191 1.427 . S
N199 C197 1.384 . S
H200 C206 0.930 . S
H201 C210 0.930 . S
H202 C215 0.927 1_556 S
H203 C213 0.929 . S
H204 C208 0.929 . S
H205 C214 0.929 . S
C206 H200 0.930 . S
C206 C207 1.367 . S
C206 C214 1.378 . S
C207 C206 1.367 . S
C207 C215 1.435 1_545 S
C208 H204 0.929 . S
C208 C210 1.378 . S
C208 C212 1.350 1_566 S
C209 C212 1.463 . S
C209 C214 1.350 . S
C209 N217 1.427 1_544 S
C210 H201 0.930 . S
C210 C208 1.378 . S
C210 C211 1.367 1_556 S
C211 C210 1.367 1_554 S
C211 C213 1.433 1_565 S
C212 C208 1.350 1_544 S
C212 C209 1.463 . S
C212 N216 1.427 . S
C213 H203 0.929 . S
C213 C211 1.433 1_545 S
C213 N216 1.384 . S
C214 H205 0.929 . S
C214 C206 1.378 . S
C214 C209 1.350 . S
C215 H202 0.927 1_554 S
C215 C207 1.435 1_565 S
C215 N217 1.383 1_554 S
N216 C212 1.427 . S
N216 C213 1.384 . S
N217 C209 1.427 1_566 S
N217 C215 1.383 1_556 S
H218 C224 0.930 . S
H219 C228 0.929 . S
H220 C233 0.929 . S
H221 C231 0.929 . S
H222 C226 0.929 1_565 S
H223 C232 0.929 . S
C224 H218 0.930 . S
C224 C225 1.367 . S
C224 C232 1.378 . S
C225 C224 1.367 . S
C225 C233 1.433 1_545 S
C226 H222 0.929 1_545 S
C226 C228 1.378 . S
C226 C230 1.350 . S
C227 C230 1.463 . S
C227 C232 1.350 . S
C227 N235 1.427 . S
C228 H219 0.929 . S
C228 C226 1.378 . S
C228 C229 1.367 . S
C229 C228 1.367 . S
C229 C231 1.433 . S
C230 C226 1.350 . S
C230 C227 1.463 . S
C230 N234 1.427 . S
C231 H221 0.929 . S
C231 C229 1.433 . S
C231 N234 1.384 . S
C232 H223 0.929 . S
C232 C224 1.378 . S
C232 C227 1.350 . S
C233 H220 0.929 . S
C233 C225 1.433 1_565 S
C233 N235 1.384 1_565 S
N234 C230 1.427 . S
N234 C231 1.384 . S
N235 C227 1.427 . S
N235 C233 1.384 1_545 S
H236 C242 0.930 . S
H237 C246 0.930 . S
H238 C251 0.929 . S
H239 C249 0.929 . S
H240 C244 0.929 . S
H241 C250 0.929 . S
C242 H236 0.930 . S
C242 C243 1.367 . S
C242 C250 1.378 . S
C243 C242 1.367 . S
C243 C251 1.433 . S
C244 H240 0.929 . S
C244 C246 1.378 . S
C244 C248 1.350 . S
C245 C248 1.463 1_655 S
C245 C250 1.350 . S
C245 N253 1.427 . S
C246 H237 0.930 . S
C246 C244 1.378 . S
C246 C247 1.367 . S
C247 C246 1.367 . S
C247 C249 1.433 . S
C248 C244 1.350 . S
C248 C245 1.463 1_455 S
C248 N252 1.427 . S
C249 H239 0.929 . S
C249 C247 1.433 . S
C249 N252 1.384 . S
C250 H241 0.929 . S
C250 C242 1.378 . S
C250 C245 1.350 . S
C251 H238 0.929 . S
C251 C243 1.433 . S
C251 N253 1.384 . S
N252 C248 1.427 . S
N252 C249 1.384 . S
N253 C245 1.427 . S
N253 C251 1.384 . S
H254 C260 0.930 . S
H255 C264 0.930 . S
H256 C269 0.929 . S
H257 C267 0.929 . S
H258 C262 0.929 . S
H259 C268 0.929 . S
C260 H254 0.930 . S
C260 C261 1.367 . S
C260 C268 1.378 . S
C261 C260 1.367 . S
C261 C269 1.433 . S
C262 H258 0.929 . S
C262 C264 1.378 . S
C262 C266 1.350 . S
C263 C266 1.463 1_455 S
C263 C268 1.350 . S
C263 N271 1.427 . S
C264 H255 0.930 . S
C264 C262 1.378 . S
C264 C265 1.367 . S
C265 C264 1.367 . S
C265 C267 1.433 . S
C266 C262 1.350 . S
C266 C263 1.463 1_655 S
C266 N270 1.427 . S
C267 H257 0.929 . S
C267 C265 1.433 . S
C267 N270 1.384 . S
C268 H259 0.929 . S
C268 C260 1.378 . S
C268 C263 1.350 . S
C269 H256 0.929 . S
C269 C261 1.433 . S
C269 N271 1.384 . S
N270 C266 1.427 . S
N270 C267 1.384 . S
N271 C263 1.427 . S
N271 C269 1.384 . S
H272 C278 0.930 1_655 S
H273 C282 0.930 . S
H274 C287 0.929 . S
H275 C285 0.929 1_655 S
H276 C280 0.929 . S
H277 C286 0.929 1_655 S
C278 H272 0.930 1_455 S
C278 C279 1.367 1_565 S
C278 C286 1.378 . S
C279 C278 1.367 1_545 S
C279 C287 1.433 . S
C280 H276 0.929 . S
C280 C282 1.378 . S
C280 C284 1.350 . S
C281 C284 1.463 . S
C281 C286 1.350 1_545 S
C281 N289 1.427 . S
C282 H273 0.930 . S
C282 C280 1.378 . S
C282 C283 1.367 . S
C283 C282 1.367 . S
C283 C285 1.433 1_545 S
C284 C280 1.350 . S
C284 C281 1.463 . S
C284 N288 1.427 1_545 S
C285 H275 0.929 1_455 S
C285 C283 1.433 1_565 S
C285 N288 1.384 . S
C286 H277 0.929 1_455 S
C286 C278 1.378 . S
C286 C281 1.350 1_565 S
C287 H274 0.929 . S
C287 C279 1.433 . S
C287 N289 1.384 . S
N288 C284 1.427 1_565 S
N288 C285 1.384 . S
N289 C281 1.427 . S
N289 C287 1.384 . S
H290 C296 0.930 . S
H291 C300 0.930 . S
H292 C305 0.929 . S
H293 C303 0.929 . S
H294 C298 0.929 . S
H295 C304 0.929 . S
C296 H290 0.930 . S
C296 C297 1.367 . S
C296 C304 1.378 . S
C297 C296 1.367 . S
C297 C305 1.433 1_655 S
C298 H294 0.929 . S
C298 C300 1.378 . S
C298 C302 1.350 1_455 S
C299 C302 1.463 . S
C299 C304 1.350 . S
C299 N307 1.427 1_655 S
C300 H291 0.930 . S
C300 C298 1.378 . S
C300 C301 1.367 1_455 S
C301 C300 1.367 1_655 S
C301 C303 1.433 . S
C302 C298 1.350 1_655 S
C302 C299 1.463 . S
C302 N306 1.427 . S
C303 H293 0.929 . S
C303 C301 1.433 . S
C303 N306 1.384 . S
C304 H295 0.929 . S
C304 C296 1.378 . S
C304 C299 1.350 . S
C305 H292 0.929 . S
C305 C297 1.433 1_455 S
C305 N307 1.384 . S
N306 C302 1.427 . S
N306 C303 1.384 . S
N307 C299 1.427 1_455 S
N307 C305 1.384 . S
H308 C314 0.930 . S
H309 C318 0.930 . S
H310 C323 0.929 . S
H311 C321 0.929 . S
H312 C316 0.929 . S
H313 C322 0.929 . S
C314 H308 0.930 . S
C314 C315 1.367 . S
C314 C322 1.378 . S
C315 C314 1.367 . S
C315 C323 1.433 . S
C316 H312 0.929 . S
C316 C318 1.378 . S
C316 C320 1.350 . S
C317 C320 1.463 . S
C317 C322 1.350 . S
C317 N325 1.427 . S
C318 H309 0.930 . S
C318 C316 1.378 . S
C318 C319 1.367 . S
C319 C318 1.367 . S
C319 C321 1.433 . S
C320 C316 1.350 . S
C320 C317 1.463 . S
C320 N324 1.427 . S
C321 H311 0.929 . S
C321 C319 1.433 . S
C321 N324 1.384 . S
C322 H313 0.929 . S
C322 C314 1.378 . S
C322 C317 1.350 . S
C323 H310 0.929 . S
C323 C315 1.433 . S
C323 N325 1.384 . S
N324 C320 1.427 . S
N324 C321 1.384 . S
N325 C317 1.427 . S
N325 C323 1.384 . S
H326 C332 0.930 . S
H327 C336 0.930 . S
H328 C341 0.929 . S
H329 C339 0.929 . S
H330 C334 0.929 . S
H331 C340 0.929 . S
C332 H326 0.930 . S
C332 C333 1.367 . S
C332 C340 1.378 . S
C333 C332 1.367 . S
C333 C341 1.433 . S
C334 H330 0.929 . S
C334 C336 1.378 . S
C334 C338 1.350 . S
C335 C338 1.463 . S
C335 C340 1.350 . S
C335 N343 1.427 . S
C336 H327 0.930 . S
C336 C334 1.378 . S
C336 C337 1.367 . S
C337 C336 1.367 . S
C337 C339 1.433 . S
C338 C334 1.350 . S
C338 C335 1.463 . S
C338 N342 1.427 . S
C339 H329 0.929 . S
C339 C337 1.433 . S
C339 N342 1.384 . S
C340 H331 0.929 . S
C340 C332 1.378 . S
C340 C335 1.350 . S
C341 H328 0.929 . S
C341 C333 1.433 . S
C341 N343 1.384 . S
N342 C338 1.427 . S
N342 C339 1.384 . S
N343 C335 1.427 . S
N343 C341 1.384 . S
C135 C70 1.563 . S
C139 C4 1.571 . S
C153 C68 1.570 . S
C157 C6 1.562 . S
C171 C61 1.570 . S
C175 C98 1.562 . S
C189 C34 1.565 . S
C193 C125 1.572 . S
C207 C2 0.923 . S
C211 C29 0.925 . S
C225 C38 0.913 . S
C229 C36 0.918 . S
C243 C66 0.923 . S
C247 C93 0.923 . S
C261 C100 0.916 . S
C265 C102 0.913 . S
C279 N45 1.473 . S
C283 N18 1.478 . S
C297 N13 1.461 1_655 S
C301 N50 1.450 1_655 S
C315 N109 1.482 . S
C319 N82 1.477 . S
C333 N114 1.453 . S
C337 N77 1.453 . S
