# Generated by pormake.
# Topology umg, (4)-cn, num edge types: 1
# Building blocks:
#     Node 0, Type 0, BuildingBlock: QUQFOY_clean_sbu_1, # of connection points: 4
#     Node 1, Type 0, BuildingBlock: QUQFOY_clean_sbu_1, # of connection points: 4
#     Node 2, Type 0, BuildingBlock: QUQFOY_clean_sbu_1, # of connection points: 4
#     Node 3, Type 0, BuildingBlock: QUQFOY_clean_sbu_1, # of connection points: 4
#     Node 4, Type 0, BuildingBlock: QUQFOY_clean_sbu_1, # of connection points: 4
#     Node 5, Type 0, BuildingBlock: QUQFOY_clean_sbu_1, # of connection points: 4
#     Node 6, Type 0, BuildingBlock: QUQFOY_clean_sbu_1, # of connection points: 4
#     Node 7, Type 0, BuildingBlock: QUQFOY_clean_sbu_1, # of connection points: 4
#     Node 8, Type 0, BuildingBlock: QUQFOY_clean_sbu_1, # of connection points: 4
#     Node 9, Type 0, BuildingBlock: QUQFOY_clean_sbu_1, # of connection points: 4
#     Node 10, Type 0, BuildingBlock: QUQFOY_clean_sbu_1, # of connection points: 4
#     Node 11, Type 0, BuildingBlock: QUQFOY_clean_sbu_1, # of connection points: 4
#     Edge 12, Type (0, 0), BuildingBlock: ZUJKAS_clean_linker_0, # of connection points: 2
#     Edge 13, Type (0, 0), BuildingBlock: ZUJKAS_clean_linker_0, # of connection points: 2
#     Edge 14, Type (0, 0), BuildingBlock: ZUJKAS_clean_linker_0, # of connection points: 2
#     Edge 15, Type (0, 0), BuildingBlock: ZUJKAS_clean_linker_0, # of connection points: 2
#     Edge 16, Type (0, 0), BuildingBlock: ZUJKAS_clean_linker_0, # of connection points: 2
#     Edge 17, Type (0, 0), BuildingBlock: ZUJKAS_clean_linker_0, # of connection points: 2
#     Edge 18, Type (0, 0), BuildingBlock: ZUJKAS_clean_linker_0, # of connection points: 2
#     Edge 19, Type (0, 0), BuildingBlock: ZUJKAS_clean_linker_0, # of connection points: 2
#     Edge 20, Type (0, 0), BuildingBlock: ZUJKAS_clean_linker_0, # of connection points: 2
#     Edge 21, Type (0, 0), BuildingBlock: ZUJKAS_clean_linker_0, # of connection points: 2
#     Edge 22, Type (0, 0), BuildingBlock: ZUJKAS_clean_linker_0, # of connection points: 2
#     Edge 23, Type (0, 0), BuildingBlock: ZUJKAS_clean_linker_0, # of connection points: 2
#     Edge 24, Type (0, 0), BuildingBlock: ZUJKAS_clean_linker_0, # of connection points: 2
#     Edge 25, Type (0, 0), BuildingBlock: ZUJKAS_clean_linker_0, # of connection points: 2
#     Edge 26, Type (0, 0), BuildingBlock: ZUJKAS_clean_linker_0, # of connection points: 2
#     Edge 27, Type (0, 0), BuildingBlock: ZUJKAS_clean_linker_0, # of connection points: 2
#     Edge 28, Type (0, 0), BuildingBlock: ZUJKAS_clean_linker_0, # of connection points: 2
#     Edge 29, Type (0, 0), BuildingBlock: ZUJKAS_clean_linker_0, # of connection points: 2
#     Edge 30, Type (0, 0), BuildingBlock: ZUJKAS_clean_linker_0, # of connection points: 2
#     Edge 31, Type (0, 0), BuildingBlock: ZUJKAS_clean_linker_0, # of connection points: 2
#     Edge 32, Type (0, 0), BuildingBlock: ZUJKAS_clean_linker_0, # of connection points: 2
#     Edge 33, Type (0, 0), BuildingBlock: ZUJKAS_clean_linker_0, # of connection points: 2
#     Edge 34, Type (0, 0), BuildingBlock: ZUJKAS_clean_linker_0, # of connection points: 2
#     Edge 35, Type (0, 0), BuildingBlock: ZUJKAS_clean_linker_0, # of connection points: 2
# Relax obj value: 0.074
# Max RMSD: 0.187
# Mean RMSD: 0.187
data_MOF--net-umg--node1-QUQFOY_clean_sbu_1--edge1-ZUJKAS_clean_linker_0
_symmetry_space_group_name_H-M    P1
_symmetry_Int_Tables_number       1
_symmetry_cell_setting            triclinic
loop_
_symmetry_equiv_pos_as_xyz
'x, y, z'
_cell_length_a     37.722681
_cell_length_b     37.724736
_cell_length_c     113.61195
_cell_angle_alpha  90.104894
_cell_angle_beta   89.951425
_cell_angle_gamma 119.9647
loop_
_atom_site_label
_atom_site_type_symbol
_atom_site_fract_x
_atom_site_fract_y
_atom_site_fract_z
_atom_type_partial_charge
O0 O 0.32645 0.60892 0.06846 0.0
Cd1 Cd 0.30833 0.57669 0.08409 0.0
Cd2 Cd 0.31888 0.65151 0.09113 0.0
O3 O 0.34223 0.67103 0.0744 0.0
O4 O 0.32073 0.53054 0.08237 0.0
O5 O 0.35371 0.58239 0.09458 0.0
C6 C 0.35009 0.54972 0.08984 0.0
C7 C 0.35383 0.6748 0.10891 0.0
C8 C 0.34007 0.64664 0.0663 0.0
C9 C 0.23302 0.57924 0.0918 0.0
O10 O 0.25631 0.61784 0.09231 0.0
O11 O 0.24783 0.55604 0.08951 0.0
O12 O 0.33987 0.69553 0.10356 0.0
O13 O 0.3499 0.64258 0.10376 0.0
O14 O 0.72554 0.31702 0.40068 0.0
Cd15 Cd 0.73888 0.29842 0.41631 0.0
Cd16 Cd 0.67807 0.31324 0.42345 0.0
O17 O 0.68454 0.33915 0.40693 0.0
O18 O 0.79713 0.31005 0.4146 0.0
O19 O 0.77862 0.34276 0.42706 0.0
C20 C 0.80747 0.33894 0.42225 0.0
C21 C 0.6884 0.3464 0.44154 0.0
C22 C 0.70439 0.3341 0.39866 0.0
C23 C 0.65951 0.22547 0.42366 0.0
O24 O 0.64603 0.25036 0.42405 0.0
O25 O 0.6974 0.23852 0.42169 0.0
O26 O 0.65503 0.33493 0.43568 0.0
O27 O 0.71635 0.34104 0.43676 0.0
O28 O 0.42143 0.72022 0.73441 0.0
Cd29 Cd 0.45331 0.73343 0.75007 0.0
Cd30 Cd 0.37816 0.67215 0.75708 0.0
O31 O 0.35846 0.67874 0.74063 0.0
O32 O 0.49984 0.79161 0.74835 0.0
O33 O 0.44879 0.77324 0.76084 0.0
C34 C 0.48139 0.80204 0.75601 0.0
C35 C 0.35512 0.68209 0.77518 0.0
C36 C 0.38323 0.69889 0.73238 0.0
C37 C 0.44776 0.65425 0.75723 0.0
O38 O 0.40933 0.64037 0.75758 0.0
O39 O 0.47225 0.69226 0.75535 0.0
O40 O 0.33345 0.64876 0.76927 0.0
O41 O 0.38841 0.71021 0.77046 0.0
O42 O 0.7101 0.41132 0.068 0.0
Cd43 Cd 0.72677 0.44243 0.08382 0.0
Cd44 Cd 0.71301 0.36664 0.0907 0.0
O45 O 0.68833 0.34801 0.07401 0.0
O46 O 0.7145 0.48879 0.08239 0.0
O47 O 0.68032 0.43551 0.09401 0.0
C48 C 0.68436 0.46869 0.08956 0.0
C49 C 0.6789 0.34351 0.10864 0.0
C50 C 0.69363 0.37322 0.06581 0.0
C51 C 0.80003 0.43706 0.09161 0.0
O52 O 0.7758 0.39856 0.09168 0.0
O53 O 0.78633 0.46141 0.0897 0.0
O54 O 0.6915 0.3221 0.10298 0.0
O55 O 0.68368 0.37635 0.10372 0.0
O56 O 0.30117 0.69893 0.40168 0.0
Cd57 Cd 0.28724 0.71846 0.4171 0.0
Cd58 Cd 0.35024 0.70729 0.42452 0.0
O59 O 0.34716 0.68323 0.40792 0.0
O60 O 0.22886 0.70579 0.41501 0.0
O61 O 0.24743 0.67473 0.42799 0.0
C62 C 0.21852 0.67759 0.42286 0.0
C63 C 0.33949 0.67311 0.44239 0.0
C64 C 0.32517 0.68503 0.39971 0.0
C65 C 0.36502 0.79371 0.42468 0.0
O66 O 0.37972 0.76995 0.42554 0.0
O67 O 0.32726 0.77932 0.42216 0.0
O68 O 0.37378 0.68672 0.43684 0.0
O69 O 0.31089 0.67689 0.43739 0.0
O70 O 0.61828 0.29652 0.73493 0.0
Cd71 Cd 0.58476 0.28286 0.75033 0.0
Cd72 Cd 0.65931 0.34673 0.75759 0.0
O73 O 0.67995 0.34338 0.74097 0.0
O74 O 0.53882 0.22458 0.74816 0.0
O75 O 0.58802 0.24279 0.76128 0.0
C76 C 0.55629 0.21403 0.75609 0.0
C77 C 0.68154 0.33476 0.7755 0.0
C78 C 0.65603 0.32079 0.73285 0.0
C79 C 0.58718 0.36088 0.75774 0.0
O80 O 0.62566 0.37576 0.75858 0.0
O81 O 0.56392 0.32303 0.75529 0.0
O82 O 0.70263 0.36945 0.77019 0.0
O83 O 0.64958 0.30656 0.77023 0.0
O84 O 0.41841 0.70723 0.60702 0.0
Cd85 Cd 0.44941 0.72395 0.5912 0.0
Cd86 Cd 0.37353 0.71029 0.58433 0.0
O87 O 0.35513 0.686 0.60105 0.0
O88 O 0.49598 0.71199 0.59261 0.0
O89 O 0.44272 0.67759 0.58098 0.0
C90 C 0.47601 0.68185 0.58542 0.0
C91 C 0.35007 0.67546 0.5665 0.0
C92 C 0.38036 0.69106 0.60923 0.0
C93 C 0.44403 0.79724 0.58335 0.0
O94 O 0.40552 0.77306 0.58322 0.0
O95 O 0.4683 0.78351 0.58535 0.0
O96 O 0.32878 0.68833 0.57209 0.0
O97 O 0.38302 0.68047 0.57141 0.0
O98 O 0.72531 0.41419 0.94068 0.0
Cd99 Cd 0.7391 0.44621 0.92506 0.0
Cd100 Cd 0.67804 0.37114 0.91783 0.0
O101 O 0.68383 0.35131 0.93436 0.0
O102 O 0.79728 0.49256 0.92697 0.0
O103 O 0.77917 0.44168 0.91441 0.0
C104 C 0.80787 0.47414 0.91934 0.0
C105 C 0.68848 0.34804 0.8998 0.0
C106 C 0.70377 0.37599 0.94267 0.0
C107 C 0.66033 0.44091 0.91755 0.0
O108 O 0.64646 0.40249 0.9171 0.0
O109 O 0.69821 0.46533 0.91965 0.0
O110 O 0.65494 0.32646 0.90561 0.0
O111 O 0.71655 0.38124 0.9046 0.0
O112 O 0.33126 0.72272 0.27361 0.0
Cd113 Cd 0.31065 0.73549 0.25822 0.0
Cd114 Cd 0.32196 0.67226 0.25101 0.0
O115 O 0.34679 0.67639 0.26753 0.0
O116 O 0.32253 0.79359 0.26034 0.0
O117 O 0.35373 0.77556 0.24721 0.0
C118 C 0.3506 0.80424 0.25242 0.0
C119 C 0.35573 0.68322 0.23305 0.0
C120 C 0.34542 0.69899 0.27563 0.0
C121 C 0.23539 0.65695 0.25106 0.0
O122 O 0.25928 0.64238 0.25024 0.0
O123 O 0.24968 0.69485 0.25339 0.0
O124 O 0.34267 0.64904 0.2386 0.0
O125 O 0.35156 0.71158 0.23808 0.0
O126 O 0.61629 0.32452 0.60661 0.0
Cd127 Cd 0.58332 0.3054 0.59111 0.0
Cd128 Cd 0.65817 0.31626 0.58384 0.0
O129 O 0.67825 0.34042 0.60049 0.0
O130 O 0.53731 0.31802 0.59285 0.0
O131 O 0.58878 0.35035 0.5805 0.0
C132 C 0.55638 0.34712 0.58531 0.0
C133 C 0.68062 0.35034 0.56591 0.0
C134 C 0.65417 0.33853 0.60864 0.0
C135 C 0.58623 0.23013 0.5835 0.0
O136 O 0.62477 0.25366 0.58286 0.0
O137 O 0.56287 0.24473 0.58582 0.0
O138 O 0.70182 0.337 0.57131 0.0
O139 O 0.64845 0.34635 0.5711 0.0
O140 O 0.30323 0.61371 0.94007 0.0
Cd141 Cd 0.29015 0.57953 0.9248 0.0
Cd142 Cd 0.35405 0.6539 0.91752 0.0
O143 O 0.35028 0.67518 0.934 0.0
O144 O 0.23212 0.53341 0.92712 0.0
O145 O 0.24961 0.58168 0.91375 0.0
C146 C 0.22115 0.55022 0.91911 0.0
C147 C 0.34176 0.67515 0.8995 0.0
C148 C 0.32734 0.65153 0.94208 0.0
C149 C 0.3685 0.58204 0.91771 0.0
O150 O 0.38333 0.62049 0.9168 0.0
O151 O 0.33061 0.55877 0.92008 0.0
O152 O 0.37645 0.69666 0.9048 0.0
O153 O 0.31375 0.64326 0.90483 0.0
O154 O 0.71144 0.30005 0.27383 0.0
Cd155 Cd 0.72969 0.28559 0.25829 0.0
Cd156 Cd 0.71578 0.34653 0.25083 0.0
O157 O 0.69059 0.34182 0.26738 0.0
O158 O 0.71755 0.22734 0.26033 0.0
O159 O 0.68522 0.24544 0.24765 0.0
C160 C 0.68872 0.21673 0.25266 0.0
C161 C 0.68186 0.33556 0.23285 0.0
C162 C 0.69512 0.32199 0.27575 0.0
C163 C 0.8032 0.36384 0.25056 0.0
O164 O 0.77867 0.37771 0.24996 0.0
O165 O 0.78974 0.3261 0.25286 0.0
O166 O 0.6944 0.36949 0.23853 0.0
O167 O 0.68665 0.30745 0.23775 0.0
H168 H 0.26546 0.63138 0.95756 0.0
H169 H 0.27121 0.64473 0.97872 0.0
H170 H 0.40277 0.71447 0.9755 0.0
H171 H 0.39673 0.70324 0.95419 0.0
H172 H 0.30199 0.61556 0.99272 0.0
H173 H 0.38859 0.78301 0.99935 0.0
H174 H 0.36732 0.76024 0.98526 0.0
H175 H 0.41582 0.76663 0.98994 0.0
C176 C 0.29549 0.65075 0.96134 0.0
C177 C 0.33064 0.66643 0.95427 0.0
C178 C 0.29882 0.65826 0.97344 0.0
C179 C 0.33744 0.68074 0.97879 0.0
C180 C 0.37256 0.69797 0.97163 0.0
H181 H 0.37138 0.61887 0.04947 0.0
H182 H 0.37546 0.63229 0.02834 0.0
C183 C 0.36913 0.69137 0.95943 0.0
C184 C 0.3408 0.68109 0.99187 0.0
H185 H 0.38626 0.74191 0.01589 0.0
C186 C 0.32008 0.64338 0.99775 0.0
C187 C 0.36411 0.71727 0.99854 0.0
C188 C 0.38484 0.75908 0.99295 0.0
C189 C 0.32226 0.64065 0.00999 0.0
C190 C 0.34749 0.67644 0.01659 0.0
C191 C 0.36761 0.71438 0.0108 0.0
C192 C 0.35256 0.6746 0.02952 0.0
C193 C 0.29671 0.59934 0.01572 0.0
C194 C 0.34151 0.69643 0.03731 0.0
C195 C 0.34032 0.68967 0.04947 0.0
C196 C 0.34969 0.66062 0.05397 0.0
C197 C 0.36348 0.64102 0.04622 0.0
C198 C 0.36553 0.64845 0.03414 0.0
H199 H 0.27021 0.57853 0.01012 0.0
H200 H 0.31573 0.5848 0.017 0.0
H201 H 0.28494 0.60218 0.02442 0.0
H202 H 0.33174 0.71705 0.03395 0.0
H203 H 0.32952 0.70513 0.05525 0.0
H204 H 0.64802 0.3523 0.38928 0.0
H205 H 0.63769 0.36092 0.36835 0.0
H206 H 0.74188 0.34824 0.35936 0.0
H207 H 0.75262 0.34003 0.38008 0.0
H208 H 0.73689 0.4106 0.34661 0.0
H209 H 0.59137 0.26088 0.34579 0.0
H210 H 0.5957 0.29847 0.35634 0.0
H211 H 0.6272 0.27551 0.35782 0.0
C212 C 0.66912 0.35205 0.38285 0.0
C213 C 0.7009 0.34505 0.38634 0.0
C214 C 0.66301 0.35673 0.3709 0.0
C215 C 0.68868 0.35462 0.3623 0.0
C216 C 0.72164 0.34984 0.36585 0.0
H217 H 0.68821 0.27416 0.29449 0.0
H218 H 0.68005 0.2859 0.31515 0.0
C219 C 0.72763 0.34501 0.37771 0.0
C220 C 0.68036 0.35457 0.34954 0.0
H221 H 0.61809 0.2925 0.32767 0.0
C222 C 0.71047 0.38531 0.34244 0.0
C223 C 0.64598 0.3213 0.34417 0.0
C224 C 0.6132 0.28693 0.35136 0.0
C225 C 0.70823 0.38259 0.3301 0.0
C226 C 0.67475 0.34839 0.32473 0.0
C227 C 0.64355 0.31879 0.33182 0.0
C228 C 0.67485 0.33965 0.312 0.0
C229 C 0.74307 0.41483 0.32292 0.0
C230 C 0.67342 0.36534 0.3033 0.0
C231 C 0.67807 0.35866 0.29139 0.0
C232 C 0.68437 0.32628 0.28803 0.0
C233 C 0.68378 0.29959 0.29675 0.0
C234 C 0.67897 0.30616 0.30859 0.0
H235 H 0.76914 0.43653 0.3285 0.0
H236 H 0.75429 0.40031 0.31654 0.0
H237 H 0.73211 0.43256 0.31783 0.0
H238 H 0.66974 0.39107 0.30575 0.0
H239 H 0.67832 0.37973 0.28488 0.0
H240 H 0.30859 0.64276 0.723 0.0
H241 H 0.28923 0.63298 0.7021 0.0
H242 H 0.40588 0.73728 0.69316 0.0
H243 H 0.42527 0.74745 0.71385 0.0
H244 H 0.33786 0.73263 0.68068 0.0
H245 H 0.34275 0.58744 0.67908 0.0
H246 H 0.30988 0.59142 0.68985 0.0
H247 H 0.36435 0.62302 0.69118 0.0
C248 C 0.32981 0.66398 0.71659 0.0
C249 C 0.36865 0.69564 0.72009 0.0
C250 C 0.31879 0.6582 0.70466 0.0
C251 C 0.34637 0.68408 0.69608 0.0
C252 C 0.38418 0.71689 0.69963 0.0
H253 H 0.42324 0.68549 0.62769 0.0
H254 H 0.40487 0.67744 0.64845 0.0
C255 C 0.39526 0.72256 0.71148 0.0
C256 C 0.33776 0.67614 0.68332 0.0
H257 H 0.33698 0.61452 0.66113 0.0
C258 C 0.33669 0.70636 0.67639 0.0
C259 C 0.33663 0.64197 0.67777 0.0
C260 C 0.33867 0.6091 0.68479 0.0
C261 C 0.33664 0.7044 0.66403 0.0
C262 C 0.33728 0.67111 0.65849 0.0
C263 C 0.3362 0.63983 0.66542 0.0
C264 C 0.34538 0.67144 0.6457 0.0
C265 C 0.33868 0.73929 0.65701 0.0
C266 C 0.3175 0.6696 0.6372 0.0
C267 C 0.32793 0.67417 0.62522 0.0
C268 C 0.36648 0.68082 0.62161 0.0
C269 C 0.39344 0.68078 0.63015 0.0
C270 C 0.38294 0.67603 0.64204 0.0
H271 H 0.34307 0.76517 0.6627 0.0
H272 H 0.36418 0.75079 0.65056 0.0
H273 H 0.30978 0.72827 0.65201 0.0
H274 H 0.28812 0.66558 0.63985 0.0
H275 H 0.30646 0.67399 0.61887 0.0
H276 H 0.67638 0.29919 0.05619 0.0
H277 H 0.66816 0.28079 0.0352 0.0
H278 H 0.6804 0.39762 0.02655 0.0
H279 H 0.68827 0.41605 0.04732 0.0
H280 H 0.6177 0.32995 0.01376 0.0
H281 H 0.76808 0.33542 0.01254 0.0
H282 H 0.73091 0.30214 0.02315 0.0
H283 H 0.75355 0.35654 0.02465 0.0
C284 C 0.67667 0.32066 0.04982 0.0
C285 C 0.68339 0.35926 0.05343 0.0
C286 C 0.67222 0.31019 0.03784 0.0
C287 C 0.67423 0.33809 0.02932 0.0
C288 C 0.67886 0.37569 0.03297 0.0
H289 H 0.752 0.41776 0.9613 0.0
H290 H 0.74122 0.39837 0.98198 0.0
C291 C 0.6835 0.38622 0.04487 0.0
C292 C 0.67411 0.32997 0.01653 0.0
H293 H 0.73591 0.33027 0.99449 0.0
C294 C 0.64303 0.32905 0.00952 0.0
C295 C 0.70743 0.32918 0.01107 0.0
C296 C 0.74212 0.33108 0.01817 0.0
C297 C 0.6454 0.32947 0.99718 0.0
C298 C 0.6796 0.33045 0.99172 0.0
C299 C 0.70961 0.32923 0.99872 0.0
C300 C 0.68783 0.33906 0.97896 0.0
C301 C 0.61275 0.33168 0.99009 0.0
C302 C 0.66202 0.31159 0.97033 0.0
C303 C 0.66815 0.32261 0.9584 0.0
C304 C 0.70008 0.36135 0.95496 0.0
C305 C 0.7269 0.38784 0.96362 0.0
C306 C 0.72088 0.37676 0.97547 0.0
H307 H 0.59107 0.3359 0.99573 0.0
H308 H 0.62689 0.35734 0.9837 0.0
H309 H 0.59506 0.30291 0.98501 0.0
H310 H 0.63662 0.2821 0.97284 0.0
H311 H 0.64699 0.30149 0.95195 0.0
H312 H 0.38543 0.76069 0.2913 0.0
H313 H 0.39261 0.75461 0.31245 0.0
H314 H 0.33365 0.62329 0.30888 0.0
H315 H 0.32891 0.62972 0.28757 0.0
H316 H 0.33225 0.72225 0.32632 0.0
H317 H 0.41637 0.6388 0.33284 0.0
H318 H 0.41471 0.66015 0.31879 0.0
H319 H 0.37323 0.61107 0.32332 0.0
C320 C 0.3753 0.73067 0.295 0.0
C321 C 0.35676 0.69569 0.28784 0.0
C322 C 0.37925 0.72715 0.3071 0.0
C323 C 0.3638 0.68848 0.31235 0.0
C324 C 0.34683 0.65356 0.30509 0.0
H325 H 0.26623 0.65175 0.38291 0.0
H326 H 0.27602 0.64753 0.3618 0.0
C327 C 0.34391 0.6572 0.2929 0.0
C328 C 0.36045 0.68472 0.32541 0.0
H329 H 0.37667 0.63977 0.34935 0.0
C330 C 0.34248 0.70456 0.33132 0.0
C331 C 0.37394 0.66191 0.33205 0.0
C332 C 0.39603 0.64216 0.32643 0.0
C333 C 0.33725 0.702 0.34355 0.0
C334 C 0.3485 0.67726 0.35011 0.0
C335 C 0.36726 0.65802 0.3443 0.0
C336 C 0.34144 0.67193 0.36303 0.0
C337 C 0.32045 0.72668 0.34931 0.0
C338 C 0.37435 0.68379 0.37084 0.0
C339 C 0.36855 0.68503 0.38299 0.0
C340 C 0.32985 0.67491 0.38745 0.0
C341 C 0.29648 0.6602 0.37969 0.0
C342 C 0.30211 0.65808 0.36762 0.0
H343 H 0.32552 0.75302 0.34376 0.0
H344 H 0.28696 0.70697 0.35057 0.0
H345 H 0.3348 0.73858 0.35803 0.0
H346 H 0.40491 0.69425 0.36751 0.0
H347 H 0.3948 0.69658 0.38879 0.0
H348 H 0.71192 0.39054 0.72157 0.0
H349 H 0.72269 0.39968 0.70022 0.0
H350 H 0.64372 0.26987 0.69513 0.0
H351 H 0.63129 0.26099 0.71633 0.0
H352 H 0.74915 0.37221 0.68197 0.0
H353 H 0.58317 0.3149 0.67731 0.0
H354 H 0.60804 0.32568 0.69145 0.0
H355 H 0.59308 0.27787 0.68409 0.0
C356 C 0.6976 0.3639 0.71589 0.0
C357 C 0.67032 0.32514 0.72055 0.0
C358 C 0.70369 0.36915 0.7037 0.0
C359 C 0.68298 0.33564 0.69604 0.0
C360 C 0.65893 0.29638 0.70083 0.0
H361 H 0.70868 0.32349 0.62023 0.0
H362 H 0.72086 0.32802 0.64149 0.0
C363 C 0.6521 0.29127 0.71295 0.0
C364 C 0.68344 0.34192 0.68311 0.0
H365 H 0.6199 0.32263 0.65967 0.0
C366 C 0.72096 0.36164 0.67708 0.0
C367 C 0.64672 0.32912 0.67676 0.0
C368 C 0.60555 0.31115 0.68275 0.0
C369 C 0.72261 0.36789 0.66482 0.0
C370 C 0.68566 0.35298 0.65839 0.0
C371 C 0.64831 0.33395 0.66451 0.0
C372 C 0.68416 0.35616 0.64534 0.0
C373 C 0.76391 0.3911 0.65897 0.0
C374 C 0.65962 0.3705 0.64033 0.0
C375 C 0.65163 0.36669 0.62826 0.0
C376 C 0.6688 0.34936 0.62088 0.0
C377 C 0.69557 0.33753 0.62572 0.0
C378 C 0.70271 0.34033 0.63788 0.0
H379 H 0.78776 0.412 0.66527 0.0
H380 H 0.77301 0.36905 0.6557 0.0
H381 H 0.76329 0.40937 0.6514 0.0
H382 H 0.64503 0.38297 0.64585 0.0
H383 H 0.6309 0.37607 0.62474 0.0
H384 H 0.36803 0.62959 0.21976 0.0
H385 H 0.38289 0.63414 0.19866 0.0
H386 H 0.3903 0.75194 0.19741 0.0
H387 H 0.37671 0.74818 0.21848 0.0
H388 H 0.33357 0.63598 0.1823 0.0
H389 H 0.48574 0.77403 0.1769 0.0
H390 H 0.46674 0.75025 0.19104 0.0
H391 H 0.45131 0.78463 0.18503 0.0
C392 C 0.37389 0.65693 0.21505 0.0
C393 C 0.37108 0.68846 0.2208 0.0
C394 C 0.38232 0.65948 0.20298 0.0
C395 C 0.38814 0.69357 0.19644 0.0
C396 C 0.38698 0.72579 0.20228 0.0
H397 H 0.35699 0.73428 0.12354 0.0
H398 H 0.37115 0.74127 0.14475 0.0
C399 C 0.37886 0.72342 0.21435 0.0
C400 C 0.39031 0.69321 0.18338 0.0
H401 H 0.44395 0.7495 0.15946 0.0
C402 C 0.35807 0.66052 0.17733 0.0
C403 C 0.42211 0.7254 0.17686 0.0
C404 C 0.45862 0.76034 0.1828 0.0
C405 C 0.35614 0.65965 0.165 0.0
C406 C 0.38742 0.69219 0.15851 0.0
C407 C 0.41998 0.72469 0.16449 0.0
C408 C 0.38586 0.69278 0.1455 0.0
C409 C 0.32 0.62444 0.15898 0.0
C410 C 0.39098 0.66427 0.13888 0.0
C411 C 0.38298 0.66021 0.1268 0.0
C412 C 0.36966 0.68461 0.12112 0.0
C413 C 0.36715 0.71501 0.12765 0.0
C414 C 0.37523 0.71906 0.13976 0.0
H415 H 0.29516 0.60536 0.16527 0.0
H416 H 0.30742 0.63591 0.15209 0.0
H417 H 0.33012 0.60464 0.15462 0.0
H418 H 0.39945 0.64392 0.14316 0.0
H419 H 0.38546 0.63665 0.12203 0.0
H420 H 0.75069 0.36275 0.45674 0.0
H421 H 0.75301 0.37577 0.47785 0.0
H422 H 0.63981 0.37751 0.47539 0.0
H423 H 0.6365 0.36305 0.45426 0.0
H424 H 0.75387 0.43417 0.49209 0.0
H425 H 0.61033 0.28614 0.49863 0.0
H426 H 0.63717 0.30015 0.48477 0.0
H427 H 0.60488 0.3206 0.48893 0.0
C428 C 0.72647 0.36638 0.46064 0.0
C429 C 0.69304 0.36122 0.45384 0.0
C430 C 0.72791 0.3739 0.47273 0.0
C431 C 0.69609 0.3766 0.47826 0.0
C432 C 0.66414 0.37441 0.47136 0.0
H433 H 0.63926 0.37733 0.55236 0.0
H434 H 0.64639 0.39047 0.53121 0.0
C435 C 0.66244 0.36644 0.45927 0.0
C436 C 0.69519 0.37891 0.49131 0.0
H437 H 0.63928 0.32719 0.51544 0.0
C438 C 0.72875 0.41088 0.4972 0.0
C439 C 0.66259 0.34823 0.49799 0.0
C440 C 0.62689 0.31162 0.49229 0.0
C441 C 0.73043 0.41303 0.50957 0.0
C442 C 0.69781 0.3824 0.51618 0.0
C443 C 0.6641 0.3508 0.51032 0.0
C444 C 0.69825 0.38129 0.52922 0.0
C445 C 0.76691 0.44801 0.51549 0.0
C446 C 0.72566 0.37261 0.53516 0.0
C447 C 0.72157 0.36486 0.54728 0.0
C448 C 0.68991 0.36556 0.55364 0.0
C449 C 0.66395 0.37646 0.54775 0.0
C450 C 0.66795 0.384 0.53565 0.0
H451 H 0.78508 0.47348 0.50929 0.0
H452 H 0.75706 0.45993 0.52301 0.0
H453 H 0.78706 0.43691 0.51901 0.0
H454 H 0.74889 0.36979 0.53033 0.0
H455 H 0.74196 0.35642 0.55155 0.0
H456 H 0.40058 0.74414 0.79053 0.0
H457 H 0.38914 0.74624 0.8116 0.0
H458 H 0.27439 0.63308 0.80878 0.0
H459 H 0.28628 0.63001 0.78769 0.0
H460 H 0.33081 0.7469 0.82559 0.0
H461 H 0.33559 0.6035 0.83229 0.0
H462 H 0.34893 0.63047 0.81847 0.0
H463 H 0.29607 0.59813 0.82243 0.0
C464 C 0.37263 0.71988 0.79434 0.0
C465 C 0.34461 0.68654 0.78746 0.0
C466 C 0.36612 0.7212 0.8064 0.0
C467 C 0.33141 0.68933 0.81183 0.0
C468 C 0.30195 0.65746 0.80483 0.0
H469 H 0.27352 0.63245 0.88595 0.0
H470 H 0.26719 0.63902 0.86478 0.0
C471 C 0.30864 0.65588 0.79277 0.0
C472 C 0.32771 0.68834 0.82486 0.0
H473 H 0.32312 0.63248 0.84903 0.0
C474 C 0.32894 0.72181 0.83072 0.0
C475 C 0.32569 0.65575 0.83156 0.0
C476 C 0.32688 0.62011 0.8259 0.0
C477 C 0.3281 0.72346 0.84308 0.0
C478 C 0.32616 0.69091 0.84972 0.0
C479 C 0.3243 0.65724 0.84388 0.0
C480 C 0.32774 0.69152 0.86276 0.0
C481 C 0.32925 0.75988 0.84896 0.0
C482 C 0.36364 0.71945 0.86869 0.0
C483 C 0.36749 0.71569 0.88082 0.0
C484 C 0.3355 0.68385 0.8872 0.0
C485 C 0.29879 0.65731 0.88132 0.0
C486 C 0.29507 0.66098 0.86921 0.0
H487 H 0.3214 0.7776 0.84273 0.0
H488 H 0.30775 0.75006 0.85652 0.0
H489 H 0.36055 0.78046 0.85238 0.0
H490 H 0.38946 0.74286 0.86384 0.0
H491 H 0.3962 0.73654 0.88507 0.0
H492 H 0.64867 0.38218 0.12215 0.0
H493 H 0.6358 0.3749 0.14333 0.0
H494 H 0.66269 0.27654 0.14426 0.0
H495 H 0.67571 0.28352 0.12299 0.0
H496 H 0.59125 0.26897 0.15943 0.0
H497 H 0.74084 0.41246 0.16493 0.0
H498 H 0.70553 0.4137 0.15454 0.0
H499 H 0.72761 0.38203 0.15167 0.0
C500 C 0.65108 0.35841 0.12679 0.0
C501 C 0.66368 0.33371 0.1209 0.0
C502 C 0.64372 0.35435 0.1389 0.0
C503 C 0.64879 0.32555 0.14535 0.0
C504 C 0.65867 0.29898 0.13941 0.0
H505 H 0.6606 0.27057 0.21821 0.0
H506 H 0.64646 0.26667 0.19718 0.0
C507 C 0.66609 0.30302 0.12726 0.0
C508 C 0.64791 0.32611 0.15837 0.0
H509 H 0.70291 0.38232 0.18206 0.0
C510 C 0.61552 0.29373 0.16442 0.0
C511 C 0.67959 0.35858 0.16481 0.0
C512 C 0.71559 0.39363 0.15872 0.0
C513 C 0.6139 0.29312 0.1768 0.0
C514 C 0.64604 0.32528 0.18325 0.0
C515 C 0.67814 0.35781 0.17714 0.0
C516 C 0.64866 0.32506 0.19631 0.0
C517 C 0.57755 0.25832 0.18282 0.0
C518 C 0.65468 0.35922 0.20289 0.0
C519 C 0.6634 0.36182 0.21494 0.0
C520 C 0.66632 0.33032 0.22063 0.0
C521 C 0.65839 0.29532 0.21412 0.0
C522 C 0.64996 0.29287 0.20208 0.0
H523 H 0.55023 0.24458 0.177 0.0
H524 H 0.58486 0.23403 0.185 0.0
H525 H 0.56976 0.26859 0.1911 0.0
H526 H 0.65402 0.38453 0.19862 0.0
H527 H 0.66938 0.3892 0.21969 0.0
H528 H 0.38847 0.64465 0.5531 0.0
H529 H 0.38058 0.63064 0.53198 0.0
H530 H 0.28201 0.65721 0.53094 0.0
H531 H 0.28961 0.67139 0.55216 0.0
H532 H 0.27462 0.58468 0.51602 0.0
H533 H 0.41684 0.73503 0.51004 0.0
H534 H 0.41862 0.70053 0.52063 0.0
H535 H 0.3865 0.72222 0.5233 0.0
C536 C 0.36451 0.64674 0.54846 0.0
C537 C 0.33994 0.6596 0.55429 0.0
C538 C 0.3601 0.63871 0.53638 0.0
C539 C 0.33105 0.64334 0.52992 0.0
C540 C 0.30462 0.6535 0.53581 0.0
H541 H 0.27419 0.65095 0.45697 0.0
H542 H 0.27062 0.63747 0.47803 0.0
C543 C 0.30902 0.66159 0.54792 0.0
C544 C 0.3313 0.64187 0.5169 0.0
H545 H 0.38657 0.69621 0.49305 0.0
C546 C 0.29907 0.60892 0.51096 0.0
C547 C 0.36337 0.6735 0.51037 0.0
C548 C 0.39826 0.71005 0.51635 0.0
C549 C 0.29822 0.60671 0.49859 0.0
C550 C 0.32999 0.6388 0.49203 0.0
C551 C 0.36237 0.67148 0.49804 0.0
C552 C 0.32951 0.64076 0.47897 0.0
C553 C 0.26363 0.5698 0.49268 0.0
C554 C 0.36381 0.6471 0.47241 0.0
C555 C 0.36623 0.65545 0.46035 0.0
C556 C 0.33438 0.65766 0.45462 0.0
C557 C 0.29921 0.64928 0.46108 0.0
C558 C 0.29695 0.64124 0.47315 0.0
H559 H 0.25034 0.54277 0.4986 0.0
H560 H 0.23897 0.57655 0.49045 0.0
H561 H 0.27395 0.56186 0.48444 0.0
H562 H 0.38939 0.64705 0.47672 0.0
H563 H 0.39373 0.66178 0.45563 0.0
H564 H 0.7508 0.39366 0.88457 0.0
H565 H 0.75322 0.38245 0.8635 0.0
H566 H 0.64011 0.26759 0.8661 0.0
H567 H 0.63671 0.27926 0.88718 0.0
H568 H 0.75418 0.32454 0.84942 0.0
H569 H 0.61054 0.32883 0.84264 0.0
H570 H 0.63736 0.34201 0.8565 0.0
H571 H 0.60515 0.2892 0.85244 0.0
C572 C 0.72663 0.36572 0.88071 0.0
C573 C 0.6932 0.33762 0.88753 0.0
C574 C 0.72812 0.35935 0.86865 0.0
C575 C 0.69635 0.32469 0.86316 0.0
C576 C 0.66441 0.29512 0.87009 0.0
H577 H 0.63979 0.26641 0.78903 0.0
H578 H 0.6467 0.26033 0.8102 0.0
C579 C 0.66265 0.30168 0.88216 0.0
C580 C 0.69548 0.32115 0.85011 0.0
H581 H 0.63961 0.31641 0.82591 0.0
C582 C 0.72906 0.32259 0.84428 0.0
C583 C 0.66286 0.31904 0.84339 0.0
C584 C 0.62712 0.32008 0.84903 0.0
C585 C 0.73077 0.32183 0.83191 0.0
C586 C 0.69817 0.31972 0.82525 0.0
C587 C 0.66441 0.31771 0.83107 0.0
C588 C 0.69874 0.32119 0.81221 0.0
C589 C 0.7673 0.3232 0.82605 0.0
C590 C 0.72632 0.35719 0.80628 0.0
C591 C 0.72236 0.36091 0.79415 0.0
C592 C 0.69066 0.32868 0.78778 0.0
C593 C 0.66453 0.29187 0.79366 0.0
C594 C 0.66839 0.28829 0.80577 0.0
H595 H 0.78529 0.31575 0.83229 0.0
H596 H 0.75754 0.30149 0.81852 0.0
H597 H 0.7876 0.35444 0.82257 0.0
H598 H 0.74957 0.38318 0.81112 0.0
H599 H 0.74289 0.38968 0.7899 0.0
H600 H 0.83792 0.39207 0.09435 0.0
H601 H 0.91095 0.41619 0.09555 0.0
H602 H 0.93713 0.54102 0.09339 0.0
H603 H 0.86352 0.51712 0.09213 0.0
H604 H 0.97088 0.46698 0.07784 0.0
H605 H 1.00461 0.53743 0.12244 0.0
H606 H 0.95348 0.5 0.11784 0.0
H607 H 0.9764 0.55168 0.11263 0.0
C608 C 0.85899 0.42475 0.09423 0.0
C609 C 0.84464 0.45266 0.09314 0.0
C610 C 0.90084 0.43843 0.09489 0.0
C611 C 0.92946 0.48034 0.09462 0.0
C612 C 0.91548 0.5085 0.09375 0.0
H613 H 0.19314 0.62173 0.0958 0.0
H614 H 0.11983 0.59582 0.09666 0.0
C615 C 0.87342 0.4948 0.093 0.0
C616 C 0.97389 0.49409 0.09475 0.0
H617 H 0.06071 0.54455 0.11132 0.0
C618 C 0.99058 0.48388 0.08516 0.0
C619 C 0.99942 0.51607 0.10431 0.0
C620 C 0.98273 0.52682 0.11496 0.0
C621 C 0.03234 0.49582 0.08475 0.0
C622 C 0.05796 0.51762 0.09437 0.0
C623 C 0.04111 0.52764 0.10399 0.0
C624 C 0.10273 0.53234 0.09433 0.0
C625 C 0.04879 0.48613 0.07385 0.0
C626 C 0.11789 0.50521 0.09297 0.0
C627 C 0.1602 0.52004 0.09238 0.0
C628 C 0.18815 0.56225 0.09326 0.0
C629 C 0.17271 0.58902 0.09503 0.0
C630 C 0.13064 0.57426 0.09555 0.0
H631 H 0.02796 0.47913 0.0662 0.0
H632 H 0.07937 0.51202 0.07146 0.0
H633 H 0.05193 0.45886 0.07553 0.0
H634 H 0.09702 0.47259 0.0923 0.0
H635 H 0.17094 0.49852 0.09108 0.0
H636 H 0.67456 0.1609 0.42393 0.0
H637 H 0.62381 0.08751 0.42504 0.0
H638 H 0.52679 0.11609 0.42729 0.0
H639 H 0.57669 0.18888 0.42628 0.0
H640 H 0.55688 0.04428 0.44383 0.0
H641 H 0.49942 0.03535 0.39821 0.0
H642 H 0.54953 0.07506 0.40286 0.0
H643 H 0.50485 0.07712 0.4072 0.0
C644 C 0.64245 0.15157 0.42473 0.0
C645 C 0.62983 0.18094 0.42497 0.0
C646 C 0.61352 0.10965 0.42536 0.0
C647 C 0.57154 0.09643 0.42611 0.0
C648 C 0.55898 0.12562 0.42658 0.0
H649 H 0.3482 0.85683 0.42259 0.0
H650 H 0.39706 0.93061 0.42382 0.0
C651 C 0.58772 0.16732 0.42604 0.0
C652 C 0.54049 0.05219 0.42631 0.0
H653 H 0.46364 0.97658 0.41006 0.0
C654 C 0.5366 0.02935 0.43644 0.0
C655 C 0.5137 0.03302 0.41672 0.0
C656 C 0.51702 0.05616 0.40557 0.0
C657 C 0.50633 0.98783 0.43728 0.0
C658 C 0.4799 0.96835 0.42759 0.0
C659 C 0.48372 0.99142 0.41749 0.0
C660 C 0.44958 0.92369 0.42751 0.0
C661 C 0.50242 0.96552 0.44865 0.0
C662 C 0.46275 0.89524 0.42912 0.0
C663 C 0.435 0.8533 0.42851 0.0
C664 C 0.39328 0.83852 0.4261 0.0
C665 C 0.37999 0.86704 0.42452 0.0
C666 C 0.40792 0.90923 0.42519 0.0
H667 H 0.51482 0.98706 0.4562 0.0
H668 H 0.47004 0.9425 0.45053 0.0
H669 H 0.52025 0.94948 0.44796 0.0
H670 H 0.49479 0.90546 0.43061 0.0
H671 H 0.44661 0.83245 0.42969 0.0
H672 H 0.62994 0.44281 0.7623 0.0
H673 H 0.60469 0.49085 0.76309 0.0
H674 H 0.48188 0.39238 0.75684 0.0
H675 H 0.50696 0.34351 0.75598 0.0
H676 H 0.56062 0.50368 0.74409 0.0
H677 H 0.47347 0.45631 0.78614 0.0
H678 H 0.5127 0.44385 0.7826 0.0
H679 H 0.46347 0.41646 0.77568 0.0
C680 C 0.59743 0.43102 0.76118 0.0
C681 C 0.57049 0.38908 0.75906 0.0
C682 C 0.5831 0.45871 0.76162 0.0
C683 C 0.54144 0.44524 0.76008 0.0
C684 C 0.51414 0.40336 0.75818 0.0
H685 H 0.40246 0.5711 0.75901 0.0
H686 H 0.42636 0.522 0.75975 0.0
C687 C 0.52853 0.37548 0.75767 0.0
C688 C 0.52733 0.47565 0.75997 0.0
H689 H 0.47126 0.50852 0.77534 0.0
C690 C 0.54108 0.5048 0.75091 0.0
C691 C 0.50187 0.47699 0.76888 0.0
C692 C 0.4871 0.44698 0.77895 0.0
C693 C 0.52954 0.53491 0.75041 0.0
C694 C 0.50446 0.5367 0.75941 0.0
C695 C 0.49068 0.5074 0.76847 0.0
C696 C 0.4907 0.56751 0.75934 0.0
C697 C 0.54339 0.56372 0.74004 0.0
C698 C 0.51888 0.60979 0.75907 0.0
C699 C 0.50525 0.63824 0.75854 0.0
C700 C 0.46314 0.62496 0.75843 0.0
C701 C 0.43514 0.58263 0.75906 0.0
C702 C 0.44874 0.55435 0.7595 0.0
H703 H 0.55244 0.5513 0.73247 0.0
H704 H 0.5189 0.56987 0.73711 0.0
H705 H 0.57043 0.5932 0.74264 0.0
H706 H 0.55145 0.62083 0.75925 0.0
H707 H 0.52766 0.67054 0.75815 0.0
H708 H 0.50584 0.16733 0.58476 0.0
H709 H 0.48078 0.09336 0.58374 0.0
H710 H 0.60397 0.11773 0.57822 0.0
H711 H 0.62921 0.19099 0.57914 0.0
H712 H 0.49675 0.04613 0.56423 0.0
H713 H 0.55813 0.04124 0.60832 0.0
H714 H 0.54787 0.08139 0.60407 0.0
H715 H 0.59247 0.08134 0.59859 0.0
C716 C 0.52753 0.15694 0.58324 0.0
C717 C 0.56959 0.18528 0.5821 0.0
C718 C 0.51317 0.11469 0.58266 0.0
C719 C 0.54064 0.10015 0.58105 0.0
C720 C 0.58233 0.1283 0.57961 0.0
H721 H 0.52402 0.86077 0.58362 0.0
H722 H 0.5481 0.9343 0.58218 0.0
C723 C 0.59664 0.17029 0.58011 0.0
C724 C 0.52632 0.05563 0.58104 0.0
H725 H 0.5315 0.98123 0.59677 0.0
C726 C 0.50405 0.03179 0.57137 0.0
C727 C 0.53644 0.03721 0.59029 0.0
C728 C 0.55981 0.0614 0.60097 0.0
C729 C 0.49209 0.99004 0.57061 0.0
C730 C 0.50181 0.9714 0.57994 0.0
C731 C 0.52417 0.99542 0.58961 0.0
C732 C 0.48766 0.92677 0.5801 0.0
C733 C 0.47008 0.96661 0.55968 0.0
C734 C 0.44577 0.89805 0.57945 0.0
C735 C 0.43202 0.85619 0.58019 0.0
C736 C 0.45976 0.84184 0.58176 0.0
C737 C 0.50182 0.87064 0.58236 0.0
C738 C 0.5156 0.91269 0.58156 0.0
H739 H 0.47674 0.98736 0.55204 0.0
H740 H 0.47875 0.94334 0.55736 0.0
H741 H 0.43659 0.95069 0.56127 0.0
H742 H 0.42348 0.908 0.57865 0.0
H743 H 0.39936 0.8351 0.57977 0.0
H744 H 0.35091 0.50165 0.91904 0.0
H745 H 0.39982 0.47651 0.9182 0.0
H746 H 0.49879 0.59972 0.91301 0.0
H747 H 0.45079 0.62503 0.91376 0.0
H748 H 0.46355 0.49307 0.89877 0.0
H749 H 0.5285 0.55281 0.94312 0.0
H750 H 0.47818 0.54259 0.93878 0.0
H751 H 0.52285 0.58744 0.93347 0.0
C752 C 0.38304 0.52333 0.91765 0.0
C753 C 0.39679 0.5654 0.91653 0.0
C754 C 0.41092 0.50893 0.91717 0.0
C755 C 0.45295 0.53637 0.91568 0.0
C756 C 0.46656 0.5781 0.9143 0.0
H757 H 0.67607 0.52065 0.91822 0.0
H758 H 0.62621 0.54428 0.91696 0.0
C759 C 0.43889 0.59245 0.9147 0.0
C760 C 0.4831 0.52198 0.91569 0.0
H761 H 0.5623 0.52668 0.93153 0.0
C762 C 0.48499 0.50011 0.90595 0.0
C763 C 0.51136 0.53176 0.92501 0.0
C764 C 0.51018 0.55471 0.93575 0.0
C765 C 0.51486 0.48824 0.90519 0.0
C766 C 0.54296 0.49765 0.91458 0.0
C767 C 0.54096 0.51957 0.92432 0.0
C768 C 0.57365 0.48375 0.9147 0.0
C769 C 0.51666 0.4667 0.8942 0.0
C770 C 0.5608 0.44195 0.9139 0.0
C771 C 0.58914 0.42845 0.91453 0.0
C772 C 0.63114 0.45636 0.91615 0.0
C773 C 0.64407 0.49832 0.91693 0.0
C774 C 0.61557 0.51185 0.91624 0.0
H775 H 0.50259 0.47349 0.88657 0.0
H776 H 0.54868 0.47567 0.89191 0.0
H777 H 0.4993 0.43316 0.89567 0.0
H778 H 0.52862 0.41953 0.91303 0.0
H779 H 0.57784 0.39586 0.91399 0.0
H780 H 0.17222 0.67412 0.25199 0.0
H781 H 0.09833 0.62487 0.25105 0.0
H782 H 0.12353 0.52613 0.24662 0.0
H783 H 0.19671 0.57449 0.24744 0.0
H784 H 0.05248 0.55917 0.23156 0.0
H785 H 0.04555 0.4986 0.27664 0.0
H786 H 0.08518 0.54894 0.27216 0.0
H787 H 0.08675 0.50445 0.26732 0.0
C788 C 0.16202 0.64197 0.25074 0.0
C789 C 0.19057 0.6284 0.24984 0.0
C790 C 0.11983 0.6139 0.25021 0.0
C791 C 0.10556 0.57184 0.24889 0.0
C792 C 0.13391 0.55839 0.24775 0.0
H793 H 0.86731 0.34838 0.25195 0.0
H794 H 0.94075 0.39827 0.25073 0.0
C795 C 0.17584 0.58625 0.2482 0.0
C796 C 0.06111 0.54152 0.24884 0.0
H797 H 0.98614 0.46378 0.26494 0.0
C798 C 0.03781 0.53847 0.23888 0.0
C799 C 0.04231 0.5142 0.25832 0.0
C800 C 0.06601 0.51664 0.26928 0.0
C801 C 0.9962 0.50836 0.23809 0.0
C802 C 0.97717 0.48123 0.24765 0.0
C803 C 1.00065 0.48438 0.2576 0.0
C804 C 0.93265 0.45044 0.24772 0.0
C805 C 0.97337 0.50526 0.22688 0.0
C806 C 0.90363 0.46306 0.24648 0.0
C807 C 0.86182 0.43471 0.2471 0.0
C808 C 0.84782 0.39292 0.24913 0.0
C809 C 0.87691 0.3802 0.25032 0.0
C810 C 0.91892 0.40873 0.24966 0.0
H811 H 0.99456 0.51861 0.21929 0.0
H812 H 0.95058 0.47297 0.22479 0.0
H813 H 0.95694 0.5226 0.22795 0.0
H814 H 0.9133 0.49511 0.24529 0.0
H815 H 0.84048 0.44585 0.24622 0.0
H816 H 0.6143 0.42764 0.10249 0.0
H817 H 0.55771 0.44143 0.10378 0.0
H818 H 0.62603 0.55053 0.08297 0.0
H819 H 0.68248 0.53624 0.08134 0.0
H820 H 0.54814 0.50261 0.1122 0.0
H821 H 0.52224 0.48998 0.06398 0.0
H822 H 0.55629 0.47598 0.07103 0.0
H823 H 0.57294 0.52886 0.06804 0.0
C824 C 0.61755 0.45481 0.09827 0.0
C825 C 0.65285 0.48063 0.09171 0.0
C826 C 0.58506 0.46264 0.09901 0.0
C827 C 0.58708 0.49647 0.09324 0.0
C828 C 0.62321 0.52358 0.08723 0.0
H829 H 0.41961 0.58968 0.10307 0.0
H830 H 0.47545 0.57492 0.10452 0.0
C831 C 0.65567 0.5156 0.0864 0.0
C832 C 0.5509 0.5025 0.09327 0.0
H833 H 0.48383 0.51212 0.07519 0.0
C834 C 0.53404 0.50463 0.10411 0.0
C835 C 0.53183 0.50421 0.08272 0.0
C836 C 0.54644 0.49922 0.07079 0.0
C837 C 0.49921 0.50912 0.10468 0.0
C838 C 0.4812 0.51255 0.09412 0.0
C839 C 0.4977 0.50978 0.08329 0.0
C840 C 0.44568 0.51965 0.09402 0.0
C841 C 0.48161 0.50925 0.1166 0.0
C842 C 0.41024 0.4938 0.08753 0.0
C843 C 0.37831 0.50249 0.08656 0.0
C844 C 0.38116 0.53726 0.09205 0.0
C845 C 0.41615 0.56242 0.09881 0.0
C846 C 0.44814 0.55389 0.09971 0.0
H847 H 0.49018 0.49339 0.12328 0.0
H848 H 0.494 0.54134 0.11956 0.0
H849 H 0.44773 0.49426 0.11627 0.0
H850 H 0.40761 0.46726 0.08303 0.0
H851 H 0.35192 0.48257 0.08124 0.0
H852 H 0.87494 0.35284 0.40955 0.0
H853 H 0.94482 0.40997 0.41168 0.0
H854 H 0.90848 0.4518 0.4423 0.0
H855 H 0.83823 0.39553 0.43997 0.0
H856 H 0.95012 0.51322 0.42795 0.0
H857 H 0.03667 0.43167 0.43335 0.0
H858 H 1.00661 0.41623 0.42016 0.0
H859 H 0.98159 0.4058 0.43428 0.0
C860 C 0.882 0.37369 0.41688 0.0
C861 C 0.851 0.36951 0.42461 0.0
C862 C 0.92211 0.40636 0.41812 0.0
C863 C 0.93227 0.4351 0.42725 0.0
C864 C 0.90155 0.43011 0.4352 0.0
H865 H 0.1873 0.62104 0.44056 0.0
H866 H 0.11708 0.56447 0.44268 0.0
C867 C 0.86139 0.39777 0.43388 0.0
C868 C 0.974 0.47189 0.428 0.0
H869 H 0.07594 0.50268 0.42825 0.0
C870 C 0.9776 0.51084 0.42814 0.0
C871 C 1.01002 0.46906 0.42843 0.0
C872 C 1.00857 0.42842 0.42918 0.0
C873 C 0.01601 0.54683 0.42838 0.0
C874 C 0.05205 0.544 0.42812 0.0
C875 C 0.04844 0.50505 0.42831 0.0
C876 C 0.09378 0.58081 0.42747 0.0
C877 C 0.01742 0.58747 0.42907 0.0
C878 C 0.1042 0.6094 0.41832 0.0
C879 C 0.14425 0.6422 0.4172 0.0
C880 C 0.17499 0.64671 0.42507 0.0
C881 C 0.16436 0.61856 0.43436 0.0
C882 C 0.12421 0.58605 0.43555 0.0
H883 H 0.98915 0.58423 0.43314 0.0
H884 H 0.04418 0.61012 0.43425 0.0
H885 H 0.01973 0.59961 0.42004 0.0
H886 H 0.08171 0.60559 0.41177 0.0
H887 H 0.15149 0.66296 0.40985 0.0
H888 H 0.50395 0.14707 0.74302 0.0
H889 H 0.49096 0.07709 0.74506 0.0
H890 H 0.56646 0.11221 0.7762 0.0
H891 H 0.58068 0.1826 0.77396 0.0
H892 H 0.58716 0.07065 0.76194 0.0
H893 H 0.41877 0.98492 0.76636 0.0
H894 H 0.43449 0.0154 0.75326 0.0
H895 H 0.44814 0.03994 0.76747 0.0
C896 C 0.51712 0.13973 0.75044 0.0
C897 C 0.54325 0.17044 0.75835 0.0
C898 C 0.50954 0.09957 0.75163 0.0
C899 C 0.52726 0.08903 0.76088 0.0
C900 C 0.55234 0.11944 0.76899 0.0
H901 H 0.45534 0.83309 0.77361 0.0
H902 H 0.46958 0.90349 0.77589 0.0
C903 C 0.56031 0.15968 0.76774 0.0
C904 C 0.52205 0.04718 0.76161 0.0
H905 H 0.45048 0.94542 0.76139 0.0
C906 C 0.55722 0.04328 0.76194 0.0
C907 C 0.48308 0.01132 0.7618 0.0
C908 C 0.44401 0.01306 0.76234 0.0
C909 C 0.55453 1.00473 0.76214 0.0
C910 C 0.51559 0.96888 0.76164 0.0
C911 C 0.48041 0.97278 0.76164 0.0
C912 C 0.51042 0.92704 0.76093 0.0
C913 C 0.59353 1.00297 0.76304 0.0
C914 C 0.52909 0.91669 0.75187 0.0
C915 C 0.52149 0.87652 0.75066 0.0
C916 C 0.49441 0.84561 0.75835 0.0
C917 C 0.47644 0.85617 0.76755 0.0
C918 C 0.48442 0.89642 0.76884 0.0
H919 H 0.61834 0.031 0.76726 0.0
H920 H 0.58886 0.97594 0.76817 0.0
H921 H 0.60397 1.00089 0.75406 0.0
H922 H 0.54841 0.93934 0.74546 0.0
H923 H 0.53539 0.86933 0.74338 0.0
H924 H 0.54409 0.68079 0.59352 0.0
H925 H 0.55949 0.62513 0.59165 0.0
H926 H 0.44978 0.55563 0.57111 0.0
H927 H 0.43493 0.61139 0.57263 0.0
H928 H 0.51587 0.54942 0.59988 0.0
H929 H 0.52945 0.54 0.55165 0.0
H930 H 0.52909 0.58279 0.55865 0.0
H931 H 0.4818 0.53623 0.55578 0.0
C932 C 0.52373 0.65402 0.58839 0.0
C933 C 0.48838 0.65069 0.58318 0.0
C934 C 0.53246 0.62211 0.58737 0.0
C935 C 0.50608 0.58623 0.58112 0.0
C936 C 0.47122 0.58327 0.57572 0.0
H937 H 0.49004 0.35013 0.59411 0.0
H938 H 0.47606 0.40678 0.59255 0.0
C939 C 0.46264 0.61522 0.57666 0.0
C940 C 0.51332 0.5508 0.58097 0.0
H941 H 0.52109 0.48256 0.56282 0.0
C942 C 0.51729 0.53501 0.59176 0.0
C943 C 0.51557 0.53207 0.57039 0.0
C944 C 0.51418 0.5489 0.55846 0.0
C945 C 0.52283 0.50086 0.5923 0.0
C946 C 0.52328 0.48103 0.58174 0.0
C947 C 0.52003 0.49722 0.57092 0.0
C948 C 0.52898 0.44465 0.58173 0.0
C949 C 0.52912 0.48702 0.60418 0.0
C950 C 0.56197 0.44593 0.57562 0.0
C951 C 0.56958 0.41329 0.57632 0.0
C952 C 0.5444 0.37859 0.58317 0.0
C953 C 0.51019 0.37647 0.58882 0.0
C954 C 0.50241 0.40905 0.58803 0.0
H955 H 0.53934 0.51175 0.61087 0.0
H956 H 0.49974 0.46088 0.60724 0.0
H957 H 0.55214 0.47692 0.60371 0.0
H958 H 0.58274 0.47284 0.57062 0.0
H959 H 0.59617 0.416 0.57184 0.0
H960 H 0.18838 0.57263 0.90108 0.0
H961 H 0.11802 0.55895 0.89925 0.0
H962 H 0.08514 0.48667 0.93096 0.0
H963 H 0.15507 0.49903 0.93261 0.0
H964 H 0.02522 0.45223 0.91524 0.0
H965 H 0.07365 0.61686 0.91868 0.0
H966 H 0.09636 0.60553 0.90643 0.0
H967 H 0.10839 0.59789 0.92121 0.0
C968 C 0.16602 0.55333 0.90758 0.0
C969 C 0.17743 0.53712 0.91704 0.0
C970 C 0.12586 0.5459 0.90659 0.0
C971 C 0.09645 0.5228 0.91516 0.0
C972 C 0.1073 0.50491 0.92429 0.0
H973 H 0.87468 0.52729 0.93233 0.0
H974 H 0.94457 0.53948 0.93062 0.0
C975 C 0.14733 0.5119 0.9252 0.0
C976 C 0.05471 0.51795 0.91483 0.0
H977 H 1.00359 0.57155 0.91454 0.0
C978 C 0.02051 0.47834 0.91507 0.0
C979 C 0.04843 0.55201 0.91483 0.0
C980 C 0.08362 0.59546 0.91539 0.0
C981 C 0.9804 0.47181 0.91529 0.0
C982 C 0.9741 0.50583 0.9149 0.0
C983 C 1.0083 0.54545 0.91468 0.0
C984 C 0.93237 0.50101 0.91526 0.0
C985 C 0.94527 0.42848 0.91637 0.0
C986 C 0.90246 0.47662 0.90694 0.0
C987 C 0.86236 0.46929 0.90797 0.0
C988 C 0.85147 0.48688 0.91721 0.0
C989 C 0.88203 0.51333 0.9251 0.0
C990 C 0.92202 0.52023 0.92415 0.0
H991 H 0.95548 0.40763 0.91993 0.0
H992 H 0.92088 0.42694 0.92219 0.0
H993 H 0.93195 0.41701 0.90753 0.0
H994 H 0.9099 0.46251 0.89977 0.0
H995 H 0.83964 0.44903 0.90168 0.0
H996 H 0.40638 0.8364 0.23451 0.0
H997 H 0.46325 0.90661 0.23267 0.0
H998 H 0.42295 0.94048 0.26409 0.0
H999 H 0.36519 0.87071 0.26574 0.0
H1000 H 0.44922 1.00008 0.2483 0.0
H1001 H 0.56473 0.95094 0.25238 0.0
H1002 H 0.53114 0.92812 0.24006 0.0
H1003 H 0.51093 0.91645 0.25479 0.0
C1004 C 0.40929 0.85895 0.24094 0.0
C1005 C 0.38136 0.84786 0.25032 0.0
C1006 C 0.44212 0.89901 0.23995 0.0
C1007 C 0.44823 0.92866 0.24845 0.0
C1008 C 0.41919 0.91814 0.25748 0.0
H1009 H 0.67435 0.15008 0.2658 0.0
H1010 H 0.61651 0.0803 0.26409 0.0
C1011 C 0.38605 0.8782 0.25839 0.0
C1012 C 0.48522 0.9703 0.24813 0.0
H1013 H 0.58989 0.02097 0.24811 0.0
C1014 C 0.47997 1.00463 0.24824 0.0
C1015 C 0.52547 0.97637 0.24827 0.0
C1016 C 0.53353 0.94105 0.24899 0.0
C1017 C 0.51363 0.04467 0.24848 0.0
C1018 C 0.55389 0.05075 0.24823 0.0
C1019 C 0.55914 0.01642 0.24814 0.0
C1020 C 0.59087 0.09239 0.2486 0.0
C1021 C 0.50558 0.07995 0.24942 0.0
C1022 C 0.59677 0.12218 0.24021 0.0
C1023 C 0.62961 0.16222 0.24124 0.0
C1024 C 0.65778 0.17315 0.25055 0.0
C1025 C 0.65329 0.14269 0.25852 0.0
C1026 C 0.62011 0.10276 0.25757 0.0
H1027 H 0.47444 0.06996 0.25289 0.0
H1028 H 0.52829 0.10441 0.25525 0.0
H1029 H 0.50776 0.09312 0.24055 0.0
H1030 H 0.57548 0.11471 0.23299 0.0
H1031 H 0.63238 0.18486 0.2349 0.0
loop_
_geom_bond_atom_site_label_1
_geom_bond_atom_site_label_2
_geom_bond_distance
_geom_bond_site_symmetry_2
_ccdc_geom_bond_type
O0 Cd1 2.223 . S
O0 C8 1.315 . S
Cd1 O0 2.223 . S
Cd1 O4 2.297 . S
Cd1 O5 2.439 . S
Cd1 O11 2.240 . S
Cd2 O3 2.240 . S
Cd2 O10 2.223 . S
Cd2 O12 2.297 . S
Cd2 O13 2.439 . S
O3 Cd2 2.240 . S
O3 C8 1.279 . S
O4 Cd1 2.297 . S
O4 C6 1.247 . S
O5 Cd1 2.439 . S
O5 C6 1.208 . S
C6 O4 1.247 . S
C6 O5 1.208 . S
C7 O12 1.247 . S
C7 O13 1.208 . S
C8 O0 1.315 . S
C8 O3 1.279 . S
C9 O10 1.315 . S
C9 O11 1.279 . S
O10 Cd2 2.223 . S
O10 C9 1.315 . S
O11 Cd1 2.240 . S
O11 C9 1.279 . S
O12 Cd2 2.297 . S
O12 C7 1.247 . S
O13 Cd2 2.439 . S
O13 C7 1.208 . S
O14 Cd15 2.223 . S
O14 C22 1.315 . S
Cd15 O14 2.223 . S
Cd15 O18 2.297 . S
Cd15 O19 2.439 . S
Cd15 O25 2.240 . S
Cd16 O17 2.240 . S
Cd16 O24 2.223 . S
Cd16 O26 2.297 . S
Cd16 O27 2.439 . S
O17 Cd16 2.240 . S
O17 C22 1.279 . S
O18 Cd15 2.297 . S
O18 C20 1.247 . S
O19 Cd15 2.439 . S
O19 C20 1.208 . S
C20 O18 1.247 . S
C20 O19 1.208 . S
C21 O26 1.247 . S
C21 O27 1.208 . S
C22 O14 1.315 . S
C22 O17 1.279 . S
C23 O24 1.315 . S
C23 O25 1.279 . S
O24 Cd16 2.223 . S
O24 C23 1.315 . S
O25 Cd15 2.240 . S
O25 C23 1.279 . S
O26 Cd16 2.297 . S
O26 C21 1.247 . S
O27 Cd16 2.439 . S
O27 C21 1.208 . S
O28 Cd29 2.223 . S
O28 C36 1.315 . S
Cd29 O28 2.223 . S
Cd29 O32 2.297 . S
Cd29 O33 2.439 . S
Cd29 O39 2.240 . S
Cd30 O31 2.240 . S
Cd30 O38 2.223 . S
Cd30 O40 2.297 . S
Cd30 O41 2.439 . S
O31 Cd30 2.240 . S
O31 C36 1.279 . S
O32 Cd29 2.297 . S
O32 C34 1.247 . S
O33 Cd29 2.439 . S
O33 C34 1.208 . S
C34 O32 1.247 . S
C34 O33 1.208 . S
C35 O40 1.247 . S
C35 O41 1.208 . S
C36 O28 1.315 . S
C36 O31 1.279 . S
C37 O38 1.315 . S
C37 O39 1.279 . S
O38 Cd30 2.223 . S
O38 C37 1.315 . S
O39 Cd29 2.240 . S
O39 C37 1.279 . S
O40 Cd30 2.297 . S
O40 C35 1.247 . S
O41 Cd30 2.439 . S
O41 C35 1.208 . S
O42 Cd43 2.223 . S
O42 C50 1.315 . S
Cd43 O42 2.223 . S
Cd43 O46 2.297 . S
Cd43 O47 2.439 . S
Cd43 O53 2.240 . S
Cd44 O45 2.240 . S
Cd44 O52 2.223 . S
Cd44 O54 2.297 . S
Cd44 O55 2.439 . S
O45 Cd44 2.240 . S
O45 C50 1.279 . S
O46 Cd43 2.297 . S
O46 C48 1.247 . S
O47 Cd43 2.439 . S
O47 C48 1.208 . S
C48 O46 1.247 . S
C48 O47 1.208 . S
C49 O54 1.247 . S
C49 O55 1.208 . S
C50 O42 1.315 . S
C50 O45 1.279 . S
C51 O52 1.315 . S
C51 O53 1.279 . S
O52 Cd44 2.223 . S
O52 C51 1.315 . S
O53 Cd43 2.240 . S
O53 C51 1.279 . S
O54 Cd44 2.297 . S
O54 C49 1.247 . S
O55 Cd44 2.439 . S
O55 C49 1.208 . S
O56 Cd57 2.223 . S
O56 C64 1.315 . S
Cd57 O56 2.223 . S
Cd57 O60 2.297 . S
Cd57 O61 2.439 . S
Cd57 O67 2.240 . S
Cd58 O59 2.240 . S
Cd58 O66 2.223 . S
Cd58 O68 2.297 . S
Cd58 O69 2.439 . S
O59 Cd58 2.240 . S
O59 C64 1.279 . S
O60 Cd57 2.297 . S
O60 C62 1.247 . S
O61 Cd57 2.439 . S
O61 C62 1.208 . S
C62 O60 1.247 . S
C62 O61 1.208 . S
C63 O68 1.247 . S
C63 O69 1.208 . S
C64 O56 1.315 . S
C64 O59 1.279 . S
C65 O66 1.315 . S
C65 O67 1.279 . S
O66 Cd58 2.223 . S
O66 C65 1.315 . S
O67 Cd57 2.240 . S
O67 C65 1.279 . S
O68 Cd58 2.297 . S
O68 C63 1.247 . S
O69 Cd58 2.439 . S
O69 C63 1.208 . S
O70 Cd71 2.223 . S
O70 C78 1.315 . S
Cd71 O70 2.223 . S
Cd71 O74 2.297 . S
Cd71 O75 2.439 . S
Cd71 O81 2.240 . S
Cd72 O73 2.240 . S
Cd72 O80 2.223 . S
Cd72 O82 2.297 . S
Cd72 O83 2.439 . S
O73 Cd72 2.240 . S
O73 C78 1.279 . S
O74 Cd71 2.297 . S
O74 C76 1.247 . S
O75 Cd71 2.439 . S
O75 C76 1.208 . S
C76 O74 1.247 . S
C76 O75 1.208 . S
C77 O82 1.247 . S
C77 O83 1.208 . S
C78 O70 1.315 . S
C78 O73 1.279 . S
C79 O80 1.315 . S
C79 O81 1.279 . S
O80 Cd72 2.223 . S
O80 C79 1.315 . S
O81 Cd71 2.240 . S
O81 C79 1.279 . S
O82 Cd72 2.297 . S
O82 C77 1.247 . S
O83 Cd72 2.439 . S
O83 C77 1.208 . S
O84 Cd85 2.223 . S
O84 C92 1.315 . S
Cd85 O84 2.223 . S
Cd85 O88 2.297 . S
Cd85 O89 2.439 . S
Cd85 O95 2.240 . S
Cd86 O87 2.240 . S
Cd86 O94 2.223 . S
Cd86 O96 2.297 . S
Cd86 O97 2.439 . S
O87 Cd86 2.240 . S
O87 C92 1.279 . S
O88 Cd85 2.297 . S
O88 C90 1.247 . S
O89 Cd85 2.439 . S
O89 C90 1.208 . S
C90 O88 1.247 . S
C90 O89 1.208 . S
C91 O96 1.247 . S
C91 O97 1.208 . S
C92 O84 1.315 . S
C92 O87 1.279 . S
C93 O94 1.315 . S
C93 O95 1.279 . S
O94 Cd86 2.223 . S
O94 C93 1.315 . S
O95 Cd85 2.240 . S
O95 C93 1.279 . S
O96 Cd86 2.297 . S
O96 C91 1.247 . S
O97 Cd86 2.439 . S
O97 C91 1.208 . S
O98 Cd99 2.223 . S
O98 C106 1.315 . S
Cd99 O98 2.223 . S
Cd99 O102 2.297 . S
Cd99 O103 2.439 . S
Cd99 O109 2.240 . S
Cd100 O101 2.240 . S
Cd100 O108 2.223 . S
Cd100 O110 2.297 . S
Cd100 O111 2.439 . S
O101 Cd100 2.240 . S
O101 C106 1.279 . S
O102 Cd99 2.297 . S
O102 C104 1.247 . S
O103 Cd99 2.439 . S
O103 C104 1.208 . S
C104 O102 1.247 . S
C104 O103 1.208 . S
C105 O110 1.247 . S
C105 O111 1.208 . S
C106 O98 1.315 . S
C106 O101 1.279 . S
C107 O108 1.315 . S
C107 O109 1.279 . S
O108 Cd100 2.223 . S
O108 C107 1.315 . S
O109 Cd99 2.240 . S
O109 C107 1.279 . S
O110 Cd100 2.297 . S
O110 C105 1.247 . S
O111 Cd100 2.439 . S
O111 C105 1.208 . S
O112 Cd113 2.223 . S
O112 C120 1.315 . S
Cd113 O112 2.223 . S
Cd113 O116 2.297 . S
Cd113 O117 2.439 . S
Cd113 O123 2.240 . S
Cd114 O115 2.240 . S
Cd114 O122 2.223 . S
Cd114 O124 2.297 . S
Cd114 O125 2.439 . S
O115 Cd114 2.240 . S
O115 C120 1.279 . S
O116 Cd113 2.297 . S
O116 C118 1.247 . S
O117 Cd113 2.439 . S
O117 C118 1.208 . S
C118 O116 1.247 . S
C118 O117 1.208 . S
C119 O124 1.247 . S
C119 O125 1.208 . S
C120 O112 1.315 . S
C120 O115 1.279 . S
C121 O122 1.315 . S
C121 O123 1.279 . S
O122 Cd114 2.223 . S
O122 C121 1.315 . S
O123 Cd113 2.240 . S
O123 C121 1.279 . S
O124 Cd114 2.297 . S
O124 C119 1.247 . S
O125 Cd114 2.439 . S
O125 C119 1.208 . S
O126 Cd127 2.223 . S
O126 C134 1.315 . S
Cd127 O126 2.223 . S
Cd127 O130 2.297 . S
Cd127 O131 2.439 . S
Cd127 O137 2.240 . S
Cd128 O129 2.240 . S
Cd128 O136 2.223 . S
Cd128 O138 2.297 . S
Cd128 O139 2.439 . S
O129 Cd128 2.240 . S
O129 C134 1.279 . S
O130 Cd127 2.297 . S
O130 C132 1.247 . S
O131 Cd127 2.439 . S
O131 C132 1.208 . S
C132 O130 1.247 . S
C132 O131 1.208 . S
C133 O138 1.247 . S
C133 O139 1.208 . S
C134 O126 1.315 . S
C134 O129 1.279 . S
C135 O136 1.315 . S
C135 O137 1.279 . S
O136 Cd128 2.223 . S
O136 C135 1.315 . S
O137 Cd127 2.240 . S
O137 C135 1.279 . S
O138 Cd128 2.297 . S
O138 C133 1.247 . S
O139 Cd128 2.439 . S
O139 C133 1.208 . S
O140 Cd141 2.223 . S
O140 C148 1.315 . S
Cd141 O140 2.223 . S
Cd141 O144 2.297 . S
Cd141 O145 2.439 . S
Cd141 O151 2.240 . S
Cd142 O143 2.240 . S
Cd142 O150 2.223 . S
Cd142 O152 2.297 . S
Cd142 O153 2.439 . S
O143 Cd142 2.240 . S
O143 C148 1.279 . S
O144 Cd141 2.297 . S
O144 C146 1.247 . S
O145 Cd141 2.439 . S
O145 C146 1.208 . S
C146 O144 1.247 . S
C146 O145 1.208 . S
C147 O152 1.247 . S
C147 O153 1.208 . S
C148 O140 1.315 . S
C148 O143 1.279 . S
C149 O150 1.315 . S
C149 O151 1.279 . S
O150 Cd142 2.223 . S
O150 C149 1.315 . S
O151 Cd141 2.240 . S
O151 C149 1.279 . S
O152 Cd142 2.297 . S
O152 C147 1.247 . S
O153 Cd142 2.439 . S
O153 C147 1.208 . S
O154 Cd155 2.223 . S
O154 C162 1.315 . S
Cd155 O154 2.223 . S
Cd155 O158 2.297 . S
Cd155 O159 2.439 . S
Cd155 O165 2.240 . S
Cd156 O157 2.240 . S
Cd156 O164 2.223 . S
Cd156 O166 2.297 . S
Cd156 O167 2.439 . S
O157 Cd156 2.240 . S
O157 C162 1.279 . S
O158 Cd155 2.297 . S
O158 C160 1.247 . S
O159 Cd155 2.439 . S
O159 C160 1.208 . S
C160 O158 1.247 . S
C160 O159 1.208 . S
C161 O166 1.247 . S
C161 O167 1.208 . S
C162 O154 1.315 . S
C162 O157 1.279 . S
C163 O164 1.315 . S
C163 O165 1.279 . S
O164 Cd156 2.223 . S
O164 C163 1.315 . S
O165 Cd155 2.240 . S
O165 C163 1.279 . S
O166 Cd156 2.297 . S
O166 C161 1.247 . S
O167 Cd156 2.439 . S
O167 C161 1.208 . S
H168 C176 0.929 . S
H169 C178 0.930 . S
H170 C180 0.930 . S
H171 C183 0.929 . S
H172 C186 0.930 . S
H173 C188 0.960 . S
H174 C188 0.960 . S
H175 C188 0.960 . S
C176 H168 0.929 . S
C176 C177 1.377 . S
C176 C178 1.384 . S
C177 C176 1.377 . S
C177 C183 1.390 . S
C178 H169 0.930 . S
C178 C176 1.384 . S
C178 C179 1.372 . S
C179 C178 1.372 . S
C179 C180 1.400 . S
C179 C184 1.490 . S
C180 H170 0.930 . S
C180 C179 1.400 . S
C180 C183 1.386 . S
H181 C197 0.930 . S
H182 C198 0.931 . S
C183 H171 0.929 . S
C183 C177 1.390 . S
C183 C180 1.386 . S
C184 C179 1.490 . S
C184 C186 1.395 . S
C184 C187 1.403 . S
H185 C191 0.930 . S
C186 H172 0.930 . S
C186 C184 1.395 . S
C186 C189 1.403 1_556 S
C187 C184 1.403 . S
C187 C188 1.524 . S
C187 C191 1.400 1_556 S
C188 H173 0.960 . S
C188 H174 0.960 . S
C188 H175 0.960 . S
C188 C187 1.524 . S
C189 C186 1.403 1_554 S
C189 C190 1.392 . S
C189 C193 1.495 . S
C190 C189 1.392 . S
C190 C191 1.385 . S
C190 C192 1.478 . S
C191 H185 0.930 . S
C191 C187 1.400 1_554 S
C191 C190 1.385 . S
C192 C190 1.478 . S
C192 C194 1.381 . S
C192 C198 1.383 . S
C193 C189 1.495 . S
C193 H199 0.959 . S
C193 H200 0.961 . S
C193 H201 0.960 . S
C194 C192 1.381 . S
C194 C195 1.394 . S
C194 H202 0.930 . S
C195 C194 1.394 . S
C195 C196 1.383 . S
C195 H203 0.929 . S
C196 C195 1.383 . S
C196 C197 1.377 . S
C197 H181 0.930 . S
C197 C196 1.377 . S
C197 C198 1.379 . S
C198 H182 0.931 . S
C198 C192 1.383 . S
C198 C197 1.379 . S
H199 C193 0.959 . S
H200 C193 0.961 . S
H201 C193 0.960 . S
H202 C194 0.930 . S
H203 C195 0.929 . S
H204 C212 0.929 . S
H205 C214 0.930 . S
H206 C216 0.930 . S
H207 C219 0.929 . S
H208 C222 0.930 . S
H209 C224 0.960 . S
H210 C224 0.960 . S
H211 C224 0.960 . S
C212 H204 0.929 . S
C212 C213 1.377 . S
C212 C214 1.384 . S
C213 C212 1.377 . S
C213 C219 1.390 . S
C214 H205 0.930 . S
C214 C212 1.384 . S
C214 C215 1.372 . S
C215 C214 1.372 . S
C215 C216 1.400 . S
C215 C220 1.490 . S
C216 H206 0.930 . S
C216 C215 1.400 . S
C216 C219 1.386 . S
H217 C233 0.930 . S
H218 C234 0.931 . S
C219 H207 0.929 . S
C219 C213 1.390 . S
C219 C216 1.386 . S
C220 C215 1.490 . S
C220 C222 1.395 . S
C220 C223 1.403 . S
H221 C227 0.930 . S
C222 H208 0.930 . S
C222 C220 1.395 . S
C222 C225 1.403 . S
C223 C220 1.403 . S
C223 C224 1.524 . S
C223 C227 1.400 . S
C224 H209 0.960 . S
C224 H210 0.960 . S
C224 H211 0.960 . S
C224 C223 1.524 . S
C225 C222 1.403 . S
C225 C226 1.392 . S
C225 C229 1.495 . S
C226 C225 1.392 . S
C226 C227 1.385 . S
C226 C228 1.478 . S
C227 H221 0.930 . S
C227 C223 1.400 . S
C227 C226 1.385 . S
C228 C226 1.478 . S
C228 C230 1.381 . S
C228 C234 1.383 . S
C229 C225 1.495 . S
C229 H235 0.959 . S
C229 H236 0.961 . S
C229 H237 0.960 . S
C230 C228 1.381 . S
C230 C231 1.394 . S
C230 H238 0.930 . S
C231 C230 1.394 . S
C231 C232 1.383 . S
C231 H239 0.929 . S
C232 C231 1.383 . S
C232 C233 1.377 . S
C233 H217 0.930 . S
C233 C232 1.377 . S
C233 C234 1.379 . S
C234 H218 0.931 . S
C234 C228 1.383 . S
C234 C233 1.379 . S
H235 C229 0.959 . S
H236 C229 0.961 . S
H237 C229 0.960 . S
H238 C230 0.930 . S
H239 C231 0.929 . S
H240 C248 0.929 . S
H241 C250 0.930 . S
H242 C252 0.930 . S
H243 C255 0.929 . S
H244 C258 0.930 . S
H245 C260 0.960 . S
H246 C260 0.960 . S
H247 C260 0.960 . S
C248 H240 0.929 . S
C248 C249 1.377 . S
C248 C250 1.384 . S
C249 C248 1.377 . S
C249 C255 1.390 . S
C250 H241 0.930 . S
C250 C248 1.384 . S
C250 C251 1.372 . S
C251 C250 1.372 . S
C251 C252 1.400 . S
C251 C256 1.490 . S
C252 H242 0.930 . S
C252 C251 1.400 . S
C252 C255 1.386 . S
H253 C269 0.930 . S
H254 C270 0.931 . S
C255 H243 0.929 . S
C255 C249 1.390 . S
C255 C252 1.386 . S
C256 C251 1.490 . S
C256 C258 1.395 . S
C256 C259 1.403 . S
H257 C263 0.930 . S
C258 H244 0.930 . S
C258 C256 1.395 . S
C258 C261 1.403 . S
C259 C256 1.403 . S
C259 C260 1.524 . S
C259 C263 1.400 . S
C260 H245 0.960 . S
C260 H246 0.960 . S
C260 H247 0.960 . S
C260 C259 1.524 . S
C261 C258 1.403 . S
C261 C262 1.392 . S
C261 C265 1.495 . S
C262 C261 1.392 . S
C262 C263 1.385 . S
C262 C264 1.478 . S
C263 H257 0.930 . S
C263 C259 1.400 . S
C263 C262 1.385 . S
C264 C262 1.478 . S
C264 C266 1.381 . S
C264 C270 1.383 . S
C265 C261 1.495 . S
C265 H271 0.959 . S
C265 H272 0.961 . S
C265 H273 0.960 . S
C266 C264 1.381 . S
C266 C267 1.394 . S
C266 H274 0.930 . S
C267 C266 1.394 . S
C267 C268 1.383 . S
C267 H275 0.929 . S
C268 C267 1.383 . S
C268 C269 1.377 . S
C269 H253 0.930 . S
C269 C268 1.377 . S
C269 C270 1.379 . S
C270 H254 0.931 . S
C270 C264 1.383 . S
C270 C269 1.379 . S
H271 C265 0.959 . S
H272 C265 0.961 . S
H273 C265 0.960 . S
H274 C266 0.930 . S
H275 C267 0.929 . S
H276 C284 0.929 . S
H277 C286 0.930 . S
H278 C288 0.930 . S
H279 C291 0.929 . S
H280 C294 0.930 . S
H281 C296 0.960 . S
H282 C296 0.960 . S
H283 C296 0.960 . S
C284 H276 0.929 . S
C284 C285 1.377 . S
C284 C286 1.384 . S
C285 C284 1.377 . S
C285 C291 1.390 . S
C286 H277 0.930 . S
C286 C284 1.384 . S
C286 C287 1.372 . S
C287 C286 1.372 . S
C287 C288 1.400 . S
C287 C292 1.490 . S
C288 H278 0.930 . S
C288 C287 1.400 . S
C288 C291 1.386 . S
H289 C305 0.930 . S
H290 C306 0.931 . S
C291 H279 0.929 . S
C291 C285 1.390 . S
C291 C288 1.386 . S
C292 C287 1.490 . S
C292 C294 1.395 . S
C292 C295 1.403 . S
H293 C299 0.930 . S
C294 H280 0.930 . S
C294 C292 1.395 . S
C294 C297 1.403 1_554 S
C295 C292 1.403 . S
C295 C296 1.524 . S
C295 C299 1.400 1_554 S
C296 H281 0.960 . S
C296 H282 0.960 . S
C296 H283 0.960 . S
C296 C295 1.524 . S
C297 C294 1.403 1_556 S
C297 C298 1.392 . S
C297 C301 1.495 . S
C298 C297 1.392 . S
C298 C299 1.385 . S
C298 C300 1.478 . S
C299 H293 0.930 . S
C299 C295 1.400 1_556 S
C299 C298 1.385 . S
C300 C298 1.478 . S
C300 C302 1.381 . S
C300 C306 1.383 . S
C301 C297 1.495 . S
C301 H307 0.959 . S
C301 H308 0.961 . S
C301 H309 0.960 . S
C302 C300 1.381 . S
C302 C303 1.394 . S
C302 H310 0.930 . S
C303 C302 1.394 . S
C303 C304 1.383 . S
C303 H311 0.929 . S
C304 C303 1.383 . S
C304 C305 1.377 . S
C305 H289 0.930 . S
C305 C304 1.377 . S
C305 C306 1.379 . S
C306 H290 0.931 . S
C306 C300 1.383 . S
C306 C305 1.379 . S
H307 C301 0.959 . S
H308 C301 0.961 . S
H309 C301 0.960 . S
H310 C302 0.930 . S
H311 C303 0.929 . S
H312 C320 0.929 . S
H313 C322 0.930 . S
H314 C324 0.930 . S
H315 C327 0.929 . S
H316 C330 0.930 . S
H317 C332 0.960 . S
H318 C332 0.960 . S
H319 C332 0.960 . S
C320 H312 0.929 . S
C320 C321 1.377 . S
C320 C322 1.384 . S
C321 C320 1.377 . S
C321 C327 1.390 . S
C322 H313 0.930 . S
C322 C320 1.384 . S
C322 C323 1.372 . S
C323 C322 1.372 . S
C323 C324 1.400 . S
C323 C328 1.490 . S
C324 H314 0.930 . S
C324 C323 1.400 . S
C324 C327 1.386 . S
H325 C341 0.930 . S
H326 C342 0.931 . S
C327 H315 0.929 . S
C327 C321 1.390 . S
C327 C324 1.386 . S
C328 C323 1.490 . S
C328 C330 1.395 . S
C328 C331 1.403 . S
H329 C335 0.930 . S
C330 H316 0.930 . S
C330 C328 1.395 . S
C330 C333 1.403 . S
C331 C328 1.403 . S
C331 C332 1.524 . S
C331 C335 1.400 . S
C332 H317 0.960 . S
C332 H318 0.960 . S
C332 H319 0.960 . S
C332 C331 1.524 . S
C333 C330 1.403 . S
C333 C334 1.392 . S
C333 C337 1.495 . S
C334 C333 1.392 . S
C334 C335 1.385 . S
C334 C336 1.478 . S
C335 H329 0.930 . S
C335 C331 1.400 . S
C335 C334 1.385 . S
C336 C334 1.478 . S
C336 C338 1.381 . S
C336 C342 1.383 . S
C337 C333 1.495 . S
C337 H343 0.959 . S
C337 H344 0.961 . S
C337 H345 0.960 . S
C338 C336 1.381 . S
C338 C339 1.394 . S
C338 H346 0.930 . S
C339 C338 1.394 . S
C339 C340 1.383 . S
C339 H347 0.929 . S
C340 C339 1.383 . S
C340 C341 1.377 . S
C341 H325 0.930 . S
C341 C340 1.377 . S
C341 C342 1.379 . S
C342 H326 0.931 . S
C342 C336 1.383 . S
C342 C341 1.379 . S
H343 C337 0.959 . S
H344 C337 0.961 . S
H345 C337 0.960 . S
H346 C338 0.930 . S
H347 C339 0.929 . S
H348 C356 0.929 . S
H349 C358 0.930 . S
H350 C360 0.930 . S
H351 C363 0.929 . S
H352 C366 0.930 . S
H353 C368 0.960 . S
H354 C368 0.960 . S
H355 C368 0.960 . S
C356 H348 0.929 . S
C356 C357 1.377 . S
C356 C358 1.384 . S
C357 C356 1.377 . S
C357 C363 1.390 . S
C358 H349 0.930 . S
C358 C356 1.384 . S
C358 C359 1.372 . S
C359 C358 1.372 . S
C359 C360 1.400 . S
C359 C364 1.490 . S
C360 H350 0.930 . S
C360 C359 1.400 . S
C360 C363 1.386 . S
H361 C377 0.930 . S
H362 C378 0.931 . S
C363 H351 0.929 . S
C363 C357 1.390 . S
C363 C360 1.386 . S
C364 C359 1.490 . S
C364 C366 1.395 . S
C364 C367 1.403 . S
H365 C371 0.930 . S
C366 H352 0.930 . S
C366 C364 1.395 . S
C366 C369 1.403 . S
C367 C364 1.403 . S
C367 C368 1.524 . S
C367 C371 1.400 . S
C368 H353 0.960 . S
C368 H354 0.960 . S
C368 H355 0.960 . S
C368 C367 1.524 . S
C369 C366 1.403 . S
C369 C370 1.392 . S
C369 C373 1.495 . S
C370 C369 1.392 . S
C370 C371 1.385 . S
C370 C372 1.478 . S
C371 H365 0.930 . S
C371 C367 1.400 . S
C371 C370 1.385 . S
C372 C370 1.478 . S
C372 C374 1.381 . S
C372 C378 1.383 . S
C373 C369 1.495 . S
C373 H379 0.959 . S
C373 H380 0.961 . S
C373 H381 0.960 . S
C374 C372 1.381 . S
C374 C375 1.394 . S
C374 H382 0.930 . S
C375 C374 1.394 . S
C375 C376 1.383 . S
C375 H383 0.929 . S
C376 C375 1.383 . S
C376 C377 1.377 . S
C377 H361 0.930 . S
C377 C376 1.377 . S
C377 C378 1.379 . S
C378 H362 0.931 . S
C378 C372 1.383 . S
C378 C377 1.379 . S
H379 C373 0.959 . S
H380 C373 0.961 . S
H381 C373 0.960 . S
H382 C374 0.930 . S
H383 C375 0.929 . S
H384 C392 0.929 . S
H385 C394 0.930 . S
H386 C396 0.930 . S
H387 C399 0.929 . S
H388 C402 0.930 . S
H389 C404 0.960 . S
H390 C404 0.960 . S
H391 C404 0.960 . S
C392 H384 0.929 . S
C392 C393 1.377 . S
C392 C394 1.384 . S
C393 C392 1.377 . S
C393 C399 1.390 . S
C394 H385 0.930 . S
C394 C392 1.384 . S
C394 C395 1.372 . S
C395 C394 1.372 . S
C395 C396 1.400 . S
C395 C400 1.490 . S
C396 H386 0.930 . S
C396 C395 1.400 . S
C396 C399 1.386 . S
H397 C413 0.930 . S
H398 C414 0.931 . S
C399 H387 0.929 . S
C399 C393 1.390 . S
C399 C396 1.386 . S
C400 C395 1.490 . S
C400 C402 1.395 . S
C400 C403 1.403 . S
H401 C407 0.930 . S
C402 H388 0.930 . S
C402 C400 1.395 . S
C402 C405 1.403 . S
C403 C400 1.403 . S
C403 C404 1.524 . S
C403 C407 1.400 . S
C404 H389 0.960 . S
C404 H390 0.960 . S
C404 H391 0.960 . S
C404 C403 1.524 . S
C405 C402 1.403 . S
C405 C406 1.392 . S
C405 C409 1.495 . S
C406 C405 1.392 . S
C406 C407 1.385 . S
C406 C408 1.478 . S
C407 H401 0.930 . S
C407 C403 1.400 . S
C407 C406 1.385 . S
C408 C406 1.478 . S
C408 C410 1.381 . S
C408 C414 1.383 . S
C409 C405 1.495 . S
C409 H415 0.959 . S
C409 H416 0.961 . S
C409 H417 0.960 . S
C410 C408 1.381 . S
C410 C411 1.394 . S
C410 H418 0.930 . S
C411 C410 1.394 . S
C411 C412 1.383 . S
C411 H419 0.929 . S
C412 C411 1.383 . S
C412 C413 1.377 . S
C413 H397 0.930 . S
C413 C412 1.377 . S
C413 C414 1.379 . S
C414 H398 0.931 . S
C414 C408 1.383 . S
C414 C413 1.379 . S
H415 C409 0.959 . S
H416 C409 0.961 . S
H417 C409 0.960 . S
H418 C410 0.930 . S
H419 C411 0.929 . S
H420 C428 0.929 . S
H421 C430 0.930 . S
H422 C432 0.930 . S
H423 C435 0.929 . S
H424 C438 0.930 . S
H425 C440 0.960 . S
H426 C440 0.960 . S
H427 C440 0.960 . S
C428 H420 0.929 . S
C428 C429 1.377 . S
C428 C430 1.384 . S
C429 C428 1.377 . S
C429 C435 1.390 . S
C430 H421 0.930 . S
C430 C428 1.384 . S
C430 C431 1.372 . S
C431 C430 1.372 . S
C431 C432 1.400 . S
C431 C436 1.490 . S
C432 H422 0.930 . S
C432 C431 1.400 . S
C432 C435 1.386 . S
H433 C449 0.930 . S
H434 C450 0.931 . S
C435 H423 0.929 . S
C435 C429 1.390 . S
C435 C432 1.386 . S
C436 C431 1.490 . S
C436 C438 1.395 . S
C436 C439 1.403 . S
H437 C443 0.930 . S
C438 H424 0.930 . S
C438 C436 1.395 . S
C438 C441 1.403 . S
C439 C436 1.403 . S
C439 C440 1.524 . S
C439 C443 1.400 . S
C440 H425 0.960 . S
C440 H426 0.960 . S
C440 H427 0.960 . S
C440 C439 1.524 . S
C441 C438 1.403 . S
C441 C442 1.392 . S
C441 C445 1.495 . S
C442 C441 1.392 . S
C442 C443 1.385 . S
C442 C444 1.478 . S
C443 H437 0.930 . S
C443 C439 1.400 . S
C443 C442 1.385 . S
C444 C442 1.478 . S
C444 C446 1.381 . S
C444 C450 1.383 . S
C445 C441 1.495 . S
C445 H451 0.959 . S
C445 H452 0.961 . S
C445 H453 0.960 . S
C446 C444 1.381 . S
C446 C447 1.394 . S
C446 H454 0.930 . S
C447 C446 1.394 . S
C447 C448 1.383 . S
C447 H455 0.929 . S
C448 C447 1.383 . S
C448 C449 1.377 . S
C449 H433 0.930 . S
C449 C448 1.377 . S
C449 C450 1.379 . S
C450 H434 0.931 . S
C450 C444 1.383 . S
C450 C449 1.379 . S
H451 C445 0.959 . S
H452 C445 0.961 . S
H453 C445 0.960 . S
H454 C446 0.930 . S
H455 C447 0.929 . S
H456 C464 0.929 . S
H457 C466 0.930 . S
H458 C468 0.930 . S
H459 C471 0.929 . S
H460 C474 0.930 . S
H461 C476 0.960 . S
H462 C476 0.960 . S
H463 C476 0.960 . S
C464 H456 0.929 . S
C464 C465 1.377 . S
C464 C466 1.384 . S
C465 C464 1.377 . S
C465 C471 1.390 . S
C466 H457 0.930 . S
C466 C464 1.384 . S
C466 C467 1.372 . S
C467 C466 1.372 . S
C467 C468 1.400 . S
C467 C472 1.490 . S
C468 H458 0.930 . S
C468 C467 1.400 . S
C468 C471 1.386 . S
H469 C485 0.930 . S
H470 C486 0.931 . S
C471 H459 0.929 . S
C471 C465 1.390 . S
C471 C468 1.386 . S
C472 C467 1.490 . S
C472 C474 1.395 . S
C472 C475 1.403 . S
H473 C479 0.930 . S
C474 H460 0.930 . S
C474 C472 1.395 . S
C474 C477 1.403 . S
C475 C472 1.403 . S
C475 C476 1.524 . S
C475 C479 1.400 . S
C476 H461 0.960 . S
C476 H462 0.960 . S
C476 H463 0.960 . S
C476 C475 1.524 . S
C477 C474 1.403 . S
C477 C478 1.392 . S
C477 C481 1.495 . S
C478 C477 1.392 . S
C478 C479 1.385 . S
C478 C480 1.478 . S
C479 H473 0.930 . S
C479 C475 1.400 . S
C479 C478 1.385 . S
C480 C478 1.478 . S
C480 C482 1.381 . S
C480 C486 1.383 . S
C481 C477 1.495 . S
C481 H487 0.959 . S
C481 H488 0.961 . S
C481 H489 0.960 . S
C482 C480 1.381 . S
C482 C483 1.394 . S
C482 H490 0.930 . S
C483 C482 1.394 . S
C483 C484 1.383 . S
C483 H491 0.929 . S
C484 C483 1.383 . S
C484 C485 1.377 . S
C485 H469 0.930 . S
C485 C484 1.377 . S
C485 C486 1.379 . S
C486 H470 0.931 . S
C486 C480 1.383 . S
C486 C485 1.379 . S
H487 C481 0.959 . S
H488 C481 0.961 . S
H489 C481 0.960 . S
H490 C482 0.930 . S
H491 C483 0.929 . S
H492 C500 0.929 . S
H493 C502 0.930 . S
H494 C504 0.930 . S
H495 C507 0.929 . S
H496 C510 0.930 . S
H497 C512 0.960 . S
H498 C512 0.960 . S
H499 C512 0.960 . S
C500 H492 0.929 . S
C500 C501 1.377 . S
C500 C502 1.384 . S
C501 C500 1.377 . S
C501 C507 1.390 . S
C502 H493 0.930 . S
C502 C500 1.384 . S
C502 C503 1.372 . S
C503 C502 1.372 . S
C503 C504 1.400 . S
C503 C508 1.490 . S
C504 H494 0.930 . S
C504 C503 1.400 . S
C504 C507 1.386 . S
H505 C521 0.930 . S
H506 C522 0.931 . S
C507 H495 0.929 . S
C507 C501 1.390 . S
C507 C504 1.386 . S
C508 C503 1.490 . S
C508 C510 1.395 . S
C508 C511 1.403 . S
H509 C515 0.930 . S
C510 H496 0.930 . S
C510 C508 1.395 . S
C510 C513 1.403 . S
C511 C508 1.403 . S
C511 C512 1.524 . S
C511 C515 1.400 . S
C512 H497 0.960 . S
C512 H498 0.960 . S
C512 H499 0.960 . S
C512 C511 1.524 . S
C513 C510 1.403 . S
C513 C514 1.392 . S
C513 C517 1.495 . S
C514 C513 1.392 . S
C514 C515 1.385 . S
C514 C516 1.478 . S
C515 H509 0.930 . S
C515 C511 1.400 . S
C515 C514 1.385 . S
C516 C514 1.478 . S
C516 C518 1.381 . S
C516 C522 1.383 . S
C517 C513 1.495 . S
C517 H523 0.959 . S
C517 H524 0.961 . S
C517 H525 0.960 . S
C518 C516 1.381 . S
C518 C519 1.394 . S
C518 H526 0.930 . S
C519 C518 1.394 . S
C519 C520 1.383 . S
C519 H527 0.929 . S
C520 C519 1.383 . S
C520 C521 1.377 . S
C521 H505 0.930 . S
C521 C520 1.377 . S
C521 C522 1.379 . S
C522 H506 0.931 . S
C522 C516 1.383 . S
C522 C521 1.379 . S
H523 C517 0.959 . S
H524 C517 0.961 . S
H525 C517 0.960 . S
H526 C518 0.930 . S
H527 C519 0.929 . S
H528 C536 0.929 . S
H529 C538 0.930 . S
H530 C540 0.930 . S
H531 C543 0.929 . S
H532 C546 0.930 . S
H533 C548 0.960 . S
H534 C548 0.960 . S
H535 C548 0.960 . S
C536 H528 0.929 . S
C536 C537 1.377 . S
C536 C538 1.384 . S
C537 C536 1.377 . S
C537 C543 1.390 . S
C538 H529 0.930 . S
C538 C536 1.384 . S
C538 C539 1.372 . S
C539 C538 1.372 . S
C539 C540 1.400 . S
C539 C544 1.490 . S
C540 H530 0.930 . S
C540 C539 1.400 . S
C540 C543 1.386 . S
H541 C557 0.930 . S
H542 C558 0.931 . S
C543 H531 0.929 . S
C543 C537 1.390 . S
C543 C540 1.386 . S
C544 C539 1.490 . S
C544 C546 1.395 . S
C544 C547 1.403 . S
H545 C551 0.930 . S
C546 H532 0.930 . S
C546 C544 1.395 . S
C546 C549 1.403 . S
C547 C544 1.403 . S
C547 C548 1.524 . S
C547 C551 1.400 . S
C548 H533 0.960 . S
C548 H534 0.960 . S
C548 H535 0.960 . S
C548 C547 1.524 . S
C549 C546 1.403 . S
C549 C550 1.392 . S
C549 C553 1.495 . S
C550 C549 1.392 . S
C550 C551 1.385 . S
C550 C552 1.478 . S
C551 H545 0.930 . S
C551 C547 1.400 . S
C551 C550 1.385 . S
C552 C550 1.478 . S
C552 C554 1.381 . S
C552 C558 1.383 . S
C553 C549 1.495 . S
C553 H559 0.959 . S
C553 H560 0.961 . S
C553 H561 0.960 . S
C554 C552 1.381 . S
C554 C555 1.394 . S
C554 H562 0.930 . S
C555 C554 1.394 . S
C555 C556 1.383 . S
C555 H563 0.929 . S
C556 C555 1.383 . S
C556 C557 1.377 . S
C557 H541 0.930 . S
C557 C556 1.377 . S
C557 C558 1.379 . S
C558 H542 0.931 . S
C558 C552 1.383 . S
C558 C557 1.379 . S
H559 C553 0.959 . S
H560 C553 0.961 . S
H561 C553 0.960 . S
H562 C554 0.930 . S
H563 C555 0.929 . S
H564 C572 0.929 . S
H565 C574 0.930 . S
H566 C576 0.930 . S
H567 C579 0.929 . S
H568 C582 0.930 . S
H569 C584 0.960 . S
H570 C584 0.960 . S
H571 C584 0.960 . S
C572 H564 0.929 . S
C572 C573 1.377 . S
C572 C574 1.384 . S
C573 C572 1.377 . S
C573 C579 1.390 . S
C574 H565 0.930 . S
C574 C572 1.384 . S
C574 C575 1.372 . S
C575 C574 1.372 . S
C575 C576 1.400 . S
C575 C580 1.490 . S
C576 H566 0.930 . S
C576 C575 1.400 . S
C576 C579 1.386 . S
H577 C593 0.930 . S
H578 C594 0.931 . S
C579 H567 0.929 . S
C579 C573 1.390 . S
C579 C576 1.386 . S
C580 C575 1.490 . S
C580 C582 1.395 . S
C580 C583 1.403 . S
H581 C587 0.930 . S
C582 H568 0.930 . S
C582 C580 1.395 . S
C582 C585 1.403 . S
C583 C580 1.403 . S
C583 C584 1.524 . S
C583 C587 1.400 . S
C584 H569 0.960 . S
C584 H570 0.960 . S
C584 H571 0.960 . S
C584 C583 1.524 . S
C585 C582 1.403 . S
C585 C586 1.392 . S
C585 C589 1.495 . S
C586 C585 1.392 . S
C586 C587 1.385 . S
C586 C588 1.478 . S
C587 H581 0.930 . S
C587 C583 1.400 . S
C587 C586 1.385 . S
C588 C586 1.478 . S
C588 C590 1.381 . S
C588 C594 1.383 . S
C589 C585 1.495 . S
C589 H595 0.959 . S
C589 H596 0.961 . S
C589 H597 0.960 . S
C590 C588 1.381 . S
C590 C591 1.394 . S
C590 H598 0.930 . S
C591 C590 1.394 . S
C591 C592 1.383 . S
C591 H599 0.929 . S
C592 C591 1.383 . S
C592 C593 1.377 . S
C593 H577 0.930 . S
C593 C592 1.377 . S
C593 C594 1.379 . S
C594 H578 0.931 . S
C594 C588 1.383 . S
C594 C593 1.379 . S
H595 C589 0.959 . S
H596 C589 0.961 . S
H597 C589 0.960 . S
H598 C590 0.930 . S
H599 C591 0.929 . S
H600 C608 0.929 . S
H601 C610 0.930 . S
H602 C612 0.930 . S
H603 C615 0.929 . S
H604 C618 0.930 . S
H605 C620 0.960 . S
H606 C620 0.960 . S
H607 C620 0.960 . S
C608 H600 0.929 . S
C608 C609 1.377 . S
C608 C610 1.384 . S
C609 C608 1.377 . S
C609 C615 1.390 . S
C610 H601 0.930 . S
C610 C608 1.384 . S
C610 C611 1.372 . S
C611 C610 1.372 . S
C611 C612 1.400 . S
C611 C616 1.490 . S
C612 H602 0.930 . S
C612 C611 1.400 . S
C612 C615 1.386 . S
H613 C629 0.930 . S
H614 C630 0.931 . S
C615 H603 0.929 . S
C615 C609 1.390 . S
C615 C612 1.386 . S
C616 C611 1.490 . S
C616 C618 1.395 . S
C616 C619 1.403 . S
H617 C623 0.930 . S
C618 H604 0.930 . S
C618 C616 1.395 . S
C618 C621 1.403 1_655 S
C619 C616 1.403 . S
C619 C620 1.524 . S
C619 C623 1.400 1_655 S
C620 H605 0.960 . S
C620 H606 0.960 . S
C620 H607 0.960 . S
C620 C619 1.524 . S
C621 C618 1.403 1_455 S
C621 C622 1.392 . S
C621 C625 1.495 . S
C622 C621 1.392 . S
C622 C623 1.385 . S
C622 C624 1.478 . S
C623 H617 0.930 . S
C623 C619 1.400 1_455 S
C623 C622 1.385 . S
C624 C622 1.478 . S
C624 C626 1.381 . S
C624 C630 1.383 . S
C625 C621 1.495 . S
C625 H631 0.959 . S
C625 H632 0.961 . S
C625 H633 0.960 . S
C626 C624 1.381 . S
C626 C627 1.394 . S
C626 H634 0.930 . S
C627 C626 1.394 . S
C627 C628 1.383 . S
C627 H635 0.929 . S
C628 C627 1.383 . S
C628 C629 1.377 . S
C629 H613 0.930 . S
C629 C628 1.377 . S
C629 C630 1.379 . S
C630 H614 0.931 . S
C630 C624 1.383 . S
C630 C629 1.379 . S
H631 C625 0.959 . S
H632 C625 0.961 . S
H633 C625 0.960 . S
H634 C626 0.930 . S
H635 C627 0.929 . S
H636 C644 0.929 . S
H637 C646 0.930 . S
H638 C648 0.930 . S
H639 C651 0.929 . S
H640 C654 0.930 . S
H641 C656 0.960 . S
H642 C656 0.960 . S
H643 C656 0.960 . S
C644 H636 0.929 . S
C644 C645 1.377 . S
C644 C646 1.384 . S
C645 C644 1.377 . S
C645 C651 1.390 . S
C646 H637 0.930 . S
C646 C644 1.384 . S
C646 C647 1.372 . S
C647 C646 1.372 . S
C647 C648 1.400 . S
C647 C652 1.490 . S
C648 H638 0.930 . S
C648 C647 1.400 . S
C648 C651 1.386 . S
H649 C665 0.930 . S
H650 C666 0.931 . S
C651 H639 0.929 . S
C651 C645 1.390 . S
C651 C648 1.386 . S
C652 C647 1.490 . S
C652 C654 1.395 . S
C652 C655 1.403 . S
H653 C659 0.930 . S
C654 H640 0.930 . S
C654 C652 1.395 . S
C654 C657 1.403 1_545 S
C655 C652 1.403 . S
C655 C656 1.524 . S
C655 C659 1.400 1_545 S
C656 H641 0.960 . S
C656 H642 0.960 . S
C656 H643 0.960 . S
C656 C655 1.524 . S
C657 C654 1.403 1_565 S
C657 C658 1.392 . S
C657 C661 1.495 . S
C658 C657 1.392 . S
C658 C659 1.385 . S
C658 C660 1.478 . S
C659 H653 0.930 . S
C659 C655 1.400 1_565 S
C659 C658 1.385 . S
C660 C658 1.478 . S
C660 C662 1.381 . S
C660 C666 1.383 . S
C661 C657 1.495 . S
C661 H667 0.959 . S
C661 H668 0.961 . S
C661 H669 0.960 . S
C662 C660 1.381 . S
C662 C663 1.394 . S
C662 H670 0.930 . S
C663 C662 1.394 . S
C663 C664 1.383 . S
C663 H671 0.929 . S
C664 C663 1.383 . S
C664 C665 1.377 . S
C665 H649 0.930 . S
C665 C664 1.377 . S
C665 C666 1.379 . S
C666 H650 0.931 . S
C666 C660 1.383 . S
C666 C665 1.379 . S
H667 C661 0.959 . S
H668 C661 0.961 . S
H669 C661 0.960 . S
H670 C662 0.930 . S
H671 C663 0.929 . S
H672 C680 0.929 . S
H673 C682 0.930 . S
H674 C684 0.930 . S
H675 C687 0.929 . S
H676 C690 0.930 . S
H677 C692 0.960 . S
H678 C692 0.960 . S
H679 C692 0.960 . S
C680 H672 0.929 . S
C680 C681 1.377 . S
C680 C682 1.384 . S
C681 C680 1.377 . S
C681 C687 1.390 . S
C682 H673 0.930 . S
C682 C680 1.384 . S
C682 C683 1.372 . S
C683 C682 1.372 . S
C683 C684 1.400 . S
C683 C688 1.490 . S
C684 H674 0.930 . S
C684 C683 1.400 . S
C684 C687 1.386 . S
H685 C701 0.930 . S
H686 C702 0.931 . S
C687 H675 0.929 . S
C687 C681 1.390 . S
C687 C684 1.386 . S
C688 C683 1.490 . S
C688 C690 1.395 . S
C688 C691 1.403 . S
H689 C695 0.930 . S
C690 H676 0.930 . S
C690 C688 1.395 . S
C690 C693 1.403 . S
C691 C688 1.403 . S
C691 C692 1.524 . S
C691 C695 1.400 . S
C692 H677 0.960 . S
C692 H678 0.960 . S
C692 H679 0.960 . S
C692 C691 1.524 . S
C693 C690 1.403 . S
C693 C694 1.392 . S
C693 C697 1.495 . S
C694 C693 1.392 . S
C694 C695 1.385 . S
C694 C696 1.478 . S
C695 H689 0.930 . S
C695 C691 1.400 . S
C695 C694 1.385 . S
C696 C694 1.478 . S
C696 C698 1.381 . S
C696 C702 1.383 . S
C697 C693 1.495 . S
C697 H703 0.959 . S
C697 H704 0.961 . S
C697 H705 0.960 . S
C698 C696 1.381 . S
C698 C699 1.394 . S
C698 H706 0.930 . S
C699 C698 1.394 . S
C699 C700 1.383 . S
C699 H707 0.929 . S
C700 C699 1.383 . S
C700 C701 1.377 . S
C701 H685 0.930 . S
C701 C700 1.377 . S
C701 C702 1.379 . S
C702 H686 0.931 . S
C702 C696 1.383 . S
C702 C701 1.379 . S
H703 C697 0.959 . S
H704 C697 0.961 . S
H705 C697 0.960 . S
H706 C698 0.930 . S
H707 C699 0.929 . S
H708 C716 0.929 . S
H709 C718 0.930 . S
H710 C720 0.930 . S
H711 C723 0.929 . S
H712 C726 0.930 . S
H713 C728 0.960 . S
H714 C728 0.960 . S
H715 C728 0.960 . S
C716 H708 0.929 . S
C716 C717 1.377 . S
C716 C718 1.384 . S
C717 C716 1.377 . S
C717 C723 1.390 . S
C718 H709 0.930 . S
C718 C716 1.384 . S
C718 C719 1.372 . S
C719 C718 1.372 . S
C719 C720 1.400 . S
C719 C724 1.490 . S
C720 H710 0.930 . S
C720 C719 1.400 . S
C720 C723 1.386 . S
H721 C737 0.930 . S
H722 C738 0.931 . S
C723 H711 0.929 . S
C723 C717 1.390 . S
C723 C720 1.386 . S
C724 C719 1.490 . S
C724 C726 1.395 . S
C724 C727 1.403 . S
H725 C731 0.930 . S
C726 H712 0.930 . S
C726 C724 1.395 . S
C726 C729 1.403 1_545 S
C727 C724 1.403 . S
C727 C728 1.524 . S
C727 C731 1.400 1_545 S
C728 H713 0.960 . S
C728 H714 0.960 . S
C728 H715 0.960 . S
C728 C727 1.524 . S
C729 C726 1.403 1_565 S
C729 C730 1.392 . S
C729 C733 1.495 . S
C730 C729 1.392 . S
C730 C731 1.385 . S
C730 C732 1.478 . S
C731 H725 0.930 . S
C731 C727 1.400 1_565 S
C731 C730 1.385 . S
C732 C730 1.478 . S
C732 C734 1.381 . S
C732 C738 1.383 . S
C733 C729 1.495 . S
C733 H739 0.959 . S
C733 H740 0.961 . S
C733 H741 0.960 . S
C734 C732 1.381 . S
C734 C735 1.394 . S
C734 H742 0.930 . S
C735 C734 1.394 . S
C735 C736 1.383 . S
C735 H743 0.929 . S
C736 C735 1.383 . S
C736 C737 1.377 . S
C737 H721 0.930 . S
C737 C736 1.377 . S
C737 C738 1.379 . S
C738 H722 0.931 . S
C738 C732 1.383 . S
C738 C737 1.379 . S
H739 C733 0.959 . S
H740 C733 0.961 . S
H741 C733 0.960 . S
H742 C734 0.930 . S
H743 C735 0.929 . S
H744 C752 0.929 . S
H745 C754 0.930 . S
H746 C756 0.930 . S
H747 C759 0.929 . S
H748 C762 0.930 . S
H749 C764 0.960 . S
H750 C764 0.960 . S
H751 C764 0.960 . S
C752 H744 0.929 . S
C752 C753 1.377 . S
C752 C754 1.384 . S
C753 C752 1.377 . S
C753 C759 1.390 . S
C754 H745 0.930 . S
C754 C752 1.384 . S
C754 C755 1.372 . S
C755 C754 1.372 . S
C755 C756 1.400 . S
C755 C760 1.490 . S
C756 H746 0.930 . S
C756 C755 1.400 . S
C756 C759 1.386 . S
H757 C773 0.930 . S
H758 C774 0.931 . S
C759 H747 0.929 . S
C759 C753 1.390 . S
C759 C756 1.386 . S
C760 C755 1.490 . S
C760 C762 1.395 . S
C760 C763 1.403 . S
H761 C767 0.930 . S
C762 H748 0.930 . S
C762 C760 1.395 . S
C762 C765 1.403 . S
C763 C760 1.403 . S
C763 C764 1.524 . S
C763 C767 1.400 . S
C764 H749 0.960 . S
C764 H750 0.960 . S
C764 H751 0.960 . S
C764 C763 1.524 . S
C765 C762 1.403 . S
C765 C766 1.392 . S
C765 C769 1.495 . S
C766 C765 1.392 . S
C766 C767 1.385 . S
C766 C768 1.478 . S
C767 H761 0.930 . S
C767 C763 1.400 . S
C767 C766 1.385 . S
C768 C766 1.478 . S
C768 C770 1.381 . S
C768 C774 1.383 . S
C769 C765 1.495 . S
C769 H775 0.959 . S
C769 H776 0.961 . S
C769 H777 0.960 . S
C770 C768 1.381 . S
C770 C771 1.394 . S
C770 H778 0.930 . S
C771 C770 1.394 . S
C771 C772 1.383 . S
C771 H779 0.929 . S
C772 C771 1.383 . S
C772 C773 1.377 . S
C773 H757 0.930 . S
C773 C772 1.377 . S
C773 C774 1.379 . S
C774 H758 0.931 . S
C774 C768 1.383 . S
C774 C773 1.379 . S
H775 C769 0.959 . S
H776 C769 0.961 . S
H777 C769 0.960 . S
H778 C770 0.930 . S
H779 C771 0.929 . S
H780 C788 0.929 . S
H781 C790 0.930 . S
H782 C792 0.930 . S
H783 C795 0.929 . S
H784 C798 0.930 . S
H785 C800 0.960 . S
H786 C800 0.960 . S
H787 C800 0.960 . S
C788 H780 0.929 . S
C788 C789 1.377 . S
C788 C790 1.384 . S
C789 C788 1.377 . S
C789 C795 1.390 . S
C790 H781 0.930 . S
C790 C788 1.384 . S
C790 C791 1.372 . S
C791 C790 1.372 . S
C791 C792 1.400 . S
C791 C796 1.490 . S
C792 H782 0.930 . S
C792 C791 1.400 . S
C792 C795 1.386 . S
H793 C809 0.930 . S
H794 C810 0.931 . S
C795 H783 0.929 . S
C795 C789 1.390 . S
C795 C792 1.386 . S
C796 C791 1.490 . S
C796 C798 1.395 . S
C796 C799 1.403 . S
H797 C803 0.930 . S
C798 H784 0.930 . S
C798 C796 1.395 . S
C798 C801 1.403 1_455 S
C799 C796 1.403 . S
C799 C800 1.524 . S
C799 C803 1.400 1_455 S
C800 H785 0.960 . S
C800 H786 0.960 . S
C800 H787 0.960 . S
C800 C799 1.524 . S
C801 C798 1.403 1_655 S
C801 C802 1.392 . S
C801 C805 1.495 . S
C802 C801 1.392 . S
C802 C803 1.385 . S
C802 C804 1.478 . S
C803 H797 0.930 . S
C803 C799 1.400 1_655 S
C803 C802 1.385 . S
C804 C802 1.478 . S
C804 C806 1.381 . S
C804 C810 1.383 . S
C805 C801 1.495 . S
C805 H811 0.959 . S
C805 H812 0.961 . S
C805 H813 0.960 . S
C806 C804 1.381 . S
C806 C807 1.394 . S
C806 H814 0.930 . S
C807 C806 1.394 . S
C807 C808 1.383 . S
C807 H815 0.929 . S
C808 C807 1.383 . S
C808 C809 1.377 . S
C809 H793 0.930 . S
C809 C808 1.377 . S
C809 C810 1.379 . S
C810 H794 0.931 . S
C810 C804 1.383 . S
C810 C809 1.379 . S
H811 C805 0.959 . S
H812 C805 0.961 . S
H813 C805 0.960 . S
H814 C806 0.930 . S
H815 C807 0.929 . S
H816 C824 0.929 . S
H817 C826 0.930 . S
H818 C828 0.930 . S
H819 C831 0.929 . S
H820 C834 0.930 . S
H821 C836 0.960 . S
H822 C836 0.960 . S
H823 C836 0.960 . S
C824 H816 0.929 . S
C824 C825 1.377 . S
C824 C826 1.384 . S
C825 C824 1.377 . S
C825 C831 1.390 . S
C826 H817 0.930 . S
C826 C824 1.384 . S
C826 C827 1.372 . S
C827 C826 1.372 . S
C827 C828 1.400 . S
C827 C832 1.490 . S
C828 H818 0.930 . S
C828 C827 1.400 . S
C828 C831 1.386 . S
H829 C845 0.930 . S
H830 C846 0.931 . S
C831 H819 0.929 . S
C831 C825 1.390 . S
C831 C828 1.386 . S
C832 C827 1.490 . S
C832 C834 1.395 . S
C832 C835 1.403 . S
H833 C839 0.930 . S
C834 H820 0.930 . S
C834 C832 1.395 . S
C834 C837 1.403 . S
C835 C832 1.403 . S
C835 C836 1.524 . S
C835 C839 1.400 . S
C836 H821 0.960 . S
C836 H822 0.960 . S
C836 H823 0.960 . S
C836 C835 1.524 . S
C837 C834 1.403 . S
C837 C838 1.392 . S
C837 C841 1.495 . S
C838 C837 1.392 . S
C838 C839 1.385 . S
C838 C840 1.478 . S
C839 H833 0.930 . S
C839 C835 1.400 . S
C839 C838 1.385 . S
C840 C838 1.478 . S
C840 C842 1.381 . S
C840 C846 1.383 . S
C841 C837 1.495 . S
C841 H847 0.959 . S
C841 H848 0.961 . S
C841 H849 0.960 . S
C842 C840 1.381 . S
C842 C843 1.394 . S
C842 H850 0.930 . S
C843 C842 1.394 . S
C843 C844 1.383 . S
C843 H851 0.929 . S
C844 C843 1.383 . S
C844 C845 1.377 . S
C845 H829 0.930 . S
C845 C844 1.377 . S
C845 C846 1.379 . S
C846 H830 0.931 . S
C846 C840 1.383 . S
C846 C845 1.379 . S
H847 C841 0.959 . S
H848 C841 0.961 . S
H849 C841 0.960 . S
H850 C842 0.930 . S
H851 C843 0.929 . S
H852 C860 0.929 . S
H853 C862 0.930 . S
H854 C864 0.930 . S
H855 C867 0.929 . S
H856 C870 0.930 . S
H857 C872 0.960 1_455 S
H858 C872 0.960 . S
H859 C872 0.960 . S
C860 H852 0.929 . S
C860 C861 1.377 . S
C860 C862 1.384 . S
C861 C860 1.377 . S
C861 C867 1.390 . S
C862 H853 0.930 . S
C862 C860 1.384 . S
C862 C863 1.372 . S
C863 C862 1.372 . S
C863 C864 1.400 . S
C863 C868 1.490 . S
C864 H854 0.930 . S
C864 C863 1.400 . S
C864 C867 1.386 . S
H865 C881 0.930 . S
H866 C882 0.931 . S
C867 H855 0.929 . S
C867 C861 1.390 . S
C867 C864 1.386 . S
C868 C863 1.490 . S
C868 C870 1.395 . S
C868 C871 1.403 . S
H869 C875 0.930 . S
C870 H856 0.930 . S
C870 C868 1.395 . S
C870 C873 1.403 1_655 S
C871 C868 1.403 . S
C871 C872 1.524 . S
C871 C875 1.400 1_655 S
C872 H857 0.960 1_655 S
C872 H858 0.960 . S
C872 H859 0.960 . S
C872 C871 1.524 . S
C873 C870 1.403 1_455 S
C873 C874 1.392 . S
C873 C877 1.495 . S
C874 C873 1.392 . S
C874 C875 1.385 . S
C874 C876 1.478 . S
C875 H869 0.930 . S
C875 C871 1.400 1_455 S
C875 C874 1.385 . S
C876 C874 1.478 . S
C876 C878 1.381 . S
C876 C882 1.383 . S
C877 C873 1.495 . S
C877 H883 0.959 1_455 S
C877 H884 0.961 . S
C877 H885 0.960 . S
C878 C876 1.381 . S
C878 C879 1.394 . S
C878 H886 0.930 . S
C879 C878 1.394 . S
C879 C880 1.383 . S
C879 H887 0.929 . S
C880 C879 1.383 . S
C880 C881 1.377 . S
C881 H865 0.930 . S
C881 C880 1.377 . S
C881 C882 1.379 . S
C882 H866 0.931 . S
C882 C876 1.383 . S
C882 C881 1.379 . S
H883 C877 0.959 1_655 S
H884 C877 0.961 . S
H885 C877 0.960 . S
H886 C878 0.930 . S
H887 C879 0.929 . S
H888 C896 0.929 . S
H889 C898 0.930 . S
H890 C900 0.930 . S
H891 C903 0.929 . S
H892 C906 0.930 . S
H893 C908 0.960 1_565 S
H894 C908 0.960 . S
H895 C908 0.960 . S
C896 H888 0.929 . S
C896 C897 1.377 . S
C896 C898 1.384 . S
C897 C896 1.377 . S
C897 C903 1.390 . S
C898 H889 0.930 . S
C898 C896 1.384 . S
C898 C899 1.372 . S
C899 C898 1.372 . S
C899 C900 1.400 . S
C899 C904 1.490 . S
C900 H890 0.930 . S
C900 C899 1.400 . S
C900 C903 1.386 . S
H901 C917 0.930 . S
H902 C918 0.931 . S
C903 H891 0.929 . S
C903 C897 1.390 . S
C903 C900 1.386 . S
C904 C899 1.490 . S
C904 C906 1.395 . S
C904 C907 1.403 . S
H905 C911 0.930 . S
C906 H892 0.930 . S
C906 C904 1.395 . S
C906 C909 1.403 1_545 S
C907 C904 1.403 . S
C907 C908 1.524 . S
C907 C911 1.400 1_545 S
C908 H893 0.960 1_545 S
C908 H894 0.960 . S
C908 H895 0.960 . S
C908 C907 1.524 . S
C909 C906 1.403 1_565 S
C909 C910 1.392 . S
C909 C913 1.495 . S
C910 C909 1.392 . S
C910 C911 1.385 . S
C910 C912 1.478 . S
C911 H905 0.930 . S
C911 C907 1.400 1_565 S
C911 C910 1.385 . S
C912 C910 1.478 . S
C912 C914 1.381 . S
C912 C918 1.383 . S
C913 C909 1.495 . S
C913 H919 0.959 1_565 S
C913 H920 0.961 . S
C913 H921 0.960 . S
C914 C912 1.381 . S
C914 C915 1.394 . S
C914 H922 0.930 . S
C915 C914 1.394 . S
C915 C916 1.383 . S
C915 H923 0.929 . S
C916 C915 1.383 . S
C916 C917 1.377 . S
C917 H901 0.930 . S
C917 C916 1.377 . S
C917 C918 1.379 . S
C918 H902 0.931 . S
C918 C912 1.383 . S
C918 C917 1.379 . S
H919 C913 0.959 1_545 S
H920 C913 0.961 . S
H921 C913 0.960 . S
H922 C914 0.930 . S
H923 C915 0.929 . S
H924 C932 0.929 . S
H925 C934 0.930 . S
H926 C936 0.930 . S
H927 C939 0.929 . S
H928 C942 0.930 . S
H929 C944 0.960 . S
H930 C944 0.960 . S
H931 C944 0.960 . S
C932 H924 0.929 . S
C932 C933 1.377 . S
C932 C934 1.384 . S
C933 C932 1.377 . S
C933 C939 1.390 . S
C934 H925 0.930 . S
C934 C932 1.384 . S
C934 C935 1.372 . S
C935 C934 1.372 . S
C935 C936 1.400 . S
C935 C940 1.490 . S
C936 H926 0.930 . S
C936 C935 1.400 . S
C936 C939 1.386 . S
H937 C953 0.930 . S
H938 C954 0.931 . S
C939 H927 0.929 . S
C939 C933 1.390 . S
C939 C936 1.386 . S
C940 C935 1.490 . S
C940 C942 1.395 . S
C940 C943 1.403 . S
H941 C947 0.930 . S
C942 H928 0.930 . S
C942 C940 1.395 . S
C942 C945 1.403 . S
C943 C940 1.403 . S
C943 C944 1.524 . S
C943 C947 1.400 . S
C944 H929 0.960 . S
C944 H930 0.960 . S
C944 H931 0.960 . S
C944 C943 1.524 . S
C945 C942 1.403 . S
C945 C946 1.392 . S
C945 C949 1.495 . S
C946 C945 1.392 . S
C946 C947 1.385 . S
C946 C948 1.478 . S
C947 H941 0.930 . S
C947 C943 1.400 . S
C947 C946 1.385 . S
C948 C946 1.478 . S
C948 C950 1.381 . S
C948 C954 1.383 . S
C949 C945 1.495 . S
C949 H955 0.959 . S
C949 H956 0.961 . S
C949 H957 0.960 . S
C950 C948 1.381 . S
C950 C951 1.394 . S
C950 H958 0.930 . S
C951 C950 1.394 . S
C951 C952 1.383 . S
C951 H959 0.929 . S
C952 C951 1.383 . S
C952 C953 1.377 . S
C953 H937 0.930 . S
C953 C952 1.377 . S
C953 C954 1.379 . S
C954 H938 0.931 . S
C954 C948 1.383 . S
C954 C953 1.379 . S
H955 C949 0.959 . S
H956 C949 0.961 . S
H957 C949 0.960 . S
H958 C950 0.930 . S
H959 C951 0.929 . S
H960 C968 0.929 . S
H961 C970 0.930 . S
H962 C972 0.930 . S
H963 C975 0.929 . S
H964 C978 0.930 . S
H965 C980 0.960 . S
H966 C980 0.960 . S
H967 C980 0.960 . S
C968 H960 0.929 . S
C968 C969 1.377 . S
C968 C970 1.384 . S
C969 C968 1.377 . S
C969 C975 1.390 . S
C970 H961 0.930 . S
C970 C968 1.384 . S
C970 C971 1.372 . S
C971 C970 1.372 . S
C971 C972 1.400 . S
C971 C976 1.490 . S
C972 H962 0.930 . S
C972 C971 1.400 . S
C972 C975 1.386 . S
H973 C989 0.930 . S
H974 C990 0.931 . S
C975 H963 0.929 . S
C975 C969 1.390 . S
C975 C972 1.386 . S
C976 C971 1.490 . S
C976 C978 1.395 . S
C976 C979 1.403 . S
H977 C983 0.930 . S
C978 H964 0.930 . S
C978 C976 1.395 . S
C978 C981 1.403 1_455 S
C979 C976 1.403 . S
C979 C980 1.524 . S
C979 C983 1.400 1_455 S
C980 H965 0.960 . S
C980 H966 0.960 . S
C980 H967 0.960 . S
C980 C979 1.524 . S
C981 C978 1.403 1_655 S
C981 C982 1.392 . S
C981 C985 1.495 . S
C982 C981 1.392 . S
C982 C983 1.385 . S
C982 C984 1.478 . S
C983 H977 0.930 . S
C983 C979 1.400 1_655 S
C983 C982 1.385 . S
C984 C982 1.478 . S
C984 C986 1.381 . S
C984 C990 1.383 . S
C985 C981 1.495 . S
C985 H991 0.959 . S
C985 H992 0.961 . S
C985 H993 0.960 . S
C986 C984 1.381 . S
C986 C987 1.394 . S
C986 H994 0.930 . S
C987 C986 1.394 . S
C987 C988 1.383 . S
C987 H995 0.929 . S
C988 C987 1.383 . S
C988 C989 1.377 . S
C989 H973 0.930 . S
C989 C988 1.377 . S
C989 C990 1.379 . S
C990 H974 0.931 . S
C990 C984 1.383 . S
C990 C989 1.379 . S
H991 C985 0.959 . S
H992 C985 0.961 . S
H993 C985 0.960 . S
H994 C986 0.930 . S
H995 C987 0.929 . S
H996 C1004 0.929 . S
H997 C1006 0.930 . S
H998 C1008 0.930 . S
H999 C1011 0.929 . S
H1000 C1014 0.930 . S
H1001 C1016 0.960 . S
H1002 C1016 0.960 . S
H1003 C1016 0.960 . S
C1004 H996 0.929 . S
C1004 C1005 1.377 . S
C1004 C1006 1.384 . S
C1005 C1004 1.377 . S
C1005 C1011 1.390 . S
C1006 H997 0.930 . S
C1006 C1004 1.384 . S
C1006 C1007 1.372 . S
C1007 C1006 1.372 . S
C1007 C1008 1.400 . S
C1007 C1012 1.490 . S
C1008 H998 0.930 . S
C1008 C1007 1.400 . S
C1008 C1011 1.386 . S
H1009 C1025 0.930 . S
H1010 C1026 0.931 . S
C1011 H999 0.929 . S
C1011 C1005 1.390 . S
C1011 C1008 1.386 . S
C1012 C1007 1.490 . S
C1012 C1014 1.395 . S
C1012 C1015 1.403 . S
H1013 C1019 0.930 . S
C1014 H1000 0.930 . S
C1014 C1012 1.395 . S
C1014 C1017 1.403 1_565 S
C1015 C1012 1.403 . S
C1015 C1016 1.524 . S
C1015 C1019 1.400 1_565 S
C1016 H1001 0.960 . S
C1016 H1002 0.960 . S
C1016 H1003 0.960 . S
C1016 C1015 1.524 . S
C1017 C1014 1.403 1_545 S
C1017 C1018 1.392 . S
C1017 C1021 1.495 . S
C1018 C1017 1.392 . S
C1018 C1019 1.385 . S
C1018 C1020 1.478 . S
C1019 H1013 0.930 . S
C1019 C1015 1.400 1_545 S
C1019 C1018 1.385 . S
C1020 C1018 1.478 . S
C1020 C1022 1.381 . S
C1020 C1026 1.383 . S
C1021 C1017 1.495 . S
C1021 H1027 0.959 . S
C1021 H1028 0.961 . S
C1021 H1029 0.960 . S
C1022 C1020 1.381 . S
C1022 C1023 1.394 . S
C1022 H1030 0.930 . S
C1023 C1022 1.394 . S
C1023 C1024 1.383 . S
C1023 H1031 0.929 . S
C1024 C1023 1.383 . S
C1024 C1025 1.377 . S
C1025 H1009 0.930 . S
C1025 C1024 1.377 . S
C1025 C1026 1.379 . S
C1026 H1010 0.931 . S
C1026 C1020 1.383 . S
C1026 C1025 1.379 . S
H1027 C1021 0.959 . S
H1028 C1021 0.961 . S
H1029 C1021 0.960 . S
H1030 C1022 0.930 . S
H1031 C1023 0.929 . S
C177 C148 1.082 . S
C196 C8 1.048 . S
C213 C22 1.083 . S
C232 C162 1.118 . S
C249 C36 1.086 . S
C268 C92 1.075 . S
C285 C50 1.082 . S
C304 C106 1.118 . S
C321 C120 1.080 . S
C340 C64 1.043 . S
C357 C78 1.074 . S
C376 C134 1.102 . S
C393 C119 1.373 . S
C412 C7 1.363 . S
C429 C21 1.371 . S
C448 C133 1.372 . S
C465 C35 1.372 . S
C484 C147 1.371 . S
C501 C49 1.371 . S
C520 C161 1.372 . S
C537 C91 1.371 . S
C556 C63 1.373 . S
C573 C105 1.370 . S
C592 C77 1.376 . S
C609 C51 1.653 . S
C628 C9 1.643 . S
C645 C23 1.662 . S
C664 C65 1.639 . S
C681 C79 1.656 . S
C700 C37 1.676 . S
C717 C135 1.659 . S
C736 C93 1.631 . S
C753 C149 1.661 . S
C772 C107 1.636 . S
C789 C121 1.662 . S
C808 C163 1.651 . S
C825 C48 1.135 . S
C844 C6 1.135 . S
C861 C20 1.133 . S
C880 C62 1.120 . S
C897 C76 1.133 . S
C916 C34 1.121 . S
C933 C90 1.137 . S
C952 C132 1.138 . S
C969 C146 1.138 . S
C988 C104 1.147 . S
C1005 C118 1.139 . S
C1024 C160 1.148 . S
