# Generated by pormake.
# Topology ecf, (8)-cn, num edge types: 1
# Building blocks:
#     Node 0, Type 0, BuildingBlock: AJUNOK_clean_sbu_0, # of connection points: 8
#     Node 1, Type 0, BuildingBlock: AJUNOK_clean_sbu_0, # of connection points: 8
#     Node 2, Type 0, BuildingBlock: AJUNOK_clean_sbu_0, # of connection points: 8
#     Node 3, Type 0, BuildingBlock: AJUNOK_clean_sbu_0, # of connection points: 8
#     Node 4, Type 0, BuildingBlock: AJUNOK_clean_sbu_0, # of connection points: 8
#     Node 5, Type 0, BuildingBlock: AJUNOK_clean_sbu_0, # of connection points: 8
#     Edge 6, Type (0, 0), None
#     Edge 7, Type (0, 0), None
#     Edge 8, Type (0, 0), None
#     Edge 9, Type (0, 0), None
#     Edge 10, Type (0, 0), None
#     Edge 11, Type (0, 0), None
#     Edge 12, Type (0, 0), None
#     Edge 13, Type (0, 0), None
#     Edge 14, Type (0, 0), None
#     Edge 15, Type (0, 0), None
#     Edge 16, Type (0, 0), None
#     Edge 17, Type (0, 0), None
#     Edge 18, Type (0, 0), None
#     Edge 19, Type (0, 0), None
#     Edge 20, Type (0, 0), None
#     Edge 21, Type (0, 0), None
#     Edge 22, Type (0, 0), None
#     Edge 23, Type (0, 0), None
#     Edge 24, Type (0, 0), None
#     Edge 25, Type (0, 0), None
#     Edge 26, Type (0, 0), None
#     Edge 27, Type (0, 0), None
#     Edge 28, Type (0, 0), None
#     Edge 29, Type (0, 0), None
# Relax obj value: 0.494
# Max RMSD: 0.282
# Mean RMSD: 0.282
data_MOF--net-ecf--node1-AJUNOK_clean_sbu_0--edge1-none
_symmetry_space_group_name_H-M    P1
_symmetry_Int_Tables_number       1
_symmetry_cell_setting            triclinic
loop_
_symmetry_equiv_pos_as_xyz
'x, y, z'
_cell_length_a     22.362609
_cell_length_b     22.778469
_cell_length_c     11.824898
_cell_angle_alpha  89.997437
_cell_angle_beta   89.996292
_cell_angle_gamma 118.95774
loop_
_atom_site_label
_atom_site_type_symbol
_atom_site_fract_x
_atom_site_fract_y
_atom_site_fract_z
_atom_type_partial_charge
Cd0 Cd 0.13912 0.30963 0.21469 0.0
Cd1 Cd 0.24563 0.31129 0.37955 0.0
C2 C 0.11206 0.18264 0.29371 0.0
N3 N 0.12721 0.20502 0.18763 0.0
C4 C 0.07148 0.09371 0.11649 0.0
C5 C 0.04409 0.07155 0.22486 0.0
C6 C 0.06922 0.11605 0.31488 0.0
C7 C 0.11105 0.16243 0.09819 0.0
H8 H 0.12573 0.2185 0.35943 0.0
H9 H 0.12232 0.18079 1.01285 0.0
C10 C 0.26617 0.26972 0.08649 0.0
C11 C 0.33371 0.44788 0.25056 0.0
C12 C 0.38155 0.51529 0.23648 0.0
C13 C 0.39526 0.56043 0.32625 0.0
C14 C 0.35763 0.53701 0.42674 0.0
C15 C 0.30924 0.46909 0.4366 0.0
N16 N 0.29822 0.42624 0.34885 0.0
H17 H 0.32691 0.41212 0.18498 0.0
H18 H 0.28308 0.44977 0.51614 0.0
C19 C 0.2647 0.18668 0.38736 0.0
N20 N 0.22792 0.20948 0.44608 0.0
C21 C 0.14733 0.09892 0.4995 0.0
C22 C 0.17496 0.07606 0.41646 0.0
C23 C 0.23759 0.11947 0.36744 0.0
C24 C 0.17226 0.16709 0.50764 0.0
H25 H 0.31009 0.21973 0.34184 0.0
H26 H 0.14145 0.18456 0.5501 0.0
C27 C 0.06589 0.26447 0.49781 0.0
C28 C 1.01595 0.2987 0.14339 0.0
N29 N 0.1878 0.42407 0.24649 0.0
C30 C 0.17121 0.44403 0.34431 0.0
C31 C 0.18572 0.51043 0.35787 0.0
C32 C 0.21466 0.55594 0.26795 0.0
C33 C 0.2306 0.53386 0.16732 0.0
C34 C 0.21608 0.46705 0.15796 0.0
C35 C 0.37868 0.35192 0.45767 0.0
O36 O 0.23213 0.3008 0.06486 0.0
O37 O 0.27027 0.25957 0.19127 0.0
O38 O 0.12962 0.28436 0.51998 0.0
O39 O 0.05325 0.26607 0.39311 0.0
O40 O 0.07216 0.34634 0.10745 0.0
O41 O 1.01887 0.25424 0.20299 0.0
O42 O 0.33448 0.35871 0.51516 0.0
O43 O 0.36446 0.33665 0.35499 0.0
H44 H 0.14509 0.40787 0.41064 0.0
H45 H 0.2248 0.44864 0.07872 0.0
H46 H 0.05552 0.06071 1.04452 0.0
H47 H 0.04537 0.10204 0.39753 0.0
H48 H 0.41103 0.53088 0.15899 0.0
H49 H 0.36784 0.57014 0.49841 0.0
H50 H 0.09911 0.06637 0.53842 0.0
H51 H 0.26203 0.10266 0.30622 0.0
H52 H 0.17071 0.52498 0.43552 0.0
H53 H 0.25173 0.56723 0.09556 0.0
Cd54 Cd 0.91928 0.22839 0.87232 0.0
Cd55 Cd 0.84993 0.12838 0.73258 0.0
C56 C 0.06998 0.36101 0.8108 0.0
N57 N 0.03921 0.30212 0.871 0.0
C58 C 0.14432 0.30362 0.89347 0.0
C59 C 0.17464 0.35507 0.81467 0.0
C60 C 0.13871 0.3876 0.7776 0.0
C61 C 0.07739 0.27845 0.9218 0.0
H62 H 0.03908 0.38068 0.77384 0.0
H63 H 0.05592 0.23731 0.97974 0.0
C64 C 0.80408 0.03574 0.9865 0.0
C65 C 0.73811 0.15212 0.87537 0.0
C66 C 0.68043 0.16049 0.88673 0.0
C67 C 0.65817 0.18424 0.79483 0.0
C68 C 0.69685 0.20164 0.69482 0.0
C69 C 0.75377 0.19194 0.68684 0.0
N70 N 0.77385 0.16829 0.77672 0.0
H71 H 0.75213 0.12982 0.94352 0.0
H72 H 0.78108 0.20163 0.60759 0.0
C73 C 0.96113 0.12954 0.89319 0.0
N74 N 0.94959 0.13155 0.78159 0.0
C75 C 0.93733 0.02493 0.75139 0.0
C76 C 0.93475 0.01689 0.8691 0.0
C77 C 0.95419 0.0715 0.93968 0.0
C78 C 0.94909 0.08566 0.7084 0.0
H79 H 0.95672 0.16336 0.94996 0.0
H80 H 0.93844 0.08792 0.61986 0.0
C81 C 1.00537 0.2358 0.5891 0.0
C82 C 0.95339 0.28176 0.08477 0.0
N83 N 0.87072 0.29456 0.81375 0.0
C84 C 0.89242 0.32881 0.7147 0.0
C85 C 0.88214 0.38359 0.69312 0.0
C86 C 0.8509 0.40408 0.7757 0.0
C87 C 0.8254 0.36536 0.87399 0.0
C88 C 0.83636 0.31079 0.89182 0.0
C89 C 0.76393 0.03334 0.5942 0.0
O90 O 0.84021 0.10004 1.0081 0.0
O91 O 0.79668 0.02348 0.88054 0.0
O92 O 0.94246 0.1968 0.56272 0.0
O93 O 1.01473 0.24842 0.69537 0.0
O94 O 0.9137 0.21938 0.07306 0.0
O95 O 0.95826 0.3193 1.00254 0.0
O96 O 0.79575 0.09356 0.55999 0.0
O97 O 0.77737 0.01857 0.69035 0.0
H98 H 0.9218 0.31642 0.65613 0.0
H99 H 0.82195 0.2844 0.97171 0.0
H100 H 0.16665 0.27233 0.91116 0.0
H101 H 0.16017 0.42685 0.71439 0.0
H102 H 0.65134 0.14465 0.96453 0.0
H103 H 0.68195 0.22034 0.62195 0.0
H104 H 0.9198 0.98254 0.69472 0.0
H105 H 0.94894 0.06538 1.02996 0.0
H106 H 0.90355 0.41293 0.61714 0.0
H107 H 0.80126 0.37982 0.93959 0.0
Cd108 Cd 0.69722 0.78713 0.20849 0.0
Cd109 Cd 0.72606 0.89959 0.35199 0.0
C110 C 0.72547 0.65539 0.25942 0.0
N111 N 0.7487 0.72008 0.22355 0.0
C112 C 0.86032 0.73725 0.20149 0.0
C113 C 0.84119 0.67429 0.24946 0.0
C114 C 0.77214 0.63148 0.27478 0.0
C115 C 0.81321 0.75898 0.19042 0.0
H116 H 0.67278 0.62514 0.28524 0.0
H117 H 0.82767 0.80979 0.17105 0.0
C118 C 0.77159 0.97646 0.08207 0.0
C119 C 0.58943 0.87325 0.21722 0.0
C120 C 0.52349 0.8649 0.20656 0.0
C121 C 0.47871 0.84285 0.2998 0.0
C122 C 0.50117 0.82723 0.40064 0.0
C123 C 0.56767 0.83687 0.40788 0.0
N124 N 0.61004 0.85878 0.3166 0.0
H125 H 0.62489 0.89355 0.14752 0.0
H126 H 0.58635 0.82877 0.48751 0.0
C127 C 0.86605 1.0114 0.29875 0.0
N128 N 0.84079 0.94452 0.31144 0.0
C129 C 0.95057 0.95581 0.27093 0.0
C130 C 0.97267 0.02239 0.23916 0.0
C131 C 0.92928 0.04988 0.25312 0.0
C132 C 0.88274 0.91681 0.30602 0.0
H133 H 0.83649 0.03536 0.32109 0.0
H134 H 0.86517 0.86607 0.33256 0.0
C135 C 0.7731 0.78579 0.49362 0.0
C136 C 0.65424 0.7023 1.01778 0.0
N137 N 0.58525 0.73372 0.27643 0.0
C138 C 0.57293 0.70077 0.37685 0.0
C139 C 0.5078 0.64796 0.40094 0.0
C140 C 0.45589 0.62797 0.3193 0.0
C141 C 0.46877 0.66611 0.22026 0.0
C142 C 0.53441 0.71856 0.19974 0.0
C143 C 0.72915 0.98155 0.51561 0.0
O144 O 0.76074 0.91459 0.07139 0.0
O145 O 0.75451 0.98802 0.17897 0.0
O146 O 0.75959 0.83352 0.5134 0.0
O147 O 0.76019 0.76376 0.39237 0.0
O148 O 0.67956 0.76533 1.00879 0.0
O149 O 0.6329 0.6787 0.11484 0.0
O150 O 0.71995 0.92377 0.5396 0.0
O151 O 0.72805 0.99711 0.41371 0.0
H152 H 0.6149 0.71161 0.43369 0.0
H153 H 0.54639 0.7431 0.11814 0.0
H154 H 0.91369 0.77463 0.19542 0.0
H155 H 0.75612 0.58391 0.31674 0.0
H156 H 0.50926 0.87921 0.12796 0.0
H157 H 0.46855 0.80996 0.47453 0.0
H158 H 0.98489 0.9349 0.27034 0.0
H159 H 0.94661 0.10272 0.23805 0.0
H160 H 0.50017 0.61884 0.47724 0.0
H161 H 0.43011 0.65176 0.15512 0.0
Cd162 Cd 0.82458 0.71566 0.87966 0.0
Cd163 Cd 0.93112 0.71739 0.71478 0.0
C164 C 0.80546 0.84026 0.88744 0.0
N165 N 0.84225 0.81747 0.94614 0.0
C166 C 0.9228 0.92804 0.99958 0.0
C167 C 0.89515 0.95088 0.91656 0.0
C168 C 0.83253 0.90746 0.86754 0.0
C169 C 0.89791 0.85987 1.0077 0.0
H170 H 0.76007 0.8072 0.84193 0.0
H171 H 0.92872 0.84241 0.05016 0.0
C172 C 1.00432 0.76251 0.99787 0.0
C173 C 0.89904 0.58296 0.84438 0.0
C174 C 0.88452 0.51656 0.85792 0.0
C175 C 0.85559 0.47107 0.76799 0.0
C176 C 0.83967 0.49316 0.66736 0.0
C177 C 0.85419 0.55997 0.65802 0.0
N178 N 0.88246 0.60294 0.74655 0.0
H179 H 0.92514 0.61911 0.91071 0.0
H180 H 0.84548 0.5784 0.57878 0.0
C181 C 0.95818 0.8444 0.79381 0.0
N182 N 0.94303 0.822 0.68774 0.0
C183 C 0.99869 0.93329 0.61652 0.0
C184 C 1.02608 0.95549 0.72487 0.0
C185 C 1.00098 0.911 0.81492 0.0
C186 C 0.95916 0.86457 0.59828 0.0
H187 H 0.94454 0.80855 0.85956 0.0
H188 H 0.9479 0.8462 0.51295 0.0
C189 C 0.80407 0.75728 0.58661 0.0
C190 C 0.69156 0.67497 0.95782 0.0
N191 N 0.77199 0.60072 0.84885 0.0
C192 C 0.73653 0.57912 0.75054 0.0
C193 C 0.68869 0.51172 0.73642 0.0
C194 C 0.67496 0.46654 0.82616 0.0
C195 C 0.71256 0.48993 0.92666 0.0
C196 C 0.76096 0.55784 0.93657 0.0
C197 C 0.0543 0.72834 0.64345 0.0
O198 O 0.94059 0.74261 1.02006 0.0
O199 O 1.01697 0.76092 0.89317 0.0
O200 O 0.8381 0.72621 0.56498 0.0
O201 O 0.79994 0.7674 0.6914 0.0
O202 O 0.73574 0.66819 1.01534 0.0
O203 O 0.70573 0.69028 0.85513 0.0
O204 O 0.9981 0.68068 0.60755 0.0
O205 O 0.05137 0.7728 0.70301 0.0
H206 H 0.74334 0.6149 0.68499 0.0
H207 H 0.7871 0.57713 1.01612 0.0
H208 H 0.97101 0.9606 1.03849 0.0
H209 H 0.80808 0.92427 0.80633 0.0
H210 H 0.89952 0.502 0.93557 0.0
H211 H 0.81854 0.45981 0.59559 0.0
H212 H 1.01463 0.96627 0.54452 0.0
H213 H 1.02482 0.92505 0.89756 0.0
H214 H 0.65923 0.49615 0.65892 0.0
H215 H 0.70234 0.45678 0.99831 0.0
Cd216 Cd 0.2203 0.8986 0.23252 0.0
Cd217 Cd 0.15094 0.7986 0.37231 0.0
C218 C 0.10908 0.89745 0.39313 0.0
N219 N 0.12065 0.89546 0.28153 0.0
C220 C 0.1328 1.00204 0.2513 0.0
C221 C 0.13534 1.01006 0.36901 0.0
C222 C 0.11596 0.95546 0.43961 0.0
C223 C 0.12113 0.94134 0.20832 0.0
H224 H 0.11353 0.86365 0.4499 0.0
H225 H 0.13182 0.9391 0.11979 0.0
C226 C 0.06484 0.79118 0.08914 0.0
C227 C 0.17781 0.69819 0.21469 0.0
C228 C 0.18811 0.64341 0.19309 0.0
C229 C 0.21933 0.62293 0.27567 0.0
C230 C 0.24483 0.66163 0.37396 0.0
C231 C 0.23386 0.71619 0.3918 0.0
N232 N 0.1995 0.73243 0.31373 0.0
H233 H 0.14844 0.71058 0.15612 0.0
H234 H 0.24826 0.74257 0.47169 0.0
C235 C 1.00025 0.66598 0.31086 0.0
N236 N 1.03102 0.72486 0.37105 0.0
C237 C 0.92592 0.72337 0.3936 0.0
C238 C 0.8956 0.67191 0.31484 0.0
C239 C 0.93151 0.63937 0.27771 0.0
C240 C 0.99285 0.74854 0.42187 0.0
H241 H 1.03114 0.6463 0.27388 0.0
H242 H 1.01433 0.78969 0.47978 0.0
C243 C 0.26613 0.99126 0.4864 0.0
C244 C 0.30628 0.99363 0.09407 0.0
N245 N 0.29637 0.8587 0.2767 0.0
C246 C 0.33209 0.87486 0.37537 0.0
C247 C 0.38977 0.86649 0.38676 0.0
C248 C 0.41204 0.84275 0.29487 0.0
C249 C 0.37339 0.82536 0.19485 0.0
C250 C 0.31648 0.83506 0.18684 0.0
C251 C 0.11686 0.74527 0.58481 0.0
O252 O 0.12775 0.83017 0.06274 0.0
O253 O 0.05549 0.77857 0.19542 0.0
O254 O 0.23 0.92696 0.50802 0.0
O255 O 0.27352 1.00351 0.38043 0.0
O256 O 0.27445 0.9334 0.05989 0.0
O257 O 0.29286 1.00841 0.19023 0.0
O258 O 0.15655 0.80764 0.57305 0.0
O259 O 0.11198 0.70771 0.50259 0.0
H260 H 0.31806 0.89715 0.4435 0.0
H261 H 0.28918 0.82538 0.10758 0.0
H262 H 0.15032 0.04444 0.19463 0.0
H263 H 0.1212 0.96158 0.52988 0.0
H264 H 0.1667 0.61408 0.11711 0.0
H265 H 0.26897 0.64717 0.43956 0.0
H266 H 0.90359 0.75467 0.41127 0.0
H267 H 0.91004 0.60013 0.21452 0.0
H268 H 0.41883 0.88232 0.46456 0.0
H269 H 0.3883 0.80666 0.12199 0.0
Cd270 Cd 0.34413 0.1274 0.85183 0.0
Cd271 Cd 0.37301 0.23987 0.70831 0.0
C272 C 0.20413 0.01561 0.79858 0.0
N273 N 0.2294 0.08249 0.81131 0.0
C274 C 0.11962 0.07121 0.7709 0.0
C275 C 0.0975 1.00464 0.73909 0.0
C276 C 0.14089 0.97715 0.75298 0.0
C277 C 0.18745 0.1102 0.80596 0.0
H278 H 0.23369 0.99164 0.82088 0.0
H279 H 0.20503 0.16094 0.83253 0.0
C280 C 0.29712 0.2412 0.99348 0.0
C281 C 0.49727 0.3262 0.87668 0.0
C282 C 0.5624 0.37901 0.9008 0.0
C283 C 0.61432 0.39901 0.81917 0.0
C284 C 0.60146 0.36089 0.72012 0.0
C285 C 0.53582 0.30844 0.69958 0.0
N286 N 0.48497 0.29327 0.77626 0.0
H287 H 0.45529 0.31536 0.93352 0.0
H288 H 0.52387 0.28392 0.61798 0.0
C289 C 0.34474 0.3716 0.75922 0.0
N290 N 0.32151 0.30691 0.72336 0.0
C291 C 0.20988 0.28971 0.70135 0.0
C292 C 0.22903 0.35268 0.74924 0.0
C293 C 0.29807 0.39551 0.77458 0.0
C294 C 0.257 0.26798 0.69028 0.0
H295 H 0.39744 0.40185 0.78502 0.0
H296 H 0.24255 0.21717 0.67093 0.0
C297 C 0.29862 0.05054 0.58194 0.0
C298 C 0.34103 0.04542 1.01544 0.0
N299 N 0.46017 0.1682 0.81647 0.0
C300 C 0.48079 0.15375 0.7171 0.0
C301 C 0.54674 0.16209 0.70648 0.0
C302 C 0.5915 0.18413 0.79973 0.0
C303 C 0.56902 0.19975 0.90055 0.0
C304 C 0.50251 0.19011 0.90776 0.0
C305 C 0.41605 0.32464 0.51761 0.0
O306 O 0.31061 0.19346 1.01325 0.0
O307 O 0.31004 0.26325 0.89222 0.0
O308 O 0.30946 0.11242 0.57125 0.0
O309 O 0.31571 0.03898 0.67883 0.0
O310 O 0.35024 0.1032 1.03943 0.0
O311 O 0.3421 0.02985 0.91354 0.0
O312 O 0.3907 0.26162 0.50857 0.0
O313 O 0.43735 0.34832 0.61463 0.0
H314 H 0.44536 0.13345 0.64739 0.0
H315 H 0.48382 0.1982 0.98738 0.0
H316 H 0.0853 0.09214 0.77038 0.0
H317 H 0.12356 0.92431 0.7379 0.0
H318 H 0.57001 0.40811 0.97711 0.0
H319 H 0.64014 0.37525 0.655 0.0
H320 H 0.15651 0.25232 0.69534 0.0
H321 H 0.31408 0.44308 0.81653 0.0
H322 H 0.56099 0.14779 0.62788 0.0
H323 H 0.60162 0.21701 0.97446 0.0
loop_
_geom_bond_atom_site_label_1
_geom_bond_atom_site_label_2
_geom_bond_distance
_geom_bond_site_symmetry_2
_ccdc_geom_bond_type
Cd0 N3 2.334 . S
Cd0 N29 2.304 . S
Cd0 O36 2.268 . S
Cd0 O39 2.273 . S
Cd0 O40 2.417 1_554 S
Cd0 O41 2.330 1_455 S
Cd1 N16 2.304 . S
Cd1 N20 2.334 . S
Cd1 O37 2.273 . S
Cd1 O38 2.268 . S
Cd1 O42 2.417 . S
Cd1 O43 2.330 . S
C2 N3 1.332 1_655 S
C2 C6 1.381 . S
C2 H8 0.931 . S
N3 Cd0 2.334 . S
N3 C2 1.332 1_455 S
N3 C7 1.328 . S
C4 C5 1.396 1_455 S
C4 C7 1.378 . S
C4 H46 0.931 . S
C5 C4 1.396 1_655 S
C5 C6 1.382 . S
C6 C2 1.381 . S
C6 C5 1.382 . S
C6 H47 0.930 . S
C7 N3 1.328 . S
C7 C4 1.378 . S
C7 H9 0.930 . S
H8 C2 0.931 . S
H9 C7 0.930 . S
C10 O36 1.238 . S
C10 O37 1.253 . S
C11 C12 1.379 . S
C11 N16 1.337 . S
C11 H17 0.929 . S
C12 C11 1.379 . S
C12 C13 1.380 . S
C12 H48 0.929 . S
C13 C12 1.380 . S
C13 C14 1.399 . S
C14 C13 1.399 . S
C14 C15 1.376 . S
C14 H49 0.931 . S
C15 C14 1.376 . S
C15 N16 1.338 . S
C15 H18 0.930 . S
N16 Cd1 2.304 . S
N16 C11 1.337 . S
N16 C15 1.338 . S
H17 C11 0.929 . S
H18 C15 0.930 . S
C19 N20 1.332 . S
C19 C23 1.381 . S
C19 H25 0.931 . S
N20 Cd1 2.334 . S
N20 C19 1.332 . S
N20 C24 1.328 . S
C21 C22 1.396 . S
C21 C24 1.378 . S
C21 H50 0.931 . S
C22 C21 1.396 . S
C22 C23 1.382 . S
C23 C19 1.381 . S
C23 C22 1.382 . S
C23 H51 0.930 . S
C24 N20 1.328 . S
C24 C21 1.378 . S
C24 H26 0.930 . S
H25 C19 0.931 . S
H26 C24 0.930 . S
C27 O38 1.238 . S
C27 O39 1.253 . S
C28 O40 1.239 1_554 S
C28 O41 1.230 1_455 S
N29 Cd0 2.304 . S
N29 C30 1.337 . S
N29 C34 1.338 . S
C30 N29 1.337 . S
C30 C31 1.379 . S
C30 H44 0.929 . S
C31 C30 1.379 . S
C31 C32 1.380 . S
C31 H52 0.929 . S
C32 C31 1.380 . S
C32 C33 1.399 . S
C33 C32 1.399 . S
C33 C34 1.376 . S
C33 H53 0.931 . S
C34 N29 1.338 . S
C34 C33 1.376 . S
C34 H45 0.930 . S
C35 O42 1.239 . S
C35 O43 1.230 . S
O36 Cd0 2.268 . S
O36 C10 1.238 . S
O37 Cd1 2.273 . S
O37 C10 1.253 . S
O38 Cd1 2.268 . S
O38 C27 1.238 . S
O39 Cd0 2.273 . S
O39 C27 1.253 . S
O40 Cd0 2.417 1_556 S
O40 C28 1.239 1_556 S
O41 Cd0 2.330 1_655 S
O41 C28 1.230 1_655 S
O42 Cd1 2.417 . S
O42 C35 1.239 . S
O43 Cd1 2.330 . S
O43 C35 1.230 . S
H44 C30 0.929 . S
H45 C34 0.930 . S
H46 C4 0.931 . S
H47 C6 0.930 . S
H48 C12 0.929 . S
H49 C14 0.931 . S
H50 C21 0.931 . S
H51 C23 0.930 . S
H52 C31 0.929 . S
H53 C33 0.931 . S
Cd54 N57 2.334 . S
Cd54 N83 2.304 . S
Cd54 O90 2.268 . S
Cd54 O93 2.273 . S
Cd54 O94 2.417 1_556 S
Cd54 O95 2.330 1_655 S
Cd55 N70 2.304 . S
Cd55 N74 2.334 . S
Cd55 O91 2.273 . S
Cd55 O92 2.268 . S
Cd55 O96 2.417 . S
Cd55 O97 2.330 1_545 S
C56 N57 1.332 1_455 S
C56 C60 1.381 . S
C56 H62 0.931 . S
N57 Cd54 2.334 . S
N57 C56 1.332 1_655 S
N57 C61 1.328 . S
C58 C59 1.396 1_655 S
C58 C61 1.378 . S
C58 H100 0.931 . S
C59 C58 1.396 1_455 S
C59 C60 1.382 . S
C60 C56 1.381 . S
C60 C59 1.382 . S
C60 H101 0.930 . S
C61 N57 1.328 . S
C61 C58 1.378 . S
C61 H63 0.930 . S
H62 C56 0.931 . S
H63 C61 0.930 . S
C64 O90 1.238 . S
C64 O91 1.253 . S
C65 C66 1.379 . S
C65 N70 1.337 . S
C65 H71 0.929 . S
C66 C65 1.379 . S
C66 C67 1.380 . S
C66 H102 0.929 . S
C67 C66 1.380 . S
C67 C68 1.399 . S
C68 C67 1.399 . S
C68 C69 1.376 . S
C68 H103 0.931 . S
C69 C68 1.376 . S
C69 N70 1.338 . S
C69 H72 0.930 . S
N70 Cd55 2.304 . S
N70 C65 1.337 . S
N70 C69 1.338 . S
H71 C65 0.929 . S
H72 C69 0.930 . S
C73 N74 1.332 1_565 S
C73 C77 1.381 . S
C73 H79 0.931 . S
N74 Cd55 2.334 . S
N74 C73 1.332 1_545 S
N74 C78 1.328 . S
C75 C76 1.396 1_545 S
C75 C78 1.378 . S
C75 H104 0.931 . S
C76 C75 1.396 1_565 S
C76 C77 1.382 . S
C77 C73 1.381 . S
C77 C76 1.382 . S
C77 H105 0.930 . S
C78 N74 1.328 . S
C78 C75 1.378 . S
C78 H80 0.930 . S
H79 C73 0.931 . S
H80 C78 0.930 . S
C81 O92 1.238 . S
C81 O93 1.253 . S
C82 O94 1.239 1_556 S
C82 O95 1.230 1_655 S
N83 Cd54 2.304 . S
N83 C84 1.337 . S
N83 C88 1.338 . S
C84 N83 1.337 . S
C84 C85 1.379 . S
C84 H98 0.929 . S
C85 C84 1.379 . S
C85 C86 1.380 . S
C85 H106 0.929 . S
C86 C85 1.380 . S
C86 C87 1.399 . S
C87 C86 1.399 . S
C87 C88 1.376 . S
C87 H107 0.931 . S
C88 N83 1.338 . S
C88 C87 1.376 . S
C88 H99 0.930 . S
C89 O96 1.239 . S
C89 O97 1.230 1_545 S
O90 Cd54 2.268 . S
O90 C64 1.238 . S
O91 Cd55 2.273 . S
O91 C64 1.253 . S
O92 Cd55 2.268 . S
O92 C81 1.238 . S
O93 Cd54 2.273 . S
O93 C81 1.253 . S
O94 Cd54 2.417 1_554 S
O94 C82 1.239 1_554 S
O95 Cd54 2.330 1_455 S
O95 C82 1.230 1_455 S
O96 Cd55 2.417 . S
O96 C89 1.239 . S
O97 Cd55 2.330 1_565 S
O97 C89 1.230 1_565 S
H98 C84 0.929 . S
H99 C88 0.930 . S
H100 C58 0.931 . S
H101 C60 0.930 . S
H102 C66 0.929 . S
H103 C68 0.931 . S
H104 C75 0.931 . S
H105 C77 0.930 . S
H106 C85 0.929 . S
H107 C87 0.931 . S
Cd108 N111 2.334 . S
Cd108 N137 2.304 . S
Cd108 O144 2.268 . S
Cd108 O147 2.273 . S
Cd108 O148 2.417 1_554 S
Cd108 O149 2.330 . S
Cd109 N124 2.304 . S
Cd109 N128 2.334 . S
Cd109 O145 2.273 . S
Cd109 O146 2.268 . S
Cd109 O150 2.417 . S
Cd109 O151 2.330 1_565 S
C110 N111 1.332 . S
C110 C114 1.381 . S
C110 H116 0.931 . S
N111 Cd108 2.334 . S
N111 C110 1.332 . S
N111 C115 1.328 . S
C112 C113 1.396 . S
C112 C115 1.378 . S
C112 H154 0.931 . S
C113 C112 1.396 . S
C113 C114 1.382 . S
C114 C110 1.381 . S
C114 C113 1.382 . S
C114 H155 0.930 . S
C115 N111 1.328 . S
C115 C112 1.378 . S
C115 H117 0.930 . S
H116 C110 0.931 . S
H117 C115 0.930 . S
C118 O144 1.238 . S
C118 O145 1.253 . S
C119 C120 1.379 . S
C119 N124 1.337 . S
C119 H125 0.929 . S
C120 C119 1.379 . S
C120 C121 1.380 . S
C120 H156 0.929 . S
C121 C120 1.380 . S
C121 C122 1.399 . S
C122 C121 1.399 . S
C122 C123 1.376 . S
C122 H157 0.931 . S
C123 C122 1.376 . S
C123 N124 1.338 . S
C123 H126 0.930 . S
N124 Cd109 2.304 . S
N124 C119 1.337 . S
N124 C123 1.338 . S
H125 C119 0.929 . S
H126 C123 0.930 . S
C127 N128 1.332 1_545 S
C127 C131 1.381 . S
C127 H133 0.931 . S
N128 Cd109 2.334 . S
N128 C127 1.332 1_565 S
N128 C132 1.328 . S
C129 C130 1.396 1_565 S
C129 C132 1.378 . S
C129 H158 0.931 . S
C130 C129 1.396 1_545 S
C130 C131 1.382 . S
C131 C127 1.381 . S
C131 C130 1.382 . S
C131 H159 0.930 . S
C132 N128 1.328 . S
C132 C129 1.378 . S
C132 H134 0.930 . S
H133 C127 0.931 . S
H134 C132 0.930 . S
C135 O146 1.238 . S
C135 O147 1.253 . S
C136 O148 1.239 1_554 S
C136 O149 1.230 . S
N137 Cd108 2.304 . S
N137 C138 1.337 . S
N137 C142 1.338 . S
C138 N137 1.337 . S
C138 C139 1.379 . S
C138 H152 0.929 . S
C139 C138 1.379 . S
C139 C140 1.380 . S
C139 H160 0.929 . S
C140 C139 1.380 . S
C140 C141 1.399 . S
C141 C140 1.399 . S
C141 C142 1.376 . S
C141 H161 0.931 . S
C142 N137 1.338 . S
C142 C141 1.376 . S
C142 H153 0.930 . S
C143 O150 1.239 . S
C143 O151 1.230 1_565 S
O144 Cd108 2.268 . S
O144 C118 1.238 . S
O145 Cd109 2.273 . S
O145 C118 1.253 . S
O146 Cd109 2.268 . S
O146 C135 1.238 . S
O147 Cd108 2.273 . S
O147 C135 1.253 . S
O148 Cd108 2.417 1_556 S
O148 C136 1.239 1_556 S
O149 Cd108 2.330 . S
O149 C136 1.230 . S
O150 Cd109 2.417 . S
O150 C143 1.239 . S
O151 Cd109 2.330 1_545 S
O151 C143 1.230 1_545 S
H152 C138 0.929 . S
H153 C142 0.930 . S
H154 C112 0.931 . S
H155 C114 0.930 . S
H156 C120 0.929 . S
H157 C122 0.931 . S
H158 C129 0.931 . S
H159 C131 0.930 . S
H160 C139 0.929 . S
H161 C141 0.931 . S
Cd162 N165 2.334 . S
Cd162 N191 2.304 . S
Cd162 O198 2.268 . S
Cd162 O201 2.273 . S
Cd162 O202 2.417 1_556 S
Cd162 O203 2.330 . S
Cd163 N178 2.304 . S
Cd163 N182 2.334 . S
Cd163 O199 2.273 . S
Cd163 O200 2.268 . S
Cd163 O204 2.417 . S
Cd163 O205 2.330 1_655 S
C164 N165 1.332 . S
C164 C168 1.381 . S
C164 H170 0.931 . S
N165 Cd162 2.334 . S
N165 C164 1.332 . S
N165 C169 1.328 . S
C166 C167 1.396 . S
C166 C169 1.378 . S
C166 H208 0.931 . S
C167 C166 1.396 . S
C167 C168 1.382 . S
C168 C164 1.381 . S
C168 C167 1.382 . S
C168 H209 0.930 . S
C169 N165 1.328 . S
C169 C166 1.378 . S
C169 H171 0.930 . S
H170 C164 0.931 . S
H171 C169 0.930 . S
C172 O198 1.238 . S
C172 O199 1.253 . S
C173 C174 1.379 . S
C173 N178 1.337 . S
C173 H179 0.929 . S
C174 C173 1.379 . S
C174 C175 1.380 . S
C174 H210 0.929 . S
C175 C174 1.380 . S
C175 C176 1.399 . S
C176 C175 1.399 . S
C176 C177 1.376 . S
C176 H211 0.931 . S
C177 C176 1.376 . S
C177 N178 1.338 . S
C177 H180 0.930 . S
N178 Cd163 2.304 . S
N178 C173 1.337 . S
N178 C177 1.338 . S
H179 C173 0.929 . S
H180 C177 0.930 . S
C181 N182 1.332 1_455 S
C181 C185 1.381 . S
C181 H187 0.931 . S
N182 Cd163 2.334 . S
N182 C181 1.332 1_655 S
N182 C186 1.328 . S
C183 C184 1.396 1_655 S
C183 C186 1.378 . S
C183 H212 0.931 . S
C184 C183 1.396 1_455 S
C184 C185 1.382 . S
C185 C181 1.381 . S
C185 C184 1.382 . S
C185 H213 0.930 . S
C186 N182 1.328 . S
C186 C183 1.378 . S
C186 H188 0.930 . S
H187 C181 0.931 . S
H188 C186 0.930 . S
C189 O200 1.238 . S
C189 O201 1.253 . S
C190 O202 1.239 1_556 S
C190 O203 1.230 . S
N191 Cd162 2.304 . S
N191 C192 1.337 . S
N191 C196 1.338 . S
C192 N191 1.337 . S
C192 C193 1.379 . S
C192 H206 0.929 . S
C193 C192 1.379 . S
C193 C194 1.380 . S
C193 H214 0.929 . S
C194 C193 1.380 . S
C194 C195 1.399 . S
C195 C194 1.399 . S
C195 C196 1.376 . S
C195 H215 0.931 . S
C196 N191 1.338 . S
C196 C195 1.376 . S
C196 H207 0.930 . S
C197 O204 1.239 . S
C197 O205 1.230 1_655 S
O198 Cd162 2.268 . S
O198 C172 1.238 . S
O199 Cd163 2.273 . S
O199 C172 1.253 . S
O200 Cd163 2.268 . S
O200 C189 1.238 . S
O201 Cd162 2.273 . S
O201 C189 1.253 . S
O202 Cd162 2.417 1_554 S
O202 C190 1.239 1_554 S
O203 Cd162 2.330 . S
O203 C190 1.230 . S
O204 Cd163 2.417 . S
O204 C197 1.239 . S
O205 Cd163 2.330 1_455 S
O205 C197 1.230 1_455 S
H206 C192 0.929 . S
H207 C196 0.930 . S
H208 C166 0.931 . S
H209 C168 0.930 . S
H210 C174 0.929 . S
H211 C176 0.931 . S
H212 C183 0.931 . S
H213 C185 0.930 . S
H214 C193 0.929 . S
H215 C195 0.931 . S
Cd216 N219 2.334 . S
Cd216 N245 2.304 . S
Cd216 O252 2.268 . S
Cd216 O255 2.273 . S
Cd216 O256 2.417 1_554 S
Cd216 O257 2.330 1_565 S
Cd217 N232 2.304 . S
Cd217 N236 2.334 . S
Cd217 O253 2.273 . S
Cd217 O254 2.268 . S
Cd217 O258 2.417 . S
Cd217 O259 2.330 1_455 S
C218 N219 1.332 1_545 S
C218 C222 1.381 . S
C218 H224 0.931 . S
N219 Cd216 2.334 . S
N219 C218 1.332 1_565 S
N219 C223 1.328 . S
C220 C221 1.396 1_565 S
C220 C223 1.378 . S
C220 H262 0.931 . S
C221 C220 1.396 1_545 S
C221 C222 1.382 . S
C222 C218 1.381 . S
C222 C221 1.382 . S
C222 H263 0.930 . S
C223 N219 1.328 . S
C223 C220 1.378 . S
C223 H225 0.930 . S
H224 C218 0.931 . S
H225 C223 0.930 . S
C226 O252 1.238 . S
C226 O253 1.253 . S
C227 C228 1.379 . S
C227 N232 1.337 . S
C227 H233 0.929 . S
C228 C227 1.379 . S
C228 C229 1.380 . S
C228 H264 0.929 . S
C229 C228 1.380 . S
C229 C230 1.399 . S
C230 C229 1.399 . S
C230 C231 1.376 . S
C230 H265 0.931 . S
C231 C230 1.376 . S
C231 N232 1.338 . S
C231 H234 0.930 . S
N232 Cd217 2.304 . S
N232 C227 1.337 . S
N232 C231 1.338 . S
H233 C227 0.929 . S
H234 C231 0.930 . S
C235 N236 1.332 1_655 S
C235 C239 1.381 . S
C235 H241 0.931 . S
N236 Cd217 2.334 . S
N236 C235 1.332 1_455 S
N236 C240 1.328 . S
C237 C238 1.396 1_455 S
C237 C240 1.378 . S
C237 H266 0.931 . S
C238 C237 1.396 1_655 S
C238 C239 1.382 . S
C239 C235 1.381 . S
C239 C238 1.382 . S
C239 H267 0.930 . S
C240 N236 1.328 . S
C240 C237 1.378 . S
C240 H242 0.930 . S
H241 C235 0.931 . S
H242 C240 0.930 . S
C243 O254 1.238 . S
C243 O255 1.253 . S
C244 O256 1.239 1_554 S
C244 O257 1.230 1_565 S
N245 Cd216 2.304 . S
N245 C246 1.337 . S
N245 C250 1.338 . S
C246 N245 1.337 . S
C246 C247 1.379 . S
C246 H260 0.929 . S
C247 C246 1.379 . S
C247 C248 1.380 . S
C247 H268 0.929 . S
C248 C247 1.380 . S
C248 C249 1.399 . S
C249 C248 1.399 . S
C249 C250 1.376 . S
C249 H269 0.931 . S
C250 N245 1.338 . S
C250 C249 1.376 . S
C250 H261 0.930 . S
C251 O258 1.239 . S
C251 O259 1.230 1_455 S
O252 Cd216 2.268 . S
O252 C226 1.238 . S
O253 Cd217 2.273 . S
O253 C226 1.253 . S
O254 Cd217 2.268 . S
O254 C243 1.238 . S
O255 Cd216 2.273 . S
O255 C243 1.253 . S
O256 Cd216 2.417 1_556 S
O256 C244 1.239 1_556 S
O257 Cd216 2.330 1_545 S
O257 C244 1.230 1_545 S
O258 Cd217 2.417 . S
O258 C251 1.239 . S
O259 Cd217 2.330 1_655 S
O259 C251 1.230 1_655 S
H260 C246 0.929 . S
H261 C250 0.930 . S
H262 C220 0.931 . S
H263 C222 0.930 . S
H264 C228 0.929 . S
H265 C230 0.931 . S
H266 C237 0.931 . S
H267 C239 0.930 . S
H268 C247 0.929 . S
H269 C249 0.931 . S
Cd270 N273 2.334 . S
Cd270 N299 2.304 . S
Cd270 O306 2.268 . S
Cd270 O309 2.273 . S
Cd270 O310 2.417 1_556 S
Cd270 O311 2.330 1_545 S
Cd271 N286 2.304 . S
Cd271 N290 2.334 . S
Cd271 O307 2.273 . S
Cd271 O308 2.268 . S
Cd271 O312 2.417 . S
Cd271 O313 2.330 . S
C272 N273 1.332 1_565 S
C272 C276 1.381 . S
C272 H278 0.931 . S
N273 Cd270 2.334 . S
N273 C272 1.332 1_545 S
N273 C277 1.328 . S
C274 C275 1.396 1_545 S
C274 C277 1.378 . S
C274 H316 0.931 . S
C275 C274 1.396 1_565 S
C275 C276 1.382 . S
C276 C272 1.381 . S
C276 C275 1.382 . S
C276 H317 0.930 . S
C277 N273 1.328 . S
C277 C274 1.378 . S
C277 H279 0.930 . S
H278 C272 0.931 . S
H279 C277 0.930 . S
C280 O306 1.238 . S
C280 O307 1.253 . S
C281 C282 1.379 . S
C281 N286 1.337 . S
C281 H287 0.929 . S
C282 C281 1.379 . S
C282 C283 1.380 . S
C282 H318 0.929 . S
C283 C282 1.380 . S
C283 C284 1.399 . S
C284 C283 1.399 . S
C284 C285 1.376 . S
C284 H319 0.931 . S
C285 C284 1.376 . S
C285 N286 1.338 . S
C285 H288 0.930 . S
N286 Cd271 2.304 . S
N286 C281 1.337 . S
N286 C285 1.338 . S
H287 C281 0.929 . S
H288 C285 0.930 . S
C289 N290 1.332 . S
C289 C293 1.381 . S
C289 H295 0.931 . S
N290 Cd271 2.334 . S
N290 C289 1.332 . S
N290 C294 1.328 . S
C291 C292 1.396 . S
C291 C294 1.378 . S
C291 H320 0.931 . S
C292 C291 1.396 . S
C292 C293 1.382 . S
C293 C289 1.381 . S
C293 C292 1.382 . S
C293 H321 0.930 . S
C294 N290 1.328 . S
C294 C291 1.378 . S
C294 H296 0.930 . S
H295 C289 0.931 . S
H296 C294 0.930 . S
C297 O308 1.238 . S
C297 O309 1.253 . S
C298 O310 1.239 1_556 S
C298 O311 1.230 1_545 S
N299 Cd270 2.304 . S
N299 C300 1.337 . S
N299 C304 1.338 . S
C300 N299 1.337 . S
C300 C301 1.379 . S
C300 H314 0.929 . S
C301 C300 1.379 . S
C301 C302 1.380 . S
C301 H322 0.929 . S
C302 C301 1.380 . S
C302 C303 1.399 . S
C303 C302 1.399 . S
C303 C304 1.376 . S
C303 H323 0.931 . S
C304 N299 1.338 . S
C304 C303 1.376 . S
C304 H315 0.930 . S
C305 O312 1.239 . S
C305 O313 1.230 . S
O306 Cd270 2.268 . S
O306 C280 1.238 . S
O307 Cd271 2.273 . S
O307 C280 1.253 . S
O308 Cd271 2.268 . S
O308 C297 1.238 . S
O309 Cd270 2.273 . S
O309 C297 1.253 . S
O310 Cd270 2.417 1_554 S
O310 C298 1.239 1_554 S
O311 Cd270 2.330 1_565 S
O311 C298 1.230 1_565 S
O312 Cd271 2.417 . S
O312 C305 1.239 . S
O313 Cd271 2.330 . S
O313 C305 1.230 . S
H314 C300 0.929 . S
H315 C304 0.930 . S
H316 C274 0.931 . S
H317 C276 0.930 . S
H318 C282 0.929 . S
H319 C284 0.931 . S
H320 C291 0.931 . S
H321 C293 0.930 . S
H322 C301 0.929 . S
H323 C303 0.931 . S
C32 C229 2.973 . S
C302 C67 2.973 . S
C13 C140 2.973 . S
C86 C175 2.973 . S
C248 C121 2.973 . S
C283 C194 2.973 . S
C22 C221 2.003 . S
C59 C292 2.003 . S
C5 C130 2.003 . S
C76 C167 2.003 . S
C113 C238 2.003 . S
C275 C184 2.003 . S
C10 C280 4.342 1_554 S
C81 C27 4.342 1_655 S
C118 C64 4.342 1_564 S
C189 C135 4.342 . S
C172 C226 4.342 1_656 S
C297 C243 4.342 1_545 S
C190 C136 0.390 1_556 S
C251 C197 0.390 1_455 S
C298 C244 0.390 1_546 S
C305 C35 0.390 . S
C28 C82 0.390 1_454 S
C89 C143 0.390 1_545 S
