# Generated by pormake.
# Topology skc, (5)-cn, num edge types: 1
# Building blocks:
#     Node 0, Type 0, BuildingBlock: BEQFEK_clean_sbu_0, # of connection points: 5
#     Node 1, Type 0, BuildingBlock: BEQFEK_clean_sbu_0, # of connection points: 5
#     Node 2, Type 0, BuildingBlock: BEQFEK_clean_sbu_0, # of connection points: 5
#     Node 3, Type 0, BuildingBlock: BEQFEK_clean_sbu_0, # of connection points: 5
#     Node 4, Type 0, BuildingBlock: BEQFEK_clean_sbu_0, # of connection points: 5
#     Node 5, Type 0, BuildingBlock: BEQFEK_clean_sbu_0, # of connection points: 5
#     Node 6, Type 0, BuildingBlock: BEQFEK_clean_sbu_0, # of connection points: 5
#     Node 7, Type 0, BuildingBlock: BEQFEK_clean_sbu_0, # of connection points: 5
#     Edge 8, Type (0, 0), BuildingBlock: MIFKUJ_clean_linker_0, # of connection points: 2
#     Edge 9, Type (0, 0), BuildingBlock: MIFKUJ_clean_linker_0, # of connection points: 2
#     Edge 10, Type (0, 0), BuildingBlock: MIFKUJ_clean_linker_0, # of connection points: 2
#     Edge 11, Type (0, 0), BuildingBlock: MIFKUJ_clean_linker_0, # of connection points: 2
#     Edge 12, Type (0, 0), BuildingBlock: MIFKUJ_clean_linker_0, # of connection points: 2
#     Edge 13, Type (0, 0), BuildingBlock: MIFKUJ_clean_linker_0, # of connection points: 2
#     Edge 14, Type (0, 0), BuildingBlock: MIFKUJ_clean_linker_0, # of connection points: 2
#     Edge 15, Type (0, 0), BuildingBlock: MIFKUJ_clean_linker_0, # of connection points: 2
#     Edge 16, Type (0, 0), BuildingBlock: MIFKUJ_clean_linker_0, # of connection points: 2
#     Edge 17, Type (0, 0), BuildingBlock: MIFKUJ_clean_linker_0, # of connection points: 2
#     Edge 18, Type (0, 0), BuildingBlock: MIFKUJ_clean_linker_0, # of connection points: 2
#     Edge 19, Type (0, 0), BuildingBlock: MIFKUJ_clean_linker_0, # of connection points: 2
#     Edge 20, Type (0, 0), BuildingBlock: MIFKUJ_clean_linker_0, # of connection points: 2
#     Edge 21, Type (0, 0), BuildingBlock: MIFKUJ_clean_linker_0, # of connection points: 2
#     Edge 22, Type (0, 0), BuildingBlock: MIFKUJ_clean_linker_0, # of connection points: 2
#     Edge 23, Type (0, 0), BuildingBlock: MIFKUJ_clean_linker_0, # of connection points: 2
#     Edge 24, Type (0, 0), BuildingBlock: MIFKUJ_clean_linker_0, # of connection points: 2
#     Edge 25, Type (0, 0), BuildingBlock: MIFKUJ_clean_linker_0, # of connection points: 2
#     Edge 26, Type (0, 0), BuildingBlock: MIFKUJ_clean_linker_0, # of connection points: 2
#     Edge 27, Type (0, 0), BuildingBlock: MIFKUJ_clean_linker_0, # of connection points: 2
# Relax obj value: 0.157
# Max RMSD: 0.190
# Mean RMSD: 0.190
data_MOF--net-skc--node1-BEQFEK_clean_sbu_0--edge1-MIFKUJ_clean_linker_0
_symmetry_space_group_name_H-M    P1
_symmetry_Int_Tables_number       1
_symmetry_cell_setting            triclinic
loop_
_symmetry_equiv_pos_as_xyz
'x, y, z'
_cell_length_a     58.021243
_cell_length_b     28.997062
_cell_length_c     30.959308
_cell_angle_alpha  89.972778
_cell_angle_beta   89.983689
_cell_angle_gamma 90.0084
loop_
_atom_site_label
_atom_site_type_symbol
_atom_site_fract_x
_atom_site_fract_y
_atom_site_fract_z
_atom_type_partial_charge
Co0 Co 0.0741 0.20229 0.16845 0.0
Co1 Co 0.10316 0.23425 0.08731 0.0
C2 C 0.0691 0.15642 0.08225 0.0
O3 O 0.06353 0.16147 0.12169 0.0
O4 O 0.08455 0.18148 0.0647 0.0
C5 C 0.05124 0.14058 0.22854 0.0
O6 O 0.05079 0.11198 0.19567 0.0
C7 C 0.13892 0.23082 0.01838 0.0
C8 C 0.13967 0.30384 0.99802 0.0
C9 C 0.14937 0.26116 0.98951 0.0
N10 N 0.12389 0.25473 0.04287 0.0
N11 N 0.12448 0.29832 0.03043 0.0
C12 C 0.14196 0.17965 0.02081 0.0
H13 H 0.12735 0.1635 0.03827 0.0
H14 H 0.15806 0.17158 0.03853 0.0
H15 H 0.14344 0.16491 0.98783 0.0
C16 C 0.12074 0.19865 0.20655 0.0
N17 N 0.10678 0.20421 0.17223 0.0
N18 N 0.11905 0.21857 0.13903 0.0
C19 C 0.14121 0.22343 0.15155 0.0
C20 C 0.143 0.21083 0.19474 0.0
C21 C 0.11265 0.18285 0.25004 0.0
H22 H 0.10176 0.15168 0.24626 0.0
H23 H 0.12727 0.17455 0.27177 0.0
H24 H 0.10192 0.21026 0.2649 0.0
O25 O 0.06174 0.26504 0.15679 0.0
O26 O 0.08221 0.28704 0.09964 0.0
H27 H 0.17424 0.25753 0.14456 0.0
H28 H 0.16606 0.22008 0.10079 0.0
C29 C 0.15957 0.2455 0.12456 0.0
H30 H 0.15233 0.2753 0.10672 0.0
H31 H 0.11436 0.32438 0.0439 0.0
O32 O 0.06041 0.18018 0.22389 0.0
C33 C 0.06671 0.29479 0.12791 0.0
Co34 Co 0.9276 0.81066 0.15 0.0
Co35 Co 0.89647 0.77028 0.07562 0.0
C36 C 0.92802 0.85255 0.06244 0.0
O37 O 0.93444 0.85275 0.10176 0.0
O38 O 0.91375 0.82255 0.04846 0.0
C39 C 0.94798 0.87415 0.21343 0.0
O40 O 0.94029 0.90803 0.18922 0.0
C41 C 0.85857 0.76925 0.01088 0.0
C42 C 0.85766 0.69523 0.99406 0.0
C43 C 0.84751 0.73725 0.98457 0.0
N44 N 0.87442 0.74694 0.03487 0.0
N45 N 0.87369 0.70271 0.02465 0.0
C46 C 0.8553 0.82042 0.01122 0.0
H47 H 0.83946 0.82902 0.02957 0.0
H48 H 0.85315 0.83346 0.97774 0.0
H49 H 0.8701 0.83774 0.02701 0.0
C50 C 0.88243 0.81174 0.19495 0.0
N51 N 0.89533 0.80489 0.15936 0.0
N52 N 0.88223 0.78776 0.12853 0.0
C53 C 0.86061 0.78259 0.14383 0.0
C54 C 0.85999 0.79782 0.18635 0.0
C55 C 0.89158 0.83127 0.23626 0.0
H56 H 0.90034 0.86445 0.22943 0.0
H57 H 0.87771 0.83741 0.26023 0.0
H58 H 0.90453 0.80725 0.25003 0.0
O59 O 0.94149 0.74947 0.13687 0.0
O60 O 0.91836 0.71914 0.08723 0.0
H61 H 0.82762 0.74749 0.14206 0.0
H62 H 0.83433 0.78242 0.09557 0.0
C63 C 0.84163 0.7586 0.11998 0.0
H64 H 0.84855 0.72792 0.10303 0.0
H65 H 0.88434 0.6776 0.03824 0.0
O66 O 0.94382 0.83261 0.2027 0.0
C67 C 0.93584 0.71642 0.11196 0.0
Co68 Co 0.0878 0.78242 0.66761 0.0
Co69 Co 0.11696 0.74165 0.74457 0.0
C70 C 0.08633 0.82359 0.75629 0.0
O71 O 0.08004 0.82242 0.71691 0.0
O72 O 0.10087 0.7949 0.7714 0.0
C73 C 0.06722 0.84978 0.60925 0.0
O74 O 0.06878 0.87874 0.64172 0.0
C75 C 0.15245 0.73815 0.8124 0.0
C76 C 0.15637 0.66302 0.82173 0.0
C77 C 0.16461 0.70526 0.836 0.0
N78 N 0.13787 0.71614 0.78566 0.0
N79 N 0.1402 0.67129 0.79161 0.0
C80 C 0.15553 0.78937 0.81251 0.0
H81 H 0.14912 0.80443 0.7818 0.0
H82 H 0.17395 0.7985 0.81706 0.0
H83 H 0.14539 0.80438 0.83945 0.0
C84 C 0.13368 0.78143 0.62631 0.0
N85 N 0.12005 0.77551 0.66105 0.0
N86 N 0.13244 0.75892 0.69313 0.0
C87 C 0.15441 0.75389 0.67974 0.0
C88 C 0.15586 0.76808 0.63707 0.0
C89 C 0.12536 0.79826 0.58334 0.0
H90 H 0.11706 0.83243 0.58741 0.0
H91 H 0.13965 0.8014 0.55968 0.0
H92 H 0.11217 0.77407 0.57067 0.0
O93 O 0.07308 0.72187 0.67787 0.0
O94 O 0.09401 0.69274 0.73149 0.0
H95 H 0.16681 0.69843 0.71904 0.0
H96 H 0.18876 0.72517 0.68607 0.0
C97 C 0.1731 0.73162 0.70573 0.0
H98 H 0.17772 0.75442 0.73311 0.0
H99 H 0.13092 0.64627 0.77472 0.0
O100 O 0.07422 0.80848 0.61395 0.0
C101 C 0.07749 0.68963 0.70456 0.0
Co102 Co 0.91339 0.2052 0.6867 0.0
Co103 Co 0.8848 0.2518 0.76143 0.0
C104 C 0.91257 0.16479 0.77491 0.0
O105 O 0.91878 0.16298 0.7355 0.0
O106 O 0.89974 0.19725 0.78875 0.0
C107 C 0.92988 0.13797 0.6228 0.0
O108 O 0.91995 0.10607 0.64651 0.0
C109 C 0.84752 0.25761 0.82623 0.0
C110 C 0.84932 0.33112 0.84469 0.0
C111 C 0.83774 0.29039 0.85338 0.0
N112 N 0.864 0.27822 0.80248 0.0
N113 N 0.86491 0.32218 0.81362 0.0
C114 C 0.84247 0.207 0.8249 0.0
H115 H 0.84018 0.19341 0.85816 0.0
H116 H 0.85646 0.18806 0.8082 0.0
H117 H 0.82623 0.20104 0.80692 0.0
C118 C 0.86796 0.21071 0.64327 0.0
N119 N 0.88149 0.21621 0.6782 0.0
N120 N 0.86953 0.23632 0.70909 0.0
C121 C 0.84807 0.24488 0.69446 0.0
C122 C 0.84634 0.22871 0.6524 0.0
C123 C 0.87569 0.18822 0.60226 0.0
H124 H 0.8826 0.15351 0.60975 0.0
H125 H 0.86142 0.18443 0.57873 0.0
H126 H 0.88979 0.20886 0.58764 0.0
O127 O 0.92959 0.26409 0.69854 0.0
O128 O 0.90878 0.29864 0.74931 0.0
H129 H 0.81702 0.28632 0.69632 0.0
H130 H 0.82198 0.25038 0.74286 0.0
C131 C 0.83043 0.27258 0.71839 0.0
H132 H 0.83884 0.30182 0.73519 0.0
H133 H 0.87643 0.34599 0.80043 0.0
O134 O 0.92839 0.18008 0.63396 0.0
C135 C 0.92589 0.29814 0.72356 0.0
Co136 Co 0.59287 0.71651 0.64678 0.0
Co137 Co 0.62143 0.76371 0.57276 0.0
C138 C 0.59099 0.68086 0.55661 0.0
O139 O 0.58507 0.67803 0.59613 0.0
O140 O 0.60504 0.71174 0.54374 0.0
C141 C 0.5657 0.65516 0.70125 0.0
O142 O 0.56203 0.63112 0.66597 0.0
C143 C 0.65881 0.76861 0.50854 0.0
C144 C 0.65816 0.84239 0.4907 0.0
C145 C 0.66926 0.80112 0.482 0.0
N146 N 0.64243 0.78986 0.532 0.0
N147 N 0.64217 0.83395 0.52119 0.0
C148 C 0.66311 0.71772 0.50958 0.0
H149 H 0.64853 0.69938 0.5251 0.0
H150 H 0.6789 0.71054 0.52856 0.0
H151 H 0.66583 0.70446 0.47633 0.0
C152 C 0.6385 0.71705 0.68911 0.0
N153 N 0.62505 0.72406 0.65429 0.0
N154 N 0.63714 0.74484 0.62401 0.0
C155 C 0.65871 0.75215 0.63895 0.0
C156 C 0.66029 0.7346 0.68063 0.0
C157 C 0.63028 0.6954 0.73022 0.0
H158 H 0.62029 0.66379 0.72273 0.0
H159 H 0.64487 0.68638 0.75182 0.0
H160 H 0.61865 0.71981 0.74714 0.0
O161 O 0.57806 0.77735 0.63881 0.0
O162 O 0.59806 0.81172 0.58686 0.0
H163 H 0.66824 0.81041 0.60005 0.0
H164 H 0.68986 0.79328 0.63887 0.0
C165 C 0.67651 0.78055 0.61616 0.0
H166 H 0.68505 0.75915 0.59121 0.0
H167 H 0.6309 0.85825 0.53435 0.0
O168 O 0.57858 0.69061 0.69964 0.0
C169 C 0.58159 0.81175 0.61411 0.0
Co170 Co 0.40756 0.27868 0.66378 0.0
Co171 Co 0.37993 0.23949 0.58482 0.0
C172 C 0.41183 0.32137 0.57649 0.0
O173 O 0.41681 0.32034 0.61652 0.0
O174 O 0.3976 0.29268 0.56024 0.0
C175 C 0.42884 0.34045 0.72669 0.0
O176 O 0.42641 0.37318 0.6977 0.0
C177 C 0.3437 0.23971 0.51786 0.0
C178 C 0.34418 0.1669 0.49684 0.0
C179 C 0.3335 0.20886 0.48931 0.0
N180 N 0.35952 0.21681 0.54131 0.0
N181 N 0.35969 0.17332 0.52856 0.0
C182 C 0.33969 0.29058 0.52096 0.0
H183 H 0.35429 0.30774 0.53758 0.0
H184 H 0.32382 0.2972 0.53989 0.0
H185 H 0.33729 0.30555 0.48826 0.0
C186 C 0.36118 0.27822 0.70296 0.0
N187 N 0.3752 0.27276 0.6687 0.0
N188 N 0.36343 0.25503 0.63638 0.0
C189 C 0.34148 0.24798 0.64948 0.0
C190 C 0.33932 0.26261 0.69209 0.0
C191 C 0.36887 0.29718 0.74553 0.0
H192 H 0.37916 0.3289 0.74016 0.0
H193 H 0.35403 0.30549 0.76676 0.0
H194 H 0.38009 0.27152 0.76183 0.0
O195 O 0.42171 0.21774 0.65286 0.0
O196 O 0.4025 0.18943 0.59691 0.0
H197 H 0.30992 0.20842 0.64485 0.0
H198 H 0.3158 0.24627 0.60012 0.0
C199 C 0.32374 0.22243 0.6238 0.0
H200 H 0.33192 0.19364 0.60595 0.0
H201 H 0.37053 0.14803 0.54133 0.0
O202 O 0.42147 0.30007 0.71858 0.0
C203 C 0.41831 0.18593 0.62527 0.0
Co204 Co 0.58098 0.29508 0.18452 0.0
Co205 Co 0.60987 0.25813 0.26246 0.0
C206 C 0.577 0.3392 0.27034 0.0
O207 O 0.57159 0.33819 0.23049 0.0
O208 O 0.5915 0.31077 0.28619 0.0
C209 C 0.56212 0.35227 0.11494 0.0
O210 O 0.5683 0.38864 0.13743 0.0
C211 C 0.64598 0.26021 0.32948 0.0
C212 C 0.64514 0.18792 0.3522 0.0
C213 C 0.65578 0.23001 0.35901 0.0
N214 N 0.63032 0.23683 0.30615 0.0
N215 N 0.62995 0.19367 0.31988 0.0
C216 C 0.65009 0.31097 0.32558 0.0
H217 H 0.65069 0.32691 0.35816 0.0
H218 H 0.63642 0.32742 0.30581 0.0
H219 H 0.66695 0.31716 0.30978 0.0
C220 C 0.62732 0.29618 0.14401 0.0
N221 N 0.61351 0.29023 0.17854 0.0
N222 N 0.62577 0.27377 0.21083 0.0
C223 C 0.64774 0.26796 0.19755 0.0
C224 C 0.64946 0.28213 0.15479 0.0
C225 C 0.61933 0.31504 0.10158 0.0
H226 H 0.61001 0.34785 0.10713 0.0
H227 H 0.63389 0.32174 0.07923 0.0
H228 H 0.60717 0.2903 0.08647 0.0
O229 O 0.56708 0.2346 0.19826 0.0
O230 O 0.58875 0.20612 0.25093 0.0
H231 H 0.67994 0.23061 0.20242 0.0
H232 H 0.6737 0.26922 0.24638 0.0
C233 C 0.66603 0.24425 0.22344 0.0
H234 H 0.65843 0.21541 0.24213 0.0
H235 H 0.61912 0.16814 0.30748 0.0
O236 O 0.56646 0.31218 0.12926 0.0
C237 C 0.57201 0.20257 0.22471 0.0
Co238 Co 0.42113 0.70897 0.16568 0.0
Co239 Co 0.39196 0.73947 0.24608 0.0
C240 C 0.42564 0.6606 0.25063 0.0
O241 O 0.43069 0.66429 0.2107 0.0
O242 O 0.41083 0.68715 0.26818 0.0
C243 C 0.43504 0.6541 0.09097 0.0
O244 O 0.42352 0.61978 0.10834 0.0
C245 C 0.35777 0.73696 0.31762 0.0
C246 C 0.35176 0.81162 0.32667 0.0
C247 C 0.34524 0.76863 0.34174 0.0
N248 N 0.37088 0.76036 0.28917 0.0
N249 N 0.36724 0.80492 0.29499 0.0
C250 C 0.35798 0.6856 0.32261 0.0
H251 H 0.34366 0.67048 0.30358 0.0
H252 H 0.3555 0.6759 0.35699 0.0
H253 H 0.37434 0.67089 0.31046 0.0
C254 C 0.37451 0.70962 0.12534 0.0
N255 N 0.38857 0.71353 0.15983 0.0
N256 N 0.37622 0.72507 0.19384 0.0
C257 C 0.35387 0.72829 0.1821 0.0
C258 C 0.35205 0.71844 0.13833 0.0
C259 C 0.38267 0.70269 0.07991 0.0
H260 H 0.39896 0.7218 0.07454 0.0
H261 H 0.38582 0.66544 0.07439 0.0
H262 H 0.3697 0.71481 0.05614 0.0
O263 O 0.43454 0.76908 0.18125 0.0
O264 O 0.41316 0.79214 0.23656 0.0
H265 H 0.33705 0.77629 0.22397 0.0
H266 H 0.31754 0.73709 0.19687 0.0
C267 C 0.33468 0.74042 0.21234 0.0
H268 H 0.33523 0.71712 0.2406 0.0
H269 H 0.37527 0.83088 0.2771 0.0
O270 O 0.43584 0.69271 0.11023 0.0
C271 C 0.42961 0.79866 0.21009 0.0
H272 H 0.02366 0.31292 0.15953 0.0
H273 H 0.00219 0.38565 0.15513 0.0
H274 H 0.05962 0.44957 0.09021 0.0
H275 H 0.08098 0.37664 0.09322 0.0
H276 H 0.03392 0.49619 0.1733 0.0
H277 H 0.02634 0.43578 0.026 0.0
H278 H 0.01673 0.3739 0.9744 0.0
H279 H 0.94831 0.36567 0.0268 0.0
H280 H 0.95767 0.42706 0.07916 0.0
H281 H 0.98249 0.70908 0.11841 0.0
H282 H 0.00557 0.63852 0.11882 0.0
H283 H 0.9434 0.55719 0.10907 0.0
H284 H 0.92054 0.62798 0.10528 0.0
H285 H 0.97251 0.5179 0.06366 0.0
H286 H 0.97675 0.57552 0.20839 0.0
H287 H 0.98406 0.63262 0.2658 0.0
H288 H 0.05511 0.64103 0.22771 0.0
H289 H 0.04815 0.58438 0.1697 0.0
C290 C 0.03175 0.34249 0.14442 0.0
C291 C 0.054 0.33906 0.12666 0.0
C292 C 0.01945 0.3839 0.14188 0.0
C293 C 0.02936 0.42275 0.12231 0.0
C294 C 0.05173 0.41983 0.10539 0.0
C295 C 0.06384 0.37816 0.10704 0.0
C296 C 0.01621 0.46631 0.11918 0.0
C297 C 0.02069 0.50144 0.14905 0.0
C298 C 0.99846 0.47212 0.08849 0.0
C299 C 0.99279 0.43557 0.05679 0.0
C300 C 0.00933 0.42043 0.0268 0.0
C301 C 0.00391 0.38553 0.99735 0.0
C302 C 0.98195 0.36575 0.99741 0.0
C303 C 0.96533 0.38095 0.02683 0.0
C304 C 0.97068 0.41581 0.05638 0.0
C305 C 0.97383 0.67605 0.1163 0.0
C306 C 0.94976 0.67383 0.11213 0.0
C307 C 0.987 0.63566 0.11687 0.0
C308 C 0.97629 0.59213 0.11516 0.0
C309 C 0.95218 0.59012 0.11053 0.0
C310 C 0.93909 0.63056 0.10851 0.0
C311 C 0.9901 0.54877 0.11792 0.0
C312 C 0.98574 0.51328 0.08803 0.0
C313 C 0.0076 0.54223 0.14941 0.0
C314 C 0.01188 0.57604 0.18445 0.0
C315 C 0.9939 0.58975 0.2121 0.0
C316 C 0.99799 0.62201 0.24476 0.0
C317 C 0.02002 0.64053 0.25032 0.0
C318 C 0.03804 0.6267 0.22332 0.0
C319 C 0.03405 0.59449 0.19058 0.0
H320 H 0.02314 0.66552 0.27561 0.0
H321 H 0.97778 0.33874 0.97459 0.0
H322 H 0.91769 0.38644 0.75052 0.0
H323 H 0.94419 0.45231 0.74732 0.0
H324 H 0.99684 0.36506 0.69294 0.0
H325 H 0.97035 0.2993 0.69482 0.0
H326 H 0.00178 0.44109 0.78038 0.0
H327 H 0.98916 0.41172 0.62247 0.0
H328 H 0.96236 0.39832 0.56188 0.0
H329 H 0.92563 0.52222 0.59408 0.0
H330 H 0.95206 0.53587 0.65529 0.0
H331 H 0.08908 0.602 0.72834 0.0
H332 H 0.06391 0.53443 0.73123 0.0
H333 H 0.00658 0.61797 0.68879 0.0
H334 H 0.03207 0.68472 0.68322 0.0
H335 H 0.00304 0.54242 0.65117 0.0
H336 H 0.01612 0.58138 0.79919 0.0
H337 H 0.03863 0.59872 0.86476 0.0
H338 H 0.06934 0.4641 0.85988 0.0
H339 H 0.04723 0.44617 0.79392 0.0
C340 C 0.93491 0.38127 0.73792 0.0
C341 C 0.94191 0.33777 0.7227 0.0
C342 C 0.94997 0.41886 0.73613 0.0
C343 C 0.97232 0.41331 0.71974 0.0
C344 C 0.97956 0.36985 0.70545 0.0
C345 C 0.9644 0.33245 0.70645 0.0
C346 C 0.98802 0.45318 0.71693 0.0
C347 C 0.00239 0.46308 0.75203 0.0
C348 C 0.98803 0.48245 0.68058 0.0
C349 C 0.97236 0.47446 0.64365 0.0
C350 C 0.97522 0.4358 0.61686 0.0
C351 C 0.96014 0.42823 0.58237 0.0
C352 C 0.94225 0.45932 0.57422 0.0
C353 C 0.93946 0.49812 0.60048 0.0
C354 C 0.95448 0.50579 0.63505 0.0
C355 C 0.07112 0.60577 0.71947 0.0
C356 C 0.06249 0.64853 0.70558 0.0
C357 C 0.05667 0.56724 0.72147 0.0
C358 C 0.03315 0.57113 0.71115 0.0
C359 C 0.02463 0.61389 0.69693 0.0
C360 C 0.03919 0.65208 0.69379 0.0
C361 C 0.01743 0.53072 0.71461 0.0
C362 C 0.00279 0.52066 0.67967 0.0
C363 C 0.01686 0.50193 0.75171 0.0
C364 C 0.03019 0.51262 0.79136 0.0
C365 C 0.0278 0.5556 0.81191 0.0
C366 C 0.04047 0.56552 0.84918 0.0
C367 C 0.05546 0.53258 0.8664 0.0
C368 C 0.05776 0.48961 0.84646 0.0
C369 C 0.04515 0.47954 0.80915 0.0
H370 H 0.06525 0.54032 0.89526 0.0
H371 H 0.9306 0.45341 0.5475 0.0
H372 H 0.58099 0.88909 0.56282 0.0
H373 H 0.55307 0.95231 0.56436 0.0
H374 H 0.51797 0.88763 0.67128 0.0
H375 H 0.54547 0.82413 0.66961 0.0
H376 H 0.48771 0.91616 0.61291 0.0
H377 H 0.55309 0.98119 0.68636 0.0
H378 H 0.59381 0.00383 0.69483 0.0
H379 H 0.58855 0.09211 0.58387 0.0
H380 H 0.54786 0.06951 0.57441 0.0
H381 H 0.4511 0.16342 0.68499 0.0
H382 H 0.47822 0.09924 0.68292 0.0
H383 H 0.44869 0.05321 0.56255 0.0
H384 H 0.42109 0.11694 0.56479 0.0
H385 H 0.51126 0.07985 0.62766 0.0
H386 H 0.45425 0.93617 0.55512 0.0
H387 H 0.41336 0.9129 0.55298 0.0
H388 H 0.40148 0.98094 0.67412 0.0
H389 H 0.44235 0.00408 0.67724 0.0
C390 C 0.56741 0.88842 0.58683 0.0
C391 C 0.56552 0.85149 0.61612 0.0
C392 C 0.55147 0.92464 0.58769 0.0
C393 C 0.53348 0.92482 0.61808 0.0
C394 C 0.53165 0.88815 0.64745 0.0
C395 C 0.54749 0.85194 0.64655 0.0
C396 C 0.51638 0.96291 0.61923 0.0
C397 C 0.49286 0.95197 0.61602 0.0
C398 C 0.52306 0.00959 0.62375 0.0
C399 C 0.5475 0.02329 0.62943 0.0
C400 C 0.56067 0.00515 0.66357 0.0
C401 C 0.58373 0.01803 0.66859 0.0
C402 C 0.59378 0.04929 0.63984 0.0
C403 C 0.58076 0.06784 0.60608 0.0
C404 C 0.55769 0.05504 0.60089 0.0
C405 C 0.45021 0.13949 0.65818 0.0
C406 C 0.43386 0.14534 0.62507 0.0
C407 C 0.46583 0.10289 0.65697 0.0
C408 C 0.46548 0.07128 0.62268 0.0
C409 C 0.4491 0.0768 0.58965 0.0
C410 C 0.43335 0.11331 0.59096 0.0
C411 C 0.48256 0.03313 0.62137 0.0
C412 C 0.50609 0.04407 0.62433 0.0
C413 C 0.47586 0.98638 0.61742 0.0
C414 C 0.4513 0.97226 0.61614 0.0
C415 C 0.44292 0.94603 0.58135 0.0
C416 C 0.41975 0.93288 0.57996 0.0
C417 C 0.40481 0.94557 0.61332 0.0
C418 C 0.41304 0.97129 0.64822 0.0
C419 C 0.4362 0.98448 0.64979 0.0
H420 H 0.38687 0.93539 0.61216 0.0
H421 H 0.61164 0.05922 0.64378 0.0
H422 H 0.41746 0.88188 0.24474 0.0
H423 H 0.44151 0.9513 0.25038 0.0
H424 H 0.49816 0.87857 0.19143 0.0
H425 H 0.47412 0.8096 0.18443 0.0
H426 H 0.50631 0.93496 0.27557 0.0
H427 H 0.47538 0.94063 0.12821 0.0
H428 H 0.44315 0.94013 0.07628 0.0
H429 H 0.41347 0.05814 0.13893 0.0
H430 H 0.44538 0.05886 0.19164 0.0
H431 H 0.5858 0.11309 0.23033 0.0
H432 H 0.56127 0.04441 0.23019 0.0
H433 H 0.50077 0.13125 0.22561 0.0
H434 H 0.52543 0.19945 0.22192 0.0
H435 H 0.49298 0.06698 0.17673 0.0
H436 H 0.52156 0.06855 0.3211 0.0
H437 H 0.55046 0.07122 0.37945 0.0
H438 H 0.58026 0.94478 0.33375 0.0
H439 H 0.55173 0.94166 0.27476 0.0
C440 C 0.43503 0.88076 0.23297 0.0
C441 C 0.44389 0.84053 0.21386 0.0
C442 C 0.44871 0.92029 0.23627 0.0
C443 C 0.47152 0.91974 0.22134 0.0
C444 C 0.48057 0.87941 0.20314 0.0
C445 C 0.46678 0.84026 0.19893 0.0
C446 C 0.48582 0.9617 0.22344 0.0
C447 C 0.50364 0.96385 0.25386 0.0
C448 C 0.48161 0.99968 0.19609 0.0
C449 C 0.4626 0.99946 0.16412 0.0
C450 C 0.46186 0.96618 0.13114 0.0
C451 C 0.44368 0.96593 0.10152 0.0
C452 C 0.42623 0.999 0.10438 0.0
C453 C 0.42697 0.03249 0.13679 0.0
C454 C 0.44511 0.03286 0.16652 0.0
C455 C 0.56725 0.11722 0.22925 0.0
C456 C 0.5574 0.16123 0.22603 0.0
C457 C 0.5532 0.07806 0.22963 0.0
C458 C 0.52904 0.08241 0.22883 0.0
C459 C 0.5193 0.12672 0.22613 0.0
C460 C 0.53336 0.1657 0.22413 0.0
C461 C 0.51389 0.04096 0.22911 0.0
C462 C 0.49579 0.03863 0.19898 0.0
C463 C 0.51745 0.0034 0.25777 0.0
C464 C 0.53463 0.00511 0.29326 0.0
C465 C 0.53438 0.04148 0.32331 0.0
C466 C 0.55068 0.04305 0.35653 0.0
C467 C 0.56722 0.00825 0.36024 0.0
C468 C 0.56745 0.97174 0.3308 0.0
C469 C 0.55121 0.97003 0.2975 0.0
H470 H 0.57982 0.00953 0.38597 0.0
H471 H 0.41217 0.99874 0.08142 0.0
H472 H 0.3304 0.17186 0.40909 0.0
H473 H 0.29873 0.17944 0.35741 0.0
H474 H 0.26302 0.26973 0.44558 0.0
H475 H 0.29451 0.26172 0.49765 0.0
H476 H 0.23552 0.19997 0.41468 0.0
H477 H 0.28645 0.31383 0.3564 0.0
H478 H 0.32326 0.34451 0.32889 0.0
H479 H 0.32257 0.24509 0.22616 0.0
H480 H 0.2859 0.21332 0.25344 0.0
H481 H 0.14586 0.25822 0.27026 0.0
H482 H 0.17906 0.26405 0.31876 0.0
H483 H 0.21908 0.18003 0.23151 0.0
H484 H 0.18583 0.17467 0.18264 0.0
H485 H 0.24439 0.25055 0.26242 0.0
H486 H 0.19499 0.13407 0.32202 0.0
H487 H 0.15826 0.10227 0.34887 0.0
H488 H 0.15652 0.20461 0.44901 0.0
H489 H 0.19307 0.23753 0.42229 0.0
C490 C 0.31591 0.19376 0.41722 0.0
C491 C 0.31513 0.21688 0.45707 0.0
C492 C 0.2979 0.19823 0.38761 0.0
C493 C 0.27865 0.22557 0.39746 0.0
C494 C 0.27783 0.2488 0.43721 0.0
C495 C 0.29597 0.24465 0.46672 0.0
C496 C 0.25886 0.22768 0.36721 0.0
C497 C 0.23735 0.21181 0.3816 0.0
C498 C 0.26146 0.24189 0.32374 0.0
C499 C 0.28352 0.26091 0.30723 0.0
C500 C 0.29424 0.29822 0.32817 0.0
C501 C 0.31507 0.31587 0.31257 0.0
C502 C 0.32528 0.29669 0.27586 0.0
C503 C 0.31465 0.25988 0.25462 0.0
C504 C 0.29384 0.24207 0.27012 0.0
C505 C 0.16175 0.2409 0.26161 0.0
C506 C 0.1633 0.2154 0.22321 0.0
C507 C 0.18069 0.24429 0.28923 0.0
C508 C 0.20144 0.22184 0.27911 0.0
C509 C 0.20322 0.1975 0.24002 0.0
C510 C 0.18427 0.19433 0.21225 0.0
C511 C 0.22106 0.22276 0.30988 0.0
C512 C 0.24253 0.23902 0.29558 0.0
C513 C 0.21849 0.20863 0.35342 0.0
C514 C 0.19665 0.18855 0.36988 0.0
C515 C 0.18669 0.15 0.34957 0.0
C516 C 0.16591 0.13175 0.36478 0.0
C517 C 0.15504 0.15148 0.40055 0.0
C518 C 0.16495 0.18941 0.42126 0.0
C519 C 0.1857 0.20787 0.40611 0.0
H520 H 0.13895 0.1373 0.41228 0.0
H521 H 0.3414 0.31041 0.26383 0.0
H522 H 0.70849 0.749 0.49018 0.0
H523 H 0.74045 0.74316 0.4389 0.0
H524 H 0.70518 0.83566 0.35209 0.0
H525 H 0.673 0.84113 0.40306 0.0
H526 H 0.72551 0.76003 0.30986 0.0
H527 H 0.74586 0.87737 0.41381 0.0
H528 H 0.7524 0.90774 0.48718 0.0
H529 H 0.80452 0.80518 0.50887 0.0
H530 H 0.79805 0.77379 0.43579 0.0
H531 H 0.81716 0.83376 0.17524 0.0
H532 H 0.78443 0.8297 0.22524 0.0
H533 H 0.8259 0.75159 0.31499 0.0
H534 H 0.85869 0.7563 0.26519 0.0
H535 H 0.80249 0.81546 0.3566 0.0
H536 H 0.78422 0.69999 0.25237 0.0
H537 H 0.77798 0.66806 0.17952 0.0
H538 H 0.72236 0.7632 0.15883 0.0
H539 H 0.72851 0.79625 0.23134 0.0
C540 C 0.70726 0.76713 0.45974 0.0
C541 C 0.68808 0.79495 0.45029 0.0
C542 C 0.72565 0.76419 0.43068 0.0
C543 C 0.72519 0.78908 0.39177 0.0
C544 C 0.70583 0.81606 0.38187 0.0
C545 C 0.68754 0.81932 0.41106 0.0
C546 C 0.74528 0.78869 0.36219 0.0
C547 C 0.74231 0.77253 0.31986 0.0
C548 C 0.76729 0.80392 0.3757 0.0
C549 C 0.77129 0.82293 0.41953 0.0
C550 C 0.75858 0.86106 0.43436 0.0
C551 C 0.7623 0.8785 0.47586 0.0
C552 C 0.77882 0.85832 0.50272 0.0
C553 C 0.7917 0.82073 0.48806 0.0
C554 C 0.78803 0.80312 0.4466 0.0
C555 C 0.81917 0.81572 0.20566 0.0
C556 C 0.84035 0.79555 0.21664 0.0
C557 C 0.8005 0.81321 0.23409 0.0
C558 C 0.80261 0.78985 0.2737 0.0
C559 C 0.82386 0.76982 0.28468 0.0
C560 C 0.84256 0.77258 0.25634 0.0
C561 C 0.78279 0.787 0.30396 0.0
C562 C 0.78577 0.80262 0.34651 0.0
C563 C 0.76084 0.77091 0.29069 0.0
C564 C 0.75697 0.75089 0.24717 0.0
C565 C 0.77077 0.71435 0.23217 0.0
C566 C 0.76723 0.69601 0.19095 0.0
C567 C 0.74982 0.71366 0.16452 0.0
C568 C 0.73586 0.7496 0.17932 0.0
C569 C 0.73935 0.76813 0.22049 0.0
H570 H 0.74711 0.69941 0.13262 0.0
H571 H 0.78168 0.87187 0.53484 0.0
H572 H 0.33853 0.81822 0.41477 0.0
H573 H 0.30716 0.81053 0.46708 0.0
H574 H 0.28023 0.69466 0.39579 0.0
H575 H 0.31136 0.70272 0.34295 0.0
H576 H 0.24727 0.75975 0.41425 0.0
H577 H 0.30542 0.67617 0.4911 0.0
H578 H 0.34382 0.66343 0.52303 0.0
H579 H 0.33422 0.78028 0.60626 0.0
H580 H 0.29588 0.79413 0.57439 0.0
H581 H 0.16012 0.71162 0.56791 0.0
H582 H 0.19337 0.70426 0.51955 0.0
H583 H 0.22924 0.809 0.59249 0.0
H584 H 0.19629 0.81456 0.64201 0.0
H585 H 0.25786 0.74346 0.57255 0.0
H586 H 0.20105 0.83052 0.49315 0.0
H587 H 0.16262 0.84423 0.46154 0.0
H588 H 0.16992 0.72337 0.38266 0.0
H589 H 0.20823 0.70852 0.41427 0.0
C590 C 0.32609 0.79071 0.41063 0.0
C591 C 0.32762 0.76051 0.3753 0.0
C592 C 0.30825 0.78625 0.44057 0.0
C593 C 0.29154 0.75169 0.43553 0.0
C594 C 0.2931 0.72127 0.40042 0.0
C595 C 0.31106 0.72554 0.37057 0.0
C596 C 0.27175 0.74927 0.4656 0.0
C597 C 0.24951 0.75539 0.44881 0.0
C598 C 0.27481 0.74476 0.51071 0.0
C599 C 0.29784 0.73641 0.53009 0.0
C600 C 0.31156 0.69938 0.51597 0.0
C601 C 0.33331 0.69191 0.53411 0.0
C602 C 0.34147 0.72108 0.56659 0.0
C603 C 0.32788 0.75772 0.58108 0.0
C604 C 0.30613 0.76537 0.56302 0.0
C605 C 0.17518 0.73292 0.5734 0.0
C606 C 0.1758 0.76395 0.60806 0.0
C607 C 0.19409 0.72889 0.5458 0.0
C608 C 0.21364 0.75675 0.55185 0.0
C609 C 0.21432 0.78727 0.5871 0.0
C610 C 0.19556 0.79064 0.61517 0.0
C611 C 0.23332 0.75448 0.52131 0.0
C612 C 0.25556 0.74755 0.53798 0.0
C613 C 0.23027 0.75864 0.47606 0.0
C614 C 0.20742 0.76816 0.45639 0.0
C615 C 0.19441 0.80674 0.46922 0.0
C616 C 0.17265 0.81472 0.4513 0.0
C617 C 0.16381 0.7846 0.42021 0.0
C618 C 0.17677 0.74661 0.4068 0.0
C619 C 0.19851 0.73841 0.42468 0.0
H620 H 0.14694 0.79067 0.40647 0.0
H621 H 0.35831 0.71525 0.58059 0.0
H622 H 0.84514 0.26653 0.57193 0.0
H623 H 0.81188 0.27183 0.52328 0.0
H624 H 0.76924 0.20597 0.61949 0.0
H625 H 0.80262 0.19994 0.66782 0.0
H626 H 0.76371 0.16822 0.53953 0.0
H627 H 0.76511 0.32034 0.60175 0.0
H628 H 0.78299 0.39458 0.62134 0.0
H629 H 0.79566 0.42364 0.48741 0.0
H630 H 0.77815 0.34922 0.46704 0.0
H631 H 0.65628 0.20066 0.44192 0.0
H632 H 0.68792 0.20652 0.49378 0.0
H633 H 0.72823 0.28175 0.40008 0.0
H634 H 0.69633 0.27686 0.3485 0.0
H635 H 0.73527 0.31594 0.47854 0.0
H636 H 0.73558 0.16511 0.41542 0.0
H637 H 0.71924 0.09009 0.39374 0.0
H638 H 0.70526 0.05758 0.52652 0.0
H639 H 0.72123 0.13272 0.54895 0.0
C640 C 0.82866 0.25303 0.58245 0.0
C641 C 0.82633 0.2325 0.62327 0.0
C642 C 0.80968 0.25642 0.5549 0.0
C643 C 0.78808 0.2396 0.56796 0.0
C644 C 0.78576 0.2192 0.60887 0.0
C645 C 0.80473 0.21588 0.63641 0.0
C646 C 0.76803 0.24194 0.53849 0.0
C647 C 0.75725 0.20057 0.5267 0.0
C648 C 0.76015 0.28406 0.52073 0.0
C649 C 0.7705 0.32901 0.53291 0.0
C650 C 0.77187 0.3424 0.57649 0.0
C651 C 0.78191 0.38454 0.58773 0.0
C652 C 0.79051 0.41376 0.55565 0.0
C653 C 0.78902 0.40095 0.51223 0.0
C654 C 0.77902 0.35881 0.50082 0.0
C655 C 0.67179 0.21904 0.43271 0.0
C656 C 0.67386 0.23859 0.39143 0.0
C657 C 0.68987 0.22219 0.46222 0.0
C658 C 0.71061 0.24379 0.4505 0.0
C659 C 0.71238 0.26494 0.40981 0.0
C660 C 0.69411 0.26238 0.38045 0.0
C661 C 0.73077 0.24219 0.47989 0.0
C662 C 0.74165 0.28361 0.4915 0.0
C663 C 0.73895 0.20002 0.4972 0.0
C664 C 0.7294 0.15473 0.48381 0.0
C665 C 0.72887 0.1421 0.43996 0.0
C666 C 0.71969 0.09954 0.42755 0.0
C667 C 0.71117 0.06914 0.45872 0.0
C668 C 0.71185 0.08119 0.5024 0.0
C669 C 0.72097 0.12375 0.51499 0.0
H670 H 0.70408 0.0362 0.44905 0.0
H671 H 0.79828 0.44637 0.56442 0.0
H672 H 0.84394 0.696 0.90629 0.0
H673 H 0.81245 0.70218 0.85407 0.0
H674 H 0.77754 0.79848 0.93762 0.0
H675 H 0.80902 0.79224 0.99018 0.0
H676 H 0.74939 0.72587 0.90775 0.0
H677 H 0.80151 0.83835 0.84906 0.0
H678 H 0.83898 0.86668 0.82244 0.0
H679 H 0.83855 0.76421 0.72236 0.0
H680 H 0.80122 0.7348 0.74879 0.0
H681 H 0.66033 0.77656 0.75914 0.0
H682 H 0.69248 0.78331 0.81 0.0
H683 H 0.73617 0.70836 0.72158 0.0
H684 H 0.70414 0.70341 0.66996 0.0
H685 H 0.75989 0.77438 0.75529 0.0
H686 H 0.71036 0.65796 0.81396 0.0
H687 H 0.67369 0.62508 0.83991 0.0
H688 H 0.67021 0.72804 0.93934 0.0
H689 H 0.7067 0.76201 0.91353 0.0
C690 C 0.82967 0.7189 0.91332 0.0
C691 C 0.82914 0.74425 0.95199 0.0
C692 C 0.81173 0.72249 0.8834 0.0
C693 C 0.79276 0.75112 0.89177 0.0
C694 C 0.79213 0.77648 0.9304 0.0
C695 C 0.81025 0.77331 0.96017 0.0
C696 C 0.77321 0.75289 0.86085 0.0
C697 C 0.75154 0.73725 0.8746 0.0
C698 C 0.77626 0.76629 0.81728 0.0
C699 C 0.79865 0.78412 0.80115 0.0
C700 C 0.80949 0.82161 0.82159 0.0
C701 C 0.83069 0.83791 0.80649 0.0
C702 C 0.84116 0.8172 0.77079 0.0
C703 C 0.83042 0.7802 0.75004 0.0
C704 C 0.80923 0.76373 0.76503 0.0
C705 C 0.67683 0.76154 0.75075 0.0
C706 C 0.67981 0.73899 0.71105 0.0
C707 C 0.69517 0.76524 0.77982 0.0
C708 C 0.7167 0.74548 0.77015 0.0
C709 C 0.71975 0.72375 0.72994 0.0
C710 C 0.70149 0.72075 0.70055 0.0
C711 C 0.73594 0.74712 0.80203 0.0
C712 C 0.75761 0.76326 0.78848 0.0
C713 C 0.73298 0.73344 0.84567 0.0
C714 C 0.71115 0.71281 0.86153 0.0
C715 C 0.7017 0.67378 0.84117 0.0
C716 C 0.68095 0.65494 0.85587 0.0
C717 C 0.6696 0.67453 0.89118 0.0
C718 C 0.67901 0.71295 0.91195 0.0
C719 C 0.69973 0.732 0.89731 0.0
H720 H 0.65353 0.65989 0.90251 0.0
H721 H 0.85758 0.82987 0.75915 0.0
H722 H 0.18761 0.2055 0.9952 0.0
H723 H 0.21894 0.19846 0.94257 0.0
H724 H 0.18356 0.29231 0.85725 0.0
H725 H 0.1521 0.29911 0.90956 0.0
H726 H 0.20378 0.2179 0.81337 0.0
H727 H 0.22444 0.33296 0.91928 0.0
H728 H 0.2312 0.36181 0.99312 0.0
H729 H 0.28333 0.25874 0.01243 0.0
H730 H 0.27663 0.22885 0.93886 0.0
H731 H 0.29567 0.29428 0.67903 0.0
H732 H 0.2626 0.28792 0.72807 0.0
H733 H 0.30452 0.21172 0.81854 0.0
H734 H 0.33764 0.21921 0.76997 0.0
H735 H 0.2808 0.27269 0.86039 0.0
H736 H 0.26221 0.15969 0.75353 0.0
H737 H 0.25566 0.12992 0.67997 0.0
H738 H 0.20007 0.22585 0.66249 0.0
H739 H 0.20651 0.2567 0.73575 0.0
C740 C 0.18617 0.22357 0.96476 0.0
C741 C 0.16725 0.25243 0.9563 0.0
C742 C 0.20422 0.21993 0.93489 0.0
C743 C 0.20363 0.24506 0.89607 0.0
C744 C 0.18434 0.27253 0.88691 0.0
C745 C 0.16644 0.27652 0.9169 0.0
C746 C 0.22367 0.24513 0.86618 0.0
C747 C 0.2206 0.23017 0.82346 0.0
C748 C 0.24571 0.26026 0.87965 0.0
C749 C 0.24985 0.27835 0.92377 0.0
C750 C 0.23721 0.31621 0.93941 0.0
C751 C 0.24105 0.33279 0.98118 0.0
C752 C 0.25764 0.31203 0.0075 0.0
C753 C 0.27046 0.27473 0.99204 0.0
C754 C 0.26665 0.25797 0.9503 0.0
C755 C 0.29769 0.27604 0.70934 0.0
C756 C 0.31914 0.25748 0.72097 0.0
C757 C 0.2788 0.27219 0.73726 0.0
C758 C 0.28093 0.24885 0.77694 0.0
C759 C 0.3024 0.22997 0.78826 0.0
C760 C 0.32131 0.23426 0.76056 0.0
C761 C 0.26105 0.24535 0.80727 0.0
C762 C 0.2641 0.25991 0.85017 0.0
C763 C 0.23905 0.22953 0.79396 0.0
C764 C 0.23498 0.21078 0.75002 0.0
C765 C 0.24869 0.17466 0.7339 0.0
C766 C 0.24499 0.15757 0.69226 0.0
C767 C 0.22749 0.17605 0.66654 0.0
C768 C 0.21363 0.21159 0.68244 0.0
C769 C 0.21729 0.22887 0.72404 0.0
H770 H 0.22465 0.16277 0.63431 0.0
H771 H 0.26059 0.32492 0.03983 0.0
H772 H 0.69239 0.31686 0.16876 0.0
H773 H 0.72561 0.31425 0.11966 0.0
H774 H 0.68525 0.23747 0.02733 0.0
H775 H 0.65217 0.23957 0.07663 0.0
H776 H 0.72936 0.20316 0.03552 0.0
H777 H 0.69266 0.35013 0.01332 0.0
H778 H 0.67671 0.42515 0.03595 0.0
H779 H 0.74301 0.46574 0.08444 0.0
H780 H 0.75928 0.39063 0.06267 0.0
H781 H 0.79773 0.24018 0.84757 0.0
H782 H 0.76693 0.23475 0.90118 0.0
H783 H 0.80526 0.32394 0.98653 0.0
H784 H 0.83596 0.32989 0.93268 0.0
H785 H 0.76255 0.35077 0.98347 0.0
H786 H 0.79983 0.20489 0.00428 0.0
H787 H 0.81593 0.12981 0.98223 0.0
H788 H 0.74929 0.08675 0.9374 0.0
H789 H 0.73285 0.16187 0.95862 0.0
C790 C 0.69075 0.29921 0.13808 0.0
C791 C 0.66975 0.27897 0.12605 0.0
C792 C 0.70964 0.29784 0.11005 0.0
C793 C 0.7078 0.27612 0.06963 0.0
C794 C 0.68702 0.25453 0.05828 0.0
C795 C 0.66812 0.25606 0.08622 0.0
C796 C 0.72725 0.27721 0.03855 0.0
C797 C 0.73651 0.23538 0.02376 0.0
C798 C 0.73684 0.31928 0.02394 0.0
C799 C 0.72712 0.36458 0.03677 0.0
C800 C 0.70379 0.37491 0.02912 0.0
C801 C 0.69471 0.41747 0.04174 0.0
C802 C 0.70883 0.45015 0.06172 0.0
C803 C 0.73209 0.44037 0.06902 0.0
C804 C 0.74125 0.39782 0.05652 0.0
C805 C 0.79985 0.2577 0.87814 0.0
C806 C 0.81947 0.2847 0.88631 0.0
C807 C 0.78217 0.25476 0.90875 0.0
C808 C 0.7839 0.27837 0.94826 0.0
C809 C 0.80353 0.30532 0.95638 0.0
C810 C 0.82107 0.30863 0.92563 0.0
C811 C 0.76487 0.27664 0.98043 0.0
C812 C 0.75558 0.31843 0.99534 0.0
C813 C 0.75535 0.2345 0.99524 0.0
C814 C 0.76516 0.18918 0.98269 0.0
C815 C 0.78864 0.17954 0.98944 0.0
C816 C 0.79782 0.13696 0.97713 0.0
C817 C 0.78365 0.10357 0.95833 0.0
C818 C 0.76025 0.11267 0.95191 0.0
C819 C 0.75099 0.15522 0.96412 0.0
H820 H 0.79079 0.07063 0.94882 0.0
H821 H 0.70176 0.48308 0.07146 0.0
H822 H 0.20013 0.64691 0.85172 0.0
H823 H 0.23005 0.65328 0.90672 0.0
H824 H 0.20116 0.78242 0.94946 0.0
H825 H 0.17072 0.77576 0.89518 0.0
H826 H 0.24942 0.78443 0.94177 0.0
H827 H 0.19153 0.69098 0.00834 0.0
H828 H 0.16384 0.62669 0.01328 0.0
H829 H 0.21915 0.5292 0.00096 0.0
H830 H 0.24715 0.59294 0.9953 0.0
H831 H 0.3202 0.78732 0.13031 0.0
H832 H 0.28639 0.78874 0.08275 0.0
H833 H 0.30407 0.65332 0.03534 0.0
H834 H 0.33738 0.65131 0.0839 0.0
H835 H 0.25894 0.65935 0.04977 0.0
H836 H 0.31634 0.75161 0.97772 0.0
H837 H 0.34441 0.8151 0.97133 0.0
H838 H 0.29051 0.91397 0.99261 0.0
H839 H 0.26215 0.85098 0.99975 0.0
C840 C 0.2001 0.67676 0.87274 0.0
C841 C 0.1832 0.71121 0.86844 0.0
C842 C 0.21722 0.68031 0.90418 0.0
C843 C 0.21774 0.7182 0.93229 0.0
C844 C 0.20112 0.75304 0.92786 0.0
C845 C 0.18385 0.74939 0.89645 0.0
C846 C 0.23557 0.72079 0.96649 0.0
C847 C 0.25128 0.75756 0.96591 0.0
C848 C 0.2382 0.68524 0.99743 0.0
C849 C 0.22142 0.64678 0.00104 0.0
C850 C 0.19777 0.65584 0.00635 0.0
C851 C 0.18202 0.61949 0.00933 0.0
C852 C 0.18972 0.57389 0.00735 0.0
C853 C 0.2132 0.56454 0.00246 0.0
C854 C 0.22903 0.60077 0.99941 0.0
C855 C 0.31661 0.75767 0.11014 0.0
C856 C 0.33123 0.71909 0.11079 0.0
C857 C 0.29746 0.75867 0.08271 0.0
C858 C 0.29283 0.72131 0.05514 0.0
C859 C 0.3073 0.68252 0.05631 0.0
C860 C 0.32635 0.68147 0.08383 0.0
C861 C 0.27309 0.72257 0.02463 0.0
C862 C 0.25698 0.6865 0.02593 0.0
C863 C 0.27018 0.75866 0.99425 0.0
C864 C 0.28718 0.79657 0.98975 0.0
C865 C 0.31051 0.78687 0.98138 0.0
C866 C 0.32646 0.82277 0.97756 0.0
C867 C 0.31926 0.86854 0.98169 0.0
C868 C 0.29607 0.8785 0.98951 0.0
C869 C 0.28004 0.84272 0.99342 0.0
H870 H 0.33164 0.89628 0.97872 0.0
H871 H 0.1775 0.5458 0.00967 0.0
H872 H 0.02526 0.06392 0.24648 0.0
H873 H 0.00572 0.04496 0.31439 0.0
H874 H 0.03325 0.16843 0.37241 0.0
H875 H 0.05291 0.18749 0.30496 0.0
H876 H 0.03518 0.09237 0.42739 0.0
H877 H 0.97889 0.16784 0.3315 0.0
H878 H 0.95683 0.1722 0.26346 0.0
H879 H 0.92876 0.03747 0.28715 0.0
H880 H 0.95076 0.03235 0.35511 0.0
H881 H 0.96124 0.19064 0.57996 0.0
H882 H 0.98266 0.17123 0.51461 0.0
H883 H 0.94946 0.03834 0.51027 0.0
H884 H 0.92801 0.05726 0.57645 0.0
H885 H 0.94965 0.0963 0.4283 0.0
H886 H 0.99885 0.02598 0.53008 0.0
H887 H 0.02108 0.01749 0.59744 0.0
H888 H 0.06288 0.13394 0.56264 0.0
H889 H 0.0407 0.14351 0.49527 0.0
C890 C 0.02731 0.08686 0.27381 0.0
C891 C 0.04047 0.12748 0.27019 0.0
C892 C 0.0161 0.07596 0.31254 0.0
C893 C 0.0179 0.10547 0.3483 0.0
C894 C 0.03166 0.14515 0.3452 0.0
C895 C 0.04277 0.15615 0.30652 0.0
C896 C 0.00455 0.09697 0.38839 0.0
C897 C 0.01649 0.0931 0.42763 0.0
C898 C 0.98015 0.09592 0.38851 0.0
C899 C 0.96659 0.09953 0.34815 0.0
C900 C 0.96806 0.13912 0.32208 0.0
C901 C 0.95556 0.14175 0.28355 0.0
C902 C 0.94143 0.10511 0.27094 0.0
C903 C 0.9397 0.06584 0.29693 0.0
C904 C 0.95214 0.06309 0.3355 0.0
C905 C 0.95845 0.15723 0.56521 0.0
C906 C 0.94286 0.12552 0.58331 0.0
C907 C 0.97077 0.14615 0.52796 0.0
C908 C 0.96759 0.10341 0.50768 0.0
C909 C 0.95203 0.07158 0.52541 0.0
C910 C 0.9399 0.08238 0.56325 0.0
C911 C 0.98034 0.09348 0.46733 0.0
C912 C 0.96832 0.09422 0.42805 0.0
C913 C 0.00466 0.09077 0.46711 0.0
C914 C 0.01796 0.0857 0.50778 0.0
C915 C 0.01261 0.05013 0.53702 0.0
C916 C 0.02525 0.04502 0.57515 0.0
C917 C 0.04334 0.07523 0.58438 0.0
C918 C 0.04885 0.11057 0.55545 0.0
C919 C 0.03627 0.1158 0.51724 0.0
H920 H 0.05313 0.0712 0.6139 0.0
H921 H 0.9318 0.10717 0.24107 0.0
H922 H 0.06416 0.79972 0.53501 0.0
H923 H 0.04671 0.82244 0.46681 0.0
H924 H 0.03036 0.95607 0.51962 0.0
H925 H 0.04761 0.9333 0.58879 0.0
H926 H 0.99414 0.92141 0.47715 0.0
H927 H 0.07159 0.94883 0.44356 0.0
H928 H 0.11352 0.93572 0.4402 0.0
H929 H 0.10281 0.81639 0.36067 0.0
H930 H 0.06076 0.82836 0.364 0.0
H931 H 0.95384 0.95673 0.25595 0.0
H932 H 0.9766 0.97062 0.3217 0.0
H933 H 0.99604 0.82717 0.32467 0.0
H934 H 0.97343 0.81289 0.25976 0.0
H935 H 0.03333 0.89133 0.33749 0.0
H936 H 0.95368 0.86297 0.3836 0.0
H937 H 0.91238 0.88257 0.38687 0.0
H938 H 0.92879 0.01372 0.4433 0.0
H939 H 0.9703 0.99497 0.43997 0.0
C940 C 0.05696 0.83406 0.53224 0.0
C941 C 0.05726 0.86464 0.56743 0.0
C942 C 0.04712 0.84715 0.49304 0.0
C943 C 0.0375 0.89124 0.48789 0.0
C944 C 0.03777 0.922 0.52288 0.0
C945 C 0.04768 0.90892 0.5623 0.0
C946 C 0.02625 0.90358 0.44638 0.0
C947 C 0.00286 0.91595 0.44657 0.0
C948 C 0.03767 0.89705 0.40644 0.0
C949 C 0.06297 0.88943 0.40418 0.0
C950 C 0.07814 0.91959 0.42558 0.0
C951 C 0.10194 0.91239 0.42365 0.0
C952 C 0.11081 0.87526 0.40023 0.0
C953 C 0.0959 0.84519 0.37874 0.0
C954 C 0.07207 0.85222 0.38057 0.0
C955 C 0.96301 0.92822 0.27062 0.0
C956 C 0.96173 0.88363 0.25275 0.0
C957 C 0.97596 0.93624 0.30813 0.0
C958 C 0.98793 0.89989 0.32797 0.0
C959 C 0.98697 0.8557 0.30973 0.0
C960 C 0.97391 0.84756 0.27275 0.0
C961 C 0.00103 0.90657 0.36854 0.0
C962 C 0.02482 0.89794 0.36807 0.0
C963 C 0.99006 0.91742 0.40808 0.0
C964 C 0.96511 0.92807 0.41062 0.0
C965 C 0.94852 0.89622 0.39623 0.0
C966 C 0.92507 0.90708 0.39828 0.0
C967 C 0.91798 0.94946 0.41513 0.0
C968 C 0.93432 0.98092 0.43027 0.0
C969 C 0.9578 0.97023 0.42827 0.0
H970 H 0.89982 0.95785 0.41661 0.0
H971 H 0.12925 0.86991 0.39866 0.0
H972 H 0.04246 0.85306 0.7477 0.0
H973 H 0.01845 0.88754 0.80249 0.0
H974 H 0.07713 0.89882 0.88771 0.0
H975 H 0.10104 0.85973 0.83349 0.0
H976 H 0.04525 0.8643 0.93001 0.0
H977 H 0.04375 0.00374 0.84735 0.0
H978 H 0.04271 0.0479 0.7792 0.0
H979 H 0.97672 0.9893 0.74871 0.0
H980 H 0.9771 0.9458 0.81722 0.0
H981 H 0.96089 0.91786 0.07975 0.0
H982 H 0.98939 0.94723 0.0287 0.0
H983 H 0.95234 0.88405 0.92363 0.0
H984 H 0.92369 0.8545 0.97426 0.0
H985 H 0.97884 0.96673 0.89999 0.0
H986 H 0.98662 0.81651 0.97306 0.0
H987 H 0.98767 0.76918 0.03932 0.0
H988 H 0.04365 0.85093 0.08802 0.0
H989 H 0.04264 0.89919 0.02224 0.0
C990 C 0.05047 0.86399 0.7776 0.0
C991 C 0.07363 0.85375 0.78632 0.0
C992 C 0.0367 0.88446 0.80896 0.0
C993 C 0.04596 0.89729 0.84914 0.0
C994 C 0.06954 0.88957 0.85694 0.0
C995 C 0.08322 0.86742 0.82597 0.0
C996 C 0.03018 0.91202 0.88446 0.0
C997 C 0.0313 0.88836 0.92401 0.0
C998 C 0.01164 0.94286 0.87696 0.0
C999 C 0.01049 0.97154 0.83735 0.0
C1000 C 0.02895 0.00059 0.82623 0.0
C1001 C 0.02845 0.02554 0.78759 0.0
C1002 C 0.00968 0.02133 0.7596 0.0
C1003 C 0.99127 0.99248 0.77039 0.0
C1004 C 0.99145 0.9682 0.80942 0.0
C1005 C 0.9583 0.9115 0.04563 0.0
C1006 C 0.94045 0.88238 0.03124 0.0
C1007 C 0.97458 0.92859 0.01648 0.0
C1008 C 0.97321 0.91684 0.97264 0.0
C1009 C 0.95376 0.89318 0.95745 0.0
C1010 C 0.93745 0.87603 0.98655 0.0
C1011 C 0.99397 0.91919 0.94498 0.0
C1012 C 0.99355 0.94527 0.90693 0.0
C1013 C 0.01337 0.89133 0.95413 0.0
C1014 C 0.01441 0.86165 0.99306 0.0
C1015 C 0.99907 0.82447 0.99802 0.0
C1016 C 0.99965 0.79751 0.03545 0.0
C1017 C 0.01569 0.8071 0.0679 0.0
C1018 C 0.03122 0.84359 0.06289 0.0
C1019 C 0.03065 0.87076 0.02556 0.0
H1020 H 0.01611 0.78621 0.09687 0.0
H1021 H 0.0094 0.04045 0.72957 0.0
H1022 H 0.08162 0.10913 0.0091 0.0
H1023 H 0.05545 0.07259 0.95718 0.0
H1024 H 0.99782 0.10358 0.04058 0.0
H1025 H 0.02397 0.13601 0.09368 0.0
H1026 H 0.98586 0.03555 0.99541 0.0
H1027 H 0.0213 0.18328 0.96029 0.0
H1028 H 0.05421 0.23498 0.94583 0.0
H1029 H 0.07584 0.1477 0.84136 0.0
H1030 H 0.04317 0.0953 0.85561 0.0
H1031 H 0.90588 0.16032 0.86267 0.0
H1032 H 0.93144 0.1232 0.91494 0.0
H1033 H 0.96995 0.0621 0.81089 0.0
H1034 H 0.94447 0.09786 0.75839 0.0
H1035 H 0.99476 0.12126 0.85794 0.0
H1036 H 0.94235 0.99985 0.88312 0.0
H1037 H 0.90712 0.95803 0.90275 0.0
H1038 H 0.91169 0.00945 0.03238 0.0
H1039 H 0.94663 0.05295 0.0135 0.0
C1040 C 0.06345 0.10665 0.01679 0.0
C1041 C 0.05474 0.12621 0.05492 0.0
C1042 C 0.04848 0.08595 0.98711 0.0
C1043 C 0.02449 0.08698 0.99406 0.0
C1044 C 0.01616 0.10256 0.03405 0.0
C1045 C 0.03118 0.12149 0.06439 0.0
C1046 C 0.00789 0.0799 0.95796 0.0
C1047 C 0.98759 0.0545 0.96539 0.0
C1048 C 0.01051 0.10348 0.91819 0.0
C1049 C 0.03004 0.13507 0.90937 0.0
C1050 C 0.03316 0.17507 0.93437 0.0
C1051 C 0.05175 0.20448 0.92624 0.0
C1052 C 0.06716 0.19453 0.89281 0.0
C1053 C 0.06394 0.15527 0.86734 0.0
C1054 C 0.0454 0.12569 0.87544 0.0
C1055 C 0.91926 0.13752 0.85088 0.0
C1056 C 0.92344 0.13292 0.80627 0.0
C1057 C 0.93377 0.11606 0.88088 0.0
C1058 C 0.95259 0.08974 0.86667 0.0
C1059 C 0.95536 0.08162 0.82237 0.0
C1060 C 0.94083 0.10258 0.79242 0.0
C1061 C 0.97189 0.07956 0.89648 0.0
C1062 C 0.9929 0.10153 0.88756 0.0
C1063 C 0.96915 0.05496 0.93568 0.0
C1064 C 0.94737 0.0301 0.94669 0.0
C1065 C 0.93578 0.00311 0.91569 0.0
C1066 C 0.91578 0.97892 0.92673 0.0
C1067 C 0.90714 0.98114 0.96875 0.0
C1068 C 0.91841 0.00776 0.9998 0.0
C1069 C 0.93835 0.03221 0.98891 0.0
H1070 H 0.89175 0.96209 0.9773 0.0
H1071 H 0.08156 0.21732 0.88657 0.0
H1072 H 0.42959 0.58454 0.03184 0.0
H1073 H 0.44786 0.57813 0.96075 0.0
H1074 H 0.48399 0.706 0.98297 0.0
H1075 H 0.4653 0.71341 0.05312 0.0
H1076 H 0.46814 0.70162 0.90134 0.0
H1077 H 0.51488 0.60248 0.99563 0.0
H1078 H 0.5139 0.54372 0.05331 0.0
H1079 H 0.47688 0.4518 0.96962 0.0
H1080 H 0.47816 0.50963 0.91113 0.0
H1081 H 0.56789 0.70128 0.77785 0.0
H1082 H 0.54296 0.69159 0.84058 0.0
H1083 H 0.50905 0.57698 0.77881 0.0
H1084 H 0.53402 0.58632 0.7154 0.0
H1085 H 0.51896 0.567 0.87343 0.0
H1086 H 0.48188 0.66753 0.77139 0.0
H1087 H 0.48033 0.73255 0.72012 0.0
H1088 H 0.49723 0.82688 0.82219 0.0
H1089 H 0.49925 0.76228 0.87395 0.0
C1090 C 0.44143 0.61124 0.02153 0.0
C1091 C 0.44614 0.64927 0.04823 0.0
C1092 C 0.45186 0.60754 0.98093 0.0
C1093 C 0.4675 0.64135 0.96675 0.0
C1094 C 0.47193 0.6796 0.99315 0.0
C1095 C 0.46133 0.68361 0.03339 0.0
C1096 C 0.48019 0.63625 0.92541 0.0
C1097 C 0.47921 0.6722 0.89518 0.0
C1098 C 0.4943 0.59749 0.917 0.0
C1099 C 0.49663 0.56019 0.9492 0.0
C1100 C 0.50694 0.56933 0.98936 0.0
C1101 C 0.50625 0.53633 0.02219 0.0
C1102 C 0.49521 0.49421 0.01521 0.0
C1103 C 0.48548 0.48439 0.97493 0.0
C1104 C 0.48635 0.5171 0.94179 0.0
C1105 C 0.55538 0.67355 0.77767 0.0
C1106 C 0.55274 0.64496 0.74133 0.0
C1107 C 0.54116 0.66807 0.8136 0.0
C1108 C 0.52407 0.63389 0.81402 0.0
C1109 C 0.52218 0.60355 0.77896 0.0
C1110 C 0.5364 0.60907 0.74277 0.0
C1111 C 0.50718 0.63285 0.84977 0.0
C1112 C 0.50747 0.59587 0.87901 0.0
C1113 C 0.49246 0.6709 0.85735 0.0
C1114 C 0.49089 0.70999 0.82648 0.0
C1115 C 0.48543 0.70209 0.78284 0.0
C1116 C 0.48445 0.73888 0.7537 0.0
C1117 C 0.48873 0.78381 0.76787 0.0
C1118 C 0.49393 0.79205 0.81125 0.0
C1119 C 0.49497 0.75536 0.84052 0.0
H1120 H 0.48798 0.81225 0.74525 0.0
H1121 H 0.49436 0.46916 0.04103 0.0
H1122 H 0.4447 0.42313 0.75855 0.0
H1123 H 0.46644 0.43577 0.8255 0.0
H1124 H 0.46335 0.28996 0.85295 0.0
H1125 H 0.44122 0.27737 0.78743 0.0
H1126 H 0.45451 0.33687 0.92278 0.0
H1127 H 0.51123 0.34783 0.80705 0.0
H1128 H 0.52877 0.38209 0.74194 0.0
H1129 H 0.53663 0.51124 0.80809 0.0
H1130 H 0.51858 0.4781 0.8732 0.0
H1131 H 0.54106 0.28425 0.06911 0.0
H1132 H 0.51834 0.29178 0.00355 0.0
H1133 H 0.5324 0.43779 0.00052 0.0
H1134 H 0.55497 0.43074 0.06707 0.0
H1135 H 0.53285 0.40534 0.92225 0.0
H1136 H 0.47981 0.39351 0.03935 0.0
H1137 H 0.46236 0.36111 0.10524 0.0
H1138 H 0.44743 0.23525 0.0378 0.0
H1139 H 0.46511 0.26678 0.97162 0.0
C1140 C 0.44858 0.39387 0.77904 0.0
C1141 C 0.44126 0.34923 0.76762 0.0
C1142 C 0.4611 0.40111 0.81715 0.0
C1143 C 0.46676 0.36373 0.84403 0.0
C1144 C 0.45917 0.31937 0.83282 0.0
C1145 C 0.44652 0.31221 0.7952 0.0
C1146 C 0.48056 0.36979 0.88399 0.0
C1147 C 0.47172 0.35153 0.92255 0.0
C1148 C 0.50262 0.39078 0.88419 0.0
C1149 C 0.51317 0.41072 0.84475 0.0
C1150 C 0.51639 0.38372 0.80751 0.0
C1151 C 0.52645 0.40294 0.7706 0.0
C1152 C 0.53363 0.44895 0.77074 0.0
C1153 C 0.53084 0.47579 0.80785 0.0
C1154 C 0.52067 0.45682 0.84473 0.0
C1155 C 0.53928 0.31811 0.0547 0.0
C1156 C 0.54944 0.35711 0.0738 0.0
C1157 C 0.52614 0.32238 0.01728 0.0
C1158 C 0.52275 0.36573 0.99819 0.0
C1159 C 0.53401 0.40433 0.01566 0.0
C1160 C 0.54699 0.40022 0.05356 0.0
C1161 C 0.5072 0.3703 0.96039 0.0
C1162 C 0.51558 0.39099 0.92252 0.0
C1163 C 0.48463 0.35165 0.96076 0.0
C1164 C 0.47395 0.33252 0.00056 0.0
C1165 C 0.47295 0.35888 0.03862 0.0
C1166 C 0.46299 0.34065 0.07603 0.0
C1167 C 0.45382 0.29611 0.07574 0.0
C1168 C 0.45456 0.26975 0.038 0.0
C1169 C 0.46452 0.28782 0.00051 0.0
H1170 H 0.44611 0.28204 0.10473 0.0
H1171 H 0.54147 0.46374 0.74219 0.0
H1172 H 0.58889 0.37171 0.3505 0.0
H1173 H 0.56229 0.40006 0.40586 0.0
H1174 H 0.50644 0.39447 0.31395 0.0
H1175 H 0.53313 0.36951 0.2581 0.0
H1176 H 0.49602 0.45537 0.37074 0.0
H1177 H 0.52404 0.29773 0.37824 0.0
H1178 H 0.55433 0.2383 0.38392 0.0
H1179 H 0.5763 0.29535 0.5051 0.0
H1180 H 0.54628 0.35543 0.49984 0.0
H1181 H 0.40643 0.33577 0.48922 0.0
H1182 H 0.43509 0.36859 0.4399 0.0
H1183 H 0.47814 0.40406 0.54835 0.0
H1184 H 0.44954 0.37285 0.59774 0.0
H1185 H 0.49778 0.3425 0.49099 0.0
H1186 H 0.45662 0.48382 0.48761 0.0
H1187 H 0.42537 0.53965 0.4762 0.0
H1188 H 0.42387 0.50641 0.34117 0.0
H1189 H 0.45486 0.44959 0.35173 0.0
C1190 C 0.5711 0.37821 0.3418 0.0
C1191 C 0.56301 0.36753 0.30022 0.0
C1192 C 0.55586 0.39418 0.3735 0.0
C1193 C 0.53214 0.39761 0.36461 0.0
C1194 C 0.52457 0.39169 0.3219 0.0
C1195 C 0.53991 0.3772 0.28989 0.0
C1196 C 0.51483 0.39967 0.4001 0.0
C1197 C 0.49624 0.4306 0.39698 0.0
C1198 C 0.51535 0.36783 0.43481 0.0
C1199 C 0.53315 0.33135 0.43839 0.0
C1200 C 0.5354 0.29765 0.406 0.0
C1201 C 0.55252 0.26389 0.40913 0.0
C1202 C 0.56728 0.26314 0.44478 0.0
C1203 C 0.56489 0.29605 0.47746 0.0
C1204 C 0.54784 0.32997 0.47442 0.0
C1205 C 0.42162 0.35206 0.50266 0.0
C1206 C 0.4258 0.35103 0.54745 0.0
C1207 C 0.43795 0.37098 0.4744 0.0
C1208 C 0.45874 0.38884 0.49047 0.0
C1209 C 0.46213 0.39097 0.53527 0.0
C1210 C 0.44572 0.37283 0.5635 0.0
C1211 C 0.47844 0.3972 0.46096 0.0
C1212 C 0.49753 0.36789 0.46522 0.0
C1213 C 0.47776 0.4294 0.42658 0.0
C1214 C 0.45818 0.46198 0.4206 0.0
C1215 C 0.4495 0.48776 0.45554 0.0
C1216 C 0.43182 0.51978 0.44919 0.0
C1217 C 0.42259 0.52649 0.40802 0.0
C1218 C 0.43099 0.50109 0.3731 0.0
C1219 C 0.44865 0.46897 0.37927 0.0
H1220 H 0.40899 0.55149 0.40313 0.0
H1221 H 0.58054 0.237 0.44714 0.0
H1222 H 0.55025 0.63547 0.56701 0.0
H1223 H 0.52527 0.60642 0.5105 0.0
H1224 H 0.57823 0.63266 0.41566 0.0
H1225 H 0.60297 0.66458 0.47225 0.0
H1226 H 0.54154 0.67133 0.39083 0.0
H1227 H 0.5533 0.5096 0.42825 0.0
H1228 H 0.55849 0.44574 0.4802 0.0
H1229 H 0.49436 0.48073 0.54124 0.0
H1230 H 0.48869 0.54414 0.48919 0.0
H1231 H 0.465 0.6145 0.22814 0.0
H1232 H 0.49535 0.58995 0.27746 0.0
H1233 H 0.45099 0.61704 0.38615 0.0
H1234 H 0.42044 0.64219 0.33714 0.0
H1235 H 0.48673 0.54006 0.39642 0.0
H1236 H 0.47678 0.70312 0.35755 0.0
H1237 H 0.47208 0.76536 0.30387 0.0
H1238 H 0.53609 0.72699 0.24424 0.0
H1239 H 0.5409 0.66389 0.29708 0.0
C1240 C 0.55692 0.63383 0.53437 0.0
C1241 C 0.57855 0.6528 0.52411 0.0
C1242 C 0.54262 0.61661 0.50191 0.0
C1243 C 0.54984 0.61663 0.45857 0.0
C1244 C 0.57219 0.63223 0.44878 0.0
C1245 C 0.58636 0.65041 0.48117 0.0
C1246 C 0.53283 0.60783 0.42345 0.0
C1247 C 0.53009 0.64175 0.39146 0.0
C1248 C 0.51741 0.56994 0.4243 0.0
C1249 C 0.52054 0.53133 0.45491 0.0
C1250 C 0.54031 0.50348 0.45274 0.0
C1251 C 0.54331 0.46732 0.4821 0.0
C1252 C 0.52674 0.45904 0.51394 0.0
C1253 C 0.5071 0.48681 0.51636 0.0
C1254 C 0.50389 0.52261 0.48676 0.0
C1255 C 0.46127 0.61365 0.26242 0.0
C1256 C 0.44048 0.63162 0.27872 0.0
C1257 C 0.47869 0.59941 0.29056 0.0
C1258 C 0.47549 0.60247 0.33536 0.0
C1259 C 0.45376 0.61457 0.35162 0.0
C1260 C 0.43636 0.62921 0.3235 0.0
C1261 C 0.49576 0.60332 0.36434 0.0
C1262 C 0.49882 0.56849 0.3952 0.0
C1263 C 0.51175 0.64008 0.36214 0.0
C1264 C 0.50906 0.67849 0.33088 0.0
C1265 C 0.48974 0.70772 0.33275 0.0
C1266 C 0.48707 0.74316 0.30252 0.0
C1267 C 0.50375 0.75005 0.27061 0.0
C1268 C 0.52316 0.72155 0.26892 0.0
C1269 C 0.52586 0.68594 0.29898 0.0
H1270 H 0.5017 0.77756 0.2473 0.0
H1271 H 0.52909 0.43112 0.53672 0.0
loop_
_geom_bond_atom_site_label_1
_geom_bond_atom_site_label_2
_geom_bond_distance
_geom_bond_site_symmetry_2
_ccdc_geom_bond_type
Co0 O3 1.970 . S
Co0 N17 1.989 . S
Co0 O25 1.967 . S
Co0 O32 1.920 . S
Co1 O4 1.966 . S
Co1 N10 2.022 . S
Co1 N18 1.993 . S
Co1 O26 1.941 . S
C2 O3 1.258 . S
C2 O4 1.263 . S
O3 Co0 1.970 . S
O3 C2 1.258 . S
O4 Co1 1.966 . S
O4 C2 1.263 . S
C5 O6 1.235 . S
C5 O32 1.289 . S
O6 C5 1.235 . S
C7 C9 1.400 1_554 S
C7 N10 1.351 . S
C7 C12 1.501 1_554 S
C8 C9 1.387 1_554 S
C8 N11 1.341 . S
C9 C7 1.400 1_556 S
C9 C8 1.387 1_556 S
N10 Co1 2.022 . S
N10 C7 1.351 . S
N10 N11 1.365 . S
N11 C8 1.341 . S
N11 N10 1.365 . S
N11 H31 0.862 . S
C12 C7 1.501 1_556 S
C12 H13 0.961 1_556 S
C12 H14 0.961 . S
C12 H15 0.960 . S
H13 C12 0.961 1_554 S
H14 C12 0.961 . S
H15 C12 0.960 . S
C16 N17 1.342 . S
C16 C20 1.401 . S
C16 C21 1.499 . S
N17 Co0 1.989 . S
N17 C16 1.342 . S
N17 N18 1.388 . S
N18 Co1 1.993 . S
N18 N17 1.388 . S
N18 C19 1.346 . S
C19 N18 1.346 . S
C19 C20 1.396 . S
C19 C29 1.510 . S
C20 C16 1.401 . S
C20 C19 1.396 . S
C21 C16 1.499 . S
C21 H22 0.959 . S
C21 H23 0.960 . S
C21 H24 0.961 . S
H22 C21 0.959 . S
H23 C21 0.960 . S
H24 C21 0.961 . S
O25 Co0 1.967 . S
O25 C33 1.258 . S
O26 Co1 1.941 . S
O26 C33 1.266 . S
H27 C29 0.959 . S
H28 C29 0.961 . S
C29 C19 1.510 . S
C29 H27 0.959 . S
C29 H28 0.961 . S
C29 H30 0.960 . S
H30 C29 0.960 . S
H31 N11 0.862 . S
O32 Co0 1.920 . S
O32 C5 1.289 . S
C33 O25 1.258 . S
C33 O26 1.266 . S
Co34 O37 1.970 . S
Co34 N51 1.989 . S
Co34 O59 1.967 . S
Co34 O66 1.920 . S
Co35 O38 1.966 . S
Co35 N44 2.022 . S
Co35 N52 1.993 . S
Co35 O60 1.941 . S
C36 O37 1.258 . S
C36 O38 1.263 . S
O37 Co34 1.970 . S
O37 C36 1.258 . S
O38 Co35 1.966 . S
O38 C36 1.263 . S
C39 O40 1.235 . S
C39 O66 1.289 . S
O40 C39 1.235 . S
C41 C43 1.400 1_554 S
C41 N44 1.351 . S
C41 C46 1.501 1_554 S
C42 C43 1.387 1_554 S
C42 N45 1.341 . S
C43 C41 1.400 1_556 S
C43 C42 1.387 1_556 S
N44 Co35 2.022 . S
N44 C41 1.351 . S
N44 N45 1.365 . S
N45 C42 1.341 . S
N45 N44 1.365 . S
N45 H65 0.862 . S
C46 C41 1.501 1_556 S
C46 H47 0.961 1_556 S
C46 H48 0.961 . S
C46 H49 0.960 . S
H47 C46 0.961 1_554 S
H48 C46 0.961 . S
H49 C46 0.960 . S
C50 N51 1.342 . S
C50 C54 1.401 . S
C50 C55 1.499 . S
N51 Co34 1.989 . S
N51 C50 1.342 . S
N51 N52 1.388 . S
N52 Co35 1.993 . S
N52 N51 1.388 . S
N52 C53 1.346 . S
C53 N52 1.346 . S
C53 C54 1.396 . S
C53 C63 1.510 . S
C54 C50 1.401 . S
C54 C53 1.396 . S
C55 C50 1.499 . S
C55 H56 0.959 . S
C55 H57 0.960 . S
C55 H58 0.961 . S
H56 C55 0.959 . S
H57 C55 0.960 . S
H58 C55 0.961 . S
O59 Co34 1.967 . S
O59 C67 1.258 . S
O60 Co35 1.941 . S
O60 C67 1.266 . S
H61 C63 0.959 . S
H62 C63 0.961 . S
C63 C53 1.510 . S
C63 H61 0.959 . S
C63 H62 0.961 . S
C63 H64 0.960 . S
H64 C63 0.960 . S
H65 N45 0.862 . S
O66 Co34 1.920 . S
O66 C39 1.289 . S
C67 O59 1.258 . S
C67 O60 1.266 . S
Co68 O71 1.970 . S
Co68 N85 1.989 . S
Co68 O93 1.967 . S
Co68 O100 1.920 . S
Co69 O72 1.966 . S
Co69 N78 2.022 . S
Co69 N86 1.993 . S
Co69 O94 1.941 . S
C70 O71 1.258 . S
C70 O72 1.263 . S
O71 Co68 1.970 . S
O71 C70 1.258 . S
O72 Co69 1.966 . S
O72 C70 1.263 . S
C73 O74 1.235 . S
C73 O100 1.289 . S
O74 C73 1.235 . S
C75 C77 1.400 . S
C75 N78 1.351 . S
C75 C80 1.501 . S
C76 C77 1.387 . S
C76 N79 1.341 . S
C77 C75 1.400 . S
C77 C76 1.387 . S
N78 Co69 2.022 . S
N78 C75 1.351 . S
N78 N79 1.365 . S
N79 C76 1.341 . S
N79 N78 1.365 . S
N79 H99 0.862 . S
C80 C75 1.501 . S
C80 H81 0.961 . S
C80 H82 0.961 . S
C80 H83 0.960 . S
H81 C80 0.961 . S
H82 C80 0.961 . S
H83 C80 0.960 . S
C84 N85 1.342 . S
C84 C88 1.401 . S
C84 C89 1.499 . S
N85 Co68 1.989 . S
N85 C84 1.342 . S
N85 N86 1.388 . S
N86 Co69 1.993 . S
N86 N85 1.388 . S
N86 C87 1.346 . S
C87 N86 1.346 . S
C87 C88 1.396 . S
C87 C97 1.510 . S
C88 C84 1.401 . S
C88 C87 1.396 . S
C89 C84 1.499 . S
C89 H90 0.959 . S
C89 H91 0.960 . S
C89 H92 0.961 . S
H90 C89 0.959 . S
H91 C89 0.960 . S
H92 C89 0.961 . S
O93 Co68 1.967 . S
O93 C101 1.258 . S
O94 Co69 1.941 . S
O94 C101 1.266 . S
H95 C97 0.959 . S
H96 C97 0.961 . S
C97 C87 1.510 . S
C97 H95 0.959 . S
C97 H96 0.961 . S
C97 H98 0.960 . S
H98 C97 0.960 . S
H99 N79 0.862 . S
O100 Co68 1.920 . S
O100 C73 1.289 . S
C101 O93 1.258 . S
C101 O94 1.266 . S
Co102 O105 1.970 . S
Co102 N119 1.989 . S
Co102 O127 1.967 . S
Co102 O134 1.920 . S
Co103 O106 1.966 . S
Co103 N112 2.022 . S
Co103 N120 1.993 . S
Co103 O128 1.941 . S
C104 O105 1.258 . S
C104 O106 1.263 . S
O105 Co102 1.970 . S
O105 C104 1.258 . S
O106 Co103 1.966 . S
O106 C104 1.263 . S
C107 O108 1.235 . S
C107 O134 1.289 . S
O108 C107 1.235 . S
C109 C111 1.400 . S
C109 N112 1.351 . S
C109 C114 1.501 . S
C110 C111 1.387 . S
C110 N113 1.341 . S
C111 C109 1.400 . S
C111 C110 1.387 . S
N112 Co103 2.022 . S
N112 C109 1.351 . S
N112 N113 1.365 . S
N113 C110 1.341 . S
N113 N112 1.365 . S
N113 H133 0.862 . S
C114 C109 1.501 . S
C114 H115 0.961 . S
C114 H116 0.961 . S
C114 H117 0.960 . S
H115 C114 0.961 . S
H116 C114 0.961 . S
H117 C114 0.960 . S
C118 N119 1.342 . S
C118 C122 1.401 . S
C118 C123 1.499 . S
N119 Co102 1.989 . S
N119 C118 1.342 . S
N119 N120 1.388 . S
N120 Co103 1.993 . S
N120 N119 1.388 . S
N120 C121 1.346 . S
C121 N120 1.346 . S
C121 C122 1.396 . S
C121 C131 1.510 . S
C122 C118 1.401 . S
C122 C121 1.396 . S
C123 C118 1.499 . S
C123 H124 0.959 . S
C123 H125 0.960 . S
C123 H126 0.961 . S
H124 C123 0.959 . S
H125 C123 0.960 . S
H126 C123 0.961 . S
O127 Co102 1.967 . S
O127 C135 1.258 . S
O128 Co103 1.941 . S
O128 C135 1.266 . S
H129 C131 0.959 . S
H130 C131 0.961 . S
C131 C121 1.510 . S
C131 H129 0.959 . S
C131 H130 0.961 . S
C131 H132 0.960 . S
H132 C131 0.960 . S
H133 N113 0.862 . S
O134 Co102 1.920 . S
O134 C107 1.289 . S
C135 O127 1.258 . S
C135 O128 1.266 . S
Co136 O139 1.970 . S
Co136 N153 1.989 . S
Co136 O161 1.967 . S
Co136 O168 1.920 . S
Co137 O140 1.966 . S
Co137 N146 2.022 . S
Co137 N154 1.993 . S
Co137 O162 1.941 . S
C138 O139 1.258 . S
C138 O140 1.263 . S
O139 Co136 1.970 . S
O139 C138 1.258 . S
O140 Co137 1.966 . S
O140 C138 1.263 . S
C141 O142 1.235 . S
C141 O168 1.289 . S
O142 C141 1.235 . S
C143 C145 1.400 . S
C143 N146 1.351 . S
C143 C148 1.501 . S
C144 C145 1.387 . S
C144 N147 1.341 . S
C145 C143 1.400 . S
C145 C144 1.387 . S
N146 Co137 2.022 . S
N146 C143 1.351 . S
N146 N147 1.365 . S
N147 C144 1.341 . S
N147 N146 1.365 . S
N147 H167 0.862 . S
C148 C143 1.501 . S
C148 H149 0.961 . S
C148 H150 0.961 . S
C148 H151 0.960 . S
H149 C148 0.961 . S
H150 C148 0.961 . S
H151 C148 0.960 . S
C152 N153 1.342 . S
C152 C156 1.401 . S
C152 C157 1.499 . S
N153 Co136 1.989 . S
N153 C152 1.342 . S
N153 N154 1.388 . S
N154 Co137 1.993 . S
N154 N153 1.388 . S
N154 C155 1.346 . S
C155 N154 1.346 . S
C155 C156 1.396 . S
C155 C165 1.510 . S
C156 C152 1.401 . S
C156 C155 1.396 . S
C157 C152 1.499 . S
C157 H158 0.959 . S
C157 H159 0.960 . S
C157 H160 0.961 . S
H158 C157 0.959 . S
H159 C157 0.960 . S
H160 C157 0.961 . S
O161 Co136 1.967 . S
O161 C169 1.258 . S
O162 Co137 1.941 . S
O162 C169 1.266 . S
H163 C165 0.959 . S
H164 C165 0.961 . S
C165 C155 1.510 . S
C165 H163 0.959 . S
C165 H164 0.961 . S
C165 H166 0.960 . S
H166 C165 0.960 . S
H167 N147 0.862 . S
O168 Co136 1.920 . S
O168 C141 1.289 . S
C169 O161 1.258 . S
C169 O162 1.266 . S
Co170 O173 1.970 . S
Co170 N187 1.989 . S
Co170 O195 1.967 . S
Co170 O202 1.920 . S
Co171 O174 1.966 . S
Co171 N180 2.022 . S
Co171 N188 1.993 . S
Co171 O196 1.941 . S
C172 O173 1.258 . S
C172 O174 1.263 . S
O173 Co170 1.970 . S
O173 C172 1.258 . S
O174 Co171 1.966 . S
O174 C172 1.263 . S
C175 O176 1.235 . S
C175 O202 1.289 . S
O176 C175 1.235 . S
C177 C179 1.400 . S
C177 N180 1.351 . S
C177 C182 1.501 . S
C178 C179 1.387 . S
C178 N181 1.341 . S
C179 C177 1.400 . S
C179 C178 1.387 . S
N180 Co171 2.022 . S
N180 C177 1.351 . S
N180 N181 1.365 . S
N181 C178 1.341 . S
N181 N180 1.365 . S
N181 H201 0.862 . S
C182 C177 1.501 . S
C182 H183 0.961 . S
C182 H184 0.961 . S
C182 H185 0.960 . S
H183 C182 0.961 . S
H184 C182 0.961 . S
H185 C182 0.960 . S
C186 N187 1.342 . S
C186 C190 1.401 . S
C186 C191 1.499 . S
N187 Co170 1.989 . S
N187 C186 1.342 . S
N187 N188 1.388 . S
N188 Co171 1.993 . S
N188 N187 1.388 . S
N188 C189 1.346 . S
C189 N188 1.346 . S
C189 C190 1.396 . S
C189 C199 1.510 . S
C190 C186 1.401 . S
C190 C189 1.396 . S
C191 C186 1.499 . S
C191 H192 0.959 . S
C191 H193 0.960 . S
C191 H194 0.961 . S
H192 C191 0.959 . S
H193 C191 0.960 . S
H194 C191 0.961 . S
O195 Co170 1.967 . S
O195 C203 1.258 . S
O196 Co171 1.941 . S
O196 C203 1.266 . S
H197 C199 0.959 . S
H198 C199 0.961 . S
C199 C189 1.510 . S
C199 H197 0.959 . S
C199 H198 0.961 . S
C199 H200 0.960 . S
H200 C199 0.960 . S
H201 N181 0.862 . S
O202 Co170 1.920 . S
O202 C175 1.289 . S
C203 O195 1.258 . S
C203 O196 1.266 . S
Co204 O207 1.970 . S
Co204 N221 1.989 . S
Co204 O229 1.967 . S
Co204 O236 1.920 . S
Co205 O208 1.966 . S
Co205 N214 2.022 . S
Co205 N222 1.993 . S
Co205 O230 1.941 . S
C206 O207 1.258 . S
C206 O208 1.263 . S
O207 Co204 1.970 . S
O207 C206 1.258 . S
O208 Co205 1.966 . S
O208 C206 1.263 . S
C209 O210 1.235 . S
C209 O236 1.289 . S
O210 C209 1.235 . S
C211 C213 1.400 . S
C211 N214 1.351 . S
C211 C216 1.501 . S
C212 C213 1.387 . S
C212 N215 1.341 . S
C213 C211 1.400 . S
C213 C212 1.387 . S
N214 Co205 2.022 . S
N214 C211 1.351 . S
N214 N215 1.365 . S
N215 C212 1.341 . S
N215 N214 1.365 . S
N215 H235 0.862 . S
C216 C211 1.501 . S
C216 H217 0.961 . S
C216 H218 0.961 . S
C216 H219 0.960 . S
H217 C216 0.961 . S
H218 C216 0.961 . S
H219 C216 0.960 . S
C220 N221 1.342 . S
C220 C224 1.401 . S
C220 C225 1.499 . S
N221 Co204 1.989 . S
N221 C220 1.342 . S
N221 N222 1.388 . S
N222 Co205 1.993 . S
N222 N221 1.388 . S
N222 C223 1.346 . S
C223 N222 1.346 . S
C223 C224 1.396 . S
C223 C233 1.510 . S
C224 C220 1.401 . S
C224 C223 1.396 . S
C225 C220 1.499 . S
C225 H226 0.959 . S
C225 H227 0.960 . S
C225 H228 0.961 . S
H226 C225 0.959 . S
H227 C225 0.960 . S
H228 C225 0.961 . S
O229 Co204 1.967 . S
O229 C237 1.258 . S
O230 Co205 1.941 . S
O230 C237 1.266 . S
H231 C233 0.959 . S
H232 C233 0.961 . S
C233 C223 1.510 . S
C233 H231 0.959 . S
C233 H232 0.961 . S
C233 H234 0.960 . S
H234 C233 0.960 . S
H235 N215 0.862 . S
O236 Co204 1.920 . S
O236 C209 1.289 . S
C237 O229 1.258 . S
C237 O230 1.266 . S
Co238 O241 1.970 . S
Co238 N255 1.989 . S
Co238 O263 1.967 . S
Co238 O270 1.920 . S
Co239 O242 1.966 . S
Co239 N248 2.022 . S
Co239 N256 1.993 . S
Co239 O264 1.941 . S
C240 O241 1.258 . S
C240 O242 1.263 . S
O241 Co238 1.970 . S
O241 C240 1.258 . S
O242 Co239 1.966 . S
O242 C240 1.263 . S
C243 O244 1.235 . S
C243 O270 1.289 . S
O244 C243 1.235 . S
C245 C247 1.400 . S
C245 N248 1.351 . S
C245 C250 1.501 . S
C246 C247 1.387 . S
C246 N249 1.341 . S
C247 C245 1.400 . S
C247 C246 1.387 . S
N248 Co239 2.022 . S
N248 C245 1.351 . S
N248 N249 1.365 . S
N249 C246 1.341 . S
N249 N248 1.365 . S
N249 H269 0.862 . S
C250 C245 1.501 . S
C250 H251 0.961 . S
C250 H252 0.961 . S
C250 H253 0.960 . S
H251 C250 0.961 . S
H252 C250 0.961 . S
H253 C250 0.960 . S
C254 N255 1.342 . S
C254 C258 1.401 . S
C254 C259 1.499 . S
N255 Co238 1.989 . S
N255 C254 1.342 . S
N255 N256 1.388 . S
N256 Co239 1.993 . S
N256 N255 1.388 . S
N256 C257 1.346 . S
C257 N256 1.346 . S
C257 C258 1.396 . S
C257 C267 1.510 . S
C258 C254 1.401 . S
C258 C257 1.396 . S
C259 C254 1.499 . S
C259 H260 0.959 . S
C259 H261 0.960 . S
C259 H262 0.961 . S
H260 C259 0.959 . S
H261 C259 0.960 . S
H262 C259 0.961 . S
O263 Co238 1.967 . S
O263 C271 1.258 . S
O264 Co239 1.941 . S
O264 C271 1.266 . S
H265 C267 0.959 . S
H266 C267 0.961 . S
C267 C257 1.510 . S
C267 H265 0.959 . S
C267 H266 0.961 . S
C267 H268 0.960 . S
H268 C267 0.960 . S
H269 N249 0.862 . S
O270 Co238 1.920 . S
O270 C243 1.289 . S
C271 O263 1.258 . S
C271 O264 1.266 . S
H272 C290 0.951 . S
H273 C292 0.951 . S
H274 C294 0.950 . S
H275 C295 0.950 . S
H276 C297 0.950 . S
H277 C300 0.950 1_455 S
H278 C301 0.928 1_456 S
H279 C303 0.950 . S
H280 C304 0.950 . S
H281 C305 0.951 . S
H282 C307 0.951 . S
H283 C309 0.950 . S
H284 C310 0.950 . S
H285 C312 0.950 . S
H286 C315 0.950 1_655 S
H287 C316 0.928 1_655 S
H288 C318 0.950 . S
H289 C319 0.950 . S
C290 H272 0.951 . S
C290 C291 1.366 . S
C290 C292 1.388 . S
C291 C290 1.366 . S
C291 C295 1.385 . S
C292 H273 0.951 . S
C292 C290 1.388 . S
C292 C293 1.366 . S
C293 C292 1.366 . S
C293 C294 1.414 . S
C293 C296 1.499 . S
C294 H274 0.950 . S
C294 C293 1.414 . S
C294 C295 1.374 . S
C295 H275 0.950 . S
C295 C291 1.385 . S
C295 C294 1.374 . S
C296 C293 1.499 . S
C296 C297 1.373 . S
C296 C298 1.389 1_455 S
C297 H276 0.950 . S
C297 C296 1.373 . S
C297 C313 1.377 . S
C298 C296 1.389 1_655 S
C298 C299 1.524 . S
C298 C312 1.377 . S
C299 C298 1.524 . S
C299 C300 1.397 . S
C299 C304 1.363 . S
C300 H277 0.950 1_655 S
C300 C299 1.397 . S
C300 C301 1.334 . S
C301 H278 0.928 1_654 S
C301 C300 1.334 . S
C301 C302 1.287 . S
C302 C301 1.287 . S
C302 C303 1.524 . S
C302 H321 0.913 . S
C303 H279 0.950 . S
C303 C302 1.524 . S
C303 C304 1.415 . S
C304 H280 0.950 . S
C304 C299 1.363 . S
C304 C303 1.415 . S
C305 H281 0.951 . S
C305 C306 1.366 . S
C305 C307 1.388 . S
C306 C305 1.366 . S
C306 C310 1.385 . S
C307 H282 0.951 . S
C307 C305 1.388 . S
C307 C308 1.366 . S
C308 C307 1.366 . S
C308 C309 1.414 . S
C308 C311 1.499 . S
C309 H283 0.950 . S
C309 C308 1.414 . S
C309 C310 1.374 . S
C310 H284 0.950 . S
C310 C306 1.385 . S
C310 C309 1.374 . S
C311 C308 1.499 . S
C311 C312 1.373 . S
C311 C313 1.389 1_655 S
C312 H285 0.950 . S
C312 C298 1.377 . S
C312 C311 1.373 . S
C313 C297 1.377 . S
C313 C311 1.389 1_455 S
C313 C314 1.524 . S
C314 C313 1.524 . S
C314 C315 1.397 . S
C314 C319 1.363 . S
C315 H286 0.950 1_455 S
C315 C314 1.397 . S
C315 C316 1.334 . S
C316 H287 0.928 1_455 S
C316 C315 1.334 . S
C316 C317 1.287 . S
C317 C316 1.287 . S
C317 C318 1.524 . S
C317 H320 0.999 . S
C318 H288 0.950 . S
C318 C317 1.524 . S
C318 C319 1.415 . S
C319 H289 0.950 . S
C319 C314 1.363 . S
C319 C318 1.415 . S
H320 C317 0.999 . S
H321 C302 0.913 . S
H322 C340 0.951 . S
H323 C342 0.951 . S
H324 C344 0.950 . S
H325 C345 0.950 . S
H326 C347 0.950 . S
H327 C350 0.950 . S
H328 C351 0.950 . S
H329 C353 0.950 . S
H330 C354 0.950 . S
H331 C355 0.951 . S
H332 C357 0.951 . S
H333 C359 0.950 . S
H334 C360 0.950 . S
H335 C362 0.950 . S
H336 C365 0.950 . S
H337 C366 0.950 . S
H338 C368 0.950 . S
H339 C369 0.950 . S
C340 H322 0.951 . S
C340 C341 1.366 . S
C340 C342 1.388 . S
C341 C340 1.366 . S
C341 C345 1.385 . S
C342 H323 0.951 . S
C342 C340 1.388 . S
C342 C343 1.366 . S
C343 C342 1.366 . S
C343 C344 1.414 . S
C343 C346 1.499 . S
C344 H324 0.950 . S
C344 C343 1.414 . S
C344 C345 1.374 . S
C345 H325 0.950 . S
C345 C341 1.385 . S
C345 C344 1.374 . S
C346 C343 1.499 . S
C346 C347 1.373 1_655 S
C346 C348 1.389 . S
C347 H326 0.950 . S
C347 C346 1.373 1_455 S
C347 C363 1.377 . S
C348 C346 1.389 . S
C348 C349 1.524 . S
C348 C362 1.377 . S
C349 C348 1.524 . S
C349 C350 1.397 . S
C349 C354 1.363 . S
C350 H327 0.950 . S
C350 C349 1.397 . S
C350 C351 1.334 . S
C351 H328 0.950 . S
C351 C350 1.334 . S
C351 C352 1.287 . S
C352 C351 1.287 . S
C352 C353 1.524 . S
C352 H371 0.913 . S
C353 H329 0.950 . S
C353 C352 1.524 . S
C353 C354 1.415 . S
C354 H330 0.950 . S
C354 C349 1.363 . S
C354 C353 1.415 . S
C355 H331 0.951 . S
C355 C356 1.366 . S
C355 C357 1.388 . S
C356 C355 1.366 . S
C356 C360 1.385 . S
C357 H332 0.951 . S
C357 C355 1.388 . S
C357 C358 1.366 . S
C358 C357 1.366 . S
C358 C359 1.414 . S
C358 C361 1.499 . S
C359 H333 0.950 . S
C359 C358 1.414 . S
C359 C360 1.374 . S
C360 H334 0.950 . S
C360 C356 1.385 . S
C360 C359 1.374 . S
C361 C358 1.499 . S
C361 C362 1.373 1_455 S
C361 C363 1.389 . S
C362 H335 0.950 . S
C362 C348 1.377 . S
C362 C361 1.373 1_655 S
C363 C347 1.377 . S
C363 C361 1.389 . S
C363 C364 1.524 . S
C364 C363 1.524 . S
C364 C365 1.397 . S
C364 C369 1.363 . S
C365 H336 0.950 . S
C365 C364 1.397 . S
C365 C366 1.334 . S
C366 H337 0.950 . S
C366 C365 1.334 . S
C366 C367 1.287 . S
C367 C366 1.287 . S
C367 C368 1.524 . S
C367 H370 0.999 . S
C368 H338 0.950 . S
C368 C367 1.524 . S
C368 C369 1.415 . S
C369 H339 0.950 . S
C369 C364 1.363 . S
C369 C368 1.415 . S
H370 C367 0.999 . S
H371 C352 0.913 . S
H372 C390 0.951 . S
H373 C392 0.951 . S
H374 C394 0.950 . S
H375 C395 0.950 . S
H376 C397 0.950 . S
H377 C400 0.950 1_565 S
H378 C401 0.950 1_565 S
H379 C403 0.950 . S
H380 C404 0.950 . S
H381 C405 0.951 . S
H382 C407 0.951 . S
H383 C409 0.950 . S
H384 C410 0.950 . S
H385 C412 0.950 . S
H386 C415 0.950 1_545 S
H387 C416 0.950 1_545 S
H388 C418 0.950 . S
H389 C419 0.950 . S
C390 H372 0.951 . S
C390 C391 1.366 . S
C390 C392 1.388 . S
C391 C390 1.366 . S
C391 C395 1.385 . S
C392 H373 0.951 . S
C392 C390 1.388 . S
C392 C393 1.366 . S
C393 C392 1.366 . S
C393 C394 1.414 . S
C393 C396 1.499 . S
C394 H374 0.950 . S
C394 C393 1.414 . S
C394 C395 1.374 . S
C395 H375 0.950 . S
C395 C391 1.385 . S
C395 C394 1.374 . S
C396 C393 1.499 . S
C396 C397 1.373 . S
C396 C398 1.389 1_565 S
C397 H376 0.950 . S
C397 C396 1.373 . S
C397 C413 1.377 . S
C398 C396 1.389 1_545 S
C398 C399 1.524 . S
C398 C412 1.377 . S
C399 C398 1.524 . S
C399 C400 1.397 . S
C399 C404 1.363 . S
C400 H377 0.950 1_545 S
C400 C399 1.397 . S
C400 C401 1.334 . S
C401 H378 0.950 1_545 S
C401 C400 1.334 . S
C401 C402 1.287 . S
C402 C401 1.287 . S
C402 C403 1.524 . S
C402 H421 0.913 . S
C403 H379 0.950 . S
C403 C402 1.524 . S
C403 C404 1.415 . S
C404 H380 0.950 . S
C404 C399 1.363 . S
C404 C403 1.415 . S
C405 H381 0.951 . S
C405 C406 1.366 . S
C405 C407 1.388 . S
C406 C405 1.366 . S
C406 C410 1.385 . S
C407 H382 0.951 . S
C407 C405 1.388 . S
C407 C408 1.366 . S
C408 C407 1.366 . S
C408 C409 1.414 . S
C408 C411 1.499 . S
C409 H383 0.950 . S
C409 C408 1.414 . S
C409 C410 1.374 . S
C410 H384 0.950 . S
C410 C406 1.385 . S
C410 C409 1.374 . S
C411 C408 1.499 . S
C411 C412 1.373 . S
C411 C413 1.389 1_545 S
C412 H385 0.950 . S
C412 C398 1.377 . S
C412 C411 1.373 . S
C413 C397 1.377 . S
C413 C411 1.389 1_565 S
C413 C414 1.524 . S
C414 C413 1.524 . S
C414 C415 1.397 . S
C414 C419 1.363 . S
C415 H386 0.950 1_565 S
C415 C414 1.397 . S
C415 C416 1.334 . S
C416 H387 0.950 1_565 S
C416 C415 1.334 . S
C416 C417 1.287 . S
C417 C416 1.287 . S
C417 C418 1.524 . S
C417 H420 0.999 . S
C418 H388 0.950 . S
C418 C417 1.524 . S
C418 C419 1.415 . S
C419 H389 0.950 . S
C419 C414 1.363 . S
C419 C418 1.415 . S
H420 C417 0.999 . S
H421 C402 0.913 . S
H422 C440 0.951 . S
H423 C442 0.951 . S
H424 C444 0.950 . S
H425 C445 0.950 . S
H426 C447 0.950 . S
H427 C450 0.950 . S
H428 C451 0.950 1_565 S
H429 C453 0.950 . S
H430 C454 0.950 . S
H431 C455 0.951 . S
H432 C457 0.951 . S
H433 C459 0.950 . S
H434 C460 0.950 . S
H435 C462 0.950 . S
H436 C465 0.950 . S
H437 C466 0.950 1_545 S
H438 C468 0.950 . S
H439 C469 0.950 . S
C440 H422 0.951 . S
C440 C441 1.366 . S
C440 C442 1.388 . S
C441 C440 1.366 . S
C441 C445 1.385 . S
C442 H423 0.951 . S
C442 C440 1.388 . S
C442 C443 1.366 . S
C443 C442 1.366 . S
C443 C444 1.414 . S
C443 C446 1.499 . S
C444 H424 0.950 . S
C444 C443 1.414 . S
C444 C445 1.374 . S
C445 H425 0.950 . S
C445 C441 1.385 . S
C445 C444 1.374 . S
C446 C443 1.499 . S
C446 C447 1.373 . S
C446 C448 1.389 1_565 S
C447 H426 0.950 . S
C447 C446 1.373 . S
C447 C463 1.377 . S
C448 C446 1.389 1_545 S
C448 C449 1.524 . S
C448 C462 1.377 . S
C449 C448 1.524 . S
C449 C450 1.397 1_545 S
C449 C454 1.363 . S
C450 H427 0.950 . S
C450 C449 1.397 1_565 S
C450 C451 1.334 1_565 S
C451 H428 0.950 1_545 S
C451 C450 1.334 1_545 S
C451 C452 1.287 . S
C452 C451 1.287 . S
C452 C453 1.524 . S
C452 H471 0.913 . S
C453 H429 0.950 . S
C453 C452 1.524 . S
C453 C454 1.415 . S
C454 H430 0.950 . S
C454 C449 1.363 . S
C454 C453 1.415 . S
C455 H431 0.951 . S
C455 C456 1.366 . S
C455 C457 1.388 . S
C456 C455 1.366 . S
C456 C460 1.385 . S
C457 H432 0.951 . S
C457 C455 1.388 . S
C457 C458 1.366 . S
C458 C457 1.366 . S
C458 C459 1.414 . S
C458 C461 1.499 . S
C459 H433 0.950 . S
C459 C458 1.414 . S
C459 C460 1.374 . S
C460 H434 0.950 . S
C460 C456 1.385 . S
C460 C459 1.374 . S
C461 C458 1.499 . S
C461 C462 1.373 . S
C461 C463 1.389 1_545 S
C462 H435 0.950 . S
C462 C448 1.377 . S
C462 C461 1.373 . S
C463 C447 1.377 . S
C463 C461 1.389 1_565 S
C463 C464 1.524 . S
C464 C463 1.524 . S
C464 C465 1.397 1_565 S
C464 C469 1.363 . S
C465 H436 0.950 . S
C465 C464 1.397 1_545 S
C465 C466 1.334 1_545 S
C466 H437 0.950 1_565 S
C466 C465 1.334 1_565 S
C466 C467 1.287 . S
C467 C466 1.287 . S
C467 C468 1.524 . S
C467 H470 0.999 . S
C468 H438 0.950 . S
C468 C467 1.524 . S
C468 C469 1.415 . S
C469 H439 0.950 . S
C469 C464 1.363 . S
C469 C468 1.415 . S
H470 C467 0.999 . S
H471 C452 0.913 . S
H472 C490 0.951 . S
H473 C492 0.951 . S
H474 C494 0.950 . S
H475 C495 0.950 . S
H476 C497 0.950 . S
H477 C500 0.950 . S
H478 C501 0.950 . S
H479 C503 0.950 . S
H480 C504 0.950 . S
H481 C505 0.951 . S
H482 C507 0.951 . S
H483 C509 0.950 . S
H484 C510 0.950 . S
H485 C512 0.950 . S
H486 C515 0.950 . S
H487 C516 0.950 . S
H488 C518 0.950 . S
H489 C519 0.950 . S
C490 H472 0.951 . S
C490 C491 1.366 . S
C490 C492 1.388 . S
C491 C490 1.366 . S
C491 C495 1.385 . S
C492 H473 0.951 . S
C492 C490 1.388 . S
C492 C493 1.366 . S
C493 C492 1.366 . S
C493 C494 1.414 . S
C493 C496 1.499 . S
C494 H474 0.950 . S
C494 C493 1.414 . S
C494 C495 1.374 . S
C495 H475 0.950 . S
C495 C491 1.385 . S
C495 C494 1.374 . S
C496 C493 1.499 . S
C496 C497 1.373 . S
C496 C498 1.389 . S
C497 H476 0.950 . S
C497 C496 1.373 . S
C497 C513 1.377 . S
C498 C496 1.389 . S
C498 C499 1.524 . S
C498 C512 1.377 . S
C499 C498 1.524 . S
C499 C500 1.397 . S
C499 C504 1.363 . S
C500 H477 0.950 . S
C500 C499 1.397 . S
C500 C501 1.334 . S
C501 H478 0.950 . S
C501 C500 1.334 . S
C501 C502 1.287 . S
C502 C501 1.287 . S
C502 C503 1.524 . S
C502 H521 0.913 . S
C503 H479 0.950 . S
C503 C502 1.524 . S
C503 C504 1.415 . S
C504 H480 0.950 . S
C504 C499 1.363 . S
C504 C503 1.415 . S
C505 H481 0.951 . S
C505 C506 1.366 . S
C505 C507 1.388 . S
C506 C505 1.366 . S
C506 C510 1.385 . S
C507 H482 0.951 . S
C507 C505 1.388 . S
C507 C508 1.366 . S
C508 C507 1.366 . S
C508 C509 1.414 . S
C508 C511 1.499 . S
C509 H483 0.950 . S
C509 C508 1.414 . S
C509 C510 1.374 . S
C510 H484 0.950 . S
C510 C506 1.385 . S
C510 C509 1.374 . S
C511 C508 1.499 . S
C511 C512 1.373 . S
C511 C513 1.389 . S
C512 H485 0.950 . S
C512 C498 1.377 . S
C512 C511 1.373 . S
C513 C497 1.377 . S
C513 C511 1.389 . S
C513 C514 1.524 . S
C514 C513 1.524 . S
C514 C515 1.397 . S
C514 C519 1.363 . S
C515 H486 0.950 . S
C515 C514 1.397 . S
C515 C516 1.334 . S
C516 H487 0.950 . S
C516 C515 1.334 . S
C516 C517 1.287 . S
C517 C516 1.287 . S
C517 C518 1.524 . S
C517 H520 0.999 . S
C518 H488 0.950 . S
C518 C517 1.524 . S
C518 C519 1.415 . S
C519 H489 0.950 . S
C519 C514 1.363 . S
C519 C518 1.415 . S
H520 C517 0.999 . S
H521 C502 0.913 . S
H522 C540 0.951 . S
H523 C542 0.951 . S
H524 C544 0.950 . S
H525 C545 0.950 . S
H526 C547 0.950 . S
H527 C550 0.950 . S
H528 C551 0.950 . S
H529 C553 0.950 . S
H530 C554 0.950 . S
H531 C555 0.951 . S
H532 C557 0.951 . S
H533 C559 0.950 . S
H534 C560 0.950 . S
H535 C562 0.950 . S
H536 C565 0.950 . S
H537 C566 0.950 . S
H538 C568 0.950 . S
H539 C569 0.950 . S
C540 H522 0.951 . S
C540 C541 1.366 . S
C540 C542 1.388 . S
C541 C540 1.366 . S
C541 C545 1.385 . S
C542 H523 0.951 . S
C542 C540 1.388 . S
C542 C543 1.366 . S
C543 C542 1.366 . S
C543 C544 1.414 . S
C543 C546 1.499 . S
C544 H524 0.950 . S
C544 C543 1.414 . S
C544 C545 1.374 . S
C545 H525 0.950 . S
C545 C541 1.385 . S
C545 C544 1.374 . S
C546 C543 1.499 . S
C546 C547 1.373 . S
C546 C548 1.389 . S
C547 H526 0.950 . S
C547 C546 1.373 . S
C547 C563 1.377 . S
C548 C546 1.389 . S
C548 C549 1.524 . S
C548 C562 1.377 . S
C549 C548 1.524 . S
C549 C550 1.397 . S
C549 C554 1.363 . S
C550 H527 0.950 . S
C550 C549 1.397 . S
C550 C551 1.334 . S
C551 H528 0.950 . S
C551 C550 1.334 . S
C551 C552 1.287 . S
C552 C551 1.287 . S
C552 C553 1.524 . S
C552 H571 0.913 . S
C553 H529 0.950 . S
C553 C552 1.524 . S
C553 C554 1.415 . S
C554 H530 0.950 . S
C554 C549 1.363 . S
C554 C553 1.415 . S
C555 H531 0.951 . S
C555 C556 1.366 . S
C555 C557 1.388 . S
C556 C555 1.366 . S
C556 C560 1.385 . S
C557 H532 0.951 . S
C557 C555 1.388 . S
C557 C558 1.366 . S
C558 C557 1.366 . S
C558 C559 1.414 . S
C558 C561 1.499 . S
C559 H533 0.950 . S
C559 C558 1.414 . S
C559 C560 1.374 . S
C560 H534 0.950 . S
C560 C556 1.385 . S
C560 C559 1.374 . S
C561 C558 1.499 . S
C561 C562 1.373 . S
C561 C563 1.389 . S
C562 H535 0.950 . S
C562 C548 1.377 . S
C562 C561 1.373 . S
C563 C547 1.377 . S
C563 C561 1.389 . S
C563 C564 1.524 . S
C564 C563 1.524 . S
C564 C565 1.397 . S
C564 C569 1.363 . S
C565 H536 0.950 . S
C565 C564 1.397 . S
C565 C566 1.334 . S
C566 H537 0.950 . S
C566 C565 1.334 . S
C566 C567 1.287 . S
C567 C566 1.287 . S
C567 C568 1.524 . S
C567 H570 0.999 . S
C568 H538 0.950 . S
C568 C567 1.524 . S
C568 C569 1.415 . S
C569 H539 0.950 . S
C569 C564 1.363 . S
C569 C568 1.415 . S
H570 C567 0.999 . S
H571 C552 0.913 . S
H572 C590 0.951 . S
H573 C592 0.951 . S
H574 C594 0.950 . S
H575 C595 0.950 . S
H576 C597 0.950 . S
H577 C600 0.950 . S
H578 C601 0.950 . S
H579 C603 0.950 . S
H580 C604 0.950 . S
H581 C605 0.951 . S
H582 C607 0.951 . S
H583 C609 0.950 . S
H584 C610 0.950 . S
H585 C612 0.950 . S
H586 C615 0.950 . S
H587 C616 0.950 . S
H588 C618 0.950 . S
H589 C619 0.950 . S
C590 H572 0.951 . S
C590 C591 1.366 . S
C590 C592 1.388 . S
C591 C590 1.366 . S
C591 C595 1.385 . S
C592 H573 0.951 . S
C592 C590 1.388 . S
C592 C593 1.366 . S
C593 C592 1.366 . S
C593 C594 1.414 . S
C593 C596 1.499 . S
C594 H574 0.950 . S
C594 C593 1.414 . S
C594 C595 1.374 . S
C595 H575 0.950 . S
C595 C591 1.385 . S
C595 C594 1.374 . S
C596 C593 1.499 . S
C596 C597 1.373 . S
C596 C598 1.389 . S
C597 H576 0.950 . S
C597 C596 1.373 . S
C597 C613 1.377 . S
C598 C596 1.389 . S
C598 C599 1.524 . S
C598 C612 1.377 . S
C599 C598 1.524 . S
C599 C600 1.397 . S
C599 C604 1.363 . S
C600 H577 0.950 . S
C600 C599 1.397 . S
C600 C601 1.334 . S
C601 H578 0.950 . S
C601 C600 1.334 . S
C601 C602 1.287 . S
C602 C601 1.287 . S
C602 C603 1.524 . S
C602 H621 0.913 . S
C603 H579 0.950 . S
C603 C602 1.524 . S
C603 C604 1.415 . S
C604 H580 0.950 . S
C604 C599 1.363 . S
C604 C603 1.415 . S
C605 H581 0.951 . S
C605 C606 1.366 . S
C605 C607 1.388 . S
C606 C605 1.366 . S
C606 C610 1.385 . S
C607 H582 0.951 . S
C607 C605 1.388 . S
C607 C608 1.366 . S
C608 C607 1.366 . S
C608 C609 1.414 . S
C608 C611 1.499 . S
C609 H583 0.950 . S
C609 C608 1.414 . S
C609 C610 1.374 . S
C610 H584 0.950 . S
C610 C606 1.385 . S
C610 C609 1.374 . S
C611 C608 1.499 . S
C611 C612 1.373 . S
C611 C613 1.389 . S
C612 H585 0.950 . S
C612 C598 1.377 . S
C612 C611 1.373 . S
C613 C597 1.377 . S
C613 C611 1.389 . S
C613 C614 1.524 . S
C614 C613 1.524 . S
C614 C615 1.397 . S
C614 C619 1.363 . S
C615 H586 0.950 . S
C615 C614 1.397 . S
C615 C616 1.334 . S
C616 H587 0.950 . S
C616 C615 1.334 . S
C616 C617 1.287 . S
C617 C616 1.287 . S
C617 C618 1.524 . S
C617 H620 0.999 . S
C618 H588 0.950 . S
C618 C617 1.524 . S
C618 C619 1.415 . S
C619 H589 0.950 . S
C619 C614 1.363 . S
C619 C618 1.415 . S
H620 C617 0.999 . S
H621 C602 0.913 . S
H622 C640 0.951 . S
H623 C642 0.951 . S
H624 C644 0.950 . S
H625 C645 0.950 . S
H626 C647 0.950 . S
H627 C650 0.950 . S
H628 C651 0.950 . S
H629 C653 0.950 . S
H630 C654 0.950 . S
H631 C655 0.951 . S
H632 C657 0.951 . S
H633 C659 0.950 . S
H634 C660 0.950 . S
H635 C662 0.950 . S
H636 C665 0.950 . S
H637 C666 0.950 . S
H638 C668 0.950 . S
H639 C669 0.950 . S
C640 H622 0.951 . S
C640 C641 1.366 . S
C640 C642 1.388 . S
C641 C640 1.366 . S
C641 C645 1.385 . S
C642 H623 0.951 . S
C642 C640 1.388 . S
C642 C643 1.366 . S
C643 C642 1.366 . S
C643 C644 1.414 . S
C643 C646 1.499 . S
C644 H624 0.950 . S
C644 C643 1.414 . S
C644 C645 1.374 . S
C645 H625 0.950 . S
C645 C641 1.385 . S
C645 C644 1.374 . S
C646 C643 1.499 . S
C646 C647 1.373 . S
C646 C648 1.389 . S
C647 H626 0.950 . S
C647 C646 1.373 . S
C647 C663 1.377 . S
C648 C646 1.389 . S
C648 C649 1.524 . S
C648 C662 1.377 . S
C649 C648 1.524 . S
C649 C650 1.397 . S
C649 C654 1.363 . S
C650 H627 0.950 . S
C650 C649 1.397 . S
C650 C651 1.334 . S
C651 H628 0.950 . S
C651 C650 1.334 . S
C651 C652 1.287 . S
C652 C651 1.287 . S
C652 C653 1.524 . S
C652 H671 0.913 . S
C653 H629 0.950 . S
C653 C652 1.524 . S
C653 C654 1.415 . S
C654 H630 0.950 . S
C654 C649 1.363 . S
C654 C653 1.415 . S
C655 H631 0.951 . S
C655 C656 1.366 . S
C655 C657 1.388 . S
C656 C655 1.366 . S
C656 C660 1.385 . S
C657 H632 0.951 . S
C657 C655 1.388 . S
C657 C658 1.366 . S
C658 C657 1.366 . S
C658 C659 1.414 . S
C658 C661 1.499 . S
C659 H633 0.950 . S
C659 C658 1.414 . S
C659 C660 1.374 . S
C660 H634 0.950 . S
C660 C656 1.385 . S
C660 C659 1.374 . S
C661 C658 1.499 . S
C661 C662 1.373 . S
C661 C663 1.389 . S
C662 H635 0.950 . S
C662 C648 1.377 . S
C662 C661 1.373 . S
C663 C647 1.377 . S
C663 C661 1.389 . S
C663 C664 1.524 . S
C664 C663 1.524 . S
C664 C665 1.397 . S
C664 C669 1.363 . S
C665 H636 0.950 . S
C665 C664 1.397 . S
C665 C666 1.334 . S
C666 H637 0.950 . S
C666 C665 1.334 . S
C666 C667 1.287 . S
C667 C666 1.287 . S
C667 C668 1.524 . S
C667 H670 0.999 . S
C668 H638 0.950 . S
C668 C667 1.524 . S
C668 C669 1.415 . S
C669 H639 0.950 . S
C669 C664 1.363 . S
C669 C668 1.415 . S
H670 C667 0.999 . S
H671 C652 0.913 . S
H672 C690 0.951 . S
H673 C692 0.951 . S
H674 C694 0.950 . S
H675 C695 0.950 . S
H676 C697 0.950 . S
H677 C700 0.950 . S
H678 C701 0.950 . S
H679 C703 0.950 . S
H680 C704 0.950 . S
H681 C705 0.951 . S
H682 C707 0.951 . S
H683 C709 0.950 . S
H684 C710 0.950 . S
H685 C712 0.950 . S
H686 C715 0.950 . S
H687 C716 0.950 . S
H688 C718 0.950 . S
H689 C719 0.950 . S
C690 H672 0.951 . S
C690 C691 1.366 . S
C690 C692 1.388 . S
C691 C690 1.366 . S
C691 C695 1.385 . S
C692 H673 0.951 . S
C692 C690 1.388 . S
C692 C693 1.366 . S
C693 C692 1.366 . S
C693 C694 1.414 . S
C693 C696 1.499 . S
C694 H674 0.950 . S
C694 C693 1.414 . S
C694 C695 1.374 . S
C695 H675 0.950 . S
C695 C691 1.385 . S
C695 C694 1.374 . S
C696 C693 1.499 . S
C696 C697 1.373 . S
C696 C698 1.389 . S
C697 H676 0.950 . S
C697 C696 1.373 . S
C697 C713 1.377 . S
C698 C696 1.389 . S
C698 C699 1.524 . S
C698 C712 1.377 . S
C699 C698 1.524 . S
C699 C700 1.397 . S
C699 C704 1.363 . S
C700 H677 0.950 . S
C700 C699 1.397 . S
C700 C701 1.334 . S
C701 H678 0.950 . S
C701 C700 1.334 . S
C701 C702 1.287 . S
C702 C701 1.287 . S
C702 C703 1.524 . S
C702 H721 0.913 . S
C703 H679 0.950 . S
C703 C702 1.524 . S
C703 C704 1.415 . S
C704 H680 0.950 . S
C704 C699 1.363 . S
C704 C703 1.415 . S
C705 H681 0.951 . S
C705 C706 1.366 . S
C705 C707 1.388 . S
C706 C705 1.366 . S
C706 C710 1.385 . S
C707 H682 0.951 . S
C707 C705 1.388 . S
C707 C708 1.366 . S
C708 C707 1.366 . S
C708 C709 1.414 . S
C708 C711 1.499 . S
C709 H683 0.950 . S
C709 C708 1.414 . S
C709 C710 1.374 . S
C710 H684 0.950 . S
C710 C706 1.385 . S
C710 C709 1.374 . S
C711 C708 1.499 . S
C711 C712 1.373 . S
C711 C713 1.389 . S
C712 H685 0.950 . S
C712 C698 1.377 . S
C712 C711 1.373 . S
C713 C697 1.377 . S
C713 C711 1.389 . S
C713 C714 1.524 . S
C714 C713 1.524 . S
C714 C715 1.397 . S
C714 C719 1.363 . S
C715 H686 0.950 . S
C715 C714 1.397 . S
C715 C716 1.334 . S
C716 H687 0.950 . S
C716 C715 1.334 . S
C716 C717 1.287 . S
C717 C716 1.287 . S
C717 C718 1.524 . S
C717 H720 0.999 . S
C718 H688 0.950 . S
C718 C717 1.524 . S
C718 C719 1.415 . S
C719 H689 0.950 . S
C719 C714 1.363 . S
C719 C718 1.415 . S
H720 C717 0.999 . S
H721 C702 0.913 . S
H722 C740 0.951 . S
H723 C742 0.951 . S
H724 C744 0.950 . S
H725 C745 0.950 . S
H726 C747 0.950 . S
H727 C750 0.950 . S
H728 C751 0.950 . S
H729 C753 0.950 1_554 S
H730 C754 0.950 . S
H731 C755 0.951 . S
H732 C757 0.951 . S
H733 C759 0.950 . S
H734 C760 0.950 . S
H735 C762 0.950 . S
H736 C765 0.950 . S
H737 C766 0.950 . S
H738 C768 0.950 . S
H739 C769 0.950 . S
C740 H722 0.951 . S
C740 C741 1.366 . S
C740 C742 1.388 . S
C741 C740 1.366 . S
C741 C745 1.385 . S
C742 H723 0.951 . S
C742 C740 1.388 . S
C742 C743 1.366 . S
C743 C742 1.366 . S
C743 C744 1.414 . S
C743 C746 1.499 . S
C744 H724 0.950 . S
C744 C743 1.414 . S
C744 C745 1.374 . S
C745 H725 0.950 . S
C745 C741 1.385 . S
C745 C744 1.374 . S
C746 C743 1.499 . S
C746 C747 1.373 . S
C746 C748 1.389 . S
C747 H726 0.950 . S
C747 C746 1.373 . S
C747 C763 1.377 . S
C748 C746 1.389 . S
C748 C749 1.524 . S
C748 C762 1.377 . S
C749 C748 1.524 . S
C749 C750 1.397 . S
C749 C754 1.363 . S
C750 H727 0.950 . S
C750 C749 1.397 . S
C750 C751 1.334 . S
C751 H728 0.950 . S
C751 C750 1.334 . S
C751 C752 1.301 . S
C752 C751 1.301 . S
C752 C753 1.530 . S
C752 H771 0.889 1_556 S
C753 H729 0.950 1_556 S
C753 C752 1.530 . S
C753 C754 1.415 . S
C754 H730 0.950 . S
C754 C749 1.363 . S
C754 C753 1.415 . S
C755 H731 0.951 . S
C755 C756 1.366 . S
C755 C757 1.388 . S
C756 C755 1.366 . S
C756 C760 1.385 . S
C757 H732 0.951 . S
C757 C755 1.388 . S
C757 C758 1.366 . S
C758 C757 1.366 . S
C758 C759 1.414 . S
C758 C761 1.499 . S
C759 H733 0.950 . S
C759 C758 1.414 . S
C759 C760 1.374 . S
C760 H734 0.950 . S
C760 C756 1.385 . S
C760 C759 1.374 . S
C761 C758 1.499 . S
C761 C762 1.373 . S
C761 C763 1.389 . S
C762 H735 0.950 . S
C762 C748 1.377 . S
C762 C761 1.373 . S
C763 C747 1.377 . S
C763 C761 1.389 . S
C763 C764 1.524 . S
C764 C763 1.524 . S
C764 C765 1.397 . S
C764 C769 1.363 . S
C765 H736 0.950 . S
C765 C764 1.397 . S
C765 C766 1.334 . S
C766 H737 0.950 . S
C766 C765 1.334 . S
C766 C767 1.287 . S
C767 C766 1.287 . S
C767 C768 1.524 . S
C767 H770 0.999 . S
C768 H738 0.950 . S
C768 C767 1.524 . S
C768 C769 1.415 . S
C769 H739 0.950 . S
C769 C764 1.363 . S
C769 C768 1.415 . S
H770 C767 0.999 . S
H771 C752 0.889 1_554 S
H772 C790 0.951 . S
H773 C792 0.951 . S
H774 C794 0.950 . S
H775 C795 0.950 . S
H776 C797 0.952 . S
H777 C800 0.950 . S
H778 C801 0.950 . S
H779 C803 0.950 . S
H780 C804 0.950 . S
H781 C805 0.951 . S
H782 C807 0.951 . S
H783 C809 0.950 . S
H784 C810 0.950 . S
H785 C812 0.950 . S
H786 C815 0.950 . S
H787 C816 0.950 . S
H788 C818 0.950 . S
H789 C819 0.950 . S
C790 H772 0.951 . S
C790 C791 1.366 . S
C790 C792 1.388 . S
C791 C790 1.366 . S
C791 C795 1.385 . S
C792 H773 0.951 . S
C792 C790 1.388 . S
C792 C793 1.366 . S
C793 C792 1.366 . S
C793 C794 1.414 . S
C793 C796 1.499 . S
C794 H774 0.950 . S
C794 C793 1.414 . S
C794 C795 1.374 . S
C795 H775 0.950 . S
C795 C791 1.385 . S
C795 C794 1.374 . S
C796 C793 1.499 . S
C796 C797 1.382 . S
C796 C798 1.389 . S
C797 H776 0.952 . S
C797 C796 1.382 . S
C797 C813 1.366 1_554 S
C798 C796 1.389 . S
C798 C799 1.524 . S
C798 C812 1.377 1_554 S
C799 C798 1.524 . S
C799 C800 1.397 . S
C799 C804 1.363 . S
C800 H777 0.950 . S
C800 C799 1.397 . S
C800 C801 1.334 . S
C801 H778 0.950 . S
C801 C800 1.334 . S
C801 C802 1.287 . S
C802 C801 1.287 . S
C802 C803 1.524 . S
C802 H821 0.913 . S
C803 H779 0.950 . S
C803 C802 1.524 . S
C803 C804 1.415 . S
C804 H780 0.950 . S
C804 C799 1.363 . S
C804 C803 1.415 . S
C805 H781 0.951 . S
C805 C806 1.366 . S
C805 C807 1.388 . S
C806 C805 1.366 . S
C806 C810 1.385 . S
C807 H782 0.951 . S
C807 C805 1.388 . S
C807 C808 1.366 . S
C808 C807 1.366 . S
C808 C809 1.414 . S
C808 C811 1.499 . S
C809 H783 0.950 . S
C809 C808 1.414 . S
C809 C810 1.374 . S
C810 H784 0.950 . S
C810 C806 1.385 . S
C810 C809 1.374 . S
C811 C808 1.499 . S
C811 C812 1.373 . S
C811 C813 1.389 . S
C812 H785 0.950 . S
C812 C798 1.377 1_556 S
C812 C811 1.373 . S
C813 C797 1.366 1_556 S
C813 C811 1.389 . S
C813 C814 1.524 . S
C814 C813 1.524 . S
C814 C815 1.397 . S
C814 C819 1.363 . S
C815 H786 0.950 . S
C815 C814 1.397 . S
C815 C816 1.334 . S
C816 H787 0.950 . S
C816 C815 1.334 . S
C816 C817 1.287 . S
C817 C816 1.287 . S
C817 C818 1.524 . S
C817 H820 0.999 . S
C818 H788 0.950 . S
C818 C817 1.524 . S
C818 C819 1.415 . S
C819 H789 0.950 . S
C819 C814 1.363 . S
C819 C818 1.415 . S
H820 C817 0.999 . S
H821 C802 0.913 . S
H822 C840 0.951 . S
H823 C842 0.951 . S
H824 C844 0.950 . S
H825 C845 0.950 . S
H826 C847 0.950 . S
H827 C850 0.950 . S
H828 C851 0.950 . S
H829 C853 0.950 . S
H830 C854 0.950 . S
H831 C855 0.951 . S
H832 C857 0.951 . S
H833 C859 0.950 . S
H834 C860 0.950 . S
H835 C862 0.950 . S
H836 C865 0.950 . S
H837 C866 0.950 . S
H838 C868 0.950 . S
H839 C869 0.950 . S
C840 H822 0.951 . S
C840 C841 1.366 . S
C840 C842 1.388 . S
C841 C840 1.366 . S
C841 C845 1.385 . S
C842 H823 0.951 . S
C842 C840 1.388 . S
C842 C843 1.366 . S
C843 C842 1.366 . S
C843 C844 1.414 . S
C843 C846 1.499 . S
C844 H824 0.950 . S
C844 C843 1.414 . S
C844 C845 1.374 . S
C845 H825 0.950 . S
C845 C841 1.385 . S
C845 C844 1.374 . S
C846 C843 1.499 . S
C846 C847 1.373 . S
C846 C848 1.389 . S
C847 H826 0.950 . S
C847 C846 1.373 . S
C847 C863 1.374 1_556 S
C848 C846 1.389 . S
C848 C849 1.524 . S
C848 C862 1.377 1_556 S
C849 C848 1.524 . S
C849 C850 1.397 1_556 S
C849 C854 1.363 . S
C850 H827 0.950 . S
C850 C849 1.397 1_554 S
C850 C851 1.334 . S
C851 H828 0.950 . S
C851 C850 1.334 . S
C851 C852 1.287 . S
C852 C851 1.287 . S
C852 C853 1.523 1_554 S
C852 H871 0.913 . S
C853 H829 0.950 . S
C853 C852 1.523 1_556 S
C853 C854 1.415 . S
C854 H830 0.950 . S
C854 C849 1.363 . S
C854 C853 1.415 . S
C855 H831 0.951 . S
C855 C856 1.366 . S
C855 C857 1.388 . S
C856 C855 1.366 . S
C856 C860 1.385 . S
C857 H832 0.951 . S
C857 C855 1.388 . S
C857 C858 1.366 . S
C858 C857 1.366 . S
C858 C859 1.414 . S
C858 C861 1.499 . S
C859 H833 0.950 . S
C859 C858 1.414 . S
C859 C860 1.374 . S
C860 H834 0.950 . S
C860 C856 1.385 . S
C860 C859 1.374 . S
C861 C858 1.499 . S
C861 C862 1.373 . S
C861 C863 1.391 . S
C862 H835 0.950 . S
C862 C848 1.377 1_554 S
C862 C861 1.373 . S
C863 C847 1.374 1_554 S
C863 C861 1.391 . S
C863 C864 1.524 . S
C864 C863 1.524 . S
C864 C865 1.396 1_554 S
C864 C869 1.363 . S
C865 H836 0.950 . S
C865 C864 1.396 1_556 S
C865 C866 1.334 . S
C866 H837 0.950 . S
C866 C865 1.334 . S
C866 C867 1.287 . S
C867 C866 1.287 . S
C867 C868 1.524 1_556 S
C867 H870 0.999 . S
C868 H838 0.950 . S
C868 C867 1.524 1_554 S
C868 C869 1.415 . S
C869 H839 0.950 . S
C869 C864 1.363 . S
C869 C868 1.415 . S
H870 C867 0.999 . S
H871 C852 0.913 . S
H872 C890 0.951 . S
H873 C892 0.951 1_655 S
H874 C894 0.950 . S
H875 C895 0.950 . S
H876 C897 0.950 . S
H877 C900 0.934 1_455 S
H878 C901 0.950 . S
H879 C903 0.950 . S
H880 C904 0.950 . S
H881 C905 0.951 . S
H882 C907 0.951 1_455 S
H883 C909 0.950 . S
H884 C910 0.950 . S
H885 C912 0.950 . S
H886 C915 0.934 1_655 S
H887 C916 0.950 . S
H888 C918 0.950 . S
H889 C919 0.950 . S
C890 H872 0.951 . S
C890 C891 1.366 . S
C890 C892 1.388 . S
C891 C890 1.366 . S
C891 C895 1.385 . S
C892 H873 0.951 1_455 S
C892 C890 1.388 . S
C892 C893 1.366 . S
C893 C892 1.366 . S
C893 C894 1.414 . S
C893 C896 1.499 . S
C894 H874 0.950 . S
C894 C893 1.414 . S
C894 C895 1.374 . S
C895 H875 0.950 . S
C895 C891 1.385 . S
C895 C894 1.374 . S
C896 C893 1.499 . S
C896 C897 1.373 . S
C896 C898 1.389 1_455 S
C897 H876 0.950 . S
C897 C896 1.373 . S
C897 C913 1.377 . S
C898 C896 1.389 1_655 S
C898 C899 1.524 . S
C898 C912 1.377 . S
C899 C898 1.524 . S
C899 C900 1.397 . S
C899 C904 1.363 . S
C900 H877 0.934 1_655 S
C900 C899 1.397 . S
C900 C901 1.334 . S
C901 H878 0.950 . S
C901 C900 1.334 . S
C901 C902 1.287 . S
C902 C901 1.287 . S
C902 C903 1.524 . S
C902 H921 0.913 . S
C903 H879 0.950 . S
C903 C902 1.524 . S
C903 C904 1.415 . S
C904 H880 0.950 . S
C904 C899 1.363 . S
C904 C903 1.415 . S
C905 H881 0.951 . S
C905 C906 1.366 . S
C905 C907 1.388 . S
C906 C905 1.366 . S
C906 C910 1.385 . S
C907 H882 0.951 1_655 S
C907 C905 1.388 . S
C907 C908 1.366 . S
C908 C907 1.366 . S
C908 C909 1.414 . S
C908 C911 1.499 . S
C909 H883 0.950 . S
C909 C908 1.414 . S
C909 C910 1.374 . S
C910 H884 0.950 . S
C910 C906 1.385 . S
C910 C909 1.374 . S
C911 C908 1.499 . S
C911 C912 1.373 . S
C911 C913 1.389 1_655 S
C912 H885 0.950 . S
C912 C898 1.377 . S
C912 C911 1.373 . S
C913 C897 1.377 . S
C913 C911 1.389 1_455 S
C913 C914 1.524 . S
C914 C913 1.524 . S
C914 C915 1.397 . S
C914 C919 1.363 . S
C915 H886 0.934 1_455 S
C915 C914 1.397 . S
C915 C916 1.334 . S
C916 H887 0.950 . S
C916 C915 1.334 . S
C916 C917 1.287 . S
C917 C916 1.287 . S
C917 C918 1.524 . S
C917 H920 0.999 . S
C918 H888 0.950 . S
C918 C917 1.524 . S
C918 C919 1.415 . S
C919 H889 0.950 . S
C919 C914 1.363 . S
C919 C918 1.415 . S
H920 C917 0.999 . S
H921 C902 0.913 . S
H922 C940 0.951 . S
H923 C942 0.951 . S
H924 C944 0.950 . S
H925 C945 0.950 . S
H926 C947 0.950 . S
H927 C950 0.950 . S
H928 C951 0.950 . S
H929 C953 0.950 . S
H930 C954 0.950 . S
H931 C955 0.951 . S
H932 C957 0.951 . S
H933 C959 0.950 . S
H934 C960 0.950 . S
H935 C962 0.950 . S
H936 C965 0.950 . S
H937 C966 0.950 . S
H938 C968 0.950 . S
H939 C969 0.950 . S
C940 H922 0.951 . S
C940 C941 1.366 . S
C940 C942 1.388 . S
C941 C940 1.366 . S
C941 C945 1.385 . S
C942 H923 0.951 . S
C942 C940 1.388 . S
C942 C943 1.366 . S
C943 C942 1.366 . S
C943 C944 1.414 . S
C943 C946 1.499 . S
C944 H924 0.950 . S
C944 C943 1.414 . S
C944 C945 1.374 . S
C945 H925 0.950 . S
C945 C941 1.385 . S
C945 C944 1.374 . S
C946 C943 1.499 . S
C946 C947 1.373 1_455 S
C946 C948 1.389 . S
C947 H926 0.950 . S
C947 C946 1.373 1_655 S
C947 C963 1.377 . S
C948 C946 1.389 . S
C948 C949 1.524 . S
C948 C962 1.377 . S
C949 C948 1.524 . S
C949 C950 1.397 . S
C949 C954 1.363 . S
C950 H927 0.950 . S
C950 C949 1.397 . S
C950 C951 1.334 . S
C951 H928 0.950 . S
C951 C950 1.334 . S
C951 C952 1.287 . S
C952 C951 1.287 . S
C952 C953 1.524 . S
C952 H971 0.913 . S
C953 H929 0.950 . S
C953 C952 1.524 . S
C953 C954 1.415 . S
C954 H930 0.950 . S
C954 C949 1.363 . S
C954 C953 1.415 . S
C955 H931 0.951 . S
C955 C956 1.366 . S
C955 C957 1.388 . S
C956 C955 1.366 . S
C956 C960 1.385 . S
C957 H932 0.951 . S
C957 C955 1.388 . S
C957 C958 1.366 . S
C958 C957 1.366 . S
C958 C959 1.414 . S
C958 C961 1.499 . S
C959 H933 0.950 . S
C959 C958 1.414 . S
C959 C960 1.374 . S
C960 H934 0.950 . S
C960 C956 1.385 . S
C960 C959 1.374 . S
C961 C958 1.499 . S
C961 C962 1.373 1_655 S
C961 C963 1.389 . S
C962 H935 0.950 . S
C962 C948 1.377 . S
C962 C961 1.373 1_455 S
C963 C947 1.377 . S
C963 C961 1.389 . S
C963 C964 1.524 . S
C964 C963 1.524 . S
C964 C965 1.397 . S
C964 C969 1.363 . S
C965 H936 0.950 . S
C965 C964 1.397 . S
C965 C966 1.334 . S
C966 H937 0.950 . S
C966 C965 1.334 . S
C966 C967 1.287 . S
C967 C966 1.287 . S
C967 C968 1.524 . S
C967 H970 0.999 . S
C968 H938 0.950 . S
C968 C967 1.524 . S
C968 C969 1.415 . S
C969 H939 0.950 . S
C969 C964 1.363 . S
C969 C968 1.415 . S
H970 C967 0.999 . S
H971 C952 0.913 . S
H972 C990 0.951 . S
H973 C992 0.951 . S
H974 C994 0.950 . S
H975 C995 0.950 . S
H976 C997 0.950 . S
H977 C1000 0.950 . S
H978 C1001 0.950 . S
H979 C1003 0.950 . S
H980 C1004 0.950 . S
H981 C1005 0.951 . S
H982 C1007 0.951 . S
H983 C1009 0.950 . S
H984 C1010 0.956 . S
H985 C1012 0.950 . S
H986 C1015 0.950 . S
H987 C1016 0.950 . S
H988 C1018 0.950 . S
H989 C1019 0.950 . S
C990 H972 0.951 . S
C990 C991 1.366 . S
C990 C992 1.388 . S
C991 C990 1.366 . S
C991 C995 1.385 . S
C992 H973 0.951 . S
C992 C990 1.388 . S
C992 C993 1.366 . S
C993 C992 1.366 . S
C993 C994 1.414 . S
C993 C996 1.499 . S
C994 H974 0.950 . S
C994 C993 1.414 . S
C994 C995 1.374 . S
C995 H975 0.950 . S
C995 C991 1.385 . S
C995 C994 1.374 . S
C996 C993 1.499 . S
C996 C997 1.373 . S
C996 C998 1.389 1_455 S
C997 H976 0.950 . S
C997 C996 1.373 . S
C997 C1013 1.377 . S
C998 C996 1.389 1_655 S
C998 C999 1.524 . S
C998 C1012 1.377 . S
C999 C998 1.524 . S
C999 C1000 1.397 1_655 S
C999 C1004 1.363 . S
C1000 H977 0.950 . S
C1000 C999 1.397 1_455 S
C1000 C1001 1.334 . S
C1001 H978 0.950 . S
C1001 C1000 1.334 . S
C1001 C1002 1.287 1_455 S
C1002 C1001 1.287 1_655 S
C1002 C1003 1.524 . S
C1002 H1021 0.913 . S
C1003 H979 0.950 . S
C1003 C1002 1.524 . S
C1003 C1004 1.415 . S
C1004 H980 0.950 . S
C1004 C999 1.363 . S
C1004 C1003 1.415 . S
C1005 H981 0.951 . S
C1005 C1006 1.366 . S
C1005 C1007 1.388 . S
C1006 C1005 1.366 . S
C1006 C1010 1.385 . S
C1007 H982 0.951 . S
C1007 C1005 1.388 . S
C1007 C1008 1.366 1_554 S
C1008 C1007 1.366 1_556 S
C1008 C1009 1.414 . S
C1008 C1011 1.499 . S
C1009 H983 0.950 . S
C1009 C1008 1.414 . S
C1009 C1010 1.374 1_556 S
C1010 H984 0.956 . S
C1010 C1006 1.385 . S
C1010 C1009 1.374 1_554 S
C1011 C1008 1.499 . S
C1011 C1012 1.373 . S
C1011 C1013 1.389 1_655 S
C1012 H985 0.950 . S
C1012 C998 1.377 . S
C1012 C1011 1.373 . S
C1013 C997 1.377 . S
C1013 C1011 1.389 1_455 S
C1013 C1014 1.524 . S
C1014 C1013 1.524 . S
C1014 C1015 1.397 1_455 S
C1014 C1019 1.363 1_556 S
C1015 H986 0.950 . S
C1015 C1014 1.397 1_655 S
C1015 C1016 1.334 1_556 S
C1016 H987 0.950 . S
C1016 C1015 1.334 1_554 S
C1016 C1017 1.287 1_655 S
C1017 C1016 1.287 1_455 S
C1017 C1018 1.524 . S
C1017 H1020 0.999 . S
C1018 H988 0.950 . S
C1018 C1017 1.524 . S
C1018 C1019 1.415 . S
C1019 H989 0.950 . S
C1019 C1014 1.363 1_554 S
C1019 C1018 1.415 . S
H1020 C1017 0.999 . S
H1021 C1002 0.913 . S
H1022 C1040 0.951 . S
H1023 C1042 0.951 . S
H1024 C1044 0.950 . S
H1025 C1045 0.950 . S
H1026 C1047 0.950 . S
H1027 C1050 0.950 . S
H1028 C1051 0.950 . S
H1029 C1053 0.950 . S
H1030 C1054 0.950 . S
H1031 C1055 0.951 . S
H1032 C1057 0.951 . S
H1033 C1059 0.950 . S
H1034 C1060 0.950 . S
H1035 C1062 0.950 . S
H1036 C1065 0.950 . S
H1037 C1066 0.950 . S
H1038 C1068 0.950 1_554 S
H1039 C1069 0.950 . S
C1040 H1022 0.951 . S
C1040 C1041 1.366 . S
C1040 C1042 1.388 1_554 S
C1041 C1040 1.366 . S
C1041 C1045 1.385 . S
C1042 H1023 0.951 . S
C1042 C1040 1.388 1_556 S
C1042 C1043 1.366 . S
C1043 C1042 1.366 . S
C1043 C1044 1.414 1_556 S
C1043 C1046 1.499 . S
C1044 H1024 0.950 . S
C1044 C1043 1.414 1_554 S
C1044 C1045 1.374 . S
C1045 H1025 0.950 . S
C1045 C1041 1.385 . S
C1045 C1044 1.374 . S
C1046 C1043 1.499 . S
C1046 C1047 1.373 1_455 S
C1046 C1048 1.389 . S
C1047 H1026 0.950 . S
C1047 C1046 1.373 1_655 S
C1047 C1063 1.377 . S
C1048 C1046 1.389 . S
C1048 C1049 1.524 . S
C1048 C1062 1.377 . S
C1049 C1048 1.524 . S
C1049 C1050 1.397 . S
C1049 C1054 1.363 . S
C1050 H1027 0.950 . S
C1050 C1049 1.397 . S
C1050 C1051 1.334 . S
C1051 H1028 0.950 . S
C1051 C1050 1.334 . S
C1051 C1052 1.287 . S
C1052 C1051 1.287 . S
C1052 C1053 1.524 . S
C1052 H1071 0.913 . S
C1053 H1029 0.950 . S
C1053 C1052 1.524 . S
C1053 C1054 1.415 . S
C1054 H1030 0.950 . S
C1054 C1049 1.363 . S
C1054 C1053 1.415 . S
C1055 H1031 0.951 . S
C1055 C1056 1.366 . S
C1055 C1057 1.388 . S
C1056 C1055 1.366 . S
C1056 C1060 1.385 . S
C1057 H1032 0.951 . S
C1057 C1055 1.388 . S
C1057 C1058 1.366 . S
C1058 C1057 1.366 . S
C1058 C1059 1.414 . S
C1058 C1061 1.499 . S
C1059 H1033 0.950 . S
C1059 C1058 1.414 . S
C1059 C1060 1.374 . S
C1060 H1034 0.950 . S
C1060 C1056 1.385 . S
C1060 C1059 1.374 . S
C1061 C1058 1.499 . S
C1061 C1062 1.373 1_655 S
C1061 C1063 1.389 . S
C1062 H1035 0.950 . S
C1062 C1048 1.377 . S
C1062 C1061 1.373 1_455 S
C1063 C1047 1.377 . S
C1063 C1061 1.389 . S
C1063 C1064 1.524 . S
C1064 C1063 1.524 . S
C1064 C1065 1.397 . S
C1064 C1069 1.363 . S
C1065 H1036 0.950 . S
C1065 C1064 1.397 . S
C1065 C1066 1.334 . S
C1066 H1037 0.950 . S
C1066 C1065 1.334 . S
C1066 C1067 1.287 . S
C1067 C1066 1.287 . S
C1067 C1068 1.524 . S
C1067 H1070 0.999 . S
C1068 H1038 0.950 1_556 S
C1068 C1067 1.524 . S
C1068 C1069 1.415 . S
C1069 H1039 0.950 . S
C1069 C1064 1.363 . S
C1069 C1068 1.415 . S
H1070 C1067 0.999 . S
H1071 C1052 0.913 . S
H1072 C1090 0.951 . S
H1073 C1092 0.951 1_556 S
H1074 C1094 0.950 . S
H1075 C1095 0.950 . S
H1076 C1097 0.950 . S
H1077 C1100 0.950 . S
H1078 C1101 0.950 . S
H1079 C1103 0.950 . S
H1080 C1104 0.950 . S
H1081 C1105 0.951 . S
H1082 C1107 0.951 . S
H1083 C1109 0.950 . S
H1084 C1110 0.950 . S
H1085 C1112 0.950 . S
H1086 C1115 0.950 . S
H1087 C1116 0.950 . S
H1088 C1118 0.950 . S
H1089 C1119 0.950 . S
C1090 H1072 0.951 . S
C1090 C1091 1.366 . S
C1090 C1092 1.388 . S
C1091 C1090 1.366 . S
C1091 C1095 1.385 . S
C1092 H1073 0.951 1_554 S
C1092 C1090 1.388 . S
C1092 C1093 1.366 . S
C1093 C1092 1.366 . S
C1093 C1094 1.414 . S
C1093 C1096 1.499 1_554 S
C1094 H1074 0.950 . S
C1094 C1093 1.414 . S
C1094 C1095 1.374 . S
C1095 H1075 0.950 . S
C1095 C1091 1.385 . S
C1095 C1094 1.374 . S
C1096 C1093 1.499 1_556 S
C1096 C1097 1.373 . S
C1096 C1098 1.389 . S
C1097 H1076 0.950 . S
C1097 C1096 1.373 . S
C1097 C1113 1.377 . S
C1098 C1096 1.389 . S
C1098 C1099 1.524 . S
C1098 C1112 1.377 . S
C1099 C1098 1.524 . S
C1099 C1100 1.397 1_556 S
C1099 C1104 1.363 . S
C1100 H1077 0.950 . S
C1100 C1099 1.397 1_554 S
C1100 C1101 1.334 . S
C1101 H1078 0.950 . S
C1101 C1100 1.334 . S
C1101 C1102 1.287 . S
C1102 C1101 1.287 . S
C1102 C1103 1.524 1_554 S
C1102 H1121 0.913 . S
C1103 H1079 0.950 . S
C1103 C1102 1.524 1_556 S
C1103 C1104 1.415 . S
C1104 H1080 0.950 . S
C1104 C1099 1.363 . S
C1104 C1103 1.415 . S
C1105 H1081 0.951 . S
C1105 C1106 1.366 . S
C1105 C1107 1.388 . S
C1106 C1105 1.366 . S
C1106 C1110 1.385 . S
C1107 H1082 0.951 . S
C1107 C1105 1.388 . S
C1107 C1108 1.366 . S
C1108 C1107 1.366 . S
C1108 C1109 1.414 . S
C1108 C1111 1.499 . S
C1109 H1083 0.950 . S
C1109 C1108 1.414 . S
C1109 C1110 1.374 . S
C1110 H1084 0.950 . S
C1110 C1106 1.385 . S
C1110 C1109 1.374 . S
C1111 C1108 1.499 . S
C1111 C1112 1.373 . S
C1111 C1113 1.389 . S
C1112 H1085 0.950 . S
C1112 C1098 1.377 . S
C1112 C1111 1.373 . S
C1113 C1097 1.377 . S
C1113 C1111 1.389 . S
C1113 C1114 1.524 . S
C1114 C1113 1.524 . S
C1114 C1115 1.397 . S
C1114 C1119 1.363 . S
C1115 H1086 0.950 . S
C1115 C1114 1.397 . S
C1115 C1116 1.334 . S
C1116 H1087 0.950 . S
C1116 C1115 1.334 . S
C1116 C1117 1.287 . S
C1117 C1116 1.287 . S
C1117 C1118 1.524 . S
C1117 H1120 0.999 . S
C1118 H1088 0.950 . S
C1118 C1117 1.524 . S
C1118 C1119 1.415 . S
C1119 H1089 0.950 . S
C1119 C1114 1.363 . S
C1119 C1118 1.415 . S
H1120 C1117 0.999 . S
H1121 C1102 0.913 . S
H1122 C1140 0.951 . S
H1123 C1142 0.951 . S
H1124 C1144 0.950 . S
H1125 C1145 0.950 . S
H1126 C1147 0.950 . S
H1127 C1150 0.950 . S
H1128 C1151 0.950 . S
H1129 C1153 0.950 . S
H1130 C1154 0.950 . S
H1131 C1155 0.951 . S
H1132 C1157 0.951 . S
H1133 C1159 0.950 1_556 S
H1134 C1160 0.950 . S
H1135 C1162 0.950 . S
H1136 C1165 0.950 . S
H1137 C1166 0.950 . S
H1138 C1168 0.950 . S
H1139 C1169 0.950 . S
C1140 H1122 0.951 . S
C1140 C1141 1.366 . S
C1140 C1142 1.388 . S
C1141 C1140 1.366 . S
C1141 C1145 1.385 . S
C1142 H1123 0.951 . S
C1142 C1140 1.388 . S
C1142 C1143 1.366 . S
C1143 C1142 1.366 . S
C1143 C1144 1.414 . S
C1143 C1146 1.499 . S
C1144 H1124 0.950 . S
C1144 C1143 1.414 . S
C1144 C1145 1.374 . S
C1145 H1125 0.950 . S
C1145 C1141 1.385 . S
C1145 C1144 1.374 . S
C1146 C1143 1.499 . S
C1146 C1147 1.373 . S
C1146 C1148 1.389 . S
C1147 H1126 0.950 . S
C1147 C1146 1.373 . S
C1147 C1163 1.377 . S
C1148 C1146 1.389 . S
C1148 C1149 1.524 . S
C1148 C1162 1.377 . S
C1149 C1148 1.524 . S
C1149 C1150 1.397 . S
C1149 C1154 1.363 . S
C1150 H1127 0.950 . S
C1150 C1149 1.397 . S
C1150 C1151 1.334 . S
C1151 H1128 0.950 . S
C1151 C1150 1.334 . S
C1151 C1152 1.287 . S
C1152 C1151 1.287 . S
C1152 C1153 1.524 . S
C1152 H1171 0.913 . S
C1153 H1129 0.950 . S
C1153 C1152 1.524 . S
C1153 C1154 1.415 . S
C1154 H1130 0.950 . S
C1154 C1149 1.363 . S
C1154 C1153 1.415 . S
C1155 H1131 0.951 . S
C1155 C1156 1.366 . S
C1155 C1157 1.388 . S
C1156 C1155 1.366 . S
C1156 C1160 1.385 . S
C1157 H1132 0.951 . S
C1157 C1155 1.388 . S
C1157 C1158 1.386 . S
C1158 C1157 1.386 . S
C1158 C1159 1.419 . S
C1158 C1161 1.474 1_554 S
C1159 H1133 0.950 1_554 S
C1159 C1158 1.419 . S
C1159 C1160 1.374 . S
C1160 H1134 0.950 . S
C1160 C1156 1.385 . S
C1160 C1159 1.374 . S
C1161 C1158 1.474 1_556 S
C1161 C1162 1.373 . S
C1161 C1163 1.389 . S
C1162 H1135 0.950 . S
C1162 C1148 1.377 . S
C1162 C1161 1.373 . S
C1163 C1147 1.377 . S
C1163 C1161 1.389 . S
C1163 C1164 1.524 . S
C1164 C1163 1.524 . S
C1164 C1165 1.397 1_556 S
C1164 C1169 1.363 . S
C1165 H1136 0.950 . S
C1165 C1164 1.397 1_554 S
C1165 C1166 1.334 . S
C1166 H1137 0.950 . S
C1166 C1165 1.334 . S
C1166 C1167 1.287 . S
C1167 C1166 1.287 . S
C1167 C1168 1.524 . S
C1167 H1170 0.999 . S
C1168 H1138 0.950 . S
C1168 C1167 1.524 . S
C1168 C1169 1.415 1_554 S
C1169 H1139 0.950 . S
C1169 C1164 1.363 . S
C1169 C1168 1.415 1_556 S
H1170 C1167 0.999 . S
H1171 C1152 0.913 . S
H1172 C1190 0.951 . S
H1173 C1192 0.951 . S
H1174 C1194 0.950 . S
H1175 C1195 0.950 . S
H1176 C1197 0.950 . S
H1177 C1200 0.950 . S
H1178 C1201 0.950 . S
H1179 C1203 0.950 . S
H1180 C1204 0.950 . S
H1181 C1205 0.951 . S
H1182 C1207 0.951 . S
H1183 C1209 0.950 . S
H1184 C1210 0.950 . S
H1185 C1212 0.950 . S
H1186 C1215 0.950 . S
H1187 C1216 0.950 . S
H1188 C1218 0.950 . S
H1189 C1219 0.950 . S
C1190 H1172 0.951 . S
C1190 C1191 1.366 . S
C1190 C1192 1.388 . S
C1191 C1190 1.366 . S
C1191 C1195 1.385 . S
C1192 H1173 0.951 . S
C1192 C1190 1.388 . S
C1192 C1193 1.366 . S
C1193 C1192 1.366 . S
C1193 C1194 1.414 . S
C1193 C1196 1.499 . S
C1194 H1174 0.950 . S
C1194 C1193 1.414 . S
C1194 C1195 1.374 . S
C1195 H1175 0.950 . S
C1195 C1191 1.385 . S
C1195 C1194 1.374 . S
C1196 C1193 1.499 . S
C1196 C1197 1.373 . S
C1196 C1198 1.389 . S
C1197 H1176 0.950 . S
C1197 C1196 1.373 . S
C1197 C1213 1.377 . S
C1198 C1196 1.389 . S
C1198 C1199 1.524 . S
C1198 C1212 1.377 . S
C1199 C1198 1.524 . S
C1199 C1200 1.397 . S
C1199 C1204 1.363 . S
C1200 H1177 0.950 . S
C1200 C1199 1.397 . S
C1200 C1201 1.334 . S
C1201 H1178 0.950 . S
C1201 C1200 1.334 . S
C1201 C1202 1.287 . S
C1202 C1201 1.287 . S
C1202 C1203 1.524 . S
C1202 H1221 0.913 . S
C1203 H1179 0.950 . S
C1203 C1202 1.524 . S
C1203 C1204 1.415 . S
C1204 H1180 0.950 . S
C1204 C1199 1.363 . S
C1204 C1203 1.415 . S
C1205 H1181 0.951 . S
C1205 C1206 1.366 . S
C1205 C1207 1.388 . S
C1206 C1205 1.366 . S
C1206 C1210 1.385 . S
C1207 H1182 0.951 . S
C1207 C1205 1.388 . S
C1207 C1208 1.366 . S
C1208 C1207 1.366 . S
C1208 C1209 1.414 . S
C1208 C1211 1.499 . S
C1209 H1183 0.950 . S
C1209 C1208 1.414 . S
C1209 C1210 1.374 . S
C1210 H1184 0.950 . S
C1210 C1206 1.385 . S
C1210 C1209 1.374 . S
C1211 C1208 1.499 . S
C1211 C1212 1.373 . S
C1211 C1213 1.389 . S
C1212 H1185 0.950 . S
C1212 C1198 1.377 . S
C1212 C1211 1.373 . S
C1213 C1197 1.377 . S
C1213 C1211 1.389 . S
C1213 C1214 1.524 . S
C1214 C1213 1.524 . S
C1214 C1215 1.397 . S
C1214 C1219 1.363 . S
C1215 H1186 0.950 . S
C1215 C1214 1.397 . S
C1215 C1216 1.334 . S
C1216 H1187 0.950 . S
C1216 C1215 1.334 . S
C1216 C1217 1.287 . S
C1217 C1216 1.287 . S
C1217 C1218 1.524 . S
C1217 H1220 0.999 . S
C1218 H1188 0.950 . S
C1218 C1217 1.524 . S
C1218 C1219 1.415 . S
C1219 H1189 0.950 . S
C1219 C1214 1.363 . S
C1219 C1218 1.415 . S
H1220 C1217 0.999 . S
H1221 C1202 0.913 . S
H1222 C1240 0.951 . S
H1223 C1242 0.951 . S
H1224 C1244 0.950 . S
H1225 C1245 0.950 . S
H1226 C1247 0.950 . S
H1227 C1250 0.950 . S
H1228 C1251 0.950 . S
H1229 C1253 0.950 . S
H1230 C1254 0.950 . S
H1231 C1255 0.951 . S
H1232 C1257 0.951 . S
H1233 C1259 0.950 . S
H1234 C1260 0.950 . S
H1235 C1262 0.950 . S
H1236 C1265 0.950 . S
H1237 C1266 0.950 . S
H1238 C1268 0.950 . S
H1239 C1269 0.950 . S
C1240 H1222 0.951 . S
C1240 C1241 1.366 . S
C1240 C1242 1.388 . S
C1241 C1240 1.366 . S
C1241 C1245 1.385 . S
C1242 H1223 0.951 . S
C1242 C1240 1.388 . S
C1242 C1243 1.366 . S
C1243 C1242 1.366 . S
C1243 C1244 1.414 . S
C1243 C1246 1.499 . S
C1244 H1224 0.950 . S
C1244 C1243 1.414 . S
C1244 C1245 1.374 . S
C1245 H1225 0.950 . S
C1245 C1241 1.385 . S
C1245 C1244 1.374 . S
C1246 C1243 1.499 . S
C1246 C1247 1.373 . S
C1246 C1248 1.389 . S
C1247 H1226 0.950 . S
C1247 C1246 1.373 . S
C1247 C1263 1.377 . S
C1248 C1246 1.389 . S
C1248 C1249 1.524 . S
C1248 C1262 1.377 . S
C1249 C1248 1.524 . S
C1249 C1250 1.397 . S
C1249 C1254 1.363 . S
C1250 H1227 0.950 . S
C1250 C1249 1.397 . S
C1250 C1251 1.334 . S
C1251 H1228 0.950 . S
C1251 C1250 1.334 . S
C1251 C1252 1.287 . S
C1252 C1251 1.287 . S
C1252 C1253 1.524 . S
C1252 H1271 0.913 . S
C1253 H1229 0.950 . S
C1253 C1252 1.524 . S
C1253 C1254 1.415 . S
C1254 H1230 0.950 . S
C1254 C1249 1.363 . S
C1254 C1253 1.415 . S
C1255 H1231 0.951 . S
C1255 C1256 1.366 . S
C1255 C1257 1.388 . S
C1256 C1255 1.366 . S
C1256 C1260 1.385 . S
C1257 H1232 0.951 . S
C1257 C1255 1.388 . S
C1257 C1258 1.366 . S
C1258 C1257 1.366 . S
C1258 C1259 1.414 . S
C1258 C1261 1.499 . S
C1259 H1233 0.950 . S
C1259 C1258 1.414 . S
C1259 C1260 1.374 . S
C1260 H1234 0.950 . S
C1260 C1256 1.385 . S
C1260 C1259 1.374 . S
C1261 C1258 1.499 . S
C1261 C1262 1.373 . S
C1261 C1263 1.389 . S
C1262 H1235 0.950 . S
C1262 C1248 1.377 . S
C1262 C1261 1.373 . S
C1263 C1247 1.377 . S
C1263 C1261 1.389 . S
C1263 C1264 1.524 . S
C1264 C1263 1.524 . S
C1264 C1265 1.397 . S
C1264 C1269 1.363 . S
C1265 H1236 0.950 . S
C1265 C1264 1.397 . S
C1265 C1266 1.334 . S
C1266 H1237 0.950 . S
C1266 C1265 1.334 . S
C1266 C1267 1.287 . S
C1267 C1266 1.287 . S
C1267 C1268 1.524 . S
C1267 H1270 0.999 . S
C1268 H1238 0.950 . S
C1268 C1267 1.524 . S
C1268 C1269 1.415 . S
C1269 H1239 0.950 . S
C1269 C1264 1.363 . S
C1269 C1268 1.415 . S
H1270 C1267 0.999 . S
H1271 C1252 0.913 . S
C291 C33 1.554 . S
C306 C67 1.554 . S
C341 C135 1.554 . S
C356 C101 1.554 . S
C391 C169 1.554 . S
C406 C203 1.554 . S
C441 C271 1.554 . S
C456 C237 1.554 . S
C491 C179 1.410 . S
C506 C20 1.493 . S
C541 C145 1.411 . S
C556 C54 1.493 . S
C591 C247 1.410 . S
C606 C88 1.493 . S
C641 C122 1.493 . S
C656 C213 1.411 . S
C691 C43 1.410 . S
C706 C156 1.493 . S
C741 C9 1.411 . S
C756 C190 1.493 . S
C791 C224 1.493 . S
C806 C111 1.410 . S
C841 C77 1.411 . S
C856 C258 1.493 . S
C891 C5 1.277 . S
C906 C107 1.277 . S
C941 C73 1.277 . S
C956 C39 1.277 . S
C991 C70 0.702 . S
C1006 C36 0.704 . S
C1041 C2 0.703 . S
C1056 C104 0.702 . S
C1091 C243 1.277 . S
C1106 C141 1.277 . S
C1141 C175 1.277 . S
C1156 C209 1.277 . S
C1191 C206 0.703 . S
C1206 C172 0.702 . S
C1241 C138 0.702 . S
C1256 C240 0.704 . S
