# Generated by pormake.
# Topology ulh, (4)-cn, num edge types: 1
# Building blocks:
#     Node 0, Type 0, BuildingBlock: MUDLON_clean_sbu_0, # of connection points: 4
#     Node 1, Type 0, BuildingBlock: MUDLON_clean_sbu_0, # of connection points: 4
#     Node 2, Type 0, BuildingBlock: MUDLON_clean_sbu_0, # of connection points: 4
#     Node 3, Type 0, BuildingBlock: MUDLON_clean_sbu_0, # of connection points: 4
#     Node 4, Type 0, BuildingBlock: MUDLON_clean_sbu_0, # of connection points: 4
#     Node 5, Type 0, BuildingBlock: MUDLON_clean_sbu_0, # of connection points: 4
#     Node 6, Type 0, BuildingBlock: MUDLON_clean_sbu_0, # of connection points: 4
#     Node 7, Type 0, BuildingBlock: MUDLON_clean_sbu_0, # of connection points: 4
#     Node 8, Type 0, BuildingBlock: MUDLON_clean_sbu_0, # of connection points: 4
#     Node 9, Type 0, BuildingBlock: MUDLON_clean_sbu_0, # of connection points: 4
#     Node 10, Type 0, BuildingBlock: MUDLON_clean_sbu_0, # of connection points: 4
#     Node 11, Type 0, BuildingBlock: MUDLON_clean_sbu_0, # of connection points: 4
#     Node 12, Type 0, BuildingBlock: MUDLON_clean_sbu_0, # of connection points: 4
#     Node 13, Type 0, BuildingBlock: MUDLON_clean_sbu_0, # of connection points: 4
#     Node 14, Type 0, BuildingBlock: MUDLON_clean_sbu_0, # of connection points: 4
#     Node 15, Type 0, BuildingBlock: MUDLON_clean_sbu_0, # of connection points: 4
#     Node 16, Type 0, BuildingBlock: MUDLON_clean_sbu_0, # of connection points: 4
#     Node 17, Type 0, BuildingBlock: MUDLON_clean_sbu_0, # of connection points: 4
#     Node 18, Type 0, BuildingBlock: MUDLON_clean_sbu_0, # of connection points: 4
#     Node 19, Type 0, BuildingBlock: MUDLON_clean_sbu_0, # of connection points: 4
#     Node 20, Type 0, BuildingBlock: MUDLON_clean_sbu_0, # of connection points: 4
#     Node 21, Type 0, BuildingBlock: MUDLON_clean_sbu_0, # of connection points: 4
#     Node 22, Type 0, BuildingBlock: MUDLON_clean_sbu_0, # of connection points: 4
#     Node 23, Type 0, BuildingBlock: MUDLON_clean_sbu_0, # of connection points: 4
#     Node 24, Type 0, BuildingBlock: MUDLON_clean_sbu_0, # of connection points: 4
#     Node 25, Type 0, BuildingBlock: MUDLON_clean_sbu_0, # of connection points: 4
#     Node 26, Type 0, BuildingBlock: MUDLON_clean_sbu_0, # of connection points: 4
#     Node 27, Type 0, BuildingBlock: MUDLON_clean_sbu_0, # of connection points: 4
#     Node 28, Type 0, BuildingBlock: MUDLON_clean_sbu_0, # of connection points: 4
#     Node 29, Type 0, BuildingBlock: MUDLON_clean_sbu_0, # of connection points: 4
#     Node 30, Type 0, BuildingBlock: MUDLON_clean_sbu_0, # of connection points: 4
#     Node 31, Type 0, BuildingBlock: MUDLON_clean_sbu_0, # of connection points: 4
#     Node 32, Type 0, BuildingBlock: MUDLON_clean_sbu_0, # of connection points: 4
#     Node 33, Type 0, BuildingBlock: MUDLON_clean_sbu_0, # of connection points: 4
#     Node 34, Type 0, BuildingBlock: MUDLON_clean_sbu_0, # of connection points: 4
#     Node 35, Type 0, BuildingBlock: MUDLON_clean_sbu_0, # of connection points: 4
#     Node 36, Type 0, BuildingBlock: MUDLON_clean_sbu_0, # of connection points: 4
#     Node 37, Type 0, BuildingBlock: MUDLON_clean_sbu_0, # of connection points: 4
#     Node 38, Type 0, BuildingBlock: MUDLON_clean_sbu_0, # of connection points: 4
#     Node 39, Type 0, BuildingBlock: MUDLON_clean_sbu_0, # of connection points: 4
#     Node 40, Type 0, BuildingBlock: MUDLON_clean_sbu_0, # of connection points: 4
#     Node 41, Type 0, BuildingBlock: MUDLON_clean_sbu_0, # of connection points: 4
#     Node 42, Type 0, BuildingBlock: MUDLON_clean_sbu_0, # of connection points: 4
#     Node 43, Type 0, BuildingBlock: MUDLON_clean_sbu_0, # of connection points: 4
#     Node 44, Type 0, BuildingBlock: MUDLON_clean_sbu_0, # of connection points: 4
#     Node 45, Type 0, BuildingBlock: MUDLON_clean_sbu_0, # of connection points: 4
#     Node 46, Type 0, BuildingBlock: MUDLON_clean_sbu_0, # of connection points: 4
#     Node 47, Type 0, BuildingBlock: MUDLON_clean_sbu_0, # of connection points: 4
#     Node 48, Type 0, BuildingBlock: MUDLON_clean_sbu_0, # of connection points: 4
#     Node 49, Type 0, BuildingBlock: MUDLON_clean_sbu_0, # of connection points: 4
#     Node 50, Type 0, BuildingBlock: MUDLON_clean_sbu_0, # of connection points: 4
#     Node 51, Type 0, BuildingBlock: MUDLON_clean_sbu_0, # of connection points: 4
#     Node 52, Type 0, BuildingBlock: MUDLON_clean_sbu_0, # of connection points: 4
#     Node 53, Type 0, BuildingBlock: MUDLON_clean_sbu_0, # of connection points: 4
#     Node 54, Type 0, BuildingBlock: MUDLON_clean_sbu_0, # of connection points: 4
#     Node 55, Type 0, BuildingBlock: MUDLON_clean_sbu_0, # of connection points: 4
#     Node 56, Type 0, BuildingBlock: MUDLON_clean_sbu_0, # of connection points: 4
#     Node 57, Type 0, BuildingBlock: MUDLON_clean_sbu_0, # of connection points: 4
#     Node 58, Type 0, BuildingBlock: MUDLON_clean_sbu_0, # of connection points: 4
#     Node 59, Type 0, BuildingBlock: MUDLON_clean_sbu_0, # of connection points: 4
#     Node 60, Type 0, BuildingBlock: MUDLON_clean_sbu_0, # of connection points: 4
#     Node 61, Type 0, BuildingBlock: MUDLON_clean_sbu_0, # of connection points: 4
#     Node 62, Type 0, BuildingBlock: MUDLON_clean_sbu_0, # of connection points: 4
#     Node 63, Type 0, BuildingBlock: MUDLON_clean_sbu_0, # of connection points: 4
#     Node 64, Type 0, BuildingBlock: MUDLON_clean_sbu_0, # of connection points: 4
#     Node 65, Type 0, BuildingBlock: MUDLON_clean_sbu_0, # of connection points: 4
#     Node 66, Type 0, BuildingBlock: MUDLON_clean_sbu_0, # of connection points: 4
#     Node 67, Type 0, BuildingBlock: MUDLON_clean_sbu_0, # of connection points: 4
#     Node 68, Type 0, BuildingBlock: MUDLON_clean_sbu_0, # of connection points: 4
#     Node 69, Type 0, BuildingBlock: MUDLON_clean_sbu_0, # of connection points: 4
#     Node 70, Type 0, BuildingBlock: MUDLON_clean_sbu_0, # of connection points: 4
#     Node 71, Type 0, BuildingBlock: MUDLON_clean_sbu_0, # of connection points: 4
#     Node 72, Type 0, BuildingBlock: MUDLON_clean_sbu_0, # of connection points: 4
#     Node 73, Type 0, BuildingBlock: MUDLON_clean_sbu_0, # of connection points: 4
#     Node 74, Type 0, BuildingBlock: MUDLON_clean_sbu_0, # of connection points: 4
#     Node 75, Type 0, BuildingBlock: MUDLON_clean_sbu_0, # of connection points: 4
#     Node 76, Type 0, BuildingBlock: MUDLON_clean_sbu_0, # of connection points: 4
#     Node 77, Type 0, BuildingBlock: MUDLON_clean_sbu_0, # of connection points: 4
#     Node 78, Type 0, BuildingBlock: MUDLON_clean_sbu_0, # of connection points: 4
#     Node 79, Type 0, BuildingBlock: MUDLON_clean_sbu_0, # of connection points: 4
#     Node 80, Type 0, BuildingBlock: MUDLON_clean_sbu_0, # of connection points: 4
#     Node 81, Type 0, BuildingBlock: MUDLON_clean_sbu_0, # of connection points: 4
#     Node 82, Type 0, BuildingBlock: MUDLON_clean_sbu_0, # of connection points: 4
#     Node 83, Type 0, BuildingBlock: MUDLON_clean_sbu_0, # of connection points: 4
#     Node 84, Type 0, BuildingBlock: MUDLON_clean_sbu_0, # of connection points: 4
#     Node 85, Type 0, BuildingBlock: MUDLON_clean_sbu_0, # of connection points: 4
#     Node 86, Type 0, BuildingBlock: MUDLON_clean_sbu_0, # of connection points: 4
#     Node 87, Type 0, BuildingBlock: MUDLON_clean_sbu_0, # of connection points: 4
#     Node 88, Type 0, BuildingBlock: MUDLON_clean_sbu_0, # of connection points: 4
#     Node 89, Type 0, BuildingBlock: MUDLON_clean_sbu_0, # of connection points: 4
#     Node 90, Type 0, BuildingBlock: MUDLON_clean_sbu_0, # of connection points: 4
#     Node 91, Type 0, BuildingBlock: MUDLON_clean_sbu_0, # of connection points: 4
#     Node 92, Type 0, BuildingBlock: MUDLON_clean_sbu_0, # of connection points: 4
#     Node 93, Type 0, BuildingBlock: MUDLON_clean_sbu_0, # of connection points: 4
#     Node 94, Type 0, BuildingBlock: MUDLON_clean_sbu_0, # of connection points: 4
#     Node 95, Type 0, BuildingBlock: MUDLON_clean_sbu_0, # of connection points: 4
#     Edge 96, Type (0, 0), BuildingBlock: OJICUG_clean_linker_0, # of connection points: 2
#     Edge 97, Type (0, 0), BuildingBlock: OJICUG_clean_linker_0, # of connection points: 2
#     Edge 98, Type (0, 0), BuildingBlock: OJICUG_clean_linker_0, # of connection points: 2
#     Edge 99, Type (0, 0), BuildingBlock: OJICUG_clean_linker_0, # of connection points: 2
#     Edge 100, Type (0, 0), BuildingBlock: OJICUG_clean_linker_0, # of connection points: 2
#     Edge 101, Type (0, 0), BuildingBlock: OJICUG_clean_linker_0, # of connection points: 2
#     Edge 102, Type (0, 0), BuildingBlock: OJICUG_clean_linker_0, # of connection points: 2
#     Edge 103, Type (0, 0), BuildingBlock: OJICUG_clean_linker_0, # of connection points: 2
#     Edge 104, Type (0, 0), BuildingBlock: OJICUG_clean_linker_0, # of connection points: 2
#     Edge 105, Type (0, 0), BuildingBlock: OJICUG_clean_linker_0, # of connection points: 2
#     Edge 106, Type (0, 0), BuildingBlock: OJICUG_clean_linker_0, # of connection points: 2
#     Edge 107, Type (0, 0), BuildingBlock: OJICUG_clean_linker_0, # of connection points: 2
#     Edge 108, Type (0, 0), BuildingBlock: OJICUG_clean_linker_0, # of connection points: 2
#     Edge 109, Type (0, 0), BuildingBlock: OJICUG_clean_linker_0, # of connection points: 2
#     Edge 110, Type (0, 0), BuildingBlock: OJICUG_clean_linker_0, # of connection points: 2
#     Edge 111, Type (0, 0), BuildingBlock: OJICUG_clean_linker_0, # of connection points: 2
#     Edge 112, Type (0, 0), BuildingBlock: OJICUG_clean_linker_0, # of connection points: 2
#     Edge 113, Type (0, 0), BuildingBlock: OJICUG_clean_linker_0, # of connection points: 2
#     Edge 114, Type (0, 0), BuildingBlock: OJICUG_clean_linker_0, # of connection points: 2
#     Edge 115, Type (0, 0), BuildingBlock: OJICUG_clean_linker_0, # of connection points: 2
#     Edge 116, Type (0, 0), BuildingBlock: OJICUG_clean_linker_0, # of connection points: 2
#     Edge 117, Type (0, 0), BuildingBlock: OJICUG_clean_linker_0, # of connection points: 2
#     Edge 118, Type (0, 0), BuildingBlock: OJICUG_clean_linker_0, # of connection points: 2
#     Edge 119, Type (0, 0), BuildingBlock: OJICUG_clean_linker_0, # of connection points: 2
#     Edge 120, Type (0, 0), BuildingBlock: OJICUG_clean_linker_0, # of connection points: 2
#     Edge 121, Type (0, 0), BuildingBlock: OJICUG_clean_linker_0, # of connection points: 2
#     Edge 122, Type (0, 0), BuildingBlock: OJICUG_clean_linker_0, # of connection points: 2
#     Edge 123, Type (0, 0), BuildingBlock: OJICUG_clean_linker_0, # of connection points: 2
#     Edge 124, Type (0, 0), BuildingBlock: OJICUG_clean_linker_0, # of connection points: 2
#     Edge 125, Type (0, 0), BuildingBlock: OJICUG_clean_linker_0, # of connection points: 2
#     Edge 126, Type (0, 0), BuildingBlock: OJICUG_clean_linker_0, # of connection points: 2
#     Edge 127, Type (0, 0), BuildingBlock: OJICUG_clean_linker_0, # of connection points: 2
#     Edge 128, Type (0, 0), BuildingBlock: OJICUG_clean_linker_0, # of connection points: 2
#     Edge 129, Type (0, 0), BuildingBlock: OJICUG_clean_linker_0, # of connection points: 2
#     Edge 130, Type (0, 0), BuildingBlock: OJICUG_clean_linker_0, # of connection points: 2
#     Edge 131, Type (0, 0), BuildingBlock: OJICUG_clean_linker_0, # of connection points: 2
#     Edge 132, Type (0, 0), BuildingBlock: OJICUG_clean_linker_0, # of connection points: 2
#     Edge 133, Type (0, 0), BuildingBlock: OJICUG_clean_linker_0, # of connection points: 2
#     Edge 134, Type (0, 0), BuildingBlock: OJICUG_clean_linker_0, # of connection points: 2
#     Edge 135, Type (0, 0), BuildingBlock: OJICUG_clean_linker_0, # of connection points: 2
#     Edge 136, Type (0, 0), BuildingBlock: OJICUG_clean_linker_0, # of connection points: 2
#     Edge 137, Type (0, 0), BuildingBlock: OJICUG_clean_linker_0, # of connection points: 2
#     Edge 138, Type (0, 0), BuildingBlock: OJICUG_clean_linker_0, # of connection points: 2
#     Edge 139, Type (0, 0), BuildingBlock: OJICUG_clean_linker_0, # of connection points: 2
#     Edge 140, Type (0, 0), BuildingBlock: OJICUG_clean_linker_0, # of connection points: 2
#     Edge 141, Type (0, 0), BuildingBlock: OJICUG_clean_linker_0, # of connection points: 2
#     Edge 142, Type (0, 0), BuildingBlock: OJICUG_clean_linker_0, # of connection points: 2
#     Edge 143, Type (0, 0), BuildingBlock: OJICUG_clean_linker_0, # of connection points: 2
#     Edge 144, Type (0, 0), BuildingBlock: OJICUG_clean_linker_0, # of connection points: 2
#     Edge 145, Type (0, 0), BuildingBlock: OJICUG_clean_linker_0, # of connection points: 2
#     Edge 146, Type (0, 0), BuildingBlock: OJICUG_clean_linker_0, # of connection points: 2
#     Edge 147, Type (0, 0), BuildingBlock: OJICUG_clean_linker_0, # of connection points: 2
#     Edge 148, Type (0, 0), BuildingBlock: OJICUG_clean_linker_0, # of connection points: 2
#     Edge 149, Type (0, 0), BuildingBlock: OJICUG_clean_linker_0, # of connection points: 2
#     Edge 150, Type (0, 0), BuildingBlock: OJICUG_clean_linker_0, # of connection points: 2
#     Edge 151, Type (0, 0), BuildingBlock: OJICUG_clean_linker_0, # of connection points: 2
#     Edge 152, Type (0, 0), BuildingBlock: OJICUG_clean_linker_0, # of connection points: 2
#     Edge 153, Type (0, 0), BuildingBlock: OJICUG_clean_linker_0, # of connection points: 2
#     Edge 154, Type (0, 0), BuildingBlock: OJICUG_clean_linker_0, # of connection points: 2
#     Edge 155, Type (0, 0), BuildingBlock: OJICUG_clean_linker_0, # of connection points: 2
#     Edge 156, Type (0, 0), BuildingBlock: OJICUG_clean_linker_0, # of connection points: 2
#     Edge 157, Type (0, 0), BuildingBlock: OJICUG_clean_linker_0, # of connection points: 2
#     Edge 158, Type (0, 0), BuildingBlock: OJICUG_clean_linker_0, # of connection points: 2
#     Edge 159, Type (0, 0), BuildingBlock: OJICUG_clean_linker_0, # of connection points: 2
#     Edge 160, Type (0, 0), BuildingBlock: OJICUG_clean_linker_0, # of connection points: 2
#     Edge 161, Type (0, 0), BuildingBlock: OJICUG_clean_linker_0, # of connection points: 2
#     Edge 162, Type (0, 0), BuildingBlock: OJICUG_clean_linker_0, # of connection points: 2
#     Edge 163, Type (0, 0), BuildingBlock: OJICUG_clean_linker_0, # of connection points: 2
#     Edge 164, Type (0, 0), BuildingBlock: OJICUG_clean_linker_0, # of connection points: 2
#     Edge 165, Type (0, 0), BuildingBlock: OJICUG_clean_linker_0, # of connection points: 2
#     Edge 166, Type (0, 0), BuildingBlock: OJICUG_clean_linker_0, # of connection points: 2
#     Edge 167, Type (0, 0), BuildingBlock: OJICUG_clean_linker_0, # of connection points: 2
#     Edge 168, Type (0, 0), BuildingBlock: OJICUG_clean_linker_0, # of connection points: 2
#     Edge 169, Type (0, 0), BuildingBlock: OJICUG_clean_linker_0, # of connection points: 2
#     Edge 170, Type (0, 0), BuildingBlock: OJICUG_clean_linker_0, # of connection points: 2
#     Edge 171, Type (0, 0), BuildingBlock: OJICUG_clean_linker_0, # of connection points: 2
#     Edge 172, Type (0, 0), BuildingBlock: OJICUG_clean_linker_0, # of connection points: 2
#     Edge 173, Type (0, 0), BuildingBlock: OJICUG_clean_linker_0, # of connection points: 2
#     Edge 174, Type (0, 0), BuildingBlock: OJICUG_clean_linker_0, # of connection points: 2
#     Edge 175, Type (0, 0), BuildingBlock: OJICUG_clean_linker_0, # of connection points: 2
#     Edge 176, Type (0, 0), BuildingBlock: OJICUG_clean_linker_0, # of connection points: 2
#     Edge 177, Type (0, 0), BuildingBlock: OJICUG_clean_linker_0, # of connection points: 2
#     Edge 178, Type (0, 0), BuildingBlock: OJICUG_clean_linker_0, # of connection points: 2
#     Edge 179, Type (0, 0), BuildingBlock: OJICUG_clean_linker_0, # of connection points: 2
#     Edge 180, Type (0, 0), BuildingBlock: OJICUG_clean_linker_0, # of connection points: 2
#     Edge 181, Type (0, 0), BuildingBlock: OJICUG_clean_linker_0, # of connection points: 2
#     Edge 182, Type (0, 0), BuildingBlock: OJICUG_clean_linker_0, # of connection points: 2
#     Edge 183, Type (0, 0), BuildingBlock: OJICUG_clean_linker_0, # of connection points: 2
#     Edge 184, Type (0, 0), BuildingBlock: OJICUG_clean_linker_0, # of connection points: 2
#     Edge 185, Type (0, 0), BuildingBlock: OJICUG_clean_linker_0, # of connection points: 2
#     Edge 186, Type (0, 0), BuildingBlock: OJICUG_clean_linker_0, # of connection points: 2
#     Edge 187, Type (0, 0), BuildingBlock: OJICUG_clean_linker_0, # of connection points: 2
#     Edge 188, Type (0, 0), BuildingBlock: OJICUG_clean_linker_0, # of connection points: 2
#     Edge 189, Type (0, 0), BuildingBlock: OJICUG_clean_linker_0, # of connection points: 2
#     Edge 190, Type (0, 0), BuildingBlock: OJICUG_clean_linker_0, # of connection points: 2
#     Edge 191, Type (0, 0), BuildingBlock: OJICUG_clean_linker_0, # of connection points: 2
#     Edge 192, Type (0, 0), BuildingBlock: OJICUG_clean_linker_0, # of connection points: 2
#     Edge 193, Type (0, 0), BuildingBlock: OJICUG_clean_linker_0, # of connection points: 2
#     Edge 194, Type (0, 0), BuildingBlock: OJICUG_clean_linker_0, # of connection points: 2
#     Edge 195, Type (0, 0), BuildingBlock: OJICUG_clean_linker_0, # of connection points: 2
#     Edge 196, Type (0, 0), BuildingBlock: OJICUG_clean_linker_0, # of connection points: 2
#     Edge 197, Type (0, 0), BuildingBlock: OJICUG_clean_linker_0, # of connection points: 2
#     Edge 198, Type (0, 0), BuildingBlock: OJICUG_clean_linker_0, # of connection points: 2
#     Edge 199, Type (0, 0), BuildingBlock: OJICUG_clean_linker_0, # of connection points: 2
#     Edge 200, Type (0, 0), BuildingBlock: OJICUG_clean_linker_0, # of connection points: 2
#     Edge 201, Type (0, 0), BuildingBlock: OJICUG_clean_linker_0, # of connection points: 2
#     Edge 202, Type (0, 0), BuildingBlock: OJICUG_clean_linker_0, # of connection points: 2
#     Edge 203, Type (0, 0), BuildingBlock: OJICUG_clean_linker_0, # of connection points: 2
#     Edge 204, Type (0, 0), BuildingBlock: OJICUG_clean_linker_0, # of connection points: 2
#     Edge 205, Type (0, 0), BuildingBlock: OJICUG_clean_linker_0, # of connection points: 2
#     Edge 206, Type (0, 0), BuildingBlock: OJICUG_clean_linker_0, # of connection points: 2
#     Edge 207, Type (0, 0), BuildingBlock: OJICUG_clean_linker_0, # of connection points: 2
#     Edge 208, Type (0, 0), BuildingBlock: OJICUG_clean_linker_0, # of connection points: 2
#     Edge 209, Type (0, 0), BuildingBlock: OJICUG_clean_linker_0, # of connection points: 2
#     Edge 210, Type (0, 0), BuildingBlock: OJICUG_clean_linker_0, # of connection points: 2
#     Edge 211, Type (0, 0), BuildingBlock: OJICUG_clean_linker_0, # of connection points: 2
#     Edge 212, Type (0, 0), BuildingBlock: OJICUG_clean_linker_0, # of connection points: 2
#     Edge 213, Type (0, 0), BuildingBlock: OJICUG_clean_linker_0, # of connection points: 2
#     Edge 214, Type (0, 0), BuildingBlock: OJICUG_clean_linker_0, # of connection points: 2
#     Edge 215, Type (0, 0), BuildingBlock: OJICUG_clean_linker_0, # of connection points: 2
#     Edge 216, Type (0, 0), BuildingBlock: OJICUG_clean_linker_0, # of connection points: 2
#     Edge 217, Type (0, 0), BuildingBlock: OJICUG_clean_linker_0, # of connection points: 2
#     Edge 218, Type (0, 0), BuildingBlock: OJICUG_clean_linker_0, # of connection points: 2
#     Edge 219, Type (0, 0), BuildingBlock: OJICUG_clean_linker_0, # of connection points: 2
#     Edge 220, Type (0, 0), BuildingBlock: OJICUG_clean_linker_0, # of connection points: 2
#     Edge 221, Type (0, 0), BuildingBlock: OJICUG_clean_linker_0, # of connection points: 2
#     Edge 222, Type (0, 0), BuildingBlock: OJICUG_clean_linker_0, # of connection points: 2
#     Edge 223, Type (0, 0), BuildingBlock: OJICUG_clean_linker_0, # of connection points: 2
#     Edge 224, Type (0, 0), BuildingBlock: OJICUG_clean_linker_0, # of connection points: 2
#     Edge 225, Type (0, 0), BuildingBlock: OJICUG_clean_linker_0, # of connection points: 2
#     Edge 226, Type (0, 0), BuildingBlock: OJICUG_clean_linker_0, # of connection points: 2
#     Edge 227, Type (0, 0), BuildingBlock: OJICUG_clean_linker_0, # of connection points: 2
#     Edge 228, Type (0, 0), BuildingBlock: OJICUG_clean_linker_0, # of connection points: 2
#     Edge 229, Type (0, 0), BuildingBlock: OJICUG_clean_linker_0, # of connection points: 2
#     Edge 230, Type (0, 0), BuildingBlock: OJICUG_clean_linker_0, # of connection points: 2
#     Edge 231, Type (0, 0), BuildingBlock: OJICUG_clean_linker_0, # of connection points: 2
#     Edge 232, Type (0, 0), BuildingBlock: OJICUG_clean_linker_0, # of connection points: 2
#     Edge 233, Type (0, 0), BuildingBlock: OJICUG_clean_linker_0, # of connection points: 2
#     Edge 234, Type (0, 0), BuildingBlock: OJICUG_clean_linker_0, # of connection points: 2
#     Edge 235, Type (0, 0), BuildingBlock: OJICUG_clean_linker_0, # of connection points: 2
#     Edge 236, Type (0, 0), BuildingBlock: OJICUG_clean_linker_0, # of connection points: 2
#     Edge 237, Type (0, 0), BuildingBlock: OJICUG_clean_linker_0, # of connection points: 2
#     Edge 238, Type (0, 0), BuildingBlock: OJICUG_clean_linker_0, # of connection points: 2
#     Edge 239, Type (0, 0), BuildingBlock: OJICUG_clean_linker_0, # of connection points: 2
#     Edge 240, Type (0, 0), BuildingBlock: OJICUG_clean_linker_0, # of connection points: 2
#     Edge 241, Type (0, 0), BuildingBlock: OJICUG_clean_linker_0, # of connection points: 2
#     Edge 242, Type (0, 0), BuildingBlock: OJICUG_clean_linker_0, # of connection points: 2
#     Edge 243, Type (0, 0), BuildingBlock: OJICUG_clean_linker_0, # of connection points: 2
#     Edge 244, Type (0, 0), BuildingBlock: OJICUG_clean_linker_0, # of connection points: 2
#     Edge 245, Type (0, 0), BuildingBlock: OJICUG_clean_linker_0, # of connection points: 2
#     Edge 246, Type (0, 0), BuildingBlock: OJICUG_clean_linker_0, # of connection points: 2
#     Edge 247, Type (0, 0), BuildingBlock: OJICUG_clean_linker_0, # of connection points: 2
#     Edge 248, Type (0, 0), BuildingBlock: OJICUG_clean_linker_0, # of connection points: 2
#     Edge 249, Type (0, 0), BuildingBlock: OJICUG_clean_linker_0, # of connection points: 2
#     Edge 250, Type (0, 0), BuildingBlock: OJICUG_clean_linker_0, # of connection points: 2
#     Edge 251, Type (0, 0), BuildingBlock: OJICUG_clean_linker_0, # of connection points: 2
#     Edge 252, Type (0, 0), BuildingBlock: OJICUG_clean_linker_0, # of connection points: 2
#     Edge 253, Type (0, 0), BuildingBlock: OJICUG_clean_linker_0, # of connection points: 2
#     Edge 254, Type (0, 0), BuildingBlock: OJICUG_clean_linker_0, # of connection points: 2
#     Edge 255, Type (0, 0), BuildingBlock: OJICUG_clean_linker_0, # of connection points: 2
#     Edge 256, Type (0, 0), BuildingBlock: OJICUG_clean_linker_0, # of connection points: 2
#     Edge 257, Type (0, 0), BuildingBlock: OJICUG_clean_linker_0, # of connection points: 2
#     Edge 258, Type (0, 0), BuildingBlock: OJICUG_clean_linker_0, # of connection points: 2
#     Edge 259, Type (0, 0), BuildingBlock: OJICUG_clean_linker_0, # of connection points: 2
#     Edge 260, Type (0, 0), BuildingBlock: OJICUG_clean_linker_0, # of connection points: 2
#     Edge 261, Type (0, 0), BuildingBlock: OJICUG_clean_linker_0, # of connection points: 2
#     Edge 262, Type (0, 0), BuildingBlock: OJICUG_clean_linker_0, # of connection points: 2
#     Edge 263, Type (0, 0), BuildingBlock: OJICUG_clean_linker_0, # of connection points: 2
#     Edge 264, Type (0, 0), BuildingBlock: OJICUG_clean_linker_0, # of connection points: 2
#     Edge 265, Type (0, 0), BuildingBlock: OJICUG_clean_linker_0, # of connection points: 2
#     Edge 266, Type (0, 0), BuildingBlock: OJICUG_clean_linker_0, # of connection points: 2
#     Edge 267, Type (0, 0), BuildingBlock: OJICUG_clean_linker_0, # of connection points: 2
#     Edge 268, Type (0, 0), BuildingBlock: OJICUG_clean_linker_0, # of connection points: 2
#     Edge 269, Type (0, 0), BuildingBlock: OJICUG_clean_linker_0, # of connection points: 2
#     Edge 270, Type (0, 0), BuildingBlock: OJICUG_clean_linker_0, # of connection points: 2
#     Edge 271, Type (0, 0), BuildingBlock: OJICUG_clean_linker_0, # of connection points: 2
#     Edge 272, Type (0, 0), BuildingBlock: OJICUG_clean_linker_0, # of connection points: 2
#     Edge 273, Type (0, 0), BuildingBlock: OJICUG_clean_linker_0, # of connection points: 2
#     Edge 274, Type (0, 0), BuildingBlock: OJICUG_clean_linker_0, # of connection points: 2
#     Edge 275, Type (0, 0), BuildingBlock: OJICUG_clean_linker_0, # of connection points: 2
#     Edge 276, Type (0, 0), BuildingBlock: OJICUG_clean_linker_0, # of connection points: 2
#     Edge 277, Type (0, 0), BuildingBlock: OJICUG_clean_linker_0, # of connection points: 2
#     Edge 278, Type (0, 0), BuildingBlock: OJICUG_clean_linker_0, # of connection points: 2
#     Edge 279, Type (0, 0), BuildingBlock: OJICUG_clean_linker_0, # of connection points: 2
#     Edge 280, Type (0, 0), BuildingBlock: OJICUG_clean_linker_0, # of connection points: 2
#     Edge 281, Type (0, 0), BuildingBlock: OJICUG_clean_linker_0, # of connection points: 2
#     Edge 282, Type (0, 0), BuildingBlock: OJICUG_clean_linker_0, # of connection points: 2
#     Edge 283, Type (0, 0), BuildingBlock: OJICUG_clean_linker_0, # of connection points: 2
#     Edge 284, Type (0, 0), BuildingBlock: OJICUG_clean_linker_0, # of connection points: 2
#     Edge 285, Type (0, 0), BuildingBlock: OJICUG_clean_linker_0, # of connection points: 2
#     Edge 286, Type (0, 0), BuildingBlock: OJICUG_clean_linker_0, # of connection points: 2
#     Edge 287, Type (0, 0), BuildingBlock: OJICUG_clean_linker_0, # of connection points: 2
# Relax obj value: 0.240
# Max RMSD: 0.304
# Mean RMSD: 0.304
data_MOF--net-ulh--node1-MUDLON_clean_sbu_0--edge1-OJICUG_clean_linker_0
_symmetry_space_group_name_H-M    P1
_symmetry_Int_Tables_number       1
_symmetry_cell_setting            triclinic
loop_
_symmetry_equiv_pos_as_xyz
'x, y, z'
_cell_length_a     63.436087
_cell_length_b     63.365559
_cell_length_c     63.29333
_cell_angle_alpha  89.936304
_cell_angle_beta   90.037811
_cell_angle_gamma 90.032892
loop_
_atom_site_label
_atom_site_type_symbol
_atom_site_fract_x
_atom_site_fract_y
_atom_site_fract_z
_atom_type_partial_charge
Mg0 Mg 0.04498 0.32527 0.09071 0.0
C1 C 0.00749 0.3233 0.05924 0.0
O2 O 0.99768 0.31337 0.07459 0.0
C3 C 0.05884 0.34883 0.12779 0.0
O4 O 0.07073 0.33185 0.12752 0.0
C5 C 0.02827 0.28021 0.09802 0.0
O6 O 0.02995 0.27895 0.07737 0.0
O7 O 0.03464 0.29683 0.10731 0.0
O8 O 0.02593 0.33045 0.06243 0.0
O9 O 0.07744 0.32679 0.0796 0.0
C10 C 0.08014 0.34099 0.06559 0.0
O11 O 0.06353 0.35108 0.0584 0.0
O12 O 0.04461 0.35077 0.11371 0.0
Mg13 Mg 0.93849 0.29442 0.34217 0.0
C14 C 0.9471 0.28555 0.29701 0.0
O15 O 0.95828 0.30262 0.30068 0.0
C16 C 0.91084 0.30111 0.37916 0.0
O17 O 0.92687 0.31365 0.38312 0.0
C18 C 0.9819 0.27523 0.35029 0.0
O19 O 0.98159 0.27411 0.32958 0.0
O20 O 0.96668 0.28435 0.3597 0.0
O21 O 0.93664 0.27744 0.31215 0.0
O22 O 0.93422 0.32746 0.3334 0.0
C23 C 0.91822 0.32945 0.32135 0.0
O24 O 0.90794 0.31234 0.31574 0.0
O25 O 0.91149 0.28952 0.36274 0.0
Mg26 Mg 0.96436 0.18614 0.59103 0.0
C27 C 0.9743 0.19203 0.54617 0.0
O28 O 0.95807 0.2044 0.54973 0.0
C29 C 0.95112 0.16342 0.62853 0.0
O30 O 0.93931 0.18043 0.62762 0.0
C31 C 0.98657 0.22869 0.59622 0.0
O32 O 0.99019 0.22553 0.57606 0.0
O33 O 0.97509 0.21552 0.60621 0.0
O34 O 0.98178 0.18137 0.56154 0.0
O35 O 0.93145 0.1827 0.5815 0.0
C36 C 0.92894 0.16656 0.56973 0.0
O37 O 0.94566 0.15577 0.56404 0.0
O38 O 0.96564 0.16119 0.61479 0.0
Mg39 Mg 0.07263 0.22025 0.83862 0.0
C40 C 0.06046 0.23729 0.79695 0.0
O41 O 0.04388 0.22625 0.80271 0.0
C42 C 0.10241 0.20798 0.87269 0.0
O43 O 0.08917 0.19203 0.87241 0.0
C44 C 0.0413 0.22915 0.87449 0.0
O45 O 0.05538 0.21865 0.88547 0.0
O46 O 0.04383 0.231 0.85462 0.0
O47 O 0.07592 0.23869 0.80968 0.0
O48 O 0.07505 0.18737 0.82867 0.0
C49 C 0.08826 0.18434 0.8138 0.0
O50 O 0.09698 0.20084 0.80476 0.0
O51 O 0.09936 0.22333 0.86003 0.0
Mg52 Mg 0.04368 0.6857 0.92797 0.0
C53 C 0.03587 0.69044 0.97405 0.0
O54 O 0.05425 0.69965 0.97148 0.0
C55 C 0.04784 0.66088 0.88867 0.0
O56 O 0.06023 0.67714 0.88515 0.0
C57 C 0.02635 0.73 0.92096 0.0
O58 O 0.0227 0.72823 0.94131 0.0
O59 O 0.03622 0.71524 0.91161 0.0
O60 O 0.02648 0.68305 0.95785 0.0
O61 O 0.07632 0.67916 0.93635 0.0
C62 C 0.07755 0.66141 0.94576 0.0
O63 O 0.06005 0.65082 0.94914 0.0
O64 O 0.03726 0.66035 0.90576 0.0
Mg65 Mg 0.57165 0.29284 0.1738 0.0
C66 C 0.55874 0.26757 0.21177 0.0
O67 O 0.54024 0.27206 0.20358 0.0
C68 C 0.60078 0.30522 0.13911 0.0
O69 O 0.58778 0.32134 0.13985 0.0
C70 C 0.53885 0.2855 0.13856 0.0
O71 O 0.55298 0.29525 0.12695 0.0
O72 O 0.542 0.28374 0.15835 0.0
O73 O 0.57529 0.27328 0.20196 0.0
O74 O 0.5759 0.32472 0.18601 0.0
C75 C 0.59276 0.32556 0.19696 0.0
O76 O 0.6036 0.30809 0.1996 0.0
O77 O 0.59774 0.28974 0.15161 0.0
Mg78 Mg 0.96496 0.82434 0.42433 0.0
C79 C 1.00264 0.82177 0.4553 0.0
O80 O 0.01147 0.81072 0.44015 0.0
C81 C 0.94951 0.84746 0.38766 0.0
O82 O 0.93761 0.83052 0.38887 0.0
C83 C 0.98091 0.77888 0.41707 0.0
O84 O 0.9784 0.77735 0.43762 0.0
O85 O 0.97531 0.79581 0.40779 0.0
O86 O 0.98464 0.82998 0.45214 0.0
O87 O 0.93248 0.82605 0.43555 0.0
C88 C 0.92939 0.83829 0.45122 0.0
O89 O 0.94582 0.846 0.46121 0.0
O90 O 0.96453 0.84954 0.40089 0.0
Mg91 Mg 0.43977 0.21618 0.68156 0.0
C92 C 0.44562 0.25224 0.71406 0.0
O93 O 0.45392 0.26262 0.69812 0.0
C94 C 0.41229 0.21143 0.64408 0.0
O95 O 0.42844 0.19937 0.63931 0.0
C96 C 0.48507 0.23043 0.67207 0.0
O97 O 0.48702 0.22883 0.69268 0.0
O98 O 0.46787 0.22469 0.66346 0.0
O99 O 0.43841 0.23378 0.71108 0.0
O100 O 0.43469 0.18341 0.69066 0.0
C101 C 0.4196 0.1817 0.70385 0.0
O102 O 0.41072 0.19904 0.71091 0.0
O103 O 0.41282 0.22192 0.66123 0.0
Mg104 Mg 0.08817 0.04282 0.32674 0.0
C105 C 0.05286 0.01187 0.31787 0.0
O106 O 0.06319 0.01039 0.29996 0.0
C107 C 0.1234 0.05659 0.35457 0.0
O108 O 0.12229 0.07216 0.34088 0.0
C109 C 0.12277 0.03342 0.29409 0.0
O110 O 0.13446 0.04355 0.30788 0.0
O111 O 0.10301 0.03204 0.2973 0.0
O112 O 0.06029 0.02344 0.33249 0.0
O113 O 0.07772 0.07557 0.32909 0.0
C114 C 0.06138 0.07888 0.34031 0.0
O115 O 0.05018 0.06262 0.34661 0.0
O116 O 0.11095 0.04094 0.35246 0.0
Mg117 Mg 0.21372 0.33813 0.57914 0.0
C118 C 0.25072 0.30699 0.57516 0.0
O119 O 0.2606 0.32348 0.56736 0.0
C120 C 0.20688 0.37545 0.60652 0.0
O121 O 0.19518 0.37991 0.58997 0.0
C122 C 0.23 0.34785 0.53435 0.0
O123 O 0.2282 0.32731 0.53216 0.0
O124 O 0.22373 0.35635 0.55145 0.0
O125 O 0.23192 0.30908 0.58175 0.0
O126 O 0.18068 0.32909 0.58236 0.0
C127 C 0.17551 0.30974 0.58426 0.0
O128 O 0.18957 0.29513 0.58006 0.0
O129 O 0.21783 0.35861 0.60634 0.0
Mg130 Mg 0.92519 0.46852 0.82531 0.0
C131 C 0.97087 0.47627 0.81774 0.0
O132 O 0.96781 0.45815 0.80814 0.0
C133 C 0.88833 0.46368 0.85339 0.0
O134 O 0.88378 0.45109 0.83754 0.0
C135 C 0.91558 0.48512 0.78058 0.0
O136 O 0.93622 0.48492 0.77895 0.0
O137 O 0.90707 0.47784 0.7973 0.0
O138 O 0.95519 0.4854 0.82636 0.0
O139 O 0.93342 0.43553 0.83074 0.0
C140 C 0.94499 0.43383 0.84715 0.0
O141 O 0.95047 0.45114 0.85716 0.0
O142 O 0.90516 0.47462 0.85246 0.0
Mg143 Mg 0.79159 0.17785 0.08251 0.0
C144 C 0.76889 0.21686 0.0691 0.0
O145 O 0.77443 0.20863 0.05089 0.0
C146 C 0.8038 0.14313 0.11182 0.0
O147 O 0.81994 0.144 0.09885 0.0
C148 C 0.78555 0.14309 0.049 0.0
O149 O 0.79825 0.13258 0.06155 0.0
O150 O 0.78122 0.16221 0.05336 0.0
O151 O 0.77324 0.20685 0.08598 0.0
O152 O 0.82454 0.18723 0.08468 0.0
C153 C 0.82829 0.20252 0.09719 0.0
O154 O 0.81229 0.21285 0.10531 0.0
O155 O 0.78843 0.15578 0.10892 0.0
Mg156 Mg 0.09057 0.96961 0.67962 0.0
C157 C 0.05744 1.00474 0.68239 0.0
O158 O 0.07336 0.01562 0.69002 0.0
C159 C 0.12879 0.9645 0.65313 0.0
O160 O 0.13264 0.95171 0.66902 0.0
C161 C 0.09632 0.98534 0.72505 0.0
O162 O 0.07573 0.98303 0.72536 0.0
O163 O 0.10646 0.97951 0.70871 0.0
O164 O 0.06054 0.98593 0.67621 0.0
O165 O 0.08333 0.93642 0.67496 0.0
C166 C 0.06452 0.92944 0.67558 0.0
O167 O 0.04954 0.94141 0.68339 0.0
O168 O 0.11202 0.97555 0.65351 0.0
Mg169 Mg 0.2913 0.33749 0.93662 0.0
C170 C 0.26705 0.29858 0.94832 0.0
O171 O 0.27132 0.30633 0.96708 0.0
C172 C 0.30253 0.37327 0.90803 0.0
O173 O 0.31912 0.37235 0.92044 0.0
C174 C 0.2852 0.37102 0.97135 0.0
O175 O 0.29688 0.38253 0.95867 0.0
O176 O 0.28164 0.35183 0.96658 0.0
O177 O 0.27264 0.30891 0.93202 0.0
O178 O 0.32382 0.32706 0.9334 0.0
C179 C 0.32632 0.31419 0.91814 0.0
O180 O 0.3096 0.30798 0.90757 0.0
O181 O 0.28743 0.36036 0.91113 0.0
Mg182 Mg 0.91978 0.5456 0.18493 0.0
C183 C 0.95741 0.51957 0.19667 0.0
O184 O 0.94797 0.52154 0.21502 0.0
C185 C 0.88398 0.55685 0.15656 0.0
O186 O 0.88438 0.5728 0.16981 0.0
C187 C 0.88545 0.53546 0.21783 0.0
O188 O 0.87332 0.54479 0.20386 0.0
O189 O 0.90524 0.53484 0.21459 0.0
O190 O 0.94873 0.52748 0.18035 0.0
O191 O 0.92888 0.57865 0.18172 0.0
C192 C 0.9481 0.58421 0.18003 0.0
O193 O 0.96298 0.5705 0.18448 0.0
O194 O 0.8972 0.5419 0.15909 0.0
Mg195 Mg 0.71589 0.1758 0.44008 0.0
C196 C 0.72409 0.2215 0.44697 0.0
O197 O 0.70593 0.21863 0.45653 0.0
C198 C 0.70982 0.13889 0.41231 0.0
O199 O 0.69701 0.13495 0.42814 0.0
C200 C 0.73424 0.16734 0.48372 0.0
O201 O 0.7365 0.18794 0.48301 0.0
O202 O 0.72472 0.15817 0.46858 0.0
O203 O 0.73312 0.20566 0.43853 0.0
O204 O 0.68309 0.18454 0.43466 0.0
C205 C 0.68154 0.19568 0.41793 0.0
O206 O 0.69888 0.20044 0.40762 0.0
O207 O 0.72145 0.15526 0.41319 0.0
Mg208 Mg 0.32638 0.08435 0.04551 0.0
C209 C 0.3121 0.04407 0.02492 0.0
O210 O 0.29401 0.05139 0.03183 0.0
C211 C 0.35306 0.12244 0.05034 0.0
O212 O 0.33663 0.12706 0.06209 0.0
C213 C 0.29323 0.10051 0.01642 0.0
O214 O 0.30456 0.08831 1.00409 0.0
O215 O 0.29821 0.10189 0.03588 0.0
O216 O 0.32876 0.05486 0.02791 0.0
O217 O 0.33054 0.07648 0.07882 0.0
C218 C 0.33229 0.05737 0.08487 0.0
O219 O 0.32758 0.04216 0.07161 0.0
O220 O 0.35302 0.10516 0.04007 0.0
Mg221 Mg 0.82427 0.92169 0.4713 0.0
C222 C 0.81083 0.96183 0.49073 0.0
O223 O 0.79367 0.95502 0.4813 0.0
C224 C 0.8531 0.88672 0.4597 0.0
O225 O 0.84048 0.8879 0.44327 0.0
C226 C 0.79151 0.88656 0.47894 0.0
O227 O 0.80532 0.87516 0.46856 0.0
O228 O 0.79473 0.9063 0.48092 0.0
O229 O 0.82726 0.95033 0.49021 0.0
O230 O 0.82848 0.93308 0.43901 0.0
C231 C 0.84521 0.94418 0.43775 0.0
O232 O 0.85602 0.9476 0.45514 0.0
O233 O 0.85014 0.89932 0.4751 0.0
Mg234 Mg 0.33594 0.07771 0.72221 0.0
C235 C 0.29064 0.06967 0.72942 0.0
O236 O 0.29496 0.05849 0.7125 0.0
C237 C 0.3738 0.10413 0.71697 0.0
O238 O 0.37751 0.08797 0.70453 0.0
C239 C 0.34314 0.03457 0.74219 0.0
O240 O 0.32276 0.03634 0.74529 0.0
O241 O 0.35261 0.04888 0.7317 0.0
O242 O 0.3055 0.07992 0.73825 0.0
O243 O 0.32837 0.08275 0.68901 0.0
C244 C 0.317 0.09919 0.68684 0.0
O245 O 0.31122 0.10946 0.70391 0.0
O246 O 0.35706 0.10405 0.72808 0.0
Mg247 Mg 0.18408 0.5805 0.96152 0.0
C248 C 0.19124 0.53486 0.96974 0.0
O249 O 0.20012 0.53742 0.95117 0.0
C250 C 0.1565 0.61913 0.96239 0.0
O251 O 0.17446 0.62783 0.95684 0.0
C252 C 0.2249 0.5929 0.98371 0.0
O253 O 0.22402 0.57311 0.98986 0.0
O254 O 0.2112 0.59965 0.97065 0.0
O255 O 0.18318 0.55083 0.97887 0.0
O256 O 0.18046 0.57139 0.92865 0.0
C257 C 0.1771 0.5846 0.91394 0.0
O258 O 0.17964 0.6048 0.91776 0.0
O259 O 0.1561 0.59953 0.96685 0.0
Mg260 Mg 0.17214 0.93224 0.21963 0.0
C261 C 0.21794 0.93883 0.22589 0.0
O262 O 0.21414 0.9481 0.2077 0.0
C263 C 0.13399 0.9056 0.21535 0.0
O264 O 0.12976 0.92169 0.20294 0.0
C265 C 0.16554 0.97623 0.23754 0.0
O266 O 0.18612 0.9749 0.23928 0.0
O267 O 0.15563 0.96132 0.22843 0.0
O268 O 0.20257 0.93057 0.23589 0.0
O269 O 0.1804 0.92628 0.18674 0.0
C270 C 0.1903 0.90881 0.18566 0.0
O271 O 0.19357 0.89826 0.20325 0.0
O272 O 0.15101 0.90591 0.22605 0.0
Mg273 Mg 0.68852 0.92158 0.04337 0.0
C274 C 0.7009 0.9578 0.01484 0.0
O275 O 0.71898 0.94772 0.01554 0.0
C276 C 0.659 0.88704 0.0551 0.0
O277 O 0.67189 0.88742 0.07136 0.0
C278 C 0.71986 0.88612 0.03368 0.0
O279 O 0.70439 0.87451 0.04108 0.0
O280 O 0.7181 0.90612 0.03419 0.0
O281 O 0.68497 0.94984 0.02406 0.0
O282 O 0.68439 0.93301 0.07558 0.0
C283 C 0.66882 0.94567 0.07686 0.0
O284 O 0.65888 0.95087 0.05941 0.0
O285 O 0.6623 0.89968 0.03979 0.0
Mg286 Mg 0.33353 0.43584 0.7944 0.0
C287 C 0.29367 0.44983 0.77431 0.0
O288 O 0.30133 0.4674 0.78224 0.0
C289 C 0.36735 0.40647 0.8077 0.0
O290 O 0.36702 0.42045 0.82301 0.0
C291 C 0.37004 0.46596 0.78387 0.0
O292 O 0.38097 0.45129 0.79358 0.0
O293 O 0.35005 0.46421 0.78308 0.0
O294 O 0.30442 0.43298 0.77611 0.0
O295 O 0.32402 0.43403 0.82746 0.0
C296 C 0.30886 0.42129 0.831 0.0
O297 O 0.29876 0.41321 0.8148 0.0
O298 O 0.35469 0.40875 0.7922 0.0
Mg299 Mg 0.67372 0.07807 0.29735 0.0
C300 C 0.71735 0.06588 0.286 0.0
O301 O 0.71274 0.05267 0.30134 0.0
C302 C 0.63716 0.10611 0.30306 0.0
O303 O 0.63236 0.08967 0.3148 0.0
C304 C 0.66045 0.03781 0.27444 0.0
O305 O 0.6797 0.03944 0.267 0.0
O306 O 0.65431 0.05089 0.28841 0.0
O307 O 0.70329 0.07882 0.27982 0.0
O308 O 0.68272 0.08195 0.33034 0.0
C309 C 0.69602 0.09686 0.33269 0.0
O310 O 0.70318 0.10645 0.31574 0.0
O311 O 0.65415 0.10568 0.29236 0.0
Mg312 Mg 0.04869 0.83073 0.58433 0.0
C313 C 0.0385 0.82065 0.53963 0.0
O314 O 0.05562 0.80952 0.54314 0.0
C315 C 0.04016 0.85922 0.62269 0.0
O316 O 0.03189 0.84211 0.63099 0.0
C317 C 0.02773 0.78935 0.59851 0.0
O318 O 0.02114 0.7892 0.57883 0.0
O319 O 0.04023 0.80391 0.60447 0.0
O320 O 0.0307 0.83126 0.55482 0.0
O321 O 0.08157 0.83404 0.57507 0.0
C322 C 0.08416 0.84883 0.56166 0.0
O323 O 0.06741 0.85843 0.55411 0.0
O324 O 0.04609 0.85908 0.60348 0.0
Mg325 Mg 0.94381 0.79685 0.8375 0.0
C326 C 0.95667 0.77015 0.80029 0.0
O327 O 0.97512 0.77308 0.80926 0.0
C328 C 0.914 0.80901 0.87156 0.0
O329 O 0.92698 0.82518 0.87118 0.0
C330 C 0.97451 0.78837 0.87401 0.0
O331 O 0.95989 0.79838 0.88469 0.0
O332 O 0.97267 0.78694 0.85402 0.0
O333 O 0.94029 0.77751 0.80921 0.0
O334 O 0.93979 0.8291 0.82607 0.0
C335 C 0.92295 0.83029 0.81513 0.0
O336 O 0.91229 0.81285 0.81165 0.0
O337 O 0.91724 0.79365 0.859 0.0
Mg338 Mg 0.96248 0.68502 0.08927 0.0
C339 C 0.99985 0.68644 0.05817 0.0
O340 O 0.00951 0.69584 0.07393 0.0
C341 C 0.97147 0.65502 0.12732 0.0
O342 O 0.98692 0.66797 0.13212 0.0
C343 C 0.98054 0.72923 0.09817 0.0
O344 O 0.97771 0.73145 0.07772 0.0
O345 O 0.97455 0.7122 0.10701 0.0
O346 O 0.98126 0.67947 0.0609 0.0
O347 O 0.92992 0.68585 0.07824 0.0
C348 C 0.92568 0.6839 0.05865 0.0
O349 O 0.94088 0.68636 0.04478 0.0
O350 O 0.96075 0.65808 0.11061 0.0
Mg351 Mg 0.07338 0.71584 0.34005 0.0
C352 C 0.0621 0.73599 0.30008 0.0
O353 O 0.04506 0.72579 0.30605 0.0
C354 C 0.09886 0.69845 0.37459 0.0
O355 O 0.08443 0.68405 0.37083 0.0
C356 C 0.03999 0.72405 0.37452 0.0
O357 O 0.05359 0.71388 0.3864 0.0
O358 O 0.04365 0.72586 0.35481 0.0
O359 O 0.07803 0.73591 0.31232 0.0
O360 O 0.07591 0.68412 0.32696 0.0
C361 C 0.09183 0.68249 0.31478 0.0
O362 O 0.10272 0.69959 0.31047 0.0
O363 O 0.09845 0.71546 0.36381 0.0
Mg364 Mg 0.04126 0.18121 0.42751 0.0
C365 C 0.01171 0.19226 0.46283 0.0
O366 O 0.01307 0.21051 0.45307 0.0
C367 C 0.05357 0.15382 0.39107 0.0
O368 O 0.07012 0.16614 0.39287 0.0
C369 C 0.03565 0.21593 0.39387 0.0
O370 O 0.04577 0.20226 0.38208 0.0
O371 O 0.03312 0.2119 0.41342 0.0
O372 O 0.021 0.17634 0.45493 0.0
O373 O 0.0723 0.17586 0.44109 0.0
C374 C 0.0903 0.18289 0.43584 0.0
O375 O 0.09174 0.19714 0.42082 0.0
O376 O 0.03811 0.15651 0.40363 0.0
Mg377 Mg 0.57707 0.7963 0.68004 0.0
C378 C 0.56888 0.78769 0.7255 0.0
O379 O 0.55909 0.80572 0.72254 0.0
C380 C 0.6048 0.80083 0.64296 0.0
O381 O 0.58878 0.81311 0.63825 0.0
C382 C 0.53589 0.77492 0.66694 0.0
O383 O 0.53721 0.76723 0.68618 0.0
O384 O 0.54943 0.7885 0.66093 0.0
O385 O 0.57776 0.77889 0.70978 0.0
O386 O 0.58249 0.82912 0.68858 0.0
C387 C 0.59873 0.83097 0.70031 0.0
O388 O 0.60875 0.81375 0.70607 0.0
O389 O 0.60416 0.79022 0.66005 0.0
Mg390 Mg 0.96654 0.32824 0.92825 0.0
C391 C 0.97363 0.32145 0.97416 0.0
O392 O 0.95582 0.31146 0.97066 0.0
C393 C 0.96064 0.35531 0.89072 0.0
O394 O 0.94844 0.33904 0.8867 0.0
C395 C 0.98591 0.28506 0.92044 0.0
O396 O 0.98863 0.28634 0.94097 0.0
O397 O 0.97577 0.29968 0.91108 0.0
O398 O 0.98299 0.33016 0.95861 0.0
O399 O 0.93362 0.3335 0.93635 0.0
C400 C 0.93204 0.35036 0.94721 0.0
O401 O 0.94938 0.36066 0.95199 0.0
O402 O 0.97195 0.35497 0.90737 0.0
Mg403 Mg 0.43114 0.71592 0.17511 0.0
C404 C 0.44434 0.73281 0.21712 0.0
O405 O 0.46044 0.72068 0.21234 0.0
C406 C 0.4034 0.70782 0.13853 0.0
O407 O 0.42004 0.69622 0.1343 0.0
C408 C 0.469 0.74146 0.16062 0.0
O409 O 0.46372 0.75227 0.17749 0.0
O410 O 0.45867 0.72482 0.1561 0.0
O411 O 0.42924 0.73456 0.204 0.0
O412 O 0.42839 0.68298 0.18459 0.0
C413 C 0.41564 0.67973 0.1998 0.0
O414 O 0.40743 0.69609 0.2095 0.0
O415 O 0.40366 0.71938 0.15498 0.0
Mg416 Mg 0.08498 0.55088 0.82152 0.0
C417 C 0.05479 0.51237 0.81978 0.0
O418 O 0.07057 0.50274 0.81044 0.0
C419 C 0.12285 0.56358 0.84399 0.0
O420 O 0.12162 0.57637 0.82768 0.0
C421 C 0.09134 0.53444 0.77623 0.0
O422 O 0.07063 0.53495 0.77581 0.0
O423 O 0.10091 0.54181 0.79228 0.0
O424 O 0.05728 0.5311 0.82645 0.0
O425 O 0.0735 0.58305 0.82579 0.0
C426 C 0.06084 0.58439 0.84137 0.0
O427 O 0.0552 0.56692 0.85104 0.0
O428 O 0.10897 0.54918 0.84596 0.0
Mg429 Mg 0.21468 0.82903 0.07998 0.0
C430 C 0.23207 0.78754 0.06624 0.0
O431 O 0.22086 0.79297 0.04964 0.0
C432 C 0.21286 0.86808 0.10723 0.0
O433 O 0.2077 0.87651 0.08897 0.0
C434 C 0.24091 0.84414 0.04302 0.0
O435 O 0.2522 0.82794 0.04929 0.0
O436 O 0.22357 0.84805 0.05239 0.0
O437 O 0.23311 0.8001 0.08187 0.0
O438 O 0.18229 0.81814 0.08302 0.0
C439 C 0.16728 0.831 0.08616 0.0
O440 O 0.17068 0.85125 0.08332 0.0
O441 O 0.2182 0.84871 0.10787 0.0
Mg442 Mg 0.92455 0.96647 0.33112 0.0
C443 C 0.96962 0.97469 0.32279 0.0
O444 O 0.96563 0.95758 0.31177 0.0
C445 C 0.88552 0.96524 0.35862 0.0
O446 O 0.87704 0.95969 0.34051 0.0
C447 C 0.91672 0.98675 0.28815 0.0
O448 O 0.93739 0.98767 0.28867 0.0
O449 O 0.9071 0.97747 0.30318 0.0
O450 O 0.95466 0.98311 0.33322 0.0
O451 O 0.93429 0.93357 0.33334 0.0
C452 C 0.92188 0.91845 0.33769 0.0
O453 O 0.90145 0.92171 0.33716 0.0
O454 O 0.90491 0.97049 0.35908 0.0
Mg455 Mg 0.79908 0.67151 0.57702 0.0
C456 C 0.78962 0.71678 0.57223 0.0
O457 O 0.80665 0.71382 0.56081 0.0
C458 C 0.81201 0.63408 0.60013 0.0
O459 O 0.82368 0.63456 0.58299 0.0
C460 C 0.77745 0.66539 0.53445 0.0
O461 O 0.77449 0.68576 0.5368 0.0
O462 O 0.78857 0.65561 0.54806 0.0
O463 O 0.78134 0.70089 0.58142 0.0
O464 O 0.83176 0.68176 0.58042 0.0
C465 C 0.83371 0.69209 0.5976 0.0
O466 O 0.81684 0.69511 0.60924 0.0
O467 O 0.79782 0.64814 0.60235 0.0
Mg468 Mg 0.08342 0.46825 0.18364 0.0
C469 C 0.04017 0.48105 0.19486 0.0
O470 O 0.04399 0.46511 0.20759 0.0
C471 C 0.12222 0.46542 0.15656 0.0
O472 O 0.13002 0.45941 0.17483 0.0
C473 C 0.09715 0.48902 0.22529 0.0
O474 O 0.07777 0.49628 0.22483 0.0
O475 O 0.10306 0.47617 0.21101 0.0
O476 O 0.05472 0.48715 0.18242 0.0
O477 O 0.07187 0.43607 0.18054 0.0
C478 C 0.0839 0.4202 0.17848 0.0
O479 O 0.1042 0.42245 0.18186 0.0
O480 O 0.10312 0.4716 0.15571 0.0
Mg481 Mg 0.29837 0.84091 0.43155 0.0
C482 C 0.26144 0.80946 0.43312 0.0
O483 O 0.25136 0.82553 0.44145 0.0
C484 C 0.29034 0.8802 0.40347 0.0
O485 O 0.27849 0.88688 0.41909 0.0
C486 C 0.2808 0.84958 0.4759 0.0
O487 O 0.28294 0.82904 0.47778 0.0
O488 O 0.28701 0.85852 0.459 0.0
O489 O 0.2803 0.81199 0.42687 0.0
O490 O 0.33123 0.83129 0.43128 0.0
C491 C 0.33639 0.81194 0.42976 0.0
O492 O 0.32217 0.79735 0.43355 0.0
O493 O 0.2985 0.86188 0.40433 0.0
Mg494 Mg 0.92644 0.04442 0.68515 0.0
C495 C 0.97237 0.03729 0.68922 0.0
O496 O 0.96915 0.05415 0.70084 0.0
C497 C 0.8859 0.04505 0.659 0.0
O498 O 0.8777 0.05059 0.67721 0.0
C499 C 0.89754 0.03872 0.72517 0.0
O500 O 0.8901 0.05756 0.72079 0.0
O501 O 0.91223 0.03108 0.71382 0.0
O502 O 0.95661 0.02854 0.68033 0.0
O503 O 0.93574 0.07754 0.68358 0.0
C504 C 0.92331 0.09234 0.67828 0.0
O505 O 0.90296 0.08864 0.6776 0.0
O506 O 0.90541 0.04032 0.65812 0.0
Mg507 Mg 0.71891 0.67868 0.93028 0.0
C508 C 0.75544 0.71064 0.93197 0.0
O509 O 0.76601 0.69448 0.93953 0.0
C510 C 0.71598 0.63862 0.90404 0.0
O511 O 0.70996 0.63083 0.92231 0.0
C512 C 0.73594 0.672 0.97514 0.0
O513 O 0.73414 0.69265 0.9757 0.0
O514 O 0.72956 0.66216 0.95881 0.0
O515 O 0.73641 0.70803 0.92628 0.0
O516 O 0.68639 0.68935 0.92859 0.0
C517 C 0.67074 0.67694 0.92695 0.0
O518 O 0.67357 0.65665 0.93007 0.0
O519 O 0.72191 0.65782 0.90307 0.0
Mg520 Mg 0.32491 0.59307 0.54559 0.0
C521 C 0.31266 0.55509 0.52178 0.0
O522 O 0.29468 0.5625 0.5289 0.0
C523 C 0.3501 0.62711 0.56388 0.0
O524 O 0.33473 0.62375 0.5774 0.0
C525 C 0.29471 0.62894 0.53356 0.0
O526 O 0.31038 0.64027 0.54096 0.0
O527 O 0.29582 0.60889 0.53482 0.0
O528 O 0.3294 0.56565 0.52516 0.0
O529 O 0.32694 0.57936 0.57729 0.0
C530 C 0.34242 0.56659 0.57883 0.0
O531 O 0.35317 0.56212 0.56168 0.0
O532 O 0.35049 0.61622 0.54695 0.0
Mg533 Mg 0.82604 0.43062 0.96835 0.0
C534 C 0.8145 0.47458 0.97946 0.0
O535 O 0.80154 0.47022 0.96385 0.0
C536 C 0.85369 0.39375 0.96275 0.0
O537 O 0.83694 0.38873 0.95159 0.0
C538 C 0.78527 0.41678 0.99048 0.0
O539 O 0.78595 0.4362 0.99769 0.0
O540 O 0.79901 0.41091 0.97706 0.0
O541 O 0.82697 0.46023 0.98593 0.0
O542 O 0.83013 0.43943 0.93534 0.0
C543 C 0.84544 0.45226 0.93295 0.0
O544 O 0.85513 0.45927 0.9499 0.0
O545 O 0.85358 0.41096 0.97313 0.0
Mg546 Mg 0.33724 0.57132 0.22263 0.0
C547 C 0.29893 0.55909 0.24772 0.0
O548 O 0.30738 0.54046 0.24443 0.0
C549 C 0.37168 0.60081 0.21036 0.0
O550 O 0.37142 0.58757 0.19441 0.0
C551 C 0.37224 0.53856 0.23107 0.0
O552 O 0.38371 0.55177 0.21995 0.0
O553 O 0.35266 0.54226 0.23339 0.0
O554 O 0.3086 0.57544 0.24123 0.0
O555 O 0.32682 0.57363 0.18989 0.0
C556 C 0.31338 0.58834 0.18722 0.0
O557 O 0.3066 0.59862 0.20389 0.0
O558 O 0.35895 0.59781 0.22564 0.0
Mg559 Mg 0.18767 0.09504 0.46643 0.0
C560 C 0.19998 0.05196 0.479 0.0
O561 O 0.21338 0.0568 0.46392 0.0
C562 C 0.16304 0.13342 0.45941 0.0
O563 O 0.18085 0.1368 0.44937 0.0
C564 C 0.2283 0.10751 0.48906 0.0
O565 O 0.22541 0.0889 0.49773 0.0
O566 O 0.21576 0.11356 0.47455 0.0
O567 O 0.18654 0.06575 0.48469 0.0
O568 O 0.18351 0.08523 0.4337 0.0
C569 C 0.16962 0.07084 0.43156 0.0
O570 O 0.16105 0.06273 0.44862 0.0
O571 O 0.16106 0.1164 0.46999 0.0
Mg572 Mg 0.16881 0.43921 0.7192 0.0
C573 C 0.21008 0.45162 0.73727 0.0
O574 O 0.20432 0.46849 0.72665 0.0
C575 C 0.13345 0.41032 0.70854 0.0
O576 O 0.13451 0.42252 0.69178 0.0
C577 C 0.13474 0.47357 0.72426 0.0
O578 O 0.1233 0.46012 0.71343 0.0
O579 O 0.15408 0.46938 0.72767 0.0
O580 O 0.19752 0.43597 0.73802 0.0
O581 O 0.17929 0.43453 0.68675 0.0
C582 C 0.19194 0.419 0.6851 0.0
O583 O 0.19792 0.40924 0.70242 0.0
O584 O 0.14618 0.41365 0.72377 0.0
Mg585 Mg 0.68651 0.42167 0.54809 0.0
C586 C 0.69944 0.46059 0.52507 0.0
O587 O 0.71768 0.45209 0.52996 0.0
C588 C 0.65785 0.38607 0.55855 0.0
O589 O 0.67074 0.38644 0.5748 0.0
C590 C 0.72043 0.38743 0.54026 0.0
O591 O 0.70736 0.37552 0.55106 0.0
O592 O 0.71623 0.40695 0.53796 0.0
O593 O 0.68263 0.4508 0.53004 0.0
O594 O 0.68225 0.43063 0.58107 0.0
C595 C 0.68129 0.44982 0.58696 0.0
O596 O 0.68731 0.46476 0.5739 0.0
O597 O 0.66073 0.39927 0.5436 0.0
Mg598 Mg 0.33795 0.9368 0.29204 0.0
C599 C 0.30374 0.9379 0.25749 0.0
O600 O 0.31929 0.94464 0.24555 0.0
C601 C 0.37586 0.90983 0.29697 0.0
O602 O 0.38051 0.92618 0.30885 0.0
C603 C 0.34506 0.98137 0.27391 0.0
O604 O 0.3244 0.98225 0.27504 0.0
O605 O 0.35449 0.96512 0.28104 0.0
O606 O 0.30743 0.93313 0.27663 0.0
O607 O 0.33167 0.93336 0.32564 0.0
C608 C 0.31293 0.93346 0.33283 0.0
O609 O 0.29751 0.9401 0.32068 0.0
O610 O 0.35868 0.91007 0.28652 0.0
Mg611 Mg 0.67365 0.57468 0.79241 0.0
C612 C 0.71443 0.56297 0.77358 0.0
O613 O 0.70847 0.54573 0.78348 0.0
C614 C 0.63793 0.60231 0.80405 0.0
O615 O 0.63957 0.58969 0.82046 0.0
C616 C 0.63978 0.54059 0.78482 0.0
O617 O 0.62802 0.55361 0.7958 0.0
O618 O 0.6593 0.54472 0.78252 0.0
O619 O 0.70209 0.57879 0.77352 0.0
O620 O 0.68489 0.57932 0.82471 0.0
C621 C 0.69559 0.59633 0.82578 0.0
O622 O 0.69873 0.60706 0.80828 0.0
O623 O 0.65052 0.59977 0.78859 0.0
Mg624 Mg 0.54493 0.32205 0.59226 0.0
C625 C 0.51826 0.31025 0.55471 0.0
O626 O 0.52116 0.29157 0.56326 0.0
C627 C 0.55597 0.35081 0.62773 0.0
O628 O 0.57276 0.33874 0.62656 0.0
C629 C 0.53933 0.28772 0.62643 0.0
O630 O 0.55159 0.30027 0.63745 0.0
O631 O 0.53538 0.29231 0.60725 0.0
O632 O 0.52574 0.32641 0.56395 0.0
O633 O 0.57765 0.32594 0.58232 0.0
C634 C 0.58055 0.33901 0.56726 0.0
O635 O 0.564 0.34685 0.55756 0.0
O636 O 0.54073 0.34743 0.61504 0.0
Mg637 Mg 0.43632 0.29598 0.84349 0.0
C638 C 0.44722 0.28731 0.79859 0.0
O639 O 0.45672 0.30543 0.80197 0.0
C640 C 0.40717 0.29991 0.87926 0.0
O641 O 0.42311 0.31201 0.88468 0.0
C642 C 0.47833 0.27694 0.85765 0.0
O643 O 0.47893 0.27113 0.83774 0.0
O644 O 0.46327 0.28866 0.86387 0.0
O645 O 0.43749 0.27852 0.81384 0.0
O646 O 0.43005 0.32866 0.83476 0.0
C647 C 0.41499 0.33015 0.82148 0.0
O648 O 0.4066 0.3127 0.81404 0.0
O649 O 0.40846 0.28935 0.8622 0.0
Mg650 Mg 0.46575 0.18434 0.08871 0.0
C651 C 0.50329 0.1876 0.05771 0.0
O652 O 0.51225 0.19808 0.0732 0.0
C653 C 0.45221 0.16238 0.1267 0.0
O654 O 0.44054 0.17948 0.12562 0.0
C655 C 0.48075 0.23025 0.09525 0.0
O656 O 0.47903 0.23121 0.07458 0.0
O657 O 0.47496 0.21352 0.10475 0.0
O658 O 0.48525 0.17939 0.06065 0.0
O659 O 0.43355 0.18129 0.0771 0.0
C660 C 0.43162 0.16584 0.06436 0.0
O661 O 0.44867 0.15551 0.05876 0.0
O662 O 0.46638 0.15965 0.11271 0.0
Mg663 Mg 0.57464 0.21961 0.33914 0.0
C664 C 0.56154 0.23141 0.29576 0.0
O665 O 0.54826 0.21626 0.30066 0.0
C666 C 0.6028 0.21314 0.37562 0.0
O667 O 0.58607 0.20194 0.38057 0.0
C668 C 0.53426 0.24171 0.35339 0.0
O669 O 0.53569 0.24996 0.3344 0.0
O670 O 0.54754 0.2277 0.35896 0.0
O671 O 0.57487 0.23737 0.30956 0.0
O672 O 0.57873 0.18689 0.32972 0.0
C673 C 0.59398 0.18497 0.31676 0.0
O674 O 0.60351 0.20216 0.31014 0.0
O675 O 0.60247 0.22399 0.35866 0.0
Mg676 Mg 0.54509 0.68512 0.42668 0.0
C677 C 0.52899 0.69888 0.4689 0.0
O678 O 0.54178 0.71454 0.46428 0.0
C679 C 0.5521 0.65645 0.39053 0.0
O680 O 0.56404 0.67271 0.3857 0.0
C681 C 0.52098 0.72405 0.41218 0.0
O682 O 0.51101 0.72029 0.42996 0.0
O683 O 0.53664 0.7125 0.4072 0.0
O684 O 0.52658 0.68399 0.45566 0.0
O685 O 0.57792 0.68131 0.43595 0.0
C686 C 0.58072 0.66819 0.45097 0.0
O687 O 0.56409 0.66046 0.46063 0.0
O688 O 0.54075 0.65738 0.4071 0.0
Mg689 Mg 0.07424 0.29657 0.67446 0.0
C690 C 0.06171 0.27448 0.71334 0.0
O691 O 0.0439 0.28189 0.70574 0.0
C692 C 0.10534 0.28531 0.63724 0.0
O693 O 0.09453 0.26787 0.63433 0.0
C694 C 0.04249 0.28683 0.63897 0.0
O695 O 0.05578 0.29802 0.62764 0.0
O696 O 0.04573 0.28494 0.65872 0.0
O697 O 0.07853 0.27734 0.70277 0.0
O698 O 0.07475 0.32923 0.68529 0.0
C699 C 0.08678 0.33281 0.70103 0.0
O700 O 0.09494 0.31666 0.71116 0.0
O701 O 0.10059 0.29759 0.65238 0.0
Mg702 Mg 0.4688 0.82311 0.92188 0.0
C703 C 0.4955 0.81031 0.95904 0.0
O704 O 0.49223 0.7918 0.95029 0.0
C705 C 0.45715 0.85231 0.88686 0.0
O706 O 0.44059 0.83988 0.88784 0.0
C707 C 0.47526 0.78953 0.88729 0.0
O708 O 0.4657 0.80356 0.87539 0.0
O709 O 0.47729 0.79313 0.90696 0.0
O710 O 0.48842 0.82675 0.94993 0.0
O711 O 0.43676 0.82714 0.93348 0.0
C712 C 0.43523 0.84257 0.94629 0.0
O713 O 0.45247 0.85274 0.95164 0.0
O714 O 0.47253 0.84889 0.89936 0.0
Mg715 Mg 0.93644 0.2196 0.17731 0.0
C716 C 0.94829 0.24905 0.21318 0.0
O717 O 0.96572 0.25026 0.20205 0.0
C718 C 0.90671 0.20904 0.14257 0.0
O719 O 0.91908 0.19243 0.14298 0.0
C720 C 0.96948 0.22627 0.14213 0.0
O721 O 0.95593 0.21544 0.1308 0.0
O722 O 0.96586 0.22902 0.16172 0.0
O723 O 0.93297 0.2382 0.20611 0.0
O724 O 0.93277 0.18675 0.18696 0.0
C725 C 0.92014 0.18375 0.20233 0.0
O726 O 0.91261 0.20025 0.21234 0.0
O727 O 0.9103 0.22408 0.15543 0.0
Mg728 Mg 0.58766 0.04564 0.83114 0.0
C729 C 0.54484 0.03217 0.81867 0.0
O730 O 0.54879 0.04799 0.80582 0.0
C731 C 0.62633 0.04813 0.85846 0.0
O732 O 0.63406 0.05501 0.84048 0.0
C733 C 0.60205 0.02501 0.7898 0.0
O734 O 0.58306 0.01681 0.79078 0.0
O735 O 0.60753 0.03851 0.80366 0.0
O736 O 0.55911 0.02643 0.83161 0.0
O737 O 0.57557 0.07751 0.83546 0.0
C738 C 0.58731 0.09352 0.83824 0.0
O739 O 0.60766 0.0918 0.83485 0.0
O740 O 0.60734 0.04159 0.85901 0.0
Mg741 Mg 0.71496 0.34228 0.07982 0.0
C742 C 0.73003 0.29959 0.06901 0.0
O743 O 0.71572 0.30366 0.05455 0.0
C744 C 0.70113 0.37814 0.10449 0.0
O745 O 0.68981 0.37839 0.08708 0.0
C746 C 0.73872 0.35577 0.03974 0.0
O747 O 0.74752 0.33717 0.04222 0.0
O748 O 0.72399 0.36128 0.05224 0.0
O749 O 0.73425 0.31377 0.08263 0.0
O750 O 0.6824 0.33138 0.08168 0.0
C751 C 0.67945 0.31697 0.09543 0.0
O752 O 0.69593 0.30885 0.10502 0.0
O753 O 0.71533 0.36405 0.10643 0.0
Mg754 Mg 0.42325 0.466 0.33273 0.0
C755 C 0.45684 0.50079 0.32835 0.0
O756 O 0.44112 0.51165 0.32029 0.0
C757 C 0.38552 0.46113 0.35985 0.0
O758 O 0.38116 0.44869 0.34384 0.0
C759 C 0.41559 0.48119 0.28725 0.0
O760 O 0.43616 0.47916 0.28596 0.0
O761 O 0.40632 0.4755 0.30415 0.0
O762 O 0.45341 0.48227 0.33527 0.0
O763 O 0.43039 0.43283 0.33742 0.0
C764 C 0.44925 0.42599 0.33717 0.0
O765 O 0.4643 0.43806 0.32959 0.0
O766 O 0.40246 0.47193 0.35934 0.0
Mg767 Mg 0.29866 0.17868 0.57919 0.0
C768 C 0.28905 0.22405 0.57124 0.0
O769 O 0.30722 0.22173 0.56156 0.0
C770 C 0.30404 0.14183 0.60729 0.0
O771 O 0.31617 0.13709 0.59115 0.0
C772 C 0.2785 0.1663 0.53708 0.0
O773 O 0.27235 0.18608 0.53751 0.0
O774 O 0.29073 0.15959 0.55156 0.0
O775 O 0.28066 0.20803 0.58002 0.0
O776 O 0.33143 0.18748 0.58426 0.0
C777 C 0.33339 0.19926 0.60045 0.0
O778 O 0.31624 0.20516 0.61047 0.0
O779 O 0.29319 0.15872 0.60653 0.0
Mg780 Mg 0.58825 0.97035 0.18189 0.0
C781 C 0.54447 0.98161 0.19297 0.0
O782 O 0.54867 0.96561 0.20552 0.0
C783 C 0.62543 0.96366 0.15482 0.0
O784 O 0.62971 0.95228 0.17164 0.0
C785 C 0.60089 0.99109 0.22377 0.0
O786 O 0.58155 0.99839 0.22266 0.0
O787 O 0.60722 0.97818 0.20973 0.0
O788 O 0.55894 0.98837 0.18079 0.0
O789 O 0.57846 0.93772 0.17771 0.0
C790 C 0.56603 0.93577 0.16199 0.0
O791 O 0.56025 0.95289 0.15178 0.0
O792 O 0.60862 0.97465 0.15465 0.0
Mg793 Mg 0.79676 0.33753 0.44084 0.0
C794 C 0.76004 0.30558 0.44396 0.0
O795 O 0.74937 0.32184 0.45111 0.0
C796 C 0.80414 0.3745 0.41289 0.0
O797 O 0.81645 0.37878 0.42903 0.0
C798 C 0.78014 0.34546 0.48553 0.0
O799 O 0.78194 0.32483 0.48665 0.0
O800 O 0.78666 0.35489 0.46901 0.0
O801 O 0.77907 0.30812 0.43827 0.0
O802 O 0.82965 0.32821 0.43723 0.0
C803 C 0.83185 0.31515 0.42207 0.0
O804 O 0.81486 0.30838 0.41233 0.0
O805 O 0.79256 0.35808 0.41368 0.0
Mg806 Mg 0.42297 0.54114 0.6839 0.0
C807 C 0.46875 0.53392 0.69039 0.0
O808 O 0.46501 0.55121 0.70119 0.0
C809 C 0.38516 0.54807 0.65711 0.0
O810 O 0.38116 0.55977 0.67376 0.0
C811 C 0.41559 0.5208 0.72684 0.0
O812 O 0.43605 0.51807 0.72528 0.0
O813 O 0.4061 0.53113 0.71243 0.0
O814 O 0.45334 0.52479 0.68122 0.0
O815 O 0.43153 0.57424 0.6804 0.0
C816 C 0.44185 0.57658 0.66329 0.0
O817 O 0.44537 0.55983 0.65158 0.0
O818 O 0.40185 0.53687 0.65704 0.0
Mg819 Mg 0.21773 0.17222 0.92977 0.0
C820 C 0.23007 0.21521 0.94313 0.0
O821 O 0.21462 0.21042 0.95609 0.0
C822 C 0.22566 0.13533 0.89927 0.0
O823 O 0.2364 0.12733 0.91511 0.0
C824 C 0.23653 0.15664 0.97249 0.0
O825 O 0.23678 0.17672 0.97758 0.0
O826 O 0.22853 0.15104 0.95491 0.0
O827 O 0.23587 0.20156 0.92957 0.0
O828 O 0.18479 0.18177 0.92908 0.0
C829 C 0.18149 0.19642 0.91566 0.0
O830 O 0.19778 0.20496 0.90611 0.0
O831 O 0.21841 0.15401 0.90064 0.0
Mg832 Mg 0.82229 0.08602 0.54702 0.0
C833 C 0.80965 0.04529 0.52803 0.0
O834 O 0.79248 0.05145 0.53787 0.0
C835 C 0.85137 0.12087 0.5589 0.0
O836 O 0.83851 0.12013 0.57515 0.0
C837 C 0.78988 0.12127 0.53942 0.0
O838 O 0.80388 0.13238 0.54989 0.0
O839 O 0.79281 0.10151 0.53727 0.0
O840 O 0.82563 0.05742 0.52811 0.0
O841 O 0.82658 0.07473 0.57932 0.0
C842 C 0.84346 0.06386 0.58046 0.0
O843 O 0.8541 0.06051 0.56298 0.0
O844 O 0.84838 0.10819 0.54357 0.0
Mg845 Mg 0.32757 0.91917 0.9715 0.0
C846 C 0.31431 0.96214 0.98492 0.0
O847 O 0.30082 0.95802 0.9697 0.0
C848 C 0.35608 0.88321 0.96488 0.0
O849 O 0.33932 0.8781 0.95379 0.0
C850 C 0.28595 0.90453 0.99199 0.0
O851 O 0.28473 0.9244 0.9977 0.0
O852 O 0.30109 0.89869 0.98014 0.0
O853 O 0.32779 0.94816 0.98998 0.0
O854 O 0.33121 0.92856 0.93859 0.0
C855 C 0.34482 0.94313 0.93597 0.0
O856 O 0.35319 0.95197 0.95277 0.0
O857 O 0.35568 0.90014 0.97569 0.0
Mg858 Mg 0.83848 0.07746 0.22382 0.0
C859 C 0.80094 0.0644 0.24951 0.0
O860 O 0.80991 0.04602 0.24621 0.0
C861 C 0.87332 0.10641 0.2121 0.0
O862 O 0.87254 0.09342 0.19594 0.0
C863 C 0.87357 0.04509 0.23274 0.0
O864 O 0.88524 0.0594 0.22334 0.0
O865 O 0.85373 0.04792 0.23377 0.0
O866 O 0.81 0.08101 0.24277 0.0
O867 O 0.8283 0.0814 0.19106 0.0
C868 C 0.81351 0.09479 0.18848 0.0
O869 O 0.8043 0.10268 0.20528 0.0
O870 O 0.86067 0.10349 0.22747 0.0
Mg871 Mg 0.6868 0.586 0.47189 0.0
C872 C 0.69904 0.54428 0.4881 0.0
O873 O 0.7148 0.54979 0.47579 0.0
C874 C 0.65754 0.62054 0.46016 0.0
O875 O 0.67034 0.61969 0.44388 0.0
C876 C 0.71881 0.6214 0.48018 0.0
O877 O 0.704 0.63277 0.47121 0.0
O878 O 0.71641 0.60147 0.48128 0.0
O879 O 0.68395 0.55725 0.49066 0.0
O880 O 0.68282 0.57517 0.4394 0.0
C881 C 0.6673 0.5625 0.43761 0.0
O882 O 0.65725 0.55674 0.45482 0.0
O883 O 0.66062 0.60798 0.4756 0.0
Mg884 Mg 0.67756 0.93858 0.71884 0.0
C885 C 0.72258 0.94845 0.72727 0.0
O886 O 0.71879 0.95912 0.70986 0.0
C887 C 0.64106 0.91033 0.71437 0.0
O888 O 0.63595 0.92665 0.70261 0.0
C889 C 0.66367 0.97914 0.7409 0.0
O890 O 0.68282 0.97782 0.74872 0.0
O891 O 0.65794 0.96584 0.72696 0.0
O892 O 0.70748 0.93839 0.7359 0.0
O893 O 0.68601 0.93299 0.68595 0.0
C894 C 0.69819 0.91706 0.68443 0.0
O895 O 0.70436 0.90768 0.7019 0.0
O896 O 0.6582 0.91099 0.72484 0.0
Mg897 Mg 0.19094 0.92931 0.53934 0.0
C898 C 0.20347 0.96822 0.51548 0.0
O899 O 0.22201 0.96014 0.51997 0.0
C900 C 0.16192 0.89442 0.55111 0.0
O901 O 0.17504 0.8948 0.56717 0.0
C902 C 0.22365 0.89421 0.53124 0.0
O903 O 0.21045 0.8829 0.54251 0.0
O904 O 0.22006 0.91383 0.52877 0.0
O905 O 0.18698 0.95809 0.52078 0.0
O906 O 0.18779 0.93948 0.57211 0.0
C907 C 0.17282 0.9527 0.57442 0.0
O908 O 0.16302 0.95956 0.55746 0.0
O909 O 0.16474 0.90735 0.53594 0.0
Mg910 Mg 0.83888 0.43556 0.29714 0.0
C911 C 0.7934 0.44226 0.28907 0.0
O912 O 0.79706 0.45378 0.30594 0.0
C913 C 0.87617 0.40843 0.30458 0.0
O914 O 0.87991 0.42463 0.31697 0.0
C915 C 0.84486 0.47872 0.27672 0.0
O916 O 0.82425 0.4772 0.2756 0.0
O917 O 0.8551 0.46424 0.28621 0.0
O918 O 0.8087 0.43229 0.28072 0.0
O919 O 0.83077 0.43182 0.33042 0.0
C920 C 0.81947 0.41536 0.33289 0.0
O921 O 0.81423 0.40442 0.31605 0.0
O922 O 0.85993 0.40887 0.29273 0.0
Mg923 Mg 0.16938 0.07831 0.79186 0.0
C924 C 0.2055 0.06877 0.76235 0.0
O925 O 0.19429 0.0515 0.75993 0.0
C926 C 0.13349 0.10633 0.80313 0.0
O927 O 0.13392 0.09307 0.8191 0.0
C928 C 0.13553 0.04463 0.78224 0.0
O929 O 0.1231 0.05823 0.79167 0.0
O930 O 0.15524 0.04839 0.78148 0.0
O931 O 0.19832 0.08347 0.77396 0.0
O932 O 0.17892 0.08217 0.82466 0.0
C933 C 0.19824 0.08244 0.83012 0.0
O934 O 0.21261 0.07578 0.81678 0.0
O935 O 0.14662 0.10382 0.7881 0.0
Mg936 Mg 0.5435 0.82639 0.08631 0.0
C937 C 0.53246 0.81311 0.0426 0.0
O938 O 0.54771 0.79995 0.04746 0.0
C939 C 0.54962 0.85578 0.12171 0.0
O940 O 0.56071 0.83918 0.12733 0.0
C941 C 0.52163 0.78551 0.10076 0.0
O942 O 0.51644 0.78431 0.08071 0.0
O943 O 0.53369 0.80039 0.10685 0.0
O944 O 0.52639 0.82635 0.05642 0.0
O945 O 0.57677 0.8292 0.07845 0.0
C946 C 0.58025 0.84259 0.06382 0.0
O947 O 0.56405 0.85122 0.05419 0.0
O948 O 0.53903 0.85497 0.10462 0.0
Mg949 Mg 0.43452 0.7966 0.33769 0.0
C950 C 0.44502 0.77889 0.29574 0.0
O951 O 0.45972 0.79325 0.29846 0.0
C952 C 0.40563 0.78739 0.37608 0.0
O953 O 0.42002 0.7736 0.38175 0.0
C954 C 0.47506 0.77392 0.35154 0.0
O955 O 0.47404 0.76626 0.33231 0.0
O956 O 0.46159 0.78766 0.3573 0.0
O957 O 0.4315 0.77594 0.31029 0.0
O958 O 0.43283 0.82864 0.32525 0.0
C959 C 0.418 0.83069 0.31179 0.0
O960 O 0.40765 0.81372 0.3059 0.0
O961 O 0.40737 0.79707 0.35855 0.0
Mg962 Mg 0.46683 0.68673 0.59011 0.0
C963 C 0.48389 0.69969 0.54806 0.0
O964 O 0.47021 0.71485 0.55158 0.0
C965 C 0.46403 0.65761 0.62793 0.0
O966 O 0.45815 0.67523 0.63711 0.0
C967 C 0.48932 0.72653 0.60547 0.0
O968 O 0.49814 0.72488 0.58679 0.0
O969 O 0.47491 0.71348 0.61061 0.0
O970 O 0.48653 0.68547 0.56201 0.0
O971 O 0.43486 0.68384 0.5779 0.0
C972 C 0.41942 0.68008 0.5901 0.0
O973 O 0.42209 0.68205 0.61058 0.0
O974 O 0.46999 0.65811 0.60872 0.0
Mg975 Mg 0.57445 0.7133 0.83996 0.0
C976 C 0.57205 0.75134 0.80949 0.0
O977 O 0.56234 0.76062 0.82527 0.0
C978 C 0.59809 0.7003 0.87741 0.0
O979 O 0.58153 0.68784 0.87712 0.0
C980 C 0.52916 0.72906 0.84598 0.0
O981 O 0.52863 0.72719 0.82531 0.0
O982 O 0.54552 0.72298 0.8559 0.0
O983 O 0.57938 0.73286 0.81204 0.0
O984 O 0.57687 0.6807 0.82932 0.0
C985 C 0.58799 0.67755 0.81286 0.0
O986 O 0.59429 0.69392 0.80181 0.0
O987 O 0.59962 0.71456 0.86329 0.0
Mg988 Mg 0.54917 0.18619 0.92848 0.0
C989 C 0.53823 0.19282 0.97318 0.0
O990 O 0.55493 0.2047 0.97011 0.0
C991 C 0.56135 0.1631 0.89098 0.0
O992 O 0.57282 0.18038 0.89114 0.0
C993 C 0.52606 0.22705 0.91723 0.0
O994 O 0.51751 0.22373 0.93583 0.0
O995 O 0.54069 0.2148 0.91097 0.0
O996 O 0.53063 0.18278 0.95748 0.0
O997 O 0.58162 0.18248 0.93914 0.0
C998 C 0.58349 0.16595 0.95049 0.0
O999 O 0.56647 0.15489 0.9547 0.0
O1000 O 0.54763 0.16064 0.90548 0.0
Mg1001 Mg 0.07271 0.79282 0.1761 0.0
C1002 C 0.06181 0.77348 0.21656 0.0
O1003 O 0.04485 0.78385 0.2107 0.0
C1004 C 0.09794 0.80951 0.1411 0.0
O1005 O 0.08368 0.82407 0.1448 0.0
C1006 C 0.03934 0.78399 0.14169 0.0
O1007 O 0.05265 0.79463 0.1299 0.0
O1008 O 0.04308 0.78212 0.16139 0.0
O1009 O 0.07755 0.77316 0.2041 0.0
O1010 O 0.07524 0.82487 0.18861 0.0
C1011 C 0.09086 0.82683 0.20117 0.0
O1012 O 0.10159 0.80984 0.20625 0.0
O1013 O 0.09761 0.79272 0.15222 0.0
Mg1014 Mg 0.4643 0.32859 0.43007 0.0
C1015 C 0.47779 0.31538 0.47283 0.0
O1016 O 0.46243 0.30217 0.4684 0.0
C1017 C 0.47334 0.35692 0.39173 0.0
O1018 O 0.48266 0.34008 0.38409 0.0
C1019 C 0.48651 0.28835 0.41529 0.0
O1020 O 0.4944 0.28924 0.43445 0.0
O1021 O 0.47269 0.30186 0.40979 0.0
O1022 O 0.48309 0.32896 0.45898 0.0
O1023 O 0.4316 0.33155 0.4401 0.0
C1024 C 0.42896 0.3453 0.45455 0.0
O1025 O 0.44571 0.35401 0.46312 0.0
O1026 O 0.46654 0.35678 0.41065 0.0
Mg1027 Mg 0.94081 0.71845 0.67444 0.0
C1028 C 0.95348 0.7312 0.71762 0.0
O1029 O 0.96651 0.71567 0.71332 0.0
C1030 C 0.91287 0.71198 0.63765 0.0
O1031 O 0.9297 0.70106 0.63251 0.0
C1032 C 0.98058 0.74124 0.66002 0.0
O1033 O 0.97844 0.74981 0.67877 0.0
O1034 O 0.96798 0.72654 0.65458 0.0
O1035 O 0.94039 0.73697 0.7035 0.0
O1036 O 0.93623 0.68603 0.68505 0.0
C1037 C 0.91985 0.6849 0.69666 0.0
O1038 O 0.90969 0.70245 0.70097 0.0
O1039 O 0.91312 0.72262 0.65471 0.0
Mg1040 Mg 0.58785 0.54059 0.3307 0.0
C1041 C 0.54224 0.53301 0.32324 0.0
O1042 O 0.54573 0.55065 0.31288 0.0
C1043 C 0.62478 0.54679 0.35853 0.0
O1044 O 0.62924 0.55872 0.34213 0.0
C1045 C 0.59718 0.52422 0.28583 0.0
O1046 O 0.57661 0.52546 0.28379 0.0
O1047 O 0.60572 0.53064 0.30287 0.0
O1048 O 0.5577 0.52395 0.33236 0.0
O1049 O 0.57974 0.57375 0.33459 0.0
C1050 C 0.5682 0.57615 0.3509 0.0
O1051 O 0.56275 0.55929 0.36171 0.0
O1052 O 0.60803 0.53569 0.35807 0.0
Mg1053 Mg 0.71902 0.83391 0.58004 0.0
C1054 C 0.7552 0.80139 0.57688 0.0
O1055 O 0.766 0.81748 0.56947 0.0
C1056 C 0.71233 0.87163 0.60674 0.0
O1057 O 0.70021 0.87547 0.59034 0.0
C1058 C 0.7349 0.84198 0.53491 0.0
O1059 O 0.7338 0.8213 0.53385 0.0
O1060 O 0.72842 0.85118 0.55155 0.0
O1061 O 0.73628 0.80423 0.58275 0.0
O1062 O 0.68611 0.82508 0.58405 0.0
C1063 C 0.68384 0.81238 0.59952 0.0
O1064 O 0.70081 0.80561 0.60932 0.0
O1065 O 0.72361 0.85499 0.6067 0.0
Mg1066 Mg 0.42432 0.96774 0.82827 0.0
C1067 C 0.46236 0.99304 0.81574 0.0
O1068 O 0.45345 0.98996 0.79725 0.0
C1069 C 0.3903 0.95479 0.85796 0.0
O1070 O 0.39053 0.93911 0.8444 0.0
C1071 C 0.38838 0.97758 0.79723 0.0
O1072 O 0.37737 0.96698 0.81123 0.0
O1073 O 0.40823 0.97919 0.79974 0.0
O1074 O 0.45316 0.98619 0.83223 0.0
O1075 O 0.43375 0.93467 0.8296 0.0
C1076 C 0.44954 0.93072 0.84142 0.0
O1077 O 0.46035 0.9466 0.84917 0.0
O1078 O 0.40297 0.97017 0.85519 0.0
Mg1079 Mg 0.29079 0.66469 0.07817 0.0
C1080 C 0.27541 0.70745 0.06604 0.0
O1081 O 0.29006 0.70411 0.05177 0.0
C1082 C 0.29859 0.62835 0.10673 0.0
O1083 O 0.31116 0.62418 0.09078 0.0
C1084 C 0.26974 0.65157 0.03684 0.0
O1085 O 0.26115 0.67028 0.039 0.0
O1086 O 0.28348 0.64557 0.05025 0.0
O1087 O 0.27141 0.69306 0.0795 0.0
O1088 O 0.32303 0.67575 0.08216 0.0
C1089 C 0.32462 0.68924 0.097 0.0
O1090 O 0.30734 0.69544 0.10658 0.0
O1091 O 0.28675 0.64455 0.10565 0.0
Mg1092 Mg 0.58754 0.46628 0.68405 0.0
C1093 C 0.55443 0.502 0.68742 0.0
O1094 O 0.56943 0.51192 0.69773 0.0
C1095 C 0.62663 0.47431 0.65577 0.0
O1096 O 0.63306 0.48672 0.67108 0.0
C1097 C 0.5966 0.48279 0.72889 0.0
O1098 O 0.57642 0.47892 0.73151 0.0
O1099 O 0.60519 0.47811 0.71134 0.0
O1100 O 0.55829 0.48402 0.67945 0.0
O1101 O 0.57845 0.43312 0.68456 0.0
C1102 C 0.56175 0.42843 0.67438 0.0
O1103 O 0.54961 0.44379 0.66761 0.0
O1104 O 0.60845 0.46586 0.65678 0.0
Mg1105 Mg 0.79947 0.84055 0.93434 0.0
C1106 C 0.79039 0.79496 0.93786 0.0
O1107 O 0.80737 0.79767 0.94947 0.0
C1108 C 0.81233 0.87859 0.91225 0.0
O1109 O 0.82369 0.8779 0.92961 0.0
C1110 C 0.77817 0.84485 0.97723 0.0
O1111 O 0.77575 0.82448 0.97432 0.0
O1112 O 0.78873 0.85537 0.96374 0.0
O1113 O 0.78213 0.81105 0.92903 0.0
O1114 O 0.83244 0.83145 0.93131 0.0
C1115 C 0.83525 0.8204 0.91473 0.0
O1116 O 0.81876 0.81537 0.90322 0.0
O1117 O 0.79825 0.86448 0.90953 0.0
Mg1118 Mg 0.42451 0.04618 0.18464 0.0
C1119 C 0.46107 0.0186 0.19502 0.0
O1120 O 0.45207 0.0209 0.21356 0.0
C1121 C 0.38649 0.03545 0.15493 0.0
O1122 O 0.38371 0.01844 0.16648 0.0
C1123 C 0.38942 0.03782 0.21728 0.0
O1124 O 0.37844 0.05011 0.20468 0.0
O1125 O 0.40886 0.03479 0.21334 0.0
O1126 O 0.45225 0.0267 0.17887 0.0
O1127 O 0.43734 0.07795 0.18418 0.0
C1128 C 0.42527 0.0932 0.17935 0.0
O1129 O 0.40479 0.09005 0.17926 0.0
O1130 O 0.40197 0.04762 0.15872 0.0
Mg1131 Mg 0.21737 0.6794 0.43371 0.0
C1132 C 0.22495 0.72563 0.43748 0.0
O1133 O 0.20668 0.72322 0.44694 0.0
C1134 C 0.21636 0.63953 0.40725 0.0
O1135 O 0.21112 0.63134 0.42559 0.0
C1136 C 0.23819 0.67241 0.47644 0.0
O1137 O 0.24015 0.69298 0.47479 0.0
O1138 O 0.2281 0.66254 0.46212 0.0
O1139 O 0.23425 0.70935 0.43023 0.0
O1140 O 0.18435 0.68862 0.43092 0.0
C1141 C 0.16963 0.67554 0.4272 0.0
O1142 O 0.17348 0.65527 0.42902 0.0
O1143 O 0.22144 0.65897 0.40634 0.0
Mg1144 Mg 0.82441 0.59476 0.04358 0.0
C1145 C 0.81335 0.55811 0.01637 0.0
O1146 O 0.79484 0.56669 0.01989 0.0
C1147 C 0.85556 0.63206 0.03244 0.0
O1148 O 0.84629 0.63366 0.01394 0.0
C1149 C 0.79245 0.63003 0.03347 0.0
O1150 O 0.80574 0.64166 0.04434 0.0
O1151 O 0.79572 0.61027 0.03206 0.0
O1152 O 0.82974 0.56724 0.02349 0.0
O1153 O 0.82527 0.58284 0.07598 0.0
C1154 C 0.83759 0.56722 0.079 0.0
O1155 O 0.84587 0.55784 0.06248 0.0
O1156 O 0.84995 0.61766 0.04527 0.0
Mg1157 Mg 0.3228 0.42724 0.47428 0.0
C1158 C 0.31178 0.4704 0.48749 0.0
O1159 O 0.29624 0.46487 0.4749 0.0
C1160 C 0.35165 0.39194 0.46392 0.0
O1161 O 0.33865 0.39215 0.44776 0.0
C1162 C 0.28821 0.39328 0.48058 0.0
O1163 O 0.30007 0.38234 0.46761 0.0
O1164 O 0.29331 0.41227 0.48477 0.0
O1165 O 0.32614 0.45695 0.49145 0.0
O1166 O 0.32656 0.4365 0.44129 0.0
C1167 C 0.34222 0.4489 0.43899 0.0
O1168 O 0.35241 0.45513 0.45595 0.0
O1169 O 0.34887 0.40524 0.47876 0.0
Mg1170 Mg 0.83877 0.579 0.71941 0.0
C1171 C 0.79836 0.56542 0.7377 0.0
O1172 O 0.80595 0.54813 0.72917 0.0
C1173 C 0.87846 0.60611 0.71681 0.0
O1174 O 0.88674 0.58805 0.711 0.0
C1175 C 0.86927 0.53986 0.72386 0.0
O1176 O 0.87643 0.54476 0.70502 0.0
O1177 O 0.85434 0.55063 0.73185 0.0
O1178 O 0.80941 0.58217 0.73694 0.0
O1179 O 0.82756 0.58036 0.68689 0.0
C1180 C 0.83959 0.58434 0.67136 0.0
O1181 O 0.8601 0.58367 0.67412 0.0
O1182 O 0.85919 0.60663 0.72248 0.0
Mg1183 Mg 0.68989 0.08705 0.97157 0.0
C1184 C 0.69938 0.04218 0.97994 0.0
O1185 O 0.71075 0.04642 0.96312 0.0
C1186 C 0.66259 0.12447 0.9669 0.0
O1187 O 0.67907 0.12945 0.95537 0.0
C1188 C 0.73269 0.0961 0.99149 0.0
O1189 O 0.73209 0.07556 0.99419 0.0
O1190 O 0.71792 0.10494 0.98111 0.0
O1191 O 0.68854 0.05692 0.98821 0.0
O1192 O 0.68481 0.07835 0.93865 0.0
C1193 C 0.66799 0.06739 0.93733 0.0
O1194 O 0.65771 0.06307 0.95482 0.0
O1195 O 0.66287 0.10721 0.97724 0.0
Mg1196 Mg 0.67335 0.43031 0.22457 0.0
C1197 C 0.70932 0.4414 0.25352 0.0
O1198 O 0.69824 0.45887 0.25451 0.0
C1199 C 0.63339 0.40357 0.22087 0.0
O1200 O 0.6251 0.42184 0.21572 0.0
C1201 C 0.64285 0.46956 0.2288 0.0
O1202 O 0.6359 0.46509 0.20977 0.0
O1203 O 0.65752 0.45848 0.23687 0.0
O1204 O 0.7022 0.42597 0.24284 0.0
O1205 O 0.68506 0.42967 0.19228 0.0
C1206 C 0.67309 0.42608 0.1766 0.0
O1207 O 0.65257 0.42676 0.17925 0.0
O1208 O 0.65266 0.40281 0.22652 0.0
Mg1209 Mg 0.18597 0.42112 0.04576 0.0
C1210 C 0.18937 0.45174 0.00787 0.0
O1211 O 0.19704 0.43532 0.99783 0.0
C1212 C 0.15934 0.38319 0.05246 0.0
O1213 O 0.17508 0.37971 0.06551 0.0
C1214 C 0.23116 0.4138 0.03077 0.0
O1215 O 0.23171 0.43451 0.03157 0.0
O1216 O 0.21482 0.40426 0.0375 0.0
O1217 O 0.18334 0.44969 0.02689 0.0
O1218 O 0.18073 0.432 0.07795 0.0
C1219 C 0.16402 0.44314 0.07867 0.0
O1220 O 0.15377 0.44664 0.06096 0.0
O1221 O 0.15987 0.39957 0.0408 0.0
Mg1222 Mg 0.84127 0.93589 0.79424 0.0
C1223 C 0.80802 0.94432 0.75966 0.0
O1224 O 0.82274 0.95645 0.75154 0.0
C1225 C 0.88049 0.90882 0.79657 0.0
O1226 O 0.88852 0.92697 0.80256 0.0
C1227 C 0.85298 0.98201 0.78158 0.0
O1228 O 0.83359 0.98646 0.78731 0.0
O1229 O 0.85984 0.96329 0.78406 0.0
O1230 O 0.81213 0.93354 0.7761 0.0
O1231 O 0.82963 0.93356 0.82655 0.0
C1232 C 0.8414 0.92921 0.84221 0.0
O1233 O 0.86195 0.92993 0.83985 0.0
O1234 O 0.86121 0.90807 0.79094 0.0
Mg1235 Mg 0.1722 0.57654 0.29565 0.0
C1236 C 0.21531 0.56333 0.284 0.0
O1237 O 0.21045 0.55052 0.2996 0.0
C1238 C 0.13469 0.60386 0.29967 0.0
O1239 O 0.12943 0.58715 0.31081 0.0
C1240 C 0.15828 0.53613 0.27362 0.0
O1241 O 0.17698 0.53828 0.265 0.0
O1242 O 0.15275 0.54894 0.28809 0.0
O1243 O 0.20153 0.5765 0.27767 0.0
O1244 O 0.18245 0.58185 0.32811 0.0
C1245 C 0.1943 0.59809 0.32898 0.0
O1246 O 0.19875 0.60795 0.31126 0.0
O1247 O 0.15228 0.60384 0.28998 0.0
C1248 C 0.97886 0.3143 0.03344 0.0
C1249 C 0.99827 0.32408 0.03768 0.0
H1250 H 0.95598 0.30575 0.01018 0.0
C1251 C 0.00936 0.33351 0.02086 0.0
H1252 H 0.96991 0.30685 0.04597 0.0
C1253 C 1.00139 0.33283 1.00023 0.0
C1254 C 0.98216 0.32267 0.99596 0.0
H1255 H 0.0244 0.34117 0.02356 0.0
H1256 H 0.01039 0.34006 0.98762 0.0
C1257 C 0.97092 0.3136 0.01285 0.0
C1258 C 0.96235 0.27393 0.24038 0.0
C1259 C 0.94723 0.25889 0.23438 0.0
H1260 H 0.97407 0.29412 0.26473 0.0
C1261 C 0.93183 0.25271 0.24914 0.0
H1262 H 0.97442 0.27903 0.22941 0.0
C1263 C 0.9318 0.26117 0.2696 0.0
C1264 C 0.94698 0.27619 0.27556 0.0
H1265 H 0.92004 0.24104 0.24503 0.0
H1266 H 0.91985 0.25603 0.28069 0.0
C1267 C 0.96214 0.28258 0.26067 0.0
C1268 C 0.97846 0.2071 0.51002 0.0
C1269 C 0.98366 0.19131 0.52475 0.0
H1270 H 0.98318 0.21969 0.47904 0.0
C1271 C 0.99752 0.17514 0.51864 0.0
H1272 H 0.96782 0.21979 0.51418 0.0
C1273 C 0.00611 0.1749 0.49821 0.0
C1274 C 1.00124 0.19104 0.4837 0.0
H1275 H 1.00171 0.16269 0.5296 0.0
H1276 H 0.01698 0.16243 0.49398 0.0
C1277 C 0.98725 0.20704 0.48983 0.0
C1278 C 0.04257 0.24873 0.76373 0.0
C1279 C 0.06118 0.24696 0.77563 0.0
H1280 H 0.02821 0.2587 0.73485 0.0
C1281 C 0.08027 0.25386 0.76666 0.0
H1282 H 0.0276 0.24354 0.77013 0.0
C1283 C 0.08067 0.26233 0.74616 0.0
C1284 C 0.06194 0.26431 0.73442 0.0
H1285 H 0.09491 0.25255 0.77539 0.0
H1286 H 0.09555 0.26765 0.73968 0.0
C1287 C 0.04292 0.2574 0.74346 0.0
C1288 C 0.9984 0.67799 0.01932 0.0
C1289 C 0.0095 0.68612 0.0368 0.0
H1290 H 0.99791 0.67301 0.98578 0.0
C1291 C 0.02945 0.69514 0.03343 0.0
H1292 H 0.98295 0.67098 0.02132 0.0
C1293 C 0.03793 0.69637 0.0131 0.0
C1294 C 0.02671 0.68861 0.99556 0.0
H1295 H 0.03844 0.70158 0.04648 0.0
H1296 H 0.05329 0.7036 0.01115 0.0
C1297 C 0.00692 0.67922 0.99892 0.0
C1298 C 0.54254 0.24682 0.24117 0.0
C1299 C 0.56003 0.25764 0.23293 0.0
H1300 H 0.52938 0.23002 0.26736 0.0
C1301 C 0.57816 0.25984 0.24555 0.0
H1302 H 0.52833 0.24489 0.23186 0.0
C1303 C 0.57862 0.25165 0.26613 0.0
C1304 C 0.5611 0.24078 0.27431 0.0
H1305 H 0.59183 0.26826 0.23969 0.0
H1306 H 0.59274 0.25364 0.27555 0.0
C1307 C 0.54314 0.23833 0.26154 0.0
C1308 C 0.01088 0.83294 0.51378 0.0
C1309 C 0.02934 0.82145 0.51805 0.0
H1310 H 0.98803 0.84222 0.49061 0.0
C1311 C 0.03935 0.81083 0.50132 0.0
H1312 H 1.00283 0.84139 0.52626 0.0
C1313 C 0.03099 0.81142 0.4809 0.0
C1314 C 0.01235 0.8226 0.47664 0.0
H1315 H 0.05368 0.80192 0.50398 0.0
H1316 H 0.039 0.8028 0.46851 0.0
C1317 C 1.00245 0.83348 0.4933 0.0
C1318 C 0.45558 0.28079 0.73962 0.0
C1319 C 0.4457 0.26136 0.73563 0.0
H1320 H 0.46395 0.30409 0.76256 0.0
C1321 C 0.43638 0.25041 0.7526 0.0
H1322 H 0.46298 0.2896 0.72696 0.0
C1323 C 0.43695 0.25872 0.77308 0.0
C1324 C 0.4469 0.27813 0.77705 0.0
H1325 H 0.42865 0.23538 0.7501 0.0
H1326 H 0.42958 0.24993 0.78577 0.0
C1327 C 0.45621 0.28906 0.76008 0.0
C1328 C 0.99725 0.9997 0.33664 0.0
C1329 C 0.99103 0.98403 0.32221 0.0
H1330 H 0.02187 0.02057 0.34686 0.0
C1331 C 1.00559 0.97712 0.30697 0.0
H1332 H 0.98642 1.00527 0.34863 0.0
C1333 C 0.02573 0.98594 0.30586 0.0
C1334 C 0.03195 1.00169 0.32014 0.0
H1335 H 1.00135 0.96508 0.29561 0.0
H1336 H 0.0364 0.98046 0.29369 0.0
C1337 C 0.01758 0.00834 0.33571 0.0
C1338 C 0.28059 0.28302 0.56545 0.0
C1339 C 0.26074 0.28584 0.57483 0.0
H1340 H 0.30497 0.2614 0.55685 0.0
C1341 C 0.25024 0.26812 0.58319 0.0
H1342 H 0.2891 0.29628 0.5588 0.0
C1343 C 0.25937 0.24803 0.58206 0.0
C1344 C 0.27914 0.24521 0.57249 0.0
H1345 H 0.23489 0.26972 0.5905 0.0
H1346 H 0.25087 0.23471 0.58861 0.0
C1347 C 0.28966 0.26296 0.56425 0.0
C1348 C 0.00956 0.47446 0.81002 0.0
C1349 C 0.99238 0.48537 0.81888 0.0
H1350 H 0.04267 0.47426 0.80354 0.0
C1351 C 0.99608 0.50481 0.82885 0.0
H1352 H 0.00731 0.45937 0.80232 0.0
C1353 C 0.01644 0.51333 0.8296 0.0
C1354 C 0.03355 0.50257 0.82042 0.0
H1355 H 0.98324 0.51356 0.83592 0.0
H1356 H 0.01868 0.52851 0.83714 0.0
C1357 C 0.02989 0.48295 0.8108 0.0
C1358 C 0.75898 0.25047 0.08793 0.0
C1359 C 0.75864 0.23788 0.06963 0.0
H1360 H 0.75057 0.28015 0.10203 0.0
C1361 C 0.74908 0.24589 0.05128 0.0
H1362 H 0.76638 0.24477 0.10227 0.0
C1363 C 0.73993 0.26592 0.05121 0.0
C1364 C 0.7404 0.27864 0.06937 0.0
H1365 H 0.74855 0.23662 0.03692 0.0
H1366 H 0.73259 0.27151 0.03679 0.0
C1367 C 0.75011 0.27076 0.08775 0.0
C1368 C 0.03186 0.03299 0.69267 0.0
C1369 C 0.03576 0.01348 0.68292 0.0
H1370 H 0.00892 0.05565 0.70235 0.0
C1371 C 0.01861 1.00201 0.67467 0.0
H1372 H 0.04465 0.04222 0.69923 0.0
C1373 C 0.99799 0.00977 0.67642 0.0
C1374 C 0.9941 0.02907 0.6866 0.0
H1375 H 0.02106 0.98691 0.66706 0.0
H1376 H 0.98511 1.0005 0.67009 0.0
C1377 C 0.0113 0.04064 0.69454 0.0
C1378 C 0.25087 0.24493 0.92689 0.0
C1379 C 0.23983 0.23642 0.94417 0.0
H1380 H 0.26779 0.27155 0.91445 0.0
C1381 C 0.23751 0.24866 0.96251 0.0
H1382 H 0.25278 0.23592 0.91249 0.0
C1383 C 0.24622 0.26887 0.96371 0.0
C1384 C 0.25715 0.27749 0.94645 0.0
H1385 H 0.2291 0.24256 0.9761 0.0
H1386 H 0.24432 0.27778 0.97818 0.0
C1387 C 0.25929 0.26538 0.92795 0.0
C1388 C 0.01232 0.50407 0.17822 0.0
C1389 C 0.01913 0.4912 0.19501 0.0
H1390 H 0.98723 0.52287 0.16533 0.0
C1391 C 1.00533 0.48749 0.21198 0.0
H1392 H 0.02256 0.50712 0.16487 0.0
C1393 C 0.98529 0.49657 0.21231 0.0
C1394 C 0.97839 0.50936 0.19554 0.0
H1395 H 0.01006 0.47766 0.22517 0.0
H1396 H 0.97517 0.49351 0.22575 0.0
C1397 C 0.99206 0.51294 0.17841 0.0
C1398 C 0.72205 0.26038 0.45363 0.0
C1399 C 0.73334 0.24297 0.44577 0.0
H1400 H 0.72147 0.2937 0.45907 0.0
C1401 C 0.75329 0.2464 0.43677 0.0
H1402 H 0.70658 0.25835 0.46059 0.0
C1403 C 0.76185 0.26677 0.43592 0.0
C1404 C 0.7506 0.28415 0.44396 0.0
H1405 H 0.76236 0.23336 0.43053 0.0
H1406 H 0.77736 0.26885 0.42907 0.0
C1407 C 0.73055 0.28072 0.45269 0.0
C1408 C 0.33199 0.99112 1.00535 0.0
C1409 C 0.3139 0.98293 0.99549 0.0
H1410 H 0.34576 0.01719 0.02203 0.0
C1411 C 0.29538 0.99507 0.99524 0.0
H1412 H 0.34652 0.98215 1.00565 0.0
C1413 C 0.29486 0.01489 1.00485 0.0
C1414 C 0.31298 0.02322 0.01449 0.0
H1415 H 0.28118 0.98916 0.98778 0.0
H1416 H 0.28028 0.0238 1.00453 0.0
C1417 C 0.3316 0.01121 0.01457 0.0
C1418 C 0.82961 0.01419 0.51339 0.0
C1419 C 0.81035 0.02412 0.5181 0.0
H1420 H 0.84495 0.98645 0.5014 0.0
C1421 C 0.79147 0.01326 0.51403 0.0
H1422 H 0.84443 0.02209 0.51651 0.0
C1423 C 0.79176 0.99304 0.50531 0.0
C1424 C 0.81095 0.98299 0.50072 0.0
H1425 H 0.77636 0.02044 0.51748 0.0
H1426 H 0.77687 0.98523 0.50225 0.0
C1427 C 0.82991 0.99372 0.50493 0.0
C1428 C 0.26257 0.08469 0.7532 0.0
C1429 C 0.26881 0.07003 0.73777 0.0
H1430 H 0.23748 0.09607 0.77287 0.0
C1431 C 0.25385 0.05561 0.73001 0.0
H1432 H 0.27369 0.09608 0.7594 0.0
C1433 C 0.23326 0.05553 0.73774 0.0
C1434 C 0.22699 0.07003 0.75327 0.0
H1435 H 0.2581 0.04412 0.71809 0.0
H1436 H 0.22226 0.04397 0.73161 0.0
C1437 C 0.2418 0.08478 0.76079 0.0
C1438 C 0.18089 0.49042 0.00864 0.0
C1439 C 0.18913 0.47287 0.99781 0.0
H1440 H 0.1751 0.52373 0.00835 0.0
C1441 C 0.19783 0.4759 0.97763 0.0
H1442 H 0.17407 0.48866 0.02423 0.0
C1443 C 0.19849 0.49603 0.96859 0.0
C1444 C 0.19042 0.5136 0.97948 0.0
H1445 H 0.20436 0.46276 0.96888 0.0
H1446 H 0.2054 0.49778 0.95305 0.0
C1447 C 0.1815 0.51056 0.99956 0.0
C1448 C 0.27731 0.94489 0.22891 0.0
C1449 C 0.28184 0.93726 0.24924 0.0
H1450 H 0.25372 0.95143 0.20572 0.0
C1451 C 0.26514 0.92974 0.26184 0.0
H1452 H 0.28974 0.95083 0.2188 0.0
C1453 C 0.24436 0.93004 0.2543 0.0
C1454 C 0.23984 0.93799 0.23407 0.0
H1455 H 0.26808 0.92375 0.2776 0.0
H1456 H 0.23184 0.92426 0.2644 0.0
C1457 C 0.25658 0.9453 0.22145 0.0
C1458 C 0.68356 0.99319 0.0107 0.0
C1459 C 0.69975 0.97906 1.0052 0.0
H1460 H 0.67091 0.02443 0.00732 0.0
C1461 C 0.7156 0.98583 0.99128 0.0
H1462 H 0.67121 0.98847 0.02153 0.0
C1463 C 0.71531 1.00628 0.98305 0.0
C1464 C 0.69938 0.02056 0.98881 0.0
H1465 H 0.72828 0.97534 0.98676 0.0
H1466 H 0.7278 0.01099 0.97236 0.0
C1467 C 0.68347 0.01382 1.00271 0.0
C1468 C 0.26101 0.43103 0.76154 0.0
C1469 C 0.27244 0.44984 0.76447 0.0
H1470 H 0.23211 0.4168 0.75099 0.0
C1471 C 0.26304 0.46907 0.75865 0.0
H1472 H 0.26777 0.41598 0.76602 0.0
C1473 C 0.2428 0.46952 0.74998 0.0
C1474 C 0.23127 0.4508 0.74717 0.0
H1475 H 0.27138 0.48385 0.76069 0.0
H1476 H 0.23615 0.48464 0.74556 0.0
C1477 C 0.24055 0.43152 0.75311 0.0
C1478 C 0.75202 0.04834 0.27969 0.0
C1479 C 0.73871 0.06579 0.27659 0.0
H1480 H 0.78204 0.03425 0.27356 0.0
C1481 C 0.74623 0.08314 0.26496 0.0
H1482 H 0.74672 0.03473 0.2886 0.0
C1483 C 0.76669 0.08301 0.25662 0.0
C1484 C 0.77986 0.06538 0.25947 0.0
H1485 H 0.73638 0.09687 0.26244 0.0
H1486 H 0.77204 0.09652 0.2476 0.0
C1487 C 0.77229 0.04807 0.27109 0.0
C1488 C 0.93757 0.76238 0.76633 0.0
C1489 C 0.95533 0.75971 0.77939 0.0
H1490 H 0.92317 0.75578 0.73634 0.0
C1491 C 0.97235 0.74768 0.77192 0.0
H1492 H 0.92427 0.7717 0.77159 0.0
C1493 C 0.97164 0.73846 0.75189 0.0
C1494 C 0.95404 0.74133 0.7387 0.0
H1495 H 0.98626 0.74533 0.78157 0.0
H1496 H 0.98503 0.72924 0.74668 0.0
C1497 C 0.93701 0.75342 0.74609 0.0
C1498 C 0.08169 0.75038 0.26848 0.0
C1499 C 0.0626 0.74617 0.27899 0.0
H1500 H 0.0965 0.76193 0.24016 0.0
C1501 C 0.04354 0.75072 0.26866 0.0
H1502 H 0.09663 0.74685 0.27598 0.0
C1503 C 0.04346 0.75938 0.24839 0.0
C1504 C 0.06245 0.76344 0.23772 0.0
H1505 H 0.02856 0.74766 0.27628 0.0
H1506 H 0.02843 0.7628 0.24102 0.0
C1507 C 0.08161 0.75879 0.24792 0.0
C1508 C 0.58062 0.75925 0.75062 0.0
C1509 C 0.57016 0.77846 0.747 0.0
H1510 H 0.58961 0.73571 0.77318 0.0
C1511 C 0.56108 0.78906 0.76427 0.0
H1512 H 0.58787 0.75074 0.7377 0.0
C1513 C 0.56217 0.78053 0.78462 0.0
C1514 C 0.57233 0.76117 0.78821 0.0
H1515 H 0.553 0.80395 0.76209 0.0
H1516 H 0.55475 0.78899 0.79747 0.0
C1517 C 0.58168 0.75069 0.77099 0.0
C1518 C 0.42522 0.74913 0.24771 0.0
C1519 C 0.44422 0.74451 0.23728 0.0
H1520 H 0.4106 0.76319 0.2749 0.0
C1521 C 0.46335 0.75087 0.24645 0.0
H1522 H 0.41027 0.74426 0.24102 0.0
C1523 C 0.4635 0.76202 0.26546 0.0
C1524 C 0.44456 0.7665 0.27601 0.0
H1525 H 0.47821 0.74753 0.23872 0.0
H1526 H 0.47848 0.767 0.272 0.0
C1527 C 0.42541 0.75978 0.26711 0.0
C1528 C 0.25673 0.73646 0.08535 0.0
C1529 C 0.26396 0.72772 0.06629 0.0
H1530 H 0.24143 0.76269 0.10035 0.0
C1531 C 0.26077 0.73884 0.04736 0.0
H1532 H 0.25916 0.72826 0.10017 0.0
C1533 C 0.25028 0.75821 0.04741 0.0
C1534 C 0.24333 0.76715 0.06646 0.0
H1535 H 0.26617 0.73243 0.03246 0.0
H1536 H 0.24786 0.76635 0.03254 0.0
C1537 C 0.24676 0.75619 0.08546 0.0
C1538 C 0.79214 0.75568 0.56615 0.0
C1539 C 0.78082 0.73837 0.57428 0.0
H1540 H 0.79311 0.78899 0.56078 0.0
C1541 C 0.76129 0.74205 0.58404 0.0
H1542 H 0.80732 0.75348 0.55865 0.0
C1543 C 0.75308 0.76256 0.58522 0.0
C1544 C 0.76432 0.77982 0.57679 0.0
H1545 H 0.75221 0.72908 0.59049 0.0
H1546 H 0.73783 0.76486 0.59255 0.0
C1547 C 0.78403 0.77613 0.56745 0.0
C1548 C 0.22293 0.76472 0.44277 0.0
C1549 C 0.23423 0.74706 0.43551 0.0
H1550 H 0.22248 0.79813 0.44752 0.0
C1551 C 0.25428 0.7502 0.4266 0.0
H1552 H 0.20739 0.76294 0.44962 0.0
C1553 C 0.26295 0.77052 0.42536 0.0
C1554 C 0.25175 0.78812 0.43297 0.0
H1555 H 0.26337 0.73696 0.4208 0.0
H1556 H 0.27858 0.77237 0.41872 0.0
C1557 C 0.23155 0.78497 0.4415 0.0
C1558 C 0.78463 0.73554 0.94136 0.0
C1559 C 0.76481 0.73211 0.93209 0.0
H1560 H 0.80809 0.75792 0.95047 0.0
C1561 C 0.75365 0.74956 0.92398 0.0
H1562 H 0.79366 0.72252 0.94777 0.0
C1563 C 0.76199 0.77001 0.9255 0.0
C1564 C 0.78158 0.77342 0.93527 0.0
H1565 H 0.73833 0.74748 0.91672 0.0
H1566 H 0.75293 0.78314 0.91935 0.0
C1567 C 0.79287 0.75592 0.94298 0.0
C1568 C 0.33163 0.52155 0.51201 0.0
C1569 C 0.31321 0.53391 0.51189 0.0
H1570 H 0.34558 0.49151 0.50478 0.0
C1571 C 0.2946 0.52526 0.50357 0.0
H1572 H 0.34617 0.52774 0.51852 0.0
C1573 C 0.29429 0.50471 0.49564 0.0
C1574 C 0.31251 0.49213 0.49614 0.0
H1575 H 0.28014 0.53435 0.50325 0.0
H1576 H 0.27961 0.4986 0.48938 0.0
C1577 C 0.33124 0.50076 0.50436 0.0
C1578 C 0.83182 0.50322 1.0009 0.0
C1579 C 0.81467 0.49601 0.98881 0.0
H1580 H 0.84513 0.52878 0.01876 0.0
C1581 C 0.79762 0.5097 0.98521 0.0
H1582 H 0.84527 0.49308 1.0038 0.0
C1583 C 0.79748 0.52996 0.99385 0.0
C1584 C 0.81453 0.53719 1.00602 0.0
H1585 H 0.78417 0.50466 0.97593 0.0
H1586 H 0.78391 0.53995 0.99106 0.0
C1587 C 0.83184 0.5237 0.00929 0.0
C1588 C 0.26519 0.57874 0.25456 0.0
C1589 C 0.27779 0.5607 0.25749 0.0
H1590 H 0.23533 0.5936 0.2603 0.0
C1591 C 0.2696 0.54364 0.26907 0.0
H1592 H 0.27101 0.59207 0.24556 0.0
C1593 C 0.24934 0.5446 0.27762 0.0
C1594 C 0.23661 0.56248 0.2745 0.0
H1595 H 0.27889 0.52952 0.27158 0.0
H1596 H 0.24357 0.53119 0.28654 0.0
C1597 C 0.24471 0.57955 0.26284 0.0
C1598 C 0.1837 1.00174 0.50759 0.0
C1599 C 0.20205 0.98941 0.5057 0.0
H1600 H 0.16875 0.03144 0.501 0.0
C1601 C 0.21957 0.99791 0.49514 0.0
H1602 H 0.17 0.99567 0.5158 0.0
C1603 C 0.21878 0.0182 0.48655 0.0
C1604 C 0.20058 0.03066 0.48863 0.0
H1605 H 0.23394 0.98884 0.49344 0.0
H1606 H 0.23257 0.0242 0.47843 0.0
C1607 C 0.18304 0.02226 0.49929 0.0
C1608 C 0.68028 0.51447 0.50665 0.0
C1609 C 0.69879 0.52301 0.49788 0.0
H1610 H 0.66581 0.48783 0.52186 0.0
C1611 C 0.71721 0.51071 0.49783 0.0
H1612 H 0.6658 0.52351 0.50679 0.0
C1613 C 0.71724 0.49045 0.50648 0.0
C1614 C 0.69879 0.48181 0.5152 0.0
H1615 H 0.73174 0.51678 0.49119 0.0
H1616 H 0.7318 0.48152 0.50629 0.0
C1617 C 0.68025 0.49399 0.51512 0.0
C1618 C 0.7453 0.58342 0.75911 0.0
C1619 C 0.73565 0.564 0.76386 0.0
H1620 H 0.77294 0.5992 0.74745 0.0
C1621 C 0.74686 0.54527 0.76011 0.0
H1622 H 0.7371 0.59813 0.76198 0.0
C1623 C 0.7672 0.54587 0.75173 0.0
C1624 C 0.77699 0.56523 0.74714 0.0
H1625 H 0.73991 0.53004 0.7636 0.0
H1626 H 0.7753 0.53109 0.74897 0.0
C1627 C 0.76586 0.58404 0.75096 0.0
C1628 C 0.50985 0.33021 0.52137 0.0
C1629 C 0.5075 0.31208 0.53401 0.0
H1630 H 0.5026 0.34539 0.49189 0.0
C1631 C 0.49539 0.29519 0.52631 0.0
H1632 H 0.51922 0.34344 0.52681 0.0
C1633 C 0.48578 0.29638 0.50649 0.0
C1634 C 0.4883 0.31436 0.49371 0.0
H1635 H 0.49327 0.28101 0.53564 0.0
H1636 H 0.47651 0.28307 0.50111 0.0
C1637 C 0.50047 0.33127 0.50133 0.0
C1638 C 0.53949 0.20063 0.0119 0.0
C1639 C 0.52934 0.19075 0.99478 0.0
H1640 H 0.53948 0.20717 0.04503 0.0
C1641 C 0.511 0.17892 0.9987 0.0
H1642 H 0.55374 0.20976 0.00953 0.0
C1643 C 0.50279 0.17742 0.01922 0.0
C1644 C 0.51281 0.18763 0.03627 0.0
H1645 H 0.50286 0.17103 0.9859 0.0
H1646 H 0.48843 0.1685 0.02167 0.0
C1647 C 0.53137 0.19907 0.03235 0.0
C1648 C 0.51233 0.67987 0.49935 0.0
C1649 C 0.51743 0.69889 0.48913 0.0
H1650 H 0.49816 0.66523 0.52646 0.0
C1651 C 0.51172 0.71809 0.49858 0.0
H1652 H 0.51669 0.66487 0.49243 0.0
C1653 C 0.50075 0.71829 0.51771 0.0
C1654 C 0.49584 0.69931 0.52807 0.0
H1655 H 0.51545 0.73298 0.49101 0.0
H1656 H 0.49629 0.73332 0.52451 0.0
C1657 C 0.50189 0.68009 0.51884 0.0
C1658 C 0.51738 0.79448 0.98782 0.0
C1659 C 0.50567 0.81162 0.98006 0.0
H1660 H 0.53506 0.78158 0.01356 0.0
C1661 C 0.50288 0.82942 0.99301 0.0
H1662 H 0.5198 0.78053 0.97824 0.0
C1663 C 0.51134 0.82988 0.01346 0.0
C1664 C 0.52304 0.81269 0.0212 0.0
H1665 H 0.49379 0.84282 0.98753 0.0
H1666 H 0.50884 0.84373 0.02315 0.0
C1667 C 0.52611 0.79507 0.00808 0.0
C1668 C 0.49638 1.00066 0.83475 0.0
C1669 C 0.48331 1.00332 0.81698 0.0
H1670 H 0.52634 0.00735 0.8491 0.0
C1671 C 0.49076 0.01528 0.79984 0.0
H1672 H 0.49113 0.99138 0.84813 0.0
C1673 C 0.51073 0.02453 0.80048 0.0
C1674 C 0.52392 0.02177 0.81812 0.0
H1675 H 0.4811 0.01761 0.78592 0.0
H1676 H 0.5159 0.03376 0.78703 0.0
C1677 C 0.51659 0.00966 0.83524 0.0
C1678 C 0.50351 0.5362 0.31639 0.0
C1679 C 0.52046 0.52464 0.32487 0.0
H1680 H 0.47026 0.53792 0.31102 0.0
C1681 C 0.51624 0.50537 0.33502 0.0
H1682 H 0.50614 0.55118 0.30855 0.0
C1683 C 0.49556 0.49773 0.33643 0.0
C1684 C 0.47864 0.50927 0.32781 0.0
H1685 H 0.52892 0.49611 0.34177 0.0
H1686 H 0.49286 0.48272 0.34417 0.0
C1687 C 0.48287 0.52864 0.31789 0.0
C1688 C 0.51605 1.00386 0.17629 0.0
C1689 C 0.52311 0.99107 0.19304 0.0
H1690 H 0.49064 0.02226 0.1635 0.0
C1691 C 0.50933 0.98686 0.20989 0.0
H1692 H 0.52627 0.00724 0.16301 0.0
C1693 C 0.4891 0.99552 0.21025 0.0
C1694 C 0.48201 0.00836 0.1936 0.0
H1695 H 0.51424 0.97705 0.22303 0.0
H1696 H 0.47903 0.9922 0.22366 0.0
C1697 C 0.49561 0.01229 0.17649 0.0
C1698 C 0.52799 0.52963 0.69734 0.0
C1699 C 0.53265 0.51062 0.68698 0.0
H1700 H 0.50434 0.55175 0.70658 0.0
C1701 C 0.51609 0.49943 0.67724 0.0
H1702 H 0.54029 0.53866 0.70503 0.0
C1703 C 0.49531 0.50695 0.67816 0.0
C1704 C 0.49066 0.52579 0.68887 0.0
H1705 H 0.5191 0.48468 0.66914 0.0
H1706 H 0.4829 0.4979 0.67066 0.0
C1707 C 0.50729 0.5371 0.69829 0.0
C1708 C 0.74921 0.93461 0.7533 0.0
C1709 C 0.74437 0.94728 0.73572 0.0
H1710 H 0.77309 0.92353 0.77452 0.0
C1711 C 0.76075 0.95852 0.7258 0.0
H1712 H 0.737 0.92566 0.76124 0.0
C1713 C 0.78143 0.95725 0.73334 0.0
C1714 C 0.78628 0.94469 0.75098 0.0
H1715 H 0.75762 0.96838 0.71216 0.0
H1716 H 0.79358 0.96628 0.7254 0.0
C1717 C 0.76994 0.93331 0.76084 0.0
C1718 C 0.76607 0.42603 0.26518 0.0
C1719 C 0.77184 0.44141 0.28011 0.0
H1720 H 0.74157 0.41366 0.24532 0.0
C1721 C 0.75666 0.45614 0.28671 0.0
H1722 H 0.77739 0.41439 0.25989 0.0
C1723 C 0.73632 0.45582 0.27832 0.0
C1724 C 0.73053 0.44059 0.2633 0.0
H1725 H 0.76056 0.46819 0.29819 0.0
H1726 H 0.72515 0.46763 0.28354 0.0
C1727 C 0.74554 0.42553 0.25697 0.0
C1728 C 1.0049 0.24823 0.0991 0.0
C1729 C 0.01582 0.26424 0.1099 0.0
H1730 H 0.98183 0.2236 0.1008 0.0
C1731 C 0.01306 0.26607 0.13188 0.0
H1732 H 0.00668 0.2463 0.0822 0.0
C1733 C 0.99882 0.25297 0.14259 0.0
C1734 C 0.98694 0.23782 0.13155 0.0
H1735 H 0.02129 0.27815 0.14073 0.0
H1736 H 0.99648 0.25538 0.15936 0.0
C1737 C 0.99059 0.23521 0.10979 0.0
C1738 C 0.014 0.25223 0.35151 0.0
C1739 C 0.99788 0.26294 0.36234 0.0
H1740 H 0.03867 0.22928 0.35298 0.0
C1741 C 0.99603 0.25994 0.3843 0.0
H1742 H 0.01604 0.25426 0.33465 0.0
C1743 C 0.00912 0.24554 0.39489 0.0
C1744 C 0.02432 0.23382 0.38373 0.0
H1745 H 0.98383 0.26797 0.39316 0.0
H1746 H 0.00663 0.24288 0.41161 0.0
C1747 C 0.02702 0.23786 0.36206 0.0
C1748 C 0.99932 0.24612 0.6297 0.0
C1749 C 0.99832 0.24561 0.6075 0.0
H1750 H 0.01397 0.25958 0.65711 0.0
C1751 C 0.01036 0.26029 0.59598 0.0
H1752 H 0.99026 0.23506 0.63908 0.0
C1753 C 0.0239 0.27435 0.60628 0.0
C1754 C 0.02584 0.27408 0.6284 0.0
H1755 H 0.00989 0.26048 0.57887 0.0
H1756 H 0.03345 0.28489 0.59679 0.0
C1757 C 0.01296 0.26017 0.64004 0.0
C1758 C 0.00911 0.25311 0.91883 0.0
C1759 C 0.99738 0.26866 0.9082 0.0
H1760 H 0.03189 0.22835 0.91657 0.0
C1761 C 0.99846 0.26952 0.886 0.0
H1762 H 0.00858 0.25185 0.93589 0.0
C1763 C 0.01192 0.25596 0.87485 0.0
C1764 C 0.02459 0.24126 0.88565 0.0
H1765 H 0.9896 0.28127 0.87729 0.0
H1766 H 0.01305 0.25764 0.85785 0.0
C1767 C 0.02253 0.23959 0.90771 0.0
C1768 C 0.01598 0.74689 0.88641 0.0
C1769 C 0.01607 0.74715 0.90865 0.0
H1770 H 1.00293 0.75982 0.85792 0.0
C1771 C 1.00439 0.76282 0.9191 0.0
H1772 H 0.02485 0.73508 0.87782 0.0
C1773 C 0.99187 0.77699 0.90771 0.0
C1774 C 0.99067 0.77587 0.88555 0.0
H1775 H 1.00421 0.76364 0.9362 0.0
H1776 H 0.98243 0.78827 0.9164 0.0
C1777 C 1.00341 0.7611 0.87498 0.0
C1778 C 0.51787 0.27587 0.10633 0.0
C1779 C 0.52139 0.27376 0.12817 0.0
H1780 H 0.50209 0.26407 0.07886 0.0
C1781 C 0.50949 0.25879 0.13947 0.0
H1782 H 0.52665 0.28732 0.09714 0.0
C1783 C 0.49544 0.24535 0.12895 0.0
C1784 C 0.49285 0.24665 0.10689 0.0
H1785 H 0.51174 0.25676 0.15632 0.0
H1786 H 0.48723 0.23339 0.138 0.0
C1787 C 0.50372 0.26254 0.09583 0.0
C1788 C 0.99688 0.76465 0.38357 0.0
C1789 C 0.99344 0.76279 0.40547 0.0
H1790 H 0.01402 0.75373 0.35653 0.0
C1791 C 1.00376 0.74654 0.41652 0.0
H1792 H 0.98912 0.77692 0.37453 0.0
C1793 C 0.01813 0.73332 0.40622 0.0
C1794 C 0.02243 0.7359 0.38456 0.0
H1795 H 1.00148 0.74457 0.43336 0.0
H1796 H 0.02641 0.72153 0.41543 0.0
C1797 C 0.01115 0.75131 0.37322 0.0
C1798 C 0.51131 0.2596 0.62671 0.0
C1799 C 0.52762 0.27044 0.63717 0.0
H1800 H 0.48519 0.23833 0.62944 0.0
C1801 C 0.53126 0.26602 0.65865 0.0
H1802 H 0.50809 0.26253 0.61016 0.0
C1803 C 0.51815 0.25208 0.6697 0.0
C1804 C 0.50102 0.24227 0.65957 0.0
H1805 H 0.54375 0.27396 0.66719 0.0
H1806 H 0.52092 0.24975 0.68643 0.0
C1807 C 0.49815 0.2457 0.63779 0.0
C1808 C 0.15491 0.0225 0.27387 0.0
C1809 C 0.13301 0.02106 0.27698 0.0
H1810 H 0.18224 0.00975 0.25882 0.0
C1811 C 0.12153 1.00629 0.26501 0.0
H1812 H 0.16425 0.03379 0.28267 0.0
C1813 C 0.13191 0.9924 0.25126 0.0
C1814 C 0.15399 0.99302 0.24917 0.0
H1815 H 0.10463 1.00478 0.26696 0.0
H1816 H 0.12272 0.98059 0.243 0.0
C1817 C 0.16525 0.00868 0.26015 0.0
C1818 C 0.2464 0.38195 0.52211 0.0
C1819 C 0.24236 0.36036 0.51877 0.0
H1820 H 0.26385 0.40935 0.51262 0.0
C1821 C 0.25191 0.35038 0.5014 0.0
H1822 H 0.23928 0.39019 0.53528 0.0
C1823 C 0.26604 0.36136 0.48843 0.0
C1824 C 0.27096 0.38264 0.49245 0.0
H1825 H 0.24913 0.33381 0.49826 0.0
H1826 H 0.27367 0.35292 0.47568 0.0
C1827 C 0.26051 0.39296 0.50909 0.0
C1828 C 0.87078 0.5162 0.75573 0.0
C1829 C 0.88007 0.52361 0.73695 0.0
H1830 H 0.87447 0.49794 0.78399 0.0
C1831 C 0.90042 0.51655 0.7317 0.0
H1832 H 0.85508 0.5212 0.7602 0.0
C1833 C 0.91165 0.50335 0.74548 0.0
C1834 C 0.90268 0.49665 0.76468 0.0
H1835 H 0.90806 0.52194 0.71738 0.0
H1836 H 0.92759 0.49888 0.74134 0.0
C1837 C 0.88189 0.50277 0.76935 0.0
C1838 C 0.75862 0.14222 0.01971 0.0
C1839 C 0.77413 0.13189 0.03182 0.0
H1840 H 0.73349 0.1391 0.99723 0.0
C1841 C 0.77738 0.11019 0.0286 0.0
H1842 H 0.75575 0.15895 0.02169 0.0
C1843 C 0.76462 0.09883 0.01463 0.0
C1844 C 0.74831 0.10888 1.00343 0.0
H1845 H 0.78927 0.10172 0.03751 0.0
H1846 H 0.76707 0.08197 0.01322 0.0
C1847 C 0.74587 0.13084 1.00563 0.0
C1848 C 0.10458 0.0225 0.77127 0.0
C1849 C 0.12625 0.02698 0.76985 0.0
H1850 H 0.07823 1.00567 0.75855 0.0
C1851 C 0.13842 0.01581 0.75502 0.0
H1852 H 0.09475 0.0307 0.78258 0.0
C1853 C 0.1289 1.00148 0.7411 0.0
C1854 C 0.10701 0.99788 0.74178 0.0
H1855 H 0.15516 0.01882 0.7535 0.0
H1856 H 0.13859 0.99383 0.72929 0.0
C1857 C 0.0951 0.00809 0.75747 0.0
C1858 C 0.24535 0.38023 0.0151 0.0
C1859 C 0.24729 0.4021 0.01845 0.0
H1860 H 0.25588 0.3532 0.99778 0.0
C1861 C 0.26349 0.41306 0.00796 0.0
H1862 H 0.23311 0.37126 0.02297 0.0
C1863 C 0.27653 0.4027 0.99346 0.0
C1864 C 0.27371 0.38112 0.98912 0.0
H1865 H 0.26554 0.42988 0.01021 0.0
H1866 H 0.28825 0.41185 0.98503 0.0
C1867 C 0.25842 0.36986 1.00062 0.0
C1868 C 0.88778 0.50884 0.24743 0.0
C1869 C 0.87578 0.52315 0.23536 0.0
H1870 H 0.88751 0.48361 0.27008 0.0
C1871 C 0.85393 0.52418 0.23885 0.0
H1872 H 0.90466 0.50765 0.24518 0.0
C1873 C 0.84414 0.51048 0.25312 0.0
C1874 C 0.8559 0.4953 0.26427 0.0
H1875 H 0.8442 0.5351 0.22999 0.0
H1876 H 0.82716 0.51128 0.25478 0.0
C1877 C 0.87794 0.49504 0.26172 0.0
C1878 C 0.77032 0.15423 0.52964 0.0
C1879 C 0.77294 0.1323 0.52746 0.0
H1880 H 0.75591 0.18236 0.51781 0.0
C1881 C 0.76073 0.12161 0.51228 0.0
H1882 H 0.77931 0.16298 0.54125 0.0
C1883 C 0.74723 0.13281 0.49874 0.0
C1884 C 0.74564 0.15493 0.5001 0.0
H1885 H 0.76231 0.10473 0.51019 0.0
H1886 H 0.73877 0.12423 0.4866 0.0
C1887 C 0.75685 0.16538 0.51615 0.0
C1888 C 0.25357 0.12125 0.97692 0.0
C1889 C 0.24847 0.1411 0.98539 0.0
H1890 H 0.27169 0.09296 0.98012 0.0
C1891 C 0.25656 0.14656 1.00538 0.0
H1892 H 0.24763 0.11646 0.96161 0.0
C1893 C 0.27023 0.13287 0.01617 0.0
C1894 C 0.27631 0.11362 0.007 0.0
H1895 H 0.25288 0.1617 0.01239 0.0
H1896 H 0.27683 0.13782 0.03115 0.0
C1897 C 0.26745 0.10777 0.98752 0.0
C1898 C 0.75718 0.84335 0.50217 0.0
C1899 C 0.7467 0.85403 0.51855 0.0
H1900 H 0.77935 0.84523 0.47676 0.0
C1901 C 0.7493 0.87603 0.52022 0.0
H1902 H 0.75551 0.82644 0.50032 0.0
C1903 C 0.76296 0.88687 0.50658 0.0
C1904 C 0.77443 0.87593 0.49104 0.0
H1905 H 0.7414 0.8848 0.53257 0.0
H1906 H 0.76524 0.90365 0.50887 0.0
C1907 C 0.77091 0.85415 0.48863 0.0
C1908 C 0.34437 1.0025 0.76533 0.0
C1909 C 0.35517 0.01794 0.75358 0.0
H1910 H 0.34634 0.97758 0.78804 0.0
C1911 C 0.37733 0.01843 0.75456 0.0
H1912 H 0.32733 1.00153 0.76485 0.0
C1913 C 0.3883 1.00462 0.76796 0.0
C1914 C 0.37735 0.99001 0.78064 0.0
H1915 H 0.38616 0.03008 0.74569 0.0
H1916 H 0.40529 1.00599 0.76902 0.0
C1917 C 0.35531 0.98873 0.77867 0.0
C1918 C 0.25397 0.60066 0.00956 0.0
C1919 C 0.23911 0.60794 0.99473 0.0
H1920 H 0.27558 0.60873 0.03433 0.0
C1921 C 0.2364 0.62982 0.99222 0.0
H1922 H 0.25654 0.58392 0.01182 0.0
C1923 C 0.24721 0.64402 1.00522 0.0
C1924 C 0.26112 0.6367 0.02091 0.0
H1925 H 0.22516 0.636 0.98091 0.0
H1926 H 0.24404 0.66073 1.00348 0.0
C1927 C 0.26493 0.6149 0.02245 0.0
C1928 C 0.75097 0.88787 0.00897 0.0
C1929 C 0.73732 0.87593 0.02182 0.0
H1930 H 0.77471 0.88748 0.98484 0.0
C1931 C 0.7391 0.85382 0.02156 0.0
H1932 H 0.75006 0.90494 0.0088 0.0
C1933 C 0.75323 0.84384 0.00789 0.0
C1934 C 0.76592 0.85569 0.99405 0.0
H1935 H 0.72899 0.84412 0.03135 0.0
H1936 H 0.75353 0.82675 0.00759 0.0
C1937 C 0.76511 0.87785 0.99521 0.0
C1938 C 0.37031 0.49545 0.75706 0.0
C1939 C 0.3812 0.48246 0.77143 0.0
H1940 H 0.37256 0.51788 0.73173 0.0
C1941 C 0.40329 0.48399 0.77244 0.0
H1942 H 0.35329 0.49471 0.75588 0.0
C1943 C 0.41431 0.49725 0.75865 0.0
C1944 C 0.40355 0.50933 0.74344 0.0
H1945 H 0.41222 0.47437 0.78341 0.0
H1946 H 0.43137 0.49741 0.75943 0.0
C1947 C 0.38137 0.50874 0.7432 0.0
C1948 C 0.63781 0.99701 0.23693 0.0
C1949 C 0.61602 1.00038 0.23912 0.0
H1950 H 0.66892 1.00609 0.24644 0.0
C1951 C 0.60897 0.01439 0.25484 0.0
H1952 H 0.64381 0.9863 0.22504 0.0
C1953 C 0.6234 0.02565 0.26724 0.0
C1954 C 0.64521 0.02331 0.26407 0.0
H1955 H 0.59229 0.01727 0.25706 0.0
H1956 H 0.61742 0.03695 0.27858 0.0
C1957 C 0.65223 0.00841 0.2492 0.0
C1958 C 1.00442 0.75857 0.60778 0.0
C1959 C 0.01818 0.77476 0.61426 0.0
H1960 H 0.98198 0.73502 0.61712 0.0
C1961 C 0.02117 0.77808 0.63602 0.0
H1962 H 1.00182 0.7555 0.59116 0.0
C1963 C 0.00971 0.76642 0.65089 0.0
C1964 C 0.9951 0.75102 0.6444 0.0
H1965 H 0.03167 0.79036 0.6416 0.0
H1966 H 0.01177 0.77002 0.66749 0.0
C1967 C 0.99308 0.74677 0.62269 0.0
C1968 C 0.01735 0.77497 0.10999 0.0
C1969 C 0.02202 0.77185 0.1315 0.0
H1970 H 1.00049 0.76426 0.08274 0.0
C1971 C 0.01132 0.75576 0.14246 0.0
H1972 H 0.02519 0.78728 0.10106 0.0
C1973 C 0.99718 0.7424 0.13187 0.0
C1974 C 0.99329 0.74494 0.11011 0.0
H1975 H 0.01452 0.75288 0.15903 0.0
H1976 H 0.98983 0.72967 0.14061 0.0
C1977 C 1.00313 0.76175 0.09946 0.0
C1978 C 0.49482 0.73846 0.64297 0.0
C1979 C 0.49842 0.7413 0.62124 0.0
H1980 H 0.5038 0.74691 0.6745 0.0
C1981 C 0.5126 0.7571 0.61476 0.0
H1982 H 0.484 0.72644 0.64851 0.0
C1983 C 0.52382 0.76896 0.62963 0.0
C1984 C 0.52131 0.76513 0.65138 0.0
H1985 H 0.51562 0.75982 0.59813 0.0
H1986 H 0.53523 0.78038 0.62403 0.0
C1987 C 0.50623 0.75017 0.65788 0.0
C1988 C 0.4853 0.74416 0.1245 0.0
C1989 C 0.48487 0.7503 0.14584 0.0
H1990 H 0.4973 0.75049 0.09347 0.0
C1991 C 0.49843 0.76652 0.15255 0.0
H1992 H 0.47505 0.73173 0.11882 0.0
C1993 C 0.51133 0.77713 0.1381 0.0
C1994 C 0.51076 0.77195 0.11652 0.0
H1995 H 0.4986 0.77152 0.16891 0.0
H1996 H 0.52097 0.79006 0.14373 0.0
C1997 C 0.49802 0.75497 0.10997 0.0
C1998 C 0.12504 0.51886 0.76229 0.0
C1999 C 0.1031 0.52168 0.76045 0.0
H2000 H 0.1523 0.50165 0.75222 0.0
C2001 C 0.09221 0.51027 0.74484 0.0
H2002 H 0.13397 0.52745 0.77408 0.0
C2003 C 0.10273 0.49542 0.73232 0.0
C2004 C 0.12442 0.49165 0.73508 0.0
H2005 H 0.07535 0.51207 0.74289 0.0
H2006 H 0.09365 0.4863 0.72108 0.0
C2007 C 0.13558 0.50404 0.74974 0.0
C2008 C 0.24355 0.88022 0.02667 0.0
C2009 C 0.24992 0.85899 0.0273 0.0
H2010 H 0.24998 0.91134 0.01497 0.0
C2011 C 0.26664 0.8525 0.01427 0.0
H2012 H 0.23074 0.88573 0.03654 0.0
C2013 C 0.27751 0.86709 1.00175 0.0
C2014 C 0.2721 0.8886 1.0022 0.0
H2015 H 0.27183 0.83622 0.01429 0.0
H2016 H 0.29083 0.86164 0.99256 0.0
C2017 C 0.25463 0.89491 0.01435 0.0
C2018 C 0.91611 0.01035 0.25636 0.0
C2019 C 0.90499 0.9991 0.27195 0.0
H2020 H 0.91495 0.03344 0.23171 0.0
C2021 C 0.88294 1.00139 0.27295 0.0
H2022 H 0.93306 0.00889 0.25499 0.0
C2023 C 0.87247 0.01552 0.25944 0.0
C2024 C 0.88385 0.02769 0.24471 0.0
H2025 H 0.87386 0.99293 0.28471 0.0
H2026 H 0.85562 0.01757 0.2612 0.0
C2027 C 0.90569 0.02448 0.24297 0.0
C2028 C 0.75256 0.66481 0.5037 0.0
C2029 C 0.76514 0.65368 0.51823 0.0
H2030 H 0.72837 0.66339 0.48021 0.0
C2031 C 0.76407 0.63149 0.51838 0.0
H2032 H 0.75306 0.68188 0.503 0.0
C2033 C 0.7498 0.62081 0.50522 0.0
C2034 C 0.7363 0.63209 0.49163 0.0
H2035 H 0.77356 0.6224 0.52933 0.0
H2036 H 0.7487 0.60379 0.50639 0.0
C2037 C 0.73835 0.65417 0.49059 0.0
C2038 C 0.10623 0.5123 0.25612 0.0
C2039 C 0.11277 0.49836 0.24011 0.0
H2040 H 0.11545 0.53491 0.27954 0.0
C2041 C 0.13448 0.49512 0.23711 0.0
H2042 H 0.08963 0.51507 0.25897 0.0
C2043 C 0.14928 0.5066 0.24882 0.0
C2044 C 0.14274 0.52145 0.26397 0.0
H2045 H 0.1401 0.48447 0.22498 0.0
H2046 H 0.16587 0.5044 0.24542 0.0
C2047 C 0.12105 0.52364 0.26799 0.0
C2048 C 0.24461 0.86195 0.52196 0.0
C2049 C 0.2406 0.88358 0.51902 0.0
H2050 H 0.26057 0.83434 0.51091 0.0
C2051 C 0.25159 0.89438 0.503 0.0
H2052 H 0.23653 0.85315 0.5342 0.0
C2053 C 0.26535 0.88353 0.48953 0.0
C2054 C 0.26854 0.86167 0.49184 0.0
H2055 H 0.24892 0.91104 0.50029 0.0
H2056 H 0.27293 0.89217 0.47686 0.0
C2057 C 0.25845 0.85115 0.50858 0.0
C2058 C 0.85766 0.01787 0.76496 0.0
C2059 C 0.86563 0.99761 0.76936 0.0
H2060 H 0.86149 0.0468 0.74777 0.0
C2061 C 0.8851 0.99179 0.76047 0.0
H2062 H 0.84274 0.02292 0.77155 0.0
C2063 C 0.8958 1.00543 0.74675 0.0
C2064 C 0.88738 0.02533 0.74163 0.0
H2065 H 0.8918 0.97636 0.76352 0.0
H2066 H 0.91042 1.00012 0.73972 0.0
C2067 C 0.86843 0.03158 0.7513 0.0
C2068 C 0.7645 0.6286 1.00525 0.0
C2069 C 0.77576 0.64023 0.02048 0.0
H2070 H 0.74306 0.62943 0.97906 0.0
C2071 C 0.77219 0.66209 0.02188 0.0
H2072 H 0.76681 0.61174 1.00371 0.0
C2073 C 0.75849 0.67221 0.00779 0.0
C2074 C 0.74808 0.66077 0.99185 0.0
H2075 H 0.78051 0.67153 0.03345 0.0
H2076 H 0.75669 0.68917 0.00893 0.0
C2077 C 0.75088 0.63876 0.99106 0.0
C2078 C 0.25097 0.63863 0.49346 0.0
C2079 C 0.25013 0.66084 0.49309 0.0
H2080 H 0.26554 0.61101 0.5067 0.0
C2081 C 0.26237 0.67212 0.50777 0.0
H2082 H 0.24173 0.62942 0.48241 0.0
C2083 C 0.276 0.66161 0.52159 0.0
C2084 C 0.27774 0.63949 0.52122 0.0
H2085 H 0.26205 0.68921 0.5081 0.0
H2086 H 0.28573 0.67094 0.53211 0.0
C2087 C 0.2646 0.62806 0.50742 0.0
C2088 C 0.75514 0.40766 0.0146 0.0
C2089 C 0.77098 0.40109 1.0005 0.0
H2090 H 0.73227 0.39853 0.0378 0.0
C2091 C 0.77436 0.37933 0.99776 0.0
H2092 H 0.75203 0.42428 0.01703 0.0
C2093 C 0.76316 0.36457 0.00981 0.0
C2094 C 0.74812 0.37118 0.02473 0.0
H2095 H 0.7864 0.37369 0.98703 0.0
H2096 H 0.76681 0.34798 0.00794 0.0
C2097 C 0.74376 0.39287 0.02649 0.0
C2098 C 0.37145 0.51022 0.25894 0.0
C2099 C 0.38261 0.52144 0.24334 0.0
H2100 H 0.37305 0.48863 0.28496 0.0
C2101 C 0.40429 0.51747 0.2409 0.0
H2102 H 0.35474 0.51283 0.26123 0.0
C2103 C 0.41477 0.5035 0.25446 0.0
C2104 C 0.40387 0.49325 0.27087 0.0
H2105 H 0.41336 0.52572 0.22898 0.0
H2106 H 0.43162 0.50147 0.2526 0.0
C2107 C 0.38197 0.49634 0.27258 0.0
C2108 C 0.24245 0.14418 0.49462 0.0
C2109 C 0.24372 0.12238 0.49858 0.0
H2110 H 0.25251 0.17519 0.50362 0.0
C2111 C 0.25845 0.1151 0.51352 0.0
H2112 H 0.2313 0.15033 0.4832 0.0
C2113 C 0.27071 0.12933 0.52513 0.0
C2114 C 0.2684 0.15121 0.52222 0.0
H2115 H 0.25996 0.0984 0.51686 0.0
H2116 H 0.28124 0.12317 0.53712 0.0
C2117 C 0.25459 0.15844 0.50638 0.0
C2118 C 0.75719 0.34588 0.51784 0.0
C2119 C 0.76742 0.35699 0.50154 0.0
H2120 H 0.73453 0.34674 0.54286 0.0
C2121 C 0.76367 0.3788 0.49958 0.0
H2122 H 0.75972 0.3291 0.5199 0.0
C2123 C 0.74921 0.38898 0.51287 0.0
C2124 C 0.73808 0.37756 0.52835 0.0
H2125 H 0.77131 0.38789 0.48727 0.0
H2126 H 0.74612 0.40561 0.51039 0.0
C2127 C 0.74268 0.35602 0.53103 0.0
C2128 C 0.3896 0.00963 0.24533 0.0
C2129 C 0.37864 0.02526 0.23396 0.0
H2130 H 0.3877 0.98363 0.26693 0.0
C2131 C 0.35687 0.02755 0.23746 0.0
H2132 H 0.40639 0.00743 0.2431 0.0
C2133 C 0.34615 0.01391 0.25118 0.0
C2134 C 0.35692 0.99759 0.26172 0.0
H2135 H 0.34792 0.03945 0.22906 0.0
H2136 H 0.32926 0.01572 0.25291 0.0
C2137 C 0.37887 0.99595 0.25902 0.0
C2138 C 0.63009 0.49939 0.74234 0.0
C2139 C 0.60846 0.49519 0.74493 0.0
H2140 H 0.65707 0.51672 0.75309 0.0
C2141 C 0.59786 0.50438 0.76212 0.0
H2142 H 0.63878 0.49251 0.72934 0.0
C2143 C 0.60833 0.51836 0.77567 0.0
C2144 C 0.62969 0.52337 0.77248 0.0
H2145 H 0.58123 0.50147 0.76466 0.0
H2146 H 0.59944 0.52577 0.78824 0.0
C2147 C 0.64061 0.51324 0.75602 0.0
C2148 C 0.50962 0.2542 0.86633 0.0
C2149 C 0.49286 0.267 0.87321 0.0
H2150 H 0.53348 0.23182 0.8748 0.0
C2151 C 0.48884 0.26839 0.89502 0.0
H2152 H 0.51325 0.25285 0.84967 0.0
C2153 C 0.50037 0.25621 0.90944 0.0
C2154 C 0.51632 0.24248 0.90243 0.0
H2155 H 0.4761 0.27812 0.9009 0.0
H2156 H 0.49622 0.25697 0.92602 0.0
C2157 C 0.52127 0.24216 0.88077 0.0
C2158 C 0.50439 0.26596 0.36271 0.0
C2159 C 0.5196 0.25109 0.36909 0.0
H2160 H 0.48176 0.28915 0.37224 0.0
C2161 C 0.52201 0.24692 0.39078 0.0
H2162 H 0.50203 0.26947 0.34613 0.0
C2163 C 0.51048 0.25833 0.40577 0.0
C2164 C 0.49612 0.27402 0.39942 0.0
H2165 H 0.53354 0.23556 0.39626 0.0
H2166 H 0.5134 0.25536 0.42237 0.0
C2167 C 0.49271 0.27722 0.3777 0.0
C2168 C 0.50543 0.75019 0.36058 0.0
C2169 C 0.48936 0.76397 0.36722 0.0
H2170 H 0.52836 0.72701 0.36961 0.0
C2171 C 0.48565 0.76631 0.38898 0.0
H2172 H 0.50877 0.74811 0.34394 0.0
C2173 C 0.49672 0.75405 0.40366 0.0
C2174 C 0.51195 0.7394 0.39695 0.0
H2175 H 0.47341 0.77677 0.39465 0.0
H2176 H 0.49279 0.75553 0.42025 0.0
C2177 C 0.51671 0.73813 0.3753 0.0
C2178 C 0.49767 0.75302 0.84554 0.0
C2179 C 0.51292 0.74176 0.85709 0.0
H2180 H 0.47375 0.77683 0.846 0.0
C2181 C 0.51387 0.74458 0.87912 0.0
H2182 H 0.49643 0.75121 0.82857 0.0
C2183 C 0.50077 0.75925 0.88915 0.0
C2184 C 0.4865 0.77153 0.87736 0.0
H2185 H 0.52533 0.73608 0.88853 0.0
H2186 H 0.50255 0.76165 0.906 0.0
C2187 C 0.48466 0.76778 0.85555 0.0
C2188 C 0.6544 0.00843 0.76599 0.0
C2189 C 0.648 0.99348 0.75085 0.0
H2190 H 0.64498 0.03038 0.78993 0.0
C2191 C 0.62632 0.99091 0.74699 0.0
H2192 H 0.67097 0.01091 0.7693 0.0
C2193 C 0.6114 1.00197 0.75894 0.0
C2194 C 0.61779 0.01603 0.77491 0.0
H2195 H 0.62079 0.97958 0.73543 0.0
H2196 H 0.59483 0.9989 0.75617 0.0
C2197 C 0.63947 0.01965 0.77781 0.0
C2198 C 0.64151 0.49276 0.26088 0.0
C2199 C 0.6322 0.48576 0.24196 0.0
H2200 H 0.63799 0.51064 0.28932 0.0
C2201 C 0.61198 0.49318 0.23667 0.0
H2202 H 0.65712 0.48747 0.26538 0.0
C2203 C 0.60089 0.50636 0.25055 0.0
C2204 C 0.60988 0.51262 0.26989 0.0
H2205 H 0.60434 0.48812 0.22224 0.0
H2206 H 0.58504 0.51114 0.24637 0.0
C2207 C 0.63055 0.50612 0.2746 0.0
C2208 C 0.10352 0.36408 0.04386 0.0
C2209 C 0.10138 0.34884 0.0599 0.0
H2210 H 0.12348 0.38677 0.02881 0.0
C2211 C 0.11921 0.34323 0.07181 0.0
H2212 H 0.09014 0.36864 0.03425 0.0
C2213 C 0.13841 0.35368 0.06865 0.0
C2214 C 0.14013 0.36992 0.05354 0.0
H2215 H 0.11809 0.33154 0.08426 0.0
H2216 H 0.15163 0.34965 0.07871 0.0
C2217 C 0.12266 0.37451 0.04072 0.0
C2218 C 0.89349 0.35148 0.29998 0.0
C2219 C 0.90973 0.35033 0.31511 0.0
H2220 H 0.87035 0.37065 0.2846 0.0
C2221 C 0.91627 0.36894 0.32519 0.0
H2222 H 0.88819 0.33746 0.29176 0.0
C2223 C 0.90596 0.38807 0.32106 0.0
C2224 C 0.88897 0.38895 0.30672 0.0
H2225 H 0.92873 0.36859 0.33688 0.0
H2226 H 0.91084 0.402 0.32967 0.0
C2227 C 0.88326 0.37054 0.29581 0.0
C2228 C 0.87184 0.15042 0.57548 0.0
C2229 C 0.87003 0.13492 0.55963 0.0
H2230 H 0.89183 0.173 0.5909 0.0
C2231 C 0.88689 0.13197 0.5456 0.0
H2232 H 0.85904 0.1532 0.58644 0.0
C2233 C 0.90565 0.14324 0.54824 0.0
C2234 C 0.90786 0.15789 0.56479 0.0
H2235 H 0.88599 0.12025 0.53319 0.0
H2236 H 0.91872 0.13991 0.53776 0.0
C2237 C 0.89055 0.16189 0.57796 0.0
C2238 C 0.10502 0.12742 0.82071 0.0
C2239 C 0.11946 0.12502 0.80399 0.0
H2240 H 0.08352 0.14794 0.83682 0.0
C2241 C 0.12143 0.14137 0.78913 0.0
H2242 H 0.10297 0.11504 0.83235 0.0
C2243 C 0.11026 0.1602 0.79171 0.0
C2244 C 0.09679 0.16308 0.80914 0.0
H2245 H 0.13228 0.14 0.776 0.0
H2246 H 0.11284 0.17284 0.78046 0.0
C2247 C 0.09375 0.14623 0.82323 0.0
C2248 C 0.09831 0.63206 0.96191 0.0
C2249 C 0.098 0.65186 0.95181 0.0
H2250 H 0.11691 0.60634 0.97335 0.0
C2251 C 0.11724 0.66163 0.94683 0.0
H2252 H 0.08379 0.62412 0.96615 0.0
C2253 C 0.13636 0.65139 0.95111 0.0
C2254 C 0.13657 0.63117 0.96038 0.0
H2255 H 0.11754 0.6769 0.93913 0.0
H2256 H 0.15092 0.65903 0.94649 0.0
C2257 C 0.11733 0.62184 0.96611 0.0
C2258 C 0.62027 0.34547 0.21694 0.0
C2259 C 0.60149 0.3457 0.20508 0.0
H2260 H 0.64493 0.36343 0.23135 0.0
C2261 C 0.59223 0.36522 0.20013 0.0
H2262 H 0.62778 0.33072 0.22121 0.0
C2263 C 0.60211 0.3841 0.20612 0.0
C2264 C 0.62145 0.3838 0.21708 0.0
H2265 H 0.57776 0.36594 0.19108 0.0
H2266 H 0.59496 0.39891 0.20145 0.0
C2267 C 0.63014 0.36426 0.22281 0.0
C2268 C 0.87374 0.85781 0.44235 0.0
C2269 C 0.87128 0.87202 0.45927 0.0
H2270 H 0.89387 0.83566 0.42669 0.0
C2271 C 0.88697 0.87289 0.47489 0.0
H2272 H 0.86184 0.85659 0.43014 0.0
C2273 C 0.90533 0.86082 0.47291 0.0
C2274 C 0.90835 0.84756 0.45533 0.0
H2275 H 0.8855 0.88352 0.48819 0.0
H2276 H 0.91754 0.86256 0.48475 0.0
C2277 C 0.89205 0.84567 0.44043 0.0
C2278 C 0.38245 0.14129 0.72738 0.0
C2279 C 0.38743 0.12311 0.71578 0.0
H2280 H 0.3889 0.17391 0.73289 0.0
C2281 C 0.40463 0.12378 0.70172 0.0
H2282 H 0.36941 0.14131 0.73842 0.0
C2283 C 0.41586 0.14255 0.6985 0.0
C2284 C 0.4101 0.16102 0.70927 0.0
H2285 H 0.40897 0.11001 0.69259 0.0
H2286 H 0.42846 0.14278 0.68696 0.0
C2287 C 0.39365 0.16001 0.72417 0.0
C2288 C 0.03786 0.1209 0.37556 0.0
C2289 C 0.05393 0.13614 0.37574 0.0
H2290 H 0.02745 0.091 0.36387 0.0
C2291 C 0.0712 0.13362 0.362 0.0
H2292 H 0.02428 0.12244 0.3858 0.0
C2293 C 0.07299 0.11564 0.34932 0.0
C2294 C 0.05758 0.09975 0.35017 0.0
H2295 H 0.08378 0.14518 0.36157 0.0
H2296 H 0.08697 0.11374 0.3397 0.0
C2297 C 0.03968 0.10289 0.36293 0.0
C2298 C 0.14902 0.28273 0.5962 0.0
C2299 C 0.15587 0.30386 0.59555 0.0
H2300 H 0.12756 0.26026 0.60976 0.0
C2301 C 0.14521 0.31889 0.60786 0.0
H2302 H 0.15693 0.27076 0.58694 0.0
C2303 C 0.12877 0.31279 0.62123 0.0
C2304 C 0.1223 0.29158 0.62237 0.0
H2305 H 0.15013 0.33527 0.60787 0.0
H2306 H 0.12124 0.32474 0.63085 0.0
C2307 C 0.13226 0.27668 0.60933 0.0
C2308 C 0.96534 0.41224 0.87315 0.0
C2309 C 0.95092 0.4131 0.85625 0.0
H2310 H 0.97993 0.39338 0.89711 0.0
C2311 C 0.9413 0.39434 0.84947 0.0
H2312 H 0.97321 0.42638 0.87866 0.0
C2313 C 0.94519 0.37533 0.86013 0.0
C2314 C 0.95882 0.37471 0.87771 0.0
H2315 H 0.93016 0.39446 0.8365 0.0
H2316 H 0.93694 0.36127 0.855 0.0
C2317 C 0.96927 0.39328 0.88373 0.0
C2318 C 0.8535 0.22329 0.1194 0.0
C2319 C 0.84969 0.20608 0.10586 0.0
H2320 H 0.87452 0.23784 0.14152 0.0
C2321 C 0.86572 0.19111 0.10287 0.0
H2322 H 0.84151 0.23517 0.12197 0.0
C2323 C 0.88461 0.19259 0.11419 0.0
C2324 C 0.88791 0.20913 0.12866 0.0
H2325 H 0.86331 0.17767 0.09258 0.0
H2326 H 0.89631 0.18033 0.11213 0.0
C2327 C 0.87242 0.22482 0.13064 0.0
C2328 C 0.06435 0.88883 0.63193 0.0
C2329 C 0.04605 0.87717 0.6364 0.0
H2330 H 0.08491 0.91391 0.64123 0.0
C2331 C 0.03433 0.88212 0.65457 0.0
H2332 H 0.07389 0.88517 0.61822 0.0
C2333 C 0.04048 0.8989 0.66764 0.0
C2334 C 0.05885 0.91049 0.66316 0.0
H2335 H 0.02024 0.87327 0.65845 0.0
H2336 H 0.03087 0.90284 0.68122 0.0
C2337 C 0.07083 0.9051 0.6453 0.0
C2338 C 0.36574 0.3181 0.91833 0.0
C2339 C 0.34754 0.30829 0.91039 0.0
H2340 H 0.39893 0.32298 0.91482 0.0
C2341 C 0.34955 0.29397 0.89352 0.0
H2342 H 0.36474 0.32915 0.93133 0.0
C2343 C 0.3691 0.29044 0.88403 0.0
C2344 C 0.38711 0.30115 0.89118 0.0
H2345 H 0.33586 0.286 0.88711 0.0
H2346 H 0.36993 0.27992 0.87057 0.0
C2347 C 0.38533 0.31456 0.90882 0.0
C2348 C 0.94469 0.62985 0.14164 0.0
C2349 C 0.9654 0.63774 0.1419 0.0
H2350 H 0.92281 0.60729 0.15396 0.0
C2351 C 0.97999 0.62901 0.15616 0.0
H2352 H 0.933 0.63642 0.13103 0.0
C2353 C 0.97419 0.61206 0.16919 0.0
C2354 C 0.95357 0.60389 0.16859 0.0
H2355 H 0.99603 0.63484 0.15678 0.0
H2356 H 0.98596 0.60509 0.17946 0.0
C2357 C 0.93878 0.61329 0.15498 0.0
C2358 C 0.64196 0.19343 0.4165 0.0
C2359 C 0.66091 0.20202 0.40895 0.0
H2360 H 0.60865 0.19031 0.41193 0.0
C2361 C 0.66026 0.21584 0.39153 0.0
H2362 H 0.64193 0.18278 0.4299 0.0
C2363 C 0.64126 0.2202 0.38126 0.0
C2364 C 0.62244 0.2108 0.38812 0.0
H2365 H 0.67456 0.22291 0.38541 0.0
H2366 H 0.64147 0.23038 0.3675 0.0
C2367 C 0.62291 0.19775 0.40616 0.0
C2368 C 0.34438 0.0315 0.11241 0.0
C2369 C 0.3439 0.05229 0.10457 0.0
H2370 H 0.3581 0.00985 0.13461 0.0
C2371 C 0.35665 0.06763 0.11425 0.0
H2372 H 0.33476 0.01931 0.10526 0.0
C2373 C 0.37029 0.06211 0.13069 0.0
C2374 C 0.37128 0.0412 0.13809 0.0
H2375 H 0.35678 0.08376 0.10855 0.0
H2376 H 0.38027 0.07425 0.13744 0.0
C2377 C 0.3578 0.02605 0.12915 0.0
C2378 C 0.85426 0.95135 0.37879 0.0
C2379 C 0.87366 0.9622 0.3786 0.0
H2380 H 0.82996 0.93705 0.39761 0.0
C2381 C 0.8825 0.96852 0.39791 0.0
H2382 H 0.84701 0.94624 0.36417 0.0
C2383 C 0.87271 0.96333 0.41697 0.0
C2384 C 0.85387 0.95158 0.41726 0.0
H2385 H 0.89734 0.97698 0.39837 0.0
H2386 H 0.88034 0.96804 0.43154 0.0
C2387 C 0.84448 0.94604 0.39794 0.0
C2388 C 0.32171 0.1009 0.64741 0.0
C2389 C 0.31176 0.10812 0.66584 0.0
H2390 H 0.32697 0.10587 0.61436 0.0
C2391 C 0.29773 0.12526 0.66439 0.0
H2392 H 0.33256 0.08773 0.648 0.0
C2393 C 0.29449 0.13563 0.64519 0.0
C2394 C 0.30526 0.12915 0.62696 0.0
H2395 H 0.28964 0.13111 0.67826 0.0
H2396 H 0.2841 0.14919 0.64483 0.0
C2397 C 0.31851 0.11135 0.62815 0.0
C2398 C 0.15021 0.5866 0.86068 0.0
C2399 C 0.13877 0.56756 0.86066 0.0
H2400 H 0.17138 0.60687 0.87748 0.0
C2401 C 0.1419 0.55316 0.87724 0.0
H2402 H 0.14824 0.59803 0.8481 0.0
C2403 C 0.1555 0.55812 0.89395 0.0
C2404 C 0.16596 0.57772 0.89456 0.0
H2405 H 0.13345 0.53831 0.87759 0.0
H2406 H 0.15697 0.54701 0.90688 0.0
C2407 C 0.16353 0.59169 0.87751 0.0
C2408 C 0.20881 0.88056 0.16547 0.0
C2409 C 0.19759 0.89972 0.16538 0.0
H2410 H 0.22261 0.85573 0.14733 0.0
C2411 C 0.19298 0.90932 0.14591 0.0
H2412 H 0.21283 0.87278 0.18017 0.0
C2413 C 0.19876 0.8995 0.12694 0.0
C2414 C 0.20921 0.87988 0.1271 0.0
H2415 H 0.18445 0.92412 0.14531 0.0
H2416 H 0.19441 0.90695 0.11216 0.0
C2417 C 0.21451 0.87076 0.1466 0.0
C2418 C 0.63275 0.97156 0.11671 0.0
C2419 C 0.63849 0.96135 0.13553 0.0
H2420 H 0.63802 0.97479 0.08354 0.0
C2421 C 0.65589 0.94753 0.13533 0.0
H2422 H 0.61954 0.98238 0.11631 0.0
C2423 C 0.66655 0.94313 0.11646 0.0
C2424 C 0.66 0.95246 0.09744 0.0
H2425 H 0.66082 0.93948 0.1496 0.0
H2426 H 0.6793 0.93178 0.11665 0.0
C2427 C 0.64337 0.96716 0.09789 0.0
C2428 C 0.28656 0.38678 0.87434 0.0
C2429 C 0.30248 0.38789 0.88971 0.0
H2430 H 0.27594 0.39679 0.84386 0.0
C2431 C 0.3192 0.40222 0.88673 0.0
H2432 H 0.27339 0.37605 0.8762 0.0
C2433 C 0.32061 0.41424 0.86822 0.0
C2434 C 0.30538 0.4121 0.85225 0.0
H2435 H 0.33165 0.40362 0.89837 0.0
H2436 H 0.3342 0.42436 0.86598 0.0
C2437 C 0.28802 0.39872 0.8558 0.0
C2438 C 0.69403 0.10924 0.39128 0.0
C2439 C 0.70844 0.12611 0.39274 0.0
H2440 H 0.67886 0.08658 0.3712 0.0
C2441 C 0.72018 0.13168 0.37479 0.0
H2442 H 0.68479 0.10445 0.40485 0.0
C2443 C 0.71677 0.12142 0.35556 0.0
C2444 C 0.70155 0.10533 0.3538 0.0
H2445 H 0.73147 0.1445 0.37537 0.0
H2446 H 0.72562 0.12663 0.34188 0.0
C2447 C 0.69063 0.09894 0.37201 0.0
C2448 C 0.12648 0.88325 0.53758 0.0
C2449 C 0.14318 0.88048 0.55188 0.0
H2450 H 0.09478 0.87518 0.52939 0.0
C2451 C 0.14116 0.86524 0.56796 0.0
H2452 H 0.12756 0.89476 0.52496 0.0
C2453 C 0.12241 0.85385 0.57041 0.0
C2454 C 0.10525 0.85764 0.55693 0.0
H2455 H 0.15383 0.86258 0.57913 0.0
H2456 H 0.12102 0.84291 0.58349 0.0
C2457 C 0.10769 0.87202 0.54014 0.0
C2458 C 0.89493 0.85089 0.79657 0.0
C2459 C 0.91381 0.85074 0.80829 0.0
H2460 H 0.86974 0.8692 0.78359 0.0
C2461 C 0.92263 0.8701 0.81451 0.0
H2462 H 0.88773 0.83629 0.79136 0.0
C2463 C 0.91227 0.8891 0.8099 0.0
C2464 C 0.89284 0.8891 0.79908 0.0
H2465 H 0.93714 0.87053 0.82352 0.0
H2466 H 0.91911 0.90372 0.81551 0.0
C2467 C 0.88457 0.86979 0.79208 0.0
C2468 C 0.88374 0.65879 0.02404 0.0
C2469 C 0.87212 0.64723 0.03899 0.0
H2470 H 0.90983 0.67964 0.01855 0.0
C2471 C 0.87678 0.64985 0.06055 0.0
H2472 H 0.88042 0.65721 0.00732 0.0
C2473 C 0.89325 0.66299 0.06701 0.0
C2474 C 0.90574 0.67358 0.05204 0.0
H2475 H 0.86792 0.64142 0.07251 0.0
H2476 H 0.89683 0.66398 0.08372 0.0
C2477 C 0.90051 0.6717 0.03049 0.0
C2478 C 0.11762 0.66084 0.29436 0.0
C2479 C 0.10032 0.66172 0.30826 0.0
H2480 H 0.14194 0.64193 0.28061 0.0
C2481 C 0.09299 0.64291 0.31742 0.0
H2482 H 0.12357 0.67501 0.28687 0.0
C2483 C 0.10358 0.62386 0.31378 0.0
C2484 C 0.12169 0.62327 0.30092 0.0
H2485 H 0.07972 0.64304 0.32817 0.0
H2486 H 0.09805 0.60979 0.32177 0.0
C2487 C 0.12818 0.64185 0.29074 0.0
C2488 C 0.12501 0.14331 0.46441 0.0
C2489 C 0.14493 0.14782 0.45588 0.0
H2490 H 0.09221 0.151 0.46502 0.0
C2491 C 0.14709 0.16542 0.44244 0.0
H2492 H 0.1228 0.12996 0.47488 0.0
C2493 C 0.12952 0.17749 0.43669 0.0
C2494 C 0.1094 0.17228 0.4443 0.0
H2495 H 0.16224 0.16946 0.43568 0.0
H2496 H 0.13163 0.1904 0.42566 0.0
C2497 C 0.10746 0.15542 0.45871 0.0
C2498 C 0.6354 0.87217 0.72316 0.0
C2499 C 0.62853 0.89063 0.713 0.0
H2500 H 0.63125 0.83897 0.72725 0.0
C2501 C 0.61046 0.88966 0.70008 0.0
H2502 H 0.64918 0.87236 0.73327 0.0
C2503 C 0.60013 0.87045 0.69658 0.0
C2504 C 0.60769 0.85182 0.70591 0.0
H2505 H 0.60468 0.90362 0.69208 0.0
H2506 H 0.58672 0.87008 0.68598 0.0
C2507 C 0.62511 0.853 0.71965 0.0
C2508 C 0.89254 0.35218 0.94423 0.0
C2509 C 0.91143 0.35955 0.95313 0.0
H2510 H 0.85938 0.35719 0.94039 0.0
C2511 C 0.91077 0.37705 0.96679 0.0
H2512 H 0.89253 0.33873 0.93369 0.0
C2513 C 0.89186 0.3876 0.97066 0.0
C2514 C 0.87314 0.38094 0.96092 0.0
H2515 H 0.92502 0.38302 0.97409 0.0
H2516 H 0.89209 0.40142 0.98072 0.0
C2517 C 0.87357 0.36281 0.94806 0.0
C2518 C 0.39379 0.65519 0.22172 0.0
C2519 C 0.40718 0.65839 0.20428 0.0
H2520 H 0.3722 0.63448 0.23745 0.0
C2521 C 0.41039 0.64169 0.19008 0.0
H2522 H 0.39107 0.6677 0.23304 0.0
C2523 C 0.39946 0.62266 0.19257 0.0
C2524 C 0.38518 0.61989 0.20937 0.0
H2525 H 0.42059 0.64363 0.17649 0.0
H2526 H 0.40169 0.61038 0.18089 0.0
C2527 C 0.38295 0.63614 0.22427 0.0
C2528 C 0.06549 0.62362 0.84523 0.0
C2529 C 0.05502 0.60493 0.8509 0.0
H2530 H 0.07132 0.65606 0.85267 0.0
C2531 C 0.04037 0.60551 0.86759 0.0
H2532 H 0.07685 0.62372 0.83247 0.0
C2533 C 0.03723 0.62397 0.87921 0.0
C2534 C 0.04867 0.64232 0.87443 0.0
H2535 H 0.03187 0.59142 0.87227 0.0
H2536 H 0.02646 0.62358 0.89249 0.0
C2537 C 0.06234 0.64214 0.85689 0.0
C2538 C 0.13134 0.83811 0.10062 0.0
C2539 C 0.14803 0.82394 0.09742 0.0
H2540 H 0.10253 0.8446 0.1167 0.0
C2541 C 0.1472 0.80402 0.10733 0.0
H2542 H 0.13142 0.85352 0.0932 0.0
C2543 C 0.13063 0.79892 0.12108 0.0
C2544 C 0.11451 0.81358 0.12506 0.0
H2545 H 0.15985 0.79274 0.10525 0.0
H2546 H 0.13081 0.7838 0.12907 0.0
C2547 C 0.11478 0.83298 0.1142 0.0
C2548 C 0.95717 0.88189 0.36933 0.0
C2549 C 0.94375 0.86459 0.37276 0.0
H2550 H 0.961 0.9123 0.35502 0.0
C2551 C 0.92396 0.86427 0.36269 0.0
H2552 H 0.97255 0.88255 0.37675 0.0
C2553 C 0.91725 0.88135 0.35044 0.0
C2554 C 0.93029 0.89903 0.34768 0.0
H2555 H 0.91322 0.85116 0.36494 0.0
H2556 H 0.90157 0.88098 0.34366 0.0
C2557 C 0.95058 0.89887 0.35676 0.0
C2558 C 0.8551 0.71326 0.62296 0.0
C2559 C 0.85439 0.69935 0.60565 0.0
H2560 H 0.87405 0.72838 0.64645 0.0
C2561 C 0.87337 0.69138 0.59756 0.0
H2562 H 0.84076 0.71988 0.62945 0.0
C2563 C 0.89256 0.69627 0.6074 0.0
C2564 C 0.8931 0.7093 0.62543 0.0
H2565 H 0.87333 0.68067 0.58424 0.0
H2566 H 0.90686 0.68922 0.60131 0.0
C2567 C 0.87422 0.71821 0.6327 0.0
C2568 C 0.08241 0.36545 0.15477 0.0
C2569 C 0.06371 0.36612 0.1428 0.0
H2570 H 0.10339 0.38194 0.17551 0.0
C2571 C 0.05061 0.38389 0.14449 0.0
H2572 H 0.09286 0.35197 0.15393 0.0
C2573 C 0.05654 0.401 0.15717 0.0
C2574 C 0.07585 0.40079 0.16818 0.0
H2575 H 0.03605 0.38484 0.13559 0.0
H2576 H 0.04646 0.41478 0.15753 0.0
C2577 C 0.08847 0.38264 0.16719 0.0
C2578 C 0.36395 0.78552 0.41911 0.0
C2579 C 0.35585 0.80617 0.41823 0.0
H2580 H 0.38636 0.76337 0.4066 0.0
C2581 C 0.36489 0.82066 0.40406 0.0
H2582 H 0.35721 0.77399 0.4298 0.0
C2583 C 0.38096 0.81441 0.39039 0.0
C2584 C 0.38877 0.79367 0.39092 0.0
H2585 H 0.35891 0.83662 0.40279 0.0
H2586 H 0.38725 0.82585 0.37933 0.0
C2587 C 0.38051 0.77941 0.40578 0.0
C2588 C 0.95878 0.12889 0.6468 0.0
C2589 C 0.94545 0.14626 0.64346 0.0
H2590 H 0.96246 0.09838 0.661 0.0
C2591 C 0.9257 0.14662 0.6536 0.0
H2592 H 0.97411 0.12819 0.6393 0.0
C2593 C 0.91892 0.12951 0.66577 0.0
C2594 C 0.93187 0.11178 0.66846 0.0
H2595 H 0.915 0.15977 0.65142 0.0
H2596 H 0.90325 0.1299 0.67257 0.0
C2597 C 0.95214 0.11189 0.65935 0.0
C2598 C 0.61559 0.67713 0.90423 0.0
C2599 C 0.61558 0.69592 0.89234 0.0
H2600 H 0.63295 0.65646 0.92458 0.0
C2601 C 0.63298 0.70954 0.89391 0.0
H2602 H 0.6024 0.66629 0.90348 0.0
C2603 C 0.65042 0.704 0.90631 0.0
C2604 C 0.65092 0.68459 0.91716 0.0
H2605 H 0.6334 0.72418 0.88507 0.0
H2606 H 0.66391 0.71448 0.90652 0.0
C2607 C 0.6331 0.67147 0.91638 0.0
C2608 C 0.34426 0.5689 0.6185 0.0
C2609 C 0.35067 0.55937 0.59955 0.0
H2610 H 0.35007 0.57272 0.65161 0.0
C2611 C 0.36698 0.54431 0.60021 0.0
H2612 H 0.33178 0.58056 0.61854 0.0
C2613 C 0.37751 0.53984 0.6191 0.0
C2614 C 0.37201 0.55033 0.63781 0.0
H2615 H 0.37222 0.53651 0.58593 0.0
H2616 H 0.39053 0.52879 0.61882 0.0
C2617 C 0.35483 0.56444 0.63744 0.0
C2618 C 0.87098 0.47175 0.91004 0.0
C2619 C 0.85425 0.45725 0.91184 0.0
H2620 H 0.89475 0.48529 0.89023 0.0
C2621 C 0.84752 0.44644 0.8937 0.0
H2622 H 0.87649 0.48049 0.92367 0.0
C2623 C 0.85804 0.44923 0.87446 0.0
C2624 C 0.8755 0.46291 0.87296 0.0
H2625 H 0.83467 0.4352 0.89454 0.0
H2626 H 0.85293 0.44009 0.86094 0.0
C2627 C 0.88148 0.47455 0.89084 0.0
C2628 C 0.315 0.59944 0.12836 0.0
C2629 C 0.30027 0.61597 0.12655 0.0
H2630 H 0.33064 0.57753 0.14893 0.0
C2631 C 0.28838 0.6216 0.14437 0.0
H2632 H 0.32435 0.59462 0.11489 0.0
C2633 C 0.29197 0.61178 0.16381 0.0
C2634 C 0.30752 0.59608 0.16591 0.0
H2635 H 0.27682 0.63415 0.14352 0.0
H2636 H 0.28302 0.61706 0.17737 0.0
C2637 C 0.31859 0.58957 0.14785 0.0
C2638 C 0.16338 0.07875 0.3932 0.0
C2639 C 0.16064 0.06538 0.41068 0.0
H2640 H 0.15372 0.08644 0.36171 0.0
C2641 C 0.14718 0.04782 0.40873 0.0
H2642 H 0.1736 0.09242 0.3942 0.0
C2643 C 0.13582 0.04435 0.39014 0.0
C2644 C 0.13754 0.05846 0.37312 0.0
H2645 H 0.14484 0.03712 0.42189 0.0
H2646 H 0.12503 0.03111 0.38946 0.0
C2647 C 0.15188 0.07537 0.37463 0.0
C2648 C 0.19141 0.40587 0.62664 0.0
C2649 C 0.20518 0.38845 0.62592 0.0
H2650 H 0.17648 0.42937 0.64588 0.0
C2651 C 0.21606 0.38268 0.64435 0.0
H2652 H 0.18284 0.41082 0.61269 0.0
C2653 C 0.21242 0.39333 0.66331 0.0
C2654 C 0.19783 0.41003 0.66431 0.0
H2655 H 0.22687 0.36945 0.64434 0.0
H2656 H 0.22059 0.38798 0.67737 0.0
C2657 C 0.18778 0.41657 0.64565 0.0
C2658 C 0.65304 0.44177 0.61325 0.0
C2659 C 0.6689 0.45546 0.60597 0.0
H2660 H 0.62698 0.43726 0.63421 0.0
C2661 C 0.67109 0.47536 0.61555 0.0
H2662 H 0.65075 0.42642 0.60606 0.0
C2663 C 0.65759 0.48147 0.63199 0.0
C2664 C 0.64125 0.46805 0.63866 0.0
H2665 H 0.68309 0.48629 0.61018 0.0
H2666 H 0.65958 0.49689 0.63909 0.0
C2667 C 0.63923 0.44809 0.62921 0.0
C2668 C 0.28295 0.91122 0.37976 0.0
C2669 C 0.29624 0.8946 0.38601 0.0
H2670 H 0.27778 0.93659 0.35783 0.0
C2671 C 0.31566 0.89199 0.37569 0.0
H2672 H 0.26795 0.91366 0.38753 0.0
C2673 C 0.32157 0.90545 0.35924 0.0
C2674 C 0.30796 0.92155 0.35236 0.0
H2675 H 0.32638 0.87951 0.38035 0.0
H2676 H 0.33647 0.90266 0.35136 0.0
C2677 C 0.28863 0.92439 0.36286 0.0
C2678 C 0.69683 0.59665 0.86563 0.0
C2679 C 0.70283 0.6054 0.84614 0.0
H2680 H 0.69645 0.60019 0.89932 0.0
C2681 C 0.71482 0.6241 0.84608 0.0
H2682 H 0.68763 0.58226 0.86623 0.0
C2683 C 0.71982 0.63438 0.86492 0.0
C2684 C 0.71303 0.62621 0.88438 0.0
H2685 H 0.7199 0.63123 0.83137 0.0
H2686 H 0.72851 0.64909 0.86416 0.0
C2687 C 0.70192 0.60694 0.88458 0.0
C2688 C 0.62308 0.37392 0.54395 0.0
C2689 C 0.63928 0.37184 0.55892 0.0
H2690 H 0.59189 0.36494 0.53471 0.0
C2691 C 0.63693 0.35696 0.5753 0.0
H2692 H 0.62443 0.38513 0.53109 0.0
C2693 C 0.61831 0.34528 0.57734 0.0
C2694 C 0.6016 0.34831 0.56311 0.0
H2695 H 0.64919 0.35482 0.58702 0.0
H2696 H 0.61667 0.33464 0.59064 0.0
C2697 C 0.60442 0.36232 0.54605 0.0
C2698 C 0.4085 0.36852 0.82884 0.0
C2699 C 0.40506 0.35065 0.81623 0.0
H2700 H 0.39923 0.40016 0.83603 0.0
C2701 C 0.39039 0.35192 0.79957 0.0
H2702 H 0.41966 0.36804 0.8418 0.0
C2703 C 0.37872 0.37033 0.79619 0.0
C2704 C 0.38133 0.38782 0.80951 0.0
H2705 H 0.38746 0.33844 0.78947 0.0
H2706 H 0.3671 0.37057 0.78364 0.0
C2707 C 0.39669 0.38688 0.82557 0.0
C2708 C 0.39224 0.16389 0.06854 0.0
C2709 C 0.41073 0.15727 0.05833 0.0
H2710 H 0.35942 0.15812 0.07392 0.0
C2711 C 0.4095 0.1406 0.0437 0.0
H2712 H 0.39266 0.17668 0.07988 0.0
C2713 C 0.39053 0.12993 0.04032 0.0
C2714 C 0.37231 0.13567 0.05149 0.0
H2715 H 0.42341 0.13521 0.03539 0.0
H2716 H 0.39037 0.11665 0.02955 0.0
C2717 C 0.37321 0.15319 0.06515 0.0
C2718 C 0.6197 0.16287 0.29672 0.0
C2719 C 0.60291 0.16411 0.31119 0.0
H2720 H 0.64359 0.14363 0.28268 0.0
C2721 C 0.5962 0.14563 0.32143 0.0
H2722 H 0.62518 0.17678 0.28842 0.0
C2723 C 0.6068 0.12655 0.31809 0.0
C2724 C 0.62431 0.12558 0.30445 0.0
H2725 H 0.5833 0.14605 0.33263 0.0
H2726 H 0.6017 0.11273 0.32679 0.0
C2727 C 0.63028 0.14384 0.29339 0.0
C2728 C 0.6183 0.66131 0.44076 0.0
C2729 C 0.60166 0.65871 0.45515 0.0
H2730 H 0.649 0.65126 0.43109 0.0
C2731 C 0.60441 0.64495 0.47241 0.0
H2732 H 0.6167 0.67175 0.4273 0.0
C2733 C 0.62294 0.63319 0.47462 0.0
C2734 C 0.63906 0.63484 0.45953 0.0
H2735 H 0.59193 0.64267 0.48386 0.0
H2736 H 0.62425 0.6222 0.48767 0.0
C2737 C 0.63678 0.64944 0.4429 0.0
C2738 C 0.12036 0.37634 0.72426 0.0
C2739 C 0.11898 0.39193 0.70853 0.0
H2740 H 0.11093 0.34553 0.73438 0.0
C2741 C 0.10461 0.38904 0.69181 0.0
H2742 H 0.13113 0.37813 0.73742 0.0
C2743 C 0.09291 0.3704 0.69011 0.0
C2744 C 0.09542 0.35418 0.70504 0.0
H2745 H 0.10297 0.40085 0.67954 0.0
H2746 H 0.08279 0.36826 0.67649 0.0
C2747 C 0.10874 0.35766 0.7225 0.0
C2748 C 0.37651 0.85337 0.94882 0.0
C2749 C 0.37582 0.87096 0.96239 0.0
H2750 H 0.39579 0.83045 0.93313 0.0
C2751 C 0.39452 0.87766 0.97217 0.0
H2752 H 0.36235 0.84772 0.9411 0.0
C2753 C 0.41364 0.86773 0.96761 0.0
C2754 C 0.41452 0.85087 0.95318 0.0
H2755 H 0.39454 0.89106 0.98278 0.0
H2756 H 0.42785 0.87378 0.97492 0.0
C2757 C 0.39567 0.84342 0.94426 0.0
C2758 C 0.9134 0.14609 0.19213 0.0
C2759 C 0.91095 0.16267 0.20661 0.0
H2760 H 0.90343 0.1153 0.18255 0.0
C2761 C 0.89757 0.15973 0.22411 0.0
H2762 H 0.92354 0.14784 0.17848 0.0
C2763 C 0.88601 0.14107 0.22646 0.0
C2764 C 0.8875 0.12499 0.2113 0.0
H2765 H 0.89542 0.17216 0.23564 0.0
H2766 H 0.8753 0.13962 0.2397 0.0
C2767 C 0.90175 0.12747 0.19443 0.0
C2768 C 0.5846 0.1477 0.86308 0.0
C2769 C 0.56632 0.14616 0.87559 0.0
H2770 H 0.6055 0.13236 0.84144 0.0
C2771 C 0.55383 0.12792 0.87401 0.0
H2772 H 0.59458 0.16155 0.86381 0.0
C2773 C 0.55998 0.11125 0.86083 0.0
C2774 C 0.5789 0.11238 0.84923 0.0
H2775 H 0.53961 0.12629 0.88334 0.0
H2776 H 0.55041 0.09709 0.86052 0.0
C2777 C 0.59089 0.13096 0.85019 0.0
C2778 C 0.63622 0.29175 0.1279 0.0
C2779 C 0.61972 0.30631 0.12545 0.0
H2780 H 0.66799 0.28361 0.12007 0.0
C2781 C 0.62217 0.32297 0.11092 0.0
H2782 H 0.63482 0.27868 0.13886 0.0
C2783 C 0.64115 0.32572 0.09999 0.0
C2784 C 0.65813 0.31195 0.10352 0.0
H2785 H 0.60968 0.33437 0.10852 0.0
H2786 H 0.64287 0.33925 0.08967 0.0
C2787 C 0.65524 0.29459 0.11711 0.0
C2788 C 0.47969 0.37956 0.35971 0.0
C2789 C 0.46746 0.37449 0.37751 0.0
H2790 H 0.48361 0.4001 0.33295 0.0
C2791 C 0.44871 0.38569 0.38116 0.0
H2792 H 0.49414 0.37105 0.35647 0.0
C2793 C 0.44233 0.40167 0.36738 0.0
C2794 C 0.45483 0.40721 0.34991 0.0
H2795 H 0.43877 0.38194 0.39457 0.0
H2796 H 0.42791 0.41015 0.37084 0.0
C2797 C 0.47361 0.39604 0.34621 0.0
C2798 C 0.35559 0.21839 0.62682 0.0
C2799 C 0.35426 0.20447 0.60956 0.0
H2800 H 0.37492 0.23168 0.65113 0.0
C2801 C 0.37268 0.19447 0.60247 0.0
H2802 H 0.34173 0.22652 0.63259 0.0
C2803 C 0.39179 0.19745 0.61316 0.0
C2804 C 0.39284 0.21053 0.63112 0.0
H2805 H 0.37219 0.1837 0.5892 0.0
H2806 H 0.40556 0.18892 0.60777 0.0
C2807 C 0.37465 0.2214 0.63746 0.0
C2808 C 0.56494 0.87686 0.15154 0.0
C2809 C 0.5517 0.87575 0.1337 0.0
H2810 H 0.57981 0.89667 0.17463 0.0
C2811 C 0.54178 0.89423 0.12659 0.0
H2812 H 0.57277 0.86288 0.15751 0.0
C2813 C 0.54582 0.91354 0.13642 0.0
C2814 C 0.55987 0.91484 0.1536 0.0
H2815 H 0.53143 0.89393 0.11298 0.0
H2816 H 0.53838 0.92757 0.13009 0.0
C2817 C 0.56898 0.89621 0.1614 0.0
C2818 C 0.87111 0.3204 0.41962 0.0
C2819 C 0.85283 0.30955 0.41341 0.0
H2820 H 0.90385 0.32616 0.41372 0.0
C2821 C 0.85434 0.29438 0.39724 0.0
H2822 H 0.87049 0.33216 0.43201 0.0
C2823 C 0.87339 0.29095 0.38673 0.0
C2824 C 0.89142 0.30261 0.39213 0.0
H2825 H 0.8406 0.28559 0.39216 0.0
H2826 H 0.87377 0.27969 0.37388 0.0
C2827 C 0.89021 0.31698 0.40906 0.0
C2828 C 0.44934 0.63583 0.65773 0.0
C2829 C 0.46054 0.63706 0.63856 0.0
H2830 H 0.43453 0.61572 0.68069 0.0
C2831 C 0.46677 0.61829 0.62863 0.0
H2832 H 0.44429 0.65002 0.66579 0.0
C2833 C 0.46119 0.59876 0.63713 0.0
C2834 C 0.44918 0.59747 0.65577 0.0
H2835 H 0.47549 0.61863 0.61392 0.0
H2836 H 0.4659 0.58466 0.62873 0.0
C2837 C 0.44369 0.6162 0.66626 0.0
C2838 C 0.12411 0.19016 0.9006 0.0
C2839 C 0.12148 0.20689 0.88617 0.0
H2840 H 0.14507 0.17387 0.92161 0.0
C2841 C 0.13787 0.22158 0.88372 0.0
H2842 H 0.1117 0.17867 0.90302 0.0
C2843 C 0.15697 0.21879 0.89438 0.0
C2844 C 0.16006 0.20135 0.90782 0.0
H2845 H 0.13631 0.23471 0.87286 0.0
H2846 H 0.16963 0.22989 0.89142 0.0
C2847 C 0.14319 0.18746 0.91138 0.0
C2848 C 0.85394 0.058 0.63932 0.0
C2849 C 0.87348 0.04744 0.63928 0.0
H2850 H 0.829 0.07156 0.62077 0.0
C2851 C 0.8819 0.04077 0.61991 0.0
H2852 H 0.847 0.06337 0.65399 0.0
C2853 C 0.87156 0.04537 0.60099 0.0
C2854 C 0.85258 0.05689 0.60089 0.0
H2855 H 0.89682 0.03249 0.61929 0.0
H2856 H 0.87887 0.04043 0.58635 0.0
C2857 C 0.8436 0.06273 0.6203 0.0
C2858 C 0.36772 0.96506 0.91241 0.0
C2859 C 0.35384 0.94788 0.9149 0.0
H2860 H 0.39 0.98085 0.89247 0.0
C2861 C 0.35061 0.9342 0.89777 0.0
H2862 H 0.37048 0.97597 0.92528 0.0
C2863 C 0.36193 0.93694 0.879 0.0
C2864 C 0.37661 0.95349 0.8769 0.0
H2865 H 0.34006 0.92082 0.89918 0.0
H2866 H 0.35962 0.92567 0.86635 0.0
C2867 C 0.37893 0.96787 0.8936 0.0
C2868 C 0.82339 0.10199 0.15075 0.0
C2869 C 0.80919 0.10443 0.16756 0.0
H2870 H 0.83281 0.11233 0.11998 0.0
C2871 C 0.79199 0.11826 0.16505 0.0
H2872 H 0.83682 0.09153 0.15217 0.0
C2873 C 0.78967 0.13022 0.14659 0.0
C2874 C 0.80457 0.1287 0.13028 0.0
H2875 H 0.78068 0.12044 0.17768 0.0
H2876 H 0.77666 0.14123 0.14547 0.0
C2877 C 0.82114 0.11404 0.13234 0.0
C2878 C 0.63154 0.53788 0.39656 0.0
C2879 C 0.63756 0.54858 0.37809 0.0
H2880 H 0.63639 0.53371 0.4297 0.0
C2881 C 0.655 0.56235 0.37894 0.0
H2882 H 0.61829 0.5271 0.39647 0.0
C2883 C 0.66544 0.56618 0.39806 0.0
C2884 C 0.65864 0.55634 0.41674 0.0
H2885 H 0.66014 0.57078 0.36496 0.0
H2886 H 0.67825 0.57749 0.39836 0.0
C2887 C 0.64195 0.54172 0.41564 0.0
C2888 C 0.69346 0.91358 0.64511 0.0
C2889 C 0.70372 0.90751 0.66381 0.0
H2890 H 0.68822 0.90705 0.61233 0.0
C2891 C 0.71832 0.8908 0.66305 0.0
H2892 H 0.68216 0.92639 0.64516 0.0
C2893 C 0.72181 0.87972 0.64431 0.0
C2894 C 0.71075 0.88505 0.62585 0.0
H2895 H 0.72666 0.88581 0.67714 0.0
H2896 H 0.73265 0.86652 0.6445 0.0
C2897 C 0.69693 0.90244 0.62632 0.0
C2898 C 0.15919 0.94949 0.63266 0.0
C2899 C 0.14222 0.96376 0.63397 0.0
H2900 H 0.18238 0.93484 0.61284 0.0
C2901 C 0.13719 0.97601 0.61618 0.0
H2902 H 0.16357 0.93987 0.64612 0.0
C2903 C 0.14802 0.97316 0.59718 0.0
C2904 C 0.16413 0.95799 0.59549 0.0
H2905 H 0.12435 0.98726 0.61666 0.0
H2906 H 0.14317 0.98234 0.58358 0.0
C2907 C 0.17005 0.94662 0.61361 0.0
C2908 C 0.79501 0.38071 0.3749 0.0
C2909 C 0.80595 0.38696 0.39312 0.0
H2910 H 0.79058 0.38495 0.34172 0.0
C2911 C 0.81994 0.4042 0.3918 0.0
H2912 H 0.78404 0.36761 0.37535 0.0
C2913 C 0.8237 0.41424 0.37242 0.0
C2914 C 0.8136 0.40716 0.354 0.0
H2915 H 0.82857 0.40949 0.40558 0.0
H2916 H 0.83514 0.42692 0.37171 0.0
C2917 C 0.79882 0.39066 0.35558 0.0
C2918 C 0.2244 0.09127 0.85862 0.0
C2919 C 0.20477 0.09475 0.84888 0.0
H2920 H 0.24635 0.10127 0.88249 0.0
C2921 C 0.19224 0.11166 0.85583 0.0
H2922 H 0.23444 0.07846 0.85347 0.0
C2923 C 0.19936 0.12509 0.87179 0.0
C2924 C 0.21894 0.12163 0.88158 0.0
H2925 H 0.17718 0.11496 0.84845 0.0
H2926 H 0.18936 0.13806 0.87666 0.0
C2927 C 0.23126 0.10439 0.87509 0.0
C2928 C 0.6051 0.86461 0.04252 0.0
C2929 C 0.60162 0.85115 0.05987 0.0
H2930 H 0.62598 0.88638 0.02727 0.0
C2931 C 0.618 0.84798 0.07445 0.0
H2932 H 0.59283 0.86729 0.03091 0.0
C2933 C 0.63699 0.85906 0.07241 0.0
C2934 C 0.64002 0.8734 0.05568 0.0
H2935 H 0.61581 0.83774 0.08799 0.0
H2936 H 0.64902 0.85687 0.08437 0.0
C2937 C 0.62411 0.87557 0.04041 0.0
C2938 C 0.40622 0.88934 0.31209 0.0
C2939 C 0.38887 0.89042 0.29823 0.0
H2940 H 0.42926 0.86965 0.32718 0.0
C2941 C 0.38303 0.87223 0.28702 0.0
H2942 H 0.41124 0.90311 0.32089 0.0
C2943 C 0.39342 0.85311 0.29058 0.0
C2944 C 0.40987 0.85171 0.30546 0.0
H2945 H 0.36988 0.87252 0.27611 0.0
H2946 H 0.38793 0.83923 0.28226 0.0
C2947 C 0.41663 0.87017 0.31567 0.0
C2948 C 0.36645 0.65282 0.58893 0.0
C2949 C 0.36685 0.64257 0.56922 0.0
H2950 H 0.38252 0.67286 0.61083 0.0
C2951 C 0.38373 0.64664 0.55543 0.0
H2952 H 0.35362 0.65022 0.59992 0.0
C2953 C 0.4003 0.65993 0.56167 0.0
C2954 C 0.40037 0.66925 0.58188 0.0
H2955 H 0.38445 0.63912 0.5401 0.0
H2956 H 0.41348 0.66211 0.55103 0.0
C2957 C 0.38301 0.66591 0.59521 0.0
C2958 C 0.59655 0.64052 0.82391 0.0
C2959 C 0.59766 0.65668 0.80876 0.0
H2960 H 0.60839 0.61066 0.83428 0.0
C2961 C 0.61046 0.65373 0.79084 0.0
H2962 H 0.58687 0.64227 0.83789 0.0
C2963 C 0.62289 0.63563 0.78878 0.0
C2964 C 0.62281 0.62011 0.80463 0.0
H2965 H 0.6116 0.66583 0.77879 0.0
H2966 H 0.63318 0.63423 0.77521 0.0
C2967 C 0.60902 0.62244 0.82188 0.0
C2968 C 0.62305 0.16528 0.94811 0.0
C2969 C 0.6043 0.15762 0.95705 0.0
H2970 H 0.65629 0.16085 0.94434 0.0
C2971 C 0.60531 0.14041 0.97108 0.0
H2972 H 0.62279 0.17853 0.93728 0.0
C2973 C 0.62443 0.13029 0.97515 0.0
C2974 C 0.64301 0.13711 0.96523 0.0
H2975 H 0.59117 0.13424 0.97842 0.0
H2976 H 0.62447 0.1166 0.98541 0.0
C2977 C 0.64223 0.1551 0.95214 0.0
C2978 C 0.12655 0.86804 0.22545 0.0
C2979 C 0.12075 0.8863 0.21431 0.0
H2980 H 0.1214 0.83506 0.23026 0.0
C2981 C 0.10321 0.88539 0.20066 0.0
H2982 H 0.13986 0.8682 0.23618 0.0
C2983 C 0.09256 0.86631 0.19724 0.0
C2984 C 0.09926 0.84777 0.20738 0.0
H2985 H 0.09821 0.89921 0.19192 0.0
H2986 H 0.07978 0.8659 0.18589 0.0
C2987 C 0.11594 0.84902 0.22202 0.0
C2988 C 0.37224 0.36244 0.44757 0.0
C2989 C 0.37023 0.37777 0.46354 0.0
H2990 H 0.39224 0.33984 0.43237 0.0
C2991 C 0.38679 0.38034 0.47804 0.0
H2992 H 0.35969 0.35991 0.43625 0.0
C2993 C 0.40545 0.36882 0.47578 0.0
C2994 C 0.40793 0.35439 0.45906 0.0
H2995 H 0.38571 0.3919 0.49059 0.0
H2996 H 0.41826 0.37185 0.48669 0.0
C2997 C 0.39086 0.35082 0.44539 0.0
C2998 C 0.90979 0.62607 0.70286 0.0
C2999 C 0.89047 0.62599 0.71384 0.0
H3000 H 0.93432 0.64472 0.68873 0.0
C3001 C 0.88196 0.64531 0.72047 0.0
H3002 H 0.91681 0.61144 0.6975 0.0
C3003 C 0.89203 0.66428 0.71553 0.0
C3004 C 0.91082 0.66447 0.7037 0.0
H3005 H 0.86719 0.64584 0.72904 0.0
H3006 H 0.88467 0.67887 0.72051 0.0
C3007 C 0.91984 0.64513 0.69778 0.0
C3008 C 0.54362 0.61822 0.38527 0.0
C3009 C 0.55412 0.63651 0.37849 0.0
H3010 H 0.53973 0.58494 0.38173 0.0
C3011 C 0.56791 0.63513 0.3611 0.0
H3012 H 0.53283 0.61872 0.39852 0.0
C3013 C 0.57188 0.61568 0.35139 0.0
C3014 C 0.56221 0.59724 0.35896 0.0
H3015 H 0.57619 0.64896 0.3554 0.0
H3016 H 0.58313 0.61497 0.33854 0.0
C3017 C 0.54764 0.59883 0.37564 0.0
C3018 C 0.66122 0.79289 0.62529 0.0
C3019 C 0.66284 0.8073 0.60843 0.0
H3020 H 0.64166 0.77941 0.64931 0.0
C3021 C 0.64466 0.81798 0.60168 0.0
H3022 H 0.67489 0.78425 0.6308 0.0
C3023 C 0.62553 0.81516 0.61235 0.0
C3024 C 0.62422 0.8016 0.62996 0.0
H3025 H 0.64537 0.82915 0.58874 0.0
H3026 H 0.61197 0.8242 0.60725 0.0
C3027 C 0.64214 0.79007 0.63593 0.0
C3028 C 0.43794 0.89336 0.84771 0.0
C3029 C 0.45323 0.90924 0.84993 0.0
H3030 H 0.42721 0.86291 0.85764 0.0
C3031 C 0.47099 0.90526 0.86268 0.0
H3032 H 0.42407 0.89591 0.83805 0.0
C3033 C 0.47279 0.88635 0.87396 0.0
C3034 C 0.45683 0.87104 0.8728 0.0
H3035 H 0.48313 0.91712 0.86465 0.0
H3036 H 0.48626 0.88415 0.88425 0.0
C3037 C 0.4397 0.87448 0.85906 0.0
C3038 C 0.34629 0.71126 0.12152 0.0
C3039 C 0.34535 0.69601 0.10539 0.0
H3040 H 0.36532 0.7271 0.1445 0.0
C3041 C 0.3641 0.68623 0.09885 0.0
H3042 H 0.33217 0.71925 0.12684 0.0
C3043 C 0.38317 0.69078 0.10902 0.0
C3044 C 0.38387 0.70521 0.12593 0.0
H3045 H 0.36392 0.67446 0.08645 0.0
H3046 H 0.39721 0.68241 0.10412 0.0
C3047 C 0.36532 0.71581 0.13166 0.0
C3048 C 0.5732 0.37297 0.6556 0.0
C3049 C 0.55586 0.36914 0.64225 0.0
H3050 H 0.58856 0.39457 0.67658 0.0
C3051 C 0.5392 0.38371 0.64196 0.0
H3052 H 0.58622 0.36195 0.65639 0.0
C3053 C 0.54052 0.40239 0.65364 0.0
C3054 C 0.55852 0.40689 0.66587 0.0
H3055 H 0.52553 0.38115 0.63203 0.0
H3056 H 0.52783 0.41374 0.65229 0.0
C3057 C 0.57451 0.39164 0.66731 0.0
C3058 C 0.87386 0.8281 0.9115 0.0
C3059 C 0.85647 0.81531 0.90665 0.0
H3060 H 0.90579 0.83617 0.90405 0.0
C3061 C 0.85887 0.79897 0.89182 0.0
H3062 H 0.87242 0.84086 0.92279 0.0
C3063 C 0.87795 0.79617 0.8812 0.0
C3064 C 0.89493 0.80985 0.88498 0.0
H3065 H 0.84573 0.78878 0.88787 0.0
H3066 H 0.87904 0.78393 0.86931 0.0
C3067 C 0.89289 0.82548 0.90065 0.0
C3068 C 0.42139 0.13032 0.16665 0.0
C3069 C 0.43397 0.11228 0.16897 0.0
H3070 H 0.41743 0.16034 0.15181 0.0
C3071 C 0.45369 0.11164 0.15877 0.0
H3072 H 0.40614 0.13129 0.17429 0.0
C3073 C 0.46005 0.12817 0.14547 0.0
C3074 C 0.44697 0.1458 0.14242 0.0
H3075 H 0.46371 0.09786 0.16012 0.0
H3076 H 0.4749 0.12686 0.13713 0.0
C3077 C 0.42789 0.14696 0.15369 0.0
C3078 C 0.13356 0.66846 0.41294 0.0
C3079 C 0.15008 0.68275 0.41654 0.0
H3080 H 0.1045 0.66227 0.39712 0.0
C3081 C 0.14875 0.7031 0.40763 0.0
H3082 H 0.13403 0.6527 0.41959 0.0
C3083 C 0.13183 0.70857 0.39444 0.0
C3084 C 0.11583 0.69387 0.39008 0.0
H3085 H 0.16126 0.71449 0.41003 0.0
H3086 H 0.13162 0.72407 0.38721 0.0
C3087 C 0.11663 0.67397 0.39996 0.0
C3088 C 0.87138 0.54264 0.12173 0.0
C3089 C 0.86966 0.55755 0.13803 0.0
H3090 H 0.86228 0.53383 0.09041 0.0
C3091 C 0.85507 0.57415 0.13578 0.0
H3092 H 0.88233 0.52958 0.123 0.0
C3093 C 0.84345 0.57654 0.11711 0.0
C3094 C 0.84626 0.56244 0.10025 0.0
H3095 H 0.85317 0.58581 0.14813 0.0
H3096 H 0.83314 0.59007 0.11551 0.0
C3097 C 0.85984 0.54508 0.10304 0.0
C3098 C 0.3675 0.46892 0.4163 0.0
C3099 C 0.35093 0.45422 0.41792 0.0
H3100 H 0.39127 0.48279 0.39675 0.0
C3101 C 0.34439 0.44345 0.39968 0.0
H3102 H 0.37282 0.47764 0.43001 0.0
C3103 C 0.35504 0.44644 0.38052 0.0
C3104 C 0.37241 0.46026 0.37923 0.0
H3105 H 0.33168 0.43205 0.4004 0.0
H3106 H 0.35015 0.43729 0.36693 0.0
C3107 C 0.3781 0.47191 0.3972 0.0
C3108 C 0.84325 0.59571 0.6337 0.0
C3109 C 0.83084 0.59417 0.65197 0.0
H3110 H 0.84686 0.60916 0.60297 0.0
C3111 C 0.81112 0.60438 0.65236 0.0
H3112 H 0.85848 0.58803 0.6329 0.0
C3113 C 0.80456 0.61689 0.63529 0.0
C3114 C 0.81743 0.61913 0.61738 0.0
H3115 H 0.80122 0.60361 0.66628 0.0
H3116 H 0.78971 0.62526 0.63638 0.0
C3117 C 0.83654 0.60788 0.61655 0.0
C3118 C 0.66771 0.06711 0.8975 0.0
C3119 C 0.6589 0.0607 0.91681 0.0
H3120 H 0.66443 0.06798 0.86381 0.0
C3121 C 0.64031 0.04856 0.91656 0.0
H3122 H 0.68204 0.07641 0.89715 0.0
C3123 C 0.63021 0.04377 0.89757 0.0
C3124 C 0.63848 0.05092 0.87829 0.0
H3125 H 0.63314 0.04318 0.93113 0.0
H3126 H 0.61559 0.03494 0.89807 0.0
C3127 C 0.65761 0.06224 0.87841 0.0
C3128 C 0.70162 0.40646 0.15739 0.0
C3129 C 0.68189 0.41665 0.15709 0.0
H3130 H 0.72315 0.38601 0.14109 0.0
C3131 C 0.66954 0.41547 0.13874 0.0
H3132 H 0.71147 0.40695 0.17136 0.0
C3133 C 0.67633 0.40369 0.12139 0.0
C3134 C 0.69548 0.39249 0.12209 0.0
H3135 H 0.65429 0.42313 0.13801 0.0
H3136 H 0.66608 0.40269 0.10773 0.0
C3137 C 0.70827 0.39434 0.14012 0.0
C3138 C 0.12608 0.46822 0.11731 0.0
C3139 C 0.13441 0.46198 0.13688 0.0
H3140 H 0.129 0.46737 0.08375 0.0
C3141 C 0.15364 0.45087 0.13728 0.0
H3142 H 0.11138 0.47687 0.11642 0.0
C3143 C 0.16378 0.44526 0.11843 0.0
C3144 C 0.15491 0.45073 0.09884 0.0
H3145 H 0.16051 0.44582 0.15212 0.0
H3146 H 0.17818 0.43612 0.1192 0.0
C3147 C 0.13622 0.4627 0.09855 0.0
C3148 C 0.83726 0.90492 0.89664 0.0
C3149 C 0.81811 0.89374 0.89529 0.0
H3150 H 0.85957 0.92491 0.88098 0.0
C3151 C 0.80561 0.89621 0.87714 0.0
H3152 H 0.84731 0.90345 0.9104 0.0
C3153 C 0.81254 0.90892 0.86036 0.0
C3154 C 0.83228 0.91908 0.86127 0.0
H3155 H 0.79076 0.8879 0.87565 0.0
H3156 H 0.80291 0.90988 0.84625 0.0
C3157 C 0.84433 0.91728 0.87977 0.0
C3158 C 0.21936 0.63576 0.36802 0.0
C3159 C 0.21298 0.62737 0.38752 0.0
H3160 H 0.21868 0.633 0.33444 0.0
C3161 C 0.20171 0.6082 0.38775 0.0
H3162 H 0.22812 0.65041 0.36725 0.0
C3163 C 0.19608 0.5982 0.3688 0.0
C3164 C 0.20175 0.60712 0.34928 0.0
H3165 H 0.19652 0.60132 0.40252 0.0
H3166 H 0.18683 0.58385 0.36944 0.0
C3167 C 0.21388 0.62573 0.34917 0.0
loop_
_geom_bond_atom_site_label_1
_geom_bond_atom_site_label_2
_geom_bond_distance
_geom_bond_site_symmetry_2
_ccdc_geom_bond_type
Mg0 O7 2.141 . S
Mg0 O8 2.048 . S
Mg0 O9 2.048 . S
Mg0 O12 2.141 . S
C1 O2 1.313 . S
C1 O8 1.195 . S
O2 C1 1.313 . S
C3 O4 1.245 . S
C3 O12 1.289 . S
O4 C3 1.245 . S
C5 O6 1.245 . S
C5 O7 1.289 . S
O6 C5 1.245 . S
O7 Mg0 2.141 . S
O7 C5 1.289 . S
O8 Mg0 2.048 . S
O8 C1 1.195 . S
O9 Mg0 2.048 . S
O9 C10 1.195 . S
C10 O9 1.195 . S
C10 O11 1.313 . S
O11 C10 1.313 . S
O12 Mg0 2.141 . S
O12 C3 1.289 . S
Mg13 O20 2.141 . S
Mg13 O21 2.048 . S
Mg13 O22 2.048 . S
Mg13 O25 2.141 . S
C14 O15 1.313 . S
C14 O21 1.195 . S
O15 C14 1.313 . S
C16 O17 1.245 . S
C16 O25 1.289 . S
O17 C16 1.245 . S
C18 O19 1.245 . S
C18 O20 1.289 . S
O19 C18 1.245 . S
O20 Mg13 2.141 . S
O20 C18 1.289 . S
O21 Mg13 2.048 . S
O21 C14 1.195 . S
O22 Mg13 2.048 . S
O22 C23 1.195 . S
C23 O22 1.195 . S
C23 O24 1.313 . S
O24 C23 1.313 . S
O25 Mg13 2.141 . S
O25 C16 1.289 . S
Mg26 O33 2.141 . S
Mg26 O34 2.048 . S
Mg26 O35 2.048 . S
Mg26 O38 2.141 . S
C27 O28 1.313 . S
C27 O34 1.195 . S
O28 C27 1.313 . S
C29 O30 1.245 . S
C29 O38 1.289 . S
O30 C29 1.245 . S
C31 O32 1.245 . S
C31 O33 1.289 . S
O32 C31 1.245 . S
O33 Mg26 2.141 . S
O33 C31 1.289 . S
O34 Mg26 2.048 . S
O34 C27 1.195 . S
O35 Mg26 2.048 . S
O35 C36 1.195 . S
C36 O35 1.195 . S
C36 O37 1.313 . S
O37 C36 1.313 . S
O38 Mg26 2.141 . S
O38 C29 1.289 . S
Mg39 O46 2.141 . S
Mg39 O47 2.048 . S
Mg39 O48 2.048 . S
Mg39 O51 2.141 . S
C40 O41 1.313 . S
C40 O47 1.195 . S
O41 C40 1.313 . S
C42 O43 1.245 . S
C42 O51 1.289 . S
O43 C42 1.245 . S
C44 O45 1.245 . S
C44 O46 1.289 . S
O45 C44 1.245 . S
O46 Mg39 2.141 . S
O46 C44 1.289 . S
O47 Mg39 2.048 . S
O47 C40 1.195 . S
O48 Mg39 2.048 . S
O48 C49 1.195 . S
C49 O48 1.195 . S
C49 O50 1.313 . S
O50 C49 1.313 . S
O51 Mg39 2.141 . S
O51 C42 1.289 . S
Mg52 O59 2.141 . S
Mg52 O60 2.048 . S
Mg52 O61 2.048 . S
Mg52 O64 2.141 . S
C53 O54 1.313 . S
C53 O60 1.195 . S
O54 C53 1.313 . S
C55 O56 1.245 . S
C55 O64 1.289 . S
O56 C55 1.245 . S
C57 O58 1.245 . S
C57 O59 1.289 . S
O58 C57 1.245 . S
O59 Mg52 2.141 . S
O59 C57 1.289 . S
O60 Mg52 2.048 . S
O60 C53 1.195 . S
O61 Mg52 2.048 . S
O61 C62 1.195 . S
C62 O61 1.195 . S
C62 O63 1.313 . S
O63 C62 1.313 . S
O64 Mg52 2.141 . S
O64 C55 1.289 . S
Mg65 O72 2.141 . S
Mg65 O73 2.048 . S
Mg65 O74 2.048 . S
Mg65 O77 2.141 . S
C66 O67 1.313 . S
C66 O73 1.195 . S
O67 C66 1.313 . S
C68 O69 1.245 . S
C68 O77 1.289 . S
O69 C68 1.245 . S
C70 O71 1.245 . S
C70 O72 1.289 . S
O71 C70 1.245 . S
O72 Mg65 2.141 . S
O72 C70 1.289 . S
O73 Mg65 2.048 . S
O73 C66 1.195 . S
O74 Mg65 2.048 . S
O74 C75 1.195 . S
C75 O74 1.195 . S
C75 O76 1.313 . S
O76 C75 1.313 . S
O77 Mg65 2.141 . S
O77 C68 1.289 . S
Mg78 O85 2.141 . S
Mg78 O86 2.048 . S
Mg78 O87 2.048 . S
Mg78 O90 2.141 . S
C79 O80 1.313 . S
C79 O86 1.195 . S
O80 C79 1.313 . S
C81 O82 1.245 . S
C81 O90 1.289 . S
O82 C81 1.245 . S
C83 O84 1.245 . S
C83 O85 1.289 . S
O84 C83 1.245 . S
O85 Mg78 2.141 . S
O85 C83 1.289 . S
O86 Mg78 2.048 . S
O86 C79 1.195 . S
O87 Mg78 2.048 . S
O87 C88 1.195 . S
C88 O87 1.195 . S
C88 O89 1.313 . S
O89 C88 1.313 . S
O90 Mg78 2.141 . S
O90 C81 1.289 . S
Mg91 O98 2.141 . S
Mg91 O99 2.048 . S
Mg91 O100 2.048 . S
Mg91 O103 2.141 . S
C92 O93 1.313 . S
C92 O99 1.195 . S
O93 C92 1.313 . S
C94 O95 1.245 . S
C94 O103 1.289 . S
O95 C94 1.245 . S
C96 O97 1.245 . S
C96 O98 1.289 . S
O97 C96 1.245 . S
O98 Mg91 2.141 . S
O98 C96 1.289 . S
O99 Mg91 2.048 . S
O99 C92 1.195 . S
O100 Mg91 2.048 . S
O100 C101 1.195 . S
C101 O100 1.195 . S
C101 O102 1.313 . S
O102 C101 1.313 . S
O103 Mg91 2.141 . S
O103 C94 1.289 . S
Mg104 O111 2.141 . S
Mg104 O112 2.048 . S
Mg104 O113 2.048 . S
Mg104 O116 2.141 . S
C105 O106 1.313 . S
C105 O112 1.195 . S
O106 C105 1.313 . S
C107 O108 1.245 . S
C107 O116 1.289 . S
O108 C107 1.245 . S
C109 O110 1.245 . S
C109 O111 1.289 . S
O110 C109 1.245 . S
O111 Mg104 2.141 . S
O111 C109 1.289 . S
O112 Mg104 2.048 . S
O112 C105 1.195 . S
O113 Mg104 2.048 . S
O113 C114 1.195 . S
C114 O113 1.195 . S
C114 O115 1.313 . S
O115 C114 1.313 . S
O116 Mg104 2.141 . S
O116 C107 1.289 . S
Mg117 O124 2.141 . S
Mg117 O125 2.048 . S
Mg117 O126 2.048 . S
Mg117 O129 2.141 . S
C118 O119 1.313 . S
C118 O125 1.195 . S
O119 C118 1.313 . S
C120 O121 1.245 . S
C120 O129 1.289 . S
O121 C120 1.245 . S
C122 O123 1.245 . S
C122 O124 1.289 . S
O123 C122 1.245 . S
O124 Mg117 2.141 . S
O124 C122 1.289 . S
O125 Mg117 2.048 . S
O125 C118 1.195 . S
O126 Mg117 2.048 . S
O126 C127 1.195 . S
C127 O126 1.195 . S
C127 O128 1.313 . S
O128 C127 1.313 . S
O129 Mg117 2.141 . S
O129 C120 1.289 . S
Mg130 O137 2.141 . S
Mg130 O138 2.048 . S
Mg130 O139 2.048 . S
Mg130 O142 2.141 . S
C131 O132 1.313 . S
C131 O138 1.195 . S
O132 C131 1.313 . S
C133 O134 1.245 . S
C133 O142 1.289 . S
O134 C133 1.245 . S
C135 O136 1.245 . S
C135 O137 1.289 . S
O136 C135 1.245 . S
O137 Mg130 2.141 . S
O137 C135 1.289 . S
O138 Mg130 2.048 . S
O138 C131 1.195 . S
O139 Mg130 2.048 . S
O139 C140 1.195 . S
C140 O139 1.195 . S
C140 O141 1.313 . S
O141 C140 1.313 . S
O142 Mg130 2.141 . S
O142 C133 1.289 . S
Mg143 O150 2.141 . S
Mg143 O151 2.048 . S
Mg143 O152 2.048 . S
Mg143 O155 2.141 . S
C144 O145 1.313 . S
C144 O151 1.195 . S
O145 C144 1.313 . S
C146 O147 1.245 . S
C146 O155 1.289 . S
O147 C146 1.245 . S
C148 O149 1.245 . S
C148 O150 1.289 . S
O149 C148 1.245 . S
O150 Mg143 2.141 . S
O150 C148 1.289 . S
O151 Mg143 2.048 . S
O151 C144 1.195 . S
O152 Mg143 2.048 . S
O152 C153 1.195 . S
C153 O152 1.195 . S
C153 O154 1.313 . S
O154 C153 1.313 . S
O155 Mg143 2.141 . S
O155 C146 1.289 . S
Mg156 O163 2.141 . S
Mg156 O164 2.048 . S
Mg156 O165 2.048 . S
Mg156 O168 2.141 . S
C157 O158 1.313 . S
C157 O164 1.195 . S
O158 C157 1.313 . S
C159 O160 1.245 . S
C159 O168 1.289 . S
O160 C159 1.245 . S
C161 O162 1.245 . S
C161 O163 1.289 . S
O162 C161 1.245 . S
O163 Mg156 2.141 . S
O163 C161 1.289 . S
O164 Mg156 2.048 . S
O164 C157 1.195 . S
O165 Mg156 2.048 . S
O165 C166 1.195 . S
C166 O165 1.195 . S
C166 O167 1.313 . S
O167 C166 1.313 . S
O168 Mg156 2.141 . S
O168 C159 1.289 . S
Mg169 O176 2.141 . S
Mg169 O177 2.048 . S
Mg169 O178 2.048 . S
Mg169 O181 2.141 . S
C170 O171 1.313 . S
C170 O177 1.195 . S
O171 C170 1.313 . S
C172 O173 1.245 . S
C172 O181 1.289 . S
O173 C172 1.245 . S
C174 O175 1.245 . S
C174 O176 1.289 . S
O175 C174 1.245 . S
O176 Mg169 2.141 . S
O176 C174 1.289 . S
O177 Mg169 2.048 . S
O177 C170 1.195 . S
O178 Mg169 2.048 . S
O178 C179 1.195 . S
C179 O178 1.195 . S
C179 O180 1.313 . S
O180 C179 1.313 . S
O181 Mg169 2.141 . S
O181 C172 1.289 . S
Mg182 O189 2.141 . S
Mg182 O190 2.048 . S
Mg182 O191 2.048 . S
Mg182 O194 2.141 . S
C183 O184 1.313 . S
C183 O190 1.195 . S
O184 C183 1.313 . S
C185 O186 1.245 . S
C185 O194 1.289 . S
O186 C185 1.245 . S
C187 O188 1.245 . S
C187 O189 1.289 . S
O188 C187 1.245 . S
O189 Mg182 2.141 . S
O189 C187 1.289 . S
O190 Mg182 2.048 . S
O190 C183 1.195 . S
O191 Mg182 2.048 . S
O191 C192 1.195 . S
C192 O191 1.195 . S
C192 O193 1.313 . S
O193 C192 1.313 . S
O194 Mg182 2.141 . S
O194 C185 1.289 . S
Mg195 O202 2.141 . S
Mg195 O203 2.048 . S
Mg195 O204 2.048 . S
Mg195 O207 2.141 . S
C196 O197 1.313 . S
C196 O203 1.195 . S
O197 C196 1.313 . S
C198 O199 1.245 . S
C198 O207 1.289 . S
O199 C198 1.245 . S
C200 O201 1.245 . S
C200 O202 1.289 . S
O201 C200 1.245 . S
O202 Mg195 2.141 . S
O202 C200 1.289 . S
O203 Mg195 2.048 . S
O203 C196 1.195 . S
O204 Mg195 2.048 . S
O204 C205 1.195 . S
C205 O204 1.195 . S
C205 O206 1.313 . S
O206 C205 1.313 . S
O207 Mg195 2.141 . S
O207 C198 1.289 . S
Mg208 O215 2.141 . S
Mg208 O216 2.048 . S
Mg208 O217 2.048 . S
Mg208 O220 2.141 . S
C209 O210 1.313 . S
C209 O216 1.195 . S
O210 C209 1.313 . S
C211 O212 1.245 . S
C211 O220 1.289 . S
O212 C211 1.245 . S
C213 O214 1.245 . S
C213 O215 1.289 . S
O214 C213 1.245 . S
O215 Mg208 2.141 . S
O215 C213 1.289 . S
O216 Mg208 2.048 . S
O216 C209 1.195 . S
O217 Mg208 2.048 . S
O217 C218 1.195 . S
C218 O217 1.195 . S
C218 O219 1.313 . S
O219 C218 1.313 . S
O220 Mg208 2.141 . S
O220 C211 1.289 . S
Mg221 O228 2.141 . S
Mg221 O229 2.048 . S
Mg221 O230 2.048 . S
Mg221 O233 2.141 . S
C222 O223 1.313 . S
C222 O229 1.195 . S
O223 C222 1.313 . S
C224 O225 1.245 . S
C224 O233 1.289 . S
O225 C224 1.245 . S
C226 O227 1.245 . S
C226 O228 1.289 . S
O227 C226 1.245 . S
O228 Mg221 2.141 . S
O228 C226 1.289 . S
O229 Mg221 2.048 . S
O229 C222 1.195 . S
O230 Mg221 2.048 . S
O230 C231 1.195 . S
C231 O230 1.195 . S
C231 O232 1.313 . S
O232 C231 1.313 . S
O233 Mg221 2.141 . S
O233 C224 1.289 . S
Mg234 O241 2.141 . S
Mg234 O242 2.048 . S
Mg234 O243 2.048 . S
Mg234 O246 2.141 . S
C235 O236 1.313 . S
C235 O242 1.195 . S
O236 C235 1.313 . S
C237 O238 1.245 . S
C237 O246 1.289 . S
O238 C237 1.245 . S
C239 O240 1.245 . S
C239 O241 1.289 . S
O240 C239 1.245 . S
O241 Mg234 2.141 . S
O241 C239 1.289 . S
O242 Mg234 2.048 . S
O242 C235 1.195 . S
O243 Mg234 2.048 . S
O243 C244 1.195 . S
C244 O243 1.195 . S
C244 O245 1.313 . S
O245 C244 1.313 . S
O246 Mg234 2.141 . S
O246 C237 1.289 . S
Mg247 O254 2.141 . S
Mg247 O255 2.048 . S
Mg247 O256 2.048 . S
Mg247 O259 2.141 . S
C248 O249 1.313 . S
C248 O255 1.195 . S
O249 C248 1.313 . S
C250 O251 1.245 . S
C250 O259 1.289 . S
O251 C250 1.245 . S
C252 O253 1.245 . S
C252 O254 1.289 . S
O253 C252 1.245 . S
O254 Mg247 2.141 . S
O254 C252 1.289 . S
O255 Mg247 2.048 . S
O255 C248 1.195 . S
O256 Mg247 2.048 . S
O256 C257 1.195 . S
C257 O256 1.195 . S
C257 O258 1.313 . S
O258 C257 1.313 . S
O259 Mg247 2.141 . S
O259 C250 1.289 . S
Mg260 O267 2.141 . S
Mg260 O268 2.048 . S
Mg260 O269 2.048 . S
Mg260 O272 2.141 . S
C261 O262 1.313 . S
C261 O268 1.195 . S
O262 C261 1.313 . S
C263 O264 1.245 . S
C263 O272 1.289 . S
O264 C263 1.245 . S
C265 O266 1.245 . S
C265 O267 1.289 . S
O266 C265 1.245 . S
O267 Mg260 2.141 . S
O267 C265 1.289 . S
O268 Mg260 2.048 . S
O268 C261 1.195 . S
O269 Mg260 2.048 . S
O269 C270 1.195 . S
C270 O269 1.195 . S
C270 O271 1.313 . S
O271 C270 1.313 . S
O272 Mg260 2.141 . S
O272 C263 1.289 . S
Mg273 O280 2.141 . S
Mg273 O281 2.048 . S
Mg273 O282 2.048 . S
Mg273 O285 2.141 . S
C274 O275 1.313 . S
C274 O281 1.195 . S
O275 C274 1.313 . S
C276 O277 1.245 . S
C276 O285 1.289 . S
O277 C276 1.245 . S
C278 O279 1.245 . S
C278 O280 1.289 . S
O279 C278 1.245 . S
O280 Mg273 2.141 . S
O280 C278 1.289 . S
O281 Mg273 2.048 . S
O281 C274 1.195 . S
O282 Mg273 2.048 . S
O282 C283 1.195 . S
C283 O282 1.195 . S
C283 O284 1.313 . S
O284 C283 1.313 . S
O285 Mg273 2.141 . S
O285 C276 1.289 . S
Mg286 O293 2.141 . S
Mg286 O294 2.048 . S
Mg286 O295 2.048 . S
Mg286 O298 2.141 . S
C287 O288 1.313 . S
C287 O294 1.195 . S
O288 C287 1.313 . S
C289 O290 1.245 . S
C289 O298 1.289 . S
O290 C289 1.245 . S
C291 O292 1.245 . S
C291 O293 1.289 . S
O292 C291 1.245 . S
O293 Mg286 2.141 . S
O293 C291 1.289 . S
O294 Mg286 2.048 . S
O294 C287 1.195 . S
O295 Mg286 2.048 . S
O295 C296 1.195 . S
C296 O295 1.195 . S
C296 O297 1.313 . S
O297 C296 1.313 . S
O298 Mg286 2.141 . S
O298 C289 1.289 . S
Mg299 O306 2.141 . S
Mg299 O307 2.048 . S
Mg299 O308 2.048 . S
Mg299 O311 2.141 . S
C300 O301 1.313 . S
C300 O307 1.195 . S
O301 C300 1.313 . S
C302 O303 1.245 . S
C302 O311 1.289 . S
O303 C302 1.245 . S
C304 O305 1.245 . S
C304 O306 1.289 . S
O305 C304 1.245 . S
O306 Mg299 2.141 . S
O306 C304 1.289 . S
O307 Mg299 2.048 . S
O307 C300 1.195 . S
O308 Mg299 2.048 . S
O308 C309 1.195 . S
C309 O308 1.195 . S
C309 O310 1.313 . S
O310 C309 1.313 . S
O311 Mg299 2.141 . S
O311 C302 1.289 . S
Mg312 O319 2.141 . S
Mg312 O320 2.048 . S
Mg312 O321 2.048 . S
Mg312 O324 2.141 . S
C313 O314 1.313 . S
C313 O320 1.195 . S
O314 C313 1.313 . S
C315 O316 1.245 . S
C315 O324 1.289 . S
O316 C315 1.245 . S
C317 O318 1.245 . S
C317 O319 1.289 . S
O318 C317 1.245 . S
O319 Mg312 2.141 . S
O319 C317 1.289 . S
O320 Mg312 2.048 . S
O320 C313 1.195 . S
O321 Mg312 2.048 . S
O321 C322 1.195 . S
C322 O321 1.195 . S
C322 O323 1.313 . S
O323 C322 1.313 . S
O324 Mg312 2.141 . S
O324 C315 1.289 . S
Mg325 O332 2.141 . S
Mg325 O333 2.048 . S
Mg325 O334 2.048 . S
Mg325 O337 2.141 . S
C326 O327 1.313 . S
C326 O333 1.195 . S
O327 C326 1.313 . S
C328 O329 1.245 . S
C328 O337 1.289 . S
O329 C328 1.245 . S
C330 O331 1.245 . S
C330 O332 1.289 . S
O331 C330 1.245 . S
O332 Mg325 2.141 . S
O332 C330 1.289 . S
O333 Mg325 2.048 . S
O333 C326 1.195 . S
O334 Mg325 2.048 . S
O334 C335 1.195 . S
C335 O334 1.195 . S
C335 O336 1.313 . S
O336 C335 1.313 . S
O337 Mg325 2.141 . S
O337 C328 1.289 . S
Mg338 O345 2.141 . S
Mg338 O346 2.048 . S
Mg338 O347 2.048 . S
Mg338 O350 2.141 . S
C339 O340 1.313 . S
C339 O346 1.195 . S
O340 C339 1.313 . S
C341 O342 1.245 . S
C341 O350 1.289 . S
O342 C341 1.245 . S
C343 O344 1.245 . S
C343 O345 1.289 . S
O344 C343 1.245 . S
O345 Mg338 2.141 . S
O345 C343 1.289 . S
O346 Mg338 2.048 . S
O346 C339 1.195 . S
O347 Mg338 2.048 . S
O347 C348 1.195 . S
C348 O347 1.195 . S
C348 O349 1.313 . S
O349 C348 1.313 . S
O350 Mg338 2.141 . S
O350 C341 1.289 . S
Mg351 O358 2.141 . S
Mg351 O359 2.048 . S
Mg351 O360 2.048 . S
Mg351 O363 2.141 . S
C352 O353 1.313 . S
C352 O359 1.195 . S
O353 C352 1.313 . S
C354 O355 1.245 . S
C354 O363 1.289 . S
O355 C354 1.245 . S
C356 O357 1.245 . S
C356 O358 1.289 . S
O357 C356 1.245 . S
O358 Mg351 2.141 . S
O358 C356 1.289 . S
O359 Mg351 2.048 . S
O359 C352 1.195 . S
O360 Mg351 2.048 . S
O360 C361 1.195 . S
C361 O360 1.195 . S
C361 O362 1.313 . S
O362 C361 1.313 . S
O363 Mg351 2.141 . S
O363 C354 1.289 . S
Mg364 O371 2.141 . S
Mg364 O372 2.048 . S
Mg364 O373 2.048 . S
Mg364 O376 2.141 . S
C365 O366 1.313 . S
C365 O372 1.195 . S
O366 C365 1.313 . S
C367 O368 1.245 . S
C367 O376 1.289 . S
O368 C367 1.245 . S
C369 O370 1.245 . S
C369 O371 1.289 . S
O370 C369 1.245 . S
O371 Mg364 2.141 . S
O371 C369 1.289 . S
O372 Mg364 2.048 . S
O372 C365 1.195 . S
O373 Mg364 2.048 . S
O373 C374 1.195 . S
C374 O373 1.195 . S
C374 O375 1.313 . S
O375 C374 1.313 . S
O376 Mg364 2.141 . S
O376 C367 1.289 . S
Mg377 O384 2.141 . S
Mg377 O385 2.048 . S
Mg377 O386 2.048 . S
Mg377 O389 2.141 . S
C378 O379 1.313 . S
C378 O385 1.195 . S
O379 C378 1.313 . S
C380 O381 1.245 . S
C380 O389 1.289 . S
O381 C380 1.245 . S
C382 O383 1.245 . S
C382 O384 1.289 . S
O383 C382 1.245 . S
O384 Mg377 2.141 . S
O384 C382 1.289 . S
O385 Mg377 2.048 . S
O385 C378 1.195 . S
O386 Mg377 2.048 . S
O386 C387 1.195 . S
C387 O386 1.195 . S
C387 O388 1.313 . S
O388 C387 1.313 . S
O389 Mg377 2.141 . S
O389 C380 1.289 . S
Mg390 O397 2.141 . S
Mg390 O398 2.048 . S
Mg390 O399 2.048 . S
Mg390 O402 2.141 . S
C391 O392 1.313 . S
C391 O398 1.195 . S
O392 C391 1.313 . S
C393 O394 1.245 . S
C393 O402 1.289 . S
O394 C393 1.245 . S
C395 O396 1.245 . S
C395 O397 1.289 . S
O396 C395 1.245 . S
O397 Mg390 2.141 . S
O397 C395 1.289 . S
O398 Mg390 2.048 . S
O398 C391 1.195 . S
O399 Mg390 2.048 . S
O399 C400 1.195 . S
C400 O399 1.195 . S
C400 O401 1.313 . S
O401 C400 1.313 . S
O402 Mg390 2.141 . S
O402 C393 1.289 . S
Mg403 O410 2.141 . S
Mg403 O411 2.048 . S
Mg403 O412 2.048 . S
Mg403 O415 2.141 . S
C404 O405 1.313 . S
C404 O411 1.195 . S
O405 C404 1.313 . S
C406 O407 1.245 . S
C406 O415 1.289 . S
O407 C406 1.245 . S
C408 O409 1.245 . S
C408 O410 1.289 . S
O409 C408 1.245 . S
O410 Mg403 2.141 . S
O410 C408 1.289 . S
O411 Mg403 2.048 . S
O411 C404 1.195 . S
O412 Mg403 2.048 . S
O412 C413 1.195 . S
C413 O412 1.195 . S
C413 O414 1.313 . S
O414 C413 1.313 . S
O415 Mg403 2.141 . S
O415 C406 1.289 . S
Mg416 O423 2.141 . S
Mg416 O424 2.048 . S
Mg416 O425 2.048 . S
Mg416 O428 2.141 . S
C417 O418 1.313 . S
C417 O424 1.195 . S
O418 C417 1.313 . S
C419 O420 1.245 . S
C419 O428 1.289 . S
O420 C419 1.245 . S
C421 O422 1.245 . S
C421 O423 1.289 . S
O422 C421 1.245 . S
O423 Mg416 2.141 . S
O423 C421 1.289 . S
O424 Mg416 2.048 . S
O424 C417 1.195 . S
O425 Mg416 2.048 . S
O425 C426 1.195 . S
C426 O425 1.195 . S
C426 O427 1.313 . S
O427 C426 1.313 . S
O428 Mg416 2.141 . S
O428 C419 1.289 . S
Mg429 O436 2.141 . S
Mg429 O437 2.048 . S
Mg429 O438 2.048 . S
Mg429 O441 2.141 . S
C430 O431 1.313 . S
C430 O437 1.195 . S
O431 C430 1.313 . S
C432 O433 1.245 . S
C432 O441 1.289 . S
O433 C432 1.245 . S
C434 O435 1.245 . S
C434 O436 1.289 . S
O435 C434 1.245 . S
O436 Mg429 2.141 . S
O436 C434 1.289 . S
O437 Mg429 2.048 . S
O437 C430 1.195 . S
O438 Mg429 2.048 . S
O438 C439 1.195 . S
C439 O438 1.195 . S
C439 O440 1.313 . S
O440 C439 1.313 . S
O441 Mg429 2.141 . S
O441 C432 1.289 . S
Mg442 O449 2.141 . S
Mg442 O450 2.048 . S
Mg442 O451 2.048 . S
Mg442 O454 2.141 . S
C443 O444 1.313 . S
C443 O450 1.195 . S
O444 C443 1.313 . S
C445 O446 1.245 . S
C445 O454 1.289 . S
O446 C445 1.245 . S
C447 O448 1.245 . S
C447 O449 1.289 . S
O448 C447 1.245 . S
O449 Mg442 2.141 . S
O449 C447 1.289 . S
O450 Mg442 2.048 . S
O450 C443 1.195 . S
O451 Mg442 2.048 . S
O451 C452 1.195 . S
C452 O451 1.195 . S
C452 O453 1.313 . S
O453 C452 1.313 . S
O454 Mg442 2.141 . S
O454 C445 1.289 . S
Mg455 O462 2.141 . S
Mg455 O463 2.048 . S
Mg455 O464 2.048 . S
Mg455 O467 2.141 . S
C456 O457 1.313 . S
C456 O463 1.195 . S
O457 C456 1.313 . S
C458 O459 1.245 . S
C458 O467 1.289 . S
O459 C458 1.245 . S
C460 O461 1.245 . S
C460 O462 1.289 . S
O461 C460 1.245 . S
O462 Mg455 2.141 . S
O462 C460 1.289 . S
O463 Mg455 2.048 . S
O463 C456 1.195 . S
O464 Mg455 2.048 . S
O464 C465 1.195 . S
C465 O464 1.195 . S
C465 O466 1.313 . S
O466 C465 1.313 . S
O467 Mg455 2.141 . S
O467 C458 1.289 . S
Mg468 O475 2.141 . S
Mg468 O476 2.048 . S
Mg468 O477 2.048 . S
Mg468 O480 2.141 . S
C469 O470 1.313 . S
C469 O476 1.195 . S
O470 C469 1.313 . S
C471 O472 1.245 . S
C471 O480 1.289 . S
O472 C471 1.245 . S
C473 O474 1.245 . S
C473 O475 1.289 . S
O474 C473 1.245 . S
O475 Mg468 2.141 . S
O475 C473 1.289 . S
O476 Mg468 2.048 . S
O476 C469 1.195 . S
O477 Mg468 2.048 . S
O477 C478 1.195 . S
C478 O477 1.195 . S
C478 O479 1.313 . S
O479 C478 1.313 . S
O480 Mg468 2.141 . S
O480 C471 1.289 . S
Mg481 O488 2.141 . S
Mg481 O489 2.048 . S
Mg481 O490 2.048 . S
Mg481 O493 2.141 . S
C482 O483 1.313 . S
C482 O489 1.195 . S
O483 C482 1.313 . S
C484 O485 1.245 . S
C484 O493 1.289 . S
O485 C484 1.245 . S
C486 O487 1.245 . S
C486 O488 1.289 . S
O487 C486 1.245 . S
O488 Mg481 2.141 . S
O488 C486 1.289 . S
O489 Mg481 2.048 . S
O489 C482 1.195 . S
O490 Mg481 2.048 . S
O490 C491 1.195 . S
C491 O490 1.195 . S
C491 O492 1.313 . S
O492 C491 1.313 . S
O493 Mg481 2.141 . S
O493 C484 1.289 . S
Mg494 O501 2.141 . S
Mg494 O502 2.048 . S
Mg494 O503 2.048 . S
Mg494 O506 2.141 . S
C495 O496 1.313 . S
C495 O502 1.195 . S
O496 C495 1.313 . S
C497 O498 1.245 . S
C497 O506 1.289 . S
O498 C497 1.245 . S
C499 O500 1.245 . S
C499 O501 1.289 . S
O500 C499 1.245 . S
O501 Mg494 2.141 . S
O501 C499 1.289 . S
O502 Mg494 2.048 . S
O502 C495 1.195 . S
O503 Mg494 2.048 . S
O503 C504 1.195 . S
C504 O503 1.195 . S
C504 O505 1.313 . S
O505 C504 1.313 . S
O506 Mg494 2.141 . S
O506 C497 1.289 . S
Mg507 O514 2.141 . S
Mg507 O515 2.048 . S
Mg507 O516 2.048 . S
Mg507 O519 2.141 . S
C508 O509 1.313 . S
C508 O515 1.195 . S
O509 C508 1.313 . S
C510 O511 1.245 . S
C510 O519 1.289 . S
O511 C510 1.245 . S
C512 O513 1.245 . S
C512 O514 1.289 . S
O513 C512 1.245 . S
O514 Mg507 2.141 . S
O514 C512 1.289 . S
O515 Mg507 2.048 . S
O515 C508 1.195 . S
O516 Mg507 2.048 . S
O516 C517 1.195 . S
C517 O516 1.195 . S
C517 O518 1.313 . S
O518 C517 1.313 . S
O519 Mg507 2.141 . S
O519 C510 1.289 . S
Mg520 O527 2.141 . S
Mg520 O528 2.048 . S
Mg520 O529 2.048 . S
Mg520 O532 2.141 . S
C521 O522 1.313 . S
C521 O528 1.195 . S
O522 C521 1.313 . S
C523 O524 1.245 . S
C523 O532 1.289 . S
O524 C523 1.245 . S
C525 O526 1.245 . S
C525 O527 1.289 . S
O526 C525 1.245 . S
O527 Mg520 2.141 . S
O527 C525 1.289 . S
O528 Mg520 2.048 . S
O528 C521 1.195 . S
O529 Mg520 2.048 . S
O529 C530 1.195 . S
C530 O529 1.195 . S
C530 O531 1.313 . S
O531 C530 1.313 . S
O532 Mg520 2.141 . S
O532 C523 1.289 . S
Mg533 O540 2.141 . S
Mg533 O541 2.048 . S
Mg533 O542 2.048 . S
Mg533 O545 2.141 . S
C534 O535 1.313 . S
C534 O541 1.195 . S
O535 C534 1.313 . S
C536 O537 1.245 . S
C536 O545 1.289 . S
O537 C536 1.245 . S
C538 O539 1.245 . S
C538 O540 1.289 . S
O539 C538 1.245 . S
O540 Mg533 2.141 . S
O540 C538 1.289 . S
O541 Mg533 2.048 . S
O541 C534 1.195 . S
O542 Mg533 2.048 . S
O542 C543 1.195 . S
C543 O542 1.195 . S
C543 O544 1.313 . S
O544 C543 1.313 . S
O545 Mg533 2.141 . S
O545 C536 1.289 . S
Mg546 O553 2.141 . S
Mg546 O554 2.048 . S
Mg546 O555 2.048 . S
Mg546 O558 2.141 . S
C547 O548 1.313 . S
C547 O554 1.195 . S
O548 C547 1.313 . S
C549 O550 1.245 . S
C549 O558 1.289 . S
O550 C549 1.245 . S
C551 O552 1.245 . S
C551 O553 1.289 . S
O552 C551 1.245 . S
O553 Mg546 2.141 . S
O553 C551 1.289 . S
O554 Mg546 2.048 . S
O554 C547 1.195 . S
O555 Mg546 2.048 . S
O555 C556 1.195 . S
C556 O555 1.195 . S
C556 O557 1.313 . S
O557 C556 1.313 . S
O558 Mg546 2.141 . S
O558 C549 1.289 . S
Mg559 O566 2.141 . S
Mg559 O567 2.048 . S
Mg559 O568 2.048 . S
Mg559 O571 2.141 . S
C560 O561 1.313 . S
C560 O567 1.195 . S
O561 C560 1.313 . S
C562 O563 1.245 . S
C562 O571 1.289 . S
O563 C562 1.245 . S
C564 O565 1.245 . S
C564 O566 1.289 . S
O565 C564 1.245 . S
O566 Mg559 2.141 . S
O566 C564 1.289 . S
O567 Mg559 2.048 . S
O567 C560 1.195 . S
O568 Mg559 2.048 . S
O568 C569 1.195 . S
C569 O568 1.195 . S
C569 O570 1.313 . S
O570 C569 1.313 . S
O571 Mg559 2.141 . S
O571 C562 1.289 . S
Mg572 O579 2.141 . S
Mg572 O580 2.048 . S
Mg572 O581 2.048 . S
Mg572 O584 2.141 . S
C573 O574 1.313 . S
C573 O580 1.195 . S
O574 C573 1.313 . S
C575 O576 1.245 . S
C575 O584 1.289 . S
O576 C575 1.245 . S
C577 O578 1.245 . S
C577 O579 1.289 . S
O578 C577 1.245 . S
O579 Mg572 2.141 . S
O579 C577 1.289 . S
O580 Mg572 2.048 . S
O580 C573 1.195 . S
O581 Mg572 2.048 . S
O581 C582 1.195 . S
C582 O581 1.195 . S
C582 O583 1.313 . S
O583 C582 1.313 . S
O584 Mg572 2.141 . S
O584 C575 1.289 . S
Mg585 O592 2.141 . S
Mg585 O593 2.048 . S
Mg585 O594 2.048 . S
Mg585 O597 2.141 . S
C586 O587 1.313 . S
C586 O593 1.195 . S
O587 C586 1.313 . S
C588 O589 1.245 . S
C588 O597 1.289 . S
O589 C588 1.245 . S
C590 O591 1.245 . S
C590 O592 1.289 . S
O591 C590 1.245 . S
O592 Mg585 2.141 . S
O592 C590 1.289 . S
O593 Mg585 2.048 . S
O593 C586 1.195 . S
O594 Mg585 2.048 . S
O594 C595 1.195 . S
C595 O594 1.195 . S
C595 O596 1.313 . S
O596 C595 1.313 . S
O597 Mg585 2.141 . S
O597 C588 1.289 . S
Mg598 O605 2.141 . S
Mg598 O606 2.048 . S
Mg598 O607 2.048 . S
Mg598 O610 2.141 . S
C599 O600 1.313 . S
C599 O606 1.195 . S
O600 C599 1.313 . S
C601 O602 1.245 . S
C601 O610 1.289 . S
O602 C601 1.245 . S
C603 O604 1.245 . S
C603 O605 1.289 . S
O604 C603 1.245 . S
O605 Mg598 2.141 . S
O605 C603 1.289 . S
O606 Mg598 2.048 . S
O606 C599 1.195 . S
O607 Mg598 2.048 . S
O607 C608 1.195 . S
C608 O607 1.195 . S
C608 O609 1.313 . S
O609 C608 1.313 . S
O610 Mg598 2.141 . S
O610 C601 1.289 . S
Mg611 O618 2.141 . S
Mg611 O619 2.048 . S
Mg611 O620 2.048 . S
Mg611 O623 2.141 . S
C612 O613 1.313 . S
C612 O619 1.195 . S
O613 C612 1.313 . S
C614 O615 1.245 . S
C614 O623 1.289 . S
O615 C614 1.245 . S
C616 O617 1.245 . S
C616 O618 1.289 . S
O617 C616 1.245 . S
O618 Mg611 2.141 . S
O618 C616 1.289 . S
O619 Mg611 2.048 . S
O619 C612 1.195 . S
O620 Mg611 2.048 . S
O620 C621 1.195 . S
C621 O620 1.195 . S
C621 O622 1.313 . S
O622 C621 1.313 . S
O623 Mg611 2.141 . S
O623 C614 1.289 . S
Mg624 O631 2.141 . S
Mg624 O632 2.048 . S
Mg624 O633 2.048 . S
Mg624 O636 2.141 . S
C625 O626 1.313 . S
C625 O632 1.195 . S
O626 C625 1.313 . S
C627 O628 1.245 . S
C627 O636 1.289 . S
O628 C627 1.245 . S
C629 O630 1.245 . S
C629 O631 1.289 . S
O630 C629 1.245 . S
O631 Mg624 2.141 . S
O631 C629 1.289 . S
O632 Mg624 2.048 . S
O632 C625 1.195 . S
O633 Mg624 2.048 . S
O633 C634 1.195 . S
C634 O633 1.195 . S
C634 O635 1.313 . S
O635 C634 1.313 . S
O636 Mg624 2.141 . S
O636 C627 1.289 . S
Mg637 O644 2.141 . S
Mg637 O645 2.048 . S
Mg637 O646 2.048 . S
Mg637 O649 2.141 . S
C638 O639 1.313 . S
C638 O645 1.195 . S
O639 C638 1.313 . S
C640 O641 1.245 . S
C640 O649 1.289 . S
O641 C640 1.245 . S
C642 O643 1.245 . S
C642 O644 1.289 . S
O643 C642 1.245 . S
O644 Mg637 2.141 . S
O644 C642 1.289 . S
O645 Mg637 2.048 . S
O645 C638 1.195 . S
O646 Mg637 2.048 . S
O646 C647 1.195 . S
C647 O646 1.195 . S
C647 O648 1.313 . S
O648 C647 1.313 . S
O649 Mg637 2.141 . S
O649 C640 1.289 . S
Mg650 O657 2.141 . S
Mg650 O658 2.048 . S
Mg650 O659 2.048 . S
Mg650 O662 2.141 . S
C651 O652 1.313 . S
C651 O658 1.195 . S
O652 C651 1.313 . S
C653 O654 1.245 . S
C653 O662 1.289 . S
O654 C653 1.245 . S
C655 O656 1.245 . S
C655 O657 1.289 . S
O656 C655 1.245 . S
O657 Mg650 2.141 . S
O657 C655 1.289 . S
O658 Mg650 2.048 . S
O658 C651 1.195 . S
O659 Mg650 2.048 . S
O659 C660 1.195 . S
C660 O659 1.195 . S
C660 O661 1.313 . S
O661 C660 1.313 . S
O662 Mg650 2.141 . S
O662 C653 1.289 . S
Mg663 O670 2.141 . S
Mg663 O671 2.048 . S
Mg663 O672 2.048 . S
Mg663 O675 2.141 . S
C664 O665 1.313 . S
C664 O671 1.195 . S
O665 C664 1.313 . S
C666 O667 1.245 . S
C666 O675 1.289 . S
O667 C666 1.245 . S
C668 O669 1.245 . S
C668 O670 1.289 . S
O669 C668 1.245 . S
O670 Mg663 2.141 . S
O670 C668 1.289 . S
O671 Mg663 2.048 . S
O671 C664 1.195 . S
O672 Mg663 2.048 . S
O672 C673 1.195 . S
C673 O672 1.195 . S
C673 O674 1.313 . S
O674 C673 1.313 . S
O675 Mg663 2.141 . S
O675 C666 1.289 . S
Mg676 O683 2.141 . S
Mg676 O684 2.048 . S
Mg676 O685 2.048 . S
Mg676 O688 2.141 . S
C677 O678 1.313 . S
C677 O684 1.195 . S
O678 C677 1.313 . S
C679 O680 1.245 . S
C679 O688 1.289 . S
O680 C679 1.245 . S
C681 O682 1.245 . S
C681 O683 1.289 . S
O682 C681 1.245 . S
O683 Mg676 2.141 . S
O683 C681 1.289 . S
O684 Mg676 2.048 . S
O684 C677 1.195 . S
O685 Mg676 2.048 . S
O685 C686 1.195 . S
C686 O685 1.195 . S
C686 O687 1.313 . S
O687 C686 1.313 . S
O688 Mg676 2.141 . S
O688 C679 1.289 . S
Mg689 O696 2.141 . S
Mg689 O697 2.048 . S
Mg689 O698 2.048 . S
Mg689 O701 2.141 . S
C690 O691 1.313 . S
C690 O697 1.195 . S
O691 C690 1.313 . S
C692 O693 1.245 . S
C692 O701 1.289 . S
O693 C692 1.245 . S
C694 O695 1.245 . S
C694 O696 1.289 . S
O695 C694 1.245 . S
O696 Mg689 2.141 . S
O696 C694 1.289 . S
O697 Mg689 2.048 . S
O697 C690 1.195 . S
O698 Mg689 2.048 . S
O698 C699 1.195 . S
C699 O698 1.195 . S
C699 O700 1.313 . S
O700 C699 1.313 . S
O701 Mg689 2.141 . S
O701 C692 1.289 . S
Mg702 O709 2.141 . S
Mg702 O710 2.048 . S
Mg702 O711 2.048 . S
Mg702 O714 2.141 . S
C703 O704 1.313 . S
C703 O710 1.195 . S
O704 C703 1.313 . S
C705 O706 1.245 . S
C705 O714 1.289 . S
O706 C705 1.245 . S
C707 O708 1.245 . S
C707 O709 1.289 . S
O708 C707 1.245 . S
O709 Mg702 2.141 . S
O709 C707 1.289 . S
O710 Mg702 2.048 . S
O710 C703 1.195 . S
O711 Mg702 2.048 . S
O711 C712 1.195 . S
C712 O711 1.195 . S
C712 O713 1.313 . S
O713 C712 1.313 . S
O714 Mg702 2.141 . S
O714 C705 1.289 . S
Mg715 O722 2.141 . S
Mg715 O723 2.048 . S
Mg715 O724 2.048 . S
Mg715 O727 2.141 . S
C716 O717 1.313 . S
C716 O723 1.195 . S
O717 C716 1.313 . S
C718 O719 1.245 . S
C718 O727 1.289 . S
O719 C718 1.245 . S
C720 O721 1.245 . S
C720 O722 1.289 . S
O721 C720 1.245 . S
O722 Mg715 2.141 . S
O722 C720 1.289 . S
O723 Mg715 2.048 . S
O723 C716 1.195 . S
O724 Mg715 2.048 . S
O724 C725 1.195 . S
C725 O724 1.195 . S
C725 O726 1.313 . S
O726 C725 1.313 . S
O727 Mg715 2.141 . S
O727 C718 1.289 . S
Mg728 O735 2.141 . S
Mg728 O736 2.048 . S
Mg728 O737 2.048 . S
Mg728 O740 2.141 . S
C729 O730 1.313 . S
C729 O736 1.195 . S
O730 C729 1.313 . S
C731 O732 1.245 . S
C731 O740 1.289 . S
O732 C731 1.245 . S
C733 O734 1.245 . S
C733 O735 1.289 . S
O734 C733 1.245 . S
O735 Mg728 2.141 . S
O735 C733 1.289 . S
O736 Mg728 2.048 . S
O736 C729 1.195 . S
O737 Mg728 2.048 . S
O737 C738 1.195 . S
C738 O737 1.195 . S
C738 O739 1.313 . S
O739 C738 1.313 . S
O740 Mg728 2.141 . S
O740 C731 1.289 . S
Mg741 O748 2.141 . S
Mg741 O749 2.048 . S
Mg741 O750 2.048 . S
Mg741 O753 2.141 . S
C742 O743 1.313 . S
C742 O749 1.195 . S
O743 C742 1.313 . S
C744 O745 1.245 . S
C744 O753 1.289 . S
O745 C744 1.245 . S
C746 O747 1.245 . S
C746 O748 1.289 . S
O747 C746 1.245 . S
O748 Mg741 2.141 . S
O748 C746 1.289 . S
O749 Mg741 2.048 . S
O749 C742 1.195 . S
O750 Mg741 2.048 . S
O750 C751 1.195 . S
C751 O750 1.195 . S
C751 O752 1.313 . S
O752 C751 1.313 . S
O753 Mg741 2.141 . S
O753 C744 1.289 . S
Mg754 O761 2.141 . S
Mg754 O762 2.048 . S
Mg754 O763 2.048 . S
Mg754 O766 2.141 . S
C755 O756 1.313 . S
C755 O762 1.195 . S
O756 C755 1.313 . S
C757 O758 1.245 . S
C757 O766 1.289 . S
O758 C757 1.245 . S
C759 O760 1.245 . S
C759 O761 1.289 . S
O760 C759 1.245 . S
O761 Mg754 2.141 . S
O761 C759 1.289 . S
O762 Mg754 2.048 . S
O762 C755 1.195 . S
O763 Mg754 2.048 . S
O763 C764 1.195 . S
C764 O763 1.195 . S
C764 O765 1.313 . S
O765 C764 1.313 . S
O766 Mg754 2.141 . S
O766 C757 1.289 . S
Mg767 O774 2.141 . S
Mg767 O775 2.048 . S
Mg767 O776 2.048 . S
Mg767 O779 2.141 . S
C768 O769 1.313 . S
C768 O775 1.195 . S
O769 C768 1.313 . S
C770 O771 1.245 . S
C770 O779 1.289 . S
O771 C770 1.245 . S
C772 O773 1.245 . S
C772 O774 1.289 . S
O773 C772 1.245 . S
O774 Mg767 2.141 . S
O774 C772 1.289 . S
O775 Mg767 2.048 . S
O775 C768 1.195 . S
O776 Mg767 2.048 . S
O776 C777 1.195 . S
C777 O776 1.195 . S
C777 O778 1.313 . S
O778 C777 1.313 . S
O779 Mg767 2.141 . S
O779 C770 1.289 . S
Mg780 O787 2.141 . S
Mg780 O788 2.048 . S
Mg780 O789 2.048 . S
Mg780 O792 2.141 . S
C781 O782 1.313 . S
C781 O788 1.195 . S
O782 C781 1.313 . S
C783 O784 1.245 . S
C783 O792 1.289 . S
O784 C783 1.245 . S
C785 O786 1.245 . S
C785 O787 1.289 . S
O786 C785 1.245 . S
O787 Mg780 2.141 . S
O787 C785 1.289 . S
O788 Mg780 2.048 . S
O788 C781 1.195 . S
O789 Mg780 2.048 . S
O789 C790 1.195 . S
C790 O789 1.195 . S
C790 O791 1.313 . S
O791 C790 1.313 . S
O792 Mg780 2.141 . S
O792 C783 1.289 . S
Mg793 O800 2.141 . S
Mg793 O801 2.048 . S
Mg793 O802 2.048 . S
Mg793 O805 2.141 . S
C794 O795 1.313 . S
C794 O801 1.195 . S
O795 C794 1.313 . S
C796 O797 1.245 . S
C796 O805 1.289 . S
O797 C796 1.245 . S
C798 O799 1.245 . S
C798 O800 1.289 . S
O799 C798 1.245 . S
O800 Mg793 2.141 . S
O800 C798 1.289 . S
O801 Mg793 2.048 . S
O801 C794 1.195 . S
O802 Mg793 2.048 . S
O802 C803 1.195 . S
C803 O802 1.195 . S
C803 O804 1.313 . S
O804 C803 1.313 . S
O805 Mg793 2.141 . S
O805 C796 1.289 . S
Mg806 O813 2.141 . S
Mg806 O814 2.048 . S
Mg806 O815 2.048 . S
Mg806 O818 2.141 . S
C807 O808 1.313 . S
C807 O814 1.195 . S
O808 C807 1.313 . S
C809 O810 1.245 . S
C809 O818 1.289 . S
O810 C809 1.245 . S
C811 O812 1.245 . S
C811 O813 1.289 . S
O812 C811 1.245 . S
O813 Mg806 2.141 . S
O813 C811 1.289 . S
O814 Mg806 2.048 . S
O814 C807 1.195 . S
O815 Mg806 2.048 . S
O815 C816 1.195 . S
C816 O815 1.195 . S
C816 O817 1.313 . S
O817 C816 1.313 . S
O818 Mg806 2.141 . S
O818 C809 1.289 . S
Mg819 O826 2.141 . S
Mg819 O827 2.048 . S
Mg819 O828 2.048 . S
Mg819 O831 2.141 . S
C820 O821 1.313 . S
C820 O827 1.195 . S
O821 C820 1.313 . S
C822 O823 1.245 . S
C822 O831 1.289 . S
O823 C822 1.245 . S
C824 O825 1.245 . S
C824 O826 1.289 . S
O825 C824 1.245 . S
O826 Mg819 2.141 . S
O826 C824 1.289 . S
O827 Mg819 2.048 . S
O827 C820 1.195 . S
O828 Mg819 2.048 . S
O828 C829 1.195 . S
C829 O828 1.195 . S
C829 O830 1.313 . S
O830 C829 1.313 . S
O831 Mg819 2.141 . S
O831 C822 1.289 . S
Mg832 O839 2.141 . S
Mg832 O840 2.048 . S
Mg832 O841 2.048 . S
Mg832 O844 2.141 . S
C833 O834 1.313 . S
C833 O840 1.195 . S
O834 C833 1.313 . S
C835 O836 1.245 . S
C835 O844 1.289 . S
O836 C835 1.245 . S
C837 O838 1.245 . S
C837 O839 1.289 . S
O838 C837 1.245 . S
O839 Mg832 2.141 . S
O839 C837 1.289 . S
O840 Mg832 2.048 . S
O840 C833 1.195 . S
O841 Mg832 2.048 . S
O841 C842 1.195 . S
C842 O841 1.195 . S
C842 O843 1.313 . S
O843 C842 1.313 . S
O844 Mg832 2.141 . S
O844 C835 1.289 . S
Mg845 O852 2.141 . S
Mg845 O853 2.048 . S
Mg845 O854 2.048 . S
Mg845 O857 2.141 . S
C846 O847 1.313 . S
C846 O853 1.195 . S
O847 C846 1.313 . S
C848 O849 1.245 . S
C848 O857 1.289 . S
O849 C848 1.245 . S
C850 O851 1.245 . S
C850 O852 1.289 . S
O851 C850 1.245 . S
O852 Mg845 2.141 . S
O852 C850 1.289 . S
O853 Mg845 2.048 . S
O853 C846 1.195 . S
O854 Mg845 2.048 . S
O854 C855 1.195 . S
C855 O854 1.195 . S
C855 O856 1.313 . S
O856 C855 1.313 . S
O857 Mg845 2.141 . S
O857 C848 1.289 . S
Mg858 O865 2.141 . S
Mg858 O866 2.048 . S
Mg858 O867 2.048 . S
Mg858 O870 2.141 . S
C859 O860 1.313 . S
C859 O866 1.195 . S
O860 C859 1.313 . S
C861 O862 1.245 . S
C861 O870 1.289 . S
O862 C861 1.245 . S
C863 O864 1.245 . S
C863 O865 1.289 . S
O864 C863 1.245 . S
O865 Mg858 2.141 . S
O865 C863 1.289 . S
O866 Mg858 2.048 . S
O866 C859 1.195 . S
O867 Mg858 2.048 . S
O867 C868 1.195 . S
C868 O867 1.195 . S
C868 O869 1.313 . S
O869 C868 1.313 . S
O870 Mg858 2.141 . S
O870 C861 1.289 . S
Mg871 O878 2.141 . S
Mg871 O879 2.048 . S
Mg871 O880 2.048 . S
Mg871 O883 2.141 . S
C872 O873 1.313 . S
C872 O879 1.195 . S
O873 C872 1.313 . S
C874 O875 1.245 . S
C874 O883 1.289 . S
O875 C874 1.245 . S
C876 O877 1.245 . S
C876 O878 1.289 . S
O877 C876 1.245 . S
O878 Mg871 2.141 . S
O878 C876 1.289 . S
O879 Mg871 2.048 . S
O879 C872 1.195 . S
O880 Mg871 2.048 . S
O880 C881 1.195 . S
C881 O880 1.195 . S
C881 O882 1.313 . S
O882 C881 1.313 . S
O883 Mg871 2.141 . S
O883 C874 1.289 . S
Mg884 O891 2.141 . S
Mg884 O892 2.048 . S
Mg884 O893 2.048 . S
Mg884 O896 2.141 . S
C885 O886 1.313 . S
C885 O892 1.195 . S
O886 C885 1.313 . S
C887 O888 1.245 . S
C887 O896 1.289 . S
O888 C887 1.245 . S
C889 O890 1.245 . S
C889 O891 1.289 . S
O890 C889 1.245 . S
O891 Mg884 2.141 . S
O891 C889 1.289 . S
O892 Mg884 2.048 . S
O892 C885 1.195 . S
O893 Mg884 2.048 . S
O893 C894 1.195 . S
C894 O893 1.195 . S
C894 O895 1.313 . S
O895 C894 1.313 . S
O896 Mg884 2.141 . S
O896 C887 1.289 . S
Mg897 O904 2.141 . S
Mg897 O905 2.048 . S
Mg897 O906 2.048 . S
Mg897 O909 2.141 . S
C898 O899 1.313 . S
C898 O905 1.195 . S
O899 C898 1.313 . S
C900 O901 1.245 . S
C900 O909 1.289 . S
O901 C900 1.245 . S
C902 O903 1.245 . S
C902 O904 1.289 . S
O903 C902 1.245 . S
O904 Mg897 2.141 . S
O904 C902 1.289 . S
O905 Mg897 2.048 . S
O905 C898 1.195 . S
O906 Mg897 2.048 . S
O906 C907 1.195 . S
C907 O906 1.195 . S
C907 O908 1.313 . S
O908 C907 1.313 . S
O909 Mg897 2.141 . S
O909 C900 1.289 . S
Mg910 O917 2.141 . S
Mg910 O918 2.048 . S
Mg910 O919 2.048 . S
Mg910 O922 2.141 . S
C911 O912 1.313 . S
C911 O918 1.195 . S
O912 C911 1.313 . S
C913 O914 1.245 . S
C913 O922 1.289 . S
O914 C913 1.245 . S
C915 O916 1.245 . S
C915 O917 1.289 . S
O916 C915 1.245 . S
O917 Mg910 2.141 . S
O917 C915 1.289 . S
O918 Mg910 2.048 . S
O918 C911 1.195 . S
O919 Mg910 2.048 . S
O919 C920 1.195 . S
C920 O919 1.195 . S
C920 O921 1.313 . S
O921 C920 1.313 . S
O922 Mg910 2.141 . S
O922 C913 1.289 . S
Mg923 O930 2.141 . S
Mg923 O931 2.048 . S
Mg923 O932 2.048 . S
Mg923 O935 2.141 . S
C924 O925 1.313 . S
C924 O931 1.195 . S
O925 C924 1.313 . S
C926 O927 1.245 . S
C926 O935 1.289 . S
O927 C926 1.245 . S
C928 O929 1.245 . S
C928 O930 1.289 . S
O929 C928 1.245 . S
O930 Mg923 2.141 . S
O930 C928 1.289 . S
O931 Mg923 2.048 . S
O931 C924 1.195 . S
O932 Mg923 2.048 . S
O932 C933 1.195 . S
C933 O932 1.195 . S
C933 O934 1.313 . S
O934 C933 1.313 . S
O935 Mg923 2.141 . S
O935 C926 1.289 . S
Mg936 O943 2.141 . S
Mg936 O944 2.048 . S
Mg936 O945 2.048 . S
Mg936 O948 2.141 . S
C937 O938 1.313 . S
C937 O944 1.195 . S
O938 C937 1.313 . S
C939 O940 1.245 . S
C939 O948 1.289 . S
O940 C939 1.245 . S
C941 O942 1.245 . S
C941 O943 1.289 . S
O942 C941 1.245 . S
O943 Mg936 2.141 . S
O943 C941 1.289 . S
O944 Mg936 2.048 . S
O944 C937 1.195 . S
O945 Mg936 2.048 . S
O945 C946 1.195 . S
C946 O945 1.195 . S
C946 O947 1.313 . S
O947 C946 1.313 . S
O948 Mg936 2.141 . S
O948 C939 1.289 . S
Mg949 O956 2.141 . S
Mg949 O957 2.048 . S
Mg949 O958 2.048 . S
Mg949 O961 2.141 . S
C950 O951 1.313 . S
C950 O957 1.195 . S
O951 C950 1.313 . S
C952 O953 1.245 . S
C952 O961 1.289 . S
O953 C952 1.245 . S
C954 O955 1.245 . S
C954 O956 1.289 . S
O955 C954 1.245 . S
O956 Mg949 2.141 . S
O956 C954 1.289 . S
O957 Mg949 2.048 . S
O957 C950 1.195 . S
O958 Mg949 2.048 . S
O958 C959 1.195 . S
C959 O958 1.195 . S
C959 O960 1.313 . S
O960 C959 1.313 . S
O961 Mg949 2.141 . S
O961 C952 1.289 . S
Mg962 O969 2.141 . S
Mg962 O970 2.048 . S
Mg962 O971 2.048 . S
Mg962 O974 2.141 . S
C963 O964 1.313 . S
C963 O970 1.195 . S
O964 C963 1.313 . S
C965 O966 1.245 . S
C965 O974 1.289 . S
O966 C965 1.245 . S
C967 O968 1.245 . S
C967 O969 1.289 . S
O968 C967 1.245 . S
O969 Mg962 2.141 . S
O969 C967 1.289 . S
O970 Mg962 2.048 . S
O970 C963 1.195 . S
O971 Mg962 2.048 . S
O971 C972 1.195 . S
C972 O971 1.195 . S
C972 O973 1.313 . S
O973 C972 1.313 . S
O974 Mg962 2.141 . S
O974 C965 1.289 . S
Mg975 O982 2.141 . S
Mg975 O983 2.048 . S
Mg975 O984 2.048 . S
Mg975 O987 2.141 . S
C976 O977 1.313 . S
C976 O983 1.195 . S
O977 C976 1.313 . S
C978 O979 1.245 . S
C978 O987 1.289 . S
O979 C978 1.245 . S
C980 O981 1.245 . S
C980 O982 1.289 . S
O981 C980 1.245 . S
O982 Mg975 2.141 . S
O982 C980 1.289 . S
O983 Mg975 2.048 . S
O983 C976 1.195 . S
O984 Mg975 2.048 . S
O984 C985 1.195 . S
C985 O984 1.195 . S
C985 O986 1.313 . S
O986 C985 1.313 . S
O987 Mg975 2.141 . S
O987 C978 1.289 . S
Mg988 O995 2.141 . S
Mg988 O996 2.048 . S
Mg988 O997 2.048 . S
Mg988 O1000 2.141 . S
C989 O990 1.313 . S
C989 O996 1.195 . S
O990 C989 1.313 . S
C991 O992 1.245 . S
C991 O1000 1.289 . S
O992 C991 1.245 . S
C993 O994 1.245 . S
C993 O995 1.289 . S
O994 C993 1.245 . S
O995 Mg988 2.141 . S
O995 C993 1.289 . S
O996 Mg988 2.048 . S
O996 C989 1.195 . S
O997 Mg988 2.048 . S
O997 C998 1.195 . S
C998 O997 1.195 . S
C998 O999 1.313 . S
O999 C998 1.313 . S
O1000 Mg988 2.141 . S
O1000 C991 1.289 . S
Mg1001 O1008 2.141 . S
Mg1001 O1009 2.048 . S
Mg1001 O1010 2.048 . S
Mg1001 O1013 2.141 . S
C1002 O1003 1.313 . S
C1002 O1009 1.195 . S
O1003 C1002 1.313 . S
C1004 O1005 1.245 . S
C1004 O1013 1.289 . S
O1005 C1004 1.245 . S
C1006 O1007 1.245 . S
C1006 O1008 1.289 . S
O1007 C1006 1.245 . S
O1008 Mg1001 2.141 . S
O1008 C1006 1.289 . S
O1009 Mg1001 2.048 . S
O1009 C1002 1.195 . S
O1010 Mg1001 2.048 . S
O1010 C1011 1.195 . S
C1011 O1010 1.195 . S
C1011 O1012 1.313 . S
O1012 C1011 1.313 . S
O1013 Mg1001 2.141 . S
O1013 C1004 1.289 . S
Mg1014 O1021 2.141 . S
Mg1014 O1022 2.048 . S
Mg1014 O1023 2.048 . S
Mg1014 O1026 2.141 . S
C1015 O1016 1.313 . S
C1015 O1022 1.195 . S
O1016 C1015 1.313 . S
C1017 O1018 1.245 . S
C1017 O1026 1.289 . S
O1018 C1017 1.245 . S
C1019 O1020 1.245 . S
C1019 O1021 1.289 . S
O1020 C1019 1.245 . S
O1021 Mg1014 2.141 . S
O1021 C1019 1.289 . S
O1022 Mg1014 2.048 . S
O1022 C1015 1.195 . S
O1023 Mg1014 2.048 . S
O1023 C1024 1.195 . S
C1024 O1023 1.195 . S
C1024 O1025 1.313 . S
O1025 C1024 1.313 . S
O1026 Mg1014 2.141 . S
O1026 C1017 1.289 . S
Mg1027 O1034 2.141 . S
Mg1027 O1035 2.048 . S
Mg1027 O1036 2.048 . S
Mg1027 O1039 2.141 . S
C1028 O1029 1.313 . S
C1028 O1035 1.195 . S
O1029 C1028 1.313 . S
C1030 O1031 1.245 . S
C1030 O1039 1.289 . S
O1031 C1030 1.245 . S
C1032 O1033 1.245 . S
C1032 O1034 1.289 . S
O1033 C1032 1.245 . S
O1034 Mg1027 2.141 . S
O1034 C1032 1.289 . S
O1035 Mg1027 2.048 . S
O1035 C1028 1.195 . S
O1036 Mg1027 2.048 . S
O1036 C1037 1.195 . S
C1037 O1036 1.195 . S
C1037 O1038 1.313 . S
O1038 C1037 1.313 . S
O1039 Mg1027 2.141 . S
O1039 C1030 1.289 . S
Mg1040 O1047 2.141 . S
Mg1040 O1048 2.048 . S
Mg1040 O1049 2.048 . S
Mg1040 O1052 2.141 . S
C1041 O1042 1.313 . S
C1041 O1048 1.195 . S
O1042 C1041 1.313 . S
C1043 O1044 1.245 . S
C1043 O1052 1.289 . S
O1044 C1043 1.245 . S
C1045 O1046 1.245 . S
C1045 O1047 1.289 . S
O1046 C1045 1.245 . S
O1047 Mg1040 2.141 . S
O1047 C1045 1.289 . S
O1048 Mg1040 2.048 . S
O1048 C1041 1.195 . S
O1049 Mg1040 2.048 . S
O1049 C1050 1.195 . S
C1050 O1049 1.195 . S
C1050 O1051 1.313 . S
O1051 C1050 1.313 . S
O1052 Mg1040 2.141 . S
O1052 C1043 1.289 . S
Mg1053 O1060 2.141 . S
Mg1053 O1061 2.048 . S
Mg1053 O1062 2.048 . S
Mg1053 O1065 2.141 . S
C1054 O1055 1.313 . S
C1054 O1061 1.195 . S
O1055 C1054 1.313 . S
C1056 O1057 1.245 . S
C1056 O1065 1.289 . S
O1057 C1056 1.245 . S
C1058 O1059 1.245 . S
C1058 O1060 1.289 . S
O1059 C1058 1.245 . S
O1060 Mg1053 2.141 . S
O1060 C1058 1.289 . S
O1061 Mg1053 2.048 . S
O1061 C1054 1.195 . S
O1062 Mg1053 2.048 . S
O1062 C1063 1.195 . S
C1063 O1062 1.195 . S
C1063 O1064 1.313 . S
O1064 C1063 1.313 . S
O1065 Mg1053 2.141 . S
O1065 C1056 1.289 . S
Mg1066 O1073 2.141 . S
Mg1066 O1074 2.048 . S
Mg1066 O1075 2.048 . S
Mg1066 O1078 2.141 . S
C1067 O1068 1.313 . S
C1067 O1074 1.195 . S
O1068 C1067 1.313 . S
C1069 O1070 1.245 . S
C1069 O1078 1.289 . S
O1070 C1069 1.245 . S
C1071 O1072 1.245 . S
C1071 O1073 1.289 . S
O1072 C1071 1.245 . S
O1073 Mg1066 2.141 . S
O1073 C1071 1.289 . S
O1074 Mg1066 2.048 . S
O1074 C1067 1.195 . S
O1075 Mg1066 2.048 . S
O1075 C1076 1.195 . S
C1076 O1075 1.195 . S
C1076 O1077 1.313 . S
O1077 C1076 1.313 . S
O1078 Mg1066 2.141 . S
O1078 C1069 1.289 . S
Mg1079 O1086 2.141 . S
Mg1079 O1087 2.048 . S
Mg1079 O1088 2.048 . S
Mg1079 O1091 2.141 . S
C1080 O1081 1.313 . S
C1080 O1087 1.195 . S
O1081 C1080 1.313 . S
C1082 O1083 1.245 . S
C1082 O1091 1.289 . S
O1083 C1082 1.245 . S
C1084 O1085 1.245 . S
C1084 O1086 1.289 . S
O1085 C1084 1.245 . S
O1086 Mg1079 2.141 . S
O1086 C1084 1.289 . S
O1087 Mg1079 2.048 . S
O1087 C1080 1.195 . S
O1088 Mg1079 2.048 . S
O1088 C1089 1.195 . S
C1089 O1088 1.195 . S
C1089 O1090 1.313 . S
O1090 C1089 1.313 . S
O1091 Mg1079 2.141 . S
O1091 C1082 1.289 . S
Mg1092 O1099 2.141 . S
Mg1092 O1100 2.048 . S
Mg1092 O1101 2.048 . S
Mg1092 O1104 2.141 . S
C1093 O1094 1.313 . S
C1093 O1100 1.195 . S
O1094 C1093 1.313 . S
C1095 O1096 1.245 . S
C1095 O1104 1.289 . S
O1096 C1095 1.245 . S
C1097 O1098 1.245 . S
C1097 O1099 1.289 . S
O1098 C1097 1.245 . S
O1099 Mg1092 2.141 . S
O1099 C1097 1.289 . S
O1100 Mg1092 2.048 . S
O1100 C1093 1.195 . S
O1101 Mg1092 2.048 . S
O1101 C1102 1.195 . S
C1102 O1101 1.195 . S
C1102 O1103 1.313 . S
O1103 C1102 1.313 . S
O1104 Mg1092 2.141 . S
O1104 C1095 1.289 . S
Mg1105 O1112 2.141 . S
Mg1105 O1113 2.048 . S
Mg1105 O1114 2.048 . S
Mg1105 O1117 2.141 . S
C1106 O1107 1.313 . S
C1106 O1113 1.195 . S
O1107 C1106 1.313 . S
C1108 O1109 1.245 . S
C1108 O1117 1.289 . S
O1109 C1108 1.245 . S
C1110 O1111 1.245 . S
C1110 O1112 1.289 . S
O1111 C1110 1.245 . S
O1112 Mg1105 2.141 . S
O1112 C1110 1.289 . S
O1113 Mg1105 2.048 . S
O1113 C1106 1.195 . S
O1114 Mg1105 2.048 . S
O1114 C1115 1.195 . S
C1115 O1114 1.195 . S
C1115 O1116 1.313 . S
O1116 C1115 1.313 . S
O1117 Mg1105 2.141 . S
O1117 C1108 1.289 . S
Mg1118 O1125 2.141 . S
Mg1118 O1126 2.048 . S
Mg1118 O1127 2.048 . S
Mg1118 O1130 2.141 . S
C1119 O1120 1.313 . S
C1119 O1126 1.195 . S
O1120 C1119 1.313 . S
C1121 O1122 1.245 . S
C1121 O1130 1.289 . S
O1122 C1121 1.245 . S
C1123 O1124 1.245 . S
C1123 O1125 1.289 . S
O1124 C1123 1.245 . S
O1125 Mg1118 2.141 . S
O1125 C1123 1.289 . S
O1126 Mg1118 2.048 . S
O1126 C1119 1.195 . S
O1127 Mg1118 2.048 . S
O1127 C1128 1.195 . S
C1128 O1127 1.195 . S
C1128 O1129 1.313 . S
O1129 C1128 1.313 . S
O1130 Mg1118 2.141 . S
O1130 C1121 1.289 . S
Mg1131 O1138 2.141 . S
Mg1131 O1139 2.048 . S
Mg1131 O1140 2.048 . S
Mg1131 O1143 2.141 . S
C1132 O1133 1.313 . S
C1132 O1139 1.195 . S
O1133 C1132 1.313 . S
C1134 O1135 1.245 . S
C1134 O1143 1.289 . S
O1135 C1134 1.245 . S
C1136 O1137 1.245 . S
C1136 O1138 1.289 . S
O1137 C1136 1.245 . S
O1138 Mg1131 2.141 . S
O1138 C1136 1.289 . S
O1139 Mg1131 2.048 . S
O1139 C1132 1.195 . S
O1140 Mg1131 2.048 . S
O1140 C1141 1.195 . S
C1141 O1140 1.195 . S
C1141 O1142 1.313 . S
O1142 C1141 1.313 . S
O1143 Mg1131 2.141 . S
O1143 C1134 1.289 . S
Mg1144 O1151 2.141 . S
Mg1144 O1152 2.048 . S
Mg1144 O1153 2.048 . S
Mg1144 O1156 2.141 . S
C1145 O1146 1.313 . S
C1145 O1152 1.195 . S
O1146 C1145 1.313 . S
C1147 O1148 1.245 . S
C1147 O1156 1.289 . S
O1148 C1147 1.245 . S
C1149 O1150 1.245 . S
C1149 O1151 1.289 . S
O1150 C1149 1.245 . S
O1151 Mg1144 2.141 . S
O1151 C1149 1.289 . S
O1152 Mg1144 2.048 . S
O1152 C1145 1.195 . S
O1153 Mg1144 2.048 . S
O1153 C1154 1.195 . S
C1154 O1153 1.195 . S
C1154 O1155 1.313 . S
O1155 C1154 1.313 . S
O1156 Mg1144 2.141 . S
O1156 C1147 1.289 . S
Mg1157 O1164 2.141 . S
Mg1157 O1165 2.048 . S
Mg1157 O1166 2.048 . S
Mg1157 O1169 2.141 . S
C1158 O1159 1.313 . S
C1158 O1165 1.195 . S
O1159 C1158 1.313 . S
C1160 O1161 1.245 . S
C1160 O1169 1.289 . S
O1161 C1160 1.245 . S
C1162 O1163 1.245 . S
C1162 O1164 1.289 . S
O1163 C1162 1.245 . S
O1164 Mg1157 2.141 . S
O1164 C1162 1.289 . S
O1165 Mg1157 2.048 . S
O1165 C1158 1.195 . S
O1166 Mg1157 2.048 . S
O1166 C1167 1.195 . S
C1167 O1166 1.195 . S
C1167 O1168 1.313 . S
O1168 C1167 1.313 . S
O1169 Mg1157 2.141 . S
O1169 C1160 1.289 . S
Mg1170 O1177 2.141 . S
Mg1170 O1178 2.048 . S
Mg1170 O1179 2.048 . S
Mg1170 O1182 2.141 . S
C1171 O1172 1.313 . S
C1171 O1178 1.195 . S
O1172 C1171 1.313 . S
C1173 O1174 1.245 . S
C1173 O1182 1.289 . S
O1174 C1173 1.245 . S
C1175 O1176 1.245 . S
C1175 O1177 1.289 . S
O1176 C1175 1.245 . S
O1177 Mg1170 2.141 . S
O1177 C1175 1.289 . S
O1178 Mg1170 2.048 . S
O1178 C1171 1.195 . S
O1179 Mg1170 2.048 . S
O1179 C1180 1.195 . S
C1180 O1179 1.195 . S
C1180 O1181 1.313 . S
O1181 C1180 1.313 . S
O1182 Mg1170 2.141 . S
O1182 C1173 1.289 . S
Mg1183 O1190 2.141 . S
Mg1183 O1191 2.048 . S
Mg1183 O1192 2.048 . S
Mg1183 O1195 2.141 . S
C1184 O1185 1.313 . S
C1184 O1191 1.195 . S
O1185 C1184 1.313 . S
C1186 O1187 1.245 . S
C1186 O1195 1.289 . S
O1187 C1186 1.245 . S
C1188 O1189 1.245 . S
C1188 O1190 1.289 . S
O1189 C1188 1.245 . S
O1190 Mg1183 2.141 . S
O1190 C1188 1.289 . S
O1191 Mg1183 2.048 . S
O1191 C1184 1.195 . S
O1192 Mg1183 2.048 . S
O1192 C1193 1.195 . S
C1193 O1192 1.195 . S
C1193 O1194 1.313 . S
O1194 C1193 1.313 . S
O1195 Mg1183 2.141 . S
O1195 C1186 1.289 . S
Mg1196 O1203 2.141 . S
Mg1196 O1204 2.048 . S
Mg1196 O1205 2.048 . S
Mg1196 O1208 2.141 . S
C1197 O1198 1.313 . S
C1197 O1204 1.195 . S
O1198 C1197 1.313 . S
C1199 O1200 1.245 . S
C1199 O1208 1.289 . S
O1200 C1199 1.245 . S
C1201 O1202 1.245 . S
C1201 O1203 1.289 . S
O1202 C1201 1.245 . S
O1203 Mg1196 2.141 . S
O1203 C1201 1.289 . S
O1204 Mg1196 2.048 . S
O1204 C1197 1.195 . S
O1205 Mg1196 2.048 . S
O1205 C1206 1.195 . S
C1206 O1205 1.195 . S
C1206 O1207 1.313 . S
O1207 C1206 1.313 . S
O1208 Mg1196 2.141 . S
O1208 C1199 1.289 . S
Mg1209 O1216 2.141 . S
Mg1209 O1217 2.048 . S
Mg1209 O1218 2.048 . S
Mg1209 O1221 2.141 . S
C1210 O1211 1.313 . S
C1210 O1217 1.195 . S
O1211 C1210 1.313 . S
C1212 O1213 1.245 . S
C1212 O1221 1.289 . S
O1213 C1212 1.245 . S
C1214 O1215 1.245 . S
C1214 O1216 1.289 . S
O1215 C1214 1.245 . S
O1216 Mg1209 2.141 . S
O1216 C1214 1.289 . S
O1217 Mg1209 2.048 . S
O1217 C1210 1.195 . S
O1218 Mg1209 2.048 . S
O1218 C1219 1.195 . S
C1219 O1218 1.195 . S
C1219 O1220 1.313 . S
O1220 C1219 1.313 . S
O1221 Mg1209 2.141 . S
O1221 C1212 1.289 . S
Mg1222 O1229 2.141 . S
Mg1222 O1230 2.048 . S
Mg1222 O1231 2.048 . S
Mg1222 O1234 2.141 . S
C1223 O1224 1.313 . S
C1223 O1230 1.195 . S
O1224 C1223 1.313 . S
C1225 O1226 1.245 . S
C1225 O1234 1.289 . S
O1226 C1225 1.245 . S
C1227 O1228 1.245 . S
C1227 O1229 1.289 . S
O1228 C1227 1.245 . S
O1229 Mg1222 2.141 . S
O1229 C1227 1.289 . S
O1230 Mg1222 2.048 . S
O1230 C1223 1.195 . S
O1231 Mg1222 2.048 . S
O1231 C1232 1.195 . S
C1232 O1231 1.195 . S
C1232 O1233 1.313 . S
O1233 C1232 1.313 . S
O1234 Mg1222 2.141 . S
O1234 C1225 1.289 . S
Mg1235 O1242 2.141 . S
Mg1235 O1243 2.048 . S
Mg1235 O1244 2.048 . S
Mg1235 O1247 2.141 . S
C1236 O1237 1.313 . S
C1236 O1243 1.195 . S
O1237 C1236 1.313 . S
C1238 O1239 1.245 . S
C1238 O1247 1.289 . S
O1239 C1238 1.245 . S
C1240 O1241 1.245 . S
C1240 O1242 1.289 . S
O1241 C1240 1.245 . S
O1242 Mg1235 2.141 . S
O1242 C1240 1.289 . S
O1243 Mg1235 2.048 . S
O1243 C1236 1.195 . S
O1244 Mg1235 2.048 . S
O1244 C1245 1.195 . S
C1245 O1244 1.195 . S
C1245 O1246 1.313 . S
O1246 C1245 1.313 . S
O1247 Mg1235 2.141 . S
O1247 C1238 1.289 . S
C1248 C1249 1.387 . S
C1248 H1252 0.950 . S
C1248 C1257 1.390 1_454 S
C1249 C1248 1.387 . S
C1249 C1251 1.387 . S
H1250 C1257 0.950 . S
C1251 C1249 1.387 . S
C1251 C1253 1.390 1_454 S
C1251 H1255 0.950 . S
H1252 C1248 0.950 . S
C1253 C1251 1.390 1_656 S
C1253 C1254 1.387 . S
C1253 H1256 0.950 . S
C1254 C1253 1.387 . S
C1254 C1257 1.387 . S
H1255 C1251 0.950 . S
H1256 C1253 0.950 . S
C1257 C1248 1.390 1_656 S
C1257 H1250 0.950 . S
C1257 C1254 1.387 . S
C1258 C1259 1.387 . S
C1258 H1262 0.950 . S
C1258 C1267 1.390 . S
C1259 C1258 1.387 . S
C1259 C1261 1.387 . S
H1260 C1267 0.950 . S
C1261 C1259 1.387 . S
C1261 C1263 1.390 . S
C1261 H1265 0.950 . S
H1262 C1258 0.950 . S
C1263 C1261 1.390 . S
C1263 C1264 1.387 . S
C1263 H1266 0.950 . S
C1264 C1263 1.387 . S
C1264 C1267 1.387 . S
H1265 C1261 0.950 . S
H1266 C1263 0.950 . S
C1267 C1258 1.390 . S
C1267 H1260 0.950 . S
C1267 C1264 1.387 . S
C1268 C1269 1.387 . S
C1268 H1272 0.950 . S
C1268 C1277 1.390 1_655 S
C1269 C1268 1.387 . S
C1269 C1271 1.387 . S
H1270 C1277 0.950 . S
C1271 C1269 1.387 . S
C1271 C1273 1.390 1_655 S
C1271 H1275 0.950 . S
H1272 C1268 0.950 . S
C1273 C1271 1.390 1_455 S
C1273 C1274 1.387 . S
C1273 H1276 0.950 . S
C1274 C1273 1.387 . S
C1274 C1277 1.387 . S
H1275 C1271 0.950 . S
H1276 C1273 0.950 . S
C1277 C1268 1.390 1_455 S
C1277 H1270 0.950 . S
C1277 C1274 1.387 . S
C1278 C1279 1.387 . S
C1278 H1282 0.950 . S
C1278 C1287 1.390 . S
C1279 C1278 1.387 . S
C1279 C1281 1.387 . S
H1280 C1287 0.950 . S
C1281 C1279 1.387 . S
C1281 C1283 1.390 . S
C1281 H1285 0.950 . S
H1282 C1278 0.950 . S
C1283 C1281 1.390 . S
C1283 C1284 1.387 . S
C1283 H1286 0.950 . S
C1284 C1283 1.387 . S
C1284 C1287 1.387 . S
H1285 C1281 0.950 . S
H1286 C1283 0.950 . S
C1287 C1278 1.390 . S
C1287 H1280 0.950 . S
C1287 C1284 1.387 . S
C1288 C1289 1.387 . S
C1288 H1292 0.950 . S
C1288 C1297 1.390 1_654 S
C1289 C1288 1.387 . S
C1289 C1291 1.387 . S
H1290 C1297 0.950 . S
C1291 C1289 1.387 . S
C1291 C1293 1.390 1_654 S
C1291 H1295 0.950 . S
H1292 C1288 0.950 . S
C1293 C1291 1.390 1_456 S
C1293 C1294 1.387 . S
C1293 H1296 0.950 . S
C1294 C1293 1.387 . S
C1294 C1297 1.387 . S
H1295 C1291 0.950 . S
H1296 C1293 0.950 . S
C1297 C1288 1.390 1_456 S
C1297 H1290 0.950 . S
C1297 C1294 1.387 . S
C1298 C1299 1.387 . S
C1298 H1302 0.950 . S
C1298 C1307 1.390 . S
C1299 C1298 1.387 . S
C1299 C1301 1.387 . S
H1300 C1307 0.950 . S
C1301 C1299 1.387 . S
C1301 C1303 1.390 . S
C1301 H1305 0.950 . S
H1302 C1298 0.950 . S
C1303 C1301 1.390 . S
C1303 C1304 1.387 . S
C1303 H1306 0.950 . S
C1304 C1303 1.387 . S
C1304 C1307 1.387 . S
H1305 C1301 0.950 . S
H1306 C1303 0.950 . S
C1307 C1298 1.390 . S
C1307 H1300 0.950 . S
C1307 C1304 1.387 . S
C1308 C1309 1.387 . S
C1308 H1312 0.950 . S
C1308 C1317 1.390 1_455 S
C1309 C1308 1.387 . S
C1309 C1311 1.387 . S
H1310 C1317 0.950 . S
C1311 C1309 1.387 . S
C1311 C1313 1.390 1_455 S
C1311 H1315 0.950 . S
H1312 C1308 0.950 . S
C1313 C1311 1.390 1_655 S
C1313 C1314 1.387 . S
C1313 H1316 0.950 . S
C1314 C1313 1.387 . S
C1314 C1317 1.387 . S
H1315 C1311 0.950 . S
H1316 C1313 0.950 . S
C1317 C1308 1.390 1_655 S
C1317 H1310 0.950 . S
C1317 C1314 1.387 . S
C1318 C1319 1.387 . S
C1318 H1322 0.950 . S
C1318 C1327 1.390 . S
C1319 C1318 1.387 . S
C1319 C1321 1.387 . S
H1320 C1327 0.950 . S
C1321 C1319 1.387 . S
C1321 C1323 1.390 . S
C1321 H1325 0.950 . S
H1322 C1318 0.950 . S
C1323 C1321 1.390 . S
C1323 C1324 1.387 . S
C1323 H1326 0.950 . S
C1324 C1323 1.387 . S
C1324 C1327 1.387 . S
H1325 C1321 0.950 . S
H1326 C1323 0.950 . S
C1327 C1318 1.390 . S
C1327 H1320 0.950 . S
C1327 C1324 1.387 . S
C1328 C1329 1.387 . S
C1328 H1332 0.950 . S
C1328 C1337 1.390 1_665 S
C1329 C1328 1.387 . S
C1329 C1331 1.387 . S
H1330 C1337 0.950 . S
C1331 C1329 1.387 . S
C1331 C1333 1.390 1_665 S
C1331 H1335 0.950 . S
H1332 C1328 0.950 . S
C1333 C1331 1.390 1_445 S
C1333 C1334 1.387 . S
C1333 H1336 0.950 . S
C1334 C1333 1.387 . S
C1334 C1337 1.387 . S
H1335 C1331 0.950 . S
H1336 C1333 0.950 . S
C1337 C1328 1.390 1_445 S
C1337 H1330 0.950 . S
C1337 C1334 1.387 . S
C1338 C1339 1.387 . S
C1338 H1342 0.950 . S
C1338 C1347 1.390 . S
C1339 C1338 1.387 . S
C1339 C1341 1.387 . S
H1340 C1347 0.950 . S
C1341 C1339 1.387 . S
C1341 C1343 1.390 . S
C1341 H1345 0.950 . S
H1342 C1338 0.950 . S
C1343 C1341 1.390 . S
C1343 C1344 1.387 . S
C1343 H1346 0.950 . S
C1344 C1343 1.387 . S
C1344 C1347 1.387 . S
H1345 C1341 0.950 . S
H1346 C1343 0.950 . S
C1347 C1338 1.390 . S
C1347 H1340 0.950 . S
C1347 C1344 1.387 . S
C1348 C1349 1.387 . S
C1348 H1352 0.950 . S
C1348 C1357 1.390 1_655 S
C1349 C1348 1.387 . S
C1349 C1351 1.387 . S
H1350 C1357 0.950 . S
C1351 C1349 1.387 . S
C1351 C1353 1.390 1_655 S
C1351 H1355 0.950 . S
H1352 C1348 0.950 . S
C1353 C1351 1.390 1_455 S
C1353 C1354 1.387 . S
C1353 H1356 0.950 . S
C1354 C1353 1.387 . S
C1354 C1357 1.387 . S
H1355 C1351 0.950 . S
H1356 C1353 0.950 . S
C1357 C1348 1.390 1_455 S
C1357 H1350 0.950 . S
C1357 C1354 1.387 . S
C1358 C1359 1.387 . S
C1358 H1362 0.950 . S
C1358 C1367 1.390 . S
C1359 C1358 1.387 . S
C1359 C1361 1.387 . S
H1360 C1367 0.950 . S
C1361 C1359 1.387 . S
C1361 C1363 1.390 . S
C1361 H1365 0.950 . S
H1362 C1358 0.950 . S
C1363 C1361 1.390 . S
C1363 C1364 1.387 . S
C1363 H1366 0.950 . S
C1364 C1363 1.387 . S
C1364 C1367 1.387 . S
H1365 C1361 0.950 . S
H1366 C1363 0.950 . S
C1367 C1358 1.390 . S
C1367 H1360 0.950 . S
C1367 C1364 1.387 . S
C1368 C1369 1.387 . S
C1368 H1372 0.950 . S
C1368 C1377 1.390 1_465 S
C1369 C1368 1.387 . S
C1369 C1371 1.387 . S
H1370 C1377 0.950 . S
C1371 C1369 1.387 . S
C1371 C1373 1.390 1_465 S
C1371 H1375 0.950 . S
H1372 C1368 0.950 . S
C1373 C1371 1.390 1_645 S
C1373 C1374 1.387 . S
C1373 H1376 0.950 . S
C1374 C1373 1.387 . S
C1374 C1377 1.387 . S
H1375 C1371 0.950 . S
H1376 C1373 0.950 . S
C1377 C1368 1.390 1_645 S
C1377 H1370 0.950 . S
C1377 C1374 1.387 . S
C1378 C1379 1.387 . S
C1378 H1382 0.950 . S
C1378 C1387 1.390 . S
C1379 C1378 1.387 . S
C1379 C1381 1.387 . S
H1380 C1387 0.950 . S
C1381 C1379 1.387 . S
C1381 C1383 1.390 . S
C1381 H1385 0.950 . S
H1382 C1378 0.950 . S
C1383 C1381 1.390 . S
C1383 C1384 1.387 . S
C1383 H1386 0.950 . S
C1384 C1383 1.387 . S
C1384 C1387 1.387 . S
H1385 C1381 0.950 . S
H1386 C1383 0.950 . S
C1387 C1378 1.390 . S
C1387 H1380 0.950 . S
C1387 C1384 1.387 . S
C1388 C1389 1.387 . S
C1388 H1392 0.950 . S
C1388 C1397 1.390 1_455 S
C1389 C1388 1.387 . S
C1389 C1391 1.387 . S
H1390 C1397 0.950 . S
C1391 C1389 1.387 . S
C1391 C1393 1.390 1_455 S
C1391 H1395 0.950 . S
H1392 C1388 0.950 . S
C1393 C1391 1.390 1_655 S
C1393 C1394 1.387 . S
C1393 H1396 0.950 . S
C1394 C1393 1.387 . S
C1394 C1397 1.387 . S
H1395 C1391 0.950 . S
H1396 C1393 0.950 . S
C1397 C1388 1.390 1_655 S
C1397 H1390 0.950 . S
C1397 C1394 1.387 . S
C1398 C1399 1.387 . S
C1398 H1402 0.950 . S
C1398 C1407 1.390 . S
C1399 C1398 1.387 . S
C1399 C1401 1.387 . S
H1400 C1407 0.950 . S
C1401 C1399 1.387 . S
C1401 C1403 1.390 . S
C1401 H1405 0.950 . S
H1402 C1398 0.950 . S
C1403 C1401 1.390 . S
C1403 C1404 1.387 . S
C1403 H1406 0.950 . S
C1404 C1403 1.387 . S
C1404 C1407 1.387 . S
H1405 C1401 0.950 . S
H1406 C1403 0.950 . S
C1407 C1398 1.390 . S
C1407 H1400 0.950 . S
C1407 C1404 1.387 . S
C1408 C1409 1.387 . S
C1408 H1412 0.950 . S
C1408 C1417 1.390 1_566 S
C1409 C1408 1.387 . S
C1409 C1411 1.387 . S
H1410 C1417 0.950 . S
C1411 C1409 1.387 . S
C1411 C1413 1.390 1_566 S
C1411 H1415 0.950 . S
H1412 C1408 0.950 . S
C1413 C1411 1.390 1_544 S
C1413 C1414 1.387 . S
C1413 H1416 0.950 . S
C1414 C1413 1.387 . S
C1414 C1417 1.387 . S
H1415 C1411 0.950 . S
H1416 C1413 0.950 . S
C1417 C1408 1.390 1_544 S
C1417 H1410 0.950 . S
C1417 C1414 1.387 . S
C1418 C1419 1.387 . S
C1418 H1422 0.950 . S
C1418 C1427 1.390 1_545 S
C1419 C1418 1.387 . S
C1419 C1421 1.387 . S
H1420 C1427 0.950 . S
C1421 C1419 1.387 . S
C1421 C1423 1.390 1_545 S
C1421 H1425 0.950 . S
H1422 C1418 0.950 . S
C1423 C1421 1.390 1_565 S
C1423 C1424 1.387 . S
C1423 H1426 0.950 . S
C1424 C1423 1.387 . S
C1424 C1427 1.387 . S
H1425 C1421 0.950 . S
H1426 C1423 0.950 . S
C1427 C1418 1.390 1_565 S
C1427 H1420 0.950 . S
C1427 C1424 1.387 . S
C1428 C1429 1.387 . S
C1428 H1432 0.950 . S
C1428 C1437 1.390 . S
C1429 C1428 1.387 . S
C1429 C1431 1.387 . S
H1430 C1437 0.950 . S
C1431 C1429 1.387 . S
C1431 C1433 1.390 . S
C1431 H1435 0.950 . S
H1432 C1428 0.950 . S
C1433 C1431 1.390 . S
C1433 C1434 1.387 . S
C1433 H1436 0.950 . S
C1434 C1433 1.387 . S
C1434 C1437 1.387 . S
H1435 C1431 0.950 . S
H1436 C1433 0.950 . S
C1437 C1428 1.390 . S
C1437 H1430 0.950 . S
C1437 C1434 1.387 . S
C1438 C1439 1.387 . S
C1438 H1442 0.950 . S
C1438 C1447 1.390 1_554 S
C1439 C1438 1.387 . S
C1439 C1441 1.387 . S
H1440 C1447 0.950 . S
C1441 C1439 1.387 . S
C1441 C1443 1.390 1_554 S
C1441 H1445 0.950 . S
H1442 C1438 0.950 . S
C1443 C1441 1.390 1_556 S
C1443 C1444 1.387 . S
C1443 H1446 0.950 . S
C1444 C1443 1.387 . S
C1444 C1447 1.387 . S
H1445 C1441 0.950 . S
H1446 C1443 0.950 . S
C1447 C1438 1.390 1_556 S
C1447 H1440 0.950 . S
C1447 C1444 1.387 . S
C1448 C1449 1.387 . S
C1448 H1452 0.950 . S
C1448 C1457 1.390 . S
C1449 C1448 1.387 . S
C1449 C1451 1.387 . S
H1450 C1457 0.950 . S
C1451 C1449 1.387 . S
C1451 C1453 1.390 . S
C1451 H1455 0.950 . S
H1452 C1448 0.950 . S
C1453 C1451 1.390 . S
C1453 C1454 1.387 . S
C1453 H1456 0.950 . S
C1454 C1453 1.387 . S
C1454 C1457 1.387 . S
H1455 C1451 0.950 . S
H1456 C1453 0.950 . S
C1457 C1448 1.390 . S
C1457 H1450 0.950 . S
C1457 C1454 1.387 . S
C1458 C1459 1.387 . S
C1458 H1462 0.950 . S
C1458 C1467 1.390 1_564 S
C1459 C1458 1.387 . S
C1459 C1461 1.387 . S
H1460 C1467 0.950 . S
C1461 C1459 1.387 . S
C1461 C1463 1.390 1_564 S
C1461 H1465 0.950 . S
H1462 C1458 0.950 . S
C1463 C1461 1.390 1_546 S
C1463 C1464 1.387 . S
C1463 H1466 0.950 . S
C1464 C1463 1.387 . S
C1464 C1467 1.387 . S
H1465 C1461 0.950 . S
H1466 C1463 0.950 . S
C1467 C1458 1.390 1_546 S
C1467 H1460 0.950 . S
C1467 C1464 1.387 . S
C1468 C1469 1.387 . S
C1468 H1472 0.950 . S
C1468 C1477 1.390 . S
C1469 C1468 1.387 . S
C1469 C1471 1.387 . S
H1470 C1477 0.950 . S
C1471 C1469 1.387 . S
C1471 C1473 1.390 . S
C1471 H1475 0.950 . S
H1472 C1468 0.950 . S
C1473 C1471 1.390 . S
C1473 C1474 1.387 . S
C1473 H1476 0.950 . S
C1474 C1473 1.387 . S
C1474 C1477 1.387 . S
H1475 C1471 0.950 . S
H1476 C1473 0.950 . S
C1477 C1468 1.390 . S
C1477 H1470 0.950 . S
C1477 C1474 1.387 . S
C1478 C1479 1.387 . S
C1478 H1482 0.950 . S
C1478 C1487 1.390 . S
C1479 C1478 1.387 . S
C1479 C1481 1.387 . S
H1480 C1487 0.950 . S
C1481 C1479 1.387 . S
C1481 C1483 1.390 . S
C1481 H1485 0.950 . S
H1482 C1478 0.950 . S
C1483 C1481 1.390 . S
C1483 C1484 1.387 . S
C1483 H1486 0.950 . S
C1484 C1483 1.387 . S
C1484 C1487 1.387 . S
H1485 C1481 0.950 . S
H1486 C1483 0.950 . S
C1487 C1478 1.390 . S
C1487 H1480 0.950 . S
C1487 C1484 1.387 . S
C1488 C1489 1.387 . S
C1488 H1492 0.950 . S
C1488 C1497 1.390 . S
C1489 C1488 1.387 . S
C1489 C1491 1.387 . S
H1490 C1497 0.950 . S
C1491 C1489 1.387 . S
C1491 C1493 1.390 . S
C1491 H1495 0.950 . S
H1492 C1488 0.950 . S
C1493 C1491 1.390 . S
C1493 C1494 1.387 . S
C1493 H1496 0.950 . S
C1494 C1493 1.387 . S
C1494 C1497 1.387 . S
H1495 C1491 0.950 . S
H1496 C1493 0.950 . S
C1497 C1488 1.390 . S
C1497 H1490 0.950 . S
C1497 C1494 1.387 . S
C1498 C1499 1.387 . S
C1498 H1502 0.950 . S
C1498 C1507 1.390 . S
C1499 C1498 1.387 . S
C1499 C1501 1.387 . S
H1500 C1507 0.950 . S
C1501 C1499 1.387 . S
C1501 C1503 1.390 . S
C1501 H1505 0.950 . S
H1502 C1498 0.950 . S
C1503 C1501 1.390 . S
C1503 C1504 1.387 . S
C1503 H1506 0.950 . S
C1504 C1503 1.387 . S
C1504 C1507 1.387 . S
H1505 C1501 0.950 . S
H1506 C1503 0.950 . S
C1507 C1498 1.390 . S
C1507 H1500 0.950 . S
C1507 C1504 1.387 . S
C1508 C1509 1.387 . S
C1508 H1512 0.950 . S
C1508 C1517 1.390 . S
C1509 C1508 1.387 . S
C1509 C1511 1.387 . S
H1510 C1517 0.950 . S
C1511 C1509 1.387 . S
C1511 C1513 1.390 . S
C1511 H1515 0.950 . S
H1512 C1508 0.950 . S
C1513 C1511 1.390 . S
C1513 C1514 1.387 . S
C1513 H1516 0.950 . S
C1514 C1513 1.387 . S
C1514 C1517 1.387 . S
H1515 C1511 0.950 . S
H1516 C1513 0.950 . S
C1517 C1508 1.390 . S
C1517 H1510 0.950 . S
C1517 C1514 1.387 . S
C1518 C1519 1.387 . S
C1518 H1522 0.950 . S
C1518 C1527 1.390 . S
C1519 C1518 1.387 . S
C1519 C1521 1.387 . S
H1520 C1527 0.950 . S
C1521 C1519 1.387 . S
C1521 C1523 1.390 . S
C1521 H1525 0.950 . S
H1522 C1518 0.950 . S
C1523 C1521 1.390 . S
C1523 C1524 1.387 . S
C1523 H1526 0.950 . S
C1524 C1523 1.387 . S
C1524 C1527 1.387 . S
H1525 C1521 0.950 . S
H1526 C1523 0.950 . S
C1527 C1518 1.390 . S
C1527 H1520 0.950 . S
C1527 C1524 1.387 . S
C1528 C1529 1.387 . S
C1528 H1532 0.950 . S
C1528 C1537 1.390 . S
C1529 C1528 1.387 . S
C1529 C1531 1.387 . S
H1530 C1537 0.950 . S
C1531 C1529 1.387 . S
C1531 C1533 1.390 . S
C1531 H1535 0.950 . S
H1532 C1528 0.950 . S
C1533 C1531 1.390 . S
C1533 C1534 1.387 . S
C1533 H1536 0.950 . S
C1534 C1533 1.387 . S
C1534 C1537 1.387 . S
H1535 C1531 0.950 . S
H1536 C1533 0.950 . S
C1537 C1528 1.390 . S
C1537 H1530 0.950 . S
C1537 C1534 1.387 . S
C1538 C1539 1.387 . S
C1538 H1542 0.950 . S
C1538 C1547 1.390 . S
C1539 C1538 1.387 . S
C1539 C1541 1.387 . S
H1540 C1547 0.950 . S
C1541 C1539 1.387 . S
C1541 C1543 1.390 . S
C1541 H1545 0.950 . S
H1542 C1538 0.950 . S
C1543 C1541 1.390 . S
C1543 C1544 1.387 . S
C1543 H1546 0.950 . S
C1544 C1543 1.387 . S
C1544 C1547 1.387 . S
H1545 C1541 0.950 . S
H1546 C1543 0.950 . S
C1547 C1538 1.390 . S
C1547 H1540 0.950 . S
C1547 C1544 1.387 . S
C1548 C1549 1.387 . S
C1548 H1552 0.950 . S
C1548 C1557 1.390 . S
C1549 C1548 1.387 . S
C1549 C1551 1.387 . S
H1550 C1557 0.950 . S
C1551 C1549 1.387 . S
C1551 C1553 1.390 . S
C1551 H1555 0.950 . S
H1552 C1548 0.950 . S
C1553 C1551 1.390 . S
C1553 C1554 1.387 . S
C1553 H1556 0.950 . S
C1554 C1553 1.387 . S
C1554 C1557 1.387 . S
H1555 C1551 0.950 . S
H1556 C1553 0.950 . S
C1557 C1548 1.390 . S
C1557 H1550 0.950 . S
C1557 C1554 1.387 . S
C1558 C1559 1.387 . S
C1558 H1562 0.950 . S
C1558 C1567 1.390 . S
C1559 C1558 1.387 . S
C1559 C1561 1.387 . S
H1560 C1567 0.950 . S
C1561 C1559 1.387 . S
C1561 C1563 1.390 . S
C1561 H1565 0.950 . S
H1562 C1558 0.950 . S
C1563 C1561 1.390 . S
C1563 C1564 1.387 . S
C1563 H1566 0.950 . S
C1564 C1563 1.387 . S
C1564 C1567 1.387 . S
H1565 C1561 0.950 . S
H1566 C1563 0.950 . S
C1567 C1558 1.390 . S
C1567 H1560 0.950 . S
C1567 C1564 1.387 . S
C1568 C1569 1.387 . S
C1568 H1572 0.950 . S
C1568 C1577 1.390 . S
C1569 C1568 1.387 . S
C1569 C1571 1.387 . S
H1570 C1577 0.950 . S
C1571 C1569 1.387 . S
C1571 C1573 1.390 . S
C1571 H1575 0.950 . S
H1572 C1568 0.950 . S
C1573 C1571 1.390 . S
C1573 C1574 1.387 . S
C1573 H1576 0.950 . S
C1574 C1573 1.387 . S
C1574 C1577 1.387 . S
H1575 C1571 0.950 . S
H1576 C1573 0.950 . S
C1577 C1568 1.390 . S
C1577 H1570 0.950 . S
C1577 C1574 1.387 . S
C1578 C1579 1.387 . S
C1578 H1582 0.950 . S
C1578 C1587 1.390 1_556 S
C1579 C1578 1.387 . S
C1579 C1581 1.387 . S
H1580 C1587 0.950 . S
C1581 C1579 1.387 . S
C1581 C1583 1.390 1_556 S
C1581 H1585 0.950 . S
H1582 C1578 0.950 . S
C1583 C1581 1.390 1_554 S
C1583 C1584 1.387 . S
C1583 H1586 0.950 . S
C1584 C1583 1.387 . S
C1584 C1587 1.387 . S
H1585 C1581 0.950 . S
H1586 C1583 0.950 . S
C1587 C1578 1.390 1_554 S
C1587 H1580 0.950 . S
C1587 C1584 1.387 . S
C1588 C1589 1.387 . S
C1588 H1592 0.950 . S
C1588 C1597 1.390 . S
C1589 C1588 1.387 . S
C1589 C1591 1.387 . S
H1590 C1597 0.950 . S
C1591 C1589 1.387 . S
C1591 C1593 1.390 . S
C1591 H1595 0.950 . S
H1592 C1588 0.950 . S
C1593 C1591 1.390 . S
C1593 C1594 1.387 . S
C1593 H1596 0.950 . S
C1594 C1593 1.387 . S
C1594 C1597 1.387 . S
H1595 C1591 0.950 . S
H1596 C1593 0.950 . S
C1597 C1588 1.390 . S
C1597 H1590 0.950 . S
C1597 C1594 1.387 . S
C1598 C1599 1.387 . S
C1598 H1602 0.950 . S
C1598 C1607 1.390 1_565 S
C1599 C1598 1.387 . S
C1599 C1601 1.387 . S
H1600 C1607 0.950 . S
C1601 C1599 1.387 . S
C1601 C1603 1.390 1_565 S
C1601 H1605 0.950 . S
H1602 C1598 0.950 . S
C1603 C1601 1.390 1_545 S
C1603 C1604 1.387 . S
C1603 H1606 0.950 . S
C1604 C1603 1.387 . S
C1604 C1607 1.387 . S
H1605 C1601 0.950 . S
H1606 C1603 0.950 . S
C1607 C1598 1.390 1_545 S
C1607 H1600 0.950 . S
C1607 C1604 1.387 . S
C1608 C1609 1.387 . S
C1608 H1612 0.950 . S
C1608 C1617 1.390 . S
C1609 C1608 1.387 . S
C1609 C1611 1.387 . S
H1610 C1617 0.950 . S
C1611 C1609 1.387 . S
C1611 C1613 1.390 . S
C1611 H1615 0.950 . S
H1612 C1608 0.950 . S
C1613 C1611 1.390 . S
C1613 C1614 1.387 . S
C1613 H1616 0.950 . S
C1614 C1613 1.387 . S
C1614 C1617 1.387 . S
H1615 C1611 0.950 . S
H1616 C1613 0.950 . S
C1617 C1608 1.390 . S
C1617 H1610 0.950 . S
C1617 C1614 1.387 . S
C1618 C1619 1.387 . S
C1618 H1622 0.950 . S
C1618 C1627 1.390 . S
C1619 C1618 1.387 . S
C1619 C1621 1.387 . S
H1620 C1627 0.950 . S
C1621 C1619 1.387 . S
C1621 C1623 1.390 . S
C1621 H1625 0.950 . S
H1622 C1618 0.950 . S
C1623 C1621 1.390 . S
C1623 C1624 1.387 . S
C1623 H1626 0.950 . S
C1624 C1623 1.387 . S
C1624 C1627 1.387 . S
H1625 C1621 0.950 . S
H1626 C1623 0.950 . S
C1627 C1618 1.390 . S
C1627 H1620 0.950 . S
C1627 C1624 1.387 . S
C1628 C1629 1.387 . S
C1628 H1632 0.950 . S
C1628 C1637 1.390 . S
C1629 C1628 1.387 . S
C1629 C1631 1.387 . S
H1630 C1637 0.950 . S
C1631 C1629 1.387 . S
C1631 C1633 1.390 . S
C1631 H1635 0.950 . S
H1632 C1628 0.950 . S
C1633 C1631 1.390 . S
C1633 C1634 1.387 . S
C1633 H1636 0.950 . S
C1634 C1633 1.387 . S
C1634 C1637 1.387 . S
H1635 C1631 0.950 . S
H1636 C1633 0.950 . S
C1637 C1628 1.390 . S
C1637 H1630 0.950 . S
C1637 C1634 1.387 . S
C1638 C1639 1.387 . S
C1638 H1642 0.950 . S
C1638 C1647 1.390 1_556 S
C1639 C1638 1.387 . S
C1639 C1641 1.387 . S
H1640 C1647 0.950 . S
C1641 C1639 1.387 . S
C1641 C1643 1.390 1_556 S
C1641 H1645 0.950 . S
H1642 C1638 0.950 . S
C1643 C1641 1.390 1_554 S
C1643 C1644 1.387 . S
C1643 H1646 0.950 . S
C1644 C1643 1.387 . S
C1644 C1647 1.387 . S
H1645 C1641 0.950 . S
H1646 C1643 0.950 . S
C1647 C1638 1.390 1_554 S
C1647 H1640 0.950 . S
C1647 C1644 1.387 . S
C1648 C1649 1.387 . S
C1648 H1652 0.950 . S
C1648 C1657 1.390 . S
C1649 C1648 1.387 . S
C1649 C1651 1.387 . S
H1650 C1657 0.950 . S
C1651 C1649 1.387 . S
C1651 C1653 1.390 . S
C1651 H1655 0.950 . S
H1652 C1648 0.950 . S
C1653 C1651 1.390 . S
C1653 C1654 1.387 . S
C1653 H1656 0.950 . S
C1654 C1653 1.387 . S
C1654 C1657 1.387 . S
H1655 C1651 0.950 . S
H1656 C1653 0.950 . S
C1657 C1648 1.390 . S
C1657 H1650 0.950 . S
C1657 C1654 1.387 . S
C1658 C1659 1.387 . S
C1658 H1662 0.950 . S
C1658 C1667 1.390 1_556 S
C1659 C1658 1.387 . S
C1659 C1661 1.387 . S
H1660 C1667 0.950 . S
C1661 C1659 1.387 . S
C1661 C1663 1.390 1_556 S
C1661 H1665 0.950 . S
H1662 C1658 0.950 . S
C1663 C1661 1.390 1_554 S
C1663 C1664 1.387 . S
C1663 H1666 0.950 . S
C1664 C1663 1.387 . S
C1664 C1667 1.387 . S
H1665 C1661 0.950 . S
H1666 C1663 0.950 . S
C1667 C1658 1.390 1_554 S
C1667 H1660 0.950 . S
C1667 C1664 1.387 . S
C1668 C1669 1.387 . S
C1668 H1672 0.950 . S
C1668 C1677 1.390 1_565 S
C1669 C1668 1.387 . S
C1669 C1671 1.387 . S
H1670 C1677 0.950 . S
C1671 C1669 1.387 . S
C1671 C1673 1.390 1_565 S
C1671 H1675 0.950 . S
H1672 C1668 0.950 . S
C1673 C1671 1.390 1_545 S
C1673 C1674 1.387 . S
C1673 H1676 0.950 . S
C1674 C1673 1.387 . S
C1674 C1677 1.387 . S
H1675 C1671 0.950 . S
H1676 C1673 0.950 . S
C1677 C1668 1.390 1_545 S
C1677 H1670 0.950 . S
C1677 C1674 1.387 . S
C1678 C1679 1.387 . S
C1678 H1682 0.950 . S
C1678 C1687 1.390 . S
C1679 C1678 1.387 . S
C1679 C1681 1.387 . S
H1680 C1687 0.950 . S
C1681 C1679 1.387 . S
C1681 C1683 1.390 . S
C1681 H1685 0.950 . S
H1682 C1678 0.950 . S
C1683 C1681 1.390 . S
C1683 C1684 1.387 . S
C1683 H1686 0.950 . S
C1684 C1683 1.387 . S
C1684 C1687 1.387 . S
H1685 C1681 0.950 . S
H1686 C1683 0.950 . S
C1687 C1678 1.390 . S
C1687 H1680 0.950 . S
C1687 C1684 1.387 . S
C1688 C1689 1.387 . S
C1688 H1692 0.950 . S
C1688 C1697 1.390 1_565 S
C1689 C1688 1.387 . S
C1689 C1691 1.387 . S
H1690 C1697 0.950 . S
C1691 C1689 1.387 . S
C1691 C1693 1.390 1_565 S
C1691 H1695 0.950 . S
H1692 C1688 0.950 . S
C1693 C1691 1.390 1_545 S
C1693 C1694 1.387 . S
C1693 H1696 0.950 . S
C1694 C1693 1.387 . S
C1694 C1697 1.387 . S
H1695 C1691 0.950 . S
H1696 C1693 0.950 . S
C1697 C1688 1.390 1_545 S
C1697 H1690 0.950 . S
C1697 C1694 1.387 . S
C1698 C1699 1.387 . S
C1698 H1702 0.950 . S
C1698 C1707 1.390 . S
C1699 C1698 1.387 . S
C1699 C1701 1.387 . S
H1700 C1707 0.950 . S
C1701 C1699 1.387 . S
C1701 C1703 1.390 . S
C1701 H1705 0.950 . S
H1702 C1698 0.950 . S
C1703 C1701 1.390 . S
C1703 C1704 1.387 . S
C1703 H1706 0.950 . S
C1704 C1703 1.387 . S
C1704 C1707 1.387 . S
H1705 C1701 0.950 . S
H1706 C1703 0.950 . S
C1707 C1698 1.390 . S
C1707 H1700 0.950 . S
C1707 C1704 1.387 . S
C1708 C1709 1.387 . S
C1708 H1712 0.950 . S
C1708 C1717 1.390 . S
C1709 C1708 1.387 . S
C1709 C1711 1.387 . S
H1710 C1717 0.950 . S
C1711 C1709 1.387 . S
C1711 C1713 1.390 . S
C1711 H1715 0.950 . S
H1712 C1708 0.950 . S
C1713 C1711 1.390 . S
C1713 C1714 1.387 . S
C1713 H1716 0.950 . S
C1714 C1713 1.387 . S
C1714 C1717 1.387 . S
H1715 C1711 0.950 . S
H1716 C1713 0.950 . S
C1717 C1708 1.390 . S
C1717 H1710 0.950 . S
C1717 C1714 1.387 . S
C1718 C1719 1.387 . S
C1718 H1722 0.950 . S
C1718 C1727 1.390 . S
C1719 C1718 1.387 . S
C1719 C1721 1.387 . S
H1720 C1727 0.950 . S
C1721 C1719 1.387 . S
C1721 C1723 1.390 . S
C1721 H1725 0.950 . S
H1722 C1718 0.950 . S
C1723 C1721 1.390 . S
C1723 C1724 1.387 . S
C1723 H1726 0.950 . S
C1724 C1723 1.387 . S
C1724 C1727 1.387 . S
H1725 C1721 0.950 . S
H1726 C1723 0.950 . S
C1727 C1718 1.390 . S
C1727 H1720 0.950 . S
C1727 C1724 1.387 . S
C1728 C1729 1.387 . S
C1728 H1732 0.950 1_655 S
C1728 C1737 1.390 . S
C1729 C1728 1.387 . S
C1729 C1731 1.387 . S
H1730 C1737 0.950 . S
C1731 C1729 1.387 . S
C1731 C1733 1.390 . S
C1731 H1735 0.950 . S
H1732 C1728 0.950 1_455 S
C1733 C1731 1.390 . S
C1733 C1734 1.387 . S
C1733 H1736 0.950 . S
C1734 C1733 1.387 . S
C1734 C1737 1.387 . S
H1735 C1731 0.950 . S
H1736 C1733 0.950 . S
C1737 C1728 1.390 . S
C1737 H1730 0.950 . S
C1737 C1734 1.387 . S
C1738 C1739 1.387 . S
C1738 H1742 0.948 1_655 S
C1738 C1747 1.390 1_655 S
C1739 C1738 1.387 . S
C1739 C1741 1.387 . S
H1740 C1747 0.950 . S
C1741 C1739 1.387 . S
C1741 C1743 1.390 . S
C1741 H1745 0.950 . S
H1742 C1738 0.948 1_455 S
C1743 C1741 1.390 . S
C1743 C1744 1.387 . S
C1743 H1746 0.950 . S
C1744 C1743 1.387 . S
C1744 C1747 1.387 1_655 S
H1745 C1741 0.950 . S
H1746 C1743 0.950 . S
C1747 C1738 1.390 1_455 S
C1747 H1740 0.950 . S
C1747 C1744 1.387 1_455 S
C1748 C1749 1.387 . S
C1748 H1752 0.950 . S
C1748 C1757 1.390 . S
C1749 C1748 1.387 . S
C1749 C1751 1.387 . S
H1750 C1757 0.950 . S
C1751 C1749 1.387 . S
C1751 C1753 1.390 . S
C1751 H1755 0.950 . S
H1752 C1748 0.950 . S
C1753 C1751 1.390 . S
C1753 C1754 1.387 . S
C1753 H1756 0.950 . S
C1754 C1753 1.387 . S
C1754 C1757 1.387 . S
H1755 C1751 0.950 . S
H1756 C1753 0.950 . S
C1757 C1748 1.390 . S
C1757 H1750 0.950 . S
C1757 C1754 1.387 . S
C1758 C1759 1.387 . S
C1758 H1762 0.950 1_455 S
C1758 C1767 1.390 . S
C1759 C1758 1.387 . S
C1759 C1761 1.387 . S
H1760 C1767 0.950 . S
C1761 C1759 1.387 . S
C1761 C1763 1.390 . S
C1761 H1765 0.950 . S
H1762 C1758 0.950 1_655 S
C1763 C1761 1.390 . S
C1763 C1764 1.387 . S
C1763 H1766 0.950 . S
C1764 C1763 1.387 . S
C1764 C1767 1.387 . S
H1765 C1761 0.950 . S
H1766 C1763 0.950 . S
C1767 C1758 1.390 . S
C1767 H1760 0.950 . S
C1767 C1764 1.387 . S
C1768 C1769 1.387 . S
C1768 H1772 0.950 . S
C1768 C1777 1.390 . S
C1769 C1768 1.387 . S
C1769 C1771 1.387 . S
H1770 C1777 0.950 . S
C1771 C1769 1.387 . S
C1771 C1773 1.390 . S
C1771 H1775 0.929 1_655 S
H1772 C1768 0.950 . S
C1773 C1771 1.390 . S
C1773 C1774 1.387 . S
C1773 H1776 0.950 . S
C1774 C1773 1.387 . S
C1774 C1777 1.387 . S
H1775 C1771 0.929 1_455 S
H1776 C1773 0.950 . S
C1777 C1768 1.390 . S
C1777 H1770 0.950 . S
C1777 C1774 1.387 . S
C1778 C1779 1.387 . S
C1778 H1782 0.950 . S
C1778 C1787 1.390 . S
C1779 C1778 1.387 . S
C1779 C1781 1.387 . S
H1780 C1787 0.950 . S
C1781 C1779 1.387 . S
C1781 C1783 1.390 . S
C1781 H1785 0.950 . S
H1782 C1778 0.950 . S
C1783 C1781 1.390 . S
C1783 C1784 1.387 . S
C1783 H1786 0.950 . S
C1784 C1783 1.387 . S
C1784 C1787 1.387 . S
H1785 C1781 0.950 . S
H1786 C1783 0.950 . S
C1787 C1778 1.390 . S
C1787 H1780 0.950 . S
C1787 C1784 1.387 . S
C1788 C1789 1.387 . S
C1788 H1792 0.950 . S
C1788 C1797 1.390 . S
C1789 C1788 1.387 . S
C1789 C1791 1.387 1_455 S
H1790 C1797 0.950 . S
C1791 C1789 1.387 1_655 S
C1791 C1793 1.390 1_655 S
C1791 H1795 0.950 . S
H1792 C1788 0.950 . S
C1793 C1791 1.390 1_455 S
C1793 C1794 1.387 . S
C1793 H1796 0.950 . S
C1794 C1793 1.387 . S
C1794 C1797 1.387 . S
H1795 C1791 0.950 . S
H1796 C1793 0.950 . S
C1797 C1788 1.390 . S
C1797 H1790 0.950 . S
C1797 C1794 1.387 . S
C1798 C1799 1.387 . S
C1798 H1802 0.950 . S
C1798 C1807 1.390 . S
C1799 C1798 1.387 . S
C1799 C1801 1.387 . S
H1800 C1807 0.950 . S
C1801 C1799 1.387 . S
C1801 C1803 1.390 . S
C1801 H1805 0.950 . S
H1802 C1798 0.950 . S
C1803 C1801 1.390 . S
C1803 C1804 1.387 . S
C1803 H1806 0.950 . S
C1804 C1803 1.387 . S
C1804 C1807 1.387 . S
H1805 C1801 0.950 . S
H1806 C1803 0.950 . S
C1807 C1798 1.390 . S
C1807 H1800 0.950 . S
C1807 C1804 1.387 . S
C1808 C1809 1.387 1_545 S
C1808 H1812 0.950 . S
C1808 C1817 1.390 1_545 S
C1809 C1808 1.387 1_565 S
C1809 C1811 1.387 . S
H1810 C1817 0.950 . S
C1811 C1809 1.387 . S
C1811 C1813 1.390 . S
C1811 H1815 0.950 . S
H1812 C1808 0.950 . S
C1813 C1811 1.390 . S
C1813 C1814 1.387 . S
C1813 H1816 0.950 . S
C1814 C1813 1.387 . S
C1814 C1817 1.387 . S
H1815 C1811 0.950 . S
H1816 C1813 0.950 . S
C1817 C1808 1.390 1_565 S
C1817 H1810 0.950 . S
C1817 C1814 1.387 . S
C1818 C1819 1.387 . S
C1818 H1822 0.950 . S
C1818 C1827 1.390 . S
C1819 C1818 1.387 . S
C1819 C1821 1.387 . S
H1820 C1827 0.950 . S
C1821 C1819 1.387 . S
C1821 C1823 1.390 . S
C1821 H1825 0.950 . S
H1822 C1818 0.950 . S
C1823 C1821 1.390 . S
C1823 C1824 1.387 . S
C1823 H1826 0.950 . S
C1824 C1823 1.387 . S
C1824 C1827 1.387 . S
H1825 C1821 0.950 . S
H1826 C1823 0.950 . S
C1827 C1818 1.390 . S
C1827 H1820 0.950 . S
C1827 C1824 1.387 . S
C1828 C1829 1.387 . S
C1828 H1832 0.950 . S
C1828 C1837 1.390 . S
C1829 C1828 1.387 . S
C1829 C1831 1.387 . S
H1830 C1837 0.950 . S
C1831 C1829 1.387 . S
C1831 C1833 1.390 . S
C1831 H1835 0.950 . S
H1832 C1828 0.950 . S
C1833 C1831 1.390 . S
C1833 C1834 1.387 . S
C1833 H1836 0.950 . S
C1834 C1833 1.387 . S
C1834 C1837 1.387 . S
H1835 C1831 0.950 . S
H1836 C1833 0.950 . S
C1837 C1828 1.390 . S
C1837 H1830 0.950 . S
C1837 C1834 1.387 . S
C1838 C1839 1.387 . S
C1838 H1842 0.950 . S
C1838 C1847 1.390 . S
C1839 C1838 1.387 . S
C1839 C1841 1.387 . S
H1840 C1847 0.950 . S
C1841 C1839 1.387 . S
C1841 C1843 1.390 . S
C1841 H1845 0.950 . S
H1842 C1838 0.950 . S
C1843 C1841 1.390 . S
C1843 C1844 1.387 . S
C1843 H1846 0.950 1_554 S
C1844 C1843 1.387 . S
C1844 C1847 1.387 . S
H1845 C1841 0.950 . S
H1846 C1843 0.950 1_556 S
C1847 C1838 1.390 . S
C1847 H1840 0.950 . S
C1847 C1844 1.387 . S
C1848 C1849 1.387 . S
C1848 H1852 0.950 . S
C1848 C1857 1.390 1_545 S
C1849 C1848 1.387 . S
C1849 C1851 1.387 . S
H1850 C1857 0.950 . S
C1851 C1849 1.387 . S
C1851 C1853 1.390 . S
C1851 H1855 0.950 . S
H1852 C1848 0.950 . S
C1853 C1851 1.390 . S
C1853 C1854 1.387 . S
C1853 H1856 0.950 . S
C1854 C1853 1.387 . S
C1854 C1857 1.387 1_545 S
H1855 C1851 0.950 . S
H1856 C1853 0.950 . S
C1857 C1848 1.390 1_565 S
C1857 H1850 0.950 . S
C1857 C1854 1.387 1_565 S
C1858 C1859 1.387 . S
C1858 H1862 0.950 . S
C1858 C1867 1.390 . S
C1859 C1858 1.387 . S
C1859 C1861 1.387 1_556 S
H1860 C1867 0.950 . S
C1861 C1859 1.387 1_554 S
C1861 C1863 1.390 1_554 S
C1861 H1865 0.950 . S
H1862 C1858 0.950 . S
C1863 C1861 1.390 1_556 S
C1863 C1864 1.387 . S
C1863 H1866 0.950 . S
C1864 C1863 1.387 . S
C1864 C1867 1.387 . S
H1865 C1861 0.950 . S
H1866 C1863 0.950 . S
C1867 C1858 1.390 . S
C1867 H1860 0.950 . S
C1867 C1864 1.387 . S
C1868 C1869 1.387 . S
C1868 H1872 0.950 . S
C1868 C1877 1.390 . S
C1869 C1868 1.387 . S
C1869 C1871 1.387 . S
H1870 C1877 0.950 . S
C1871 C1869 1.387 . S
C1871 C1873 1.390 . S
C1871 H1875 0.950 . S
H1872 C1868 0.950 . S
C1873 C1871 1.390 . S
C1873 C1874 1.387 . S
C1873 H1876 0.950 . S
C1874 C1873 1.387 . S
C1874 C1877 1.387 . S
H1875 C1871 0.950 . S
H1876 C1873 0.950 . S
C1877 C1868 1.390 . S
C1877 H1870 0.950 . S
C1877 C1874 1.387 . S
C1878 C1879 1.387 . S
C1878 H1882 0.950 . S
C1878 C1887 1.390 . S
C1879 C1878 1.387 . S
C1879 C1881 1.387 . S
H1880 C1887 0.950 . S
C1881 C1879 1.387 . S
C1881 C1883 1.390 . S
C1881 H1885 0.950 . S
H1882 C1878 0.950 . S
C1883 C1881 1.390 . S
C1883 C1884 1.387 . S
C1883 H1886 0.950 . S
C1884 C1883 1.387 . S
C1884 C1887 1.387 . S
H1885 C1881 0.950 . S
H1886 C1883 0.950 . S
C1887 C1878 1.390 . S
C1887 H1880 0.950 . S
C1887 C1884 1.387 . S
C1888 C1889 1.387 . S
C1888 H1892 0.950 . S
C1888 C1897 1.390 . S
C1889 C1888 1.387 . S
C1889 C1891 1.387 . S
H1890 C1897 0.950 . S
C1891 C1889 1.387 . S
C1891 C1893 1.390 . S
C1891 H1895 0.950 . S
H1892 C1888 0.950 . S
C1893 C1891 1.390 . S
C1893 C1894 1.387 . S
C1893 H1896 0.937 1_556 S
C1894 C1893 1.387 . S
C1894 C1897 1.387 . S
H1895 C1891 0.950 . S
H1896 C1893 0.937 1_554 S
C1897 C1888 1.390 . S
C1897 H1890 0.950 . S
C1897 C1894 1.387 . S
C1898 C1899 1.387 . S
C1898 H1902 0.950 . S
C1898 C1907 1.390 . S
C1899 C1898 1.387 . S
C1899 C1901 1.387 . S
H1900 C1907 0.950 . S
C1901 C1899 1.387 . S
C1901 C1903 1.390 . S
C1901 H1905 0.950 . S
H1902 C1898 0.950 . S
C1903 C1901 1.390 . S
C1903 C1904 1.387 . S
C1903 H1906 0.950 . S
C1904 C1903 1.387 . S
C1904 C1907 1.387 . S
H1905 C1901 0.950 . S
H1906 C1903 0.950 . S
C1907 C1898 1.390 . S
C1907 H1900 0.950 . S
C1907 C1904 1.387 . S
C1908 C1909 1.387 . S
C1908 H1912 0.958 . S
C1908 C1917 1.390 1_545 S
C1909 C1908 1.387 . S
C1909 C1911 1.387 . S
H1910 C1917 0.950 . S
C1911 C1909 1.387 . S
C1911 C1913 1.390 . S
C1911 H1915 0.950 . S
H1912 C1908 0.958 . S
C1913 C1911 1.390 . S
C1913 C1914 1.387 . S
C1913 H1916 0.950 . S
C1914 C1913 1.387 . S
C1914 C1917 1.387 1_545 S
H1915 C1911 0.950 . S
H1916 C1913 0.950 . S
C1917 C1908 1.390 1_565 S
C1917 H1910 0.950 . S
C1917 C1914 1.387 1_565 S
C1918 C1919 1.387 . S
C1918 H1922 0.950 . S
C1918 C1927 1.390 . S
C1919 C1918 1.387 . S
C1919 C1921 1.385 1_554 S
H1920 C1927 0.950 . S
C1921 C1919 1.385 1_556 S
C1921 C1923 1.375 1_556 S
C1921 H1925 0.968 . S
H1922 C1918 0.950 . S
C1923 C1921 1.375 1_554 S
C1923 C1924 1.387 . S
C1923 H1926 0.950 . S
C1924 C1923 1.387 . S
C1924 C1927 1.387 . S
H1925 C1921 0.968 . S
H1926 C1923 0.950 . S
C1927 C1918 1.390 . S
C1927 H1920 0.950 . S
C1927 C1924 1.387 . S
C1928 C1929 1.387 . S
C1928 H1932 0.950 . S
C1928 C1937 1.390 . S
C1929 C1928 1.387 . S
C1929 C1931 1.387 1_556 S
H1930 C1937 0.950 . S
C1931 C1929 1.387 1_554 S
C1931 C1933 1.390 1_554 S
C1931 H1935 0.950 . S
H1932 C1928 0.950 . S
C1933 C1931 1.390 1_556 S
C1933 C1934 1.387 . S
C1933 H1936 0.960 . S
C1934 C1933 1.387 . S
C1934 C1937 1.387 . S
H1935 C1931 0.950 . S
H1936 C1933 0.960 . S
C1937 C1928 1.390 . S
C1937 H1930 0.950 . S
C1937 C1934 1.387 . S
C1938 C1939 1.387 . S
C1938 H1942 0.950 . S
C1938 C1947 1.390 . S
C1939 C1938 1.387 . S
C1939 C1941 1.387 . S
H1940 C1947 0.950 . S
C1941 C1939 1.387 . S
C1941 C1943 1.390 . S
C1941 H1945 0.950 . S
H1942 C1938 0.950 . S
C1943 C1941 1.390 . S
C1943 C1944 1.387 . S
C1943 H1946 0.950 . S
C1944 C1943 1.387 . S
C1944 C1947 1.387 . S
H1945 C1941 0.950 . S
H1946 C1943 0.950 . S
C1947 C1938 1.390 . S
C1947 H1940 0.950 . S
C1947 C1944 1.387 . S
C1948 C1949 1.387 1_565 S
C1948 H1952 0.950 . S
C1948 C1957 1.390 1_565 S
C1949 C1948 1.387 1_545 S
C1949 C1951 1.387 . S
H1950 C1957 0.950 . S
C1951 C1949 1.387 . S
C1951 C1953 1.390 . S
C1951 H1955 0.950 . S
H1952 C1948 0.950 . S
C1953 C1951 1.390 . S
C1953 C1954 1.387 . S
C1953 H1956 0.950 . S
C1954 C1953 1.387 . S
C1954 C1957 1.387 . S
H1955 C1951 0.950 . S
H1956 C1953 0.950 . S
C1957 C1948 1.390 1_545 S
C1957 H1950 0.950 . S
C1957 C1954 1.387 . S
C1958 C1959 1.387 . S
C1958 H1962 0.950 . S
C1958 C1967 1.390 . S
C1959 C1958 1.387 . S
C1959 C1961 1.391 . S
H1960 C1967 0.950 . S
C1961 C1959 1.391 . S
C1961 C1963 1.416 . S
C1961 H1965 0.923 1_655 S
H1962 C1958 0.950 . S
C1963 C1961 1.416 . S
C1963 C1964 1.387 . S
C1963 H1966 0.950 . S
C1964 C1963 1.387 . S
C1964 C1967 1.387 . S
H1965 C1961 0.923 1_455 S
H1966 C1963 0.950 . S
C1967 C1958 1.390 . S
C1967 H1960 0.950 . S
C1967 C1964 1.387 . S
C1968 C1969 1.387 . S
C1968 H1972 0.950 . S
C1968 C1977 1.390 . S
C1969 C1968 1.387 . S
C1969 C1971 1.387 . S
H1970 C1977 0.950 1_655 S
C1971 C1969 1.387 . S
C1971 C1973 1.390 . S
C1971 H1975 0.950 . S
H1972 C1968 0.950 . S
C1973 C1971 1.390 . S
C1973 C1974 1.387 . S
C1973 H1976 0.950 . S
C1974 C1973 1.387 . S
C1974 C1977 1.387 . S
H1975 C1971 0.950 . S
H1976 C1973 0.950 . S
C1977 C1968 1.390 . S
C1977 H1970 0.950 1_455 S
C1977 C1974 1.387 . S
C1978 C1979 1.387 . S
C1978 H1982 0.950 . S
C1978 C1987 1.390 . S
C1979 C1978 1.387 . S
C1979 C1981 1.387 . S
H1980 C1987 0.950 . S
C1981 C1979 1.387 . S
C1981 C1983 1.390 . S
C1981 H1985 0.950 . S
H1982 C1978 0.950 . S
C1983 C1981 1.390 . S
C1983 C1984 1.387 . S
C1983 H1986 0.950 . S
C1984 C1983 1.387 . S
C1984 C1987 1.387 . S
H1985 C1981 0.950 . S
H1986 C1983 0.950 . S
C1987 C1978 1.390 . S
C1987 H1980 0.950 . S
C1987 C1984 1.387 . S
C1988 C1989 1.387 . S
C1988 H1992 0.950 . S
C1988 C1997 1.390 . S
C1989 C1988 1.387 . S
C1989 C1991 1.387 . S
H1990 C1997 0.950 . S
C1991 C1989 1.387 . S
C1991 C1993 1.390 . S
C1991 H1995 0.950 . S
H1992 C1988 0.950 . S
C1993 C1991 1.390 . S
C1993 C1994 1.387 . S
C1993 H1996 0.950 . S
C1994 C1993 1.387 . S
C1994 C1997 1.387 . S
H1995 C1991 0.950 . S
H1996 C1993 0.950 . S
C1997 C1988 1.390 . S
C1997 H1990 0.950 . S
C1997 C1994 1.387 . S
C1998 C1999 1.387 . S
C1998 H2002 0.950 . S
C1998 C2007 1.390 . S
C1999 C1998 1.387 . S
C1999 C2001 1.387 . S
H2000 C2007 0.950 . S
C2001 C1999 1.387 . S
C2001 C2003 1.390 . S
C2001 H2005 0.950 . S
H2002 C1998 0.950 . S
C2003 C2001 1.390 . S
C2003 C2004 1.387 . S
C2003 H2006 0.950 . S
C2004 C2003 1.387 . S
C2004 C2007 1.387 . S
H2005 C2001 0.950 . S
H2006 C2003 0.950 . S
C2007 C1998 1.390 . S
C2007 H2000 0.950 . S
C2007 C2004 1.387 . S
C2008 C2009 1.387 . S
C2008 H2012 0.950 . S
C2008 C2017 1.390 . S
C2009 C2008 1.387 . S
C2009 C2011 1.387 . S
H2010 C2017 0.950 . S
C2011 C2009 1.387 . S
C2011 C2013 1.416 . S
C2011 H2015 0.950 . S
H2012 C2008 0.950 . S
C2013 C2011 1.416 . S
C2013 C2014 1.391 . S
C2013 H2016 0.923 1_554 S
C2014 C2013 1.391 . S
C2014 C2017 1.387 . S
H2015 C2011 0.950 . S
H2016 C2013 0.923 1_556 S
C2017 C2008 1.390 . S
C2017 H2010 0.950 . S
C2017 C2014 1.387 . S
C2018 C2019 1.389 . S
C2018 H2022 0.939 1_545 S
C2018 C2027 1.400 . S
C2019 C2018 1.389 . S
C2019 C2021 1.387 . S
H2020 C2027 0.950 . S
C2021 C2019 1.387 . S
C2021 C2023 1.390 . S
C2021 H2025 0.950 . S
H2022 C2018 0.939 1_565 S
C2023 C2021 1.390 . S
C2023 C2024 1.387 . S
C2023 H2026 0.950 . S
C2024 C2023 1.387 . S
C2024 C2027 1.387 . S
H2025 C2021 0.950 . S
H2026 C2023 0.950 . S
C2027 C2018 1.400 . S
C2027 H2020 0.950 . S
C2027 C2024 1.387 . S
C2028 C2029 1.387 . S
C2028 H2032 0.950 . S
C2028 C2037 1.390 . S
C2029 C2028 1.387 . S
C2029 C2031 1.387 . S
H2030 C2037 0.950 . S
C2031 C2029 1.387 . S
C2031 C2033 1.390 . S
C2031 H2035 0.950 . S
H2032 C2028 0.950 . S
C2033 C2031 1.390 . S
C2033 C2034 1.387 . S
C2033 H2036 0.950 . S
C2034 C2033 1.387 . S
C2034 C2037 1.387 . S
H2035 C2031 0.950 . S
H2036 C2033 0.950 . S
C2037 C2028 1.390 . S
C2037 H2030 0.950 . S
C2037 C2034 1.387 . S
C2038 C2039 1.387 . S
C2038 H2042 0.950 . S
C2038 C2047 1.390 . S
C2039 C2038 1.387 . S
C2039 C2041 1.387 . S
H2040 C2047 0.950 . S
C2041 C2039 1.387 . S
C2041 C2043 1.390 . S
C2041 H2045 0.950 . S
H2042 C2038 0.950 . S
C2043 C2041 1.390 . S
C2043 C2044 1.387 . S
C2043 H2046 0.950 . S
C2044 C2043 1.387 . S
C2044 C2047 1.387 . S
H2045 C2041 0.950 . S
H2046 C2043 0.950 . S
C2047 C2038 1.390 . S
C2047 H2040 0.950 . S
C2047 C2044 1.387 . S
C2048 C2049 1.387 . S
C2048 H2052 0.950 . S
C2048 C2057 1.390 . S
C2049 C2048 1.387 . S
C2049 C2051 1.387 . S
H2050 C2057 0.950 . S
C2051 C2049 1.387 . S
C2051 C2053 1.390 . S
C2051 H2055 0.950 . S
H2052 C2048 0.950 . S
C2053 C2051 1.390 . S
C2053 C2054 1.387 . S
C2053 H2056 0.950 . S
C2054 C2053 1.387 . S
C2054 C2057 1.387 . S
H2055 C2051 0.950 . S
H2056 C2053 0.950 . S
C2057 C2048 1.390 . S
C2057 H2050 0.950 . S
C2057 C2054 1.387 . S
C2058 C2059 1.387 . S
C2058 H2062 0.929 1_565 S
C2058 C2067 1.390 1_565 S
C2059 C2058 1.387 . S
C2059 C2061 1.387 . S
H2060 C2067 0.950 . S
C2061 C2059 1.387 . S
C2061 C2063 1.390 . S
C2061 H2065 0.950 . S
H2062 C2058 0.929 1_545 S
C2063 C2061 1.390 . S
C2063 C2064 1.387 . S
C2063 H2066 0.950 . S
C2064 C2063 1.387 . S
C2064 C2067 1.387 1_565 S
H2065 C2061 0.950 . S
H2066 C2063 0.950 . S
C2067 C2058 1.390 1_545 S
C2067 H2060 0.950 . S
C2067 C2064 1.387 1_545 S
C2068 C2069 1.387 . S
C2068 H2072 0.950 . S
C2068 C2077 1.390 . S
C2069 C2068 1.387 . S
C2069 C2071 1.387 1_556 S
H2070 C2077 0.950 . S
C2071 C2069 1.387 1_554 S
C2071 C2073 1.390 1_554 S
C2071 H2075 0.950 . S
H2072 C2068 0.950 . S
C2073 C2071 1.390 1_556 S
C2073 C2074 1.387 . S
C2073 H2076 0.927 1_556 S
C2074 C2073 1.387 . S
C2074 C2077 1.387 . S
H2075 C2071 0.950 . S
H2076 C2073 0.927 1_554 S
C2077 C2068 1.390 . S
C2077 H2070 0.950 . S
C2077 C2074 1.387 . S
C2078 C2079 1.387 . S
C2078 H2082 0.950 . S
C2078 C2087 1.390 . S
C2079 C2078 1.387 . S
C2079 C2081 1.387 . S
H2080 C2087 0.950 . S
C2081 C2079 1.387 . S
C2081 C2083 1.390 . S
C2081 H2085 0.950 . S
H2082 C2078 0.950 . S
C2083 C2081 1.390 . S
C2083 C2084 1.387 . S
C2083 H2086 0.950 . S
C2084 C2083 1.387 . S
C2084 C2087 1.387 . S
H2085 C2081 0.950 . S
H2086 C2083 0.950 . S
C2087 C2078 1.390 . S
C2087 H2080 0.950 . S
C2087 C2084 1.387 . S
C2088 C2089 1.387 . S
C2088 H2092 0.950 . S
C2088 C2097 1.390 . S
C2089 C2088 1.387 . S
C2089 C2091 1.387 1_554 S
H2090 C2097 0.950 . S
C2091 C2089 1.387 1_556 S
C2091 C2093 1.390 1_556 S
C2091 H2095 0.950 . S
H2092 C2088 0.950 . S
C2093 C2091 1.390 1_554 S
C2093 C2094 1.387 . S
C2093 H2096 0.950 . S
C2094 C2093 1.387 . S
C2094 C2097 1.387 . S
H2095 C2091 0.950 . S
H2096 C2093 0.950 . S
C2097 C2088 1.390 . S
C2097 H2090 0.950 . S
C2097 C2094 1.387 . S
C2098 C2099 1.387 . S
C2098 H2102 0.950 . S
C2098 C2107 1.390 . S
C2099 C2098 1.387 . S
C2099 C2101 1.387 . S
H2100 C2107 0.950 . S
C2101 C2099 1.387 . S
C2101 C2103 1.390 . S
C2101 H2105 0.950 . S
H2102 C2098 0.950 . S
C2103 C2101 1.390 . S
C2103 C2104 1.387 . S
C2103 H2106 0.950 . S
C2104 C2103 1.387 . S
C2104 C2107 1.387 . S
H2105 C2101 0.950 . S
H2106 C2103 0.950 . S
C2107 C2098 1.390 . S
C2107 H2100 0.950 . S
C2107 C2104 1.387 . S
C2108 C2109 1.387 . S
C2108 H2112 0.950 . S
C2108 C2117 1.390 . S
C2109 C2108 1.387 . S
C2109 C2111 1.387 . S
H2110 C2117 0.950 . S
C2111 C2109 1.387 . S
C2111 C2113 1.390 . S
C2111 H2115 0.950 . S
H2112 C2108 0.950 . S
C2113 C2111 1.390 . S
C2113 C2114 1.387 . S
C2113 H2116 0.950 . S
C2114 C2113 1.387 . S
C2114 C2117 1.387 . S
H2115 C2111 0.950 . S
H2116 C2113 0.950 . S
C2117 C2108 1.390 . S
C2117 H2110 0.950 . S
C2117 C2114 1.387 . S
C2118 C2119 1.387 . S
C2118 H2122 0.950 . S
C2118 C2127 1.390 . S
C2119 C2118 1.387 . S
C2119 C2121 1.387 . S
H2120 C2127 0.950 . S
C2121 C2119 1.387 . S
C2121 C2123 1.390 . S
C2121 H2125 0.950 . S
H2122 C2118 0.950 . S
C2123 C2121 1.390 . S
C2123 C2124 1.387 . S
C2123 H2126 0.950 . S
C2124 C2123 1.387 . S
C2124 C2127 1.387 . S
H2125 C2121 0.950 . S
H2126 C2123 0.950 . S
C2127 C2118 1.390 . S
C2127 H2120 0.950 . S
C2127 C2124 1.387 . S
C2128 C2129 1.387 . S
C2128 H2132 0.950 . S
C2128 C2137 1.390 . S
C2129 C2128 1.387 . S
C2129 C2131 1.387 1_565 S
H2130 C2137 0.950 . S
C2131 C2129 1.387 1_545 S
C2131 C2133 1.390 1_545 S
C2131 H2135 0.950 . S
H2132 C2128 0.950 . S
C2133 C2131 1.390 1_565 S
C2133 C2134 1.387 . S
C2133 H2136 0.950 1_565 S
C2134 C2133 1.387 . S
C2134 C2137 1.387 . S
H2135 C2131 0.950 . S
H2136 C2133 0.950 1_545 S
C2137 C2128 1.390 . S
C2137 H2130 0.950 . S
C2137 C2134 1.387 . S
C2138 C2139 1.387 . S
C2138 H2142 0.950 . S
C2138 C2147 1.390 . S
C2139 C2138 1.387 . S
C2139 C2141 1.387 . S
H2140 C2147 0.950 . S
C2141 C2139 1.387 . S
C2141 C2143 1.390 . S
C2141 H2145 0.950 . S
H2142 C2138 0.950 . S
C2143 C2141 1.390 . S
C2143 C2144 1.387 . S
C2143 H2146 0.950 . S
C2144 C2143 1.387 . S
C2144 C2147 1.387 . S
H2145 C2141 0.950 . S
H2146 C2143 0.950 . S
C2147 C2138 1.390 . S
C2147 H2140 0.950 . S
C2147 C2144 1.387 . S
C2148 C2149 1.387 . S
C2148 H2152 0.950 . S
C2148 C2157 1.390 . S
C2149 C2148 1.387 . S
C2149 C2151 1.387 . S
H2150 C2157 0.950 . S
C2151 C2149 1.387 . S
C2151 C2153 1.390 . S
C2151 H2155 0.950 . S
H2152 C2148 0.950 . S
C2153 C2151 1.390 . S
C2153 C2154 1.387 . S
C2153 H2156 0.950 . S
C2154 C2153 1.387 . S
C2154 C2157 1.387 . S
H2155 C2151 0.950 . S
H2156 C2153 0.950 . S
C2157 C2148 1.390 . S
C2157 H2150 0.950 . S
C2157 C2154 1.387 . S
C2158 C2159 1.387 . S
C2158 H2162 0.950 . S
C2158 C2167 1.390 . S
C2159 C2158 1.387 . S
C2159 C2161 1.387 . S
H2160 C2167 0.950 . S
C2161 C2159 1.387 . S
C2161 C2163 1.390 . S
C2161 H2165 0.950 . S
H2162 C2158 0.950 . S
C2163 C2161 1.390 . S
C2163 C2164 1.387 . S
C2163 H2166 0.950 . S
C2164 C2163 1.387 . S
C2164 C2167 1.387 . S
H2165 C2161 0.950 . S
H2166 C2163 0.950 . S
C2167 C2158 1.390 . S
C2167 H2160 0.950 . S
C2167 C2164 1.387 . S
C2168 C2169 1.387 . S
C2168 H2172 0.950 . S
C2168 C2177 1.390 . S
C2169 C2168 1.387 . S
C2169 C2171 1.387 . S
H2170 C2177 0.950 . S
C2171 C2169 1.387 . S
C2171 C2173 1.390 . S
C2171 H2175 0.950 . S
H2172 C2168 0.950 . S
C2173 C2171 1.390 . S
C2173 C2174 1.387 . S
C2173 H2176 0.950 . S
C2174 C2173 1.387 . S
C2174 C2177 1.387 . S
H2175 C2171 0.950 . S
H2176 C2173 0.950 . S
C2177 C2168 1.390 . S
C2177 H2170 0.950 . S
C2177 C2174 1.387 . S
C2178 C2179 1.387 . S
C2178 H2182 0.950 . S
C2178 C2187 1.390 . S
C2179 C2178 1.387 . S
C2179 C2181 1.387 . S
H2180 C2187 0.950 . S
C2181 C2179 1.387 . S
C2181 C2183 1.390 . S
C2181 H2185 0.950 . S
H2182 C2178 0.950 . S
C2183 C2181 1.390 . S
C2183 C2184 1.387 . S
C2183 H2186 0.950 . S
C2184 C2183 1.387 . S
C2184 C2187 1.387 . S
H2185 C2181 0.950 . S
H2186 C2183 0.950 . S
C2187 C2178 1.390 . S
C2187 H2180 0.950 . S
C2187 C2184 1.387 . S
C2188 C2189 1.387 . S
C2188 H2192 0.950 . S
C2188 C2197 1.390 1_565 S
C2189 C2188 1.387 . S
C2189 C2191 1.387 . S
H2190 C2197 0.950 . S
C2191 C2189 1.387 . S
C2191 C2193 1.390 . S
C2191 H2195 0.950 . S
H2192 C2188 0.950 . S
C2193 C2191 1.390 . S
C2193 C2194 1.387 . S
C2193 H2196 0.950 . S
C2194 C2193 1.387 . S
C2194 C2197 1.387 1_565 S
H2195 C2191 0.950 . S
H2196 C2193 0.950 . S
C2197 C2188 1.390 1_545 S
C2197 H2190 0.950 . S
C2197 C2194 1.387 1_545 S
C2198 C2199 1.387 . S
C2198 H2202 0.950 . S
C2198 C2207 1.390 . S
C2199 C2198 1.387 . S
C2199 C2201 1.387 . S
H2200 C2207 0.950 . S
C2201 C2199 1.387 . S
C2201 C2203 1.390 . S
C2201 H2205 0.950 . S
H2202 C2198 0.950 . S
C2203 C2201 1.390 . S
C2203 C2204 1.387 . S
C2203 H2206 0.950 . S
C2204 C2203 1.387 . S
C2204 C2207 1.387 . S
H2205 C2201 0.950 . S
H2206 C2203 0.950 . S
C2207 C2198 1.390 . S
C2207 H2200 0.950 . S
C2207 C2204 1.387 . S
C2208 C2209 1.387 . S
C2208 H2212 0.950 . S
C2208 C2217 1.390 . S
C2209 C2208 1.387 . S
C2209 C2211 1.387 . S
H2210 C2217 0.950 . S
C2211 C2209 1.387 . S
C2211 C2213 1.390 . S
C2211 H2215 0.950 . S
H2212 C2208 0.950 . S
C2213 C2211 1.390 . S
C2213 C2214 1.387 . S
C2213 H2216 0.950 . S
C2214 C2213 1.387 . S
C2214 C2217 1.387 . S
H2215 C2211 0.950 . S
H2216 C2213 0.950 . S
C2217 C2208 1.390 . S
C2217 H2210 0.950 . S
C2217 C2214 1.387 . S
C2218 C2219 1.387 . S
C2218 H2222 0.950 . S
C2218 C2227 1.390 . S
C2219 C2218 1.387 . S
C2219 C2221 1.387 . S
H2220 C2227 0.950 . S
C2221 C2219 1.387 . S
C2221 C2223 1.390 . S
C2221 H2225 0.950 . S
H2222 C2218 0.950 . S
C2223 C2221 1.390 . S
C2223 C2224 1.387 . S
C2223 H2226 0.950 . S
C2224 C2223 1.387 . S
C2224 C2227 1.387 . S
H2225 C2221 0.950 . S
H2226 C2223 0.950 . S
C2227 C2218 1.390 . S
C2227 H2220 0.950 . S
C2227 C2224 1.387 . S
C2228 C2229 1.387 . S
C2228 H2232 0.950 . S
C2228 C2237 1.390 . S
C2229 C2228 1.387 . S
C2229 C2231 1.387 . S
H2230 C2237 0.950 . S
C2231 C2229 1.387 . S
C2231 C2233 1.390 . S
C2231 H2235 0.950 . S
H2232 C2228 0.950 . S
C2233 C2231 1.390 . S
C2233 C2234 1.387 . S
C2233 H2236 0.950 . S
C2234 C2233 1.387 . S
C2234 C2237 1.387 . S
H2235 C2231 0.950 . S
H2236 C2233 0.950 . S
C2237 C2228 1.390 . S
C2237 H2230 0.950 . S
C2237 C2234 1.387 . S
C2238 C2239 1.387 . S
C2238 H2242 0.950 . S
C2238 C2247 1.390 . S
C2239 C2238 1.387 . S
C2239 C2241 1.387 . S
H2240 C2247 0.950 . S
C2241 C2239 1.387 . S
C2241 C2243 1.390 . S
C2241 H2245 0.950 . S
H2242 C2238 0.950 . S
C2243 C2241 1.390 . S
C2243 C2244 1.387 . S
C2243 H2246 0.950 . S
C2244 C2243 1.387 . S
C2244 C2247 1.387 . S
H2245 C2241 0.950 . S
H2246 C2243 0.950 . S
C2247 C2238 1.390 . S
C2247 H2240 0.950 . S
C2247 C2244 1.387 . S
C2248 C2249 1.387 . S
C2248 H2252 0.950 . S
C2248 C2257 1.390 . S
C2249 C2248 1.387 . S
C2249 C2251 1.387 . S
H2250 C2257 0.950 . S
C2251 C2249 1.387 . S
C2251 C2253 1.390 . S
C2251 H2255 0.950 . S
H2252 C2248 0.950 . S
C2253 C2251 1.390 . S
C2253 C2254 1.387 . S
C2253 H2256 0.950 . S
C2254 C2253 1.387 . S
C2254 C2257 1.387 . S
H2255 C2251 0.950 . S
H2256 C2253 0.950 . S
C2257 C2248 1.390 . S
C2257 H2250 0.950 . S
C2257 C2254 1.387 . S
C2258 C2259 1.387 . S
C2258 H2262 0.950 . S
C2258 C2267 1.390 . S
C2259 C2258 1.387 . S
C2259 C2261 1.387 . S
H2260 C2267 0.950 . S
C2261 C2259 1.387 . S
C2261 C2263 1.390 . S
C2261 H2265 0.950 . S
H2262 C2258 0.950 . S
C2263 C2261 1.390 . S
C2263 C2264 1.387 . S
C2263 H2266 0.950 . S
C2264 C2263 1.387 . S
C2264 C2267 1.387 . S
H2265 C2261 0.950 . S
H2266 C2263 0.950 . S
C2267 C2258 1.390 . S
C2267 H2260 0.950 . S
C2267 C2264 1.387 . S
C2268 C2269 1.387 . S
C2268 H2272 0.950 . S
C2268 C2277 1.390 . S
C2269 C2268 1.387 . S
C2269 C2271 1.387 . S
H2270 C2277 0.950 . S
C2271 C2269 1.387 . S
C2271 C2273 1.390 . S
C2271 H2275 0.950 . S
H2272 C2268 0.950 . S
C2273 C2271 1.390 . S
C2273 C2274 1.387 . S
C2273 H2276 0.950 . S
C2274 C2273 1.387 . S
C2274 C2277 1.387 . S
H2275 C2271 0.950 . S
H2276 C2273 0.950 . S
C2277 C2268 1.390 . S
C2277 H2270 0.950 . S
C2277 C2274 1.387 . S
C2278 C2279 1.387 . S
C2278 H2282 0.950 . S
C2278 C2287 1.390 . S
C2279 C2278 1.387 . S
C2279 C2281 1.387 . S
H2280 C2287 0.950 . S
C2281 C2279 1.387 . S
C2281 C2283 1.390 . S
C2281 H2285 0.950 . S
H2282 C2278 0.950 . S
C2283 C2281 1.390 . S
C2283 C2284 1.387 . S
C2283 H2286 0.950 . S
C2284 C2283 1.387 . S
C2284 C2287 1.387 . S
H2285 C2281 0.950 . S
H2286 C2283 0.950 . S
C2287 C2278 1.390 . S
C2287 H2280 0.950 . S
C2287 C2284 1.387 . S
C2288 C2289 1.387 . S
C2288 H2292 0.950 . S
C2288 C2297 1.390 . S
C2289 C2288 1.387 . S
C2289 C2291 1.387 . S
H2290 C2297 0.950 . S
C2291 C2289 1.387 . S
C2291 C2293 1.390 . S
C2291 H2295 0.950 . S
H2292 C2288 0.950 . S
C2293 C2291 1.390 . S
C2293 C2294 1.387 . S
C2293 H2296 0.950 . S
C2294 C2293 1.387 . S
C2294 C2297 1.387 . S
H2295 C2291 0.950 . S
H2296 C2293 0.950 . S
C2297 C2288 1.390 . S
C2297 H2290 0.950 . S
C2297 C2294 1.387 . S
C2298 C2299 1.387 . S
C2298 H2302 0.950 . S
C2298 C2307 1.390 . S
C2299 C2298 1.387 . S
C2299 C2301 1.387 . S
H2300 C2307 0.950 . S
C2301 C2299 1.387 . S
C2301 C2303 1.390 . S
C2301 H2305 0.950 . S
H2302 C2298 0.950 . S
C2303 C2301 1.390 . S
C2303 C2304 1.387 . S
C2303 H2306 0.950 . S
C2304 C2303 1.387 . S
C2304 C2307 1.387 . S
H2305 C2301 0.950 . S
H2306 C2303 0.950 . S
C2307 C2298 1.390 . S
C2307 H2300 0.950 . S
C2307 C2304 1.387 . S
C2308 C2309 1.387 . S
C2308 H2312 0.950 . S
C2308 C2317 1.390 . S
C2309 C2308 1.387 . S
C2309 C2311 1.387 . S
H2310 C2317 0.950 . S
C2311 C2309 1.387 . S
C2311 C2313 1.390 . S
C2311 H2315 0.950 . S
H2312 C2308 0.950 . S
C2313 C2311 1.390 . S
C2313 C2314 1.387 . S
C2313 H2316 0.950 . S
C2314 C2313 1.387 . S
C2314 C2317 1.387 . S
H2315 C2311 0.950 . S
H2316 C2313 0.950 . S
C2317 C2308 1.390 . S
C2317 H2310 0.950 . S
C2317 C2314 1.387 . S
C2318 C2319 1.387 . S
C2318 H2322 0.950 . S
C2318 C2327 1.390 . S
C2319 C2318 1.387 . S
C2319 C2321 1.387 . S
H2320 C2327 0.950 . S
C2321 C2319 1.387 . S
C2321 C2323 1.390 . S
C2321 H2325 0.950 . S
H2322 C2318 0.950 . S
C2323 C2321 1.390 . S
C2323 C2324 1.387 . S
C2323 H2326 0.950 . S
C2324 C2323 1.387 . S
C2324 C2327 1.387 . S
H2325 C2321 0.950 . S
H2326 C2323 0.950 . S
C2327 C2318 1.390 . S
C2327 H2320 0.950 . S
C2327 C2324 1.387 . S
C2328 C2329 1.387 . S
C2328 H2332 0.950 . S
C2328 C2337 1.390 . S
C2329 C2328 1.387 . S
C2329 C2331 1.387 . S
H2330 C2337 0.950 . S
C2331 C2329 1.387 . S
C2331 C2333 1.390 . S
C2331 H2335 0.950 . S
H2332 C2328 0.950 . S
C2333 C2331 1.390 . S
C2333 C2334 1.387 . S
C2333 H2336 0.950 . S
C2334 C2333 1.387 . S
C2334 C2337 1.387 . S
H2335 C2331 0.950 . S
H2336 C2333 0.950 . S
C2337 C2328 1.390 . S
C2337 H2330 0.950 . S
C2337 C2334 1.387 . S
C2338 C2339 1.387 . S
C2338 H2342 0.950 . S
C2338 C2347 1.390 . S
C2339 C2338 1.387 . S
C2339 C2341 1.387 . S
H2340 C2347 0.950 . S
C2341 C2339 1.387 . S
C2341 C2343 1.390 . S
C2341 H2345 0.950 . S
H2342 C2338 0.950 . S
C2343 C2341 1.390 . S
C2343 C2344 1.387 . S
C2343 H2346 0.950 . S
C2344 C2343 1.387 . S
C2344 C2347 1.387 . S
H2345 C2341 0.950 . S
H2346 C2343 0.950 . S
C2347 C2338 1.390 . S
C2347 H2340 0.950 . S
C2347 C2344 1.387 . S
C2348 C2349 1.387 . S
C2348 H2352 0.950 . S
C2348 C2357 1.390 . S
C2349 C2348 1.387 . S
C2349 C2351 1.387 . S
H2350 C2357 0.950 . S
C2351 C2349 1.387 . S
C2351 C2353 1.390 . S
C2351 H2355 0.950 . S
H2352 C2348 0.950 . S
C2353 C2351 1.390 . S
C2353 C2354 1.387 . S
C2353 H2356 0.950 . S
C2354 C2353 1.387 . S
C2354 C2357 1.387 . S
H2355 C2351 0.950 . S
H2356 C2353 0.950 . S
C2357 C2348 1.390 . S
C2357 H2350 0.950 . S
C2357 C2354 1.387 . S
C2358 C2359 1.387 . S
C2358 H2362 0.950 . S
C2358 C2367 1.390 . S
C2359 C2358 1.387 . S
C2359 C2361 1.387 . S
H2360 C2367 0.950 . S
C2361 C2359 1.387 . S
C2361 C2363 1.390 . S
C2361 H2365 0.950 . S
H2362 C2358 0.950 . S
C2363 C2361 1.390 . S
C2363 C2364 1.387 . S
C2363 H2366 0.950 . S
C2364 C2363 1.387 . S
C2364 C2367 1.387 . S
H2365 C2361 0.950 . S
H2366 C2363 0.950 . S
C2367 C2358 1.390 . S
C2367 H2360 0.950 . S
C2367 C2364 1.387 . S
C2368 C2369 1.387 . S
C2368 H2372 0.950 . S
C2368 C2377 1.390 . S
C2369 C2368 1.387 . S
C2369 C2371 1.387 . S
H2370 C2377 0.950 . S
C2371 C2369 1.387 . S
C2371 C2373 1.390 . S
C2371 H2375 0.950 . S
H2372 C2368 0.950 . S
C2373 C2371 1.390 . S
C2373 C2374 1.387 . S
C2373 H2376 0.950 . S
C2374 C2373 1.387 . S
C2374 C2377 1.387 . S
H2375 C2371 0.950 . S
H2376 C2373 0.950 . S
C2377 C2368 1.390 . S
C2377 H2370 0.950 . S
C2377 C2374 1.387 . S
C2378 C2379 1.387 . S
C2378 H2382 0.950 . S
C2378 C2387 1.390 . S
C2379 C2378 1.387 . S
C2379 C2381 1.387 . S
H2380 C2387 0.950 . S
C2381 C2379 1.387 . S
C2381 C2383 1.390 . S
C2381 H2385 0.950 . S
H2382 C2378 0.950 . S
C2383 C2381 1.390 . S
C2383 C2384 1.387 . S
C2383 H2386 0.950 . S
C2384 C2383 1.387 . S
C2384 C2387 1.387 . S
H2385 C2381 0.950 . S
H2386 C2383 0.950 . S
C2387 C2378 1.390 . S
C2387 H2380 0.950 . S
C2387 C2384 1.387 . S
C2388 C2389 1.387 . S
C2388 H2392 0.950 . S
C2388 C2397 1.390 . S
C2389 C2388 1.387 . S
C2389 C2391 1.387 . S
H2390 C2397 0.950 . S
C2391 C2389 1.387 . S
C2391 C2393 1.390 . S
C2391 H2395 0.950 . S
H2392 C2388 0.950 . S
C2393 C2391 1.390 . S
C2393 C2394 1.387 . S
C2393 H2396 0.950 . S
C2394 C2393 1.387 . S
C2394 C2397 1.387 . S
H2395 C2391 0.950 . S
H2396 C2393 0.950 . S
C2397 C2388 1.390 . S
C2397 H2390 0.950 . S
C2397 C2394 1.387 . S
C2398 C2399 1.387 . S
C2398 H2402 0.950 . S
C2398 C2407 1.390 . S
C2399 C2398 1.387 . S
C2399 C2401 1.387 . S
H2400 C2407 0.950 . S
C2401 C2399 1.387 . S
C2401 C2403 1.390 . S
C2401 H2405 0.950 . S
H2402 C2398 0.950 . S
C2403 C2401 1.390 . S
C2403 C2404 1.387 . S
C2403 H2406 0.950 . S
C2404 C2403 1.387 . S
C2404 C2407 1.387 . S
H2405 C2401 0.950 . S
H2406 C2403 0.950 . S
C2407 C2398 1.390 . S
C2407 H2400 0.950 . S
C2407 C2404 1.387 . S
C2408 C2409 1.387 . S
C2408 H2412 0.950 . S
C2408 C2417 1.390 . S
C2409 C2408 1.387 . S
C2409 C2411 1.387 . S
H2410 C2417 0.950 . S
C2411 C2409 1.387 . S
C2411 C2413 1.390 . S
C2411 H2415 0.950 . S
H2412 C2408 0.950 . S
C2413 C2411 1.390 . S
C2413 C2414 1.387 . S
C2413 H2416 0.950 . S
C2414 C2413 1.387 . S
C2414 C2417 1.387 . S
H2415 C2411 0.950 . S
H2416 C2413 0.950 . S
C2417 C2408 1.390 . S
C2417 H2410 0.950 . S
C2417 C2414 1.387 . S
C2418 C2419 1.387 . S
C2418 H2422 0.950 . S
C2418 C2427 1.390 . S
C2419 C2418 1.387 . S
C2419 C2421 1.387 . S
H2420 C2427 0.950 . S
C2421 C2419 1.387 . S
C2421 C2423 1.390 . S
C2421 H2425 0.950 . S
H2422 C2418 0.950 . S
C2423 C2421 1.390 . S
C2423 C2424 1.387 . S
C2423 H2426 0.950 . S
C2424 C2423 1.387 . S
C2424 C2427 1.387 . S
H2425 C2421 0.950 . S
H2426 C2423 0.950 . S
C2427 C2418 1.390 . S
C2427 H2420 0.950 . S
C2427 C2424 1.387 . S
C2428 C2429 1.387 . S
C2428 H2432 0.950 . S
C2428 C2437 1.390 . S
C2429 C2428 1.387 . S
C2429 C2431 1.387 . S
H2430 C2437 0.950 . S
C2431 C2429 1.387 . S
C2431 C2433 1.390 . S
C2431 H2435 0.950 . S
H2432 C2428 0.950 . S
C2433 C2431 1.390 . S
C2433 C2434 1.387 . S
C2433 H2436 0.950 . S
C2434 C2433 1.387 . S
C2434 C2437 1.387 . S
H2435 C2431 0.950 . S
H2436 C2433 0.950 . S
C2437 C2428 1.390 . S
C2437 H2430 0.950 . S
C2437 C2434 1.387 . S
C2438 C2439 1.387 . S
C2438 H2442 0.950 . S
C2438 C2447 1.390 . S
C2439 C2438 1.387 . S
C2439 C2441 1.387 . S
H2440 C2447 0.950 . S
C2441 C2439 1.387 . S
C2441 C2443 1.390 . S
C2441 H2445 0.950 . S
H2442 C2438 0.950 . S
C2443 C2441 1.390 . S
C2443 C2444 1.387 . S
C2443 H2446 0.950 . S
C2444 C2443 1.387 . S
C2444 C2447 1.387 . S
H2445 C2441 0.950 . S
H2446 C2443 0.950 . S
C2447 C2438 1.390 . S
C2447 H2440 0.950 . S
C2447 C2444 1.387 . S
C2448 C2449 1.387 . S
C2448 H2452 0.950 . S
C2448 C2457 1.390 . S
C2449 C2448 1.387 . S
C2449 C2451 1.387 . S
H2450 C2457 0.950 . S
C2451 C2449 1.387 . S
C2451 C2453 1.390 . S
C2451 H2455 0.950 . S
H2452 C2448 0.950 . S
C2453 C2451 1.390 . S
C2453 C2454 1.387 . S
C2453 H2456 0.950 . S
C2454 C2453 1.387 . S
C2454 C2457 1.387 . S
H2455 C2451 0.950 . S
H2456 C2453 0.950 . S
C2457 C2448 1.390 . S
C2457 H2450 0.950 . S
C2457 C2454 1.387 . S
C2458 C2459 1.387 . S
C2458 H2462 0.950 . S
C2458 C2467 1.390 . S
C2459 C2458 1.387 . S
C2459 C2461 1.387 . S
H2460 C2467 0.950 . S
C2461 C2459 1.387 . S
C2461 C2463 1.390 . S
C2461 H2465 0.950 . S
H2462 C2458 0.950 . S
C2463 C2461 1.390 . S
C2463 C2464 1.387 . S
C2463 H2466 0.950 . S
C2464 C2463 1.387 . S
C2464 C2467 1.387 . S
H2465 C2461 0.950 . S
H2466 C2463 0.950 . S
C2467 C2458 1.390 . S
C2467 H2460 0.950 . S
C2467 C2464 1.387 . S
C2468 C2469 1.387 . S
C2468 H2472 0.950 . S
C2468 C2477 1.390 . S
C2469 C2468 1.387 . S
C2469 C2471 1.387 . S
H2470 C2477 0.950 . S
C2471 C2469 1.387 . S
C2471 C2473 1.390 . S
C2471 H2475 0.950 . S
H2472 C2468 0.950 . S
C2473 C2471 1.390 . S
C2473 C2474 1.387 . S
C2473 H2476 0.950 . S
C2474 C2473 1.387 . S
C2474 C2477 1.387 . S
H2475 C2471 0.950 . S
H2476 C2473 0.950 . S
C2477 C2468 1.390 . S
C2477 H2470 0.950 . S
C2477 C2474 1.387 . S
C2478 C2479 1.387 . S
C2478 H2482 0.950 . S
C2478 C2487 1.390 . S
C2479 C2478 1.387 . S
C2479 C2481 1.387 . S
H2480 C2487 0.950 . S
C2481 C2479 1.387 . S
C2481 C2483 1.390 . S
C2481 H2485 0.950 . S
H2482 C2478 0.950 . S
C2483 C2481 1.390 . S
C2483 C2484 1.387 . S
C2483 H2486 0.950 . S
C2484 C2483 1.387 . S
C2484 C2487 1.387 . S
H2485 C2481 0.950 . S
H2486 C2483 0.950 . S
C2487 C2478 1.390 . S
C2487 H2480 0.950 . S
C2487 C2484 1.387 . S
C2488 C2489 1.387 . S
C2488 H2492 0.950 . S
C2488 C2497 1.390 . S
C2489 C2488 1.387 . S
C2489 C2491 1.387 . S
H2490 C2497 0.950 . S
C2491 C2489 1.387 . S
C2491 C2493 1.390 . S
C2491 H2495 0.950 . S
H2492 C2488 0.950 . S
C2493 C2491 1.390 . S
C2493 C2494 1.387 . S
C2493 H2496 0.950 . S
C2494 C2493 1.387 . S
C2494 C2497 1.387 . S
H2495 C2491 0.950 . S
H2496 C2493 0.950 . S
C2497 C2488 1.390 . S
C2497 H2490 0.950 . S
C2497 C2494 1.387 . S
C2498 C2499 1.387 . S
C2498 H2502 0.950 . S
C2498 C2507 1.390 . S
C2499 C2498 1.387 . S
C2499 C2501 1.387 . S
H2500 C2507 0.950 . S
C2501 C2499 1.387 . S
C2501 C2503 1.390 . S
C2501 H2505 0.950 . S
H2502 C2498 0.950 . S
C2503 C2501 1.390 . S
C2503 C2504 1.387 . S
C2503 H2506 0.950 . S
C2504 C2503 1.387 . S
C2504 C2507 1.387 . S
H2505 C2501 0.950 . S
H2506 C2503 0.950 . S
C2507 C2498 1.390 . S
C2507 H2500 0.950 . S
C2507 C2504 1.387 . S
C2508 C2509 1.387 . S
C2508 H2512 0.950 . S
C2508 C2517 1.390 . S
C2509 C2508 1.387 . S
C2509 C2511 1.387 . S
H2510 C2517 0.950 . S
C2511 C2509 1.387 . S
C2511 C2513 1.390 . S
C2511 H2515 0.950 . S
H2512 C2508 0.950 . S
C2513 C2511 1.390 . S
C2513 C2514 1.387 . S
C2513 H2516 0.950 . S
C2514 C2513 1.387 . S
C2514 C2517 1.387 . S
H2515 C2511 0.950 . S
H2516 C2513 0.950 . S
C2517 C2508 1.390 . S
C2517 H2510 0.950 . S
C2517 C2514 1.387 . S
C2518 C2519 1.387 . S
C2518 H2522 0.950 . S
C2518 C2527 1.390 . S
C2519 C2518 1.387 . S
C2519 C2521 1.387 . S
H2520 C2527 0.950 . S
C2521 C2519 1.387 . S
C2521 C2523 1.390 . S
C2521 H2525 0.950 . S
H2522 C2518 0.950 . S
C2523 C2521 1.390 . S
C2523 C2524 1.387 . S
C2523 H2526 0.950 . S
C2524 C2523 1.387 . S
C2524 C2527 1.387 . S
H2525 C2521 0.950 . S
H2526 C2523 0.950 . S
C2527 C2518 1.390 . S
C2527 H2520 0.950 . S
C2527 C2524 1.387 . S
C2528 C2529 1.387 . S
C2528 H2532 0.950 . S
C2528 C2537 1.390 . S
C2529 C2528 1.387 . S
C2529 C2531 1.387 . S
H2530 C2537 0.950 . S
C2531 C2529 1.387 . S
C2531 C2533 1.390 . S
C2531 H2535 0.950 . S
H2532 C2528 0.950 . S
C2533 C2531 1.390 . S
C2533 C2534 1.387 . S
C2533 H2536 0.950 . S
C2534 C2533 1.387 . S
C2534 C2537 1.387 . S
H2535 C2531 0.950 . S
H2536 C2533 0.950 . S
C2537 C2528 1.390 . S
C2537 H2530 0.950 . S
C2537 C2534 1.387 . S
C2538 C2539 1.387 . S
C2538 H2542 0.950 . S
C2538 C2547 1.390 . S
C2539 C2538 1.387 . S
C2539 C2541 1.387 . S
H2540 C2547 0.950 . S
C2541 C2539 1.387 . S
C2541 C2543 1.390 . S
C2541 H2545 0.950 . S
H2542 C2538 0.950 . S
C2543 C2541 1.390 . S
C2543 C2544 1.387 . S
C2543 H2546 0.950 . S
C2544 C2543 1.387 . S
C2544 C2547 1.387 . S
H2545 C2541 0.950 . S
H2546 C2543 0.950 . S
C2547 C2538 1.390 . S
C2547 H2540 0.950 . S
C2547 C2544 1.387 . S
C2548 C2549 1.387 . S
C2548 H2552 0.950 . S
C2548 C2557 1.390 . S
C2549 C2548 1.387 . S
C2549 C2551 1.387 . S
H2550 C2557 0.950 . S
C2551 C2549 1.387 . S
C2551 C2553 1.390 . S
C2551 H2555 0.950 . S
H2552 C2548 0.950 . S
C2553 C2551 1.390 . S
C2553 C2554 1.387 . S
C2553 H2556 0.950 . S
C2554 C2553 1.387 . S
C2554 C2557 1.387 . S
H2555 C2551 0.950 . S
H2556 C2553 0.950 . S
C2557 C2548 1.390 . S
C2557 H2550 0.950 . S
C2557 C2554 1.387 . S
C2558 C2559 1.387 . S
C2558 H2562 0.950 . S
C2558 C2567 1.390 . S
C2559 C2558 1.387 . S
C2559 C2561 1.387 . S
H2560 C2567 0.950 . S
C2561 C2559 1.387 . S
C2561 C2563 1.390 . S
C2561 H2565 0.950 . S
H2562 C2558 0.950 . S
C2563 C2561 1.390 . S
C2563 C2564 1.387 . S
C2563 H2566 0.950 . S
C2564 C2563 1.387 . S
C2564 C2567 1.387 . S
H2565 C2561 0.950 . S
H2566 C2563 0.950 . S
C2567 C2558 1.390 . S
C2567 H2560 0.950 . S
C2567 C2564 1.387 . S
C2568 C2569 1.387 . S
C2568 H2572 0.950 . S
C2568 C2577 1.390 . S
C2569 C2568 1.387 . S
C2569 C2571 1.387 . S
H2570 C2577 0.950 . S
C2571 C2569 1.387 . S
C2571 C2573 1.390 . S
C2571 H2575 0.950 . S
H2572 C2568 0.950 . S
C2573 C2571 1.390 . S
C2573 C2574 1.387 . S
C2573 H2576 0.950 . S
C2574 C2573 1.387 . S
C2574 C2577 1.387 . S
H2575 C2571 0.950 . S
H2576 C2573 0.950 . S
C2577 C2568 1.390 . S
C2577 H2570 0.950 . S
C2577 C2574 1.387 . S
C2578 C2579 1.387 . S
C2578 H2582 0.950 . S
C2578 C2587 1.390 . S
C2579 C2578 1.387 . S
C2579 C2581 1.387 . S
H2580 C2587 0.950 . S
C2581 C2579 1.387 . S
C2581 C2583 1.390 . S
C2581 H2585 0.950 . S
H2582 C2578 0.950 . S
C2583 C2581 1.390 . S
C2583 C2584 1.387 . S
C2583 H2586 0.950 . S
C2584 C2583 1.387 . S
C2584 C2587 1.387 . S
H2585 C2581 0.950 . S
H2586 C2583 0.950 . S
C2587 C2578 1.390 . S
C2587 H2580 0.950 . S
C2587 C2584 1.387 . S
C2588 C2589 1.387 . S
C2588 H2592 0.950 . S
C2588 C2597 1.390 . S
C2589 C2588 1.387 . S
C2589 C2591 1.387 . S
H2590 C2597 0.950 . S
C2591 C2589 1.387 . S
C2591 C2593 1.390 . S
C2591 H2595 0.950 . S
H2592 C2588 0.950 . S
C2593 C2591 1.390 . S
C2593 C2594 1.387 . S
C2593 H2596 0.950 . S
C2594 C2593 1.387 . S
C2594 C2597 1.387 . S
H2595 C2591 0.950 . S
H2596 C2593 0.950 . S
C2597 C2588 1.390 . S
C2597 H2590 0.950 . S
C2597 C2594 1.387 . S
C2598 C2599 1.387 . S
C2598 H2602 0.950 . S
C2598 C2607 1.390 . S
C2599 C2598 1.387 . S
C2599 C2601 1.387 . S
H2600 C2607 0.950 . S
C2601 C2599 1.387 . S
C2601 C2603 1.390 . S
C2601 H2605 0.950 . S
H2602 C2598 0.950 . S
C2603 C2601 1.390 . S
C2603 C2604 1.387 . S
C2603 H2606 0.950 . S
C2604 C2603 1.387 . S
C2604 C2607 1.387 . S
H2605 C2601 0.950 . S
H2606 C2603 0.950 . S
C2607 C2598 1.390 . S
C2607 H2600 0.950 . S
C2607 C2604 1.387 . S
C2608 C2609 1.387 . S
C2608 H2612 0.950 . S
C2608 C2617 1.390 . S
C2609 C2608 1.387 . S
C2609 C2611 1.387 . S
H2610 C2617 0.950 . S
C2611 C2609 1.387 . S
C2611 C2613 1.390 . S
C2611 H2615 0.950 . S
H2612 C2608 0.950 . S
C2613 C2611 1.390 . S
C2613 C2614 1.387 . S
C2613 H2616 0.950 . S
C2614 C2613 1.387 . S
C2614 C2617 1.387 . S
H2615 C2611 0.950 . S
H2616 C2613 0.950 . S
C2617 C2608 1.390 . S
C2617 H2610 0.950 . S
C2617 C2614 1.387 . S
C2618 C2619 1.387 . S
C2618 H2622 0.950 . S
C2618 C2627 1.390 . S
C2619 C2618 1.387 . S
C2619 C2621 1.387 . S
H2620 C2627 0.950 . S
C2621 C2619 1.387 . S
C2621 C2623 1.390 . S
C2621 H2625 0.950 . S
H2622 C2618 0.950 . S
C2623 C2621 1.390 . S
C2623 C2624 1.387 . S
C2623 H2626 0.950 . S
C2624 C2623 1.387 . S
C2624 C2627 1.387 . S
H2625 C2621 0.950 . S
H2626 C2623 0.950 . S
C2627 C2618 1.390 . S
C2627 H2620 0.950 . S
C2627 C2624 1.387 . S
C2628 C2629 1.387 . S
C2628 H2632 0.950 . S
C2628 C2637 1.390 . S
C2629 C2628 1.387 . S
C2629 C2631 1.387 . S
H2630 C2637 0.950 . S
C2631 C2629 1.387 . S
C2631 C2633 1.390 . S
C2631 H2635 0.950 . S
H2632 C2628 0.950 . S
C2633 C2631 1.390 . S
C2633 C2634 1.387 . S
C2633 H2636 0.950 . S
C2634 C2633 1.387 . S
C2634 C2637 1.387 . S
H2635 C2631 0.950 . S
H2636 C2633 0.950 . S
C2637 C2628 1.390 . S
C2637 H2630 0.950 . S
C2637 C2634 1.387 . S
C2638 C2639 1.387 . S
C2638 H2642 0.950 . S
C2638 C2647 1.390 . S
C2639 C2638 1.387 . S
C2639 C2641 1.387 . S
H2640 C2647 0.950 . S
C2641 C2639 1.387 . S
C2641 C2643 1.390 . S
C2641 H2645 0.950 . S
H2642 C2638 0.950 . S
C2643 C2641 1.390 . S
C2643 C2644 1.387 . S
C2643 H2646 0.950 . S
C2644 C2643 1.387 . S
C2644 C2647 1.387 . S
H2645 C2641 0.950 . S
H2646 C2643 0.950 . S
C2647 C2638 1.390 . S
C2647 H2640 0.950 . S
C2647 C2644 1.387 . S
C2648 C2649 1.387 . S
C2648 H2652 0.950 . S
C2648 C2657 1.390 . S
C2649 C2648 1.387 . S
C2649 C2651 1.387 . S
H2650 C2657 0.950 . S
C2651 C2649 1.387 . S
C2651 C2653 1.390 . S
C2651 H2655 0.950 . S
H2652 C2648 0.950 . S
C2653 C2651 1.390 . S
C2653 C2654 1.387 . S
C2653 H2656 0.950 . S
C2654 C2653 1.387 . S
C2654 C2657 1.387 . S
H2655 C2651 0.950 . S
H2656 C2653 0.950 . S
C2657 C2648 1.390 . S
C2657 H2650 0.950 . S
C2657 C2654 1.387 . S
C2658 C2659 1.387 . S
C2658 H2662 0.950 . S
C2658 C2667 1.390 . S
C2659 C2658 1.387 . S
C2659 C2661 1.387 . S
H2660 C2667 0.950 . S
C2661 C2659 1.387 . S
C2661 C2663 1.390 . S
C2661 H2665 0.950 . S
H2662 C2658 0.950 . S
C2663 C2661 1.390 . S
C2663 C2664 1.387 . S
C2663 H2666 0.950 . S
C2664 C2663 1.387 . S
C2664 C2667 1.387 . S
H2665 C2661 0.950 . S
H2666 C2663 0.950 . S
C2667 C2658 1.390 . S
C2667 H2660 0.950 . S
C2667 C2664 1.387 . S
C2668 C2669 1.387 . S
C2668 H2672 0.950 . S
C2668 C2677 1.390 . S
C2669 C2668 1.387 . S
C2669 C2671 1.387 . S
H2670 C2677 0.950 . S
C2671 C2669 1.387 . S
C2671 C2673 1.390 . S
C2671 H2675 0.950 . S
H2672 C2668 0.950 . S
C2673 C2671 1.390 . S
C2673 C2674 1.387 . S
C2673 H2676 0.950 . S
C2674 C2673 1.387 . S
C2674 C2677 1.387 . S
H2675 C2671 0.950 . S
H2676 C2673 0.950 . S
C2677 C2668 1.390 . S
C2677 H2670 0.950 . S
C2677 C2674 1.387 . S
C2678 C2679 1.387 . S
C2678 H2682 0.950 . S
C2678 C2687 1.390 . S
C2679 C2678 1.387 . S
C2679 C2681 1.387 . S
H2680 C2687 0.950 . S
C2681 C2679 1.387 . S
C2681 C2683 1.390 . S
C2681 H2685 0.950 . S
H2682 C2678 0.950 . S
C2683 C2681 1.390 . S
C2683 C2684 1.387 . S
C2683 H2686 0.950 . S
C2684 C2683 1.387 . S
C2684 C2687 1.387 . S
H2685 C2681 0.950 . S
H2686 C2683 0.950 . S
C2687 C2678 1.390 . S
C2687 H2680 0.950 . S
C2687 C2684 1.387 . S
C2688 C2689 1.387 . S
C2688 H2692 0.950 . S
C2688 C2697 1.390 . S
C2689 C2688 1.387 . S
C2689 C2691 1.387 . S
H2690 C2697 0.950 . S
C2691 C2689 1.387 . S
C2691 C2693 1.390 . S
C2691 H2695 0.950 . S
H2692 C2688 0.950 . S
C2693 C2691 1.390 . S
C2693 C2694 1.387 . S
C2693 H2696 0.950 . S
C2694 C2693 1.387 . S
C2694 C2697 1.387 . S
H2695 C2691 0.950 . S
H2696 C2693 0.950 . S
C2697 C2688 1.390 . S
C2697 H2690 0.950 . S
C2697 C2694 1.387 . S
C2698 C2699 1.387 . S
C2698 H2702 0.950 . S
C2698 C2707 1.390 . S
C2699 C2698 1.387 . S
C2699 C2701 1.387 . S
H2700 C2707 0.950 . S
C2701 C2699 1.387 . S
C2701 C2703 1.390 . S
C2701 H2705 0.950 . S
H2702 C2698 0.950 . S
C2703 C2701 1.390 . S
C2703 C2704 1.387 . S
C2703 H2706 0.950 . S
C2704 C2703 1.387 . S
C2704 C2707 1.387 . S
H2705 C2701 0.950 . S
H2706 C2703 0.950 . S
C2707 C2698 1.390 . S
C2707 H2700 0.950 . S
C2707 C2704 1.387 . S
C2708 C2709 1.387 . S
C2708 H2712 0.950 . S
C2708 C2717 1.390 . S
C2709 C2708 1.387 . S
C2709 C2711 1.387 . S
H2710 C2717 0.950 . S
C2711 C2709 1.387 . S
C2711 C2713 1.390 . S
C2711 H2715 0.950 . S
H2712 C2708 0.950 . S
C2713 C2711 1.390 . S
C2713 C2714 1.387 . S
C2713 H2716 0.950 . S
C2714 C2713 1.387 . S
C2714 C2717 1.387 . S
H2715 C2711 0.950 . S
H2716 C2713 0.950 . S
C2717 C2708 1.390 . S
C2717 H2710 0.950 . S
C2717 C2714 1.387 . S
C2718 C2719 1.387 . S
C2718 H2722 0.950 . S
C2718 C2727 1.390 . S
C2719 C2718 1.387 . S
C2719 C2721 1.387 . S
H2720 C2727 0.950 . S
C2721 C2719 1.387 . S
C2721 C2723 1.390 . S
C2721 H2725 0.950 . S
H2722 C2718 0.950 . S
C2723 C2721 1.390 . S
C2723 C2724 1.387 . S
C2723 H2726 0.950 . S
C2724 C2723 1.387 . S
C2724 C2727 1.387 . S
H2725 C2721 0.950 . S
H2726 C2723 0.950 . S
C2727 C2718 1.390 . S
C2727 H2720 0.950 . S
C2727 C2724 1.387 . S
C2728 C2729 1.387 . S
C2728 H2732 0.950 . S
C2728 C2737 1.390 . S
C2729 C2728 1.387 . S
C2729 C2731 1.387 . S
H2730 C2737 0.950 . S
C2731 C2729 1.387 . S
C2731 C2733 1.390 . S
C2731 H2735 0.950 . S
H2732 C2728 0.950 . S
C2733 C2731 1.390 . S
C2733 C2734 1.387 . S
C2733 H2736 0.950 . S
C2734 C2733 1.387 . S
C2734 C2737 1.387 . S
H2735 C2731 0.950 . S
H2736 C2733 0.950 . S
C2737 C2728 1.390 . S
C2737 H2730 0.950 . S
C2737 C2734 1.387 . S
C2738 C2739 1.387 . S
C2738 H2742 0.950 . S
C2738 C2747 1.390 . S
C2739 C2738 1.387 . S
C2739 C2741 1.387 . S
H2740 C2747 0.950 . S
C2741 C2739 1.387 . S
C2741 C2743 1.390 . S
C2741 H2745 0.950 . S
H2742 C2738 0.950 . S
C2743 C2741 1.390 . S
C2743 C2744 1.387 . S
C2743 H2746 0.950 . S
C2744 C2743 1.387 . S
C2744 C2747 1.387 . S
H2745 C2741 0.950 . S
H2746 C2743 0.950 . S
C2747 C2738 1.390 . S
C2747 H2740 0.950 . S
C2747 C2744 1.387 . S
C2748 C2749 1.387 . S
C2748 H2752 0.950 . S
C2748 C2757 1.390 . S
C2749 C2748 1.387 . S
C2749 C2751 1.387 . S
H2750 C2757 0.950 . S
C2751 C2749 1.387 . S
C2751 C2753 1.390 . S
C2751 H2755 0.950 . S
H2752 C2748 0.950 . S
C2753 C2751 1.390 . S
C2753 C2754 1.387 . S
C2753 H2756 0.950 . S
C2754 C2753 1.387 . S
C2754 C2757 1.387 . S
H2755 C2751 0.950 . S
H2756 C2753 0.950 . S
C2757 C2748 1.390 . S
C2757 H2750 0.950 . S
C2757 C2754 1.387 . S
C2758 C2759 1.387 . S
C2758 H2762 0.950 . S
C2758 C2767 1.390 . S
C2759 C2758 1.387 . S
C2759 C2761 1.387 . S
H2760 C2767 0.950 . S
C2761 C2759 1.387 . S
C2761 C2763 1.390 . S
C2761 H2765 0.950 . S
H2762 C2758 0.950 . S
C2763 C2761 1.390 . S
C2763 C2764 1.387 . S
C2763 H2766 0.950 . S
C2764 C2763 1.387 . S
C2764 C2767 1.387 . S
H2765 C2761 0.950 . S
H2766 C2763 0.950 . S
C2767 C2758 1.390 . S
C2767 H2760 0.950 . S
C2767 C2764 1.387 . S
C2768 C2769 1.387 . S
C2768 H2772 0.950 . S
C2768 C2777 1.390 . S
C2769 C2768 1.387 . S
C2769 C2771 1.387 . S
H2770 C2777 0.950 . S
C2771 C2769 1.387 . S
C2771 C2773 1.390 . S
C2771 H2775 0.950 . S
H2772 C2768 0.950 . S
C2773 C2771 1.390 . S
C2773 C2774 1.387 . S
C2773 H2776 0.950 . S
C2774 C2773 1.387 . S
C2774 C2777 1.387 . S
H2775 C2771 0.950 . S
H2776 C2773 0.950 . S
C2777 C2768 1.390 . S
C2777 H2770 0.950 . S
C2777 C2774 1.387 . S
C2778 C2779 1.387 . S
C2778 H2782 0.950 . S
C2778 C2787 1.390 . S
C2779 C2778 1.387 . S
C2779 C2781 1.387 . S
H2780 C2787 0.950 . S
C2781 C2779 1.387 . S
C2781 C2783 1.390 . S
C2781 H2785 0.950 . S
H2782 C2778 0.950 . S
C2783 C2781 1.390 . S
C2783 C2784 1.387 . S
C2783 H2786 0.950 . S
C2784 C2783 1.387 . S
C2784 C2787 1.387 . S
H2785 C2781 0.950 . S
H2786 C2783 0.950 . S
C2787 C2778 1.390 . S
C2787 H2780 0.950 . S
C2787 C2784 1.387 . S
C2788 C2789 1.387 . S
C2788 H2792 0.950 . S
C2788 C2797 1.390 . S
C2789 C2788 1.387 . S
C2789 C2791 1.387 . S
H2790 C2797 0.950 . S
C2791 C2789 1.387 . S
C2791 C2793 1.390 . S
C2791 H2795 0.950 . S
H2792 C2788 0.950 . S
C2793 C2791 1.390 . S
C2793 C2794 1.387 . S
C2793 H2796 0.950 . S
C2794 C2793 1.387 . S
C2794 C2797 1.387 . S
H2795 C2791 0.950 . S
H2796 C2793 0.950 . S
C2797 C2788 1.390 . S
C2797 H2790 0.950 . S
C2797 C2794 1.387 . S
C2798 C2799 1.387 . S
C2798 H2802 0.950 . S
C2798 C2807 1.390 . S
C2799 C2798 1.387 . S
C2799 C2801 1.387 . S
H2800 C2807 0.950 . S
C2801 C2799 1.387 . S
C2801 C2803 1.390 . S
C2801 H2805 0.950 . S
H2802 C2798 0.950 . S
C2803 C2801 1.390 . S
C2803 C2804 1.387 . S
C2803 H2806 0.950 . S
C2804 C2803 1.387 . S
C2804 C2807 1.387 . S
H2805 C2801 0.950 . S
H2806 C2803 0.950 . S
C2807 C2798 1.390 . S
C2807 H2800 0.950 . S
C2807 C2804 1.387 . S
C2808 C2809 1.387 . S
C2808 H2812 0.950 . S
C2808 C2817 1.390 . S
C2809 C2808 1.387 . S
C2809 C2811 1.387 . S
H2810 C2817 0.950 . S
C2811 C2809 1.387 . S
C2811 C2813 1.390 . S
C2811 H2815 0.950 . S
H2812 C2808 0.950 . S
C2813 C2811 1.390 . S
C2813 C2814 1.387 . S
C2813 H2816 0.950 . S
C2814 C2813 1.387 . S
C2814 C2817 1.387 . S
H2815 C2811 0.950 . S
H2816 C2813 0.950 . S
C2817 C2808 1.390 . S
C2817 H2810 0.950 . S
C2817 C2814 1.387 . S
C2818 C2819 1.387 . S
C2818 H2822 0.950 . S
C2818 C2827 1.390 . S
C2819 C2818 1.387 . S
C2819 C2821 1.387 . S
H2820 C2827 0.950 . S
C2821 C2819 1.387 . S
C2821 C2823 1.390 . S
C2821 H2825 0.950 . S
H2822 C2818 0.950 . S
C2823 C2821 1.390 . S
C2823 C2824 1.387 . S
C2823 H2826 0.950 . S
C2824 C2823 1.387 . S
C2824 C2827 1.387 . S
H2825 C2821 0.950 . S
H2826 C2823 0.950 . S
C2827 C2818 1.390 . S
C2827 H2820 0.950 . S
C2827 C2824 1.387 . S
C2828 C2829 1.387 . S
C2828 H2832 0.950 . S
C2828 C2837 1.390 . S
C2829 C2828 1.387 . S
C2829 C2831 1.387 . S
H2830 C2837 0.950 . S
C2831 C2829 1.387 . S
C2831 C2833 1.390 . S
C2831 H2835 0.950 . S
H2832 C2828 0.950 . S
C2833 C2831 1.390 . S
C2833 C2834 1.387 . S
C2833 H2836 0.950 . S
C2834 C2833 1.387 . S
C2834 C2837 1.387 . S
H2835 C2831 0.950 . S
H2836 C2833 0.950 . S
C2837 C2828 1.390 . S
C2837 H2830 0.950 . S
C2837 C2834 1.387 . S
C2838 C2839 1.387 . S
C2838 H2842 0.950 . S
C2838 C2847 1.390 . S
C2839 C2838 1.387 . S
C2839 C2841 1.387 . S
H2840 C2847 0.950 . S
C2841 C2839 1.387 . S
C2841 C2843 1.390 . S
C2841 H2845 0.950 . S
H2842 C2838 0.950 . S
C2843 C2841 1.390 . S
C2843 C2844 1.387 . S
C2843 H2846 0.950 . S
C2844 C2843 1.387 . S
C2844 C2847 1.387 . S
H2845 C2841 0.950 . S
H2846 C2843 0.950 . S
C2847 C2838 1.390 . S
C2847 H2840 0.950 . S
C2847 C2844 1.387 . S
C2848 C2849 1.387 . S
C2848 H2852 0.950 . S
C2848 C2857 1.390 . S
C2849 C2848 1.387 . S
C2849 C2851 1.387 . S
H2850 C2857 0.950 . S
C2851 C2849 1.387 . S
C2851 C2853 1.390 . S
C2851 H2855 0.950 . S
H2852 C2848 0.950 . S
C2853 C2851 1.390 . S
C2853 C2854 1.387 . S
C2853 H2856 0.950 . S
C2854 C2853 1.387 . S
C2854 C2857 1.387 . S
H2855 C2851 0.950 . S
H2856 C2853 0.950 . S
C2857 C2848 1.390 . S
C2857 H2850 0.950 . S
C2857 C2854 1.387 . S
C2858 C2859 1.387 . S
C2858 H2862 0.950 . S
C2858 C2867 1.390 . S
C2859 C2858 1.387 . S
C2859 C2861 1.387 . S
H2860 C2867 0.950 . S
C2861 C2859 1.387 . S
C2861 C2863 1.390 . S
C2861 H2865 0.950 . S
H2862 C2858 0.950 . S
C2863 C2861 1.390 . S
C2863 C2864 1.387 . S
C2863 H2866 0.950 . S
C2864 C2863 1.387 . S
C2864 C2867 1.387 . S
H2865 C2861 0.950 . S
H2866 C2863 0.950 . S
C2867 C2858 1.390 . S
C2867 H2860 0.950 . S
C2867 C2864 1.387 . S
C2868 C2869 1.387 . S
C2868 H2872 0.950 . S
C2868 C2877 1.390 . S
C2869 C2868 1.387 . S
C2869 C2871 1.387 . S
H2870 C2877 0.950 . S
C2871 C2869 1.387 . S
C2871 C2873 1.390 . S
C2871 H2875 0.950 . S
H2872 C2868 0.950 . S
C2873 C2871 1.390 . S
C2873 C2874 1.387 . S
C2873 H2876 0.950 . S
C2874 C2873 1.387 . S
C2874 C2877 1.387 . S
H2875 C2871 0.950 . S
H2876 C2873 0.950 . S
C2877 C2868 1.390 . S
C2877 H2870 0.950 . S
C2877 C2874 1.387 . S
C2878 C2879 1.387 . S
C2878 H2882 0.950 . S
C2878 C2887 1.390 . S
C2879 C2878 1.387 . S
C2879 C2881 1.387 . S
H2880 C2887 0.950 . S
C2881 C2879 1.387 . S
C2881 C2883 1.390 . S
C2881 H2885 0.950 . S
H2882 C2878 0.950 . S
C2883 C2881 1.390 . S
C2883 C2884 1.387 . S
C2883 H2886 0.950 . S
C2884 C2883 1.387 . S
C2884 C2887 1.387 . S
H2885 C2881 0.950 . S
H2886 C2883 0.950 . S
C2887 C2878 1.390 . S
C2887 H2880 0.950 . S
C2887 C2884 1.387 . S
C2888 C2889 1.387 . S
C2888 H2892 0.950 . S
C2888 C2897 1.390 . S
C2889 C2888 1.387 . S
C2889 C2891 1.387 . S
H2890 C2897 0.950 . S
C2891 C2889 1.387 . S
C2891 C2893 1.390 . S
C2891 H2895 0.950 . S
H2892 C2888 0.950 . S
C2893 C2891 1.390 . S
C2893 C2894 1.387 . S
C2893 H2896 0.950 . S
C2894 C2893 1.387 . S
C2894 C2897 1.387 . S
H2895 C2891 0.950 . S
H2896 C2893 0.950 . S
C2897 C2888 1.390 . S
C2897 H2890 0.950 . S
C2897 C2894 1.387 . S
C2898 C2899 1.387 . S
C2898 H2902 0.950 . S
C2898 C2907 1.390 . S
C2899 C2898 1.387 . S
C2899 C2901 1.387 . S
H2900 C2907 0.950 . S
C2901 C2899 1.387 . S
C2901 C2903 1.390 . S
C2901 H2905 0.950 . S
H2902 C2898 0.950 . S
C2903 C2901 1.390 . S
C2903 C2904 1.387 . S
C2903 H2906 0.950 . S
C2904 C2903 1.387 . S
C2904 C2907 1.387 . S
H2905 C2901 0.950 . S
H2906 C2903 0.950 . S
C2907 C2898 1.390 . S
C2907 H2900 0.950 . S
C2907 C2904 1.387 . S
C2908 C2909 1.387 . S
C2908 H2912 0.950 . S
C2908 C2917 1.390 . S
C2909 C2908 1.387 . S
C2909 C2911 1.387 . S
H2910 C2917 0.950 . S
C2911 C2909 1.387 . S
C2911 C2913 1.390 . S
C2911 H2915 0.950 . S
H2912 C2908 0.950 . S
C2913 C2911 1.390 . S
C2913 C2914 1.387 . S
C2913 H2916 0.950 . S
C2914 C2913 1.387 . S
C2914 C2917 1.387 . S
H2915 C2911 0.950 . S
H2916 C2913 0.950 . S
C2917 C2908 1.390 . S
C2917 H2910 0.950 . S
C2917 C2914 1.387 . S
C2918 C2919 1.387 . S
C2918 H2922 0.950 . S
C2918 C2927 1.390 . S
C2919 C2918 1.387 . S
C2919 C2921 1.387 . S
H2920 C2927 0.950 . S
C2921 C2919 1.387 . S
C2921 C2923 1.390 . S
C2921 H2925 0.950 . S
H2922 C2918 0.950 . S
C2923 C2921 1.390 . S
C2923 C2924 1.387 . S
C2923 H2926 0.950 . S
C2924 C2923 1.387 . S
C2924 C2927 1.387 . S
H2925 C2921 0.950 . S
H2926 C2923 0.950 . S
C2927 C2918 1.390 . S
C2927 H2920 0.950 . S
C2927 C2924 1.387 . S
C2928 C2929 1.387 . S
C2928 H2932 0.950 . S
C2928 C2937 1.390 . S
C2929 C2928 1.387 . S
C2929 C2931 1.387 . S
H2930 C2937 0.950 . S
C2931 C2929 1.387 . S
C2931 C2933 1.390 . S
C2931 H2935 0.950 . S
H2932 C2928 0.950 . S
C2933 C2931 1.390 . S
C2933 C2934 1.387 . S
C2933 H2936 0.950 . S
C2934 C2933 1.387 . S
C2934 C2937 1.387 . S
H2935 C2931 0.950 . S
H2936 C2933 0.950 . S
C2937 C2928 1.390 . S
C2937 H2930 0.950 . S
C2937 C2934 1.387 . S
C2938 C2939 1.387 . S
C2938 H2942 0.950 . S
C2938 C2947 1.390 . S
C2939 C2938 1.387 . S
C2939 C2941 1.387 . S
H2940 C2947 0.950 . S
C2941 C2939 1.387 . S
C2941 C2943 1.390 . S
C2941 H2945 0.950 . S
H2942 C2938 0.950 . S
C2943 C2941 1.390 . S
C2943 C2944 1.387 . S
C2943 H2946 0.950 . S
C2944 C2943 1.387 . S
C2944 C2947 1.387 . S
H2945 C2941 0.950 . S
H2946 C2943 0.950 . S
C2947 C2938 1.390 . S
C2947 H2940 0.950 . S
C2947 C2944 1.387 . S
C2948 C2949 1.387 . S
C2948 H2952 0.950 . S
C2948 C2957 1.390 . S
C2949 C2948 1.387 . S
C2949 C2951 1.387 . S
H2950 C2957 0.950 . S
C2951 C2949 1.387 . S
C2951 C2953 1.390 . S
C2951 H2955 0.950 . S
H2952 C2948 0.950 . S
C2953 C2951 1.390 . S
C2953 C2954 1.387 . S
C2953 H2956 0.950 . S
C2954 C2953 1.387 . S
C2954 C2957 1.387 . S
H2955 C2951 0.950 . S
H2956 C2953 0.950 . S
C2957 C2948 1.390 . S
C2957 H2950 0.950 . S
C2957 C2954 1.387 . S
C2958 C2959 1.387 . S
C2958 H2962 0.950 . S
C2958 C2967 1.390 . S
C2959 C2958 1.387 . S
C2959 C2961 1.387 . S
H2960 C2967 0.950 . S
C2961 C2959 1.387 . S
C2961 C2963 1.390 . S
C2961 H2965 0.950 . S
H2962 C2958 0.950 . S
C2963 C2961 1.390 . S
C2963 C2964 1.387 . S
C2963 H2966 0.950 . S
C2964 C2963 1.387 . S
C2964 C2967 1.387 . S
H2965 C2961 0.950 . S
H2966 C2963 0.950 . S
C2967 C2958 1.390 . S
C2967 H2960 0.950 . S
C2967 C2964 1.387 . S
C2968 C2969 1.387 . S
C2968 H2972 0.950 . S
C2968 C2977 1.390 . S
C2969 C2968 1.387 . S
C2969 C2971 1.387 . S
H2970 C2977 0.950 . S
C2971 C2969 1.387 . S
C2971 C2973 1.390 . S
C2971 H2975 0.950 . S
H2972 C2968 0.950 . S
C2973 C2971 1.390 . S
C2973 C2974 1.387 . S
C2973 H2976 0.950 . S
C2974 C2973 1.387 . S
C2974 C2977 1.387 . S
H2975 C2971 0.950 . S
H2976 C2973 0.950 . S
C2977 C2968 1.390 . S
C2977 H2970 0.950 . S
C2977 C2974 1.387 . S
C2978 C2979 1.387 . S
C2978 H2982 0.950 . S
C2978 C2987 1.390 . S
C2979 C2978 1.387 . S
C2979 C2981 1.387 . S
H2980 C2987 0.950 . S
C2981 C2979 1.387 . S
C2981 C2983 1.390 . S
C2981 H2985 0.950 . S
H2982 C2978 0.950 . S
C2983 C2981 1.390 . S
C2983 C2984 1.387 . S
C2983 H2986 0.950 . S
C2984 C2983 1.387 . S
C2984 C2987 1.387 . S
H2985 C2981 0.950 . S
H2986 C2983 0.950 . S
C2987 C2978 1.390 . S
C2987 H2980 0.950 . S
C2987 C2984 1.387 . S
C2988 C2989 1.387 . S
C2988 H2992 0.950 . S
C2988 C2997 1.390 . S
C2989 C2988 1.387 . S
C2989 C2991 1.387 . S
H2990 C2997 0.950 . S
C2991 C2989 1.387 . S
C2991 C2993 1.390 . S
C2991 H2995 0.950 . S
H2992 C2988 0.950 . S
C2993 C2991 1.390 . S
C2993 C2994 1.387 . S
C2993 H2996 0.950 . S
C2994 C2993 1.387 . S
C2994 C2997 1.387 . S
H2995 C2991 0.950 . S
H2996 C2993 0.950 . S
C2997 C2988 1.390 . S
C2997 H2990 0.950 . S
C2997 C2994 1.387 . S
C2998 C2999 1.387 . S
C2998 H3002 0.950 . S
C2998 C3007 1.390 . S
C2999 C2998 1.387 . S
C2999 C3001 1.387 . S
H3000 C3007 0.950 . S
C3001 C2999 1.387 . S
C3001 C3003 1.390 . S
C3001 H3005 0.950 . S
H3002 C2998 0.950 . S
C3003 C3001 1.390 . S
C3003 C3004 1.387 . S
C3003 H3006 0.950 . S
C3004 C3003 1.387 . S
C3004 C3007 1.387 . S
H3005 C3001 0.950 . S
H3006 C3003 0.950 . S
C3007 C2998 1.390 . S
C3007 H3000 0.950 . S
C3007 C3004 1.387 . S
C3008 C3009 1.387 . S
C3008 H3012 0.950 . S
C3008 C3017 1.390 . S
C3009 C3008 1.387 . S
C3009 C3011 1.387 . S
H3010 C3017 0.950 . S
C3011 C3009 1.387 . S
C3011 C3013 1.390 . S
C3011 H3015 0.950 . S
H3012 C3008 0.950 . S
C3013 C3011 1.390 . S
C3013 C3014 1.387 . S
C3013 H3016 0.950 . S
C3014 C3013 1.387 . S
C3014 C3017 1.387 . S
H3015 C3011 0.950 . S
H3016 C3013 0.950 . S
C3017 C3008 1.390 . S
C3017 H3010 0.950 . S
C3017 C3014 1.387 . S
C3018 C3019 1.387 . S
C3018 H3022 0.950 . S
C3018 C3027 1.390 . S
C3019 C3018 1.387 . S
C3019 C3021 1.387 . S
H3020 C3027 0.950 . S
C3021 C3019 1.387 . S
C3021 C3023 1.390 . S
C3021 H3025 0.950 . S
H3022 C3018 0.950 . S
C3023 C3021 1.390 . S
C3023 C3024 1.387 . S
C3023 H3026 0.950 . S
C3024 C3023 1.387 . S
C3024 C3027 1.387 . S
H3025 C3021 0.950 . S
H3026 C3023 0.950 . S
C3027 C3018 1.390 . S
C3027 H3020 0.950 . S
C3027 C3024 1.387 . S
C3028 C3029 1.387 . S
C3028 H3032 0.950 . S
C3028 C3037 1.390 . S
C3029 C3028 1.387 . S
C3029 C3031 1.387 . S
H3030 C3037 0.950 . S
C3031 C3029 1.387 . S
C3031 C3033 1.390 . S
C3031 H3035 0.950 . S
H3032 C3028 0.950 . S
C3033 C3031 1.390 . S
C3033 C3034 1.387 . S
C3033 H3036 0.950 . S
C3034 C3033 1.387 . S
C3034 C3037 1.387 . S
H3035 C3031 0.950 . S
H3036 C3033 0.950 . S
C3037 C3028 1.390 . S
C3037 H3030 0.950 . S
C3037 C3034 1.387 . S
C3038 C3039 1.387 . S
C3038 H3042 0.950 . S
C3038 C3047 1.390 . S
C3039 C3038 1.387 . S
C3039 C3041 1.387 . S
H3040 C3047 0.950 . S
C3041 C3039 1.387 . S
C3041 C3043 1.390 . S
C3041 H3045 0.950 . S
H3042 C3038 0.950 . S
C3043 C3041 1.390 . S
C3043 C3044 1.387 . S
C3043 H3046 0.950 . S
C3044 C3043 1.387 . S
C3044 C3047 1.387 . S
H3045 C3041 0.950 . S
H3046 C3043 0.950 . S
C3047 C3038 1.390 . S
C3047 H3040 0.950 . S
C3047 C3044 1.387 . S
C3048 C3049 1.387 . S
C3048 H3052 0.950 . S
C3048 C3057 1.390 . S
C3049 C3048 1.387 . S
C3049 C3051 1.387 . S
H3050 C3057 0.950 . S
C3051 C3049 1.387 . S
C3051 C3053 1.390 . S
C3051 H3055 0.950 . S
H3052 C3048 0.950 . S
C3053 C3051 1.390 . S
C3053 C3054 1.387 . S
C3053 H3056 0.950 . S
C3054 C3053 1.387 . S
C3054 C3057 1.387 . S
H3055 C3051 0.950 . S
H3056 C3053 0.950 . S
C3057 C3048 1.390 . S
C3057 H3050 0.950 . S
C3057 C3054 1.387 . S
C3058 C3059 1.387 . S
C3058 H3062 0.950 . S
C3058 C3067 1.390 . S
C3059 C3058 1.387 . S
C3059 C3061 1.387 . S
H3060 C3067 0.950 . S
C3061 C3059 1.387 . S
C3061 C3063 1.390 . S
C3061 H3065 0.950 . S
H3062 C3058 0.950 . S
C3063 C3061 1.390 . S
C3063 C3064 1.387 . S
C3063 H3066 0.950 . S
C3064 C3063 1.387 . S
C3064 C3067 1.387 . S
H3065 C3061 0.950 . S
H3066 C3063 0.950 . S
C3067 C3058 1.390 . S
C3067 H3060 0.950 . S
C3067 C3064 1.387 . S
C3068 C3069 1.387 . S
C3068 H3072 0.950 . S
C3068 C3077 1.390 . S
C3069 C3068 1.387 . S
C3069 C3071 1.387 . S
H3070 C3077 0.950 . S
C3071 C3069 1.387 . S
C3071 C3073 1.390 . S
C3071 H3075 0.950 . S
H3072 C3068 0.950 . S
C3073 C3071 1.390 . S
C3073 C3074 1.387 . S
C3073 H3076 0.950 . S
C3074 C3073 1.387 . S
C3074 C3077 1.387 . S
H3075 C3071 0.950 . S
H3076 C3073 0.950 . S
C3077 C3068 1.390 . S
C3077 H3070 0.950 . S
C3077 C3074 1.387 . S
C3078 C3079 1.387 . S
C3078 H3082 0.950 . S
C3078 C3087 1.390 . S
C3079 C3078 1.387 . S
C3079 C3081 1.387 . S
H3080 C3087 0.950 . S
C3081 C3079 1.387 . S
C3081 C3083 1.390 . S
C3081 H3085 0.950 . S
H3082 C3078 0.950 . S
C3083 C3081 1.390 . S
C3083 C3084 1.387 . S
C3083 H3086 0.950 . S
C3084 C3083 1.387 . S
C3084 C3087 1.387 . S
H3085 C3081 0.950 . S
H3086 C3083 0.950 . S
C3087 C3078 1.390 . S
C3087 H3080 0.950 . S
C3087 C3084 1.387 . S
C3088 C3089 1.387 . S
C3088 H3092 0.950 . S
C3088 C3097 1.390 . S
C3089 C3088 1.387 . S
C3089 C3091 1.387 . S
H3090 C3097 0.950 . S
C3091 C3089 1.387 . S
C3091 C3093 1.390 . S
C3091 H3095 0.950 . S
H3092 C3088 0.950 . S
C3093 C3091 1.390 . S
C3093 C3094 1.387 . S
C3093 H3096 0.950 . S
C3094 C3093 1.387 . S
C3094 C3097 1.387 . S
H3095 C3091 0.950 . S
H3096 C3093 0.950 . S
C3097 C3088 1.390 . S
C3097 H3090 0.950 . S
C3097 C3094 1.387 . S
C3098 C3099 1.387 . S
C3098 H3102 0.950 . S
C3098 C3107 1.390 . S
C3099 C3098 1.387 . S
C3099 C3101 1.387 . S
H3100 C3107 0.950 . S
C3101 C3099 1.387 . S
C3101 C3103 1.390 . S
C3101 H3105 0.950 . S
H3102 C3098 0.950 . S
C3103 C3101 1.390 . S
C3103 C3104 1.387 . S
C3103 H3106 0.950 . S
C3104 C3103 1.387 . S
C3104 C3107 1.387 . S
H3105 C3101 0.950 . S
H3106 C3103 0.950 . S
C3107 C3098 1.390 . S
C3107 H3100 0.950 . S
C3107 C3104 1.387 . S
C3108 C3109 1.387 . S
C3108 H3112 0.950 . S
C3108 C3117 1.390 . S
C3109 C3108 1.387 . S
C3109 C3111 1.387 . S
H3110 C3117 0.950 . S
C3111 C3109 1.387 . S
C3111 C3113 1.390 . S
C3111 H3115 0.950 . S
H3112 C3108 0.950 . S
C3113 C3111 1.390 . S
C3113 C3114 1.387 . S
C3113 H3116 0.950 . S
C3114 C3113 1.387 . S
C3114 C3117 1.387 . S
H3115 C3111 0.950 . S
H3116 C3113 0.950 . S
C3117 C3108 1.390 . S
C3117 H3110 0.950 . S
C3117 C3114 1.387 . S
C3118 C3119 1.387 . S
C3118 H3122 0.950 . S
C3118 C3127 1.390 . S
C3119 C3118 1.387 . S
C3119 C3121 1.387 . S
H3120 C3127 0.950 . S
C3121 C3119 1.387 . S
C3121 C3123 1.390 . S
C3121 H3125 0.950 . S
H3122 C3118 0.950 . S
C3123 C3121 1.390 . S
C3123 C3124 1.387 . S
C3123 H3126 0.950 . S
C3124 C3123 1.387 . S
C3124 C3127 1.387 . S
H3125 C3121 0.950 . S
H3126 C3123 0.950 . S
C3127 C3118 1.390 . S
C3127 H3120 0.950 . S
C3127 C3124 1.387 . S
C3128 C3129 1.387 . S
C3128 H3132 0.950 . S
C3128 C3137 1.390 . S
C3129 C3128 1.387 . S
C3129 C3131 1.387 . S
H3130 C3137 0.950 . S
C3131 C3129 1.387 . S
C3131 C3133 1.390 . S
C3131 H3135 0.950 . S
H3132 C3128 0.950 . S
C3133 C3131 1.390 . S
C3133 C3134 1.387 . S
C3133 H3136 0.950 . S
C3134 C3133 1.387 . S
C3134 C3137 1.387 . S
H3135 C3131 0.950 . S
H3136 C3133 0.950 . S
C3137 C3128 1.390 . S
C3137 H3130 0.950 . S
C3137 C3134 1.387 . S
C3138 C3139 1.387 . S
C3138 H3142 0.950 . S
C3138 C3147 1.390 . S
C3139 C3138 1.387 . S
C3139 C3141 1.387 . S
H3140 C3147 0.950 . S
C3141 C3139 1.387 . S
C3141 C3143 1.390 . S
C3141 H3145 0.950 . S
H3142 C3138 0.950 . S
C3143 C3141 1.390 . S
C3143 C3144 1.387 . S
C3143 H3146 0.950 . S
C3144 C3143 1.387 . S
C3144 C3147 1.387 . S
H3145 C3141 0.950 . S
H3146 C3143 0.950 . S
C3147 C3138 1.390 . S
C3147 H3140 0.950 . S
C3147 C3144 1.387 . S
C3148 C3149 1.387 . S
C3148 H3152 0.950 . S
C3148 C3157 1.390 . S
C3149 C3148 1.387 . S
C3149 C3151 1.387 . S
H3150 C3157 0.950 . S
C3151 C3149 1.387 . S
C3151 C3153 1.390 . S
C3151 H3155 0.950 . S
H3152 C3148 0.950 . S
C3153 C3151 1.390 . S
C3153 C3154 1.387 . S
C3153 H3156 0.950 . S
C3154 C3153 1.387 . S
C3154 C3157 1.387 . S
H3155 C3151 0.950 . S
H3156 C3153 0.950 . S
C3157 C3148 1.390 . S
C3157 H3150 0.950 . S
C3157 C3154 1.387 . S
C3158 C3159 1.387 . S
C3158 H3162 0.950 . S
C3158 C3167 1.390 . S
C3159 C3158 1.387 . S
C3159 C3161 1.387 . S
H3160 C3167 0.950 . S
C3161 C3159 1.387 . S
C3161 C3163 1.390 . S
C3161 H3165 0.950 . S
H3162 C3158 0.950 . S
C3163 C3161 1.390 . S
C3163 C3164 1.387 . S
C3163 H3166 0.950 . S
C3164 C3163 1.387 . S
C3164 C3167 1.387 . S
H3165 C3161 0.950 . S
H3166 C3163 0.950 . S
C3167 C3158 1.390 . S
C3167 H3160 0.950 . S
C3167 C3164 1.387 . S
C1249 C1 2.049 . S
C1254 C391 2.049 . S
C1259 C716 2.049 . S
C1264 C14 2.049 . S
C1269 C27 2.049 . S
C1274 C365 2.049 . S
C1279 C40 2.049 . S
C1284 C690 2.049 . S
C1289 C339 2.047 . S
C1294 C53 2.047 . S
C1299 C66 2.049 . S
C1304 C664 2.049 . S
C1309 C313 2.047 . S
C1314 C79 2.047 . S
C1319 C92 2.049 . S
C1324 C638 2.049 . S
C1329 C443 2.047 . S
C1334 C105 2.047 . S
C1339 C118 2.049 . S
C1344 C768 2.049 . S
C1349 C131 2.049 . S
C1354 C417 2.049 . S
C1359 C144 2.047 . S
C1364 C742 2.047 . S
C1369 C157 2.049 . S
C1374 C495 2.049 . S
C1379 C820 2.047 . S
C1384 C170 2.047 . S
C1389 C469 2.047 . S
C1394 C183 2.047 . S
C1399 C196 2.049 . S
C1404 C794 2.049 . S
C1409 C846 2.047 . S
C1414 C209 2.047 . S
C1419 C833 2.047 . S
C1424 C222 2.047 . S
C1429 C235 2.047 . S
C1434 C924 2.047 . S
C1439 C1210 2.047 . S
C1444 C248 2.047 . S
C1449 C599 2.049 . S
C1454 C261 2.049 . S
C1459 C274 2.047 . S
C1464 C1184 2.047 . S
C1469 C287 2.047 . S
C1474 C573 2.047 . S
C1479 C300 2.049 . S
C1484 C859 2.049 . S
C1489 C326 2.047 . S
C1494 C1028 2.047 . S
C1499 C352 2.047 . S
C1504 C1002 2.047 . S
C1509 C378 2.047 . S
C1514 C976 2.047 . S
C1519 C404 2.047 . S
C1524 C950 2.047 . S
C1529 C1080 2.047 . S
C1534 C430 2.047 . S
C1539 C456 2.049 . S
C1544 C1054 2.049 . S
C1549 C1132 2.049 . S
C1554 C482 2.049 . S
C1559 C508 2.049 . S
C1564 C1106 2.049 . S
C1569 C521 2.047 . S
C1574 C1158 2.047 . S
C1579 C534 2.047 . S
C1584 C1145 2.047 . S
C1589 C547 2.047 . S
C1594 C1236 2.047 . S
C1599 C898 2.047 . S
C1604 C560 2.047 . S
C1609 C872 2.047 . S
C1614 C586 2.047 . S
C1619 C612 2.047 . S
C1624 C1171 2.047 . S
C1629 C625 2.047 . S
C1634 C1015 2.047 . S
C1639 C989 2.049 . S
C1644 C651 2.049 . S
C1649 C677 2.047 . S
C1654 C963 2.047 . S
C1659 C703 2.049 . S
C1664 C937 2.049 . S
C1669 C1067 2.047 . S
C1674 C729 2.047 . S
C1679 C1041 2.049 . S
C1684 C755 2.049 . S
C1689 C781 2.047 . S
C1694 C1119 2.047 . S
C1699 C1093 2.049 . S
C1704 C807 2.049 . S
C1709 C885 2.047 . S
C1714 C1223 2.047 . S
C1719 C911 2.047 . S
C1724 C1197 2.047 . S
C1729 C5 1.494 1_655 S
C1734 C720 1.493 . S
C1739 C18 1.494 . S
C1744 C369 1.493 1_655 S
C1749 C31 1.492 1_455 S
C1754 C694 1.493 . S
C1759 C395 1.494 1_455 S
C1764 C44 1.493 . S
C1769 C57 1.492 1_655 S
C1774 C330 1.493 . S
C1779 C70 1.493 . S
C1784 C655 1.494 . S
C1789 C83 1.492 1_455 S
C1794 C356 1.492 . S
C1799 C629 1.493 . S
C1804 C96 1.492 . S
C1809 C109 1.493 1_565 S
C1814 C265 1.493 . S
C1819 C122 1.492 . S
C1824 C1162 1.493 . S
C1829 C1175 1.492 . S
C1834 C135 1.492 . S
C1839 C148 1.493 . S
C1844 C1188 1.492 1_554 S
C1849 C928 1.493 . S
C1854 C161 1.494 1_545 S
C1859 C1214 1.492 1_556 S
C1864 C174 1.492 . S
C1869 C187 1.492 . S
C1874 C915 1.492 . S
C1879 C837 1.493 . S
C1884 C200 1.494 . S
C1889 C824 1.492 . S
C1894 C213 1.494 1_556 S
C1899 C1058 1.494 . S
C1904 C226 1.493 . S
C1909 C239 1.494 . S
C1914 C1071 1.492 1_545 S
C1919 C252 1.494 1_554 S
C1924 C1084 1.492 . S
C1929 C278 1.493 1_556 S
C1934 C1110 1.492 . S
C1939 C291 1.493 . S
C1944 C811 1.492 . S
C1949 C785 1.492 1_545 S
C1954 C304 1.494 . S
C1959 C317 1.494 1_655 S
C1964 C1032 1.492 . S
C1969 C1006 1.493 . S
C1974 C343 1.494 1_455 S
C1979 C967 1.492 . S
C1984 C382 1.494 . S
C1989 C408 1.492 . S
C1994 C941 1.494 . S
C1999 C421 1.492 . S
C2004 C577 1.493 . S
C2009 C434 1.492 . S
C2014 C850 1.494 1_554 S
C2019 C447 1.494 1_545 S
C2024 C863 1.493 . S
C2029 C460 1.494 . S
C2034 C876 1.492 . S
C2039 C473 1.494 . S
C2044 C1240 1.492 . S
C2049 C902 1.492 . S
C2054 C486 1.494 . S
C2059 C1227 1.494 . S
C2064 C499 1.493 1_565 S
C2069 C1149 1.493 1_556 S
C2074 C512 1.492 . S
C2079 C1136 1.492 . S
C2084 C525 1.493 . S
C2089 C538 1.494 1_554 S
C2094 C746 1.492 . S
C2099 C551 1.493 . S
C2104 C759 1.492 . S
C2109 C564 1.492 . S
C2114 C772 1.494 . S
C2119 C798 1.494 . S
C2124 C590 1.493 . S
C2129 C1123 1.493 1_565 S
C2134 C603 1.492 . S
C2139 C1097 1.492 . S
C2144 C616 1.493 . S
C2149 C642 1.494 . S
C2154 C993 1.492 . S
C2159 C668 1.493 . S
C2164 C1019 1.492 . S
C2169 C954 1.494 . S
C2174 C681 1.492 . S
C2179 C980 1.493 . S
C2184 C707 1.493 . S
C2189 C889 1.494 . S
C2194 C733 1.492 1_565 S
C2199 C1201 1.493 . S
C2204 C1045 1.492 . S
C2209 C10 1.792 . S
C2214 C1212 1.820 . S
C2219 C23 1.793 . S
C2224 C913 1.821 . S
C2229 C835 1.823 . S
C2234 C36 1.794 . S
C2239 C926 1.824 . S
C2244 C49 1.795 . S
C2249 C62 1.793 . S
C2254 C250 1.821 . S
C2259 C75 1.792 . S
C2264 C1199 1.820 . S
C2269 C224 1.823 . S
C2274 C88 1.795 . S
C2279 C237 1.821 . S
C2284 C101 1.794 . S
C2289 C367 1.821 . S
C2294 C114 1.793 . S
C2299 C127 1.792 . S
C2304 C692 1.821 . S
C2309 C140 1.793 . S
C2314 C393 1.821 . S
C2319 C153 1.793 . S
C2324 C718 1.821 . S
C2329 C315 1.823 . S
C2334 C166 1.795 . S
C2339 C179 1.794 . S
C2344 C640 1.823 . S
C2349 C341 1.823 . S
C2354 C192 1.795 . S
C2359 C205 1.794 . S
C2364 C666 1.823 . S
C2369 C218 1.792 . S
C2374 C1121 1.821 . S
C2379 C445 1.823 . S
C2384 C231 1.795 . S
C2389 C244 1.793 . S
C2394 C770 1.823 . S
C2399 C419 1.822 . S
C2404 C257 1.793 . S
C2409 C270 1.793 . S
C2414 C432 1.821 . S
C2419 C783 1.820 . S
C2424 C283 1.792 . S
C2429 C172 1.821 . S
C2434 C296 1.793 . S
C2439 C198 1.824 . S
C2444 C309 1.795 . S
C2449 C900 1.821 . S
C2454 C322 1.793 . S
C2459 C335 1.792 . S
C2464 C1225 1.820 . S
C2469 C1147 1.821 . S
C2474 C348 1.792 . S
C2479 C361 1.792 . S
C2484 C1238 1.821 . S
C2489 C562 1.822 . S
C2494 C374 1.794 . S
C2499 C887 1.821 . S
C2504 C387 1.792 . S
C2509 C400 1.794 . S
C2514 C536 1.823 . S
C2519 C413 1.792 . S
C2524 C549 1.820 . S
C2529 C426 1.795 . S
C2534 C55 1.823 . S
C2539 C439 1.792 . S
C2544 C1004 1.822 . S
C2549 C81 1.822 . S
C2554 C452 1.795 . S
C2559 C465 1.794 . S
C2564 C1030 1.822 . S
C2569 C3 1.821 . S
C2574 C478 1.792 . S
C2579 C491 1.792 . S
C2584 C952 1.821 . S
C2589 C29 1.822 . S
C2594 C504 1.794 . S
C2599 C978 1.822 . S
C2604 C517 1.793 . S
C2609 C530 1.795 . S
C2614 C809 1.823 . S
C2619 C543 1.792 . S
C2624 C133 1.820 . S
C2629 C1082 1.823 . S
C2634 C556 1.795 . S
C2639 C569 1.795 . S
C2644 C107 1.823 . S
C2649 C120 1.824 . S
C2654 C582 1.795 . S
C2659 C595 1.795 . S
C2664 C1095 1.823 . S
C2669 C484 1.821 . S
C2674 C608 1.792 . S
C2679 C621 1.795 . S
C2684 C510 1.823 . S
C2689 C588 1.821 . S
C2694 C634 1.793 . S
C2699 C647 1.795 . S
C2704 C289 1.824 . S
C2709 C660 1.794 . S
C2714 C211 1.823 . S
C2719 C673 1.793 . S
C2724 C302 1.821 . S
C2729 C686 1.795 . S
C2734 C874 1.823 . S
C2739 C575 1.821 . S
C2744 C699 1.792 . S
C2749 C848 1.823 . S
C2754 C712 1.794 . S
C2759 C725 1.795 . S
C2764 C861 1.824 . S
C2769 C991 1.822 . S
C2774 C738 1.793 . S
C2779 C68 1.821 . S
C2784 C751 1.793 . S
C2789 C1017 1.821 . S
C2794 C764 1.792 . S
C2799 C777 1.793 . S
C2804 C94 1.821 . S
C2809 C939 1.823 . S
C2814 C790 1.794 . S
C2819 C803 1.794 . S
C2824 C16 1.823 . S
C2829 C965 1.824 . S
C2834 C816 1.795 . S
C2839 C42 1.823 . S
C2844 C829 1.794 . S
C2849 C497 1.823 . S
C2854 C842 1.795 . S
C2859 C855 1.792 . S
C2864 C1069 1.820 . S
C2869 C868 1.795 . S
C2874 C146 1.824 . S
C2879 C1043 1.821 . S
C2884 C881 1.792 . S
C2889 C894 1.795 . S
C2894 C1056 1.824 . S
C2899 C159 1.823 . S
C2904 C907 1.795 . S
C2909 C796 1.820 . S
C2914 C920 1.792 . S
C2919 C933 1.792 . S
C2924 C822 1.821 . S
C2929 C946 1.794 . S
C2934 C276 1.822 . S
C2939 C601 1.823 . S
C2944 C959 1.795 . S
C2949 C523 1.821 . S
C2954 C972 1.792 . S
C2959 C985 1.795 . S
C2964 C614 1.823 . S
C2969 C998 1.794 . S
C2974 C1186 1.823 . S
C2979 C263 1.821 . S
C2984 C1011 1.793 . S
C2989 C1160 1.823 . S
C2994 C1024 1.794 . S
C2999 C1173 1.823 . S
C3004 C1037 1.795 . S
C3009 C679 1.820 . S
C3014 C1050 1.792 . S
C3019 C1063 1.793 . S
C3024 C380 1.821 . S
C3029 C1076 1.795 . S
C3034 C705 1.824 . S
C3039 C1089 1.793 . S
C3044 C406 1.821 . S
C3049 C627 1.824 . S
C3054 C1102 1.795 . S
C3059 C1115 1.794 . S
C3064 C328 1.823 . S
C3069 C1128 1.793 . S
C3074 C653 1.822 . S
C3079 C1141 1.792 . S
C3084 C354 1.821 . S
C3089 C185 1.820 . S
C3094 C1154 1.792 . S
C3099 C1167 1.792 . S
C3104 C757 1.821 . S
C3109 C1180 1.793 . S
C3114 C458 1.822 . S
C3119 C1193 1.795 . S
C3124 C731 1.823 . S
C3129 C1206 1.794 . S
C3134 C744 1.822 . S
C3139 C471 1.820 . S
C3144 C1219 1.792 . S
C3149 C1108 1.822 . S
C3154 C1232 1.793 . S
C3159 C1134 1.821 . S
C3164 C1245 1.793 . S
