# Generated by pormake.
# Topology dmp, (4)-cn, num edge types: 1
# Building blocks:
#     Node 0, Type 0, BuildingBlock: KUFVIS_clean_sbu_0, # of connection points: 4
#     Node 1, Type 0, BuildingBlock: KUFVIS_clean_sbu_0, # of connection points: 4
#     Node 2, Type 0, BuildingBlock: KUFVIS_clean_sbu_0, # of connection points: 4
#     Node 3, Type 0, BuildingBlock: KUFVIS_clean_sbu_0, # of connection points: 4
#     Edge 4, Type (0, 0), BuildingBlock: XUDNAN_clean_linker_2, # of connection points: 2
#     Edge 5, Type (0, 0), BuildingBlock: XUDNAN_clean_linker_2, # of connection points: 2
#     Edge 6, Type (0, 0), BuildingBlock: XUDNAN_clean_linker_2, # of connection points: 2
#     Edge 7, Type (0, 0), BuildingBlock: XUDNAN_clean_linker_2, # of connection points: 2
#     Edge 8, Type (0, 0), BuildingBlock: XUDNAN_clean_linker_2, # of connection points: 2
#     Edge 9, Type (0, 0), BuildingBlock: XUDNAN_clean_linker_2, # of connection points: 2
#     Edge 10, Type (0, 0), BuildingBlock: XUDNAN_clean_linker_2, # of connection points: 2
#     Edge 11, Type (0, 0), BuildingBlock: XUDNAN_clean_linker_2, # of connection points: 2
# Relax obj value: 0.123
# Max RMSD: 0.219
# Mean RMSD: 0.219
data_MOF--net-dmp--node1-KUFVIS_clean_sbu_0--edge1-XUDNAN_clean_linker_2
_symmetry_space_group_name_H-M    P1
_symmetry_Int_Tables_number       1
_symmetry_cell_setting            triclinic
loop_
_symmetry_equiv_pos_as_xyz
'x, y, z'
_cell_length_a     38.973374
_cell_length_b     18.795532
_cell_length_c     15.538451
_cell_angle_alpha  90.104867
_cell_angle_beta   90.084415
_cell_angle_gamma 92.903553
loop_
_atom_site_label
_atom_site_type_symbol
_atom_site_fract_x
_atom_site_fract_y
_atom_site_fract_z
_atom_type_partial_charge
Mn0 Mn 0.11323 0.22897 0.32332 0.0
Mn1 Mn 0.1686 0.20275 0.15892 0.0
C2 C 0.15349 0.31731 0.28604 0.0
C3 C 0.06332 0.2735 0.38288 0.0
C4 C 0.17881 0.14457 0.33703 0.0
O5 O 0.08913 0.14476 0.25992 0.0
O6 O 0.12972 0.13115 0.15924 0.0
C7 C 0.12146 0.23627 0.01652 0.0
N8 N 0.15247 0.24602 0.0564 0.0
C9 C 0.17433 0.32172 0.94217 0.0
C10 C 0.14265 0.3123 0.89962 0.0
C11 C 0.11605 0.26968 0.9372 0.0
C12 C 0.17813 0.2874 0.02121 0.0
H13 H 0.10109 0.20304 0.0449 0.0
C14 C 0.10136 0.11193 0.19558 0.0
O15 O 0.07994 0.22416 0.42075 0.0
O16 O 0.07362 0.29167 0.30635 0.0
N17 N 0.20818 0.2664 0.14734 0.0
C18 C 0.23626 0.27406 0.19952 0.0
C19 C 0.26507 0.31587 0.17215 0.0
C20 C 0.26497 0.34827 0.09078 0.0
C21 C 0.23585 0.33945 0.03798 0.0
C22 C 0.20795 0.29691 0.06859 0.0
H23 H 0.23671 0.24824 0.26134 0.0
O24 O 0.14065 0.31419 0.36283 0.0
O25 O 0.14291 0.26798 0.2317 0.0
O26 O 0.1506 0.16375 0.36963 0.0
O27 O 0.18805 0.15784 0.26001 0.0
C28 C 0.23295 0.37298 0.95743 0.0
C29 C 0.20213 0.36448 0.90981 0.0
H30 H 0.13839 0.33788 0.83839 0.0
H31 H 0.09152 0.26232 0.90485 0.0
H32 H 0.28737 0.32277 0.21346 0.0
H33 H 0.28722 0.3806 0.07001 0.0
H34 H 0.25399 0.40663 0.93234 0.0
H35 H 0.19999 0.39156 0.84871 0.0
Mn36 Mn 0.39799 0.72146 0.22353 0.0
Mn37 Mn 0.33374 0.76921 0.09028 0.0
C38 C 0.3479 0.6512 0.21344 0.0
C39 C 0.44679 0.65743 0.25397 0.0
C40 C 0.34462 0.83112 0.26875 0.0
O41 O 0.42319 0.79433 0.14592 0.0
O42 O 0.37752 0.82349 0.06756 0.0
C43 C 0.36429 0.71494 0.92989 0.0
N44 N 0.33685 0.71916 0.98352 0.0
C45 C 0.30024 0.65147 0.88517 0.0
C46 C 0.32801 0.64712 0.82845 0.0
C47 C 0.36021 0.67867 0.85115 0.0
C48 C 0.30586 0.68832 0.96272 0.0
H49 H 0.38908 0.73907 0.94699 0.0
C50 C 0.40943 0.83009 0.08647 0.0
O51 O 0.43882 0.71171 0.30042 0.0
O52 O 0.42815 0.64432 0.18611 0.0
N53 N 0.289 0.7227 0.09958 0.0
C54 C 0.26552 0.72692 0.1639 0.0
C55 C 0.23217 0.69649 0.15259 0.0
C56 C 0.22304 0.66293 0.07446 0.0
C57 C 0.24747 0.65978 0.00858 0.0
C58 C 0.28026 0.69158 0.02348 0.0
H59 H 0.27229 0.75292 0.22338 0.0
O60 O 0.36765 0.64863 0.28029 0.0
O61 O 0.35784 0.69455 0.15186 0.0
O62 O 0.37268 0.80147 0.28587 0.0
O63 O 0.32789 0.8215 0.19863 0.0
C64 C 0.24097 0.62407 0.92997 0.0
C65 C 0.26738 0.61964 0.86849 0.0
H66 H 0.32499 0.61908 0.76772 0.0
H67 H 0.38184 0.67512 0.80799 0.0
H68 H 0.21355 0.69886 0.20399 0.0
H69 H 0.19743 0.63871 0.06632 0.0
H70 H 0.21596 0.59855 0.91692 0.0
H71 H 0.26224 0.59091 0.80896 0.0
Mn72 Mn 0.89902 0.72573 0.74176 0.0
Mn73 Mn 0.8579 0.76507 0.92591 0.0
C74 C 0.84382 0.68125 0.76344 0.0
C75 C 0.93635 0.64293 0.6816 0.0
C76 C 0.86063 0.86311 0.77027 0.0
O77 O 0.93721 0.77271 0.81527 0.0
O78 O 0.90754 0.78976 0.93651 0.0
C79 C 0.88945 0.65155 0.0261 0.0
N80 N 0.86085 0.68248 0.99667 0.0
C81 C 0.82396 0.58981 0.0589 0.0
C82 C 0.85301 0.55722 0.09038 0.0
C83 C 0.8859 0.58819 0.07376 0.0
C84 C 0.82914 0.65233 0.01081 0.0
H85 H 0.91479 0.67478 0.01272 0.0
C86 C 0.93527 0.79385 0.89298 0.0
O87 O 0.93258 0.70424 0.64465 0.0
O88 O 0.91987 0.63271 0.75245 0.0
N89 N 0.8093 0.74592 0.93 0.0
C90 C 0.78428 0.79091 0.90868 0.0
C91 C 0.7498 0.77145 0.92725 0.0
C92 C 0.74151 0.70695 0.96982 0.0
C93 C 0.76791 0.66389 0.99626 0.0
C94 C 0.80181 0.68686 0.97731 0.0
H95 H 0.7906 0.84112 0.87736 0.0
O96 O 0.85759 0.67805 0.68803 0.0
O97 O 0.86368 0.70529 0.82526 0.0
O98 O 0.87827 0.82439 0.71955 0.0
O99 O 0.85349 0.84716 0.84891 0.0
C100 C 0.76203 0.6005 0.04343 0.0
C101 C 0.79006 0.56309 0.07403 0.0
H102 H 0.85037 0.50857 0.12758 0.0
H103 H 0.90846 0.56322 0.09756 0.0
H104 H 0.72969 0.80604 0.90876 0.0
H105 H 0.7149 0.69182 0.98354 0.0
H106 H 0.73608 0.58072 0.05773 0.0
H107 H 0.78529 0.51473 0.11081 0.0
Mn108 Mn 0.61235 0.26701 0.68998 0.0
Mn109 Mn 0.6344 0.24993 0.89909 0.0
C110 C 0.65076 0.34763 0.75268 0.0
C111 C 0.57591 0.31509 0.58672 0.0
C112 C 0.66956 0.17211 0.75568 0.0
O113 O 0.57602 0.19376 0.73241 0.0
O114 O 0.59621 0.18213 0.86658 0.0
C115 C 0.56916 0.30448 0.9639 0.0
N116 N 0.60412 0.30975 0.95949 0.0
C117 C 0.60632 0.41597 0.04653 0.0
C118 C 0.57037 0.41162 0.05192 0.0
C119 C 0.55172 0.35565 0.01032 0.0
C120 C 0.62226 0.36413 0.99803 0.0
H121 H 0.5546 0.26165 0.93219 0.0
C122 C 0.57521 0.16439 0.80628 0.0
O123 O 0.59433 0.26128 0.56819 0.0
O124 O 0.57712 0.33702 0.66559 0.0
N125 N 0.67061 0.31157 0.94426 0.0
C126 C 0.70451 0.29789 0.9504 0.0
C127 C 0.72665 0.34359 0.99879 0.0
C128 C 0.71383 0.40308 0.04018 0.0
C129 C 0.6785 0.41332 0.03801 0.0
C130 C 0.65749 0.36442 0.99124 0.0
H131 H 0.71444 0.25181 0.91965 0.0
O132 O 0.6487 0.34235 0.66982 0.0
O133 O 0.62885 0.30856 0.79728 0.0
O134 O 0.64966 0.19178 0.69489 0.0
O135 O 0.6666 0.19149 0.83465 0.0
C136 C 0.66309 0.4671 0.08536 0.0
C137 C 0.62698 0.46881 0.08898 0.0
H138 H 0.55685 0.45054 0.08848 0.0
H139 H 0.52397 0.35181 0.01431 0.0
H140 H 0.75345 0.33226 0.00548 0.0
H141 H 0.73104 0.43822 0.0773 0.0
H142 H 0.67873 0.50612 0.12132 0.0
H143 H 0.61538 0.50964 0.12682 0.0
H144 H 0.2822 0.8109 0.34204 0.0
H145 H 0.37071 0.95861 0.33369 0.0
H146 H 0.3362 0.05157 0.39951 0.0
H147 H 0.23037 0.92063 0.25213 0.0
H148 H 0.1915 0.89322 0.30844 0.0
H149 H 0.22497 0.83222 0.29661 0.0
H150 H 0.22748 0.8156 0.46164 0.0
H151 H 0.19362 0.87673 0.47442 0.0
H152 H 0.23376 0.89228 0.5308 0.0
H153 H 0.28979 0.13466 0.42983 0.0
H154 H 0.23773 0.20113 0.4052 0.0
H155 H 0.17773 0.00319 0.37303 0.0
C156 C 0.29449 0.86223 0.35622 0.0
C157 C 0.32897 0.87781 0.33269 0.0
C158 C 0.3445 0.94522 0.35311 0.0
C159 C 0.32495 -0.00172 0.39027 0.0
C160 C 0.28998 0.98287 0.40618 0.0
C161 C 0.27495 0.91598 0.38986 0.0
C162 C 0.23605 0.91636 0.39277 0.0
C163 C 0.21982 0.88912 0.30743 0.0
C164 C 0.2219 0.87266 0.46951 0.0
C165 C 0.23128 -0.00494 0.40626 0.0
C166 C 0.26265 0.03192 0.41843 0.0
C167 C 0.26514 0.10612 0.42253 0.0
C168 C 0.23539 0.14353 0.40871 0.0
C169 C 0.20375 0.10696 0.38893 0.0
C170 C 0.20136 0.03196 0.39166 0.0
H171 H 0.19802 0.39283 0.39001 0.0
H172 H 0.15535 0.38764 0.13277 0.0
H173 H 0.20161 0.47422 0.08449 0.0
H174 H 0.21832 0.59403 0.37259 0.0
H175 H 0.2544 0.58841 0.4445 0.0
H176 H 0.21707 0.52884 0.45768 0.0
H177 H 0.2564 0.4217 0.44866 0.0
H178 H 0.29362 0.48059 0.43193 0.0
H179 H 0.28279 0.41134 0.3547 0.0
H180 H 0.26608 0.51293 0.06148 0.0
H181 H 0.3222 0.58103 0.07173 0.0
H182 H 0.3096 0.59917 0.34701 0.0
C183 C 0.19832 0.41045 0.32368 0.0
C184 C 0.17594 0.37853 0.26193 0.0
C185 C 0.17483 0.40682 0.17801 0.0
C186 C 0.20052 0.4563 0.15063 0.0
C187 C 0.22523 0.47947 0.21036 0.0
C188 C 0.22242 0.46288 0.29661 0.0
C189 C 0.24987 0.50257 0.3491 0.0
C190 C 0.23396 0.5567 0.40953 0.0
C191 C 0.27196 0.45094 0.399 0.0
C192 C 0.27004 0.53935 0.27768 0.0
C193 C 0.25643 0.52199 0.19788 0.0
C194 C 0.27521 0.53383 0.12275 0.0
C195 C 0.30672 0.57268 0.12887 0.0
C196 C 0.31744 0.60281 0.2082 0.0
C197 C 0.30006 0.58231 0.28431 0.0
H198 H 0.72287 0.13891 0.86072 0.0
H199 H 0.68387 0.10548 0.6013 0.0
H200 H 0.73439 0.03543 0.5673 0.0
H201 H 0.81328 0.15957 0.8029 0.0
H202 H 0.82675 0.11478 0.89875 0.0
H203 H 0.7883 0.16419 0.9001 0.0
H204 H 0.75283 0.05186 0.95252 0.0
H205 H 0.79121 0.00279 0.95279 0.0
H206 H 0.75429 0.97019 0.89186 0.0
H207 H 0.78787 0.95897 0.56804 0.0
H208 H 0.8352 0.88148 0.60638 0.0
H209 H 0.84042 0.97724 0.86023 0.0
C210 C 0.72484 0.11776 0.79628 0.0
C211 C 0.69917 0.12814 0.7338 0.0
C212 C 0.70308 0.09845 0.65055 0.0
C213 C 0.73184 0.05891 0.63047 0.0
C214 C 0.75683 0.0506 0.69375 0.0
C215 C 0.75347 0.07964 0.77488 0.0
C216 C 0.7828 0.06149 0.8332 0.0
C217 C 0.80404 0.12904 0.86031 0.0
C218 C 0.76948 0.01906 0.91218 0.0
C219 C 0.80291 0.01584 0.77331 0.0
C220 C 0.78784 0.01011 0.69284 0.0
C221 C 0.80023 0.96438 0.63028 0.0
C222 C 0.82747 0.9211 0.65217 0.0
C223 C 0.84188 0.92382 0.73597 0.0
C224 C 0.83042 0.97464 0.79515 0.0
H225 H 0.83339 0.54214 0.79246 0.0
H226 H 0.78066 0.7348 0.74556 0.0
H227 H 0.72451 0.66942 0.77035 0.0
H228 H 0.77143 0.44935 0.65417 0.0
H229 H 0.77659 0.36508 0.70661 0.0
H230 H 0.81176 0.43078 0.70419 0.0
H231 H 0.81587 0.42609 0.86999 0.0
H232 H 0.78064 0.3607 0.87221 0.0
H233 H 0.77871 0.44242 0.93404 0.0
H234 H 0.67537 0.58365 0.81277 0.0
H235 H 0.6343 0.47922 0.79963 0.0
H236 H 0.71922 0.34088 0.77488 0.0
C237 C 0.80993 0.57071 0.79115 0.0
C238 C 0.81075 0.6445 0.77769 0.0
C239 C 0.77999 0.67934 0.76461 0.0
C240 C 0.74826 0.64266 0.77799 0.0
C241 C 0.74825 0.57044 0.79819 0.0
C242 C 0.77817 0.53406 0.79784 0.0
C243 C 0.77093 0.45459 0.79542 0.0
C244 C 0.7834 0.42315 0.71003 0.0
C245 C 0.78742 0.4188 0.87273 0.0
C246 C 0.73213 0.45169 0.80035 0.0
C247 C 0.71967 0.51921 0.80513 0.0
C248 C 0.68466 0.53046 0.80857 0.0
C249 C 0.66162 0.47115 0.80186 0.0
C250 C 0.67396 0.40267 0.78902 0.0
C251 C 0.70949 0.39271 0.78846 0.0
H252 H 0.03204 0.07264 0.20831 0.0
H253 H 0.12739 0.01168 0.09124 0.0
H254 H 0.09582 0.91879 0.00763 0.0
H255 H 0.99137 0.88884 0.21784 0.0
H256 H 0.94941 0.91926 0.19261 0.0
H257 H 0.97991 0.97659 0.25056 0.0
H258 H 0.97369 0.0746 0.13526 0.0
H259 H 0.94347 0.01742 0.07663 0.0
H260 H 0.9815 0.05412 0.02381 0.0
H261 H 0.0537 0.84247 0.92301 0.0
H262 H 0.00341 0.78084 0.8527 0.0
H263 H 0.93583 0.88711 0.02769 0.0
C264 C 0.04633 0.03854 0.16681 0.0
C265 C 0.08217 0.04991 0.15629 0.0
C266 C 0.09986 0.00464 0.10014 0.0
C267 C 0.08221 0.95138 0.05232 0.0
C268 C 0.04681 0.94314 0.06174 0.0
C269 C 0.02905 0.98461 0.11845 0.0
C270 C 0.99078 0.96671 0.11295 0.0
C271 C 0.97707 0.93601 0.19858 0.0
C272 C 0.97123 0.0321 0.08551 0.0
C273 C 0.98994 0.91033 0.04296 0.0
C274 C 0.02252 0.89741 0.01428 0.0
C275 C 0.02803 0.85103 0.94593 0.0
C276 C 0.99938 0.81658 0.90608 0.0
C277 C 0.96579 0.82844 0.93528 0.0
C278 C 0.96123 0.87572 1.00492 0.0
H279 H 0.57253 0.07651 0.94621 0.0
H280 H 0.51595 0.12901 0.71565 0.0
H281 H 0.46832 0.04534 0.7608 0.0
H282 H 0.54467 0.88794 0.95431 0.0
H283 H 0.54237 0.88751 0.07016 0.0
H284 H 0.57282 0.94741 0.01632 0.0
H285 H 0.5477 0.0542 0.09601 0.0
H286 H 0.51698 -0.00515 0.14949 0.0
H287 H 0.50243 0.06844 0.08735 0.0
H288 H 0.42557 0.96423 0.83648 0.0
H289 H 0.39118 0.88537 0.93197 0.0
H290 H 0.47607 0.88417 0.1137 0.0
C291 C 0.55033 0.07002 0.90439 0.0
C292 C 0.54795 0.10952 0.82724 0.0
C293 C 0.51843 0.09914 0.77467 0.0
C294 C 0.49126 0.05191 0.79995 0.0
C295 C 0.49424 0.01522 0.87741 0.0
C296 C 0.52317 0.02314 0.92839 0.0
C297 C 0.51958 0.97921 0.00992 0.0
C298 C 0.54646 0.92212 0.0128 0.0
C299 C 0.52179 0.02705 0.09043 0.0
C300 C 0.48373 0.94605 0.9977 0.0
C301 C 0.46966 0.96763 0.92078 0.0
C302 C 0.43642 0.94649 0.89641 0.0
C303 C 0.41703 0.90187 0.95172 0.0
C304 C 0.43088 0.87838 0.03084 0.0
C305 C 0.46481 0.90074 0.0537 0.0
H306 H 0.9672 0.62725 0.51869 0.0
H307 H 0.94973 0.5216 0.76463 0.0
H308 H 0.9756 0.4151 0.70973 0.0
H309 H 0.951 0.47092 0.38469 0.0
H310 H 0.98508 0.49219 0.30929 0.0
H311 H 0.96472 0.56257 0.3656 0.0
H312 H 0.02376 0.61071 0.4235 0.0
H313 H 0.0443 0.54113 0.36629 0.0
H314 H 0.05076 0.55154 0.4806 0.0
H315 H 0.00165 0.31821 0.63163 0.0
H316 H 0.03402 0.24034 0.5375 0.0
H317 H 0.03782 0.40406 0.34038 0.0
C318 C 0.96917 0.58193 0.56098 0.0
C319 C 0.95602 0.58334 0.6461 0.0
C320 C 0.95919 0.5225 0.69912 0.0
C321 C 0.97381 0.46111 0.66851 0.0
C322 C 0.98567 0.46052 0.5844 0.0
C323 C 0.98419 0.51935 0.5314 0.0
C324 C 1.00028 0.50378 0.44444 0.0
C325 C 0.97367 0.5076 0.3717 0.0
C326 C 0.03164 0.55482 0.42774 0.0
C327 C 0.01092 0.42753 0.45779 0.0
C328 C 0.00174 0.40379 0.53889 0.0
C329 C 0.00906 0.33606 0.56783 0.0
C330 C 0.02735 0.29197 0.51364 0.0
C331 C 0.03835 0.31555 0.43129 0.0
C332 C 0.02933 0.38388 0.40242 0.0
H333 H 0.47294 0.64345 0.41662 0.0
H334 H 0.47545 0.55157 0.16067 0.0
H335 H 0.50953 0.45391 0.21617 0.0
H336 H 0.5591 0.59539 0.48552 0.0
H337 H 0.545 0.57604 0.59379 0.0
H338 H 0.52412 0.64194 0.53125 0.0
H339 H 0.4655 0.57403 0.55682 0.0
H340 H 0.48625 0.5073 0.61811 0.0
H341 H 0.46011 0.48153 0.52635 0.0
H342 H 0.54107 0.36153 0.30336 0.0
H343 H 0.56831 0.28656 0.41287 0.0
H344 H 0.54233 0.43752 0.61104 0.0
C345 C 0.48144 0.60392 0.37171 0.0
C346 C 0.47189 0.6058 0.28397 0.0
C347 C 0.48275 0.55172 0.22795 0.0
C348 C 0.50203 0.49584 0.25899 0.0
C349 C 0.51009 0.49436 0.34647 0.0
C350 C 0.50028 0.54735 0.40184 0.0
C351 C 0.51047 0.53168 0.49373 0.0
C352 C 0.53621 0.5897 0.52807 0.0
C353 C 0.47869 0.52312 0.55216 0.0
C354 C 0.5273 0.46144 0.48172 0.0
C355 C 0.52709 0.44073 0.3964 0.0
C356 C 0.54136 0.37742 0.37036 0.0
C357 C 0.55663 0.33492 0.433 0.0
C358 C 0.55729 0.35565 0.52072 0.0
C359 C 0.54209 0.41957 0.54477 0.0
loop_
_geom_bond_atom_site_label_1
_geom_bond_atom_site_label_2
_geom_bond_distance
_geom_bond_site_symmetry_2
_ccdc_geom_bond_type
Mn0 O5 2.095 . S
Mn0 O15 2.162 . S
Mn0 O16 2.297 . S
Mn0 O24 2.385 . S
Mn0 O25 2.209 . S
Mn0 O26 2.094 . S
Mn1 O6 2.121 . S
Mn1 N8 2.257 . S
Mn1 N17 2.282 . S
Mn1 O25 2.215 . S
Mn1 O27 2.117 . S
C2 O24 1.234 . S
C2 O25 1.283 . S
C3 O15 1.281 . S
C3 O16 1.236 . S
C4 O26 1.240 . S
C4 O27 1.264 . S
O5 Mn0 2.095 . S
O5 C14 1.250 . S
O6 Mn1 2.121 . S
O6 C14 1.258 . S
C7 N8 1.326 1_556 S
C7 C11 1.460 . S
C7 H13 0.929 . S
N8 Mn1 2.257 . S
N8 C7 1.326 1_554 S
N8 C12 1.362 . S
C9 C10 1.258 . S
C9 C12 1.431 1_556 S
C9 C29 1.449 . S
C10 C9 1.258 . S
C10 C11 1.477 . S
C10 H30 0.931 . S
C11 C7 1.460 . S
C11 C10 1.477 . S
C11 H31 0.930 . S
C12 N8 1.362 . S
C12 C9 1.431 1_554 S
C12 C22 1.476 . S
H13 C7 0.929 . S
C14 O5 1.250 . S
C14 O6 1.258 . S
O15 Mn0 2.162 . S
O15 C3 1.281 . S
O16 Mn0 2.297 . S
O16 C3 1.236 . S
N17 Mn1 2.282 . S
N17 C18 1.328 . S
N17 C22 1.318 . S
C18 N17 1.328 . S
C18 C19 1.457 . S
C18 H23 0.929 . S
C19 C18 1.457 . S
C19 C20 1.291 . S
C19 H32 0.931 . S
C20 C19 1.291 . S
C20 C21 1.373 . S
C20 H33 0.929 . S
C21 C20 1.373 . S
C21 C22 1.396 . S
C21 C28 1.403 1_554 S
C22 C12 1.476 . S
C22 N17 1.318 . S
C22 C21 1.396 . S
H23 C18 0.929 . S
O24 Mn0 2.385 . S
O24 C2 1.234 . S
O25 Mn0 2.209 . S
O25 Mn1 2.215 . S
O25 C2 1.283 . S
O26 Mn0 2.094 . S
O26 C4 1.240 . S
O27 Mn1 2.117 . S
O27 C4 1.264 . S
C28 C21 1.403 1_556 S
C28 C29 1.399 . S
C28 H34 0.929 . S
C29 C9 1.449 . S
C29 C28 1.399 . S
C29 H35 0.930 . S
H30 C10 0.931 . S
H31 C11 0.930 . S
H32 C19 0.931 . S
H33 C20 0.929 . S
H34 C28 0.929 . S
H35 C29 0.930 . S
Mn36 O41 2.095 . S
Mn36 O51 2.162 . S
Mn36 O52 2.297 . S
Mn36 O60 2.385 . S
Mn36 O61 2.209 . S
Mn36 O62 2.094 . S
Mn37 O42 2.121 . S
Mn37 N44 2.257 . S
Mn37 N53 2.282 . S
Mn37 O61 2.215 . S
Mn37 O63 2.117 . S
C38 O60 1.234 . S
C38 O61 1.283 . S
C39 O51 1.281 . S
C39 O52 1.236 . S
C40 O62 1.240 . S
C40 O63 1.264 . S
O41 Mn36 2.095 . S
O41 C50 1.250 . S
O42 Mn37 2.121 . S
O42 C50 1.258 . S
C43 N44 1.326 1_556 S
C43 C47 1.460 . S
C43 H49 0.929 . S
N44 Mn37 2.257 . S
N44 C43 1.326 1_554 S
N44 C48 1.362 . S
C45 C46 1.258 . S
C45 C48 1.431 1_556 S
C45 C65 1.449 . S
C46 C45 1.258 . S
C46 C47 1.477 . S
C46 H66 0.931 . S
C47 C43 1.460 . S
C47 C46 1.477 . S
C47 H67 0.930 . S
C48 N44 1.362 . S
C48 C45 1.431 1_554 S
C48 C58 1.476 . S
H49 C43 0.929 . S
C50 O41 1.250 . S
C50 O42 1.258 . S
O51 Mn36 2.162 . S
O51 C39 1.281 . S
O52 Mn36 2.297 . S
O52 C39 1.236 . S
N53 Mn37 2.282 . S
N53 C54 1.328 . S
N53 C58 1.318 . S
C54 N53 1.328 . S
C54 C55 1.457 . S
C54 H59 0.929 . S
C55 C54 1.457 . S
C55 C56 1.291 . S
C55 H68 0.931 . S
C56 C55 1.291 . S
C56 C57 1.373 . S
C56 H69 0.929 . S
C57 C56 1.373 . S
C57 C58 1.396 . S
C57 C64 1.403 1_554 S
C58 C48 1.476 . S
C58 N53 1.318 . S
C58 C57 1.396 . S
H59 C54 0.929 . S
O60 Mn36 2.385 . S
O60 C38 1.234 . S
O61 Mn36 2.209 . S
O61 Mn37 2.215 . S
O61 C38 1.283 . S
O62 Mn36 2.094 . S
O62 C40 1.240 . S
O63 Mn37 2.117 . S
O63 C40 1.264 . S
C64 C57 1.403 1_556 S
C64 C65 1.399 . S
C64 H70 0.929 . S
C65 C45 1.449 . S
C65 C64 1.399 . S
C65 H71 0.930 . S
H66 C46 0.931 . S
H67 C47 0.930 . S
H68 C55 0.931 . S
H69 C56 0.929 . S
H70 C64 0.929 . S
H71 C65 0.930 . S
Mn72 O77 2.095 . S
Mn72 O87 2.162 . S
Mn72 O88 2.297 . S
Mn72 O96 2.385 . S
Mn72 O97 2.209 . S
Mn72 O98 2.094 . S
Mn73 O78 2.121 . S
Mn73 N80 2.257 . S
Mn73 N89 2.282 . S
Mn73 O97 2.215 . S
Mn73 O99 2.117 . S
C74 O96 1.234 . S
C74 O97 1.283 . S
C75 O87 1.281 . S
C75 O88 1.236 . S
C76 O98 1.240 . S
C76 O99 1.264 . S
O77 Mn72 2.095 . S
O77 C86 1.250 . S
O78 Mn73 2.121 . S
O78 C86 1.258 . S
C79 N80 1.326 1_554 S
C79 C83 1.460 . S
C79 H85 0.929 . S
N80 Mn73 2.257 . S
N80 C79 1.326 1_556 S
N80 C84 1.362 . S
C81 C82 1.258 . S
C81 C84 1.431 1_554 S
C81 C101 1.449 . S
C82 C81 1.258 . S
C82 C83 1.477 . S
C82 H102 0.931 . S
C83 C79 1.460 . S
C83 C82 1.477 . S
C83 H103 0.930 . S
C84 N80 1.362 . S
C84 C81 1.431 1_556 S
C84 C94 1.476 . S
H85 C79 0.929 . S
C86 O77 1.250 . S
C86 O78 1.258 . S
O87 Mn72 2.162 . S
O87 C75 1.281 . S
O88 Mn72 2.297 . S
O88 C75 1.236 . S
N89 Mn73 2.282 . S
N89 C90 1.328 . S
N89 C94 1.318 . S
C90 N89 1.328 . S
C90 C91 1.457 . S
C90 H95 0.929 . S
C91 C90 1.457 . S
C91 C92 1.291 . S
C91 H104 0.931 . S
C92 C91 1.291 . S
C92 C93 1.373 . S
C92 H105 0.929 . S
C93 C92 1.373 . S
C93 C94 1.396 . S
C93 C100 1.403 1_556 S
C94 C84 1.476 . S
C94 N89 1.318 . S
C94 C93 1.396 . S
H95 C90 0.929 . S
O96 Mn72 2.385 . S
O96 C74 1.234 . S
O97 Mn72 2.209 . S
O97 Mn73 2.215 . S
O97 C74 1.283 . S
O98 Mn72 2.094 . S
O98 C76 1.240 . S
O99 Mn73 2.117 . S
O99 C76 1.264 . S
C100 C93 1.403 1_554 S
C100 C101 1.399 . S
C100 H106 0.929 . S
C101 C81 1.449 . S
C101 C100 1.399 . S
C101 H107 0.930 . S
H102 C82 0.931 . S
H103 C83 0.930 . S
H104 C91 0.931 . S
H105 C92 0.929 . S
H106 C100 0.929 . S
H107 C101 0.930 . S
Mn108 O113 2.095 . S
Mn108 O123 2.162 . S
Mn108 O124 2.297 . S
Mn108 O132 2.385 . S
Mn108 O133 2.209 . S
Mn108 O134 2.094 . S
Mn109 O114 2.121 . S
Mn109 N116 2.257 . S
Mn109 N125 2.282 . S
Mn109 O133 2.215 . S
Mn109 O135 2.117 . S
C110 O132 1.234 . S
C110 O133 1.283 . S
C111 O123 1.281 . S
C111 O124 1.236 . S
C112 O134 1.240 . S
C112 O135 1.264 . S
O113 Mn108 2.095 . S
O113 C122 1.250 . S
O114 Mn109 2.121 . S
O114 C122 1.258 . S
C115 N116 1.326 1_554 S
C115 C119 1.460 . S
C115 H121 0.929 . S
N116 Mn109 2.257 . S
N116 C115 1.326 1_556 S
N116 C120 1.362 . S
C117 C118 1.258 . S
C117 C120 1.431 1_554 S
C117 C137 1.449 . S
C118 C117 1.258 . S
C118 C119 1.477 . S
C118 H138 0.931 . S
C119 C115 1.460 . S
C119 C118 1.477 . S
C119 H139 0.930 . S
C120 N116 1.362 . S
C120 C117 1.431 1_556 S
C120 C130 1.476 . S
H121 C115 0.929 . S
C122 O113 1.250 . S
C122 O114 1.258 . S
O123 Mn108 2.162 . S
O123 C111 1.281 . S
O124 Mn108 2.297 . S
O124 C111 1.236 . S
N125 Mn109 2.282 . S
N125 C126 1.328 . S
N125 C130 1.318 . S
C126 N125 1.328 . S
C126 C127 1.457 . S
C126 H131 0.929 . S
C127 C126 1.457 . S
C127 C128 1.291 . S
C127 H140 0.931 . S
C128 C127 1.291 . S
C128 C129 1.373 . S
C128 H141 0.929 . S
C129 C128 1.373 . S
C129 C130 1.396 . S
C129 C136 1.403 1_556 S
C130 C120 1.476 . S
C130 N125 1.318 . S
C130 C129 1.396 . S
H131 C126 0.929 . S
O132 Mn108 2.385 . S
O132 C110 1.234 . S
O133 Mn108 2.209 . S
O133 Mn109 2.215 . S
O133 C110 1.283 . S
O134 Mn108 2.094 . S
O134 C112 1.240 . S
O135 Mn109 2.117 . S
O135 C112 1.264 . S
C136 C129 1.403 1_554 S
C136 C137 1.399 . S
C136 H142 0.929 . S
C137 C117 1.449 . S
C137 C136 1.399 . S
C137 H143 0.930 . S
H138 C118 0.931 . S
H139 C119 0.930 . S
H140 C127 0.931 . S
H141 C128 0.929 . S
H142 C136 0.929 . S
H143 C137 0.930 . S
H144 C156 0.930 . S
H145 C158 0.930 . S
H146 C159 0.930 . S
H147 C163 0.959 . S
H148 C163 0.959 . S
H149 C163 0.961 . S
H150 C164 0.960 1_565 S
H151 C164 0.961 . S
H152 C164 0.959 . S
H153 C167 0.929 . S
H154 C168 0.931 . S
H155 C170 0.930 . S
C156 H144 0.930 . S
C156 C157 1.399 . S
C156 C161 1.399 . S
C157 C156 1.399 . S
C157 C158 1.376 . S
C158 H145 0.930 . S
C158 C157 1.376 . S
C158 C159 1.388 1_565 S
C159 H146 0.930 . S
C159 C158 1.388 1_545 S
C159 C160 1.390 . S
C160 C159 1.390 . S
C160 C161 1.394 1_545 S
C160 C166 1.465 . S
C161 C156 1.399 . S
C161 C160 1.394 1_565 S
C161 C162 1.516 . S
C162 C161 1.516 . S
C162 C163 1.502 . S
C162 C164 1.561 1_565 S
C162 C165 1.526 1_565 S
C163 H147 0.959 . S
C163 H148 0.959 . S
C163 H149 0.961 . S
C163 C162 1.502 . S
C164 H150 0.960 1_545 S
C164 H151 0.961 . S
C164 H152 0.959 . S
C164 C162 1.561 1_545 S
C165 C162 1.526 1_545 S
C165 C166 1.396 . S
C165 C170 1.390 . S
C166 C160 1.465 . S
C166 C165 1.396 . S
C166 C167 1.399 . S
C167 H153 0.929 . S
C167 C166 1.399 . S
C167 C168 1.385 . S
C168 H154 0.931 . S
C168 C167 1.385 . S
C168 C169 1.389 . S
C169 C168 1.389 . S
C169 C170 1.387 . S
C170 H155 0.930 . S
C170 C165 1.390 . S
C170 C169 1.387 . S
H171 C183 0.930 . S
H172 C185 0.930 . S
H173 C186 0.930 . S
H174 C190 0.959 . S
H175 C190 0.959 . S
H176 C190 0.961 . S
H177 C191 0.960 . S
H178 C191 0.961 . S
H179 C191 0.959 . S
H180 C194 0.929 . S
H181 C195 0.931 . S
H182 C197 0.930 . S
C183 H171 0.930 . S
C183 C184 1.399 . S
C183 C188 1.399 . S
C184 C183 1.399 . S
C184 C185 1.376 . S
C185 H172 0.930 . S
C185 C184 1.376 . S
C185 C186 1.388 . S
C186 H173 0.930 . S
C186 C185 1.388 . S
C186 C187 1.390 . S
C187 C186 1.390 . S
C187 C188 1.394 . S
C187 C193 1.465 . S
C188 C183 1.399 . S
C188 C187 1.394 . S
C188 C189 1.516 . S
C189 C188 1.516 . S
C189 C190 1.502 . S
C189 C191 1.561 . S
C189 C192 1.526 . S
C190 H174 0.959 . S
C190 H175 0.959 . S
C190 H176 0.961 . S
C190 C189 1.502 . S
C191 H177 0.960 . S
C191 H178 0.961 . S
C191 H179 0.959 . S
C191 C189 1.561 . S
C192 C189 1.526 . S
C192 C193 1.396 . S
C192 C197 1.390 . S
C193 C187 1.465 . S
C193 C192 1.396 . S
C193 C194 1.399 . S
C194 H180 0.929 . S
C194 C193 1.399 . S
C194 C195 1.385 . S
C195 H181 0.931 . S
C195 C194 1.385 . S
C195 C196 1.389 . S
C196 C195 1.389 . S
C196 C197 1.387 . S
C197 H182 0.930 . S
C197 C192 1.390 . S
C197 C196 1.387 . S
H198 C210 0.930 . S
H199 C212 0.930 . S
H200 C213 0.930 . S
H201 C217 0.959 . S
H202 C217 0.959 . S
H203 C217 0.961 . S
H204 C218 0.960 . S
H205 C218 0.961 . S
H206 C218 0.959 1_565 S
H207 C221 0.929 . S
H208 C222 0.931 . S
H209 C224 0.930 . S
C210 H198 0.930 . S
C210 C211 1.399 . S
C210 C215 1.399 . S
C211 C210 1.399 . S
C211 C212 1.376 . S
C212 H199 0.930 . S
C212 C211 1.376 . S
C212 C213 1.388 1_545 S
C213 H200 0.930 . S
C213 C212 1.388 1_565 S
C213 C214 1.390 . S
C214 C213 1.390 . S
C214 C215 1.394 1_565 S
C214 C220 1.465 . S
C215 C210 1.399 . S
C215 C214 1.394 1_545 S
C215 C216 1.516 . S
C216 C215 1.516 . S
C216 C217 1.502 . S
C216 C218 1.561 . S
C216 C219 1.526 1_545 S
C217 H201 0.959 . S
C217 H202 0.959 . S
C217 H203 0.961 . S
C217 C216 1.502 . S
C218 H204 0.960 . S
C218 H205 0.961 . S
C218 H206 0.959 1_545 S
C218 C216 1.561 . S
C219 C216 1.526 1_565 S
C219 C220 1.396 . S
C219 C224 1.390 . S
C220 C214 1.465 . S
C220 C219 1.396 . S
C220 C221 1.399 . S
C221 H207 0.929 . S
C221 C220 1.399 . S
C221 C222 1.385 . S
C222 H208 0.931 . S
C222 C221 1.385 . S
C222 C223 1.389 . S
C223 C222 1.389 . S
C223 C224 1.387 . S
C224 H209 0.930 . S
C224 C219 1.390 . S
C224 C223 1.387 . S
H225 C237 0.930 . S
H226 C239 0.930 . S
H227 C240 0.930 . S
H228 C244 0.959 . S
H229 C244 0.959 . S
H230 C244 0.961 . S
H231 C245 0.960 . S
H232 C245 0.961 . S
H233 C245 0.959 . S
H234 C248 0.929 . S
H235 C249 0.931 . S
H236 C251 0.930 . S
C237 H225 0.930 . S
C237 C238 1.399 . S
C237 C242 1.399 . S
C238 C237 1.399 . S
C238 C239 1.376 . S
C239 H226 0.930 . S
C239 C238 1.376 . S
C239 C240 1.388 . S
C240 H227 0.930 . S
C240 C239 1.388 . S
C240 C241 1.390 . S
C241 C240 1.390 . S
C241 C242 1.394 . S
C241 C247 1.465 . S
C242 C237 1.399 . S
C242 C241 1.394 . S
C242 C243 1.516 . S
C243 C242 1.516 . S
C243 C244 1.502 . S
C243 C245 1.561 . S
C243 C246 1.526 . S
C244 H228 0.959 . S
C244 H229 0.959 . S
C244 H230 0.961 . S
C244 C243 1.502 . S
C245 H231 0.960 . S
C245 H232 0.961 . S
C245 H233 0.959 . S
C245 C243 1.561 . S
C246 C243 1.526 . S
C246 C247 1.396 . S
C246 C251 1.390 . S
C247 C241 1.465 . S
C247 C246 1.396 . S
C247 C248 1.399 . S
C248 H234 0.929 . S
C248 C247 1.399 . S
C248 C249 1.385 . S
C249 H235 0.931 . S
C249 C248 1.385 . S
C249 C250 1.389 . S
C250 C249 1.389 . S
C250 C251 1.387 . S
C251 H236 0.930 . S
C251 C246 1.390 . S
C251 C250 1.387 . S
H252 C264 0.930 . S
H253 C266 0.930 1_556 S
H254 C267 0.930 . S
H255 C271 0.959 . S
H256 C271 0.959 . S
H257 C271 0.961 . S
H258 C272 0.960 . S
H259 C272 0.961 1_565 S
H260 C272 0.959 . S
H261 C275 0.929 1_455 S
H262 C276 0.931 . S
H263 C278 0.930 1_554 S
C264 H252 0.930 . S
C264 C265 1.399 . S
C264 C269 1.399 . S
C265 C264 1.399 . S
C265 C266 1.376 . S
C266 H253 0.930 1_554 S
C266 C265 1.376 . S
C266 C267 1.388 1_554 S
C267 H254 0.930 . S
C267 C266 1.388 1_556 S
C267 C268 1.390 . S
C268 C267 1.390 . S
C268 C269 1.394 1_556 S
C268 C274 1.465 1_445 S
C269 C264 1.399 . S
C269 C268 1.394 1_554 S
C269 C270 1.516 1_445 S
C270 C269 1.516 1_665 S
C270 C271 1.502 . S
C270 C272 1.561 1_565 S
C270 C273 1.526 1_554 S
C271 H255 0.959 . S
C271 H256 0.959 . S
C271 H257 0.961 . S
C271 C270 1.502 . S
C272 H258 0.960 . S
C272 H259 0.961 1_545 S
C272 H260 0.959 . S
C272 C270 1.561 1_545 S
C273 C270 1.526 1_556 S
C273 C274 1.396 . S
C273 C278 1.390 . S
C274 C268 1.465 1_665 S
C274 C273 1.396 . S
C274 C275 1.399 . S
C275 H261 0.929 1_655 S
C275 C274 1.399 . S
C275 C276 1.385 . S
C276 H262 0.931 . S
C276 C275 1.385 . S
C276 C277 1.389 . S
C277 C276 1.389 . S
C277 C278 1.387 . S
C278 H263 0.930 1_556 S
C278 C273 1.390 . S
C278 C277 1.387 . S
H279 C291 0.930 1_554 S
H280 C293 0.930 . S
H281 C294 0.930 1_565 S
H282 C298 0.959 . S
H283 C298 0.959 . S
H284 C298 0.961 . S
H285 C299 0.960 . S
H286 C299 0.961 . S
H287 C299 0.959 . S
H288 C302 0.929 . S
H289 C303 0.931 1_556 S
H290 C305 0.930 . S
C291 H279 0.930 1_556 S
C291 C292 1.399 . S
C291 C296 1.399 . S
C292 C291 1.399 . S
C292 C293 1.376 . S
C293 H280 0.930 . S
C293 C292 1.376 . S
C293 C294 1.388 . S
C294 H281 0.930 1_545 S
C294 C293 1.388 . S
C294 C295 1.390 . S
C295 C294 1.390 . S
C295 C296 1.394 . S
C295 C301 1.465 1_545 S
C296 C291 1.399 . S
C296 C295 1.394 . S
C296 C297 1.516 1_556 S
C297 C296 1.516 1_554 S
C297 C298 1.502 . S
C297 C299 1.561 . S
C297 C300 1.526 1_545 S
C298 H282 0.959 . S
C298 H283 0.959 . S
C298 H284 0.961 . S
C298 C297 1.502 . S
C299 H285 0.960 . S
C299 H286 0.961 . S
C299 H287 0.959 . S
C299 C297 1.561 . S
C300 C297 1.526 1_565 S
C300 C301 1.396 1_554 S
C300 C305 1.390 . S
C301 C295 1.465 1_565 S
C301 C300 1.396 1_556 S
C301 C302 1.399 . S
C302 H288 0.929 . S
C302 C301 1.399 . S
C302 C303 1.385 1_556 S
C303 H289 0.931 1_554 S
C303 C302 1.385 1_554 S
C303 C304 1.389 . S
C304 C303 1.389 . S
C304 C305 1.387 . S
C305 H290 0.930 . S
C305 C300 1.390 . S
C305 C304 1.387 . S
H306 C318 0.930 . S
H307 C320 0.930 . S
H308 C321 0.922 1_455 S
H309 C325 0.959 . S
H310 C325 0.959 . S
H311 C325 0.961 . S
H312 C326 0.960 . S
H313 C326 0.961 . S
H314 C326 0.959 . S
H315 C329 0.929 . S
H316 C330 0.931 . S
H317 C332 0.930 . S
C318 H306 0.930 . S
C318 C319 1.399 . S
C318 C323 1.399 . S
C319 C318 1.399 . S
C319 C320 1.376 . S
C320 H307 0.930 . S
C320 C319 1.376 . S
C320 C321 1.388 . S
C321 H308 0.922 1_655 S
C321 C320 1.388 . S
C321 C322 1.390 . S
C322 C321 1.390 . S
C322 C323 1.394 . S
C322 C328 1.465 1_655 S
C323 C318 1.399 . S
C323 C322 1.394 . S
C323 C324 1.516 . S
C324 C323 1.516 . S
C324 C325 1.502 . S
C324 C326 1.561 1_655 S
C324 C327 1.526 1_655 S
C325 H309 0.959 . S
C325 H310 0.959 . S
C325 H311 0.961 . S
C325 C324 1.502 . S
C326 H312 0.960 . S
C326 H313 0.961 . S
C326 H314 0.959 . S
C326 C324 1.561 1_455 S
C327 C324 1.526 1_455 S
C327 C328 1.396 . S
C327 C332 1.390 . S
C328 C322 1.465 1_455 S
C328 C327 1.396 . S
C328 C329 1.399 . S
C329 H315 0.929 . S
C329 C328 1.399 . S
C329 C330 1.385 . S
C330 H316 0.931 . S
C330 C329 1.385 . S
C330 C331 1.389 . S
C331 C330 1.389 . S
C331 C332 1.387 . S
C332 H317 0.930 . S
C332 C327 1.390 . S
C332 C331 1.387 . S
H333 C345 0.930 . S
H334 C347 0.930 . S
H335 C348 0.930 . S
H336 C352 0.959 . S
H337 C352 0.959 . S
H338 C352 0.961 . S
H339 C353 0.960 . S
H340 C353 0.961 . S
H341 C353 0.959 . S
H342 C356 0.929 . S
H343 C357 0.931 . S
H344 C359 0.930 . S
C345 H333 0.930 . S
C345 C346 1.399 . S
C345 C350 1.399 . S
C346 C345 1.399 . S
C346 C347 1.376 . S
C347 H334 0.930 . S
C347 C346 1.376 . S
C347 C348 1.388 . S
C348 H335 0.930 . S
C348 C347 1.388 . S
C348 C349 1.390 . S
C349 C348 1.390 . S
C349 C350 1.394 . S
C349 C355 1.465 . S
C350 C345 1.399 . S
C350 C349 1.394 . S
C350 C351 1.516 . S
C351 C350 1.516 . S
C351 C352 1.502 . S
C351 C353 1.561 . S
C351 C354 1.526 . S
C352 H336 0.959 . S
C352 H337 0.959 . S
C352 H338 0.961 . S
C352 C351 1.502 . S
C353 H339 0.960 . S
C353 H340 0.961 . S
C353 H341 0.959 . S
C353 C351 1.561 . S
C354 C351 1.526 . S
C354 C355 1.396 . S
C354 C359 1.390 . S
C355 C349 1.465 . S
C355 C354 1.396 . S
C355 C356 1.399 . S
C356 H342 0.929 . S
C356 C355 1.399 . S
C356 C357 1.385 . S
C357 H343 0.931 . S
C357 C356 1.385 . S
C357 C358 1.389 . S
C358 C357 1.389 . S
C358 C359 1.387 . S
C359 H344 0.930 . S
C359 C354 1.390 . S
C359 C358 1.387 . S
C157 C40 1.008 . S
C169 C4 0.935 . S
C184 C2 0.919 . S
C196 C38 0.961 . S
C211 C112 1.051 . S
C223 C76 0.994 . S
C238 C74 0.849 . S
C250 C110 0.886 . S
C265 C14 1.487 . S
C277 C86 1.490 . S
C292 C122 1.492 . S
C304 C50 1.485 . S
C319 C75 1.557 . S
C331 C3 1.586 . S
C346 C39 1.560 . S
C358 C111 1.584 . S
