# Generated by pormake.
# Topology wiq, (6)-cn, num edge types: 1
# Building blocks:
#     Node 0, Type 0, BuildingBlock: MAKGUD_clean_sbu_1, # of connection points: 6
#     Node 1, Type 0, BuildingBlock: MAKGUD_clean_sbu_1, # of connection points: 6
#     Node 2, Type 0, BuildingBlock: MAKGUD_clean_sbu_1, # of connection points: 6
#     Node 3, Type 0, BuildingBlock: MAKGUD_clean_sbu_1, # of connection points: 6
#     Node 4, Type 0, BuildingBlock: MAKGUD_clean_sbu_1, # of connection points: 6
#     Node 5, Type 0, BuildingBlock: MAKGUD_clean_sbu_1, # of connection points: 6
#     Node 6, Type 0, BuildingBlock: MAKGUD_clean_sbu_1, # of connection points: 6
#     Node 7, Type 0, BuildingBlock: MAKGUD_clean_sbu_1, # of connection points: 6
#     Node 8, Type 0, BuildingBlock: MAKGUD_clean_sbu_1, # of connection points: 6
#     Node 9, Type 0, BuildingBlock: MAKGUD_clean_sbu_1, # of connection points: 6
#     Node 10, Type 0, BuildingBlock: MAKGUD_clean_sbu_1, # of connection points: 6
#     Node 11, Type 0, BuildingBlock: MAKGUD_clean_sbu_1, # of connection points: 6
#     Node 12, Type 0, BuildingBlock: MAKGUD_clean_sbu_1, # of connection points: 6
#     Node 13, Type 0, BuildingBlock: MAKGUD_clean_sbu_1, # of connection points: 6
#     Node 14, Type 0, BuildingBlock: MAKGUD_clean_sbu_1, # of connection points: 6
#     Node 15, Type 0, BuildingBlock: MAKGUD_clean_sbu_1, # of connection points: 6
#     Node 16, Type 0, BuildingBlock: MAKGUD_clean_sbu_1, # of connection points: 6
#     Node 17, Type 0, BuildingBlock: MAKGUD_clean_sbu_1, # of connection points: 6
#     Node 18, Type 0, BuildingBlock: MAKGUD_clean_sbu_1, # of connection points: 6
#     Node 19, Type 0, BuildingBlock: MAKGUD_clean_sbu_1, # of connection points: 6
#     Node 20, Type 0, BuildingBlock: MAKGUD_clean_sbu_1, # of connection points: 6
#     Node 21, Type 0, BuildingBlock: MAKGUD_clean_sbu_1, # of connection points: 6
#     Node 22, Type 0, BuildingBlock: MAKGUD_clean_sbu_1, # of connection points: 6
#     Node 23, Type 0, BuildingBlock: MAKGUD_clean_sbu_1, # of connection points: 6
#     Node 24, Type 0, BuildingBlock: MAKGUD_clean_sbu_1, # of connection points: 6
#     Node 25, Type 0, BuildingBlock: MAKGUD_clean_sbu_1, # of connection points: 6
#     Node 26, Type 0, BuildingBlock: MAKGUD_clean_sbu_1, # of connection points: 6
#     Node 27, Type 0, BuildingBlock: MAKGUD_clean_sbu_1, # of connection points: 6
#     Node 28, Type 0, BuildingBlock: MAKGUD_clean_sbu_1, # of connection points: 6
#     Node 29, Type 0, BuildingBlock: MAKGUD_clean_sbu_1, # of connection points: 6
#     Node 30, Type 0, BuildingBlock: MAKGUD_clean_sbu_1, # of connection points: 6
#     Node 31, Type 0, BuildingBlock: MAKGUD_clean_sbu_1, # of connection points: 6
#     Edge 32, Type (0, 0), BuildingBlock: TEMPAE_clean_linker_10, # of connection points: 2
#     Edge 33, Type (0, 0), BuildingBlock: TEMPAE_clean_linker_10, # of connection points: 2
#     Edge 34, Type (0, 0), BuildingBlock: TEMPAE_clean_linker_10, # of connection points: 2
#     Edge 35, Type (0, 0), BuildingBlock: TEMPAE_clean_linker_10, # of connection points: 2
#     Edge 36, Type (0, 0), BuildingBlock: TEMPAE_clean_linker_10, # of connection points: 2
#     Edge 37, Type (0, 0), BuildingBlock: TEMPAE_clean_linker_10, # of connection points: 2
#     Edge 38, Type (0, 0), BuildingBlock: TEMPAE_clean_linker_10, # of connection points: 2
#     Edge 39, Type (0, 0), BuildingBlock: TEMPAE_clean_linker_10, # of connection points: 2
#     Edge 40, Type (0, 0), BuildingBlock: TEMPAE_clean_linker_10, # of connection points: 2
#     Edge 41, Type (0, 0), BuildingBlock: TEMPAE_clean_linker_10, # of connection points: 2
#     Edge 42, Type (0, 0), BuildingBlock: TEMPAE_clean_linker_10, # of connection points: 2
#     Edge 43, Type (0, 0), BuildingBlock: TEMPAE_clean_linker_10, # of connection points: 2
#     Edge 44, Type (0, 0), BuildingBlock: TEMPAE_clean_linker_10, # of connection points: 2
#     Edge 45, Type (0, 0), BuildingBlock: TEMPAE_clean_linker_10, # of connection points: 2
#     Edge 46, Type (0, 0), BuildingBlock: TEMPAE_clean_linker_10, # of connection points: 2
#     Edge 47, Type (0, 0), BuildingBlock: TEMPAE_clean_linker_10, # of connection points: 2
#     Edge 48, Type (0, 0), BuildingBlock: TEMPAE_clean_linker_10, # of connection points: 2
#     Edge 49, Type (0, 0), BuildingBlock: TEMPAE_clean_linker_10, # of connection points: 2
#     Edge 50, Type (0, 0), BuildingBlock: TEMPAE_clean_linker_10, # of connection points: 2
#     Edge 51, Type (0, 0), BuildingBlock: TEMPAE_clean_linker_10, # of connection points: 2
#     Edge 52, Type (0, 0), BuildingBlock: TEMPAE_clean_linker_10, # of connection points: 2
#     Edge 53, Type (0, 0), BuildingBlock: TEMPAE_clean_linker_10, # of connection points: 2
#     Edge 54, Type (0, 0), BuildingBlock: TEMPAE_clean_linker_10, # of connection points: 2
#     Edge 55, Type (0, 0), BuildingBlock: TEMPAE_clean_linker_10, # of connection points: 2
#     Edge 56, Type (0, 0), BuildingBlock: TEMPAE_clean_linker_10, # of connection points: 2
#     Edge 57, Type (0, 0), BuildingBlock: TEMPAE_clean_linker_10, # of connection points: 2
#     Edge 58, Type (0, 0), BuildingBlock: TEMPAE_clean_linker_10, # of connection points: 2
#     Edge 59, Type (0, 0), BuildingBlock: TEMPAE_clean_linker_10, # of connection points: 2
#     Edge 60, Type (0, 0), BuildingBlock: TEMPAE_clean_linker_10, # of connection points: 2
#     Edge 61, Type (0, 0), BuildingBlock: TEMPAE_clean_linker_10, # of connection points: 2
#     Edge 62, Type (0, 0), BuildingBlock: TEMPAE_clean_linker_10, # of connection points: 2
#     Edge 63, Type (0, 0), BuildingBlock: TEMPAE_clean_linker_10, # of connection points: 2
#     Edge 64, Type (0, 0), BuildingBlock: TEMPAE_clean_linker_10, # of connection points: 2
#     Edge 65, Type (0, 0), BuildingBlock: TEMPAE_clean_linker_10, # of connection points: 2
#     Edge 66, Type (0, 0), BuildingBlock: TEMPAE_clean_linker_10, # of connection points: 2
#     Edge 67, Type (0, 0), BuildingBlock: TEMPAE_clean_linker_10, # of connection points: 2
#     Edge 68, Type (0, 0), BuildingBlock: TEMPAE_clean_linker_10, # of connection points: 2
#     Edge 69, Type (0, 0), BuildingBlock: TEMPAE_clean_linker_10, # of connection points: 2
#     Edge 70, Type (0, 0), BuildingBlock: TEMPAE_clean_linker_10, # of connection points: 2
#     Edge 71, Type (0, 0), BuildingBlock: TEMPAE_clean_linker_10, # of connection points: 2
#     Edge 72, Type (0, 0), BuildingBlock: TEMPAE_clean_linker_10, # of connection points: 2
#     Edge 73, Type (0, 0), BuildingBlock: TEMPAE_clean_linker_10, # of connection points: 2
#     Edge 74, Type (0, 0), BuildingBlock: TEMPAE_clean_linker_10, # of connection points: 2
#     Edge 75, Type (0, 0), BuildingBlock: TEMPAE_clean_linker_10, # of connection points: 2
#     Edge 76, Type (0, 0), BuildingBlock: TEMPAE_clean_linker_10, # of connection points: 2
#     Edge 77, Type (0, 0), BuildingBlock: TEMPAE_clean_linker_10, # of connection points: 2
#     Edge 78, Type (0, 0), BuildingBlock: TEMPAE_clean_linker_10, # of connection points: 2
#     Edge 79, Type (0, 0), BuildingBlock: TEMPAE_clean_linker_10, # of connection points: 2
#     Edge 80, Type (0, 0), BuildingBlock: TEMPAE_clean_linker_10, # of connection points: 2
#     Edge 81, Type (0, 0), BuildingBlock: TEMPAE_clean_linker_10, # of connection points: 2
#     Edge 82, Type (0, 0), BuildingBlock: TEMPAE_clean_linker_10, # of connection points: 2
#     Edge 83, Type (0, 0), BuildingBlock: TEMPAE_clean_linker_10, # of connection points: 2
#     Edge 84, Type (0, 0), BuildingBlock: TEMPAE_clean_linker_10, # of connection points: 2
#     Edge 85, Type (0, 0), BuildingBlock: TEMPAE_clean_linker_10, # of connection points: 2
#     Edge 86, Type (0, 0), BuildingBlock: TEMPAE_clean_linker_10, # of connection points: 2
#     Edge 87, Type (0, 0), BuildingBlock: TEMPAE_clean_linker_10, # of connection points: 2
#     Edge 88, Type (0, 0), BuildingBlock: TEMPAE_clean_linker_10, # of connection points: 2
#     Edge 89, Type (0, 0), BuildingBlock: TEMPAE_clean_linker_10, # of connection points: 2
#     Edge 90, Type (0, 0), BuildingBlock: TEMPAE_clean_linker_10, # of connection points: 2
#     Edge 91, Type (0, 0), BuildingBlock: TEMPAE_clean_linker_10, # of connection points: 2
#     Edge 92, Type (0, 0), BuildingBlock: TEMPAE_clean_linker_10, # of connection points: 2
#     Edge 93, Type (0, 0), BuildingBlock: TEMPAE_clean_linker_10, # of connection points: 2
#     Edge 94, Type (0, 0), BuildingBlock: TEMPAE_clean_linker_10, # of connection points: 2
#     Edge 95, Type (0, 0), BuildingBlock: TEMPAE_clean_linker_10, # of connection points: 2
#     Edge 96, Type (0, 0), BuildingBlock: TEMPAE_clean_linker_10, # of connection points: 2
#     Edge 97, Type (0, 0), BuildingBlock: TEMPAE_clean_linker_10, # of connection points: 2
#     Edge 98, Type (0, 0), BuildingBlock: TEMPAE_clean_linker_10, # of connection points: 2
#     Edge 99, Type (0, 0), BuildingBlock: TEMPAE_clean_linker_10, # of connection points: 2
#     Edge 100, Type (0, 0), BuildingBlock: TEMPAE_clean_linker_10, # of connection points: 2
#     Edge 101, Type (0, 0), BuildingBlock: TEMPAE_clean_linker_10, # of connection points: 2
#     Edge 102, Type (0, 0), BuildingBlock: TEMPAE_clean_linker_10, # of connection points: 2
#     Edge 103, Type (0, 0), BuildingBlock: TEMPAE_clean_linker_10, # of connection points: 2
#     Edge 104, Type (0, 0), BuildingBlock: TEMPAE_clean_linker_10, # of connection points: 2
#     Edge 105, Type (0, 0), BuildingBlock: TEMPAE_clean_linker_10, # of connection points: 2
#     Edge 106, Type (0, 0), BuildingBlock: TEMPAE_clean_linker_10, # of connection points: 2
#     Edge 107, Type (0, 0), BuildingBlock: TEMPAE_clean_linker_10, # of connection points: 2
#     Edge 108, Type (0, 0), BuildingBlock: TEMPAE_clean_linker_10, # of connection points: 2
#     Edge 109, Type (0, 0), BuildingBlock: TEMPAE_clean_linker_10, # of connection points: 2
#     Edge 110, Type (0, 0), BuildingBlock: TEMPAE_clean_linker_10, # of connection points: 2
#     Edge 111, Type (0, 0), BuildingBlock: TEMPAE_clean_linker_10, # of connection points: 2
#     Edge 112, Type (0, 0), BuildingBlock: TEMPAE_clean_linker_10, # of connection points: 2
#     Edge 113, Type (0, 0), BuildingBlock: TEMPAE_clean_linker_10, # of connection points: 2
#     Edge 114, Type (0, 0), BuildingBlock: TEMPAE_clean_linker_10, # of connection points: 2
#     Edge 115, Type (0, 0), BuildingBlock: TEMPAE_clean_linker_10, # of connection points: 2
#     Edge 116, Type (0, 0), BuildingBlock: TEMPAE_clean_linker_10, # of connection points: 2
#     Edge 117, Type (0, 0), BuildingBlock: TEMPAE_clean_linker_10, # of connection points: 2
#     Edge 118, Type (0, 0), BuildingBlock: TEMPAE_clean_linker_10, # of connection points: 2
#     Edge 119, Type (0, 0), BuildingBlock: TEMPAE_clean_linker_10, # of connection points: 2
#     Edge 120, Type (0, 0), BuildingBlock: TEMPAE_clean_linker_10, # of connection points: 2
#     Edge 121, Type (0, 0), BuildingBlock: TEMPAE_clean_linker_10, # of connection points: 2
#     Edge 122, Type (0, 0), BuildingBlock: TEMPAE_clean_linker_10, # of connection points: 2
#     Edge 123, Type (0, 0), BuildingBlock: TEMPAE_clean_linker_10, # of connection points: 2
#     Edge 124, Type (0, 0), BuildingBlock: TEMPAE_clean_linker_10, # of connection points: 2
#     Edge 125, Type (0, 0), BuildingBlock: TEMPAE_clean_linker_10, # of connection points: 2
#     Edge 126, Type (0, 0), BuildingBlock: TEMPAE_clean_linker_10, # of connection points: 2
#     Edge 127, Type (0, 0), BuildingBlock: TEMPAE_clean_linker_10, # of connection points: 2
# Relax obj value: 0.262
# Max RMSD: 0.259
# Mean RMSD: 0.259
data_MOF--net-wiq--node1-MAKGUD_clean_sbu_1--edge1-TEMPAE_clean_linker_10
_symmetry_space_group_name_H-M    P1
_symmetry_Int_Tables_number       1
_symmetry_cell_setting            triclinic
loop_
_symmetry_equiv_pos_as_xyz
'x, y, z'
_cell_length_a     54.203567
_cell_length_b     54.202005
_cell_length_c     59.471808
_cell_angle_alpha  89.964322
_cell_angle_beta   90.044788
_cell_angle_gamma 90.041611
loop_
_atom_site_label
_atom_site_type_symbol
_atom_site_fract_x
_atom_site_fract_y
_atom_site_fract_z
_atom_type_partial_charge
O0 O 0.16691 0.24398 0.35751 0.0
Tb1 Tb 0.15014 0.21567 0.33556 0.0
C2 C 0.13506 0.16325 0.33949 0.0
O3 O 0.19347 0.18787 0.29487 0.0
Tb4 Tb 0.16174 0.1613 0.29323 0.0
C5 C 0.17354 0.11283 0.28911 0.0
O6 O 0.18019 0.22461 0.31289 0.0
O7 O 0.14841 0.17031 0.25916 0.0
C8 C 0.1635 0.16686 0.24195 0.0
O9 O 0.18656 0.16119 0.24643 0.0
O10 O 0.15315 0.17761 0.34585 0.0
O11 O 0.13121 0.1606 0.31771 0.0
O12 O 0.11789 0.22438 0.31525 0.0
C13 C 0.19634 0.21146 0.30127 0.0
C14 C 0.14854 0.24603 0.37148 0.0
O15 O 0.18292 0.12806 0.30387 0.0
O16 O 0.1583 0.12522 0.27665 0.0
C17 C 0.0961 0.21809 0.32314 0.0
O18 O 0.0952 0.20474 0.34153 0.0
O19 O 0.13141 0.23069 0.36536 0.0
O20 O 0.16373 0.92138 0.5611 0.0
Tb21 Tb 0.12753 0.91643 0.54446 0.0
C22 C 0.07606 0.94708 0.55402 0.0
O23 O 0.11051 0.90364 0.59597 0.0
Tb24 Tb 0.072 0.90128 0.5868 0.0
C25 C 0.0415 0.90129 0.62265 0.0
O26 O 0.12812 0.88384 0.56669 0.0
O27 O 0.06308 0.86814 0.56793 0.0
C28 C 0.06912 0.84656 0.57639 0.0
O29 O 0.08233 0.84596 0.59488 0.0
O30 O 0.10051 0.94698 0.55066 0.0
O31 O 0.0632 0.92759 0.56043 0.0
O32 O 0.12165 0.8994 0.51118 0.0
C33 C 0.12471 0.88584 0.58862 0.0
C34 C 0.17556 0.9309 0.54417 0.0
O35 O 0.05522 0.88307 0.61603 0.0
O36 O 0.04527 0.91995 0.60919 0.0
C37 C 0.11909 0.91376 0.49331 0.0
O38 O 0.11721 0.93766 0.49663 0.0
O39 O 0.15995 0.9333 0.52769 0.0
O40 O 0.37946 0.91085 0.77424 0.0
Tb41 Tb 0.3766 0.87431 0.79003 0.0
C42 C 0.33993 0.82577 0.80028 0.0
O43 O 0.38617 0.85843 0.84277 0.0
Tb44 Tb 0.38728 0.81971 0.8346 0.0
C45 C 0.38664 0.7898 0.87082 0.0
O46 O 0.40795 0.87375 0.81365 0.0
O47 O 0.42089 0.81163 0.81616 0.0
C48 C 0.44167 0.81396 0.82741 0.0
O49 O 0.44062 0.82223 0.84814 0.0
O50 O 0.34534 0.84719 0.79006 0.0
O51 O 0.35349 0.81447 0.81569 0.0
O52 O 0.38975 0.86663 0.75566 0.0
C53 C 0.405 0.87132 0.83557 0.0
C54 C 0.36453 0.92281 0.78732 0.0
O55 O 0.39647 0.81168 0.87003 0.0
O56 O 0.37679 0.78507 0.85137 0.0
C57 C 0.37441 0.87013 0.73861 0.0
O58 O 0.3513 0.87532 0.74333 0.0
O59 O 0.35562 0.90713 0.80195 0.0
O60 O 0.37199 0.1157 0.06218 0.0
Tb61 Tb 0.40801 0.11978 0.04523 0.0
C62 C 0.46058 0.09182 0.05315 0.0
O63 O 0.42667 0.13348 0.09572 0.0
Tb64 Tb 0.4647 0.13727 0.08549 0.0
C65 C 0.49591 0.13675 0.12075 0.0
O66 O 0.40718 0.15259 0.0671 0.0
O67 O 0.47261 0.17121 0.06751 0.0
C68 C 0.46664 0.19248 0.0766 0.0
O69 O 0.45377 0.19249 0.09528 0.0
O70 O 0.43594 0.0902 0.05228 0.0
O71 O 0.47214 0.11275 0.05739 0.0
O72 O 0.41321 0.1367 1.0118 0.0
C73 C 0.41168 0.15085 0.08887 0.0
C74 C 0.36012 0.10504 0.04586 0.0
O75 O 0.48069 0.15433 0.11556 0.0
O76 O 0.49335 0.11896 0.10612 0.0
C77 C 0.41528 0.12235 0.99389 0.0
O78 O 0.41706 0.09843 0.99716 0.0
O79 O 0.37567 0.10155 1.0295 0.0
O80 O 0.15734 0.91242 0.29629 0.0
Tb81 Tb 0.16107 0.87602 0.28046 0.0
C82 C 0.19796 0.82761 0.27062 0.0
O83 O 0.15244 0.86073 0.22704 0.0
Tb84 Tb 0.15103 0.82216 0.23598 0.0
C85 C 0.15067 0.79197 0.19991 0.0
O86 O 0.13035 0.87582 0.25605 0.0
O87 O 0.11894 0.81258 0.25598 0.0
C88 C 0.09724 0.81736 0.2471 0.0
O89 O 0.09653 0.82942 0.22796 0.0
O90 O 0.19246 0.84906 0.28072 0.0
O91 O 0.18454 0.81633 0.25511 0.0
O92 O 0.14775 0.86798 0.31475 0.0
C93 C 0.13389 0.87407 0.23413 0.0
C94 C 0.17284 0.92455 0.28388 0.0
O95 O 0.13719 0.8116 0.20241 0.0
O96 O 0.16472 0.78974 0.21751 0.0
C97 C 0.16299 0.87168 0.33185 0.0
O98 O 0.18601 0.87729 0.32716 0.0
O99 O 0.18248 0.90903 0.26951 0.0
O100 O 0.3747 0.9214 0.50987 0.0
Tb101 Tb 0.4109 0.91728 0.52657 0.0
C102 C 0.46356 0.94489 0.51882 0.0
O103 O 0.4296 0.90295 0.47586 0.0
Tb104 Tb 0.46749 0.89945 0.48669 0.0
C105 C 0.49942 0.8998 0.45199 0.0
O106 O 0.41002 0.8844 0.5048 0.0
O107 O 0.47479 0.86548 0.50488 0.0
C108 C 0.46859 0.84426 0.4958 0.0
O109 O 0.45597 0.84436 0.47696 0.0
O110 O 0.43895 0.94675 0.51954 0.0
O111 O 0.47483 0.92374 0.51498 0.0
O112 O 0.41646 0.90026 0.55988 0.0
C113 C 0.41433 0.88594 0.48299 0.0
C114 C 0.36298 0.93195 0.52633 0.0
O115 O 0.48515 0.88166 0.45781 0.0
O116 O 0.49554 0.91823 0.46569 0.0
C117 C 0.41862 0.91456 0.5778 0.0
O118 O 0.42026 0.9385 0.5746 0.0
O119 O 0.3787 0.93539 0.54258 0.0
O120 O 0.37854 0.1234 0.79724 0.0
Tb121 Tb 0.37528 0.1597 0.781 0.0
C122 C 0.34502 0.21144 0.7752 0.0
O123 O 0.38708 0.17932 0.72975 0.0
Tb124 Tb 0.38959 0.21697 0.74147 0.0
C125 C 0.38873 0.2492 0.70692 0.0
O126 O 0.4069 0.15939 0.75776 0.0
O127 O 0.42344 0.22473 0.75976 0.0
C128 C 0.44476 0.21907 0.75061 0.0
O129 O 0.44483 0.20676 0.73163 0.0
O130 O 0.34438 0.18675 0.77643 0.0
O131 O 0.36504 0.22399 0.76971 0.0
O132 O 0.38678 0.16901 0.81556 0.0
C133 C 0.4047 0.16435 0.73614 0.0
C134 C 0.36343 0.11115 0.78453 0.0
O135 O 0.40733 0.23574 0.71309 0.0
O136 O 0.37018 0.24441 0.72024 0.0
C137 C 0.37138 0.16456 0.83236 0.0
O138 O 0.34878 0.15773 0.82728 0.0
O139 O 0.35418 0.12658 0.76986 0.0
O140 O 0.0429 0.11812 0.9653 0.0
Tb141 Tb 0.0695 0.13692 0.98779 0.0
C142 C 0.12218 0.15246 0.98633 0.0
O143 O 0.09749 0.09097 1.02402 0.0
Tb144 Tb 0.1248 0.12132 1.03006 0.0
C145 C 0.17264 0.10648 1.0298 0.0
O146 O 0.06035 0.11051 1.01399 0.0
O147 O 0.11941 0.13829 0.0634 0.0
C148 C 0.11716 0.12395 0.0813 0.0
O149 O 0.11527 0.10004 0.07805 0.0
O150 O 0.10803 0.13469 0.97877 0.0
O151 O 0.1255 0.15423 1.00827 0.0
O152 O 0.06036 0.17015 1.00643 0.0
C153 C 0.07306 0.09099 1.02056 0.0
C154 C 0.0394 0.13665 0.95166 0.0
O155 O 0.15734 0.1044 0.04653 0.0
O156 O 0.16059 0.1159 1.01294 0.0
C157 C 0.06644 0.19169 0.99788 0.0
O158 O 0.07974 0.19217 0.97947 0.0
O159 O 0.05313 0.15489 0.95825 0.0
O160 O 0.8683 0.91302 0.76228 0.0
Tb161 Tb 0.87236 0.87702 0.77944 0.0
C162 C 0.84163 0.82561 0.76951 0.0
O163 O 0.88579 0.85967 0.7282 0.0
Tb164 Tb 0.8874 0.82095 0.73681 0.0
C165 C 0.88606 0.79099 0.7006 0.0
O166 O 0.90538 0.877 0.7578 0.0
O167 O 0.92074 0.81083 0.75491 0.0
C168 C 0.94225 0.81653 0.74613 0.0
O169 O 0.94273 0.83012 0.72787 0.0
O170 O 0.84178 0.85005 0.77296 0.0
O171 O 0.86124 0.81273 0.76349 0.0
O172 O 0.88889 0.87165 0.81302 0.0
C173 C 0.90377 0.87348 0.73586 0.0
C174 C 0.85831 0.92515 0.77879 0.0
O175 O 0.90427 0.80512 0.70653 0.0
O176 O 0.8681 0.79409 0.71493 0.0
C177 C 0.87433 0.86956 0.83079 0.0
O178 O 0.85045 0.86784 0.82729 0.0
O179 O 0.85519 0.90978 0.79535 0.0
O180 O 0.87876 0.10531 0.51933 0.0
Tb181 Tb 0.91202 0.12611 0.53057 0.0
C182 C 0.96395 0.09598 0.52682 0.0
O183 O 0.93273 0.1373 0.48002 0.0
Tb184 Tb 0.96979 0.13991 0.49273 0.0
C185 C 1.00293 0.14048 0.45902 0.0
O186 O 0.91191 0.15754 0.50712 0.0
O187 O 0.97407 0.17487 0.50993 0.0
C188 C 0.99451 0.17959 0.52102 0.0
O189 O 1.01055 0.16171 0.52395 0.0
O190 O 0.93924 0.09525 0.52689 0.0
O191 O 0.9767 0.11591 0.5214 0.0
O192 O 0.92148 0.13838 0.5648 0.0
C193 C 0.91809 0.15538 0.48578 0.0
C194 C 0.86353 0.11419 0.53431 0.0
O195 O 0.99086 0.15934 0.46674 0.0
O196 O 0.9964 0.12095 0.47045 0.0
C197 C 0.91781 0.12304 0.58179 0.0
O198 O 0.91166 0.10017 0.57703 0.0
O199 O 0.87594 0.12895 0.54722 0.0
O200 O 0.66944 0.12296 0.26052 0.0
Tb201 Tb 0.66579 0.15914 0.27736 0.0
C202 C 0.69321 0.21193 0.26949 0.0
O203 O 0.65158 0.17806 0.22695 0.0
Tb204 Tb 0.64864 0.2162 0.23665 0.0
C205 C 0.64946 0.24777 0.2017 0.0
O206 O 0.63259 0.15891 0.25587 0.0
O207 O 0.61364 0.22286 0.25302 0.0
C208 C 0.61002 0.24364 0.26389 0.0
O209 O 0.62879 0.25864 0.26693 0.0
O210 O 0.69517 0.18731 0.27029 0.0
O211 O 0.67195 0.22304 0.26575 0.0
O212 O 0.64929 0.16461 0.31089 0.0
C213 C 0.6337 0.16387 0.23413 0.0
C214 C 0.68029 0.11113 0.27678 0.0
O215 O 0.6311 0.23375 0.20758 0.0
O216 O 0.66782 0.24379 0.2155 0.0
C217 C 0.66387 0.16683 0.32864 0.0
O218 O 0.68776 0.16842 0.32514 0.0
O219 O 0.6841 0.12679 0.293 0.0
O220 O 0.66049 0.90707 0.047 0.0
Tb221 Tb 0.62429 0.91025 1.03061 0.0
C222 C 0.57375 0.94421 1.0228 0.0
O223 O 0.60901 0.90183 0.97762 0.0
Tb224 Tb 0.57081 0.899 0.98751 0.0
C225 C 0.54064 0.8974 0.95141 0.0
O226 O 0.62515 0.87974 1.00609 0.0
O227 O 0.5622 0.86669 1.00775 0.0
C228 C 0.5686 0.84491 0.99997 0.0
O229 O 0.58192 0.84397 0.98158 0.0
O230 O 0.59737 0.94167 1.02922 0.0
O231 O 0.56095 0.92802 1.01088 0.0
O232 O 0.61571 0.89694 0.06479 0.0
C233 C 0.6232 0.88374 0.98426 0.0
C234 C 0.67266 0.92248 1.03453 0.0
O235 O 0.55457 0.8796 0.95859 0.0
O236 O 0.54396 0.91643 0.96444 0.0
C237 C 0.61918 0.91215 0.08192 0.0
O238 O 0.62461 0.93524 0.07731 0.0
O239 O 0.65726 0.9318 1.01988 0.0
O240 O 0.86757 0.12503 0.8105 0.0
Tb241 Tb 0.87208 0.16098 0.79339 0.0
C242 C 0.84225 0.21283 0.80237 0.0
O243 O 0.88561 0.17923 0.84426 0.0
Tb244 Tb 0.88823 0.21759 0.83462 0.0
C245 C 0.88668 0.24821 0.87028 0.0
O246 O 0.90495 0.16073 0.8152 0.0
O247 O 0.92214 0.22664 0.81691 0.0
C248 C 0.94337 0.22077 0.8262 0.0
O249 O 0.94318 0.20766 0.84476 0.0
O250 O 0.84182 0.1883 0.79961 0.0
O251 O 0.86236 0.22539 0.80756 0.0
O252 O 0.88911 0.16652 0.76016 0.0
C253 C 0.90325 0.16476 0.83704 0.0
C254 C 0.85786 0.11291 0.79383 0.0
O255 O 0.90469 0.23355 0.86503 0.0
O256 O 0.86907 0.24534 0.85555 0.0
C257 C 0.87481 0.16878 0.74225 0.0
O258 O 0.85088 0.17056 0.74544 0.0
O259 O 0.85507 0.12828 0.77721 0.0
O260 O 0.66315 0.13124 0.52623 0.0
Tb261 Tb 0.62669 0.12742 0.54196 0.0
C262 C 0.57716 0.09185 0.55086 0.0
O263 O 0.61068 0.13608 0.59506 0.0
Tb264 Tb 0.57218 0.13826 0.58597 0.0
C265 C 0.54191 0.13808 0.62205 0.0
O266 O 0.62662 0.15808 0.56633 0.0
O267 O 0.56262 0.17074 0.56644 0.0
C268 C 0.56791 0.19234 0.57527 0.0
O269 O 0.58064 0.19284 0.59405 0.0
O270 O 0.5997 0.09607 0.54232 0.0
O271 O 0.56507 0.10631 0.56503 0.0
O272 O 0.61849 0.14037 0.50758 0.0
C273 C 0.62443 0.15447 0.5882 0.0
C274 C 0.67519 0.1156 0.53857 0.0
O275 O 0.56025 0.1531 0.61876 0.0
O276 O 0.54106 0.12277 0.60524 0.0
C277 C 0.62201 0.12492 0.49064 0.0
O278 O 0.62752 0.10193 0.49555 0.0
O279 O 0.6596 0.10586 0.55283 0.0
O280 O 0.67152 0.91138 0.31062 0.0
Tb281 Tb 0.66668 0.87526 0.29385 0.0
C282 C 0.69726 0.82363 0.30342 0.0
O283 O 0.65393 0.85779 0.34524 0.0
Tb284 Tb 0.65142 0.81922 0.33631 0.0
C285 C 0.65203 0.78899 0.37241 0.0
O286 O 0.63412 0.87564 0.31602 0.0
O287 O 0.6179 0.8098 0.31814 0.0
C288 C 0.59649 0.81584 0.32694 0.0
O289 O 0.59627 0.82947 0.34515 0.0
O290 O 0.69716 0.84808 0.29997 0.0
O291 O 0.67776 0.81075 0.30985 0.0
O292 O 0.64942 0.8695 0.26066 0.0
C293 C 0.63612 0.87202 0.33792 0.0
C294 C 0.68087 0.92341 0.29371 0.0
O295 O 0.67004 0.79175 0.35806 0.0
O296 O 0.63419 0.80361 0.36656 0.0
C297 C 0.66362 0.86729 0.24267 0.0
O298 O 0.68757 0.86567 0.24578 0.0
O299 O 0.68331 0.90789 0.27718 0.0
O300 O 0.87316 0.90751 1.02748 0.0
Tb301 Tb 0.90935 0.91135 0.04381 0.0
C302 C 0.96078 0.94234 0.04867 0.0
O303 O 0.92833 0.90116 0.09586 0.0
Tb304 Tb 0.96564 0.89829 0.08327 0.0
C305 C 0.99867 0.89791 0.11728 0.0
O306 O 0.90884 0.88058 0.06803 0.0
O307 O 0.97158 0.86432 0.06467 0.0
C308 C 0.9655 0.84315 0.07397 0.0
O309 O 0.95376 0.84344 0.09326 0.0
O310 O 0.9361 0.94261 0.04759 0.0
O311 O 0.97369 0.92299 0.05534 0.0
O312 O 0.91889 0.89917 1.0095 0.0
C313 C 0.91293 0.8838 0.0897 0.0
C314 C 0.86087 0.92305 0.03967 0.0
O315 O 0.98605 0.87921 0.11 0.0
O316 O 0.99265 0.91723 0.10535 0.0
C317 C 0.91466 0.91437 0.99248 0.0
O318 O 0.9079 0.93705 0.99726 0.0
O319 O 0.8762 0.93278 0.05416 0.0
O320 O 0.66679 0.74572 0.85319 0.0
Tb321 Tb 0.64785 0.71978 0.83019 0.0
C322 C 0.63172 0.6682 0.83677 0.0
O323 O 0.69226 0.68949 0.79571 0.0
Tb324 Tb 0.66122 0.66237 0.79205 0.0
C325 C 0.67329 0.61392 0.78852 0.0
O326 O 0.67217 0.72714 0.80186 0.0
O327 O 0.64905 0.67149 0.75767 0.0
C328 C 0.66437 0.66757 0.74073 0.0
O329 O 0.68723 0.66146 0.74556 0.0
O330 O 0.64991 0.68263 0.84276 0.0
O331 O 0.62964 0.66226 0.81535 0.0
O332 O 0.61304 0.72419 0.81275 0.0
C333 C 0.69182 0.71421 0.79604 0.0
C334 C 0.64709 0.75262 0.86415 0.0
O335 O 0.6584 0.62618 0.7756 0.0
O336 O 0.68216 0.62927 0.80342 0.0
C337 C 0.60836 0.74478 0.80188 0.0
O338 O 0.62623 0.76093 0.79931 0.0
O339 O 0.62817 0.7411 0.85582 0.0
O340 O 0.66348 0.42043 0.06052 0.0
Tb341 Tb 0.62741 0.41623 0.0436 0.0
C342 C 0.5748 0.4436 0.05141 0.0
O343 O 0.60784 0.40162 0.09415 0.0
Tb344 Tb 0.56998 0.3983 0.08312 0.0
C345 C 0.53767 0.39974 0.11743 0.0
O346 O 0.62803 0.38327 0.06543 0.0
O347 O 0.56221 0.36408 0.06557 0.0
C348 C 0.56816 0.343 0.07504 0.0
O349 O 0.58087 0.34338 0.09383 0.0
O350 O 0.59939 0.44568 0.05059 0.0
O351 O 0.56393 0.42208 0.05423 0.0
O352 O 0.62236 0.39935 1.01014 0.0
C353 C 0.62312 0.38455 0.08717 0.0
C354 C 0.67521 0.43127 0.0442 0.0
O355 O 0.54137 0.41758 0.10302 0.0
O356 O 0.55238 0.38164 0.11256 0.0
C357 C 0.6203 0.41372 0.99222 0.0
O358 O 0.61839 0.43762 0.99548 0.0
O359 O 0.65957 0.43473 1.02789 0.0
O360 O 0.87957 0.41086 0.27347 0.0
Tb361 Tb 0.87692 0.37452 0.28967 0.0
C362 C 0.84097 0.32531 0.29918 0.0
O363 O 0.88726 0.35675 0.34184 0.0
Tb364 Tb 0.88957 0.31858 0.33176 0.0
C365 C 0.89077 0.28768 0.36728 0.0
O366 O 0.90814 0.37465 0.3134 0.0
O367 O 0.92288 0.31162 0.31248 0.0
C368 C 0.94397 0.31564 0.3228 0.0
O369 O 0.94336 0.32542 0.34297 0.0
O370 O 0.84564 0.34745 0.28997 0.0
O371 O 0.85539 0.31324 0.31342 0.0
O372 O 0.8902 0.3664 0.2555 0.0
C373 C 0.90533 0.37099 0.33518 0.0
C374 C 0.86473 0.42295 0.28653 0.0
O375 O 0.89962 0.30997 0.36684 0.0
O376 O 0.88088 0.28302 0.34783 0.0
C377 C 0.8748 0.36943 0.23844 0.0
O378 O 0.85163 0.37434 0.24312 0.0
O379 O 0.85593 0.40742 0.30135 0.0
O380 O 0.87326 0.61699 0.56096 0.0
Tb381 Tb 0.90914 0.62154 0.54384 0.0
C382 C 0.96178 0.59441 0.55143 0.0
O383 O 0.92913 0.63697 0.59401 0.0
Tb384 Tb 0.96683 0.64008 0.58251 0.0
C385 C 0.99936 0.63787 0.61663 0.0
O386 O 0.9085 0.6548 0.56523 0.0
O387 O 0.97458 0.67449 0.56519 0.0
C388 C 0.9687 0.69545 0.57489 0.0
O389 O 0.95623 0.6948 0.59379 0.0
O390 O 0.93721 0.59217 0.55086 0.0
O391 O 0.97245 0.61611 0.55371 0.0
O392 O 0.91437 0.63822 0.51037 0.0
C393 C 0.9137 0.65387 0.58692 0.0
C394 C 0.86138 0.60645 0.54456 0.0
O395 O 0.98468 0.65612 0.61212 0.0
O396 O 0.99555 0.62037 0.60194 0.0
C397 C 0.9167 0.62376 0.49258 0.0
O398 O 0.91864 0.59988 0.49599 0.0
O399 O 0.87685 0.60334 0.52808 0.0
O400 O 0.65914 0.4132 0.7962 0.0
Tb401 Tb 0.66264 0.37708 0.77973 0.0
C402 C 0.69409 0.32586 0.77464 0.0
O403 O 0.65157 0.35862 0.7277 0.0
Tb404 Tb 0.64979 0.32109 0.74002 0.0
C405 C 0.64927 0.28858 0.70567 0.0
O406 O 0.63132 0.37738 0.75609 0.0
O407 O 0.61629 0.31415 0.75904 0.0
C408 C 0.59488 0.32006 0.75013 0.0
O409 O 0.59467 0.33218 0.73103 0.0
O410 O 0.69409 0.35054 0.77599 0.0
O411 O 0.67507 0.31275 0.76747 0.0
O412 O 0.6506 0.36762 0.81411 0.0
C413 C 0.63405 0.37356 0.73432 0.0
C414 C 0.67422 0.42564 0.78362 0.0
O415 O 0.63051 0.30076 0.71339 0.0
O416 O 0.66873 0.29476 0.71735 0.0
C417 C 0.66583 0.37185 0.83111 0.0
O418 O 0.68853 0.37854 0.82631 0.0
O419 O 0.68356 0.41041 0.76887 0.0
O420 O 0.87428 0.42183 1.01011 0.0
Tb421 Tb 0.91036 0.41707 1.02688 0.0
C422 C 0.9628 0.44491 1.02035 0.0
O423 O 0.93023 0.40203 0.97672 0.0
Tb424 Tb 0.9676 0.39893 0.98914 0.0
C425 C 1.00058 0.39948 0.95532 0.0
O426 O 0.90949 0.38407 1.00531 0.0
O427 O 0.97425 0.36482 1.00738 0.0
C428 C 0.96792 0.34377 0.99804 0.0
O429 O 0.95565 0.3443 0.97901 0.0
O430 O 0.9382 0.44666 1.01995 0.0
O431 O 0.9743 0.42376 1.0172 0.0
O432 O 0.91628 0.40002 0.06006 0.0
C433 C 0.91449 0.38532 0.98362 0.0
C434 C 0.86251 0.43185 1.02683 0.0
O435 O 0.98663 0.38107 0.96106 0.0
O436 O 0.99585 0.41802 0.96864 0.0
C437 C 0.91873 0.4143 0.07795 0.0
O438 O 0.92039 0.43824 0.07475 0.0
O439 O 0.87813 0.43464 0.04326 0.0
O440 O 0.87969 0.62351 0.29611 0.0
Tb441 Tb 0.87643 0.65978 0.27982 0.0
C442 C 0.84604 0.7114 0.27516 0.0
O443 O 0.88796 0.67966 0.22849 0.0
Tb444 Tb 0.89048 0.71694 0.24128 0.0
C445 C 0.88945 0.74985 0.20728 0.0
O446 O 0.90783 0.65951 0.25635 0.0
O447 O 0.92479 0.72387 0.25921 0.0
C448 C 0.94581 0.71795 0.24959 0.0
O449 O 0.94519 0.70593 0.23046 0.0
O450 O 0.8454 0.68671 0.27575 0.0
O451 O 0.86595 0.72407 0.26956 0.0
O452 O 0.88818 0.66923 0.31424 0.0
C453 C 0.90531 0.6643 0.23473 0.0
C454 C 0.86451 0.61128 0.28345 0.0
O455 O 0.90825 0.73671 0.21349 0.0
O456 O 0.87082 0.74441 0.22028 0.0
C457 C 0.87274 0.66514 0.33107 0.0
O458 O 0.85006 0.65853 0.32605 0.0
O459 O 0.85525 0.62669 0.26878 0.0
O460 O 0.54128 0.61774 0.4697 0.0
Tb461 Tb 0.56902 0.63714 0.49057 0.0
C462 C 0.62197 0.65186 0.48582 0.0
O463 O 0.59838 0.59007 0.52238 0.0
Tb464 Tb 0.62604 0.61996 0.52909 0.0
C465 C 0.67393 0.60535 0.52855 0.0
O466 O 0.56193 0.61235 0.51863 0.0
O467 O 0.62072 0.63698 0.56239 0.0
C468 C 0.61881 0.62275 0.5804 0.0
O469 O 0.61723 0.59879 0.57734 0.0
O470 O 0.60665 0.63488 0.47864 0.0
O471 O 0.62659 0.6531 0.50759 0.0
O472 O 0.56141 0.67117 0.50854 0.0
C473 C 0.57375 0.59151 0.52251 0.0
C474 C 0.53659 0.63622 0.45627 0.0
O475 O 0.65853 0.60243 0.54512 0.0
O476 O 0.66192 0.61541 0.51198 0.0
C477 C 0.56761 0.69228 0.49923 0.0
O478 O 0.58041 0.69189 0.48051 0.0
O479 O 0.5503 0.65475 0.46215 0.0
O480 O 0.37722 0.41201 0.29549 0.0
Tb481 Tb 0.37422 0.37604 0.27868 0.0
C482 C 0.34516 0.32381 0.2724 0.0
O483 O 0.38494 0.35742 0.22655 0.0
Tb484 Tb 0.38892 0.31976 0.23804 0.0
C485 C 0.38714 0.28735 0.20367 0.0
O486 O 0.40494 0.37744 0.25449 0.0
O487 O 0.42406 0.31358 0.25477 0.0
C488 C 0.4446 0.3194 0.24427 0.0
O489 O 0.44315 0.33065 0.22477 0.0
O490 O 0.34379 0.34839 0.27437 0.0
O491 O 0.36591 0.31236 0.26729 0.0
O492 O 0.3873 0.36646 0.31273 0.0
C493 C 0.40213 0.37297 0.23283 0.0
C494 C 0.36153 0.42422 0.28335 0.0
O495 O 0.40552 0.30161 0.20882 0.0
O496 O 0.36929 0.29143 0.21793 0.0
C497 C 0.37234 0.36969 0.33007 0.0
O498 O 0.34923 0.37537 0.32583 0.0
O499 O 0.35216 0.40894 0.26863 0.0
O500 O 0.37543 0.6296 0.04867 0.0
Tb501 Tb 0.41181 0.6272 1.03255 0.0
C502 C 0.46075 0.59089 1.02293 0.0
O503 O 0.42926 0.63717 0.98007 0.0
Tb504 Tb 0.46753 0.63915 0.98994 0.0
C505 C 0.49858 0.64058 0.95452 0.0
O506 O 0.41183 0.65824 1.00864 0.0
O507 O 0.47457 0.67217 1.00958 0.0
C508 C 0.47065 0.69337 0.99944 0.0
O509 O 0.46103 0.69299 0.97919 0.0
O510 O 0.43908 0.5961 1.03279 0.0
O511 O 0.47243 0.60474 1.00797 0.0
O512 O 0.4195 0.6414 0.06654 0.0
C513 C 0.41524 0.65534 0.98684 0.0
C514 C 0.36337 0.61484 1.03548 0.0
O515 O 0.47627 0.64938 0.95491 0.0
O516 O 0.50315 0.6306 0.97396 0.0
C517 C 0.41716 0.62632 0.08392 0.0
O518 O 0.41319 0.60284 0.07977 0.0
O519 O 0.37895 0.60618 1.02066 0.0
O520 O 0.16141 0.62357 0.79433 0.0
Tb521 Tb 0.1641 0.65928 0.77698 0.0
C522 C 0.19282 0.7116 0.77061 0.0
O523 O 0.1529 0.67803 0.725 0.0
Tb524 Tb 0.14876 0.71554 0.73671 0.0
C525 C 0.14965 0.7483 0.70261 0.0
O526 O 0.13326 0.65765 0.7529 0.0
O527 O 0.11421 0.72196 0.75422 0.0
C528 C 0.09326 0.71576 0.7446 0.0
O529 O 0.09392 0.70354 0.72557 0.0
O530 O 0.19443 0.68703 0.77261 0.0
O531 O 0.17182 0.72277 0.76591 0.0
O532 O 0.15075 0.66918 0.81079 0.0
C533 C 0.1359 0.6623 0.73125 0.0
C534 C 0.17671 0.61111 0.78203 0.0
O535 O 0.13123 0.73429 0.70823 0.0
O536 O 0.16803 0.74374 0.71623 0.0
C537 C 0.16565 0.66635 0.82824 0.0
O538 O 0.18885 0.66089 0.82422 0.0
O539 O 0.18579 0.62615 0.76695 0.0
O540 O 0.16068 0.40784 0.54819 0.0
Tb541 Tb 0.12435 0.41039 0.53195 0.0
C542 C 0.07613 0.44757 0.52202 0.0
O543 O 0.10835 0.40107 0.479 0.0
Tb544 Tb 0.0697 0.40047 0.48753 0.0
C545 C 0.03948 0.40072 0.45148 0.0
O546 O 0.12365 0.37925 0.50817 0.0
O547 O 0.06175 0.36696 0.50623 0.0
C548 C 0.06397 0.34614 0.49507 0.0
O549 O 0.07201 0.34712 0.47426 0.0
O550 O 0.09722 0.44161 0.53256 0.0
O551 O 0.06501 0.43455 0.50612 0.0
O552 O 0.11675 0.39602 0.56592 0.0
C553 C 0.12121 0.38224 0.48625 0.0
C554 C 0.1729 0.42234 0.53488 0.0
O555 O 0.06155 0.39135 0.45211 0.0
O556 O 0.03471 0.41036 0.471 0.0
C557 C 0.1193 0.41095 0.58337 0.0
O558 O 0.12345 0.43443 0.57933 0.0
O559 O 0.15743 0.43096 0.51992 0.0
O560 O 0.35163 0.62707 0.30628 0.0
Tb561 Tb 0.3726 0.66039 0.29547 0.0
C562 C 0.34418 0.71276 0.3016 0.0
O563 O 0.38426 0.67871 0.34727 0.0
Tb564 Tb 0.3884 0.71619 0.3354 0.0
C565 C 0.3874 0.74876 0.36954 0.0
O566 O 0.40369 0.65847 0.31924 0.0
O567 O 0.42313 0.72271 0.31815 0.0
C568 C 0.44397 0.71648 0.32794 0.0
O569 O 0.44307 0.7041 0.3469 0.0
O570 O 0.34237 0.6882 0.29976 0.0
O571 O 0.36528 0.72378 0.30631 0.0
O572 O 0.38641 0.67041 0.26187 0.0
C573 C 0.40116 0.66294 0.34091 0.0
C574 C 0.35952 0.61233 0.29045 0.0
O575 O 0.40577 0.73466 0.36407 0.0
O576 O 0.36914 0.74442 0.35575 0.0
C577 C 0.37144 0.66859 0.24436 0.0
O578 O 0.34801 0.66404 0.24826 0.0
O579 O 0.37385 0.62505 0.27738 0.0
O580 O 0.15961 0.60604 0.0525 0.0
Tb581 Tb 0.12649 0.6265 0.04048 0.0
C582 C 0.07542 0.59365 0.0481 0.0
O583 O 0.10924 0.63697 0.09246 0.0
Tb584 Tb 0.07095 0.63904 0.08265 0.0
C585 C 0.04047 0.63886 0.11852 0.0
O586 O 0.127 0.65785 0.06395 0.0
O587 O 0.06138 0.67172 0.06332 0.0
C588 C 0.06716 0.69349 0.07153 0.0
O589 O 0.08064 0.69446 0.08982 0.0
O590 O 0.09954 0.59521 0.04314 0.0
O591 O 0.06212 0.61133 0.05753 0.0
O592 O 0.11788 0.6399 1.00636 0.0
C593 C 0.12333 0.65515 0.08573 0.0
C594 C 0.17492 0.61416 0.03723 0.0
O595 O 0.04399 0.62041 0.10484 0.0
O596 O 0.05441 0.65703 0.11213 0.0
C597 C 0.12026 0.62469 0.98909 0.0
O598 O 0.12458 0.60131 0.9934 0.0
O599 O 0.16261 0.62837 1.02373 0.0
O600 O 0.18505 0.40814 0.80547 0.0
Tb601 Tb 0.16413 0.37477 0.79472 0.0
C602 C 0.19601 0.32355 0.8026 0.0
O603 O 0.15422 0.35866 0.8474 0.0
Tb604 Tb 0.15094 0.32058 0.83708 0.0
C605 C 0.15039 0.28964 0.87265 0.0
O606 O 0.13339 0.37641 0.81882 0.0
O607 O 0.11745 0.31284 0.81818 0.0
C608 C 0.0961 0.31937 0.82681 0.0
O609 O 0.09605 0.33249 0.84535 0.0
O610 O 0.19521 0.34774 0.79789 0.0
O611 O 0.1775 0.31075 0.81125 0.0
O612 O 0.14998 0.36509 0.76114 0.0
C613 C 0.13666 0.37349 0.84064 0.0
C614 C 0.17686 0.42295 0.7898 0.0
O615 O 0.13224 0.30333 0.86584 0.0
O616 O 0.16924 0.29359 0.85951 0.0
C617 C 0.16488 0.36684 0.74359 0.0
O618 O 0.18838 0.3711 0.74744 0.0
O619 O 0.16236 0.41027 0.77685 0.0
O620 O 0.37667 0.43133 0.5535 0.0
Tb621 Tb 0.40983 0.4101 0.54276 0.0
C622 C 0.46098 0.4425 0.54973 0.0
O623 O 0.42741 0.40082 0.59534 0.0
Tb624 Tb 0.46534 0.3979 0.58449 0.0
C625 C 0.49713 0.39829 0.61946 0.0
O626 O 0.40914 0.37956 0.56726 0.0
O627 O 0.47302 0.36423 0.56592 0.0
C628 C 0.46694 0.34291 0.57493 0.0
O629 O 0.45427 0.34293 0.59372 0.0
O630 O 0.43667 0.44151 0.54551 0.0
O631 O 0.47411 0.42396 0.55787 0.0
O632 O 0.41881 0.39661 0.50874 0.0
C633 C 0.41264 0.383 0.58901 0.0
C634 C 0.36137 0.42214 0.5387 0.0
O635 O 0.49272 0.41686 0.60608 0.0
O636 O 0.48339 0.3799 0.61323 0.0
C637 C 0.41611 0.41167 0.49138 0.0
O638 O 0.41128 0.43498 0.49557 0.0
O639 O 0.3737 0.407 0.52613 0.0
C640 C 0.16289 0.07163 0.27234 0.0
C641 C 0.17705 0.08539 0.28768 0.0
C642 C 0.16419 0.04563 0.27144 0.0
C643 C 0.1803 0.03267 0.28607 0.0
C644 C 0.19523 0.04651 0.30118 0.0
C645 C 0.19332 0.0726 0.30191 0.0
C646 C 0.14766 0.03198 0.25522 0.0
C647 C 0.21288 0.03369 0.31693 0.0
C648 C 0.16209 0.96596 0.30006 0.0
C649 C 0.17647 0.952 0.28508 0.0
C650 C 0.16359 0.99195 0.30086 0.0
C651 C 0.18012 1.00471 0.28648 0.0
C652 C 0.19523 0.99067 0.2717 0.0
C653 C 0.19313 0.96458 0.27108 0.0
C654 C 0.14684 1.0058 0.31671 0.0
C655 C 0.21333 1.00327 0.25625 0.0
H656 H 0.15022 0.0812 0.26126 0.0
H657 H 0.20437 0.08297 0.31382 0.0
H658 H 0.15878 0.01967 0.24433 0.0
H659 H 0.13458 0.02016 0.26471 0.0
H660 H 0.13688 0.04469 0.24433 0.0
H661 H 0.22463 0.04696 0.32633 0.0
H662 H 0.20238 0.02242 0.32922 0.0
H663 H 0.22496 0.02093 0.30738 0.0
H664 H 0.14912 0.95655 0.31097 0.0
H665 H 0.20435 0.95406 0.25945 0.0
H666 H 0.13418 1.0178 0.30694 0.0
H667 H 0.15788 1.01797 0.32784 0.0
H668 H 0.13561 0.99324 0.32735 0.0
H669 H 0.20322 1.01468 0.24381 0.0
H670 H 0.22507 0.98987 0.24704 0.0
H671 H 0.22542 1.01587 0.26601 0.0
C672 C 0.31987 0.92011 0.51476 0.0
C673 C 0.33552 0.93483 0.52798 0.0
C674 C 0.29397 0.92052 0.51757 0.0
C675 C 0.28309 0.9367 0.5335 0.0
C676 C 0.29881 0.95229 0.54632 0.0
C677 C 0.32475 0.95082 0.54373 0.0
C678 C 0.27831 0.90296 0.50398 0.0
C679 C 0.28824 0.97046 0.56292 0.0
C680 C 0.2136 0.9491 0.52587 0.0
C681 C 0.20299 0.93413 0.54255 0.0
C682 C 0.23951 0.95088 0.52331 0.0
C683 C 0.25542 0.93663 0.53718 0.0
C684 C 0.24471 0.92152 0.55409 0.0
C685 C 0.2188 0.92078 0.55679 0.0
C686 C 0.24986 0.96789 0.50558 0.0
C687 C 0.26059 0.90537 0.56886 0.0
H688 H 0.32796 0.90746 0.50273 0.0
H689 H 0.33664 0.96226 0.55405 0.0
H690 H 0.26778 0.8907 0.51545 0.0
H691 H 0.26467 0.91338 0.49384 0.0
H692 H 0.2895 0.89134 0.49249 0.0
H693 H 0.30261 0.98277 0.57012 0.0
H694 H 0.27394 0.98197 0.55466 0.0
H695 H 0.27915 0.96041 0.57689 0.0
H696 H 0.20159 0.95949 0.51477 0.0
H697 H 0.21084 0.90893 0.56956 0.0
H698 H 0.2591 0.95693 0.49229 0.0
H699 H 0.264 0.98022 0.51308 0.0
H700 H 0.23534 0.97941 0.4976 0.0
H701 H 0.27127 0.89234 0.55828 0.0
H702 H 0.24955 0.89459 0.58115 0.0
H703 H 0.2741 0.9168 0.57823 0.0
C704 C 0.3435 0.07109 0.77144 0.0
C705 C 0.36002 0.08367 0.78559 0.0
C706 C 0.34164 0.04498 0.77186 0.0
C707 C 0.3569 0.03092 0.78653 0.0
C708 C 0.37328 0.04368 0.80106 0.0
C709 C 0.3745 0.06969 0.80051 0.0
C710 C 0.32364 0.03239 0.75629 0.0
C711 C 0.39021 0.0298 0.81677 0.0
C712 C 0.34454 0.96257 0.801 0.0
C713 C 0.36084 0.95026 0.78649 0.0
C714 C 0.34237 0.98866 0.8007 0.0
C715 C 0.35709 1.00297 0.78577 0.0
C716 C 0.37326 0.99048 0.7709 0.0
C717 C 0.3748 0.96449 0.77136 0.0
C718 C 0.32462 1.00097 0.81665 0.0
C719 C 0.38961 1.00463 0.75489 0.0
H720 H 0.3322 0.08163 0.75987 0.0
H721 H 0.38737 0.0791 0.81151 0.0
H722 H 0.33386 0.02135 0.74366 0.0
H723 H 0.31179 0.01944 0.7659 0.0
H724 H 0.31166 0.04578 0.74729 0.0
H725 H 0.40127 0.04234 0.82758 0.0
H726 H 0.37934 1.01731 0.82774 0.0
H727 H 0.40303 1.01813 0.80687 0.0
H728 H 0.33364 0.95185 0.81274 0.0
H729 H 0.3875 0.95528 0.76007 0.0
H730 H 0.31231 1.01371 0.80728 0.0
H731 H 0.33501 1.01219 0.82905 0.0
H732 H 0.3131 0.98739 0.82591 0.0
H733 H 0.3783 1.01692 0.74411 0.0
H734 H 0.40061 0.99227 0.74389 0.0
H735 H 0.40248 1.01652 0.76455 0.0
C736 C 0.32169 0.08608 1.02884 0.0
C737 C 0.33266 0.10217 0.04442 0.0
C738 C 0.29573 0.08461 1.02647 0.0
C739 C 0.28019 0.1003 0.03933 0.0
C740 C 0.29128 0.11658 0.05508 0.0
C741 C 0.3172 0.11698 0.05769 0.0
C742 C 0.28493 0.06634 1.01005 0.0
C743 C 0.27581 0.13424 0.06869 0.0
C744 C 0.21571 0.11625 1.01658 0.0
C745 C 0.20005 0.10308 1.03108 0.0
C746 C 0.24164 0.11542 1.019 0.0
C747 C 0.25251 0.10038 1.03588 0.0
C748 C 0.23674 0.08627 0.05 0.0
C749 C 0.2108 0.08815 0.04772 0.0
C750 C 0.2574 0.13141 1.00398 0.0
C751 C 0.24726 0.06934 0.06771 0.0
H752 H 0.33344 0.07457 1.0185 0.0
H753 H 0.32545 0.1297 0.06958 0.0
H754 H 0.27069 0.0549 1.0185 0.0
H755 H 0.2757 0.07631 0.9961 0.0
H756 H 0.29919 0.05397 1.00281 0.0
H757 H 0.28716 0.14595 0.08002 0.0
H758 H 0.26517 0.14642 0.05724 0.0
H759 H 0.26229 0.1239 0.07903 0.0
H760 H 0.20762 0.12806 1.00384 0.0
H761 H 0.1989 0.0779 0.059 0.0
H762 H 0.27077 0.11989 0.99459 0.0
H763 H 0.26822 0.14453 1.01438 0.0
H764 H 0.24624 0.1421 0.9917 0.0
H765 H 0.26128 0.05696 0.06015 0.0
H766 H 0.2328 0.05787 0.07585 0.0
H767 H 0.25666 0.08035 0.08088 0.0
C768 C 0.83976 0.9636 0.796 0.0
C769 C 0.85531 0.95263 0.78 0.0
C770 C 0.83811 0.98957 0.79816 0.0
C771 C 0.85308 1.00515 0.78461 0.0
C772 C 0.86881 0.99406 0.76842 0.0
C773 C 0.86941 0.96811 0.76607 0.0
C774 C 0.82044 1.00033 0.8151 0.0
C775 C 0.88572 1.00959 0.75404 0.0
C776 C 0.83961 0.07438 0.77639 0.0
C777 C 0.85497 0.08542 0.79255 0.0
C778 C 0.8381 0.0484 0.77419 0.0
C779 C 0.85302 0.03289 0.78784 0.0
C780 C 0.86856 0.04404 0.80418 0.0
C781 C 0.86901 0.07 0.80657 0.0
C782 C 0.82061 0.03756 0.75709 0.0
C783 C 0.88543 0.02859 0.81867 0.0
H784 H 0.8288 0.95184 0.80685 0.0
H785 H 0.88171 0.95986 0.75384 0.0
H786 H 0.83089 1.0098 0.82861 0.0
H787 H 0.80851 1.01435 0.80693 0.0
H788 H 0.80853 0.98601 0.8229 0.0
H789 H 0.897 0.99826 0.74237 0.0
H790 H 0.87481 0.02295 0.74401 0.0
H791 H 0.89831 0.02044 0.76495 0.0
H792 H 0.82869 0.08609 0.76547 0.0
H793 H 0.88117 0.07829 0.81892 0.0
H794 H 0.80865 0.02348 0.76516 0.0
H795 H 0.8312 0.02815 0.74367 0.0
H796 H 0.80871 0.05183 0.7492 0.0
H797 H 0.87449 1.01519 0.82863 0.0
H798 H 0.89659 0.03998 0.83041 0.0
H799 H 0.89813 1.01781 0.80785 0.0
C800 C 0.82228 0.12464 0.55106 0.0
C801 C 0.83605 0.11078 0.53553 0.0
C802 C 0.79627 0.12347 0.55178 0.0
C803 C 0.78329 0.10779 0.53677 0.0
C804 C 0.79714 0.09314 0.52147 0.0
C805 C 0.82325 0.09493 0.52092 0.0
C806 C 0.78263 0.13971 0.56821 0.0
C807 C 0.78431 0.07592 0.50534 0.0
C808 C 0.71505 0.09493 0.55123 0.0
C809 C 0.70264 0.11193 0.53745 0.0
C810 C 0.74113 0.09273 0.55069 0.0
C811 C 0.75533 0.1081 0.53624 0.0
C812 C 0.74274 0.125 0.52208 0.0
C813 C 0.71676 0.12657 0.52277 0.0
C814 C 0.75354 0.07423 0.56588 0.0
C815 C 0.75678 0.14203 0.50659 0.0
H816 H 0.83186 0.13699 0.56243 0.0
H817 H 0.83362 0.08412 0.50887 0.0
H818 H 0.77093 0.15304 0.55888 0.0
H819 H 0.77019 0.1284 0.57884 0.0
H820 H 0.79533 0.1502 0.57933 0.0
H821 H 0.79756 0.06432 0.4958 0.0
H822 H 0.77142 0.06368 0.5146 0.0
H823 H 0.77318 0.08675 0.49319 0.0
H824 H 0.70441 0.0835 0.56262 0.0
H825 H 0.70748 0.13981 0.51203 0.0
H826 H 0.76495 0.08401 0.57855 0.0
H827 H 0.76612 0.06231 0.55597 0.0
H828 H 0.74003 0.06235 0.57483 0.0
H829 H 0.76881 0.15441 0.51664 0.0
H830 H 0.74434 0.15357 0.4961 0.0
H831 H 0.76893 0.1312 0.49531 0.0
C832 C 0.66848 0.068 0.26514 0.0
C833 C 0.6833 0.08364 0.27828 0.0
C834 C 0.6691 0.04207 0.2678 0.0
C835 C 0.68557 0.03114 0.2835 0.0
C836 C 0.70123 0.04688 0.29625 0.0
C837 C 0.69957 0.07283 0.29381 0.0
C838 C 0.65146 0.02641 0.2543 0.0
C839 C 0.71969 0.03629 0.31261 0.0
C840 C 0.67051 0.96649 0.3066 0.0
C841 C 0.68381 0.9509 0.29217 0.0
C842 C 0.67097 0.99244 0.30401 0.0
C843 C 0.68575 1.00342 0.28702 0.0
C844 C 0.69996 0.98773 0.27293 0.0
C845 C 0.69846 0.96177 0.2754 0.0
C846 C 0.65489 1.00807 0.31903 0.0
C847 C 0.71663 0.99836 0.25508 0.0
H848 H 0.65562 0.07611 0.25329 0.0
H849 H 0.71109 0.0847 0.30406 0.0
H850 H 0.66184 1.01293 0.24397 0.0
H851 H 0.63943 1.0157 0.26583 0.0
H852 H 0.63961 0.03762 0.24299 0.0
H853 H 0.73198 0.05069 0.31979 0.0
H854 H 0.70989 0.02698 0.32661 0.0
H855 H 0.73121 0.02216 0.30413 0.0
H856 H 0.6589 0.95834 0.31945 0.0
H857 H 0.70881 0.94994 0.26415 0.0
H858 H 0.64163 1.01873 0.30863 0.0
H859 H 0.66633 0.02159 0.32837 0.0
H860 H 0.64435 0.99683 0.33135 0.0
H861 H 0.70541 1.00764 0.24197 0.0
H862 H 0.72813 0.98399 0.24689 0.0
H863 H 0.72897 1.01252 0.26254 0.0
C864 C 0.82076 0.94318 0.05222 0.0
C865 C 0.83343 0.92656 0.03828 0.0
C866 C 0.79467 0.94512 0.05154 0.0
C867 C 0.78073 0.92987 0.03678 0.0
C868 C 0.79358 0.91341 1.02243 0.0
C869 C 0.81957 0.91208 1.02328 0.0
C870 C 0.78198 0.96316 0.06697 0.0
C871 C 0.77981 0.89654 1.00659 0.0
C872 C 0.71402 0.91214 0.05113 0.0
C873 C 0.70009 0.9262 1.03584 0.0
C874 C 0.74 0.91363 0.05193 0.0
C875 C 0.75278 0.9298 0.03723 0.0
C876 C 0.73877 0.94462 1.02216 0.0
C877 C 0.71268 0.94254 1.02154 0.0
C878 C 0.75384 0.89721 0.06812 0.0
C879 C 0.75139 0.96234 1.00635 0.0
H880 H 0.83121 0.95448 0.06386 0.0
H881 H 0.82905 0.89913 1.01242 0.0
H882 H 0.76923 0.97507 0.0572 0.0
H883 H 0.7707 0.95297 0.07947 0.0
H884 H 0.79531 0.97506 0.07612 0.0
H885 H 0.79243 0.88545 0.99592 0.0
H886 H 0.76796 0.88374 1.01638 0.0
H887 H 0.7675 0.90745 0.99549 0.0
H888 H 0.70458 0.89942 0.06227 0.0
H889 H 0.70218 0.9535 1.00967 0.0
H890 H 0.76611 0.90846 0.07898 0.0
H891 H 0.76573 0.88425 0.0586 0.0
H892 H 0.74127 0.88631 0.07903 0.0
H893 H 0.7641 0.97456 1.01585 0.0
H894 H 0.73801 0.97395 0.99695 0.0
H895 H 0.7627 0.95191 0.99407 0.0
C896 C 0.69321 0.5739 0.80168 0.0
C897 C 0.67692 0.58648 0.78732 0.0
C898 C 0.69532 0.54782 0.80107 0.0
C899 C 0.68056 0.53379 0.78597 0.0
C900 C 0.6644 0.54655 0.77124 0.0
C901 C 0.66292 0.57253 0.772 0.0
C902 C 0.71306 0.53523 0.81689 0.0
C903 C 0.64801 0.53269 0.75505 0.0
C904 C 0.69409 0.46588 0.77093 0.0
C905 C 0.67758 0.45311 0.78494 0.0
C906 C 0.69594 0.49198 0.77161 0.0
C907 C 0.6807 0.50584 0.7864 0.0
C908 C 0.66431 0.49289 0.80078 0.0
C909 C 0.66309 0.46689 0.79997 0.0
C910 C 0.71394 0.50478 0.75618 0.0
C911 C 0.64741 0.50656 0.81663 0.0
H912 H 0.70414 0.58442 0.81356 0.0
H913 H 0.65024 0.58195 0.76082 0.0
H914 H 0.70265 0.52384 0.82915 0.0
H915 H 0.72533 0.5226 0.80738 0.0
H916 H 0.72463 0.54863 0.82631 0.0
H917 H 0.63704 0.54524 0.74418 0.0
H918 H 0.65928 0.52052 0.74414 0.0
H919 H 0.63511 0.52069 0.76456 0.0
H920 H 0.70539 0.45549 0.75927 0.0
H921 H 0.65023 0.45732 0.81087 0.0
H922 H 0.72584 0.51754 0.76594 0.0
H923 H 0.70371 0.51605 0.74369 0.0
H924 H 0.72586 0.49151 0.74701 0.0
H925 H 0.6583 0.51885 0.82776 0.0
H926 H 0.63632 0.49387 0.82727 0.0
H927 H 0.63461 0.51841 0.80685 0.0
C928 C 0.82441 0.45022 0.04479 0.0
C929 C 0.83509 0.43497 1.02839 0.0
C930 C 0.79848 0.45182 0.04733 0.0
C931 C 0.78268 0.43712 1.03375 0.0
C932 C 0.79348 0.42174 1.01713 0.0
C933 C 0.81938 0.42118 1.01443 0.0
C934 C 0.78801 0.46912 0.06474 0.0
C935 C 0.7777 0.40514 1.00268 0.0
C936 C 0.71836 0.42027 0.05627 0.0
C937 C 0.70263 0.43453 0.04272 0.0
C938 C 0.74426 0.42101 0.05359 0.0
C939 C 0.75503 0.43702 0.03742 0.0
C940 C 0.73921 0.45217 1.02428 0.0
C941 C 0.71329 0.45041 1.02679 0.0
C942 C 0.76006 0.40393 0.06755 0.0
C943 C 0.74966 0.47011 1.00739 0.0
H944 H 0.83635 0.46094 0.05567 0.0
H945 H 0.82741 0.40911 1.00189 0.0
H946 H 0.77379 0.48116 0.05701 0.0
H947 H 0.77885 0.45836 0.07823 0.0
H948 H 0.80245 0.48092 0.0725 0.0
H949 H 0.78882 0.39417 0.99059 0.0
H950 H 0.76712 0.39224 1.01351 0.0
H951 H 0.76412 0.41624 0.99309 0.0
H952 H 0.71035 0.40773 0.06845 0.0
H953 H 0.70133 0.46149 1.01622 0.0
H954 H 0.77364 0.41472 0.07744 0.0
H955 H 0.77065 0.39146 0.05634 0.0
H956 H 0.74896 0.39251 0.07931 0.0
H957 H 0.76388 0.48191 1.01546 0.0
H958 H 0.73521 0.48216 0.99998 0.0
H959 H 0.75883 0.45988 0.99359 0.0
C960 C 0.87512 0.46452 0.27039 0.0
C961 C 0.86113 0.45041 0.2856 0.0
C962 C 0.87373 0.49052 0.26991 0.0
C963 C 0.85767 0.50313 0.28481 0.0
C964 C 0.84292 0.48894 0.29979 0.0
C965 C 0.84495 0.46284 0.30013 0.0
C966 C 0.89011 0.50455 0.25384 0.0
C967 C 0.82529 0.50137 0.31577 0.0
C968 C 0.87547 0.56978 0.29944 0.0
C969 C 0.861 0.58381 0.28455 0.0
C970 C 0.87413 0.54377 0.30001 0.0
C971 C 0.85764 0.53108 0.28552 0.0
C972 C 0.84241 0.5452 0.27089 0.0
C973 C 0.84439 0.57129 0.27045 0.0
C974 C 0.89104 0.52983 0.31569 0.0
C975 C 0.8243 0.53267 0.25537 0.0
H976 H 0.88773 0.45522 0.25909 0.0
H977 H 0.83404 0.4522 0.31193 0.0
H978 H 0.87884 0.5169 0.24308 0.0
H979 H 0.90309 0.51637 0.26345 0.0
H980 H 0.901 0.49211 0.24282 0.0
H981 H 0.8137 0.48788 0.32506 0.0
H982 H 0.83578 0.51254 0.32814 0.0
H983 H 0.81305 0.51419 0.30642 0.0
H984 H 0.88842 0.57915 0.3104 0.0
H985 H 0.83309 0.58187 0.2589 0.0
H986 H 0.90376 0.51807 0.30577 0.0
H987 H 0.88014 0.51742 0.32671 0.0
H988 H 0.90221 0.54233 0.32645 0.0
H989 H 0.83443 0.52156 0.24274 0.0
H990 H 0.81238 0.54611 0.24637 0.0
H991 H 0.8124 0.5198 0.26502 0.0
C992 C 0.71688 0.6163 0.51589 0.0
C993 C 0.70137 0.60232 0.52989 0.0
C994 C 0.74281 0.61583 0.5184 0.0
C995 C 0.75384 0.60034 0.53484 0.0
C996 C 0.73825 0.58545 0.54845 0.0
C997 C 0.71229 0.58697 0.54611 0.0
C998 C 0.75836 0.63263 0.50394 0.0
C999 C 0.74897 0.56804 0.56566 0.0
C1000 C 0.82319 0.58738 0.52727 0.0
C1001 C 0.83396 0.60313 0.54325 0.0
C1002 C 0.79725 0.58555 0.52494 0.0
C1003 C 0.78152 0.60052 0.5383 0.0
C1004 C 0.7924 0.61641 0.5545 0.0
C1005 C 0.81833 0.6172 0.55701 0.0
C1006 C 0.78669 0.56772 0.50801 0.0
C1007 C 0.77669 0.6333 0.56869 0.0
H1008 H 0.70866 0.62845 0.50349 0.0
H1009 H 0.70051 0.57611 0.55701 0.0
H1010 H 0.769 0.64546 0.51478 0.0
H1011 H 0.77189 0.62167 0.49418 0.0
H1012 H 0.74707 0.64365 0.49201 0.0
H1013 H 0.73466 0.5561 0.57345 0.0
H1014 H 0.76317 0.55613 0.55775 0.0
H1015 H 0.75823 0.57871 0.57916 0.0
H1016 H 0.83508 0.57644 0.51655 0.0
H1017 H 0.82643 0.62965 0.56922 0.0
H1018 H 0.77733 0.57805 0.49435 0.0
H1019 H 0.77262 0.55579 0.51611 0.0
H1020 H 0.80111 0.55581 0.50041 0.0
H1021 H 0.76592 0.64582 0.55764 0.0
H1022 H 0.78788 0.64467 0.58043 0.0
H1023 H 0.76327 0.62237 0.57863 0.0
C1024 C 0.34036 0.46413 0.27158 0.0
C1025 C 0.35766 0.4516 0.28497 0.0
C1026 C 0.33801 0.49018 0.27253 0.0
C1027 C 0.35356 0.50424 0.28693 0.0
C1028 C 0.37078 0.49152 0.30067 0.0
C1029 C 0.37246 0.46556 0.29963 0.0
C1030 C 0.31912 0.50271 0.25781 0.0
C1031 C 0.38806 0.50542 0.31605 0.0
C1032 C 0.36946 0.57147 0.27271 0.0
C1033 C 0.35598 0.58491 0.28875 0.0
C1034 C 0.36836 0.54548 0.27163 0.0
C1035 C 0.3531 0.53219 0.28676 0.0
C1036 C 0.33878 0.54571 0.30255 0.0
C1037 C 0.34053 0.57181 0.30348 0.0
C1038 C 0.38429 0.53218 0.25473 0.0
C1039 C 0.32194 0.53255 0.31879 0.0
H1040 H 0.32881 0.4536 0.26021 0.0
H1041 H 0.38594 0.45619 0.31005 0.0
H1042 H 0.30738 0.51512 0.26807 0.0
H1043 H 0.32858 0.51432 0.24509 0.0
H1044 H 0.3071 0.48927 0.24893 0.0
H1045 H 0.3999 0.49289 0.32616 0.0
H1046 H 0.40014 0.51769 0.30595 0.0
H1047 H 0.3774 0.51731 0.32769 0.0
H1048 H 0.38152 0.5813 0.26125 0.0
H1049 H 0.33002 0.58192 0.31593 0.0
H1050 H 0.37281 0.51985 0.24413 0.0
H1051 H 0.39788 0.5204 0.26366 0.0
H1052 H 0.39447 0.5451 0.24358 0.0
H1053 H 0.30964 0.51968 0.30958 0.0
H1054 H 0.31043 0.54559 0.32864 0.0
H1055 H 0.33308 0.52136 0.33067 0.0
C1056 C 0.32355 0.5947 1.02196 0.0
C1057 C 0.33588 0.6113 1.03621 0.0
C1058 C 0.29745 0.59262 1.02217 0.0
C1059 C 0.28313 0.60779 0.03667 0.0
C1060 C 0.29563 0.62432 0.05124 0.0
C1061 C 0.32164 0.6257 0.05095 0.0
C1062 C 0.28515 0.57443 1.00659 0.0
C1063 C 0.28148 0.6412 0.06675 0.0
C1064 C 0.21648 0.62469 1.0211 0.0
C1065 C 0.20241 0.61074 1.03637 0.0
C1066 C 0.2425 0.6235 1.02075 0.0
C1067 C 0.25518 0.60762 1.0358 0.0
C1068 C 0.24103 0.59287 0.05081 0.0
C1069 C 0.21492 0.59475 0.05106 0.0
C1070 C 0.25648 0.63993 1.00468 0.0
C1071 C 0.25352 0.57536 0.06692 0.0
H1072 H 0.33429 0.58345 1.01053 0.0
H1073 H 0.33086 0.63866 0.06202 0.0
H1074 H 0.27232 0.56244 1.01619 0.0
H1075 H 0.27402 0.58447 0.99389 0.0
H1076 H 0.29872 0.5626 0.99769 0.0
H1077 H 0.29384 0.65256 0.07749 0.0
H1078 H 0.26963 0.65375 0.0567 0.0
H1079 H 0.26914 0.63026 0.0778 0.0
H1080 H 0.20712 0.63717 1.00969 0.0
H1081 H 0.20432 0.58386 0.06291 0.0
H1082 H 0.26895 0.62872 0.99402 0.0
H1083 H 0.26817 0.65302 1.0143 0.0
H1084 H 0.244 0.6507 0.99356 0.0
H1085 H 0.26649 0.56321 0.05768 0.0
H1086 H 0.24007 0.56368 0.07615 0.0
H1087 H 0.26452 0.58597 0.07933 0.0
C1088 C 0.16561 0.56998 0.7987 0.0
C1089 C 0.18031 0.5837 0.78376 0.0
C1090 C 0.16696 0.54401 0.79982 0.0
C1091 C 0.18376 0.53101 0.78591 0.0
C1092 C 0.19923 0.54481 0.77123 0.0
C1093 C 0.19719 0.57089 0.77019 0.0
C1094 C 0.14978 0.53039 0.81549 0.0
C1095 C 0.21769 0.53198 0.75632 0.0
C1096 C 0.19633 0.46334 0.80254 0.0
C1097 C 0.1805 0.45036 0.78804 0.0
C1098 C 0.19833 0.48942 0.80151 0.0
C1099 C 0.18387 0.50305 0.78587 0.0
C1100 C 0.16819 0.48988 0.77099 0.0
C1101 C 0.16685 0.4639 0.77216 0.0
C1102 C 0.21558 0.50245 0.81748 0.0
C1103 C 0.15211 0.50331 0.75425 0.0
H1104 H 0.15244 0.57957 0.80925 0.0
H1105 H 0.20866 0.58122 0.75861 0.0
H1106 H 0.13736 0.51825 0.80561 0.0
H1107 H 0.16048 0.51841 0.82704 0.0
H1108 H 0.13828 0.54312 0.8257 0.0
H1109 H 0.22972 0.54523 0.74723 0.0
H1110 H 0.22945 0.51946 0.76648 0.0
H1111 H 0.20785 0.52045 0.74378 0.0
H1112 H 0.20698 0.45315 0.81486 0.0
H1113 H 0.1545 0.45416 0.76089 0.0
H1114 H 0.20478 0.51386 0.82941 0.0
H1115 H 0.22791 0.5151 0.80805 0.0
H1116 H 0.22708 0.48931 0.82727 0.0
H1117 H 0.13885 0.5153 0.76331 0.0
H1118 H 0.14155 0.49046 0.74332 0.0
H1119 H 0.16354 0.51543 0.74343 0.0
C1120 C 0.21441 0.41182 0.5511 0.0
C1121 C 0.20041 0.42577 0.53578 0.0
C1122 C 0.24043 0.4131 0.55164 0.0
C1123 C 0.25318 0.42902 0.5367 0.0
C1124 C 0.2391 0.44372 0.52157 0.0
C1125 C 0.21299 0.44179 0.52117 0.0
C1126 C 0.25431 0.39675 0.56786 0.0
C1127 C 0.25168 0.46124 0.50554 0.0
C1128 C 0.32131 0.44232 0.55137 0.0
C1129 C 0.3339 0.42565 0.53742 0.0
C1130 C 0.29521 0.44431 0.55077 0.0
C1131 C 0.28115 0.42902 0.53613 0.0
C1132 C 0.29392 0.41246 0.52181 0.0
C1133 C 0.31993 0.41113 0.52252 0.0
C1134 C 0.28263 0.4625 0.56613 0.0
C1135 C 0.28005 0.39549 0.50614 0.0
H1136 H 0.20501 0.39932 0.56247 0.0
H1137 H 0.20244 0.45268 0.50928 0.0
H1138 H 0.26618 0.38375 0.55836 0.0
H1139 H 0.26661 0.40805 0.57865 0.0
H1140 H 0.24177 0.3859 0.57884 0.0
H1141 H 0.23827 0.47276 0.49608 0.0
H1142 H 0.26444 0.47355 0.51488 0.0
H1143 H 0.26292 0.45065 0.49332 0.0
H1144 H 0.33183 0.45366 0.56293 0.0
H1145 H 0.32935 0.39813 0.51167 0.0
H1146 H 0.2714 0.45244 0.57875 0.0
H1147 H 0.26985 0.47436 0.55634 0.0
H1148 H 0.29603 0.47445 0.57514 0.0
H1149 H 0.2682 0.38282 0.51606 0.0
H1150 H 0.2926 0.38426 0.49551 0.0
H1151 H 0.26774 0.40634 0.49499 0.0
C1152 C 0.29874 0.31638 0.27592 0.0
C1153 C 0.3231 0.30756 0.27704 0.0
C1154 C 0.27826 0.30031 0.27871 0.0
C1155 C 0.282 0.27477 0.2831 0.0
C1156 C 0.30654 0.26592 0.28452 0.0
C1157 C 0.32656 0.28222 0.28135 0.0
C1158 C 0.25253 0.31067 0.27681 0.0
C1159 C 0.31175 0.23913 0.28966 0.0
C1160 C 0.23083 0.23905 0.3136 0.0
C1161 C 0.21987 0.22506 0.29635 0.0
C1162 C 0.25101 0.25486 0.30955 0.0
C1163 C 0.26049 0.25751 0.28747 0.0
C1164 C 0.24971 0.24321 0.26993 0.0
C1165 C 0.22973 0.227 0.27459 0.0
C1166 C 0.26207 0.26896 0.329 0.0
C1167 C 0.25885 0.24555 0.24609 0.0
H1168 H 0.29565 0.33575 0.27239 0.0
H1169 H 0.34514 0.27494 0.28238 0.0
H1170 H 0.24199 0.30039 0.26383 0.0
H1171 H 0.24263 0.30829 0.29299 0.0
H1172 H 0.25254 0.33058 0.27235 0.0
H1173 H 0.33182 0.235 0.29002 0.0
H1174 H 0.30372 0.23416 0.30622 0.0
H1175 H 0.30289 0.22715 0.27688 0.0
H1176 H 0.22334 0.23778 0.33047 0.0
H1177 H 0.22117 0.21668 0.26107 0.0
H1178 H 0.26018 0.28908 0.32607 0.0
H1179 H 0.28208 0.2649 0.33034 0.0
H1180 H 0.25314 0.26432 0.34528 0.0
H1181 H 0.2568 0.26492 0.24032 0.0
H1182 H 0.24868 0.23329 0.23432 0.0
H1183 H 0.27877 0.24099 0.24527 0.0
C1184 C 1.0021 0.07658 0.54318 0.0
C1185 C 0.97898 0.0736 0.53273 0.0
C1186 C 1.01813 0.05647 0.54686 0.0
C1187 C 1.01144 0.03254 0.53942 0.0
C1188 C 0.98801 0.02932 0.52899 0.0
C1189 C 0.97198 0.04976 0.52603 0.0
C1190 C 0.04237 0.06093 0.5587 0.0
C1191 C 0.98014 1.00435 0.52041 0.0
C1192 C 0.06396 0.98519 0.53154 0.0
C1193 C 0.06128 0.97019 0.55063 0.0
C1194 C 0.04771 1.00523 0.52746 0.0
C1195 C 0.0287 1.01094 0.54313 0.0
C1196 C 0.02653 0.99622 0.56275 0.0
C1197 C 0.04248 0.97598 0.56603 0.0
C1198 C 0.0505 0.01996 0.50609 0.0
C1199 C 1.00731 1.00184 0.58037 0.0
H1200 H 1.00776 0.09486 0.54848 0.0
H1201 H 0.95441 0.04723 0.51763 0.0
H1202 H 0.04386 0.04876 0.57365 0.0
H1203 H 0.05791 0.05627 0.54736 0.0
H1204 H 0.04451 0.08039 0.56423 0.0
H1205 H 0.96167 1.00485 0.51231 0.0
H1206 H 0.9938 0.99749 0.50801 0.0
H1207 H 0.97963 0.99088 0.53444 0.0
H1208 H 0.07813 0.9807 0.51937 0.0
H1209 H 0.04024 0.96456 0.58087 0.0
H1210 H 0.05423 0.03958 0.51015 0.0
H1211 H 0.03303 0.01937 0.49636 0.0
H1212 H 0.06568 1.01293 0.49532 0.0
H1213 H 1.00949 0.0211 0.58639 0.0
H1214 H 1.00853 0.98921 0.59506 0.0
H1215 H 0.98858 1.00026 0.57299 0.0
C1216 C 0.30823 0.8087 0.77261 0.0
C1217 C 0.31652 0.81214 0.79477 0.0
C1218 C 0.28857 0.7922 0.76769 0.0
C1219 C 0.27663 0.77899 0.78531 0.0
C1220 C 0.28448 0.78315 0.80772 0.0
C1221 C 0.30421 0.7994 0.81209 0.0
C1222 C 0.28098 0.78838 0.74354 0.0
C1223 C 0.27221 0.77016 0.82721 0.0
C1224 C 0.21106 0.75375 0.77764 0.0
C1225 C 0.21473 0.72816 0.77487 0.0
C1226 C 0.23088 0.7703 0.78062 0.0
C1227 C 0.25545 0.76144 0.7807 0.0
C1228 C 0.25944 0.73568 0.77783 0.0
C1229 C 0.23913 0.71938 0.77509 0.0
C1230 C 0.22541 0.79736 0.78401 0.0
C1231 C 0.28525 0.72531 0.77768 0.0
H1232 H 0.31777 0.81805 0.75905 0.0
H1233 H 0.31036 0.80186 0.8293 0.0
H1234 H 0.28361 0.76874 0.73886 0.0
H1235 H 0.2611 0.79262 0.74143 0.0
H1236 H 0.29176 0.80009 0.73177 0.0
H1237 H 0.28014 0.77567 0.84369 0.0
H1238 H 0.25216 0.77429 0.82733 0.0
H1239 H 0.27421 0.7499 0.82533 0.0
H1240 H 0.19246 0.76105 0.77761 0.0
H1241 H 0.2424 0.69983 0.77278 0.0
H1242 H 0.23522 0.80854 0.7712 0.0
H1243 H 0.23222 0.80334 0.80074 0.0
H1244 H 0.20537 0.80151 0.78291 0.0
H1245 H 0.2965 0.73488 0.76475 0.0
H1246 H 0.28549 0.70518 0.7742 0.0
H1247 H 0.2942 0.72864 0.79418 0.0
C1248 C 0.46823 0.04534 0.05059 0.0
C1249 C 0.4768 0.06974 0.04867 0.0
C1250 C 0.48435 0.02494 0.04769 0.0
C1251 C 0.50967 0.02882 0.04238 0.0
C1252 C 0.51826 0.0534 0.0402 0.0
C1253 C 0.50193 0.07332 0.04347 0.0
C1254 C 0.4743 0.99916 0.0504 0.0
C1255 C 0.54477 0.05873 1.03408 0.0
C1256 C 0.55852 0.97744 0.04979 0.0
C1257 C 0.55969 0.96736 1.02808 0.0
C1258 C 0.54215 0.99715 0.05483 0.0
C1259 C 0.5269 1.00741 0.0377 0.0
C1260 C 0.5287 0.99769 1.01565 0.0
C1261 C 0.54472 0.9778 1.01124 0.0
C1262 C 0.54073 1.0066 0.07863 0.0
C1263 C 0.51357 1.00822 0.9966 0.0
H1264 H 0.44904 0.04217 0.05478 0.0
H1265 H 0.509 0.09193 0.04178 0.0
H1266 H 0.47599 0.98898 1.0343 0.0
H1267 H 0.48528 0.98897 0.06313 0.0
H1268 H 0.45463 0.9991 0.05561 0.0
H1269 H 0.54875 0.07882 1.03334 0.0
H1270 H 0.55735 0.05014 0.04653 0.0
H1271 H 0.54907 0.05051 1.01745 0.0
H1272 H 0.56963 0.96931 0.06301 0.0
H1273 H 0.54543 0.97019 0.99439 0.0
H1274 H 0.52163 1.00451 0.08505 0.0
H1275 H 0.54523 0.02657 0.07907 0.0
H1276 H 0.55352 0.99668 0.0901 0.0
H1277 H 0.49363 1.00625 1.00037 0.0
H1278 H 0.51744 0.99898 0.98031 0.0
H1279 H 0.51743 0.02822 0.99475 0.0
C1280 C 0.22917 0.8103 0.29864 0.0
C1281 C 0.22127 0.81395 0.27638 0.0
C1282 C 0.24869 0.79372 0.30375 0.0
C1283 C 0.2609 0.78064 0.28622 0.0
C1284 C 0.25347 0.78502 0.26373 0.0
C1285 C 0.23385 0.80134 0.25917 0.0
C1286 C 0.25581 0.78966 0.32798 0.0
C1287 C 0.26605 0.77218 0.24434 0.0
C1288 C 0.32623 0.75508 0.29471 0.0
C1289 C 0.3224 0.72947 0.29723 0.0
C1290 C 0.30654 0.77173 0.29157 0.0
C1291 C 0.28193 0.76297 0.29105 0.0
C1292 C 0.27777 0.73719 0.29368 0.0
C1293 C 0.29796 0.72079 0.29662 0.0
C1294 C 0.31221 0.7988 0.28846 0.0
C1295 C 0.25192 0.7269 0.29338 0.0
H1296 H 0.21941 0.81954 0.31211 0.0
H1297 H 0.22801 0.80395 0.24189 0.0
H1298 H 0.25299 0.76999 0.3325 0.0
H1299 H 0.27568 0.79379 0.33042 0.0
H1300 H 0.24489 0.80132 0.33966 0.0
H1301 H 0.25845 0.7779 0.22779 0.0
H1302 H 0.28611 0.77624 0.24458 0.0
H1303 H 0.2639 0.75191 0.24604 0.0
H1304 H 0.34486 0.76232 0.29507 0.0
H1305 H 0.29455 0.70123 0.29872 0.0
H1306 H 0.30219 0.80989 0.30118 0.0
H1307 H 0.30575 0.80497 0.27166 0.0
H1308 H 0.33223 0.80287 0.2899 0.0
H1309 H 0.24046 0.7364 0.30618 0.0
H1310 H 0.25152 0.70675 0.29674 0.0
H1311 H 0.2433 0.73039 0.27676 0.0
C1312 C 0.47143 0.9913 0.52205 0.0
C1313 C 0.48003 0.96687 0.52311 0.0
C1314 C 0.48765 1.01162 0.52508 0.0
C1315 C 0.51313 1.0076 0.52958 0.0
C1316 C 0.5218 0.98299 0.53075 0.0
C1317 C 0.50535 0.96316 0.52743 0.0
C1318 C 0.47751 0.03746 0.5235 0.0
C1319 C 0.54852 0.9775 0.53594 0.0
C1320 C 0.56144 0.05967 0.52298 0.0
C1321 C 0.56331 0.06867 0.54506 0.0
C1322 C 0.54508 0.04005 0.51758 0.0
C1323 C 0.53045 0.02884 0.53466 0.0
C1324 C 0.53298 0.03744 0.55703 0.0
C1325 C 0.54908 0.05716 0.56186 0.0
C1326 C 0.54297 0.03171 0.49347 0.0
C1327 C 0.51846 0.02592 0.576 0.0
H1328 H 0.45208 0.99459 0.51856 0.0
H1329 H 0.51248 0.94453 0.52843 0.0
H1330 H 0.47959 0.04693 0.53992 0.0
H1331 H 0.48813 0.04825 0.51093 0.0
H1332 H 0.4577 0.03768 0.51868 0.0
H1333 H 0.5526 0.95742 0.53565 0.0
H1334 H 0.56067 0.98685 0.52358 0.0
H1335 H 0.55333 0.98483 0.5528 0.0
H1336 H 0.57198 0.0686 0.5098 0.0
H1337 H 0.55034 0.06385 0.579 0.0
H1338 H 0.52371 0.03418 0.48754 0.0
H1339 H 0.54731 1.01177 0.49218 0.0
H1340 H 0.55551 0.0421 0.48214 0.0
H1341 H 0.49841 0.02794 0.57277 0.0
H1342 H 0.52278 0.03441 0.59255 0.0
H1343 H 0.52245 1.00588 0.57699 0.0
C1344 C 0.22633 0.2913 0.81469 0.0
C1345 C 0.21905 0.30885 0.79855 0.0
C1346 C 0.2465 0.27536 0.81114 0.0
C1347 C 0.25968 0.27623 0.79058 0.0
C1348 C 0.25249 0.29397 0.77416 0.0
C1349 C 0.23251 0.31025 0.77843 0.0
C1350 C 0.25371 0.25754 0.82954 0.0
C1351 C 0.26559 0.29539 0.75183 0.0
C1352 C 0.32571 0.25071 0.78931 0.0
C1353 C 0.32263 0.22672 0.78066 0.0
C1354 C 0.30557 0.26676 0.79265 0.0
C1355 C 0.28139 0.25913 0.78678 0.0
C1356 C 0.27805 0.23486 0.77814 0.0
C1357 C 0.29859 0.21891 0.77542 0.0
C1358 C 0.31023 0.29199 0.80254 0.0
C1359 C 0.25277 0.22592 0.77133 0.0
H1360 H 0.21613 0.29006 0.83033 0.0
H1361 H 0.22687 0.32344 0.76572 0.0
H1362 H 0.25215 0.2383 0.82337 0.0
H1363 H 0.27326 0.26056 0.83438 0.0
H1364 H 0.24203 0.25953 0.84477 0.0
H1365 H 0.2575 0.30962 0.74058 0.0
H1366 H 0.28538 0.29971 0.75448 0.0
H1367 H 0.26465 0.27722 0.74327 0.0
H1368 H 0.34411 0.25705 0.79353 0.0
H1369 H 0.29592 0.20063 0.76844 0.0
H1370 H 0.29918 0.29437 0.81809 0.0
H1371 H 0.30427 0.30647 0.79053 0.0
H1372 H 0.32999 0.29502 0.80667 0.0
H1373 H 0.24023 0.22615 0.78605 0.0
H1374 H 0.25319 0.20693 0.76432 0.0
H1375 H 0.24483 0.23854 0.75853 0.0
C1376 C 0.96866 0.98858 0.04884 0.0
C1377 C 0.97566 0.96468 0.04236 0.0
C1378 C 0.98469 1.00901 0.04573 0.0
C1379 C 1.00811 1.00572 1.03535 0.0
C1380 C 1.01478 0.98173 1.02808 0.0
C1381 C 0.99876 0.96163 1.03195 0.0
C1382 C 0.97684 0.03404 0.05415 0.0
C1383 C 0.039 0.97719 1.01627 0.0
C1384 C 0.03931 0.06216 1.00861 0.0
C1385 C 0.05813 0.06797 1.02403 0.0
C1386 C 0.02332 0.04194 1.01193 0.0
C1387 C 0.02542 0.02729 1.03159 0.0
C1388 C 0.04444 0.03304 0.04728 0.0
C1389 C 0.06075 0.05303 0.04317 0.0
C1390 C 1.00411 0.03626 0.99426 0.0
C1391 C 0.04718 1.01839 0.06871 0.0
H1392 H 0.95111 0.99114 0.05724 0.0
H1393 H 1.00443 0.94329 1.02685 0.0
H1394 H 0.99047 0.04095 0.06659 0.0
H1395 H 0.97644 0.04743 0.04005 0.0
H1396 H 0.95834 0.03361 0.06216 0.0
H1397 H 0.04105 0.95772 1.01076 0.0
H1398 H 0.04056 0.98935 1.00133 0.0
H1399 H 0.05456 0.98179 1.02765 0.0
H1400 H 0.03713 0.07352 0.99373 0.0
H1401 H 0.07494 0.05754 0.05535 0.0
H1402 H 0.98537 0.03788 1.00159 0.0
H1403 H 1.00626 1.01697 0.98833 0.0
H1404 H 1.00538 0.04882 0.97954 0.0
H1405 H 0.02967 0.01899 0.07837 0.0
H1406 H 0.06232 0.02549 0.07952 0.0
H1407 H 0.05092 0.99876 0.06473 0.0
C1408 C 0.7381 0.72197 0.79695 0.0
C1409 C 0.71433 0.72905 0.79009 0.0
C1410 C 0.75866 0.73787 0.79404 0.0
C1411 C 0.75567 0.76126 0.78349 0.0
C1412 C 0.73182 0.76803 0.77587 0.0
C1413 C 0.71157 0.75213 0.77953 0.0
C1414 C 0.78352 0.72993 0.80285 0.0
C1415 C 0.7276 0.79222 0.76387 0.0
C1416 C 0.80322 0.81367 0.79164 0.0
C1417 C 0.81844 0.81085 0.77273 0.0
C1418 C 0.78306 0.7975 0.79557 0.0
C1419 C 0.77742 0.77844 0.77992 0.0
C1420 C 0.79236 0.77613 0.76048 0.0
C1421 C 0.81274 0.79197 0.75735 0.0
C1422 C 0.76812 0.80045 0.81678 0.0
C1423 C 0.78682 0.75686 0.74285 0.0
H1424 H 0.74045 0.70443 0.80544 0.0
H1425 H 0.69335 0.75787 0.77413 0.0
H1426 H 0.79711 0.72933 0.78893 0.0
H1427 H 0.79034 0.7436 0.81528 0.0
H1428 H 0.78286 0.71148 0.81099 0.0
H1429 H 0.70822 0.79436 0.75811 0.0
H1430 H 0.73216 0.8078 0.77521 0.0
H1431 H 0.73997 0.79361 0.74907 0.0
H1432 H 0.80764 0.8279 0.8038 0.0
H1433 H 0.82432 0.78962 0.74266 0.0
H1434 H 0.76848 0.78301 0.82656 0.0
H1435 H 0.74857 0.80428 0.81252 0.0
H1436 H 0.77514 0.81563 0.82759 0.0
H1437 H 0.78823 0.73815 0.7503 0.0
H1438 H 0.7996 0.75798 0.72829 0.0
H1439 H 0.76764 0.75908 0.73665 0.0
C1440 C 0.7115 0.25387 0.27744 0.0
C1441 C 0.7152 0.2285 0.27344 0.0
C1442 C 0.73135 0.27038 0.28052 0.0
C1443 C 0.75596 0.26171 0.27939 0.0
C1444 C 0.75996 0.23617 0.27518 0.0
C1445 C 0.73963 0.2199 0.27241 0.0
C1446 C 0.72588 0.29717 0.28538 0.0
C1447 C 0.78579 0.226 0.27365 0.0
C1448 C 0.80821 0.30966 0.27184 0.0
C1449 C 0.81746 0.31178 0.29383 0.0
C1450 C 0.7884 0.29339 0.26679 0.0
C1451 C 0.77725 0.2791 0.28414 0.0
C1452 C 0.78605 0.28193 0.30643 0.0
C1453 C 0.80596 0.29794 0.3109 0.0
C1454 C 0.77984 0.29097 0.24277 0.0
C1455 C 0.77462 0.26776 0.32566 0.0
H1456 H 0.69286 0.26101 0.2784 0.0
H1457 H 0.74291 0.20051 0.26916 0.0
H1458 H 0.7333 0.30221 0.30215 0.0
H1459 H 0.73515 0.30915 0.27283 0.0
H1460 H 0.7058 0.30123 0.28512 0.0
H1461 H 0.78599 0.20613 0.2691 0.0
H1462 H 0.7965 0.23645 0.26091 0.0
H1463 H 0.79535 0.22833 0.29001 0.0
H1464 H 0.81713 0.31988 0.25845 0.0
H1465 H 0.81284 0.29938 0.32798 0.0
H1466 H 0.75987 0.29523 0.24155 0.0
H1467 H 0.78232 0.27164 0.23704 0.0
H1468 H 0.79009 0.3034 0.23122 0.0
H1469 H 0.75457 0.27174 0.32662 0.0
H1470 H 0.78317 0.27239 0.34211 0.0
H1471 H 0.77666 0.24765 0.32276 0.0
C1472 C 0.80356 0.22487 0.78066 0.0
C1473 C 0.81931 0.22799 0.79919 0.0
C1474 C 0.78365 0.24132 0.77667 0.0
C1475 C 0.77879 0.261 0.7919 0.0
C1476 C 0.79427 0.26362 0.81099 0.0
C1477 C 0.8144 0.24747 0.81414 0.0
C1478 C 0.76813 0.23801 0.75582 0.0
C1479 C 0.78958 0.28353 0.8282 0.0
C1480 C 0.74023 0.3176 0.77386 0.0
C1481 C 0.71646 0.31114 0.78116 0.0
C1482 C 0.76056 0.30147 0.777 0.0
C1483 C 0.75733 0.2785 0.78825 0.0
C1484 C 0.73349 0.27243 0.79638 0.0
C1485 C 0.71346 0.28851 0.79244 0.0
C1486 C 0.78539 0.30865 0.76761 0.0
C1487 C 0.72904 0.24876 0.80914 0.0
H1488 H 0.80736 0.21017 0.76881 0.0
H1489 H 0.82639 0.25006 0.82854 0.0
H1490 H 0.74863 0.23465 0.76055 0.0
H1491 H 0.76857 0.25515 0.7456 0.0
H1492 H 0.7746 0.22239 0.74527 0.0
H1493 H 0.80267 0.28259 0.84255 0.0
H1494 H 0.79122 0.30197 0.82024 0.0
H1495 H 0.7705 0.2819 0.83479 0.0
H1496 H 0.74273 0.33476 0.76476 0.0
H1497 H 0.69519 0.28325 0.79812 0.0
H1498 H 0.79161 0.29452 0.75536 0.0
H1499 H 0.79931 0.3093 0.78127 0.0
H1500 H 0.78496 0.32689 0.75909 0.0
H1501 H 0.73284 0.23271 0.79812 0.0
H1502 H 0.70979 0.24729 0.81541 0.0
H1503 H 0.74182 0.24754 0.82368 0.0
C1504 C 0.79977 0.71947 0.27472 0.0
C1505 C 0.8237 0.72649 0.28117 0.0
C1506 C 0.77934 0.73549 0.27783 0.0
C1507 C 0.78265 0.75894 0.28818 0.0
C1508 C 0.80668 0.76566 0.29536 0.0
C1509 C 0.82677 0.74964 0.29151 0.0
C1510 C 0.75428 0.72757 0.2695 0.0
C1511 C 0.81126 0.78991 0.30712 0.0
C1512 C 0.73514 0.81147 0.28064 0.0
C1513 C 0.72034 0.80881 0.29986 0.0
C1514 C 0.75514 0.79521 0.27642 0.0
C1515 C 0.76105 0.7762 0.29205 0.0
C1516 C 0.74654 0.77404 0.31179 0.0
C1517 C 0.72631 0.78999 0.31522 0.0
C1518 C 0.76961 0.79801 0.25491 0.0
C1519 C 0.75238 0.75484 0.32941 0.0
H1520 H 0.79715 0.70187 0.26642 0.0
H1521 H 0.84511 0.75535 0.29662 0.0
H1522 H 0.741 0.72702 0.28367 0.0
H1523 H 0.74722 0.74122 0.25716 0.0
H1524 H 0.7547 0.7091 0.26141 0.0
H1525 H 0.83078 0.79207 0.31248 0.0
H1526 H 0.80646 0.80544 0.29579 0.0
H1527 H 0.79926 0.7914 0.32217 0.0
H1528 H 0.73051 0.82565 0.26849 0.0
H1529 H 0.71506 0.78774 0.33015 0.0
H1530 H 0.76894 0.78052 0.24524 0.0
H1531 H 0.78926 0.8018 0.25879 0.0
H1532 H 0.76242 0.81316 0.24416 0.0
H1533 H 0.75072 0.73611 0.32208 0.0
H1534 H 0.73993 0.75608 0.3442 0.0
H1535 H 0.7717 0.75703 0.33525 0.0
C1536 C 0.5325 0.46188 0.04526 0.0
C1537 C 0.55808 0.46559 0.04808 0.0
C1538 C 0.51592 0.4817 0.0425 0.0
C1539 C 0.52474 0.5063 0.04271 0.0
C1540 C 0.55047 0.51032 0.04581 0.0
C1541 C 0.5668 0.49002 0.04834 0.0
C1542 C 0.48889 0.47619 0.03888 0.0
C1543 C 0.5608 0.53616 0.04632 0.0
C1544 C 0.4872 0.55526 1.01118 0.0
C1545 C 0.47424 0.56742 1.02842 0.0
C1546 C 0.50336 0.53549 1.01562 0.0
C1547 C 0.50723 0.52748 0.03802 0.0
C1548 C 0.4938 0.53927 0.05556 0.0
C1549 C 0.47738 0.55895 0.05057 0.0
C1550 C 0.51659 0.52337 0.9962 0.0
C1551 C 0.49733 0.53153 0.07971 0.0
H1552 H 0.52523 0.44326 0.04498 0.0
H1553 H 0.58635 0.49333 0.05067 0.0
H1554 H 0.47758 0.48601 0.05157 0.0
H1555 H 0.48308 0.48298 1.02208 0.0
H1556 H 0.48473 0.45615 0.03994 0.0
H1557 H 0.58085 0.53642 0.05021 0.0
H1558 H 0.55784 0.54519 1.02979 0.0
H1559 H 0.55093 0.54732 0.0591 0.0
H1560 H 0.48498 0.56156 0.99398 0.0
H1561 H 0.46787 0.56839 0.06408 0.0
H1562 H 0.51249 0.50332 0.99595 0.0
H1563 H 0.53682 0.52543 0.99831 0.0
H1564 H 0.51124 0.53139 0.97971 0.0
H1565 H 0.49315 0.5116 0.08165 0.0
H1566 H 0.48541 0.54215 0.0914 0.0
H1567 H 0.51689 0.53424 0.08465 0.0
C1568 C 0.05893 0.4786 0.5502 0.0
C1569 C 0.06261 0.47093 0.5279 0.0
C1570 C 0.04251 0.49821 0.55541 0.0
C1571 C 0.02961 0.51075 0.53793 0.0
C1572 C 0.03403 0.50354 0.5154 0.0
C1573 C 0.05018 0.48383 0.51074 0.0
C1574 C 0.03841 0.50508 0.57968 0.0
C1575 C 0.02137 0.51645 0.49606 0.0
C1576 C 0.96987 0.54804 0.54783 0.0
C1577 C 0.97862 0.57246 0.54834 0.0
C1578 C 0.98622 0.52778 0.54521 0.0
C1579 C 1.01204 0.53182 0.54284 0.0
C1580 C 0.02091 0.5564 0.54352 0.0
C1581 C 1.00429 0.57617 0.54633 0.0
C1582 C 0.97582 0.50197 0.54477 0.0
C1583 C 0.04805 0.56194 0.54076 0.0
H1584 H 0.06803 0.46861 0.56364 0.0
H1585 H 0.05282 0.47818 0.49342 0.0
H1586 H 0.04254 0.52492 0.5823 0.0
H1587 H 1.01873 0.50221 0.58412 0.0
H1588 H 0.05003 0.49402 0.59132 0.0
H1589 H 0.02711 0.50903 0.47946 0.0
H1590 H 1.00108 0.51444 0.49763 0.0
H1591 H 0.02558 0.53648 0.4965 0.0
H1592 H 0.95024 0.54472 0.54952 0.0
H1593 H 1.01161 0.59477 0.5467 0.0
H1594 H 0.98538 0.4903 0.55739 0.0
H1595 H 0.97909 0.49356 0.52804 0.0
H1596 H 0.95569 0.50163 0.54827 0.0
H1597 H 0.05897 0.55154 0.55337 0.0
H1598 H 0.05224 0.5819 0.54261 0.0
H1599 H 0.0543 0.55585 0.52389 0.0
C1600 C 0.06198 0.5581 1.02281 0.0
C1601 C 0.06126 0.57036 0.04358 0.0
C1602 C 0.04581 0.53811 1.01814 0.0
C1603 C 0.02886 0.52974 1.03478 0.0
C1604 C 0.02873 0.54168 0.05597 0.0
C1605 C 0.04457 0.56185 0.05995 0.0
C1606 C 0.04644 0.52629 0.9952 0.0
C1607 C 1.01173 0.53322 0.07455 0.0
C1608 C 0.97094 0.49131 1.02031 0.0
C1609 C 0.97889 0.46711 1.02468 0.0
C1610 C 0.98709 0.51175 1.02293 0.0
C1611 C 1.01174 0.50813 1.03051 0.0
C1612 C 0.01965 0.48376 1.03523 0.0
C1613 C 1.00335 0.46374 1.03211 0.0
C1614 C 0.97781 0.53727 1.01742 0.0
C1615 C 0.04536 0.47877 0.04389 0.0
H1616 H 0.07447 0.56473 1.00992 0.0
H1617 H 0.04384 0.57114 0.07608 0.0
H1618 H 0.05071 0.50636 0.99678 0.0
H1619 H 0.02802 0.52779 0.98717 0.0
H1620 H 0.06035 0.53497 0.98399 0.0
H1621 H 1.01427 0.54401 0.09026 0.0
H1622 H 0.99224 0.53499 0.06909 0.0
H1623 H 1.01504 0.51345 0.07832 0.0
H1624 H 0.95228 0.49426 1.01435 0.0
H1625 H 1.00987 0.44525 1.03569 0.0
H1626 H 0.99009 0.54607 1.00482 0.0
H1627 H 0.97823 0.54897 1.03271 0.0
H1628 H 0.95868 0.53704 1.01071 0.0
H1629 H 0.05924 0.48586 1.03181 0.0
H1630 H 0.04882 0.4588 0.04666 0.0
H1631 H 0.04828 0.48865 0.06001 0.0
C1632 C 0.53388 0.57241 0.53573 0.0
C1633 C 0.55792 0.56921 0.52724 0.0
C1634 C 0.51765 0.55234 0.53899 0.0
C1635 C 0.52515 0.52811 0.53322 0.0
C1636 C 0.5494 0.52466 0.52462 0.0
C1637 C 0.56553 0.54512 0.52197 0.0
C1638 C 0.49243 0.55713 0.54883 0.0
C1639 C 0.55822 0.49933 0.51791 0.0
C1640 C 0.49303 0.47316 0.56161 0.0
C1641 C 0.47545 0.4657 0.54556 0.0
C1642 C 0.50892 0.49337 0.55789 0.0
C1643 C 0.50798 0.50643 0.53725 0.0
C1644 C 0.49019 0.49907 0.52092 0.0
C1645 C 0.47396 0.47905 0.52537 0.0
C1646 C 0.52679 0.50074 0.57619 0.0
C1647 C 0.48869 0.51201 0.49851 0.0
H1648 H 0.52766 0.59082 0.54001 0.0
H1649 H 0.58385 0.54232 0.51515 0.0
H1650 H 0.47793 0.55094 0.53694 0.0
H1651 H 0.49009 0.54635 0.56455 0.0
H1652 H 0.4894 0.57695 0.55266 0.0
H1653 H 0.5771 0.49971 0.51066 0.0
H1654 H 0.55823 0.48693 0.53275 0.0
H1655 H 0.54539 0.49125 0.50536 0.0
H1656 H 0.49437 0.46303 0.57729 0.0
H1657 H 0.46077 0.47326 0.51271 0.0
H1658 H 0.52386 0.52034 0.58085 0.0
H1659 H 0.54602 0.49906 0.57001 0.0
H1660 H 0.5248 0.48921 0.59154 0.0
H1661 H 0.48453 0.53185 0.50102 0.0
H1662 H 0.47433 0.50392 0.48741 0.0
H1663 H 0.50679 0.5109 0.48986 0.0
C1664 C 0.16489 0.28174 0.39412 0.0
C1665 C 0.14624 0.26435 0.39004 0.0
C1666 C 0.16203 0.3002 0.41064 0.0
C1667 C 0.13996 0.3014 0.42342 0.0
C1668 C 0.12133 0.28347 0.41968 0.0
C1669 C 0.12471 0.26521 0.40311 0.0
C1670 C 0.1824 0.31882 0.41404 0.0
C1671 C 0.09756 0.28388 0.43289 0.0
C1672 C 0.13771 0.33957 0.4777 0.0
C1673 C 0.12679 0.36163 0.47029 0.0
C1674 C 0.14232 0.31992 0.46268 0.0
C1675 C 0.13571 0.3222 0.43968 0.0
C1676 C 0.12473 0.34444 0.43214 0.0
C1677 C 0.12064 0.36384 0.4474 0.0
C1678 C 0.15417 0.29665 0.47147 0.0
C1679 C 0.11699 0.34767 0.40792 0.0
H1680 H 0.18157 0.28121 0.38409 0.0
H1681 H 0.11022 0.2518 0.40011 0.0
H1682 H 0.17572 0.33747 0.40934 0.0
H1683 H 0.1878 0.31951 0.43202 0.0
H1684 H 0.199 0.31452 0.40381 0.0
H1685 H 0.08488 0.26869 0.42801 0.0
H1686 H 0.10162 0.28226 0.45111 0.0
H1687 H 0.08795 0.30173 0.43031 0.0
H1688 H 0.1426 0.33759 0.49528 0.0
H1689 H 0.11226 0.38074 0.44136 0.0
H1690 H 0.17115 0.29253 0.46177 0.0
H1691 H 0.14143 0.28082 0.46917 0.0
H1692 H 0.15904 0.29803 0.48957 0.0
H1693 H 0.13318 0.34543 0.3967 0.0
H1694 H 0.10859 0.36603 0.40471 0.0
H1695 H 0.1034 0.33322 0.40327 0.0
C1696 C 0.02134 0.87816 0.65421 0.0
C1697 C 0.02303 0.89973 0.6412 0.0
C1698 C 1.00289 0.87526 0.6707 0.0
C1699 C 0.9855 0.89438 0.67437 0.0
C1700 C 0.98757 0.91651 0.6617 0.0
C1701 C 1.00628 0.91892 0.64531 0.0
C1702 C 1.00166 0.85144 0.68383 0.0
C1703 C 0.96952 0.93737 0.66499 0.0
C1704 C 0.92255 0.8748 0.69721 0.0
C1705 C 0.9244 0.88031 0.72026 0.0
C1706 C 0.94206 0.87959 0.68222 0.0
C1707 C 0.9642 0.89039 0.69023 0.0
C1708 C 0.96608 0.89649 0.71339 0.0
C1709 C 0.94622 0.89139 0.7281 0.0
C1710 C 0.93914 0.87255 0.65779 0.0
C1711 C 0.98927 0.90801 0.72272 0.0
H1712 H 0.03424 0.86325 0.65123 0.0
H1713 H 1.00743 0.93563 0.63533 0.0
H1714 H 1.00285 0.85539 0.70209 0.0
H1715 H 0.9837 0.84217 0.68081 0.0
H1716 H 1.01673 0.8385 0.67927 0.0
H1717 H 0.97458 0.95399 0.65506 0.0
H1718 H 0.95079 0.93131 0.65985 0.0
H1719 H 0.96855 0.9425 0.68303 0.0
H1720 H 0.90586 0.86628 0.69082 0.0
H1721 H 0.94795 0.89575 0.74581 0.0
H1722 H 0.95311 0.85847 0.65323 0.0
H1723 H 0.94236 0.88886 0.6469 0.0
H1724 H 0.92053 0.86499 0.65404 0.0
H1725 H 1.00487 0.89491 0.72101 0.0
H1726 H 0.98735 0.91307 0.74073 0.0
H1727 H 0.99411 0.92479 0.71299 0.0
C1728 C 0.37293 0.75147 0.89085 0.0
C1729 C 0.38867 0.77197 0.88976 0.0
C1730 C 0.37568 0.73343 0.90773 0.0
C1731 C 0.39514 0.73547 0.92358 0.0
C1732 C 0.41091 0.75637 0.92271 0.0
C1733 C 0.40726 0.77452 0.90602 0.0
C1734 C 0.35804 0.71187 0.90829 0.0
C1735 C 0.43227 0.75906 0.93884 0.0
C1736 C 0.39482 0.69595 0.97711 0.0
C1737 C 0.40923 0.67563 0.97066 0.0
C1738 C 0.38982 0.71541 0.96197 0.0
C1739 C 0.39998 0.71494 0.93999 0.0
C1740 C 0.41463 0.69453 0.93346 0.0
C1741 C 0.41858 0.67499 0.94862 0.0
C1742 C 0.37353 0.73642 0.96945 0.0
C1743 C 0.42644 0.69341 0.91049 0.0
H1744 H 0.35847 0.74945 0.87837 0.0
H1745 H 0.4196 0.79025 0.90516 0.0
H1746 H 0.36802 0.69465 0.90398 0.0
H1747 H 0.35041 0.70951 0.92547 0.0
H1748 H 0.3425 0.71419 0.89629 0.0
H1749 H 0.44261 0.77653 0.93622 0.0
H1750 H 0.42555 0.75854 0.95644 0.0
H1751 H 0.44519 0.74335 0.93674 0.0
H1752 H 0.38731 0.69661 0.99399 0.0
H1753 H 0.42954 0.65938 0.94325 0.0
H1754 H 0.35772 0.73842 0.95773 0.0
H1755 H 0.38402 0.75399 0.96899 0.0
H1756 H 0.36629 0.73366 0.98674 0.0
H1757 H 0.41197 0.69286 0.89731 0.0
H1758 H 0.4385 0.67699 0.90847 0.0
H1759 H 0.43767 0.71023 0.90754 0.0
C1760 C 0.59195 0.14482 0.22575 0.0
C1761 C 0.61252 0.15856 0.21868 0.0
C1762 C 0.57215 0.13978 0.21095 0.0
C1763 C 0.57284 0.14866 0.18849 0.0
C1764 C 0.59358 0.1625 0.18131 0.0
C1765 C 0.61305 0.16721 0.19638 0.0
C1766 C 0.55041 0.12505 0.21937 0.0
C1767 C 0.59519 0.17252 0.15765 0.0
C1768 C 0.53312 0.12058 0.14164 0.0
C1769 C 0.51444 0.13828 0.13925 0.0
C1770 C 0.5518 0.12328 0.15804 0.0
C1771 C 0.55179 0.14412 0.17251 0.0
C1772 C 0.53245 0.16159 0.17059 0.0
C1773 C 0.51414 0.1585 0.15401 0.0
C1774 C 0.57203 0.10423 0.15938 0.0
C1775 C 0.53152 0.18404 0.1856 0.0
H1776 H 0.5913 0.13797 0.24286 0.0
H1777 H 0.62876 0.17781 0.19059 0.0
H1778 H 0.53335 0.13626 0.21809 0.0
H1779 H 0.54772 0.10846 0.20872 0.0
H1780 H 0.55278 0.11907 0.23711 0.0
H1781 H 0.61267 0.18268 0.15457 0.0
H1782 H 0.5938 0.1572 0.14535 0.0
H1783 H 0.57952 0.1852 0.15439 0.0
H1784 H 0.53351 0.10494 0.13029 0.0
H1785 H 0.49974 0.17226 0.15234 0.0
H1786 H 0.57391 0.09736 0.17688 0.0
H1787 H 0.5899 0.11279 0.15468 0.0
H1788 H 0.56858 0.08829 0.14808 0.0
H1789 H 0.53273 0.17847 0.20352 0.0
H1790 H 0.51437 0.19493 0.18314 0.0
H1791 H 0.54757 0.19614 0.18206 0.0
C1792 C 0.14325 0.69609 0.0952 0.0
C1793 C 0.12918 0.67556 0.10183 0.0
C1794 C 0.14779 0.71586 0.11011 0.0
C1795 C 0.13779 0.71534 0.13215 0.0
C1796 C 0.12362 0.69465 0.13892 0.0
C1797 C 0.11975 0.675 0.12385 0.0
C1798 C 0.16326 0.73734 0.10226 0.0
C1799 C 0.11223 0.69336 0.16206 0.0
C1800 C 0.1651 0.7538 0.17999 0.0
C1801 C 0.14851 0.77359 0.18138 0.0
C1802 C 0.16232 0.73524 0.16359 0.0
C1803 C 0.14223 0.7362 0.14832 0.0
C1804 C 0.12567 0.75643 0.14939 0.0
C1805 C 0.12909 0.77493 0.16579 0.0
C1806 C 0.1806 0.71425 0.16297 0.0
C1807 C 0.10388 0.75816 0.13363 0.0
H1808 H 0.15067 0.69677 0.07829 0.0
H1809 H 0.10878 0.65936 0.12925 0.0
H1810 H 0.15224 0.75456 0.10284 0.0
H1811 H 0.17925 0.7399 0.11369 0.0
H1812 H 0.17022 0.73475 0.08485 0.0
H1813 H 0.10121 0.67629 0.16458 0.0
H1814 H 0.12689 0.69405 0.17507 0.0
H1815 H 0.10005 0.70953 0.16478 0.0
H1816 H 0.18016 0.75265 0.19195 0.0
H1817 H 0.11614 0.79012 0.16681 0.0
H1818 H 0.18818 0.71213 0.14576 0.0
H1819 H 0.17116 0.69672 0.16733 0.0
H1820 H 0.19615 0.71705 0.17488 0.0
H1821 H 0.11022 0.75749 0.11592 0.0
H1822 H 0.09309 0.77536 0.13615 0.0
H1823 H 0.09146 0.74212 0.13625 0.0
C1824 C 0.53517 0.91747 0.42993 0.0
C1825 C 0.51813 0.8984 0.43364 0.0
C1826 C 0.55387 0.9152 0.41351 0.0
C1827 C 0.55561 0.89335 0.40043 0.0
C1828 C 0.53799 0.87436 0.40375 0.0
C1829 C 0.51957 0.87711 0.42025 0.0
C1830 C 0.57219 0.93591 0.41057 0.0
C1831 C 0.53889 0.85083 0.39019 0.0
C1832 C 0.59427 0.89077 0.34637 0.0
C1833 C 0.61591 0.87909 0.35384 0.0
C1834 C 0.57472 0.89604 0.36135 0.0
C1835 C 0.57674 0.88949 0.3844 0.0
C1836 C 0.59874 0.87814 0.39205 0.0
C1837 C 0.61795 0.87319 0.3768 0.0
C1838 C 0.55167 0.90816 0.3524 0.0
C1839 C 0.60179 0.87061 0.41635 0.0
H1840 H 0.5342 0.93396 0.44019 0.0
H1841 H 0.50643 0.8623 0.42292 0.0
H1842 H 0.59086 0.92949 0.41549 0.0
H1843 H 0.57313 0.94151 0.39264 0.0
H1844 H 0.56742 0.95232 0.42087 0.0
H1845 H 0.52365 0.83796 0.39453 0.0
H1846 H 0.53774 0.85519 0.372 0.0
H1847 H 0.55672 0.84127 0.39305 0.0
H1848 H 0.59241 0.89545 0.32873 0.0
H1849 H 0.63452 0.86422 0.38291 0.0
H1850 H 0.54715 0.92474 0.36251 0.0
H1851 H 0.53587 0.89525 0.3539 0.0
H1852 H 0.55356 0.91369 0.33449 0.0
H1853 H 0.59881 0.88672 0.42752 0.0
H1854 H 0.62035 0.86282 0.41986 0.0
H1855 H 0.58772 0.85655 0.42078 0.0
C1856 C 0.41195 0.3666 0.62862 0.0
C1857 C 0.40578 0.36355 0.60582 0.0
C1858 C 0.40753 0.3479 0.64457 0.0
C1859 C 0.39653 0.32537 0.63777 0.0
C1860 C 0.38966 0.32236 0.6149 0.0
C1861 C 0.39431 0.34143 0.59924 0.0
C1862 C 0.4153 0.35203 0.66867 0.0
C1863 C 0.37797 0.29869 0.60683 0.0
C1864 C 0.41079 0.26952 0.67486 0.0
C1865 C 0.38962 0.26775 0.68837 0.0
C1866 C 0.41293 0.28765 0.65798 0.0
C1867 C 0.39347 0.30469 0.65446 0.0
C1868 C 0.3718 0.30266 0.66775 0.0
C1869 C 0.37011 0.28421 0.6845 0.0
C1870 C 0.4363 0.28885 0.6442 0.0
C1871 C 0.35062 0.32038 0.66464 0.0
H1872 H 0.42075 0.38355 0.63404 0.0
H1873 H 0.38947 0.33876 0.58173 0.0
H1874 H 0.39946 0.34888 0.68012 0.0
H1875 H 0.42988 0.3386 0.67332 0.0
H1876 H 0.42252 0.37096 0.67152 0.0
H1877 H 0.37205 0.29982 0.58897 0.0
H1878 H 0.39133 0.28331 0.60857 0.0
H1879 H 0.3617 0.29407 0.61734 0.0
H1880 H 0.42594 0.25683 0.67765 0.0
H1881 H 0.3537 0.28298 0.69485 0.0
H1882 H 0.44566 0.30681 0.64697 0.0
H1883 H 0.4318 0.28765 0.62604 0.0
H1884 H 0.44939 0.27379 0.64846 0.0
H1885 H 0.35672 0.33936 0.66885 0.0
H1886 H 0.33454 0.3156 0.67537 0.0
H1887 H 0.34462 0.32053 0.64679 0.0
C1888 C 0.94516 0.14608 0.8454 0.0
C1889 C 0.92357 0.15779 0.85291 0.0
C1890 C 0.96479 0.14085 0.86034 0.0
C1891 C 0.96288 0.14745 0.88337 0.0
C1892 C 0.94094 0.15887 0.89105 0.0
C1893 C 0.92165 0.16379 0.87584 0.0
C1894 C 0.98778 0.12868 0.85137 0.0
C1895 C 0.93801 0.16644 0.91534 0.0
C1896 C 1.0041 0.1191 0.92901 0.0
C1897 C 0.02115 0.13811 0.93292 0.0
C1898 C 0.98554 0.1215 0.91246 0.0
C1899 C 0.98399 0.14341 0.89941 0.0
C1900 C 1.0017 0.16229 0.90288 0.0
C1901 C 0.01996 0.15943 0.91954 0.0
C1902 C 0.96711 0.10091 0.9094 0.0
C1903 C 1.00104 0.18584 0.8893 0.0
H1904 H 0.94692 0.14135 0.82778 0.0
H1905 H 0.90512 0.17278 0.88196 0.0
H1906 H 1.00364 0.14152 0.85291 0.0
H1907 H 0.99224 0.11203 0.86144 0.0
H1908 H 0.98586 0.12324 0.83345 0.0
H1909 H 0.91952 0.17439 0.91885 0.0
H1910 H 0.94087 0.1503 0.92652 0.0
H1911 H 0.95222 0.18038 0.91975 0.0
H1912 H 1.00487 0.10259 0.93929 0.0
H1913 H 0.03313 0.17417 0.92236 0.0
H1914 H 0.96612 0.09543 0.89145 0.0
H1915 H 0.94848 0.1074 0.91434 0.0
H1916 H 0.97179 0.0844 0.91963 0.0
H1917 H 1.00255 0.18146 0.87115 0.0
H1918 H 1.01618 0.1987 0.89389 0.0
H1919 H 0.98315 0.19539 0.89183 0.0
C1920 C 0.91333 0.67288 0.62549 0.0
C1921 C 0.90657 0.67424 0.60268 0.0
C1922 C 0.90838 0.69227 0.64056 0.0
C1923 C 0.89613 0.71378 0.63288 0.0
C1924 C 0.88873 0.71512 0.61 0.0
C1925 C 0.89402 0.69539 0.5952 0.0
C1926 C 0.91683 0.68993 0.66467 0.0
C1927 C 0.87565 0.73762 0.60103 0.0
C1928 C 0.86845 0.75504 0.67881 0.0
C1929 C 0.88717 0.7726 0.68195 0.0
C1930 C 0.87068 0.73631 0.6624 0.0
C1931 C 0.89212 0.73507 0.64873 0.0
C1932 C 0.91068 0.75329 0.65143 0.0
C1933 C 0.90799 0.77173 0.66794 0.0
C1934 C 0.85043 0.71736 0.6602 0.0
C1935 C 0.93372 0.75299 0.63719 0.0
H1936 H 0.92298 0.6567 0.63161 0.0
H1937 H 0.88869 0.69674 0.57768 0.0
H1938 H 0.90101 0.69261 0.67624 0.0
H1939 H 0.92533 0.6717 0.66824 0.0
H1940 H 0.93056 0.70454 0.66849 0.0
H1941 H 0.86958 0.73521 0.58332 0.0
H1942 H 0.85929 0.74187 0.61154 0.0
H1943 H 0.88814 0.75382 0.60191 0.0
H1944 H 0.85233 0.75555 0.68958 0.0
H1945 H 0.92252 0.78526 0.67017 0.0
H1946 H 0.85752 0.69898 0.66527 0.0
H1947 H 0.84439 0.71591 0.64242 0.0
H1948 H 0.83416 0.72186 0.67078 0.0
H1949 H 0.94368 0.73528 0.63947 0.0
H1950 H 0.94649 0.76837 0.64136 0.0
H1951 H 0.92864 0.7544 0.61917 0.0
C1952 C 0.02428 0.16369 0.42819 0.0
C1953 C 0.02129 0.14169 0.44037 0.0
C1954 C 0.042 0.16579 0.41097 0.0
C1955 C 0.05742 0.14545 0.4058 0.0
C1956 C 0.0542 0.12303 0.41782 0.0
C1957 C 0.03613 0.12138 0.43487 0.0
C1958 C 0.04452 0.19 0.39858 0.0
C1959 C 0.07024 0.10092 0.41299 0.0
C1960 C 0.09259 0.14718 0.3498 0.0
C1961 C 0.11562 0.15668 0.35638 0.0
C1962 C 0.07362 0.14302 0.36566 0.0
C1963 C 0.07776 0.14822 0.38876 0.0
C1964 C 0.1012 0.15713 0.39553 0.0
C1965 C 0.11971 0.16125 0.37935 0.0
C1966 C 0.0489 0.13375 0.3576 0.0
C1967 C 0.10659 0.16293 0.41987 0.0
H1968 H 1.0128 0.17945 0.43222 0.0
H1969 H 0.03393 0.10432 0.44418 0.0
H1970 H 0.06299 0.19809 0.40187 0.0
H1971 H 0.04305 0.18696 0.38018 0.0
H1972 H 0.03026 0.2036 0.40369 0.0
H1973 H 0.06475 0.08451 0.42301 0.0
H1974 H 0.06927 0.09615 0.39487 0.0
H1975 H 0.08976 0.10541 0.41685 0.0
H1976 H 0.08912 0.14362 0.33215 0.0
H1977 H 0.13739 0.16847 0.38476 0.0
H1978 H 0.03466 0.14809 0.36051 0.0
H1979 H 0.04334 0.11717 0.3673 0.0
H1980 H 0.04905 0.12905 0.33942 0.0
H1981 H 0.09445 0.17813 0.42565 0.0
H1982 H 0.12609 0.16851 0.42261 0.0
H1983 H 0.10256 0.14662 0.43054 0.0
C1984 C 0.64217 0.34281 0.09579 0.0
C1985 C 0.63015 0.36431 0.10312 0.0
C1986 C 0.64725 0.32318 0.11079 0.0
C1987 C 0.64021 0.325 0.13373 0.0
C1988 C 0.62856 0.34688 0.14125 0.0
C1989 C 0.62377 0.36615 0.12598 0.0
C1990 C 0.65967 0.30025 0.10197 0.0
C1991 C 0.62053 0.34975 0.16543 0.0
C1992 C 0.62736 0.26772 0.16944 0.0
C1993 C 0.64837 0.26638 0.18321 0.0
C1994 C 0.62489 0.2861 0.15283 0.0
C1995 C 0.64387 0.3038 0.14979 0.0
C1996 C 0.66546 0.30214 0.16326 0.0
C1997 C 0.66747 0.28346 0.17977 0.0
C1998 C 0.60167 0.28685 0.13879 0.0
C1999 C 0.68615 0.32055 0.16068 0.0
H2000 H 0.6472 0.34108 0.07823 0.0
H2001 H 0.61456 0.38261 0.13199 0.0
H2002 H 0.67599 0.29567 0.11244 0.0
H2003 H 0.64676 0.28441 0.10306 0.0
H2004 H 0.66567 0.30234 0.08421 0.0
H2005 H 0.6126 0.36826 0.16887 0.0
H2006 H 0.60645 0.33559 0.16955 0.0
H2007 H 0.63644 0.34676 0.17686 0.0
H2008 H 0.61255 0.25453 0.17187 0.0
H2009 H 0.68375 0.28258 0.19033 0.0
H2010 H 0.60649 0.28524 0.12074 0.0
H2011 H 0.59216 0.30479 0.14107 0.0
H2012 H 0.58862 0.27178 0.14316 0.0
H2013 H 0.69206 0.32158 0.14285 0.0
H2014 H 0.7024 0.3158 0.17123 0.0
H2015 H 0.67957 0.33917 0.16555 0.0
C2016 C 0.42293 0.87149 0.8746 0.0
C2017 C 0.42563 0.87681 0.85159 0.0
C2018 C 0.44225 0.87552 0.89 0.0
C2019 C 0.46497 0.88547 0.88245 0.0
C2020 C 0.46776 0.8912 0.8593 0.0
C2021 C 0.44813 0.88677 0.84417 0.0
C2022 C 0.43842 0.86878 0.9144 0.0
C2023 C 0.49159 0.90185 0.85047 0.0
C2024 C 0.50605 0.91453 0.92775 0.0
C2025 C 0.52249 0.89529 0.93265 0.0
C2026 C 0.48773 0.91188 0.91103 0.0
C2027 C 0.48574 0.88945 0.89886 0.0
C2028 C 0.50275 0.87021 0.9034 0.0
C2029 C 0.52086 0.87336 0.92019 0.0
C2030 C 0.47006 0.93288 0.90681 0.0
C2031 C 0.50158 0.84609 0.89078 0.0
H2032 H 0.40569 0.86386 0.88067 0.0
H2033 H 0.4505 0.89097 0.82649 0.0
H2034 H 0.45215 0.8547 0.91956 0.0
H2035 H 0.44134 0.88522 0.92518 0.0
H2036 H 0.41965 0.86136 0.91765 0.0
H2037 H 0.49055 0.90629 0.83225 0.0
H2038 H 0.49637 0.91889 0.85984 0.0
H2039 H 0.50682 0.88852 0.85317 0.0
H2040 H 0.50718 0.93152 0.9373 0.0
H2041 H 0.53355 0.85842 0.9238 0.0
H2042 H 0.45107 0.92713 0.91141 0.0
H2043 H 0.46986 0.93769 0.88867 0.0
H2044 H 0.47492 0.94963 0.91663 0.0
H2045 H 0.48319 0.83742 0.89303 0.0
H2046 H 0.51595 0.83284 0.89642 0.0
H2047 H 0.50404 0.84954 0.87254 0.0
C2048 C 0.89388 0.34437 0.97505 0.0
C2049 C 0.90705 0.36522 0.96772 0.0
C2050 C 0.88846 0.32472 0.96023 0.0
C2051 C 0.89639 0.32583 0.9375 0.0
C2052 C 0.9092 0.34707 0.92996 0.0
C2053 C 0.91425 0.36641 0.94504 0.0
C2054 C 0.87473 0.30251 0.96903 0.0
C2055 C 0.9182 0.34911 0.906 0.0
C2056 C 0.90814 0.26743 0.90321 0.0
C2057 C 0.88767 0.26677 0.88875 0.0
C2058 C 0.91073 0.28598 0.91963 0.0
C2059 C 0.89242 0.30449 0.92174 0.0
C2060 C 0.87131 0.30347 0.90761 0.0
C2061 C 0.86918 0.28464 0.89131 0.0
C2062 C 0.93344 0.28609 0.93436 0.0
C2063 C 0.85132 0.32275 0.90923 0.0
H2064 H 0.8882 0.34318 0.99248 0.0
H2065 H 0.92438 0.38236 0.93906 0.0
H2066 H 0.8586 0.29842 0.95815 0.0
H2067 H 0.88696 0.28611 0.96857 0.0
H2068 H 0.86822 0.30518 0.98656 0.0
H2069 H 0.92706 0.3672 0.9025 0.0
H2070 H 0.9318 0.3343 0.90254 0.0
H2071 H 0.90261 0.34657 0.89413 0.0
H2072 H 0.92249 0.25365 0.90142 0.0
H2073 H 0.85332 0.28427 0.88019 0.0
H2074 H 0.92795 0.28538 0.9523 0.0
H2075 H 0.94393 0.30346 0.93183 0.0
H2076 H 0.94586 0.27027 0.93083 0.0
H2077 H 0.84488 0.32446 0.92686 0.0
H2078 H 0.83525 0.3184 0.89833 0.0
H2079 H 0.85885 0.34097 0.90418 0.0
C2080 C 0.52416 0.1595 0.65589 0.0
C2081 C 0.52334 0.13993 0.64046 0.0
C2082 C 0.50556 0.16261 0.67224 0.0
C2083 C 0.48565 0.14564 0.67336 0.0
C2084 C 0.48515 0.12544 0.6582 0.0
C2085 C 0.50389 0.1229 0.64192 0.0
C2086 C 0.50691 0.18443 0.68796 0.0
C2087 C 0.46445 0.10681 0.6588 0.0
C2088 C 0.44556 0.14433 0.72653 0.0
C2089 C 0.42499 0.15835 0.71995 0.0
C2090 C 0.4653 0.13984 0.71158 0.0
C2091 C 0.46467 0.14976 0.68949 0.0
C2092 C 0.44388 0.16377 0.68273 0.0
C2093 C 0.42431 0.16768 0.69788 0.0
C2094 C 0.48693 0.12462 0.71947 0.0
C2095 C 0.44242 0.175 0.65952 0.0
H2096 H 0.53909 0.17277 0.65485 0.0
H2097 H 0.5031 0.10773 0.63008 0.0
H2098 H 0.4904 0.19628 0.6857 0.0
H2099 H 0.50689 0.17799 0.70566 0.0
H2100 H 0.52367 0.19582 0.68513 0.0
H2101 H 0.46751 0.09133 0.6469 0.0
H2102 H 0.46243 0.09918 0.67601 0.0
H2103 H 0.44678 0.11596 0.65442 0.0
H2104 H 0.44636 0.13699 0.74347 0.0
H2105 H 0.40864 0.1786 0.6925 0.0
H2106 H 0.504 0.13592 0.71902 0.0
H2107 H 0.48978 0.10875 0.708 0.0
H2108 H 0.48433 0.11752 0.73684 0.0
H2109 H 0.45828 0.18762 0.65683 0.0
H2110 H 0.42509 0.18553 0.65685 0.0
H2111 H 0.4436 0.16031 0.64659 0.0
C2112 C 0.66896 0.75271 0.39417 0.0
C2113 C 0.6505 0.7705 0.39097 0.0
C2114 C 0.66638 0.73393 0.41051 0.0
C2115 C 0.64482 0.73285 0.42404 0.0
C2116 C 0.62651 0.75129 0.4213 0.0
C2117 C 0.62956 0.76978 0.40485 0.0
C2118 C 0.68639 0.71476 0.41281 0.0
C2119 C 0.60332 0.75112 0.43536 0.0
C2120 C 0.62285 0.67079 0.44718 0.0
C2121 C 0.6295 0.67208 0.47001 0.0
C2122 C 0.62808 0.69016 0.43213 0.0
C2123 C 0.64049 0.71157 0.43987 0.0
C2124 C 0.64778 0.71282 0.46278 0.0
C2125 C 0.64222 0.69312 0.47755 0.0
C2126 C 0.61977 0.68792 0.40797 0.0
C2127 C 0.66102 0.73521 0.47181 0.0
H2128 H 0.68518 0.75309 0.38352 0.0
H2129 H 0.61521 0.78348 0.40257 0.0
H2130 H 0.69232 0.71322 0.43061 0.0
H2131 H 0.67911 0.69646 0.4077 0.0
H2132 H 0.70277 0.7191 0.4023 0.0
H2133 H 0.59111 0.76706 0.43161 0.0
H2134 H 0.59284 0.73384 0.43233 0.0
H2135 H 0.60817 0.75155 0.45347 0.0
H2136 H 0.61307 0.65471 0.44103 0.0
H2137 H 0.64745 0.69442 0.49509 0.0
H2138 H 0.63569 0.69045 0.39649 0.0
H2139 H 0.60622 0.70267 0.40407 0.0
H2140 H 0.61108 0.66978 0.40437 0.0
H2141 H 0.67753 0.73928 0.46142 0.0
H2142 H 0.6669 0.73275 0.48957 0.0
H2143 H 0.64872 0.75152 0.4708 0.0
C2144 C 0.09091 0.8896 0.22489 0.0
C2145 C 0.11386 0.88047 0.21773 0.0
C2146 C 0.07156 0.894 0.20944 0.0
C2147 C 0.07513 0.88926 0.18619 0.0
C2148 C 0.09842 0.88054 0.17886 0.0
C2149 C 0.11738 0.87633 0.19461 0.0
C2150 C 0.04707 0.90316 0.21809 0.0
C2151 C 0.10319 0.87509 0.15435 0.0
C2152 C 0.02056 0.87444 0.14766 0.0
C2153 C 1.01738 0.89656 0.1357 0.0
C2154 C 0.03872 0.87208 0.1645 0.0
C2155 C 0.05437 0.8923 0.16956 0.0
C2156 C 0.05094 0.91487 0.1578 0.0
C2157 C 0.03248 0.91675 0.14107 0.0
C2158 C 0.04147 0.8477 0.17658 0.0
C2159 C 0.06716 0.93689 0.16257 0.0
H2160 H 0.08787 0.89286 0.24265 0.0
H2161 H 0.13496 0.86936 0.18874 0.0
H2162 H 0.04134 0.91993 0.20874 0.0
H2163 H 0.0327 0.88891 0.21523 0.0
H2164 H 0.04766 0.90753 0.23633 0.0
H2165 H 0.12257 0.86941 0.15119 0.0
H2166 H 0.09078 0.86007 0.1486 0.0
H2167 H 0.09906 0.89159 0.14397 0.0
H2168 H 1.00892 0.85875 0.14371 0.0
H2169 H 0.03016 0.9339 0.13194 0.0
H2170 H 0.04012 0.85049 0.19501 0.0
H2171 H 0.05996 0.83979 0.17312 0.0
H2172 H 0.02724 0.83408 0.17139 0.0
H2173 H 0.06671 0.94137 0.18076 0.0
H2174 H 0.06142 0.95345 0.15288 0.0
H2175 H 0.08656 0.93246 0.15821 0.0
C2176 C 0.62354 0.77406 0.89467 0.0
C2177 C 0.6458 0.77075 0.88298 0.0
C2178 C 0.62138 0.79159 0.91204 0.0
C2179 C 0.64191 0.80651 0.91785 0.0
C2180 C 0.66458 0.80295 0.90635 0.0
C2181 C 0.66628 0.78507 0.88913 0.0
C2182 C 0.5969 0.79448 0.92387 0.0
C2183 C 0.6869 0.81846 0.91187 0.0
C2184 C 0.62651 0.86881 0.94436 0.0
C2185 C 0.6302 0.86442 0.96742 0.0
C2186 C 0.63085 0.8504 0.92815 0.0
C2187 C 0.6391 0.82675 0.93498 0.0
C2188 C 0.64349 0.82232 0.95817 0.0
C2189 C 0.63914 0.8412 0.97407 0.0
C2190 C 0.62595 0.85612 0.9037 0.0
C2191 C 0.65203 0.79737 0.96628 0.0
H2192 H 0.60764 0.76297 0.89013 0.0
H2193 H 0.68354 0.78262 0.88021 0.0
H2194 H 0.5994 0.79279 0.94232 0.0
H2195 H 0.5893 0.81313 0.92053 0.0
H2196 H 0.58315 0.78053 0.91832 0.0
H2197 H 0.70347 0.81269 0.90224 0.0
H2198 H 0.68299 0.83811 0.90804 0.0
H2199 H 0.6911 0.81724 0.9301 0.0
H2200 H 0.61976 0.88665 0.93889 0.0
H2201 H 0.64202 0.8375 0.99179 0.0
H2202 H 0.61066 0.84438 0.89742 0.0
H2203 H 0.64249 0.85183 0.89344 0.0
H2204 H 0.62091 0.87576 0.90096 0.0
H2205 H 0.63743 0.78346 0.96304 0.0
H2206 H 0.65634 0.79733 0.98455 0.0
H2207 H 0.66869 0.7915 0.95687 0.0
C2208 C 0.51753 0.37804 0.14969 0.0
C2209 C 0.51868 0.39875 0.13554 0.0
C2210 C 0.49893 0.37554 0.16603 0.0
C2211 C 0.48086 0.39423 0.16848 0.0
C2212 C 0.48224 0.4155 0.15457 0.0
C2213 C 0.50112 0.41751 0.13828 0.0
C2214 C 0.4985 0.35268 0.18055 0.0
C2215 C 0.46345 0.43589 0.15658 0.0
C2216 C 0.41931 0.37344 0.19349 0.0
C2217 C 0.42158 0.38029 0.2162 0.0
C2218 C 0.43812 0.3784 0.1778 0.0
C2219 C 0.4599 0.39073 0.18477 0.0
C2220 C 0.46205 0.39833 0.20752 0.0
C2221 C 0.44294 0.39303 0.22293 0.0
C2222 C 0.43499 0.3697 0.15386 0.0
C2223 C 0.48486 0.41151 0.21574 0.0
H2224 H 0.53107 0.36348 0.14778 0.0
H2225 H 0.50186 0.43356 0.12741 0.0
H2226 H 0.50099 0.358 0.19841 0.0
H2227 H 0.48038 0.34327 0.17913 0.0
H2228 H 0.51323 0.33937 0.17596 0.0
H2229 H 0.4678 0.45181 0.1455 0.0
H2230 H 0.44491 0.42873 0.15206 0.0
H2231 H 0.46245 0.44245 0.17422 0.0
H2232 H 0.40295 0.36364 0.18798 0.0
H2233 H 0.44498 0.39845 0.24036 0.0
H2234 H 0.44921 0.35561 0.14994 0.0
H2235 H 0.43773 0.38529 0.14202 0.0
H2236 H 0.4165 0.36151 0.15079 0.0
H2237 H 0.50091 0.39885 0.21491 0.0
H2238 H 0.48288 0.4181 0.23333 0.0
H2239 H 0.48904 0.42752 0.20476 0.0
C2240 C 0.89572 0.19397 0.47352 0.0
C2241 C 0.9139 0.17606 0.4696 0.0
C2242 C 0.89125 0.21306 0.45787 0.0
C2243 C 0.90558 0.21459 0.43795 0.0
C2244 C 0.92434 0.19688 0.4342 0.0
C2245 C 0.92808 0.17778 0.44988 0.0
C2246 C 0.8709 0.23136 0.46246 0.0
C2247 C 0.94041 0.19794 0.41348 0.0
C2248 C 0.88104 0.24702 0.38539 0.0
C2249 C 0.89335 0.26977 0.38612 0.0
C2250 C 0.88429 0.22927 0.40246 0.0
C2251 C 0.90055 0.23415 0.42062 0.0
C2252 C 0.9128 0.25728 0.42157 0.0
C2253 C 0.90892 0.27485 0.40441 0.0
C2254 C 0.87063 0.20506 0.40082 0.0
C2255 C 0.93054 0.26321 0.44039 0.0
H2256 H 0.88462 0.1928 0.48864 0.0
H2257 H 0.9423 0.16419 0.44666 0.0
H2258 H 0.87841 0.2504 0.46238 0.0
H2259 H 0.85683 0.23031 0.44893 0.0
H2260 H 0.86172 0.22798 0.47887 0.0
H2261 H 0.95516 0.18371 0.41369 0.0
H2262 H 0.92893 0.19516 0.39824 0.0
H2263 H 0.94916 0.21638 0.41202 0.0
H2264 H 0.86895 0.24299 0.37133 0.0
H2265 H 0.91858 0.29236 0.40503 0.0
H2266 H 0.86021 0.20154 0.41656 0.0
H2267 H 0.88399 0.18973 0.39877 0.0
H2268 H 0.85753 0.20466 0.38644 0.0
H2269 H 0.92132 0.26091 0.45691 0.0
H2270 H 0.93787 0.28231 0.43922 0.0
H2271 H 0.94628 0.25014 0.43997 0.0
C2272 C 0.01955 0.65861 0.64937 0.0
C2273 C 1.01843 0.63839 0.63467 0.0
C2274 C 0.03827 0.66067 0.66567 0.0
C2275 C 0.05651 0.64205 0.66744 0.0
C2276 C 0.05514 0.62124 0.65298 0.0
C2277 C 0.03612 0.61965 0.63678 0.0
C2278 C 0.03871 0.68303 0.68079 0.0
C2279 C 0.07414 0.60096 0.65426 0.0
C2280 C 0.1182 0.66266 0.69214 0.0
C2281 C 0.11635 0.65512 0.7147 0.0
C2282 C 0.09919 0.65798 0.67658 0.0
C2283 C 0.07768 0.64522 0.68352 0.0
C2284 C 0.07598 0.63686 0.70608 0.0
C2285 C 0.09528 0.64191 0.72138 0.0
C2286 C 0.10182 0.66746 0.65281 0.0
C2287 C 0.05346 0.62316 0.71424 0.0
H2288 H 1.00589 0.67314 0.64793 0.0
H2289 H 0.03539 0.60399 0.62548 0.0
H2290 H 0.03718 0.67711 0.69858 0.0
H2291 H 0.05651 0.69297 0.67898 0.0
H2292 H 0.02345 0.69609 0.67707 0.0
H2293 H 0.06972 0.58533 0.64287 0.0
H2294 H 0.09252 0.60841 0.64965 0.0
H2295 H 0.07552 0.59389 0.67173 0.0
H2296 H 0.13434 0.67283 0.68667 0.0
H2297 H 0.09359 0.63594 0.7387 0.0
H2298 H 0.08742 0.68153 0.64943 0.0
H2299 H 0.09903 0.65222 0.64063 0.0
H2300 H 0.12019 0.67592 0.64971 0.0
H2301 H 0.03725 0.63564 0.71392 0.0
H2302 H 0.05581 0.61604 0.73163 0.0
H2303 H 0.04929 0.60744 0.70291 0.0
C2304 C 0.62667 0.17069 0.6278 0.0
C2305 C 0.63098 0.17431 0.60472 0.0
C2306 C 0.63107 0.1895 0.64363 0.0
C2307 C 0.64011 0.21273 0.63642 0.0
C2308 C 0.64499 0.2164 0.61321 0.0
C2309 C 0.64045 0.19718 0.59768 0.0
C2310 C 0.6255 0.18463 0.66811 0.0
C2311 C 0.65444 0.24086 0.60468 0.0
C2312 C 0.62569 0.26714 0.67513 0.0
C2313 C 0.64783 0.2701 0.68712 0.0
C2314 C 0.6232 0.24912 0.65821 0.0
C2315 C 0.6433 0.23336 0.65312 0.0
C2316 C 0.66589 0.23656 0.6649 0.0
C2317 C 0.66791 0.25492 0.68168 0.0
C2318 C 0.59884 0.24665 0.64606 0.0
C2319 C 0.68776 0.22019 0.66013 0.0
H2320 H 0.61944 0.15315 0.63357 0.0
H2321 H 0.64384 0.2003 0.57995 0.0
H2322 H 0.642 0.18858 0.67855 0.0
H2323 H 0.61057 0.19711 0.67387 0.0
H2324 H 0.61965 0.16527 0.67119 0.0
H2325 H 0.65883 0.24036 0.58644 0.0
H2326 H 0.64036 0.25535 0.6076 0.0
H2327 H 0.67127 0.24635 0.61407 0.0
H2328 H 0.61008 0.27884 0.67913 0.0
H2329 H 0.68507 0.25707 0.69085 0.0
H2330 H 0.59072 0.22822 0.64946 0.0
H2331 H 0.6017 0.24805 0.62764 0.0
H2332 H 0.58536 0.26098 0.65125 0.0
H2333 H 0.68313 0.20081 0.66442 0.0
H2334 H 0.70436 0.22574 0.66987 0.0
H2335 H 0.69229 0.22069 0.64195 0.0
C2336 C 0.02149 0.37718 0.92383 0.0
C2337 C 0.0196 0.39839 0.93727 0.0
C2338 C 0.04006 0.37483 0.90744 0.0
C2339 C 0.0574 0.39412 0.90435 0.0
C2340 C 0.05528 0.41583 0.91757 0.0
C2341 C 0.03639 0.41772 0.93383 0.0
C2342 C 0.04137 0.35145 0.89369 0.0
C2343 C 0.07332 0.43683 0.91488 0.0
C2344 C 0.11961 0.37484 0.87995 0.0
C2345 C 0.1171 0.38086 0.85707 0.0
C2346 C 0.10064 0.3796 0.8955 0.0
C2347 C 0.07845 0.39085 0.88818 0.0
C2348 C 0.07603 0.39766 0.86524 0.0
C2349 C 0.09534 0.39262 0.84999 0.0
C2350 C 0.10409 0.37187 0.9197 0.0
C2351 C 0.05274 0.40964 0.85665 0.0
H2352 H 1.00853 0.36217 0.9263 0.0
H2353 H 0.03506 0.43414 0.94415 0.0
H2354 H 0.04035 0.35597 0.87553 0.0
H2355 H 0.05929 0.34208 0.89662 0.0
H2356 H 0.02625 0.33836 0.8978 0.0
H2357 H 0.06844 0.45296 0.92549 0.0
H2358 H 0.09212 0.43053 0.91955 0.0
H2359 H 0.07403 0.44281 0.89704 0.0
H2360 H 0.13629 0.36581 0.88573 0.0
H2361 H 0.09312 0.39738 0.83241 0.0
H2362 H 0.09043 0.35738 0.92406 0.0
H2363 H 0.10077 0.38775 0.93105 0.0
H2364 H 0.12288 0.36453 0.92299 0.0
H2365 H 0.03716 0.39643 0.85796 0.0
H2366 H 0.05443 0.41562 0.83885 0.0
H2367 H 0.04801 0.42591 0.86711 0.0
C2368 C 0.91201 0.86758 0.12935 0.0
C2369 C 0.90579 0.86453 0.10656 0.0
C2370 C 0.90752 0.84891 0.14531 0.0
C2371 C 0.89646 0.82642 0.13852 0.0
C2372 C 0.88947 0.82344 0.11567 0.0
C2373 C 0.89416 0.84249 0.10001 0.0
C2374 C 0.91536 0.85302 0.16939 0.0
C2375 C 0.87774 0.7998 0.10761 0.0
C2376 C 0.91125 0.77054 0.17531 0.0
C2377 C 0.89015 0.76855 0.18888 0.0
C2378 C 0.91318 0.78873 0.15849 0.0
C2379 C 0.8936 0.80567 0.15513 0.0
C2380 C 0.87201 0.80346 0.16851 0.0
C2381 C 0.87051 0.78489 0.18516 0.0
C2382 C 0.93645 0.79011 0.14457 0.0
C2383 C 0.85073 0.82109 0.16559 0.0
H2384 H 0.92092 0.88448 0.13474 0.0
H2385 H 0.88928 0.83983 0.08251 0.0
H2386 H 0.8996 0.84968 0.1809 0.0
H2387 H 0.93008 0.8397 0.17394 0.0
H2388 H 0.92242 0.872 0.17228 0.0
H2389 H 0.87159 0.80102 0.08982 0.0
H2390 H 0.89117 0.78445 0.10912 0.0
H2391 H 0.86162 0.79505 0.11826 0.0
H2392 H 0.92649 0.75792 0.17798 0.0
H2393 H 0.85416 0.78349 0.19557 0.0
H2394 H 0.94575 0.80809 0.14737 0.0
H2395 H 0.93182 0.78899 0.12643 0.0
H2396 H 0.94963 0.77509 0.14869 0.0
H2397 H 0.85678 0.84009 0.16983 0.0
H2398 H 0.83476 0.8162 0.17641 0.0
H2399 H 0.8446 0.8213 0.14779 0.0
C2400 C 0.51636 0.65814 0.42418 0.0
C2401 C 0.51775 0.63721 0.43803 0.0
C2402 C 0.49788 0.66054 0.40769 0.0
C2403 C 0.4801 0.64159 0.40492 0.0
C2404 C 0.48174 0.62012 0.41854 0.0
C2405 C 0.50057 0.61816 0.43489 0.0
C2406 C 0.49719 0.68358 0.39341 0.0
C2407 C 0.46319 0.59951 0.41624 0.0
C2408 C 0.41837 0.66205 0.38019 0.0
C2409 C 0.42063 0.65545 0.35743 0.0
C2410 C 0.43724 0.65706 0.39581 0.0
C2411 C 0.4591 0.64505 0.38869 0.0
C2412 C 0.46125 0.6377 0.36588 0.0
C2413 C 0.44203 0.64295 0.35055 0.0
C2414 C 0.43408 0.66539 0.41986 0.0
C2415 C 0.48418 0.62491 0.3575 0.0
H2416 H 0.52964 0.67291 0.4264 0.0
H2417 H 0.50151 0.60195 0.44555 0.0
H2418 H 0.49887 0.67853 0.37542 0.0
H2419 H 0.47925 0.69314 0.39553 0.0
H2420 H 0.51225 0.69669 0.39768 0.0
H2421 H 0.46775 0.58347 0.42711 0.0
H2422 H 0.44458 0.60633 0.42086 0.0
H2423 H 0.46225 0.59322 0.39851 0.0
H2424 H 0.40196 0.67164 0.38581 0.0
H2425 H 0.44406 0.63776 0.33306 0.0
H2426 H 0.44812 0.67962 0.42393 0.0
H2427 H 0.43705 0.64967 0.43151 0.0
H2428 H 0.41549 0.67326 0.42305 0.0
H2429 H 0.5001 0.63773 0.35849 0.0
H2430 H 0.48224 0.61855 0.33983 0.0
H2431 H 0.48853 0.60878 0.36828 0.0
C2432 C 0.39227 0.19229 0.0979 0.0
C2433 C 0.40487 0.171 0.10496 0.0
C2434 C 0.38725 0.21178 0.11302 0.0
C2435 C 0.39501 0.21006 0.13578 0.0
C2436 C 0.40727 0.18839 0.14304 0.0
C2437 C 0.41192 0.16922 0.12767 0.0
C2438 C 0.37411 0.23447 0.1045 0.0
C2439 C 0.41614 0.18568 0.16699 0.0
C2440 C 0.40827 0.26758 0.1709 0.0
C2441 C 0.38776 0.26864 0.18529 0.0
C2442 C 0.4104 0.24921 0.15428 0.0
C2443 C 0.39158 0.23122 0.15186 0.0
C2444 C 0.37048 0.23259 0.16596 0.0
C2445 C 0.3688 0.25128 0.18247 0.0
C2446 C 0.43312 0.24875 0.1396 0.0
C2447 C 0.34998 0.21387 0.16403 0.0
H2448 H 0.38669 0.19393 0.08046 0.0
H2449 H 0.4216 0.15292 0.13346 0.0
H2450 H 0.35805 0.23873 0.11538 0.0
H2451 H 0.38674 0.25056 0.10525 0.0
H2452 H 0.36759 0.23226 0.08691 0.0
H2453 H 0.43013 0.20007 0.17072 0.0
H2454 H 0.40058 0.18842 0.17884 0.0
H2455 H 0.42449 0.16731 0.17026 0.0
H2456 H 0.42296 0.28099 0.17284 0.0
H2457 H 0.3529 0.25196 0.1935 0.0
H2458 H 0.42766 0.24997 0.12166 0.0
H2459 H 0.44309 0.23105 0.14186 0.0
H2460 H 0.44599 0.26415 0.1434 0.0
H2461 H 0.34347 0.21268 0.14637 0.0
H2462 H 0.33405 0.21842 0.175 0.0
H2463 H 0.35701 0.19536 0.16877 0.0
C2464 C 0.51169 0.65898 0.91753 0.0
C2465 C 0.51661 0.64328 0.93577 0.0
C2466 C 0.52936 0.66293 0.90048 0.0
C2467 C 0.55245 0.65062 0.90147 0.0
C2468 C 0.55717 0.63424 0.91958 0.0
C2469 C 0.53932 0.63093 0.93654 0.0
C2470 C 0.52359 0.68081 0.88173 0.0
C2471 C 0.58132 0.62051 0.92127 0.0
C2472 C 0.59289 0.64594 0.84872 0.0
C2473 C 0.6109 0.66402 0.85281 0.0
C2474 C 0.57369 0.64147 0.86425 0.0
C2475 C 0.57212 0.65569 0.88424 0.0
C2476 C 0.58993 0.67436 0.88815 0.0
C2477 C 0.60914 0.6781 0.87259 0.0
C2478 C 0.55531 0.62122 0.85947 0.0
C2479 C 0.58886 0.69033 0.90893 0.0
H2480 H 0.49422 0.66868 0.91687 0.0
H2481 H 0.54325 0.61874 0.95055 0.0
H2482 H 0.53674 0.6965 0.88228 0.0
H2483 H 0.5259 0.67168 0.86518 0.0
H2484 H 0.50452 0.6882 0.88286 0.0
H2485 H 0.5816 0.60734 0.9356 0.0
H2486 H 0.58485 0.61016 0.90551 0.0
H2487 H 0.59669 0.63383 0.92345 0.0
H2488 H 0.59408 0.63492 0.83356 0.0
H2489 H 0.62279 0.69225 0.87595 0.0
H2490 H 0.5363 0.62878 0.8595 0.0
H2491 H 0.55623 0.60706 0.87293 0.0
H2492 H 0.55871 0.61211 0.84303 0.0
H2493 H 0.57045 0.69912 0.91035 0.0
H2494 H 0.60315 0.70504 0.90885 0.0
H2495 H 0.59153 0.67876 0.92413 0.0
C2496 C 0.12746 0.7692 0.67093 0.0
C2497 C 0.1487 0.7672 0.68437 0.0
C2498 C 0.1252 0.78771 0.65443 0.0
C2499 C 0.14463 0.80486 0.65113 0.0
C2500 C 0.16641 0.80255 0.66428 0.0
C2501 C 0.16819 0.78376 0.68071 0.0
C2502 C 0.10171 0.78923 0.64081 0.0
C2503 C 0.18758 0.82034 0.66138 0.0
C2504 C 0.14287 0.84368 0.59707 0.0
C2505 C 0.13163 0.86553 0.60454 0.0
C2506 C 0.14777 0.824 0.61205 0.0
C2507 C 0.14131 0.82612 0.63511 0.0
C2508 C 0.13047 0.84836 0.64277 0.0
C2509 C 0.12587 0.86768 0.62752 0.0
C2510 C 0.15934 0.8007 0.60309 0.0
C2511 C 0.12305 0.85154 0.66708 0.0
H2512 H 0.11233 0.75643 0.67355 0.0
H2513 H 0.18465 0.78235 0.69099 0.0
H2514 H 0.09258 0.80727 0.64369 0.0
H2515 H 0.10607 0.78806 0.62263 0.0
H2516 H 0.08849 0.77428 0.64508 0.0
H2517 H 0.20385 0.81514 0.67173 0.0
H2518 H 0.19323 0.82114 0.64347 0.0
H2519 H 0.18163 0.83916 0.66627 0.0
H2520 H 0.14741 0.84173 0.57942 0.0
H2521 H 0.11726 0.88441 0.63363 0.0
H2522 H 0.14599 0.78524 0.60443 0.0
H2523 H 0.17572 0.79566 0.61331 0.0
H2524 H 0.16504 0.80256 0.58524 0.0
H2525 H 0.10862 0.83783 0.67148 0.0
H2526 H 0.11577 0.87029 0.6706 0.0
H2527 H 0.13909 0.84809 0.67824 0.0
C2528 C 0.92495 0.36764 0.37343 0.0
C2529 C 0.92555 0.37712 0.35143 0.0
C2530 C 0.9444 0.37174 0.38866 0.0
C2531 C 0.96467 0.38668 0.38226 0.0
C2532 C 0.96509 0.39698 0.36031 0.0
C2533 C 0.94573 0.39182 0.34509 0.0
C2534 C 0.94334 0.35975 0.41158 0.0
C2535 C 0.98593 0.41358 0.35295 0.0
C2536 C 1.00085 0.41391 0.43158 0.0
C2537 C 0.02158 0.39848 0.4326 0.0
C2538 C 0.98283 0.411 0.41469 0.0
C2539 C 0.98511 0.39167 0.39875 0.0
C2540 C 1.00621 0.37619 0.39958 0.0
C2541 C 0.02434 0.38002 0.41627 0.0
C2542 C 0.96106 0.42834 0.41418 0.0
C2543 C 1.00917 0.35496 0.38337 0.0
H2544 H 0.90943 0.35647 0.37873 0.0
H2545 H 0.94636 0.39944 0.32825 0.0
H2546 H 0.96029 0.34874 0.41454 0.0
H2547 H 0.94256 0.37413 0.42482 0.0
H2548 H 0.92707 0.34745 0.4135 0.0
H2549 H 0.98314 0.42091 0.33569 0.0
H2550 H 0.9877 0.42935 0.36475 0.0
H2551 H 1.00361 0.40333 0.35342 0.0
H2552 H 0.99866 0.42827 0.44411 0.0
H2553 H 0.04023 0.36791 0.41706 0.0
H2554 H 0.94395 0.4181 0.4184 0.0
H2555 H 0.95864 0.43608 0.39704 0.0
H2556 H 0.96317 0.44382 0.42627 0.0
H2557 H 0.9936 0.34184 0.3854 0.0
H2558 H 0.02674 0.34482 0.386 0.0
H2559 H 1.00861 0.36178 0.3658 0.0
C2560 C 0.39468 0.84448 0.47456 0.0
C2561 C 0.40695 0.86581 0.46711 0.0
C2562 C 0.38933 0.82488 0.45965 0.0
C2563 C 0.39637 0.82657 0.43671 0.0
C2564 C 0.40821 0.84831 0.42905 0.0
C2565 C 0.41325 0.86757 0.44423 0.0
C2566 C 0.37668 0.8021 0.46858 0.0
C2567 C 0.41625 0.851 0.40486 0.0
C2568 C 0.40928 0.76903 0.40165 0.0
C2569 C 0.38836 0.7676 0.38778 0.0
C2570 C 0.41168 0.78754 0.4181 0.0
C2571 C 0.39272 0.80527 0.42085 0.0
C2572 C 0.37121 0.80353 0.40728 0.0
C2573 C 0.36928 0.78471 0.39093 0.0
C2574 C 0.43482 0.78841 0.43224 0.0
C2575 C 0.35055 0.82198 0.40959 0.0
H2576 H 0.3897 0.84286 0.49214 0.0
H2577 H 0.42264 0.88391 0.43815 0.0
H2578 H 0.36042 0.79749 0.45804 0.0
H2579 H 0.3895 0.78619 0.46775 0.0
H2580 H 0.37054 0.80439 0.48628 0.0
H2581 H 0.42421 0.86948 0.40129 0.0
H2582 H 0.43034 0.83682 0.40086 0.0
H2583 H 0.40037 0.84792 0.39343 0.0
H2584 H 0.42408 0.75581 0.39943 0.0
H2585 H 0.35306 0.78373 0.38029 0.0
H2586 H 0.42991 0.78723 0.45031 0.0
H2587 H 0.44451 0.80623 0.42966 0.0
H2588 H 0.44777 0.77316 0.42823 0.0
H2589 H 0.34456 0.82321 0.42739 0.0
H2590 H 0.33435 0.81714 0.39902 0.0
H2591 H 0.35721 0.84055 0.40457 0.0
C2592 C 0.94674 0.64546 0.22503 0.0
C2593 C 0.92508 0.65758 0.21821 0.0
C2594 C 0.96615 0.64085 0.20974 0.0
C2595 C 0.96393 0.64844 0.18698 0.0
C2596 C 0.94189 0.66021 0.17993 0.0
C2597 C 0.92284 0.66456 0.19552 0.0
C2598 C 0.98927 0.62834 0.21807 0.0
C2599 C 0.93861 0.66873 0.15594 0.0
C2600 C 0.02096 0.6612 0.15089 0.0
C2601 C 0.02206 0.64019 0.13713 0.0
C2602 C 1.00267 0.66376 0.16757 0.0
C2603 C 0.98481 0.64491 0.17061 0.0
C2604 C 0.98622 0.62337 0.15709 0.0
C2605 C 1.00482 0.62124 0.14059 0.0
C2606 C 1.00218 0.68692 0.18167 0.0
C2607 C 0.96763 0.60282 0.15966 0.0
H2608 H 0.9488 0.64001 0.24247 0.0
H2609 H 0.90627 0.67392 0.18994 0.0
H2610 H 0.99352 0.61205 0.20748 0.0
H2611 H 1.00512 0.6412 0.21669 0.0
H2612 H 0.98764 0.62226 0.23585 0.0
H2613 H 0.92008 0.6768 0.15288 0.0
H2614 H 0.95275 0.68284 0.15182 0.0
H2615 H 0.94133 0.65305 0.14422 0.0
H2616 H 0.03425 0.67591 0.14841 0.0
H2617 H 1.00552 0.60497 0.13002 0.0
H2618 H 1.00324 0.68204 0.19976 0.0
H2619 H 0.98452 0.69685 0.17904 0.0
H2620 H 1.01764 0.69962 0.17762 0.0
H2621 H 0.96689 0.5966 0.17742 0.0
H2622 H 0.97198 0.58672 0.14882 0.0
H2623 H 0.94898 0.6097 0.15519 0.0
C2624 C 0.16789 0.25441 0.89539 0.0
C2625 C 0.14872 0.27118 0.89121 0.0
C2626 C 0.16545 0.23575 0.91184 0.0
C2627 C 0.14334 0.2338 0.92453 0.0
C2628 C 0.12426 0.25122 0.92079 0.0
C2629 C 0.12716 0.26958 0.90421 0.0
C2630 C 0.18626 0.21764 0.91518 0.0
C2631 C 0.10048 0.25011 0.93396 0.0
C2632 C 0.12361 0.17101 0.9476 0.0
C2633 C 0.12921 0.17292 0.97063 0.0
C2634 C 0.12843 0.19046 0.93253 0.0
C2635 C 0.13934 0.21257 0.94045 0.0
C2636 C 0.14555 0.21449 0.96359 0.0
C2637 C 0.14043 0.1947 0.97837 0.0
C2638 C 0.1213 0.18749 0.90812 0.0
C2639 C 0.15718 0.23767 0.97281 0.0
H2640 H 0.18459 0.25549 0.88542 0.0
H2641 H 0.11228 0.28252 0.90117 0.0
H2642 H 0.19145 0.21672 0.93321 0.0
H2643 H 0.18011 0.19891 0.91013 0.0
H2644 H 0.20286 0.22259 0.9052 0.0
H2645 H 0.09103 0.23226 0.93084 0.0
H2646 H 0.10447 0.25113 0.95222 0.0
H2647 H 0.08766 0.26533 0.92948 0.0
H2648 H 0.11498 0.15435 0.94128 0.0
H2649 H 0.14484 0.19647 0.99607 0.0
H2650 H 0.13758 0.19066 0.89719 0.0
H2651 H 0.10722 0.20148 0.90355 0.0
H2652 H 0.1137 0.16889 0.90444 0.0
H2653 H 0.17392 0.24246 0.96302 0.0
H2654 H 0.16233 0.23577 0.99081 0.0
H2655 H 0.1441 0.2533 0.9711 0.0
C2656 C 0.59233 0.39208 0.72503 0.0
C2657 C 0.61416 0.38048 0.71794 0.0
C2658 C 0.57276 0.39668 0.70987 0.0
C2659 C 0.57497 0.38962 0.68698 0.0
C2660 C 0.5972 0.37846 0.67966 0.0
C2661 C 0.61641 0.3741 0.69512 0.0
C2662 C 0.54944 0.40854 0.7185 0.0
C2663 C 0.60049 0.37052 0.65551 0.0
C2664 C 0.51785 0.37596 0.65124 0.0
C2665 C 0.51597 0.39715 0.63775 0.0
C2666 C 0.53642 0.37361 0.66771 0.0
C2667 C 0.55382 0.39288 0.6708 0.0
C2668 C 0.55168 0.41458 0.65754 0.0
C2669 C 0.53278 0.41648 0.64124 0.0
C2670 C 0.53773 0.35024 0.68149 0.0
C2671 C 0.56975 0.43556 0.66019 0.0
H2672 H 0.59026 0.39707 0.74257 0.0
H2673 H 0.63311 0.36516 0.68932 0.0
H2674 H 0.54467 0.42485 0.70809 0.0
H2675 H 0.53389 0.39531 0.71714 0.0
H2676 H 0.55114 0.41444 0.73632 0.0
H2677 H 0.61923 0.36306 0.65222 0.0
H2678 H 0.58673 0.35608 0.65128 0.0
H2679 H 0.5972 0.38635 0.64406 0.0
H2680 H 0.50491 0.36095 0.64872 0.0
H2681 H 0.5315 0.43289 0.63089 0.0
H2682 H 0.53718 0.35475 0.69967 0.0
H2683 H 0.55546 0.34065 0.67827 0.0
H2684 H 0.52236 0.33734 0.67765 0.0
H2685 H 0.57052 0.44155 0.67801 0.0
H2686 H 0.56487 0.45169 0.64955 0.0
H2687 H 0.58853 0.42924 0.65551 0.0
C2688 C 0.0507 0.22429 0.3253 0.0
C2689 C 0.07319 0.22988 0.31481 0.0
C2690 C 0.02965 0.23864 0.32149 0.0
C2691 C 0.03092 0.25887 0.30646 0.0
C2692 C 0.0529 0.2632 0.29419 0.0
C2693 C 0.07391 0.24874 0.29864 0.0
C2694 C 1.00665 0.23331 0.335 0.0
C2695 C 0.05477 0.28413 0.27755 0.0
C2696 C 0.96781 0.28746 0.29726 0.0
C2697 C 0.96745 0.30506 0.31454 0.0
C2698 C 0.98921 0.27355 0.29294 0.0
C2699 C 1.01049 0.27723 0.30639 0.0
C2700 C 1.01078 0.29647 0.32248 0.0
C2701 C 0.98933 0.31022 0.32624 0.0
C2702 C 0.98842 0.25373 0.27516 0.0
C2703 C 0.03303 0.30115 0.3372 0.0
H2704 H 0.04985 0.20952 0.33758 0.0
H2705 H 0.09115 0.25303 0.29028 0.0
H2706 H 1.0034 0.24858 0.34708 0.0
H2707 H 0.99031 0.23224 0.32381 0.0
H2708 H 1.00806 0.21579 0.34462 0.0
H2709 H 0.07076 0.28179 0.26607 0.0
H2710 H 0.03768 0.28562 0.26736 0.0
H2711 H 0.05714 0.30177 0.28675 0.0
H2712 H 0.95104 0.28353 0.28799 0.0
H2713 H 0.98933 0.3241 0.33936 0.0
H2714 H 0.98576 0.23551 0.28331 0.0
H2715 H 1.00604 0.25303 0.26569 0.0
H2716 H 0.97302 0.25671 0.26312 0.0
H2717 H 0.03533 0.28555 0.34913 0.0
H2718 H 0.03126 0.31845 0.34706 0.0
H2719 H 0.05004 0.30228 0.32691 0.0
C2720 C 0.0624 0.80127 0.57917 0.0
C2721 C 0.05708 0.82367 0.56842 0.0
C2722 C 0.0478 0.78034 0.57555 0.0
C2723 C 0.02756 0.78172 0.56054 0.0
C2724 C 0.02345 0.80361 0.54809 0.0
C2725 C 0.03822 0.82445 0.55227 0.0
C2726 C 0.05292 0.75736 0.58918 0.0
C2727 C 1.00242 0.8056 0.53155 0.0
C2728 C 0.99805 0.71925 0.55052 0.0
C2729 C 0.98021 0.71889 0.5676 0.0
C2730 C 1.0125 0.74039 0.54671 0.0
C2731 C 1.0091 0.76143 0.56044 0.0
C2732 C 0.98977 0.76177 0.57644 0.0
C2733 C 0.97549 0.74055 0.57972 0.0
C2734 C 0.03251 0.73955 0.5291 0.0
C2735 C 0.98542 0.78384 0.59143 0.0
H2736 H 0.07718 0.80041 0.59142 0.0
H2737 H 0.03413 0.84163 0.54372 0.0
H2738 H 0.03777 0.75445 0.60145 0.0
H2739 H 0.05357 0.74092 0.57811 0.0
H2740 H 0.0706 0.75858 0.59859 0.0
H2741 H 1.00461 0.82174 0.5202 0.0
H2742 H 1.00096 0.78862 0.52121 0.0
H2743 H 0.98482 0.8077 0.54085 0.0
H2744 H 1.00165 0.70266 0.5409 0.0
H2745 H 0.96152 0.74053 0.59273 0.0
H2746 H 0.05065 0.73694 0.53741 0.0
H2747 H 0.03332 0.75715 0.51959 0.0
H2748 H 0.02966 0.72414 0.51706 0.0
H2749 H 1.00104 0.78576 0.60339 0.0
H2750 H 0.96809 0.78215 0.60127 0.0
H2751 H 0.98455 0.80102 0.58133 0.0
C2752 C 0.48683 0.80752 0.83164 0.0
C2753 C 0.46553 0.80503 0.81844 0.0
C2754 C 0.50927 0.79709 0.825 0.0
C2755 C 0.51062 0.78394 0.80449 0.0
C2756 C 0.48946 0.78215 0.79058 0.0
C2757 C 0.46706 0.79268 0.79776 0.0
C2758 C 0.53137 0.79949 0.84039 0.0
C2759 C 0.4903 0.76851 0.76848 0.0
C2760 C 0.57717 0.77489 0.7874 0.0
C2761 C 0.58245 0.75213 0.79756 0.0
C2762 C 0.55316 0.7846 0.78766 0.0
C2763 C 0.53408 0.7713 0.79851 0.0
C2764 C 0.53888 0.74737 0.80702 0.0
C2765 C 0.563 0.73801 0.80633 0.0
C2766 C 0.54872 0.80999 0.77806 0.0
C2767 C 0.5191 0.73255 0.81875 0.0
H2768 H 0.48588 0.81711 0.84758 0.0
H2769 H 0.45068 0.79072 0.78746 0.0
H2770 H 0.54696 0.80819 0.83126 0.0
H2771 H 0.52733 0.81068 0.85558 0.0
H2772 H 0.53755 0.78093 0.8459 0.0
H2773 H 0.47311 0.77101 0.75856 0.0
H2774 H 0.5062 0.77489 0.75827 0.0
H2775 H 0.49293 0.74852 0.77167 0.0
H2776 H 0.59203 0.78579 0.78031 0.0
H2777 H 0.56684 0.7203 0.81407 0.0
H2778 H 0.54733 0.82352 0.79199 0.0
H2779 H 0.53109 0.81058 0.76859 0.0
H2780 H 0.56393 0.81588 0.76674 0.0
H2781 H 0.51508 0.74101 0.83535 0.0
H2782 H 0.52479 0.7131 0.82155 0.0
H2783 H 0.50174 0.73271 0.80887 0.0
C2784 C 0.49679 0.21517 0.05222 0.0
C2785 C 0.47857 0.21555 0.06897 0.0
C2786 C 0.51161 0.23597 0.04816 0.0
C2787 C 0.50817 0.25747 0.06128 0.0
C2788 C 0.48854 0.25853 0.07695 0.0
C2789 C 0.47391 0.2376 0.0805 0.0
C2790 C 0.532 0.23434 1.03096 0.0
C2791 C 0.48414 0.28113 0.09127 0.0
C2792 C 0.5613 0.29787 0.07943 0.0
C2793 C 0.55629 0.31977 0.06776 0.0
C2794 C 0.54669 0.27684 0.07633 0.0
C2795 C 0.52672 0.27765 0.06098 0.0
C2796 C 0.52293 0.29897 0.04767 0.0
C2797 C 0.53775 0.31988 0.05127 0.0
C2798 C 0.55147 0.25443 0.09082 0.0
C2799 C 0.50217 0.30035 1.0308 0.0
H2800 H 0.50037 0.19825 0.04307 0.0
H2801 H 0.45966 0.23816 0.09325 0.0
H2802 H 0.53309 0.25153 1.02089 0.0
H2803 H 0.54994 0.23203 0.0397 0.0
H2804 H 0.52938 0.21845 1.01941 0.0
H2805 H 0.46677 0.2798 0.1011 0.0
H2806 H 0.49972 0.28349 0.1032 0.0
H2807 H 0.48333 0.29792 0.08063 0.0
H2808 H 0.5758 0.29754 0.09196 0.0
H2809 H 0.5339 0.33668 0.04202 0.0
H2810 H 0.55195 0.23749 0.08039 0.0
H2811 H 0.53625 0.25227 0.10314 0.0
H2812 H 0.56913 0.25587 0.10024 0.0
H2813 H 0.50086 0.283 1.02098 0.0
H2814 H 0.50453 0.31606 1.01899 0.0
H2815 H 0.48442 0.30278 0.03981 0.0
C2816 C 0.99107 0.72393 0.24524 0.0
C2817 C 0.96935 0.72907 0.25714 0.0
C2818 C 1.01244 0.73801 0.24851 0.0
C2819 C 1.01223 0.75752 0.26434 0.0
C2820 C 0.99114 0.76126 0.27795 0.0
C2821 C 0.96983 0.74704 0.27411 0.0
C2822 C 0.0345 0.7333 0.2336 0.0
C2823 C 0.99043 0.78142 0.29542 0.0
C2824 C 0.07539 0.78675 0.27181 0.0
C2825 C 0.07447 0.80538 0.25544 0.0
C2826 C 0.05456 0.77204 0.27629 0.0
C2827 C 0.03256 0.77597 0.26393 0.0
C2828 C 0.03107 0.796 0.24869 0.0
C2829 C 0.05197 0.81055 0.24479 0.0
C2830 C 0.05665 0.75129 0.2931 0.0
C2831 C 1.008 0.80092 0.23513 0.0
H2832 H 0.99099 0.70981 0.23235 0.0
H2833 H 0.9532 0.75096 0.28357 0.0
H2834 H 0.05162 0.73225 0.24378 0.0
H2835 H 0.03261 0.71596 0.2238 0.0
H2836 H 0.03668 0.74886 0.22161 0.0
H2837 H 0.97509 0.77869 0.30754 0.0
H2838 H 1.00809 0.78231 0.30482 0.0
H2839 H 0.98776 0.79948 0.28698 0.0
H2840 H 0.09266 0.78278 0.28026 0.0
H2841 H 0.051 0.82518 0.23238 0.0
H2842 H 0.05889 0.73356 0.28403 0.0
H2843 H 0.03968 0.74988 0.30344 0.0
H2844 H 0.07277 0.75377 0.30443 0.0
H2845 H 1.00925 0.81834 0.22532 0.0
H2846 H 0.99168 0.80198 0.24631 0.0
H2847 H 1.00486 0.78548 0.22321 0.0
C2848 C 0.5616 0.73754 0.49504 0.0
C2849 C 0.55594 0.71563 0.50646 0.0
C2850 C 0.54724 0.75876 0.4979 0.0
C2851 C 0.52686 0.75815 0.51277 0.0
C2852 C 0.52241 0.7368 0.52588 0.0
C2853 C 0.53698 0.71568 0.5225 0.0
C2854 C 0.55274 0.78116 0.48361 0.0
C2855 C 0.50121 0.73564 0.54228 0.0
C2856 C 0.49775 0.82111 0.52086 0.0
C2857 C 0.47998 0.82101 0.50369 0.0
C2858 C 0.51208 0.80005 0.52529 0.0
C2859 C 0.50862 0.7786 0.51209 0.0
C2860 C 0.48941 0.77785 0.49596 0.0
C2861 C 0.47524 0.79902 0.49208 0.0
C2862 C 0.532 0.80136 0.54299 0.0
C2863 C 0.48501 0.75533 0.48153 0.0
H2864 H 0.57645 0.73776 0.48284 0.0
H2865 H 0.53262 0.69887 0.53156 0.0
H2866 H 0.53788 0.78358 0.47095 0.0
H2867 H 0.55319 0.79805 0.49412 0.0
H2868 H 0.57062 0.77953 0.47461 0.0
H2869 H 0.50308 0.71988 0.55411 0.0
H2870 H 0.49987 0.75298 0.5521 0.0
H2871 H 0.48366 0.73341 0.53287 0.0
H2872 H 0.50137 0.83797 0.53009 0.0
H2873 H 0.46132 0.79868 0.479 0.0
H2874 H 0.55021 0.80346 0.53471 0.0
H2875 H 0.53256 0.78411 0.55304 0.0
H2876 H 0.52928 0.81724 0.55453 0.0
H2877 H 0.50087 0.75272 0.46999 0.0
H2878 H 0.46795 0.75695 0.47127 0.0
H2879 H 0.48359 0.73856 0.49214 0.0
C2880 C 0.48994 0.22605 0.74703 0.0
C2881 C 0.46784 0.23083 0.75846 0.0
C2882 C 0.51088 0.24066 0.75059 0.0
C2883 C 0.5098 0.26036 0.76618 0.0
C2884 C 0.4883 0.26383 0.7793 0.0
C2885 C 0.46746 0.24905 0.77521 0.0
C2886 C 0.53347 0.23622 0.73627 0.0
C2887 C 0.48667 0.28423 0.79648 0.0
C2888 C 0.57229 0.29025 0.77497 0.0
C2889 C 0.57181 0.30852 0.75825 0.0
C2890 C 0.55143 0.27553 0.77917 0.0
C2891 C 0.52984 0.2791 0.76617 0.0
C2892 C 0.52867 0.29888 0.75064 0.0
C2893 C 0.54961 0.31345 0.74701 0.0
C2894 C 0.55317 0.25504 0.79628 0.0
C2895 C 0.50598 0.30342 0.73645 0.0
H2896 H 0.49051 0.21176 0.7343 0.0
H2897 H 0.45052 0.25269 0.78428 0.0
H2898 H 0.53564 0.25163 0.72413 0.0
H2899 H 0.55031 0.23569 0.74685 0.0
H2900 H 0.53224 0.21869 0.72666 0.0
H2901 H 0.47104 0.28136 0.80827 0.0
H2902 H 0.50403 0.28563 0.8063 0.0
H2903 H 0.48389 0.3021 0.78775 0.0
H2904 H 0.58931 0.28649 0.78391 0.0
H2905 H 0.54897 0.3278 0.73431 0.0
H2906 H 0.55588 0.23721 0.78747 0.0
H2907 H 0.53588 0.2536 0.80617 0.0
H2908 H 0.56889 0.25783 0.80801 0.0
H2909 H 0.50352 0.28793 0.72445 0.0
H2910 H 0.50727 0.32086 0.72669 0.0
H2911 H 0.48927 0.30418 0.74716 0.0
C2912 C 0.99667 0.31979 1.02289 0.0
C2913 C 0.97888 0.32023 1.00574 0.0
C2914 C 1.01074 0.29847 1.02696 0.0
C2915 C 1.00704 0.27732 1.0134 0.0
C2916 C 0.98772 0.27709 0.99736 0.0
C2917 C 0.97378 0.29848 0.99386 0.0
C2918 C 0.0307 0.2992 0.04465 0.0
C2919 C 0.98307 0.25494 0.98252 0.0
C2920 C 0.05999 0.23699 0.9949 0.0
C2921 C 0.05448 0.21467 1.00571 0.0
C2922 C 0.04556 0.25804 0.99841 0.0
C2923 C 0.0253 0.25687 1.01339 0.0
C2924 C 0.02099 0.23505 1.02589 0.0
C2925 C 0.03558 0.21408 1.02181 0.0
C2926 C 0.05089 0.28092 0.9847 0.0
C2927 C 0.99996 0.23329 0.04243 0.0
H2928 H 1.00054 0.33645 1.03234 0.0
H2929 H 0.95983 0.29854 0.9808 0.0
H2930 H 0.0313 0.28163 0.05422 0.0
H2931 H 0.04889 0.3016 0.03639 0.0
H2932 H 0.02798 0.31469 0.05661 0.0
H2933 H 0.96578 0.25679 0.97261 0.0
H2934 H 0.99868 0.25271 0.97064 0.0
H2935 H 0.98192 0.23787 0.99275 0.0
H2936 H 0.0748 0.23771 0.98268 0.0
H2937 H 0.03135 0.19696 1.0304 0.0
H2938 H 0.05174 0.29739 0.99572 0.0
H2939 H 0.03573 0.28393 0.97244 0.0
H2940 H 0.06852 0.27951 0.97528 0.0
H2941 H 0.99859 0.25035 0.05264 0.0
H2942 H 1.00208 0.21723 0.05389 0.0
H2943 H 0.98234 0.23117 1.03312 0.0
C2944 C 0.06931 0.74417 0.7697 0.0
C2945 C 0.06975 0.72689 0.75214 0.0
C2946 C 0.04813 0.75842 0.77384 0.0
C2947 C 0.02712 0.75539 0.75996 0.0
C2948 C 0.02685 0.73658 0.74344 0.0
C2949 C 0.04812 0.72248 0.73985 0.0
C2950 C 0.0489 0.77786 0.79197 0.0
C2951 C 1.00482 0.73264 0.72828 0.0
C2952 C 0.96423 0.78445 0.76905 0.0
C2953 C 0.96507 0.80391 0.7535 0.0
C2954 C 0.98497 0.76938 0.77267 0.0
C2955 C 1.00682 0.77382 0.76028 0.0
C2956 C 1.00826 0.79457 0.74586 0.0
C2957 C 0.98742 0.80943 0.74278 0.0
C2958 C 0.98292 0.74777 0.78857 0.0
C2959 C 0.03121 0.80006 0.73234 0.0
H2960 H 0.08586 0.74752 0.77946 0.0
H2961 H 0.0482 0.70895 0.72646 0.0
H2962 H 0.05138 0.79628 0.78413 0.0
H2963 H 0.03132 0.77825 0.8015 0.0
H2964 H 0.06436 0.77476 0.80392 0.0
H2965 H 1.00659 0.71566 0.71795 0.0
H2966 H 0.98764 0.73137 0.73831 0.0
H2967 H 1.00288 0.74866 0.71677 0.0
H2968 H 0.94707 0.78018 0.77756 0.0
H2969 H 0.98832 0.82464 0.73098 0.0
H2970 H 0.99987 0.74594 0.7989 0.0
H2971 H 0.98082 0.73051 0.77874 0.0
H2972 H 0.96675 0.74954 0.79993 0.0
H2973 H 0.03006 0.81806 0.72345 0.0
H2974 H 0.03399 0.78533 0.71963 0.0
H2975 H 0.0477 0.80025 0.74339 0.0
C2976 C 0.05792 0.30087 0.49127 0.0
C2977 C 0.05513 0.32231 0.50421 0.0
C2978 C 0.04745 0.27846 0.49798 0.0
C2979 C 0.03396 0.27727 0.51833 0.0
C2980 C 0.03195 0.29854 0.53203 0.0
C2981 C 0.04252 0.32091 0.52477 0.0
C2982 C 0.05011 0.25622 0.48284 0.0
C2983 C 1.01797 0.29786 0.55396 0.0
C2984 C 0.98794 0.22492 0.51619 0.0
C2985 C 1.00186 0.20551 0.52528 0.0
C2986 C 0.99737 0.24903 0.51548 0.0
C2987 C 0.02117 0.25386 0.5243 0.0
C2988 C 0.03423 0.23483 0.53546 0.0
C2989 C 0.02446 0.21083 0.53574 0.0
C2990 C 0.98281 0.26875 0.50341 0.0
C2991 C 0.05946 0.23931 0.54541 0.0
H2992 H 0.06777 0.3017 0.47544 0.0
H2993 H 0.04033 0.3374 0.53487 0.0
H2994 H 0.05864 0.24073 0.49222 0.0
H2995 H 0.03165 0.24998 0.4771 0.0
H2996 H 0.06158 0.26014 0.46778 0.0
H2997 H 0.02047 0.31508 0.56384 0.0
H2998 H 0.99801 0.29537 0.55053 0.0
H2999 H 0.02405 0.28196 0.56432 0.0
H3000 H 0.97036 0.22106 0.50824 0.0
H3001 H 0.0352 0.196 0.54307 0.0
H3002 H 0.99159 0.27269 0.48694 0.0
H3003 H 0.98281 0.28616 0.5132 0.0
H3004 H 0.9634 0.26305 0.50034 0.0
H3005 H 0.07325 0.24056 0.53167 0.0
H3006 H 0.06509 0.22419 0.55694 0.0
H3007 H 0.05993 0.25702 0.55475 0.0
C3008 C 0.48978 0.31371 0.23887 0.0
C3009 C 0.46878 0.31015 0.25224 0.0
C3010 C 0.5123 0.30261 0.24434 0.0
C3011 C 0.51402 0.2877 0.26383 0.0
C3012 C 0.49324 0.28496 0.27804 0.0
C3013 C 0.47077 0.29615 0.27201 0.0
C3014 C 0.53399 0.30601 0.22867 0.0
C3015 C 0.49451 0.26953 0.29913 0.0
C3016 C 0.56449 0.23993 0.25846 0.0
C3017 C 0.58457 0.25235 0.26814 0.0
C3018 C 0.5409 0.25054 0.25826 0.0
C3019 C 0.53726 0.27396 0.26827 0.0
C3020 C 0.55698 0.28557 0.27976 0.0
C3021 C 0.58047 0.27468 0.27944 0.0
C3022 C 0.5204 0.23757 0.24574 0.0
C3023 C 0.55372 0.31032 0.29098 0.0
H3024 H 0.48844 0.32449 0.22359 0.0
H3025 H 0.45464 0.29338 0.28247 0.0
H3026 H 0.53922 0.28796 0.22127 0.0
H3027 H 0.5299 0.31905 0.21475 0.0
H3028 H 0.55021 0.313 0.23809 0.0
H3029 H 0.47771 0.27154 0.30965 0.0
H3030 H 0.49658 0.2498 0.29455 0.0
H3031 H 0.51087 0.27472 0.3093 0.0
H3032 H 0.56744 0.2226 0.24979 0.0
H3033 H 0.59585 0.28426 0.28718 0.0
H3034 H 0.5161 0.24791 0.23011 0.0
H3035 H 0.50336 0.23709 0.25603 0.0
H3036 H 0.52544 0.21837 0.24108 0.0
H3037 H 0.55237 0.32491 0.27794 0.0
H3038 H 0.56943 0.31486 0.30225 0.0
H3039 H 0.53639 0.31075 0.30089 0.0
C3040 C 0.56244 0.7995 0.99797 0.0
C3041 C 0.55686 0.82202 1.00839 0.0
C3042 C 0.54802 0.77848 1.00179 0.0
C3043 C 0.52776 0.77983 1.01675 0.0
C3044 C 0.52351 0.80182 1.02901 0.0
C3045 C 0.53804 0.82279 1.02455 0.0
C3046 C 0.55328 0.75544 0.98831 0.0
C3047 C 0.50258 0.80377 0.04561 0.0
C3048 C 0.47624 0.73873 0.99643 0.0
C3049 C 0.48122 0.71674 1.00799 0.0
C3050 C 0.49009 0.76009 1.00043 0.0
C3051 C 0.50923 0.75956 1.01665 0.0
C3052 C 0.51266 0.73818 1.03 0.0
C3053 C 0.49867 0.71688 1.02543 0.0
C3054 C 0.48567 0.78247 0.98581 0.0
C3055 C 0.53233 0.73716 0.04793 0.0
H3056 H 0.57721 0.7986 0.98571 0.0
H3057 H 0.53378 0.84005 1.03288 0.0
H3058 H 0.55418 0.7391 0.9995 0.0
H3059 H 0.53807 0.75228 0.97613 0.0
H3060 H 0.57087 0.75676 0.9788 0.0
H3061 H 0.5051 0.81964 0.0572 0.0
H3062 H 0.48499 0.80643 1.03636 0.0
H3063 H 0.50084 0.78661 0.05567 0.0
H3064 H 0.46246 0.7389 0.9832 0.0
H3065 H 0.50244 0.70001 1.0346 0.0
H3066 H 0.50137 0.78479 0.97403 0.0
H3067 H 0.48454 0.7994 0.9962 0.0
H3068 H 0.46844 0.78084 0.97579 0.0
H3069 H 0.55058 0.73427 0.03992 0.0
H3070 H 0.52906 0.72179 0.05994 0.0
H3071 H 0.53319 0.75476 0.05741 0.0
C3072 C 0.96679 0.25091 0.8022 0.0
C3073 C 0.96667 0.23259 0.81887 0.0
C3074 C 0.98799 0.26528 0.79829 0.0
C3075 C 1.00934 0.26135 0.81156 0.0
C3076 C 1.00981 0.24168 0.82724 0.0
C3077 C 0.98855 0.22746 0.83057 0.0
C3078 C 0.98698 0.28565 0.78102 0.0
C3079 C 0.03215 0.23679 0.8418 0.0
C3080 C 0.07279 0.28933 0.80265 0.0
C3081 C 0.07278 0.30794 0.81903 0.0
C3082 C 0.05152 0.2751 0.79862 0.0
C3083 C 0.02998 0.27946 0.81148 0.0
C3084 C 0.02938 0.29948 0.82675 0.0
C3085 C 0.05071 0.31358 0.83018 0.0
C3086 C 0.05268 0.25434 0.78176 0.0
C3087 C 1.00684 0.30483 0.84086 0.0
H3088 H 0.95002 0.25485 0.79293 0.0
H3089 H 0.98873 0.21313 0.84327 0.0
H3090 H 0.9849 0.30366 0.78965 0.0
H3091 H 1.00434 0.28637 0.77116 0.0
H3092 H 0.97121 0.28329 0.76927 0.0
H3093 H 0.03031 0.21949 0.85168 0.0
H3094 H 0.04902 0.23553 0.83133 0.0
H3095 H 0.03476 0.25235 0.85369 0.0
H3096 H 0.0897 0.285 0.79378 0.0
H3097 H 0.05041 0.32817 0.84263 0.0
H3098 H 0.03546 0.25346 0.77169 0.0
H3099 H 0.05458 0.23652 0.79078 0.0
H3100 H 0.06863 0.25639 0.77018 0.0
H3101 H 1.00864 0.32232 0.85047 0.0
H3102 H 1.00391 0.28954 0.853 0.0
H3103 H 0.99016 0.30599 0.83011 0.0
C3104 C 0.47348 0.29766 0.57874 0.0
C3105 C 0.47847 0.31966 0.56719 0.0
C3106 C 0.48783 0.27654 0.57528 0.0
C3107 C 0.50745 0.27728 0.55958 0.0
C3108 C 0.5111 0.29869 0.54633 0.0
C3109 C 0.49663 0.31975 0.55039 0.0
C3110 C 0.48324 0.25412 0.58981 0.0
C3111 C 0.53139 0.29999 0.52902 0.0
C3112 C 0.56072 0.23749 0.5785 0.0
C3113 C 0.55573 0.21521 0.5674 0.0
C3114 C 0.546 0.25835 0.57499 0.0
C3115 C 0.52602 0.25708 0.55969 0.0
C3116 C 0.52227 0.23535 0.5469 0.0
C3117 C 0.53711 0.21455 0.55102 0.0
C3118 C 0.55072 0.28112 0.58902 0.0
C3119 C 0.50159 0.23352 0.52999 0.0
H3120 H 0.45924 0.2973 0.59152 0.0
H3121 H 0.50044 0.33661 0.5412 0.0
H3122 H 0.48214 0.23725 0.57932 0.0
H3123 H 0.49887 0.25169 0.60167 0.0
H3124 H 0.46596 0.25573 0.59973 0.0
H3125 H 0.52866 0.3156 0.51716 0.0
H3126 H 0.54938 0.30258 0.53762 0.0
H3127 H 0.53246 0.28256 0.51928 0.0
H3128 H 0.57532 0.2383 0.59095 0.0
H3129 H 0.53329 0.19746 0.54221 0.0
H3130 H 0.5352 0.28385 0.60093 0.0
H3131 H 0.55172 0.29772 0.57817 0.0
H3132 H 0.5681 0.27976 0.59887 0.0
H3133 H 0.48382 0.23104 0.53896 0.0
H3134 H 0.50415 0.21764 0.51842 0.0
H3135 H 0.50019 0.2507 0.51991 0.0
C3136 C 0.48911 0.72296 0.33308 0.0
C3137 C 0.46761 0.72762 0.32068 0.0
C3138 C 0.51054 0.73693 0.3297 0.0
C3139 C 0.51058 0.75587 0.31329 0.0
C3140 C 0.48965 0.75925 0.29937 0.0
C3141 C 0.46831 0.74513 0.30329 0.0
C3142 C 0.53245 0.73264 0.34493 0.0
C3143 C 0.48918 0.77888 0.28137 0.0
C3144 C 0.55123 0.80927 0.3305 0.0
C3145 C 0.57346 0.80351 0.31966 0.0
C3146 C 0.53016 0.7947 0.32748 0.0
C3147 C 0.5312 0.77399 0.31301 0.0
C3148 C 0.55295 0.76927 0.30056 0.0
C3149 C 0.57393 0.78406 0.30411 0.0
C3150 C 0.50735 0.80046 0.34109 0.0
C3151 C 0.5546 0.74768 0.28463 0.0
H3152 H 0.48884 0.70928 0.34635 0.0
H3153 H 0.45184 0.7487 0.29347 0.0
H3154 H 0.54963 0.73105 0.33492 0.0
H3155 H 0.53468 0.74864 0.35639 0.0
H3156 H 0.53035 0.71571 0.35529 0.0
H3157 H 0.47362 0.77618 0.26945 0.0
H3158 H 0.48712 0.79726 0.28934 0.0
H3159 H 0.50673 0.77903 0.27179 0.0
H3160 H 0.55061 0.82446 0.34231 0.0
H3161 H 0.59098 0.77959 0.29553 0.0
H3162 H 0.50435 0.7857 0.35374 0.0
H3163 H 0.49083 0.80098 0.33009 0.0
H3164 H 0.50883 0.81839 0.35005 0.0
H3165 H 0.55625 0.73034 0.29444 0.0
H3166 H 0.57086 0.74915 0.27334 0.0
H3167 H 0.53767 0.74626 0.27422 0.0
C3168 C 0.99333 0.81959 0.04802 0.0
C3169 C 0.97647 0.81977 0.06592 0.0
C3170 C 1.00764 0.79856 0.04349 0.0
C3171 C 1.00518 0.77747 0.05736 0.0
C3172 C 0.98675 0.77692 0.07421 0.0
C3173 C 0.97249 0.79801 0.07814 0.0
C3174 C 0.02661 0.79959 1.02495 0.0
C3175 C 0.98344 0.75481 0.08941 0.0
C3176 C 0.03486 0.71488 0.04839 0.0
C3177 C 0.0545 0.71611 0.06373 0.0
C3178 C 0.01956 0.73543 0.04468 0.0
C3179 C 0.02396 0.75749 0.05679 0.0
C3180 C 0.04494 0.75935 0.07089 0.0
C3181 C 0.06003 0.7387 0.07404 0.0
C3182 C 0.99776 0.73295 1.02906 0.0
C3183 C 0.05038 0.78253 0.08412 0.0
H3184 H 0.99631 0.83625 0.0383 0.0
H3185 H 0.95924 0.79785 0.09178 0.0
H3186 H 0.04515 0.80256 1.03239 0.0
H3187 H 0.02714 0.78194 1.01553 0.0
H3188 H 0.02285 0.81487 1.01298 0.0
H3189 H 0.96686 0.75649 0.10029 0.0
H3190 H 0.9818 0.73768 0.07934 0.0
H3191 H 0.99989 0.75283 0.10039 0.0
H3192 H 0.03059 0.69753 0.04019 0.0
H3193 H 0.07539 0.73992 0.08568 0.0
H3194 H 0.99533 0.74991 1.01884 0.0
H3195 H 0.98072 0.73032 0.03911 0.0
H3196 H 0.99977 0.7169 1.01759 0.0
H3197 H 0.0502 0.79889 0.07292 0.0
H3198 H 0.06854 0.78169 0.09278 0.0
H3199 H 0.03584 0.78528 0.097 0.0
C3200 C 0.11929 0.11701 0.1231 0.0
C3201 C 0.1198 0.13358 0.10488 0.0
C3202 C 0.12436 0.12472 0.14525 0.0
C3203 C 0.12991 0.1498 0.1497 0.0
C3204 C 0.12938 0.16689 0.13157 0.0
C3205 C 0.12448 0.1586 0.10942 0.0
C3206 C 0.12484 0.10567 0.16379 0.0
C3207 C 0.13483 0.19385 0.13545 0.0
C3208 C 0.12958 0.16791 0.2123 0.0
C3209 C 0.15464 0.16564 0.21802 0.0
C3210 C 0.12132 0.16399 0.18996 0.0
C3211 C 0.13841 0.15737 0.17288 0.0
C3212 C 0.16379 0.15594 0.17848 0.0
C3213 C 0.17152 0.16019 0.20077 0.0
C3214 C 0.09416 0.1661 0.1848 0.0
C3215 C 0.18279 0.1488 0.16111 0.0
H3216 H 0.11565 0.09765 0.12001 0.0
H3217 H 0.1249 0.17164 0.0956 0.0
H3218 H 0.14387 0.10399 0.17053 0.0
H3219 H 0.11279 0.11149 0.17789 0.0
H3220 H 0.11871 0.0872 0.15791 0.0
H3221 H 0.13091 0.20523 0.12033 0.0
H3222 H 0.12373 0.20094 0.14973 0.0
H3223 H 0.15455 0.19617 0.13998 0.0
H3224 H 0.11631 0.17212 0.22536 0.0
H3225 H 0.19095 0.15843 0.20477 0.0
H3226 H 0.08653 0.14755 0.18107 0.0
H3227 H 0.09123 0.1777 0.16965 0.0
H3228 H 0.08364 0.17414 0.19905 0.0
H3229 H 0.17927 0.12965 0.15532 0.0
H3230 H 0.20193 0.14982 0.16776 0.0
H3231 H 0.18138 0.16101 0.1462 0.0
C3232 C 0.12625 0.87928 0.46496 0.0
C3233 C 0.12135 0.90422 0.46966 0.0
C3234 C 0.1308 0.87114 0.4427 0.0
C3235 C 0.13072 0.8883 0.42461 0.0
C3236 C 0.12494 0.91328 0.42923 0.0
C3237 C 0.12024 0.92083 0.4515 0.0
C3238 C 0.13652 0.84429 0.43864 0.0
C3239 C 0.12479 0.93241 0.41075 0.0
C3240 C 0.17154 0.87867 0.37293 0.0
C3241 C 0.15444 0.87297 0.35588 0.0
C3242 C 0.16414 0.88278 0.39532 0.0
C3243 C 0.1389 0.88095 0.40126 0.0
C3244 C 0.12159 0.87414 0.38439 0.0
C3245 C 0.12951 0.87037 0.36193 0.0
C3246 C 0.18336 0.89016 0.41245 0.0
C3247 C 0.09456 0.8716 0.38991 0.0
H3248 H 0.12714 0.8662 0.47872 0.0
H3249 H 0.11642 0.94013 0.4547 0.0
H3250 H 0.12526 0.8371 0.4245 0.0
H3251 H 0.15618 0.84227 0.43384 0.0
H3252 H 0.13302 0.83278 0.45378 0.0
H3253 H 0.1185 0.95075 0.41679 0.0
H3254 H 0.14366 0.93442 0.40375 0.0
H3255 H 0.11256 0.92645 0.39681 0.0
H3256 H 0.19088 0.8807 0.36868 0.0
H3257 H 0.11608 0.86595 0.34904 0.0
H3258 H 0.18242 0.87785 0.42732 0.0
H3259 H 0.17966 0.90921 0.41838 0.0
H3260 H 0.20238 0.8895 0.40553 0.0
H3261 H 0.09207 0.85985 0.40502 0.0
H3262 H 0.08389 0.86351 0.37576 0.0
H3263 H 0.08677 0.89001 0.39386 0.0
C3264 C 0.36581 0.87708 0.69755 0.0
C3265 C 0.38297 0.87173 0.71463 0.0
C3266 C 0.37323 0.88154 0.67522 0.0
C3267 C 0.39855 0.88046 0.6694 0.0
C3268 C 0.41594 0.87398 0.68631 0.0
C3269 C 0.40799 0.86982 0.70869 0.0
C3270 C 0.35393 0.88851 0.65802 0.0
C3271 C 0.44306 0.87226 0.68092 0.0
C3272 C 0.4119 0.87971 0.60585 0.0
C3273 C 0.41623 0.9048 0.60136 0.0
C3274 C 0.40728 0.87125 0.62801 0.0
C3275 C 0.4067 0.88826 0.64618 0.0
C3276 C 0.41187 0.91343 0.64177 0.0
C3277 C 0.41665 0.9213 0.61962 0.0
C3278 C 0.40222 0.84421 0.63185 0.0
C3279 C 0.4113 0.93239 0.66037 0.0
H3280 H 0.34641 0.87855 0.70172 0.0
H3281 H 0.42147 0.86569 0.72162 0.0
H3282 H 0.35712 0.90774 0.65227 0.0
H3283 H 0.35534 0.8764 0.64305 0.0
H3284 H 0.33489 0.88719 0.66482 0.0
H3285 H 0.45386 0.86433 0.69507 0.0
H3286 H 0.44596 0.86074 0.66574 0.0
H3287 H 0.45038 0.89093 0.67714 0.0
H3288 H 0.41155 0.86672 0.59201 0.0
H3289 H 0.42002 0.94072 0.61656 0.0
H3290 H 0.38258 0.84162 0.63655 0.0
H3291 H 0.41358 0.83719 0.646 0.0
H3292 H 0.40609 0.83295 0.61666 0.0
H3293 H 0.39232 0.93376 0.66725 0.0
H3294 H 0.4171 0.95096 0.6545 0.0
H3295 H 0.42357 0.92667 0.67436 0.0
C3296 C 0.36242 0.15767 0.87339 0.0
C3297 C 0.37961 0.16358 0.8565 0.0
C3298 C 0.36969 0.1536 0.89585 0.0
C3299 C 0.39488 0.1556 0.90198 0.0
C3300 C 0.41224 0.16266 0.88526 0.0
C3301 C 0.40445 0.16646 0.86276 0.0
C3302 C 0.35041 0.14602 0.91283 0.0
C3303 C 0.43923 0.16533 0.89097 0.0
C3304 C 0.40767 0.15692 0.96569 0.0
C3305 C 0.41275 0.13199 0.97028 0.0
C3306 C 0.40291 0.16516 0.94348 0.0
C3307 C 0.40301 0.14811 0.92533 0.0
C3308 C 0.40894 0.12313 0.92984 0.0
C3309 C 0.4138 0.11548 0.95206 0.0
C3310 C 0.39699 0.192 0.93954 0.0
C3311 C 0.40917 0.10414 0.91127 0.0
H3312 H 0.34315 0.15545 0.86897 0.0
H3313 H 0.41796 0.17101 0.84999 0.0
H3314 H 0.3541 0.1269 0.91861 0.0
H3315 H 0.35129 0.15816 0.92781 0.0
H3316 H 0.33142 0.14675 0.90582 0.0
H3317 H 0.44992 0.17363 0.87694 0.0
H3318 H 0.44156 0.17695 0.90618 0.0
H3319 H 0.44712 0.14693 0.89483 0.0
H3320 H 0.4068 0.16992 0.9795 0.0
H3321 H 0.41776 0.09618 0.95518 0.0
H3322 H 0.37734 0.19389 0.93461 0.0
H3323 H 0.40828 0.1994 0.92552 0.0
H3324 H 0.40029 0.20341 0.95477 0.0
H3325 H 0.39032 0.10212 0.9042 0.0
H3326 H 0.4155 0.08577 0.91724 0.0
H3327 H 0.4214 0.11023 0.8974 0.0
C3328 C 0.90816 0.92293 0.95132 0.0
C3329 C 0.91391 0.9059 0.96841 0.0
C3330 C 0.90433 0.91548 0.92889 0.0
C3331 C 0.90646 0.89025 0.92296 0.0
C3332 C 0.91336 0.87304 0.93989 0.0
C3333 C 0.9169 0.88101 0.96236 0.0
C3334 C 0.8969 0.9346 0.91169 0.0
C3335 C 0.91618 0.84603 0.93441 0.0
C3336 C 0.86699 0.87099 0.87256 0.0
C3337 C 0.88371 0.87208 0.85449 0.0
C3338 C 0.87438 0.8759 0.89484 0.0
C3339 C 0.89929 0.88194 0.89959 0.0
C3340 C 0.91655 0.88205 0.8816 0.0
C3341 C 0.90857 0.87724 0.85932 0.0
C3342 C 0.85516 0.87565 0.91322 0.0
C3343 C 0.94333 0.88807 0.88579 0.0
H3344 H 0.90586 0.94223 0.95556 0.0
H3345 H 0.92133 0.86763 0.97529 0.0
H3346 H 0.90925 0.9337 0.89686 0.0
H3347 H 0.87788 0.93075 0.90572 0.0
H3348 H 0.89745 0.95364 0.91858 0.0
H3349 H 0.92434 0.83547 0.94859 0.0
H3350 H 0.89785 0.83802 0.93042 0.0
H3351 H 0.92798 0.84363 0.91933 0.0
H3352 H 0.84774 0.86696 0.86926 0.0
H3353 H 0.92173 0.87814 0.84564 0.0
H3354 H 0.85297 0.89453 0.92015 0.0
H3355 H 0.86114 0.86353 0.92723 0.0
H3356 H 0.8369 0.86918 0.9071 0.0
H3357 H 0.94513 0.90777 0.89059 0.0
H3358 H 0.95493 0.88469 0.87071 0.0
H3359 H 0.95056 0.87691 0.89998 0.0
C3360 C 0.91095 0.11466 0.62288 0.0
C3361 C 0.91674 0.13162 0.60576 0.0
C3362 C 0.90674 0.12227 0.64518 0.0
C3363 C 0.90853 0.14759 0.65091 0.0
C3364 C 0.91552 0.16472 0.63397 0.0
C3365 C 0.91942 0.15659 0.61163 0.0
C3366 C 0.89921 0.10324 0.66243 0.0
C3367 C 0.91801 0.19182 0.63928 0.0
C3368 C 0.86808 0.16696 0.70044 0.0
C3369 C 0.88453 0.16619 0.71874 0.0
C3370 C 0.87587 0.16189 0.67833 0.0
C3371 C 0.90091 0.15604 0.67404 0.0
C3372 C 0.91789 0.1563 0.69225 0.0
C3373 C 0.90952 0.16124 0.71435 0.0
C3374 C 0.85696 0.16173 0.65967 0.0
C3375 C 0.94479 0.15051 0.68852 0.0
H3376 H 0.90888 0.0953 0.61874 0.0
H3377 H 0.92391 0.16991 0.59867 0.0
H3378 H 0.9113 0.10444 0.67744 0.0
H3379 H 0.88005 0.10693 0.66808 0.0
H3380 H 0.90007 0.08414 0.65572 0.0
H3381 H 0.92634 0.20232 0.62515 0.0
H3382 H 0.89955 0.19967 0.6429 0.0
H3383 H 0.92952 0.19448 0.65453 0.0
H3384 H 0.84875 0.17082 0.70343 0.0
H3385 H 0.92246 0.16061 0.72823 0.0
H3386 H 0.85507 0.14276 0.65286 0.0
H3387 H 0.86306 0.17377 0.64565 0.0
H3388 H 0.83854 0.16807 0.66545 0.0
H3389 H 0.94685 0.13078 0.68394 0.0
H3390 H 0.95612 0.15419 0.70372 0.0
H3391 H 0.95215 0.16158 0.67432 0.0
C3392 C 0.6282 0.11579 0.44958 0.0
C3393 C 0.6232 0.13319 0.46653 0.0
C3394 C 0.6323 0.12288 0.4271 0.0
C3395 C 0.63121 0.14813 0.42097 0.0
C3396 C 0.6251 0.16576 0.43775 0.0
C3397 C 0.62129 0.15814 0.46029 0.0
C3398 C 0.63889 0.10332 0.41006 0.0
C3399 C 0.6234 0.19282 0.43204 0.0
C3400 C 0.67129 0.16532 0.3704 0.0
C3401 C 0.65449 0.16472 0.35235 0.0
C3402 C 0.66377 0.1609 0.39272 0.0
C3403 C 0.63865 0.15591 0.39753 0.0
C3404 C 0.62135 0.15631 0.37955 0.0
C3405 C 0.62946 0.16057 0.35723 0.0
C3406 C 0.68304 0.16052 0.41109 0.0
C3407 C 0.59436 0.15143 0.38381 0.0
H3408 H 0.62966 0.09644 0.45397 0.0
H3409 H 0.61744 0.1718 0.4731 0.0
H3410 H 0.62652 0.10457 0.39524 0.0
H3411 H 0.65802 0.10634 0.40402 0.0
H3412 H 0.6376 0.08438 0.41711 0.0
H3413 H 0.61575 0.20384 0.44615 0.0
H3414 H 0.64202 0.20001 0.42793 0.0
H3415 H 0.61163 0.19557 0.41697 0.0
H3416 H 0.69067 0.16856 0.36706 0.0
H3417 H 0.61624 0.16009 0.34356 0.0
H3418 H 0.68445 0.14164 0.4182 0.0
H3419 H 0.67761 0.17302 0.42498 0.0
H3420 H 0.70154 0.16615 0.4049 0.0
H3421 H 0.59176 0.13188 0.38881 0.0
H3422 H 0.58287 0.15512 0.3687 0.0
H3423 H 0.58763 0.16304 0.39788 0.0
C3424 C 0.67018 0.86911 0.20081 0.0
C3425 C 0.65377 0.86968 0.21913 0.0
C3426 C 0.66228 0.87395 0.17866 0.0
C3427 C 0.63714 0.87933 0.17431 0.0
C3428 C 0.6202 0.87887 0.19254 0.0
C3429 C 0.6287 0.8742 0.21468 0.0
C3430 C 0.68118 0.87437 0.16002 0.0
C3431 C 0.5932 0.88415 0.18877 0.0
C3432 C 0.62619 0.9205 0.12302 0.0
C3433 C 0.62066 0.90346 0.10589 0.0
C3434 C 0.63065 0.91295 0.14533 0.0
C3435 C 0.62935 0.88762 0.1511 0.0
C3436 C 0.62268 0.87036 0.13416 0.0
C3437 C 0.61855 0.87842 0.11179 0.0
C3438 C 0.63786 0.93213 0.16255 0.0
C3439 C 0.6207 0.84323 0.1395 0.0
H3440 H 0.68958 0.86559 0.20382 0.0
H3441 H 0.61577 0.87467 0.22857 0.0
H3442 H 0.67529 0.86218 0.14604 0.0
H3443 H 0.68273 0.89335 0.15314 0.0
H3444 H 0.69971 0.86838 0.16584 0.0
H3445 H 0.58195 0.88029 0.20398 0.0
H3446 H 0.59077 0.90382 0.18413 0.0
H3447 H 0.58604 0.8729 0.1746 0.0
H3448 H 0.62783 0.9399 0.11889 0.0
H3449 H 0.61428 0.86503 0.09884 0.0
H3450 H 0.65706 0.92875 0.16826 0.0
H3451 H 0.62576 0.93078 0.17753 0.0
H3452 H 0.63672 0.95121 0.15578 0.0
H3453 H 0.63931 0.83572 0.14319 0.0
H3454 H 0.61259 0.83256 0.12536 0.0
H3455 H 0.60922 0.84036 0.15472 0.0
C3456 C 0.62101 0.61632 0.62225 0.0
C3457 C 0.62145 0.63266 0.60387 0.0
C3458 C 0.62606 0.62433 0.64432 0.0
C3459 C 0.63156 0.64948 0.64848 0.0
C3460 C 0.63102 0.66633 0.63018 0.0
C3461 C 0.6261 0.65774 0.60813 0.0
C3462 C 0.62653 0.60554 0.66308 0.0
C3463 C 0.63645 0.69334 0.63376 0.0
C3464 C 0.63079 0.66847 0.71081 0.0
C3465 C 0.6558 0.66621 0.71674 0.0
C3466 C 0.6227 0.66426 0.68848 0.0
C3467 C 0.63992 0.6574 0.6716 0.0
C3468 C 0.66526 0.65603 0.67737 0.0
C3469 C 0.67282 0.66052 0.69966 0.0
C3470 C 0.59558 0.66628 0.68314 0.0
C3471 C 0.68439 0.64868 0.66019 0.0
H3472 H 0.6174 0.59691 0.61937 0.0
H3473 H 0.62648 0.67061 0.59418 0.0
H3474 H 0.64553 0.604 0.6699 0.0
H3475 H 0.61441 0.61153 0.67707 0.0
H3476 H 0.62047 0.58697 0.65739 0.0
H3477 H 0.63264 0.70451 0.61848 0.0
H3478 H 0.62526 0.70064 0.64789 0.0
H3479 H 0.65614 0.69572 0.63838 0.0
H3480 H 0.61742 0.67285 0.72374 0.0
H3481 H 0.69221 0.65878 0.70383 0.0
H3482 H 0.58799 0.64766 0.6796 0.0
H3483 H 0.59274 0.67764 0.66783 0.0
H3484 H 0.58495 0.67452 0.69722 0.0
H3485 H 0.68099 0.62942 0.65466 0.0
H3486 H 0.70348 0.6499 0.66691 0.0
H3487 H 0.68301 0.66063 0.6451 0.0
C3488 C 0.67432 0.37864 0.87224 0.0
C3489 C 0.65732 0.37279 0.85515 0.0
C3490 C 0.66681 0.38267 0.89461 0.0
C3491 C 0.64155 0.38066 0.90048 0.0
C3492 C 0.62437 0.37366 0.88357 0.0
C3493 C 0.6324 0.36991 0.86115 0.0
C3494 C 0.6859 0.39021 0.9118 0.0
C3495 C 0.59733 0.37097 0.889 0.0
C3496 C 0.62817 0.37921 0.96407 0.0
C3497 C 0.62303 0.40413 0.96863 0.0
C3498 C 0.63311 0.37101 0.9419 0.0
C3499 C 0.63318 0.38809 0.92375 0.0
C3500 C 0.6272 0.41306 0.92823 0.0
C3501 C 0.62214 0.42067 0.9504 0.0
C3502 C 0.63907 0.34418 0.938 0.0
C3503 C 0.62715 0.4321 0.90967 0.0
H3504 H 0.69364 0.38085 0.86802 0.0
H3505 H 0.61903 0.36541 0.84823 0.0
H3506 H 0.68214 0.40931 0.91757 0.0
H3507 H 0.68488 0.37802 0.92676 0.0
H3508 H 0.70497 0.38951 0.90499 0.0
H3509 H 0.58678 0.36269 0.87486 0.0
H3510 H 0.59483 0.35932 0.90418 0.0
H3511 H 0.58939 0.38936 0.89279 0.0
H3512 H 0.62891 0.36618 0.97788 0.0
H3513 H 0.61814 0.43996 0.9535 0.0
H3514 H 0.65878 0.34229 0.93328 0.0
H3515 H 0.62794 0.33682 0.92384 0.0
H3516 H 0.6356 0.33273 0.95317 0.0
H3517 H 0.64606 0.43414 0.90279 0.0
H3518 H 0.62075 0.45045 0.91559 0.0
H3519 H 0.61505 0.42603 0.89567 0.0
C3520 C 0.91242 0.37935 0.10589 0.0
C3521 C 0.91652 0.40449 0.10147 0.0
C3522 C 0.9079 0.37079 0.12801 0.0
C3523 C 0.90716 0.38775 0.14621 0.0
C3524 C 0.91212 0.41298 0.14188 0.0
C3525 C 0.91683 0.42095 0.11975 0.0
C3526 C 0.90309 0.3437 0.1318 0.0
C3527 C 0.91137 0.43188 0.16052 0.0
C3528 C 0.86621 0.37615 0.19738 0.0
C3529 C 0.88338 0.37098 0.2145 0.0
C3530 C 0.87366 0.38068 0.17508 0.0
C3531 C 0.89901 0.37984 0.16936 0.0
C3532 C 0.91641 0.3735 0.18629 0.0
C3533 C 0.90843 0.36928 0.20864 0.0
C3534 C 0.85436 0.38751 0.15784 0.0
C3535 C 0.94356 0.37201 0.18097 0.0
H3536 H 0.91217 0.3664 0.09202 0.0
H3537 H 0.92002 0.44041 0.11672 0.0
H3538 H 0.91443 0.33676 0.14599 0.0
H3539 H 0.88345 0.3409 0.1364 0.0
H3540 H 0.90715 0.3325 0.1166 0.0
H3541 H 0.91704 0.45052 0.1547 0.0
H3542 H 0.89236 0.43309 0.16736 0.0
H3543 H 0.92365 0.42623 0.17452 0.0
H3544 H 0.84679 0.37746 0.20151 0.0
H3545 H 0.9219 0.36528 0.22161 0.0
H3546 H 0.85592 0.37543 0.14286 0.0
H3547 H 0.8574 0.40677 0.15212 0.0
H3548 H 0.83531 0.38601 0.16458 0.0
H3549 H 0.94661 0.36058 0.16574 0.0
H3550 H 0.95437 0.36409 0.19511 0.0
H3551 H 0.95076 0.39074 0.17729 0.0
C3552 C 0.90916 0.65816 0.46426 0.0
C3553 C 0.91421 0.63325 0.46894 0.0
C3554 C 0.90443 0.6663 0.44203 0.0
C3555 C 0.9045 0.64916 0.42396 0.0
C3556 C 0.91042 0.62419 0.42856 0.0
C3557 C 0.91526 0.61664 0.4508 0.0
C3558 C 0.89853 0.69313 0.43799 0.0
C3559 C 0.91062 0.6051 0.41007 0.0
C3560 C 0.86383 0.6585 0.37211 0.0
C3561 C 0.881 0.66428 0.35517 0.0
C3562 C 0.87113 0.65453 0.39456 0.0
C3563 C 0.89635 0.65653 0.40062 0.0
C3564 C 0.91369 0.66348 0.38386 0.0
C3565 C 0.90586 0.66716 0.36137 0.0
C3566 C 0.85189 0.64705 0.41161 0.0
C3567 C 0.94068 0.66616 0.38951 0.0
H3568 H 0.90831 0.67123 0.47802 0.0
H3569 H 0.9192 0.59736 0.45401 0.0
H3570 H 0.90979 0.70044 0.42389 0.0
H3571 H 0.87887 0.69503 0.4331 0.0
H3572 H 0.9019 0.70462 0.45315 0.0
H3573 H 0.91695 0.58677 0.4161 0.0
H3574 H 0.89176 0.60306 0.40303 0.0
H3575 H 0.92283 0.61113 0.39615 0.0
H3576 H 0.84454 0.65628 0.36773 0.0
H3577 H 0.91934 0.67163 0.34855 0.0
H3578 H 0.8528 0.65928 0.42654 0.0
H3579 H 0.85558 0.62796 0.41747 0.0
H3580 H 0.83288 0.64776 0.40463 0.0
H3581 H 0.94305 0.67785 0.40468 0.0
H3582 H 0.95136 0.6744 0.37544 0.0
H3583 H 0.94857 0.64778 0.39343 0.0
C3584 C 0.41277 0.41974 0.44982 0.0
C3585 C 0.41483 0.40262 0.46752 0.0
C3586 C 0.4083 0.41222 0.4275 0.0
C3587 C 0.40579 0.38681 0.42236 0.0
C3588 C 0.40896 0.3693 0.43993 0.0
C3589 C 0.4134 0.37738 0.46224 0.0
C3590 C 0.40512 0.43169 0.40955 0.0
C3591 C 0.40667 0.34204 0.43534 0.0
C3592 C 0.36443 0.37365 0.37159 0.0
C3593 C 0.38144 0.37065 0.35394 0.0
C3594 C 0.37215 0.37783 0.39391 0.0
C3595 C 0.39765 0.37904 0.3991 0.0
C3596 C 0.41498 0.37492 0.38157 0.0
C3597 C 0.40671 0.37082 0.35926 0.0
C3598 C 0.35285 0.38207 0.4118 0.0
C3599 C 0.44232 0.37581 0.38622 0.0
H3600 H 0.41395 0.43929 0.45349 0.0
H3601 H 0.4149 0.36392 0.47566 0.0
H3602 H 0.4173 0.42772 0.39502 0.0
H3603 H 0.38582 0.43143 0.4033 0.0
H3604 H 0.40933 0.45052 0.41585 0.0
H3605 H 0.41241 0.33071 0.45001 0.0
H3606 H 0.38722 0.33752 0.43122 0.0
H3607 H 0.41805 0.33681 0.4206 0.0
H3608 H 0.34485 0.37346 0.36789 0.0
H3609 H 0.42009 0.36858 0.34589 0.0
H3610 H 0.35412 0.40134 0.418 0.0
H3611 H 0.35615 0.36972 0.42637 0.0
H3612 H 0.33383 0.37886 0.40547 0.0
H3613 H 0.44783 0.39501 0.39031 0.0
H3614 H 0.45336 0.36947 0.3716 0.0
H3615 H 0.44694 0.3642 0.40101 0.0
C3616 C 0.36398 0.66516 0.20275 0.0
C3617 C 0.3808 0.6677 0.22062 0.0
C3618 C 0.37193 0.66097 0.18053 0.0
C3619 C 0.39748 0.65936 0.17571 0.0
C3620 C 0.41465 0.66311 0.19345 0.0
C3621 C 0.40614 0.66715 0.21565 0.0
C3622 C 0.35283 0.65708 0.16237 0.0
C3623 C 0.44204 0.66183 0.18915 0.0
C3624 C 0.41284 0.61838 0.12537 0.0
C3625 C 0.4154 0.63544 0.10769 0.0
C3626 C 0.40805 0.626 0.14758 0.0
C3627 C 0.40582 0.65146 0.1526 0.0
C3628 C 0.40951 0.66889 0.13507 0.0
C3629 C 0.41419 0.66071 0.11286 0.0
C3630 C 0.40426 0.60662 0.16551 0.0
C3631 C 0.40758 0.6962 0.1396 0.0
H3632 H 0.34435 0.66565 0.2062 0.0
H3633 H 0.41937 0.66907 0.22921 0.0
H3634 H 0.35656 0.66939 0.14786 0.0
H3635 H 0.35384 0.6378 0.15617 0.0
H3636 H 0.33378 0.6606 0.16845 0.0
H3637 H 0.45296 0.66806 0.20391 0.0
H3638 H 0.44731 0.64255 0.18518 0.0
H3639 H 0.44703 0.67335 0.17441 0.0
H3640 H 0.41385 0.59881 0.12177 0.0
H3641 H 0.41611 0.67412 0.09945 0.0
H3642 H 0.38489 0.60725 0.17154 0.0
H3643 H 0.41634 0.61038 0.18017 0.0
H3644 H 0.40815 0.5877 0.15929 0.0
H3645 H 0.38815 0.70101 0.14345 0.0
H3646 H 0.41372 0.70742 0.125 0.0
H3647 H 0.41883 0.70128 0.15449 0.0
C3648 C 0.12339 0.65891 0.95994 0.0
C3649 C 0.12182 0.63368 0.96524 0.0
C3650 C 0.12806 0.66696 0.93768 0.0
C3651 C 0.13134 0.64942 0.92018 0.0
C3652 C 0.1287 0.62401 0.92532 0.0
C3653 C 0.12397 0.61653 0.94761 0.0
C3654 C 0.13048 0.69421 0.93305 0.0
C3655 C 0.13199 0.60453 0.90744 0.0
C3656 C 0.13104 0.66534 0.8571 0.0
C3657 C 0.15636 0.66545 0.85202 0.0
C3658 C 0.12255 0.66129 0.87933 0.0
C3659 C 0.13972 0.65714 0.897 0.0
C3660 C 0.16527 0.6583 0.89206 0.0
C3661 C 0.1732 0.66246 0.86982 0.0
C3662 C 0.09517 0.66047 0.88373 0.0
C3663 C 0.18438 0.65402 0.91014 0.0
H3664 H 0.12182 0.67239 0.97332 0.0
H3665 H 0.12268 0.59699 0.9513 0.0
H3666 H 0.14999 0.69867 0.92911 0.0
H3667 H 0.11926 0.69946 0.91819 0.0
H3668 H 0.12463 0.70557 0.94764 0.0
H3669 H 0.12768 0.58571 0.91373 0.0
H3670 H 0.11995 0.60852 0.89279 0.0
H3671 H 0.15134 0.60473 0.90136 0.0
H3672 H 0.11779 0.66759 0.8436 0.0
H3673 H 0.19282 0.66261 0.8663 0.0
H3674 H 0.09045 0.6721 0.89846 0.0
H3675 H 0.08957 0.64129 0.88779 0.0
H3676 H 0.08428 0.66684 0.869 0.0
H3677 H 0.18099 0.66639 0.92466 0.0
H3678 H 0.20347 0.65716 0.90398 0.0
H3679 H 0.183 0.63476 0.91636 0.0
C3680 C 0.12418 0.41854 0.62483 0.0
C3681 C 0.12106 0.40165 0.60711 0.0
C3682 C 0.12893 0.41069 0.647 0.0
C3683 C 0.13052 0.38516 0.65194 0.0
C3684 C 0.12628 0.36792 0.63437 0.0
C3685 C 0.12168 0.37633 0.6122 0.0
C3686 C 0.13334 0.42988 0.66497 0.0
C3687 C 0.12751 0.34055 0.63881 0.0
C3688 C 0.17222 0.37016 0.70196 0.0
C3689 C 0.15543 0.368 0.71988 0.0
C3690 C 0.16428 0.37462 0.67977 0.0
C3691 C 0.13876 0.37693 0.67501 0.0
C3692 C 0.12158 0.37357 0.69279 0.0
C3693 C 0.13009 0.36922 0.71497 0.0
C3694 C 0.18339 0.37807 0.66157 0.0
C3695 C 0.09422 0.37559 0.68857 0.0
H3696 H 0.12365 0.43815 0.6213 0.0
H3697 H 0.11932 0.36305 0.59875 0.0
H3698 H 0.12122 0.42639 0.67965 0.0
H3699 H 0.15271 0.42868 0.67095 0.0
H3700 H 0.12994 0.44893 0.6588 0.0
H3701 H 0.12102 0.32956 0.62419 0.0
H3702 H 0.14682 0.33521 0.64261 0.0
H3703 H 0.11618 0.33569 0.65371 0.0
H3704 H 0.19184 0.36915 0.70536 0.0
H3705 H 0.11688 0.36761 0.72856 0.0
H3706 H 0.18288 0.3974 0.65542 0.0
H3707 H 0.17925 0.36594 0.64703 0.0
H3708 H 0.20237 0.374 0.66758 0.0
H3709 H 0.08944 0.39502 0.68468 0.0
H3710 H 0.0832 0.36957 0.70333 0.0
H3711 H 0.08885 0.36429 0.6738 0.0
loop_
_geom_bond_atom_site_label_1
_geom_bond_atom_site_label_2
_geom_bond_distance
_geom_bond_site_symmetry_2
_ccdc_geom_bond_type
O0 Tb1 2.506 . S
O0 C14 1.265 . S
Tb1 O0 2.506 . S
Tb1 O6 2.312 . S
Tb1 O10 2.271 . S
Tb1 O12 2.338 . S
Tb1 O19 2.441 . S
C2 O10 1.252 . S
C2 O11 1.253 . S
O3 Tb4 2.271 . S
O3 C13 1.252 . S
Tb4 O3 2.271 . S
Tb4 O7 2.338 . S
Tb4 O11 2.312 . S
Tb4 O15 2.441 . S
Tb4 O16 2.506 . S
C5 O15 1.244 . S
C5 O16 1.265 . S
O6 Tb1 2.312 . S
O6 C13 1.253 . S
O7 Tb4 2.338 . S
O7 C8 1.258 . S
C8 O7 1.258 . S
C8 O9 1.251 . S
O9 C8 1.251 . S
O10 Tb1 2.271 . S
O10 C2 1.252 . S
O11 C2 1.253 . S
O11 Tb4 2.312 . S
O12 Tb1 2.338 . S
O12 C17 1.258 . S
C13 O3 1.252 . S
C13 O6 1.253 . S
C14 O0 1.265 . S
C14 O19 1.244 . S
O15 Tb4 2.441 . S
O15 C5 1.244 . S
O16 Tb4 2.506 . S
O16 C5 1.265 . S
C17 O12 1.258 . S
C17 O18 1.251 . S
O18 C17 1.251 . S
O19 Tb1 2.441 . S
O19 C14 1.244 . S
O20 Tb21 2.506 . S
O20 C34 1.265 . S
Tb21 O20 2.506 . S
Tb21 O26 2.312 . S
Tb21 O30 2.271 . S
Tb21 O32 2.338 . S
Tb21 O39 2.441 . S
C22 O30 1.252 . S
C22 O31 1.253 . S
O23 Tb24 2.271 . S
O23 C33 1.252 . S
Tb24 O23 2.271 . S
Tb24 O27 2.338 . S
Tb24 O31 2.312 . S
Tb24 O35 2.441 . S
Tb24 O36 2.506 . S
C25 O35 1.244 . S
C25 O36 1.265 . S
O26 Tb21 2.312 . S
O26 C33 1.253 . S
O27 Tb24 2.338 . S
O27 C28 1.258 . S
C28 O27 1.258 . S
C28 O29 1.251 . S
O29 C28 1.251 . S
O30 Tb21 2.271 . S
O30 C22 1.252 . S
O31 C22 1.253 . S
O31 Tb24 2.312 . S
O32 Tb21 2.338 . S
O32 C37 1.258 . S
C33 O23 1.252 . S
C33 O26 1.253 . S
C34 O20 1.265 . S
C34 O39 1.244 . S
O35 Tb24 2.441 . S
O35 C25 1.244 . S
O36 Tb24 2.506 . S
O36 C25 1.265 . S
C37 O32 1.258 . S
C37 O38 1.251 . S
O38 C37 1.251 . S
O39 Tb21 2.441 . S
O39 C34 1.244 . S
O40 Tb41 2.506 . S
O40 C54 1.265 . S
Tb41 O40 2.506 . S
Tb41 O46 2.312 . S
Tb41 O50 2.271 . S
Tb41 O52 2.338 . S
Tb41 O59 2.441 . S
C42 O50 1.252 . S
C42 O51 1.253 . S
O43 Tb44 2.271 . S
O43 C53 1.252 . S
Tb44 O43 2.271 . S
Tb44 O47 2.338 . S
Tb44 O51 2.312 . S
Tb44 O55 2.441 . S
Tb44 O56 2.506 . S
C45 O55 1.244 . S
C45 O56 1.265 . S
O46 Tb41 2.312 . S
O46 C53 1.253 . S
O47 Tb44 2.338 . S
O47 C48 1.258 . S
C48 O47 1.258 . S
C48 O49 1.251 . S
O49 C48 1.251 . S
O50 Tb41 2.271 . S
O50 C42 1.252 . S
O51 C42 1.253 . S
O51 Tb44 2.312 . S
O52 Tb41 2.338 . S
O52 C57 1.258 . S
C53 O43 1.252 . S
C53 O46 1.253 . S
C54 O40 1.265 . S
C54 O59 1.244 . S
O55 Tb44 2.441 . S
O55 C45 1.244 . S
O56 Tb44 2.506 . S
O56 C45 1.265 . S
C57 O52 1.258 . S
C57 O58 1.251 . S
O58 C57 1.251 . S
O59 Tb41 2.441 . S
O59 C54 1.244 . S
O60 Tb61 2.506 . S
O60 C74 1.265 . S
Tb61 O60 2.506 . S
Tb61 O66 2.312 . S
Tb61 O70 2.271 . S
Tb61 O72 2.338 1_554 S
Tb61 O79 2.441 . S
C62 O70 1.252 . S
C62 O71 1.253 . S
O63 Tb64 2.271 . S
O63 C73 1.252 . S
Tb64 O63 2.271 . S
Tb64 O67 2.338 . S
Tb64 O71 2.312 . S
Tb64 O75 2.441 . S
Tb64 O76 2.506 . S
C65 O75 1.244 . S
C65 O76 1.265 . S
O66 Tb61 2.312 . S
O66 C73 1.253 . S
O67 Tb64 2.338 . S
O67 C68 1.258 . S
C68 O67 1.258 . S
C68 O69 1.251 . S
O69 C68 1.251 . S
O70 Tb61 2.271 . S
O70 C62 1.252 . S
O71 C62 1.253 . S
O71 Tb64 2.312 . S
O72 Tb61 2.338 1_556 S
O72 C77 1.258 . S
C73 O63 1.252 . S
C73 O66 1.253 . S
C74 O60 1.265 . S
C74 O79 1.244 . S
O75 Tb64 2.441 . S
O75 C65 1.244 . S
O76 Tb64 2.506 . S
O76 C65 1.265 . S
C77 O72 1.258 . S
C77 O78 1.251 . S
O78 C77 1.251 . S
O79 Tb61 2.441 . S
O79 C74 1.244 . S
O80 Tb81 2.506 . S
O80 C94 1.265 . S
Tb81 O80 2.506 . S
Tb81 O86 2.312 . S
Tb81 O90 2.271 . S
Tb81 O92 2.338 . S
Tb81 O99 2.441 . S
C82 O90 1.252 . S
C82 O91 1.253 . S
O83 Tb84 2.271 . S
O83 C93 1.252 . S
Tb84 O83 2.271 . S
Tb84 O87 2.338 . S
Tb84 O91 2.312 . S
Tb84 O95 2.441 . S
Tb84 O96 2.506 . S
C85 O95 1.244 . S
C85 O96 1.265 . S
O86 Tb81 2.312 . S
O86 C93 1.253 . S
O87 Tb84 2.338 . S
O87 C88 1.258 . S
C88 O87 1.258 . S
C88 O89 1.251 . S
O89 C88 1.251 . S
O90 Tb81 2.271 . S
O90 C82 1.252 . S
O91 C82 1.253 . S
O91 Tb84 2.312 . S
O92 Tb81 2.338 . S
O92 C97 1.258 . S
C93 O83 1.252 . S
C93 O86 1.253 . S
C94 O80 1.265 . S
C94 O99 1.244 . S
O95 Tb84 2.441 . S
O95 C85 1.244 . S
O96 Tb84 2.506 . S
O96 C85 1.265 . S
C97 O92 1.258 . S
C97 O98 1.251 . S
O98 C97 1.251 . S
O99 Tb81 2.441 . S
O99 C94 1.244 . S
O100 Tb101 2.506 . S
O100 C114 1.265 . S
Tb101 O100 2.506 . S
Tb101 O106 2.312 . S
Tb101 O110 2.271 . S
Tb101 O112 2.338 . S
Tb101 O119 2.441 . S
C102 O110 1.252 . S
C102 O111 1.253 . S
O103 Tb104 2.271 . S
O103 C113 1.252 . S
Tb104 O103 2.271 . S
Tb104 O107 2.338 . S
Tb104 O111 2.312 . S
Tb104 O115 2.441 . S
Tb104 O116 2.506 . S
C105 O115 1.244 . S
C105 O116 1.265 . S
O106 Tb101 2.312 . S
O106 C113 1.253 . S
O107 Tb104 2.338 . S
O107 C108 1.258 . S
C108 O107 1.258 . S
C108 O109 1.251 . S
O109 C108 1.251 . S
O110 Tb101 2.271 . S
O110 C102 1.252 . S
O111 C102 1.253 . S
O111 Tb104 2.312 . S
O112 Tb101 2.338 . S
O112 C117 1.258 . S
C113 O103 1.252 . S
C113 O106 1.253 . S
C114 O100 1.265 . S
C114 O119 1.244 . S
O115 Tb104 2.441 . S
O115 C105 1.244 . S
O116 Tb104 2.506 . S
O116 C105 1.265 . S
C117 O112 1.258 . S
C117 O118 1.251 . S
O118 C117 1.251 . S
O119 Tb101 2.441 . S
O119 C114 1.244 . S
O120 Tb121 2.506 . S
O120 C134 1.265 . S
Tb121 O120 2.506 . S
Tb121 O126 2.312 . S
Tb121 O130 2.271 . S
Tb121 O132 2.338 . S
Tb121 O139 2.441 . S
C122 O130 1.252 . S
C122 O131 1.253 . S
O123 Tb124 2.271 . S
O123 C133 1.252 . S
Tb124 O123 2.271 . S
Tb124 O127 2.338 . S
Tb124 O131 2.312 . S
Tb124 O135 2.441 . S
Tb124 O136 2.506 . S
C125 O135 1.244 . S
C125 O136 1.265 . S
O126 Tb121 2.312 . S
O126 C133 1.253 . S
O127 Tb124 2.338 . S
O127 C128 1.258 . S
C128 O127 1.258 . S
C128 O129 1.251 . S
O129 C128 1.251 . S
O130 Tb121 2.271 . S
O130 C122 1.252 . S
O131 C122 1.253 . S
O131 Tb124 2.312 . S
O132 Tb121 2.338 . S
O132 C137 1.258 . S
C133 O123 1.252 . S
C133 O126 1.253 . S
C134 O120 1.265 . S
C134 O139 1.244 . S
O135 Tb124 2.441 . S
O135 C125 1.244 . S
O136 Tb124 2.506 . S
O136 C125 1.265 . S
C137 O132 1.258 . S
C137 O138 1.251 . S
O138 C137 1.251 . S
O139 Tb121 2.441 . S
O139 C134 1.244 . S
O140 Tb141 2.506 . S
O140 C154 1.265 . S
Tb141 O140 2.506 . S
Tb141 O146 2.312 . S
Tb141 O150 2.271 . S
Tb141 O152 2.338 . S
Tb141 O159 2.441 . S
C142 O150 1.252 . S
C142 O151 1.253 . S
O143 Tb144 2.271 . S
O143 C153 1.252 . S
Tb144 O143 2.271 . S
Tb144 O147 2.338 1_556 S
Tb144 O151 2.312 . S
Tb144 O155 2.441 . S
Tb144 O156 2.506 . S
C145 O155 1.244 . S
C145 O156 1.265 . S
O146 Tb141 2.312 . S
O146 C153 1.253 . S
O147 Tb144 2.338 1_554 S
O147 C148 1.258 . S
C148 O147 1.258 . S
C148 O149 1.251 . S
O149 C148 1.251 . S
O150 Tb141 2.271 . S
O150 C142 1.252 . S
O151 C142 1.253 . S
O151 Tb144 2.312 . S
O152 Tb141 2.338 . S
O152 C157 1.258 . S
C153 O143 1.252 . S
C153 O146 1.253 . S
C154 O140 1.265 . S
C154 O159 1.244 . S
O155 Tb144 2.441 . S
O155 C145 1.244 . S
O156 Tb144 2.506 . S
O156 C145 1.265 . S
C157 O152 1.258 . S
C157 O158 1.251 . S
O158 C157 1.251 . S
O159 Tb141 2.441 . S
O159 C154 1.244 . S
O160 Tb161 2.506 . S
O160 C174 1.265 . S
Tb161 O160 2.506 . S
Tb161 O166 2.312 . S
Tb161 O170 2.271 . S
Tb161 O172 2.338 . S
Tb161 O179 2.441 . S
C162 O170 1.252 . S
C162 O171 1.253 . S
O163 Tb164 2.271 . S
O163 C173 1.252 . S
Tb164 O163 2.271 . S
Tb164 O167 2.338 . S
Tb164 O171 2.312 . S
Tb164 O175 2.441 . S
Tb164 O176 2.506 . S
C165 O175 1.244 . S
C165 O176 1.265 . S
O166 Tb161 2.312 . S
O166 C173 1.253 . S
O167 Tb164 2.338 . S
O167 C168 1.258 . S
C168 O167 1.258 . S
C168 O169 1.251 . S
O169 C168 1.251 . S
O170 Tb161 2.271 . S
O170 C162 1.252 . S
O171 C162 1.253 . S
O171 Tb164 2.312 . S
O172 Tb161 2.338 . S
O172 C177 1.258 . S
C173 O163 1.252 . S
C173 O166 1.253 . S
C174 O160 1.265 . S
C174 O179 1.244 . S
O175 Tb164 2.441 . S
O175 C165 1.244 . S
O176 Tb164 2.506 . S
O176 C165 1.265 . S
C177 O172 1.258 . S
C177 O178 1.251 . S
O178 C177 1.251 . S
O179 Tb161 2.441 . S
O179 C174 1.244 . S
O180 Tb181 2.506 . S
O180 C194 1.265 . S
Tb181 O180 2.506 . S
Tb181 O186 2.312 . S
Tb181 O190 2.271 . S
Tb181 O192 2.338 . S
Tb181 O199 2.441 . S
C182 O190 1.252 . S
C182 O191 1.253 . S
O183 Tb184 2.271 . S
O183 C193 1.252 . S
Tb184 O183 2.271 . S
Tb184 O187 2.338 . S
Tb184 O191 2.312 . S
Tb184 O195 2.441 . S
Tb184 O196 2.506 . S
C185 O195 1.244 . S
C185 O196 1.265 . S
O186 Tb181 2.312 . S
O186 C193 1.253 . S
O187 Tb184 2.338 . S
O187 C188 1.258 . S
C188 O187 1.258 . S
C188 O189 1.251 . S
O189 C188 1.251 . S
O190 Tb181 2.271 . S
O190 C182 1.252 . S
O191 C182 1.253 . S
O191 Tb184 2.312 . S
O192 Tb181 2.338 . S
O192 C197 1.258 . S
C193 O183 1.252 . S
C193 O186 1.253 . S
C194 O180 1.265 . S
C194 O199 1.244 . S
O195 Tb184 2.441 . S
O195 C185 1.244 . S
O196 Tb184 2.506 . S
O196 C185 1.265 . S
C197 O192 1.258 . S
C197 O198 1.251 . S
O198 C197 1.251 . S
O199 Tb181 2.441 . S
O199 C194 1.244 . S
O200 Tb201 2.506 . S
O200 C214 1.265 . S
Tb201 O200 2.506 . S
Tb201 O206 2.312 . S
Tb201 O210 2.271 . S
Tb201 O212 2.338 . S
Tb201 O219 2.441 . S
C202 O210 1.252 . S
C202 O211 1.253 . S
O203 Tb204 2.271 . S
O203 C213 1.252 . S
Tb204 O203 2.271 . S
Tb204 O207 2.338 . S
Tb204 O211 2.312 . S
Tb204 O215 2.441 . S
Tb204 O216 2.506 . S
C205 O215 1.244 . S
C205 O216 1.265 . S
O206 Tb201 2.312 . S
O206 C213 1.253 . S
O207 Tb204 2.338 . S
O207 C208 1.258 . S
C208 O207 1.258 . S
C208 O209 1.251 . S
O209 C208 1.251 . S
O210 Tb201 2.271 . S
O210 C202 1.252 . S
O211 C202 1.253 . S
O211 Tb204 2.312 . S
O212 Tb201 2.338 . S
O212 C217 1.258 . S
C213 O203 1.252 . S
C213 O206 1.253 . S
C214 O200 1.265 . S
C214 O219 1.244 . S
O215 Tb204 2.441 . S
O215 C205 1.244 . S
O216 Tb204 2.506 . S
O216 C205 1.265 . S
C217 O212 1.258 . S
C217 O218 1.251 . S
O218 C217 1.251 . S
O219 Tb201 2.441 . S
O219 C214 1.244 . S
O220 Tb221 2.506 . S
O220 C234 1.265 . S
Tb221 O220 2.506 . S
Tb221 O226 2.312 . S
Tb221 O230 2.271 . S
Tb221 O232 2.338 1_556 S
Tb221 O239 2.441 . S
C222 O230 1.252 . S
C222 O231 1.253 . S
O223 Tb224 2.271 . S
O223 C233 1.252 . S
Tb224 O223 2.271 . S
Tb224 O227 2.338 . S
Tb224 O231 2.312 . S
Tb224 O235 2.441 . S
Tb224 O236 2.506 . S
C225 O235 1.244 . S
C225 O236 1.265 . S
O226 Tb221 2.312 . S
O226 C233 1.253 . S
O227 Tb224 2.338 . S
O227 C228 1.258 . S
C228 O227 1.258 . S
C228 O229 1.251 . S
O229 C228 1.251 . S
O230 Tb221 2.271 . S
O230 C222 1.252 . S
O231 C222 1.253 . S
O231 Tb224 2.312 . S
O232 Tb221 2.338 1_554 S
O232 C237 1.258 . S
C233 O223 1.252 . S
C233 O226 1.253 . S
C234 O220 1.265 . S
C234 O239 1.244 . S
O235 Tb224 2.441 . S
O235 C225 1.244 . S
O236 Tb224 2.506 . S
O236 C225 1.265 . S
C237 O232 1.258 . S
C237 O238 1.251 . S
O238 C237 1.251 . S
O239 Tb221 2.441 . S
O239 C234 1.244 . S
O240 Tb241 2.506 . S
O240 C254 1.265 . S
Tb241 O240 2.506 . S
Tb241 O246 2.312 . S
Tb241 O250 2.271 . S
Tb241 O252 2.338 . S
Tb241 O259 2.441 . S
C242 O250 1.252 . S
C242 O251 1.253 . S
O243 Tb244 2.271 . S
O243 C253 1.252 . S
Tb244 O243 2.271 . S
Tb244 O247 2.338 . S
Tb244 O251 2.312 . S
Tb244 O255 2.441 . S
Tb244 O256 2.506 . S
C245 O255 1.244 . S
C245 O256 1.265 . S
O246 Tb241 2.312 . S
O246 C253 1.253 . S
O247 Tb244 2.338 . S
O247 C248 1.258 . S
C248 O247 1.258 . S
C248 O249 1.251 . S
O249 C248 1.251 . S
O250 Tb241 2.271 . S
O250 C242 1.252 . S
O251 C242 1.253 . S
O251 Tb244 2.312 . S
O252 Tb241 2.338 . S
O252 C257 1.258 . S
C253 O243 1.252 . S
C253 O246 1.253 . S
C254 O240 1.265 . S
C254 O259 1.244 . S
O255 Tb244 2.441 . S
O255 C245 1.244 . S
O256 Tb244 2.506 . S
O256 C245 1.265 . S
C257 O252 1.258 . S
C257 O258 1.251 . S
O258 C257 1.251 . S
O259 Tb241 2.441 . S
O259 C254 1.244 . S
O260 Tb261 2.506 . S
O260 C274 1.265 . S
Tb261 O260 2.506 . S
Tb261 O266 2.312 . S
Tb261 O270 2.271 . S
Tb261 O272 2.338 . S
Tb261 O279 2.441 . S
C262 O270 1.252 . S
C262 O271 1.253 . S
O263 Tb264 2.271 . S
O263 C273 1.252 . S
Tb264 O263 2.271 . S
Tb264 O267 2.338 . S
Tb264 O271 2.312 . S
Tb264 O275 2.441 . S
Tb264 O276 2.506 . S
C265 O275 1.244 . S
C265 O276 1.265 . S
O266 Tb261 2.312 . S
O266 C273 1.253 . S
O267 Tb264 2.338 . S
O267 C268 1.258 . S
C268 O267 1.258 . S
C268 O269 1.251 . S
O269 C268 1.251 . S
O270 Tb261 2.271 . S
O270 C262 1.252 . S
O271 C262 1.253 . S
O271 Tb264 2.312 . S
O272 Tb261 2.338 . S
O272 C277 1.258 . S
C273 O263 1.252 . S
C273 O266 1.253 . S
C274 O260 1.265 . S
C274 O279 1.244 . S
O275 Tb264 2.441 . S
O275 C265 1.244 . S
O276 Tb264 2.506 . S
O276 C265 1.265 . S
C277 O272 1.258 . S
C277 O278 1.251 . S
O278 C277 1.251 . S
O279 Tb261 2.441 . S
O279 C274 1.244 . S
O280 Tb281 2.506 . S
O280 C294 1.265 . S
Tb281 O280 2.506 . S
Tb281 O286 2.312 . S
Tb281 O290 2.271 . S
Tb281 O292 2.338 . S
Tb281 O299 2.441 . S
C282 O290 1.252 . S
C282 O291 1.253 . S
O283 Tb284 2.271 . S
O283 C293 1.252 . S
Tb284 O283 2.271 . S
Tb284 O287 2.338 . S
Tb284 O291 2.312 . S
Tb284 O295 2.441 . S
Tb284 O296 2.506 . S
C285 O295 1.244 . S
C285 O296 1.265 . S
O286 Tb281 2.312 . S
O286 C293 1.253 . S
O287 Tb284 2.338 . S
O287 C288 1.258 . S
C288 O287 1.258 . S
C288 O289 1.251 . S
O289 C288 1.251 . S
O290 Tb281 2.271 . S
O290 C282 1.252 . S
O291 C282 1.253 . S
O291 Tb284 2.312 . S
O292 Tb281 2.338 . S
O292 C297 1.258 . S
C293 O283 1.252 . S
C293 O286 1.253 . S
C294 O280 1.265 . S
C294 O299 1.244 . S
O295 Tb284 2.441 . S
O295 C285 1.244 . S
O296 Tb284 2.506 . S
O296 C285 1.265 . S
C297 O292 1.258 . S
C297 O298 1.251 . S
O298 C297 1.251 . S
O299 Tb281 2.441 . S
O299 C294 1.244 . S
O300 Tb301 2.506 . S
O300 C314 1.265 . S
Tb301 O300 2.506 . S
Tb301 O306 2.312 . S
Tb301 O310 2.271 . S
Tb301 O312 2.338 1_554 S
Tb301 O319 2.441 . S
C302 O310 1.252 . S
C302 O311 1.253 . S
O303 Tb304 2.271 . S
O303 C313 1.252 . S
Tb304 O303 2.271 . S
Tb304 O307 2.338 . S
Tb304 O311 2.312 . S
Tb304 O315 2.441 . S
Tb304 O316 2.506 . S
C305 O315 1.244 . S
C305 O316 1.265 . S
O306 Tb301 2.312 . S
O306 C313 1.253 . S
O307 Tb304 2.338 . S
O307 C308 1.258 . S
C308 O307 1.258 . S
C308 O309 1.251 . S
O309 C308 1.251 . S
O310 Tb301 2.271 . S
O310 C302 1.252 . S
O311 C302 1.253 . S
O311 Tb304 2.312 . S
O312 Tb301 2.338 1_556 S
O312 C317 1.258 . S
C313 O303 1.252 . S
C313 O306 1.253 . S
C314 O300 1.265 . S
C314 O319 1.244 . S
O315 Tb304 2.441 . S
O315 C305 1.244 . S
O316 Tb304 2.506 . S
O316 C305 1.265 . S
C317 O312 1.258 . S
C317 O318 1.251 . S
O318 C317 1.251 . S
O319 Tb301 2.441 . S
O319 C314 1.244 . S
O320 Tb321 2.506 . S
O320 C334 1.265 . S
Tb321 O320 2.506 . S
Tb321 O326 2.312 . S
Tb321 O330 2.271 . S
Tb321 O332 2.338 . S
Tb321 O339 2.441 . S
C322 O330 1.252 . S
C322 O331 1.253 . S
O323 Tb324 2.271 . S
O323 C333 1.252 . S
Tb324 O323 2.271 . S
Tb324 O327 2.338 . S
Tb324 O331 2.312 . S
Tb324 O335 2.441 . S
Tb324 O336 2.506 . S
C325 O335 1.244 . S
C325 O336 1.265 . S
O326 Tb321 2.312 . S
O326 C333 1.253 . S
O327 Tb324 2.338 . S
O327 C328 1.258 . S
C328 O327 1.258 . S
C328 O329 1.251 . S
O329 C328 1.251 . S
O330 Tb321 2.271 . S
O330 C322 1.252 . S
O331 C322 1.253 . S
O331 Tb324 2.312 . S
O332 Tb321 2.338 . S
O332 C337 1.258 . S
C333 O323 1.252 . S
C333 O326 1.253 . S
C334 O320 1.265 . S
C334 O339 1.244 . S
O335 Tb324 2.441 . S
O335 C325 1.244 . S
O336 Tb324 2.506 . S
O336 C325 1.265 . S
C337 O332 1.258 . S
C337 O338 1.251 . S
O338 C337 1.251 . S
O339 Tb321 2.441 . S
O339 C334 1.244 . S
O340 Tb341 2.506 . S
O340 C354 1.265 . S
Tb341 O340 2.506 . S
Tb341 O346 2.312 . S
Tb341 O350 2.271 . S
Tb341 O352 2.338 1_554 S
Tb341 O359 2.441 . S
C342 O350 1.252 . S
C342 O351 1.253 . S
O343 Tb344 2.271 . S
O343 C353 1.252 . S
Tb344 O343 2.271 . S
Tb344 O347 2.338 . S
Tb344 O351 2.312 . S
Tb344 O355 2.441 . S
Tb344 O356 2.506 . S
C345 O355 1.244 . S
C345 O356 1.265 . S
O346 Tb341 2.312 . S
O346 C353 1.253 . S
O347 Tb344 2.338 . S
O347 C348 1.258 . S
C348 O347 1.258 . S
C348 O349 1.251 . S
O349 C348 1.251 . S
O350 Tb341 2.271 . S
O350 C342 1.252 . S
O351 C342 1.253 . S
O351 Tb344 2.312 . S
O352 Tb341 2.338 1_556 S
O352 C357 1.258 . S
C353 O343 1.252 . S
C353 O346 1.253 . S
C354 O340 1.265 . S
C354 O359 1.244 . S
O355 Tb344 2.441 . S
O355 C345 1.244 . S
O356 Tb344 2.506 . S
O356 C345 1.265 . S
C357 O352 1.258 . S
C357 O358 1.251 . S
O358 C357 1.251 . S
O359 Tb341 2.441 . S
O359 C354 1.244 . S
O360 Tb361 2.506 . S
O360 C374 1.265 . S
Tb361 O360 2.506 . S
Tb361 O366 2.312 . S
Tb361 O370 2.271 . S
Tb361 O372 2.338 . S
Tb361 O379 2.441 . S
C362 O370 1.252 . S
C362 O371 1.253 . S
O363 Tb364 2.271 . S
O363 C373 1.252 . S
Tb364 O363 2.271 . S
Tb364 O367 2.338 . S
Tb364 O371 2.312 . S
Tb364 O375 2.441 . S
Tb364 O376 2.506 . S
C365 O375 1.244 . S
C365 O376 1.265 . S
O366 Tb361 2.312 . S
O366 C373 1.253 . S
O367 Tb364 2.338 . S
O367 C368 1.258 . S
C368 O367 1.258 . S
C368 O369 1.251 . S
O369 C368 1.251 . S
O370 Tb361 2.271 . S
O370 C362 1.252 . S
O371 C362 1.253 . S
O371 Tb364 2.312 . S
O372 Tb361 2.338 . S
O372 C377 1.258 . S
C373 O363 1.252 . S
C373 O366 1.253 . S
C374 O360 1.265 . S
C374 O379 1.244 . S
O375 Tb364 2.441 . S
O375 C365 1.244 . S
O376 Tb364 2.506 . S
O376 C365 1.265 . S
C377 O372 1.258 . S
C377 O378 1.251 . S
O378 C377 1.251 . S
O379 Tb361 2.441 . S
O379 C374 1.244 . S
O380 Tb381 2.506 . S
O380 C394 1.265 . S
Tb381 O380 2.506 . S
Tb381 O386 2.312 . S
Tb381 O390 2.271 . S
Tb381 O392 2.338 . S
Tb381 O399 2.441 . S
C382 O390 1.252 . S
C382 O391 1.253 . S
O383 Tb384 2.271 . S
O383 C393 1.252 . S
Tb384 O383 2.271 . S
Tb384 O387 2.338 . S
Tb384 O391 2.312 . S
Tb384 O395 2.441 . S
Tb384 O396 2.506 . S
C385 O395 1.244 . S
C385 O396 1.265 . S
O386 Tb381 2.312 . S
O386 C393 1.253 . S
O387 Tb384 2.338 . S
O387 C388 1.258 . S
C388 O387 1.258 . S
C388 O389 1.251 . S
O389 C388 1.251 . S
O390 Tb381 2.271 . S
O390 C382 1.252 . S
O391 C382 1.253 . S
O391 Tb384 2.312 . S
O392 Tb381 2.338 . S
O392 C397 1.258 . S
C393 O383 1.252 . S
C393 O386 1.253 . S
C394 O380 1.265 . S
C394 O399 1.244 . S
O395 Tb384 2.441 . S
O395 C385 1.244 . S
O396 Tb384 2.506 . S
O396 C385 1.265 . S
C397 O392 1.258 . S
C397 O398 1.251 . S
O398 C397 1.251 . S
O399 Tb381 2.441 . S
O399 C394 1.244 . S
O400 Tb401 2.506 . S
O400 C414 1.265 . S
Tb401 O400 2.506 . S
Tb401 O406 2.312 . S
Tb401 O410 2.271 . S
Tb401 O412 2.338 . S
Tb401 O419 2.441 . S
C402 O410 1.252 . S
C402 O411 1.253 . S
O403 Tb404 2.271 . S
O403 C413 1.252 . S
Tb404 O403 2.271 . S
Tb404 O407 2.338 . S
Tb404 O411 2.312 . S
Tb404 O415 2.441 . S
Tb404 O416 2.506 . S
C405 O415 1.244 . S
C405 O416 1.265 . S
O406 Tb401 2.312 . S
O406 C413 1.253 . S
O407 Tb404 2.338 . S
O407 C408 1.258 . S
C408 O407 1.258 . S
C408 O409 1.251 . S
O409 C408 1.251 . S
O410 Tb401 2.271 . S
O410 C402 1.252 . S
O411 C402 1.253 . S
O411 Tb404 2.312 . S
O412 Tb401 2.338 . S
O412 C417 1.258 . S
C413 O403 1.252 . S
C413 O406 1.253 . S
C414 O400 1.265 . S
C414 O419 1.244 . S
O415 Tb404 2.441 . S
O415 C405 1.244 . S
O416 Tb404 2.506 . S
O416 C405 1.265 . S
C417 O412 1.258 . S
C417 O418 1.251 . S
O418 C417 1.251 . S
O419 Tb401 2.441 . S
O419 C414 1.244 . S
O420 Tb421 2.506 . S
O420 C434 1.265 . S
Tb421 O420 2.506 . S
Tb421 O426 2.312 . S
Tb421 O430 2.271 . S
Tb421 O432 2.338 1_556 S
Tb421 O439 2.441 . S
C422 O430 1.252 . S
C422 O431 1.253 . S
O423 Tb424 2.271 . S
O423 C433 1.252 . S
Tb424 O423 2.271 . S
Tb424 O427 2.338 . S
Tb424 O431 2.312 . S
Tb424 O435 2.441 . S
Tb424 O436 2.506 . S
C425 O435 1.244 . S
C425 O436 1.265 . S
O426 Tb421 2.312 . S
O426 C433 1.253 . S
O427 Tb424 2.338 . S
O427 C428 1.258 . S
C428 O427 1.258 . S
C428 O429 1.251 . S
O429 C428 1.251 . S
O430 Tb421 2.271 . S
O430 C422 1.252 . S
O431 C422 1.253 . S
O431 Tb424 2.312 . S
O432 Tb421 2.338 1_554 S
O432 C437 1.258 . S
C433 O423 1.252 . S
C433 O426 1.253 . S
C434 O420 1.265 . S
C434 O439 1.244 . S
O435 Tb424 2.441 . S
O435 C425 1.244 . S
O436 Tb424 2.506 . S
O436 C425 1.265 . S
C437 O432 1.258 . S
C437 O438 1.251 . S
O438 C437 1.251 . S
O439 Tb421 2.441 . S
O439 C434 1.244 . S
O440 Tb441 2.506 . S
O440 C454 1.265 . S
Tb441 O440 2.506 . S
Tb441 O446 2.312 . S
Tb441 O450 2.271 . S
Tb441 O452 2.338 . S
Tb441 O459 2.441 . S
C442 O450 1.252 . S
C442 O451 1.253 . S
O443 Tb444 2.271 . S
O443 C453 1.252 . S
Tb444 O443 2.271 . S
Tb444 O447 2.338 . S
Tb444 O451 2.312 . S
Tb444 O455 2.441 . S
Tb444 O456 2.506 . S
C445 O455 1.244 . S
C445 O456 1.265 . S
O446 Tb441 2.312 . S
O446 C453 1.253 . S
O447 Tb444 2.338 . S
O447 C448 1.258 . S
C448 O447 1.258 . S
C448 O449 1.251 . S
O449 C448 1.251 . S
O450 Tb441 2.271 . S
O450 C442 1.252 . S
O451 C442 1.253 . S
O451 Tb444 2.312 . S
O452 Tb441 2.338 . S
O452 C457 1.258 . S
C453 O443 1.252 . S
C453 O446 1.253 . S
C454 O440 1.265 . S
C454 O459 1.244 . S
O455 Tb444 2.441 . S
O455 C445 1.244 . S
O456 Tb444 2.506 . S
O456 C445 1.265 . S
C457 O452 1.258 . S
C457 O458 1.251 . S
O458 C457 1.251 . S
O459 Tb441 2.441 . S
O459 C454 1.244 . S
O460 Tb461 2.506 . S
O460 C474 1.265 . S
Tb461 O460 2.506 . S
Tb461 O466 2.312 . S
Tb461 O470 2.271 . S
Tb461 O472 2.338 . S
Tb461 O479 2.441 . S
C462 O470 1.252 . S
C462 O471 1.253 . S
O463 Tb464 2.271 . S
O463 C473 1.252 . S
Tb464 O463 2.271 . S
Tb464 O467 2.338 . S
Tb464 O471 2.312 . S
Tb464 O475 2.441 . S
Tb464 O476 2.506 . S
C465 O475 1.244 . S
C465 O476 1.265 . S
O466 Tb461 2.312 . S
O466 C473 1.253 . S
O467 Tb464 2.338 . S
O467 C468 1.258 . S
C468 O467 1.258 . S
C468 O469 1.251 . S
O469 C468 1.251 . S
O470 Tb461 2.271 . S
O470 C462 1.252 . S
O471 C462 1.253 . S
O471 Tb464 2.312 . S
O472 Tb461 2.338 . S
O472 C477 1.258 . S
C473 O463 1.252 . S
C473 O466 1.253 . S
C474 O460 1.265 . S
C474 O479 1.244 . S
O475 Tb464 2.441 . S
O475 C465 1.244 . S
O476 Tb464 2.506 . S
O476 C465 1.265 . S
C477 O472 1.258 . S
C477 O478 1.251 . S
O478 C477 1.251 . S
O479 Tb461 2.441 . S
O479 C474 1.244 . S
O480 Tb481 2.506 . S
O480 C494 1.265 . S
Tb481 O480 2.506 . S
Tb481 O486 2.312 . S
Tb481 O490 2.271 . S
Tb481 O492 2.338 . S
Tb481 O499 2.441 . S
C482 O490 1.252 . S
C482 O491 1.253 . S
O483 Tb484 2.271 . S
O483 C493 1.252 . S
Tb484 O483 2.271 . S
Tb484 O487 2.338 . S
Tb484 O491 2.312 . S
Tb484 O495 2.441 . S
Tb484 O496 2.506 . S
C485 O495 1.244 . S
C485 O496 1.265 . S
O486 Tb481 2.312 . S
O486 C493 1.253 . S
O487 Tb484 2.338 . S
O487 C488 1.258 . S
C488 O487 1.258 . S
C488 O489 1.251 . S
O489 C488 1.251 . S
O490 Tb481 2.271 . S
O490 C482 1.252 . S
O491 C482 1.253 . S
O491 Tb484 2.312 . S
O492 Tb481 2.338 . S
O492 C497 1.258 . S
C493 O483 1.252 . S
C493 O486 1.253 . S
C494 O480 1.265 . S
C494 O499 1.244 . S
O495 Tb484 2.441 . S
O495 C485 1.244 . S
O496 Tb484 2.506 . S
O496 C485 1.265 . S
C497 O492 1.258 . S
C497 O498 1.251 . S
O498 C497 1.251 . S
O499 Tb481 2.441 . S
O499 C494 1.244 . S
O500 Tb501 2.506 . S
O500 C514 1.265 . S
Tb501 O500 2.506 . S
Tb501 O506 2.312 . S
Tb501 O510 2.271 . S
Tb501 O512 2.338 1_556 S
Tb501 O519 2.441 . S
C502 O510 1.252 . S
C502 O511 1.253 . S
O503 Tb504 2.271 . S
O503 C513 1.252 . S
Tb504 O503 2.271 . S
Tb504 O507 2.338 . S
Tb504 O511 2.312 . S
Tb504 O515 2.441 . S
Tb504 O516 2.506 . S
C505 O515 1.244 . S
C505 O516 1.265 . S
O506 Tb501 2.312 . S
O506 C513 1.253 . S
O507 Tb504 2.338 . S
O507 C508 1.258 . S
C508 O507 1.258 . S
C508 O509 1.251 . S
O509 C508 1.251 . S
O510 Tb501 2.271 . S
O510 C502 1.252 . S
O511 C502 1.253 . S
O511 Tb504 2.312 . S
O512 Tb501 2.338 1_554 S
O512 C517 1.258 . S
C513 O503 1.252 . S
C513 O506 1.253 . S
C514 O500 1.265 . S
C514 O519 1.244 . S
O515 Tb504 2.441 . S
O515 C505 1.244 . S
O516 Tb504 2.506 . S
O516 C505 1.265 . S
C517 O512 1.258 . S
C517 O518 1.251 . S
O518 C517 1.251 . S
O519 Tb501 2.441 . S
O519 C514 1.244 . S
O520 Tb521 2.506 . S
O520 C534 1.265 . S
Tb521 O520 2.506 . S
Tb521 O526 2.312 . S
Tb521 O530 2.271 . S
Tb521 O532 2.338 . S
Tb521 O539 2.441 . S
C522 O530 1.252 . S
C522 O531 1.253 . S
O523 Tb524 2.271 . S
O523 C533 1.252 . S
Tb524 O523 2.271 . S
Tb524 O527 2.338 . S
Tb524 O531 2.312 . S
Tb524 O535 2.441 . S
Tb524 O536 2.506 . S
C525 O535 1.244 . S
C525 O536 1.265 . S
O526 Tb521 2.312 . S
O526 C533 1.253 . S
O527 Tb524 2.338 . S
O527 C528 1.258 . S
C528 O527 1.258 . S
C528 O529 1.251 . S
O529 C528 1.251 . S
O530 Tb521 2.271 . S
O530 C522 1.252 . S
O531 C522 1.253 . S
O531 Tb524 2.312 . S
O532 Tb521 2.338 . S
O532 C537 1.258 . S
C533 O523 1.252 . S
C533 O526 1.253 . S
C534 O520 1.265 . S
C534 O539 1.244 . S
O535 Tb524 2.441 . S
O535 C525 1.244 . S
O536 Tb524 2.506 . S
O536 C525 1.265 . S
C537 O532 1.258 . S
C537 O538 1.251 . S
O538 C537 1.251 . S
O539 Tb521 2.441 . S
O539 C534 1.244 . S
O540 Tb541 2.506 . S
O540 C554 1.265 . S
Tb541 O540 2.506 . S
Tb541 O546 2.312 . S
Tb541 O550 2.271 . S
Tb541 O552 2.338 . S
Tb541 O559 2.441 . S
C542 O550 1.252 . S
C542 O551 1.253 . S
O543 Tb544 2.271 . S
O543 C553 1.252 . S
Tb544 O543 2.271 . S
Tb544 O547 2.338 . S
Tb544 O551 2.312 . S
Tb544 O555 2.441 . S
Tb544 O556 2.506 . S
C545 O555 1.244 . S
C545 O556 1.265 . S
O546 Tb541 2.312 . S
O546 C553 1.253 . S
O547 Tb544 2.338 . S
O547 C548 1.258 . S
C548 O547 1.258 . S
C548 O549 1.251 . S
O549 C548 1.251 . S
O550 Tb541 2.271 . S
O550 C542 1.252 . S
O551 C542 1.253 . S
O551 Tb544 2.312 . S
O552 Tb541 2.338 . S
O552 C557 1.258 . S
C553 O543 1.252 . S
C553 O546 1.253 . S
C554 O540 1.265 . S
C554 O559 1.244 . S
O555 Tb544 2.441 . S
O555 C545 1.244 . S
O556 Tb544 2.506 . S
O556 C545 1.265 . S
C557 O552 1.258 . S
C557 O558 1.251 . S
O558 C557 1.251 . S
O559 Tb541 2.441 . S
O559 C554 1.244 . S
O560 Tb561 2.506 . S
O560 C574 1.265 . S
Tb561 O560 2.506 . S
Tb561 O566 2.312 . S
Tb561 O570 2.271 . S
Tb561 O572 2.338 . S
Tb561 O579 2.441 . S
C562 O570 1.252 . S
C562 O571 1.253 . S
O563 Tb564 2.271 . S
O563 C573 1.252 . S
Tb564 O563 2.271 . S
Tb564 O567 2.338 . S
Tb564 O571 2.312 . S
Tb564 O575 2.441 . S
Tb564 O576 2.506 . S
C565 O575 1.244 . S
C565 O576 1.265 . S
O566 Tb561 2.312 . S
O566 C573 1.253 . S
O567 Tb564 2.338 . S
O567 C568 1.258 . S
C568 O567 1.258 . S
C568 O569 1.251 . S
O569 C568 1.251 . S
O570 Tb561 2.271 . S
O570 C562 1.252 . S
O571 C562 1.253 . S
O571 Tb564 2.312 . S
O572 Tb561 2.338 . S
O572 C577 1.258 . S
C573 O563 1.252 . S
C573 O566 1.253 . S
C574 O560 1.265 . S
C574 O579 1.244 . S
O575 Tb564 2.441 . S
O575 C565 1.244 . S
O576 Tb564 2.506 . S
O576 C565 1.265 . S
C577 O572 1.258 . S
C577 O578 1.251 . S
O578 C577 1.251 . S
O579 Tb561 2.441 . S
O579 C574 1.244 . S
O580 Tb581 2.506 . S
O580 C594 1.265 . S
Tb581 O580 2.506 . S
Tb581 O586 2.312 . S
Tb581 O590 2.271 . S
Tb581 O592 2.338 1_554 S
Tb581 O599 2.441 . S
C582 O590 1.252 . S
C582 O591 1.253 . S
O583 Tb584 2.271 . S
O583 C593 1.252 . S
Tb584 O583 2.271 . S
Tb584 O587 2.338 . S
Tb584 O591 2.312 . S
Tb584 O595 2.441 . S
Tb584 O596 2.506 . S
C585 O595 1.244 . S
C585 O596 1.265 . S
O586 Tb581 2.312 . S
O586 C593 1.253 . S
O587 Tb584 2.338 . S
O587 C588 1.258 . S
C588 O587 1.258 . S
C588 O589 1.251 . S
O589 C588 1.251 . S
O590 Tb581 2.271 . S
O590 C582 1.252 . S
O591 C582 1.253 . S
O591 Tb584 2.312 . S
O592 Tb581 2.338 1_556 S
O592 C597 1.258 . S
C593 O583 1.252 . S
C593 O586 1.253 . S
C594 O580 1.265 . S
C594 O599 1.244 . S
O595 Tb584 2.441 . S
O595 C585 1.244 . S
O596 Tb584 2.506 . S
O596 C585 1.265 . S
C597 O592 1.258 . S
C597 O598 1.251 . S
O598 C597 1.251 . S
O599 Tb581 2.441 . S
O599 C594 1.244 . S
O600 Tb601 2.506 . S
O600 C614 1.265 . S
Tb601 O600 2.506 . S
Tb601 O606 2.312 . S
Tb601 O610 2.271 . S
Tb601 O612 2.338 . S
Tb601 O619 2.441 . S
C602 O610 1.252 . S
C602 O611 1.253 . S
O603 Tb604 2.271 . S
O603 C613 1.252 . S
Tb604 O603 2.271 . S
Tb604 O607 2.338 . S
Tb604 O611 2.312 . S
Tb604 O615 2.441 . S
Tb604 O616 2.506 . S
C605 O615 1.244 . S
C605 O616 1.265 . S
O606 Tb601 2.312 . S
O606 C613 1.253 . S
O607 Tb604 2.338 . S
O607 C608 1.258 . S
C608 O607 1.258 . S
C608 O609 1.251 . S
O609 C608 1.251 . S
O610 Tb601 2.271 . S
O610 C602 1.252 . S
O611 C602 1.253 . S
O611 Tb604 2.312 . S
O612 Tb601 2.338 . S
O612 C617 1.258 . S
C613 O603 1.252 . S
C613 O606 1.253 . S
C614 O600 1.265 . S
C614 O619 1.244 . S
O615 Tb604 2.441 . S
O615 C605 1.244 . S
O616 Tb604 2.506 . S
O616 C605 1.265 . S
C617 O612 1.258 . S
C617 O618 1.251 . S
O618 C617 1.251 . S
O619 Tb601 2.441 . S
O619 C614 1.244 . S
O620 Tb621 2.506 . S
O620 C634 1.265 . S
Tb621 O620 2.506 . S
Tb621 O626 2.312 . S
Tb621 O630 2.271 . S
Tb621 O632 2.338 . S
Tb621 O639 2.441 . S
C622 O630 1.252 . S
C622 O631 1.253 . S
O623 Tb624 2.271 . S
O623 C633 1.252 . S
Tb624 O623 2.271 . S
Tb624 O627 2.338 . S
Tb624 O631 2.312 . S
Tb624 O635 2.441 . S
Tb624 O636 2.506 . S
C625 O635 1.244 . S
C625 O636 1.265 . S
O626 Tb621 2.312 . S
O626 C633 1.253 . S
O627 Tb624 2.338 . S
O627 C628 1.258 . S
C628 O627 1.258 . S
C628 O629 1.251 . S
O629 C628 1.251 . S
O630 Tb621 2.271 . S
O630 C622 1.252 . S
O631 C622 1.253 . S
O631 Tb624 2.312 . S
O632 Tb621 2.338 . S
O632 C637 1.258 . S
C633 O623 1.252 . S
C633 O626 1.253 . S
C634 O620 1.265 . S
C634 O639 1.244 . S
O635 Tb624 2.441 . S
O635 C625 1.244 . S
O636 Tb624 2.506 . S
O636 C625 1.265 . S
C637 O632 1.258 . S
C637 O638 1.251 . S
O638 C637 1.251 . S
O639 Tb621 2.441 . S
O639 C634 1.244 . S
C640 C641 1.391 . S
C640 C642 1.394 . S
C640 H656 0.931 . S
C641 C640 1.391 . S
C641 C645 1.376 . S
C642 C640 1.394 . S
C642 C643 1.369 . S
C642 C646 1.531 . S
C643 C642 1.369 . S
C643 C644 1.410 . S
C643 C651 1.503 1_545 S
C644 C643 1.410 . S
C644 C645 1.392 . S
C644 C647 1.511 . S
C645 C641 1.376 . S
C645 C644 1.392 . S
C645 H657 0.929 . S
C646 C642 1.531 . S
C646 H658 0.960 . S
C646 H659 0.962 . S
C646 H660 0.960 . S
C647 C644 1.511 . S
C647 H661 0.961 . S
C647 H662 0.961 1_545 S
C647 H663 0.961 . S
C648 C649 1.370 . S
C648 C650 1.363 . S
C648 H664 0.931 . S
C649 C648 1.370 . S
C649 C653 1.408 . S
C650 C648 1.363 . S
C650 C651 1.370 . S
C650 C654 1.524 . S
C651 C643 1.503 1_565 S
C651 C650 1.370 . S
C651 C652 1.403 . S
C652 C651 1.403 . S
C652 C653 1.404 . S
C652 C655 1.539 . S
C653 C649 1.408 . S
C653 C652 1.404 . S
C653 H665 0.930 . S
C654 C650 1.524 . S
C654 H666 0.956 . S
C654 H667 0.961 . S
C654 H668 0.961 . S
C655 C652 1.539 . S
C655 H669 0.958 . S
C655 H670 0.961 . S
C655 H671 0.960 1_565 S
H656 C640 0.931 . S
H657 C645 0.929 . S
H658 C646 0.960 . S
H659 C646 0.962 . S
H660 C646 0.960 . S
H661 C647 0.961 . S
H662 C647 0.961 1_565 S
H663 C647 0.961 . S
H664 C648 0.931 . S
H665 C653 0.930 . S
H666 C654 0.956 . S
H667 C654 0.961 . S
H668 C654 0.961 . S
H669 C655 0.958 . S
H670 C655 0.961 . S
H671 C655 0.960 1_545 S
C672 C673 1.391 . S
C672 C674 1.394 . S
C672 H688 0.931 . S
C673 C672 1.391 . S
C673 C677 1.376 . S
C674 C672 1.394 . S
C674 C675 1.369 . S
C674 C678 1.531 . S
C675 C674 1.369 . S
C675 C676 1.410 . S
C675 C683 1.503 . S
C676 C675 1.410 . S
C676 C677 1.392 . S
C676 C679 1.511 . S
C677 C673 1.376 . S
C677 C676 1.392 . S
C677 H689 0.929 . S
C678 C674 1.531 . S
C678 H690 0.960 . S
C678 H691 0.962 . S
C678 H692 0.960 . S
C679 C676 1.511 . S
C679 H693 0.961 . S
C679 H694 0.961 . S
C679 H695 0.961 . S
C680 C681 1.370 . S
C680 C682 1.363 . S
C680 H696 0.931 . S
C681 C680 1.370 . S
C681 C685 1.408 . S
C682 C680 1.363 . S
C682 C683 1.370 . S
C682 C686 1.524 . S
C683 C675 1.503 . S
C683 C682 1.370 . S
C683 C684 1.403 . S
C684 C683 1.403 . S
C684 C685 1.404 . S
C684 C687 1.539 . S
C685 C681 1.408 . S
C685 C684 1.404 . S
C685 H697 0.930 . S
C686 C682 1.524 . S
C686 H698 0.956 . S
C686 H699 0.961 . S
C686 H700 0.961 . S
C687 C684 1.539 . S
C687 H701 0.958 . S
C687 H702 0.961 . S
C687 H703 0.960 . S
H688 C672 0.931 . S
H689 C677 0.929 . S
H690 C678 0.960 . S
H691 C678 0.962 . S
H692 C678 0.960 . S
H693 C679 0.961 . S
H694 C679 0.961 . S
H695 C679 0.961 . S
H696 C680 0.931 . S
H697 C685 0.930 . S
H698 C686 0.956 . S
H699 C686 0.961 . S
H700 C686 0.961 . S
H701 C687 0.958 . S
H702 C687 0.961 . S
H703 C687 0.960 . S
C704 C705 1.391 . S
C704 C706 1.394 . S
C704 H720 0.931 . S
C705 C704 1.391 . S
C705 C709 1.376 . S
C706 C704 1.394 . S
C706 C707 1.369 . S
C706 C710 1.531 . S
C707 C706 1.369 . S
C707 C708 1.410 . S
C707 C715 1.503 1_545 S
C708 C707 1.410 . S
C708 C709 1.392 . S
C708 C711 1.511 . S
C709 C705 1.376 . S
C709 C708 1.392 . S
C709 H721 0.929 . S
C710 C706 1.531 . S
C710 H722 0.960 1_545 S
C710 H723 0.962 . S
C710 H724 0.960 . S
C711 C708 1.511 . S
C711 H725 0.961 . S
C711 H726 0.961 . S
C711 H727 0.961 . S
C712 C713 1.370 . S
C712 C714 1.363 . S
C712 H728 0.931 . S
C713 C712 1.370 . S
C713 C717 1.408 . S
C714 C712 1.363 . S
C714 C715 1.370 . S
C714 C718 1.524 . S
C715 C707 1.503 1_565 S
C715 C714 1.370 . S
C715 C716 1.403 . S
C716 C715 1.403 . S
C716 C717 1.404 . S
C716 C719 1.539 . S
C717 C713 1.408 . S
C717 C716 1.404 . S
C717 H729 0.930 . S
C718 C714 1.524 . S
C718 H730 0.952 1_565 S
C718 H731 0.961 1_565 S
C718 H732 0.961 . S
C719 C716 1.539 . S
C719 H733 0.958 . S
C719 H734 0.961 . S
C719 H735 0.960 . S
H720 C704 0.931 . S
H721 C709 0.929 . S
H722 C710 0.960 1_565 S
H723 C710 0.962 . S
H724 C710 0.960 . S
H725 C711 0.961 . S
H726 C711 0.961 . S
H727 C711 0.961 . S
H728 C712 0.931 . S
H729 C717 0.930 . S
H730 C718 0.952 1_545 S
H731 C718 0.961 1_545 S
H732 C718 0.961 . S
H733 C719 0.958 . S
H734 C719 0.961 . S
H735 C719 0.960 . S
C736 C737 1.391 1_556 S
C736 C738 1.394 . S
C736 H752 0.931 . S
C737 C736 1.391 1_554 S
C737 C741 1.376 . S
C738 C736 1.394 . S
C738 C739 1.369 1_556 S
C738 C742 1.531 . S
C739 C738 1.369 1_554 S
C739 C740 1.410 . S
C739 C747 1.496 1_554 S
C740 C739 1.410 . S
C740 C741 1.392 . S
C740 C743 1.511 . S
C741 C737 1.376 . S
C741 C740 1.392 . S
C741 H753 0.929 . S
C742 C738 1.531 . S
C742 H754 0.960 . S
C742 H755 0.962 . S
C742 H756 0.960 . S
C743 C740 1.511 . S
C743 H757 0.961 . S
C743 H758 0.961 . S
C743 H759 0.961 . S
C744 C745 1.370 . S
C744 C746 1.363 . S
C744 H760 0.931 . S
C745 C744 1.370 . S
C745 C749 1.408 . S
C746 C744 1.363 . S
C746 C747 1.388 . S
C746 C750 1.524 . S
C747 C739 1.496 1_556 S
C747 C746 1.388 . S
C747 C748 1.397 1_556 S
C748 C747 1.397 1_554 S
C748 C749 1.404 1_554 S
C748 C751 1.539 . S
C749 C745 1.408 . S
C749 C748 1.404 1_556 S
C749 H761 0.927 1_556 S
C750 C746 1.524 . S
C750 H762 0.956 . S
C750 H763 0.961 1_556 S
C750 H764 0.961 . S
C751 C748 1.539 . S
C751 H765 0.958 1_554 S
C751 H766 0.961 . S
C751 H767 0.960 . S
H752 C736 0.931 . S
H753 C741 0.929 . S
H754 C742 0.960 . S
H755 C742 0.962 . S
H756 C742 0.960 . S
H757 C743 0.961 . S
H758 C743 0.961 . S
H759 C743 0.961 . S
H760 C744 0.931 . S
H761 C749 0.927 1_554 S
H762 C750 0.956 . S
H763 C750 0.961 1_554 S
H764 C750 0.961 . S
H765 C751 0.958 1_556 S
H766 C751 0.961 . S
H767 C751 0.960 . S
C768 C769 1.391 . S
C768 C770 1.394 . S
C768 H784 0.931 . S
C769 C768 1.391 . S
C769 C773 1.376 . S
C770 C768 1.394 . S
C770 C771 1.369 . S
C770 C774 1.531 . S
C771 C770 1.369 . S
C771 C772 1.410 . S
C771 C779 1.503 1_565 S
C772 C771 1.410 . S
C772 C773 1.392 . S
C772 C775 1.511 . S
C773 C769 1.376 . S
C773 C772 1.392 . S
C773 H785 0.929 . S
C774 C770 1.531 . S
C774 H786 0.960 . S
C774 H787 0.962 . S
C774 H788 0.960 . S
C775 C772 1.511 . S
C775 H789 0.961 . S
C775 H790 0.961 1_565 S
C775 H791 0.961 . S
C776 C777 1.370 . S
C776 C778 1.363 . S
C776 H792 0.931 . S
C777 C776 1.370 . S
C777 C781 1.408 . S
C778 C776 1.363 . S
C778 C779 1.370 . S
C778 C782 1.524 . S
C779 C771 1.503 1_545 S
C779 C778 1.370 . S
C779 C780 1.403 . S
C780 C779 1.403 . S
C780 C781 1.404 . S
C780 C783 1.539 . S
C781 C777 1.408 . S
C781 C780 1.404 . S
C781 H793 0.930 . S
C782 C778 1.524 . S
C782 H794 0.956 . S
C782 H795 0.961 . S
C782 H796 0.961 . S
C783 C780 1.539 . S
C783 H797 0.958 . S
C783 H798 0.961 . S
C783 H799 0.960 1_545 S
H784 C768 0.931 . S
H785 C773 0.929 . S
H786 C774 0.960 . S
H787 C774 0.962 . S
H788 C774 0.960 . S
H789 C775 0.961 . S
H790 C775 0.961 1_545 S
H791 C775 0.961 . S
H792 C776 0.931 . S
H793 C781 0.930 . S
H794 C782 0.956 . S
H795 C782 0.961 . S
H796 C782 0.961 . S
H797 C783 0.958 . S
H798 C783 0.961 . S
H799 C783 0.960 1_565 S
C800 C801 1.391 . S
C800 C802 1.394 . S
C800 H816 0.931 . S
C801 C800 1.391 . S
C801 C805 1.376 . S
C802 C800 1.394 . S
C802 C803 1.369 . S
C802 C806 1.531 . S
C803 C802 1.369 . S
C803 C804 1.410 . S
C803 C811 1.503 . S
C804 C803 1.410 . S
C804 C805 1.392 . S
C804 C807 1.511 . S
C805 C801 1.376 . S
C805 C804 1.392 . S
C805 H817 0.929 . S
C806 C802 1.531 . S
C806 H818 0.960 . S
C806 H819 0.962 . S
C806 H820 0.960 . S
C807 C804 1.511 . S
C807 H821 0.961 . S
C807 H822 0.961 . S
C807 H823 0.961 . S
C808 C809 1.370 . S
C808 C810 1.363 . S
C808 H824 0.931 . S
C809 C808 1.370 . S
C809 C813 1.408 . S
C810 C808 1.363 . S
C810 C811 1.370 . S
C810 C814 1.524 . S
C811 C803 1.503 . S
C811 C810 1.370 . S
C811 C812 1.403 . S
C812 C811 1.403 . S
C812 C813 1.404 . S
C812 C815 1.539 . S
C813 C809 1.408 . S
C813 C812 1.404 . S
C813 H825 0.930 . S
C814 C810 1.524 . S
C814 H826 0.956 . S
C814 H827 0.961 . S
C814 H828 0.961 . S
C815 C812 1.539 . S
C815 H829 0.958 . S
C815 H830 0.961 . S
C815 H831 0.960 . S
H816 C800 0.931 . S
H817 C805 0.929 . S
H818 C806 0.960 . S
H819 C806 0.962 . S
H820 C806 0.960 . S
H821 C807 0.961 . S
H822 C807 0.961 . S
H823 C807 0.961 . S
H824 C808 0.931 . S
H825 C813 0.930 . S
H826 C814 0.956 . S
H827 C814 0.961 . S
H828 C814 0.961 . S
H829 C815 0.958 . S
H830 C815 0.961 . S
H831 C815 0.960 . S
C832 C833 1.391 . S
C832 C834 1.394 . S
C832 H848 0.931 . S
C833 C832 1.391 . S
C833 C837 1.376 . S
C834 C832 1.394 . S
C834 C835 1.369 . S
C834 C838 1.531 . S
C835 C834 1.369 . S
C835 C836 1.410 . S
C835 C843 1.503 1_545 S
C836 C835 1.410 . S
C836 C837 1.392 . S
C836 C839 1.511 . S
C837 C833 1.376 . S
C837 C836 1.392 . S
C837 H849 0.929 . S
C838 C834 1.531 . S
C838 H850 0.960 1_545 S
C838 H851 0.962 . S
C838 H852 0.960 . S
C839 C836 1.511 . S
C839 H853 0.961 . S
C839 H854 0.958 1_545 S
C839 H855 0.961 . S
C840 C841 1.370 . S
C840 C842 1.363 . S
C840 H856 0.931 . S
C841 C840 1.370 . S
C841 C845 1.408 . S
C842 C840 1.363 . S
C842 C843 1.370 . S
C842 C846 1.524 . S
C843 C835 1.503 1_565 S
C843 C842 1.370 . S
C843 C844 1.403 . S
C844 C843 1.403 . S
C844 C845 1.404 . S
C844 C847 1.539 . S
C845 C841 1.408 . S
C845 C844 1.404 . S
C845 H857 0.930 . S
C846 C842 1.524 . S
C846 H858 0.956 1_565 S
C846 H859 0.961 1_565 S
C846 H860 0.961 . S
C847 C844 1.539 . S
C847 H861 0.958 . S
C847 H862 0.961 . S
C847 H863 0.960 . S
H848 C832 0.931 . S
H849 C837 0.929 . S
H850 C838 0.960 1_565 S
H851 C838 0.962 . S
H852 C838 0.960 . S
H853 C839 0.961 . S
H854 C839 0.958 1_565 S
H855 C839 0.961 . S
H856 C840 0.931 . S
H857 C845 0.930 . S
H858 C846 0.956 1_545 S
H859 C846 0.961 1_545 S
H860 C846 0.961 . S
H861 C847 0.958 . S
H862 C847 0.961 . S
H863 C847 0.960 . S
C864 C865 1.391 . S
C864 C866 1.394 . S
C864 H880 0.931 . S
C865 C864 1.391 . S
C865 C869 1.376 1_554 S
C866 C864 1.394 . S
C866 C867 1.403 . S
C866 C870 1.531 . S
C867 C866 1.403 . S
C867 C868 1.381 1_554 S
C867 C875 1.499 1_554 S
C868 C867 1.381 1_556 S
C868 C869 1.392 . S
C868 C871 1.511 . S
C869 C865 1.376 1_556 S
C869 C868 1.392 . S
C869 H881 0.929 . S
C870 C866 1.531 . S
C870 H882 0.960 . S
C870 H883 0.962 . S
C870 H884 0.960 . S
C871 C868 1.511 . S
C871 H885 0.961 . S
C871 H886 0.961 . S
C871 H887 0.961 . S
C872 C873 1.370 . S
C872 C874 1.363 1_556 S
C872 H888 0.931 1_556 S
C873 C872 1.370 . S
C873 C877 1.408 . S
C874 C872 1.363 1_554 S
C874 C875 1.370 1_554 S
C874 C878 1.524 . S
C875 C867 1.499 1_556 S
C875 C874 1.370 1_556 S
C875 C876 1.403 . S
C876 C875 1.403 . S
C876 C877 1.404 . S
C876 C879 1.539 . S
C877 C873 1.408 . S
C877 C876 1.404 . S
C877 H889 0.930 . S
C878 C874 1.524 . S
C878 H890 0.956 . S
C878 H891 0.961 1_554 S
C878 H892 0.961 . S
C879 C876 1.539 . S
C879 H893 0.958 . S
C879 H894 0.961 . S
C879 H895 0.960 . S
H880 C864 0.931 . S
H881 C869 0.929 . S
H882 C870 0.960 . S
H883 C870 0.962 . S
H884 C870 0.960 . S
H885 C871 0.961 . S
H886 C871 0.961 . S
H887 C871 0.961 . S
H888 C872 0.931 1_554 S
H889 C877 0.930 . S
H890 C878 0.956 . S
H891 C878 0.961 1_556 S
H892 C878 0.961 . S
H893 C879 0.958 . S
H894 C879 0.961 . S
H895 C879 0.960 . S
C896 C897 1.391 . S
C896 C898 1.394 . S
C896 H912 0.931 . S
C897 C896 1.391 . S
C897 C901 1.376 . S
C898 C896 1.394 . S
C898 C899 1.369 . S
C898 C902 1.531 . S
C899 C898 1.369 . S
C899 C900 1.410 . S
C899 C907 1.503 . S
C900 C899 1.410 . S
C900 C901 1.392 . S
C900 C903 1.511 . S
C901 C897 1.376 . S
C901 C900 1.392 . S
C901 H913 0.929 . S
C902 C898 1.531 . S
C902 H914 0.960 . S
C902 H915 0.962 . S
C902 H916 0.960 . S
C903 C900 1.511 . S
C903 H917 0.961 . S
C903 H918 0.961 . S
C903 H919 0.961 . S
C904 C905 1.370 . S
C904 C906 1.363 . S
C904 H920 0.931 . S
C905 C904 1.370 . S
C905 C909 1.408 . S
C906 C904 1.363 . S
C906 C907 1.370 . S
C906 C910 1.524 . S
C907 C899 1.503 . S
C907 C906 1.370 . S
C907 C908 1.403 . S
C908 C907 1.403 . S
C908 C909 1.404 . S
C908 C911 1.539 . S
C909 C905 1.408 . S
C909 C908 1.404 . S
C909 H921 0.930 . S
C910 C906 1.524 . S
C910 H922 0.956 . S
C910 H923 0.961 . S
C910 H924 0.961 . S
C911 C908 1.539 . S
C911 H925 0.958 . S
C911 H926 0.961 . S
C911 H927 0.960 . S
H912 C896 0.931 . S
H913 C901 0.929 . S
H914 C902 0.960 . S
H915 C902 0.962 . S
H916 C902 0.960 . S
H917 C903 0.961 . S
H918 C903 0.961 . S
H919 C903 0.961 . S
H920 C904 0.931 . S
H921 C909 0.930 . S
H922 C910 0.956 . S
H923 C910 0.961 . S
H924 C910 0.961 . S
H925 C911 0.958 . S
H926 C911 0.961 . S
H927 C911 0.960 . S
C928 C929 1.391 1_554 S
C928 C930 1.394 . S
C928 H944 0.931 . S
C929 C928 1.391 1_556 S
C929 C933 1.376 . S
C930 C928 1.394 . S
C930 C931 1.369 1_554 S
C930 C934 1.531 . S
C931 C930 1.369 1_556 S
C931 C932 1.410 . S
C931 C939 1.511 . S
C932 C931 1.410 . S
C932 C933 1.392 . S
C932 C935 1.511 . S
C933 C929 1.376 . S
C933 C932 1.392 . S
C933 H945 0.929 . S
C934 C930 1.531 . S
C934 H946 0.960 . S
C934 H947 0.962 . S
C934 H948 0.960 . S
C935 C932 1.511 . S
C935 H949 0.961 . S
C935 H950 0.961 . S
C935 H951 0.961 . S
C936 C937 1.370 . S
C936 C938 1.363 . S
C936 H952 0.931 . S
C937 C936 1.370 . S
C937 C941 1.408 1_554 S
C938 C936 1.363 . S
C938 C939 1.345 1_554 S
C938 C942 1.524 . S
C939 C931 1.511 . S
C939 C938 1.345 1_556 S
C939 C940 1.422 . S
C940 C939 1.422 . S
C940 C941 1.404 . S
C940 C943 1.539 . S
C941 C937 1.408 1_556 S
C941 C940 1.404 . S
C941 H953 0.930 . S
C942 C938 1.524 . S
C942 H954 0.956 . S
C942 H955 0.961 . S
C942 H956 0.961 . S
C943 C940 1.539 . S
C943 H957 0.958 . S
C943 H958 0.961 . S
C943 H959 0.960 . S
H944 C928 0.931 . S
H945 C933 0.929 . S
H946 C934 0.960 . S
H947 C934 0.962 . S
H948 C934 0.960 . S
H949 C935 0.961 . S
H950 C935 0.961 . S
H951 C935 0.961 . S
H952 C936 0.931 . S
H953 C941 0.930 . S
H954 C942 0.956 . S
H955 C942 0.961 . S
H956 C942 0.961 . S
H957 C943 0.958 . S
H958 C943 0.961 . S
H959 C943 0.960 . S
C960 C961 1.391 . S
C960 C962 1.394 . S
C960 H976 0.931 . S
C961 C960 1.391 . S
C961 C965 1.376 . S
C962 C960 1.394 . S
C962 C963 1.369 . S
C962 C966 1.531 . S
C963 C962 1.369 . S
C963 C964 1.410 . S
C963 C971 1.503 . S
C964 C963 1.410 . S
C964 C965 1.392 . S
C964 C967 1.511 . S
C965 C961 1.376 . S
C965 C964 1.392 . S
C965 H977 0.929 . S
C966 C962 1.531 . S
C966 H978 0.960 . S
C966 H979 0.962 . S
C966 H980 0.960 . S
C967 C964 1.511 . S
C967 H981 0.961 . S
C967 H982 0.961 . S
C967 H983 0.961 . S
C968 C969 1.370 . S
C968 C970 1.363 . S
C968 H984 0.931 . S
C969 C968 1.370 . S
C969 C973 1.408 . S
C970 C968 1.363 . S
C970 C971 1.370 . S
C970 C974 1.524 . S
C971 C963 1.503 . S
C971 C970 1.370 . S
C971 C972 1.403 . S
C972 C971 1.403 . S
C972 C973 1.404 . S
C972 C975 1.539 . S
C973 C969 1.408 . S
C973 C972 1.404 . S
C973 H985 0.930 . S
C974 C970 1.524 . S
C974 H986 0.956 . S
C974 H987 0.961 . S
C974 H988 0.961 . S
C975 C972 1.539 . S
C975 H989 0.958 . S
C975 H990 0.961 . S
C975 H991 0.960 . S
H976 C960 0.931 . S
H977 C965 0.929 . S
H978 C966 0.960 . S
H979 C966 0.962 . S
H980 C966 0.960 . S
H981 C967 0.961 . S
H982 C967 0.961 . S
H983 C967 0.961 . S
H984 C968 0.931 . S
H985 C973 0.930 . S
H986 C974 0.956 . S
H987 C974 0.961 . S
H988 C974 0.961 . S
H989 C975 0.958 . S
H990 C975 0.961 . S
H991 C975 0.960 . S
C992 C993 1.391 . S
C992 C994 1.394 . S
C992 H1008 0.931 . S
C993 C992 1.391 . S
C993 C997 1.376 . S
C994 C992 1.394 . S
C994 C995 1.369 . S
C994 C998 1.531 . S
C995 C994 1.369 . S
C995 C996 1.410 . S
C995 C1003 1.503 . S
C996 C995 1.410 . S
C996 C997 1.392 . S
C996 C999 1.511 . S
C997 C993 1.376 . S
C997 C996 1.392 . S
C997 H1009 0.929 . S
C998 C994 1.531 . S
C998 H1010 0.960 . S
C998 H1011 0.962 . S
C998 H1012 0.960 . S
C999 C996 1.511 . S
C999 H1013 0.961 . S
C999 H1014 0.961 . S
C999 H1015 0.961 . S
C1000 C1001 1.370 . S
C1000 C1002 1.363 . S
C1000 H1016 0.931 . S
C1001 C1000 1.370 . S
C1001 C1005 1.408 . S
C1002 C1000 1.363 . S
C1002 C1003 1.370 . S
C1002 C1006 1.524 . S
C1003 C995 1.503 . S
C1003 C1002 1.370 . S
C1003 C1004 1.403 . S
C1004 C1003 1.403 . S
C1004 C1005 1.404 . S
C1004 C1007 1.539 . S
C1005 C1001 1.408 . S
C1005 C1004 1.404 . S
C1005 H1017 0.930 . S
C1006 C1002 1.524 . S
C1006 H1018 0.956 . S
C1006 H1019 0.961 . S
C1006 H1020 0.961 . S
C1007 C1004 1.539 . S
C1007 H1021 0.958 . S
C1007 H1022 0.961 . S
C1007 H1023 0.960 . S
H1008 C992 0.931 . S
H1009 C997 0.929 . S
H1010 C998 0.960 . S
H1011 C998 0.962 . S
H1012 C998 0.960 . S
H1013 C999 0.961 . S
H1014 C999 0.961 . S
H1015 C999 0.961 . S
H1016 C1000 0.931 . S
H1017 C1005 0.930 . S
H1018 C1006 0.956 . S
H1019 C1006 0.961 . S
H1020 C1006 0.961 . S
H1021 C1007 0.958 . S
H1022 C1007 0.961 . S
H1023 C1007 0.960 . S
C1024 C1025 1.391 . S
C1024 C1026 1.394 . S
C1024 H1040 0.931 . S
C1025 C1024 1.391 . S
C1025 C1029 1.376 . S
C1026 C1024 1.394 . S
C1026 C1027 1.369 . S
C1026 C1030 1.531 . S
C1027 C1026 1.369 . S
C1027 C1028 1.410 . S
C1027 C1035 1.503 . S
C1028 C1027 1.410 . S
C1028 C1029 1.392 . S
C1028 C1031 1.511 . S
C1029 C1025 1.376 . S
C1029 C1028 1.392 . S
C1029 H1041 0.929 . S
C1030 C1026 1.531 . S
C1030 H1042 0.960 . S
C1030 H1043 0.962 . S
C1030 H1044 0.960 . S
C1031 C1028 1.511 . S
C1031 H1045 0.961 . S
C1031 H1046 0.961 . S
C1031 H1047 0.961 . S
C1032 C1033 1.370 . S
C1032 C1034 1.363 . S
C1032 H1048 0.931 . S
C1033 C1032 1.370 . S
C1033 C1037 1.408 . S
C1034 C1032 1.363 . S
C1034 C1035 1.370 . S
C1034 C1038 1.524 . S
C1035 C1027 1.503 . S
C1035 C1034 1.370 . S
C1035 C1036 1.403 . S
C1036 C1035 1.403 . S
C1036 C1037 1.404 . S
C1036 C1039 1.539 . S
C1037 C1033 1.408 . S
C1037 C1036 1.404 . S
C1037 H1049 0.930 . S
C1038 C1034 1.524 . S
C1038 H1050 0.956 . S
C1038 H1051 0.961 . S
C1038 H1052 0.961 . S
C1039 C1036 1.539 . S
C1039 H1053 0.958 . S
C1039 H1054 0.961 . S
C1039 H1055 0.960 . S
H1040 C1024 0.931 . S
H1041 C1029 0.929 . S
H1042 C1030 0.960 . S
H1043 C1030 0.962 . S
H1044 C1030 0.960 . S
H1045 C1031 0.961 . S
H1046 C1031 0.961 . S
H1047 C1031 0.961 . S
H1048 C1032 0.931 . S
H1049 C1037 0.930 . S
H1050 C1038 0.956 . S
H1051 C1038 0.961 . S
H1052 C1038 0.961 . S
H1053 C1039 0.958 . S
H1054 C1039 0.961 . S
H1055 C1039 0.960 . S
C1056 C1057 1.391 1_554 S
C1056 C1058 1.394 . S
C1056 H1072 0.931 . S
C1057 C1056 1.391 1_556 S
C1057 C1061 1.376 . S
C1058 C1056 1.394 . S
C1058 C1059 1.369 . S
C1058 C1062 1.531 . S
C1059 C1058 1.369 . S
C1059 C1060 1.410 1_554 S
C1059 C1067 1.503 . S
C1060 C1059 1.410 1_556 S
C1060 C1061 1.392 . S
C1060 C1063 1.511 . S
C1061 C1057 1.376 . S
C1061 C1060 1.392 . S
C1061 H1073 0.929 . S
C1062 C1058 1.531 . S
C1062 H1074 0.960 . S
C1062 H1075 0.962 . S
C1062 H1076 0.960 . S
C1063 C1060 1.511 . S
C1063 H1077 0.961 . S
C1063 H1078 0.961 . S
C1063 H1079 0.961 . S
C1064 C1065 1.370 1_556 S
C1064 C1066 1.363 . S
C1064 H1080 0.931 . S
C1065 C1064 1.370 1_554 S
C1065 C1069 1.408 . S
C1066 C1064 1.363 . S
C1066 C1067 1.370 1_556 S
C1066 C1070 1.524 . S
C1067 C1059 1.503 . S
C1067 C1066 1.370 1_554 S
C1067 C1068 1.403 . S
C1068 C1067 1.403 . S
C1068 C1069 1.404 . S
C1068 C1071 1.539 . S
C1069 C1065 1.408 . S
C1069 C1068 1.404 . S
C1069 H1081 0.930 . S
C1070 C1066 1.524 . S
C1070 H1082 0.956 . S
C1070 H1083 0.961 . S
C1070 H1084 0.961 . S
C1071 C1068 1.539 . S
C1071 H1085 0.958 . S
C1071 H1086 0.961 . S
C1071 H1087 0.960 . S
H1072 C1056 0.931 . S
H1073 C1061 0.929 . S
H1074 C1062 0.960 . S
H1075 C1062 0.962 . S
H1076 C1062 0.960 . S
H1077 C1063 0.961 . S
H1078 C1063 0.961 . S
H1079 C1063 0.961 . S
H1080 C1064 0.931 . S
H1081 C1069 0.930 . S
H1082 C1070 0.956 . S
H1083 C1070 0.961 . S
H1084 C1070 0.961 . S
H1085 C1071 0.958 . S
H1086 C1071 0.961 . S
H1087 C1071 0.960 . S
C1088 C1089 1.391 . S
C1088 C1090 1.394 . S
C1088 H1104 0.931 . S
C1089 C1088 1.391 . S
C1089 C1093 1.376 . S
C1090 C1088 1.394 . S
C1090 C1091 1.369 . S
C1090 C1094 1.531 . S
C1091 C1090 1.369 . S
C1091 C1092 1.410 . S
C1091 C1099 1.503 . S
C1092 C1091 1.410 . S
C1092 C1093 1.392 . S
C1092 C1095 1.511 . S
C1093 C1089 1.376 . S
C1093 C1092 1.392 . S
C1093 H1105 0.929 . S
C1094 C1090 1.531 . S
C1094 H1106 0.960 . S
C1094 H1107 0.962 . S
C1094 H1108 0.960 . S
C1095 C1092 1.511 . S
C1095 H1109 0.961 . S
C1095 H1110 0.961 . S
C1095 H1111 0.961 . S
C1096 C1097 1.370 . S
C1096 C1098 1.363 . S
C1096 H1112 0.931 . S
C1097 C1096 1.370 . S
C1097 C1101 1.408 . S
C1098 C1096 1.363 . S
C1098 C1099 1.370 . S
C1098 C1102 1.524 . S
C1099 C1091 1.503 . S
C1099 C1098 1.370 . S
C1099 C1100 1.403 . S
C1100 C1099 1.403 . S
C1100 C1101 1.404 . S
C1100 C1103 1.539 . S
C1101 C1097 1.408 . S
C1101 C1100 1.404 . S
C1101 H1113 0.930 . S
C1102 C1098 1.524 . S
C1102 H1114 0.956 . S
C1102 H1115 0.961 . S
C1102 H1116 0.961 . S
C1103 C1100 1.539 . S
C1103 H1117 0.958 . S
C1103 H1118 0.961 . S
C1103 H1119 0.960 . S
H1104 C1088 0.931 . S
H1105 C1093 0.929 . S
H1106 C1094 0.960 . S
H1107 C1094 0.962 . S
H1108 C1094 0.960 . S
H1109 C1095 0.961 . S
H1110 C1095 0.961 . S
H1111 C1095 0.961 . S
H1112 C1096 0.931 . S
H1113 C1101 0.930 . S
H1114 C1102 0.956 . S
H1115 C1102 0.961 . S
H1116 C1102 0.961 . S
H1117 C1103 0.958 . S
H1118 C1103 0.961 . S
H1119 C1103 0.960 . S
C1120 C1121 1.391 . S
C1120 C1122 1.394 . S
C1120 H1136 0.931 . S
C1121 C1120 1.391 . S
C1121 C1125 1.376 . S
C1122 C1120 1.394 . S
C1122 C1123 1.369 . S
C1122 C1126 1.531 . S
C1123 C1122 1.369 . S
C1123 C1124 1.410 . S
C1123 C1131 1.503 . S
C1124 C1123 1.410 . S
C1124 C1125 1.392 . S
C1124 C1127 1.511 . S
C1125 C1121 1.376 . S
C1125 C1124 1.392 . S
C1125 H1137 0.929 . S
C1126 C1122 1.531 . S
C1126 H1138 0.960 . S
C1126 H1139 0.962 . S
C1126 H1140 0.960 . S
C1127 C1124 1.511 . S
C1127 H1141 0.961 . S
C1127 H1142 0.961 . S
C1127 H1143 0.961 . S
C1128 C1129 1.370 . S
C1128 C1130 1.363 . S
C1128 H1144 0.931 . S
C1129 C1128 1.370 . S
C1129 C1133 1.408 . S
C1130 C1128 1.363 . S
C1130 C1131 1.370 . S
C1130 C1134 1.524 . S
C1131 C1123 1.503 . S
C1131 C1130 1.370 . S
C1131 C1132 1.403 . S
C1132 C1131 1.403 . S
C1132 C1133 1.404 . S
C1132 C1135 1.539 . S
C1133 C1129 1.408 . S
C1133 C1132 1.404 . S
C1133 H1145 0.930 . S
C1134 C1130 1.524 . S
C1134 H1146 0.956 . S
C1134 H1147 0.961 . S
C1134 H1148 0.961 . S
C1135 C1132 1.539 . S
C1135 H1149 0.958 . S
C1135 H1150 0.961 . S
C1135 H1151 0.960 . S
H1136 C1120 0.931 . S
H1137 C1125 0.929 . S
H1138 C1126 0.960 . S
H1139 C1126 0.962 . S
H1140 C1126 0.960 . S
H1141 C1127 0.961 . S
H1142 C1127 0.961 . S
H1143 C1127 0.961 . S
H1144 C1128 0.931 . S
H1145 C1133 0.930 . S
H1146 C1134 0.956 . S
H1147 C1134 0.961 . S
H1148 C1134 0.961 . S
H1149 C1135 0.958 . S
H1150 C1135 0.961 . S
H1151 C1135 0.960 . S
C1152 C1153 1.391 . S
C1152 C1154 1.394 . S
C1152 H1168 0.931 . S
C1153 C1152 1.391 . S
C1153 C1157 1.376 . S
C1154 C1152 1.394 . S
C1154 C1155 1.369 . S
C1154 C1158 1.531 . S
C1155 C1154 1.369 . S
C1155 C1156 1.410 . S
C1155 C1163 1.503 . S
C1156 C1155 1.410 . S
C1156 C1157 1.392 . S
C1156 C1159 1.511 . S
C1157 C1153 1.376 . S
C1157 C1156 1.392 . S
C1157 H1169 0.929 . S
C1158 C1154 1.531 . S
C1158 H1170 0.960 . S
C1158 H1171 0.962 . S
C1158 H1172 0.960 . S
C1159 C1156 1.511 . S
C1159 H1173 0.961 . S
C1159 H1174 0.961 . S
C1159 H1175 0.961 . S
C1160 C1161 1.370 . S
C1160 C1162 1.363 . S
C1160 H1176 0.931 . S
C1161 C1160 1.370 . S
C1161 C1165 1.408 . S
C1162 C1160 1.363 . S
C1162 C1163 1.370 . S
C1162 C1166 1.524 . S
C1163 C1155 1.503 . S
C1163 C1162 1.370 . S
C1163 C1164 1.403 . S
C1164 C1163 1.403 . S
C1164 C1165 1.404 . S
C1164 C1167 1.539 . S
C1165 C1161 1.408 . S
C1165 C1164 1.404 . S
C1165 H1177 0.930 . S
C1166 C1162 1.524 . S
C1166 H1178 0.956 . S
C1166 H1179 0.961 . S
C1166 H1180 0.961 . S
C1167 C1164 1.539 . S
C1167 H1181 0.958 . S
C1167 H1182 0.961 . S
C1167 H1183 0.960 . S
H1168 C1152 0.931 . S
H1169 C1157 0.929 . S
H1170 C1158 0.960 . S
H1171 C1158 0.962 . S
H1172 C1158 0.960 . S
H1173 C1159 0.961 . S
H1174 C1159 0.961 . S
H1175 C1159 0.961 . S
H1176 C1160 0.931 . S
H1177 C1165 0.930 . S
H1178 C1166 0.956 . S
H1179 C1166 0.961 . S
H1180 C1166 0.961 . S
H1181 C1167 0.958 . S
H1182 C1167 0.961 . S
H1183 C1167 0.960 . S
C1184 C1185 1.391 . S
C1184 C1186 1.394 . S
C1184 H1200 0.931 . S
C1185 C1184 1.391 . S
C1185 C1189 1.376 . S
C1186 C1184 1.394 . S
C1186 C1187 1.369 . S
C1186 C1190 1.531 1_655 S
C1187 C1186 1.369 . S
C1187 C1188 1.410 . S
C1187 C1195 1.503 1_645 S
C1188 C1187 1.410 . S
C1188 C1189 1.392 . S
C1188 C1191 1.511 1_545 S
C1189 C1185 1.376 . S
C1189 C1188 1.392 . S
C1189 H1201 0.929 . S
C1190 C1186 1.531 1_455 S
C1190 H1202 0.960 . S
C1190 H1203 0.962 . S
C1190 H1204 0.960 . S
C1191 C1188 1.511 1_565 S
C1191 H1205 0.961 . S
C1191 H1206 0.961 . S
C1191 H1207 0.961 . S
C1192 C1193 1.370 . S
C1192 C1194 1.363 . S
C1192 H1208 0.931 . S
C1193 C1192 1.370 . S
C1193 C1197 1.408 . S
C1194 C1192 1.363 . S
C1194 C1195 1.370 . S
C1194 C1198 1.524 . S
C1195 C1187 1.503 1_465 S
C1195 C1194 1.370 . S
C1195 C1196 1.403 . S
C1196 C1195 1.403 . S
C1196 C1197 1.404 . S
C1196 C1199 1.517 1_565 S
C1197 C1193 1.408 . S
C1197 C1196 1.404 . S
C1197 H1209 0.930 . S
C1198 C1194 1.524 . S
C1198 H1210 0.980 . S
C1198 H1211 0.961 1_455 S
C1198 H1212 0.961 . S
C1199 C1196 1.517 1_545 S
C1199 H1213 0.999 . S
C1199 H1214 0.932 1_545 S
C1199 H1215 0.973 1_455 S
H1200 C1184 0.931 . S
H1201 C1189 0.929 . S
H1202 C1190 0.960 . S
H1203 C1190 0.962 . S
H1204 C1190 0.960 . S
H1205 C1191 0.961 . S
H1206 C1191 0.961 . S
H1207 C1191 0.961 . S
H1208 C1192 0.931 . S
H1209 C1197 0.930 . S
H1210 C1198 0.980 . S
H1211 C1198 0.961 1_655 S
H1212 C1198 0.961 . S
H1213 C1199 0.999 . S
H1214 C1199 0.932 1_565 S
H1215 C1199 0.973 1_655 S
C1216 C1217 1.391 . S
C1216 C1218 1.394 . S
C1216 H1232 0.931 . S
C1217 C1216 1.391 . S
C1217 C1221 1.376 . S
C1218 C1216 1.394 . S
C1218 C1219 1.369 . S
C1218 C1222 1.531 . S
C1219 C1218 1.369 . S
C1219 C1220 1.410 . S
C1219 C1227 1.503 . S
C1220 C1219 1.410 . S
C1220 C1221 1.392 . S
C1220 C1223 1.511 . S
C1221 C1217 1.376 . S
C1221 C1220 1.392 . S
C1221 H1233 0.929 . S
C1222 C1218 1.531 . S
C1222 H1234 0.960 . S
C1222 H1235 0.962 . S
C1222 H1236 0.960 . S
C1223 C1220 1.511 . S
C1223 H1237 0.961 . S
C1223 H1238 0.961 . S
C1223 H1239 0.961 . S
C1224 C1225 1.370 . S
C1224 C1226 1.363 . S
C1224 H1240 0.931 . S
C1225 C1224 1.370 . S
C1225 C1229 1.408 . S
C1226 C1224 1.363 . S
C1226 C1227 1.370 . S
C1226 C1230 1.524 . S
C1227 C1219 1.503 . S
C1227 C1226 1.370 . S
C1227 C1228 1.403 . S
C1228 C1227 1.403 . S
C1228 C1229 1.404 . S
C1228 C1231 1.539 . S
C1229 C1225 1.408 . S
C1229 C1228 1.404 . S
C1229 H1241 0.930 . S
C1230 C1226 1.524 . S
C1230 H1242 0.956 . S
C1230 H1243 0.961 . S
C1230 H1244 0.961 . S
C1231 C1228 1.539 . S
C1231 H1245 0.958 . S
C1231 H1246 0.961 . S
C1231 H1247 0.960 . S
H1232 C1216 0.931 . S
H1233 C1221 0.929 . S
H1234 C1222 0.960 . S
H1235 C1222 0.962 . S
H1236 C1222 0.960 . S
H1237 C1223 0.961 . S
H1238 C1223 0.961 . S
H1239 C1223 0.961 . S
H1240 C1224 0.931 . S
H1241 C1229 0.930 . S
H1242 C1230 0.956 . S
H1243 C1230 0.961 . S
H1244 C1230 0.961 . S
H1245 C1231 0.958 . S
H1246 C1231 0.961 . S
H1247 C1231 0.960 . S
C1248 C1249 1.391 . S
C1248 C1250 1.425 . S
C1248 H1264 0.931 . S
C1249 C1248 1.391 . S
C1249 C1253 1.376 . S
C1250 C1248 1.425 . S
C1250 C1251 1.384 1_554 S
C1250 C1254 1.484 1_545 S
C1251 C1250 1.384 1_556 S
C1251 C1252 1.410 . S
C1251 C1259 1.503 1_545 S
C1252 C1251 1.410 . S
C1252 C1253 1.392 1_556 S
C1252 C1255 1.511 . S
C1253 C1249 1.376 . S
C1253 C1252 1.392 1_554 S
C1253 H1265 0.934 . S
C1254 C1250 1.484 1_565 S
C1254 H1266 0.930 1_554 S
C1254 H1267 0.962 . S
C1254 H1268 0.960 . S
C1255 C1252 1.511 . S
C1255 H1269 0.961 . S
C1255 H1270 0.961 . S
C1255 H1271 0.961 . S
C1256 C1257 1.370 1_554 S
C1256 C1258 1.363 . S
C1256 H1272 0.931 . S
C1257 C1256 1.370 1_556 S
C1257 C1261 1.408 . S
C1258 C1256 1.363 . S
C1258 C1259 1.370 1_554 S
C1258 C1262 1.524 . S
C1259 C1251 1.503 1_565 S
C1259 C1258 1.370 1_556 S
C1259 C1260 1.403 . S
C1260 C1259 1.403 . S
C1260 C1261 1.404 . S
C1260 C1263 1.539 . S
C1261 C1257 1.408 . S
C1261 C1260 1.404 . S
C1261 H1273 0.930 . S
C1262 C1258 1.524 . S
C1262 H1274 0.956 . S
C1262 H1275 0.961 1_565 S
C1262 H1276 0.961 . S
C1263 C1260 1.539 . S
C1263 H1277 0.958 . S
C1263 H1278 0.961 . S
C1263 H1279 0.960 1_565 S
H1264 C1248 0.931 . S
H1265 C1253 0.934 . S
H1266 C1254 0.930 1_556 S
H1267 C1254 0.962 . S
H1268 C1254 0.960 . S
H1269 C1255 0.961 . S
H1270 C1255 0.961 . S
H1271 C1255 0.961 . S
H1272 C1256 0.931 . S
H1273 C1261 0.930 . S
H1274 C1262 0.956 . S
H1275 C1262 0.961 1_545 S
H1276 C1262 0.961 . S
H1277 C1263 0.958 . S
H1278 C1263 0.961 . S
H1279 C1263 0.960 1_545 S
C1280 C1281 1.391 . S
C1280 C1282 1.394 . S
C1280 H1296 0.931 . S
C1281 C1280 1.391 . S
C1281 C1285 1.376 . S
C1282 C1280 1.394 . S
C1282 C1283 1.369 . S
C1282 C1286 1.531 . S
C1283 C1282 1.369 . S
C1283 C1284 1.410 . S
C1283 C1291 1.503 . S
C1284 C1283 1.410 . S
C1284 C1285 1.392 . S
C1284 C1287 1.511 . S
C1285 C1281 1.376 . S
C1285 C1284 1.392 . S
C1285 H1297 0.929 . S
C1286 C1282 1.531 . S
C1286 H1298 0.960 . S
C1286 H1299 0.962 . S
C1286 H1300 0.960 . S
C1287 C1284 1.511 . S
C1287 H1301 0.961 . S
C1287 H1302 0.961 . S
C1287 H1303 0.961 . S
C1288 C1289 1.370 . S
C1288 C1290 1.363 . S
C1288 H1304 0.931 . S
C1289 C1288 1.370 . S
C1289 C1293 1.408 . S
C1290 C1288 1.363 . S
C1290 C1291 1.370 . S
C1290 C1294 1.524 . S
C1291 C1283 1.503 . S
C1291 C1290 1.370 . S
C1291 C1292 1.403 . S
C1292 C1291 1.403 . S
C1292 C1293 1.404 . S
C1292 C1295 1.539 . S
C1293 C1289 1.408 . S
C1293 C1292 1.404 . S
C1293 H1305 0.930 . S
C1294 C1290 1.524 . S
C1294 H1306 0.956 . S
C1294 H1307 0.961 . S
C1294 H1308 0.961 . S
C1295 C1292 1.539 . S
C1295 H1309 0.958 . S
C1295 H1310 0.961 . S
C1295 H1311 0.960 . S
H1296 C1280 0.931 . S
H1297 C1285 0.929 . S
H1298 C1286 0.960 . S
H1299 C1286 0.962 . S
H1300 C1286 0.960 . S
H1301 C1287 0.961 . S
H1302 C1287 0.961 . S
H1303 C1287 0.961 . S
H1304 C1288 0.931 . S
H1305 C1293 0.930 . S
H1306 C1294 0.956 . S
H1307 C1294 0.961 . S
H1308 C1294 0.961 . S
H1309 C1295 0.958 . S
H1310 C1295 0.961 . S
H1311 C1295 0.960 . S
C1312 C1313 1.391 . S
C1312 C1314 1.394 . S
C1312 H1328 0.931 . S
C1313 C1312 1.391 . S
C1313 C1317 1.376 . S
C1314 C1312 1.394 . S
C1314 C1315 1.369 . S
C1314 C1318 1.531 1_565 S
C1315 C1314 1.369 . S
C1315 C1316 1.410 . S
C1315 C1323 1.503 1_565 S
C1316 C1315 1.410 . S
C1316 C1317 1.392 . S
C1316 C1319 1.511 . S
C1317 C1313 1.376 . S
C1317 C1316 1.392 . S
C1317 H1329 0.929 . S
C1318 C1314 1.531 1_545 S
C1318 H1330 0.960 . S
C1318 H1331 0.962 . S
C1318 H1332 0.960 . S
C1319 C1316 1.511 . S
C1319 H1333 0.961 . S
C1319 H1334 0.961 . S
C1319 H1335 0.961 . S
C1320 C1321 1.370 . S
C1320 C1322 1.363 . S
C1320 H1336 0.931 . S
C1321 C1320 1.370 . S
C1321 C1325 1.408 . S
C1322 C1320 1.363 . S
C1322 C1323 1.370 . S
C1322 C1326 1.524 . S
C1323 C1315 1.503 1_545 S
C1323 C1322 1.370 . S
C1323 C1324 1.403 . S
C1324 C1323 1.403 . S
C1324 C1325 1.404 . S
C1324 C1327 1.539 . S
C1325 C1321 1.408 . S
C1325 C1324 1.404 . S
C1325 H1337 0.930 . S
C1326 C1322 1.524 . S
C1326 H1338 0.956 . S
C1326 H1339 0.961 1_545 S
C1326 H1340 0.961 . S
C1327 C1324 1.539 . S
C1327 H1341 0.958 . S
C1327 H1342 0.961 . S
C1327 H1343 0.960 1_545 S
H1328 C1312 0.931 . S
H1329 C1317 0.929 . S
H1330 C1318 0.960 . S
H1331 C1318 0.962 . S
H1332 C1318 0.960 . S
H1333 C1319 0.961 . S
H1334 C1319 0.961 . S
H1335 C1319 0.961 . S
H1336 C1320 0.931 . S
H1337 C1325 0.930 . S
H1338 C1326 0.956 . S
H1339 C1326 0.961 1_565 S
H1340 C1326 0.961 . S
H1341 C1327 0.958 . S
H1342 C1327 0.961 . S
H1343 C1327 0.960 1_565 S
C1344 C1345 1.391 . S
C1344 C1346 1.394 . S
C1344 H1360 0.931 . S
C1345 C1344 1.391 . S
C1345 C1349 1.376 . S
C1346 C1344 1.394 . S
C1346 C1347 1.369 . S
C1346 C1350 1.531 . S
C1347 C1346 1.369 . S
C1347 C1348 1.410 . S
C1347 C1355 1.503 . S
C1348 C1347 1.410 . S
C1348 C1349 1.392 . S
C1348 C1351 1.511 . S
C1349 C1345 1.376 . S
C1349 C1348 1.392 . S
C1349 H1361 0.929 . S
C1350 C1346 1.531 . S
C1350 H1362 0.960 . S
C1350 H1363 0.962 . S
C1350 H1364 0.960 . S
C1351 C1348 1.511 . S
C1351 H1365 0.961 . S
C1351 H1366 0.961 . S
C1351 H1367 0.961 . S
C1352 C1353 1.370 . S
C1352 C1354 1.363 . S
C1352 H1368 0.931 . S
C1353 C1352 1.370 . S
C1353 C1357 1.408 . S
C1354 C1352 1.363 . S
C1354 C1355 1.370 . S
C1354 C1358 1.524 . S
C1355 C1347 1.503 . S
C1355 C1354 1.370 . S
C1355 C1356 1.403 . S
C1356 C1355 1.403 . S
C1356 C1357 1.404 . S
C1356 C1359 1.539 . S
C1357 C1353 1.408 . S
C1357 C1356 1.404 . S
C1357 H1369 0.930 . S
C1358 C1354 1.524 . S
C1358 H1370 0.956 . S
C1358 H1371 0.961 . S
C1358 H1372 0.961 . S
C1359 C1356 1.539 . S
C1359 H1373 0.958 . S
C1359 H1374 0.961 . S
C1359 H1375 0.960 . S
H1360 C1344 0.931 . S
H1361 C1349 0.929 . S
H1362 C1350 0.960 . S
H1363 C1350 0.962 . S
H1364 C1350 0.960 . S
H1365 C1351 0.961 . S
H1366 C1351 0.961 . S
H1367 C1351 0.961 . S
H1368 C1352 0.931 . S
H1369 C1357 0.930 . S
H1370 C1358 0.956 . S
H1371 C1358 0.961 . S
H1372 C1358 0.961 . S
H1373 C1359 0.958 . S
H1374 C1359 0.961 . S
H1375 C1359 0.960 . S
C1376 C1377 1.391 . S
C1376 C1378 1.387 1_554 S
C1376 H1392 0.931 1_554 S
C1377 C1376 1.391 . S
C1377 C1381 1.376 . S
C1378 C1376 1.387 1_556 S
C1378 C1379 1.356 1_556 S
C1378 C1382 1.551 1_565 S
C1379 C1378 1.356 1_554 S
C1379 C1380 1.410 . S
C1379 C1387 1.504 1_664 S
C1380 C1379 1.410 . S
C1380 C1381 1.392 . S
C1380 C1383 1.511 1_655 S
C1381 C1377 1.376 . S
C1381 C1380 1.392 . S
C1381 H1393 0.929 . S
C1382 C1378 1.551 1_545 S
C1382 H1394 0.960 . S
C1382 H1395 0.962 . S
C1382 H1396 0.960 . S
C1383 C1380 1.511 1_455 S
C1383 H1397 0.961 . S
C1383 H1398 0.961 . S
C1383 H1399 0.961 . S
C1384 C1385 1.370 . S
C1384 C1386 1.363 . S
C1384 H1400 0.931 . S
C1385 C1384 1.370 . S
C1385 C1389 1.408 1_556 S
C1386 C1384 1.363 . S
C1386 C1387 1.369 . S
C1386 C1390 1.524 1_545 S
C1387 C1379 1.504 1_446 S
C1387 C1386 1.369 . S
C1387 C1388 1.404 1_556 S
C1388 C1387 1.404 1_554 S
C1388 C1389 1.404 . S
C1388 C1391 1.551 . S
C1389 C1385 1.408 1_554 S
C1389 C1388 1.404 . S
C1389 H1401 0.930 . S
C1390 C1386 1.524 1_565 S
C1390 H1402 0.964 . S
C1390 H1403 0.961 . S
C1390 H1404 0.961 . S
C1391 C1388 1.551 . S
C1391 H1405 0.938 1_455 S
C1391 H1406 0.978 . S
C1391 H1407 0.952 1_455 S
H1392 C1376 0.931 1_556 S
H1393 C1381 0.929 . S
H1394 C1382 0.960 . S
H1395 C1382 0.962 . S
H1396 C1382 0.960 . S
H1397 C1383 0.961 . S
H1398 C1383 0.961 . S
H1399 C1383 0.961 . S
H1400 C1384 0.931 . S
H1401 C1389 0.930 . S
H1402 C1390 0.964 . S
H1403 C1390 0.961 . S
H1404 C1390 0.961 . S
H1405 C1391 0.938 1_655 S
H1406 C1391 0.978 . S
H1407 C1391 0.952 1_655 S
C1408 C1409 1.391 . S
C1408 C1410 1.394 . S
C1408 H1424 0.931 . S
C1409 C1408 1.391 . S
C1409 C1413 1.376 . S
C1410 C1408 1.394 . S
C1410 C1411 1.369 . S
C1410 C1414 1.531 . S
C1411 C1410 1.369 . S
C1411 C1412 1.410 . S
C1411 C1419 1.503 . S
C1412 C1411 1.410 . S
C1412 C1413 1.392 . S
C1412 C1415 1.511 . S
C1413 C1409 1.376 . S
C1413 C1412 1.392 . S
C1413 H1425 0.929 . S
C1414 C1410 1.531 . S
C1414 H1426 0.960 . S
C1414 H1427 0.962 . S
C1414 H1428 0.960 . S
C1415 C1412 1.511 . S
C1415 H1429 0.961 . S
C1415 H1430 0.961 . S
C1415 H1431 0.961 . S
C1416 C1417 1.370 . S
C1416 C1418 1.363 . S
C1416 H1432 0.931 . S
C1417 C1416 1.370 . S
C1417 C1421 1.408 . S
C1418 C1416 1.363 . S
C1418 C1419 1.370 . S
C1418 C1422 1.524 . S
C1419 C1411 1.503 . S
C1419 C1418 1.370 . S
C1419 C1420 1.403 . S
C1420 C1419 1.403 . S
C1420 C1421 1.404 . S
C1420 C1423 1.539 . S
C1421 C1417 1.408 . S
C1421 C1420 1.404 . S
C1421 H1433 0.930 . S
C1422 C1418 1.524 . S
C1422 H1434 0.956 . S
C1422 H1435 0.961 . S
C1422 H1436 0.961 . S
C1423 C1420 1.539 . S
C1423 H1437 0.958 . S
C1423 H1438 0.961 . S
C1423 H1439 0.960 . S
H1424 C1408 0.931 . S
H1425 C1413 0.929 . S
H1426 C1414 0.960 . S
H1427 C1414 0.962 . S
H1428 C1414 0.960 . S
H1429 C1415 0.961 . S
H1430 C1415 0.961 . S
H1431 C1415 0.961 . S
H1432 C1416 0.931 . S
H1433 C1421 0.930 . S
H1434 C1422 0.956 . S
H1435 C1422 0.961 . S
H1436 C1422 0.961 . S
H1437 C1423 0.958 . S
H1438 C1423 0.961 . S
H1439 C1423 0.960 . S
C1440 C1441 1.391 . S
C1440 C1442 1.394 . S
C1440 H1456 0.931 . S
C1441 C1440 1.391 . S
C1441 C1445 1.376 . S
C1442 C1440 1.394 . S
C1442 C1443 1.369 . S
C1442 C1446 1.531 . S
C1443 C1442 1.369 . S
C1443 C1444 1.410 . S
C1443 C1451 1.503 . S
C1444 C1443 1.410 . S
C1444 C1445 1.392 . S
C1444 C1447 1.511 . S
C1445 C1441 1.376 . S
C1445 C1444 1.392 . S
C1445 H1457 0.929 . S
C1446 C1442 1.531 . S
C1446 H1458 0.960 . S
C1446 H1459 0.962 . S
C1446 H1460 0.960 . S
C1447 C1444 1.511 . S
C1447 H1461 0.961 . S
C1447 H1462 0.961 . S
C1447 H1463 0.961 . S
C1448 C1449 1.370 . S
C1448 C1450 1.363 . S
C1448 H1464 0.931 . S
C1449 C1448 1.370 . S
C1449 C1453 1.408 . S
C1450 C1448 1.363 . S
C1450 C1451 1.370 . S
C1450 C1454 1.524 . S
C1451 C1443 1.503 . S
C1451 C1450 1.370 . S
C1451 C1452 1.403 . S
C1452 C1451 1.403 . S
C1452 C1453 1.404 . S
C1452 C1455 1.539 . S
C1453 C1449 1.408 . S
C1453 C1452 1.404 . S
C1453 H1465 0.930 . S
C1454 C1450 1.524 . S
C1454 H1466 0.956 . S
C1454 H1467 0.961 . S
C1454 H1468 0.961 . S
C1455 C1452 1.539 . S
C1455 H1469 0.958 . S
C1455 H1470 0.961 . S
C1455 H1471 0.960 . S
H1456 C1440 0.931 . S
H1457 C1445 0.929 . S
H1458 C1446 0.960 . S
H1459 C1446 0.962 . S
H1460 C1446 0.960 . S
H1461 C1447 0.961 . S
H1462 C1447 0.961 . S
H1463 C1447 0.961 . S
H1464 C1448 0.931 . S
H1465 C1453 0.930 . S
H1466 C1454 0.956 . S
H1467 C1454 0.961 . S
H1468 C1454 0.961 . S
H1469 C1455 0.958 . S
H1470 C1455 0.961 . S
H1471 C1455 0.960 . S
C1472 C1473 1.391 . S
C1472 C1474 1.394 . S
C1472 H1488 0.931 . S
C1473 C1472 1.391 . S
C1473 C1477 1.376 . S
C1474 C1472 1.394 . S
C1474 C1475 1.369 . S
C1474 C1478 1.531 . S
C1475 C1474 1.369 . S
C1475 C1476 1.410 . S
C1475 C1483 1.503 . S
C1476 C1475 1.410 . S
C1476 C1477 1.392 . S
C1476 C1479 1.511 . S
C1477 C1473 1.376 . S
C1477 C1476 1.392 . S
C1477 H1489 0.929 . S
C1478 C1474 1.531 . S
C1478 H1490 0.960 . S
C1478 H1491 0.962 . S
C1478 H1492 0.960 . S
C1479 C1476 1.511 . S
C1479 H1493 0.961 . S
C1479 H1494 0.961 . S
C1479 H1495 0.961 . S
C1480 C1481 1.370 . S
C1480 C1482 1.363 . S
C1480 H1496 0.931 . S
C1481 C1480 1.370 . S
C1481 C1485 1.408 . S
C1482 C1480 1.363 . S
C1482 C1483 1.370 . S
C1482 C1486 1.524 . S
C1483 C1475 1.503 . S
C1483 C1482 1.370 . S
C1483 C1484 1.403 . S
C1484 C1483 1.403 . S
C1484 C1485 1.404 . S
C1484 C1487 1.539 . S
C1485 C1481 1.408 . S
C1485 C1484 1.404 . S
C1485 H1497 0.930 . S
C1486 C1482 1.524 . S
C1486 H1498 0.956 . S
C1486 H1499 0.961 . S
C1486 H1500 0.961 . S
C1487 C1484 1.539 . S
C1487 H1501 0.958 . S
C1487 H1502 0.961 . S
C1487 H1503 0.960 . S
H1488 C1472 0.931 . S
H1489 C1477 0.929 . S
H1490 C1478 0.960 . S
H1491 C1478 0.962 . S
H1492 C1478 0.960 . S
H1493 C1479 0.961 . S
H1494 C1479 0.961 . S
H1495 C1479 0.961 . S
H1496 C1480 0.931 . S
H1497 C1485 0.930 . S
H1498 C1486 0.956 . S
H1499 C1486 0.961 . S
H1500 C1486 0.961 . S
H1501 C1487 0.958 . S
H1502 C1487 0.961 . S
H1503 C1487 0.960 . S
C1504 C1505 1.391 . S
C1504 C1506 1.394 . S
C1504 H1520 0.931 . S
C1505 C1504 1.391 . S
C1505 C1509 1.376 . S
C1506 C1504 1.394 . S
C1506 C1507 1.369 . S
C1506 C1510 1.531 . S
C1507 C1506 1.369 . S
C1507 C1508 1.410 . S
C1507 C1515 1.503 . S
C1508 C1507 1.410 . S
C1508 C1509 1.392 . S
C1508 C1511 1.511 . S
C1509 C1505 1.376 . S
C1509 C1508 1.392 . S
C1509 H1521 0.929 . S
C1510 C1506 1.531 . S
C1510 H1522 0.960 . S
C1510 H1523 0.962 . S
C1510 H1524 0.960 . S
C1511 C1508 1.511 . S
C1511 H1525 0.961 . S
C1511 H1526 0.961 . S
C1511 H1527 0.961 . S
C1512 C1513 1.370 . S
C1512 C1514 1.363 . S
C1512 H1528 0.931 . S
C1513 C1512 1.370 . S
C1513 C1517 1.408 . S
C1514 C1512 1.363 . S
C1514 C1515 1.370 . S
C1514 C1518 1.524 . S
C1515 C1507 1.503 . S
C1515 C1514 1.370 . S
C1515 C1516 1.403 . S
C1516 C1515 1.403 . S
C1516 C1517 1.404 . S
C1516 C1519 1.539 . S
C1517 C1513 1.408 . S
C1517 C1516 1.404 . S
C1517 H1529 0.930 . S
C1518 C1514 1.524 . S
C1518 H1530 0.956 . S
C1518 H1531 0.961 . S
C1518 H1532 0.961 . S
C1519 C1516 1.539 . S
C1519 H1533 0.958 . S
C1519 H1534 0.961 . S
C1519 H1535 0.960 . S
H1520 C1504 0.931 . S
H1521 C1509 0.929 . S
H1522 C1510 0.960 . S
H1523 C1510 0.962 . S
H1524 C1510 0.960 . S
H1525 C1511 0.961 . S
H1526 C1511 0.961 . S
H1527 C1511 0.961 . S
H1528 C1512 0.931 . S
H1529 C1517 0.930 . S
H1530 C1518 0.956 . S
H1531 C1518 0.961 . S
H1532 C1518 0.961 . S
H1533 C1519 0.958 . S
H1534 C1519 0.961 . S
H1535 C1519 0.960 . S
C1536 C1537 1.391 . S
C1536 C1538 1.394 . S
C1536 H1552 0.931 . S
C1537 C1536 1.391 . S
C1537 C1541 1.376 . S
C1538 C1536 1.394 . S
C1538 C1539 1.369 . S
C1538 C1542 1.531 . S
C1539 C1538 1.369 . S
C1539 C1540 1.410 . S
C1539 C1547 1.509 . S
C1540 C1539 1.410 . S
C1540 C1541 1.392 . S
C1540 C1543 1.511 1_554 S
C1541 C1537 1.376 . S
C1541 C1540 1.392 . S
C1541 H1553 0.929 . S
C1542 C1538 1.531 . S
C1542 H1554 0.960 . S
C1542 H1555 0.962 . S
C1542 H1556 0.960 . S
C1543 C1540 1.511 1_556 S
C1543 H1557 0.961 . S
C1543 H1558 0.961 . S
C1543 H1559 0.961 1_556 S
C1544 C1545 1.370 . S
C1544 C1546 1.363 . S
C1544 H1560 0.931 . S
C1545 C1544 1.370 . S
C1545 C1549 1.408 1_556 S
C1546 C1544 1.363 . S
C1546 C1547 1.352 1_556 S
C1546 C1550 1.524 . S
C1547 C1539 1.509 . S
C1547 C1546 1.352 1_554 S
C1547 C1548 1.415 . S
C1548 C1547 1.415 . S
C1548 C1549 1.404 . S
C1548 C1551 1.539 . S
C1549 C1545 1.408 1_554 S
C1549 C1548 1.404 . S
C1549 H1561 0.930 . S
C1550 C1546 1.524 . S
C1550 H1562 0.956 . S
C1550 H1563 0.961 . S
C1550 H1564 0.961 . S
C1551 C1548 1.539 . S
C1551 H1565 0.958 . S
C1551 H1566 0.961 . S
C1551 H1567 0.960 . S
H1552 C1536 0.931 . S
H1553 C1541 0.929 . S
H1554 C1542 0.960 . S
H1555 C1542 0.962 . S
H1556 C1542 0.960 . S
H1557 C1543 0.961 . S
H1558 C1543 0.961 . S
H1559 C1543 0.961 1_554 S
H1560 C1544 0.931 . S
H1561 C1549 0.930 . S
H1562 C1550 0.956 . S
H1563 C1550 0.961 . S
H1564 C1550 0.961 . S
H1565 C1551 0.958 . S
H1566 C1551 0.961 . S
H1567 C1551 0.960 . S
C1568 C1569 1.391 . S
C1568 C1570 1.394 . S
C1568 H1584 0.931 . S
C1569 C1568 1.391 . S
C1569 C1573 1.376 . S
C1570 C1568 1.394 . S
C1570 C1571 1.369 . S
C1570 C1574 1.531 . S
C1571 C1570 1.369 . S
C1571 C1572 1.410 . S
C1571 C1579 1.503 1_455 S
C1572 C1571 1.410 . S
C1572 C1573 1.392 . S
C1572 C1575 1.511 1_455 S
C1573 C1569 1.376 . S
C1573 C1572 1.392 . S
C1573 H1585 0.929 . S
C1574 C1570 1.531 . S
C1574 H1586 0.960 . S
C1574 H1587 0.962 . S
C1574 H1588 0.960 . S
C1575 C1572 1.511 1_655 S
C1575 H1589 0.961 . S
C1575 H1590 0.961 . S
C1575 H1591 0.961 . S
C1576 C1577 1.370 . S
C1576 C1578 1.363 . S
C1576 H1592 0.931 . S
C1577 C1576 1.370 . S
C1577 C1581 1.408 . S
C1578 C1576 1.363 . S
C1578 C1579 1.370 . S
C1578 C1582 1.524 . S
C1579 C1571 1.503 1_655 S
C1579 C1578 1.370 . S
C1579 C1580 1.403 . S
C1580 C1579 1.403 . S
C1580 C1581 1.404 . S
C1580 C1583 1.539 1_655 S
C1581 C1577 1.408 . S
C1581 C1580 1.404 . S
C1581 H1593 0.930 . S
C1582 C1578 1.524 . S
C1582 H1594 0.956 . S
C1582 H1595 0.961 . S
C1582 H1596 0.961 . S
C1583 C1580 1.539 1_455 S
C1583 H1597 0.958 . S
C1583 H1598 0.961 . S
C1583 H1599 0.960 . S
H1584 C1568 0.931 . S
H1585 C1573 0.929 . S
H1586 C1574 0.960 . S
H1587 C1574 0.962 . S
H1588 C1574 0.960 . S
H1589 C1575 0.961 . S
H1590 C1575 0.961 . S
H1591 C1575 0.961 . S
H1592 C1576 0.931 . S
H1593 C1581 0.930 . S
H1594 C1582 0.956 . S
H1595 C1582 0.961 . S
H1596 C1582 0.961 . S
H1597 C1583 0.958 . S
H1598 C1583 0.961 . S
H1599 C1583 0.960 . S
C1600 C1601 1.391 1_556 S
C1600 C1602 1.394 . S
C1600 H1616 0.931 . S
C1601 C1600 1.391 1_554 S
C1601 C1605 1.376 . S
C1602 C1600 1.394 . S
C1602 C1603 1.369 1_556 S
C1602 C1606 1.531 . S
C1603 C1602 1.369 1_554 S
C1603 C1604 1.410 . S
C1603 C1611 1.503 1_454 S
C1604 C1603 1.410 . S
C1604 C1605 1.392 . S
C1604 C1607 1.511 . S
C1605 C1601 1.376 . S
C1605 C1604 1.392 . S
C1605 H1617 0.929 . S
C1606 C1602 1.531 . S
C1606 H1618 0.960 . S
C1606 H1619 0.990 . S
C1606 H1620 0.960 . S
C1607 C1604 1.511 . S
C1607 H1621 0.961 . S
C1607 H1622 0.961 1_455 S
C1607 H1623 0.961 . S
C1608 C1609 1.370 . S
C1608 C1610 1.363 . S
C1608 H1624 0.931 . S
C1609 C1608 1.370 . S
C1609 C1613 1.408 . S
C1610 C1608 1.363 . S
C1610 C1611 1.370 . S
C1610 C1614 1.524 1_556 S
C1611 C1603 1.503 1_656 S
C1611 C1610 1.370 . S
C1611 C1612 1.403 . S
C1612 C1611 1.403 . S
C1612 C1613 1.404 . S
C1612 C1615 1.539 1_655 S
C1613 C1609 1.408 . S
C1613 C1612 1.404 . S
C1613 H1625 0.930 . S
C1614 C1610 1.524 1_554 S
C1614 H1626 0.956 1_554 S
C1614 H1627 0.961 . S
C1614 H1628 0.961 . S
C1615 C1612 1.539 1_455 S
C1615 H1629 0.958 . S
C1615 H1630 0.961 . S
C1615 H1631 0.960 . S
H1616 C1600 0.931 . S
H1617 C1605 0.929 . S
H1618 C1606 0.960 . S
H1619 C1606 0.990 . S
H1620 C1606 0.960 . S
H1621 C1607 0.961 . S
H1622 C1607 0.961 1_655 S
H1623 C1607 0.961 . S
H1624 C1608 0.931 . S
H1625 C1613 0.930 . S
H1626 C1614 0.956 1_556 S
H1627 C1614 0.961 . S
H1628 C1614 0.961 . S
H1629 C1615 0.958 . S
H1630 C1615 0.961 . S
H1631 C1615 0.960 . S
C1632 C1633 1.391 . S
C1632 C1634 1.394 . S
C1632 H1648 0.931 . S
C1633 C1632 1.391 . S
C1633 C1637 1.376 . S
C1634 C1632 1.394 . S
C1634 C1635 1.369 . S
C1634 C1638 1.531 . S
C1635 C1634 1.369 . S
C1635 C1636 1.410 . S
C1635 C1643 1.503 . S
C1636 C1635 1.410 . S
C1636 C1637 1.392 . S
C1636 C1639 1.511 . S
C1637 C1633 1.376 . S
C1637 C1636 1.392 . S
C1637 H1649 0.929 . S
C1638 C1634 1.531 . S
C1638 H1650 0.960 . S
C1638 H1651 0.962 . S
C1638 H1652 0.960 . S
C1639 C1636 1.511 . S
C1639 H1653 0.961 . S
C1639 H1654 0.961 . S
C1639 H1655 0.961 . S
C1640 C1641 1.370 . S
C1640 C1642 1.363 . S
C1640 H1656 0.931 . S
C1641 C1640 1.370 . S
C1641 C1645 1.408 . S
C1642 C1640 1.363 . S
C1642 C1643 1.370 . S
C1642 C1646 1.524 . S
C1643 C1635 1.503 . S
C1643 C1642 1.370 . S
C1643 C1644 1.403 . S
C1644 C1643 1.403 . S
C1644 C1645 1.404 . S
C1644 C1647 1.539 . S
C1645 C1641 1.408 . S
C1645 C1644 1.404 . S
C1645 H1657 0.930 . S
C1646 C1642 1.524 . S
C1646 H1658 0.956 . S
C1646 H1659 0.961 . S
C1646 H1660 0.961 . S
C1647 C1644 1.539 . S
C1647 H1661 0.958 . S
C1647 H1662 0.961 . S
C1647 H1663 0.960 . S
H1648 C1632 0.931 . S
H1649 C1637 0.929 . S
H1650 C1638 0.960 . S
H1651 C1638 0.962 . S
H1652 C1638 0.960 . S
H1653 C1639 0.961 . S
H1654 C1639 0.961 . S
H1655 C1639 0.961 . S
H1656 C1640 0.931 . S
H1657 C1645 0.930 . S
H1658 C1646 0.956 . S
H1659 C1646 0.961 . S
H1660 C1646 0.961 . S
H1661 C1647 0.958 . S
H1662 C1647 0.961 . S
H1663 C1647 0.960 . S
C1664 C1665 1.391 . S
C1664 C1666 1.394 . S
C1664 H1680 0.931 . S
C1665 C1664 1.391 . S
C1665 C1669 1.376 . S
C1666 C1664 1.394 . S
C1666 C1667 1.369 . S
C1666 C1670 1.531 . S
C1667 C1666 1.369 . S
C1667 C1668 1.410 . S
C1667 C1675 1.503 . S
C1668 C1667 1.410 . S
C1668 C1669 1.392 . S
C1668 C1671 1.511 . S
C1669 C1665 1.376 . S
C1669 C1668 1.392 . S
C1669 H1681 0.929 . S
C1670 C1666 1.531 . S
C1670 H1682 0.960 . S
C1670 H1683 0.962 . S
C1670 H1684 0.960 . S
C1671 C1668 1.511 . S
C1671 H1685 0.961 . S
C1671 H1686 0.961 . S
C1671 H1687 0.961 . S
C1672 C1673 1.370 . S
C1672 C1674 1.363 . S
C1672 H1688 0.931 . S
C1673 C1672 1.370 . S
C1673 C1677 1.408 . S
C1674 C1672 1.363 . S
C1674 C1675 1.370 . S
C1674 C1678 1.524 . S
C1675 C1667 1.503 . S
C1675 C1674 1.370 . S
C1675 C1676 1.403 . S
C1676 C1675 1.403 . S
C1676 C1677 1.404 . S
C1676 C1679 1.539 . S
C1677 C1673 1.408 . S
C1677 C1676 1.404 . S
C1677 H1689 0.930 . S
C1678 C1674 1.524 . S
C1678 H1690 0.956 . S
C1678 H1691 0.961 . S
C1678 H1692 0.961 . S
C1679 C1676 1.539 . S
C1679 H1693 0.958 . S
C1679 H1694 0.961 . S
C1679 H1695 0.960 . S
H1680 C1664 0.931 . S
H1681 C1669 0.929 . S
H1682 C1670 0.960 . S
H1683 C1670 0.962 . S
H1684 C1670 0.960 . S
H1685 C1671 0.961 . S
H1686 C1671 0.961 . S
H1687 C1671 0.961 . S
H1688 C1672 0.931 . S
H1689 C1677 0.930 . S
H1690 C1678 0.956 . S
H1691 C1678 0.961 . S
H1692 C1678 0.961 . S
H1693 C1679 0.958 . S
H1694 C1679 0.961 . S
H1695 C1679 0.960 . S
C1696 C1697 1.391 1_655 S
C1696 C1698 1.394 . S
C1696 H1712 0.931 1_655 S
C1697 C1696 1.391 1_455 S
C1697 C1701 1.376 1_455 S
C1698 C1696 1.394 . S
C1698 C1699 1.369 . S
C1698 C1702 1.531 . S
C1699 C1698 1.369 . S
C1699 C1700 1.410 . S
C1699 C1707 1.503 . S
C1700 C1699 1.410 . S
C1700 C1701 1.392 . S
C1700 C1703 1.511 . S
C1701 C1697 1.376 1_655 S
C1701 C1700 1.392 . S
C1701 H1713 0.929 . S
C1702 C1698 1.531 . S
C1702 H1714 0.960 . S
C1702 H1715 0.962 . S
C1702 H1716 0.960 . S
C1703 C1700 1.511 . S
C1703 H1717 0.961 . S
C1703 H1718 0.961 . S
C1703 H1719 0.961 . S
C1704 C1705 1.370 . S
C1704 C1706 1.363 . S
C1704 H1720 0.931 . S
C1705 C1704 1.370 . S
C1705 C1709 1.408 . S
C1706 C1704 1.363 . S
C1706 C1707 1.370 . S
C1706 C1710 1.524 . S
C1707 C1699 1.503 . S
C1707 C1706 1.370 . S
C1707 C1708 1.403 . S
C1708 C1707 1.403 . S
C1708 C1709 1.404 . S
C1708 C1711 1.539 . S
C1709 C1705 1.408 . S
C1709 C1708 1.404 . S
C1709 H1721 0.930 . S
C1710 C1706 1.524 . S
C1710 H1722 0.956 . S
C1710 H1723 0.961 . S
C1710 H1724 0.961 . S
C1711 C1708 1.539 . S
C1711 H1725 0.958 . S
C1711 H1726 0.961 . S
C1711 H1727 0.960 . S
H1712 C1696 0.931 1_455 S
H1713 C1701 0.929 . S
H1714 C1702 0.960 . S
H1715 C1702 0.962 . S
H1716 C1702 0.960 . S
H1717 C1703 0.961 . S
H1718 C1703 0.961 . S
H1719 C1703 0.961 . S
H1720 C1704 0.931 . S
H1721 C1709 0.930 . S
H1722 C1710 0.956 . S
H1723 C1710 0.961 . S
H1724 C1710 0.961 . S
H1725 C1711 0.958 . S
H1726 C1711 0.961 . S
H1727 C1711 0.960 . S
C1728 C1729 1.391 . S
C1728 C1730 1.394 . S
C1728 H1744 0.931 . S
C1729 C1728 1.391 . S
C1729 C1733 1.376 . S
C1730 C1728 1.394 . S
C1730 C1731 1.369 . S
C1730 C1734 1.531 . S
C1731 C1730 1.369 . S
C1731 C1732 1.410 . S
C1731 C1739 1.503 . S
C1732 C1731 1.410 . S
C1732 C1733 1.392 . S
C1732 C1735 1.511 . S
C1733 C1729 1.376 . S
C1733 C1732 1.392 . S
C1733 H1745 0.929 . S
C1734 C1730 1.531 . S
C1734 H1746 0.960 . S
C1734 H1747 0.962 . S
C1734 H1748 0.960 . S
C1735 C1732 1.511 . S
C1735 H1749 0.961 . S
C1735 H1750 0.961 . S
C1735 H1751 0.961 . S
C1736 C1737 1.370 . S
C1736 C1738 1.363 . S
C1736 H1752 0.931 . S
C1737 C1736 1.370 . S
C1737 C1741 1.408 . S
C1738 C1736 1.363 . S
C1738 C1739 1.370 . S
C1738 C1742 1.524 . S
C1739 C1731 1.503 . S
C1739 C1738 1.370 . S
C1739 C1740 1.403 . S
C1740 C1739 1.403 . S
C1740 C1741 1.404 . S
C1740 C1743 1.539 . S
C1741 C1737 1.408 . S
C1741 C1740 1.404 . S
C1741 H1753 0.930 . S
C1742 C1738 1.524 . S
C1742 H1754 0.956 . S
C1742 H1755 0.961 . S
C1742 H1756 0.961 . S
C1743 C1740 1.539 . S
C1743 H1757 0.958 . S
C1743 H1758 0.961 . S
C1743 H1759 0.960 . S
H1744 C1728 0.931 . S
H1745 C1733 0.929 . S
H1746 C1734 0.960 . S
H1747 C1734 0.962 . S
H1748 C1734 0.960 . S
H1749 C1735 0.961 . S
H1750 C1735 0.961 . S
H1751 C1735 0.961 . S
H1752 C1736 0.931 . S
H1753 C1741 0.930 . S
H1754 C1742 0.956 . S
H1755 C1742 0.961 . S
H1756 C1742 0.961 . S
H1757 C1743 0.958 . S
H1758 C1743 0.961 . S
H1759 C1743 0.960 . S
C1760 C1761 1.391 . S
C1760 C1762 1.394 . S
C1760 H1776 0.931 . S
C1761 C1760 1.391 . S
C1761 C1765 1.376 . S
C1762 C1760 1.394 . S
C1762 C1763 1.369 . S
C1762 C1766 1.531 . S
C1763 C1762 1.369 . S
C1763 C1764 1.410 . S
C1763 C1771 1.503 . S
C1764 C1763 1.410 . S
C1764 C1765 1.392 . S
C1764 C1767 1.511 . S
C1765 C1761 1.376 . S
C1765 C1764 1.392 . S
C1765 H1777 0.929 . S
C1766 C1762 1.531 . S
C1766 H1778 0.960 . S
C1766 H1779 0.962 . S
C1766 H1780 0.960 . S
C1767 C1764 1.511 . S
C1767 H1781 0.961 . S
C1767 H1782 0.961 . S
C1767 H1783 0.961 . S
C1768 C1769 1.370 . S
C1768 C1770 1.363 . S
C1768 H1784 0.931 . S
C1769 C1768 1.370 . S
C1769 C1773 1.408 . S
C1770 C1768 1.363 . S
C1770 C1771 1.370 . S
C1770 C1774 1.524 . S
C1771 C1763 1.503 . S
C1771 C1770 1.370 . S
C1771 C1772 1.403 . S
C1772 C1771 1.403 . S
C1772 C1773 1.404 . S
C1772 C1775 1.539 . S
C1773 C1769 1.408 . S
C1773 C1772 1.404 . S
C1773 H1785 0.930 . S
C1774 C1770 1.524 . S
C1774 H1786 0.956 . S
C1774 H1787 0.961 . S
C1774 H1788 0.961 . S
C1775 C1772 1.539 . S
C1775 H1789 0.958 . S
C1775 H1790 0.961 . S
C1775 H1791 0.960 . S
H1776 C1760 0.931 . S
H1777 C1765 0.929 . S
H1778 C1766 0.960 . S
H1779 C1766 0.962 . S
H1780 C1766 0.960 . S
H1781 C1767 0.961 . S
H1782 C1767 0.961 . S
H1783 C1767 0.961 . S
H1784 C1768 0.931 . S
H1785 C1773 0.930 . S
H1786 C1774 0.956 . S
H1787 C1774 0.961 . S
H1788 C1774 0.961 . S
H1789 C1775 0.958 . S
H1790 C1775 0.961 . S
H1791 C1775 0.960 . S
C1792 C1793 1.391 . S
C1792 C1794 1.394 . S
C1792 H1808 0.931 . S
C1793 C1792 1.391 . S
C1793 C1797 1.376 . S
C1794 C1792 1.394 . S
C1794 C1795 1.369 . S
C1794 C1798 1.531 . S
C1795 C1794 1.369 . S
C1795 C1796 1.410 . S
C1795 C1803 1.503 . S
C1796 C1795 1.410 . S
C1796 C1797 1.392 . S
C1796 C1799 1.511 . S
C1797 C1793 1.376 . S
C1797 C1796 1.392 . S
C1797 H1809 0.929 . S
C1798 C1794 1.531 . S
C1798 H1810 0.960 . S
C1798 H1811 0.962 . S
C1798 H1812 0.960 . S
C1799 C1796 1.511 . S
C1799 H1813 0.961 . S
C1799 H1814 0.961 . S
C1799 H1815 0.961 . S
C1800 C1801 1.370 . S
C1800 C1802 1.363 . S
C1800 H1816 0.931 . S
C1801 C1800 1.370 . S
C1801 C1805 1.408 . S
C1802 C1800 1.363 . S
C1802 C1803 1.370 . S
C1802 C1806 1.524 . S
C1803 C1795 1.503 . S
C1803 C1802 1.370 . S
C1803 C1804 1.403 . S
C1804 C1803 1.403 . S
C1804 C1805 1.404 . S
C1804 C1807 1.539 . S
C1805 C1801 1.408 . S
C1805 C1804 1.404 . S
C1805 H1817 0.930 . S
C1806 C1802 1.524 . S
C1806 H1818 0.956 . S
C1806 H1819 0.961 . S
C1806 H1820 0.961 . S
C1807 C1804 1.539 . S
C1807 H1821 0.958 . S
C1807 H1822 0.961 . S
C1807 H1823 0.960 . S
H1808 C1792 0.931 . S
H1809 C1797 0.929 . S
H1810 C1798 0.960 . S
H1811 C1798 0.962 . S
H1812 C1798 0.960 . S
H1813 C1799 0.961 . S
H1814 C1799 0.961 . S
H1815 C1799 0.961 . S
H1816 C1800 0.931 . S
H1817 C1805 0.930 . S
H1818 C1806 0.956 . S
H1819 C1806 0.961 . S
H1820 C1806 0.961 . S
H1821 C1807 0.958 . S
H1822 C1807 0.961 . S
H1823 C1807 0.960 . S
C1824 C1825 1.391 . S
C1824 C1826 1.394 . S
C1824 H1840 0.931 . S
C1825 C1824 1.391 . S
C1825 C1829 1.376 . S
C1826 C1824 1.394 . S
C1826 C1827 1.369 . S
C1826 C1830 1.531 . S
C1827 C1826 1.369 . S
C1827 C1828 1.410 . S
C1827 C1835 1.503 . S
C1828 C1827 1.410 . S
C1828 C1829 1.392 . S
C1828 C1831 1.511 . S
C1829 C1825 1.376 . S
C1829 C1828 1.392 . S
C1829 H1841 0.929 . S
C1830 C1826 1.531 . S
C1830 H1842 0.960 . S
C1830 H1843 0.962 . S
C1830 H1844 0.960 . S
C1831 C1828 1.511 . S
C1831 H1845 0.961 . S
C1831 H1846 0.961 . S
C1831 H1847 0.961 . S
C1832 C1833 1.370 . S
C1832 C1834 1.363 . S
C1832 H1848 0.931 . S
C1833 C1832 1.370 . S
C1833 C1837 1.408 . S
C1834 C1832 1.363 . S
C1834 C1835 1.370 . S
C1834 C1838 1.524 . S
C1835 C1827 1.503 . S
C1835 C1834 1.370 . S
C1835 C1836 1.403 . S
C1836 C1835 1.403 . S
C1836 C1837 1.404 . S
C1836 C1839 1.539 . S
C1837 C1833 1.408 . S
C1837 C1836 1.404 . S
C1837 H1849 0.930 . S
C1838 C1834 1.524 . S
C1838 H1850 0.956 . S
C1838 H1851 0.961 . S
C1838 H1852 0.961 . S
C1839 C1836 1.539 . S
C1839 H1853 0.958 . S
C1839 H1854 0.961 . S
C1839 H1855 0.960 . S
H1840 C1824 0.931 . S
H1841 C1829 0.929 . S
H1842 C1830 0.960 . S
H1843 C1830 0.962 . S
H1844 C1830 0.960 . S
H1845 C1831 0.961 . S
H1846 C1831 0.961 . S
H1847 C1831 0.961 . S
H1848 C1832 0.931 . S
H1849 C1837 0.930 . S
H1850 C1838 0.956 . S
H1851 C1838 0.961 . S
H1852 C1838 0.961 . S
H1853 C1839 0.958 . S
H1854 C1839 0.961 . S
H1855 C1839 0.960 . S
C1856 C1857 1.391 . S
C1856 C1858 1.394 . S
C1856 H1872 0.931 . S
C1857 C1856 1.391 . S
C1857 C1861 1.376 . S
C1858 C1856 1.394 . S
C1858 C1859 1.369 . S
C1858 C1862 1.531 . S
C1859 C1858 1.369 . S
C1859 C1860 1.410 . S
C1859 C1867 1.503 . S
C1860 C1859 1.410 . S
C1860 C1861 1.392 . S
C1860 C1863 1.511 . S
C1861 C1857 1.376 . S
C1861 C1860 1.392 . S
C1861 H1873 0.929 . S
C1862 C1858 1.531 . S
C1862 H1874 0.960 . S
C1862 H1875 0.962 . S
C1862 H1876 0.960 . S
C1863 C1860 1.511 . S
C1863 H1877 0.961 . S
C1863 H1878 0.961 . S
C1863 H1879 0.961 . S
C1864 C1865 1.370 . S
C1864 C1866 1.363 . S
C1864 H1880 0.931 . S
C1865 C1864 1.370 . S
C1865 C1869 1.408 . S
C1866 C1864 1.363 . S
C1866 C1867 1.370 . S
C1866 C1870 1.524 . S
C1867 C1859 1.503 . S
C1867 C1866 1.370 . S
C1867 C1868 1.403 . S
C1868 C1867 1.403 . S
C1868 C1869 1.404 . S
C1868 C1871 1.539 . S
C1869 C1865 1.408 . S
C1869 C1868 1.404 . S
C1869 H1881 0.930 . S
C1870 C1866 1.524 . S
C1870 H1882 0.956 . S
C1870 H1883 0.961 . S
C1870 H1884 0.961 . S
C1871 C1868 1.539 . S
C1871 H1885 0.958 . S
C1871 H1886 0.961 . S
C1871 H1887 0.960 . S
H1872 C1856 0.931 . S
H1873 C1861 0.929 . S
H1874 C1862 0.960 . S
H1875 C1862 0.962 . S
H1876 C1862 0.960 . S
H1877 C1863 0.961 . S
H1878 C1863 0.961 . S
H1879 C1863 0.961 . S
H1880 C1864 0.931 . S
H1881 C1869 0.930 . S
H1882 C1870 0.956 . S
H1883 C1870 0.961 . S
H1884 C1870 0.961 . S
H1885 C1871 0.958 . S
H1886 C1871 0.961 . S
H1887 C1871 0.960 . S
C1888 C1889 1.391 . S
C1888 C1890 1.394 . S
C1888 H1904 0.931 . S
C1889 C1888 1.391 . S
C1889 C1893 1.376 . S
C1890 C1888 1.394 . S
C1890 C1891 1.369 . S
C1890 C1894 1.531 . S
C1891 C1890 1.369 . S
C1891 C1892 1.410 . S
C1891 C1899 1.503 . S
C1892 C1891 1.410 . S
C1892 C1893 1.392 . S
C1892 C1895 1.511 . S
C1893 C1889 1.376 . S
C1893 C1892 1.392 . S
C1893 H1905 0.929 . S
C1894 C1890 1.531 . S
C1894 H1906 0.960 . S
C1894 H1907 0.962 . S
C1894 H1908 0.960 . S
C1895 C1892 1.511 . S
C1895 H1909 0.961 . S
C1895 H1910 0.961 . S
C1895 H1911 0.961 . S
C1896 C1897 1.370 1_655 S
C1896 C1898 1.363 . S
C1896 H1912 0.931 . S
C1897 C1896 1.370 1_455 S
C1897 C1901 1.411 . S
C1898 C1896 1.363 . S
C1898 C1899 1.370 . S
C1898 C1902 1.524 . S
C1899 C1891 1.503 . S
C1899 C1898 1.370 . S
C1899 C1900 1.403 . S
C1900 C1899 1.403 . S
C1900 C1901 1.365 1_655 S
C1900 C1903 1.539 . S
C1901 C1897 1.411 . S
C1901 C1900 1.365 1_455 S
C1901 H1913 0.967 . S
C1902 C1898 1.524 . S
C1902 H1914 0.956 . S
C1902 H1915 0.961 . S
C1902 H1916 0.961 . S
C1903 C1900 1.539 . S
C1903 H1917 0.958 . S
C1903 H1918 0.961 . S
C1903 H1919 0.960 . S
H1904 C1888 0.931 . S
H1905 C1893 0.929 . S
H1906 C1894 0.960 . S
H1907 C1894 0.962 . S
H1908 C1894 0.960 . S
H1909 C1895 0.961 . S
H1910 C1895 0.961 . S
H1911 C1895 0.961 . S
H1912 C1896 0.931 . S
H1913 C1901 0.967 . S
H1914 C1902 0.956 . S
H1915 C1902 0.961 . S
H1916 C1902 0.961 . S
H1917 C1903 0.958 . S
H1918 C1903 0.961 . S
H1919 C1903 0.960 . S
C1920 C1921 1.391 . S
C1920 C1922 1.394 . S
C1920 H1936 0.931 . S
C1921 C1920 1.391 . S
C1921 C1925 1.376 . S
C1922 C1920 1.394 . S
C1922 C1923 1.369 . S
C1922 C1926 1.531 . S
C1923 C1922 1.369 . S
C1923 C1924 1.410 . S
C1923 C1931 1.503 . S
C1924 C1923 1.410 . S
C1924 C1925 1.392 . S
C1924 C1927 1.511 . S
C1925 C1921 1.376 . S
C1925 C1924 1.392 . S
C1925 H1937 0.929 . S
C1926 C1922 1.531 . S
C1926 H1938 0.960 . S
C1926 H1939 0.962 . S
C1926 H1940 0.960 . S
C1927 C1924 1.511 . S
C1927 H1941 0.961 . S
C1927 H1942 0.961 . S
C1927 H1943 0.961 . S
C1928 C1929 1.370 . S
C1928 C1930 1.363 . S
C1928 H1944 0.931 . S
C1929 C1928 1.370 . S
C1929 C1933 1.408 . S
C1930 C1928 1.363 . S
C1930 C1931 1.370 . S
C1930 C1934 1.524 . S
C1931 C1923 1.503 . S
C1931 C1930 1.370 . S
C1931 C1932 1.403 . S
C1932 C1931 1.403 . S
C1932 C1933 1.404 . S
C1932 C1935 1.539 . S
C1933 C1929 1.408 . S
C1933 C1932 1.404 . S
C1933 H1945 0.930 . S
C1934 C1930 1.524 . S
C1934 H1946 0.956 . S
C1934 H1947 0.961 . S
C1934 H1948 0.961 . S
C1935 C1932 1.539 . S
C1935 H1949 0.958 . S
C1935 H1950 0.961 . S
C1935 H1951 0.960 . S
H1936 C1920 0.931 . S
H1937 C1925 0.929 . S
H1938 C1926 0.960 . S
H1939 C1926 0.962 . S
H1940 C1926 0.960 . S
H1941 C1927 0.961 . S
H1942 C1927 0.961 . S
H1943 C1927 0.961 . S
H1944 C1928 0.931 . S
H1945 C1933 0.930 . S
H1946 C1934 0.956 . S
H1947 C1934 0.961 . S
H1948 C1934 0.961 . S
H1949 C1935 0.958 . S
H1950 C1935 0.961 . S
H1951 C1935 0.960 . S
C1952 C1953 1.389 1_455 S
C1952 C1954 1.421 . S
C1952 H1968 0.906 1_455 S
C1953 C1952 1.389 1_655 S
C1953 C1957 1.346 1_655 S
C1954 C1952 1.421 . S
C1954 C1955 1.369 . S
C1954 C1958 1.531 . S
C1955 C1954 1.369 . S
C1955 C1956 1.410 . S
C1955 C1963 1.503 . S
C1956 C1955 1.410 . S
C1956 C1957 1.392 . S
C1956 C1959 1.511 . S
C1957 C1953 1.346 1_455 S
C1957 C1956 1.392 . S
C1957 H1969 0.929 . S
C1958 C1954 1.531 . S
C1958 H1970 0.960 . S
C1958 H1971 0.962 . S
C1958 H1972 0.960 . S
C1959 C1956 1.511 . S
C1959 H1973 0.961 . S
C1959 H1974 0.961 . S
C1959 H1975 0.961 . S
C1960 C1961 1.370 . S
C1960 C1962 1.363 . S
C1960 H1976 0.931 . S
C1961 C1960 1.370 . S
C1961 C1965 1.408 . S
C1962 C1960 1.363 . S
C1962 C1963 1.370 . S
C1962 C1966 1.524 . S
C1963 C1955 1.503 . S
C1963 C1962 1.370 . S
C1963 C1964 1.403 . S
C1964 C1963 1.403 . S
C1964 C1965 1.404 . S
C1964 C1967 1.539 . S
C1965 C1961 1.408 . S
C1965 C1964 1.404 . S
C1965 H1977 0.930 . S
C1966 C1962 1.524 . S
C1966 H1978 0.956 . S
C1966 H1979 0.961 . S
C1966 H1980 0.961 . S
C1967 C1964 1.539 . S
C1967 H1981 0.958 . S
C1967 H1982 0.961 . S
C1967 H1983 0.960 . S
H1968 C1952 0.906 1_655 S
H1969 C1957 0.929 . S
H1970 C1958 0.960 . S
H1971 C1958 0.962 . S
H1972 C1958 0.960 . S
H1973 C1959 0.961 . S
H1974 C1959 0.961 . S
H1975 C1959 0.961 . S
H1976 C1960 0.931 . S
H1977 C1965 0.930 . S
H1978 C1966 0.956 . S
H1979 C1966 0.961 . S
H1980 C1966 0.961 . S
H1981 C1967 0.958 . S
H1982 C1967 0.961 . S
H1983 C1967 0.960 . S
C1984 C1985 1.391 . S
C1984 C1986 1.394 . S
C1984 H2000 0.931 . S
C1985 C1984 1.391 . S
C1985 C1989 1.376 . S
C1986 C1984 1.394 . S
C1986 C1987 1.369 . S
C1986 C1990 1.531 . S
C1987 C1986 1.369 . S
C1987 C1988 1.410 . S
C1987 C1995 1.503 . S
C1988 C1987 1.410 . S
C1988 C1989 1.392 . S
C1988 C1991 1.511 . S
C1989 C1985 1.376 . S
C1989 C1988 1.392 . S
C1989 H2001 0.929 . S
C1990 C1986 1.531 . S
C1990 H2002 0.960 . S
C1990 H2003 0.962 . S
C1990 H2004 0.960 . S
C1991 C1988 1.511 . S
C1991 H2005 0.961 . S
C1991 H2006 0.961 . S
C1991 H2007 0.961 . S
C1992 C1993 1.370 . S
C1992 C1994 1.363 . S
C1992 H2008 0.931 . S
C1993 C1992 1.370 . S
C1993 C1997 1.408 . S
C1994 C1992 1.363 . S
C1994 C1995 1.370 . S
C1994 C1998 1.524 . S
C1995 C1987 1.503 . S
C1995 C1994 1.370 . S
C1995 C1996 1.403 . S
C1996 C1995 1.403 . S
C1996 C1997 1.404 . S
C1996 C1999 1.539 . S
C1997 C1993 1.408 . S
C1997 C1996 1.404 . S
C1997 H2009 0.930 . S
C1998 C1994 1.524 . S
C1998 H2010 0.956 . S
C1998 H2011 0.961 . S
C1998 H2012 0.961 . S
C1999 C1996 1.539 . S
C1999 H2013 0.958 . S
C1999 H2014 0.961 . S
C1999 H2015 0.960 . S
H2000 C1984 0.931 . S
H2001 C1989 0.929 . S
H2002 C1990 0.960 . S
H2003 C1990 0.962 . S
H2004 C1990 0.960 . S
H2005 C1991 0.961 . S
H2006 C1991 0.961 . S
H2007 C1991 0.961 . S
H2008 C1992 0.931 . S
H2009 C1997 0.930 . S
H2010 C1998 0.956 . S
H2011 C1998 0.961 . S
H2012 C1998 0.961 . S
H2013 C1999 0.958 . S
H2014 C1999 0.961 . S
H2015 C1999 0.960 . S
C2016 C2017 1.391 . S
C2016 C2018 1.394 . S
C2016 H2032 0.931 . S
C2017 C2016 1.391 . S
C2017 C2021 1.376 . S
C2018 C2016 1.394 . S
C2018 C2019 1.369 . S
C2018 C2022 1.531 . S
C2019 C2018 1.369 . S
C2019 C2020 1.410 . S
C2019 C2027 1.503 . S
C2020 C2019 1.410 . S
C2020 C2021 1.392 . S
C2020 C2023 1.511 . S
C2021 C2017 1.376 . S
C2021 C2020 1.392 . S
C2021 H2033 0.929 . S
C2022 C2018 1.531 . S
C2022 H2034 0.960 . S
C2022 H2035 0.962 . S
C2022 H2036 0.960 . S
C2023 C2020 1.511 . S
C2023 H2037 0.961 . S
C2023 H2038 0.961 . S
C2023 H2039 0.961 . S
C2024 C2025 1.370 . S
C2024 C2026 1.363 . S
C2024 H2040 0.931 . S
C2025 C2024 1.370 . S
C2025 C2029 1.408 . S
C2026 C2024 1.363 . S
C2026 C2027 1.370 . S
C2026 C2030 1.524 . S
C2027 C2019 1.503 . S
C2027 C2026 1.370 . S
C2027 C2028 1.403 . S
C2028 C2027 1.403 . S
C2028 C2029 1.404 . S
C2028 C2031 1.539 . S
C2029 C2025 1.408 . S
C2029 C2028 1.404 . S
C2029 H2041 0.930 . S
C2030 C2026 1.524 . S
C2030 H2042 0.956 . S
C2030 H2043 0.961 . S
C2030 H2044 0.961 . S
C2031 C2028 1.539 . S
C2031 H2045 0.958 . S
C2031 H2046 0.961 . S
C2031 H2047 0.960 . S
H2032 C2016 0.931 . S
H2033 C2021 0.929 . S
H2034 C2022 0.960 . S
H2035 C2022 0.962 . S
H2036 C2022 0.960 . S
H2037 C2023 0.961 . S
H2038 C2023 0.961 . S
H2039 C2023 0.961 . S
H2040 C2024 0.931 . S
H2041 C2029 0.930 . S
H2042 C2030 0.956 . S
H2043 C2030 0.961 . S
H2044 C2030 0.961 . S
H2045 C2031 0.958 . S
H2046 C2031 0.961 . S
H2047 C2031 0.960 . S
C2048 C2049 1.391 . S
C2048 C2050 1.394 . S
C2048 H2064 0.931 . S
C2049 C2048 1.391 . S
C2049 C2053 1.376 . S
C2050 C2048 1.394 . S
C2050 C2051 1.369 . S
C2050 C2054 1.531 . S
C2051 C2050 1.369 . S
C2051 C2052 1.410 . S
C2051 C2059 1.503 . S
C2052 C2051 1.410 . S
C2052 C2053 1.392 . S
C2052 C2055 1.511 . S
C2053 C2049 1.376 . S
C2053 C2052 1.392 . S
C2053 H2065 0.929 . S
C2054 C2050 1.531 . S
C2054 H2066 0.960 . S
C2054 H2067 0.962 . S
C2054 H2068 0.960 . S
C2055 C2052 1.511 . S
C2055 H2069 0.961 . S
C2055 H2070 0.961 . S
C2055 H2071 0.961 . S
C2056 C2057 1.370 . S
C2056 C2058 1.363 . S
C2056 H2072 0.931 . S
C2057 C2056 1.370 . S
C2057 C2061 1.408 . S
C2058 C2056 1.363 . S
C2058 C2059 1.370 . S
C2058 C2062 1.524 . S
C2059 C2051 1.503 . S
C2059 C2058 1.370 . S
C2059 C2060 1.403 . S
C2060 C2059 1.403 . S
C2060 C2061 1.404 . S
C2060 C2063 1.539 . S
C2061 C2057 1.408 . S
C2061 C2060 1.404 . S
C2061 H2073 0.930 . S
C2062 C2058 1.524 . S
C2062 H2074 0.956 . S
C2062 H2075 0.961 . S
C2062 H2076 0.961 . S
C2063 C2060 1.539 . S
C2063 H2077 0.958 . S
C2063 H2078 0.961 . S
C2063 H2079 0.960 . S
H2064 C2048 0.931 . S
H2065 C2053 0.929 . S
H2066 C2054 0.960 . S
H2067 C2054 0.962 . S
H2068 C2054 0.960 . S
H2069 C2055 0.961 . S
H2070 C2055 0.961 . S
H2071 C2055 0.961 . S
H2072 C2056 0.931 . S
H2073 C2061 0.930 . S
H2074 C2062 0.956 . S
H2075 C2062 0.961 . S
H2076 C2062 0.961 . S
H2077 C2063 0.958 . S
H2078 C2063 0.961 . S
H2079 C2063 0.960 . S
C2080 C2081 1.391 . S
C2080 C2082 1.394 . S
C2080 H2096 0.931 . S
C2081 C2080 1.391 . S
C2081 C2085 1.376 . S
C2082 C2080 1.394 . S
C2082 C2083 1.369 . S
C2082 C2086 1.531 . S
C2083 C2082 1.369 . S
C2083 C2084 1.410 . S
C2083 C2091 1.503 . S
C2084 C2083 1.410 . S
C2084 C2085 1.392 . S
C2084 C2087 1.511 . S
C2085 C2081 1.376 . S
C2085 C2084 1.392 . S
C2085 H2097 0.929 . S
C2086 C2082 1.531 . S
C2086 H2098 0.960 . S
C2086 H2099 0.962 . S
C2086 H2100 0.960 . S
C2087 C2084 1.511 . S
C2087 H2101 0.961 . S
C2087 H2102 0.961 . S
C2087 H2103 0.961 . S
C2088 C2089 1.370 . S
C2088 C2090 1.363 . S
C2088 H2104 0.931 . S
C2089 C2088 1.370 . S
C2089 C2093 1.408 . S
C2090 C2088 1.363 . S
C2090 C2091 1.370 . S
C2090 C2094 1.524 . S
C2091 C2083 1.503 . S
C2091 C2090 1.370 . S
C2091 C2092 1.403 . S
C2092 C2091 1.403 . S
C2092 C2093 1.404 . S
C2092 C2095 1.539 . S
C2093 C2089 1.408 . S
C2093 C2092 1.404 . S
C2093 H2105 0.930 . S
C2094 C2090 1.524 . S
C2094 H2106 0.956 . S
C2094 H2107 0.961 . S
C2094 H2108 0.961 . S
C2095 C2092 1.539 . S
C2095 H2109 0.958 . S
C2095 H2110 0.961 . S
C2095 H2111 0.960 . S
H2096 C2080 0.931 . S
H2097 C2085 0.929 . S
H2098 C2086 0.960 . S
H2099 C2086 0.962 . S
H2100 C2086 0.960 . S
H2101 C2087 0.961 . S
H2102 C2087 0.961 . S
H2103 C2087 0.961 . S
H2104 C2088 0.931 . S
H2105 C2093 0.930 . S
H2106 C2094 0.956 . S
H2107 C2094 0.961 . S
H2108 C2094 0.961 . S
H2109 C2095 0.958 . S
H2110 C2095 0.961 . S
H2111 C2095 0.960 . S
C2112 C2113 1.391 . S
C2112 C2114 1.394 . S
C2112 H2128 0.931 . S
C2113 C2112 1.391 . S
C2113 C2117 1.376 . S
C2114 C2112 1.394 . S
C2114 C2115 1.369 . S
C2114 C2118 1.531 . S
C2115 C2114 1.369 . S
C2115 C2116 1.410 . S
C2115 C2123 1.503 . S
C2116 C2115 1.410 . S
C2116 C2117 1.392 . S
C2116 C2119 1.511 . S
C2117 C2113 1.376 . S
C2117 C2116 1.392 . S
C2117 H2129 0.929 . S
C2118 C2114 1.531 . S
C2118 H2130 0.960 . S
C2118 H2131 0.962 . S
C2118 H2132 0.960 . S
C2119 C2116 1.511 . S
C2119 H2133 0.961 . S
C2119 H2134 0.961 . S
C2119 H2135 0.961 . S
C2120 C2121 1.370 . S
C2120 C2122 1.363 . S
C2120 H2136 0.931 . S
C2121 C2120 1.370 . S
C2121 C2125 1.408 . S
C2122 C2120 1.363 . S
C2122 C2123 1.370 . S
C2122 C2126 1.524 . S
C2123 C2115 1.503 . S
C2123 C2122 1.370 . S
C2123 C2124 1.403 . S
C2124 C2123 1.403 . S
C2124 C2125 1.404 . S
C2124 C2127 1.539 . S
C2125 C2121 1.408 . S
C2125 C2124 1.404 . S
C2125 H2137 0.930 . S
C2126 C2122 1.524 . S
C2126 H2138 0.956 . S
C2126 H2139 0.961 . S
C2126 H2140 0.961 . S
C2127 C2124 1.539 . S
C2127 H2141 0.958 . S
C2127 H2142 0.961 . S
C2127 H2143 0.960 . S
H2128 C2112 0.931 . S
H2129 C2117 0.929 . S
H2130 C2118 0.960 . S
H2131 C2118 0.962 . S
H2132 C2118 0.960 . S
H2133 C2119 0.961 . S
H2134 C2119 0.961 . S
H2135 C2119 0.961 . S
H2136 C2120 0.931 . S
H2137 C2125 0.930 . S
H2138 C2126 0.956 . S
H2139 C2126 0.961 . S
H2140 C2126 0.961 . S
H2141 C2127 0.958 . S
H2142 C2127 0.961 . S
H2143 C2127 0.960 . S
C2144 C2145 1.391 . S
C2144 C2146 1.394 . S
C2144 H2160 0.931 . S
C2145 C2144 1.391 . S
C2145 C2149 1.376 . S
C2146 C2144 1.394 . S
C2146 C2147 1.369 . S
C2146 C2150 1.531 . S
C2147 C2146 1.369 . S
C2147 C2148 1.410 . S
C2147 C2155 1.503 . S
C2148 C2147 1.410 . S
C2148 C2149 1.392 . S
C2148 C2151 1.511 . S
C2149 C2145 1.376 . S
C2149 C2148 1.392 . S
C2149 H2161 0.929 . S
C2150 C2146 1.531 . S
C2150 H2162 0.960 . S
C2150 H2163 0.962 . S
C2150 H2164 0.960 . S
C2151 C2148 1.511 . S
C2151 H2165 0.961 . S
C2151 H2166 0.961 . S
C2151 H2167 0.961 . S
C2152 C2153 1.370 . S
C2152 C2154 1.363 1_655 S
C2152 H2168 0.931 . S
C2153 C2152 1.370 . S
C2153 C2157 1.408 1_655 S
C2154 C2152 1.363 1_455 S
C2154 C2155 1.370 . S
C2154 C2158 1.524 . S
C2155 C2147 1.503 . S
C2155 C2154 1.370 . S
C2155 C2156 1.403 . S
C2156 C2155 1.403 . S
C2156 C2157 1.404 . S
C2156 C2159 1.539 . S
C2157 C2153 1.408 1_455 S
C2157 C2156 1.404 . S
C2157 H2169 0.930 . S
C2158 C2154 1.524 . S
C2158 H2170 0.956 . S
C2158 H2171 0.961 . S
C2158 H2172 0.961 . S
C2159 C2156 1.539 . S
C2159 H2173 0.958 . S
C2159 H2174 0.961 . S
C2159 H2175 0.960 . S
H2160 C2144 0.931 . S
H2161 C2149 0.929 . S
H2162 C2150 0.960 . S
H2163 C2150 0.962 . S
H2164 C2150 0.960 . S
H2165 C2151 0.961 . S
H2166 C2151 0.961 . S
H2167 C2151 0.961 . S
H2168 C2152 0.931 . S
H2169 C2157 0.930 . S
H2170 C2158 0.956 . S
H2171 C2158 0.961 . S
H2172 C2158 0.961 . S
H2173 C2159 0.958 . S
H2174 C2159 0.961 . S
H2175 C2159 0.960 . S
C2176 C2177 1.391 . S
C2176 C2178 1.394 . S
C2176 H2192 0.931 . S
C2177 C2176 1.391 . S
C2177 C2181 1.376 . S
C2178 C2176 1.394 . S
C2178 C2179 1.369 . S
C2178 C2182 1.531 . S
C2179 C2178 1.369 . S
C2179 C2180 1.410 . S
C2179 C2187 1.503 . S
C2180 C2179 1.410 . S
C2180 C2181 1.392 . S
C2180 C2183 1.511 . S
C2181 C2177 1.376 . S
C2181 C2180 1.392 . S
C2181 H2193 0.929 . S
C2182 C2178 1.531 . S
C2182 H2194 0.960 . S
C2182 H2195 0.962 . S
C2182 H2196 0.960 . S
C2183 C2180 1.511 . S
C2183 H2197 0.961 . S
C2183 H2198 0.961 . S
C2183 H2199 0.961 . S
C2184 C2185 1.370 . S
C2184 C2186 1.363 . S
C2184 H2200 0.931 . S
C2185 C2184 1.370 . S
C2185 C2189 1.408 . S
C2186 C2184 1.363 . S
C2186 C2187 1.370 . S
C2186 C2190 1.524 . S
C2187 C2179 1.503 . S
C2187 C2186 1.370 . S
C2187 C2188 1.403 . S
C2188 C2187 1.403 . S
C2188 C2189 1.404 . S
C2188 C2191 1.539 . S
C2189 C2185 1.408 . S
C2189 C2188 1.404 . S
C2189 H2201 0.930 . S
C2190 C2186 1.524 . S
C2190 H2202 0.956 . S
C2190 H2203 0.961 . S
C2190 H2204 0.961 . S
C2191 C2188 1.539 . S
C2191 H2205 0.958 . S
C2191 H2206 0.961 . S
C2191 H2207 0.960 . S
H2192 C2176 0.931 . S
H2193 C2181 0.929 . S
H2194 C2182 0.960 . S
H2195 C2182 0.962 . S
H2196 C2182 0.960 . S
H2197 C2183 0.961 . S
H2198 C2183 0.961 . S
H2199 C2183 0.961 . S
H2200 C2184 0.931 . S
H2201 C2189 0.930 . S
H2202 C2190 0.956 . S
H2203 C2190 0.961 . S
H2204 C2190 0.961 . S
H2205 C2191 0.958 . S
H2206 C2191 0.961 . S
H2207 C2191 0.960 . S
C2208 C2209 1.391 . S
C2208 C2210 1.394 . S
C2208 H2224 0.931 . S
C2209 C2208 1.391 . S
C2209 C2213 1.376 . S
C2210 C2208 1.394 . S
C2210 C2211 1.369 . S
C2210 C2214 1.531 . S
C2211 C2210 1.369 . S
C2211 C2212 1.410 . S
C2211 C2219 1.503 . S
C2212 C2211 1.410 . S
C2212 C2213 1.392 . S
C2212 C2215 1.511 . S
C2213 C2209 1.376 . S
C2213 C2212 1.392 . S
C2213 H2225 0.929 . S
C2214 C2210 1.531 . S
C2214 H2226 0.960 . S
C2214 H2227 0.962 . S
C2214 H2228 0.960 . S
C2215 C2212 1.511 . S
C2215 H2229 0.961 . S
C2215 H2230 0.961 . S
C2215 H2231 0.961 . S
C2216 C2217 1.370 . S
C2216 C2218 1.363 . S
C2216 H2232 0.931 . S
C2217 C2216 1.370 . S
C2217 C2221 1.408 . S
C2218 C2216 1.363 . S
C2218 C2219 1.370 . S
C2218 C2222 1.524 . S
C2219 C2211 1.503 . S
C2219 C2218 1.370 . S
C2219 C2220 1.403 . S
C2220 C2219 1.403 . S
C2220 C2221 1.404 . S
C2220 C2223 1.539 . S
C2221 C2217 1.408 . S
C2221 C2220 1.404 . S
C2221 H2233 0.930 . S
C2222 C2218 1.524 . S
C2222 H2234 0.956 . S
C2222 H2235 0.961 . S
C2222 H2236 0.961 . S
C2223 C2220 1.539 . S
C2223 H2237 0.958 . S
C2223 H2238 0.961 . S
C2223 H2239 0.960 . S
H2224 C2208 0.931 . S
H2225 C2213 0.929 . S
H2226 C2214 0.960 . S
H2227 C2214 0.962 . S
H2228 C2214 0.960 . S
H2229 C2215 0.961 . S
H2230 C2215 0.961 . S
H2231 C2215 0.961 . S
H2232 C2216 0.931 . S
H2233 C2221 0.930 . S
H2234 C2222 0.956 . S
H2235 C2222 0.961 . S
H2236 C2222 0.961 . S
H2237 C2223 0.958 . S
H2238 C2223 0.961 . S
H2239 C2223 0.960 . S
C2240 C2241 1.391 . S
C2240 C2242 1.394 . S
C2240 H2256 0.931 . S
C2241 C2240 1.391 . S
C2241 C2245 1.376 . S
C2242 C2240 1.394 . S
C2242 C2243 1.369 . S
C2242 C2246 1.531 . S
C2243 C2242 1.369 . S
C2243 C2244 1.410 . S
C2243 C2251 1.503 . S
C2244 C2243 1.410 . S
C2244 C2245 1.392 . S
C2244 C2247 1.511 . S
C2245 C2241 1.376 . S
C2245 C2244 1.392 . S
C2245 H2257 0.929 . S
C2246 C2242 1.531 . S
C2246 H2258 0.960 . S
C2246 H2259 0.962 . S
C2246 H2260 0.960 . S
C2247 C2244 1.511 . S
C2247 H2261 0.961 . S
C2247 H2262 0.961 . S
C2247 H2263 0.961 . S
C2248 C2249 1.370 . S
C2248 C2250 1.363 . S
C2248 H2264 0.931 . S
C2249 C2248 1.370 . S
C2249 C2253 1.408 . S
C2250 C2248 1.363 . S
C2250 C2251 1.370 . S
C2250 C2254 1.524 . S
C2251 C2243 1.503 . S
C2251 C2250 1.370 . S
C2251 C2252 1.403 . S
C2252 C2251 1.403 . S
C2252 C2253 1.404 . S
C2252 C2255 1.539 . S
C2253 C2249 1.408 . S
C2253 C2252 1.404 . S
C2253 H2265 0.930 . S
C2254 C2250 1.524 . S
C2254 H2266 0.956 . S
C2254 H2267 0.961 . S
C2254 H2268 0.961 . S
C2255 C2252 1.539 . S
C2255 H2269 0.958 . S
C2255 H2270 0.961 . S
C2255 H2271 0.960 . S
H2256 C2240 0.931 . S
H2257 C2245 0.929 . S
H2258 C2246 0.960 . S
H2259 C2246 0.962 . S
H2260 C2246 0.960 . S
H2261 C2247 0.961 . S
H2262 C2247 0.961 . S
H2263 C2247 0.961 . S
H2264 C2248 0.931 . S
H2265 C2253 0.930 . S
H2266 C2254 0.956 . S
H2267 C2254 0.961 . S
H2268 C2254 0.961 . S
H2269 C2255 0.958 . S
H2270 C2255 0.961 . S
H2271 C2255 0.960 . S
C2272 C2273 1.391 1_455 S
C2272 C2274 1.394 . S
C2272 H2288 0.931 . S
C2273 C2272 1.391 1_655 S
C2273 C2277 1.376 1_655 S
C2274 C2272 1.394 . S
C2274 C2275 1.369 . S
C2274 C2278 1.531 . S
C2275 C2274 1.369 . S
C2275 C2276 1.410 . S
C2275 C2283 1.503 . S
C2276 C2275 1.410 . S
C2276 C2277 1.392 . S
C2276 C2279 1.511 . S
C2277 C2273 1.376 1_455 S
C2277 C2276 1.392 . S
C2277 H2289 0.929 1_455 S
C2278 C2274 1.531 . S
C2278 H2290 0.960 . S
C2278 H2291 0.962 . S
C2278 H2292 0.960 . S
C2279 C2276 1.511 . S
C2279 H2293 0.961 . S
C2279 H2294 0.961 . S
C2279 H2295 0.961 . S
C2280 C2281 1.370 . S
C2280 C2282 1.363 . S
C2280 H2296 0.931 . S
C2281 C2280 1.370 . S
C2281 C2285 1.408 . S
C2282 C2280 1.363 . S
C2282 C2283 1.370 . S
C2282 C2286 1.524 . S
C2283 C2275 1.503 . S
C2283 C2282 1.370 . S
C2283 C2284 1.403 . S
C2284 C2283 1.403 . S
C2284 C2285 1.404 . S
C2284 C2287 1.539 . S
C2285 C2281 1.408 . S
C2285 C2284 1.404 . S
C2285 H2297 0.930 . S
C2286 C2282 1.524 . S
C2286 H2298 0.956 . S
C2286 H2299 0.961 . S
C2286 H2300 0.961 . S
C2287 C2284 1.539 . S
C2287 H2301 0.958 . S
C2287 H2302 0.961 . S
C2287 H2303 0.960 . S
H2288 C2272 0.931 . S
H2289 C2277 0.929 1_655 S
H2290 C2278 0.960 . S
H2291 C2278 0.962 . S
H2292 C2278 0.960 . S
H2293 C2279 0.961 . S
H2294 C2279 0.961 . S
H2295 C2279 0.961 . S
H2296 C2280 0.931 . S
H2297 C2285 0.930 . S
H2298 C2286 0.956 . S
H2299 C2286 0.961 . S
H2300 C2286 0.961 . S
H2301 C2287 0.958 . S
H2302 C2287 0.961 . S
H2303 C2287 0.960 . S
C2304 C2305 1.391 . S
C2304 C2306 1.394 . S
C2304 H2320 0.931 . S
C2305 C2304 1.391 . S
C2305 C2309 1.376 . S
C2306 C2304 1.394 . S
C2306 C2307 1.369 . S
C2306 C2310 1.531 . S
C2307 C2306 1.369 . S
C2307 C2308 1.410 . S
C2307 C2315 1.503 . S
C2308 C2307 1.410 . S
C2308 C2309 1.392 . S
C2308 C2311 1.511 . S
C2309 C2305 1.376 . S
C2309 C2308 1.392 . S
C2309 H2321 0.929 . S
C2310 C2306 1.531 . S
C2310 H2322 0.960 . S
C2310 H2323 0.962 . S
C2310 H2324 0.960 . S
C2311 C2308 1.511 . S
C2311 H2325 0.961 . S
C2311 H2326 0.961 . S
C2311 H2327 0.961 . S
C2312 C2313 1.370 . S
C2312 C2314 1.363 . S
C2312 H2328 0.931 . S
C2313 C2312 1.370 . S
C2313 C2317 1.408 . S
C2314 C2312 1.363 . S
C2314 C2315 1.370 . S
C2314 C2318 1.524 . S
C2315 C2307 1.503 . S
C2315 C2314 1.370 . S
C2315 C2316 1.403 . S
C2316 C2315 1.403 . S
C2316 C2317 1.404 . S
C2316 C2319 1.539 . S
C2317 C2313 1.408 . S
C2317 C2316 1.404 . S
C2317 H2329 0.930 . S
C2318 C2314 1.524 . S
C2318 H2330 0.956 . S
C2318 H2331 0.961 . S
C2318 H2332 0.961 . S
C2319 C2316 1.539 . S
C2319 H2333 0.958 . S
C2319 H2334 0.961 . S
C2319 H2335 0.960 . S
H2320 C2304 0.931 . S
H2321 C2309 0.929 . S
H2322 C2310 0.960 . S
H2323 C2310 0.962 . S
H2324 C2310 0.960 . S
H2325 C2311 0.961 . S
H2326 C2311 0.961 . S
H2327 C2311 0.961 . S
H2328 C2312 0.931 . S
H2329 C2317 0.930 . S
H2330 C2318 0.956 . S
H2331 C2318 0.961 . S
H2332 C2318 0.961 . S
H2333 C2319 0.958 . S
H2334 C2319 0.961 . S
H2335 C2319 0.960 . S
C2336 C2337 1.391 1_455 S
C2336 C2338 1.394 . S
C2336 H2352 0.931 1_455 S
C2337 C2336 1.391 1_655 S
C2337 C2341 1.376 1_655 S
C2338 C2336 1.394 . S
C2338 C2339 1.369 . S
C2338 C2342 1.531 . S
C2339 C2338 1.369 . S
C2339 C2340 1.410 . S
C2339 C2347 1.503 . S
C2340 C2339 1.410 . S
C2340 C2341 1.392 . S
C2340 C2343 1.511 . S
C2341 C2337 1.376 1_455 S
C2341 C2340 1.392 . S
C2341 H2353 0.929 . S
C2342 C2338 1.531 . S
C2342 H2354 0.960 . S
C2342 H2355 0.962 . S
C2342 H2356 0.960 . S
C2343 C2340 1.511 . S
C2343 H2357 0.961 . S
C2343 H2358 0.961 . S
C2343 H2359 0.961 . S
C2344 C2345 1.370 . S
C2344 C2346 1.363 . S
C2344 H2360 0.931 . S
C2345 C2344 1.370 . S
C2345 C2349 1.408 . S
C2346 C2344 1.363 . S
C2346 C2347 1.370 . S
C2346 C2350 1.524 . S
C2347 C2339 1.503 . S
C2347 C2346 1.370 . S
C2347 C2348 1.403 . S
C2348 C2347 1.403 . S
C2348 C2349 1.404 . S
C2348 C2351 1.539 . S
C2349 C2345 1.408 . S
C2349 C2348 1.404 . S
C2349 H2361 0.930 . S
C2350 C2346 1.524 . S
C2350 H2362 0.956 . S
C2350 H2363 0.961 . S
C2350 H2364 0.961 . S
C2351 C2348 1.539 . S
C2351 H2365 0.958 . S
C2351 H2366 0.961 . S
C2351 H2367 0.960 . S
H2352 C2336 0.931 1_655 S
H2353 C2341 0.929 . S
H2354 C2342 0.960 . S
H2355 C2342 0.962 . S
H2356 C2342 0.960 . S
H2357 C2343 0.961 . S
H2358 C2343 0.961 . S
H2359 C2343 0.961 . S
H2360 C2344 0.931 . S
H2361 C2349 0.930 . S
H2362 C2350 0.956 . S
H2363 C2350 0.961 . S
H2364 C2350 0.961 . S
H2365 C2351 0.958 . S
H2366 C2351 0.961 . S
H2367 C2351 0.960 . S
C2368 C2369 1.391 . S
C2368 C2370 1.394 . S
C2368 H2384 0.931 . S
C2369 C2368 1.391 . S
C2369 C2373 1.376 . S
C2370 C2368 1.394 . S
C2370 C2371 1.369 . S
C2370 C2374 1.531 . S
C2371 C2370 1.369 . S
C2371 C2372 1.410 . S
C2371 C2379 1.503 . S
C2372 C2371 1.410 . S
C2372 C2373 1.392 . S
C2372 C2375 1.511 . S
C2373 C2369 1.376 . S
C2373 C2372 1.392 . S
C2373 H2385 0.929 . S
C2374 C2370 1.531 . S
C2374 H2386 0.960 . S
C2374 H2387 0.962 . S
C2374 H2388 0.960 . S
C2375 C2372 1.511 . S
C2375 H2389 0.961 . S
C2375 H2390 0.961 . S
C2375 H2391 0.961 . S
C2376 C2377 1.370 . S
C2376 C2378 1.363 . S
C2376 H2392 0.931 . S
C2377 C2376 1.370 . S
C2377 C2381 1.408 . S
C2378 C2376 1.363 . S
C2378 C2379 1.370 . S
C2378 C2382 1.524 . S
C2379 C2371 1.503 . S
C2379 C2378 1.370 . S
C2379 C2380 1.403 . S
C2380 C2379 1.403 . S
C2380 C2381 1.404 . S
C2380 C2383 1.539 . S
C2381 C2377 1.408 . S
C2381 C2380 1.404 . S
C2381 H2393 0.930 . S
C2382 C2378 1.524 . S
C2382 H2394 0.956 . S
C2382 H2395 0.961 . S
C2382 H2396 0.961 . S
C2383 C2380 1.539 . S
C2383 H2397 0.958 . S
C2383 H2398 0.961 . S
C2383 H2399 0.960 . S
H2384 C2368 0.931 . S
H2385 C2373 0.929 . S
H2386 C2374 0.960 . S
H2387 C2374 0.962 . S
H2388 C2374 0.960 . S
H2389 C2375 0.961 . S
H2390 C2375 0.961 . S
H2391 C2375 0.961 . S
H2392 C2376 0.931 . S
H2393 C2381 0.930 . S
H2394 C2382 0.956 . S
H2395 C2382 0.961 . S
H2396 C2382 0.961 . S
H2397 C2383 0.958 . S
H2398 C2383 0.961 . S
H2399 C2383 0.960 . S
C2400 C2401 1.391 . S
C2400 C2402 1.394 . S
C2400 H2416 0.931 . S
C2401 C2400 1.391 . S
C2401 C2405 1.376 . S
C2402 C2400 1.394 . S
C2402 C2403 1.369 . S
C2402 C2406 1.531 . S
C2403 C2402 1.369 . S
C2403 C2404 1.410 . S
C2403 C2411 1.503 . S
C2404 C2403 1.410 . S
C2404 C2405 1.392 . S
C2404 C2407 1.511 . S
C2405 C2401 1.376 . S
C2405 C2404 1.392 . S
C2405 H2417 0.929 . S
C2406 C2402 1.531 . S
C2406 H2418 0.960 . S
C2406 H2419 0.962 . S
C2406 H2420 0.960 . S
C2407 C2404 1.511 . S
C2407 H2421 0.961 . S
C2407 H2422 0.961 . S
C2407 H2423 0.961 . S
C2408 C2409 1.370 . S
C2408 C2410 1.363 . S
C2408 H2424 0.931 . S
C2409 C2408 1.370 . S
C2409 C2413 1.408 . S
C2410 C2408 1.363 . S
C2410 C2411 1.370 . S
C2410 C2414 1.524 . S
C2411 C2403 1.503 . S
C2411 C2410 1.370 . S
C2411 C2412 1.403 . S
C2412 C2411 1.403 . S
C2412 C2413 1.404 . S
C2412 C2415 1.539 . S
C2413 C2409 1.408 . S
C2413 C2412 1.404 . S
C2413 H2425 0.930 . S
C2414 C2410 1.524 . S
C2414 H2426 0.956 . S
C2414 H2427 0.961 . S
C2414 H2428 0.961 . S
C2415 C2412 1.539 . S
C2415 H2429 0.958 . S
C2415 H2430 0.961 . S
C2415 H2431 0.960 . S
H2416 C2400 0.931 . S
H2417 C2405 0.929 . S
H2418 C2406 0.960 . S
H2419 C2406 0.962 . S
H2420 C2406 0.960 . S
H2421 C2407 0.961 . S
H2422 C2407 0.961 . S
H2423 C2407 0.961 . S
H2424 C2408 0.931 . S
H2425 C2413 0.930 . S
H2426 C2414 0.956 . S
H2427 C2414 0.961 . S
H2428 C2414 0.961 . S
H2429 C2415 0.958 . S
H2430 C2415 0.961 . S
H2431 C2415 0.960 . S
C2432 C2433 1.391 . S
C2432 C2434 1.394 . S
C2432 H2448 0.931 . S
C2433 C2432 1.391 . S
C2433 C2437 1.376 . S
C2434 C2432 1.394 . S
C2434 C2435 1.369 . S
C2434 C2438 1.531 . S
C2435 C2434 1.369 . S
C2435 C2436 1.410 . S
C2435 C2443 1.503 . S
C2436 C2435 1.410 . S
C2436 C2437 1.392 . S
C2436 C2439 1.511 . S
C2437 C2433 1.376 . S
C2437 C2436 1.392 . S
C2437 H2449 0.929 . S
C2438 C2434 1.531 . S
C2438 H2450 0.960 . S
C2438 H2451 0.962 . S
C2438 H2452 0.960 . S
C2439 C2436 1.511 . S
C2439 H2453 0.961 . S
C2439 H2454 0.961 . S
C2439 H2455 0.961 . S
C2440 C2441 1.370 . S
C2440 C2442 1.363 . S
C2440 H2456 0.931 . S
C2441 C2440 1.370 . S
C2441 C2445 1.408 . S
C2442 C2440 1.363 . S
C2442 C2443 1.370 . S
C2442 C2446 1.524 . S
C2443 C2435 1.503 . S
C2443 C2442 1.370 . S
C2443 C2444 1.403 . S
C2444 C2443 1.403 . S
C2444 C2445 1.404 . S
C2444 C2447 1.539 . S
C2445 C2441 1.408 . S
C2445 C2444 1.404 . S
C2445 H2457 0.930 . S
C2446 C2442 1.524 . S
C2446 H2458 0.956 . S
C2446 H2459 0.961 . S
C2446 H2460 0.961 . S
C2447 C2444 1.539 . S
C2447 H2461 0.958 . S
C2447 H2462 0.961 . S
C2447 H2463 0.960 . S
H2448 C2432 0.931 . S
H2449 C2437 0.929 . S
H2450 C2438 0.960 . S
H2451 C2438 0.962 . S
H2452 C2438 0.960 . S
H2453 C2439 0.961 . S
H2454 C2439 0.961 . S
H2455 C2439 0.961 . S
H2456 C2440 0.931 . S
H2457 C2445 0.930 . S
H2458 C2446 0.956 . S
H2459 C2446 0.961 . S
H2460 C2446 0.961 . S
H2461 C2447 0.958 . S
H2462 C2447 0.961 . S
H2463 C2447 0.960 . S
C2464 C2465 1.391 . S
C2464 C2466 1.394 . S
C2464 H2480 0.931 . S
C2465 C2464 1.391 . S
C2465 C2469 1.376 . S
C2466 C2464 1.394 . S
C2466 C2467 1.369 . S
C2466 C2470 1.531 . S
C2467 C2466 1.369 . S
C2467 C2468 1.410 . S
C2467 C2475 1.503 . S
C2468 C2467 1.410 . S
C2468 C2469 1.392 . S
C2468 C2471 1.511 . S
C2469 C2465 1.376 . S
C2469 C2468 1.392 . S
C2469 H2481 0.929 . S
C2470 C2466 1.531 . S
C2470 H2482 0.960 . S
C2470 H2483 0.962 . S
C2470 H2484 0.960 . S
C2471 C2468 1.511 . S
C2471 H2485 0.961 . S
C2471 H2486 0.961 . S
C2471 H2487 0.961 . S
C2472 C2473 1.370 . S
C2472 C2474 1.363 . S
C2472 H2488 0.931 . S
C2473 C2472 1.370 . S
C2473 C2477 1.408 . S
C2474 C2472 1.363 . S
C2474 C2475 1.370 . S
C2474 C2478 1.524 . S
C2475 C2467 1.503 . S
C2475 C2474 1.370 . S
C2475 C2476 1.403 . S
C2476 C2475 1.403 . S
C2476 C2477 1.404 . S
C2476 C2479 1.539 . S
C2477 C2473 1.408 . S
C2477 C2476 1.404 . S
C2477 H2489 0.930 . S
C2478 C2474 1.524 . S
C2478 H2490 0.956 . S
C2478 H2491 0.961 . S
C2478 H2492 0.961 . S
C2479 C2476 1.539 . S
C2479 H2493 0.958 . S
C2479 H2494 0.961 . S
C2479 H2495 0.960 . S
H2480 C2464 0.931 . S
H2481 C2469 0.929 . S
H2482 C2470 0.960 . S
H2483 C2470 0.962 . S
H2484 C2470 0.960 . S
H2485 C2471 0.961 . S
H2486 C2471 0.961 . S
H2487 C2471 0.961 . S
H2488 C2472 0.931 . S
H2489 C2477 0.930 . S
H2490 C2478 0.956 . S
H2491 C2478 0.961 . S
H2492 C2478 0.961 . S
H2493 C2479 0.958 . S
H2494 C2479 0.961 . S
H2495 C2479 0.960 . S
C2496 C2497 1.391 . S
C2496 C2498 1.394 . S
C2496 H2512 0.931 . S
C2497 C2496 1.391 . S
C2497 C2501 1.376 . S
C2498 C2496 1.394 . S
C2498 C2499 1.369 . S
C2498 C2502 1.531 . S
C2499 C2498 1.369 . S
C2499 C2500 1.410 . S
C2499 C2507 1.503 . S
C2500 C2499 1.410 . S
C2500 C2501 1.392 . S
C2500 C2503 1.511 . S
C2501 C2497 1.376 . S
C2501 C2500 1.392 . S
C2501 H2513 0.929 . S
C2502 C2498 1.531 . S
C2502 H2514 0.960 . S
C2502 H2515 0.962 . S
C2502 H2516 0.960 . S
C2503 C2500 1.511 . S
C2503 H2517 0.961 . S
C2503 H2518 0.961 . S
C2503 H2519 0.961 . S
C2504 C2505 1.370 . S
C2504 C2506 1.363 . S
C2504 H2520 0.931 . S
C2505 C2504 1.370 . S
C2505 C2509 1.408 . S
C2506 C2504 1.363 . S
C2506 C2507 1.370 . S
C2506 C2510 1.524 . S
C2507 C2499 1.503 . S
C2507 C2506 1.370 . S
C2507 C2508 1.403 . S
C2508 C2507 1.403 . S
C2508 C2509 1.404 . S
C2508 C2511 1.539 . S
C2509 C2505 1.408 . S
C2509 C2508 1.404 . S
C2509 H2521 0.930 . S
C2510 C2506 1.524 . S
C2510 H2522 0.956 . S
C2510 H2523 0.961 . S
C2510 H2524 0.961 . S
C2511 C2508 1.539 . S
C2511 H2525 0.958 . S
C2511 H2526 0.961 . S
C2511 H2527 0.960 . S
H2512 C2496 0.931 . S
H2513 C2501 0.929 . S
H2514 C2502 0.960 . S
H2515 C2502 0.962 . S
H2516 C2502 0.960 . S
H2517 C2503 0.961 . S
H2518 C2503 0.961 . S
H2519 C2503 0.961 . S
H2520 C2504 0.931 . S
H2521 C2509 0.930 . S
H2522 C2510 0.956 . S
H2523 C2510 0.961 . S
H2524 C2510 0.961 . S
H2525 C2511 0.958 . S
H2526 C2511 0.961 . S
H2527 C2511 0.960 . S
C2528 C2529 1.391 . S
C2528 C2530 1.394 . S
C2528 H2544 0.931 . S
C2529 C2528 1.391 . S
C2529 C2533 1.376 . S
C2530 C2528 1.394 . S
C2530 C2531 1.369 . S
C2530 C2534 1.531 . S
C2531 C2530 1.369 . S
C2531 C2532 1.410 . S
C2531 C2539 1.503 . S
C2532 C2531 1.410 . S
C2532 C2533 1.392 . S
C2532 C2535 1.511 . S
C2533 C2529 1.376 . S
C2533 C2532 1.392 . S
C2533 H2545 0.929 . S
C2534 C2530 1.531 . S
C2534 H2546 0.960 . S
C2534 H2547 0.962 . S
C2534 H2548 0.960 . S
C2535 C2532 1.511 . S
C2535 H2549 0.961 . S
C2535 H2550 0.961 . S
C2535 H2551 0.961 . S
C2536 C2537 1.370 1_655 S
C2536 C2538 1.363 . S
C2536 H2552 0.931 . S
C2537 C2536 1.370 1_455 S
C2537 C2541 1.408 . S
C2538 C2536 1.363 . S
C2538 C2539 1.370 . S
C2538 C2542 1.524 . S
C2539 C2531 1.503 . S
C2539 C2538 1.370 . S
C2539 C2540 1.403 . S
C2540 C2539 1.403 . S
C2540 C2541 1.404 1_655 S
C2540 C2543 1.539 . S
C2541 C2537 1.408 . S
C2541 C2540 1.404 1_455 S
C2541 H2553 0.930 . S
C2542 C2538 1.524 . S
C2542 H2554 0.956 . S
C2542 H2555 0.961 . S
C2542 H2556 0.961 . S
C2543 C2540 1.539 . S
C2543 H2557 0.958 . S
C2543 H2558 0.942 1_655 S
C2543 H2559 0.960 . S
H2544 C2528 0.931 . S
H2545 C2533 0.929 . S
H2546 C2534 0.960 . S
H2547 C2534 0.962 . S
H2548 C2534 0.960 . S
H2549 C2535 0.961 . S
H2550 C2535 0.961 . S
H2551 C2535 0.961 . S
H2552 C2536 0.931 . S
H2553 C2541 0.930 . S
H2554 C2542 0.956 . S
H2555 C2542 0.961 . S
H2556 C2542 0.961 . S
H2557 C2543 0.958 . S
H2558 C2543 0.942 1_455 S
H2559 C2543 0.960 . S
C2560 C2561 1.391 . S
C2560 C2562 1.394 . S
C2560 H2576 0.931 . S
C2561 C2560 1.391 . S
C2561 C2565 1.376 . S
C2562 C2560 1.394 . S
C2562 C2563 1.369 . S
C2562 C2566 1.531 . S
C2563 C2562 1.369 . S
C2563 C2564 1.410 . S
C2563 C2571 1.503 . S
C2564 C2563 1.410 . S
C2564 C2565 1.392 . S
C2564 C2567 1.511 . S
C2565 C2561 1.376 . S
C2565 C2564 1.392 . S
C2565 H2577 0.929 . S
C2566 C2562 1.531 . S
C2566 H2578 0.960 . S
C2566 H2579 0.962 . S
C2566 H2580 0.960 . S
C2567 C2564 1.511 . S
C2567 H2581 0.961 . S
C2567 H2582 0.961 . S
C2567 H2583 0.961 . S
C2568 C2569 1.370 . S
C2568 C2570 1.363 . S
C2568 H2584 0.931 . S
C2569 C2568 1.370 . S
C2569 C2573 1.408 . S
C2570 C2568 1.363 . S
C2570 C2571 1.370 . S
C2570 C2574 1.524 . S
C2571 C2563 1.503 . S
C2571 C2570 1.370 . S
C2571 C2572 1.403 . S
C2572 C2571 1.403 . S
C2572 C2573 1.404 . S
C2572 C2575 1.539 . S
C2573 C2569 1.408 . S
C2573 C2572 1.404 . S
C2573 H2585 0.930 . S
C2574 C2570 1.524 . S
C2574 H2586 0.956 . S
C2574 H2587 0.961 . S
C2574 H2588 0.961 . S
C2575 C2572 1.539 . S
C2575 H2589 0.958 . S
C2575 H2590 0.961 . S
C2575 H2591 0.960 . S
H2576 C2560 0.931 . S
H2577 C2565 0.929 . S
H2578 C2566 0.960 . S
H2579 C2566 0.962 . S
H2580 C2566 0.960 . S
H2581 C2567 0.961 . S
H2582 C2567 0.961 . S
H2583 C2567 0.961 . S
H2584 C2568 0.931 . S
H2585 C2573 0.930 . S
H2586 C2574 0.956 . S
H2587 C2574 0.961 . S
H2588 C2574 0.961 . S
H2589 C2575 0.958 . S
H2590 C2575 0.961 . S
H2591 C2575 0.960 . S
C2592 C2593 1.391 . S
C2592 C2594 1.394 . S
C2592 H2608 0.931 . S
C2593 C2592 1.391 . S
C2593 C2597 1.376 . S
C2594 C2592 1.394 . S
C2594 C2595 1.369 . S
C2594 C2598 1.531 . S
C2595 C2594 1.369 . S
C2595 C2596 1.410 . S
C2595 C2603 1.503 . S
C2596 C2595 1.410 . S
C2596 C2597 1.392 . S
C2596 C2599 1.511 . S
C2597 C2593 1.376 . S
C2597 C2596 1.392 . S
C2597 H2609 0.929 . S
C2598 C2594 1.531 . S
C2598 H2610 0.960 . S
C2598 H2611 0.962 . S
C2598 H2612 0.960 . S
C2599 C2596 1.511 . S
C2599 H2613 0.961 . S
C2599 H2614 0.961 . S
C2599 H2615 0.961 . S
C2600 C2601 1.370 1_655 S
C2600 C2602 1.363 . S
C2600 H2616 0.931 . S
C2601 C2600 1.370 1_455 S
C2601 C2605 1.408 1_455 S
C2602 C2600 1.363 . S
C2602 C2603 1.370 . S
C2602 C2606 1.524 . S
C2603 C2595 1.503 . S
C2603 C2602 1.370 . S
C2603 C2604 1.403 . S
C2604 C2603 1.403 . S
C2604 C2605 1.404 . S
C2604 C2607 1.539 . S
C2605 C2601 1.408 1_655 S
C2605 C2604 1.404 . S
C2605 H2617 0.930 1_655 S
C2606 C2602 1.524 . S
C2606 H2618 0.956 . S
C2606 H2619 0.961 . S
C2606 H2620 0.961 . S
C2607 C2604 1.539 . S
C2607 H2621 0.958 . S
C2607 H2622 0.961 . S
C2607 H2623 0.960 . S
H2608 C2592 0.931 . S
H2609 C2597 0.929 . S
H2610 C2598 0.960 . S
H2611 C2598 0.962 . S
H2612 C2598 0.960 . S
H2613 C2599 0.961 . S
H2614 C2599 0.961 . S
H2615 C2599 0.961 . S
H2616 C2600 0.931 . S
H2617 C2605 0.930 1_455 S
H2618 C2606 0.956 . S
H2619 C2606 0.961 . S
H2620 C2606 0.961 . S
H2621 C2607 0.958 . S
H2622 C2607 0.961 . S
H2623 C2607 0.960 . S
C2624 C2625 1.391 . S
C2624 C2626 1.394 . S
C2624 H2640 0.931 . S
C2625 C2624 1.391 . S
C2625 C2629 1.376 . S
C2626 C2624 1.394 . S
C2626 C2627 1.369 . S
C2626 C2630 1.531 . S
C2627 C2626 1.369 . S
C2627 C2628 1.410 . S
C2627 C2635 1.503 . S
C2628 C2627 1.410 . S
C2628 C2629 1.392 . S
C2628 C2631 1.511 . S
C2629 C2625 1.376 . S
C2629 C2628 1.392 . S
C2629 H2641 0.929 . S
C2630 C2626 1.531 . S
C2630 H2642 0.960 . S
C2630 H2643 0.962 . S
C2630 H2644 0.960 . S
C2631 C2628 1.511 . S
C2631 H2645 0.961 . S
C2631 H2646 0.961 . S
C2631 H2647 0.961 . S
C2632 C2633 1.370 . S
C2632 C2634 1.363 . S
C2632 H2648 0.931 . S
C2633 C2632 1.370 . S
C2633 C2637 1.408 . S
C2634 C2632 1.363 . S
C2634 C2635 1.370 . S
C2634 C2638 1.524 . S
C2635 C2627 1.503 . S
C2635 C2634 1.370 . S
C2635 C2636 1.403 . S
C2636 C2635 1.403 . S
C2636 C2637 1.404 . S
C2636 C2639 1.539 . S
C2637 C2633 1.408 . S
C2637 C2636 1.404 . S
C2637 H2649 0.930 . S
C2638 C2634 1.524 . S
C2638 H2650 0.956 . S
C2638 H2651 0.961 . S
C2638 H2652 0.961 . S
C2639 C2636 1.539 . S
C2639 H2653 0.958 . S
C2639 H2654 0.961 . S
C2639 H2655 0.960 . S
H2640 C2624 0.931 . S
H2641 C2629 0.929 . S
H2642 C2630 0.960 . S
H2643 C2630 0.962 . S
H2644 C2630 0.960 . S
H2645 C2631 0.961 . S
H2646 C2631 0.961 . S
H2647 C2631 0.961 . S
H2648 C2632 0.931 . S
H2649 C2637 0.930 . S
H2650 C2638 0.956 . S
H2651 C2638 0.961 . S
H2652 C2638 0.961 . S
H2653 C2639 0.958 . S
H2654 C2639 0.961 . S
H2655 C2639 0.960 . S
C2656 C2657 1.391 . S
C2656 C2658 1.394 . S
C2656 H2672 0.931 . S
C2657 C2656 1.391 . S
C2657 C2661 1.376 . S
C2658 C2656 1.394 . S
C2658 C2659 1.369 . S
C2658 C2662 1.531 . S
C2659 C2658 1.369 . S
C2659 C2660 1.410 . S
C2659 C2667 1.503 . S
C2660 C2659 1.410 . S
C2660 C2661 1.392 . S
C2660 C2663 1.511 . S
C2661 C2657 1.376 . S
C2661 C2660 1.392 . S
C2661 H2673 0.929 . S
C2662 C2658 1.531 . S
C2662 H2674 0.960 . S
C2662 H2675 0.962 . S
C2662 H2676 0.960 . S
C2663 C2660 1.511 . S
C2663 H2677 0.961 . S
C2663 H2678 0.961 . S
C2663 H2679 0.961 . S
C2664 C2665 1.370 . S
C2664 C2666 1.363 . S
C2664 H2680 0.931 . S
C2665 C2664 1.370 . S
C2665 C2669 1.408 . S
C2666 C2664 1.363 . S
C2666 C2667 1.370 . S
C2666 C2670 1.524 . S
C2667 C2659 1.503 . S
C2667 C2666 1.370 . S
C2667 C2668 1.403 . S
C2668 C2667 1.403 . S
C2668 C2669 1.404 . S
C2668 C2671 1.539 . S
C2669 C2665 1.408 . S
C2669 C2668 1.404 . S
C2669 H2681 0.930 . S
C2670 C2666 1.524 . S
C2670 H2682 0.956 . S
C2670 H2683 0.961 . S
C2670 H2684 0.961 . S
C2671 C2668 1.539 . S
C2671 H2685 0.958 . S
C2671 H2686 0.961 . S
C2671 H2687 0.960 . S
H2672 C2656 0.931 . S
H2673 C2661 0.929 . S
H2674 C2662 0.960 . S
H2675 C2662 0.962 . S
H2676 C2662 0.960 . S
H2677 C2663 0.961 . S
H2678 C2663 0.961 . S
H2679 C2663 0.961 . S
H2680 C2664 0.931 . S
H2681 C2669 0.930 . S
H2682 C2670 0.956 . S
H2683 C2670 0.961 . S
H2684 C2670 0.961 . S
H2685 C2671 0.958 . S
H2686 C2671 0.961 . S
H2687 C2671 0.960 . S
C2688 C2689 1.391 . S
C2688 C2690 1.394 . S
C2688 H2704 0.931 . S
C2689 C2688 1.391 . S
C2689 C2693 1.376 . S
C2690 C2688 1.394 . S
C2690 C2691 1.369 . S
C2690 C2694 1.531 . S
C2691 C2690 1.369 . S
C2691 C2692 1.410 . S
C2691 C2699 1.503 1_455 S
C2692 C2691 1.410 . S
C2692 C2693 1.392 . S
C2692 C2695 1.511 . S
C2693 C2689 1.376 . S
C2693 C2692 1.392 . S
C2693 H2705 0.929 . S
C2694 C2690 1.531 . S
C2694 H2706 0.960 . S
C2694 H2707 0.962 . S
C2694 H2708 0.960 . S
C2695 C2692 1.511 . S
C2695 H2709 0.961 . S
C2695 H2710 0.961 1_455 S
C2695 H2711 0.961 . S
C2696 C2697 1.370 . S
C2696 C2698 1.363 . S
C2696 H2712 0.931 . S
C2697 C2696 1.370 . S
C2697 C2701 1.408 . S
C2698 C2696 1.363 . S
C2698 C2699 1.370 . S
C2698 C2702 1.524 . S
C2699 C2691 1.503 1_655 S
C2699 C2698 1.370 . S
C2699 C2700 1.403 . S
C2700 C2699 1.403 . S
C2700 C2701 1.404 . S
C2700 C2703 1.536 . S
C2701 C2697 1.408 . S
C2701 C2700 1.404 . S
C2701 H2713 0.930 . S
C2702 C2698 1.524 . S
C2702 H2714 0.956 . S
C2702 H2715 0.961 . S
C2702 H2716 0.961 . S
C2703 C2700 1.536 . S
C2703 H2717 0.959 1_655 S
C2703 H2718 0.959 . S
C2703 H2719 0.964 1_655 S
H2704 C2688 0.931 . S
H2705 C2693 0.929 . S
H2706 C2694 0.960 . S
H2707 C2694 0.962 . S
H2708 C2694 0.960 . S
H2709 C2695 0.961 . S
H2710 C2695 0.961 1_655 S
H2711 C2695 0.961 . S
H2712 C2696 0.931 . S
H2713 C2701 0.930 . S
H2714 C2702 0.956 . S
H2715 C2702 0.961 . S
H2716 C2702 0.961 . S
H2717 C2703 0.959 1_455 S
H2718 C2703 0.959 . S
H2719 C2703 0.964 1_455 S
C2720 C2721 1.391 . S
C2720 C2722 1.394 . S
C2720 H2736 0.931 . S
C2721 C2720 1.391 . S
C2721 C2725 1.376 . S
C2722 C2720 1.394 . S
C2722 C2723 1.369 1_455 S
C2722 C2726 1.531 . S
C2723 C2722 1.369 1_655 S
C2723 C2724 1.407 1_655 S
C2723 C2731 1.503 . S
C2724 C2723 1.407 1_455 S
C2724 C2725 1.404 . S
C2724 C2727 1.503 1_455 S
C2725 C2721 1.376 . S
C2725 C2724 1.404 . S
C2725 H2737 0.929 . S
C2726 C2722 1.531 . S
C2726 H2738 0.960 1_455 S
C2726 H2739 0.962 . S
C2726 H2740 0.960 1_455 S
C2727 C2724 1.503 1_655 S
C2727 H2741 0.961 1_655 S
C2727 H2742 0.961 . S
C2727 H2743 0.961 . S
C2728 C2729 1.370 1_455 S
C2728 C2730 1.363 . S
C2728 H2744 0.931 . S
C2729 C2728 1.370 1_655 S
C2729 C2733 1.408 . S
C2730 C2728 1.363 . S
C2730 C2731 1.370 1_455 S
C2730 C2734 1.524 . S
C2731 C2723 1.503 . S
C2731 C2730 1.370 1_655 S
C2731 C2732 1.403 . S
C2732 C2731 1.403 . S
C2732 C2733 1.404 . S
C2732 C2735 1.539 . S
C2733 C2729 1.408 . S
C2733 C2732 1.404 . S
C2733 H2745 0.930 . S
C2734 C2730 1.524 . S
C2734 H2746 0.956 . S
C2734 H2747 0.961 . S
C2734 H2748 0.961 . S
C2735 C2732 1.539 . S
C2735 H2749 0.958 . S
C2735 H2750 0.961 . S
C2735 H2751 0.960 . S
H2736 C2720 0.931 . S
H2737 C2725 0.929 . S
H2738 C2726 0.960 1_655 S
H2739 C2726 0.962 . S
H2740 C2726 0.960 1_655 S
H2741 C2727 0.961 1_455 S
H2742 C2727 0.961 . S
H2743 C2727 0.961 . S
H2744 C2728 0.931 . S
H2745 C2733 0.930 . S
H2746 C2734 0.956 . S
H2747 C2734 0.961 . S
H2748 C2734 0.961 . S
H2749 C2735 0.958 . S
H2750 C2735 0.961 . S
H2751 C2735 0.960 . S
C2752 C2753 1.391 . S
C2752 C2754 1.394 . S
C2752 H2768 0.931 . S
C2753 C2752 1.391 . S
C2753 C2757 1.376 . S
C2754 C2752 1.394 . S
C2754 C2755 1.369 . S
C2754 C2758 1.531 . S
C2755 C2754 1.369 . S
C2755 C2756 1.410 . S
C2755 C2763 1.503 . S
C2756 C2755 1.410 . S
C2756 C2757 1.392 . S
C2756 C2759 1.511 . S
C2757 C2753 1.376 . S
C2757 C2756 1.392 . S
C2757 H2769 0.929 . S
C2758 C2754 1.531 . S
C2758 H2770 0.960 . S
C2758 H2771 0.962 . S
C2758 H2772 0.960 . S
C2759 C2756 1.511 . S
C2759 H2773 0.961 . S
C2759 H2774 0.961 . S
C2759 H2775 0.961 . S
C2760 C2761 1.370 . S
C2760 C2762 1.363 . S
C2760 H2776 0.931 . S
C2761 C2760 1.370 . S
C2761 C2765 1.408 . S
C2762 C2760 1.363 . S
C2762 C2763 1.370 . S
C2762 C2766 1.524 . S
C2763 C2755 1.503 . S
C2763 C2762 1.370 . S
C2763 C2764 1.403 . S
C2764 C2763 1.403 . S
C2764 C2765 1.404 . S
C2764 C2767 1.539 . S
C2765 C2761 1.408 . S
C2765 C2764 1.404 . S
C2765 H2777 0.930 . S
C2766 C2762 1.524 . S
C2766 H2778 0.956 . S
C2766 H2779 0.961 . S
C2766 H2780 0.961 . S
C2767 C2764 1.539 . S
C2767 H2781 0.958 . S
C2767 H2782 0.961 . S
C2767 H2783 0.960 . S
H2768 C2752 0.931 . S
H2769 C2757 0.929 . S
H2770 C2758 0.960 . S
H2771 C2758 0.962 . S
H2772 C2758 0.960 . S
H2773 C2759 0.961 . S
H2774 C2759 0.961 . S
H2775 C2759 0.961 . S
H2776 C2760 0.931 . S
H2777 C2765 0.930 . S
H2778 C2766 0.956 . S
H2779 C2766 0.961 . S
H2780 C2766 0.961 . S
H2781 C2767 0.958 . S
H2782 C2767 0.961 . S
H2783 C2767 0.960 . S
C2784 C2785 1.391 . S
C2784 C2786 1.394 . S
C2784 H2800 0.931 . S
C2785 C2784 1.391 . S
C2785 C2789 1.376 . S
C2786 C2784 1.394 . S
C2786 C2787 1.369 . S
C2786 C2790 1.531 . S
C2787 C2786 1.369 . S
C2787 C2788 1.410 . S
C2787 C2795 1.503 . S
C2788 C2787 1.410 . S
C2788 C2789 1.392 . S
C2788 C2791 1.511 . S
C2789 C2785 1.376 . S
C2789 C2788 1.392 . S
C2789 H2801 0.929 . S
C2790 C2786 1.531 . S
C2790 H2802 0.960 . S
C2790 H2803 0.962 . S
C2790 H2804 0.960 . S
C2791 C2788 1.511 . S
C2791 H2805 0.961 . S
C2791 H2806 0.961 . S
C2791 H2807 0.961 . S
C2792 C2793 1.370 . S
C2792 C2794 1.363 . S
C2792 H2808 0.931 . S
C2793 C2792 1.370 . S
C2793 C2797 1.408 . S
C2794 C2792 1.363 . S
C2794 C2795 1.370 . S
C2794 C2798 1.524 . S
C2795 C2787 1.503 . S
C2795 C2794 1.370 . S
C2795 C2796 1.403 . S
C2796 C2795 1.403 . S
C2796 C2797 1.404 . S
C2796 C2799 1.539 . S
C2797 C2793 1.408 . S
C2797 C2796 1.404 . S
C2797 H2809 0.930 . S
C2798 C2794 1.524 . S
C2798 H2810 0.956 . S
C2798 H2811 0.961 . S
C2798 H2812 0.961 . S
C2799 C2796 1.539 . S
C2799 H2813 0.958 . S
C2799 H2814 0.961 . S
C2799 H2815 0.960 . S
H2800 C2784 0.931 . S
H2801 C2789 0.929 . S
H2802 C2790 0.960 . S
H2803 C2790 0.962 . S
H2804 C2790 0.960 . S
H2805 C2791 0.961 . S
H2806 C2791 0.961 . S
H2807 C2791 0.961 . S
H2808 C2792 0.931 . S
H2809 C2797 0.930 . S
H2810 C2798 0.956 . S
H2811 C2798 0.961 . S
H2812 C2798 0.961 . S
H2813 C2799 0.958 . S
H2814 C2799 0.961 . S
H2815 C2799 0.960 . S
C2816 C2817 1.391 . S
C2816 C2818 1.394 . S
C2816 H2832 0.931 . S
C2817 C2816 1.391 . S
C2817 C2821 1.376 . S
C2818 C2816 1.394 . S
C2818 C2819 1.369 . S
C2818 C2822 1.531 . S
C2819 C2818 1.369 . S
C2819 C2820 1.410 . S
C2819 C2827 1.503 1_655 S
C2820 C2819 1.410 . S
C2820 C2821 1.392 . S
C2820 C2823 1.511 . S
C2821 C2817 1.376 . S
C2821 C2820 1.392 . S
C2821 H2833 0.929 . S
C2822 C2818 1.531 . S
C2822 H2834 0.960 1_655 S
C2822 H2835 0.945 1_655 S
C2822 H2836 0.960 . S
C2823 C2820 1.511 . S
C2823 H2837 0.961 . S
C2823 H2838 0.961 . S
C2823 H2839 0.961 . S
C2824 C2825 1.370 . S
C2824 C2826 1.363 . S
C2824 H2840 0.931 . S
C2825 C2824 1.370 . S
C2825 C2829 1.408 . S
C2826 C2824 1.363 . S
C2826 C2827 1.370 . S
C2826 C2830 1.524 . S
C2827 C2819 1.503 1_455 S
C2827 C2826 1.370 . S
C2827 C2828 1.403 . S
C2828 C2827 1.403 . S
C2828 C2829 1.404 . S
C2828 C2831 1.539 . S
C2829 C2825 1.408 . S
C2829 C2828 1.404 . S
C2829 H2841 0.930 . S
C2830 C2826 1.524 . S
C2830 H2842 0.956 . S
C2830 H2843 0.961 . S
C2830 H2844 0.961 . S
C2831 C2828 1.539 . S
C2831 H2845 0.956 1_455 S
C2831 H2846 0.961 . S
C2831 H2847 0.960 1_455 S
H2832 C2816 0.931 . S
H2833 C2821 0.929 . S
H2834 C2822 0.960 1_455 S
H2835 C2822 0.945 1_455 S
H2836 C2822 0.960 . S
H2837 C2823 0.961 . S
H2838 C2823 0.961 . S
H2839 C2823 0.961 . S
H2840 C2824 0.931 . S
H2841 C2829 0.930 . S
H2842 C2830 0.956 . S
H2843 C2830 0.961 . S
H2844 C2830 0.961 . S
H2845 C2831 0.956 1_655 S
H2846 C2831 0.961 . S
H2847 C2831 0.960 1_655 S
C2848 C2849 1.391 . S
C2848 C2850 1.394 . S
C2848 H2864 0.931 . S
C2849 C2848 1.391 . S
C2849 C2853 1.376 . S
C2850 C2848 1.394 . S
C2850 C2851 1.369 . S
C2850 C2854 1.531 . S
C2851 C2850 1.369 . S
C2851 C2852 1.410 . S
C2851 C2859 1.503 . S
C2852 C2851 1.410 . S
C2852 C2853 1.392 . S
C2852 C2855 1.511 . S
C2853 C2849 1.376 . S
C2853 C2852 1.392 . S
C2853 H2865 0.929 . S
C2854 C2850 1.531 . S
C2854 H2866 0.960 . S
C2854 H2867 0.962 . S
C2854 H2868 0.960 . S
C2855 C2852 1.511 . S
C2855 H2869 0.961 . S
C2855 H2870 0.961 . S
C2855 H2871 0.961 . S
C2856 C2857 1.370 . S
C2856 C2858 1.363 . S
C2856 H2872 0.931 . S
C2857 C2856 1.370 . S
C2857 C2861 1.408 . S
C2858 C2856 1.363 . S
C2858 C2859 1.370 . S
C2858 C2862 1.524 . S
C2859 C2851 1.503 . S
C2859 C2858 1.370 . S
C2859 C2860 1.403 . S
C2860 C2859 1.403 . S
C2860 C2861 1.404 . S
C2860 C2863 1.539 . S
C2861 C2857 1.408 . S
C2861 C2860 1.404 . S
C2861 H2873 0.930 . S
C2862 C2858 1.524 . S
C2862 H2874 0.956 . S
C2862 H2875 0.961 . S
C2862 H2876 0.961 . S
C2863 C2860 1.539 . S
C2863 H2877 0.958 . S
C2863 H2878 0.961 . S
C2863 H2879 0.960 . S
H2864 C2848 0.931 . S
H2865 C2853 0.929 . S
H2866 C2854 0.960 . S
H2867 C2854 0.962 . S
H2868 C2854 0.960 . S
H2869 C2855 0.961 . S
H2870 C2855 0.961 . S
H2871 C2855 0.961 . S
H2872 C2856 0.931 . S
H2873 C2861 0.930 . S
H2874 C2862 0.956 . S
H2875 C2862 0.961 . S
H2876 C2862 0.961 . S
H2877 C2863 0.958 . S
H2878 C2863 0.961 . S
H2879 C2863 0.960 . S
C2880 C2881 1.391 . S
C2880 C2882 1.394 . S
C2880 H2896 0.931 . S
C2881 C2880 1.391 . S
C2881 C2885 1.376 . S
C2882 C2880 1.394 . S
C2882 C2883 1.369 . S
C2882 C2886 1.531 . S
C2883 C2882 1.369 . S
C2883 C2884 1.410 . S
C2883 C2891 1.503 . S
C2884 C2883 1.410 . S
C2884 C2885 1.392 . S
C2884 C2887 1.511 . S
C2885 C2881 1.376 . S
C2885 C2884 1.392 . S
C2885 H2897 0.929 . S
C2886 C2882 1.531 . S
C2886 H2898 0.960 . S
C2886 H2899 0.962 . S
C2886 H2900 0.960 . S
C2887 C2884 1.511 . S
C2887 H2901 0.961 . S
C2887 H2902 0.961 . S
C2887 H2903 0.961 . S
C2888 C2889 1.370 . S
C2888 C2890 1.363 . S
C2888 H2904 0.931 . S
C2889 C2888 1.370 . S
C2889 C2893 1.408 . S
C2890 C2888 1.363 . S
C2890 C2891 1.370 . S
C2890 C2894 1.524 . S
C2891 C2883 1.503 . S
C2891 C2890 1.370 . S
C2891 C2892 1.403 . S
C2892 C2891 1.403 . S
C2892 C2893 1.404 . S
C2892 C2895 1.539 . S
C2893 C2889 1.408 . S
C2893 C2892 1.404 . S
C2893 H2905 0.930 . S
C2894 C2890 1.524 . S
C2894 H2906 0.956 . S
C2894 H2907 0.961 . S
C2894 H2908 0.961 . S
C2895 C2892 1.539 . S
C2895 H2909 0.958 . S
C2895 H2910 0.961 . S
C2895 H2911 0.960 . S
H2896 C2880 0.931 . S
H2897 C2885 0.929 . S
H2898 C2886 0.960 . S
H2899 C2886 0.962 . S
H2900 C2886 0.960 . S
H2901 C2887 0.961 . S
H2902 C2887 0.961 . S
H2903 C2887 0.961 . S
H2904 C2888 0.931 . S
H2905 C2893 0.930 . S
H2906 C2894 0.956 . S
H2907 C2894 0.961 . S
H2908 C2894 0.961 . S
H2909 C2895 0.958 . S
H2910 C2895 0.961 . S
H2911 C2895 0.960 . S
C2912 C2913 1.391 . S
C2912 C2914 1.394 1_655 S
C2912 H2928 0.931 1_655 S
C2913 C2912 1.391 . S
C2913 C2917 1.376 . S
C2914 C2912 1.394 1_455 S
C2914 C2915 1.369 1_455 S
C2914 C2918 1.531 . S
C2915 C2914 1.369 1_655 S
C2915 C2916 1.410 . S
C2915 C2923 1.503 1_655 S
C2916 C2915 1.410 . S
C2916 C2917 1.392 . S
C2916 C2919 1.511 . S
C2917 C2913 1.376 . S
C2917 C2916 1.392 . S
C2917 H2929 0.929 . S
C2918 C2914 1.531 . S
C2918 H2930 0.960 . S
C2918 H2931 0.962 . S
C2918 H2932 0.960 . S
C2919 C2916 1.511 . S
C2919 H2933 0.961 . S
C2919 H2934 0.961 . S
C2919 H2935 0.961 . S
C2920 C2921 1.370 . S
C2920 C2922 1.363 . S
C2920 H2936 0.931 . S
C2921 C2920 1.370 . S
C2921 C2925 1.392 1_455 S
C2922 C2920 1.363 . S
C2922 C2923 1.370 . S
C2922 C2926 1.524 . S
C2923 C2915 1.503 1_455 S
C2923 C2922 1.370 . S
C2923 C2924 1.403 1_455 S
C2924 C2923 1.403 1_655 S
C2924 C2925 1.411 . S
C2924 C2927 1.539 . S
C2925 C2921 1.392 1_655 S
C2925 C2924 1.411 . S
C2925 H2937 0.939 . S
C2926 C2922 1.524 . S
C2926 H2938 0.956 . S
C2926 H2939 0.961 . S
C2926 H2940 0.961 . S
C2927 C2924 1.539 . S
C2927 H2941 0.958 . S
C2927 H2942 0.961 . S
C2927 H2943 0.960 . S
H2928 C2912 0.931 1_455 S
H2929 C2917 0.929 . S
H2930 C2918 0.960 . S
H2931 C2918 0.962 . S
H2932 C2918 0.960 . S
H2933 C2919 0.961 . S
H2934 C2919 0.961 . S
H2935 C2919 0.961 . S
H2936 C2920 0.931 . S
H2937 C2925 0.939 . S
H2938 C2926 0.956 . S
H2939 C2926 0.961 . S
H2940 C2926 0.961 . S
H2941 C2927 0.958 . S
H2942 C2927 0.961 . S
H2943 C2927 0.960 . S
C2944 C2945 1.391 . S
C2944 C2946 1.394 . S
C2944 H2960 0.931 . S
C2945 C2944 1.391 . S
C2945 C2949 1.376 . S
C2946 C2944 1.394 . S
C2946 C2947 1.369 . S
C2946 C2950 1.531 . S
C2947 C2946 1.369 . S
C2947 C2948 1.410 . S
C2947 C2955 1.503 1_455 S
C2948 C2947 1.410 . S
C2948 C2949 1.392 . S
C2948 C2951 1.511 1_455 S
C2949 C2945 1.376 . S
C2949 C2948 1.392 . S
C2949 H2961 0.929 . S
C2950 C2946 1.531 . S
C2950 H2962 0.960 . S
C2950 H2963 0.962 . S
C2950 H2964 0.960 . S
C2951 C2948 1.511 1_655 S
C2951 H2965 0.961 1_655 S
C2951 H2966 0.961 . S
C2951 H2967 0.961 . S
C2952 C2953 1.370 . S
C2952 C2954 1.363 . S
C2952 H2968 0.931 . S
C2953 C2952 1.370 . S
C2953 C2957 1.408 . S
C2954 C2952 1.363 . S
C2954 C2955 1.370 . S
C2954 C2958 1.524 . S
C2955 C2947 1.503 1_655 S
C2955 C2954 1.370 . S
C2955 C2956 1.403 . S
C2956 C2955 1.403 . S
C2956 C2957 1.404 . S
C2956 C2959 1.539 . S
C2957 C2953 1.408 . S
C2957 C2956 1.404 . S
C2957 H2969 0.930 . S
C2958 C2954 1.524 . S
C2958 H2970 0.956 1_655 S
C2958 H2971 0.953 1_655 S
C2958 H2972 0.961 . S
C2959 C2956 1.539 . S
C2959 H2973 0.958 . S
C2959 H2974 0.961 . S
C2959 H2975 0.960 . S
H2960 C2944 0.931 . S
H2961 C2949 0.929 . S
H2962 C2950 0.960 . S
H2963 C2950 0.962 . S
H2964 C2950 0.960 . S
H2965 C2951 0.961 1_455 S
H2966 C2951 0.961 . S
H2967 C2951 0.961 . S
H2968 C2952 0.931 . S
H2969 C2957 0.930 . S
H2970 C2958 0.956 1_455 S
H2971 C2958 0.953 1_455 S
H2972 C2958 0.961 . S
H2973 C2959 0.958 . S
H2974 C2959 0.961 . S
H2975 C2959 0.960 . S
C2976 C2977 1.391 . S
C2976 C2978 1.394 . S
C2976 H2992 0.931 . S
C2977 C2976 1.391 . S
C2977 C2981 1.376 1_455 S
C2978 C2976 1.394 . S
C2978 C2979 1.369 . S
C2978 C2982 1.531 . S
C2979 C2978 1.369 . S
C2979 C2980 1.410 1_455 S
C2979 C2987 1.503 1_455 S
C2980 C2979 1.410 1_655 S
C2980 C2981 1.392 . S
C2980 C2983 1.511 . S
C2981 C2977 1.376 1_655 S
C2981 C2980 1.392 . S
C2981 H2993 0.929 . S
C2982 C2978 1.531 . S
C2982 H2994 0.960 . S
C2982 H2995 0.962 . S
C2982 H2996 0.960 . S
C2983 C2980 1.511 . S
C2983 H2997 0.961 . S
C2983 H2998 0.961 . S
C2983 H2999 0.961 . S
C2984 C2985 1.370 . S
C2984 C2986 1.363 . S
C2984 H3000 0.931 . S
C2985 C2984 1.370 . S
C2985 C2989 1.408 . S
C2986 C2984 1.363 . S
C2986 C2987 1.370 . S
C2986 C2990 1.524 1_655 S
C2987 C2979 1.503 1_655 S
C2987 C2986 1.370 . S
C2987 C2988 1.403 . S
C2988 C2987 1.403 . S
C2988 C2989 1.404 . S
C2988 C2991 1.539 . S
C2989 C2985 1.408 . S
C2989 C2988 1.404 . S
C2989 H3001 0.930 . S
C2990 C2986 1.524 1_455 S
C2990 H3002 0.956 . S
C2990 H3003 0.961 1_455 S
C2990 H3004 0.961 1_455 S
C2991 C2988 1.539 . S
C2991 H3005 0.958 1_655 S
C2991 H3006 0.961 . S
C2991 H3007 0.960 . S
H2992 C2976 0.931 . S
H2993 C2981 0.929 . S
H2994 C2982 0.960 . S
H2995 C2982 0.962 . S
H2996 C2982 0.960 . S
H2997 C2983 0.961 . S
H2998 C2983 0.961 . S
H2999 C2983 0.961 . S
H3000 C2984 0.931 . S
H3001 C2989 0.930 . S
H3002 C2990 0.956 . S
H3003 C2990 0.961 1_655 S
H3004 C2990 0.961 1_655 S
H3005 C2991 0.958 1_455 S
H3006 C2991 0.961 . S
H3007 C2991 0.960 . S
C3008 C3009 1.391 . S
C3008 C3010 1.394 . S
C3008 H3024 0.931 . S
C3009 C3008 1.391 . S
C3009 C3013 1.376 . S
C3010 C3008 1.394 . S
C3010 C3011 1.369 . S
C3010 C3014 1.531 . S
C3011 C3010 1.369 . S
C3011 C3012 1.410 . S
C3011 C3019 1.503 . S
C3012 C3011 1.410 . S
C3012 C3013 1.392 . S
C3012 C3015 1.511 . S
C3013 C3009 1.376 . S
C3013 C3012 1.392 . S
C3013 H3025 0.929 . S
C3014 C3010 1.531 . S
C3014 H3026 0.960 . S
C3014 H3027 0.962 . S
C3014 H3028 0.960 . S
C3015 C3012 1.511 . S
C3015 H3029 0.961 . S
C3015 H3030 0.961 . S
C3015 H3031 0.961 . S
C3016 C3017 1.370 . S
C3016 C3018 1.363 . S
C3016 H3032 0.931 . S
C3017 C3016 1.370 . S
C3017 C3021 1.408 . S
C3018 C3016 1.363 . S
C3018 C3019 1.370 . S
C3018 C3022 1.524 . S
C3019 C3011 1.503 . S
C3019 C3018 1.370 . S
C3019 C3020 1.403 . S
C3020 C3019 1.403 . S
C3020 C3021 1.404 . S
C3020 C3023 1.539 . S
C3021 C3017 1.408 . S
C3021 C3020 1.404 . S
C3021 H3033 0.930 . S
C3022 C3018 1.524 . S
C3022 H3034 0.956 . S
C3022 H3035 0.961 . S
C3022 H3036 0.961 . S
C3023 C3020 1.539 . S
C3023 H3037 0.958 . S
C3023 H3038 0.961 . S
C3023 H3039 0.960 . S
H3024 C3008 0.931 . S
H3025 C3013 0.929 . S
H3026 C3014 0.960 . S
H3027 C3014 0.962 . S
H3028 C3014 0.960 . S
H3029 C3015 0.961 . S
H3030 C3015 0.961 . S
H3031 C3015 0.961 . S
H3032 C3016 0.931 . S
H3033 C3021 0.930 . S
H3034 C3022 0.956 . S
H3035 C3022 0.961 . S
H3036 C3022 0.961 . S
H3037 C3023 0.958 . S
H3038 C3023 0.961 . S
H3039 C3023 0.960 . S
C3040 C3041 1.391 . S
C3040 C3042 1.394 . S
C3040 H3056 0.931 . S
C3041 C3040 1.391 . S
C3041 C3045 1.376 . S
C3042 C3040 1.394 . S
C3042 C3043 1.369 . S
C3042 C3046 1.531 . S
C3043 C3042 1.369 . S
C3043 C3044 1.410 . S
C3043 C3051 1.503 . S
C3044 C3043 1.410 . S
C3044 C3045 1.392 . S
C3044 C3047 1.511 . S
C3045 C3041 1.376 . S
C3045 C3044 1.392 . S
C3045 H3057 0.929 . S
C3046 C3042 1.531 . S
C3046 H3058 0.960 . S
C3046 H3059 0.962 . S
C3046 H3060 0.960 . S
C3047 C3044 1.511 . S
C3047 H3061 0.961 . S
C3047 H3062 0.961 . S
C3047 H3063 0.961 . S
C3048 C3049 1.370 . S
C3048 C3050 1.363 . S
C3048 H3064 0.931 . S
C3049 C3048 1.370 . S
C3049 C3053 1.408 . S
C3050 C3048 1.363 . S
C3050 C3051 1.370 . S
C3050 C3054 1.524 . S
C3051 C3043 1.503 . S
C3051 C3050 1.370 . S
C3051 C3052 1.403 . S
C3052 C3051 1.403 . S
C3052 C3053 1.404 . S
C3052 C3055 1.539 . S
C3053 C3049 1.408 . S
C3053 C3052 1.404 . S
C3053 H3065 0.930 . S
C3054 C3050 1.524 . S
C3054 H3066 0.956 . S
C3054 H3067 0.961 . S
C3054 H3068 0.961 . S
C3055 C3052 1.539 . S
C3055 H3069 0.958 . S
C3055 H3070 0.961 . S
C3055 H3071 0.960 . S
H3056 C3040 0.931 . S
H3057 C3045 0.929 . S
H3058 C3046 0.960 . S
H3059 C3046 0.962 . S
H3060 C3046 0.960 . S
H3061 C3047 0.961 . S
H3062 C3047 0.961 . S
H3063 C3047 0.961 . S
H3064 C3048 0.931 . S
H3065 C3053 0.930 . S
H3066 C3054 0.956 . S
H3067 C3054 0.961 . S
H3068 C3054 0.961 . S
H3069 C3055 0.958 . S
H3070 C3055 0.961 . S
H3071 C3055 0.960 . S
C3072 C3073 1.391 . S
C3072 C3074 1.394 . S
C3072 H3088 0.931 . S
C3073 C3072 1.391 . S
C3073 C3077 1.376 . S
C3074 C3072 1.394 . S
C3074 C3075 1.369 . S
C3074 C3078 1.531 . S
C3075 C3074 1.369 . S
C3075 C3076 1.410 . S
C3075 C3083 1.503 1_655 S
C3076 C3075 1.410 . S
C3076 C3077 1.392 . S
C3076 C3079 1.511 . S
C3077 C3073 1.376 . S
C3077 C3076 1.392 . S
C3077 H3089 0.929 . S
C3078 C3074 1.531 . S
C3078 H3090 0.960 . S
C3078 H3091 0.962 . S
C3078 H3092 0.960 . S
C3079 C3076 1.511 . S
C3079 H3093 0.961 . S
C3079 H3094 0.961 1_655 S
C3079 H3095 0.961 1_655 S
C3080 C3081 1.370 . S
C3080 C3082 1.363 . S
C3080 H3096 0.931 . S
C3081 C3080 1.370 . S
C3081 C3085 1.408 . S
C3082 C3080 1.363 . S
C3082 C3083 1.370 . S
C3082 C3086 1.527 1_455 S
C3083 C3075 1.503 1_455 S
C3083 C3082 1.370 . S
C3083 C3084 1.403 . S
C3084 C3083 1.403 . S
C3084 C3085 1.404 . S
C3084 C3087 1.539 . S
C3085 C3081 1.408 . S
C3085 C3084 1.404 . S
C3085 H3097 0.930 . S
C3086 C3082 1.527 1_655 S
C3086 H3098 0.953 . S
C3086 H3099 0.959 . S
C3086 H3100 0.962 1_655 S
C3087 C3084 1.539 . S
C3087 H3101 0.958 . S
C3087 H3102 0.961 . S
C3087 H3103 0.960 . S
H3088 C3072 0.931 . S
H3089 C3077 0.929 . S
H3090 C3078 0.960 . S
H3091 C3078 0.962 . S
H3092 C3078 0.960 . S
H3093 C3079 0.961 . S
H3094 C3079 0.961 1_455 S
H3095 C3079 0.961 1_455 S
H3096 C3080 0.931 . S
H3097 C3085 0.930 . S
H3098 C3086 0.953 . S
H3099 C3086 0.959 . S
H3100 C3086 0.962 1_455 S
H3101 C3087 0.958 . S
H3102 C3087 0.961 . S
H3103 C3087 0.960 . S
C3104 C3105 1.391 . S
C3104 C3106 1.394 . S
C3104 H3120 0.931 . S
C3105 C3104 1.391 . S
C3105 C3109 1.376 . S
C3106 C3104 1.394 . S
C3106 C3107 1.369 . S
C3106 C3110 1.531 . S
C3107 C3106 1.369 . S
C3107 C3108 1.410 . S
C3107 C3115 1.503 . S
C3108 C3107 1.410 . S
C3108 C3109 1.392 . S
C3108 C3111 1.511 . S
C3109 C3105 1.376 . S
C3109 C3108 1.392 . S
C3109 H3121 0.929 . S
C3110 C3106 1.531 . S
C3110 H3122 0.960 . S
C3110 H3123 0.962 . S
C3110 H3124 0.960 . S
C3111 C3108 1.511 . S
C3111 H3125 0.961 . S
C3111 H3126 0.961 . S
C3111 H3127 0.961 . S
C3112 C3113 1.370 . S
C3112 C3114 1.363 . S
C3112 H3128 0.931 . S
C3113 C3112 1.370 . S
C3113 C3117 1.408 . S
C3114 C3112 1.363 . S
C3114 C3115 1.370 . S
C3114 C3118 1.524 . S
C3115 C3107 1.503 . S
C3115 C3114 1.370 . S
C3115 C3116 1.403 . S
C3116 C3115 1.403 . S
C3116 C3117 1.404 . S
C3116 C3119 1.539 . S
C3117 C3113 1.408 . S
C3117 C3116 1.404 . S
C3117 H3129 0.930 . S
C3118 C3114 1.524 . S
C3118 H3130 0.956 . S
C3118 H3131 0.961 . S
C3118 H3132 0.961 . S
C3119 C3116 1.539 . S
C3119 H3133 0.958 . S
C3119 H3134 0.961 . S
C3119 H3135 0.960 . S
H3120 C3104 0.931 . S
H3121 C3109 0.929 . S
H3122 C3110 0.960 . S
H3123 C3110 0.962 . S
H3124 C3110 0.960 . S
H3125 C3111 0.961 . S
H3126 C3111 0.961 . S
H3127 C3111 0.961 . S
H3128 C3112 0.931 . S
H3129 C3117 0.930 . S
H3130 C3118 0.956 . S
H3131 C3118 0.961 . S
H3132 C3118 0.961 . S
H3133 C3119 0.958 . S
H3134 C3119 0.961 . S
H3135 C3119 0.960 . S
C3136 C3137 1.391 . S
C3136 C3138 1.394 . S
C3136 H3152 0.931 . S
C3137 C3136 1.391 . S
C3137 C3141 1.376 . S
C3138 C3136 1.394 . S
C3138 C3139 1.369 . S
C3138 C3142 1.531 . S
C3139 C3138 1.369 . S
C3139 C3140 1.410 . S
C3139 C3147 1.503 . S
C3140 C3139 1.410 . S
C3140 C3141 1.392 . S
C3140 C3143 1.511 . S
C3141 C3137 1.376 . S
C3141 C3140 1.392 . S
C3141 H3153 0.929 . S
C3142 C3138 1.531 . S
C3142 H3154 0.960 . S
C3142 H3155 0.962 . S
C3142 H3156 0.960 . S
C3143 C3140 1.511 . S
C3143 H3157 0.961 . S
C3143 H3158 0.961 . S
C3143 H3159 0.961 . S
C3144 C3145 1.370 . S
C3144 C3146 1.363 . S
C3144 H3160 0.931 . S
C3145 C3144 1.370 . S
C3145 C3149 1.408 . S
C3146 C3144 1.363 . S
C3146 C3147 1.370 . S
C3146 C3150 1.524 . S
C3147 C3139 1.503 . S
C3147 C3146 1.370 . S
C3147 C3148 1.403 . S
C3148 C3147 1.403 . S
C3148 C3149 1.404 . S
C3148 C3151 1.539 . S
C3149 C3145 1.408 . S
C3149 C3148 1.404 . S
C3149 H3161 0.930 . S
C3150 C3146 1.524 . S
C3150 H3162 0.956 . S
C3150 H3163 0.961 . S
C3150 H3164 0.961 . S
C3151 C3148 1.539 . S
C3151 H3165 0.958 . S
C3151 H3166 0.961 . S
C3151 H3167 0.960 . S
H3152 C3136 0.931 . S
H3153 C3141 0.929 . S
H3154 C3142 0.960 . S
H3155 C3142 0.962 . S
H3156 C3142 0.960 . S
H3157 C3143 0.961 . S
H3158 C3143 0.961 . S
H3159 C3143 0.961 . S
H3160 C3144 0.931 . S
H3161 C3149 0.930 . S
H3162 C3150 0.956 . S
H3163 C3150 0.961 . S
H3164 C3150 0.961 . S
H3165 C3151 0.958 . S
H3166 C3151 0.961 . S
H3167 C3151 0.960 . S
C3168 C3169 1.391 1_455 S
C3168 C3170 1.394 . S
C3168 H3184 0.931 . S
C3169 C3168 1.391 1_655 S
C3169 C3173 1.376 . S
C3170 C3168 1.394 . S
C3170 C3171 1.369 1_455 S
C3170 C3174 1.531 . S
C3171 C3170 1.369 1_655 S
C3171 C3172 1.410 . S
C3171 C3179 1.503 1_655 S
C3172 C3171 1.410 . S
C3172 C3173 1.392 . S
C3172 C3175 1.511 . S
C3173 C3169 1.376 . S
C3173 C3172 1.392 . S
C3173 H3185 0.929 . S
C3174 C3170 1.531 . S
C3174 H3186 0.960 . S
C3174 H3187 0.962 . S
C3174 H3188 0.960 . S
C3175 C3172 1.511 . S
C3175 H3189 0.961 . S
C3175 H3190 0.961 . S
C3175 H3191 0.961 . S
C3176 C3177 1.370 . S
C3176 C3178 1.363 . S
C3176 H3192 0.931 . S
C3177 C3176 1.370 . S
C3177 C3181 1.408 . S
C3178 C3176 1.363 . S
C3178 C3179 1.370 . S
C3178 C3182 1.524 . S
C3179 C3171 1.503 1_455 S
C3179 C3178 1.370 . S
C3179 C3180 1.403 1_455 S
C3180 C3179 1.403 1_655 S
C3180 C3181 1.404 1_655 S
C3180 C3183 1.539 . S
C3181 C3177 1.408 . S
C3181 C3180 1.404 1_455 S
C3181 H3193 0.930 . S
C3182 C3178 1.524 . S
C3182 H3194 0.956 . S
C3182 H3195 0.961 . S
C3182 H3196 0.961 . S
C3183 C3180 1.539 . S
C3183 H3197 0.958 . S
C3183 H3198 0.961 . S
C3183 H3199 0.960 . S
H3184 C3168 0.931 . S
H3185 C3173 0.929 . S
H3186 C3174 0.960 . S
H3187 C3174 0.962 . S
H3188 C3174 0.960 . S
H3189 C3175 0.961 . S
H3190 C3175 0.961 . S
H3191 C3175 0.961 . S
H3192 C3176 0.931 . S
H3193 C3181 0.930 . S
H3194 C3182 0.956 . S
H3195 C3182 0.961 . S
H3196 C3182 0.961 . S
H3197 C3183 0.958 . S
H3198 C3183 0.961 . S
H3199 C3183 0.960 . S
C3200 C3201 1.391 . S
C3200 C3202 1.394 . S
C3200 H3216 0.931 . S
C3201 C3200 1.391 . S
C3201 C3205 1.376 . S
C3202 C3200 1.394 . S
C3202 C3203 1.369 . S
C3202 C3206 1.531 . S
C3203 C3202 1.369 . S
C3203 C3204 1.410 . S
C3203 C3211 1.503 . S
C3204 C3203 1.410 . S
C3204 C3205 1.392 . S
C3204 C3207 1.511 . S
C3205 C3201 1.376 . S
C3205 C3204 1.392 . S
C3205 H3217 0.929 . S
C3206 C3202 1.531 . S
C3206 H3218 0.960 . S
C3206 H3219 0.962 . S
C3206 H3220 0.960 . S
C3207 C3204 1.511 . S
C3207 H3221 0.961 . S
C3207 H3222 0.961 . S
C3207 H3223 0.961 . S
C3208 C3209 1.370 . S
C3208 C3210 1.363 . S
C3208 H3224 0.931 . S
C3209 C3208 1.370 . S
C3209 C3213 1.408 . S
C3210 C3208 1.363 . S
C3210 C3211 1.370 . S
C3210 C3214 1.524 . S
C3211 C3203 1.503 . S
C3211 C3210 1.370 . S
C3211 C3212 1.403 . S
C3212 C3211 1.403 . S
C3212 C3213 1.404 . S
C3212 C3215 1.539 . S
C3213 C3209 1.408 . S
C3213 C3212 1.404 . S
C3213 H3225 0.930 . S
C3214 C3210 1.524 . S
C3214 H3226 0.956 . S
C3214 H3227 0.961 . S
C3214 H3228 0.961 . S
C3215 C3212 1.539 . S
C3215 H3229 0.958 . S
C3215 H3230 0.961 . S
C3215 H3231 0.960 . S
H3216 C3200 0.931 . S
H3217 C3205 0.929 . S
H3218 C3206 0.960 . S
H3219 C3206 0.962 . S
H3220 C3206 0.960 . S
H3221 C3207 0.961 . S
H3222 C3207 0.961 . S
H3223 C3207 0.961 . S
H3224 C3208 0.931 . S
H3225 C3213 0.930 . S
H3226 C3214 0.956 . S
H3227 C3214 0.961 . S
H3228 C3214 0.961 . S
H3229 C3215 0.958 . S
H3230 C3215 0.961 . S
H3231 C3215 0.960 . S
C3232 C3233 1.391 . S
C3232 C3234 1.394 . S
C3232 H3248 0.931 . S
C3233 C3232 1.391 . S
C3233 C3237 1.376 . S
C3234 C3232 1.394 . S
C3234 C3235 1.369 . S
C3234 C3238 1.531 . S
C3235 C3234 1.369 . S
C3235 C3236 1.410 . S
C3235 C3243 1.503 . S
C3236 C3235 1.410 . S
C3236 C3237 1.392 . S
C3236 C3239 1.511 . S
C3237 C3233 1.376 . S
C3237 C3236 1.392 . S
C3237 H3249 0.929 . S
C3238 C3234 1.531 . S
C3238 H3250 0.960 . S
C3238 H3251 0.962 . S
C3238 H3252 0.960 . S
C3239 C3236 1.511 . S
C3239 H3253 0.961 . S
C3239 H3254 0.961 . S
C3239 H3255 0.961 . S
C3240 C3241 1.370 . S
C3240 C3242 1.363 . S
C3240 H3256 0.931 . S
C3241 C3240 1.370 . S
C3241 C3245 1.408 . S
C3242 C3240 1.363 . S
C3242 C3243 1.370 . S
C3242 C3246 1.524 . S
C3243 C3235 1.503 . S
C3243 C3242 1.370 . S
C3243 C3244 1.403 . S
C3244 C3243 1.403 . S
C3244 C3245 1.404 . S
C3244 C3247 1.539 . S
C3245 C3241 1.408 . S
C3245 C3244 1.404 . S
C3245 H3257 0.930 . S
C3246 C3242 1.524 . S
C3246 H3258 0.956 . S
C3246 H3259 0.961 . S
C3246 H3260 0.961 . S
C3247 C3244 1.539 . S
C3247 H3261 0.958 . S
C3247 H3262 0.961 . S
C3247 H3263 0.960 . S
H3248 C3232 0.931 . S
H3249 C3237 0.929 . S
H3250 C3238 0.960 . S
H3251 C3238 0.962 . S
H3252 C3238 0.960 . S
H3253 C3239 0.961 . S
H3254 C3239 0.961 . S
H3255 C3239 0.961 . S
H3256 C3240 0.931 . S
H3257 C3245 0.930 . S
H3258 C3246 0.956 . S
H3259 C3246 0.961 . S
H3260 C3246 0.961 . S
H3261 C3247 0.958 . S
H3262 C3247 0.961 . S
H3263 C3247 0.960 . S
C3264 C3265 1.391 . S
C3264 C3266 1.394 . S
C3264 H3280 0.931 . S
C3265 C3264 1.391 . S
C3265 C3269 1.376 . S
C3266 C3264 1.394 . S
C3266 C3267 1.369 . S
C3266 C3270 1.531 . S
C3267 C3266 1.369 . S
C3267 C3268 1.410 . S
C3267 C3275 1.503 . S
C3268 C3267 1.410 . S
C3268 C3269 1.392 . S
C3268 C3271 1.511 . S
C3269 C3265 1.376 . S
C3269 C3268 1.392 . S
C3269 H3281 0.929 . S
C3270 C3266 1.531 . S
C3270 H3282 0.960 . S
C3270 H3283 0.962 . S
C3270 H3284 0.960 . S
C3271 C3268 1.511 . S
C3271 H3285 0.961 . S
C3271 H3286 0.961 . S
C3271 H3287 0.961 . S
C3272 C3273 1.370 . S
C3272 C3274 1.363 . S
C3272 H3288 0.931 . S
C3273 C3272 1.370 . S
C3273 C3277 1.408 . S
C3274 C3272 1.363 . S
C3274 C3275 1.370 . S
C3274 C3278 1.524 . S
C3275 C3267 1.503 . S
C3275 C3274 1.370 . S
C3275 C3276 1.403 . S
C3276 C3275 1.403 . S
C3276 C3277 1.404 . S
C3276 C3279 1.539 . S
C3277 C3273 1.408 . S
C3277 C3276 1.404 . S
C3277 H3289 0.930 . S
C3278 C3274 1.524 . S
C3278 H3290 0.956 . S
C3278 H3291 0.961 . S
C3278 H3292 0.961 . S
C3279 C3276 1.539 . S
C3279 H3293 0.958 . S
C3279 H3294 0.961 . S
C3279 H3295 0.960 . S
H3280 C3264 0.931 . S
H3281 C3269 0.929 . S
H3282 C3270 0.960 . S
H3283 C3270 0.962 . S
H3284 C3270 0.960 . S
H3285 C3271 0.961 . S
H3286 C3271 0.961 . S
H3287 C3271 0.961 . S
H3288 C3272 0.931 . S
H3289 C3277 0.930 . S
H3290 C3278 0.956 . S
H3291 C3278 0.961 . S
H3292 C3278 0.961 . S
H3293 C3279 0.958 . S
H3294 C3279 0.961 . S
H3295 C3279 0.960 . S
C3296 C3297 1.391 . S
C3296 C3298 1.394 . S
C3296 H3312 0.931 . S
C3297 C3296 1.391 . S
C3297 C3301 1.376 . S
C3298 C3296 1.394 . S
C3298 C3299 1.369 . S
C3298 C3302 1.531 . S
C3299 C3298 1.369 . S
C3299 C3300 1.410 . S
C3299 C3307 1.503 . S
C3300 C3299 1.410 . S
C3300 C3301 1.392 . S
C3300 C3303 1.511 . S
C3301 C3297 1.376 . S
C3301 C3300 1.392 . S
C3301 H3313 0.929 . S
C3302 C3298 1.531 . S
C3302 H3314 0.960 . S
C3302 H3315 0.962 . S
C3302 H3316 0.960 . S
C3303 C3300 1.511 . S
C3303 H3317 0.961 . S
C3303 H3318 0.961 . S
C3303 H3319 0.961 . S
C3304 C3305 1.370 . S
C3304 C3306 1.363 . S
C3304 H3320 0.931 . S
C3305 C3304 1.370 . S
C3305 C3309 1.408 . S
C3306 C3304 1.363 . S
C3306 C3307 1.370 . S
C3306 C3310 1.524 . S
C3307 C3299 1.503 . S
C3307 C3306 1.370 . S
C3307 C3308 1.403 . S
C3308 C3307 1.403 . S
C3308 C3309 1.404 . S
C3308 C3311 1.539 . S
C3309 C3305 1.408 . S
C3309 C3308 1.404 . S
C3309 H3321 0.930 . S
C3310 C3306 1.524 . S
C3310 H3322 0.956 . S
C3310 H3323 0.961 . S
C3310 H3324 0.961 . S
C3311 C3308 1.539 . S
C3311 H3325 0.958 . S
C3311 H3326 0.961 . S
C3311 H3327 0.960 . S
H3312 C3296 0.931 . S
H3313 C3301 0.929 . S
H3314 C3302 0.960 . S
H3315 C3302 0.962 . S
H3316 C3302 0.960 . S
H3317 C3303 0.961 . S
H3318 C3303 0.961 . S
H3319 C3303 0.961 . S
H3320 C3304 0.931 . S
H3321 C3309 0.930 . S
H3322 C3310 0.956 . S
H3323 C3310 0.961 . S
H3324 C3310 0.961 . S
H3325 C3311 0.958 . S
H3326 C3311 0.961 . S
H3327 C3311 0.960 . S
C3328 C3329 1.391 . S
C3328 C3330 1.394 . S
C3328 H3344 0.931 . S
C3329 C3328 1.391 . S
C3329 C3333 1.376 . S
C3330 C3328 1.394 . S
C3330 C3331 1.369 . S
C3330 C3334 1.531 . S
C3331 C3330 1.369 . S
C3331 C3332 1.410 . S
C3331 C3339 1.503 . S
C3332 C3331 1.410 . S
C3332 C3333 1.392 . S
C3332 C3335 1.511 . S
C3333 C3329 1.376 . S
C3333 C3332 1.392 . S
C3333 H3345 0.929 . S
C3334 C3330 1.531 . S
C3334 H3346 0.960 . S
C3334 H3347 0.962 . S
C3334 H3348 0.960 . S
C3335 C3332 1.511 . S
C3335 H3349 0.961 . S
C3335 H3350 0.961 . S
C3335 H3351 0.961 . S
C3336 C3337 1.370 . S
C3336 C3338 1.363 . S
C3336 H3352 0.931 . S
C3337 C3336 1.370 . S
C3337 C3341 1.408 . S
C3338 C3336 1.363 . S
C3338 C3339 1.370 . S
C3338 C3342 1.524 . S
C3339 C3331 1.503 . S
C3339 C3338 1.370 . S
C3339 C3340 1.403 . S
C3340 C3339 1.403 . S
C3340 C3341 1.404 . S
C3340 C3343 1.539 . S
C3341 C3337 1.408 . S
C3341 C3340 1.404 . S
C3341 H3353 0.930 . S
C3342 C3338 1.524 . S
C3342 H3354 0.956 . S
C3342 H3355 0.961 . S
C3342 H3356 0.961 . S
C3343 C3340 1.539 . S
C3343 H3357 0.958 . S
C3343 H3358 0.961 . S
C3343 H3359 0.960 . S
H3344 C3328 0.931 . S
H3345 C3333 0.929 . S
H3346 C3334 0.960 . S
H3347 C3334 0.962 . S
H3348 C3334 0.960 . S
H3349 C3335 0.961 . S
H3350 C3335 0.961 . S
H3351 C3335 0.961 . S
H3352 C3336 0.931 . S
H3353 C3341 0.930 . S
H3354 C3342 0.956 . S
H3355 C3342 0.961 . S
H3356 C3342 0.961 . S
H3357 C3343 0.958 . S
H3358 C3343 0.961 . S
H3359 C3343 0.960 . S
C3360 C3361 1.391 . S
C3360 C3362 1.394 . S
C3360 H3376 0.931 . S
C3361 C3360 1.391 . S
C3361 C3365 1.376 . S
C3362 C3360 1.394 . S
C3362 C3363 1.369 . S
C3362 C3366 1.531 . S
C3363 C3362 1.369 . S
C3363 C3364 1.410 . S
C3363 C3371 1.503 . S
C3364 C3363 1.410 . S
C3364 C3365 1.392 . S
C3364 C3367 1.511 . S
C3365 C3361 1.376 . S
C3365 C3364 1.392 . S
C3365 H3377 0.929 . S
C3366 C3362 1.531 . S
C3366 H3378 0.960 . S
C3366 H3379 0.962 . S
C3366 H3380 0.960 . S
C3367 C3364 1.511 . S
C3367 H3381 0.961 . S
C3367 H3382 0.961 . S
C3367 H3383 0.961 . S
C3368 C3369 1.370 . S
C3368 C3370 1.363 . S
C3368 H3384 0.931 . S
C3369 C3368 1.370 . S
C3369 C3373 1.408 . S
C3370 C3368 1.363 . S
C3370 C3371 1.370 . S
C3370 C3374 1.524 . S
C3371 C3363 1.503 . S
C3371 C3370 1.370 . S
C3371 C3372 1.403 . S
C3372 C3371 1.403 . S
C3372 C3373 1.404 . S
C3372 C3375 1.539 . S
C3373 C3369 1.408 . S
C3373 C3372 1.404 . S
C3373 H3385 0.930 . S
C3374 C3370 1.524 . S
C3374 H3386 0.956 . S
C3374 H3387 0.961 . S
C3374 H3388 0.961 . S
C3375 C3372 1.539 . S
C3375 H3389 0.958 . S
C3375 H3390 0.961 . S
C3375 H3391 0.960 . S
H3376 C3360 0.931 . S
H3377 C3365 0.929 . S
H3378 C3366 0.960 . S
H3379 C3366 0.962 . S
H3380 C3366 0.960 . S
H3381 C3367 0.961 . S
H3382 C3367 0.961 . S
H3383 C3367 0.961 . S
H3384 C3368 0.931 . S
H3385 C3373 0.930 . S
H3386 C3374 0.956 . S
H3387 C3374 0.961 . S
H3388 C3374 0.961 . S
H3389 C3375 0.958 . S
H3390 C3375 0.961 . S
H3391 C3375 0.960 . S
C3392 C3393 1.391 . S
C3392 C3394 1.394 . S
C3392 H3408 0.931 . S
C3393 C3392 1.391 . S
C3393 C3397 1.376 . S
C3394 C3392 1.394 . S
C3394 C3395 1.369 . S
C3394 C3398 1.531 . S
C3395 C3394 1.369 . S
C3395 C3396 1.410 . S
C3395 C3403 1.503 . S
C3396 C3395 1.410 . S
C3396 C3397 1.392 . S
C3396 C3399 1.511 . S
C3397 C3393 1.376 . S
C3397 C3396 1.392 . S
C3397 H3409 0.929 . S
C3398 C3394 1.531 . S
C3398 H3410 0.960 . S
C3398 H3411 0.962 . S
C3398 H3412 0.960 . S
C3399 C3396 1.511 . S
C3399 H3413 0.961 . S
C3399 H3414 0.961 . S
C3399 H3415 0.961 . S
C3400 C3401 1.370 . S
C3400 C3402 1.363 . S
C3400 H3416 0.931 . S
C3401 C3400 1.370 . S
C3401 C3405 1.408 . S
C3402 C3400 1.363 . S
C3402 C3403 1.370 . S
C3402 C3406 1.524 . S
C3403 C3395 1.503 . S
C3403 C3402 1.370 . S
C3403 C3404 1.403 . S
C3404 C3403 1.403 . S
C3404 C3405 1.404 . S
C3404 C3407 1.539 . S
C3405 C3401 1.408 . S
C3405 C3404 1.404 . S
C3405 H3417 0.930 . S
C3406 C3402 1.524 . S
C3406 H3418 0.956 . S
C3406 H3419 0.961 . S
C3406 H3420 0.961 . S
C3407 C3404 1.539 . S
C3407 H3421 0.958 . S
C3407 H3422 0.961 . S
C3407 H3423 0.960 . S
H3408 C3392 0.931 . S
H3409 C3397 0.929 . S
H3410 C3398 0.960 . S
H3411 C3398 0.962 . S
H3412 C3398 0.960 . S
H3413 C3399 0.961 . S
H3414 C3399 0.961 . S
H3415 C3399 0.961 . S
H3416 C3400 0.931 . S
H3417 C3405 0.930 . S
H3418 C3406 0.956 . S
H3419 C3406 0.961 . S
H3420 C3406 0.961 . S
H3421 C3407 0.958 . S
H3422 C3407 0.961 . S
H3423 C3407 0.960 . S
C3424 C3425 1.391 . S
C3424 C3426 1.394 . S
C3424 H3440 0.931 . S
C3425 C3424 1.391 . S
C3425 C3429 1.376 . S
C3426 C3424 1.394 . S
C3426 C3427 1.369 . S
C3426 C3430 1.531 . S
C3427 C3426 1.369 . S
C3427 C3428 1.410 . S
C3427 C3435 1.503 . S
C3428 C3427 1.410 . S
C3428 C3429 1.392 . S
C3428 C3431 1.511 . S
C3429 C3425 1.376 . S
C3429 C3428 1.392 . S
C3429 H3441 0.929 . S
C3430 C3426 1.531 . S
C3430 H3442 0.960 . S
C3430 H3443 0.962 . S
C3430 H3444 0.960 . S
C3431 C3428 1.511 . S
C3431 H3445 0.961 . S
C3431 H3446 0.961 . S
C3431 H3447 0.961 . S
C3432 C3433 1.370 . S
C3432 C3434 1.363 . S
C3432 H3448 0.931 . S
C3433 C3432 1.370 . S
C3433 C3437 1.408 . S
C3434 C3432 1.363 . S
C3434 C3435 1.370 . S
C3434 C3438 1.524 . S
C3435 C3427 1.503 . S
C3435 C3434 1.370 . S
C3435 C3436 1.403 . S
C3436 C3435 1.403 . S
C3436 C3437 1.404 . S
C3436 C3439 1.539 . S
C3437 C3433 1.408 . S
C3437 C3436 1.404 . S
C3437 H3449 0.930 . S
C3438 C3434 1.524 . S
C3438 H3450 0.956 . S
C3438 H3451 0.961 . S
C3438 H3452 0.961 . S
C3439 C3436 1.539 . S
C3439 H3453 0.958 . S
C3439 H3454 0.961 . S
C3439 H3455 0.960 . S
H3440 C3424 0.931 . S
H3441 C3429 0.929 . S
H3442 C3430 0.960 . S
H3443 C3430 0.962 . S
H3444 C3430 0.960 . S
H3445 C3431 0.961 . S
H3446 C3431 0.961 . S
H3447 C3431 0.961 . S
H3448 C3432 0.931 . S
H3449 C3437 0.930 . S
H3450 C3438 0.956 . S
H3451 C3438 0.961 . S
H3452 C3438 0.961 . S
H3453 C3439 0.958 . S
H3454 C3439 0.961 . S
H3455 C3439 0.960 . S
C3456 C3457 1.391 . S
C3456 C3458 1.394 . S
C3456 H3472 0.931 . S
C3457 C3456 1.391 . S
C3457 C3461 1.376 . S
C3458 C3456 1.394 . S
C3458 C3459 1.369 . S
C3458 C3462 1.531 . S
C3459 C3458 1.369 . S
C3459 C3460 1.410 . S
C3459 C3467 1.503 . S
C3460 C3459 1.410 . S
C3460 C3461 1.392 . S
C3460 C3463 1.511 . S
C3461 C3457 1.376 . S
C3461 C3460 1.392 . S
C3461 H3473 0.929 . S
C3462 C3458 1.531 . S
C3462 H3474 0.960 . S
C3462 H3475 0.962 . S
C3462 H3476 0.960 . S
C3463 C3460 1.511 . S
C3463 H3477 0.961 . S
C3463 H3478 0.961 . S
C3463 H3479 0.961 . S
C3464 C3465 1.370 . S
C3464 C3466 1.363 . S
C3464 H3480 0.931 . S
C3465 C3464 1.370 . S
C3465 C3469 1.408 . S
C3466 C3464 1.363 . S
C3466 C3467 1.370 . S
C3466 C3470 1.524 . S
C3467 C3459 1.503 . S
C3467 C3466 1.370 . S
C3467 C3468 1.403 . S
C3468 C3467 1.403 . S
C3468 C3469 1.404 . S
C3468 C3471 1.539 . S
C3469 C3465 1.408 . S
C3469 C3468 1.404 . S
C3469 H3481 0.930 . S
C3470 C3466 1.524 . S
C3470 H3482 0.956 . S
C3470 H3483 0.961 . S
C3470 H3484 0.961 . S
C3471 C3468 1.539 . S
C3471 H3485 0.958 . S
C3471 H3486 0.961 . S
C3471 H3487 0.960 . S
H3472 C3456 0.931 . S
H3473 C3461 0.929 . S
H3474 C3462 0.960 . S
H3475 C3462 0.962 . S
H3476 C3462 0.960 . S
H3477 C3463 0.961 . S
H3478 C3463 0.961 . S
H3479 C3463 0.961 . S
H3480 C3464 0.931 . S
H3481 C3469 0.930 . S
H3482 C3470 0.956 . S
H3483 C3470 0.961 . S
H3484 C3470 0.961 . S
H3485 C3471 0.958 . S
H3486 C3471 0.961 . S
H3487 C3471 0.960 . S
C3488 C3489 1.391 . S
C3488 C3490 1.394 . S
C3488 H3504 0.931 . S
C3489 C3488 1.391 . S
C3489 C3493 1.376 . S
C3490 C3488 1.394 . S
C3490 C3491 1.369 . S
C3490 C3494 1.531 . S
C3491 C3490 1.369 . S
C3491 C3492 1.410 . S
C3491 C3499 1.503 . S
C3492 C3491 1.410 . S
C3492 C3493 1.392 . S
C3492 C3495 1.511 . S
C3493 C3489 1.376 . S
C3493 C3492 1.392 . S
C3493 H3505 0.929 . S
C3494 C3490 1.531 . S
C3494 H3506 0.960 . S
C3494 H3507 0.962 . S
C3494 H3508 0.960 . S
C3495 C3492 1.511 . S
C3495 H3509 0.961 . S
C3495 H3510 0.961 . S
C3495 H3511 0.961 . S
C3496 C3497 1.370 . S
C3496 C3498 1.363 . S
C3496 H3512 0.931 . S
C3497 C3496 1.370 . S
C3497 C3501 1.408 . S
C3498 C3496 1.363 . S
C3498 C3499 1.370 . S
C3498 C3502 1.524 . S
C3499 C3491 1.503 . S
C3499 C3498 1.370 . S
C3499 C3500 1.403 . S
C3500 C3499 1.403 . S
C3500 C3501 1.404 . S
C3500 C3503 1.539 . S
C3501 C3497 1.408 . S
C3501 C3500 1.404 . S
C3501 H3513 0.930 . S
C3502 C3498 1.524 . S
C3502 H3514 0.956 . S
C3502 H3515 0.961 . S
C3502 H3516 0.961 . S
C3503 C3500 1.539 . S
C3503 H3517 0.958 . S
C3503 H3518 0.961 . S
C3503 H3519 0.960 . S
H3504 C3488 0.931 . S
H3505 C3493 0.929 . S
H3506 C3494 0.960 . S
H3507 C3494 0.962 . S
H3508 C3494 0.960 . S
H3509 C3495 0.961 . S
H3510 C3495 0.961 . S
H3511 C3495 0.961 . S
H3512 C3496 0.931 . S
H3513 C3501 0.930 . S
H3514 C3502 0.956 . S
H3515 C3502 0.961 . S
H3516 C3502 0.961 . S
H3517 C3503 0.958 . S
H3518 C3503 0.961 . S
H3519 C3503 0.960 . S
C3520 C3521 1.391 . S
C3520 C3522 1.394 . S
C3520 H3536 0.931 . S
C3521 C3520 1.391 . S
C3521 C3525 1.376 . S
C3522 C3520 1.394 . S
C3522 C3523 1.369 . S
C3522 C3526 1.531 . S
C3523 C3522 1.369 . S
C3523 C3524 1.410 . S
C3523 C3531 1.503 . S
C3524 C3523 1.410 . S
C3524 C3525 1.392 . S
C3524 C3527 1.511 . S
C3525 C3521 1.376 . S
C3525 C3524 1.392 . S
C3525 H3537 0.929 . S
C3526 C3522 1.531 . S
C3526 H3538 0.960 . S
C3526 H3539 0.962 . S
C3526 H3540 0.960 . S
C3527 C3524 1.511 . S
C3527 H3541 0.961 . S
C3527 H3542 0.961 . S
C3527 H3543 0.961 . S
C3528 C3529 1.370 . S
C3528 C3530 1.363 . S
C3528 H3544 0.931 . S
C3529 C3528 1.370 . S
C3529 C3533 1.408 . S
C3530 C3528 1.363 . S
C3530 C3531 1.370 . S
C3530 C3534 1.524 . S
C3531 C3523 1.503 . S
C3531 C3530 1.370 . S
C3531 C3532 1.403 . S
C3532 C3531 1.403 . S
C3532 C3533 1.404 . S
C3532 C3535 1.539 . S
C3533 C3529 1.408 . S
C3533 C3532 1.404 . S
C3533 H3545 0.930 . S
C3534 C3530 1.524 . S
C3534 H3546 0.956 . S
C3534 H3547 0.961 . S
C3534 H3548 0.961 . S
C3535 C3532 1.539 . S
C3535 H3549 0.958 . S
C3535 H3550 0.961 . S
C3535 H3551 0.960 . S
H3536 C3520 0.931 . S
H3537 C3525 0.929 . S
H3538 C3526 0.960 . S
H3539 C3526 0.962 . S
H3540 C3526 0.960 . S
H3541 C3527 0.961 . S
H3542 C3527 0.961 . S
H3543 C3527 0.961 . S
H3544 C3528 0.931 . S
H3545 C3533 0.930 . S
H3546 C3534 0.956 . S
H3547 C3534 0.961 . S
H3548 C3534 0.961 . S
H3549 C3535 0.958 . S
H3550 C3535 0.961 . S
H3551 C3535 0.960 . S
C3552 C3553 1.391 . S
C3552 C3554 1.394 . S
C3552 H3568 0.931 . S
C3553 C3552 1.391 . S
C3553 C3557 1.376 . S
C3554 C3552 1.394 . S
C3554 C3555 1.369 . S
C3554 C3558 1.531 . S
C3555 C3554 1.369 . S
C3555 C3556 1.410 . S
C3555 C3563 1.503 . S
C3556 C3555 1.410 . S
C3556 C3557 1.392 . S
C3556 C3559 1.511 . S
C3557 C3553 1.376 . S
C3557 C3556 1.392 . S
C3557 H3569 0.929 . S
C3558 C3554 1.531 . S
C3558 H3570 0.960 . S
C3558 H3571 0.962 . S
C3558 H3572 0.960 . S
C3559 C3556 1.511 . S
C3559 H3573 0.961 . S
C3559 H3574 0.961 . S
C3559 H3575 0.961 . S
C3560 C3561 1.370 . S
C3560 C3562 1.363 . S
C3560 H3576 0.931 . S
C3561 C3560 1.370 . S
C3561 C3565 1.408 . S
C3562 C3560 1.363 . S
C3562 C3563 1.370 . S
C3562 C3566 1.524 . S
C3563 C3555 1.503 . S
C3563 C3562 1.370 . S
C3563 C3564 1.403 . S
C3564 C3563 1.403 . S
C3564 C3565 1.404 . S
C3564 C3567 1.539 . S
C3565 C3561 1.408 . S
C3565 C3564 1.404 . S
C3565 H3577 0.930 . S
C3566 C3562 1.524 . S
C3566 H3578 0.956 . S
C3566 H3579 0.961 . S
C3566 H3580 0.961 . S
C3567 C3564 1.539 . S
C3567 H3581 0.958 . S
C3567 H3582 0.961 . S
C3567 H3583 0.960 . S
H3568 C3552 0.931 . S
H3569 C3557 0.929 . S
H3570 C3558 0.960 . S
H3571 C3558 0.962 . S
H3572 C3558 0.960 . S
H3573 C3559 0.961 . S
H3574 C3559 0.961 . S
H3575 C3559 0.961 . S
H3576 C3560 0.931 . S
H3577 C3565 0.930 . S
H3578 C3566 0.956 . S
H3579 C3566 0.961 . S
H3580 C3566 0.961 . S
H3581 C3567 0.958 . S
H3582 C3567 0.961 . S
H3583 C3567 0.960 . S
C3584 C3585 1.391 . S
C3584 C3586 1.394 . S
C3584 H3600 0.931 . S
C3585 C3584 1.391 . S
C3585 C3589 1.376 . S
C3586 C3584 1.394 . S
C3586 C3587 1.369 . S
C3586 C3590 1.531 . S
C3587 C3586 1.369 . S
C3587 C3588 1.410 . S
C3587 C3595 1.503 . S
C3588 C3587 1.410 . S
C3588 C3589 1.392 . S
C3588 C3591 1.511 . S
C3589 C3585 1.376 . S
C3589 C3588 1.392 . S
C3589 H3601 0.929 . S
C3590 C3586 1.531 . S
C3590 H3602 0.960 . S
C3590 H3603 0.962 . S
C3590 H3604 0.960 . S
C3591 C3588 1.511 . S
C3591 H3605 0.961 . S
C3591 H3606 0.961 . S
C3591 H3607 0.961 . S
C3592 C3593 1.370 . S
C3592 C3594 1.363 . S
C3592 H3608 0.931 . S
C3593 C3592 1.370 . S
C3593 C3597 1.408 . S
C3594 C3592 1.363 . S
C3594 C3595 1.370 . S
C3594 C3598 1.524 . S
C3595 C3587 1.503 . S
C3595 C3594 1.370 . S
C3595 C3596 1.403 . S
C3596 C3595 1.403 . S
C3596 C3597 1.404 . S
C3596 C3599 1.539 . S
C3597 C3593 1.408 . S
C3597 C3596 1.404 . S
C3597 H3609 0.930 . S
C3598 C3594 1.524 . S
C3598 H3610 0.956 . S
C3598 H3611 0.961 . S
C3598 H3612 0.961 . S
C3599 C3596 1.539 . S
C3599 H3613 0.958 . S
C3599 H3614 0.961 . S
C3599 H3615 0.960 . S
H3600 C3584 0.931 . S
H3601 C3589 0.929 . S
H3602 C3590 0.960 . S
H3603 C3590 0.962 . S
H3604 C3590 0.960 . S
H3605 C3591 0.961 . S
H3606 C3591 0.961 . S
H3607 C3591 0.961 . S
H3608 C3592 0.931 . S
H3609 C3597 0.930 . S
H3610 C3598 0.956 . S
H3611 C3598 0.961 . S
H3612 C3598 0.961 . S
H3613 C3599 0.958 . S
H3614 C3599 0.961 . S
H3615 C3599 0.960 . S
C3616 C3617 1.391 . S
C3616 C3618 1.394 . S
C3616 H3632 0.931 . S
C3617 C3616 1.391 . S
C3617 C3621 1.376 . S
C3618 C3616 1.394 . S
C3618 C3619 1.369 . S
C3618 C3622 1.531 . S
C3619 C3618 1.369 . S
C3619 C3620 1.410 . S
C3619 C3627 1.503 . S
C3620 C3619 1.410 . S
C3620 C3621 1.392 . S
C3620 C3623 1.511 . S
C3621 C3617 1.376 . S
C3621 C3620 1.392 . S
C3621 H3633 0.929 . S
C3622 C3618 1.531 . S
C3622 H3634 0.960 . S
C3622 H3635 0.962 . S
C3622 H3636 0.960 . S
C3623 C3620 1.511 . S
C3623 H3637 0.961 . S
C3623 H3638 0.961 . S
C3623 H3639 0.961 . S
C3624 C3625 1.370 . S
C3624 C3626 1.363 . S
C3624 H3640 0.931 . S
C3625 C3624 1.370 . S
C3625 C3629 1.408 . S
C3626 C3624 1.363 . S
C3626 C3627 1.370 . S
C3626 C3630 1.524 . S
C3627 C3619 1.503 . S
C3627 C3626 1.370 . S
C3627 C3628 1.403 . S
C3628 C3627 1.403 . S
C3628 C3629 1.404 . S
C3628 C3631 1.539 . S
C3629 C3625 1.408 . S
C3629 C3628 1.404 . S
C3629 H3641 0.930 . S
C3630 C3626 1.524 . S
C3630 H3642 0.956 . S
C3630 H3643 0.961 . S
C3630 H3644 0.961 . S
C3631 C3628 1.539 . S
C3631 H3645 0.958 . S
C3631 H3646 0.961 . S
C3631 H3647 0.960 . S
H3632 C3616 0.931 . S
H3633 C3621 0.929 . S
H3634 C3622 0.960 . S
H3635 C3622 0.962 . S
H3636 C3622 0.960 . S
H3637 C3623 0.961 . S
H3638 C3623 0.961 . S
H3639 C3623 0.961 . S
H3640 C3624 0.931 . S
H3641 C3629 0.930 . S
H3642 C3630 0.956 . S
H3643 C3630 0.961 . S
H3644 C3630 0.961 . S
H3645 C3631 0.958 . S
H3646 C3631 0.961 . S
H3647 C3631 0.960 . S
C3648 C3649 1.391 . S
C3648 C3650 1.394 . S
C3648 H3664 0.931 . S
C3649 C3648 1.391 . S
C3649 C3653 1.376 . S
C3650 C3648 1.394 . S
C3650 C3651 1.369 . S
C3650 C3654 1.531 . S
C3651 C3650 1.369 . S
C3651 C3652 1.410 . S
C3651 C3659 1.503 . S
C3652 C3651 1.410 . S
C3652 C3653 1.392 . S
C3652 C3655 1.511 . S
C3653 C3649 1.376 . S
C3653 C3652 1.392 . S
C3653 H3665 0.929 . S
C3654 C3650 1.531 . S
C3654 H3666 0.960 . S
C3654 H3667 0.962 . S
C3654 H3668 0.960 . S
C3655 C3652 1.511 . S
C3655 H3669 0.961 . S
C3655 H3670 0.961 . S
C3655 H3671 0.961 . S
C3656 C3657 1.370 . S
C3656 C3658 1.363 . S
C3656 H3672 0.931 . S
C3657 C3656 1.370 . S
C3657 C3661 1.408 . S
C3658 C3656 1.363 . S
C3658 C3659 1.370 . S
C3658 C3662 1.524 . S
C3659 C3651 1.503 . S
C3659 C3658 1.370 . S
C3659 C3660 1.403 . S
C3660 C3659 1.403 . S
C3660 C3661 1.404 . S
C3660 C3663 1.539 . S
C3661 C3657 1.408 . S
C3661 C3660 1.404 . S
C3661 H3673 0.930 . S
C3662 C3658 1.524 . S
C3662 H3674 0.956 . S
C3662 H3675 0.961 . S
C3662 H3676 0.961 . S
C3663 C3660 1.539 . S
C3663 H3677 0.958 . S
C3663 H3678 0.961 . S
C3663 H3679 0.960 . S
H3664 C3648 0.931 . S
H3665 C3653 0.929 . S
H3666 C3654 0.960 . S
H3667 C3654 0.962 . S
H3668 C3654 0.960 . S
H3669 C3655 0.961 . S
H3670 C3655 0.961 . S
H3671 C3655 0.961 . S
H3672 C3656 0.931 . S
H3673 C3661 0.930 . S
H3674 C3662 0.956 . S
H3675 C3662 0.961 . S
H3676 C3662 0.961 . S
H3677 C3663 0.958 . S
H3678 C3663 0.961 . S
H3679 C3663 0.960 . S
C3680 C3681 1.391 . S
C3680 C3682 1.394 . S
C3680 H3696 0.931 . S
C3681 C3680 1.391 . S
C3681 C3685 1.376 . S
C3682 C3680 1.394 . S
C3682 C3683 1.369 . S
C3682 C3686 1.531 . S
C3683 C3682 1.369 . S
C3683 C3684 1.410 . S
C3683 C3691 1.503 . S
C3684 C3683 1.410 . S
C3684 C3685 1.392 . S
C3684 C3687 1.511 . S
C3685 C3681 1.376 . S
C3685 C3684 1.392 . S
C3685 H3697 0.929 . S
C3686 C3682 1.531 . S
C3686 H3698 0.960 . S
C3686 H3699 0.962 . S
C3686 H3700 0.960 . S
C3687 C3684 1.511 . S
C3687 H3701 0.961 . S
C3687 H3702 0.961 . S
C3687 H3703 0.961 . S
C3688 C3689 1.370 . S
C3688 C3690 1.363 . S
C3688 H3704 0.931 . S
C3689 C3688 1.370 . S
C3689 C3693 1.408 . S
C3690 C3688 1.363 . S
C3690 C3691 1.370 . S
C3690 C3694 1.524 . S
C3691 C3683 1.503 . S
C3691 C3690 1.370 . S
C3691 C3692 1.403 . S
C3692 C3691 1.403 . S
C3692 C3693 1.404 . S
C3692 C3695 1.539 . S
C3693 C3689 1.408 . S
C3693 C3692 1.404 . S
C3693 H3705 0.930 . S
C3694 C3690 1.524 . S
C3694 H3706 0.956 . S
C3694 H3707 0.961 . S
C3694 H3708 0.961 . S
C3695 C3692 1.539 . S
C3695 H3709 0.958 . S
C3695 H3710 0.961 . S
C3695 H3711 0.960 . S
H3696 C3680 0.931 . S
H3697 C3685 0.929 . S
H3698 C3686 0.960 . S
H3699 C3686 0.962 . S
H3700 C3686 0.960 . S
H3701 C3687 0.961 . S
H3702 C3687 0.961 . S
H3703 C3687 0.961 . S
H3704 C3688 0.931 . S
H3705 C3693 0.930 . S
H3706 C3694 0.956 . S
H3707 C3694 0.961 . S
H3708 C3694 0.961 . S
H3709 C3695 0.958 . S
H3710 C3695 0.961 . S
H3711 C3695 0.960 . S
C641 C5 1.694 . S
C649 C94 1.673 . S
C673 C114 1.629 . S
C681 C34 1.646 . S
C705 C134 1.620 . S
C713 C54 1.651 . S
C737 C74 1.684 . S
C745 C145 1.677 . S
C769 C174 1.658 . S
C777 C254 1.647 . S
C801 C194 1.630 . S
C809 C274 1.647 . S
C833 C214 1.652 . S
C841 C294 1.675 . S
C865 C314 1.694 . S
C873 C234 1.670 . S
C897 C325 1.626 . S
C905 C414 1.647 . S
C929 C434 1.667 . S
C937 C354 1.675 . S
C961 C374 1.694 . S
C969 C454 1.671 . S
C993 C465 1.645 . S
C1001 C394 1.647 . S
C1025 C494 1.655 . S
C1033 C574 1.647 . S
C1057 C514 1.653 . S
C1065 C594 1.646 . S
C1089 C534 1.662 . S
C1097 C614 1.676 . S
C1121 C554 1.649 . S
C1129 C634 1.674 . S
C1153 C482 2.586 . S
C1161 C13 2.621 . S
C1185 C182 2.623 . S
C1193 C22 2.604 . S
C1217 C42 2.609 . S
C1225 C522 2.613 . S
C1249 C62 2.627 . S
C1257 C222 2.604 . S
C1281 C82 2.587 . S
C1289 C562 2.621 . S
C1313 C102 2.626 . S
C1321 C262 2.605 . S
C1345 C602 2.592 . S
C1353 C122 2.617 . S
C1377 C302 2.598 . S
C1385 C153 2.617 . S
C1409 C333 2.628 . S
C1417 C162 2.603 . S
C1441 C202 2.628 . S
C1449 C362 2.603 . S
C1473 C242 2.624 . S
C1481 C402 2.606 . S
C1505 C442 2.628 . S
C1513 C282 2.603 . S
C1537 C342 2.594 . S
C1545 C502 2.616 . S
C1569 C542 2.609 . S
C1577 C382 2.613 . S
C1601 C582 2.622 . S
C1609 C422 2.607 . S
C1633 C473 2.596 . S
C1641 C622 2.615 . S
C1665 C14 1.080 . S
C1673 C553 1.128 . S
C1697 C25 1.135 . S
C1705 C173 1.124 . S
C1729 C45 1.095 . S
C1737 C513 1.129 . S
C1761 C213 1.130 . S
C1769 C65 1.092 . S
C1793 C593 1.134 . S
C1801 C85 1.105 . S
C1825 C105 1.067 . S
C1833 C293 1.123 . S
C1857 C633 1.109 . S
C1865 C125 1.106 . S
C1889 C253 1.134 . S
C1897 C154 1.103 . S
C1921 C393 1.116 . S
C1929 C165 1.113 . S
C1953 C185 1.094 . S
C1961 C2 1.124 . S
C1985 C353 1.110 . S
C1993 C205 1.092 . S
C2017 C53 1.134 . S
C2025 C225 1.111 . S
C2049 C433 1.114 . S
C2057 C245 1.110 . S
C2081 C265 1.080 . S
C2089 C133 1.127 . S
C2113 C285 1.132 . S
C2121 C462 1.128 . S
C2145 C93 1.114 . S
C2153 C305 1.089 . S
C2177 C334 1.130 . S
C2185 C233 1.122 . S
C2209 C345 1.134 . S
C2217 C493 1.125 . S
C2241 C193 1.127 . S
C2249 C365 1.116 . S
C2273 C385 1.126 . S
C2281 C533 1.128 . S
C2305 C273 1.109 . S
C2313 C405 1.104 . S
C2337 C425 1.134 . S
C2345 C613 1.125 . S
C2369 C313 1.118 . S
C2377 C445 1.089 . S
C2401 C474 1.107 . S
C2409 C573 1.119 . S
C2433 C73 1.127 . S
C2441 C485 1.092 . S
C2465 C505 1.070 . S
C2473 C322 1.120 . S
C2497 C525 1.073 . S
C2505 C33 1.126 . S
C2529 C373 1.134 . S
C2537 C545 1.110 . S
C2561 C113 1.124 . S
C2569 C565 1.090 . S
C2593 C453 1.111 . S
C2601 C585 1.106 . S
C2625 C605 1.127 . S
C2633 C142 1.129 . S
C2657 C413 1.114 . S
C2665 C625 1.111 . S
C2689 C17 1.661 . S
C2697 C368 1.663 . S
C2721 C28 1.667 . S
C2729 C388 1.666 . S
C2753 C48 1.699 . S
C2761 C337 1.682 . S
C2785 C68 1.627 . S
C2793 C348 1.652 . S
C2817 C448 1.679 . S
C2825 C88 1.671 . S
C2849 C477 1.651 . S
C2857 C108 1.659 . S
C2881 C128 1.691 . S
C2889 C408 1.677 . S
C2913 C428 1.637 . S
C2921 C157 1.659 . S
C2945 C528 1.698 . S
C2953 C168 1.681 . S
C2977 C548 1.627 . S
C2985 C188 1.653 . S
C3009 C488 1.627 . S
C3017 C208 1.652 . S
C3041 C228 1.664 . S
C3049 C508 1.666 . S
C3073 C248 1.686 . S
C3081 C608 1.675 . S
C3105 C628 1.655 . S
C3113 C268 1.662 . S
C3137 C568 1.627 . S
C3145 C288 1.653 . S
C3169 C308 1.696 . S
C3177 C588 1.680 . S
C3201 C148 3.467 . S
C3209 C8 3.458 . S
C3233 C37 3.428 . S
C3241 C97 3.447 . S
C3265 C57 3.446 . S
C3273 C117 3.461 . S
C3297 C137 3.460 . S
C3305 C77 3.461 . S
C3329 C317 3.451 . S
C3337 C177 3.445 . S
C3361 C197 3.445 . S
C3369 C257 3.444 . S
C3393 C277 3.466 . S
C3401 C217 3.450 . S
C3425 C297 3.464 . S
C3433 C237 3.448 . S
C3457 C468 3.464 . S
C3465 C328 3.460 . S
C3489 C417 3.434 . S
C3497 C357 3.457 . S
C3521 C437 3.427 . S
C3529 C377 3.448 . S
C3553 C397 3.429 . S
C3561 C457 3.446 . S
C3585 C637 3.428 . S
C3593 C497 3.449 . S
C3617 C577 3.435 . S
C3625 C517 3.446 . S
C3649 C597 3.434 . S
C3657 C537 3.459 . S
C3681 C557 3.466 . S
C3689 C617 3.450 . S
