# Generated by pormake.
# Topology vmg, (6)-cn, num edge types: 1
# Building blocks:
#     Node 0, Type 0, BuildingBlock: OJICUG_clean_sbu_0, # of connection points: 6
#     Node 1, Type 0, BuildingBlock: OJICUG_clean_sbu_0, # of connection points: 6
#     Node 2, Type 0, BuildingBlock: OJICUG_clean_sbu_0, # of connection points: 6
#     Node 3, Type 0, BuildingBlock: OJICUG_clean_sbu_0, # of connection points: 6
#     Node 4, Type 0, BuildingBlock: OJICUG_clean_sbu_0, # of connection points: 6
#     Node 5, Type 0, BuildingBlock: OJICUG_clean_sbu_0, # of connection points: 6
#     Node 6, Type 0, BuildingBlock: OJICUG_clean_sbu_0, # of connection points: 6
#     Node 7, Type 0, BuildingBlock: OJICUG_clean_sbu_0, # of connection points: 6
#     Edge 8, Type (0, 0), BuildingBlock: TEMPAE_clean_linker_10, # of connection points: 2
#     Edge 9, Type (0, 0), BuildingBlock: TEMPAE_clean_linker_10, # of connection points: 2
#     Edge 10, Type (0, 0), BuildingBlock: TEMPAE_clean_linker_10, # of connection points: 2
#     Edge 11, Type (0, 0), BuildingBlock: TEMPAE_clean_linker_10, # of connection points: 2
#     Edge 12, Type (0, 0), BuildingBlock: TEMPAE_clean_linker_10, # of connection points: 2
#     Edge 13, Type (0, 0), BuildingBlock: TEMPAE_clean_linker_10, # of connection points: 2
#     Edge 14, Type (0, 0), BuildingBlock: TEMPAE_clean_linker_10, # of connection points: 2
#     Edge 15, Type (0, 0), BuildingBlock: TEMPAE_clean_linker_10, # of connection points: 2
#     Edge 16, Type (0, 0), BuildingBlock: TEMPAE_clean_linker_10, # of connection points: 2
#     Edge 17, Type (0, 0), BuildingBlock: TEMPAE_clean_linker_10, # of connection points: 2
#     Edge 18, Type (0, 0), BuildingBlock: TEMPAE_clean_linker_10, # of connection points: 2
#     Edge 19, Type (0, 0), BuildingBlock: TEMPAE_clean_linker_10, # of connection points: 2
#     Edge 20, Type (0, 0), BuildingBlock: TEMPAE_clean_linker_10, # of connection points: 2
#     Edge 21, Type (0, 0), BuildingBlock: TEMPAE_clean_linker_10, # of connection points: 2
#     Edge 22, Type (0, 0), BuildingBlock: TEMPAE_clean_linker_10, # of connection points: 2
#     Edge 23, Type (0, 0), BuildingBlock: TEMPAE_clean_linker_10, # of connection points: 2
#     Edge 24, Type (0, 0), BuildingBlock: TEMPAE_clean_linker_10, # of connection points: 2
#     Edge 25, Type (0, 0), BuildingBlock: TEMPAE_clean_linker_10, # of connection points: 2
#     Edge 26, Type (0, 0), BuildingBlock: TEMPAE_clean_linker_10, # of connection points: 2
#     Edge 27, Type (0, 0), BuildingBlock: TEMPAE_clean_linker_10, # of connection points: 2
#     Edge 28, Type (0, 0), BuildingBlock: TEMPAE_clean_linker_10, # of connection points: 2
#     Edge 29, Type (0, 0), BuildingBlock: TEMPAE_clean_linker_10, # of connection points: 2
#     Edge 30, Type (0, 0), BuildingBlock: TEMPAE_clean_linker_10, # of connection points: 2
#     Edge 31, Type (0, 0), BuildingBlock: TEMPAE_clean_linker_10, # of connection points: 2
# Relax obj value: 0.217
# Max RMSD: 0.229
# Mean RMSD: 0.229
data_MOF--net-vmg--node1-OJICUG_clean_sbu_0--edge1-TEMPAE_clean_linker_10
_symmetry_space_group_name_H-M    P1
_symmetry_Int_Tables_number       1
_symmetry_cell_setting            triclinic
loop_
_symmetry_equiv_pos_as_xyz
'x, y, z'
_cell_length_a     30.648311
_cell_length_b     44.703181
_cell_length_c     27.798819
_cell_angle_alpha  90.0945
_cell_angle_beta   108.48326
_cell_angle_gamma 89.955094
loop_
_atom_site_label
_atom_site_type_symbol
_atom_site_fract_x
_atom_site_fract_y
_atom_site_fract_z
_atom_type_partial_charge
Sc0 Sc 0.14917 0.38307 0.09397 0.0
Sc1 Sc 0.23473 0.43387 0.14782 0.0
Sc2 Sc 0.22858 0.36864 0.2138 0.0
O3 O 0.20418 0.3949 0.15269 0.0
C4 C 0.12211 0.35703 0.18777 0.0
C5 C 0.12854 0.44866 0.09311 0.0
C6 C 0.22853 0.43611 0.25781 0.0
C7 C 0.21423 0.4168 0.04004 0.0
C8 C 0.20731 0.32389 0.11739 0.0
C9 C 0.32137 0.39486 0.20726 0.0
O10 O 0.11354 0.36179 0.1406 0.0
O11 O 0.17088 0.45473 0.10184 0.0
O12 O 0.23356 0.40765 0.26421 0.0
O13 O 0.17538 0.40552 0.03798 0.0
O14 O 0.22463 0.32931 0.16503 0.0
O15 O 0.30291 0.4194 0.18887 0.0
O16 O 0.18143 0.34202 0.08566 0.0
O17 O 0.24676 0.41771 0.08148 0.0
O18 O 0.29858 0.37293 0.21535 0.0
O19 O 0.11545 0.42328 0.103 0.0
O20 O 0.16171 0.36052 0.21981 0.0
O21 O 0.22433 0.44905 0.21579 0.0
Sc22 Sc 0.75891 0.36813 0.29795 0.0
Sc23 Sc 0.74641 0.44022 0.34144 0.0
Sc24 Sc 0.83033 0.39433 0.41476 0.0
O25 O 0.77784 0.40026 0.35117 0.0
C26 C 0.77315 0.33513 0.4052 0.0
C27 C 0.66308 0.39724 0.28661 0.0
C28 C 0.75789 0.43365 0.45176 0.0
C29 C 0.76568 0.42922 0.2387 0.0
C30 C 0.86632 0.35802 0.33584 0.0
C31 C 0.84979 0.45834 0.39896 0.0
O32 O 0.75993 0.33471 0.35647 0.0
O33 O 0.68033 0.42301 0.29852 0.0
O34 O 0.79764 0.42201 0.45921 0.0
O35 O 0.75827 0.40089 0.23821 0.0
O36 O 0.87143 0.3679 0.38015 0.0
O37 O 0.80718 0.46432 0.38651 0.0
O38 O 0.82791 0.35807 0.30097 0.0
O39 O 0.7651 0.44623 0.27521 0.0
O40 O 0.86375 0.43208 0.3959 0.0
O41 O 0.68728 0.37407 0.28821 0.0
O42 O 0.79731 0.356 0.43186 0.0
O43 O 0.72801 0.43411 0.40813 0.0
Sc44 Sc 0.75404 0.63235 0.79683 0.0
Sc45 Sc 0.75279 0.55846 0.83931 0.0
Sc46 Sc 0.83858 0.60669 0.90481 0.0
O47 O 0.78101 0.59938 0.84661 0.0
C48 C 0.85913 0.64623 0.82049 0.0
C49 C 0.74426 0.57413 0.72612 0.0
C50 C 0.86078 0.54633 0.86627 0.0
C51 C 0.66416 0.60074 0.80482 0.0
C52 C 0.77938 0.66236 0.90909 0.0
C53 C 0.78692 0.5595 0.9544 0.0
O54 O 0.8196 0.64308 0.78818 0.0
O55 O 0.74989 0.55593 0.76248 0.0
O56 O 0.87193 0.57354 0.8753 0.0
O57 O 0.6854 0.62399 0.79815 0.0
O58 O 0.80457 0.64085 0.9323 0.0
O59 O 0.75184 0.55811 0.91548 0.0
O60 O 0.76266 0.66386 0.86045 0.0
O61 O 0.68378 0.57562 0.81783 0.0
O62 O 0.82296 0.57362 0.95457 0.0
O63 O 0.74337 0.60257 0.73113 0.0
O64 O 0.86768 0.63914 0.86666 0.0
O65 O 0.82014 0.53668 0.86031 0.0
Sc66 Sc 0.15331 0.61084 0.59409 0.0
Sc67 Sc 0.2304 0.55627 0.66249 0.0
Sc68 Sc 0.22788 0.62718 0.71675 0.0
O69 O 0.20414 0.59827 0.65756 0.0
C70 C 0.21666 0.66845 0.61878 0.0
C71 C 0.20995 0.56782 0.54436 0.0
C72 C 0.31943 0.59522 0.70954 0.0
C73 C 0.12295 0.5465 0.61954 0.0
C74 C 0.12076 0.64211 0.68075 0.0
C75 C 0.23031 0.56625 0.77586 0.0
O76 O 0.1868 0.65179 0.58848 0.0
O77 O 0.2284 0.55398 0.5854 0.0
O78 O 0.29822 0.61478 0.72705 0.0
O79 O 0.11619 0.57159 0.5972 0.0
O80 O 0.16034 0.64251 0.71389 0.0
O81 O 0.23681 0.55135 0.74009 0.0
O82 O 0.11372 0.63176 0.6364 0.0
O83 O 0.16254 0.53658 0.64477 0.0
O84 O 0.22239 0.59429 0.77285 0.0
O85 O 0.18328 0.59006 0.54117 0.0
O86 O 0.23526 0.66272 0.66591 0.0
O87 O 0.29931 0.57345 0.68171 0.0
Sc88 Sc 0.64623 0.88753 0.0764 0.0
Sc89 Sc 0.72699 0.9408 0.13347 0.0
Sc90 Sc 0.71607 0.87698 0.20188 0.0
O91 O 0.6967 0.90148 0.13787 0.0
C92 C 0.60953 0.86338 0.16489 0.0
C93 C 0.62219 0.95288 0.06741 0.0
C94 C 0.70921 0.94522 0.23863 0.0
C95 C 0.71737 0.91916 0.02778 0.0
C96 C 0.70718 0.83018 0.11094 0.0
C97 C 0.8119 0.90389 0.2054 0.0
O98 O 0.60516 0.86726 0.11833 0.0
O99 O 0.66455 0.96002 0.0807 0.0
O100 O 0.71455 0.91703 0.24759 0.0
O101 O 0.6782 0.90771 0.02386 0.0
O102 O 0.71886 0.83633 0.15841 0.0
O103 O 0.79426 0.92746 0.18171 0.0
O104 O 0.68293 0.84723 0.07612 0.0
O105 O 0.74615 0.92526 0.07063 0.0
O106 O 0.78783 0.88236 0.21247 0.0
O107 O 0.60897 0.92745 0.07692 0.0
O108 O 0.64699 0.86794 0.20007 0.0
O109 O 0.70923 0.95698 0.19692 0.0
Sc110 Sc 0.24647 0.86377 0.29448 0.0
Sc111 Sc 0.24085 0.9378 0.33487 0.0
Sc112 Sc 0.33194 0.89284 0.39858 0.0
O113 O 0.27226 0.89786 0.34244 0.0
C114 C 0.2786 0.83506 0.40745 0.0
C115 C 0.1557 0.89254 0.3057 0.0
C116 C 0.27891 0.9388 0.44966 0.0
C117 C 0.23097 0.92114 0.22162 0.0
C118 C 0.35202 0.85437 0.31262 0.0
C119 C 0.34718 0.95414 0.35928 0.0
O120 O 0.26077 0.83267 0.35907 0.0
O121 O 0.17358 0.91834 0.31616 0.0
O122 O 0.31532 0.92541 0.44879 0.0
O123 O 0.23157 0.89281 0.22802 0.0
O124 O 0.3619 0.86155 0.35898 0.0
O125 O 0.30594 0.9619 0.35451 0.0
O126 O 0.31132 0.8556 0.28231 0.0
O127 O 0.2361 0.93997 0.25718 0.0
O128 O 0.36079 0.92725 0.36604 0.0
O129 O 0.17804 0.86973 0.29915 0.0
O130 O 0.30237 0.85753 0.42917 0.0
O131 O 0.24257 0.93832 0.41196 0.0
Sc132 Sc 0.26107 0.12975 0.79882 0.0
Sc133 Sc 0.24357 0.05524 0.82125 0.0
Sc134 Sc 0.32801 0.09536 0.91137 0.0
O135 O 0.27738 0.09385 0.84491 0.0
C136 C 0.36997 0.13619 0.84267 0.0
C137 C 0.25391 0.07811 0.72203 0.0
C138 C 0.34625 0.03601 0.8561 0.0
C139 C 0.16411 0.10022 0.79539 0.0
C140 C 0.27348 0.15676 0.90885 0.0
C141 C 0.26609 0.04755 0.9403 0.0
O142 O 0.33107 0.14416 0.81272 0.0
O143 O 0.22751 0.0658 0.74278 0.0
O144 O 0.35612 0.05461 0.89283 0.0
O145 O 0.1878 0.11882 0.77887 0.0
O146 O 0.30166 0.13644 0.93164 0.0
O147 O 0.25148 0.03814 0.89509 0.0
O148 O 0.25443 0.15753 0.86065 0.0
O149 O 0.18135 0.07681 0.82021 0.0
O150 O 0.28974 0.07133 0.95239 0.0
O151 O 0.27175 0.10342 0.73724 0.0
O152 O 0.37402 0.11823 0.87916 0.0
O153 O 0.30689 0.03386 0.82243 0.0
Sc154 Sc 0.64218 0.11007 0.59188 0.0
Sc155 Sc 0.7308 0.05969 0.63474 0.0
Sc156 Sc 0.72845 0.12423 0.70617 0.0
O157 O 0.70122 0.09853 0.64463 0.0
C158 C 0.69966 0.16951 0.61061 0.0
C159 C 0.70088 0.07991 0.52586 0.0
C160 C 0.8193 0.09883 0.69141 0.0
C161 C 0.62378 0.04473 0.58933 0.0
C162 C 0.62285 0.1351 0.69072 0.0
C163 C 0.73274 0.05638 0.74839 0.0
O164 O 0.67082 0.1518 0.58106 0.0
O165 O 0.73582 0.07492 0.56417 0.0
O166 O 0.79686 0.11995 0.70286 0.0
O167 O 0.61335 0.06918 0.60549 0.0
O168 O 0.66407 0.13261 0.71928 0.0
O169 O 0.72707 0.04401 0.70551 0.0
O170 O 0.61072 0.12973 0.64354 0.0
O171 O 0.66528 0.03856 0.59327 0.0
O172 O 0.73644 0.0848 0.75568 0.0
O173 O 0.66347 0.09013 0.53054 0.0
O174 O 0.72146 0.16368 0.6573 0.0
O175 O 0.80034 0.07482 0.67058 0.0
C176 C 0.58938 0.37066 0.24299 0.0
C177 C 0.61293 0.39413 0.27384 0.0
C178 C 0.54155 0.36784 0.23112 0.0
C179 C 0.51732 0.38862 0.2516 0.0
C180 C 0.54119 0.41184 0.28385 0.0
C181 C 0.58867 0.41449 0.29414 0.0
C182 C 0.51683 0.34318 0.19581 0.0
C183 C 0.51653 0.43411 0.30706 0.0
C184 C 0.3925 0.40731 0.18738 0.0
C185 C 0.37115 0.39156 0.21727 0.0
C186 C 0.43992 0.4052 0.19652 0.0
C187 C 0.46663 0.38743 0.23728 0.0
C188 C 0.44516 0.37087 0.26689 0.0
C189 C 0.39736 0.37288 0.2561 0.0
C190 C 0.46158 0.42273 0.16355 0.0
C191 C 0.47286 0.35215 0.31123 0.0
H192 H 0.60821 0.35489 0.22737 0.0
H193 H 0.60695 0.43235 0.31878 0.0
H194 H 0.49617 0.32958 0.21398 0.0
H195 H 0.49256 0.35306 0.16095 0.0
H196 H 0.54096 0.32817 0.18475 0.0
H197 H 0.54068 0.44957 0.33402 0.0
H198 H 0.49232 0.44763 0.27673 0.0
H199 H 0.49593 0.42222 0.32746 0.0
H200 H 0.37205 0.42132 0.15665 0.0
H201 H 0.38071 0.36065 0.27909 0.0
H202 H 0.48416 0.40802 0.14958 0.0
H203 H 0.48342 0.44082 0.18621 0.0
H204 H 0.43545 0.433 0.1304 0.0
H205 H 0.49583 0.33666 0.29936 0.0
H206 H 0.45064 0.33887 0.32795 0.0
H207 H 0.49511 0.36694 0.34111 0.0
C208 C 0.5914 0.58077 0.81432 0.0
C209 C 0.61393 0.60241 0.79436 0.0
C210 C 0.5434 0.58065 0.80166 0.0
C211 C 0.51738 0.60244 0.76766 0.0
C212 C 0.53989 0.62469 0.74813 0.0
C213 C 0.58802 0.62456 0.76205 0.0
C214 C 0.52049 0.5569 0.82392 0.0
C215 C 0.51309 0.64809 0.7114 0.0
C216 C 0.39393 0.58192 0.69599 0.0
C217 C 0.36996 0.59771 0.7233 0.0
C218 C 0.44196 0.58372 0.70948 0.0
C219 C 0.46649 0.60142 0.75164 0.0
C220 C 0.44254 0.61753 0.77918 0.0
C221 C 0.39451 0.61563 0.76449 0.0
C222 C 0.46648 0.56652 0.67889 0.0
C223 C 0.46771 0.63633 0.82472 0.0
H224 H 0.61131 0.56376 0.83965 0.0
H225 H 0.60525 0.64121 0.74625 0.0
H226 H 0.49761 0.56745 0.84302 0.0
H227 H 0.49869 0.54245 0.79319 0.0
H228 H 0.54583 0.54254 0.85178 0.0
H229 H 0.53589 0.66435 0.70085 0.0
H230 H 0.49095 0.63708 0.67636 0.0
H231 H 0.49006 0.66053 0.72812 0.0
H232 H 0.37516 0.56821 0.66391 0.0
H233 H 0.37625 0.62778 0.78598 0.0
H234 H 0.4899 0.54975 0.70333 0.0
H235 H 0.48798 0.58193 0.66467 0.0
H236 H 0.4422 0.55474 0.64602 0.0
H237 H 0.49134 0.62201 0.85422 0.0
H238 H 0.44386 0.64787 0.84154 0.0
H239 H 0.4891 0.65342 0.81388 0.0
C240 C 0.07906 0.8692 0.26324 0.0
C241 C 0.10603 0.88977 0.29821 0.0
C242 C 0.03093 0.86952 0.25051 0.0
C243 C 0.00964 0.89053 0.27409 0.0
C244 C 0.03694 0.91009 0.31168 0.0
C245 C 0.08482 0.90966 0.32294 0.0
C246 C 0.00283 0.84854 0.20984 0.0
C247 C 0.01552 0.93236 0.33844 0.0
C248 C 0.88972 0.91801 0.20226 0.0
C249 C 0.86253 0.90091 0.22397 0.0
C250 C 0.93761 0.9145 0.21784 0.0
C251 C 0.95885 0.89378 0.25668 0.0
C252 C 0.9317 0.8767 0.27922 0.0
C253 C 0.88376 0.88029 0.26227 0.0
C254 C 0.96545 0.93286 0.19249 0.0
C255 C 0.95332 0.85481 0.32136 0.0
H256 H 0.09537 0.8539 0.2439 0.0
H257 H 0.10568 0.92537 0.35046 0.0
H258 H 0.97747 0.83627 0.22328 0.0
H259 H 0.98316 0.86166 0.17604 0.0
H260 H 0.02461 0.83203 0.19808 0.0
H261 H 0.04164 0.94373 0.37034 0.0
H262 H -0.00339 0.94963 0.31112 0.0
H263 H 0.99027 0.92108 0.35339 0.0
H264 H 0.87349 0.93376 0.1723 0.0
H265 H 0.86291 0.8671 0.27935 0.0
H266 H 0.98592 0.91789 0.17603 0.0
H267 H 0.99006 0.94728 0.22092 0.0
H268 H 0.94349 0.94733 0.16184 0.0
H269 H 0.973 0.83761 0.30809 0.0
H270 H 0.92735 0.84337 0.33509 0.0
H271 H 0.97805 0.86663 0.35376 0.0
C272 C 0.08925 0.08916 0.80901 0.0
C273 C 0.11389 0.10452 0.78201 0.0
C274 C 0.0412 0.09053 0.7941 0.0
C275 C 0.01718 0.10746 0.75087 0.0
C276 C 0.04181 0.12382 0.72437 0.0
C277 C 0.09003 0.12229 0.74046 0.0
C278 C 0.01608 0.07312 0.82376 0.0
C279 C 0.01719 0.14201 0.67796 0.0
C280 C 0.89508 0.08168 0.68531 0.0
C281 C 0.86972 0.10212 0.70408 0.0
C282 C 0.94308 0.08383 0.69887 0.0
C283 C 0.96622 0.10681 0.73234 0.0
C284 C 0.94083 0.12794 0.75049 0.0
C285 C 0.89283 0.12542 0.73597 0.0
C286 C 0.96912 0.06106 0.67841 0.0
C287 C 0.96446 0.1526 0.78653 0.0
H288 H 0.10753 0.07564 0.84152 0.0
H289 H 0.10887 0.13414 0.71935 0.0
H290 H -0.00769 0.08805 0.83546 0.0
H291 H -0.00506 0.05533 0.79943 0.0
H292 H 0.03999 0.06251 0.85819 0.0
H293 H 0.04141 0.15492 0.66354 0.0
H294 H -0.00323 0.12692 0.64736 0.0
H295 H -0.00725 0.15782 0.68658 0.0
H296 H 0.87749 0.06379 0.66028 0.0
H297 H 0.87355 0.14135 0.75067 0.0
H298 H -0.00873 0.04737 0.71004 0.0
H299 H -0.00798 0.07249 0.66035 0.0
H300 H 0.94579 0.04584 0.65015 0.0
H301 H 0.98608 0.14274 0.82288 0.0
H302 H 0.93957 0.16833 0.79462 0.0
H303 H 0.98764 0.16545 0.77064 0.0
C304 C 0.26345 0.28776 0.10192 0.0
C305 C 0.21789 0.29562 0.09625 0.0
C306 C 0.2733 0.26436 0.07306 0.0
C307 C 0.23665 0.24815 0.03884 0.0
C308 C 0.19067 0.25502 0.03538 0.0
C309 C 0.18185 0.27899 0.06353 0.0
C310 C 0.32274 0.25804 0.07718 0.0
C311 C 0.15067 0.23775 0.00059 0.0
C312 C 0.25347 0.20965 0.92369 0.0
C313 C 0.26248 0.18016 0.94091 0.0
C314 C 0.24589 0.23215 0.95558 0.0
C315 C 0.24609 0.22474 0.00525 0.0
C316 C 0.25414 0.19484 0.02231 0.0
C317 C 0.26279 0.17302 0.99018 0.0
C318 C 0.23817 0.26391 0.93633 0.0
C319 C 0.25324 0.18585 0.07433 0.0
H320 H 0.2912 0.30106 0.12656 0.0
H321 H 0.1466 0.28528 0.05907 0.0
H322 H 0.33081 0.23405 0.08564 0.0
H323 H 0.32816 0.26286 0.04033 0.0
H324 H 0.34727 0.27173 0.1071 0.0
H325 H 0.11741 0.24411 0.00583 0.0
H326 H 0.14827 0.24196 0.96052 0.0
H327 H 0.15602 0.21337 0.00737 0.0
H328 H 0.25359 0.21527 0.88582 0.0
H329 H 0.26933 0.15015 0.00349 0.0
H330 H 0.26376 0.27897 0.96237 0.0
H331 H 0.20358 0.27165 0.93559 0.0
H332 H 0.24092 0.26618 0.8976 0.0
H333 H 0.27975 0.19845 0.10393 0.0
H334 H 0.2595 0.16153 0.08154 0.0
H335 H 0.21937 0.19156 0.07848 0.0
C336 C 0.75545 0.28135 0.4176 0.0
C337 C 0.7591 0.31118 0.4337 0.0
C338 C 0.74622 0.25864 0.44802 0.0
C339 C 0.73963 0.2662 0.49485 0.0
C340 C 0.74191 0.29643 0.51032 0.0
C341 C 0.7519 0.31846 0.47976 0.0
C342 C 0.74432 0.22653 0.4306 0.0
C343 C 0.73396 0.30552 0.55927 0.0
C344 C 0.67409 0.21122 0.54949 0.0
C345 C 0.70971 0.19709 0.58722 0.0
C346 C 0.68332 0.23411 0.5198 0.0
C347 C 0.72942 0.24269 0.52742 0.0
C348 C 0.7655 0.22912 0.56652 0.0
C349 C 0.75514 0.20659 0.5964 0.0
C350 C 0.6438 0.24859 0.47949 0.0
C351 C 0.81511 0.23763 0.5755 0.0
H352 H 0.76127 0.2757 0.38219 0.0
H353 H 0.75412 0.34161 0.49205 0.0
H354 H 0.77034 0.21309 0.45933 0.0
H355 H 0.71012 0.21681 0.42691 0.0
H356 H 0.75075 0.22433 0.39361 0.0
H357 H 0.73606 0.33012 0.56524 0.0
H358 H 0.69958 0.29779 0.55932 0.0
H359 H 0.75986 0.2947 0.59188 0.0
H360 H 0.63892 0.20381 0.5424 0.0
H361 H 0.78272 0.1953 0.625 0.0
H362 H 0.64692 0.24411 0.44146 0.0
H363 H 0.64485 0.27322 0.48481 0.0
H364 H 0.60983 0.24026 0.48005 0.0
H365 H 0.82459 0.23299 0.54085 0.0
H366 H 0.83904 0.22521 0.60776 0.0
H367 H 0.81992 0.26196 0.5833 0.0
C368 C 0.70569 0.77534 0.09497 0.0
C369 C 0.72529 0.8034 0.09344 0.0
C370 C 0.71495 0.75122 0.0671 0.0
C371 C 0.7444 0.75557 0.03731 0.0
C372 C 0.76586 0.78363 0.0378 0.0
C373 C 0.75573 0.80727 0.06561 0.0
C374 C 0.69152 0.72159 0.0675 0.0
C375 C 0.79791 0.78911 0.00715 0.0
C376 C 0.79746 0.689 0.99214 0.0
C377 C 0.76997 0.68655 0.94107 0.0
C378 C 0.7891 0.71104 0.02398 0.0
C379 C 0.75213 0.73113 0.00456 0.0
C380 C 0.72398 0.72878 0.9532 0.0
C381 C 0.7334 0.7066 0.92192 0.0
C382 C 0.82029 0.71309 0.07824 0.0
C383 C 0.68406 0.7498 0.93129 0.0
H384 H 0.68128 0.77272 0.11563 0.0
H385 H 0.77012 0.82926 0.06392 0.0
H386 H 0.66731 0.71685 0.02912 0.0
H387 H 0.71722 0.70325 0.07703 0.0
H388 H 0.67205 0.7213 0.09509 0.0
H389 H 0.81397 0.81165 0.01424 0.0
H390 H 0.82559 0.77203 0.01621 0.0
H391 H 0.77861 0.78708 0.96612 0.0
H392 H 0.82604 0.67377 0.00736 0.0
H393 H 0.71182 0.70473 0.88272 0.0
H394 H 0.79976 0.71156 0.10461 0.0
H395 H 0.83796 0.73509 0.08483 0.0
H396 H 0.84679 0.69518 0.0879 0.0
H397 H 0.66036 0.74901 0.95427 0.0
H398 H 0.66435 0.74426 0.89132 0.0
H399 H 0.69681 0.77311 0.93278 0.0
C400 C 0.27483 0.70215 0.60124 0.0
C401 C 0.22902 0.69579 0.59674 0.0
C402 C 0.28552 0.72513 0.57227 0.0
C403 C 0.2495 0.74231 0.53915 0.0
C404 C 0.2034 0.73682 0.53671 0.0
C405 C 0.19372 0.71337 0.56505 0.0
C406 C 0.33502 0.73011 0.57533 0.0
C407 C 0.16409 0.7551 0.50298 0.0
C408 C 0.27454 0.8176 0.4911 0.0
C409 C 0.27154 0.81097 0.44073 0.0
C410 C 0.26824 0.79539 0.52378 0.0
C411 C 0.25946 0.76565 0.50602 0.0
C412 C 0.25716 0.75864 0.45551 0.0
C413 C 0.26273 0.78148 0.42323 0.0
C414 C 0.2698 0.80392 0.57691 0.0
C415 C 0.24843 0.72706 0.43546 0.0
H416 H 0.30197 0.68817 0.62521 0.0
H417 H 0.15825 0.70831 0.56166 0.0
H418 H 0.33938 0.72507 0.53801 0.0
H419 H 0.34466 0.75388 0.58412 0.0
H420 H 0.3591 0.71582 0.60459 0.0
H421 H 0.13064 0.74929 0.50819 0.0
H422 H 0.17066 0.7793 0.51094 0.0
H423 H 0.16125 0.75136 0.46264 0.0
H424 H 0.281 0.84041 0.50483 0.0
H425 H 0.2608 0.77618 0.38454 0.0
H426 H 0.29553 0.79005 0.60512 0.0
H427 H 0.23587 0.79952 0.5819 0.0
H428 H 0.27856 0.82788 0.58541 0.0
H429 H 0.27359 0.71154 0.46093 0.0
H430 H 0.25084 0.72493 0.39656 0.0
H431 H 0.21363 0.71978 0.43474 0.0
C432 C 0.89721 0.49744 0.89707 0.0
C433 C 0.89941 0.52537 0.87535 0.0
C434 C 0.9377 0.48286 0.92507 0.0
C435 C 0.98055 0.49705 0.93188 0.0
C436 C 0.98296 0.52299 0.90388 0.0
C437 C 0.94209 0.53651 0.8749 0.0
C438 C 0.93432 0.45388 0.95146 0.0
C439 C 0.02761 0.53886 0.90839 0.0
C440 C 0.06441 0.48505 0.06329 0.0
C441 C 0.09513 0.46507 0.05277 0.0
C442 C 0.02776 0.49671 0.02363 0.0
C443 C 0.02134 0.48707 0.97315 0.0
C444 C 0.05309 0.46742 0.96256 0.0
C445 C 0.08998 0.45693 0.00263 0.0
C446 C -0.00464 0.51876 0.03575 0.0
C447 C 0.04746 0.45689 0.90926 0.0
H448 H 0.86424 0.48844 0.89663 0.0
H449 H 0.94378 0.5577 0.85659 0.0
H450 H 0.96185 0.43815 0.94981 0.0
H451 H 0.93879 0.4584 0.99201 0.0
H452 H 0.90038 0.44292 0.93433 0.0
H453 H 0.02911 0.55998 0.92992 0.0
H454 H 0.05865 0.5255 0.9277 0.0
H455 H 0.02866 0.54503 0.87008 0.0
H456 H 0.06848 0.49095 0.10232 0.0
H457 H 0.11353 0.44114 0.99486 0.0
H458 H 0.96088 0.50848 0.02793 0.0
H459 H -0.00872 0.5388 0.01116 0.0
H460 H 0.00767 0.52603 0.07606 0.0
H461 H 0.01231 0.44785 0.89133 0.0
H462 H 0.07287 0.43935 0.90831 0.0
H463 H 0.05187 0.47607 0.88594 0.0
C464 C 0.04096 0.54483 0.60999 0.0
C465 C 0.0814 0.52898 0.6138 0.0
C466 C -0.0018 0.53301 0.58297 0.0
C467 C -0.00366 0.50403 0.5623 0.0
C468 C 0.03624 0.48579 0.57535 0.0
C469 C 0.07909 0.4988 0.60024 0.0
C470 C 0.9561 0.55274 0.57199 0.0
C471 C 0.03418 0.45357 0.55867 0.0
C472 C 0.87817 0.47667 0.48605 0.0
C473 C 0.88157 0.47698 0.43703 0.0
C474 C 0.91548 0.4848 0.5278 0.0
C475 C 0.95587 0.49543 0.51947 0.0
C476 C 0.95754 0.49869 0.46923 0.0
C477 C 0.92082 0.48826 0.42856 0.0
C478 C 0.91127 0.48066 0.58006 0.0
C479 C -0.00157 0.51247 0.45832 0.0
H480 H 0.04316 0.56787 0.62289 0.0
H481 H 0.11045 0.48631 0.60461 0.0
H482 H 0.93736 0.55341 0.53066 0.0
H483 H 0.93241 0.54356 0.59122 0.0
H484 H 0.96493 0.57601 0.58547 0.0
H485 H 0.06411 0.44069 0.58286 0.0
H486 H 0.00194 0.44282 0.56007 0.0
H487 H 0.03469 0.45242 0.519 0.0
H488 H 0.84766 0.46778 0.49235 0.0
H489 H 0.92324 0.48811 0.39047 0.0
H490 H 0.88678 0.49748 0.58593 0.0
H491 H 0.94441 0.48281 0.61107 0.0
H492 H 0.89648 0.4583 0.58287 0.0
H493 H 0.99051 0.51829 0.4176 0.0
H494 H 0.02759 0.49648 0.4685 0.0
H495 H 0.00983 0.53305 0.48128 0.0
C496 C 0.56026 0.99009 0.03241 0.0
C497 C 0.59009 0.96845 0.02473 0.0
C498 C 0.5225 -0.00046 0.99178 0.0
C499 C 0.51439 0.98636 0.94315 0.0
C500 C 0.54596 0.96557 0.935 0.0
C501 C 0.58371 0.95702 0.97606 0.0
C502 C 0.48973 0.0222 0.00163 0.0
C503 C 0.53869 0.95116 0.88385 0.0
C504 C 0.38728 0.98861 0.87856 0.0
C505 C 0.38365 0.01637 0.85474 0.0
C506 C 0.43067 0.97627 0.90281 0.0
C507 C 0.47047 0.99241 0.90288 0.0
C508 C 0.46634 0.0179 0.87184 0.0
C509 C 0.42258 0.02976 0.84809 0.0
C510 C 0.43387 0.94828 0.93403 0.0
C511 C 0.50793 0.03508 0.86959 0.0
H512 H 0.56516 0.99844 0.07041 0.0
H513 H 0.60664 0.93983 0.97085 0.0
H514 H 0.48334 0.04056 0.97342 0.0
H515 H 0.45618 0.01134 -0.00249 0.0
H516 H 0.50303 0.03203 0.04027 0.0
H517 H 0.56297 0.93238 0.88588 0.0
H518 H 0.50303 0.94257 0.86797 0.0
H519 H 0.54377 0.96805 0.85695 0.0
H520 H 0.35692 0.97853 0.8838 0.0
H521 H 0.41935 0.05143 0.8297 0.0
H522 H 0.44247 0.95448 0.97466 0.0
H523 H 0.46153 0.93337 0.93019 0.0
H524 H 0.4009 0.93571 0.92275 0.0
H525 H 0.53613 0.01979 0.86864 0.0
H526 H 0.52081 0.04913 0.90414 0.0
H527 H 0.49936 0.04984 0.83579 0.0
C528 C 0.38364 0.99726 0.41094 0.0
C529 C 0.38374 0.9765 0.37329 0.0
C530 C 0.42487 0.00983 0.44146 0.0
C531 C 0.46648 0.002 0.43264 0.0
C532 C 0.46582 0.98394 0.39064 0.0
C533 C 0.42424 0.97112 0.36153 0.0
C534 C 0.42436 0.02897 0.48614 0.0
C535 C 0.50939 0.97597 0.37921 0.0
C536 C 0.56695 0.04934 0.50495 0.0
C537 C 0.58745 0.03143 0.54745 0.0
C538 C 0.5293 0.03919 0.46547 0.0
C539 C 0.51067 0.0109 0.46978 0.0
C540 C 0.53204 0.99224 0.512 0.0
C541 C 0.5709 0.0027 0.55043 0.0
C542 C 0.50816 0.05938 0.42056 0.0
C543 C 0.51249 0.96197 0.51773 0.0
H544 H 0.35235 0.00101 0.42042 0.0
H545 H 0.42406 0.95488 0.3324 0.0
H546 H 0.44342 0.05011 0.48668 0.0
H547 H 0.38885 0.03451 0.4856 0.0
H548 H 0.44192 0.01691 0.52194 0.0
H549 H 0.50204 0.96657 0.34041 0.0
H550 H 0.5318 0.99587 0.383 0.0
H551 H 0.52886 0.95902 0.40684 0.0
H552 H 0.57968 0.07178 0.50318 0.0
H553 H 0.58691 0.98911 0.58363 0.0
H554 H 0.47544 0.06877 0.42307 0.0
H555 H 0.49997 0.04661 0.38452 0.0
H556 H 0.53126 0.07825 0.41905 0.0
H557 H 0.47774 0.96476 0.52154 0.0
H558 H 0.53448 0.94967 0.55142 0.0
H559 H 0.50857 0.94816 0.48343 0.0
C560 C 0.04124 0.36442 0.18619 0.0
C561 C 0.08369 0.3501 0.20712 0.0
C562 C 0.00664 0.36198 0.20903 0.0
C563 C 0.01422 0.34398 0.25285 0.0
C564 C 0.05598 0.32797 0.27221 0.0
C565 C 0.09064 0.33168 0.24966 0.0
C566 C 0.96303 0.38001 0.18789 0.0
C567 C 0.06464 0.30772 0.31769 0.0
C568 C 0.9473 0.36762 0.34015 0.0
C569 C 0.90747 0.3502 0.32183 0.0
C570 C 0.98319 0.36504 0.31923 0.0
C571 C 0.97969 0.34385 0.28023 0.0
C572 C 0.94111 0.32458 0.26446 0.0
C573 C 0.90497 0.32838 0.28478 0.0
C574 C 0.02322 0.38651 0.33632 0.0
C575 C 0.93694 0.30097 0.22437 0.0
H576 H 0.03606 0.37894 0.15365 0.0
H577 H 0.12344 0.32049 0.26569 0.0
H578 H 0.93253 0.36516 0.17894 0.0
H579 H 0.95998 0.39636 0.21675 0.0
H580 H 0.96213 0.39242 0.15299 0.0
H581 H 0.09604 0.29387 0.32376 0.0
H582 H 0.06888 0.32136 0.35223 0.0
H583 H 0.03479 0.29268 0.31308 0.0
H584 H 0.949 0.38477 0.36832 0.0
H585 H 0.87418 0.31484 0.27072 0.0
H586 H 0.02305 0.40143 0.30438 0.0
H587 H 0.05627 0.37412 0.34752 0.0
H588 H 0.02192 0.40059 0.3688 0.0
H589 H 0.92983 0.31179 0.18679 0.0
H590 H 0.90874 0.2849 0.2222 0.0
H591 H 0.96967 0.28839 0.23213 0.0
C592 C 0.03744 0.6376 0.6719 0.0
C593 C 0.08037 0.65076 0.6961 0.0
C594 C 0.00044 0.64137 0.69076 0.0
C595 C 0.00616 0.65932 0.73439 0.0
C596 C 0.04824 0.67464 0.75649 0.0
C597 C 0.08515 0.66978 0.73764 0.0
C598 C 0.95683 0.62399 0.66586 0.0
C599 C 0.05494 0.69511 0.8015 0.0
C600 C 0.89528 0.67423 0.76462 0.0
C601 C 0.8985 0.65299 0.80258 0.0
C602 C 0.93143 0.67793 0.7441 0.0
C603 C 0.97046 0.65896 0.76033 0.0
C604 C 0.97385 0.63771 0.79905 0.0
C605 C 0.93828 0.63544 0.82038 0.0
C606 C 0.92704 0.70114 0.70352 0.0
C607 C 0.01368 0.61604 0.81589 0.0
H608 H 0.03336 0.6228 0.63983 0.0
H609 H 0.11806 0.68034 0.75612 0.0
H610 H 0.96088 0.601 0.68171 0.0
H611 H 0.92607 0.63416 0.67202 0.0
H612 H 0.95045 0.62213 0.62435 0.0
H613 H 0.08646 0.70898 0.80894 0.0
H614 H 0.02479 0.71011 0.79529 0.0
H615 H 0.05792 0.6816 0.83583 0.0
H616 H 0.86439 0.68769 0.75072 0.0
H617 H 0.94041 0.6186 0.84907 0.0
H618 H 0.92187 0.68988 0.66653 0.0
H619 H 0.95913 0.7145 0.71214 0.0
H620 H 0.89764 0.71653 0.69968 0.0
H621 H 0.01398 0.6016 0.78347 0.0
H622 H 0.0117 0.60148 0.84747 0.0
H623 H 0.0468 0.62831 0.8284 0.0
C624 C 0.43001 0.86706 0.31001 0.0
C625 C 0.39025 0.8495 0.29181 0.0
C626 C 0.46421 0.86659 0.28646 0.0
C627 C 0.45942 0.84723 0.24471 0.0
C628 C 0.42027 0.82845 0.22749 0.0
C629 C 0.38558 0.83028 0.25059 0.0
C630 C 0.50456 0.88773 0.30509 0.0
C631 C 0.41471 0.80683 0.18422 0.0
C632 C 0.52704 0.87057 0.15765 0.0
C633 C 0.56872 0.85553 0.17956 0.0
C634 C 0.49031 0.86722 0.17723 0.0
C635 C 0.49501 0.84758 0.21858 0.0
C636 C 0.53595 0.83075 0.23836 0.0
C637 C 0.57269 0.83539 0.21929 0.0
C638 C 0.44783 0.88627 0.15601 0.0
C639 C 0.54176 0.80885 0.28122 0.0
H640 H 0.43329 0.88244 0.34118 0.0
H641 H 0.35474 0.81682 0.23632 0.0
H642 H 0.53723 0.87494 0.31738 0.0
H643 H 0.50592 0.90269 0.27377 0.0
H644 H 0.50259 0.9018 0.33733 0.0
H645 H 0.38467 0.79179 0.17867 0.0
H646 H 0.41009 0.81937 0.14855 0.0
H647 H 0.44618 0.79297 0.19122 0.0
H648 H 0.5242 0.88641 0.12729 0.0
H649 H 0.60491 0.82365 0.23605 0.0
H650 H 0.44542 0.90257 0.18523 0.0
H651 H 0.41641 0.87225 0.14618 0.0
H652 H 0.44822 0.89884 0.1217 0.0
H653 H 0.54553 0.82123 0.31692 0.0
H654 H 0.57252 0.79441 0.28707 0.0
H655 H 0.51088 0.79439 0.27366 0.0
C656 C 0.54533 0.12574 0.69796 0.0
C657 C 0.58678 0.14165 0.71399 0.0
C658 C 0.51225 0.12912 0.72267 0.0
C659 C 0.52003 0.14981 0.76323 0.0
C660 C 0.56094 0.16705 0.77797 0.0
C661 C 0.5944 0.16221 0.75393 0.0
C662 C 0.46976 0.10964 0.70661 0.0
C663 C 0.57006 0.19006 0.81977 0.0
C664 C 0.40924 0.16566 0.7915 0.0
C665 C 0.41191 0.14484 0.83013 0.0
C666 C 0.446 0.16948 0.77213 0.0
C667 C 0.48607 0.1518 0.79134 0.0
C668 C 0.49055 0.13274 0.83323 0.0
C669 C 0.45348 0.12951 0.8522 0.0
C670 C 0.44084 0.1911 0.72904 0.0
C671 C 0.5333 0.11415 0.85568 0.0
H672 H 0.53968 0.10956 0.66746 0.0
H673 H 0.62646 0.17459 0.76623 0.0
H674 H 0.46832 0.09566 0.73904 0.0
H675 H 0.43838 0.12376 0.6952 0.0
H676 H 0.46899 0.09464 0.67445 0.0
H677 H 0.59567 0.20692 0.81669 0.0
H678 H 0.53801 0.20183 0.81921 0.0
H679 H 0.58407 0.17882 0.85702 0.0
H680 H 0.37764 0.17803 0.77472 0.0
H681 H 0.45621 0.11354 0.88232 0.0
H682 H 0.43511 0.17845 0.69319 0.0
H683 H 0.47273 0.20444 0.73558 0.0
H684 H 0.4114 0.2066 0.72413 0.0
H685 H 0.56437 0.12847 0.86522 0.0
H686 H 0.53644 0.09748 0.82733 0.0
H687 H 0.53291 0.10226 0.89056 0.0
C688 C 0.18601 0.43686 0.95069 0.0
C689 C 0.21675 0.4382 0.00022 0.0
C690 C 0.18583 0.45934 0.91515 0.0
C691 C 0.21638 0.48397 0.92998 0.0
C692 C 0.24686 0.48561 0.98009 0.0
C693 C 0.24712 0.46261 0.01421 0.0
C694 C 0.15339 0.45661 0.86167 0.0
C695 C 0.27957 0.51162 -0.00229 0.0
C696 C 0.25801 0.52276 0.83199 0.0
C697 C 0.23044 0.54854 0.8208 0.0
C698 C 0.25319 0.50159 0.86683 0.0
C699 C 0.22043 0.5064 0.89213 0.0
C700 C 0.19366 0.53298 0.88279 0.0
C701 C 0.19895 0.55385 0.84701 0.0
C702 C 0.28248 0.47364 0.87558 0.0
C703 C 0.15885 0.53897 0.90974 0.0
H704 H 0.16211 0.41832 0.9398 0.0
H705 H 0.27046 0.46437 0.05265 0.0
H706 H 0.13002 0.47621 0.85247 0.0
H707 H 0.17318 0.45651 0.83444 0.0
H708 H 0.13227 0.43593 0.85596 0.0
H709 H 0.29826 0.51081 0.03908 0.0
H710 H 0.30526 0.51158 0.97718 0.0
H711 H 0.2605 0.53309 0.98896 0.0
H712 H 0.28259 0.51861 0.81197 0.0
H713 H 0.17716 0.57351 0.83796 0.0
H714 H 0.26016 0.45351 0.86732 0.0
H715 H 0.30419 0.47232 0.9159 0.0
H716 H 0.30534 0.47291 0.85155 0.0
H717 H 0.13255 0.521 0.9008 0.0
H718 H 0.14121 0.56082 0.89887 0.0
H719 H 0.17596 0.53871 0.9514 0.0
C720 C 0.71738 0.47668 0.47611 0.0
C721 C 0.75048 0.45381 0.49087 0.0
C722 C 0.71445 0.4992 0.51003 0.0
C723 C 0.74458 0.49856 0.56039 0.0
C724 C 0.77727 0.47517 0.57609 0.0
C725 C 0.78005 0.45316 0.54102 0.0
C726 C 0.67955 0.52397 0.49173 0.0
C727 C 0.80926 0.47338 0.62996 0.0
C728 C 0.76528 0.56685 0.64691 0.0
C729 C 0.7371 0.56006 0.67635 0.0
C730 C 0.76681 0.54761 0.60727 0.0
C731 C 0.73975 0.52117 0.59762 0.0
C732 C 0.70916 0.51545 0.62532 0.0
C733 C 0.70809 0.53505 0.66411 0.0
C734 C 0.79931 0.55463 0.57786 0.0
C735 C 0.67974 0.48759 0.61637 0.0
H736 H 0.69473 0.47776 0.43727 0.0
H737 H 0.80588 0.43574 0.55261 0.0
H738 H 0.65506 0.52393 0.51376 0.0
H739 H 0.69717 0.54599 0.49804 0.0
H740 H 0.65968 0.52178 0.45082 0.0
H741 H 0.82942 0.49435 0.64023 0.0
H742 H 0.78891 0.47097 0.65639 0.0
H743 H 0.83355 0.45426 0.63575 0.0
H744 H 0.78819 0.58594 0.65694 0.0
H745 H 0.68635 0.52985 0.68712 0.0
H746 H 0.78191 0.5516 0.53658 0.0
H747 H 0.82885 0.53893 0.58922 0.0
H748 H 0.81283 0.57784 0.58485 0.0
H749 H 0.65904 0.48565 0.57577 0.0
H750 H 0.656 0.48734 0.6394 0.0
H751 H 0.70215 0.46752 0.62618 0.0
C752 C 0.79577 0.47282 0.2039 0.0
C753 C 0.7756 0.44423 0.19579 0.0
C754 C 0.80095 0.4898 0.16399 0.0
C755 C 0.78637 0.47782 0.11444 0.0
C756 C 0.76874 0.44824 0.10614 0.0
C757 C 0.76339 0.43172 0.14706 0.0
C758 C 0.81975 0.52125 0.17463 0.0
C759 C 0.75389 0.43457 0.05381 0.0
C760 C 0.74797 0.53611 0.01082 0.0
C761 C 0.78788 0.54005 -0.00264 0.0
C762 C 0.74677 0.51539 0.04814 0.0
C763 C 0.78603 0.49756 0.0714 0.0
C764 C 0.82615 0.50099 0.05705 0.0
C765 C 0.82684 0.52258 0.02068 0.0
C766 C 0.70377 0.51302 0.06339 0.0
C767 C 0.8683 0.48195 0.08015 0.0
H768 H 0.8065 0.4825 0.24163 0.0
H769 H 0.74823 0.40958 0.14057 0.0
H770 H 0.84903 0.52438 0.15983 0.0
H771 H 0.7927 0.53756 0.15489 0.0
H772 H 0.83157 0.52665 0.21577 0.0
H773 H 0.74666 0.41026 0.05469 0.0
H774 H 0.72226 0.44588 0.02983 0.0
H775 H 0.78083 0.43786 0.03545 0.0
H776 H 0.71773 0.54942 0.99225 0.0
H777 H 0.85731 0.52507 0.00916 0.0
H778 H 0.71178 0.51906 0.10402 0.0
H779 H 0.69098 0.48965 0.05893 0.0
H780 H 0.67583 0.5279 0.04059 0.0
H781 H 0.8843 0.48803 0.12063 0.0
H782 H 0.89439 0.48479 0.06042 0.0
H783 H 0.85862 0.45797 0.0788 0.0
C784 C 0.24012 0.48614 0.29955 0.0
C785 C 0.22814 0.45585 0.30061 0.0
C786 C 0.23793 0.5061 0.33759 0.0
C787 C 0.22297 0.4957 0.37769 0.0
C788 C 0.21108 0.46512 0.37936 0.0
C789 C 0.21416 0.44545 0.34093 0.0
C790 C 0.25167 0.53835 0.33482 0.0
C791 C 0.19467 0.45329 0.42146 0.0
C792 C 0.2564 0.53868 0.50186 0.0
C793 C 0.21581 0.55436 0.4982 0.0
C794 C 0.25952 0.52009 0.46242 0.0
C795 C 0.22087 0.51677 0.41844 0.0
C796 C 0.18039 0.53353 0.41356 0.0
C797 C 0.17846 0.55236 0.45344 0.0
C798 C 0.30365 0.50317 0.46866 0.0
C799 C 0.13844 0.53052 0.36726 0.0
H800 H 0.25145 0.49436 0.26881 0.0
H801 H 0.20458 0.42217 0.34178 0.0
H802 H 0.22236 0.55331 0.33324 0.0
H803 H 0.28025 0.54433 0.36947 0.0
H804 H 0.26281 0.54282 0.30118 0.0
H805 H 0.18591 0.42912 0.41681 0.0
H806 H 0.22169 0.45664 0.45858 0.0
H807 H 0.16383 0.46592 0.4226 0.0
H808 H 0.28533 0.54016 0.5365 0.0
H809 H 0.14677 0.56403 0.45085 0.0
H810 H 0.31592 0.50734 0.43577 0.0
H811 H 0.29736 0.47879 0.46979 0.0
H812 H 0.33136 0.50956 0.50391 0.0
H813 H 0.14754 0.53515 0.33242 0.0
H814 H 0.11033 0.54592 0.36842 0.0
H815 H 0.12541 0.50721 0.36431 0.0
C816 C 0.68946 0.93413 0.93611 0.0
C817 C 0.72516 0.93282 0.98251 0.0
C818 C 0.69203 0.9535 0.89736 0.0
C819 C 0.73157 0.97159 0.90491 0.0
C820 C 0.7692 0.96857 0.94991 0.0
C821 C 0.7656 0.94921 0.98808 0.0
C822 C 0.65125 0.95583 0.84968 0.0
C823 C 0.81244 0.98692 0.95885 0.0
C824 C 0.75115 0.00654 0.78944 0.0
C825 C 0.73537 0.03593 0.79103 0.0
C826 C 0.75059 0.98554 0.82652 0.0
C827 C 0.73344 0.99399 0.86611 0.0
C828 C 0.71812 0.02374 0.86856 0.0
C829 C 0.71963 0.04451 0.83112 0.0
C830 C 0.76752 0.95415 0.82275 0.0
C831 C 0.69918 0.0334 0.91008 0.0
H832 H 0.65844 0.92119 0.93089 0.0
H833 H 0.79374 0.94815 0.02344 0.0
H834 H 0.66246 0.95648 0.81548 0.0
H835 H 0.62698 0.93686 0.84583 0.0
H836 H 0.6325 0.97695 0.85069 0.0
H837 H 0.8398 0.98041 0.99427 0.0
H838 H 0.82603 0.9844 0.92653 0.0
H839 H 0.80439 0.01095 0.96146 0.0
H840 H 0.76376 -0.00018 0.75875 0.0
H841 H 0.70707 0.0671 0.83224 0.0
H842 H 0.73901 0.93798 0.81801 0.0
H843 H 0.79506 0.94817 0.85827 0.0
H844 H 0.78114 0.95146 0.79042 0.0
H845 H 0.66854 0.01972 0.90846 0.0
H846 H 0.68917 0.05739 0.90701 0.0
H847 H 0.72517 0.02956 0.94773 0.0
C848 C 0.27472 0.07324 0.64138 0.0
C849 C 0.26674 0.06035 0.68369 0.0
C850 C 0.2823 0.05495 0.60336 0.0
C851 C 0.28274 0.02335 0.60875 0.0
C852 C 0.27786 0.01058 0.65319 0.0
C853 C 0.26951 0.02917 0.68969 0.0
C854 C 0.28733 0.06932 0.55635 0.0
C855 C 0.27895 0.9771 0.66111 0.0
C856 C 0.23948 0.97168 0.49567 0.0
C857 C 0.28042 0.95929 0.49213 0.0
C858 C 0.24007 0.99351 0.53206 0.0
C859 C 0.28266 0.00319 0.56613 0.0
C860 C 0.32423 0.99098 0.5627 0.0
C861 C 0.32263 0.96912 0.52575 0.0
C862 C 0.19492 0.00583 0.53459 0.0
C863 C 0.37028 0.00075 0.59839 0.0
H864 H 0.27295 0.09733 0.63691 0.0
H865 H 0.26432 0.01909 0.7229 0.0
H866 H 0.31655 0.05929 0.54657 0.0
H867 H 0.25573 0.06517 0.52391 0.0
H868 H 0.29271 0.09386 0.56095 0.0
H869 H 0.27961 0.97101 0.70007 0.0
H870 H 0.24803 0.96682 0.63371 0.0
H871 H 0.30957 0.96718 0.6541 0.0
H872 H 0.20672 0.96443 0.46967 0.0
H873 H 0.3545 0.96015 0.52263 0.0
H874 H 0.19529 0.03064 0.53359 0.0
H875 H 0.18989 -0.00086 0.57089 0.0
H876 H 0.16506 0.99769 0.50289 0.0
H877 H 0.37352 0.02544 0.59754 0.0
H878 H 0.39948 0.99048 0.58873 0.0
H879 H 0.373 0.99444 0.63783 0.0
C880 C 0.25588 0.92444 0.14478 0.0
C881 C 0.22669 0.93385 0.17164 0.0
C882 C 0.26062 0.94168 0.10447 0.0
C883 C 0.23509 0.96856 0.09079 0.0
C884 C 0.20319 0.97687 0.11566 0.0
C885 C 0.19963 0.95949 0.15602 0.0
C886 C 0.29497 0.93215 0.07872 0.0
C887 C 0.17477 0.00506 0.10167 0.0
C888 C 0.28242 0.03193 0.03102 0.0
C889 C 0.25673 0.02872 0.97971 0.0
C890 C 0.27615 0.01219 0.06756 0.0
C891 C 0.2432 0.98891 0.05235 0.0
C892 C 0.21668 0.98588 0.0008 0.0
C893 C 0.22377 0.00578 0.96515 0.0
C894 C 0.30499 0.01609 0.12239 0.0
C895 C 0.18085 0.9616 0.98326 0.0
H896 H 0.27733 0.90486 0.15752 0.0
H897 H 0.17713 0.96673 0.17707 0.0
H898 H 0.27877 0.93215 0.03693 0.0
H899 H 0.32384 0.94837 0.08783 0.0
H900 H 0.30923 0.90953 0.09088 0.0
H901 H 0.14875 0.0069 0.12171 0.0
H902 H 0.19766 0.02489 0.11151 0.0
H903 H 0.15679 0.0058 0.06021 0.0
H904 H 0.30814 0.04942 0.0425 0.0
H905 H 0.20352 0.00317 0.92559 0.0
H906 H 0.32441 0.99524 0.13665 0.0
H907 H 0.28239 0.02036 0.14593 0.0
H908 H 0.3298 0.03487 0.12783 0.0
H909 H 0.19702 0.93932 0.9937 0.0
H910 H 0.16342 0.9621 0.94161 0.0
H911 H 0.15442 0.96407 0.00256 0.0
C912 C 0.74183 0.05634 0.47077 0.0
C913 C 0.70054 0.06643 0.47694 0.0
C914 C 0.74174 0.03754 0.4303 0.0
C915 C 0.69932 0.02847 0.39516 0.0
C916 C 0.6576 0.03985 0.39949 0.0
C917 C 0.65873 0.05892 0.44008 0.0
C918 C 0.78703 0.02638 0.4264 0.0
C919 C 0.61171 0.03083 0.36254 0.0
C920 C 0.70344 0.99711 0.26997 0.0
C921 C 0.70429 0.96604 0.27842 0.0
C922 C 0.7009 0.01757 0.30718 0.0
C923 C 0.69887 0.00688 0.35419 0.0
C924 C 0.69851 0.97562 0.36277 0.0
C925 C 0.7014 0.95554 0.32483 0.0
C926 C 0.70159 0.05069 0.2966 0.0
C927 C 0.69583 0.96344 0.41236 0.0
H928 H 0.77434 0.06215 0.49883 0.0
H929 H 0.62664 0.06659 0.44433 0.0
H930 H 0.78922 0.00175 0.43161 0.0
H931 H 0.78939 0.03114 0.38815 0.0
H932 H 0.81702 0.03676 0.45521 0.0
H933 H 0.58248 0.04222 0.37043 0.0
H934 H 0.61054 0.03614 0.3232 0.0
H935 H 0.6071 0.00629 0.36444 0.0
H936 H 0.70557 0.00568 0.23434 0.0
H937 H 0.70174 0.93167 0.33171 0.0
H938 H 0.73295 0.06095 0.32324 0.0
H939 H 0.67153 0.06186 0.30288 0.0
H940 H 0.70114 0.05535 0.2572 0.0
H941 H 0.72662 0.97051 0.44381 0.0
H942 H 0.69375 0.93863 0.41227 0.0
H943 H 0.66525 0.97271 0.4204 0.0
loop_
_geom_bond_atom_site_label_1
_geom_bond_atom_site_label_2
_geom_bond_distance
_geom_bond_site_symmetry_2
_ccdc_geom_bond_type
Sc0 O3 2.025 . S
Sc0 O10 2.105 . S
Sc0 O13 2.105 . S
Sc0 O16 2.105 . S
Sc0 O19 2.105 . S
Sc1 O3 2.025 . S
Sc1 O11 2.105 . S
Sc1 O15 2.105 . S
Sc1 O17 2.105 . S
Sc1 O21 2.105 . S
Sc2 O3 2.025 . S
Sc2 O12 2.105 . S
Sc2 O14 2.105 . S
Sc2 O18 2.105 . S
Sc2 O20 2.105 . S
O3 Sc0 2.025 . S
O3 Sc1 2.025 . S
O3 Sc2 2.025 . S
C4 O10 1.268 . S
C4 O20 1.268 . S
C5 O11 1.268 . S
C5 O19 1.268 . S
C6 O12 1.268 . S
C6 O21 1.268 . S
C7 O13 1.268 . S
C7 O17 1.268 . S
C8 O14 1.268 . S
C8 O16 1.268 . S
C9 O15 1.268 . S
C9 O18 1.268 . S
O10 Sc0 2.105 . S
O10 C4 1.268 . S
O11 Sc1 2.105 . S
O11 C5 1.268 . S
O12 Sc2 2.105 . S
O12 C6 1.268 . S
O13 Sc0 2.105 . S
O13 C7 1.268 . S
O14 Sc2 2.105 . S
O14 C8 1.268 . S
O15 Sc1 2.105 . S
O15 C9 1.268 . S
O16 Sc0 2.105 . S
O16 C8 1.268 . S
O17 Sc1 2.105 . S
O17 C7 1.268 . S
O18 Sc2 2.105 . S
O18 C9 1.268 . S
O19 Sc0 2.105 . S
O19 C5 1.268 . S
O20 Sc2 2.105 . S
O20 C4 1.268 . S
O21 Sc1 2.105 . S
O21 C6 1.268 . S
Sc22 O25 2.025 . S
Sc22 O32 2.105 . S
Sc22 O35 2.105 . S
Sc22 O38 2.105 . S
Sc22 O41 2.105 . S
Sc23 O25 2.025 . S
Sc23 O33 2.105 . S
Sc23 O37 2.105 . S
Sc23 O39 2.105 . S
Sc23 O43 2.105 . S
Sc24 O25 2.025 . S
Sc24 O34 2.105 . S
Sc24 O36 2.105 . S
Sc24 O40 2.105 . S
Sc24 O42 2.105 . S
O25 Sc22 2.025 . S
O25 Sc23 2.025 . S
O25 Sc24 2.025 . S
C26 O32 1.268 . S
C26 O42 1.268 . S
C27 O33 1.268 . S
C27 O41 1.268 . S
C28 O34 1.268 . S
C28 O43 1.268 . S
C29 O35 1.268 . S
C29 O39 1.268 . S
C30 O36 1.268 . S
C30 O38 1.268 . S
C31 O37 1.268 . S
C31 O40 1.268 . S
O32 Sc22 2.105 . S
O32 C26 1.268 . S
O33 Sc23 2.105 . S
O33 C27 1.268 . S
O34 Sc24 2.105 . S
O34 C28 1.268 . S
O35 Sc22 2.105 . S
O35 C29 1.268 . S
O36 Sc24 2.105 . S
O36 C30 1.268 . S
O37 Sc23 2.105 . S
O37 C31 1.268 . S
O38 Sc22 2.105 . S
O38 C30 1.268 . S
O39 Sc23 2.105 . S
O39 C29 1.268 . S
O40 Sc24 2.105 . S
O40 C31 1.268 . S
O41 Sc22 2.105 . S
O41 C27 1.268 . S
O42 Sc24 2.105 . S
O42 C26 1.268 . S
O43 Sc23 2.105 . S
O43 C28 1.268 . S
Sc44 O47 2.025 . S
Sc44 O54 2.105 . S
Sc44 O57 2.105 . S
Sc44 O60 2.105 . S
Sc44 O63 2.105 . S
Sc45 O47 2.025 . S
Sc45 O55 2.105 . S
Sc45 O59 2.105 . S
Sc45 O61 2.105 . S
Sc45 O65 2.105 . S
Sc46 O47 2.025 . S
Sc46 O56 2.105 . S
Sc46 O58 2.105 . S
Sc46 O62 2.105 . S
Sc46 O64 2.105 . S
O47 Sc44 2.025 . S
O47 Sc45 2.025 . S
O47 Sc46 2.025 . S
C48 O54 1.268 . S
C48 O64 1.268 . S
C49 O55 1.268 . S
C49 O63 1.268 . S
C50 O56 1.268 . S
C50 O65 1.268 . S
C51 O57 1.268 . S
C51 O61 1.268 . S
C52 O58 1.268 . S
C52 O60 1.268 . S
C53 O59 1.268 . S
C53 O62 1.268 . S
O54 Sc44 2.105 . S
O54 C48 1.268 . S
O55 Sc45 2.105 . S
O55 C49 1.268 . S
O56 Sc46 2.105 . S
O56 C50 1.268 . S
O57 Sc44 2.105 . S
O57 C51 1.268 . S
O58 Sc46 2.105 . S
O58 C52 1.268 . S
O59 Sc45 2.105 . S
O59 C53 1.268 . S
O60 Sc44 2.105 . S
O60 C52 1.268 . S
O61 Sc45 2.105 . S
O61 C51 1.268 . S
O62 Sc46 2.105 . S
O62 C53 1.268 . S
O63 Sc44 2.105 . S
O63 C49 1.268 . S
O64 Sc46 2.105 . S
O64 C48 1.268 . S
O65 Sc45 2.105 . S
O65 C50 1.268 . S
Sc66 O69 2.025 . S
Sc66 O76 2.105 . S
Sc66 O79 2.105 . S
Sc66 O82 2.105 . S
Sc66 O85 2.105 . S
Sc67 O69 2.025 . S
Sc67 O77 2.105 . S
Sc67 O81 2.105 . S
Sc67 O83 2.105 . S
Sc67 O87 2.105 . S
Sc68 O69 2.025 . S
Sc68 O78 2.105 . S
Sc68 O80 2.105 . S
Sc68 O84 2.105 . S
Sc68 O86 2.105 . S
O69 Sc66 2.025 . S
O69 Sc67 2.025 . S
O69 Sc68 2.025 . S
C70 O76 1.268 . S
C70 O86 1.268 . S
C71 O77 1.268 . S
C71 O85 1.268 . S
C72 O78 1.268 . S
C72 O87 1.268 . S
C73 O79 1.268 . S
C73 O83 1.268 . S
C74 O80 1.268 . S
C74 O82 1.268 . S
C75 O81 1.268 . S
C75 O84 1.268 . S
O76 Sc66 2.105 . S
O76 C70 1.268 . S
O77 Sc67 2.105 . S
O77 C71 1.268 . S
O78 Sc68 2.105 . S
O78 C72 1.268 . S
O79 Sc66 2.105 . S
O79 C73 1.268 . S
O80 Sc68 2.105 . S
O80 C74 1.268 . S
O81 Sc67 2.105 . S
O81 C75 1.268 . S
O82 Sc66 2.105 . S
O82 C74 1.268 . S
O83 Sc67 2.105 . S
O83 C73 1.268 . S
O84 Sc68 2.105 . S
O84 C75 1.268 . S
O85 Sc66 2.105 . S
O85 C71 1.268 . S
O86 Sc68 2.105 . S
O86 C70 1.268 . S
O87 Sc67 2.105 . S
O87 C72 1.268 . S
Sc88 O91 2.025 . S
Sc88 O98 2.105 . S
Sc88 O101 2.105 . S
Sc88 O104 2.105 . S
Sc88 O107 2.105 . S
Sc89 O91 2.025 . S
Sc89 O99 2.105 . S
Sc89 O103 2.105 . S
Sc89 O105 2.105 . S
Sc89 O109 2.105 . S
Sc90 O91 2.025 . S
Sc90 O100 2.105 . S
Sc90 O102 2.105 . S
Sc90 O106 2.105 . S
Sc90 O108 2.105 . S
O91 Sc88 2.025 . S
O91 Sc89 2.025 . S
O91 Sc90 2.025 . S
C92 O98 1.268 . S
C92 O108 1.268 . S
C93 O99 1.268 . S
C93 O107 1.268 . S
C94 O100 1.268 . S
C94 O109 1.268 . S
C95 O101 1.268 . S
C95 O105 1.268 . S
C96 O102 1.268 . S
C96 O104 1.268 . S
C97 O103 1.268 . S
C97 O106 1.268 . S
O98 Sc88 2.105 . S
O98 C92 1.268 . S
O99 Sc89 2.105 . S
O99 C93 1.268 . S
O100 Sc90 2.105 . S
O100 C94 1.268 . S
O101 Sc88 2.105 . S
O101 C95 1.268 . S
O102 Sc90 2.105 . S
O102 C96 1.268 . S
O103 Sc89 2.105 . S
O103 C97 1.268 . S
O104 Sc88 2.105 . S
O104 C96 1.268 . S
O105 Sc89 2.105 . S
O105 C95 1.268 . S
O106 Sc90 2.105 . S
O106 C97 1.268 . S
O107 Sc88 2.105 . S
O107 C93 1.268 . S
O108 Sc90 2.105 . S
O108 C92 1.268 . S
O109 Sc89 2.105 . S
O109 C94 1.268 . S
Sc110 O113 2.025 . S
Sc110 O120 2.105 . S
Sc110 O123 2.105 . S
Sc110 O126 2.105 . S
Sc110 O129 2.105 . S
Sc111 O113 2.025 . S
Sc111 O121 2.105 . S
Sc111 O125 2.105 . S
Sc111 O127 2.105 . S
Sc111 O131 2.105 . S
Sc112 O113 2.025 . S
Sc112 O122 2.105 . S
Sc112 O124 2.105 . S
Sc112 O128 2.105 . S
Sc112 O130 2.105 . S
O113 Sc110 2.025 . S
O113 Sc111 2.025 . S
O113 Sc112 2.025 . S
C114 O120 1.268 . S
C114 O130 1.268 . S
C115 O121 1.268 . S
C115 O129 1.268 . S
C116 O122 1.268 . S
C116 O131 1.268 . S
C117 O123 1.268 . S
C117 O127 1.268 . S
C118 O124 1.268 . S
C118 O126 1.268 . S
C119 O125 1.268 . S
C119 O128 1.268 . S
O120 Sc110 2.105 . S
O120 C114 1.268 . S
O121 Sc111 2.105 . S
O121 C115 1.268 . S
O122 Sc112 2.105 . S
O122 C116 1.268 . S
O123 Sc110 2.105 . S
O123 C117 1.268 . S
O124 Sc112 2.105 . S
O124 C118 1.268 . S
O125 Sc111 2.105 . S
O125 C119 1.268 . S
O126 Sc110 2.105 . S
O126 C118 1.268 . S
O127 Sc111 2.105 . S
O127 C117 1.268 . S
O128 Sc112 2.105 . S
O128 C119 1.268 . S
O129 Sc110 2.105 . S
O129 C115 1.268 . S
O130 Sc112 2.105 . S
O130 C114 1.268 . S
O131 Sc111 2.105 . S
O131 C116 1.268 . S
Sc132 O135 2.025 . S
Sc132 O142 2.105 . S
Sc132 O145 2.105 . S
Sc132 O148 2.105 . S
Sc132 O151 2.105 . S
Sc133 O135 2.025 . S
Sc133 O143 2.105 . S
Sc133 O147 2.105 . S
Sc133 O149 2.105 . S
Sc133 O153 2.105 . S
Sc134 O135 2.025 . S
Sc134 O144 2.105 . S
Sc134 O146 2.105 . S
Sc134 O150 2.105 . S
Sc134 O152 2.105 . S
O135 Sc132 2.025 . S
O135 Sc133 2.025 . S
O135 Sc134 2.025 . S
C136 O142 1.268 . S
C136 O152 1.268 . S
C137 O143 1.268 . S
C137 O151 1.268 . S
C138 O144 1.268 . S
C138 O153 1.268 . S
C139 O145 1.268 . S
C139 O149 1.268 . S
C140 O146 1.268 . S
C140 O148 1.268 . S
C141 O147 1.268 . S
C141 O150 1.268 . S
O142 Sc132 2.105 . S
O142 C136 1.268 . S
O143 Sc133 2.105 . S
O143 C137 1.268 . S
O144 Sc134 2.105 . S
O144 C138 1.268 . S
O145 Sc132 2.105 . S
O145 C139 1.268 . S
O146 Sc134 2.105 . S
O146 C140 1.268 . S
O147 Sc133 2.105 . S
O147 C141 1.268 . S
O148 Sc132 2.105 . S
O148 C140 1.268 . S
O149 Sc133 2.105 . S
O149 C139 1.268 . S
O150 Sc134 2.105 . S
O150 C141 1.268 . S
O151 Sc132 2.105 . S
O151 C137 1.268 . S
O152 Sc134 2.105 . S
O152 C136 1.268 . S
O153 Sc133 2.105 . S
O153 C138 1.268 . S
Sc154 O157 2.025 . S
Sc154 O164 2.105 . S
Sc154 O167 2.105 . S
Sc154 O170 2.105 . S
Sc154 O173 2.105 . S
Sc155 O157 2.025 . S
Sc155 O165 2.105 . S
Sc155 O169 2.105 . S
Sc155 O171 2.105 . S
Sc155 O175 2.105 . S
Sc156 O157 2.025 . S
Sc156 O166 2.105 . S
Sc156 O168 2.105 . S
Sc156 O172 2.105 . S
Sc156 O174 2.105 . S
O157 Sc154 2.025 . S
O157 Sc155 2.025 . S
O157 Sc156 2.025 . S
C158 O164 1.268 . S
C158 O174 1.268 . S
C159 O165 1.268 . S
C159 O173 1.268 . S
C160 O166 1.268 . S
C160 O175 1.268 . S
C161 O167 1.268 . S
C161 O171 1.268 . S
C162 O168 1.268 . S
C162 O170 1.268 . S
C163 O169 1.268 . S
C163 O172 1.268 . S
O164 Sc154 2.105 . S
O164 C158 1.268 . S
O165 Sc155 2.105 . S
O165 C159 1.268 . S
O166 Sc156 2.105 . S
O166 C160 1.268 . S
O167 Sc154 2.105 . S
O167 C161 1.268 . S
O168 Sc156 2.105 . S
O168 C162 1.268 . S
O169 Sc155 2.105 . S
O169 C163 1.268 . S
O170 Sc154 2.105 . S
O170 C162 1.268 . S
O171 Sc155 2.105 . S
O171 C161 1.268 . S
O172 Sc156 2.105 . S
O172 C163 1.268 . S
O173 Sc154 2.105 . S
O173 C159 1.268 . S
O174 Sc156 2.105 . S
O174 C158 1.268 . S
O175 Sc155 2.105 . S
O175 C160 1.268 . S
C176 C177 1.391 . S
C176 C178 1.394 . S
C176 H192 0.931 . S
C177 C176 1.391 . S
C177 C181 1.376 . S
C178 C176 1.394 . S
C178 C179 1.369 . S
C178 C182 1.531 . S
C179 C178 1.369 . S
C179 C180 1.410 . S
C179 C187 1.503 . S
C180 C179 1.410 . S
C180 C181 1.392 . S
C180 C183 1.511 . S
C181 C177 1.376 . S
C181 C180 1.392 . S
C181 H193 0.929 . S
C182 C178 1.531 . S
C182 H194 0.960 . S
C182 H195 0.962 . S
C182 H196 0.960 . S
C183 C180 1.511 . S
C183 H197 0.961 . S
C183 H198 0.961 . S
C183 H199 0.961 . S
C184 C185 1.370 . S
C184 C186 1.363 . S
C184 H200 0.931 . S
C185 C184 1.370 . S
C185 C189 1.408 . S
C186 C184 1.363 . S
C186 C187 1.370 . S
C186 C190 1.524 . S
C187 C179 1.503 . S
C187 C186 1.370 . S
C187 C188 1.403 . S
C188 C187 1.403 . S
C188 C189 1.404 . S
C188 C191 1.539 . S
C189 C185 1.408 . S
C189 C188 1.404 . S
C189 H201 0.930 . S
C190 C186 1.524 . S
C190 H202 0.956 . S
C190 H203 0.961 . S
C190 H204 0.961 . S
C191 C188 1.539 . S
C191 H205 0.958 . S
C191 H206 0.961 . S
C191 H207 0.960 . S
H192 C176 0.931 . S
H193 C181 0.929 . S
H194 C182 0.960 . S
H195 C182 0.962 . S
H196 C182 0.960 . S
H197 C183 0.961 . S
H198 C183 0.961 . S
H199 C183 0.961 . S
H200 C184 0.931 . S
H201 C189 0.930 . S
H202 C190 0.956 . S
H203 C190 0.961 . S
H204 C190 0.961 . S
H205 C191 0.958 . S
H206 C191 0.961 . S
H207 C191 0.960 . S
C208 C209 1.391 . S
C208 C210 1.394 . S
C208 H224 0.931 . S
C209 C208 1.391 . S
C209 C213 1.376 . S
C210 C208 1.394 . S
C210 C211 1.369 . S
C210 C214 1.531 . S
C211 C210 1.369 . S
C211 C212 1.410 . S
C211 C219 1.503 . S
C212 C211 1.410 . S
C212 C213 1.392 . S
C212 C215 1.511 . S
C213 C209 1.376 . S
C213 C212 1.392 . S
C213 H225 0.929 . S
C214 C210 1.531 . S
C214 H226 0.960 . S
C214 H227 0.962 . S
C214 H228 0.960 . S
C215 C212 1.511 . S
C215 H229 0.961 . S
C215 H230 0.961 . S
C215 H231 0.961 . S
C216 C217 1.370 . S
C216 C218 1.363 . S
C216 H232 0.931 . S
C217 C216 1.370 . S
C217 C221 1.408 . S
C218 C216 1.363 . S
C218 C219 1.370 . S
C218 C222 1.524 . S
C219 C211 1.503 . S
C219 C218 1.370 . S
C219 C220 1.403 . S
C220 C219 1.403 . S
C220 C221 1.404 . S
C220 C223 1.539 . S
C221 C217 1.408 . S
C221 C220 1.404 . S
C221 H233 0.930 . S
C222 C218 1.524 . S
C222 H234 0.956 . S
C222 H235 0.961 . S
C222 H236 0.961 . S
C223 C220 1.539 . S
C223 H237 0.958 . S
C223 H238 0.961 . S
C223 H239 0.960 . S
H224 C208 0.931 . S
H225 C213 0.929 . S
H226 C214 0.960 . S
H227 C214 0.962 . S
H228 C214 0.960 . S
H229 C215 0.961 . S
H230 C215 0.961 . S
H231 C215 0.961 . S
H232 C216 0.931 . S
H233 C221 0.930 . S
H234 C222 0.956 . S
H235 C222 0.961 . S
H236 C222 0.961 . S
H237 C223 0.958 . S
H238 C223 0.961 . S
H239 C223 0.960 . S
C240 C241 1.391 . S
C240 C242 1.394 . S
C240 H256 0.931 . S
C241 C240 1.391 . S
C241 C245 1.376 . S
C242 C240 1.394 . S
C242 C243 1.369 . S
C242 C246 1.531 . S
C243 C242 1.369 . S
C243 C244 1.410 . S
C243 C251 1.503 1_455 S
C244 C243 1.410 . S
C244 C245 1.392 . S
C244 C247 1.511 . S
C245 C241 1.376 . S
C245 C244 1.392 . S
C245 H257 0.929 . S
C246 C242 1.531 . S
C246 H258 0.960 1_455 S
C246 H259 0.962 . S
C246 H260 0.960 . S
C247 C244 1.511 . S
C247 H261 0.961 . S
C247 H262 0.961 1_455 S
C247 H263 0.961 . S
C248 C249 1.370 . S
C248 C250 1.363 . S
C248 H264 0.931 . S
C249 C248 1.370 . S
C249 C253 1.408 . S
C250 C248 1.363 . S
C250 C251 1.370 . S
C250 C254 1.524 . S
C251 C243 1.503 1_655 S
C251 C250 1.370 . S
C251 C252 1.403 . S
C252 C251 1.403 . S
C252 C253 1.404 . S
C252 C255 1.539 . S
C253 C249 1.408 . S
C253 C252 1.404 . S
C253 H265 0.930 . S
C254 C250 1.524 . S
C254 H266 0.956 1_655 S
C254 H267 0.961 1_655 S
C254 H268 0.961 . S
C255 C252 1.539 . S
C255 H269 0.958 . S
C255 H270 0.961 . S
C255 H271 0.960 . S
H256 C240 0.931 . S
H257 C245 0.929 . S
H258 C246 0.960 1_655 S
H259 C246 0.962 . S
H260 C246 0.960 . S
H261 C247 0.961 . S
H262 C247 0.961 1_655 S
H263 C247 0.961 . S
H264 C248 0.931 . S
H265 C253 0.930 . S
H266 C254 0.956 1_455 S
H267 C254 0.961 1_455 S
H268 C254 0.961 . S
H269 C255 0.958 . S
H270 C255 0.961 . S
H271 C255 0.960 . S
C272 C273 1.391 . S
C272 C274 1.394 . S
C272 H288 0.931 . S
C273 C272 1.391 . S
C273 C277 1.376 . S
C274 C272 1.394 . S
C274 C275 1.369 . S
C274 C278 1.531 . S
C275 C274 1.369 . S
C275 C276 1.410 . S
C275 C283 1.503 1_455 S
C276 C275 1.410 . S
C276 C277 1.392 . S
C276 C279 1.511 . S
C277 C273 1.376 . S
C277 C276 1.392 . S
C277 H289 0.929 . S
C278 C274 1.531 . S
C278 H290 0.960 1_455 S
C278 H291 0.962 . S
C278 H292 0.960 . S
C279 C276 1.511 . S
C279 H293 0.961 . S
C279 H294 0.961 . S
C279 H295 0.961 . S
C280 C281 1.370 . S
C280 C282 1.363 . S
C280 H296 0.931 . S
C281 C280 1.370 . S
C281 C285 1.408 . S
C282 C280 1.363 . S
C282 C283 1.370 . S
C282 C286 1.524 . S
C283 C275 1.503 1_655 S
C283 C282 1.370 . S
C283 C284 1.403 . S
C284 C283 1.403 . S
C284 C285 1.404 . S
C284 C287 1.539 . S
C285 C281 1.408 . S
C285 C284 1.404 . S
C285 H297 0.930 . S
C286 C282 1.524 . S
C286 H298 0.956 . S
C286 H299 0.961 1_655 S
C286 H300 0.961 . S
C287 C284 1.539 . S
C287 H301 0.958 . S
C287 H302 0.961 . S
C287 H303 0.960 1_655 S
H288 C272 0.931 . S
H289 C277 0.929 . S
H290 C278 0.960 1_655 S
H291 C278 0.962 . S
H292 C278 0.960 . S
H293 C279 0.961 . S
H294 C279 0.961 . S
H295 C279 0.961 . S
H296 C280 0.931 . S
H297 C285 0.930 . S
H298 C286 0.956 . S
H299 C286 0.961 1_455 S
H300 C286 0.961 . S
H301 C287 0.958 . S
H302 C287 0.961 . S
H303 C287 0.960 1_455 S
C304 C305 1.391 . S
C304 C306 1.394 . S
C304 H320 0.931 . S
C305 C304 1.391 . S
C305 C309 1.376 . S
C306 C304 1.394 . S
C306 C307 1.369 . S
C306 C310 1.531 . S
C307 C306 1.369 . S
C307 C308 1.410 . S
C307 C315 1.503 1_554 S
C308 C307 1.410 . S
C308 C309 1.392 . S
C308 C311 1.511 1_554 S
C309 C305 1.376 . S
C309 C308 1.392 . S
C309 H321 0.929 . S
C310 C306 1.531 . S
C310 H322 0.960 . S
C310 H323 0.962 . S
C310 H324 0.960 . S
C311 C308 1.511 1_556 S
C311 H325 0.961 . S
C311 H326 0.961 . S
C311 H327 0.961 . S
C312 C313 1.370 . S
C312 C314 1.363 . S
C312 H328 0.931 . S
C313 C312 1.370 . S
C313 C317 1.408 . S
C314 C312 1.363 . S
C314 C315 1.370 . S
C314 C318 1.524 . S
C315 C307 1.503 1_556 S
C315 C314 1.370 . S
C315 C316 1.403 1_556 S
C316 C315 1.403 1_554 S
C316 C317 1.404 1_554 S
C316 C319 1.539 . S
C317 C313 1.408 . S
C317 C316 1.404 1_556 S
C317 H329 0.930 . S
C318 C314 1.524 . S
C318 H330 0.956 . S
C318 H331 0.961 . S
C318 H332 0.961 . S
C319 C316 1.539 . S
C319 H333 0.958 . S
C319 H334 0.961 . S
C319 H335 0.960 . S
H320 C304 0.931 . S
H321 C309 0.929 . S
H322 C310 0.960 . S
H323 C310 0.962 . S
H324 C310 0.960 . S
H325 C311 0.961 . S
H326 C311 0.961 . S
H327 C311 0.961 . S
H328 C312 0.931 . S
H329 C317 0.930 . S
H330 C318 0.956 . S
H331 C318 0.961 . S
H332 C318 0.961 . S
H333 C319 0.958 . S
H334 C319 0.961 . S
H335 C319 0.960 . S
C336 C337 1.391 . S
C336 C338 1.394 . S
C336 H352 0.931 . S
C337 C336 1.391 . S
C337 C341 1.376 . S
C338 C336 1.394 . S
C338 C339 1.369 . S
C338 C342 1.531 . S
C339 C338 1.369 . S
C339 C340 1.410 . S
C339 C347 1.503 . S
C340 C339 1.410 . S
C340 C341 1.392 . S
C340 C343 1.511 . S
C341 C337 1.376 . S
C341 C340 1.392 . S
C341 H353 0.929 . S
C342 C338 1.531 . S
C342 H354 0.960 . S
C342 H355 0.962 . S
C342 H356 0.960 . S
C343 C340 1.511 . S
C343 H357 0.961 . S
C343 H358 0.961 . S
C343 H359 0.961 . S
C344 C345 1.370 . S
C344 C346 1.363 . S
C344 H360 0.931 . S
C345 C344 1.370 . S
C345 C349 1.408 . S
C346 C344 1.363 . S
C346 C347 1.370 . S
C346 C350 1.524 . S
C347 C339 1.503 . S
C347 C346 1.370 . S
C347 C348 1.403 . S
C348 C347 1.403 . S
C348 C349 1.404 . S
C348 C351 1.539 . S
C349 C345 1.408 . S
C349 C348 1.404 . S
C349 H361 0.930 . S
C350 C346 1.524 . S
C350 H362 0.956 . S
C350 H363 0.961 . S
C350 H364 0.961 . S
C351 C348 1.539 . S
C351 H365 0.958 . S
C351 H366 0.961 . S
C351 H367 0.960 . S
H352 C336 0.931 . S
H353 C341 0.929 . S
H354 C342 0.960 . S
H355 C342 0.962 . S
H356 C342 0.960 . S
H357 C343 0.961 . S
H358 C343 0.961 . S
H359 C343 0.961 . S
H360 C344 0.931 . S
H361 C349 0.930 . S
H362 C350 0.956 . S
H363 C350 0.961 . S
H364 C350 0.961 . S
H365 C351 0.958 . S
H366 C351 0.961 . S
H367 C351 0.960 . S
C368 C369 1.391 . S
C368 C370 1.394 . S
C368 H384 0.931 . S
C369 C368 1.391 . S
C369 C373 1.376 . S
C370 C368 1.394 . S
C370 C371 1.369 . S
C370 C374 1.531 . S
C371 C370 1.369 . S
C371 C372 1.410 1_554 S
C371 C379 1.503 1_554 S
C372 C371 1.410 1_556 S
C372 C373 1.392 1_556 S
C372 C375 1.511 . S
C373 C369 1.376 . S
C373 C372 1.392 1_554 S
C373 H385 0.929 . S
C374 C370 1.531 . S
C374 H386 0.960 . S
C374 H387 0.962 . S
C374 H388 0.960 . S
C375 C372 1.511 . S
C375 H389 0.961 . S
C375 H390 0.961 . S
C375 H391 0.961 . S
C376 C377 1.370 . S
C376 C378 1.363 . S
C376 H392 0.931 . S
C377 C376 1.370 . S
C377 C381 1.408 . S
C378 C376 1.363 . S
C378 C379 1.370 . S
C378 C382 1.524 1_556 S
C379 C371 1.503 1_556 S
C379 C378 1.370 . S
C379 C380 1.403 . S
C380 C379 1.403 . S
C380 C381 1.404 . S
C380 C383 1.539 . S
C381 C377 1.408 . S
C381 C380 1.404 . S
C381 H393 0.930 . S
C382 C378 1.524 1_554 S
C382 H394 0.956 . S
C382 H395 0.961 . S
C382 H396 0.961 . S
C383 C380 1.539 . S
C383 H397 0.958 . S
C383 H398 0.961 . S
C383 H399 0.960 . S
H384 C368 0.931 . S
H385 C373 0.929 . S
H386 C374 0.960 . S
H387 C374 0.962 . S
H388 C374 0.960 . S
H389 C375 0.961 . S
H390 C375 0.961 . S
H391 C375 0.961 . S
H392 C376 0.931 . S
H393 C381 0.930 . S
H394 C382 0.956 . S
H395 C382 0.961 . S
H396 C382 0.961 . S
H397 C383 0.958 . S
H398 C383 0.961 . S
H399 C383 0.960 . S
C400 C401 1.391 . S
C400 C402 1.394 . S
C400 H416 0.931 . S
C401 C400 1.391 . S
C401 C405 1.376 . S
C402 C400 1.394 . S
C402 C403 1.369 . S
C402 C406 1.531 . S
C403 C402 1.369 . S
C403 C404 1.410 . S
C403 C411 1.503 . S
C404 C403 1.410 . S
C404 C405 1.392 . S
C404 C407 1.511 . S
C405 C401 1.376 . S
C405 C404 1.392 . S
C405 H417 0.929 . S
C406 C402 1.531 . S
C406 H418 0.960 . S
C406 H419 0.962 . S
C406 H420 0.960 . S
C407 C404 1.511 . S
C407 H421 0.961 . S
C407 H422 0.961 . S
C407 H423 0.961 . S
C408 C409 1.370 . S
C408 C410 1.363 . S
C408 H424 0.931 . S
C409 C408 1.370 . S
C409 C413 1.408 . S
C410 C408 1.363 . S
C410 C411 1.370 . S
C410 C414 1.524 . S
C411 C403 1.503 . S
C411 C410 1.370 . S
C411 C412 1.403 . S
C412 C411 1.403 . S
C412 C413 1.404 . S
C412 C415 1.539 . S
C413 C409 1.408 . S
C413 C412 1.404 . S
C413 H425 0.930 . S
C414 C410 1.524 . S
C414 H426 0.956 . S
C414 H427 0.961 . S
C414 H428 0.961 . S
C415 C412 1.539 . S
C415 H429 0.958 . S
C415 H430 0.961 . S
C415 H431 0.960 . S
H416 C400 0.931 . S
H417 C405 0.929 . S
H418 C406 0.960 . S
H419 C406 0.962 . S
H420 C406 0.960 . S
H421 C407 0.961 . S
H422 C407 0.961 . S
H423 C407 0.961 . S
H424 C408 0.931 . S
H425 C413 0.930 . S
H426 C414 0.956 . S
H427 C414 0.961 . S
H428 C414 0.961 . S
H429 C415 0.958 . S
H430 C415 0.961 . S
H431 C415 0.960 . S
C432 C433 1.391 . S
C432 C434 1.394 . S
C432 H448 0.931 . S
C433 C432 1.391 . S
C433 C437 1.376 . S
C434 C432 1.394 . S
C434 C435 1.369 . S
C434 C438 1.531 . S
C435 C434 1.369 . S
C435 C436 1.410 . S
C435 C443 1.503 1_656 S
C436 C435 1.410 . S
C436 C437 1.392 . S
C436 C439 1.511 1_656 S
C437 C433 1.376 . S
C437 C436 1.392 . S
C437 H449 0.929 . S
C438 C434 1.531 . S
C438 H450 0.960 . S
C438 H451 0.962 . S
C438 H452 0.960 . S
C439 C436 1.511 1_454 S
C439 H453 0.961 1_455 S
C439 H454 0.961 . S
C439 H455 0.961 1_554 S
C440 C441 1.370 . S
C440 C442 1.363 . S
C440 H456 0.931 . S
C441 C440 1.370 . S
C441 C445 1.408 . S
C442 C440 1.363 . S
C442 C443 1.370 . S
C442 C446 1.524 1_455 S
C443 C435 1.503 1_454 S
C443 C442 1.370 . S
C443 C444 1.403 1_554 S
C444 C443 1.403 1_556 S
C444 C445 1.404 1_556 S
C444 C447 1.539 . S
C445 C441 1.408 . S
C445 C444 1.404 1_554 S
C445 H457 0.930 . S
C446 C442 1.524 1_655 S
C446 H458 0.956 . S
C446 H459 0.961 . S
C446 H460 0.961 . S
C447 C444 1.539 . S
C447 H461 0.958 . S
C447 H462 0.961 . S
C447 H463 0.960 . S
H448 C432 0.931 . S
H449 C437 0.929 . S
H450 C438 0.960 . S
H451 C438 0.962 . S
H452 C438 0.960 . S
H453 C439 0.961 1_655 S
H454 C439 0.961 . S
H455 C439 0.961 1_556 S
H456 C440 0.931 . S
H457 C445 0.930 . S
H458 C446 0.956 . S
H459 C446 0.961 . S
H460 C446 0.961 . S
H461 C447 0.958 . S
H462 C447 0.961 . S
H463 C447 0.960 . S
C464 C465 1.391 . S
C464 C466 1.394 . S
C464 H480 0.931 . S
C465 C464 1.391 . S
C465 C469 1.376 . S
C466 C464 1.394 . S
C466 C467 1.369 . S
C466 C470 1.531 1_455 S
C467 C466 1.369 . S
C467 C468 1.410 . S
C467 C475 1.503 1_455 S
C468 C467 1.410 . S
C468 C469 1.392 . S
C468 C471 1.511 . S
C469 C465 1.376 . S
C469 C468 1.392 . S
C469 H481 0.929 . S
C470 C466 1.531 1_655 S
C470 H482 0.960 . S
C470 H483 0.962 . S
C470 H484 0.960 1_655 S
C471 C468 1.511 . S
C471 H485 0.961 . S
C471 H486 0.961 . S
C471 H487 0.961 . S
C472 C473 1.370 . S
C472 C474 1.363 . S
C472 H488 0.931 . S
C473 C472 1.370 . S
C473 C477 1.408 . S
C474 C472 1.363 . S
C474 C475 1.370 . S
C474 C478 1.524 . S
C475 C467 1.503 1_655 S
C475 C474 1.370 . S
C475 C476 1.403 . S
C476 C475 1.403 . S
C476 C477 1.404 . S
C476 C479 1.539 . S
C477 C473 1.408 . S
C477 C476 1.404 . S
C477 H489 0.930 . S
C478 C474 1.524 . S
C478 H490 0.956 . S
C478 H491 0.961 . S
C478 H492 0.961 . S
C479 C476 1.539 . S
C479 H493 0.958 . S
C479 H494 0.961 . S
C479 H495 0.960 1_655 S
H480 C464 0.931 . S
H481 C469 0.929 . S
H482 C470 0.960 . S
H483 C470 0.962 . S
H484 C470 0.960 1_455 S
H485 C471 0.961 . S
H486 C471 0.961 . S
H487 C471 0.961 . S
H488 C472 0.931 . S
H489 C477 0.930 . S
H490 C478 0.956 . S
H491 C478 0.961 . S
H492 C478 0.961 . S
H493 C479 0.958 . S
H494 C479 0.961 . S
H495 C479 0.960 1_455 S
C496 C497 1.391 . S
C496 C498 1.394 1_565 S
C496 H512 0.931 . S
C497 C496 1.391 . S
C497 C501 1.376 . S
C498 C496 1.394 1_545 S
C498 C499 1.369 . S
C498 C502 1.531 . S
C499 C498 1.369 . S
C499 C500 1.410 1_544 S
C499 C507 1.503 1_554 S
C500 C499 1.410 1_566 S
C500 C501 1.392 1_556 S
C500 C503 1.511 . S
C501 C497 1.376 . S
C501 C500 1.392 1_554 S
C501 H513 0.929 . S
C502 C498 1.531 . S
C502 H514 0.960 . S
C502 H515 0.936 1_545 S
C502 H516 0.960 . S
C503 C500 1.511 . S
C503 H517 0.961 . S
C503 H518 0.961 . S
C503 H519 0.961 1_565 S
C504 C505 1.370 1_565 S
C504 C506 1.363 . S
C504 H520 0.931 . S
C505 C504 1.370 1_545 S
C505 C509 1.408 . S
C506 C504 1.363 . S
C506 C507 1.370 1_565 S
C506 C510 1.524 . S
C507 C499 1.503 1_556 S
C507 C506 1.370 1_545 S
C507 C508 1.403 . S
C508 C507 1.403 . S
C508 C509 1.404 . S
C508 C511 1.539 . S
C509 C505 1.408 . S
C509 C508 1.404 . S
C509 H521 0.930 . S
C510 C506 1.524 . S
C510 H522 0.956 1_556 S
C510 H523 0.961 . S
C510 H524 0.961 . S
C511 C508 1.539 . S
C511 H525 0.958 1_556 S
C511 H526 0.961 . S
C511 H527 0.960 . S
H512 C496 0.931 . S
H513 C501 0.929 . S
H514 C502 0.960 . S
H515 C502 0.936 1_565 S
H516 C502 0.960 . S
H517 C503 0.961 . S
H518 C503 0.961 . S
H519 C503 0.961 1_545 S
H520 C504 0.931 . S
H521 C509 0.930 . S
H522 C510 0.956 1_554 S
H523 C510 0.961 . S
H524 C510 0.961 . S
H525 C511 0.958 1_554 S
H526 C511 0.961 . S
H527 C511 0.960 . S
C528 C529 1.391 . S
C528 C530 1.394 . S
C528 H544 0.931 . S
C529 C528 1.391 . S
C529 C533 1.376 . S
C530 C528 1.394 . S
C530 C531 1.369 . S
C530 C534 1.531 1_565 S
C531 C530 1.369 . S
C531 C532 1.410 . S
C531 C539 1.490 1_565 S
C532 C531 1.410 . S
C532 C533 1.392 . S
C532 C535 1.511 . S
C533 C529 1.376 . S
C533 C532 1.392 . S
C533 H545 0.929 . S
C534 C530 1.531 1_545 S
C534 H546 0.960 . S
C534 H547 0.962 . S
C534 H548 0.960 . S
C535 C532 1.511 . S
C535 H549 0.961 . S
C535 H550 0.961 . S
C535 H551 0.961 . S
C536 C537 1.370 . S
C536 C538 1.363 . S
C536 H552 0.931 . S
C537 C536 1.370 . S
C537 C541 1.408 1_545 S
C538 C536 1.363 . S
C538 C539 1.405 . S
C538 C542 1.524 . S
C539 C531 1.490 1_545 S
C539 C538 1.405 . S
C539 C540 1.382 1_545 S
C540 C539 1.382 1_565 S
C540 C541 1.404 . S
C540 C543 1.539 . S
C541 C537 1.408 1_565 S
C541 C540 1.404 . S
C541 H553 0.930 . S
C542 C538 1.524 . S
C542 H554 0.956 . S
C542 H555 0.961 . S
C542 H556 0.961 . S
C543 C540 1.539 . S
C543 H557 0.958 . S
C543 H558 0.961 . S
C543 H559 0.960 . S
H544 C528 0.931 . S
H545 C533 0.929 . S
H546 C534 0.960 . S
H547 C534 0.962 . S
H548 C534 0.960 . S
H549 C535 0.961 . S
H550 C535 0.961 . S
H551 C535 0.961 . S
H552 C536 0.931 . S
H553 C541 0.930 . S
H554 C542 0.956 . S
H555 C542 0.961 . S
H556 C542 0.961 . S
H557 C543 0.958 . S
H558 C543 0.961 . S
H559 C543 0.960 . S
C560 C561 1.391 . S
C560 C562 1.394 . S
C560 H576 0.931 . S
C561 C560 1.391 . S
C561 C565 1.376 . S
C562 C560 1.394 . S
C562 C563 1.369 . S
C562 C566 1.531 1_455 S
C563 C562 1.369 . S
C563 C564 1.410 . S
C563 C571 1.503 1_455 S
C564 C563 1.410 . S
C564 C565 1.392 . S
C564 C567 1.511 . S
C565 C561 1.376 . S
C565 C564 1.392 . S
C565 H577 0.929 . S
C566 C562 1.531 1_655 S
C566 H578 0.960 . S
C566 H579 0.962 . S
C566 H580 0.960 . S
C567 C564 1.511 . S
C567 H581 0.961 . S
C567 H582 0.961 . S
C567 H583 0.961 . S
C568 C569 1.370 . S
C568 C570 1.363 . S
C568 H584 0.931 . S
C569 C568 1.370 . S
C569 C573 1.408 . S
C570 C568 1.363 . S
C570 C571 1.370 . S
C570 C574 1.524 1_655 S
C571 C563 1.503 1_655 S
C571 C570 1.370 . S
C571 C572 1.403 . S
C572 C571 1.403 . S
C572 C573 1.404 . S
C572 C575 1.539 . S
C573 C569 1.408 . S
C573 C572 1.404 . S
C573 H585 0.930 . S
C574 C570 1.524 1_455 S
C574 H586 0.956 . S
C574 H587 0.961 . S
C574 H588 0.961 . S
C575 C572 1.539 . S
C575 H589 0.958 . S
C575 H590 0.961 . S
C575 H591 0.960 . S
H576 C560 0.931 . S
H577 C565 0.929 . S
H578 C566 0.960 . S
H579 C566 0.962 . S
H580 C566 0.960 . S
H581 C567 0.961 . S
H582 C567 0.961 . S
H583 C567 0.961 . S
H584 C568 0.931 . S
H585 C573 0.930 . S
H586 C574 0.956 . S
H587 C574 0.961 . S
H588 C574 0.961 . S
H589 C575 0.958 . S
H590 C575 0.961 . S
H591 C575 0.960 . S
C592 C593 1.391 . S
C592 C594 1.394 . S
C592 H608 0.931 . S
C593 C592 1.391 . S
C593 C597 1.376 . S
C594 C592 1.394 . S
C594 C595 1.369 . S
C594 C598 1.531 1_455 S
C595 C594 1.369 . S
C595 C596 1.410 . S
C595 C603 1.503 1_455 S
C596 C595 1.410 . S
C596 C597 1.392 . S
C596 C599 1.511 . S
C597 C593 1.376 . S
C597 C596 1.392 . S
C597 H609 0.929 . S
C598 C594 1.531 1_655 S
C598 H610 0.960 . S
C598 H611 0.962 . S
C598 H612 0.960 . S
C599 C596 1.511 . S
C599 H613 0.961 . S
C599 H614 0.961 . S
C599 H615 0.961 . S
C600 C601 1.370 . S
C600 C602 1.363 . S
C600 H616 0.931 . S
C601 C600 1.370 . S
C601 C605 1.408 . S
C602 C600 1.363 . S
C602 C603 1.370 . S
C602 C606 1.535 . S
C603 C595 1.503 1_655 S
C603 C602 1.370 . S
C603 C604 1.403 . S
C604 C603 1.403 . S
C604 C605 1.404 . S
C604 C607 1.539 . S
C605 C601 1.408 . S
C605 C604 1.404 . S
C605 H617 0.930 . S
C606 C602 1.535 . S
C606 H618 0.955 . S
C606 H619 0.944 1_655 S
C606 H620 0.969 . S
C607 C604 1.539 . S
C607 H621 0.958 . S
C607 H622 0.961 . S
C607 H623 0.960 . S
H608 C592 0.931 . S
H609 C597 0.929 . S
H610 C598 0.960 . S
H611 C598 0.962 . S
H612 C598 0.960 . S
H613 C599 0.961 . S
H614 C599 0.961 . S
H615 C599 0.961 . S
H616 C600 0.931 . S
H617 C605 0.930 . S
H618 C606 0.955 . S
H619 C606 0.944 1_455 S
H620 C606 0.969 . S
H621 C607 0.958 . S
H622 C607 0.961 . S
H623 C607 0.960 . S
C624 C625 1.391 . S
C624 C626 1.394 . S
C624 H640 0.931 . S
C625 C624 1.391 . S
C625 C629 1.376 . S
C626 C624 1.394 . S
C626 C627 1.369 . S
C626 C630 1.531 . S
C627 C626 1.369 . S
C627 C628 1.410 . S
C627 C635 1.503 . S
C628 C627 1.410 . S
C628 C629 1.392 . S
C628 C631 1.511 . S
C629 C625 1.376 . S
C629 C628 1.392 . S
C629 H641 0.929 . S
C630 C626 1.531 . S
C630 H642 0.960 . S
C630 H643 0.962 . S
C630 H644 0.960 . S
C631 C628 1.511 . S
C631 H645 0.961 . S
C631 H646 0.961 . S
C631 H647 0.961 . S
C632 C633 1.370 . S
C632 C634 1.363 . S
C632 H648 0.931 . S
C633 C632 1.370 . S
C633 C637 1.408 . S
C634 C632 1.363 . S
C634 C635 1.370 . S
C634 C638 1.524 . S
C635 C627 1.503 . S
C635 C634 1.370 . S
C635 C636 1.403 . S
C636 C635 1.403 . S
C636 C637 1.404 . S
C636 C639 1.539 . S
C637 C633 1.408 . S
C637 C636 1.404 . S
C637 H649 0.930 . S
C638 C634 1.524 . S
C638 H650 0.956 . S
C638 H651 0.961 . S
C638 H652 0.961 . S
C639 C636 1.539 . S
C639 H653 0.958 . S
C639 H654 0.961 . S
C639 H655 0.960 . S
H640 C624 0.931 . S
H641 C629 0.929 . S
H642 C630 0.960 . S
H643 C630 0.962 . S
H644 C630 0.960 . S
H645 C631 0.961 . S
H646 C631 0.961 . S
H647 C631 0.961 . S
H648 C632 0.931 . S
H649 C637 0.930 . S
H650 C638 0.956 . S
H651 C638 0.961 . S
H652 C638 0.961 . S
H653 C639 0.958 . S
H654 C639 0.961 . S
H655 C639 0.960 . S
C656 C657 1.391 . S
C656 C658 1.394 . S
C656 H672 0.931 . S
C657 C656 1.391 . S
C657 C661 1.376 . S
C658 C656 1.394 . S
C658 C659 1.369 . S
C658 C662 1.531 . S
C659 C658 1.369 . S
C659 C660 1.410 . S
C659 C667 1.503 . S
C660 C659 1.410 . S
C660 C661 1.392 . S
C660 C663 1.511 . S
C661 C657 1.376 . S
C661 C660 1.392 . S
C661 H673 0.929 . S
C662 C658 1.531 . S
C662 H674 0.960 . S
C662 H675 0.962 . S
C662 H676 0.960 . S
C663 C660 1.511 . S
C663 H677 0.961 . S
C663 H678 0.961 . S
C663 H679 0.961 . S
C664 C665 1.370 . S
C664 C666 1.363 . S
C664 H680 0.931 . S
C665 C664 1.370 . S
C665 C669 1.408 . S
C666 C664 1.363 . S
C666 C667 1.370 . S
C666 C670 1.524 . S
C667 C659 1.503 . S
C667 C666 1.370 . S
C667 C668 1.403 . S
C668 C667 1.403 . S
C668 C669 1.404 . S
C668 C671 1.539 . S
C669 C665 1.408 . S
C669 C668 1.404 . S
C669 H681 0.930 . S
C670 C666 1.524 . S
C670 H682 0.956 . S
C670 H683 0.961 . S
C670 H684 0.961 . S
C671 C668 1.539 . S
C671 H685 0.958 . S
C671 H686 0.961 . S
C671 H687 0.960 . S
H672 C656 0.931 . S
H673 C661 0.929 . S
H674 C662 0.960 . S
H675 C662 0.962 . S
H676 C662 0.960 . S
H677 C663 0.961 . S
H678 C663 0.961 . S
H679 C663 0.961 . S
H680 C664 0.931 . S
H681 C669 0.930 . S
H682 C670 0.956 . S
H683 C670 0.961 . S
H684 C670 0.961 . S
H685 C671 0.958 . S
H686 C671 0.961 . S
H687 C671 0.960 . S
C688 C689 1.391 . S
C688 C690 1.394 . S
C688 H704 0.931 . S
C689 C688 1.391 . S
C689 C693 1.376 . S
C690 C688 1.394 . S
C690 C691 1.369 . S
C690 C694 1.531 . S
C691 C690 1.369 . S
C691 C692 1.410 . S
C691 C699 1.503 . S
C692 C691 1.410 . S
C692 C693 1.392 . S
C692 C695 1.511 . S
C693 C689 1.376 . S
C693 C692 1.392 . S
C693 H705 0.929 1_556 S
C694 C690 1.531 . S
C694 H706 0.960 . S
C694 H707 0.962 . S
C694 H708 0.960 . S
C695 C692 1.511 . S
C695 H709 0.961 . S
C695 H710 0.961 . S
C695 H711 0.961 . S
C696 C697 1.370 . S
C696 C698 1.363 . S
C696 H712 0.931 . S
C697 C696 1.370 . S
C697 C701 1.408 . S
C698 C696 1.363 . S
C698 C699 1.370 . S
C698 C702 1.524 . S
C699 C691 1.503 . S
C699 C698 1.370 . S
C699 C700 1.403 . S
C700 C699 1.403 . S
C700 C701 1.404 . S
C700 C703 1.539 . S
C701 C697 1.408 . S
C701 C700 1.404 . S
C701 H713 0.930 . S
C702 C698 1.524 . S
C702 H714 0.956 . S
C702 H715 0.961 . S
C702 H716 0.961 . S
C703 C700 1.539 . S
C703 H717 0.958 . S
C703 H718 0.961 . S
C703 H719 0.960 . S
H704 C688 0.931 . S
H705 C693 0.929 1_554 S
H706 C694 0.960 . S
H707 C694 0.962 . S
H708 C694 0.960 . S
H709 C695 0.961 . S
H710 C695 0.961 . S
H711 C695 0.961 . S
H712 C696 0.931 . S
H713 C701 0.930 . S
H714 C702 0.956 . S
H715 C702 0.961 . S
H716 C702 0.961 . S
H717 C703 0.958 . S
H718 C703 0.961 . S
H719 C703 0.960 . S
C720 C721 1.391 . S
C720 C722 1.394 . S
C720 H736 0.931 . S
C721 C720 1.391 . S
C721 C725 1.376 . S
C722 C720 1.394 . S
C722 C723 1.369 . S
C722 C726 1.531 . S
C723 C722 1.369 . S
C723 C724 1.410 . S
C723 C731 1.503 . S
C724 C723 1.410 . S
C724 C725 1.392 . S
C724 C727 1.511 . S
C725 C721 1.376 . S
C725 C724 1.392 . S
C725 H737 0.929 . S
C726 C722 1.531 . S
C726 H738 0.960 . S
C726 H739 0.962 . S
C726 H740 0.960 . S
C727 C724 1.511 . S
C727 H741 0.961 . S
C727 H742 0.961 . S
C727 H743 0.961 . S
C728 C729 1.370 . S
C728 C730 1.363 . S
C728 H744 0.931 . S
C729 C728 1.370 . S
C729 C733 1.408 . S
C730 C728 1.363 . S
C730 C731 1.370 . S
C730 C734 1.524 . S
C731 C723 1.503 . S
C731 C730 1.370 . S
C731 C732 1.403 . S
C732 C731 1.403 . S
C732 C733 1.404 . S
C732 C735 1.539 . S
C733 C729 1.408 . S
C733 C732 1.404 . S
C733 H745 0.930 . S
C734 C730 1.524 . S
C734 H746 0.956 . S
C734 H747 0.961 . S
C734 H748 0.961 . S
C735 C732 1.539 . S
C735 H749 0.958 . S
C735 H750 0.961 . S
C735 H751 0.960 . S
H736 C720 0.931 . S
H737 C725 0.929 . S
H738 C726 0.960 . S
H739 C726 0.962 . S
H740 C726 0.960 . S
H741 C727 0.961 . S
H742 C727 0.961 . S
H743 C727 0.961 . S
H744 C728 0.931 . S
H745 C733 0.930 . S
H746 C734 0.956 . S
H747 C734 0.961 . S
H748 C734 0.961 . S
H749 C735 0.958 . S
H750 C735 0.961 . S
H751 C735 0.960 . S
C752 C753 1.391 . S
C752 C754 1.394 . S
C752 H768 0.931 . S
C753 C752 1.391 . S
C753 C757 1.376 . S
C754 C752 1.394 . S
C754 C755 1.369 . S
C754 C758 1.531 . S
C755 C754 1.369 . S
C755 C756 1.410 . S
C755 C763 1.503 . S
C756 C755 1.410 . S
C756 C757 1.392 . S
C756 C759 1.511 . S
C757 C753 1.376 . S
C757 C756 1.392 . S
C757 H769 0.929 . S
C758 C754 1.531 . S
C758 H770 0.960 . S
C758 H771 0.962 . S
C758 H772 0.960 . S
C759 C756 1.511 . S
C759 H773 0.961 . S
C759 H774 0.961 . S
C759 H775 0.961 . S
C760 C761 1.370 . S
C760 C762 1.363 . S
C760 H776 0.931 . S
C761 C760 1.370 . S
C761 C765 1.408 . S
C762 C760 1.363 . S
C762 C763 1.370 . S
C762 C766 1.524 . S
C763 C755 1.503 . S
C763 C762 1.370 . S
C763 C764 1.403 . S
C764 C763 1.403 . S
C764 C765 1.404 . S
C764 C767 1.539 . S
C765 C761 1.408 . S
C765 C764 1.404 . S
C765 H777 0.930 1_554 S
C766 C762 1.524 . S
C766 H778 0.956 . S
C766 H779 0.961 . S
C766 H780 0.961 . S
C767 C764 1.539 . S
C767 H781 0.958 . S
C767 H782 0.961 . S
C767 H783 0.960 . S
H768 C752 0.931 . S
H769 C757 0.929 . S
H770 C758 0.960 . S
H771 C758 0.962 . S
H772 C758 0.960 . S
H773 C759 0.961 . S
H774 C759 0.961 . S
H775 C759 0.961 . S
H776 C760 0.931 . S
H777 C765 0.930 1_556 S
H778 C766 0.956 . S
H779 C766 0.961 . S
H780 C766 0.961 . S
H781 C767 0.958 . S
H782 C767 0.961 . S
H783 C767 0.960 . S
C784 C785 1.391 . S
C784 C786 1.394 . S
C784 H800 0.931 . S
C785 C784 1.391 . S
C785 C789 1.376 . S
C786 C784 1.394 . S
C786 C787 1.369 . S
C786 C790 1.531 . S
C787 C786 1.369 . S
C787 C788 1.410 . S
C787 C795 1.503 . S
C788 C787 1.410 . S
C788 C789 1.392 . S
C788 C791 1.511 . S
C789 C785 1.376 . S
C789 C788 1.392 . S
C789 H801 0.929 . S
C790 C786 1.531 . S
C790 H802 0.960 . S
C790 H803 0.962 . S
C790 H804 0.960 . S
C791 C788 1.511 . S
C791 H805 0.961 . S
C791 H806 0.961 . S
C791 H807 0.961 . S
C792 C793 1.370 . S
C792 C794 1.363 . S
C792 H808 0.931 . S
C793 C792 1.370 . S
C793 C797 1.408 . S
C794 C792 1.363 . S
C794 C795 1.370 . S
C794 C798 1.524 . S
C795 C787 1.503 . S
C795 C794 1.370 . S
C795 C796 1.403 . S
C796 C795 1.403 . S
C796 C797 1.404 . S
C796 C799 1.539 . S
C797 C793 1.408 . S
C797 C796 1.404 . S
C797 H809 0.930 . S
C798 C794 1.524 . S
C798 H810 0.956 . S
C798 H811 0.961 . S
C798 H812 0.961 . S
C799 C796 1.539 . S
C799 H813 0.958 . S
C799 H814 0.961 . S
C799 H815 0.960 . S
H800 C784 0.931 . S
H801 C789 0.929 . S
H802 C790 0.960 . S
H803 C790 0.962 . S
H804 C790 0.960 . S
H805 C791 0.961 . S
H806 C791 0.961 . S
H807 C791 0.961 . S
H808 C792 0.931 . S
H809 C797 0.930 . S
H810 C798 0.956 . S
H811 C798 0.961 . S
H812 C798 0.961 . S
H813 C799 0.958 . S
H814 C799 0.961 . S
H815 C799 0.960 . S
C816 C817 1.391 . S
C816 C818 1.394 . S
C816 H832 0.931 . S
C817 C816 1.391 . S
C817 C821 1.376 . S
C818 C816 1.394 . S
C818 C819 1.369 . S
C818 C822 1.531 1_565 S
C819 C818 1.369 . S
C819 C820 1.410 . S
C819 C827 1.503 1_565 S
C820 C819 1.410 . S
C820 C821 1.392 . S
C820 C823 1.511 . S
C821 C817 1.376 . S
C821 C820 1.392 . S
C821 H833 0.929 . S
C822 C818 1.531 1_545 S
C822 H834 0.960 . S
C822 H835 0.962 1_545 S
C822 H836 0.960 . S
C823 C820 1.511 . S
C823 H837 0.961 . S
C823 H838 0.961 . S
C823 H839 0.961 . S
C824 C825 1.370 . S
C824 C826 1.363 1_545 S
C824 H840 0.931 . S
C825 C824 1.370 . S
C825 C829 1.408 . S
C826 C824 1.363 1_565 S
C826 C827 1.370 1_565 S
C826 C830 1.524 . S
C827 C819 1.503 1_545 S
C827 C826 1.370 1_545 S
C827 C828 1.403 . S
C828 C827 1.403 . S
C828 C829 1.404 . S
C828 C831 1.539 . S
C829 C825 1.408 . S
C829 C828 1.404 . S
C829 H841 0.930 . S
C830 C826 1.524 . S
C830 H842 0.956 . S
C830 H843 0.961 . S
C830 H844 0.961 . S
C831 C828 1.539 . S
C831 H845 0.958 . S
C831 H846 0.961 . S
C831 H847 0.960 . S
H832 C816 0.931 . S
H833 C821 0.929 . S
H834 C822 0.960 . S
H835 C822 0.962 1_565 S
H836 C822 0.960 . S
H837 C823 0.961 . S
H838 C823 0.961 . S
H839 C823 0.961 . S
H840 C824 0.931 . S
H841 C829 0.930 . S
H842 C830 0.956 . S
H843 C830 0.961 . S
H844 C830 0.961 . S
H845 C831 0.958 . S
H846 C831 0.961 . S
H847 C831 0.960 . S
C848 C849 1.391 . S
C848 C850 1.394 . S
C848 H864 0.931 . S
C849 C848 1.391 . S
C849 C853 1.376 . S
C850 C848 1.394 . S
C850 C851 1.369 . S
C850 C854 1.531 . S
C851 C850 1.369 . S
C851 C852 1.410 1_545 S
C851 C859 1.503 1_545 S
C852 C851 1.410 1_565 S
C852 C853 1.392 1_565 S
C852 C855 1.511 . S
C853 C849 1.376 . S
C853 C852 1.392 1_545 S
C853 H865 0.929 . S
C854 C850 1.531 . S
C854 H866 0.960 . S
C854 H867 0.962 . S
C854 H868 0.960 . S
C855 C852 1.511 . S
C855 H869 0.961 . S
C855 H870 0.961 . S
C855 H871 0.961 . S
C856 C857 1.370 . S
C856 C858 1.363 . S
C856 H872 0.931 . S
C857 C856 1.370 . S
C857 C861 1.408 . S
C858 C856 1.363 . S
C858 C859 1.370 . S
C858 C862 1.524 . S
C859 C851 1.503 1_565 S
C859 C858 1.370 . S
C859 C860 1.403 . S
C860 C859 1.403 . S
C860 C861 1.404 . S
C860 C863 1.539 1_565 S
C861 C857 1.408 . S
C861 C860 1.404 . S
C861 H873 0.930 . S
C862 C858 1.524 . S
C862 H874 0.956 . S
C862 H875 0.961 . S
C862 H876 0.961 . S
C863 C860 1.539 1_545 S
C863 H877 0.958 . S
C863 H878 0.961 . S
C863 H879 0.960 . S
H864 C848 0.931 . S
H865 C853 0.929 . S
H866 C854 0.960 . S
H867 C854 0.962 . S
H868 C854 0.960 . S
H869 C855 0.961 . S
H870 C855 0.961 . S
H871 C855 0.961 . S
H872 C856 0.931 . S
H873 C861 0.930 . S
H874 C862 0.956 . S
H875 C862 0.961 . S
H876 C862 0.961 . S
H877 C863 0.958 . S
H878 C863 0.961 . S
H879 C863 0.960 . S
C880 C881 1.391 . S
C880 C882 1.394 . S
C880 H896 0.931 . S
C881 C880 1.391 . S
C881 C885 1.376 . S
C882 C880 1.394 . S
C882 C883 1.369 1_565 S
C882 C886 1.531 . S
C883 C882 1.369 1_545 S
C883 C884 1.410 . S
C883 C891 1.503 . S
C884 C883 1.410 . S
C884 C885 1.392 1_545 S
C884 C887 1.511 . S
C885 C881 1.376 . S
C885 C884 1.392 1_565 S
C885 H897 0.924 1_565 S
C886 C882 1.531 . S
C886 H898 0.960 . S
C886 H899 0.962 . S
C886 H900 0.960 . S
C887 C884 1.511 . S
C887 H901 0.961 . S
C887 H902 0.961 . S
C887 H903 0.961 . S
C888 C889 1.370 . S
C888 C890 1.363 . S
C888 H904 0.931 . S
C889 C888 1.370 . S
C889 C893 1.408 . S
C890 C888 1.363 . S
C890 C891 1.370 . S
C890 C894 1.524 . S
C891 C883 1.503 . S
C891 C890 1.370 . S
C891 C892 1.403 . S
C892 C891 1.403 . S
C892 C893 1.404 . S
C892 C895 1.539 . S
C893 C889 1.408 . S
C893 C892 1.404 . S
C893 H905 0.930 . S
C894 C890 1.524 . S
C894 H906 0.956 1_545 S
C894 H907 0.961 . S
C894 H908 0.961 . S
C895 C892 1.539 . S
C895 H909 0.958 . S
C895 H910 0.961 . S
C895 H911 0.960 . S
H896 C880 0.931 . S
H897 C885 0.924 1_545 S
H898 C886 0.960 . S
H899 C886 0.962 . S
H900 C886 0.960 . S
H901 C887 0.961 . S
H902 C887 0.961 . S
H903 C887 0.961 . S
H904 C888 0.931 . S
H905 C893 0.930 . S
H906 C894 0.956 1_565 S
H907 C894 0.961 . S
H908 C894 0.961 . S
H909 C895 0.958 . S
H910 C895 0.961 . S
H911 C895 0.960 . S
C912 C913 1.391 . S
C912 C914 1.394 . S
C912 H928 0.931 . S
C913 C912 1.391 . S
C913 C917 1.376 . S
C914 C912 1.394 . S
C914 C915 1.369 . S
C914 C918 1.531 1_545 S
C915 C914 1.369 . S
C915 C916 1.410 . S
C915 C923 1.503 1_545 S
C916 C915 1.410 . S
C916 C917 1.392 . S
C916 C919 1.511 . S
C917 C913 1.376 . S
C917 C916 1.392 . S
C917 H929 0.929 . S
C918 C914 1.531 1_565 S
C918 H930 0.960 . S
C918 H931 0.962 . S
C918 H932 0.960 . S
C919 C916 1.511 . S
C919 H933 0.961 . S
C919 H934 0.961 . S
C919 H935 0.961 . S
C920 C921 1.370 . S
C920 C922 1.363 1_565 S
C920 H936 0.931 . S
C921 C920 1.370 . S
C921 C925 1.408 . S
C922 C920 1.363 1_545 S
C922 C923 1.370 1_545 S
C922 C926 1.524 . S
C923 C915 1.503 1_565 S
C923 C922 1.370 1_565 S
C923 C924 1.403 . S
C924 C923 1.403 . S
C924 C925 1.404 . S
C924 C927 1.539 . S
C925 C921 1.408 . S
C925 C924 1.404 . S
C925 H937 0.930 . S
C926 C922 1.524 . S
C926 H938 0.956 . S
C926 H939 0.961 . S
C926 H940 0.961 . S
C927 C924 1.539 . S
C927 H941 0.958 . S
C927 H942 0.961 . S
C927 H943 0.960 . S
H928 C912 0.931 . S
H929 C917 0.929 . S
H930 C918 0.960 . S
H931 C918 0.962 . S
H932 C918 0.960 . S
H933 C919 0.961 . S
H934 C919 0.961 . S
H935 C919 0.961 . S
H936 C920 0.931 . S
H937 C925 0.930 . S
H938 C926 0.956 . S
H939 C926 0.961 . S
H940 C926 0.961 . S
H941 C927 0.958 . S
H942 C927 0.961 . S
H943 C927 0.960 . S
C177 C27 1.429 . S
C185 C9 1.399 . S
C209 C51 1.427 . S
C217 C72 1.405 . S
C241 C115 1.425 . S
C249 C97 1.395 . S
C273 C139 1.413 . S
C281 C160 1.413 . S
C305 C8 1.595 . S
C313 C140 1.603 . S
C337 C26 1.584 . S
C345 C158 1.607 . S
C369 C96 1.581 . S
C377 C52 1.608 . S
C401 C70 1.586 . S
C409 C114 1.607 . S
C433 C50 0.840 . S
C441 C5 0.785 . S
C465 C73 0.737 . S
C473 C31 0.821 . S
C497 C93 0.828 . S
C505 C138 0.791 . S
C529 C119 0.737 . S
C537 C161 0.821 . S
C561 C4 1.822 . S
C569 C30 1.820 . S
C593 C74 1.808 . S
C601 C48 1.815 . S
C625 C118 1.822 . S
C633 C92 1.820 . S
C657 C162 1.806 . S
C665 C136 1.816 . S
C689 C7 1.176 1_556 S
C697 C75 1.318 . S
C721 C28 1.243 . S
C729 C49 1.311 . S
C753 C29 1.322 . S
C761 C53 1.207 1_554 S
C785 C6 1.306 . S
C793 C71 1.231 . S
C817 C95 1.198 1_556 S
C825 C163 1.311 . S
C849 C137 1.325 . S
C857 C116 1.205 . S
C881 C117 1.290 . S
C889 C141 1.245 1_554 S
C913 C159 1.172 . S
C921 C94 1.318 . S
