# Generated by pormake.
# Topology vbm, (6)-cn, num edge types: 1
# Building blocks:
#     Node 0, Type 0, BuildingBlock: KUMBUR_clean_sbu_1, # of connection points: 6
#     Node 1, Type 0, BuildingBlock: KUMBUR_clean_sbu_1, # of connection points: 6
#     Node 2, Type 0, BuildingBlock: KUMBUR_clean_sbu_1, # of connection points: 6
#     Node 3, Type 0, BuildingBlock: KUMBUR_clean_sbu_1, # of connection points: 6
#     Node 4, Type 0, BuildingBlock: KUMBUR_clean_sbu_1, # of connection points: 6
#     Node 5, Type 0, BuildingBlock: KUMBUR_clean_sbu_1, # of connection points: 6
#     Node 6, Type 0, BuildingBlock: KUMBUR_clean_sbu_1, # of connection points: 6
#     Node 7, Type 0, BuildingBlock: KUMBUR_clean_sbu_1, # of connection points: 6
#     Node 8, Type 0, BuildingBlock: KUMBUR_clean_sbu_1, # of connection points: 6
#     Node 9, Type 0, BuildingBlock: KUMBUR_clean_sbu_1, # of connection points: 6
#     Node 10, Type 0, BuildingBlock: KUMBUR_clean_sbu_1, # of connection points: 6
#     Node 11, Type 0, BuildingBlock: KUMBUR_clean_sbu_1, # of connection points: 6
#     Node 12, Type 0, BuildingBlock: KUMBUR_clean_sbu_1, # of connection points: 6
#     Node 13, Type 0, BuildingBlock: KUMBUR_clean_sbu_1, # of connection points: 6
#     Node 14, Type 0, BuildingBlock: KUMBUR_clean_sbu_1, # of connection points: 6
#     Node 15, Type 0, BuildingBlock: KUMBUR_clean_sbu_1, # of connection points: 6
#     Edge 16, Type (0, 0), BuildingBlock: CIFDUS_clean_linker_0, # of connection points: 2
#     Edge 17, Type (0, 0), BuildingBlock: CIFDUS_clean_linker_0, # of connection points: 2
#     Edge 18, Type (0, 0), BuildingBlock: CIFDUS_clean_linker_0, # of connection points: 2
#     Edge 19, Type (0, 0), BuildingBlock: CIFDUS_clean_linker_0, # of connection points: 2
#     Edge 20, Type (0, 0), BuildingBlock: CIFDUS_clean_linker_0, # of connection points: 2
#     Edge 21, Type (0, 0), BuildingBlock: CIFDUS_clean_linker_0, # of connection points: 2
#     Edge 22, Type (0, 0), BuildingBlock: CIFDUS_clean_linker_0, # of connection points: 2
#     Edge 23, Type (0, 0), BuildingBlock: CIFDUS_clean_linker_0, # of connection points: 2
#     Edge 24, Type (0, 0), BuildingBlock: CIFDUS_clean_linker_0, # of connection points: 2
#     Edge 25, Type (0, 0), BuildingBlock: CIFDUS_clean_linker_0, # of connection points: 2
#     Edge 26, Type (0, 0), BuildingBlock: CIFDUS_clean_linker_0, # of connection points: 2
#     Edge 27, Type (0, 0), BuildingBlock: CIFDUS_clean_linker_0, # of connection points: 2
#     Edge 28, Type (0, 0), BuildingBlock: CIFDUS_clean_linker_0, # of connection points: 2
#     Edge 29, Type (0, 0), BuildingBlock: CIFDUS_clean_linker_0, # of connection points: 2
#     Edge 30, Type (0, 0), BuildingBlock: CIFDUS_clean_linker_0, # of connection points: 2
#     Edge 31, Type (0, 0), BuildingBlock: CIFDUS_clean_linker_0, # of connection points: 2
#     Edge 32, Type (0, 0), BuildingBlock: CIFDUS_clean_linker_0, # of connection points: 2
#     Edge 33, Type (0, 0), BuildingBlock: CIFDUS_clean_linker_0, # of connection points: 2
#     Edge 34, Type (0, 0), BuildingBlock: CIFDUS_clean_linker_0, # of connection points: 2
#     Edge 35, Type (0, 0), BuildingBlock: CIFDUS_clean_linker_0, # of connection points: 2
#     Edge 36, Type (0, 0), BuildingBlock: CIFDUS_clean_linker_0, # of connection points: 2
#     Edge 37, Type (0, 0), BuildingBlock: CIFDUS_clean_linker_0, # of connection points: 2
#     Edge 38, Type (0, 0), BuildingBlock: CIFDUS_clean_linker_0, # of connection points: 2
#     Edge 39, Type (0, 0), BuildingBlock: CIFDUS_clean_linker_0, # of connection points: 2
#     Edge 40, Type (0, 0), BuildingBlock: CIFDUS_clean_linker_0, # of connection points: 2
#     Edge 41, Type (0, 0), BuildingBlock: CIFDUS_clean_linker_0, # of connection points: 2
#     Edge 42, Type (0, 0), BuildingBlock: CIFDUS_clean_linker_0, # of connection points: 2
#     Edge 43, Type (0, 0), BuildingBlock: CIFDUS_clean_linker_0, # of connection points: 2
#     Edge 44, Type (0, 0), BuildingBlock: CIFDUS_clean_linker_0, # of connection points: 2
#     Edge 45, Type (0, 0), BuildingBlock: CIFDUS_clean_linker_0, # of connection points: 2
#     Edge 46, Type (0, 0), BuildingBlock: CIFDUS_clean_linker_0, # of connection points: 2
#     Edge 47, Type (0, 0), BuildingBlock: CIFDUS_clean_linker_0, # of connection points: 2
#     Edge 48, Type (0, 0), BuildingBlock: CIFDUS_clean_linker_0, # of connection points: 2
#     Edge 49, Type (0, 0), BuildingBlock: CIFDUS_clean_linker_0, # of connection points: 2
#     Edge 50, Type (0, 0), BuildingBlock: CIFDUS_clean_linker_0, # of connection points: 2
#     Edge 51, Type (0, 0), BuildingBlock: CIFDUS_clean_linker_0, # of connection points: 2
#     Edge 52, Type (0, 0), BuildingBlock: CIFDUS_clean_linker_0, # of connection points: 2
#     Edge 53, Type (0, 0), BuildingBlock: CIFDUS_clean_linker_0, # of connection points: 2
#     Edge 54, Type (0, 0), BuildingBlock: CIFDUS_clean_linker_0, # of connection points: 2
#     Edge 55, Type (0, 0), BuildingBlock: CIFDUS_clean_linker_0, # of connection points: 2
#     Edge 56, Type (0, 0), BuildingBlock: CIFDUS_clean_linker_0, # of connection points: 2
#     Edge 57, Type (0, 0), BuildingBlock: CIFDUS_clean_linker_0, # of connection points: 2
#     Edge 58, Type (0, 0), BuildingBlock: CIFDUS_clean_linker_0, # of connection points: 2
#     Edge 59, Type (0, 0), BuildingBlock: CIFDUS_clean_linker_0, # of connection points: 2
#     Edge 60, Type (0, 0), BuildingBlock: CIFDUS_clean_linker_0, # of connection points: 2
#     Edge 61, Type (0, 0), BuildingBlock: CIFDUS_clean_linker_0, # of connection points: 2
#     Edge 62, Type (0, 0), BuildingBlock: CIFDUS_clean_linker_0, # of connection points: 2
#     Edge 63, Type (0, 0), BuildingBlock: CIFDUS_clean_linker_0, # of connection points: 2
# Relax obj value: 0.076
# Max RMSD: 0.143
# Mean RMSD: 0.143
data_MOF--net-vbm--node1-KUMBUR_clean_sbu_1--edge1-CIFDUS_clean_linker_0
_symmetry_space_group_name_H-M    P1
_symmetry_Int_Tables_number       1
_symmetry_cell_setting            triclinic
loop_
_symmetry_equiv_pos_as_xyz
'x, y, z'
_cell_length_a     46.083102
_cell_length_b     22.871051
_cell_length_c     49.857651
_cell_angle_alpha  89.830032
_cell_angle_beta   90.086121
_cell_angle_gamma 90.095171
loop_
_atom_site_label
_atom_site_type_symbol
_atom_site_fract_x
_atom_site_fract_y
_atom_site_fract_z
_atom_type_partial_charge
Tb0 Tb 0.13318 0.19772 0.14243 0.0
C1 C 0.23047 0.05418 0.10054 0.0
N2 N 0.20184 0.049 0.09413 0.0
C3 C 0.21421 0.04395 0.04744 0.0
C4 C 0.25192 0.05802 0.08047 0.0
C5 C 0.19375 0.04053 0.06803 0.0
C6 C 0.24333 0.05422 0.0536 0.0
C7 C 0.26796 0.05438 0.13487 0.0
C8 C 0.23852 0.05173 0.12735 0.0
C9 C 0.28924 0.06145 0.115 0.0
C10 C 0.28126 0.06305 0.08786 0.0
Tb11 Tb 0.17105 0.04204 0.13 0.0
N12 N 0.21728 0.04655 0.14612 0.0
C13 C 0.27505 0.04902 0.16211 0.0
C14 C 0.22408 0.03773 0.17251 0.0
C15 C 0.25304 0.03985 0.18096 0.0
H16 H 0.17178 0.02873 0.06286 0.0
H17 H 0.25837 0.03429 0.20196 0.0
H18 H 0.11154 0.18729 0.20534 0.0
H19 H 0.07617 0.27114 0.05316 0.0
H20 H 0.20708 0.03013 0.187 0.0
H21 H 0.29745 0.05072 0.1687 0.0
H22 H 0.11922 0.25145 0.08077 0.0
H23 H 0.20751 0.03695 0.02693 0.0
H24 H 0.31196 0.06467 0.12036 0.0
H25 H 0.29802 0.06674 0.07272 0.0
H26 H 0.06549 0.19097 0.23043 0.0
H27 H 0.25914 0.05636 0.03756 0.0
H28 H 0.02713 0.26319 0.07296 0.0
N29 N 0.09168 0.20084 0.16734 0.0
C30 C 0.06675 0.21298 0.15397 0.0
C31 C 0.0655 0.19678 0.20888 0.0
C32 C 0.03989 0.2155 0.1674 0.0
C33 C 0.09157 0.19438 0.19458 0.0
C34 C 0.03948 0.20681 0.19521 0.0
N35 N 0.09507 0.2243 0.11516 0.0
C36 C 0.09805 0.24415 0.08938 0.0
C37 C 0.04318 0.23747 0.11207 0.0
C38 C 0.06844 0.22377 0.12679 0.0
C39 C 0.046 0.25254 0.085 0.0
C40 C 0.07362 0.2569 0.07375 0.0
H41 H 0.0193 0.20843 0.20631 0.0
H42 H 0.99355 0.2282 0.16255 0.0
H43 H 0.99648 0.24775 0.11403 0.0
O44 O 0.12883 0.28892 0.13819 0.0
O45 O 0.10645 0.11968 0.15071 0.0
O46 O 0.12363 0.04735 0.1224 0.0
O47 O 0.15783 0.25268 0.16756 0.0
O48 O 0.14578 0.17465 0.1006 0.0
O49 O 0.14392 0.07379 0.09678 0.0
O50 O 0.16597 0.96551 0.15334 0.0
O51 O 0.19558 0.121 0.14397 0.0
O52 O 0.17271 0.18907 0.11937 0.0
O53 O 0.18008 0.96019 0.11274 0.0
O54 O 0.15052 0.05405 0.16843 0.0
O55 O 0.15303 0.15286 0.17812 0.0
C56 C 0.10218 0.07357 0.1354 0.0
C57 C 0.13772 0.34666 0.1764 0.0
C58 C 0.12753 0.44999 0.18479 0.0
C59 C 0.11938 0.43555 0.21114 0.0
C60 C 0.12977 0.33339 0.2029 0.0
C61 C 0.1207 0.37772 0.22014 0.0
C62 C 0.13694 0.40527 0.16753 0.0
C63 C 0.14072 0.12666 0.08655 0.0
C64 C 0.14672 0.30041 0.15759 0.0
C65 C 1.01448 0.22684 0.1527 0.0
C66 C 1.01612 0.23768 0.12505 0.0
C67 C 0.19639 0.17093 0.13084 0.0
C68 C 0.15043 0.88386 0.12842 0.0
C69 C 0.1343 0.78213 0.13293 0.0
C70 C 0.10927 0.79628 0.11802 0.0
C71 C 0.12546 0.89633 0.11341 0.0
C72 C 0.1549 0.8266 0.13811 0.0
C73 C 0.10495 0.85291 0.10839 0.0
C74 C 0.15312 0.0969 0.1856 0.0
C75 C 0.17179 0.93063 0.13359 0.0
H76 H 0.11202 0.46916 0.22479 0.0
H77 H 0.13052 0.28891 0.2103 0.0
H78 H 0.1145 0.36718 0.24052 0.0
H79 H 0.14295 0.41584 0.14706 0.0
H80 H 0.09321 0.76323 0.11331 0.0
H81 H 0.12209 0.93958 0.10527 0.0
H82 H 0.1742 0.81693 0.14975 0.0
H83 H 0.08577 0.86307 0.09672 0.0
Tb84 Tb 0.90809 0.84636 0.14966 0.0
C85 C 0.79966 0.96855 0.11915 0.0
N86 N 0.82522 0.96791 0.1056 0.0
C87 C 0.80033 0.9433 0.06493 0.0
C88 C 0.77342 0.95408 0.10626 0.0
C89 C 0.82589 0.95723 0.07869 0.0
C90 C 0.77401 0.94122 0.07882 0.0
C91 C 0.77421 0.98153 0.16118 0.0
C92 C 0.80019 0.98187 0.14627 0.0
C93 C 0.74796 0.96645 0.14854 0.0
C94 C 0.74758 0.95274 0.12115 0.0
Tb95 Tb 0.8654 0.99229 0.12966 0.0
N96 N 0.8261 0.99566 0.15789 0.0
C97 C 0.77533 0.99703 0.18827 0.0
C98 C 0.82683 1.01478 0.18384 0.0
C99 C 0.80169 1.01449 0.19953 0.0
H100 H 0.84614 0.95935 0.06785 0.0
H101 H 0.80258 0.02876 0.22019 0.0
H102 H 0.90523 0.82354 0.21572 0.0
H103 H 0.9986 0.81574 0.08262 0.0
H104 H 0.84638 0.03221 0.1925 0.0
H105 H 0.75587 0.99723 0.20045 0.0
H106 H 0.94666 0.81948 0.09523 0.0
H107 H 0.80094 0.93423 0.04364 0.0
H108 H 0.72779 0.96573 0.15969 0.0
H109 H 0.72721 0.94125 0.11165 0.0
H110 H 0.93918 0.82844 0.25408 0.0
H111 H 0.75427 0.93011 0.06814 0.0
H112 H 0.03647 0.83183 0.11712 0.0
N113 N 0.93762 0.84301 0.18664 0.0
C114 C 0.96652 0.84732 0.18179 0.0
C115 C 0.94714 0.83468 0.23386 0.0
C116 C 0.98689 0.84807 0.2029 0.0
C117 C 0.9279 0.83289 0.21213 0.0
C118 C 0.97673 0.84353 0.22927 0.0
N119 N 0.95531 0.84032 0.13602 0.0
C120 C 0.96311 0.8269 0.1103 0.0
C121 C 1.00556 0.84296 0.14936 0.0
C122 C 0.97575 0.84496 0.1555 0.0
C123 C 1.01379 0.83384 0.12268 0.0
C124 C 0.99246 0.82463 0.10315 0.0
H125 H 0.99164 0.84402 0.2461 0.0
H126 H 0.03269 0.85163 0.21286 0.0
H127 H 0.04907 0.84704 0.16587 0.0
O128 O 0.88902 0.77509 0.12966 0.0
O129 O 0.93358 0.91719 0.13135 0.0
O130 O 0.91127 1.00409 0.14247 0.0
O131 O 0.9179 0.76106 0.16282 0.0
O132 O 0.89509 0.85751 0.10689 0.0
O133 O 0.89248 0.95743 0.09824 0.0
O134 O 0.85288 0.08 0.13565 0.0
O135 O 0.84728 0.90238 0.12642 0.0
O136 O 0.86396 0.8596 0.16424 0.0
O137 O 0.86966 0.05175 0.09774 0.0
O138 O 0.88694 0.99436 0.16839 0.0
O139 O 0.8898 0.89854 0.18343 0.0
C140 C 0.93483 0.9726 0.13794 0.0
C141 C 0.88236 0.6891 0.15514 0.0
C142 C 0.87293 0.58449 0.15902 0.0
C143 C 0.84743 0.59681 0.17334 0.0
C144 C 0.85687 0.70073 0.16946 0.0
C145 C 0.83939 0.65467 0.17837 0.0
C146 C 0.89034 0.63101 0.15002 0.0
C147 C 0.89629 0.90316 0.0905 0.0
C148 C 0.90104 0.73651 0.1453 0.0
C149 C 1.01669 0.8503 0.19692 0.0
C150 C 0.02602 0.84763 0.17017 0.0
C151 C 0.84283 0.86797 0.14715 0.0
C152 C 0.88447 0.14456 0.11315 0.0
C153 C 0.89601 0.24805 0.12018 0.0
C154 C 0.92534 0.2356 0.11457 0.0
C155 C 0.91397 0.13336 0.10822 0.0
C156 C 0.87569 0.20172 0.11946 0.0
C157 C 0.93418 0.17867 0.10893 0.0
C158 C 0.89118 0.95572 0.18757 0.0
C159 C 0.86302 0.09649 0.11254 0.0
H160 H 0.83413 0.56166 0.18115 0.0
H161 H 0.85069 0.74518 0.17394 0.0
H162 H 0.81975 0.6638 0.18947 0.0
H163 H 0.91003 0.62201 0.13888 0.0
H164 H 0.94153 0.26991 0.11415 0.0
H165 H 0.92144 0.08962 0.1037 0.0
H166 H 0.85308 0.20964 0.12412 0.0
H167 H 0.95681 0.16965 0.10487 0.0
Tb168 Tb 0.1269 0.83604 0.36653 0.0
C169 C 0.22443 0.98895 0.42547 0.0
N170 N 0.19529 0.9863 0.4295 0.0
C171 C 0.20241 0.99441 0.477 0.0
C172 C 0.24382 0.99427 0.44721 0.0
C173 C 0.18403 0.98949 0.45478 0.0
C174 C 0.23245 0.99672 0.47322 0.0
C175 C 0.26487 0.98921 0.39433 0.0
C176 C 0.23482 0.98626 0.39938 0.0
C177 C 0.28429 0.99455 0.41592 0.0
C178 C 0.27381 0.99706 0.44228 0.0
Tb179 Tb 0.16785 0.98109 0.39153 0.0
N180 N 0.21543 0.9787 0.37904 0.0
C181 C 0.27447 0.9858 0.36775 0.0
C182 C 0.22461 0.97692 0.35304 0.0
C183 C 0.25424 0.97981 0.34704 0.0
H184 H 0.16084 0.99033 0.45776 0.0
H185 H 0.26144 0.97777 0.32641 0.0
H186 H 0.10577 0.86808 0.30484 0.0
H187 H 0.0649 0.77984 0.45583 0.0
H188 H 0.20932 0.97361 0.3368 0.0
H189 H 0.2974 0.98783 0.36303 0.0
H190 H 0.10839 0.78346 0.42791 0.0
H191 H 0.19338 0.99722 0.49698 0.0
H192 H 0.30746 0.99632 0.41243 0.0
H193 H 0.28909 1.00111 0.45872 0.0
H194 H 0.05979 0.88934 0.28118 0.0
H195 H 0.24663 1.00089 0.49046 0.0
H196 H 1.01753 0.8103 0.43718 0.0
N197 N 0.08561 0.85545 0.34272 0.0
C198 C 0.06024 0.85202 0.3565 0.0
C199 C 0.05964 0.87927 0.30241 0.0
C200 C 0.0335 0.86382 0.34385 0.0
C201 C 0.08564 0.86744 0.31584 0.0
C202 C 0.03346 0.87789 0.3165 0.0
N203 N 0.08765 0.82658 0.39492 0.0
C204 C 0.08866 0.80195 0.41999 0.0
C205 C 0.03537 0.83286 0.39837 0.0
C206 C 0.06134 0.83774 0.38351 0.0
C207 C 0.03693 0.81434 0.42506 0.0
C208 C 0.06364 0.79762 0.43572 0.0
H209 H 1.01336 0.88717 0.30604 0.0
H210 H 0.98699 0.87031 0.34952 0.0
H211 H 0.98857 0.84244 0.39719 0.0
O212 O 0.1259 0.74653 0.37664 0.0
O213 O 0.10722 0.92287 0.36163 0.0
O214 O 0.12071 0.9743 0.39886 0.0
O215 O 0.12251 0.77388 0.33573 0.0
O216 O 0.14558 0.83839 0.40764 0.0
O217 O 0.13946 0.93472 0.41912 0.0
O218 O 0.1646 0.05846 0.36877 0.0
O219 O 0.19443 0.89979 0.39216 0.0
O220 O 0.17385 0.83836 0.36065 0.0
O221 O 0.17047 0.06168 0.41151 0.0
O222 O 0.15646 0.97706 0.34885 0.0
O223 O 0.15205 0.88035 0.33478 0.0
C224 C 0.10123 0.96001 0.3807 0.0
C225 C 0.14392 0.68173 0.34415 0.0
C226 C 0.15511 0.57746 0.3454 0.0
C227 C 0.1811 0.58874 0.33158 0.0
C228 C 0.16947 0.69202 0.32956 0.0
C229 C 0.18813 0.64571 0.32364 0.0
C230 C 0.1368 0.62447 0.35185 0.0
C231 C 0.14331 0.87988 0.42587 0.0
C232 C 0.12436 0.72958 0.35188 0.0
C233 C 1.00775 0.86102 0.35882 0.0
C234 C 1.00866 0.84534 0.38599 0.0
C235 C 0.19456 0.85131 0.37779 0.0
C236 C 0.14433 0.13854 0.39168 0.0
C237 C 0.1325 0.24231 0.38771 0.0
C238 C 0.10438 0.22988 0.39725 0.0
C239 C 0.11624 0.1271 0.4011 0.0
C240 C 0.15226 0.19583 0.38477 0.0
C241 C 0.09636 0.17263 0.40377 0.0
C242 C 0.15521 0.93705 0.3299 0.0
C243 C 0.16606 0.09189 0.38982 0.0
H244 H 0.19563 0.55339 0.32634 0.0
H245 H 0.17534 0.73589 0.32335 0.0
H246 H 0.20805 0.65397 0.3128 0.0
H247 H 0.11699 0.61658 0.36302 0.0
H248 H 0.0887 0.26445 0.40025 0.0
H249 H 0.1098 0.08334 0.40678 0.0
H250 H 0.1739 0.20399 0.37712 0.0
H251 H 0.0748 0.16362 0.41133 0.0
Tb252 Tb 0.90567 0.18332 0.37422 0.0
C253 C 0.80162 0.06527 0.41824 0.0
N254 N 0.82882 0.06334 0.42881 0.0
C255 C 0.80999 0.0837 0.47246 0.0
C256 C 0.77752 0.0787 0.43443 0.0
C257 C 0.83334 0.07169 0.45557 0.0
C258 C 0.78198 0.08766 0.46188 0.0
C259 C 0.77055 0.0616 0.37896 0.0
C260 C 0.79822 0.05646 0.39079 0.0
C261 C 0.74653 0.07533 0.39504 0.0
C262 C 0.74994 0.08349 0.42269 0.0
Tb263 Tb 0.86449 0.03978 0.39951 0.0
N264 N 0.82216 0.04514 0.37563 0.0
C265 C 0.76794 0.05336 0.35127 0.0
C266 C 0.81942 0.03456 0.34883 0.0
C267 C 0.79242 0.03927 0.33621 0.0
H268 H 0.85481 0.06782 0.46406 0.0
H269 H 0.79047 0.03155 0.31487 0.0
H270 H 0.88347 0.22608 0.31438 0.0
H271 H 1.01195 0.19393 0.42038 0.0
H272 H 0.83764 0.02137 0.33707 0.0
H273 H 0.74715 0.05716 0.34136 0.0
H274 H 0.95824 0.18985 0.42023 0.0
H275 H 0.81364 0.08953 0.49363 0.0
H276 H 0.72522 0.08004 0.38633 0.0
H277 H 0.73115 0.09407 0.43476 0.0
H278 H 0.90584 0.24643 0.27007 0.0
H279 H 0.76399 0.09756 0.47507 0.0
H280 H 0.03872 0.19968 0.3774 0.0
N281 N 0.92369 0.20633 0.33314 0.0
C282 C 0.95303 0.20495 0.3309 0.0
C283 C 0.91934 0.2345 0.287 0.0
C284 C 0.96676 0.2165 0.30623 0.0
C285 C 0.90674 0.22299 0.312 0.0
C286 C 0.94944 0.23023 0.28398 0.0
N287 N 0.95504 0.19007 0.37762 0.0
C288 C 0.96984 0.19219 0.40144 0.0
C289 C 0.9998 0.20013 0.35311 0.0
C290 C 0.96931 0.19698 0.35399 0.0
C291 C 1.01526 0.19741 0.37727 0.0
C292 C 1.0002 0.19438 0.40157 0.0
H293 H 0.95914 0.2394 0.26463 0.0
H294 H 1.00825 0.22436 0.28606 0.0
H295 H 0.03719 0.2099 0.32713 0.0
O296 O 0.88283 0.24798 0.3958 0.0
O297 O 0.93491 0.11081 0.38163 0.0
O298 O 0.91222 0.02752 0.39906 0.0
O299 O 0.91654 0.27123 0.3679 0.0
O300 O 0.90302 0.16966 0.41848 0.0
O301 O 0.89385 0.07179 0.42959 0.0
O302 O 0.85506 0.9538 0.38688 0.0
O303 O 0.8474 0.13098 0.40095 0.0
O304 O 0.86129 0.16836 0.36119 0.0
O305 O 0.85983 0.97396 0.42864 0.0
O306 O 0.88518 0.03339 0.36061 0.0
O307 O 0.88813 0.12633 0.34201 0.0
C308 C 0.93532 0.05699 0.39072 0.0
C309 C 0.87936 0.3389 0.37285 0.0
C310 C 0.87361 0.444 0.36647 0.0
C311 C 0.85242 0.43292 0.34685 0.0
C312 C 0.85756 0.32864 0.35379 0.0
C313 C 0.84407 0.37562 0.34093 0.0
C314 C 0.88715 0.39655 0.37931 0.0
C315 C 0.90239 0.12497 0.4355 0.0
C316 C 0.89657 0.29061 0.38384 0.0
C317 C 0.99724 0.21629 0.3049 0.0
C318 C 1.01373 0.20809 0.3283 0.0
C319 C 0.84127 0.16215 0.37944 0.0
C320 C 0.87874 0.88389 0.41398 0.0
C321 C 0.89109 0.78047 0.40815 0.0
C322 C 0.91814 0.79145 0.42043 0.0
C323 C 0.90594 0.89343 0.42593 0.0
C324 C 0.87161 0.82766 0.40474 0.0
C325 C 0.92553 0.84756 0.42895 0.0
C326 C 0.88925 0.0685 0.3401 0.0
C327 C 0.85792 0.93253 0.41095 0.0
H328 H 0.84285 0.46865 0.33568 0.0
H329 H 0.85172 0.2845 0.34822 0.0
H330 H 0.82763 0.36757 0.32585 0.0
H331 H 0.90408 0.40445 0.39401 0.0
H332 H 0.93349 0.75657 0.4241 0.0
H333 H 0.91196 0.93627 0.43322 0.0
H334 H 0.85091 0.82108 0.39489 0.0
H335 H 0.94638 0.85534 0.43833 0.0
Tb336 Tb 0.86919 0.97777 0.89396 0.0
C337 C 0.96781 0.83853 0.84117 0.0
N338 N 0.93903 0.83368 0.8359 0.0
C339 C 0.94899 0.83331 0.78864 0.0
C340 C 0.98831 0.84393 0.82035 0.0
C341 C 0.92965 0.82683 0.81006 0.0
C342 C 0.9784 0.84325 0.7938 0.0
C343 C 1.00663 0.82905 0.87367 0.0
C344 C 0.97687 0.83129 0.86734 0.0
C345 C 0.02719 0.8389 0.85335 0.0
C346 C 1.01803 0.84641 0.8267 0.0
Tb347 Tb 0.90918 0.82944 0.87261 0.0
N348 N 0.95635 0.82146 0.88627 0.0
C349 C 1.01474 0.81416 0.8999 0.0
C350 C 0.96406 0.80199 0.91127 0.0
C351 C 0.99335 0.79931 0.91862 0.0
H352 H 0.90714 0.8168 0.80598 0.0
H353 H 0.99941 0.78591 0.9387 0.0
H354 H 0.84499 0.94681 0.95452 0.0
H355 H 0.81327 0.0288 0.80083 0.0
H356 H 0.94746 0.79077 0.92572 0.0
H357 H 0.0374 0.81187 0.90561 0.0
H358 H 0.85511 0.026 0.83116 0.0
H359 H 0.94126 0.82986 0.76819 0.0
H360 H 0.0502 0.83833 0.85784 0.0
H361 H 0.03413 0.85137 0.81103 0.0
H362 H 0.79766 0.92715 0.97604 0.0
H363 H 0.99342 0.84729 0.77719 0.0
H364 H 0.76468 1.00028 0.81735 0.0
N365 N 0.82687 0.95797 0.9156 0.0
C366 C 0.80231 0.9619 0.9006 0.0
C367 C 0.7987 0.9364 0.95476 0.0
C368 C 0.77487 0.95089 0.91197 0.0
C369 C 0.82548 0.94717 0.94251 0.0
C370 C 0.7733 0.93777 0.93939 0.0
N371 N 0.83194 0.98712 0.8636 0.0
C372 C 0.83476 1.00893 0.83819 0.0
C373 C 0.78003 0.97953 0.8573 0.0
C374 C 0.805 0.9757 0.8736 0.0
C375 C 0.7833 0.9968 0.83055 0.0
C376 C 0.81072 1.01254 0.8211 0.0
H377 H 0.75261 0.92909 0.94891 0.0
H378 H 0.72873 0.94458 0.90394 0.0
H379 H 0.73322 0.96986 0.8561 0.0
O380 O 0.85737 0.0662 0.88937 0.0
O381 O 0.84823 0.89022 0.89549 0.0
O382 O 0.86544 0.84686 0.85802 0.0
O383 O 0.87524 0.03481 0.92646 0.0
O384 O 0.89361 0.98095 0.85667 0.0
O385 O 0.8912 0.88677 0.84044 0.0
O386 O 0.89 0.75509 0.89017 0.0
O387 O 0.93345 0.89432 0.8958 0.0
O388 O 0.91606 0.9853 0.8843 0.0
O389 O 0.91922 0.74655 0.85701 0.0
O390 O 0.894 0.83501 0.91493 0.0
O391 O 0.89133 0.93378 0.92672 0.0
C392 C 0.84429 0.85465 0.87511 0.0
C393 C 0.88868 0.13013 0.91238 0.0
C394 C 0.89894 0.23287 0.90282 0.0
C395 C 0.92762 0.22475 0.91161 0.0
C396 C 0.91766 0.12262 0.92064 0.0
C397 C 0.93693 0.16979 0.92028 0.0
C398 C 0.87955 0.18533 0.90322 0.0
C399 C 0.89625 0.94327 0.837 0.0
C400 C 0.86799 0.08072 0.91254 0.0
C401 C 0.75004 0.95323 0.89564 0.0
C402 C 0.75261 0.96744 0.86837 0.0
C403 C 0.93762 0.94979 0.8906 0.0
C404 C 0.88471 0.67166 0.86309 0.0
C405 C 0.87125 0.56823 0.86465 0.0
C406 C 0.85133 0.57867 0.8437 0.0
C407 C 0.86493 0.68102 0.84223 0.0
C408 C 0.888 0.61557 0.87403 0.0
C409 C 0.84813 0.63465 0.83272 0.0
C410 C 0.89315 0.87782 0.93285 0.0
C411 C 0.90259 0.71914 0.87381 0.0
H412 H 0.94296 0.26069 0.91126 0.0
H413 H 0.92549 0.08035 0.92729 0.0
H414 H 0.95919 0.16368 0.92664 0.0
H415 H 0.85735 0.19136 0.89651 0.0
H416 H 0.83798 0.54383 0.83586 0.0
H417 H 0.86279 0.72387 0.83322 0.0
H418 H 0.90418 0.609 0.88952 0.0
H419 H 0.83267 0.64201 0.8167 0.0
Tb420 Tb 0.16774 0.044 0.89475 0.0
C421 C 0.08228 0.22284 0.83078 0.0
N422 N 0.11126 0.21522 0.82751 0.0
C423 C 0.10603 0.22899 0.78 0.0
C424 C 0.06386 0.23314 0.80868 0.0
C425 C 0.12341 0.21919 0.80261 0.0
C426 C 0.07608 0.23557 0.78302 0.0
C427 C 0.04146 0.23131 0.86107 0.0
C428 C 0.07123 0.22165 0.8565 0.0
C429 C 0.02282 0.24038 0.83913 0.0
C430 C 0.03399 0.24122 0.81297 0.0
Tb431 Tb 0.13741 0.19471 0.86538 0.0
N432 N 0.08997 0.21174 0.87713 0.0
C433 C 0.03146 0.23233 0.88754 0.0
C434 C 0.08058 0.2164 0.90304 0.0
C435 C 0.05119 0.22569 0.90861 0.0
H436 H 0.14666 0.21559 0.8003 0.0
H437 H 0.04382 0.22816 0.92918 0.0
H438 H 0.1774 0.07357 0.95925 0.0
H439 H 0.2436 0.99841 0.81431 0.0
H440 H 0.09548 0.21324 0.91955 0.0
H441 H 1.00873 0.23957 0.89194 0.0
H442 H 0.1955 1.00836 0.83431 0.0
H443 H 0.11578 0.23169 0.7603 0.0
H444 H 0.99982 0.24746 0.84219 0.0
H445 H 0.01943 0.24887 0.79624 0.0
H446 H 0.21872 0.09193 0.98958 0.0
H447 H 0.06268 0.24332 0.76549 0.0
H448 H 0.28743 1.01149 0.84219 0.0
N449 N 0.20388 0.05895 0.92515 0.0
C450 C 0.23134 0.05179 0.91569 0.0
C451 C 0.22254 0.08021 0.96892 0.0
C452 C 0.25557 0.05893 0.93264 0.0
C453 C 0.19915 0.07145 0.95151 0.0
C454 C 0.25087 0.07366 0.95951 0.0
N455 N 0.21107 0.034 0.87268 0.0
C456 C 0.21401 0.01784 0.8465 0.0
C457 C 0.26321 0.03156 0.87817 0.0
C458 C 0.23504 0.03889 0.88865 0.0
C459 C 0.26622 0.01785 0.85101 0.0
C460 C 0.24151 1.01067 0.83517 0.0
H461 H 0.26892 0.08 0.97316 0.0
H462 H 0.3025 0.05646 0.935 0.0
H463 H 0.30918 0.03136 0.88758 0.0
O464 O 0.16683 0.95622 0.88295 0.0
O465 O 0.19282 0.12754 0.89532 0.0
O466 O 0.18017 0.16347 0.85497 0.0
O467 O 0.16758 0.97881 0.92482 0.0
O468 O 0.14982 0.04029 0.85432 0.0
O469 O 0.15413 0.13233 0.83501 0.0
O470 O 0.15378 0.26407 0.88878 0.0
O471 O 0.10422 0.12781 0.86915 0.0
O472 O 0.11947 0.04716 0.89439 0.0
O473 O 0.14547 0.27551 0.84672 0.0
O474 O 0.14645 0.1858 0.90925 0.0
O475 O 0.13894 0.08941 0.9216 0.0
C476 C 0.19926 0.15889 0.87405 0.0
C477 C 0.1885 0.88809 0.9117 0.0
C478 C 0.19916 0.78473 0.90469 0.0
C479 C 0.22668 0.79321 0.9163 0.0
C480 C 0.2159 0.89581 0.92343 0.0
C481 C 0.2349 0.84844 0.92565 0.0
C482 C 0.18021 0.83264 0.90266 0.0
C483 C 0.14932 0.07513 0.83332 0.0
C484 C 0.1682 0.93664 0.9074 0.0
C485 C 0.28361 0.05154 0.92224 0.0
C486 C 0.28741 0.03759 0.89514 0.0
C487 C 0.09949 0.07754 0.88113 0.0
C488 C 0.13786 0.35694 0.87424 0.0
C489 C 0.14034 0.46115 0.8838 0.0
C490 C 0.10999 0.46458 0.88148 0.0
C491 C 0.10758 0.36138 0.87194 0.0
C492 C 0.15421 0.40693 0.88047 0.0
C493 C 0.09374 0.41479 0.87572 0.0
C494 C 0.14001 0.14519 0.92731 0.0
C495 C 0.15257 0.30119 0.86894 0.0
H496 H 0.24193 0.7574 0.91794 0.0
H497 H 0.22265 0.93804 0.93081 0.0
H498 H 0.25612 0.8546 0.93456 0.0
H499 H 0.15872 0.82692 0.89417 0.0
H500 H 0.09887 0.50584 0.88419 0.0
H501 H 0.09463 0.32398 0.8668 0.0
H502 H 0.17765 0.40403 0.88196 0.0
H503 H 0.07037 0.4177 0.87388 0.0
Tb504 Tb 0.86364 0.04824 0.62679 0.0
C505 C 0.95334 0.21587 0.69603 0.0
N506 N 0.924 0.2108 0.69582 0.0
C507 C 0.92239 0.23053 0.74298 0.0
C508 C 0.96856 0.22711 0.71999 0.0
C509 C 0.90826 0.21989 0.7186 0.0
C510 C 0.95271 0.23331 0.74376 0.0
C511 C 0.99799 0.22393 0.67065 0.0
C512 C 0.96782 0.21421 0.67176 0.0
C513 C 1.01357 0.23231 0.6946 0.0
C514 C 0.99888 0.23384 0.71923 0.0
Tb515 Tb 0.90348 0.19106 0.65532 0.0
N516 N 0.95201 0.20599 0.64907 0.0
C517 C 1.01139 0.22646 0.64548 0.0
C518 C 0.96456 0.21276 0.6244 0.0
C519 C 0.99452 0.22171 0.62224 0.0
H520 H 0.8848 0.2182 0.71793 0.0
H521 H 1.00455 0.22519 0.60269 0.0
H522 H 0.85333 0.08943 0.56362 0.0
H523 H 0.78993 0.02689 0.71128 0.0
H524 H 0.95158 0.20952 0.60641 0.0
H525 H 0.03455 0.23365 0.64374 0.0
H526 H 0.83713 0.0232 0.68907 0.0
H527 H 0.90992 0.23661 0.76113 0.0
H528 H 0.03684 0.23915 0.69423 0.0
H529 H 1.01105 0.24195 0.73747 0.0
H530 H 0.81232 0.12245 0.53582 0.0
H531 H 0.96359 0.24192 0.76263 0.0
H532 H 0.74601 0.05273 0.68534 0.0
N533 N 0.8276 0.07699 0.59854 0.0
C534 C 0.80037 0.07606 0.60911 0.0
C535 C 0.80863 0.10883 0.55625 0.0
C536 C 0.77615 0.09246 0.59354 0.0
C537 C 0.83196 0.0915 0.5723 0.0
C538 C 0.78058 0.10898 0.56681 0.0
N539 N 0.82129 0.04983 0.65096 0.0
C540 C 0.81873 0.03612 0.6775 0.0
C541 C 0.7694 0.06417 0.64807 0.0
C542 C 0.79713 0.06228 0.63615 0.0
C543 C 0.76691 0.05164 0.67543 0.0
C544 C 0.79168 0.03736 0.69016 0.0
H545 H 0.76258 0.12243 0.55424 0.0
H546 H 0.72961 0.10585 0.59363 0.0
H547 H 0.72371 0.08119 0.64132 0.0
O548 O 0.852 0.96123 0.63617 0.0
O549 O 0.84619 0.1389 0.62723 0.0
O550 O 0.85959 0.17097 0.66801 0.0
O551 O 0.86104 0.98667 0.59563 0.0
O552 O 0.8841 0.03709 0.66568 0.0
O553 O 0.88769 0.12813 0.68616 0.0
O554 O 0.88228 0.25547 0.63214 0.0
O555 O 0.93449 0.12284 0.6448 0.0
O556 O 0.91142 0.03697 0.63035 0.0
O557 O 0.90773 0.27916 0.66667 0.0
O558 O 0.8976 0.18257 0.61126 0.0
O559 O 0.89348 0.08523 0.59787 0.0
C560 C 0.83987 0.16731 0.64933 0.0
C561 C 0.87468 0.8907 0.60879 0.0
C562 C 0.88323 0.78582 0.61579 0.0
C563 C 0.91047 0.79208 0.60337 0.0
C564 C 0.9017 0.89508 0.59596 0.0
C565 C 0.91957 0.84625 0.59357 0.0
C566 C 0.86554 0.83584 0.61876 0.0
C567 C 0.88896 0.07008 0.68675 0.0
C568 C 0.85605 0.94304 0.6118 0.0
C569 C 0.74849 0.09343 0.60529 0.0
C570 C 0.74513 0.07937 0.63247 0.0
C571 C 0.93486 0.06792 0.63696 0.0
C572 C 0.8705 0.34418 0.65408 0.0
C573 C 0.85571 0.44681 0.6503 0.0
C574 C 0.83221 0.43454 0.66745 0.0
C575 C 0.84718 0.33327 0.67132 0.0
C576 C 0.87475 0.40076 0.64373 0.0
C577 C 0.82794 0.37819 0.67772 0.0
C578 C 0.89925 0.14059 0.59311 0.0
C579 C 0.89141 0.29811 0.64728 0.0
H580 H 0.92489 0.755 0.60134 0.0
H581 H 0.90901 0.93633 0.58768 0.0
H582 H 0.94053 0.85036 0.58397 0.0
H583 H 0.84452 0.83198 0.62834 0.0
H584 H 0.81705 0.46836 0.67295 0.0
H585 H 0.84413 0.29039 0.68007 0.0
H586 H 0.89341 0.409 0.63105 0.0
H587 H 0.80978 0.36947 0.6909 0.0
Tb588 Tb 0.17037 0.99078 0.62012 0.0
C589 C 0.07558 0.83563 0.67964 0.0
N590 N 0.10482 0.83474 0.68292 0.0
C591 C 0.09881 0.82101 0.73032 0.0
C592 C 0.05671 0.83181 0.70179 0.0
C593 C 0.11656 0.82362 0.70759 0.0
C594 C 0.06876 0.82642 0.72747 0.0
C595 C 0.03471 0.82674 0.64928 0.0
C596 C 0.06471 0.83344 0.65381 0.0
C597 C 1.01558 0.82737 0.6712 0.0
C598 C 0.02657 0.83005 0.69744 0.0
Tb599 Tb 0.13155 0.84401 0.64458 0.0
N600 N 0.08391 0.83236 0.6332 0.0
C601 C 0.02507 0.81654 0.62305 0.0
C602 C 0.07493 0.81782 0.60792 0.0
C603 C 0.04534 0.8108 0.60237 0.0
H604 H 0.13971 0.81736 0.70972 0.0
H605 H 0.03819 0.801 0.58219 0.0
H606 H 0.18225 0.95837 0.55652 0.0
H607 H 0.24366 0.03258 0.70324 0.0
H608 H 0.09056 0.81293 0.59196 0.0
H609 H 1.00219 0.81091 0.61872 0.0
H610 H 0.19664 0.03337 0.68032 0.0
H611 H 0.1083 0.81413 0.74995 0.0
H612 H 0.99238 0.82328 0.66814 0.0
H613 H 1.01167 0.82792 0.71421 0.0
H614 H 0.22409 0.93162 0.52832 0.0
H615 H 0.05502 0.82343 0.74505 0.0
H616 H 0.28772 1.00203 0.67897 0.0
N617 N 0.20742 0.96765 0.59202 0.0
C618 C 0.2345 0.96984 0.60279 0.0
C619 C 0.22729 0.9419 0.54928 0.0
C620 C 0.25904 0.95522 0.58743 0.0
C621 C 0.20355 0.95614 0.56542 0.0
C622 C 0.25514 0.94094 0.56038 0.0
N623 N 0.21293 0.99841 0.64375 0.0
C624 C 0.2152 0.01743 0.66962 0.0
C625 C 0.26488 0.98506 0.64184 0.0
C626 C 0.23728 0.98477 0.62964 0.0
C627 C 0.26699 1.00127 0.6688 0.0
C628 C 0.2421 0.01826 0.68262 0.0
H629 H 0.27347 0.92957 0.54786 0.0
H630 H 0.30566 0.94316 0.58824 0.0
H631 H 0.31066 0.96835 0.63583 0.0
O632 O 0.1822 0.08053 0.62378 0.0
O633 O 0.19018 0.902 0.61923 0.0
O634 O 0.17539 0.8627 0.65847 0.0
O635 O 0.15999 0.04709 0.58835 0.0
O636 O 0.15337 0.99527 0.66069 0.0
O637 O 0.14763 0.90095 0.67796 0.0
O638 O 0.15467 0.77497 0.62645 0.0
O639 O 0.10386 0.91196 0.62682 0.0
O640 O 0.12571 1.00043 0.63609 0.0
O641 O 0.12218 0.75787 0.65629 0.0
O642 O 0.1422 0.85222 0.60114 0.0
O643 O 0.14143 0.95131 0.5912 0.0
C644 C 0.19603 0.87134 0.64096 0.0
C645 C 0.17045 0.15109 0.58803 0.0
C646 C 0.16917 0.25823 0.59188 0.0
C647 C 0.16113 0.26097 0.56456 0.0
C648 C 0.16344 0.15596 0.56073 0.0
C649 C 0.1589 0.21051 0.54914 0.0
C650 C 0.17398 0.20235 0.60344 0.0
C651 C 0.14942 0.95867 0.68084 0.0
C652 C 0.17064 0.09243 0.60058 0.0
C653 C 0.28651 0.9548 0.59961 0.0
C654 C 0.28937 0.96931 0.62676 0.0
C655 C 0.10228 0.96751 0.63317 0.0
C656 C 0.15899 0.68788 0.65199 0.0
C657 C 0.17253 0.58468 0.65105 0.0
C658 C 0.18786 0.59255 0.67522 0.0
C659 C 0.17499 0.69544 0.67565 0.0
C660 C 0.158 0.63285 0.63972 0.0
C661 C 0.18931 0.64776 0.68721 0.0
C662 C 0.13939 0.89633 0.58411 0.0
C663 C 0.14142 0.73516 0.64054 0.0
H664 H 0.15579 0.30196 0.55491 0.0
H665 H 0.16065 0.11739 0.54842 0.0
H666 H 0.15283 0.21366 0.5282 0.0
H667 H 0.17978 0.1983 0.6244 0.0
H668 H 0.19928 0.55644 0.68452 0.0
H669 H 0.17595 0.73775 0.68533 0.0
H670 H 0.14541 0.62736 0.62151 0.0
H671 H 0.20151 0.65354 0.70559 0.0
Tb672 Tb 0.64057 0.68535 0.15905 0.0
C673 C 0.72348 0.53611 0.09118 0.0
N674 N 0.69416 0.53742 0.08818 0.0
C675 C 0.69935 0.53291 0.04041 0.0
C676 C 0.74198 0.53395 0.06875 0.0
C677 C 0.68191 0.53536 0.06326 0.0
C678 C 0.72954 0.5324 0.04315 0.0
C679 C 0.76516 0.53342 0.12094 0.0
C680 C 0.73494 0.53496 0.11697 0.0
C681 C 0.78372 0.5322 0.09862 0.0
C682 C 0.77216 0.53222 0.0726 0.0
Tb683 Tb 0.66821 0.53683 0.12705 0.0
N684 N 0.71632 0.53721 0.13815 0.0
C685 C 0.77574 0.53339 0.14722 0.0
C686 C 0.72661 0.53652 0.1638 0.0
C687 C 0.75644 0.53495 0.16873 0.0
H688 H 0.65867 0.5326 0.0611 0.0
H689 H 0.76455 0.53502 0.18912 0.0
H690 H 0.65216 0.70205 0.22439 0.0
H691 H 0.54377 0.71265 0.09851 0.0
H692 H 0.71211 0.53834 0.18052 0.0
H693 H 0.7987 0.53218 0.15115 0.0
H694 H 0.59583 0.70002 0.10628 0.0
H695 H 0.68941 0.53023 0.02077 0.0
H696 H 0.80704 0.53116 0.10121 0.0
H697 H 0.78675 0.53069 0.0556 0.0
H698 H 0.6228 0.71907 0.26502 0.0
H699 H 0.74311 0.52959 0.02548 0.0
H700 H 0.51038 0.72395 0.13691 0.0
N701 N 0.61585 0.70318 0.19794 0.0
C702 C 0.5867 0.70999 0.19555 0.0
C703 C 0.61236 0.71658 0.2456 0.0
C704 C 0.56912 0.72004 0.21818 0.0
C705 C 0.6289 0.70676 0.22254 0.0
C706 C 0.58231 0.72293 0.24344 0.0
N707 N 0.59246 0.69913 0.14888 0.0
C708 C 0.58178 0.70265 0.12335 0.0
C709 C 0.54454 0.7171 0.16659 0.0
C710 C 0.57457 0.70829 0.17015 0.0
C711 C 0.53333 0.71739 0.14052 0.0
C712 C 0.5521 0.7108 0.1188 0.0
H713 H 0.56956 0.73054 0.26133 0.0
H714 H 0.52517 0.735 0.232 0.0
H715 H 0.50366 0.73254 0.18678 0.0
O716 O 0.64981 0.76016 0.13592 0.0
O717 O 0.60932 0.61303 0.16088 0.0
O718 O 0.62025 0.54672 0.12714 0.0
O719 O 0.651 0.76334 0.179 0.0
O720 O 0.64795 0.67971 0.11478 0.0
O721 O 0.63765 0.58497 0.10257 0.0
O722 O 0.66915 0.45478 0.14604 0.0
O723 O 0.69494 0.61821 0.12407 0.0
O724 O 0.68575 0.66091 0.16395 0.0
O725 O 0.66363 0.46138 0.10329 0.0
O726 O 0.65766 0.53292 0.16973 0.0
O727 O 0.66113 0.62563 0.18848 0.0
C728 C 0.6023 0.56912 0.14515 0.0
C729 C 0.63711 0.84892 0.15643 0.0
C730 C 0.63806 0.95417 0.15019 0.0
C731 C 0.60839 0.95667 0.1566 0.0
C732 C 0.60753 0.85203 0.16281 0.0
C733 C 0.59322 0.90566 0.1628 0.0
C734 C 0.65228 0.90001 0.14998 0.0
C735 C 0.64121 0.64019 0.09643 0.0
C736 C 0.65275 0.79328 0.15695 0.0
C737 C 0.53907 0.72747 0.21484 0.0
C738 C 0.52681 0.72604 0.1891 0.0
C739 C 0.70204 0.65639 0.14271 0.0
C740 C 0.68762 0.37758 0.12027 0.0
C741 C 0.69881 0.27528 0.12896 0.0
C742 C 0.72583 0.2827 0.11634 0.0
C743 C 0.71437 0.38396 0.10721 0.0
C744 C 0.67992 0.32321 0.13094 0.0
C745 C 0.73348 0.33686 0.10549 0.0
C746 C 0.6587 0.56797 0.19054 0.0
C747 C 0.66727 0.42637 0.12353 0.0
H748 H 0.59694 0.998 0.15662 0.0
H749 H 0.59552 0.81345 0.168 0.0
H750 H 0.57037 0.90769 0.16772 0.0
H751 H 0.67525 0.89776 0.14535 0.0
H752 H 0.74094 0.24666 0.11476 0.0
H753 H 0.72051 0.42472 0.09817 0.0
H754 H 0.65882 0.31806 0.14028 0.0
H755 H 0.75419 0.34227 0.09556 0.0
Tb756 Tb 0.40518 0.33536 0.1458 0.0
C757 C 0.30244 0.48695 0.12026 0.0
N758 N 0.32688 0.47963 0.10541 0.0
C759 C 0.29817 0.46495 0.06587 0.0
C760 C 0.27473 0.4821 0.10852 0.0
C761 C 0.32522 0.47031 0.0784 0.0
C762 C 0.27281 0.47074 0.08098 0.0
C763 C 0.28067 0.50574 0.16354 0.0
C764 C 0.30551 0.49812 0.14743 0.0
C765 C 0.25292 0.50014 0.15206 0.0
C766 C 0.24996 0.48838 0.12461 0.0
Tb767 Tb 0.36976 0.49124 0.12754 0.0
N768 N 0.33276 0.50346 0.1578 0.0
C769 C 0.28447 0.52025 0.19055 0.0
C770 C 0.33634 0.52269 0.18352 0.0
C771 C 0.31242 0.52968 0.20045 0.0
H772 H 0.34474 0.46679 0.06656 0.0
H773 H 0.31554 0.54386 0.22095 0.0
H774 H 0.41087 0.33264 0.21295 0.0
H775 H 0.48443 0.27732 0.07118 0.0
H776 H 0.35731 0.53544 0.19091 0.0
H777 H 0.26598 0.52647 0.20361 0.0
H778 H 0.435 0.29265 0.08918 0.0
H779 H 0.29684 0.45634 0.04458 0.0
H780 H 0.23361 0.50566 0.16416 0.0
H781 H 0.22843 0.48458 0.11601 0.0
H782 H 0.44985 0.34053 0.24651 0.0
H783 H 0.25191 0.46649 0.0712 0.0
H784 H 0.52723 0.29175 0.10056 0.0
N785 N 0.4395 0.33653 0.17937 0.0
C786 C 0.46757 0.33298 0.17135 0.0
C787 C 0.45517 0.33942 0.22538 0.0
C788 C 0.49066 0.33523 0.18989 0.0
C789 C 0.43306 0.33609 0.20617 0.0
C790 C 0.48412 0.34014 0.21718 0.0
N791 N 0.44992 0.31778 0.12786 0.0
C792 C 0.4536 0.29936 0.10202 0.0
C793 C 0.50152 0.31387 0.1354 0.0
C794 C 0.47299 0.32234 0.14464 0.0
C795 C 0.50563 0.29868 0.10848 0.0
C796 C 0.48152 0.29048 0.09184 0.0
H797 H 0.50121 0.34195 0.23211 0.0
H798 H 0.53743 0.33229 0.19458 0.0
H799 H 0.54695 0.3137 0.14674 0.0
O800 O 0.38592 0.26104 0.12792 0.0
O801 O 0.43243 0.39867 0.12457 0.0
O802 O 0.41712 0.49054 0.13701 0.0
O803 O 0.40652 0.25543 0.16638 0.0
O804 O 0.38899 0.34823 0.10369 0.0
O805 O 0.39154 0.44844 0.09448 0.0
O806 O 0.36597 0.58033 0.13626 0.0
O807 O 0.34458 0.40797 0.12426 0.0
O808 O 0.36297 0.36211 0.16017 0.0
O809 O 0.37511 0.55254 0.09606 0.0
O810 O 0.39421 0.48667 0.165 0.0
O811 O 0.38866 0.39131 0.17897 0.0
C812 C 0.43793 0.45304 0.13088 0.0
C813 C 0.40961 0.1725 0.13904 0.0
C814 C 0.40738 0.06908 0.12705 0.0
C815 C 0.43795 0.06721 0.1276 0.0
C816 C 0.44003 0.16938 0.1395 0.0
C817 C 0.45406 0.11715 0.13356 0.0
C818 C 0.39339 0.1225 0.13255 0.0
C819 C 0.39123 0.39336 0.08683 0.0
C820 C 0.39455 0.22636 0.14702 0.0
C821 C 0.51936 0.33002 0.18069 0.0
C822 C 0.52479 0.31931 0.15346 0.0
C823 C 0.34194 0.36777 0.14298 0.0
C824 C 0.35199 0.64469 0.10215 0.0
C825 C 0.34631 0.74981 0.09603 0.0
C826 C 0.31673 0.74137 0.09048 0.0
C827 C 0.32251 0.63665 0.09621 0.0
C828 C 0.3638 0.70114 0.10174 0.0
C829 C 0.305 0.6849 0.09032 0.0
C830 C 0.3953 0.44655 0.18384 0.0
C831 C 0.37047 0.59686 0.11174 0.0
H832 H 0.44953 0.02679 0.12415 0.0
H833 H 0.45299 0.20677 0.14508 0.0
H834 H 0.47751 0.11502 0.13419 0.0
H835 H 0.36991 0.12523 0.13212 0.0
H836 H 0.30281 0.77831 0.0861 0.0
H837 H 0.31292 0.59363 0.09658 0.0
H838 H 0.38648 0.70744 0.10688 0.0
H839 H 0.28219 0.67858 0.08596 0.0
Tb840 Tb 0.63452 0.33244 0.3777 0.0
C841 C 0.73489 0.47685 0.40314 0.0
N842 N 0.71135 0.47235 0.41928 0.0
C843 C 0.74194 0.45242 0.45711 0.0
C844 C 0.76296 0.46601 0.41306 0.0
C845 C 0.71443 0.46293 0.44621 0.0
C846 C 0.76629 0.4531 0.44038 0.0
C847 C 0.75437 0.49886 0.35926 0.0
C848 C 0.73052 0.49228 0.37657 0.0
C849 C 0.78228 0.48569 0.36866 0.0
C850 C 0.78664 0.46894 0.39546 0.0
Tb851 Tb 0.66755 0.48672 0.3993 0.0
N852 N 0.7031 0.50438 0.36823 0.0
C853 C 0.74956 0.52046 0.33335 0.0
C854 C 0.6988 0.53151 0.34407 0.0
C855 C 0.72171 0.53819 0.32595 0.0
H856 H 0.69557 0.46201 0.45908 0.0
H857 H 0.71797 0.55805 0.30652 0.0
H858 H 0.65007 0.30899 0.31322 0.0
H859 H 0.53258 0.28869 0.42714 0.0
H860 H 0.67794 0.54949 0.33884 0.0
H861 H 0.76738 0.52621 0.31942 0.0
H862 H 0.58624 0.29334 0.42342 0.0
H863 H 0.74436 0.44327 0.47829 0.0
H864 H 0.80057 0.49017 0.35543 0.0
H865 H 0.80838 0.45953 0.40253 0.0
H866 H 0.62414 0.31506 0.2698 0.0
H867 H 0.78754 0.44453 0.44882 0.0
H868 H 0.50197 0.31287 0.38777 0.0
N869 N 0.61265 0.3293 0.33637 0.0
C870 C 0.58337 0.33481 0.33631 0.0
C871 C 0.61243 0.3214 0.28836 0.0
C872 C 0.56749 0.33703 0.31217 0.0
C873 C 0.62706 0.31828 0.31295 0.0
C874 C 0.58259 0.33228 0.28793 0.0
N875 N 0.58548 0.32215 0.38283 0.0
C876 C 0.57286 0.30352 0.40619 0.0
C877 C 0.53866 0.32832 0.36156 0.0
C878 C 0.56917 0.3306 0.36055 0.0
C879 C 0.52538 0.31505 0.3861 0.0
C880 C 0.54259 0.30107 0.40834 0.0
H881 H 0.57123 0.33384 0.2689 0.0
H882 H 0.52441 0.34289 0.29478 0.0
H883 H 0.49911 0.33525 0.33817 0.0
O884 O 0.65839 0.26353 0.39534 0.0
O885 O 0.60704 0.3949 0.39922 0.0
O886 O 0.62145 0.48714 0.38666 0.0
O887 O 0.62424 0.24623 0.3672 0.0
O888 O 0.64125 0.34298 0.42195 0.0
O889 O 0.64726 0.44215 0.43283 0.0
O890 O 0.67721 0.57722 0.39698 0.0
O891 O 0.68966 0.40085 0.4048 0.0
O892 O 0.67912 0.35287 0.36661 0.0
O893 O 0.65536 0.54001 0.43174 0.0
O894 O 0.6447 0.48362 0.36089 0.0
O895 O 0.6541 0.39035 0.34658 0.0
C896 C 0.60097 0.44913 0.39295 0.0
C897 C 0.66119 0.17667 0.36977 0.0
C898 C 0.66894 0.0715 0.36596 0.0
C899 C 0.68614 0.08168 0.34311 0.0
C900 C 0.67886 0.18636 0.34736 0.0
C901 C 0.69148 0.13885 0.33422 0.0
C902 C 0.65694 0.11979 0.37933 0.0
C903 C 0.64338 0.38688 0.43938 0.0
C904 C 0.64439 0.22367 0.38208 0.0
C905 C 0.53703 0.34017 0.3131 0.0
C906 C 0.52261 0.33579 0.33781 0.0
C907 C 0.69768 0.36483 0.38563 0.0
C908 C 0.66444 0.64475 0.43294 0.0
C909 C 0.6667 0.75113 0.42965 0.0
C910 C 0.65836 0.75509 0.45667 0.0
C911 C 0.65632 0.64969 0.45998 0.0
C912 C 0.67006 0.69573 0.41791 0.0
C913 C 0.65344 0.7046 0.47176 0.0
C914 C 0.64665 0.44498 0.34154 0.0
C915 C 0.66567 0.58665 0.42029 0.0
H916 H 0.69531 0.04555 0.33202 0.0
H917 H 0.6823 0.23024 0.33974 0.0
H918 H 0.70492 0.14623 0.31674 0.0
H919 H 0.64379 0.11334 0.39711 0.0
H920 H 0.65576 0.79735 0.46613 0.0
H921 H 0.65198 0.61112 0.472 0.0
H922 H 0.67603 0.69252 0.39694 0.0
H923 H 0.6471 0.70806 0.49259 0.0
Tb924 Tb 0.40163 0.68524 0.36642 0.0
C925 C 0.31396 0.53341 0.431 0.0
N926 N 0.34299 0.53958 0.4352 0.0
C927 C 0.33527 0.54299 0.48272 0.0
C928 C 0.29439 0.53169 0.45267 0.0
C929 C 0.35389 0.54384 0.4606 0.0
C930 C 0.3054 0.53679 0.47875 0.0
C931 C 0.27395 0.52189 0.39968 0.0
C932 C 0.30387 0.52868 0.40477 0.0
C933 C 0.25441 0.51947 0.42125 0.0
C934 C 0.26459 0.52452 0.44766 0.0
Tb935 Tb 0.37089 0.53517 0.39761 0.0
N936 N 0.32335 0.53305 0.3843 0.0
C937 C 0.26451 0.5187 0.37304 0.0
C938 C 0.31411 0.53103 0.35831 0.0
C939 C 0.28467 0.52366 0.35229 0.0
H940 H 0.37701 0.54559 0.4639 0.0
H941 H 0.27753 0.52213 0.33161 0.0
H942 H 0.39095 0.70485 0.30104 0.0
H943 H 0.49805 0.70772 0.42783 0.0
H944 H 0.32906 0.5355 0.34205 0.0
H945 H 0.24172 0.51354 0.36827 0.0
H946 H 0.44594 0.69782 0.41949 0.0
H947 H 0.34403 0.54612 0.50282 0.0
H948 H 0.23134 0.51425 0.4177 0.0
H949 H 0.24922 0.52287 0.46407 0.0
H950 H 0.4209 0.72185 0.26075 0.0
H951 H 0.29104 0.53536 0.49591 0.0
H952 H 0.53202 0.71825 0.38977 0.0
N953 N 0.42701 0.70304 0.32779 0.0
C954 C 0.45621 0.70853 0.33043 0.0
C955 C 0.43113 0.71814 0.28024 0.0
C956 C 0.47414 0.71852 0.30798 0.0
C957 C 0.41425 0.70839 0.30312 0.0
C958 C 0.46123 0.72284 0.28264 0.0
N959 N 0.4498 0.697 0.37698 0.0
C960 C 0.46023 0.69969 0.4026 0.0
C961 C 0.4981 0.71351 0.35976 0.0
C962 C 0.46801 0.70609 0.35592 0.0
C963 C 0.50903 0.71273 0.38594 0.0
C964 C 0.48994 0.70651 0.40745 0.0
H965 H 0.47425 0.73045 0.26488 0.0
H966 H 0.51839 0.73208 0.29459 0.0
H967 H 0.53939 0.72765 0.33998 0.0
O968 O 0.39693 0.7623 0.3888 0.0
O969 O 0.43163 0.61202 0.36377 0.0
O970 O 0.41909 0.54295 0.39622 0.0
O971 O 0.38896 0.76203 0.34628 0.0
O972 O 0.39382 0.67751 0.41067 0.0
O973 O 0.40273 0.5811 0.42116 0.0
O974 O 0.36991 0.45095 0.38097 0.0
O975 O 0.34462 0.61637 0.40151 0.0
O976 O 0.3565 0.66014 0.36234 0.0
O977 O 0.37544 0.46287 0.4235 0.0
O978 O 0.38129 0.53251 0.35504 0.0
O979 O 0.38195 0.6261 0.33615 0.0
C980 C 0.43747 0.56588 0.37854 0.0
C981 C 0.40583 0.84989 0.36537 0.0
C982 C 0.4049 0.95529 0.37141 0.0
C983 C 0.43318 0.95888 0.36097 0.0
C984 C 0.43406 0.85403 0.35509 0.0
C985 C 0.44766 0.90836 0.35293 0.0
C986 C 0.39139 0.90048 0.37361 0.0
C987 C 0.40059 0.63593 0.42809 0.0
C988 C 0.39079 0.79372 0.36774 0.0
C989 C 0.50423 0.72466 0.3116 0.0
C990 C 0.51619 0.72216 0.33744 0.0
C991 C 0.33976 0.65683 0.3833 0.0
C992 C 0.35269 0.37549 0.40887 0.0
C993 C 0.34253 0.27233 0.40114 0.0
C994 C 0.31703 0.27734 0.41641 0.0
C995 C 0.32747 0.37962 0.42446 0.0
C996 C 0.3601 0.32189 0.39739 0.0
C997 C 0.3096 0.33082 0.42798 0.0
C998 C 0.38252 0.56809 0.3343 0.0
C999 C 0.37213 0.42539 0.40423 0.0
H1000 H 0.44417 1.00063 0.35931 0.0
H1001 H 0.44555 0.81569 0.34868 0.0
H1002 H 0.46948 0.91131 0.34501 0.0
H1003 H 0.36945 0.89723 0.38137 0.0
H1004 H 0.30294 0.23998 0.41946 0.0
H1005 H 0.32169 0.41992 0.43416 0.0
H1006 H 0.38012 0.31856 0.38607 0.0
H1007 H 0.29008 0.33432 0.43991 0.0
Tb1008 Tb 0.37005 0.49347 0.89683 0.0
C1009 C 0.47538 0.36387 0.85888 0.0
N1010 N 0.45049 0.36183 0.84441 0.0
C1011 C 0.47742 0.37646 0.80379 0.0
C1012 C 0.50232 0.37485 0.84646 0.0
C1013 C 0.45127 0.36542 0.81709 0.0
C1014 C 0.50303 0.38213 0.81858 0.0
C1015 C 0.4993 0.35196 0.90169 0.0
C1016 C 0.47371 0.35346 0.88613 0.0
C1017 C 0.52607 0.3655 0.88972 0.0
C1018 C 0.5276 0.37701 0.86216 0.0
Tb1019 Tb 0.40835 0.34889 0.8677 0.0
N1020 N 0.44733 0.3405 0.89689 0.0
C1021 C 0.49739 0.33447 0.92849 0.0
C1022 C 0.44633 0.31538 0.92188 0.0
C1023 C 0.4709 0.31442 0.93839 0.0
H1024 H 0.43173 0.35927 0.80556 0.0
H1025 H 0.46952 0.29669 0.9585 0.0
H1026 H 0.39355 0.51637 0.95865 0.0
H1027 H 0.26219 0.48797 0.85404 0.0
H1028 H 0.42691 0.29441 0.9292 0.0
H1029 H 0.51651 0.33286 0.94116 0.0
H1030 H 0.31565 0.49022 0.85271 0.0
H1031 H 0.47783 0.38018 0.78214 0.0
H1032 H 0.54578 0.36575 0.90148 0.0
H1033 H 0.54849 0.38611 0.8531 0.0
H1034 H 0.3722 0.52254 1.00412 0.0
H1035 H 0.52329 0.39053 0.80825 0.0
H1036 H 0.23669 0.48901 0.89764 0.0
N1037 N 0.3529 0.50307 0.93941 0.0
C1038 C 0.32361 0.50047 0.94215 0.0
C1039 C 0.35831 0.51605 0.98685 0.0
C1040 C 0.31044 0.50472 0.96753 0.0
C1041 C 0.37034 0.51201 0.96118 0.0
C1042 C 0.32824 0.51215 0.99006 0.0
N1043 N 0.32047 0.49163 0.89518 0.0
C1044 C 0.30483 0.49129 0.87184 0.0
C1045 C 0.27629 0.49405 0.92097 0.0
C1046 C 0.30678 0.4954 0.91924 0.0
C1047 C 0.26016 0.4905 0.8972 0.0
C1048 C 0.27449 0.48981 0.87253 0.0
H1049 H 0.31899 0.51605 1.00991 0.0
H1050 H 0.26947 0.50497 0.98887 0.0
H1051 H 0.2396 0.4951 0.9481 0.0
O1052 O 0.37669 0.56522 0.87116 0.0
O1053 O 0.34247 0.4145 0.896 0.0
O1054 O 0.36061 0.34745 0.86518 0.0
O1055 O 0.36672 0.57801 0.91292 0.0
O1056 O 0.36895 0.48573 0.85313 0.0
O1057 O 0.39083 0.4027 0.83456 0.0
O1058 O 0.41678 0.25945 0.87473 0.0
O1059 O 0.42736 0.43619 0.86079 0.0
O1060 O 0.41754 0.48362 0.89999 0.0
O1061 O 0.40276 0.28882 0.83624 0.0
O1062 O 0.38932 0.34891 0.90868 0.0
O1063 O 0.40019 0.44228 0.92068 0.0
C1064 C 0.33981 0.36779 0.88072 0.0
C1065 C 0.39518 0.6497 0.89176 0.0
C1066 C 0.40774 0.75239 0.88505 0.0
C1067 C 0.43602 0.74022 0.89411 0.0
C1068 C 0.4234 0.63836 0.90078 0.0
C1069 C 0.44372 0.68349 0.9019 0.0
C1070 C 0.38739 0.7065 0.88401 0.0
C1071 C 0.3772 0.45365 0.83257 0.0
C1072 C 0.37342 0.60314 0.89036 0.0
C1073 C 0.28003 0.50219 0.96951 0.0
C1074 C 0.263 0.49674 0.94628 0.0
C1075 C 0.43462 0.47406 0.87933 0.0
C1076 C 0.38711 0.19504 0.85023 0.0
C1077 C 0.3758 0.09183 0.85803 0.0
C1078 C 0.34749 0.10194 0.84852 0.0
C1079 C 0.35876 0.20379 0.84071 0.0
C1080 C 0.39551 0.139 0.8589 0.0
C1081 C 0.33908 0.15749 0.84001 0.0
C1082 C 0.39313 0.38886 0.9274 0.0
C1083 C 0.4082 0.24361 0.85111 0.0
H1084 H 0.45222 0.77446 0.89482 0.0
H1085 H 0.42967 0.59488 0.90707 0.0
H1086 H 0.46546 0.67418 0.90884 0.0
H1087 H 0.36534 0.71495 0.87749 0.0
H1088 H 0.33176 0.06693 0.84765 0.0
H1089 H 0.35192 0.24625 0.83357 0.0
H1090 H 0.41756 0.13207 0.86579 0.0
H1091 H 0.31728 0.16448 0.83261 0.0
Tb1092 Tb 0.66923 0.54186 0.89239 0.0
C1093 C 0.56685 0.71528 0.8719 0.0
N1094 N 0.59117 0.70325 0.85769 0.0
C1095 C 0.56318 0.69842 0.81713 0.0
C1096 C 0.53944 0.71753 0.85939 0.0
C1097 C 0.58991 0.69695 0.83046 0.0
C1098 C 0.53777 0.70808 0.8317 0.0
C1099 C 0.54525 0.74129 0.91438 0.0
C1100 C 0.56974 0.72647 0.89897 0.0
C1101 C 0.51777 0.74249 0.90224 0.0
C1102 C 0.51482 0.73034 0.87481 0.0
Tb1103 Tb 0.63357 0.69948 0.88137 0.0
N1104 N 0.5968 0.72643 0.90977 0.0
C1105 C 0.54924 0.75656 0.94127 0.0
C1106 C 0.60097 0.7462 0.93538 0.0
C1107 C 0.5773 0.75989 0.9517 0.0
H1108 H 0.60944 0.69053 0.81896 0.0
H1109 H 0.58076 0.77411 0.97214 0.0
H1110 H 0.67986 0.55278 0.95958 0.0
H1111 H 0.74445 0.51773 0.81079 0.0
H1112 H 0.62253 0.75272 0.94332 0.0
H1113 H 0.53095 0.76803 0.95382 0.0
H1114 H 0.69604 0.51971 0.8321 0.0
H1115 H 0.56222 0.69237 0.79563 0.0
H1116 H 0.49887 0.7543 0.91385 0.0
H1117 H 0.49356 0.73224 0.86557 0.0
H1118 H 0.72036 0.57783 0.98905 0.0
H1119 H 0.5171 0.70933 0.82133 0.0
H1120 H 0.78836 0.53411 0.83822 0.0
N1121 N 0.70516 0.5553 0.92374 0.0
C1122 C 0.73269 0.55514 0.91374 0.0
C1123 C 0.72416 0.57127 0.96795 0.0
C1124 C 0.75694 0.56463 0.93046 0.0
C1125 C 0.70089 0.55953 0.95078 0.0
C1126 C 0.7523 0.57405 0.95779 0.0
N1127 N 0.71265 0.53938 0.87083 0.0
C1128 C 0.71514 0.52762 0.84411 0.0
C1129 C 0.76459 0.54478 0.8753 0.0
C1130 C 0.7366 0.54543 0.88653 0.0
C1131 C 0.7673 0.53511 0.84769 0.0
C1132 C 0.7425 0.52604 0.83207 0.0
H1133 H 0.77028 0.58235 0.97129 0.0
H1134 H 0.80385 0.5716 0.93193 0.0
H1135 H 0.81049 0.55366 0.88378 0.0
O1136 O 0.66242 0.4628 0.87169 0.0
O1137 O 0.69354 0.61887 0.87642 0.0
O1138 O 0.67434 0.6885 0.90248 0.0
O1139 O 0.67822 0.46238 0.91207 0.0
O1140 O 0.64737 0.55421 0.85437 0.0
O1141 O 0.65116 0.65376 0.84515 0.0
O1142 O 0.63058 0.79046 0.88667 0.0
O1143 O 0.60553 0.62329 0.87369 0.0
O1144 O 0.6222 0.54914 0.90137 0.0
O1145 O 0.65656 0.75486 0.85496 0.0
O1146 O 0.64776 0.67511 0.92264 0.0
O1147 O 0.64434 0.57455 0.92677 0.0
C1148 C 0.6967 0.66765 0.88989 0.0
C1149 C 0.64641 0.38644 0.8995 0.0
C1150 C 0.62467 0.28996 0.89304 0.0
C1151 C 0.60239 0.30527 0.91088 0.0
C1152 C 0.62396 0.40067 0.91733 0.0
C1153 C 0.60224 0.36007 0.92311 0.0
C1154 C 0.64688 0.33068 0.88755 0.0
C1155 C 0.64835 0.59832 0.83752 0.0
C1156 C 0.66845 0.43062 0.89245 0.0
C1157 C 0.78496 0.56435 0.91939 0.0
C1158 C 0.78877 0.55416 0.89192 0.0
C1159 C 0.60096 0.57692 0.88875 0.0
C1160 C 0.63805 0.85162 0.84925 0.0
C1161 C 0.63345 0.95765 0.84319 0.0
C1162 C 0.62163 0.94764 0.81756 0.0
C1163 C 0.6262 0.8428 0.82368 0.0
C1164 C 0.64162 0.909 0.8589 0.0
C1165 C 0.61803 0.89068 0.80796 0.0
C1166 C 0.64179 0.62764 0.9368 0.0
C1167 C 0.64717 0.80235 0.8664 0.0
H1168 H 0.58509 0.27465 0.91539 0.0
H1169 H 0.62313 0.44329 0.92669 0.0
H1170 H 0.58503 0.37139 0.93689 0.0
H1171 H 0.66398 0.31961 0.87355 0.0
H1172 H 0.61548 0.98384 0.80472 0.0
H1173 H 0.62339 0.79913 0.8158 0.0
H1174 H 0.65045 0.91556 0.87883 0.0
H1175 H 0.60898 0.88367 0.78818 0.0
Tb1176 Tb 0.37115 0.54617 0.62324 0.0
C1177 C 0.45852 0.69092 0.68334 0.0
N1178 N 0.42931 0.6934 0.68672 0.0
C1179 C 0.43571 0.68919 0.73451 0.0
C1180 C 0.47744 0.68409 0.70535 0.0
C1181 C 0.41793 0.69692 0.712 0.0
C1182 C 0.46555 0.68136 0.73114 0.0
C1183 C 0.49967 0.70446 0.65374 0.0
C1184 C 0.46953 0.70116 0.65801 0.0
C1185 C 0.51869 0.6934 0.67521 0.0
C1186 C 0.50758 0.68322 0.701 0.0
Tb1187 Tb 0.4025 0.69914 0.64794 0.0
N1188 N 0.45046 0.71129 0.63778 0.0
C1189 C 0.50967 0.7209 0.62828 0.0
C1190 C 0.45993 0.73221 0.61358 0.0
C1191 C 0.48969 0.73604 0.60828 0.0
H1192 H 0.39503 0.7049 0.71489 0.0
H1193 H 0.4972 0.75045 0.58879 0.0
H1194 H 0.3511 0.57359 0.56105 0.0
H1195 H 0.30987 0.47477 0.71041 0.0
H1196 H 0.44442 0.74338 0.5981 0.0
H1197 H 0.5327 0.72392 0.62414 0.0
H1198 H 0.35395 0.48767 0.68352 0.0
H1199 H 0.42643 0.6899 0.75443 0.0
H1200 H 0.54197 0.69474 0.67229 0.0
H1201 H 0.52248 0.6771 0.7176 0.0
H1202 H 0.30519 0.58977 0.5365 0.0
H1203 H 0.47932 0.67611 0.74861 0.0
H1204 H 0.26185 0.49768 0.69078 0.0
N1205 N 0.33026 0.55903 0.59853 0.0
C1206 C 0.30478 0.55071 0.61161 0.0
C1207 C 0.30478 0.57893 0.55761 0.0
C1208 C 0.27814 0.55881 0.59837 0.0
C1209 C 0.33073 0.57041 0.57163 0.0
C1210 C 0.27834 0.57368 0.5711 0.0
N1211 N 0.33205 0.52683 0.6503 0.0
C1212 C 0.33358 0.50225 0.6753 0.0
C1213 C 0.27972 0.52541 0.65267 0.0
C1214 C 0.30571 0.5351 0.63849 0.0
C1215 C 0.28135 0.50555 0.67918 0.0
C1216 C 0.30841 0.49293 0.69038 0.0
H1217 H 0.25824 0.58039 0.56021 0.0
H1218 H 0.23174 0.55863 0.60287 0.0
H1219 H 0.23292 0.52666 0.65021 0.0
O1220 O 0.3624 0.45549 0.62533 0.0
O1221 O 0.34673 0.62977 0.61908 0.0
O1222 O 0.35735 0.67847 0.65737 0.0
O1223 O 0.38568 0.49318 0.59142 0.0
O1224 O 0.39052 0.54808 0.66324 0.0
O1225 O 0.38121 0.64137 0.67817 0.0
O1226 O 0.38356 0.77377 0.63015 0.0
O1227 O 0.43055 0.6369 0.62664 0.0
O1228 O 0.41611 0.54495 0.63883 0.0
O1229 O 0.41044 0.78127 0.66513 0.0
O1230 O 0.39121 0.69394 0.60453 0.0
O1231 O 0.39396 0.59563 0.5921 0.0
C1232 C 0.33909 0.6669 0.63795 0.0
C1233 C 0.37771 0.38772 0.59043 0.0
C1234 C 0.37557 0.28129 0.59426 0.0
C1235 C 0.38589 0.27673 0.56785 0.0
C1236 C 0.38784 0.3821 0.56401 0.0
C1237 C 0.39176 0.32688 0.5528 0.0
C1238 C 0.37119 0.33703 0.60539 0.0
C1239 C 0.38749 0.58588 0.68284 0.0
C1240 C 0.37527 0.44622 0.6026 0.0
C1241 C 0.25228 0.55156 0.6127 0.0
C1242 C 0.25303 0.53428 0.63969 0.0
C1243 C 0.43677 0.58306 0.63352 0.0
C1244 C 0.37654 0.85642 0.65789 0.0
C1245 C 0.36774 0.96177 0.6593 0.0
C1246 C 0.34826 0.95251 0.68065 0.0
C1247 C 0.35663 0.84778 0.67873 0.0
C1248 C 0.38131 0.91278 0.6478 0.0
C1249 C 0.34235 0.8958 0.68987 0.0
C1250 C 0.39306 0.65194 0.58627 0.0
C1251 C 0.39477 0.80905 0.64768 0.0
H1252 H 0.38927 0.23427 0.55881 0.0
H1253 H 0.39293 0.42039 0.55206 0.0
H1254 H 0.39963 0.32292 0.53244 0.0
H1255 H 0.36364 0.34075 0.6259 0.0
H1256 H 0.33789 0.98899 0.69049 0.0
H1257 H 0.3527 0.80436 0.68669 0.0
H1258 H 0.39611 0.91819 0.6311 0.0
H1259 H 0.3272 0.88925 0.70618 0.0
Tb1260 Tb 0.66484 0.49639 0.62429 0.0
C1261 C 0.57915 0.33712 0.69152 0.0
N1262 N 0.60784 0.34375 0.69696 0.0
C1263 C 0.59768 0.34429 0.74418 0.0
C1264 C 0.55847 0.33431 0.7123 0.0
C1265 C 0.61737 0.34697 0.72289 0.0
C1266 C 0.56807 0.33821 0.73887 0.0
C1267 C 0.54108 0.32401 0.6585 0.0
C1268 C 0.57061 0.3323 0.66496 0.0
C1269 C 0.52029 0.32244 0.67907 0.0
C1270 C 0.52897 0.32751 0.70591 0.0
Tb1271 Tb 0.63796 0.34994 0.66068 0.0
N1272 N 0.59137 0.33441 0.64556 0.0
C1273 C 0.53338 0.3163 0.63162 0.0
C1274 C 0.58409 0.32166 0.61963 0.0
C1275 C 0.55506 0.31405 0.61218 0.0
H1276 H 0.64025 0.35133 0.72725 0.0
H1277 H 0.5495 0.30515 0.59149 0.0
H1278 H 0.64306 0.50279 0.56076 0.0
H1279 H 0.77052 0.51017 0.66999 0.0
H1280 H 0.60028 0.31487 0.60457 0.0
H1281 H 0.51094 0.30986 0.62581 0.0
H1282 H 0.71717 0.50182 0.66944 0.0
H1283 H 0.60535 0.34703 0.76466 0.0
H1284 H 0.49749 0.31647 0.67445 0.0
H1285 H 0.51273 0.32559 0.72158 0.0
H1286 H 0.66591 0.50411 0.51589 0.0
H1287 H 0.55286 0.33622 0.75541 0.0
H1288 H 0.79782 0.51071 0.62711 0.0
N1289 N 0.6832 0.49926 0.58174 0.0
C1290 C 0.71261 0.50057 0.5799 0.0
C1291 C 0.6793 0.50277 0.53375 0.0
C1292 C 0.72661 0.50278 0.55482 0.0
C1293 C 0.66642 0.50118 0.55914 0.0
C1294 C 0.70952 0.50343 0.53157 0.0
N1295 N 0.71424 0.49872 0.62711 0.0
C1296 C 0.72884 0.50298 0.65082 0.0
C1297 C 0.75919 0.50456 0.60258 0.0
C1298 C 0.72871 0.50106 0.60337 0.0
C1299 C 0.77439 0.50741 0.62687 0.0
C1300 C 0.7591 0.50706 0.65109 0.0
H1301 H 0.71941 0.50543 0.5119 0.0
H1302 H 0.76827 0.50668 0.53472 0.0
H1303 H 0.79679 0.50859 0.57658 0.0
O1304 O 0.66359 0.57584 0.64532 0.0
O1305 O 0.69394 0.41864 0.62426 0.0
O1306 O 0.68367 0.37331 0.66389 0.0
O1307 O 0.6585 0.57402 0.60239 0.0
O1308 O 0.66087 0.50162 0.66809 0.0
O1309 O 0.65983 0.40982 0.68888 0.0
O1310 O 0.64661 0.26799 0.64351 0.0
O1311 O 0.60954 0.42705 0.66364 0.0
O1312 O 0.61735 0.48139 0.62521 0.0
O1313 O 0.64671 0.27887 0.68629 0.0
O1314 O 0.64828 0.34987 0.61713 0.0
O1315 O 0.63428 0.44085 0.60329 0.0
C1316 C 0.70034 0.37967 0.64291 0.0
C1317 C 0.67977 0.65816 0.62112 0.0
C1318 C 0.68472 0.76406 0.6226 0.0
C1319 C 0.7143 0.75858 0.61616 0.0
C1320 C 0.70928 0.65336 0.61475 0.0
C1321 C 0.72647 0.70338 0.61234 0.0
C1322 C 0.66769 0.71336 0.62523 0.0
C1323 C 0.66108 0.46777 0.68951 0.0
C1324 C 0.66089 0.60677 0.62349 0.0
C1325 C 0.75708 0.50505 0.55381 0.0
C1326 C 0.77334 0.5061 0.57764 0.0
C1327 C 0.60093 0.46579 0.64577 0.0
C1328 C 0.63223 0.18725 0.6694 0.0
C1329 C 0.63103 0.08148 0.66477 0.0
C1330 C 0.60201 0.08128 0.67348 0.0
C1331 C 0.60334 0.18638 0.67818 0.0
C1332 C 0.64595 0.13484 0.66267 0.0
C1333 C 0.58829 0.13359 0.68012 0.0
C1334 C 0.64105 0.3867 0.59789 0.0
C1335 C 0.64852 0.24199 0.66667 0.0
H1336 H 0.72792 0.79686 0.61375 0.0
H1337 H 0.71907 0.61141 0.61157 0.0
H1338 H 0.74923 0.69937 0.60734 0.0
H1339 H 0.64499 0.71666 0.63071 0.0
H1340 H 0.59008 0.04068 0.67552 0.0
H1341 H 0.59241 0.22609 0.68362 0.0
H1342 H 0.66818 0.13575 0.65553 0.0
H1343 H 0.566 0.13319 0.68694 0.0
H1344 H 0.24644 0.16926 0.16203 0.0
H1345 H 0.20574 0.26069 0.09621 0.0
H1346 H 0.24659 0.32792 0.09357 0.0
H1347 H 0.29407 0.36232 0.10987 0.0
H1348 H 0.33454 0.27395 0.17657 0.0
H1349 H 0.29456 0.20388 0.17826 0.0
C1350 C 0.24668 0.20337 0.14691 0.0
C1351 C 0.22282 0.20926 0.12933 0.0
C1352 C 0.27047 0.24284 0.14551 0.0
C1353 C 0.22355 0.25471 0.11015 0.0
C1354 C 0.24704 0.29344 0.10853 0.0
C1355 C 0.29407 0.32824 0.12496 0.0
C1356 C 0.31736 0.32449 0.14323 0.0
C1357 C 0.2706 0.28829 0.12618 0.0
C1358 C 0.31698 0.27871 0.16227 0.0
C1359 C 0.29401 0.23835 0.16331 0.0
H1360 H 0.81296 0.80697 0.10844 0.0
H1361 H 0.8113 0.85054 0.19239 0.0
H1362 H 0.76753 0.79106 0.19853 0.0
H1363 H 0.73003 0.72429 0.18034 0.0
H1364 H 0.73387 0.67442 0.09706 0.0
H1365 H 0.7762 0.73738 0.09051 0.0
C1366 C 0.80287 0.80361 0.12802 0.0
C1367 C 0.81538 0.83345 0.14994 0.0
C1368 C 0.77808 0.76751 0.1316 0.0
C1369 C 0.8022 0.82802 0.17523 0.0
C1370 C 0.77714 0.79389 0.17874 0.0
C1371 C 0.74007 0.7272 0.16073 0.0
C1372 C 0.72841 0.69451 0.13923 0.0
C1373 C 0.76494 0.76298 0.15715 0.0
C1374 C 0.74212 0.69877 0.11405 0.0
C1375 C 0.76642 0.73505 0.11023 0.0
H1376 H 0.28158 0.63683 0.37811 0.0
H1377 H 0.343 0.77247 0.39618 0.0
H1378 H 0.30435 0.84535 0.39593 0.0
H1379 H 0.25259 0.87095 0.38907 0.0
H1380 H 0.19059 0.73363 0.37568 0.0
H1381 H 0.22932 0.66083 0.37599 0.0
C1382 C 0.28643 0.68202 0.38236 0.0
C1383 C 0.31542 0.69921 0.38636 0.0
C1384 C 0.26376 0.72356 0.38282 0.0
C1385 C 0.32122 0.75829 0.39187 0.0
C1386 C 0.29894 0.8 0.39209 0.0
C1387 C 0.24756 0.8253 0.38625 0.0
C1388 C 0.21875 0.80828 0.38083 0.0
C1389 C 0.27009 0.78334 0.38719 0.0
C1390 C 0.21271 0.74832 0.37805 0.0
C1391 C 0.23486 0.70651 0.37873 0.0
H1392 H 0.80835 0.21326 0.41918 0.0
H1393 H 0.81183 0.18758 0.33367 0.0
H1394 H 0.76768 0.24556 0.32794 0.0
H1395 H 0.72848 0.30662 0.34694 0.0
H1396 H 0.72636 0.33705 0.43217 0.0
H1397 H 0.76929 0.27568 0.43818 0.0
C1398 C 0.79935 0.22022 0.39932 0.0
C1399 C 0.81354 0.19598 0.37686 0.0
C1400 C 0.77419 0.25528 0.39606 0.0
C1401 C 0.80156 0.20587 0.35128 0.0
C1402 C 0.77624 0.23913 0.34798 0.0
C1403 C 0.73737 0.29973 0.36685 0.0
C1404 C 0.72409 0.32703 0.38903 0.0
C1405 C 0.76245 0.26459 0.37016 0.0
C1406 C 0.73617 0.31755 0.41464 0.0
C1407 C 0.76073 0.28199 0.41813 0.0
H1408 H 0.73908 0.68052 0.85125 0.0
H1409 H 0.71698 0.72924 0.93212 0.0
H1410 H 0.76043 0.7901 0.93506 0.0
H1411 H 0.8045 0.83134 0.9146 0.0
H1412 H 0.82434 0.79174 0.83222 0.0
H1413 H 0.78277 0.72526 0.83008 0.0
C1414 C 0.744 0.70402 0.86956 0.0
C1415 C 0.72477 0.70009 0.89146 0.0
C1416 C 0.76879 0.74075 0.87088 0.0
C1417 C 0.73131 0.73151 0.91494 0.0
C1418 C 0.75619 0.76646 0.91665 0.0
C1419 C 0.79961 0.80874 0.89606 0.0
C1420 C 0.81799 0.81615 0.87373 0.0
C1421 C 0.77497 0.772 0.89468 0.0
C1422 C 0.81116 0.78592 0.84998 0.0
C1423 C 0.78716 0.74812 0.84866 0.0
H1424 H 0.31135 0.30411 0.84237 0.0
H1425 H 0.30676 0.35304 0.92562 0.0
H1426 H 0.26428 0.29013 0.93177 0.0
H1427 H 0.2282 0.21952 0.91347 0.0
H1428 H 0.23141 0.17607 0.82949 0.0
H1429 H 0.27469 0.2367 0.82382 0.0
C1430 C 0.30131 0.3003 0.86193 0.0
C1431 C 0.31274 0.33231 0.88359 0.0
C1432 C 0.2766 0.26436 0.86527 0.0
C1433 C 0.29861 0.32873 0.90857 0.0
C1434 C 0.27434 0.29242 0.91217 0.0
C1435 C 0.23863 0.22296 0.89404 0.0
C1436 C 0.2267 0.19297 0.87195 0.0
C1437 C 0.2632 0.25956 0.89071 0.0
C1438 C 0.24014 0.1987 0.84679 0.0
C1439 C 0.2649 0.23347 0.84352 0.0
H1440 H 0.72681 0.30984 0.68062 0.0
H1441 H 0.73394 0.36541 0.59812 0.0
H1442 H 0.77641 0.30292 0.59224 0.0
H1443 H 0.81213 0.23189 0.61053 0.0
H1444 H 0.80675 0.18166 0.69371 0.0
H1445 H 0.76312 0.2414 0.69916 0.0
C1446 C 0.73763 0.30839 0.66134 0.0
C1447 C 0.72693 0.34257 0.63987 0.0
C1448 C 0.76244 0.2727 0.65813 0.0
C1449 C 0.74155 0.34004 0.6151 0.0
C1450 C 0.76588 0.30399 0.61166 0.0
C1451 C 0.80127 0.2339 0.62979 0.0
C1452 C 0.81267 0.20223 0.65172 0.0
C1453 C 0.77656 0.26996 0.63299 0.0
C1454 C 0.79849 0.20572 0.67658 0.0
C1455 C 0.77353 0.23997 0.6797 0.0
H1456 H 0.2288 0.81709 0.60207 0.0
H1457 H 0.22566 0.85024 0.68702 0.0
H1458 H 0.26985 0.79274 0.69368 0.0
H1459 H 0.30882 0.72953 0.67571 0.0
H1460 H 0.30998 0.69035 0.59121 0.0
H1461 H 0.2674 0.75207 0.58418 0.0
C1462 C 0.23791 0.81192 0.622 0.0
C1463 C 0.22386 0.83822 0.64403 0.0
C1464 C 0.26296 0.77681 0.62585 0.0
C1465 C 0.23588 0.83042 0.66974 0.0
C1466 C 0.2612 0.79742 0.67357 0.0
C1467 C 0.29982 0.7346 0.65574 0.0
C1468 C 0.3128 0.70483 0.63407 0.0
C1469 C 0.27484 0.76978 0.65185 0.0
C1470 C 0.30049 0.7119 0.60838 0.0
C1471 C 0.27611 0.74764 0.60428 0.0
H1472 H 0.15667 0.05077 0.31168 0.0
H1473 H 0.15582 0.87199 0.28379 0.0
H1474 H 0.15469 0.90657 0.2375 0.0
H1475 H 0.15329 0.98594 0.20521 0.0
H1476 H 0.15598 0.1656 0.23159 0.0
H1477 H 0.15697 0.13182 0.27843 0.0
C1478 C 0.15641 0.01914 0.29554 0.0
C1479 C 0.15613 0.95842 0.3015 0.0
C1480 C 0.15597 0.03944 0.26874 0.0
C1481 C 0.15584 0.91867 0.28008 0.0
C1482 C 0.1552 0.93849 0.25352 0.0
C1483 C 0.15415 0.01836 0.22098 0.0
C1484 C 0.15433 0.07872 0.21452 0.0
C1485 C 0.15512 0.99863 0.24766 0.0
C1486 C 0.15559 0.1191 0.23569 0.0
C1487 C 0.15623 0.09967 0.26253 0.0
H1488 H 0.90285 0.11474 0.29047 0.0
H1489 H 0.88068 0.95229 0.32965 0.0
H1490 H 0.88027 0.90231 0.28692 0.0
H1491 H 0.883 0.90508 0.23752 0.0
H1492 H 0.90892 0.06603 0.19889 0.0
H1493 H 0.91101 0.11512 0.24182 0.0
C1494 C 0.89798 0.06862 0.28975 0.0
C1495 C 0.89113 0.03853 0.31349 0.0
C1496 C 0.89839 0.03914 0.26493 0.0
C1497 C 0.88564 0.97772 0.31188 0.0
C1498 C 0.88538 0.94858 0.28731 0.0
C1499 C 0.88985 0.95033 0.23851 0.0
C1500 C 0.89577 0.98124 0.21476 0.0
C1501 C 0.89135 0.97889 0.26357 0.0
C1502 C 0.90408 0.04059 0.21668 0.0
C1503 C 0.90523 0.06917 0.24133 0.0
H1504 H 0.90917 0.10834 0.7359 0.0
H1505 H 0.87602 0.95489 0.69605 0.0
H1506 H 0.8761 0.90142 0.738 0.0
H1507 H 0.88214 0.89936 0.78711 0.0
H1508 H 0.92075 0.04861 0.82617 0.0
H1509 H 0.92174 0.1018 0.78388 0.0
C1510 C 0.90179 0.06355 0.73637 0.0
C1511 C 0.89142 0.03736 0.71276 0.0
C1512 C 0.90283 0.03164 0.76065 0.0
C1513 C 0.88335 0.97767 0.71382 0.0
C1514 C 0.88344 0.94647 0.73793 0.0
C1515 C 0.89158 0.94273 0.78628 0.0
C1516 C 0.90115 0.96966 0.80999 0.0
C1517 C 0.89273 0.97316 0.76162 0.0
C1518 C 0.91288 0.02664 0.80836 0.0
C1519 C 0.91345 0.05742 0.78412 0.0
H1520 H 0.14886 0.12328 0.78252 0.0
H1521 H 0.14563 0.95733 0.82375 0.0
H1522 H 0.14606 0.90629 0.78113 0.0
H1523 H 0.14945 0.90829 0.73167 0.0
H1524 H 0.14443 0.07515 0.69108 0.0
H1525 H 0.14495 0.12542 0.73363 0.0
C1526 C 0.1476 0.07625 0.78238 0.0
C1527 C 0.14742 0.04512 0.80668 0.0
C1528 C 0.14661 0.04666 0.75764 0.0
C1529 C 0.14608 0.98336 0.80557 0.0
C1530 C 0.14631 0.95368 0.78109 0.0
C1531 C 0.14773 0.95537 0.73202 0.0
C1532 C 0.14723 0.98706 0.70779 0.0
C1533 C 0.14681 0.98483 0.75689 0.0
C1534 C 0.14541 0.04872 0.70911 0.0
C1535 C 0.14561 0.07803 0.73358 0.0
H1536 H 0.6734 0.40879 0.29477 0.0
H1537 H 0.61297 0.53538 0.3258 0.0
H1538 H 0.61215 0.58597 0.28279 0.0
H1539 H 0.62928 0.59607 0.23636 0.0
H1540 H 0.68757 0.46765 0.20409 0.0
H1541 H 0.68826 0.41609 0.24694 0.0
C1542 C 0.65963 0.4467 0.29193 0.0
C1543 C 0.64332 0.4681 0.31365 0.0
C1544 C 0.65929 0.47621 0.2669 0.0
C1545 C 0.62583 0.51784 0.30955 0.0
C1546 C 0.62544 0.54716 0.28493 0.0
C1547 C 0.64295 0.55826 0.23896 0.0
C1548 C 0.65975 0.53844 0.21734 0.0
C1549 C 0.6425 0.52751 0.26357 0.0
C1550 C 0.67541 0.48592 0.22059 0.0
C1551 C 0.67557 0.45577 0.24512 0.0
H1552 H 0.41103 0.59906 0.2881 0.0
H1553 H 0.35586 0.46507 0.32115 0.0
H1554 H 0.35622 0.41322 0.27869 0.0
H1555 H 0.37093 0.40689 0.23098 0.0
H1556 H 0.42789 0.53922 0.19877 0.0
H1557 H 0.42827 0.58997 0.24166 0.0
C1558 C 0.39833 0.55979 0.28579 0.0
C1559 C 0.38207 0.53855 0.30756 0.0
C1560 C 0.39942 0.52877 0.26137 0.0
C1561 C 0.36758 0.48449 0.30458 0.0
C1562 C 0.36804 0.45408 0.28026 0.0
C1563 C 0.38392 0.44605 0.23357 0.0
C1564 C 0.39936 0.46905 0.21161 0.0
C1565 C 0.3838 0.47581 0.2584 0.0
C1566 C 0.41579 0.52043 0.21529 0.0
C1567 C 0.41587 0.54986 0.23981 0.0
H1568 H 0.40768 0.43188 0.78638 0.0
H1569 H 0.34056 0.54304 0.81784 0.0
H1570 H 0.33891 0.59698 0.77558 0.0
H1571 H 0.35656 0.61291 0.72882 0.0
H1572 H 0.4247 0.50207 0.6988 0.0
H1573 H 0.42637 0.44924 0.7412 0.0
C1574 C 0.39239 0.46715 0.78405 0.0
C1575 C 0.37397 0.48196 0.80549 0.0
C1576 C 0.3921 0.49927 0.75982 0.0
C1577 C 0.35479 0.5294 0.8018 0.0
C1578 C 0.35398 0.5609 0.77758 0.0
C1579 C 0.37208 0.57791 0.7318 0.0
C1580 C 0.39054 0.56174 0.71056 0.0
C1581 C 0.37267 0.54656 0.7564 0.0
C1582 C 0.41024 0.51559 0.71471 0.0
C1583 C 0.4111 0.48494 0.73897 0.0
H1584 H 0.68392 0.61927 0.79435 0.0
H1585 H 0.60376 0.5364 0.81758 0.0
H1586 H 0.60084 0.4871 0.77426 0.0
H1587 H 0.62231 0.46344 0.73042 0.0
H1588 H 0.70216 0.54619 0.70665 0.0
H1589 H 0.70393 0.59957 0.74891 0.0
C1590 C 0.66542 0.59188 0.78951 0.0
C1591 C 0.64387 0.58217 0.809 0.0
C1592 C 0.66421 0.5623 0.76461 0.0
C1593 C 0.62041 0.54514 0.80276 0.0
C1594 C 0.61888 0.51641 0.77808 0.0
C1595 C 0.64053 0.49168 0.73486 0.0
C1596 C 0.66287 0.49806 0.71588 0.0
C1597 C 0.64103 0.5234 0.7591 0.0
C1598 C 0.68522 0.53846 0.72116 0.0
C1599 C 0.6861 0.56963 0.74534 0.0
H1600 H 0.11045 0.08546 0.96509 0.0
H1601 H 0.16508 0.23695 0.95472 0.0
H1602 H 0.16841 0.24809 1.00364 0.0
H1603 H 0.15976 0.20774 0.04954 0.0
H1604 H 0.10695 0.05291 0.05823 0.0
H1605 H 0.09918 0.04981 1.00993 0.0
C1606 C 0.12275 0.12156 0.97349 0.0
C1607 C 0.1376 0.16016 0.95625 0.0
C1608 C 0.12522 0.12653 1.00145 0.0
C1609 C 0.15326 0.20687 0.96749 0.0
C1610 C 0.15541 0.21282 0.99549 0.0
C1611 C 0.14613 0.17408 0.04082 0.0
C1612 C 0.13396 0.13051 0.05748 0.0
C1613 C 0.14208 0.17196 0.01271 0.0
C1614 C 0.11666 0.08671 0.04588 0.0
C1615 C 0.11218 0.08492 0.01824 0.0
H1616 H 0.92302 0.93987 0.96895 0.0
H1617 H 0.86984 0.7858 0.96119 0.0
H1618 H 0.8687 0.77497 1.01031 0.0
H1619 H 0.87831 0.81739 0.05564 0.0
H1620 H 0.93084 0.97326 0.06141 0.0
H1621 H 0.93695 0.97514 0.013 0.0
C1622 C 0.91147 0.90343 0.97801 0.0
C1623 C 0.89625 0.86407 0.96165 0.0
C1624 C 0.91067 0.89812 1.00595 0.0
C1625 C 0.88175 0.81656 0.9735 0.0
C1626 C 0.88095 0.81068 1.00155 0.0
C1627 C 0.89163 0.85074 0.04623 0.0
C1628 C 0.90386 0.89547 0.06198 0.0
C1629 C 0.89469 0.85222 0.01805 0.0
C1630 C 0.92093 0.93879 0.04963 0.0
C1631 C 0.92443 0.93998 0.02195 0.0
H1632 H 0.10832 0.92703 0.4629 0.0
H1633 H 0.17659 0.80051 0.45355 0.0
H1634 H 0.17924 0.78797 0.50253 0.0
H1635 H 0.16533 0.82186 0.54836 0.0
H1636 H 0.09773 0.95081 0.55607 0.0
H1637 H 0.09132 0.95314 0.50756 0.0
C1638 C 0.12354 0.89615 0.47161 0.0
C1639 C 0.14245 0.86518 0.4548 0.0
C1640 C 0.12502 0.88973 0.49955 0.0
C1641 C 0.16181 0.82476 0.46619 0.0
C1642 C 0.16341 0.81789 0.49417 0.0
C1643 C 0.14863 0.84892 0.53934 0.0
C1644 C 0.1319 0.88592 0.55569 0.0
C1645 C 0.14552 0.85114 0.51114 0.0
C1646 C 0.11078 0.9219 0.54383 0.0
C1647 C 0.10721 0.92352 0.5161 0.0
H1648 H 0.9294 0.07968 0.55639 0.0
H1649 H 0.87849 0.23595 0.56587 0.0
H1650 H 0.87798 0.25052 0.51707 0.0
H1651 H 0.88687 0.21072 0.47123 0.0
H1652 H 0.93756 0.05355 0.4632 0.0
H1653 H 0.94381 0.04799 0.51161 0.0
C1654 C 0.91876 0.11766 0.54777 0.0
C1655 C 0.90396 0.15655 0.56462 0.0
C1656 C 0.91844 0.12544 0.51982 0.0
C1657 C 0.89029 0.20568 0.55328 0.0
C1658 C 0.88978 0.21371 0.52535 0.0
C1659 C 0.90009 0.17658 0.48012 0.0
C1660 C 0.91179 0.1326 0.46367 0.0
C1661 C 0.90313 0.17293 0.50831 0.0
C1662 C 0.9284 0.08787 0.47545 0.0
C1663 C 0.93183 0.08443 0.50317 0.0
H1664 H 0.60879 0.58868 0.05807 0.0
H1665 H 0.67155 0.72612 0.0696 0.0
H1666 H 0.67552 0.73889 0.02077 0.0
H1667 H 0.66462 0.70322 0.97445 0.0
H1668 H 0.60501 0.55937 0.96476 0.0
H1669 H 0.59654 0.55643 0.0129 0.0
C1670 C 0.62306 0.62206 0.04992 0.0
C1671 C 0.63998 0.65609 0.06746 0.0
C1672 C 0.62605 0.62741 0.02198 0.0
C1673 C 0.65818 0.69945 0.05657 0.0
C1674 C 0.66067 0.7063 0.02861 0.0
C1675 C 0.64939 0.67209 0.98292 0.0
C1676 C 0.6352 0.63183 0.96593 0.0
C1677 C 0.64524 0.66947 0.01104 0.0
C1678 C 0.61603 0.59093 0.97728 0.0
C1679 C 0.6112 0.58917 1.00487 0.0
H1680 H 0.42889 0.42455 0.96683 0.0
H1681 H 0.35281 0.31962 0.95276 0.0
H1682 H 0.34669 0.30553 1.00137 0.0
H1683 H 0.36094 0.33127 0.04844 0.0
H1684 H 0.43679 0.43841 0.06079 0.0
H1685 H 0.44532 0.44274 0.01265 0.0
C1686 C 0.41114 0.39805 0.97444 0.0
C1687 C 0.39114 0.3737 0.95634 0.0
C1688 C 0.40781 0.39043 1.00225 0.0
C1689 C 0.36846 0.33886 0.96636 0.0
C1690 C 0.36492 0.33105 0.99416 0.0
C1691 C 0.37974 0.35399 0.04051 0.0
C1692 C 0.39845 0.3839 0.05819 0.0
C1693 C 0.38419 0.35753 0.01241 0.0
C1694 C 0.42232 0.41452 0.04763 0.0
C1695 C 0.4271 0.41741 0.02006 0.0
H1696 H 0.67344 0.32638 0.47795 0.0
H1697 H 0.59719 0.43107 0.4645 0.0
H1698 H 0.58764 0.43415 0.51252 0.0
H1699 H 0.60374 0.41656 0.55856 0.0
H1700 H 0.68164 0.31791 0.57341 0.0
H1701 H 0.68773 0.3022 0.52502 0.0
C1702 C 0.65428 0.34807 0.48563 0.0
C1703 C 0.6355 0.37703 0.46772 0.0
C1704 C 0.64949 0.35143 0.5136 0.0
C1705 C 0.61136 0.40703 0.47787 0.0
C1706 C 0.60609 0.40937 0.50536 0.0
C1707 C 0.62176 0.39072 0.55117 0.0
C1708 C 0.64227 0.36865 0.5694 0.0
C1709 C 0.62537 0.38301 0.52343 0.0
C1710 C 0.66548 0.33507 0.5597 0.0
C1711 C 0.66907 0.32651 0.53202 0.0
H1712 H 0.43069 0.61061 0.54983 0.0
H1713 H 0.35779 0.72642 0.55823 0.0
H1714 H 0.35524 0.73831 0.50923 0.0
H1715 H 0.37094 0.70638 0.46353 0.0
H1716 H 0.44467 0.5915 0.45674 0.0
H1717 H 0.45014 0.58962 0.5053 0.0
C1718 C 0.41464 0.63941 0.54091 0.0
C1719 C 0.3945 0.66767 0.55748 0.0
C1720 C 0.41347 0.64615 0.5129 0.0
C1721 C 0.37375 0.70481 0.5458 0.0
C1722 C 0.37218 0.71123 0.51778 0.0
C1723 C 0.38875 0.68271 0.47273 0.0
C1724 C 0.40737 0.64907 0.45655 0.0
C1725 C 0.3916 0.68112 0.50102 0.0
C1726 C 0.43005 0.61765 0.46876 0.0
C1727 C 0.4331 0.61621 0.49656 0.0
H1728 H 0.9822 0.95106 0.10702 0.0
H1729 H 0.95295 0.05731 0.17276 0.0
H1730 H 1.00213 0.09611 0.17867 0.0
H1731 H 0.0542 0.0956 0.16648 0.0
H1732 H 0.0819 0.99717 0.09754 0.0
H1733 H 0.03327 0.95675 0.0926 0.0
C1734 C 0.98663 0.98254 0.1227 0.0
C1735 C 0.96398 1.00052 0.13971 0.0
C1736 C 1.01494 1.00506 0.12577 0.0
C1737 C 0.96992 0.04265 0.15943 0.0
C1738 C 0.99813 0.06457 0.16291 0.0
C1739 C 0.04951 0.06662 0.14994 0.0
C1740 C 0.07207 0.04965 0.1325 0.0
C1741 C 0.02092 0.04568 0.14634 0.0
C1742 C 0.06547 1.0102 0.11174 0.0
C1743 C 0.03742 0.98755 0.10864 0.0
H1744 H 0.97902 0.06897 0.35529 0.0
H1745 H 0.95768 0.98621 0.43045 0.0
H1746 H 1.00818 0.95421 0.4356 0.0
H1747 H 0.059 0.9512 0.41868 0.0
H1748 H 0.07834 0.0268 0.34153 0.0
H1749 H 0.02847 0.06263 0.33766 0.0
C1750 C 0.98541 0.04386 0.37282 0.0
C1751 C 0.96462 0.03029 0.39256 0.0
C1752 C 1.01436 0.02569 0.37553 0.0
C1753 C 0.97313 0.99685 0.41488 0.0
C1754 C 1.00212 0.97924 0.41798 0.0
C1755 C 0.05224 0.97634 0.40129 0.0
C1756 C 0.07227 0.98749 0.3806 0.0
C1757 C 0.02304 0.99396 0.39855 0.0
C1758 C 0.06328 0.01857 0.35779 0.0
C1759 C 0.03475 0.03848 0.35547 0.0
H1760 H 0.0697 1.00462 0.91585 0.0
H1761 H 0.06038 0.1018 0.84202 0.0
H1762 H 1.0093 0.07655 0.83977 0.0
H1763 H 0.96671 0.02516 0.85804 0.0
H1764 H 0.97565 0.92405 0.93054 0.0
H1765 H 0.02685 0.9517 0.9339 0.0
C1766 C 0.05653 0.01978 0.8992 0.0
C1767 C 0.06896 0.05607 0.87947 0.0
C1768 C 0.02681 1.00437 0.89775 0.0
C1769 C 0.05141 0.07514 0.85796 0.0
C1770 C 0.02207 0.06046 0.85651 0.0
C1771 C 0.97981 1.0101 0.87478 0.0
C1772 C 0.96745 0.97285 0.89404 0.0
C1773 C 1.00942 0.02539 0.87633 0.0
C1774 C 0.98478 0.95267 0.91538 0.0
C1775 C 1.01408 0.9684 0.9173 0.0
H1776 H 0.98598 0.10252 0.66008 0.0
H1777 H 0.95033 0.97057 0.60812 0.0
H1778 H 0.9986 0.92898 0.60194 0.0
H1779 H 0.05143 0.93238 0.61008 0.0
H1780 H 0.08718 0.06469 0.66188 0.0
H1781 H 0.03868 0.10613 0.66816 0.0
C1782 C 0.98869 0.06528 0.64707 0.0
C1783 C 0.96421 0.04041 0.63429 0.0
C1784 C 1.01674 0.04216 0.64333 0.0
C1785 C 0.96842 0.99067 0.61829 0.0
C1786 C 0.99619 0.96704 0.61463 0.0
C1787 C 0.04858 0.96951 0.62315 0.0
C1788 C 0.07298 0.99455 0.63585 0.0
C1789 C 0.02054 0.99261 0.62693 0.0
C1790 C 0.06891 0.04441 0.65183 0.0
C1791 C 0.04111 0.06792 0.65557 0.0
H1792 H 0.46803 0.52287 0.16549 0.0
H1793 H 0.47718 0.42499 0.09238 0.0
H1794 H 0.52865 0.45048 0.09017 0.0
H1795 H 0.57159 0.50123 0.10908 0.0
H1796 H 0.56292 0.59074 0.18473 0.0
H1797 H 0.51138 0.56874 0.18568 0.0
C1798 C 0.48124 0.50795 0.1489 0.0
C1799 C 0.46861 0.47301 0.12887 0.0
C1800 C 0.51119 0.52132 0.1482 0.0
C1801 C 0.48625 0.45255 0.1079 0.0
C1802 C 0.51578 0.46692 0.10668 0.0
C1803 C 0.55851 0.51553 0.12587 0.0
C1804 C 0.57133 0.54917 0.14639 0.0
C1805 C 0.52862 0.50117 0.12678 0.0
C1806 C 0.55379 0.56652 0.16812 0.0
C1807 C 0.52414 0.55359 0.16884 0.0
H1808 H 0.46751 0.49655 0.41444 0.0
H1809 H 0.47655 0.58669 0.3387 0.0
H1810 H 0.52795 0.56389 0.33765 0.0
H1811 H 0.57106 0.51804 0.358 0.0
H1812 H 0.56159 0.41981 0.43125 0.0
H1813 H 0.51021 0.44537 0.4334 0.0
C1814 C 0.48063 0.51062 0.39757 0.0
C1815 C 0.46804 0.5446 0.37705 0.0
C1816 C 0.51042 0.49607 0.39666 0.0
C1817 C 0.48558 0.56194 0.35525 0.0
C1818 C 0.51512 0.54868 0.3545 0.0
C1819 C 0.55777 0.50295 0.37457 0.0
C1820 C 0.57026 0.46806 0.39471 0.0
C1821 C 0.5279 0.51624 0.37519 0.0
C1822 C 0.55261 0.44745 0.4157 0.0
C1823 C 0.52313 0.46179 0.41686 0.0
H1824 H 0.47633 0.47604 0.9182 0.0
H1825 H 0.45897 0.52946 0.83687 0.0
H1826 H 0.5084 0.56824 0.83279 0.0
H1827 H 0.55725 0.58372 0.85184 0.0
H1828 H 0.5767 0.51742 0.9308 0.0
H1829 H 0.52633 0.48569 0.93617 0.0
C1830 C 0.48336 0.49692 0.89976 0.0
C1831 C 0.46392 0.50099 0.87802 0.0
C1832 C 0.51238 0.51607 0.89705 0.0
C1833 C 0.47348 0.52648 0.85394 0.0
C1834 C 0.50178 0.54832 0.85157 0.0
C1835 C 0.55041 0.56275 0.87031 0.0
C1836 C 0.57068 0.55435 0.89117 0.0
C1837 C 0.52154 0.54288 0.8729 0.0
C1838 C 0.56158 0.52532 0.9146 0.0
C1839 C 0.53269 0.50726 0.9177 0.0
H1840 H 0.46836 0.52118 0.67006 0.0
H1841 H 0.47415 0.60334 0.59246 0.0
H1842 H 0.52535 0.57555 0.58912 0.0
H1843 H 0.56873 0.52669 0.60822 0.0
H1844 H 0.56372 0.45434 0.6881 0.0
H1845 H 0.51244 0.47842 0.69041 0.0
C1846 C 0.4808 0.53228 0.65232 0.0
C1847 C 0.46738 0.56331 0.63133 0.0
C1848 C 0.51054 0.51767 0.6509 0.0
C1849 C 0.48396 0.57895 0.60877 0.0
C1850 C 0.51327 0.56318 0.60689 0.0
C1851 C 0.5565 0.51648 0.6262 0.0
C1852 C 0.57017 0.4867 0.64758 0.0
C1853 C 0.52689 0.53251 0.62785 0.0
C1854 C 0.55381 0.47502 0.67085 0.0
C1855 C 0.52436 0.48933 0.67234 0.0
H1856 H 0.09393 0.70922 0.15457 0.0
H1857 H 0.18443 0.71694 0.13289 0.0
H1858 H 0.19042 0.61441 0.14617 0.0
H1859 H 0.16941 0.52132 0.1634 0.0
H1860 H 0.07895 0.51598 0.18521 0.0
H1861 H 0.07327 0.6181 0.17172 0.0
C1862 C 0.11496 0.68847 0.15255 0.0
C1863 C 0.13863 0.72084 0.14257 0.0
C1864 C 0.11816 0.62955 0.16001 0.0
C1865 C 0.16586 0.69337 0.14071 0.0
C1866 C 0.16925 0.63453 0.1481 0.0
C1867 C 0.14848 0.54265 0.165 0.0
C1868 C 0.12458 0.5113 0.17526 0.0
C1869 C 0.14549 0.60198 0.15762 0.0
C1870 C 0.09763 0.5394 0.1775 0.0
C1871 C 0.09439 0.59775 0.16982 0.0
H1872 H 0.92668 0.33262 0.14691 0.0
H1873 H 0.84449 0.30229 0.10735 0.0
H1874 H 0.82992 0.40245 0.11676 0.0
H1875 H 0.84131 0.50004 0.13453 0.0
H1876 H 0.92437 0.53238 0.17118 0.0
H1877 H 0.93849 0.43064 0.16333 0.0
C1878 C 0.90574 0.34782 0.13989 0.0
C1879 C 0.88683 0.30924 0.12637 0.0
C1880 C 0.89781 0.40617 0.14455 0.0
C1881 C 0.85944 0.33009 0.11821 0.0
C1882 C 0.85114 0.38775 0.12332 0.0
C1883 C 0.86224 0.48448 0.14113 0.0
C1884 C 0.88155 0.52319 0.15379 0.0
C1885 C 0.8702 0.42621 0.13635 0.0
C1886 C 0.90913 0.50318 0.16145 0.0
C1887 C 0.91714 0.44506 0.15705 0.0
H1888 H 0.09971 0.32853 0.36491 0.0
H1889 H 0.18544 0.29442 0.39637 0.0
H1890 H 0.20015 0.39419 0.38561 0.0
H1891 H 0.18849 0.49201 0.36786 0.0
H1892 H 0.10219 0.52678 0.33832 0.0
H1893 H 0.08765 0.42656 0.34865 0.0
C1894 C 0.12151 0.34294 0.36978 0.0
C1895 C 0.14139 0.30353 0.38134 0.0
C1896 C 0.1297 0.40081 0.36409 0.0
C1897 C 0.16974 0.32314 0.38699 0.0
C1898 C 0.17816 0.38047 0.38106 0.0
C1899 C 0.16658 0.47743 0.36355 0.0
C1900 C 0.14648 0.51669 0.35228 0.0
C1901 C 0.15833 0.41969 0.36959 0.0
C1902 C 0.118 0.49754 0.34721 0.0
C1903 C 0.10971 0.44015 0.35297 0.0
H1904 H 0.83795 0.53227 0.38106 0.0
H1905 H 0.92786 0.49221 0.36709 0.0
H1906 H 0.94115 0.59359 0.37734 0.0
H1907 H 0.92685 0.69329 0.38969 0.0
H1908 H 0.83696 0.72947 0.40812 0.0
H1909 H 0.82384 0.63027 0.3956 0.0
C1910 C 0.86036 0.54573 0.38013 0.0
C1911 C 0.8818 0.505 0.37314 0.0
C1912 C 0.86777 0.60354 0.38651 0.0
C1913 C 0.91096 0.52287 0.37248 0.0
C1914 C 0.91851 0.58079 0.37824 0.0
C1915 C 0.90441 0.67961 0.39144 0.0
C1916 C 0.88302 0.71975 0.39983 0.0
C1917 C 0.89706 0.62151 0.38529 0.0
C1918 C 0.85397 0.70069 0.40118 0.0
C1919 C 0.8464 0.6435 0.39433 0.0
H1920 H 0.90147 0.33649 0.92884 0.0
H1921 H 0.87565 0.25823 0.854 0.0
H1922 H 0.86412 0.35493 0.8356 0.0
H1923 H 0.86475 0.4616 0.83994 0.0
H1924 H 0.88572 0.53898 0.91663 0.0
H1925 H 0.89649 0.44283 0.93485 0.0
C1926 C 0.89315 0.34082 0.90856 0.0
C1927 C 0.88965 0.29073 0.89265 0.0
C1928 C 0.88618 0.39632 0.89831 0.0
C1929 C 0.8785 0.29641 0.86655 0.0
C1930 C 0.87204 0.35162 0.85603 0.0
C1931 C 0.87102 0.45785 0.86082 0.0
C1932 C 0.87503 0.50847 0.8765 0.0
C1933 C 0.87618 0.40198 0.87162 0.0
C1934 C 0.88348 0.50161 0.90353 0.0
C1935 C 0.88935 0.44634 0.91418 0.0
H1936 H 0.1381 0.56223 0.85607 0.0
H1937 H 0.18012 0.47971 0.9235 0.0
H1938 H 0.20376 0.57247 0.93509 0.0
H1939 H 0.20907 0.67842 0.92803 0.0
H1940 H 0.16785 0.75949 0.85954 0.0
H1941 H 0.14709 0.66579 0.84651 0.0
C1942 C 0.15263 0.56463 0.87318 0.0
C1943 C 0.15719 0.51483 0.88914 0.0
C1944 C 0.16605 0.61773 0.87965 0.0
C1945 C 0.17633 0.51779 0.91101 0.0
C1946 C 0.18973 0.57071 0.91766 0.0
C1947 C 0.19606 0.67544 0.90995 0.0
C1948 C 0.18965 0.72625 0.89509 0.0
C1949 C 0.18433 0.62121 0.90239 0.0
C1950 C 0.17254 0.72146 0.87178 0.0
C1951 C 0.16078 0.66781 0.86419 0.0
H1952 H 0.88812 0.68199 0.58973 0.0
H1953 H 0.85699 0.75713 0.6635 0.0
H1954 H 0.84493 0.65939 0.6804 0.0
H1955 H 0.84607 0.55221 0.67523 0.0
H1956 H 0.87599 0.47822 0.60059 0.0
H1957 H 0.88646 0.57576 0.58348 0.0
C1958 C 0.87875 0.67705 0.60956 0.0
C1959 C 0.87375 0.72693 0.62541 0.0
C1960 C 0.87204 0.62079 0.61918 0.0
C1961 C 0.86098 0.71965 0.65081 0.0
C1962 C 0.85426 0.66369 0.66055 0.0
C1963 C 0.85448 0.55721 0.65506 0.0
C1964 C 0.86059 0.50723 0.63948 0.0
C1965 C 0.86004 0.61383 0.64504 0.0
C1966 C 0.87175 0.51529 0.61345 0.0
C1967 C 0.87752 0.57128 0.60348 0.0
H1968 H 0.18331 0.36826 0.57416 0.0
H1969 H 0.15977 0.27473 0.64646 0.0
H1970 H 0.16062 0.36622 0.67139 0.0
H1971 H 0.16537 0.47444 0.67221 0.0
H1972 H 0.17963 0.56645 0.59768 0.0
H1973 H 0.18345 0.4741 0.57394 0.0
C1974 C 0.17754 0.36721 0.59519 0.0
C1975 C 0.17118 0.3136 0.608 0.0
C1976 C 0.176 0.42032 0.60909 0.0
C1977 C 0.16524 0.31444 0.63576 0.0
C1978 C 0.16531 0.36714 0.6501 0.0
C1979 C 0.16931 0.47413 0.65078 0.0
C1980 C 0.1727 0.52746 0.63686 0.0
C1981 C 0.17029 0.42052 0.63689 0.0
C1982 C 0.17697 0.52625 0.60896 0.0
C1983 C 0.17936 0.47338 0.59535 0.0
H1984 H 0.63811 0.05407 0.17871 0.0
H1985 H 0.6742 0.97433 0.108 0.0
H1986 H 0.69879 0.06589 0.09648 0.0
H1987 H 0.70611 0.17059 0.10449 0.0
H1988 H 0.67001 0.25005 0.17543 0.0
H1989 H 0.64877 0.1566 0.18868 0.0
C1990 C 0.65134 0.05696 0.16077 0.0
C1991 C 0.65417 1.00818 0.14402 0.0
C1992 C 0.66509 0.10961 0.15421 0.0
C1993 C 0.67182 1.01163 0.12115 0.0
C1994 C 0.68573 0.0639 0.11451 0.0
C1995 C 0.69418 0.16719 0.12316 0.0
C1996 C 0.68938 0.21724 0.1388 0.0
C1997 C 0.68206 0.11343 0.13066 0.0
C1998 C 0.67354 0.2123 0.16279 0.0
C1999 C 0.66148 0.15893 0.17043 0.0
H2000 H 0.3272 0.84407 0.12392 0.0
H2001 H 0.39462 0.78737 0.07012 0.0
H2002 H 0.41824 0.88284 0.07342 0.0
H2003 H 0.42056 0.98073 0.09262 0.0
H2004 H 0.35597 0.03452 0.15014 0.0
H2005 H 0.32973 0.94305 0.14347 0.0
C2006 C 0.34683 0.85312 0.11266 0.0
C2007 C 0.35913 0.80912 0.09669 0.0
C2008 C 0.36066 0.90764 0.11517 0.0
C2009 C 0.38484 0.82074 0.08254 0.0
C2010 C 0.39831 0.87522 0.08441 0.0
C2011 C 0.40091 0.9724 0.10395 0.0
C2012 C 0.3904 1.01476 0.12189 0.0
C2013 C 0.38661 0.9187 0.10092 0.0
C2014 C 0.36444 1.00339 0.13585 0.0
C2015 C 0.34954 0.95069 0.13228 0.0
H2016 H 0.70622 0.97804 0.3673 0.0
H2017 H 0.61855 0.02858 0.3872 0.0
H2018 H 0.61026 0.93407 0.40822 0.0
H2019 H 0.62831 0.83854 0.42282 0.0
H2020 H 0.71449 0.78415 0.40093 0.0
H2021 H 0.72272 0.87806 0.37815 0.0
C2022 C 0.68514 0.96813 0.3758 0.0
C2023 C 0.6633 1.01122 0.37613 0.0
C2024 C 0.68022 0.91292 0.38749 0.0
C2025 C 0.63613 0.99724 0.38736 0.0
C2026 C 0.63123 0.94291 0.39923 0.0
C2027 C 0.64882 0.84731 0.41293 0.0
C2028 C 0.67091 0.80519 0.41376 0.0
C2029 C 0.65323 0.90085 0.3998 0.0
C2030 C 0.69724 0.81626 0.40053 0.0
C2031 C 0.70195 0.86991 0.38763 0.0
H2032 H 0.40016 0.0569 0.34397 0.0
H2033 H 0.37485 0.97255 0.41781 0.0
H2034 H 0.35126 0.06242 0.43276 0.0
H2035 H 0.34075 0.16655 0.42598 0.0
H2036 H 0.36575 0.25041 0.35182 0.0
H2037 H 0.3868 0.15909 0.33591 0.0
C2038 C 0.38951 0.05836 0.36334 0.0
C2039 C 0.3895 1.00868 0.37992 0.0
C2040 C 0.37605 0.10996 0.37176 0.0
C2041 C 0.37513 1.01047 0.40473 0.0
C2042 C 0.36174 0.06179 0.41331 0.0
C2043 C 0.35026 0.16454 0.40612 0.0
C2044 C 0.3519 0.21527 0.39021 0.0
C2045 C 0.36235 0.11197 0.3971 0.0
C2046 C 0.36463 0.21214 0.36463 0.0
C2047 C 0.37661 0.15997 0.35549 0.0
H2048 H 0.42272 0.85586 0.90858 0.0
H2049 H 0.37406 0.78419 0.84227 0.0
H2050 H 0.35971 0.88231 0.82846 0.0
H2051 H 0.3617 0.98829 0.83454 0.0
H2052 H 0.41011 0.06076 0.90079 0.0
H2053 H 0.42465 0.96254 0.91469 0.0
C2054 C 0.40923 0.86171 0.89094 0.0
C2055 C 0.39945 0.81253 0.87656 0.0
C2056 C 0.40123 0.91842 0.88293 0.0
C2057 C 0.38158 0.82104 0.85399 0.0
C2058 C 0.3735 0.87721 0.84594 0.0
C2059 C 0.37515 0.98272 0.85222 0.0
C2060 C 0.38473 0.03204 0.86658 0.0
C2061 C 0.38319 0.92617 0.86026 0.0
C2062 C 0.40269 0.02377 0.88912 0.0
C2063 C 0.41087 0.96755 0.89721 0.0
H2064 H 0.66489 0.20278 0.89575 0.0
H2065 H 0.58197 0.24725 0.86129 0.0
H2066 H 0.57767 0.1491 0.8423 0.0
H2067 H 0.59619 0.04938 0.83743 0.0
H2068 H 0.67877 1.00319 0.87242 0.0
H2069 H 0.68419 0.10247 0.88975 0.0
C2070 C 0.64611 0.19093 0.8838 0.0
C2071 C 0.6238 0.23199 0.8798 0.0
C2072 C 0.64349 0.13385 0.87342 0.0
C2073 C 0.59935 0.21617 0.8646 0.0
C2074 C 0.59687 0.16009 0.85382 0.0
C2075 C 0.61559 0.0611 0.84852 0.0
C2076 C 0.63702 0.01856 0.85352 0.0
C2077 C 0.61861 0.11834 0.85838 0.0
C2078 C 0.66172 0.0346 0.86848 0.0
C2079 C 0.66495 0.09159 0.87826 0.0
H2080 H 0.33133 0.05702 0.65589 0.0
H2081 H 0.41959 1.00336 0.64012 0.0
H2082 H 0.42954 0.09694 0.619 0.0
H2083 H 0.41297 0.19269 0.60314 0.0
H2084 H 0.32611 0.24995 0.62094 0.0
H2085 H 0.31608 0.1568 0.64373 0.0
C2086 C 0.35286 0.06574 0.64817 0.0
C2087 C 0.37431 0.02179 0.64897 0.0
C2088 C 0.35876 0.12052 0.63643 0.0
C2089 C 0.40216 0.03493 0.63894 0.0
C2090 C 0.40806 0.08887 0.62704 0.0
C2091 C 0.39189 0.18472 0.61212 0.0
C2092 C 0.37018 0.22752 0.61014 0.0
C2093 C 0.38642 0.13154 0.62526 0.0
C2094 C 0.34312 0.2174 0.62224 0.0
C2095 C 0.33737 0.16415 0.63514 0.0
H2096 H 0.70806 0.85703 0.64882 0.0
H2097 H 0.63152 0.80152 0.60571 0.0
H2098 H 0.60828 0.89493 0.61492 0.0
H2099 H 0.6094 0.9917 0.63564 0.0
H2100 H 0.68588 0.04777 0.67854 0.0
H2101 H 0.70993 0.95559 0.66803 0.0
C2102 C 0.68649 0.86571 0.64108 0.0
C2103 C 0.67149 0.82223 0.62679 0.0
C2104 C 0.67332 0.91967 0.64624 0.0
C2105 C 0.64336 0.83388 0.6172 0.0
C2106 C 0.6301 0.88738 0.6223 0.0
C2107 C 0.63124 0.98348 0.64286 0.0
C2108 C 0.64577 0.02616 0.65796 0.0
C2109 C 0.64477 0.93032 0.63701 0.0
C2110 C 0.67431 1.0156 0.66672 0.0
C2111 C 0.688 0.96284 0.66086 0.0
loop_
_geom_bond_atom_site_label_1
_geom_bond_atom_site_label_2
_geom_bond_distance
_geom_bond_site_symmetry_2
_ccdc_geom_bond_type
Tb0 N29 2.617 . S
Tb0 N35 2.572 . S
Tb0 O44 2.465 . S
Tb0 O45 2.387 . S
Tb0 O47 2.428 . S
Tb0 O48 2.308 . S
Tb0 O52 2.349 . S
Tb0 O55 2.393 . S
Tb0 C64 2.802 . S
C1 N2 1.379 . S
C1 C4 1.416 . S
C1 C8 1.424 . S
N2 C1 1.379 . S
N2 C5 1.334 . S
N2 Tb11 2.617 . S
C3 C5 1.390 . S
C3 C6 1.339 . S
C3 H23 0.930 . S
C4 C1 1.416 . S
C4 C6 1.416 . S
C4 C10 1.448 . S
C5 N2 1.334 . S
C5 C3 1.390 . S
C5 H16 0.930 . S
C6 C3 1.339 . S
C6 C4 1.416 . S
C6 H27 0.930 . S
C7 C8 1.413 . S
C7 C9 1.427 . S
C7 C13 1.416 1_545 S
C8 C1 1.424 . S
C8 C7 1.413 . S
C8 N12 1.361 . S
C9 C7 1.427 . S
C9 C10 1.330 . S
C9 H24 0.927 1_545 S
C10 C4 1.448 . S
C10 C9 1.330 . S
C10 H25 0.930 . S
Tb11 N2 2.617 . S
Tb11 N12 2.572 . S
Tb11 O46 2.349 . S
Tb11 O49 2.393 . S
Tb11 O50 2.465 1_545 S
Tb11 O51 2.387 . S
Tb11 O53 2.428 1_545 S
Tb11 O54 2.308 . S
Tb11 C75 2.802 1_545 S
N12 C8 1.361 . S
N12 Tb11 2.572 . S
N12 C14 1.340 . S
C13 C7 1.416 1_565 S
C13 C15 1.332 . S
C13 H21 0.931 . S
C14 N12 1.340 . S
C14 C15 1.407 1_545 S
C14 H20 0.930 . S
C15 C13 1.332 . S
C15 C14 1.407 1_565 S
C15 H17 0.929 . S
H16 C5 0.930 . S
H17 C15 0.929 . S
H18 C33 0.930 . S
H19 C40 0.929 . S
H20 C14 0.930 . S
H21 C13 0.931 . S
H22 C36 0.930 . S
H23 C3 0.930 . S
H24 C9 0.927 1_565 S
H25 C10 0.930 . S
H26 C31 0.930 . S
H27 C6 0.930 . S
H28 C39 0.931 1_655 S
N29 Tb0 2.617 . S
N29 C30 1.379 . S
N29 C33 1.334 . S
C30 N29 1.379 . S
C30 C32 1.416 . S
C30 C38 1.424 . S
C31 H26 0.930 . S
C31 C33 1.390 . S
C31 C34 1.339 . S
C32 C30 1.416 . S
C32 C34 1.416 . S
C32 C65 1.448 1_455 S
C33 H18 0.930 . S
C33 N29 1.334 . S
C33 C31 1.390 . S
C34 C31 1.339 . S
C34 C32 1.416 . S
C34 H41 0.930 . S
N35 Tb0 2.572 . S
N35 C36 1.340 . S
N35 C38 1.361 . S
C36 H22 0.930 . S
C36 N35 1.340 . S
C36 C40 1.407 . S
C37 C38 1.413 . S
C37 C39 1.416 . S
C37 C66 1.427 1_455 S
C38 C30 1.424 . S
C38 N35 1.361 . S
C38 C37 1.413 . S
C39 H28 0.931 1_455 S
C39 C37 1.416 . S
C39 C40 1.332 . S
C40 H19 0.929 . S
C40 C36 1.407 . S
C40 C39 1.332 . S
H41 C34 0.930 . S
H42 C65 0.930 . S
H43 C66 0.929 . S
O44 Tb0 2.465 . S
O44 C64 1.264 . S
O45 Tb0 2.387 . S
O45 C56 1.264 . S
O46 Tb11 2.349 . S
O46 C56 1.243 . S
O47 Tb0 2.428 . S
O47 C64 1.256 . S
O48 Tb0 2.308 . S
O48 C63 1.266 . S
O49 Tb11 2.393 . S
O49 C63 1.248 . S
O50 Tb11 2.465 1_565 S
O50 C75 1.264 . S
O51 Tb11 2.387 . S
O51 C67 1.264 . S
O52 Tb0 2.349 . S
O52 C67 1.243 . S
O53 Tb11 2.428 1_565 S
O53 C75 1.256 . S
O54 Tb11 2.308 . S
O54 C74 1.266 . S
O55 Tb0 2.393 . S
O55 C74 1.248 . S
C56 O45 1.264 . S
C56 O46 1.243 . S
C57 C60 1.399 . S
C57 C62 1.383 . S
C57 C64 1.496 . S
C58 C59 1.399 . S
C58 C62 1.389 . S
C59 C58 1.399 . S
C59 C61 1.380 . S
C59 H76 0.929 . S
C60 C57 1.399 . S
C60 C61 1.392 . S
C60 H77 0.929 . S
C61 C59 1.380 . S
C61 C60 1.392 . S
C61 H78 0.929 . S
C62 C57 1.383 . S
C62 C58 1.389 . S
C62 H79 0.931 . S
C63 O48 1.266 . S
C63 O49 1.248 . S
C64 Tb0 2.802 . S
C64 O44 1.264 . S
C64 O47 1.256 . S
C64 C57 1.496 . S
C65 C32 1.448 1_655 S
C65 H42 0.930 . S
C65 C66 1.328 . S
C66 C37 1.427 1_655 S
C66 H43 0.929 . S
C66 C65 1.328 . S
C67 O51 1.264 . S
C67 O52 1.243 . S
C68 C71 1.399 . S
C68 C72 1.383 . S
C68 C75 1.496 . S
C69 C70 1.399 . S
C69 C72 1.389 . S
C70 C69 1.399 . S
C70 C73 1.380 . S
C70 H80 0.929 . S
C71 C68 1.399 . S
C71 C73 1.392 . S
C71 H81 0.929 . S
C72 C68 1.383 . S
C72 C69 1.389 . S
C72 H82 0.931 . S
C73 C70 1.380 . S
C73 C71 1.392 . S
C73 H83 0.929 . S
C74 O54 1.266 . S
C74 O55 1.248 . S
C75 Tb11 2.802 1_565 S
C75 O50 1.264 . S
C75 O53 1.256 . S
C75 C68 1.496 . S
H76 C59 0.929 . S
H77 C60 0.929 . S
H78 C61 0.929 . S
H79 C62 0.931 . S
H80 C70 0.929 . S
H81 C71 0.929 . S
H82 C72 0.931 . S
H83 C73 0.929 . S
Tb84 N113 2.617 . S
Tb84 N119 2.572 . S
Tb84 O128 2.465 . S
Tb84 O129 2.387 . S
Tb84 O131 2.428 . S
Tb84 O132 2.308 . S
Tb84 O136 2.349 . S
Tb84 O139 2.393 . S
Tb84 C148 2.802 . S
C85 N86 1.379 . S
C85 C88 1.416 . S
C85 C92 1.424 . S
N86 C85 1.379 . S
N86 C89 1.334 . S
N86 Tb95 2.617 . S
C87 C89 1.390 . S
C87 C90 1.339 . S
C87 H107 0.930 . S
C88 C85 1.416 . S
C88 C90 1.416 . S
C88 C94 1.448 . S
C89 N86 1.334 . S
C89 C87 1.390 . S
C89 H100 0.930 . S
C90 C87 1.339 . S
C90 C88 1.416 . S
C90 H111 0.930 . S
C91 C92 1.413 . S
C91 C93 1.427 . S
C91 C97 1.416 1_565 S
C92 C85 1.424 . S
C92 C91 1.413 . S
C92 N96 1.361 . S
C93 C91 1.427 . S
C93 C94 1.330 . S
C93 H108 0.927 1_565 S
C94 C88 1.448 . S
C94 C93 1.330 . S
C94 H109 0.930 . S
Tb95 N86 2.617 . S
Tb95 N96 2.572 . S
Tb95 O130 2.349 . S
Tb95 O133 2.393 . S
Tb95 O134 2.465 1_565 S
Tb95 O135 2.387 . S
Tb95 O137 2.428 1_565 S
Tb95 O138 2.308 . S
Tb95 C159 2.802 1_565 S
N96 C92 1.361 . S
N96 Tb95 2.572 . S
N96 C98 1.340 . S
C97 C91 1.416 1_545 S
C97 C99 1.332 . S
C97 H105 0.931 . S
C98 N96 1.340 . S
C98 C99 1.407 1_565 S
C98 H104 0.930 . S
C99 C97 1.332 . S
C99 C98 1.407 1_545 S
C99 H101 0.929 . S
H100 C89 0.930 . S
H101 C99 0.929 . S
H102 C117 0.930 . S
H103 C124 0.929 . S
H104 C98 0.930 . S
H105 C97 0.931 . S
H106 C120 0.930 . S
H107 C87 0.930 . S
H108 C93 0.927 1_545 S
H109 C94 0.930 . S
H110 C115 0.930 . S
H111 C90 0.930 . S
H112 C123 0.931 1_455 S
N113 Tb84 2.617 . S
N113 C114 1.379 . S
N113 C117 1.334 . S
C114 N113 1.379 . S
C114 C116 1.416 . S
C114 C122 1.424 . S
C115 H110 0.930 . S
C115 C117 1.390 . S
C115 C118 1.339 . S
C116 C114 1.416 . S
C116 C118 1.416 . S
C116 C149 1.448 1_655 S
C117 H102 0.930 . S
C117 N113 1.334 . S
C117 C115 1.390 . S
C118 C115 1.339 . S
C118 C116 1.416 . S
C118 H125 0.930 . S
N119 Tb84 2.572 . S
N119 C120 1.340 . S
N119 C122 1.361 . S
C120 H106 0.930 . S
C120 N119 1.340 . S
C120 C124 1.407 . S
C121 C122 1.413 . S
C121 C123 1.416 . S
C121 C150 1.427 1_655 S
C122 C114 1.424 . S
C122 N119 1.361 . S
C122 C121 1.413 . S
C123 H112 0.931 1_655 S
C123 C121 1.416 . S
C123 C124 1.332 . S
C124 H103 0.929 . S
C124 C120 1.407 . S
C124 C123 1.332 . S
H125 C118 0.930 . S
H126 C149 0.930 . S
H127 C150 0.929 . S
O128 Tb84 2.465 . S
O128 C148 1.264 . S
O129 Tb84 2.387 . S
O129 C140 1.264 . S
O130 Tb95 2.349 . S
O130 C140 1.243 . S
O131 Tb84 2.428 . S
O131 C148 1.256 . S
O132 Tb84 2.308 . S
O132 C147 1.266 . S
O133 Tb95 2.393 . S
O133 C147 1.248 . S
O134 Tb95 2.465 1_545 S
O134 C159 1.264 . S
O135 Tb95 2.387 . S
O135 C151 1.264 . S
O136 Tb84 2.349 . S
O136 C151 1.243 . S
O137 Tb95 2.428 1_545 S
O137 C159 1.256 . S
O138 Tb95 2.308 . S
O138 C158 1.266 . S
O139 Tb84 2.393 . S
O139 C158 1.248 . S
C140 O129 1.264 . S
C140 O130 1.243 . S
C141 C144 1.399 . S
C141 C146 1.383 . S
C141 C148 1.496 . S
C142 C143 1.399 . S
C142 C146 1.389 . S
C143 C142 1.399 . S
C143 C145 1.380 . S
C143 H160 0.929 . S
C144 C141 1.399 . S
C144 C145 1.392 . S
C144 H161 0.929 . S
C145 C143 1.380 . S
C145 C144 1.392 . S
C145 H162 0.929 . S
C146 C141 1.383 . S
C146 C142 1.389 . S
C146 H163 0.931 . S
C147 O132 1.266 . S
C147 O133 1.248 . S
C148 Tb84 2.802 . S
C148 O128 1.264 . S
C148 O131 1.256 . S
C148 C141 1.496 . S
C149 C116 1.448 1_455 S
C149 H126 0.930 . S
C149 C150 1.328 . S
C150 C121 1.427 1_455 S
C150 H127 0.929 . S
C150 C149 1.328 . S
C151 O135 1.264 . S
C151 O136 1.243 . S
C152 C155 1.399 . S
C152 C156 1.383 . S
C152 C159 1.496 . S
C153 C154 1.399 . S
C153 C156 1.389 . S
C154 C153 1.399 . S
C154 C157 1.380 . S
C154 H164 0.929 . S
C155 C152 1.399 . S
C155 C157 1.392 . S
C155 H165 0.929 . S
C156 C152 1.383 . S
C156 C153 1.389 . S
C156 H166 0.931 . S
C157 C154 1.380 . S
C157 C155 1.392 . S
C157 H167 0.929 . S
C158 O138 1.266 . S
C158 O139 1.248 . S
C159 Tb95 2.802 1_545 S
C159 O134 1.264 . S
C159 O137 1.256 . S
C159 C152 1.496 . S
H160 C143 0.929 . S
H161 C144 0.929 . S
H162 C145 0.929 . S
H163 C146 0.931 . S
H164 C154 0.929 . S
H165 C155 0.929 . S
H166 C156 0.931 . S
H167 C157 0.929 . S
Tb168 N197 2.617 . S
Tb168 N203 2.572 . S
Tb168 O212 2.465 . S
Tb168 O213 2.387 . S
Tb168 O215 2.428 . S
Tb168 O216 2.308 . S
Tb168 O220 2.349 . S
Tb168 O223 2.393 . S
Tb168 C232 2.802 . S
C169 N170 1.379 . S
C169 C172 1.416 . S
C169 C176 1.424 . S
N170 C169 1.379 . S
N170 C173 1.334 . S
N170 Tb179 2.617 . S
C171 C173 1.390 . S
C171 C174 1.339 . S
C171 H191 0.930 . S
C172 C169 1.416 . S
C172 C174 1.416 . S
C172 C178 1.448 . S
C173 N170 1.334 . S
C173 C171 1.390 . S
C173 H184 0.930 . S
C174 C171 1.339 . S
C174 C172 1.416 . S
C174 H195 0.930 . S
C175 C176 1.413 . S
C175 C177 1.427 . S
C175 C181 1.416 1_565 S
C176 C169 1.424 . S
C176 C175 1.413 . S
C176 N180 1.361 . S
C177 C175 1.427 . S
C177 C178 1.330 . S
C177 H192 0.927 1_565 S
C178 C172 1.448 . S
C178 C177 1.330 . S
C178 H193 0.930 . S
Tb179 N170 2.617 . S
Tb179 N180 2.572 . S
Tb179 O214 2.349 . S
Tb179 O217 2.393 . S
Tb179 O218 2.465 1_565 S
Tb179 O219 2.387 . S
Tb179 O221 2.428 1_565 S
Tb179 O222 2.308 . S
Tb179 C243 2.802 1_565 S
N180 C176 1.361 . S
N180 Tb179 2.572 . S
N180 C182 1.340 . S
C181 C175 1.416 1_545 S
C181 C183 1.332 . S
C181 H189 0.931 . S
C182 N180 1.340 . S
C182 C183 1.407 1_565 S
C182 H188 0.930 . S
C183 C181 1.332 . S
C183 C182 1.407 1_545 S
C183 H185 0.929 . S
H184 C173 0.930 . S
H185 C183 0.929 . S
H186 C201 0.930 . S
H187 C208 0.929 . S
H188 C182 0.930 . S
H189 C181 0.931 . S
H190 C204 0.930 . S
H191 C171 0.930 . S
H192 C177 0.927 1_545 S
H193 C178 0.930 . S
H194 C199 0.930 . S
H195 C174 0.930 . S
H196 C207 0.931 1_655 S
N197 Tb168 2.617 . S
N197 C198 1.379 . S
N197 C201 1.334 . S
C198 N197 1.379 . S
C198 C200 1.416 . S
C198 C206 1.424 . S
C199 H194 0.930 . S
C199 C201 1.390 . S
C199 C202 1.339 . S
C200 C198 1.416 . S
C200 C202 1.416 . S
C200 C233 1.448 1_455 S
C201 H186 0.930 . S
C201 N197 1.334 . S
C201 C199 1.390 . S
C202 C199 1.339 . S
C202 C200 1.416 . S
C202 H209 0.930 . S
N203 Tb168 2.572 . S
N203 C204 1.340 . S
N203 C206 1.361 . S
C204 H190 0.930 . S
C204 N203 1.340 . S
C204 C208 1.407 . S
C205 C206 1.413 . S
C205 C207 1.416 . S
C205 C234 1.427 1_455 S
C206 C198 1.424 . S
C206 N203 1.361 . S
C206 C205 1.413 . S
C207 H196 0.931 1_455 S
C207 C205 1.416 . S
C207 C208 1.332 . S
C208 H187 0.929 . S
C208 C204 1.407 . S
C208 C207 1.332 . S
H209 C202 0.930 . S
H210 C233 0.930 . S
H211 C234 0.929 . S
O212 Tb168 2.465 . S
O212 C232 1.264 . S
O213 Tb168 2.387 . S
O213 C224 1.264 . S
O214 Tb179 2.349 . S
O214 C224 1.243 . S
O215 Tb168 2.428 . S
O215 C232 1.256 . S
O216 Tb168 2.308 . S
O216 C231 1.266 . S
O217 Tb179 2.393 . S
O217 C231 1.248 . S
O218 Tb179 2.465 1_545 S
O218 C243 1.264 . S
O219 Tb179 2.387 . S
O219 C235 1.264 . S
O220 Tb168 2.349 . S
O220 C235 1.243 . S
O221 Tb179 2.428 1_545 S
O221 C243 1.256 . S
O222 Tb179 2.308 . S
O222 C242 1.266 . S
O223 Tb168 2.393 . S
O223 C242 1.248 . S
C224 O213 1.264 . S
C224 O214 1.243 . S
C225 C228 1.399 . S
C225 C230 1.383 . S
C225 C232 1.496 . S
C226 C227 1.399 . S
C226 C230 1.389 . S
C227 C226 1.399 . S
C227 C229 1.380 . S
C227 H244 0.929 . S
C228 C225 1.399 . S
C228 C229 1.392 . S
C228 H245 0.929 . S
C229 C227 1.380 . S
C229 C228 1.392 . S
C229 H246 0.929 . S
C230 C225 1.383 . S
C230 C226 1.389 . S
C230 H247 0.931 . S
C231 O216 1.266 . S
C231 O217 1.248 . S
C232 Tb168 2.802 . S
C232 O212 1.264 . S
C232 O215 1.256 . S
C232 C225 1.496 . S
C233 C200 1.448 1_655 S
C233 H210 0.930 . S
C233 C234 1.328 . S
C234 C205 1.427 1_655 S
C234 H211 0.929 . S
C234 C233 1.328 . S
C235 O219 1.264 . S
C235 O220 1.243 . S
C236 C239 1.399 . S
C236 C240 1.383 . S
C236 C243 1.496 . S
C237 C238 1.399 . S
C237 C240 1.389 . S
C238 C237 1.399 . S
C238 C241 1.380 . S
C238 H248 0.929 . S
C239 C236 1.399 . S
C239 C241 1.392 . S
C239 H249 0.929 . S
C240 C236 1.383 . S
C240 C237 1.389 . S
C240 H250 0.931 . S
C241 C238 1.380 . S
C241 C239 1.392 . S
C241 H251 0.929 . S
C242 O222 1.266 . S
C242 O223 1.248 . S
C243 Tb179 2.802 1_545 S
C243 O218 1.264 . S
C243 O221 1.256 . S
C243 C236 1.496 . S
H244 C227 0.929 . S
H245 C228 0.929 . S
H246 C229 0.929 . S
H247 C230 0.931 . S
H248 C238 0.929 . S
H249 C239 0.929 . S
H250 C240 0.931 . S
H251 C241 0.929 . S
Tb252 N281 2.617 . S
Tb252 N287 2.572 . S
Tb252 O296 2.465 . S
Tb252 O297 2.387 . S
Tb252 O299 2.428 . S
Tb252 O300 2.308 . S
Tb252 O304 2.349 . S
Tb252 O307 2.393 . S
Tb252 C316 2.802 . S
C253 N254 1.379 . S
C253 C256 1.416 . S
C253 C260 1.424 . S
N254 C253 1.379 . S
N254 C257 1.334 . S
N254 Tb263 2.617 . S
C255 C257 1.390 . S
C255 C258 1.339 . S
C255 H275 0.930 . S
C256 C253 1.416 . S
C256 C258 1.416 . S
C256 C262 1.448 . S
C257 N254 1.334 . S
C257 C255 1.390 . S
C257 H268 0.930 . S
C258 C255 1.339 . S
C258 C256 1.416 . S
C258 H279 0.930 . S
C259 C260 1.413 . S
C259 C261 1.427 . S
C259 C265 1.416 1_545 S
C260 C253 1.424 . S
C260 C259 1.413 . S
C260 N264 1.361 . S
C261 C259 1.427 . S
C261 C262 1.330 . S
C261 H276 0.927 1_545 S
C262 C256 1.448 . S
C262 C261 1.330 . S
C262 H277 0.930 . S
Tb263 N254 2.617 . S
Tb263 N264 2.572 . S
Tb263 O298 2.349 . S
Tb263 O301 2.393 . S
Tb263 O302 2.465 1_545 S
Tb263 O303 2.387 . S
Tb263 O305 2.428 1_545 S
Tb263 O306 2.308 . S
Tb263 C327 2.802 1_545 S
N264 C260 1.361 . S
N264 Tb263 2.572 . S
N264 C266 1.340 . S
C265 C259 1.416 1_565 S
C265 C267 1.332 . S
C265 H273 0.931 . S
C266 N264 1.340 . S
C266 C267 1.407 1_545 S
C266 H272 0.930 . S
C267 C265 1.332 . S
C267 C266 1.407 1_565 S
C267 H269 0.929 . S
H268 C257 0.930 . S
H269 C267 0.929 . S
H270 C285 0.930 . S
H271 C292 0.929 . S
H272 C266 0.930 . S
H273 C265 0.931 . S
H274 C288 0.930 . S
H275 C255 0.930 . S
H276 C261 0.927 1_565 S
H277 C262 0.930 . S
H278 C283 0.930 . S
H279 C258 0.930 . S
H280 C291 0.931 1_455 S
N281 Tb252 2.617 . S
N281 C282 1.379 . S
N281 C285 1.334 . S
C282 N281 1.379 . S
C282 C284 1.416 . S
C282 C290 1.424 . S
C283 H278 0.930 . S
C283 C285 1.390 . S
C283 C286 1.339 . S
C284 C282 1.416 . S
C284 C286 1.416 . S
C284 C317 1.448 1_655 S
C285 H270 0.930 . S
C285 N281 1.334 . S
C285 C283 1.390 . S
C286 C283 1.339 . S
C286 C284 1.416 . S
C286 H293 0.930 . S
N287 Tb252 2.572 . S
N287 C288 1.340 . S
N287 C290 1.361 . S
C288 H274 0.930 . S
C288 N287 1.340 . S
C288 C292 1.407 . S
C289 C290 1.413 . S
C289 C291 1.416 . S
C289 C318 1.427 1_655 S
C290 C282 1.424 . S
C290 N287 1.361 . S
C290 C289 1.413 . S
C291 H280 0.931 1_655 S
C291 C289 1.416 . S
C291 C292 1.332 . S
C292 H271 0.929 . S
C292 C288 1.407 . S
C292 C291 1.332 . S
H293 C286 0.930 . S
H294 C317 0.930 . S
H295 C318 0.929 . S
O296 Tb252 2.465 . S
O296 C316 1.264 . S
O297 Tb252 2.387 . S
O297 C308 1.264 . S
O298 Tb263 2.349 . S
O298 C308 1.243 . S
O299 Tb252 2.428 . S
O299 C316 1.256 . S
O300 Tb252 2.308 . S
O300 C315 1.266 . S
O301 Tb263 2.393 . S
O301 C315 1.248 . S
O302 Tb263 2.465 1_565 S
O302 C327 1.264 . S
O303 Tb263 2.387 . S
O303 C319 1.264 . S
O304 Tb252 2.349 . S
O304 C319 1.243 . S
O305 Tb263 2.428 1_565 S
O305 C327 1.256 . S
O306 Tb263 2.308 . S
O306 C326 1.266 . S
O307 Tb252 2.393 . S
O307 C326 1.248 . S
C308 O297 1.264 . S
C308 O298 1.243 . S
C309 C312 1.399 . S
C309 C314 1.383 . S
C309 C316 1.496 . S
C310 C311 1.399 . S
C310 C314 1.389 . S
C311 C310 1.399 . S
C311 C313 1.380 . S
C311 H328 0.929 . S
C312 C309 1.399 . S
C312 C313 1.392 . S
C312 H329 0.929 . S
C313 C311 1.380 . S
C313 C312 1.392 . S
C313 H330 0.929 . S
C314 C309 1.383 . S
C314 C310 1.389 . S
C314 H331 0.931 . S
C315 O300 1.266 . S
C315 O301 1.248 . S
C316 Tb252 2.802 . S
C316 O296 1.264 . S
C316 O299 1.256 . S
C316 C309 1.496 . S
C317 C284 1.448 1_455 S
C317 H294 0.930 . S
C317 C318 1.328 . S
C318 C289 1.427 1_455 S
C318 H295 0.929 . S
C318 C317 1.328 . S
C319 O303 1.264 . S
C319 O304 1.243 . S
C320 C323 1.399 . S
C320 C324 1.383 . S
C320 C327 1.496 . S
C321 C322 1.399 . S
C321 C324 1.389 . S
C322 C321 1.399 . S
C322 C325 1.380 . S
C322 H332 0.929 . S
C323 C320 1.399 . S
C323 C325 1.392 . S
C323 H333 0.929 . S
C324 C320 1.383 . S
C324 C321 1.389 . S
C324 H334 0.931 . S
C325 C322 1.380 . S
C325 C323 1.392 . S
C325 H335 0.929 . S
C326 O306 1.266 . S
C326 O307 1.248 . S
C327 Tb263 2.802 1_565 S
C327 O302 1.264 . S
C327 O305 1.256 . S
C327 C320 1.496 . S
H328 C311 0.929 . S
H329 C312 0.929 . S
H330 C313 0.929 . S
H331 C314 0.931 . S
H332 C322 0.929 . S
H333 C323 0.929 . S
H334 C324 0.931 . S
H335 C325 0.929 . S
Tb336 N365 2.617 . S
Tb336 N371 2.572 . S
Tb336 O380 2.465 1_565 S
Tb336 O381 2.387 . S
Tb336 O383 2.428 1_565 S
Tb336 O384 2.308 . S
Tb336 O388 2.349 . S
Tb336 O391 2.393 . S
Tb336 C400 2.802 1_565 S
C337 N338 1.379 . S
C337 C340 1.416 . S
C337 C344 1.424 . S
N338 C337 1.379 . S
N338 C341 1.334 . S
N338 Tb347 2.617 . S
C339 C341 1.390 . S
C339 C342 1.339 . S
C339 H359 0.930 . S
C340 C337 1.416 . S
C340 C342 1.416 . S
C340 C346 1.448 1_655 S
C341 N338 1.334 . S
C341 C339 1.390 . S
C341 H352 0.930 . S
C342 C339 1.339 . S
C342 C340 1.416 . S
C342 H363 0.930 . S
C343 C344 1.413 . S
C343 C345 1.427 1_655 S
C343 C349 1.416 . S
C344 C337 1.424 . S
C344 C343 1.413 . S
C344 N348 1.361 . S
C345 C343 1.427 1_455 S
C345 C346 1.328 . S
C345 H360 0.929 . S
C346 C340 1.448 1_455 S
C346 C345 1.328 . S
C346 H361 0.930 . S
Tb347 N338 2.617 . S
Tb347 N348 2.572 . S
Tb347 O382 2.349 . S
Tb347 O385 2.393 . S
Tb347 O386 2.465 . S
Tb347 O387 2.387 . S
Tb347 O389 2.428 . S
Tb347 O390 2.308 . S
Tb347 C411 2.802 . S
N348 C344 1.361 . S
N348 Tb347 2.572 . S
N348 C350 1.340 . S
C349 C343 1.416 . S
C349 C351 1.332 . S
C349 H357 0.931 1_655 S
C350 N348 1.340 . S
C350 C351 1.407 . S
C350 H356 0.930 . S
C351 C349 1.332 . S
C351 C350 1.407 . S
C351 H353 0.929 . S
H352 C341 0.930 . S
H353 C351 0.929 . S
H354 C369 0.930 . S
H355 C376 0.929 . S
H356 C350 0.930 . S
H357 C349 0.931 1_455 S
H358 C372 0.930 . S
H359 C339 0.930 . S
H360 C345 0.929 . S
H361 C346 0.930 . S
H362 C367 0.930 . S
H363 C342 0.930 . S
H364 C375 0.931 . S
N365 Tb336 2.617 . S
N365 C366 1.379 . S
N365 C369 1.334 . S
C366 N365 1.379 . S
C366 C368 1.416 . S
C366 C374 1.424 . S
C367 H362 0.930 . S
C367 C369 1.390 . S
C367 C370 1.339 . S
C368 C366 1.416 . S
C368 C370 1.416 . S
C368 C401 1.448 . S
C369 H354 0.930 . S
C369 N365 1.334 . S
C369 C367 1.390 . S
C370 C367 1.339 . S
C370 C368 1.416 . S
C370 H377 0.930 . S
N371 Tb336 2.572 . S
N371 C372 1.340 . S
N371 C374 1.361 . S
C372 H358 0.930 . S
C372 N371 1.340 . S
C372 C376 1.407 1_565 S
C373 C374 1.413 . S
C373 C375 1.416 1_565 S
C373 C402 1.427 . S
C374 C366 1.424 . S
C374 N371 1.361 . S
C374 C373 1.413 . S
C375 H364 0.931 . S
C375 C373 1.416 1_545 S
C375 C376 1.332 . S
C376 H355 0.929 . S
C376 C372 1.407 1_545 S
C376 C375 1.332 . S
H377 C370 0.930 . S
H378 C401 0.930 . S
H379 C402 0.927 1_545 S
O380 Tb336 2.465 1_545 S
O380 C400 1.264 . S
O381 Tb336 2.387 . S
O381 C392 1.264 . S
O382 Tb347 2.349 . S
O382 C392 1.243 . S
O383 Tb336 2.428 1_545 S
O383 C400 1.256 . S
O384 Tb336 2.308 . S
O384 C399 1.266 . S
O385 Tb347 2.393 . S
O385 C399 1.248 . S
O386 Tb347 2.465 . S
O386 C411 1.264 . S
O387 Tb347 2.387 . S
O387 C403 1.264 . S
O388 Tb336 2.349 . S
O388 C403 1.243 . S
O389 Tb347 2.428 . S
O389 C411 1.256 . S
O390 Tb347 2.308 . S
O390 C410 1.266 . S
O391 Tb336 2.393 . S
O391 C410 1.248 . S
C392 O381 1.264 . S
C392 O382 1.243 . S
C393 C396 1.399 . S
C393 C398 1.383 . S
C393 C400 1.496 . S
C394 C395 1.399 . S
C394 C398 1.389 . S
C395 C394 1.399 . S
C395 C397 1.380 . S
C395 H412 0.929 . S
C396 C393 1.399 . S
C396 C397 1.392 . S
C396 H413 0.929 . S
C397 C395 1.380 . S
C397 C396 1.392 . S
C397 H414 0.929 . S
C398 C393 1.383 . S
C398 C394 1.389 . S
C398 H415 0.931 . S
C399 O384 1.266 . S
C399 O385 1.248 . S
C400 Tb336 2.802 1_545 S
C400 O380 1.264 . S
C400 O383 1.256 . S
C400 C393 1.496 . S
C401 C368 1.448 . S
C401 H378 0.930 . S
C401 C402 1.330 . S
C402 C373 1.427 . S
C402 H379 0.927 1_565 S
C402 C401 1.330 . S
C403 O387 1.264 . S
C403 O388 1.243 . S
C404 C407 1.399 . S
C404 C408 1.383 . S
C404 C411 1.496 . S
C405 C406 1.399 . S
C405 C408 1.389 . S
C406 C405 1.399 . S
C406 C409 1.380 . S
C406 H416 0.929 . S
C407 C404 1.399 . S
C407 C409 1.392 . S
C407 H417 0.929 . S
C408 C404 1.383 . S
C408 C405 1.389 . S
C408 H418 0.931 . S
C409 C406 1.380 . S
C409 C407 1.392 . S
C409 H419 0.929 . S
C410 O390 1.266 . S
C410 O391 1.248 . S
C411 Tb347 2.802 . S
C411 O386 1.264 . S
C411 O389 1.256 . S
C411 C404 1.496 . S
H412 C395 0.929 . S
H413 C396 0.929 . S
H414 C397 0.929 . S
H415 C398 0.931 . S
H416 C406 0.929 . S
H417 C407 0.929 . S
H418 C408 0.931 . S
H419 C409 0.929 . S
Tb420 N449 2.617 . S
Tb420 N455 2.572 . S
Tb420 O464 2.465 1_545 S
Tb420 O465 2.387 . S
Tb420 O467 2.428 1_545 S
Tb420 O468 2.308 . S
Tb420 O472 2.349 . S
Tb420 O475 2.393 . S
Tb420 C484 2.802 1_545 S
C421 N422 1.379 . S
C421 C424 1.416 . S
C421 C428 1.424 . S
N422 C421 1.379 . S
N422 C425 1.334 . S
N422 Tb431 2.617 . S
C423 C425 1.390 . S
C423 C426 1.339 . S
C423 H443 0.930 . S
C424 C421 1.416 . S
C424 C426 1.416 . S
C424 C430 1.448 1_455 S
C425 N422 1.334 . S
C425 C423 1.390 . S
C425 H436 0.930 . S
C426 C423 1.339 . S
C426 C424 1.416 . S
C426 H447 0.930 . S
C427 C428 1.413 . S
C427 C429 1.427 1_455 S
C427 C433 1.416 . S
C428 C421 1.424 . S
C428 C427 1.413 . S
C428 N432 1.361 . S
C429 C427 1.427 1_655 S
C429 C430 1.328 . S
C429 H444 0.929 . S
C430 C424 1.448 1_655 S
C430 C429 1.328 . S
C430 H445 0.930 . S
Tb431 N422 2.617 . S
Tb431 N432 2.572 . S
Tb431 O466 2.349 . S
Tb431 O469 2.393 . S
Tb431 O470 2.465 . S
Tb431 O471 2.387 . S
Tb431 O473 2.428 . S
Tb431 O474 2.308 . S
Tb431 C495 2.802 . S
N432 C428 1.361 . S
N432 Tb431 2.572 . S
N432 C434 1.340 . S
C433 C427 1.416 . S
C433 C435 1.332 . S
C433 H441 0.931 1_455 S
C434 N432 1.340 . S
C434 C435 1.407 . S
C434 H440 0.930 . S
C435 C433 1.332 . S
C435 C434 1.407 . S
C435 H437 0.929 . S
H436 C425 0.930 . S
H437 C435 0.929 . S
H438 C453 0.930 . S
H439 C460 0.929 . S
H440 C434 0.930 . S
H441 C433 0.931 1_655 S
H442 C456 0.930 . S
H443 C423 0.930 . S
H444 C429 0.929 . S
H445 C430 0.930 . S
H446 C451 0.930 . S
H447 C426 0.930 . S
H448 C459 0.931 . S
N449 Tb420 2.617 . S
N449 C450 1.379 . S
N449 C453 1.334 . S
C450 N449 1.379 . S
C450 C452 1.416 . S
C450 C458 1.424 . S
C451 H446 0.930 . S
C451 C453 1.390 . S
C451 C454 1.339 . S
C452 C450 1.416 . S
C452 C454 1.416 . S
C452 C485 1.448 . S
C453 H438 0.930 . S
C453 N449 1.334 . S
C453 C451 1.390 . S
C454 C451 1.339 . S
C454 C452 1.416 . S
C454 H461 0.930 . S
N455 Tb420 2.572 . S
N455 C456 1.340 . S
N455 C458 1.361 . S
C456 H442 0.930 . S
C456 N455 1.340 . S
C456 C460 1.407 1_545 S
C457 C458 1.413 . S
C457 C459 1.416 1_545 S
C457 C486 1.427 . S
C458 C450 1.424 . S
C458 N455 1.361 . S
C458 C457 1.413 . S
C459 H448 0.931 . S
C459 C457 1.416 1_565 S
C459 C460 1.332 . S
C460 H439 0.929 . S
C460 C456 1.407 1_565 S
C460 C459 1.332 . S
H461 C454 0.930 . S
H462 C485 0.930 . S
H463 C486 0.927 1_565 S
O464 Tb420 2.465 1_565 S
O464 C484 1.264 . S
O465 Tb420 2.387 . S
O465 C476 1.264 . S
O466 Tb431 2.349 . S
O466 C476 1.243 . S
O467 Tb420 2.428 1_565 S
O467 C484 1.256 . S
O468 Tb420 2.308 . S
O468 C483 1.266 . S
O469 Tb431 2.393 . S
O469 C483 1.248 . S
O470 Tb431 2.465 . S
O470 C495 1.264 . S
O471 Tb431 2.387 . S
O471 C487 1.264 . S
O472 Tb420 2.349 . S
O472 C487 1.243 . S
O473 Tb431 2.428 . S
O473 C495 1.256 . S
O474 Tb431 2.308 . S
O474 C494 1.266 . S
O475 Tb420 2.393 . S
O475 C494 1.248 . S
C476 O465 1.264 . S
C476 O466 1.243 . S
C477 C480 1.399 . S
C477 C482 1.383 . S
C477 C484 1.496 . S
C478 C479 1.399 . S
C478 C482 1.389 . S
C479 C478 1.399 . S
C479 C481 1.380 . S
C479 H496 0.929 . S
C480 C477 1.399 . S
C480 C481 1.392 . S
C480 H497 0.929 . S
C481 C479 1.380 . S
C481 C480 1.392 . S
C481 H498 0.929 . S
C482 C477 1.383 . S
C482 C478 1.389 . S
C482 H499 0.931 . S
C483 O468 1.266 . S
C483 O469 1.248 . S
C484 Tb420 2.802 1_565 S
C484 O464 1.264 . S
C484 O467 1.256 . S
C484 C477 1.496 . S
C485 C452 1.448 . S
C485 H462 0.930 . S
C485 C486 1.330 . S
C486 C457 1.427 . S
C486 H463 0.927 1_545 S
C486 C485 1.330 . S
C487 O471 1.264 . S
C487 O472 1.243 . S
C488 C491 1.399 . S
C488 C492 1.383 . S
C488 C495 1.496 . S
C489 C490 1.399 . S
C489 C492 1.389 . S
C490 C489 1.399 . S
C490 C493 1.380 . S
C490 H500 0.929 . S
C491 C488 1.399 . S
C491 C493 1.392 . S
C491 H501 0.929 . S
C492 C488 1.383 . S
C492 C489 1.389 . S
C492 H502 0.931 . S
C493 C490 1.380 . S
C493 C491 1.392 . S
C493 H503 0.929 . S
C494 O474 1.266 . S
C494 O475 1.248 . S
C495 Tb431 2.802 . S
C495 O470 1.264 . S
C495 O473 1.256 . S
C495 C488 1.496 . S
H496 C479 0.929 . S
H497 C480 0.929 . S
H498 C481 0.929 . S
H499 C482 0.931 . S
H500 C490 0.929 . S
H501 C491 0.929 . S
H502 C492 0.931 . S
H503 C493 0.929 . S
Tb504 N533 2.617 . S
Tb504 N539 2.572 . S
Tb504 O548 2.465 1_545 S
Tb504 O549 2.387 . S
Tb504 O551 2.428 1_545 S
Tb504 O552 2.308 . S
Tb504 O556 2.349 . S
Tb504 O559 2.393 . S
Tb504 C568 2.802 1_545 S
C505 N506 1.379 . S
C505 C508 1.416 . S
C505 C512 1.424 . S
N506 C505 1.379 . S
N506 C509 1.334 . S
N506 Tb515 2.617 . S
C507 C509 1.390 . S
C507 C510 1.339 . S
C507 H527 0.930 . S
C508 C505 1.416 . S
C508 C510 1.416 . S
C508 C514 1.448 1_655 S
C509 N506 1.334 . S
C509 C507 1.390 . S
C509 H520 0.930 . S
C510 C507 1.339 . S
C510 C508 1.416 . S
C510 H531 0.930 . S
C511 C512 1.413 . S
C511 C513 1.427 1_655 S
C511 C517 1.416 . S
C512 C505 1.424 . S
C512 C511 1.413 . S
C512 N516 1.361 . S
C513 C511 1.427 1_455 S
C513 C514 1.328 . S
C513 H528 0.929 . S
C514 C508 1.448 1_455 S
C514 C513 1.328 . S
C514 H529 0.930 . S
Tb515 N506 2.617 . S
Tb515 N516 2.572 . S
Tb515 O550 2.349 . S
Tb515 O553 2.393 . S
Tb515 O554 2.465 . S
Tb515 O555 2.387 . S
Tb515 O557 2.428 . S
Tb515 O558 2.308 . S
Tb515 C579 2.802 . S
N516 C512 1.361 . S
N516 Tb515 2.572 . S
N516 C518 1.340 . S
C517 C511 1.416 . S
C517 C519 1.332 . S
C517 H525 0.931 1_655 S
C518 N516 1.340 . S
C518 C519 1.407 . S
C518 H524 0.930 . S
C519 C517 1.332 . S
C519 C518 1.407 . S
C519 H521 0.929 . S
H520 C509 0.930 . S
H521 C519 0.929 . S
H522 C537 0.930 . S
H523 C544 0.929 . S
H524 C518 0.930 . S
H525 C517 0.931 1_455 S
H526 C540 0.930 . S
H527 C507 0.930 . S
H528 C513 0.929 . S
H529 C514 0.930 . S
H530 C535 0.930 . S
H531 C510 0.930 . S
H532 C543 0.931 . S
N533 Tb504 2.617 . S
N533 C534 1.379 . S
N533 C537 1.334 . S
C534 N533 1.379 . S
C534 C536 1.416 . S
C534 C542 1.424 . S
C535 H530 0.930 . S
C535 C537 1.390 . S
C535 C538 1.339 . S
C536 C534 1.416 . S
C536 C538 1.416 . S
C536 C569 1.448 . S
C537 H522 0.930 . S
C537 N533 1.334 . S
C537 C535 1.390 . S
C538 C535 1.339 . S
C538 C536 1.416 . S
C538 H545 0.930 . S
N539 Tb504 2.572 . S
N539 C540 1.340 . S
N539 C542 1.361 . S
C540 H526 0.930 . S
C540 N539 1.340 . S
C540 C544 1.407 1_545 S
C541 C542 1.413 . S
C541 C543 1.416 1_545 S
C541 C570 1.427 . S
C542 C534 1.424 . S
C542 N539 1.361 . S
C542 C541 1.413 . S
C543 H532 0.931 . S
C543 C541 1.416 1_565 S
C543 C544 1.332 . S
C544 H523 0.929 . S
C544 C540 1.407 1_565 S
C544 C543 1.332 . S
H545 C538 0.930 . S
H546 C569 0.930 . S
H547 C570 0.927 1_565 S
O548 Tb504 2.465 1_565 S
O548 C568 1.264 . S
O549 Tb504 2.387 . S
O549 C560 1.264 . S
O550 Tb515 2.349 . S
O550 C560 1.243 . S
O551 Tb504 2.428 1_565 S
O551 C568 1.256 . S
O552 Tb504 2.308 . S
O552 C567 1.266 . S
O553 Tb515 2.393 . S
O553 C567 1.248 . S
O554 Tb515 2.465 . S
O554 C579 1.264 . S
O555 Tb515 2.387 . S
O555 C571 1.264 . S
O556 Tb504 2.349 . S
O556 C571 1.243 . S
O557 Tb515 2.428 . S
O557 C579 1.256 . S
O558 Tb515 2.308 . S
O558 C578 1.266 . S
O559 Tb504 2.393 . S
O559 C578 1.248 . S
C560 O549 1.264 . S
C560 O550 1.243 . S
C561 C564 1.399 . S
C561 C566 1.383 . S
C561 C568 1.496 . S
C562 C563 1.399 . S
C562 C566 1.389 . S
C563 C562 1.399 . S
C563 C565 1.380 . S
C563 H580 0.929 . S
C564 C561 1.399 . S
C564 C565 1.392 . S
C564 H581 0.929 . S
C565 C563 1.380 . S
C565 C564 1.392 . S
C565 H582 0.929 . S
C566 C561 1.383 . S
C566 C562 1.389 . S
C566 H583 0.931 . S
C567 O552 1.266 . S
C567 O553 1.248 . S
C568 Tb504 2.802 1_565 S
C568 O548 1.264 . S
C568 O551 1.256 . S
C568 C561 1.496 . S
C569 C536 1.448 . S
C569 H546 0.930 . S
C569 C570 1.330 . S
C570 C541 1.427 . S
C570 H547 0.927 1_545 S
C570 C569 1.330 . S
C571 O555 1.264 . S
C571 O556 1.243 . S
C572 C575 1.399 . S
C572 C576 1.383 . S
C572 C579 1.496 . S
C573 C574 1.399 . S
C573 C576 1.389 . S
C574 C573 1.399 . S
C574 C577 1.380 . S
C574 H584 0.929 . S
C575 C572 1.399 . S
C575 C577 1.392 . S
C575 H585 0.929 . S
C576 C572 1.383 . S
C576 C573 1.389 . S
C576 H586 0.931 . S
C577 C574 1.380 . S
C577 C575 1.392 . S
C577 H587 0.929 . S
C578 O558 1.266 . S
C578 O559 1.248 . S
C579 Tb515 2.802 . S
C579 O554 1.264 . S
C579 O557 1.256 . S
C579 C572 1.496 . S
H580 C563 0.929 . S
H581 C564 0.929 . S
H582 C565 0.929 . S
H583 C566 0.931 . S
H584 C574 0.929 . S
H585 C575 0.929 . S
H586 C576 0.931 . S
H587 C577 0.929 . S
Tb588 N617 2.617 . S
Tb588 N623 2.572 . S
Tb588 O632 2.465 1_565 S
Tb588 O633 2.387 . S
Tb588 O635 2.428 1_565 S
Tb588 O636 2.308 . S
Tb588 O640 2.349 . S
Tb588 O643 2.393 . S
Tb588 C652 2.802 1_565 S
C589 N590 1.379 . S
C589 C592 1.416 . S
C589 C596 1.424 . S
N590 C589 1.379 . S
N590 C593 1.334 . S
N590 Tb599 2.617 . S
C591 C593 1.390 . S
C591 C594 1.339 . S
C591 H611 0.930 . S
C592 C589 1.416 . S
C592 C594 1.416 . S
C592 C598 1.448 1_455 S
C593 N590 1.334 . S
C593 C591 1.390 . S
C593 H604 0.930 . S
C594 C591 1.339 . S
C594 C592 1.416 . S
C594 H615 0.930 . S
C595 C596 1.413 . S
C595 C597 1.427 1_455 S
C595 C601 1.416 . S
C596 C589 1.424 . S
C596 C595 1.413 . S
C596 N600 1.361 . S
C597 C595 1.427 1_655 S
C597 C598 1.328 . S
C597 H612 0.929 . S
C598 C592 1.448 1_655 S
C598 C597 1.328 . S
C598 H613 0.930 . S
Tb599 N590 2.617 . S
Tb599 N600 2.572 . S
Tb599 O634 2.349 . S
Tb599 O637 2.393 . S
Tb599 O638 2.465 . S
Tb599 O639 2.387 . S
Tb599 O641 2.428 . S
Tb599 O642 2.308 . S
Tb599 C663 2.802 . S
N600 C596 1.361 . S
N600 Tb599 2.572 . S
N600 C602 1.340 . S
C601 C595 1.416 . S
C601 C603 1.332 . S
C601 H609 0.931 1_455 S
C602 N600 1.340 . S
C602 C603 1.407 . S
C602 H608 0.930 . S
C603 C601 1.332 . S
C603 C602 1.407 . S
C603 H605 0.929 . S
H604 C593 0.930 . S
H605 C603 0.929 . S
H606 C621 0.930 . S
H607 C628 0.929 . S
H608 C602 0.930 . S
H609 C601 0.931 1_655 S
H610 C624 0.930 . S
H611 C591 0.930 . S
H612 C597 0.929 . S
H613 C598 0.930 . S
H614 C619 0.930 . S
H615 C594 0.930 . S
H616 C627 0.931 . S
N617 Tb588 2.617 . S
N617 C618 1.379 . S
N617 C621 1.334 . S
C618 N617 1.379 . S
C618 C620 1.416 . S
C618 C626 1.424 . S
C619 H614 0.930 . S
C619 C621 1.390 . S
C619 C622 1.339 . S
C620 C618 1.416 . S
C620 C622 1.416 . S
C620 C653 1.448 . S
C621 H606 0.930 . S
C621 N617 1.334 . S
C621 C619 1.390 . S
C622 C619 1.339 . S
C622 C620 1.416 . S
C622 H629 0.930 . S
N623 Tb588 2.572 . S
N623 C624 1.340 . S
N623 C626 1.361 . S
C624 H610 0.930 . S
C624 N623 1.340 . S
C624 C628 1.407 1_565 S
C625 C626 1.413 . S
C625 C627 1.416 1_565 S
C625 C654 1.427 . S
C626 C618 1.424 . S
C626 N623 1.361 . S
C626 C625 1.413 . S
C627 H616 0.931 . S
C627 C625 1.416 1_545 S
C627 C628 1.332 . S
C628 H607 0.929 . S
C628 C624 1.407 1_545 S
C628 C627 1.332 . S
H629 C622 0.930 . S
H630 C653 0.930 . S
H631 C654 0.927 1_545 S
O632 Tb588 2.465 1_545 S
O632 C652 1.264 . S
O633 Tb588 2.387 . S
O633 C644 1.264 . S
O634 Tb599 2.349 . S
O634 C644 1.243 . S
O635 Tb588 2.428 1_545 S
O635 C652 1.256 . S
O636 Tb588 2.308 . S
O636 C651 1.266 . S
O637 Tb599 2.393 . S
O637 C651 1.248 . S
O638 Tb599 2.465 . S
O638 C663 1.264 . S
O639 Tb599 2.387 . S
O639 C655 1.264 . S
O640 Tb588 2.349 . S
O640 C655 1.243 . S
O641 Tb599 2.428 . S
O641 C663 1.256 . S
O642 Tb599 2.308 . S
O642 C662 1.266 . S
O643 Tb588 2.393 . S
O643 C662 1.248 . S
C644 O633 1.264 . S
C644 O634 1.243 . S
C645 C648 1.399 . S
C645 C650 1.383 . S
C645 C652 1.496 . S
C646 C647 1.399 . S
C646 C650 1.389 . S
C647 C646 1.399 . S
C647 C649 1.380 . S
C647 H664 0.929 . S
C648 C645 1.399 . S
C648 C649 1.392 . S
C648 H665 0.929 . S
C649 C647 1.380 . S
C649 C648 1.392 . S
C649 H666 0.929 . S
C650 C645 1.383 . S
C650 C646 1.389 . S
C650 H667 0.931 . S
C651 O636 1.266 . S
C651 O637 1.248 . S
C652 Tb588 2.802 1_545 S
C652 O632 1.264 . S
C652 O635 1.256 . S
C652 C645 1.496 . S
C653 C620 1.448 . S
C653 H630 0.930 . S
C653 C654 1.330 . S
C654 C625 1.427 . S
C654 H631 0.927 1_565 S
C654 C653 1.330 . S
C655 O639 1.264 . S
C655 O640 1.243 . S
C656 C659 1.399 . S
C656 C660 1.383 . S
C656 C663 1.496 . S
C657 C658 1.399 . S
C657 C660 1.389 . S
C658 C657 1.399 . S
C658 C661 1.380 . S
C658 H668 0.929 . S
C659 C656 1.399 . S
C659 C661 1.392 . S
C659 H669 0.929 . S
C660 C656 1.383 . S
C660 C657 1.389 . S
C660 H670 0.931 . S
C661 C658 1.380 . S
C661 C659 1.392 . S
C661 H671 0.929 . S
C662 O642 1.266 . S
C662 O643 1.248 . S
C663 Tb599 2.802 . S
C663 O638 1.264 . S
C663 O641 1.256 . S
C663 C656 1.496 . S
H664 C647 0.929 . S
H665 C648 0.929 . S
H666 C649 0.929 . S
H667 C650 0.931 . S
H668 C658 0.929 . S
H669 C659 0.929 . S
H670 C660 0.931 . S
H671 C661 0.929 . S
Tb672 N701 2.617 . S
Tb672 N707 2.572 . S
Tb672 O716 2.465 . S
Tb672 O717 2.387 . S
Tb672 O719 2.428 . S
Tb672 O720 2.308 . S
Tb672 O724 2.349 . S
Tb672 O727 2.393 . S
Tb672 C736 2.802 . S
C673 N674 1.379 . S
C673 C676 1.416 . S
C673 C680 1.424 . S
N674 C673 1.379 . S
N674 C677 1.334 . S
N674 Tb683 2.617 . S
C675 C677 1.390 . S
C675 C678 1.339 . S
C675 H695 0.930 . S
C676 C673 1.416 . S
C676 C678 1.416 . S
C676 C682 1.448 . S
C677 N674 1.334 . S
C677 C675 1.390 . S
C677 H688 0.930 . S
C678 C675 1.339 . S
C678 C676 1.416 . S
C678 H699 0.930 . S
C679 C680 1.413 . S
C679 C681 1.427 . S
C679 C685 1.416 . S
C680 C673 1.424 . S
C680 C679 1.413 . S
C680 N684 1.361 . S
C681 C679 1.427 . S
C681 C682 1.328 . S
C681 H696 0.929 . S
C682 C676 1.448 . S
C682 C681 1.328 . S
C682 H697 0.930 . S
Tb683 N674 2.617 . S
Tb683 N684 2.572 . S
Tb683 O718 2.349 . S
Tb683 O721 2.393 . S
Tb683 O722 2.465 . S
Tb683 O723 2.387 . S
Tb683 O725 2.428 . S
Tb683 O726 2.308 . S
Tb683 C747 2.802 . S
N684 C680 1.361 . S
N684 Tb683 2.572 . S
N684 C686 1.340 . S
C685 C679 1.416 . S
C685 C687 1.332 . S
C685 H693 0.931 . S
C686 N684 1.340 . S
C686 C687 1.407 . S
C686 H692 0.930 . S
C687 C685 1.332 . S
C687 C686 1.407 . S
C687 H689 0.929 . S
H688 C677 0.930 . S
H689 C687 0.929 . S
H690 C705 0.930 . S
H691 C712 0.929 . S
H692 C686 0.930 . S
H693 C685 0.931 . S
H694 C708 0.930 . S
H695 C675 0.930 . S
H696 C681 0.929 . S
H697 C682 0.930 . S
H698 C703 0.930 . S
H699 C678 0.930 . S
H700 C711 0.931 . S
N701 Tb672 2.617 . S
N701 C702 1.379 . S
N701 C705 1.334 . S
C702 N701 1.379 . S
C702 C704 1.416 . S
C702 C710 1.424 . S
C703 H698 0.930 . S
C703 C705 1.390 . S
C703 C706 1.339 . S
C704 C702 1.416 . S
C704 C706 1.416 . S
C704 C737 1.448 . S
C705 H690 0.930 . S
C705 N701 1.334 . S
C705 C703 1.390 . S
C706 C703 1.339 . S
C706 C704 1.416 . S
C706 H713 0.930 . S
N707 Tb672 2.572 . S
N707 C708 1.340 . S
N707 C710 1.361 . S
C708 H694 0.930 . S
C708 N707 1.340 . S
C708 C712 1.407 . S
C709 C710 1.413 . S
C709 C711 1.416 . S
C709 C738 1.427 . S
C710 C702 1.424 . S
C710 N707 1.361 . S
C710 C709 1.413 . S
C711 H700 0.931 . S
C711 C709 1.416 . S
C711 C712 1.332 . S
C712 H691 0.929 . S
C712 C708 1.407 . S
C712 C711 1.332 . S
H713 C706 0.930 . S
H714 C737 0.930 . S
H715 C738 0.929 . S
O716 Tb672 2.465 . S
O716 C736 1.264 . S
O717 Tb672 2.387 . S
O717 C728 1.264 . S
O718 Tb683 2.349 . S
O718 C728 1.243 . S
O719 Tb672 2.428 . S
O719 C736 1.256 . S
O720 Tb672 2.308 . S
O720 C735 1.266 . S
O721 Tb683 2.393 . S
O721 C735 1.248 . S
O722 Tb683 2.465 . S
O722 C747 1.264 . S
O723 Tb683 2.387 . S
O723 C739 1.264 . S
O724 Tb672 2.349 . S
O724 C739 1.243 . S
O725 Tb683 2.428 . S
O725 C747 1.256 . S
O726 Tb683 2.308 . S
O726 C746 1.266 . S
O727 Tb672 2.393 . S
O727 C746 1.248 . S
C728 O717 1.264 . S
C728 O718 1.243 . S
C729 C732 1.399 . S
C729 C734 1.383 . S
C729 C736 1.496 . S
C730 C731 1.399 . S
C730 C734 1.389 . S
C731 C730 1.399 . S
C731 C733 1.380 . S
C731 H748 0.929 1_565 S
C732 C729 1.399 . S
C732 C733 1.392 . S
C732 H749 0.929 . S
C733 C731 1.380 . S
C733 C732 1.392 . S
C733 H750 0.929 . S
C734 C729 1.383 . S
C734 C730 1.389 . S
C734 H751 0.931 . S
C735 O720 1.266 . S
C735 O721 1.248 . S
C736 Tb672 2.802 . S
C736 O716 1.264 . S
C736 O719 1.256 . S
C736 C729 1.496 . S
C737 C704 1.448 . S
C737 H714 0.930 . S
C737 C738 1.328 . S
C738 C709 1.427 . S
C738 H715 0.929 . S
C738 C737 1.328 . S
C739 O723 1.264 . S
C739 O724 1.243 . S
C740 C743 1.399 . S
C740 C744 1.383 . S
C740 C747 1.496 . S
C741 C742 1.399 . S
C741 C744 1.389 . S
C742 C741 1.399 . S
C742 C745 1.380 . S
C742 H752 0.929 . S
C743 C740 1.399 . S
C743 C745 1.392 . S
C743 H753 0.929 . S
C744 C740 1.383 . S
C744 C741 1.389 . S
C744 H754 0.931 . S
C745 C742 1.380 . S
C745 C743 1.392 . S
C745 H755 0.929 . S
C746 O726 1.266 . S
C746 O727 1.248 . S
C747 Tb683 2.802 . S
C747 O722 1.264 . S
C747 O725 1.256 . S
C747 C740 1.496 . S
H748 C731 0.929 1_545 S
H749 C732 0.929 . S
H750 C733 0.929 . S
H751 C734 0.931 . S
H752 C742 0.929 . S
H753 C743 0.929 . S
H754 C744 0.931 . S
H755 C745 0.929 . S
Tb756 N785 2.617 . S
Tb756 N791 2.572 . S
Tb756 O800 2.465 . S
Tb756 O801 2.387 . S
Tb756 O803 2.428 . S
Tb756 O804 2.308 . S
Tb756 O808 2.349 . S
Tb756 O811 2.393 . S
Tb756 C820 2.802 . S
C757 N758 1.379 . S
C757 C760 1.416 . S
C757 C764 1.424 . S
N758 C757 1.379 . S
N758 C761 1.334 . S
N758 Tb767 2.617 . S
C759 C761 1.390 . S
C759 C762 1.339 . S
C759 H779 0.930 . S
C760 C757 1.416 . S
C760 C762 1.416 . S
C760 C766 1.448 . S
C761 N758 1.334 . S
C761 C759 1.390 . S
C761 H772 0.930 . S
C762 C759 1.339 . S
C762 C760 1.416 . S
C762 H783 0.930 . S
C763 C764 1.413 . S
C763 C765 1.427 . S
C763 C769 1.416 . S
C764 C757 1.424 . S
C764 C763 1.413 . S
C764 N768 1.361 . S
C765 C763 1.427 . S
C765 C766 1.328 . S
C765 H780 0.929 . S
C766 C760 1.448 . S
C766 C765 1.328 . S
C766 H781 0.930 . S
Tb767 N758 2.617 . S
Tb767 N768 2.572 . S
Tb767 O802 2.349 . S
Tb767 O805 2.393 . S
Tb767 O806 2.465 . S
Tb767 O807 2.387 . S
Tb767 O809 2.428 . S
Tb767 O810 2.308 . S
Tb767 C831 2.802 . S
N768 C764 1.361 . S
N768 Tb767 2.572 . S
N768 C770 1.340 . S
C769 C763 1.416 . S
C769 C771 1.332 . S
C769 H777 0.931 . S
C770 N768 1.340 . S
C770 C771 1.407 . S
C770 H776 0.930 . S
C771 C769 1.332 . S
C771 C770 1.407 . S
C771 H773 0.929 . S
H772 C761 0.930 . S
H773 C771 0.929 . S
H774 C789 0.930 . S
H775 C796 0.929 . S
H776 C770 0.930 . S
H777 C769 0.931 . S
H778 C792 0.930 . S
H779 C759 0.930 . S
H780 C765 0.929 . S
H781 C766 0.930 . S
H782 C787 0.930 . S
H783 C762 0.930 . S
H784 C795 0.931 . S
N785 Tb756 2.617 . S
N785 C786 1.379 . S
N785 C789 1.334 . S
C786 N785 1.379 . S
C786 C788 1.416 . S
C786 C794 1.424 . S
C787 H782 0.930 . S
C787 C789 1.390 . S
C787 C790 1.339 . S
C788 C786 1.416 . S
C788 C790 1.416 . S
C788 C821 1.448 . S
C789 H774 0.930 . S
C789 N785 1.334 . S
C789 C787 1.390 . S
C790 C787 1.339 . S
C790 C788 1.416 . S
C790 H797 0.930 . S
N791 Tb756 2.572 . S
N791 C792 1.340 . S
N791 C794 1.361 . S
C792 H778 0.930 . S
C792 N791 1.340 . S
C792 C796 1.407 . S
C793 C794 1.413 . S
C793 C795 1.416 . S
C793 C822 1.427 . S
C794 C786 1.424 . S
C794 N791 1.361 . S
C794 C793 1.413 . S
C795 H784 0.931 . S
C795 C793 1.416 . S
C795 C796 1.332 . S
C796 H775 0.929 . S
C796 C792 1.407 . S
C796 C795 1.332 . S
H797 C790 0.930 . S
H798 C821 0.930 . S
H799 C822 0.929 . S
O800 Tb756 2.465 . S
O800 C820 1.264 . S
O801 Tb756 2.387 . S
O801 C812 1.264 . S
O802 Tb767 2.349 . S
O802 C812 1.243 . S
O803 Tb756 2.428 . S
O803 C820 1.256 . S
O804 Tb756 2.308 . S
O804 C819 1.266 . S
O805 Tb767 2.393 . S
O805 C819 1.248 . S
O806 Tb767 2.465 . S
O806 C831 1.264 . S
O807 Tb767 2.387 . S
O807 C823 1.264 . S
O808 Tb756 2.349 . S
O808 C823 1.243 . S
O809 Tb767 2.428 . S
O809 C831 1.256 . S
O810 Tb767 2.308 . S
O810 C830 1.266 . S
O811 Tb756 2.393 . S
O811 C830 1.248 . S
C812 O801 1.264 . S
C812 O802 1.243 . S
C813 C816 1.399 . S
C813 C818 1.383 . S
C813 C820 1.496 . S
C814 C815 1.399 . S
C814 C818 1.389 . S
C815 C814 1.399 . S
C815 C817 1.380 . S
C815 H832 0.929 1_545 S
C816 C813 1.399 . S
C816 C817 1.392 . S
C816 H833 0.929 . S
C817 C815 1.380 . S
C817 C816 1.392 . S
C817 H834 0.929 . S
C818 C813 1.383 . S
C818 C814 1.389 . S
C818 H835 0.931 . S
C819 O804 1.266 . S
C819 O805 1.248 . S
C820 Tb756 2.802 . S
C820 O800 1.264 . S
C820 O803 1.256 . S
C820 C813 1.496 . S
C821 C788 1.448 . S
C821 H798 0.930 . S
C821 C822 1.328 . S
C822 C793 1.427 . S
C822 H799 0.929 . S
C822 C821 1.328 . S
C823 O807 1.264 . S
C823 O808 1.243 . S
C824 C827 1.399 . S
C824 C828 1.383 . S
C824 C831 1.496 . S
C825 C826 1.399 . S
C825 C828 1.389 . S
C826 C825 1.399 . S
C826 C829 1.380 . S
C826 H836 0.929 . S
C827 C824 1.399 . S
C827 C829 1.392 . S
C827 H837 0.929 . S
C828 C824 1.383 . S
C828 C825 1.389 . S
C828 H838 0.931 . S
C829 C826 1.380 . S
C829 C827 1.392 . S
C829 H839 0.929 . S
C830 O810 1.266 . S
C830 O811 1.248 . S
C831 Tb767 2.802 . S
C831 O806 1.264 . S
C831 O809 1.256 . S
C831 C824 1.496 . S
H832 C815 0.929 1_565 S
H833 C816 0.929 . S
H834 C817 0.929 . S
H835 C818 0.931 . S
H836 C826 0.929 . S
H837 C827 0.929 . S
H838 C828 0.931 . S
H839 C829 0.929 . S
Tb840 N869 2.617 . S
Tb840 N875 2.572 . S
Tb840 O884 2.465 . S
Tb840 O885 2.387 . S
Tb840 O887 2.428 . S
Tb840 O888 2.308 . S
Tb840 O892 2.349 . S
Tb840 O895 2.393 . S
Tb840 C904 2.802 . S
C841 N842 1.379 . S
C841 C844 1.416 . S
C841 C848 1.424 . S
N842 C841 1.379 . S
N842 C845 1.334 . S
N842 Tb851 2.617 . S
C843 C845 1.390 . S
C843 C846 1.339 . S
C843 H863 0.930 . S
C844 C841 1.416 . S
C844 C846 1.416 . S
C844 C850 1.448 . S
C845 N842 1.334 . S
C845 C843 1.390 . S
C845 H856 0.930 . S
C846 C843 1.339 . S
C846 C844 1.416 . S
C846 H867 0.930 . S
C847 C848 1.413 . S
C847 C849 1.427 . S
C847 C853 1.416 . S
C848 C841 1.424 . S
C848 C847 1.413 . S
C848 N852 1.361 . S
C849 C847 1.427 . S
C849 C850 1.328 . S
C849 H864 0.929 . S
C850 C844 1.448 . S
C850 C849 1.328 . S
C850 H865 0.930 . S
Tb851 N842 2.617 . S
Tb851 N852 2.572 . S
Tb851 O886 2.349 . S
Tb851 O889 2.393 . S
Tb851 O890 2.465 . S
Tb851 O891 2.387 . S
Tb851 O893 2.428 . S
Tb851 O894 2.308 . S
Tb851 C915 2.802 . S
N852 C848 1.361 . S
N852 Tb851 2.572 . S
N852 C854 1.340 . S
C853 C847 1.416 . S
C853 C855 1.332 . S
C853 H861 0.931 . S
C854 N852 1.340 . S
C854 C855 1.407 . S
C854 H860 0.930 . S
C855 C853 1.332 . S
C855 C854 1.407 . S
C855 H857 0.929 . S
H856 C845 0.930 . S
H857 C855 0.929 . S
H858 C873 0.930 . S
H859 C880 0.929 . S
H860 C854 0.930 . S
H861 C853 0.931 . S
H862 C876 0.930 . S
H863 C843 0.930 . S
H864 C849 0.929 . S
H865 C850 0.930 . S
H866 C871 0.930 . S
H867 C846 0.930 . S
H868 C879 0.931 . S
N869 Tb840 2.617 . S
N869 C870 1.379 . S
N869 C873 1.334 . S
C870 N869 1.379 . S
C870 C872 1.416 . S
C870 C878 1.424 . S
C871 H866 0.930 . S
C871 C873 1.390 . S
C871 C874 1.339 . S
C872 C870 1.416 . S
C872 C874 1.416 . S
C872 C905 1.448 . S
C873 H858 0.930 . S
C873 N869 1.334 . S
C873 C871 1.390 . S
C874 C871 1.339 . S
C874 C872 1.416 . S
C874 H881 0.930 . S
N875 Tb840 2.572 . S
N875 C876 1.340 . S
N875 C878 1.361 . S
C876 H862 0.930 . S
C876 N875 1.340 . S
C876 C880 1.407 . S
C877 C878 1.413 . S
C877 C879 1.416 . S
C877 C906 1.427 . S
C878 C870 1.424 . S
C878 N875 1.361 . S
C878 C877 1.413 . S
C879 H868 0.931 . S
C879 C877 1.416 . S
C879 C880 1.332 . S
C880 H859 0.929 . S
C880 C876 1.407 . S
C880 C879 1.332 . S
H881 C874 0.930 . S
H882 C905 0.930 . S
H883 C906 0.929 . S
O884 Tb840 2.465 . S
O884 C904 1.264 . S
O885 Tb840 2.387 . S
O885 C896 1.264 . S
O886 Tb851 2.349 . S
O886 C896 1.243 . S
O887 Tb840 2.428 . S
O887 C904 1.256 . S
O888 Tb840 2.308 . S
O888 C903 1.266 . S
O889 Tb851 2.393 . S
O889 C903 1.248 . S
O890 Tb851 2.465 . S
O890 C915 1.264 . S
O891 Tb851 2.387 . S
O891 C907 1.264 . S
O892 Tb840 2.349 . S
O892 C907 1.243 . S
O893 Tb851 2.428 . S
O893 C915 1.256 . S
O894 Tb851 2.308 . S
O894 C914 1.266 . S
O895 Tb840 2.393 . S
O895 C914 1.248 . S
C896 O885 1.264 . S
C896 O886 1.243 . S
C897 C900 1.399 . S
C897 C902 1.383 . S
C897 C904 1.496 . S
C898 C899 1.399 . S
C898 C902 1.389 . S
C899 C898 1.399 . S
C899 C901 1.380 . S
C899 H916 0.929 1_545 S
C900 C897 1.399 . S
C900 C901 1.392 . S
C900 H917 0.929 . S
C901 C899 1.380 . S
C901 C900 1.392 . S
C901 H918 0.929 . S
C902 C897 1.383 . S
C902 C898 1.389 . S
C902 H919 0.931 . S
C903 O888 1.266 . S
C903 O889 1.248 . S
C904 Tb840 2.802 . S
C904 O884 1.264 . S
C904 O887 1.256 . S
C904 C897 1.496 . S
C905 C872 1.448 . S
C905 H882 0.930 . S
C905 C906 1.328 . S
C906 C877 1.427 . S
C906 H883 0.929 . S
C906 C905 1.328 . S
C907 O891 1.264 . S
C907 O892 1.243 . S
C908 C911 1.399 . S
C908 C912 1.383 . S
C908 C915 1.496 . S
C909 C910 1.399 . S
C909 C912 1.389 . S
C910 C909 1.399 . S
C910 C913 1.380 . S
C910 H920 0.929 . S
C911 C908 1.399 . S
C911 C913 1.392 . S
C911 H921 0.929 . S
C912 C908 1.383 . S
C912 C909 1.389 . S
C912 H922 0.931 . S
C913 C910 1.380 . S
C913 C911 1.392 . S
C913 H923 0.929 . S
C914 O894 1.266 . S
C914 O895 1.248 . S
C915 Tb851 2.802 . S
C915 O890 1.264 . S
C915 O893 1.256 . S
C915 C908 1.496 . S
H916 C899 0.929 1_565 S
H917 C900 0.929 . S
H918 C901 0.929 . S
H919 C902 0.931 . S
H920 C910 0.929 . S
H921 C911 0.929 . S
H922 C912 0.931 . S
H923 C913 0.929 . S
Tb924 N953 2.617 . S
Tb924 N959 2.572 . S
Tb924 O968 2.465 . S
Tb924 O969 2.387 . S
Tb924 O971 2.428 . S
Tb924 O972 2.308 . S
Tb924 O976 2.349 . S
Tb924 O979 2.393 . S
Tb924 C988 2.802 . S
C925 N926 1.379 . S
C925 C928 1.416 . S
C925 C932 1.424 . S
N926 C925 1.379 . S
N926 C929 1.334 . S
N926 Tb935 2.617 . S
C927 C929 1.390 . S
C927 C930 1.339 . S
C927 H947 0.930 . S
C928 C925 1.416 . S
C928 C930 1.416 . S
C928 C934 1.448 . S
C929 N926 1.334 . S
C929 C927 1.390 . S
C929 H940 0.930 . S
C930 C927 1.339 . S
C930 C928 1.416 . S
C930 H951 0.930 . S
C931 C932 1.413 . S
C931 C933 1.427 . S
C931 C937 1.416 . S
C932 C925 1.424 . S
C932 C931 1.413 . S
C932 N936 1.361 . S
C933 C931 1.427 . S
C933 C934 1.328 . S
C933 H948 0.929 . S
C934 C928 1.448 . S
C934 C933 1.328 . S
C934 H949 0.930 . S
Tb935 N926 2.617 . S
Tb935 N936 2.572 . S
Tb935 O970 2.349 . S
Tb935 O973 2.393 . S
Tb935 O974 2.465 . S
Tb935 O975 2.387 . S
Tb935 O977 2.428 . S
Tb935 O978 2.308 . S
Tb935 C999 2.802 . S
N936 C932 1.361 . S
N936 Tb935 2.572 . S
N936 C938 1.340 . S
C937 C931 1.416 . S
C937 C939 1.332 . S
C937 H945 0.931 . S
C938 N936 1.340 . S
C938 C939 1.407 . S
C938 H944 0.930 . S
C939 C937 1.332 . S
C939 C938 1.407 . S
C939 H941 0.929 . S
H940 C929 0.930 . S
H941 C939 0.929 . S
H942 C957 0.930 . S
H943 C964 0.929 . S
H944 C938 0.930 . S
H945 C937 0.931 . S
H946 C960 0.930 . S
H947 C927 0.930 . S
H948 C933 0.929 . S
H949 C934 0.930 . S
H950 C955 0.930 . S
H951 C930 0.930 . S
H952 C963 0.931 . S
N953 Tb924 2.617 . S
N953 C954 1.379 . S
N953 C957 1.334 . S
C954 N953 1.379 . S
C954 C956 1.416 . S
C954 C962 1.424 . S
C955 H950 0.930 . S
C955 C957 1.390 . S
C955 C958 1.339 . S
C956 C954 1.416 . S
C956 C958 1.416 . S
C956 C989 1.448 . S
C957 H942 0.930 . S
C957 N953 1.334 . S
C957 C955 1.390 . S
C958 C955 1.339 . S
C958 C956 1.416 . S
C958 H965 0.930 . S
N959 Tb924 2.572 . S
N959 C960 1.340 . S
N959 C962 1.361 . S
C960 H946 0.930 . S
C960 N959 1.340 . S
C960 C964 1.407 . S
C961 C962 1.413 . S
C961 C963 1.416 . S
C961 C990 1.427 . S
C962 C954 1.424 . S
C962 N959 1.361 . S
C962 C961 1.413 . S
C963 H952 0.931 . S
C963 C961 1.416 . S
C963 C964 1.332 . S
C964 H943 0.929 . S
C964 C960 1.407 . S
C964 C963 1.332 . S
H965 C958 0.930 . S
H966 C989 0.930 . S
H967 C990 0.929 . S
O968 Tb924 2.465 . S
O968 C988 1.264 . S
O969 Tb924 2.387 . S
O969 C980 1.264 . S
O970 Tb935 2.349 . S
O970 C980 1.243 . S
O971 Tb924 2.428 . S
O971 C988 1.256 . S
O972 Tb924 2.308 . S
O972 C987 1.266 . S
O973 Tb935 2.393 . S
O973 C987 1.248 . S
O974 Tb935 2.465 . S
O974 C999 1.264 . S
O975 Tb935 2.387 . S
O975 C991 1.264 . S
O976 Tb924 2.349 . S
O976 C991 1.243 . S
O977 Tb935 2.428 . S
O977 C999 1.256 . S
O978 Tb935 2.308 . S
O978 C998 1.266 . S
O979 Tb924 2.393 . S
O979 C998 1.248 . S
C980 O969 1.264 . S
C980 O970 1.243 . S
C981 C984 1.399 . S
C981 C986 1.383 . S
C981 C988 1.496 . S
C982 C983 1.399 . S
C982 C986 1.389 . S
C983 C982 1.399 . S
C983 C985 1.380 . S
C983 H1000 0.929 1_565 S
C984 C981 1.399 . S
C984 C985 1.392 . S
C984 H1001 0.929 . S
C985 C983 1.380 . S
C985 C984 1.392 . S
C985 H1002 0.929 . S
C986 C981 1.383 . S
C986 C982 1.389 . S
C986 H1003 0.931 . S
C987 O972 1.266 . S
C987 O973 1.248 . S
C988 Tb924 2.802 . S
C988 O968 1.264 . S
C988 O971 1.256 . S
C988 C981 1.496 . S
C989 C956 1.448 . S
C989 H966 0.930 . S
C989 C990 1.328 . S
C990 C961 1.427 . S
C990 H967 0.929 . S
C990 C989 1.328 . S
C991 O975 1.264 . S
C991 O976 1.243 . S
C992 C995 1.399 . S
C992 C996 1.383 . S
C992 C999 1.496 . S
C993 C994 1.399 . S
C993 C996 1.389 . S
C994 C993 1.399 . S
C994 C997 1.380 . S
C994 H1004 0.929 . S
C995 C992 1.399 . S
C995 C997 1.392 . S
C995 H1005 0.929 . S
C996 C992 1.383 . S
C996 C993 1.389 . S
C996 H1006 0.931 . S
C997 C994 1.380 . S
C997 C995 1.392 . S
C997 H1007 0.929 . S
C998 O978 1.266 . S
C998 O979 1.248 . S
C999 Tb935 2.802 . S
C999 O974 1.264 . S
C999 O977 1.256 . S
C999 C992 1.496 . S
H1000 C983 0.929 1_545 S
H1001 C984 0.929 . S
H1002 C985 0.929 . S
H1003 C986 0.931 . S
H1004 C994 0.929 . S
H1005 C995 0.929 . S
H1006 C996 0.931 . S
H1007 C997 0.929 . S
Tb1008 N1037 2.617 . S
Tb1008 N1043 2.572 . S
Tb1008 O1052 2.465 . S
Tb1008 O1053 2.387 . S
Tb1008 O1055 2.428 . S
Tb1008 O1056 2.308 . S
Tb1008 O1060 2.349 . S
Tb1008 O1063 2.393 . S
Tb1008 C1072 2.802 . S
C1009 N1010 1.379 . S
C1009 C1012 1.416 . S
C1009 C1016 1.424 . S
N1010 C1009 1.379 . S
N1010 C1013 1.334 . S
N1010 Tb1019 2.617 . S
C1011 C1013 1.390 . S
C1011 C1014 1.339 . S
C1011 H1031 0.930 . S
C1012 C1009 1.416 . S
C1012 C1014 1.416 . S
C1012 C1018 1.448 . S
C1013 N1010 1.334 . S
C1013 C1011 1.390 . S
C1013 H1024 0.930 . S
C1014 C1011 1.339 . S
C1014 C1012 1.416 . S
C1014 H1035 0.930 . S
C1015 C1016 1.413 . S
C1015 C1017 1.427 . S
C1015 C1021 1.416 . S
C1016 C1009 1.424 . S
C1016 C1015 1.413 . S
C1016 N1020 1.361 . S
C1017 C1015 1.427 . S
C1017 C1018 1.328 . S
C1017 H1032 0.929 . S
C1018 C1012 1.448 . S
C1018 C1017 1.328 . S
C1018 H1033 0.930 . S
Tb1019 N1010 2.617 . S
Tb1019 N1020 2.572 . S
Tb1019 O1054 2.349 . S
Tb1019 O1057 2.393 . S
Tb1019 O1058 2.465 . S
Tb1019 O1059 2.387 . S
Tb1019 O1061 2.428 . S
Tb1019 O1062 2.308 . S
Tb1019 C1083 2.802 . S
N1020 C1016 1.361 . S
N1020 Tb1019 2.572 . S
N1020 C1022 1.340 . S
C1021 C1015 1.416 . S
C1021 C1023 1.332 . S
C1021 H1029 0.931 . S
C1022 N1020 1.340 . S
C1022 C1023 1.407 . S
C1022 H1028 0.930 . S
C1023 C1021 1.332 . S
C1023 C1022 1.407 . S
C1023 H1025 0.929 . S
H1024 C1013 0.930 . S
H1025 C1023 0.929 . S
H1026 C1041 0.930 . S
H1027 C1048 0.929 . S
H1028 C1022 0.930 . S
H1029 C1021 0.931 . S
H1030 C1044 0.930 . S
H1031 C1011 0.930 . S
H1032 C1017 0.929 . S
H1033 C1018 0.930 . S
H1034 C1039 0.930 . S
H1035 C1014 0.930 . S
H1036 C1047 0.931 . S
N1037 Tb1008 2.617 . S
N1037 C1038 1.379 . S
N1037 C1041 1.334 . S
C1038 N1037 1.379 . S
C1038 C1040 1.416 . S
C1038 C1046 1.424 . S
C1039 H1034 0.930 . S
C1039 C1041 1.390 . S
C1039 C1042 1.339 . S
C1040 C1038 1.416 . S
C1040 C1042 1.416 . S
C1040 C1073 1.448 . S
C1041 H1026 0.930 . S
C1041 N1037 1.334 . S
C1041 C1039 1.390 . S
C1042 C1039 1.339 . S
C1042 C1040 1.416 . S
C1042 H1049 0.930 . S
N1043 Tb1008 2.572 . S
N1043 C1044 1.340 . S
N1043 C1046 1.361 . S
C1044 H1030 0.930 . S
C1044 N1043 1.340 . S
C1044 C1048 1.407 . S
C1045 C1046 1.413 . S
C1045 C1047 1.416 . S
C1045 C1074 1.427 . S
C1046 C1038 1.424 . S
C1046 N1043 1.361 . S
C1046 C1045 1.413 . S
C1047 H1036 0.931 . S
C1047 C1045 1.416 . S
C1047 C1048 1.332 . S
C1048 H1027 0.929 . S
C1048 C1044 1.407 . S
C1048 C1047 1.332 . S
H1049 C1042 0.930 . S
H1050 C1073 0.930 . S
H1051 C1074 0.929 . S
O1052 Tb1008 2.465 . S
O1052 C1072 1.264 . S
O1053 Tb1008 2.387 . S
O1053 C1064 1.264 . S
O1054 Tb1019 2.349 . S
O1054 C1064 1.243 . S
O1055 Tb1008 2.428 . S
O1055 C1072 1.256 . S
O1056 Tb1008 2.308 . S
O1056 C1071 1.266 . S
O1057 Tb1019 2.393 . S
O1057 C1071 1.248 . S
O1058 Tb1019 2.465 . S
O1058 C1083 1.264 . S
O1059 Tb1019 2.387 . S
O1059 C1075 1.264 . S
O1060 Tb1008 2.349 . S
O1060 C1075 1.243 . S
O1061 Tb1019 2.428 . S
O1061 C1083 1.256 . S
O1062 Tb1019 2.308 . S
O1062 C1082 1.266 . S
O1063 Tb1008 2.393 . S
O1063 C1082 1.248 . S
C1064 O1053 1.264 . S
C1064 O1054 1.243 . S
C1065 C1068 1.399 . S
C1065 C1070 1.383 . S
C1065 C1072 1.496 . S
C1066 C1067 1.399 . S
C1066 C1070 1.389 . S
C1067 C1066 1.399 . S
C1067 C1069 1.380 . S
C1067 H1084 0.929 . S
C1068 C1065 1.399 . S
C1068 C1069 1.392 . S
C1068 H1085 0.929 . S
C1069 C1067 1.380 . S
C1069 C1068 1.392 . S
C1069 H1086 0.929 . S
C1070 C1065 1.383 . S
C1070 C1066 1.389 . S
C1070 H1087 0.931 . S
C1071 O1056 1.266 . S
C1071 O1057 1.248 . S
C1072 Tb1008 2.802 . S
C1072 O1052 1.264 . S
C1072 O1055 1.256 . S
C1072 C1065 1.496 . S
C1073 C1040 1.448 . S
C1073 H1050 0.930 . S
C1073 C1074 1.328 . S
C1074 C1045 1.427 . S
C1074 H1051 0.929 . S
C1074 C1073 1.328 . S
C1075 O1059 1.264 . S
C1075 O1060 1.243 . S
C1076 C1079 1.399 . S
C1076 C1080 1.383 . S
C1076 C1083 1.496 . S
C1077 C1078 1.399 . S
C1077 C1080 1.389 . S
C1078 C1077 1.399 . S
C1078 C1081 1.380 . S
C1078 H1088 0.929 1_545 S
C1079 C1076 1.399 . S
C1079 C1081 1.392 . S
C1079 H1089 0.929 . S
C1080 C1076 1.383 . S
C1080 C1077 1.389 . S
C1080 H1090 0.931 . S
C1081 C1078 1.380 . S
C1081 C1079 1.392 . S
C1081 H1091 0.929 . S
C1082 O1062 1.266 . S
C1082 O1063 1.248 . S
C1083 Tb1019 2.802 . S
C1083 O1058 1.264 . S
C1083 O1061 1.256 . S
C1083 C1076 1.496 . S
H1084 C1067 0.929 . S
H1085 C1068 0.929 . S
H1086 C1069 0.929 . S
H1087 C1070 0.931 . S
H1088 C1078 0.929 1_565 S
H1089 C1079 0.929 . S
H1090 C1080 0.931 . S
H1091 C1081 0.929 . S
Tb1092 N1121 2.617 . S
Tb1092 N1127 2.572 . S
Tb1092 O1136 2.465 . S
Tb1092 O1137 2.387 . S
Tb1092 O1139 2.428 . S
Tb1092 O1140 2.308 . S
Tb1092 O1144 2.349 . S
Tb1092 O1147 2.393 . S
Tb1092 C1156 2.802 . S
C1093 N1094 1.379 . S
C1093 C1096 1.416 . S
C1093 C1100 1.424 . S
N1094 C1093 1.379 . S
N1094 C1097 1.334 . S
N1094 Tb1103 2.617 . S
C1095 C1097 1.390 . S
C1095 C1098 1.339 . S
C1095 H1115 0.930 . S
C1096 C1093 1.416 . S
C1096 C1098 1.416 . S
C1096 C1102 1.448 . S
C1097 N1094 1.334 . S
C1097 C1095 1.390 . S
C1097 H1108 0.930 . S
C1098 C1095 1.339 . S
C1098 C1096 1.416 . S
C1098 H1119 0.930 . S
C1099 C1100 1.413 . S
C1099 C1101 1.427 . S
C1099 C1105 1.416 . S
C1100 C1093 1.424 . S
C1100 C1099 1.413 . S
C1100 N1104 1.361 . S
C1101 C1099 1.427 . S
C1101 C1102 1.328 . S
C1101 H1116 0.929 . S
C1102 C1096 1.448 . S
C1102 C1101 1.328 . S
C1102 H1117 0.930 . S
Tb1103 N1094 2.617 . S
Tb1103 N1104 2.572 . S
Tb1103 O1138 2.349 . S
Tb1103 O1141 2.393 . S
Tb1103 O1142 2.465 . S
Tb1103 O1143 2.387 . S
Tb1103 O1145 2.428 . S
Tb1103 O1146 2.308 . S
Tb1103 C1167 2.802 . S
N1104 C1100 1.361 . S
N1104 Tb1103 2.572 . S
N1104 C1106 1.340 . S
C1105 C1099 1.416 . S
C1105 C1107 1.332 . S
C1105 H1113 0.931 . S
C1106 N1104 1.340 . S
C1106 C1107 1.407 . S
C1106 H1112 0.930 . S
C1107 C1105 1.332 . S
C1107 C1106 1.407 . S
C1107 H1109 0.929 . S
H1108 C1097 0.930 . S
H1109 C1107 0.929 . S
H1110 C1125 0.930 . S
H1111 C1132 0.929 . S
H1112 C1106 0.930 . S
H1113 C1105 0.931 . S
H1114 C1128 0.930 . S
H1115 C1095 0.930 . S
H1116 C1101 0.929 . S
H1117 C1102 0.930 . S
H1118 C1123 0.930 . S
H1119 C1098 0.930 . S
H1120 C1131 0.931 . S
N1121 Tb1092 2.617 . S
N1121 C1122 1.379 . S
N1121 C1125 1.334 . S
C1122 N1121 1.379 . S
C1122 C1124 1.416 . S
C1122 C1130 1.424 . S
C1123 H1118 0.930 . S
C1123 C1125 1.390 . S
C1123 C1126 1.339 . S
C1124 C1122 1.416 . S
C1124 C1126 1.416 . S
C1124 C1157 1.448 . S
C1125 H1110 0.930 . S
C1125 N1121 1.334 . S
C1125 C1123 1.390 . S
C1126 C1123 1.339 . S
C1126 C1124 1.416 . S
C1126 H1133 0.930 . S
N1127 Tb1092 2.572 . S
N1127 C1128 1.340 . S
N1127 C1130 1.361 . S
C1128 H1114 0.930 . S
C1128 N1127 1.340 . S
C1128 C1132 1.407 . S
C1129 C1130 1.413 . S
C1129 C1131 1.416 . S
C1129 C1158 1.427 . S
C1130 C1122 1.424 . S
C1130 N1127 1.361 . S
C1130 C1129 1.413 . S
C1131 H1120 0.931 . S
C1131 C1129 1.416 . S
C1131 C1132 1.332 . S
C1132 H1111 0.929 . S
C1132 C1128 1.407 . S
C1132 C1131 1.332 . S
H1133 C1126 0.930 . S
H1134 C1157 0.930 . S
H1135 C1158 0.929 . S
O1136 Tb1092 2.465 . S
O1136 C1156 1.264 . S
O1137 Tb1092 2.387 . S
O1137 C1148 1.264 . S
O1138 Tb1103 2.349 . S
O1138 C1148 1.243 . S
O1139 Tb1092 2.428 . S
O1139 C1156 1.256 . S
O1140 Tb1092 2.308 . S
O1140 C1155 1.266 . S
O1141 Tb1103 2.393 . S
O1141 C1155 1.248 . S
O1142 Tb1103 2.465 . S
O1142 C1167 1.264 . S
O1143 Tb1103 2.387 . S
O1143 C1159 1.264 . S
O1144 Tb1092 2.349 . S
O1144 C1159 1.243 . S
O1145 Tb1103 2.428 . S
O1145 C1167 1.256 . S
O1146 Tb1103 2.308 . S
O1146 C1166 1.266 . S
O1147 Tb1092 2.393 . S
O1147 C1166 1.248 . S
C1148 O1137 1.264 . S
C1148 O1138 1.243 . S
C1149 C1152 1.399 . S
C1149 C1154 1.383 . S
C1149 C1156 1.496 . S
C1150 C1151 1.399 . S
C1150 C1154 1.389 . S
C1151 C1150 1.399 . S
C1151 C1153 1.380 . S
C1151 H1168 0.929 . S
C1152 C1149 1.399 . S
C1152 C1153 1.392 . S
C1152 H1169 0.929 . S
C1153 C1151 1.380 . S
C1153 C1152 1.392 . S
C1153 H1170 0.929 . S
C1154 C1149 1.383 . S
C1154 C1150 1.389 . S
C1154 H1171 0.931 . S
C1155 O1140 1.266 . S
C1155 O1141 1.248 . S
C1156 Tb1092 2.802 . S
C1156 O1136 1.264 . S
C1156 O1139 1.256 . S
C1156 C1149 1.496 . S
C1157 C1124 1.448 . S
C1157 H1134 0.930 . S
C1157 C1158 1.328 . S
C1158 C1129 1.427 . S
C1158 H1135 0.929 . S
C1158 C1157 1.328 . S
C1159 O1143 1.264 . S
C1159 O1144 1.243 . S
C1160 C1163 1.399 . S
C1160 C1164 1.383 . S
C1160 C1167 1.496 . S
C1161 C1162 1.399 . S
C1161 C1164 1.389 . S
C1162 C1161 1.399 . S
C1162 C1165 1.380 . S
C1162 H1172 0.929 1_565 S
C1163 C1160 1.399 . S
C1163 C1165 1.392 . S
C1163 H1173 0.929 . S
C1164 C1160 1.383 . S
C1164 C1161 1.389 . S
C1164 H1174 0.931 . S
C1165 C1162 1.380 . S
C1165 C1163 1.392 . S
C1165 H1175 0.929 . S
C1166 O1146 1.266 . S
C1166 O1147 1.248 . S
C1167 Tb1103 2.802 . S
C1167 O1142 1.264 . S
C1167 O1145 1.256 . S
C1167 C1160 1.496 . S
H1168 C1151 0.929 . S
H1169 C1152 0.929 . S
H1170 C1153 0.929 . S
H1171 C1154 0.931 . S
H1172 C1162 0.929 1_545 S
H1173 C1163 0.929 . S
H1174 C1164 0.931 . S
H1175 C1165 0.929 . S
Tb1176 N1205 2.617 . S
Tb1176 N1211 2.572 . S
Tb1176 O1220 2.465 . S
Tb1176 O1221 2.387 . S
Tb1176 O1223 2.428 . S
Tb1176 O1224 2.308 . S
Tb1176 O1228 2.349 . S
Tb1176 O1231 2.393 . S
Tb1176 C1240 2.802 . S
C1177 N1178 1.379 . S
C1177 C1180 1.416 . S
C1177 C1184 1.424 . S
N1178 C1177 1.379 . S
N1178 C1181 1.334 . S
N1178 Tb1187 2.617 . S
C1179 C1181 1.390 . S
C1179 C1182 1.339 . S
C1179 H1199 0.930 . S
C1180 C1177 1.416 . S
C1180 C1182 1.416 . S
C1180 C1186 1.448 . S
C1181 N1178 1.334 . S
C1181 C1179 1.390 . S
C1181 H1192 0.930 . S
C1182 C1179 1.339 . S
C1182 C1180 1.416 . S
C1182 H1203 0.930 . S
C1183 C1184 1.413 . S
C1183 C1185 1.427 . S
C1183 C1189 1.416 . S
C1184 C1177 1.424 . S
C1184 C1183 1.413 . S
C1184 N1188 1.361 . S
C1185 C1183 1.427 . S
C1185 C1186 1.328 . S
C1185 H1200 0.929 . S
C1186 C1180 1.448 . S
C1186 C1185 1.328 . S
C1186 H1201 0.930 . S
Tb1187 N1178 2.617 . S
Tb1187 N1188 2.572 . S
Tb1187 O1222 2.349 . S
Tb1187 O1225 2.393 . S
Tb1187 O1226 2.465 . S
Tb1187 O1227 2.387 . S
Tb1187 O1229 2.428 . S
Tb1187 O1230 2.308 . S
Tb1187 C1251 2.802 . S
N1188 C1184 1.361 . S
N1188 Tb1187 2.572 . S
N1188 C1190 1.340 . S
C1189 C1183 1.416 . S
C1189 C1191 1.332 . S
C1189 H1197 0.931 . S
C1190 N1188 1.340 . S
C1190 C1191 1.407 . S
C1190 H1196 0.930 . S
C1191 C1189 1.332 . S
C1191 C1190 1.407 . S
C1191 H1193 0.929 . S
H1192 C1181 0.930 . S
H1193 C1191 0.929 . S
H1194 C1209 0.930 . S
H1195 C1216 0.929 . S
H1196 C1190 0.930 . S
H1197 C1189 0.931 . S
H1198 C1212 0.930 . S
H1199 C1179 0.930 . S
H1200 C1185 0.929 . S
H1201 C1186 0.930 . S
H1202 C1207 0.930 . S
H1203 C1182 0.930 . S
H1204 C1215 0.931 . S
N1205 Tb1176 2.617 . S
N1205 C1206 1.379 . S
N1205 C1209 1.334 . S
C1206 N1205 1.379 . S
C1206 C1208 1.416 . S
C1206 C1214 1.424 . S
C1207 H1202 0.930 . S
C1207 C1209 1.390 . S
C1207 C1210 1.339 . S
C1208 C1206 1.416 . S
C1208 C1210 1.416 . S
C1208 C1241 1.448 . S
C1209 H1194 0.930 . S
C1209 N1205 1.334 . S
C1209 C1207 1.390 . S
C1210 C1207 1.339 . S
C1210 C1208 1.416 . S
C1210 H1217 0.930 . S
N1211 Tb1176 2.572 . S
N1211 C1212 1.340 . S
N1211 C1214 1.361 . S
C1212 H1198 0.930 . S
C1212 N1211 1.340 . S
C1212 C1216 1.407 . S
C1213 C1214 1.413 . S
C1213 C1215 1.416 . S
C1213 C1242 1.427 . S
C1214 C1206 1.424 . S
C1214 N1211 1.361 . S
C1214 C1213 1.413 . S
C1215 H1204 0.931 . S
C1215 C1213 1.416 . S
C1215 C1216 1.332 . S
C1216 H1195 0.929 . S
C1216 C1212 1.407 . S
C1216 C1215 1.332 . S
H1217 C1210 0.930 . S
H1218 C1241 0.930 . S
H1219 C1242 0.929 . S
O1220 Tb1176 2.465 . S
O1220 C1240 1.264 . S
O1221 Tb1176 2.387 . S
O1221 C1232 1.264 . S
O1222 Tb1187 2.349 . S
O1222 C1232 1.243 . S
O1223 Tb1176 2.428 . S
O1223 C1240 1.256 . S
O1224 Tb1176 2.308 . S
O1224 C1239 1.266 . S
O1225 Tb1187 2.393 . S
O1225 C1239 1.248 . S
O1226 Tb1187 2.465 . S
O1226 C1251 1.264 . S
O1227 Tb1187 2.387 . S
O1227 C1243 1.264 . S
O1228 Tb1176 2.349 . S
O1228 C1243 1.243 . S
O1229 Tb1187 2.428 . S
O1229 C1251 1.256 . S
O1230 Tb1187 2.308 . S
O1230 C1250 1.266 . S
O1231 Tb1176 2.393 . S
O1231 C1250 1.248 . S
C1232 O1221 1.264 . S
C1232 O1222 1.243 . S
C1233 C1236 1.399 . S
C1233 C1238 1.383 . S
C1233 C1240 1.496 . S
C1234 C1235 1.399 . S
C1234 C1238 1.389 . S
C1235 C1234 1.399 . S
C1235 C1237 1.380 . S
C1235 H1252 0.929 . S
C1236 C1233 1.399 . S
C1236 C1237 1.392 . S
C1236 H1253 0.929 . S
C1237 C1235 1.380 . S
C1237 C1236 1.392 . S
C1237 H1254 0.929 . S
C1238 C1233 1.383 . S
C1238 C1234 1.389 . S
C1238 H1255 0.931 . S
C1239 O1224 1.266 . S
C1239 O1225 1.248 . S
C1240 Tb1176 2.802 . S
C1240 O1220 1.264 . S
C1240 O1223 1.256 . S
C1240 C1233 1.496 . S
C1241 C1208 1.448 . S
C1241 H1218 0.930 . S
C1241 C1242 1.328 . S
C1242 C1213 1.427 . S
C1242 H1219 0.929 . S
C1242 C1241 1.328 . S
C1243 O1227 1.264 . S
C1243 O1228 1.243 . S
C1244 C1247 1.399 . S
C1244 C1248 1.383 . S
C1244 C1251 1.496 . S
C1245 C1246 1.399 . S
C1245 C1248 1.389 . S
C1246 C1245 1.399 . S
C1246 C1249 1.380 . S
C1246 H1256 0.929 1_565 S
C1247 C1244 1.399 . S
C1247 C1249 1.392 . S
C1247 H1257 0.929 . S
C1248 C1244 1.383 . S
C1248 C1245 1.389 . S
C1248 H1258 0.931 . S
C1249 C1246 1.380 . S
C1249 C1247 1.392 . S
C1249 H1259 0.929 . S
C1250 O1230 1.266 . S
C1250 O1231 1.248 . S
C1251 Tb1187 2.802 . S
C1251 O1226 1.264 . S
C1251 O1229 1.256 . S
C1251 C1244 1.496 . S
H1252 C1235 0.929 . S
H1253 C1236 0.929 . S
H1254 C1237 0.929 . S
H1255 C1238 0.931 . S
H1256 C1246 0.929 1_545 S
H1257 C1247 0.929 . S
H1258 C1248 0.931 . S
H1259 C1249 0.929 . S
Tb1260 N1289 2.617 . S
Tb1260 N1295 2.572 . S
Tb1260 O1304 2.465 . S
Tb1260 O1305 2.387 . S
Tb1260 O1307 2.428 . S
Tb1260 O1308 2.308 . S
Tb1260 O1312 2.349 . S
Tb1260 O1315 2.393 . S
Tb1260 C1324 2.802 . S
C1261 N1262 1.379 . S
C1261 C1264 1.416 . S
C1261 C1268 1.424 . S
N1262 C1261 1.379 . S
N1262 C1265 1.334 . S
N1262 Tb1271 2.617 . S
C1263 C1265 1.390 . S
C1263 C1266 1.339 . S
C1263 H1283 0.930 . S
C1264 C1261 1.416 . S
C1264 C1266 1.416 . S
C1264 C1270 1.448 . S
C1265 N1262 1.334 . S
C1265 C1263 1.390 . S
C1265 H1276 0.930 . S
C1266 C1263 1.339 . S
C1266 C1264 1.416 . S
C1266 H1287 0.930 . S
C1267 C1268 1.413 . S
C1267 C1269 1.427 . S
C1267 C1273 1.416 . S
C1268 C1261 1.424 . S
C1268 C1267 1.413 . S
C1268 N1272 1.361 . S
C1269 C1267 1.427 . S
C1269 C1270 1.328 . S
C1269 H1284 0.929 . S
C1270 C1264 1.448 . S
C1270 C1269 1.328 . S
C1270 H1285 0.930 . S
Tb1271 N1262 2.617 . S
Tb1271 N1272 2.572 . S
Tb1271 O1306 2.349 . S
Tb1271 O1309 2.393 . S
Tb1271 O1310 2.465 . S
Tb1271 O1311 2.387 . S
Tb1271 O1313 2.428 . S
Tb1271 O1314 2.308 . S
Tb1271 C1335 2.802 . S
N1272 C1268 1.361 . S
N1272 Tb1271 2.572 . S
N1272 C1274 1.340 . S
C1273 C1267 1.416 . S
C1273 C1275 1.332 . S
C1273 H1281 0.931 . S
C1274 N1272 1.340 . S
C1274 C1275 1.407 . S
C1274 H1280 0.930 . S
C1275 C1273 1.332 . S
C1275 C1274 1.407 . S
C1275 H1277 0.929 . S
H1276 C1265 0.930 . S
H1277 C1275 0.929 . S
H1278 C1293 0.930 . S
H1279 C1300 0.929 . S
H1280 C1274 0.930 . S
H1281 C1273 0.931 . S
H1282 C1296 0.930 . S
H1283 C1263 0.930 . S
H1284 C1269 0.929 . S
H1285 C1270 0.930 . S
H1286 C1291 0.930 . S
H1287 C1266 0.930 . S
H1288 C1299 0.931 . S
N1289 Tb1260 2.617 . S
N1289 C1290 1.379 . S
N1289 C1293 1.334 . S
C1290 N1289 1.379 . S
C1290 C1292 1.416 . S
C1290 C1298 1.424 . S
C1291 H1286 0.930 . S
C1291 C1293 1.390 . S
C1291 C1294 1.339 . S
C1292 C1290 1.416 . S
C1292 C1294 1.416 . S
C1292 C1325 1.448 . S
C1293 H1278 0.930 . S
C1293 N1289 1.334 . S
C1293 C1291 1.390 . S
C1294 C1291 1.339 . S
C1294 C1292 1.416 . S
C1294 H1301 0.930 . S
N1295 Tb1260 2.572 . S
N1295 C1296 1.340 . S
N1295 C1298 1.361 . S
C1296 H1282 0.930 . S
C1296 N1295 1.340 . S
C1296 C1300 1.407 . S
C1297 C1298 1.413 . S
C1297 C1299 1.416 . S
C1297 C1326 1.427 . S
C1298 C1290 1.424 . S
C1298 N1295 1.361 . S
C1298 C1297 1.413 . S
C1299 H1288 0.931 . S
C1299 C1297 1.416 . S
C1299 C1300 1.332 . S
C1300 H1279 0.929 . S
C1300 C1296 1.407 . S
C1300 C1299 1.332 . S
H1301 C1294 0.930 . S
H1302 C1325 0.930 . S
H1303 C1326 0.929 . S
O1304 Tb1260 2.465 . S
O1304 C1324 1.264 . S
O1305 Tb1260 2.387 . S
O1305 C1316 1.264 . S
O1306 Tb1271 2.349 . S
O1306 C1316 1.243 . S
O1307 Tb1260 2.428 . S
O1307 C1324 1.256 . S
O1308 Tb1260 2.308 . S
O1308 C1323 1.266 . S
O1309 Tb1271 2.393 . S
O1309 C1323 1.248 . S
O1310 Tb1271 2.465 . S
O1310 C1335 1.264 . S
O1311 Tb1271 2.387 . S
O1311 C1327 1.264 . S
O1312 Tb1260 2.349 . S
O1312 C1327 1.243 . S
O1313 Tb1271 2.428 . S
O1313 C1335 1.256 . S
O1314 Tb1271 2.308 . S
O1314 C1334 1.266 . S
O1315 Tb1260 2.393 . S
O1315 C1334 1.248 . S
C1316 O1305 1.264 . S
C1316 O1306 1.243 . S
C1317 C1320 1.399 . S
C1317 C1322 1.383 . S
C1317 C1324 1.496 . S
C1318 C1319 1.399 . S
C1318 C1322 1.389 . S
C1319 C1318 1.399 . S
C1319 C1321 1.380 . S
C1319 H1336 0.929 . S
C1320 C1317 1.399 . S
C1320 C1321 1.392 . S
C1320 H1337 0.929 . S
C1321 C1319 1.380 . S
C1321 C1320 1.392 . S
C1321 H1338 0.929 . S
C1322 C1317 1.383 . S
C1322 C1318 1.389 . S
C1322 H1339 0.931 . S
C1323 O1308 1.266 . S
C1323 O1309 1.248 . S
C1324 Tb1260 2.802 . S
C1324 O1304 1.264 . S
C1324 O1307 1.256 . S
C1324 C1317 1.496 . S
C1325 C1292 1.448 . S
C1325 H1302 0.930 . S
C1325 C1326 1.328 . S
C1326 C1297 1.427 . S
C1326 H1303 0.929 . S
C1326 C1325 1.328 . S
C1327 O1311 1.264 . S
C1327 O1312 1.243 . S
C1328 C1331 1.399 . S
C1328 C1332 1.383 . S
C1328 C1335 1.496 . S
C1329 C1330 1.399 . S
C1329 C1332 1.389 . S
C1330 C1329 1.399 . S
C1330 C1333 1.380 . S
C1330 H1340 0.929 1_545 S
C1331 C1328 1.399 . S
C1331 C1333 1.392 . S
C1331 H1341 0.929 . S
C1332 C1328 1.383 . S
C1332 C1329 1.389 . S
C1332 H1342 0.931 . S
C1333 C1330 1.380 . S
C1333 C1331 1.392 . S
C1333 H1343 0.929 . S
C1334 O1314 1.266 . S
C1334 O1315 1.248 . S
C1335 Tb1271 2.802 . S
C1335 O1310 1.264 . S
C1335 O1313 1.256 . S
C1335 C1328 1.496 . S
H1336 C1319 0.929 . S
H1337 C1320 0.929 . S
H1338 C1321 0.929 . S
H1339 C1322 0.931 . S
H1340 C1330 0.929 1_565 S
H1341 C1331 0.929 . S
H1342 C1332 0.931 . S
H1343 C1333 0.929 . S
H1344 C1350 0.930 . S
H1345 C1353 0.930 . S
H1346 C1354 0.930 . S
H1347 C1355 0.930 . S
H1348 C1358 0.930 . S
H1349 C1359 0.930 . S
C1350 H1344 0.930 . S
C1350 C1351 1.355 . S
C1350 C1352 1.415 . S
C1351 C1350 1.355 . S
C1351 C1353 1.419 . S
C1352 C1350 1.415 . S
C1352 C1357 1.425 . S
C1352 C1359 1.409 . S
C1353 H1345 0.930 . S
C1353 C1351 1.419 . S
C1353 C1354 1.362 . S
C1354 H1346 0.930 . S
C1354 C1353 1.362 . S
C1354 C1357 1.409 . S
C1355 H1347 0.930 . S
C1355 C1356 1.355 . S
C1355 C1357 1.415 . S
C1356 C1355 1.355 . S
C1356 C1358 1.419 . S
C1357 C1352 1.425 . S
C1357 C1354 1.409 . S
C1357 C1355 1.415 . S
C1358 H1348 0.930 . S
C1358 C1356 1.419 . S
C1358 C1359 1.362 . S
C1359 H1349 0.930 . S
C1359 C1352 1.409 . S
C1359 C1358 1.362 . S
H1360 C1366 0.930 . S
H1361 C1369 0.930 . S
H1362 C1370 0.930 . S
H1363 C1371 0.930 . S
H1364 C1374 0.930 . S
H1365 C1375 0.930 . S
C1366 H1360 0.930 . S
C1366 C1367 1.355 . S
C1366 C1368 1.415 . S
C1367 C1366 1.355 . S
C1367 C1369 1.419 . S
C1368 C1366 1.415 . S
C1368 C1373 1.425 . S
C1368 C1375 1.409 . S
C1369 H1361 0.930 . S
C1369 C1367 1.419 . S
C1369 C1370 1.362 . S
C1370 H1362 0.930 . S
C1370 C1369 1.362 . S
C1370 C1373 1.409 . S
C1371 H1363 0.930 . S
C1371 C1372 1.355 . S
C1371 C1373 1.415 . S
C1372 C1371 1.355 . S
C1372 C1374 1.419 . S
C1373 C1368 1.425 . S
C1373 C1370 1.409 . S
C1373 C1371 1.415 . S
C1374 H1364 0.930 . S
C1374 C1372 1.419 . S
C1374 C1375 1.362 . S
C1375 H1365 0.930 . S
C1375 C1368 1.409 . S
C1375 C1374 1.362 . S
H1376 C1382 0.930 . S
H1377 C1385 0.930 . S
H1378 C1386 0.930 . S
H1379 C1387 0.930 . S
H1380 C1390 0.930 . S
H1381 C1391 0.930 . S
C1382 H1376 0.930 . S
C1382 C1383 1.355 . S
C1382 C1384 1.415 . S
C1383 C1382 1.355 . S
C1383 C1385 1.419 . S
C1384 C1382 1.415 . S
C1384 C1389 1.425 . S
C1384 C1391 1.409 . S
C1385 H1377 0.930 . S
C1385 C1383 1.419 . S
C1385 C1386 1.362 . S
C1386 H1378 0.930 . S
C1386 C1385 1.362 . S
C1386 C1389 1.409 . S
C1387 H1379 0.930 . S
C1387 C1388 1.355 . S
C1387 C1389 1.415 . S
C1388 C1387 1.355 . S
C1388 C1390 1.419 . S
C1389 C1384 1.425 . S
C1389 C1386 1.409 . S
C1389 C1387 1.415 . S
C1390 H1380 0.930 . S
C1390 C1388 1.419 . S
C1390 C1391 1.362 . S
C1391 H1381 0.930 . S
C1391 C1384 1.409 . S
C1391 C1390 1.362 . S
H1392 C1398 0.930 . S
H1393 C1401 0.930 . S
H1394 C1402 0.930 . S
H1395 C1403 0.930 . S
H1396 C1406 0.930 . S
H1397 C1407 0.930 . S
C1398 H1392 0.930 . S
C1398 C1399 1.355 . S
C1398 C1400 1.415 . S
C1399 C1398 1.355 . S
C1399 C1401 1.419 . S
C1400 C1398 1.415 . S
C1400 C1405 1.425 . S
C1400 C1407 1.409 . S
C1401 H1393 0.930 . S
C1401 C1399 1.419 . S
C1401 C1402 1.362 . S
C1402 H1394 0.930 . S
C1402 C1401 1.362 . S
C1402 C1405 1.409 . S
C1403 H1395 0.930 . S
C1403 C1404 1.355 . S
C1403 C1405 1.415 . S
C1404 C1403 1.355 . S
C1404 C1406 1.419 . S
C1405 C1400 1.425 . S
C1405 C1402 1.409 . S
C1405 C1403 1.415 . S
C1406 H1396 0.930 . S
C1406 C1404 1.419 . S
C1406 C1407 1.362 . S
C1407 H1397 0.930 . S
C1407 C1400 1.409 . S
C1407 C1406 1.362 . S
H1408 C1414 0.930 . S
H1409 C1417 0.930 . S
H1410 C1418 0.930 . S
H1411 C1419 0.930 . S
H1412 C1422 0.930 . S
H1413 C1423 0.930 . S
C1414 H1408 0.930 . S
C1414 C1415 1.355 . S
C1414 C1416 1.415 . S
C1415 C1414 1.355 . S
C1415 C1417 1.419 . S
C1416 C1414 1.415 . S
C1416 C1421 1.425 . S
C1416 C1423 1.409 . S
C1417 H1409 0.930 . S
C1417 C1415 1.419 . S
C1417 C1418 1.362 . S
C1418 H1410 0.930 . S
C1418 C1417 1.362 . S
C1418 C1421 1.409 . S
C1419 H1411 0.930 . S
C1419 C1420 1.355 . S
C1419 C1421 1.415 . S
C1420 C1419 1.355 . S
C1420 C1422 1.419 . S
C1421 C1416 1.425 . S
C1421 C1418 1.409 . S
C1421 C1419 1.415 . S
C1422 H1412 0.930 . S
C1422 C1420 1.419 . S
C1422 C1423 1.362 . S
C1423 H1413 0.930 . S
C1423 C1416 1.409 . S
C1423 C1422 1.362 . S
H1424 C1430 0.930 . S
H1425 C1433 0.930 . S
H1426 C1434 0.930 . S
H1427 C1435 0.930 . S
H1428 C1438 0.930 . S
H1429 C1439 0.930 . S
C1430 H1424 0.930 . S
C1430 C1431 1.355 . S
C1430 C1432 1.415 . S
C1431 C1430 1.355 . S
C1431 C1433 1.419 . S
C1432 C1430 1.415 . S
C1432 C1437 1.425 . S
C1432 C1439 1.409 . S
C1433 H1425 0.930 . S
C1433 C1431 1.419 . S
C1433 C1434 1.362 . S
C1434 H1426 0.930 . S
C1434 C1433 1.362 . S
C1434 C1437 1.409 . S
C1435 H1427 0.930 . S
C1435 C1436 1.355 . S
C1435 C1437 1.415 . S
C1436 C1435 1.355 . S
C1436 C1438 1.419 . S
C1437 C1432 1.425 . S
C1437 C1434 1.409 . S
C1437 C1435 1.415 . S
C1438 H1428 0.930 . S
C1438 C1436 1.419 . S
C1438 C1439 1.362 . S
C1439 H1429 0.930 . S
C1439 C1432 1.409 . S
C1439 C1438 1.362 . S
H1440 C1446 0.930 . S
H1441 C1449 0.930 . S
H1442 C1450 0.930 . S
H1443 C1451 0.930 . S
H1444 C1454 0.930 . S
H1445 C1455 0.930 . S
C1446 H1440 0.930 . S
C1446 C1447 1.355 . S
C1446 C1448 1.415 . S
C1447 C1446 1.355 . S
C1447 C1449 1.419 . S
C1448 C1446 1.415 . S
C1448 C1453 1.425 . S
C1448 C1455 1.409 . S
C1449 H1441 0.930 . S
C1449 C1447 1.419 . S
C1449 C1450 1.362 . S
C1450 H1442 0.930 . S
C1450 C1449 1.362 . S
C1450 C1453 1.409 . S
C1451 H1443 0.930 . S
C1451 C1452 1.355 . S
C1451 C1453 1.415 . S
C1452 C1451 1.355 . S
C1452 C1454 1.419 . S
C1453 C1448 1.425 . S
C1453 C1450 1.409 . S
C1453 C1451 1.415 . S
C1454 H1444 0.930 . S
C1454 C1452 1.419 . S
C1454 C1455 1.362 . S
C1455 H1445 0.930 . S
C1455 C1448 1.409 . S
C1455 C1454 1.362 . S
H1456 C1462 0.930 . S
H1457 C1465 0.930 . S
H1458 C1466 0.930 . S
H1459 C1467 0.930 . S
H1460 C1470 0.930 . S
H1461 C1471 0.930 . S
C1462 H1456 0.930 . S
C1462 C1463 1.355 . S
C1462 C1464 1.415 . S
C1463 C1462 1.355 . S
C1463 C1465 1.419 . S
C1464 C1462 1.415 . S
C1464 C1469 1.425 . S
C1464 C1471 1.409 . S
C1465 H1457 0.930 . S
C1465 C1463 1.419 . S
C1465 C1466 1.362 . S
C1466 H1458 0.930 . S
C1466 C1465 1.362 . S
C1466 C1469 1.409 . S
C1467 H1459 0.930 . S
C1467 C1468 1.355 . S
C1467 C1469 1.415 . S
C1468 C1467 1.355 . S
C1468 C1470 1.419 . S
C1469 C1464 1.425 . S
C1469 C1466 1.409 . S
C1469 C1467 1.415 . S
C1470 H1460 0.930 . S
C1470 C1468 1.419 . S
C1470 C1471 1.362 . S
C1471 H1461 0.930 . S
C1471 C1464 1.409 . S
C1471 C1470 1.362 . S
H1472 C1478 0.930 . S
H1473 C1481 0.930 . S
H1474 C1482 0.930 1_545 S
H1475 C1483 0.930 . S
H1476 C1486 0.930 . S
H1477 C1487 0.930 1_565 S
C1478 H1472 0.930 . S
C1478 C1479 1.355 . S
C1478 C1480 1.415 . S
C1479 C1478 1.355 . S
C1479 C1481 1.419 . S
C1480 C1478 1.415 . S
C1480 C1485 1.425 1_565 S
C1480 C1487 1.409 1_565 S
C1481 H1473 0.930 . S
C1481 C1479 1.419 . S
C1481 C1482 1.362 . S
C1482 H1474 0.930 1_565 S
C1482 C1481 1.362 . S
C1482 C1485 1.409 1_565 S
C1483 H1475 0.930 . S
C1483 C1484 1.355 . S
C1483 C1485 1.415 . S
C1484 C1483 1.355 . S
C1484 C1486 1.419 . S
C1485 C1480 1.425 1_545 S
C1485 C1482 1.409 1_545 S
C1485 C1483 1.415 . S
C1486 H1476 0.930 . S
C1486 C1484 1.419 . S
C1486 C1487 1.362 . S
C1487 H1477 0.930 1_545 S
C1487 C1480 1.409 1_545 S
C1487 C1486 1.362 . S
H1488 C1494 0.930 . S
H1489 C1497 0.930 . S
H1490 C1498 0.930 . S
H1491 C1499 0.930 . S
H1492 C1502 0.930 . S
H1493 C1503 0.930 . S
C1494 H1488 0.930 . S
C1494 C1495 1.355 . S
C1494 C1496 1.415 . S
C1495 C1494 1.355 . S
C1495 C1497 1.419 1_545 S
C1496 C1494 1.415 . S
C1496 C1501 1.425 1_545 S
C1496 C1503 1.409 . S
C1497 H1489 0.930 . S
C1497 C1495 1.419 1_565 S
C1497 C1498 1.362 . S
C1498 H1490 0.930 . S
C1498 C1497 1.362 . S
C1498 C1501 1.409 . S
C1499 H1491 0.930 . S
C1499 C1500 1.355 . S
C1499 C1501 1.415 . S
C1500 C1499 1.355 . S
C1500 C1502 1.419 1_565 S
C1501 C1496 1.425 1_565 S
C1501 C1498 1.409 . S
C1501 C1499 1.415 . S
C1502 H1492 0.930 . S
C1502 C1500 1.419 1_545 S
C1502 C1503 1.362 . S
C1503 H1493 0.930 . S
C1503 C1496 1.409 . S
C1503 C1502 1.362 . S
H1504 C1510 0.930 . S
H1505 C1513 0.930 . S
H1506 C1514 0.930 . S
H1507 C1515 0.930 . S
H1508 C1518 0.930 . S
H1509 C1519 0.930 . S
C1510 H1504 0.930 . S
C1510 C1511 1.355 . S
C1510 C1512 1.415 . S
C1511 C1510 1.355 . S
C1511 C1513 1.419 1_545 S
C1512 C1510 1.415 . S
C1512 C1517 1.425 1_545 S
C1512 C1519 1.409 . S
C1513 H1505 0.930 . S
C1513 C1511 1.419 1_565 S
C1513 C1514 1.362 . S
C1514 H1506 0.930 . S
C1514 C1513 1.362 . S
C1514 C1517 1.409 . S
C1515 H1507 0.930 . S
C1515 C1516 1.355 . S
C1515 C1517 1.415 . S
C1516 C1515 1.355 . S
C1516 C1518 1.419 1_565 S
C1517 C1512 1.425 1_565 S
C1517 C1514 1.409 . S
C1517 C1515 1.415 . S
C1518 H1508 0.930 . S
C1518 C1516 1.419 1_545 S
C1518 C1519 1.362 . S
C1519 H1509 0.930 . S
C1519 C1512 1.409 . S
C1519 C1518 1.362 . S
H1520 C1526 0.930 . S
H1521 C1529 0.930 . S
H1522 C1530 0.930 . S
H1523 C1531 0.930 . S
H1524 C1534 0.930 . S
H1525 C1535 0.930 . S
C1526 H1520 0.930 . S
C1526 C1527 1.355 . S
C1526 C1528 1.415 . S
C1527 C1526 1.355 . S
C1527 C1529 1.419 1_545 S
C1528 C1526 1.415 . S
C1528 C1533 1.425 1_545 S
C1528 C1535 1.409 . S
C1529 H1521 0.930 . S
C1529 C1527 1.419 1_565 S
C1529 C1530 1.362 . S
C1530 H1522 0.930 . S
C1530 C1529 1.362 . S
C1530 C1533 1.409 . S
C1531 H1523 0.930 . S
C1531 C1532 1.355 . S
C1531 C1533 1.415 . S
C1532 C1531 1.355 . S
C1532 C1534 1.419 1_565 S
C1533 C1528 1.425 1_565 S
C1533 C1530 1.409 . S
C1533 C1531 1.415 . S
C1534 H1524 0.930 . S
C1534 C1532 1.419 1_545 S
C1534 C1535 1.362 . S
C1535 H1525 0.930 . S
C1535 C1528 1.409 . S
C1535 C1534 1.362 . S
H1536 C1542 0.930 . S
H1537 C1545 0.930 . S
H1538 C1546 0.930 . S
H1539 C1547 0.930 . S
H1540 C1550 0.930 . S
H1541 C1551 0.930 . S
C1542 H1536 0.930 . S
C1542 C1543 1.355 . S
C1542 C1544 1.415 . S
C1543 C1542 1.355 . S
C1543 C1545 1.419 . S
C1544 C1542 1.415 . S
C1544 C1549 1.425 . S
C1544 C1551 1.409 . S
C1545 H1537 0.930 . S
C1545 C1543 1.419 . S
C1545 C1546 1.362 . S
C1546 H1538 0.930 . S
C1546 C1545 1.362 . S
C1546 C1549 1.409 . S
C1547 H1539 0.930 . S
C1547 C1548 1.355 . S
C1547 C1549 1.415 . S
C1548 C1547 1.355 . S
C1548 C1550 1.419 . S
C1549 C1544 1.425 . S
C1549 C1546 1.409 . S
C1549 C1547 1.415 . S
C1550 H1540 0.930 . S
C1550 C1548 1.419 . S
C1550 C1551 1.362 . S
C1551 H1541 0.930 . S
C1551 C1544 1.409 . S
C1551 C1550 1.362 . S
H1552 C1558 0.930 . S
H1553 C1561 0.930 . S
H1554 C1562 0.930 . S
H1555 C1563 0.930 . S
H1556 C1566 0.930 . S
H1557 C1567 0.930 . S
C1558 H1552 0.930 . S
C1558 C1559 1.355 . S
C1558 C1560 1.415 . S
C1559 C1558 1.355 . S
C1559 C1561 1.419 . S
C1560 C1558 1.415 . S
C1560 C1565 1.425 . S
C1560 C1567 1.409 . S
C1561 H1553 0.930 . S
C1561 C1559 1.419 . S
C1561 C1562 1.362 . S
C1562 H1554 0.930 . S
C1562 C1561 1.362 . S
C1562 C1565 1.409 . S
C1563 H1555 0.930 . S
C1563 C1564 1.355 . S
C1563 C1565 1.415 . S
C1564 C1563 1.355 . S
C1564 C1566 1.419 . S
C1565 C1560 1.425 . S
C1565 C1562 1.409 . S
C1565 C1563 1.415 . S
C1566 H1556 0.930 . S
C1566 C1564 1.419 . S
C1566 C1567 1.362 . S
C1567 H1557 0.930 . S
C1567 C1560 1.409 . S
C1567 C1566 1.362 . S
H1568 C1574 0.930 . S
H1569 C1577 0.930 . S
H1570 C1578 0.930 . S
H1571 C1579 0.930 . S
H1572 C1582 0.930 . S
H1573 C1583 0.930 . S
C1574 H1568 0.930 . S
C1574 C1575 1.355 . S
C1574 C1576 1.415 . S
C1575 C1574 1.355 . S
C1575 C1577 1.419 . S
C1576 C1574 1.415 . S
C1576 C1581 1.425 . S
C1576 C1583 1.409 . S
C1577 H1569 0.930 . S
C1577 C1575 1.419 . S
C1577 C1578 1.362 . S
C1578 H1570 0.930 . S
C1578 C1577 1.362 . S
C1578 C1581 1.409 . S
C1579 H1571 0.930 . S
C1579 C1580 1.355 . S
C1579 C1581 1.415 . S
C1580 C1579 1.355 . S
C1580 C1582 1.419 . S
C1581 C1576 1.425 . S
C1581 C1578 1.409 . S
C1581 C1579 1.415 . S
C1582 H1572 0.930 . S
C1582 C1580 1.419 . S
C1582 C1583 1.362 . S
C1583 H1573 0.930 . S
C1583 C1576 1.409 . S
C1583 C1582 1.362 . S
H1584 C1590 0.930 . S
H1585 C1593 0.930 . S
H1586 C1594 0.930 . S
H1587 C1595 0.930 . S
H1588 C1598 0.930 . S
H1589 C1599 0.930 . S
C1590 H1584 0.930 . S
C1590 C1591 1.355 . S
C1590 C1592 1.415 . S
C1591 C1590 1.355 . S
C1591 C1593 1.419 . S
C1592 C1590 1.415 . S
C1592 C1597 1.425 . S
C1592 C1599 1.409 . S
C1593 H1585 0.930 . S
C1593 C1591 1.419 . S
C1593 C1594 1.362 . S
C1594 H1586 0.930 . S
C1594 C1593 1.362 . S
C1594 C1597 1.409 . S
C1595 H1587 0.930 . S
C1595 C1596 1.355 . S
C1595 C1597 1.415 . S
C1596 C1595 1.355 . S
C1596 C1598 1.419 . S
C1597 C1592 1.425 . S
C1597 C1594 1.409 . S
C1597 C1595 1.415 . S
C1598 H1588 0.930 . S
C1598 C1596 1.419 . S
C1598 C1599 1.362 . S
C1599 H1589 0.930 . S
C1599 C1592 1.409 . S
C1599 C1598 1.362 . S
H1600 C1606 0.930 . S
H1601 C1609 0.930 . S
H1602 C1610 0.930 . S
H1603 C1611 0.930 . S
H1604 C1614 0.930 . S
H1605 C1615 0.930 . S
C1606 H1600 0.930 . S
C1606 C1607 1.355 . S
C1606 C1608 1.415 . S
C1607 C1606 1.355 . S
C1607 C1609 1.419 . S
C1608 C1606 1.415 . S
C1608 C1613 1.425 1_556 S
C1608 C1615 1.409 1_556 S
C1609 H1601 0.930 . S
C1609 C1607 1.419 . S
C1609 C1610 1.362 . S
C1610 H1602 0.930 . S
C1610 C1609 1.362 . S
C1610 C1613 1.409 1_556 S
C1611 H1603 0.930 . S
C1611 C1612 1.355 . S
C1611 C1613 1.415 . S
C1612 C1611 1.355 . S
C1612 C1614 1.419 . S
C1613 C1608 1.425 1_554 S
C1613 C1610 1.409 1_554 S
C1613 C1611 1.415 . S
C1614 H1604 0.930 . S
C1614 C1612 1.419 . S
C1614 C1615 1.362 . S
C1615 H1605 0.930 . S
C1615 C1608 1.409 1_554 S
C1615 C1614 1.362 . S
H1616 C1622 0.930 . S
H1617 C1625 0.930 . S
H1618 C1626 0.930 . S
H1619 C1627 0.930 . S
H1620 C1630 0.930 . S
H1621 C1631 0.930 . S
C1622 H1616 0.930 . S
C1622 C1623 1.355 . S
C1622 C1624 1.415 . S
C1623 C1622 1.355 . S
C1623 C1625 1.419 . S
C1624 C1622 1.415 . S
C1624 C1629 1.425 1_556 S
C1624 C1631 1.409 1_556 S
C1625 H1617 0.930 . S
C1625 C1623 1.419 . S
C1625 C1626 1.362 . S
C1626 H1618 0.930 . S
C1626 C1625 1.362 . S
C1626 C1629 1.409 1_556 S
C1627 H1619 0.930 . S
C1627 C1628 1.355 . S
C1627 C1629 1.415 . S
C1628 C1627 1.355 . S
C1628 C1630 1.419 . S
C1629 C1624 1.425 1_554 S
C1629 C1626 1.409 1_554 S
C1629 C1627 1.415 . S
C1630 H1620 0.930 . S
C1630 C1628 1.419 . S
C1630 C1631 1.362 . S
C1631 H1621 0.930 . S
C1631 C1624 1.409 1_554 S
C1631 C1630 1.362 . S
H1632 C1638 0.930 . S
H1633 C1641 0.930 . S
H1634 C1642 0.930 . S
H1635 C1643 0.930 . S
H1636 C1646 0.930 . S
H1637 C1647 0.930 . S
C1638 H1632 0.930 . S
C1638 C1639 1.355 . S
C1638 C1640 1.415 . S
C1639 C1638 1.355 . S
C1639 C1641 1.419 . S
C1640 C1638 1.415 . S
C1640 C1645 1.425 . S
C1640 C1647 1.409 . S
C1641 H1633 0.930 . S
C1641 C1639 1.419 . S
C1641 C1642 1.362 . S
C1642 H1634 0.930 . S
C1642 C1641 1.362 . S
C1642 C1645 1.409 . S
C1643 H1635 0.930 . S
C1643 C1644 1.355 . S
C1643 C1645 1.415 . S
C1644 C1643 1.355 . S
C1644 C1646 1.419 . S
C1645 C1640 1.425 . S
C1645 C1642 1.409 . S
C1645 C1643 1.415 . S
C1646 H1636 0.930 . S
C1646 C1644 1.419 . S
C1646 C1647 1.362 . S
C1647 H1637 0.930 . S
C1647 C1640 1.409 . S
C1647 C1646 1.362 . S
H1648 C1654 0.930 . S
H1649 C1657 0.930 . S
H1650 C1658 0.930 . S
H1651 C1659 0.930 . S
H1652 C1662 0.930 . S
H1653 C1663 0.930 . S
C1654 H1648 0.930 . S
C1654 C1655 1.355 . S
C1654 C1656 1.415 . S
C1655 C1654 1.355 . S
C1655 C1657 1.419 . S
C1656 C1654 1.415 . S
C1656 C1661 1.425 . S
C1656 C1663 1.409 . S
C1657 H1649 0.930 . S
C1657 C1655 1.419 . S
C1657 C1658 1.362 . S
C1658 H1650 0.930 . S
C1658 C1657 1.362 . S
C1658 C1661 1.409 . S
C1659 H1651 0.930 . S
C1659 C1660 1.355 . S
C1659 C1661 1.415 . S
C1660 C1659 1.355 . S
C1660 C1662 1.419 . S
C1661 C1656 1.425 . S
C1661 C1658 1.409 . S
C1661 C1659 1.415 . S
C1662 H1652 0.930 . S
C1662 C1660 1.419 . S
C1662 C1663 1.362 . S
C1663 H1653 0.930 . S
C1663 C1656 1.409 . S
C1663 C1662 1.362 . S
H1664 C1670 0.930 . S
H1665 C1673 0.930 . S
H1666 C1674 0.930 . S
H1667 C1675 0.930 . S
H1668 C1678 0.930 . S
H1669 C1679 0.930 . S
C1670 H1664 0.930 . S
C1670 C1671 1.355 . S
C1670 C1672 1.415 . S
C1671 C1670 1.355 . S
C1671 C1673 1.419 . S
C1672 C1670 1.415 . S
C1672 C1677 1.425 1_554 S
C1672 C1679 1.409 1_554 S
C1673 H1665 0.930 . S
C1673 C1671 1.419 . S
C1673 C1674 1.362 . S
C1674 H1666 0.930 . S
C1674 C1673 1.362 . S
C1674 C1677 1.409 1_554 S
C1675 H1667 0.930 . S
C1675 C1676 1.355 . S
C1675 C1677 1.415 . S
C1676 C1675 1.355 . S
C1676 C1678 1.419 . S
C1677 C1672 1.425 1_556 S
C1677 C1674 1.409 1_556 S
C1677 C1675 1.415 . S
C1678 H1668 0.930 . S
C1678 C1676 1.419 . S
C1678 C1679 1.362 . S
C1679 H1669 0.930 . S
C1679 C1672 1.409 1_556 S
C1679 C1678 1.362 . S
H1680 C1686 0.930 . S
H1681 C1689 0.930 . S
H1682 C1690 0.930 . S
H1683 C1691 0.930 . S
H1684 C1694 0.930 . S
H1685 C1695 0.930 . S
C1686 H1680 0.930 . S
C1686 C1687 1.355 . S
C1686 C1688 1.415 . S
C1687 C1686 1.355 . S
C1687 C1689 1.419 . S
C1688 C1686 1.415 . S
C1688 C1693 1.425 1_556 S
C1688 C1695 1.409 1_556 S
C1689 H1681 0.930 . S
C1689 C1687 1.419 . S
C1689 C1690 1.362 . S
C1690 H1682 0.930 . S
C1690 C1689 1.362 . S
C1690 C1693 1.409 1_556 S
C1691 H1683 0.930 . S
C1691 C1692 1.355 . S
C1691 C1693 1.415 . S
C1692 C1691 1.355 . S
C1692 C1694 1.419 . S
C1693 C1688 1.425 1_554 S
C1693 C1690 1.409 1_554 S
C1693 C1691 1.415 . S
C1694 H1684 0.930 . S
C1694 C1692 1.419 . S
C1694 C1695 1.362 . S
C1695 H1685 0.930 . S
C1695 C1688 1.409 1_554 S
C1695 C1694 1.362 . S
H1696 C1702 0.930 . S
H1697 C1705 0.930 . S
H1698 C1706 0.930 . S
H1699 C1707 0.930 . S
H1700 C1710 0.930 . S
H1701 C1711 0.930 . S
C1702 H1696 0.930 . S
C1702 C1703 1.355 . S
C1702 C1704 1.415 . S
C1703 C1702 1.355 . S
C1703 C1705 1.419 . S
C1704 C1702 1.415 . S
C1704 C1709 1.425 . S
C1704 C1711 1.409 . S
C1705 H1697 0.930 . S
C1705 C1703 1.419 . S
C1705 C1706 1.362 . S
C1706 H1698 0.930 . S
C1706 C1705 1.362 . S
C1706 C1709 1.409 . S
C1707 H1699 0.930 . S
C1707 C1708 1.355 . S
C1707 C1709 1.415 . S
C1708 C1707 1.355 . S
C1708 C1710 1.419 . S
C1709 C1704 1.425 . S
C1709 C1706 1.409 . S
C1709 C1707 1.415 . S
C1710 H1700 0.930 . S
C1710 C1708 1.419 . S
C1710 C1711 1.362 . S
C1711 H1701 0.930 . S
C1711 C1704 1.409 . S
C1711 C1710 1.362 . S
H1712 C1718 0.930 . S
H1713 C1721 0.930 . S
H1714 C1722 0.930 . S
H1715 C1723 0.930 . S
H1716 C1726 0.930 . S
H1717 C1727 0.930 . S
C1718 H1712 0.930 . S
C1718 C1719 1.355 . S
C1718 C1720 1.415 . S
C1719 C1718 1.355 . S
C1719 C1721 1.419 . S
C1720 C1718 1.415 . S
C1720 C1725 1.425 . S
C1720 C1727 1.409 . S
C1721 H1713 0.930 . S
C1721 C1719 1.419 . S
C1721 C1722 1.362 . S
C1722 H1714 0.930 . S
C1722 C1721 1.362 . S
C1722 C1725 1.409 . S
C1723 H1715 0.930 . S
C1723 C1724 1.355 . S
C1723 C1725 1.415 . S
C1724 C1723 1.355 . S
C1724 C1726 1.419 . S
C1725 C1720 1.425 . S
C1725 C1722 1.409 . S
C1725 C1723 1.415 . S
C1726 H1716 0.930 . S
C1726 C1724 1.419 . S
C1726 C1727 1.362 . S
C1727 H1717 0.930 . S
C1727 C1720 1.409 . S
C1727 C1726 1.362 . S
H1728 C1734 0.930 . S
H1729 C1737 0.930 . S
H1730 C1738 0.950 . S
H1731 C1739 0.930 . S
H1732 C1742 0.930 . S
H1733 C1743 0.950 . S
C1734 H1728 0.930 . S
C1734 C1735 1.355 1_545 S
C1734 C1736 1.415 . S
C1735 C1734 1.355 1_565 S
C1735 C1737 1.419 . S
C1736 C1734 1.415 . S
C1736 C1741 1.425 1_645 S
C1736 C1743 1.418 . S
C1737 H1729 0.930 . S
C1737 C1735 1.419 . S
C1737 C1738 1.334 1_655 S
C1738 H1730 0.950 . S
C1738 C1737 1.334 1_455 S
C1738 C1741 1.418 . S
C1739 H1731 0.930 . S
C1739 C1740 1.355 1_565 S
C1739 C1741 1.415 . S
C1740 C1739 1.355 1_545 S
C1740 C1742 1.419 . S
C1741 C1736 1.425 1_465 S
C1741 C1738 1.418 . S
C1741 C1739 1.415 . S
C1742 H1732 0.930 . S
C1742 C1740 1.419 . S
C1742 C1743 1.334 1_455 S
C1743 H1733 0.950 . S
C1743 C1736 1.418 . S
C1743 C1742 1.334 1_655 S
H1744 C1750 0.930 . S
H1745 C1753 0.930 . S
H1746 C1754 0.926 1_565 S
H1747 C1755 0.930 . S
H1748 C1758 0.930 . S
H1749 C1759 0.926 1_545 S
C1750 H1744 0.930 . S
C1750 C1751 1.355 . S
C1750 C1752 1.415 . S
C1751 C1750 1.355 . S
C1751 C1753 1.419 . S
C1752 C1750 1.415 . S
C1752 C1757 1.425 1_645 S
C1752 C1759 1.407 1_645 S
C1753 H1745 0.930 . S
C1753 C1751 1.419 . S
C1753 C1754 1.368 . S
C1754 H1746 0.926 1_545 S
C1754 C1753 1.368 . S
C1754 C1757 1.407 1_645 S
C1755 H1747 0.930 . S
C1755 C1756 1.355 . S
C1755 C1757 1.415 . S
C1756 C1755 1.355 . S
C1756 C1758 1.419 . S
C1757 C1752 1.425 1_465 S
C1757 C1754 1.407 1_465 S
C1757 C1755 1.415 . S
C1758 H1748 0.930 . S
C1758 C1756 1.419 . S
C1758 C1759 1.368 . S
C1759 H1749 0.926 1_565 S
C1759 C1752 1.407 1_465 S
C1759 C1758 1.368 . S
H1760 C1766 0.930 . S
H1761 C1769 0.930 . S
H1762 C1770 0.930 1_655 S
H1763 C1771 0.930 . S
H1764 C1774 0.930 . S
H1765 C1775 0.930 1_455 S
C1766 H1760 0.930 . S
C1766 C1767 1.355 1_565 S
C1766 C1768 1.415 . S
C1767 C1766 1.355 1_545 S
C1767 C1769 1.419 . S
C1768 C1766 1.415 . S
C1768 C1773 1.425 1_465 S
C1768 C1775 1.409 1_455 S
C1769 H1761 0.930 . S
C1769 C1767 1.419 . S
C1769 C1770 1.362 . S
C1770 H1762 0.930 1_455 S
C1770 C1769 1.362 . S
C1770 C1773 1.409 1_455 S
C1771 H1763 0.930 . S
C1771 C1772 1.355 1_545 S
C1771 C1773 1.415 . S
C1772 C1771 1.355 1_565 S
C1772 C1774 1.419 . S
C1773 C1768 1.425 1_645 S
C1773 C1770 1.409 1_655 S
C1773 C1771 1.415 . S
C1774 H1764 0.930 . S
C1774 C1772 1.419 . S
C1774 C1775 1.362 . S
C1775 H1765 0.930 1_655 S
C1775 C1768 1.409 1_655 S
C1775 C1774 1.362 . S
H1776 C1782 0.930 . S
H1777 C1785 0.930 . S
H1778 C1786 0.930 . S
H1779 C1787 0.930 . S
H1780 C1790 0.930 . S
H1781 C1791 0.930 . S
C1782 H1776 0.930 . S
C1782 C1783 1.355 . S
C1782 C1784 1.386 1_655 S
C1783 C1782 1.355 . S
C1783 C1785 1.419 1_545 S
C1784 C1782 1.386 1_455 S
C1784 C1789 1.423 1_445 S
C1784 C1791 1.440 . S
C1785 H1777 0.930 . S
C1785 C1783 1.419 1_565 S
C1785 C1786 1.362 . S
C1786 H1778 0.930 . S
C1786 C1785 1.362 . S
C1786 C1789 1.440 . S
C1787 H1779 0.930 . S
C1787 C1788 1.355 . S
C1787 C1789 1.386 1_455 S
C1788 C1787 1.355 . S
C1788 C1790 1.419 1_565 S
C1789 C1784 1.423 1_665 S
C1789 C1786 1.440 . S
C1789 C1787 1.386 1_655 S
C1790 H1780 0.930 . S
C1790 C1788 1.419 1_545 S
C1790 C1791 1.362 . S
C1791 H1781 0.930 . S
C1791 C1784 1.440 . S
C1791 C1790 1.362 . S
H1792 C1798 0.930 . S
H1793 C1801 0.930 . S
H1794 C1802 0.930 . S
H1795 C1803 0.930 . S
H1796 C1806 0.930 . S
H1797 C1807 0.930 . S
C1798 H1792 0.930 . S
C1798 C1799 1.355 . S
C1798 C1800 1.415 . S
C1799 C1798 1.355 . S
C1799 C1801 1.419 . S
C1800 C1798 1.415 . S
C1800 C1805 1.425 . S
C1800 C1807 1.409 . S
C1801 H1793 0.930 . S
C1801 C1799 1.419 . S
C1801 C1802 1.362 . S
C1802 H1794 0.930 . S
C1802 C1801 1.362 . S
C1802 C1805 1.409 . S
C1803 H1795 0.930 . S
C1803 C1804 1.355 . S
C1803 C1805 1.415 . S
C1804 C1803 1.355 . S
C1804 C1806 1.419 . S
C1805 C1800 1.425 . S
C1805 C1802 1.409 . S
C1805 C1803 1.415 . S
C1806 H1796 0.930 . S
C1806 C1804 1.419 . S
C1806 C1807 1.362 . S
C1807 H1797 0.930 . S
C1807 C1800 1.409 . S
C1807 C1806 1.362 . S
H1808 C1814 0.930 . S
H1809 C1817 0.930 . S
H1810 C1818 0.930 . S
H1811 C1819 0.930 . S
H1812 C1822 0.930 . S
H1813 C1823 0.930 . S
C1814 H1808 0.930 . S
C1814 C1815 1.355 . S
C1814 C1816 1.415 . S
C1815 C1814 1.355 . S
C1815 C1817 1.419 . S
C1816 C1814 1.415 . S
C1816 C1821 1.425 . S
C1816 C1823 1.409 . S
C1817 H1809 0.930 . S
C1817 C1815 1.419 . S
C1817 C1818 1.362 . S
C1818 H1810 0.930 . S
C1818 C1817 1.362 . S
C1818 C1821 1.409 . S
C1819 H1811 0.930 . S
C1819 C1820 1.355 . S
C1819 C1821 1.415 . S
C1820 C1819 1.355 . S
C1820 C1822 1.419 . S
C1821 C1816 1.425 . S
C1821 C1818 1.409 . S
C1821 C1819 1.415 . S
C1822 H1812 0.930 . S
C1822 C1820 1.419 . S
C1822 C1823 1.362 . S
C1823 H1813 0.930 . S
C1823 C1816 1.409 . S
C1823 C1822 1.362 . S
H1824 C1830 0.930 . S
H1825 C1833 0.930 . S
H1826 C1834 0.930 . S
H1827 C1835 0.930 . S
H1828 C1838 0.930 . S
H1829 C1839 0.930 . S
C1830 H1824 0.930 . S
C1830 C1831 1.355 . S
C1830 C1832 1.415 . S
C1831 C1830 1.355 . S
C1831 C1833 1.419 . S
C1832 C1830 1.415 . S
C1832 C1837 1.425 . S
C1832 C1839 1.409 . S
C1833 H1825 0.930 . S
C1833 C1831 1.419 . S
C1833 C1834 1.362 . S
C1834 H1826 0.930 . S
C1834 C1833 1.362 . S
C1834 C1837 1.409 . S
C1835 H1827 0.930 . S
C1835 C1836 1.355 . S
C1835 C1837 1.415 . S
C1836 C1835 1.355 . S
C1836 C1838 1.419 . S
C1837 C1832 1.425 . S
C1837 C1834 1.409 . S
C1837 C1835 1.415 . S
C1838 H1828 0.930 . S
C1838 C1836 1.419 . S
C1838 C1839 1.362 . S
C1839 H1829 0.930 . S
C1839 C1832 1.409 . S
C1839 C1838 1.362 . S
H1840 C1846 0.930 . S
H1841 C1849 0.930 . S
H1842 C1850 0.930 . S
H1843 C1851 0.930 . S
H1844 C1854 0.930 . S
H1845 C1855 0.930 . S
C1846 H1840 0.930 . S
C1846 C1847 1.355 . S
C1846 C1848 1.415 . S
C1847 C1846 1.355 . S
C1847 C1849 1.419 . S
C1848 C1846 1.415 . S
C1848 C1853 1.425 . S
C1848 C1855 1.409 . S
C1849 H1841 0.930 . S
C1849 C1847 1.419 . S
C1849 C1850 1.362 . S
C1850 H1842 0.930 . S
C1850 C1849 1.362 . S
C1850 C1853 1.409 . S
C1851 H1843 0.930 . S
C1851 C1852 1.355 . S
C1851 C1853 1.415 . S
C1852 C1851 1.355 . S
C1852 C1854 1.419 . S
C1853 C1848 1.425 . S
C1853 C1850 1.409 . S
C1853 C1851 1.415 . S
C1854 H1844 0.930 . S
C1854 C1852 1.419 . S
C1854 C1855 1.362 . S
C1855 H1845 0.930 . S
C1855 C1848 1.409 . S
C1855 C1854 1.362 . S
H1856 C1862 0.930 . S
H1857 C1865 0.930 . S
H1858 C1866 0.930 . S
H1859 C1867 0.930 . S
H1860 C1870 0.930 . S
H1861 C1871 0.930 . S
C1862 H1856 0.930 . S
C1862 C1863 1.355 . S
C1862 C1864 1.415 . S
C1863 C1862 1.355 . S
C1863 C1865 1.419 . S
C1864 C1862 1.415 . S
C1864 C1869 1.425 . S
C1864 C1871 1.409 . S
C1865 H1857 0.930 . S
C1865 C1863 1.419 . S
C1865 C1866 1.362 . S
C1866 H1858 0.930 . S
C1866 C1865 1.362 . S
C1866 C1869 1.409 . S
C1867 H1859 0.930 . S
C1867 C1868 1.355 . S
C1867 C1869 1.415 . S
C1868 C1867 1.355 . S
C1868 C1870 1.419 . S
C1869 C1864 1.425 . S
C1869 C1866 1.409 . S
C1869 C1867 1.415 . S
C1870 H1860 0.930 . S
C1870 C1868 1.419 . S
C1870 C1871 1.362 . S
C1871 H1861 0.930 . S
C1871 C1864 1.409 . S
C1871 C1870 1.362 . S
H1872 C1878 0.930 . S
H1873 C1881 0.930 . S
H1874 C1882 0.930 . S
H1875 C1883 0.930 . S
H1876 C1886 0.930 . S
H1877 C1887 0.930 . S
C1878 H1872 0.930 . S
C1878 C1879 1.355 . S
C1878 C1880 1.415 . S
C1879 C1878 1.355 . S
C1879 C1881 1.419 . S
C1880 C1878 1.415 . S
C1880 C1885 1.425 . S
C1880 C1887 1.409 . S
C1881 H1873 0.930 . S
C1881 C1879 1.419 . S
C1881 C1882 1.362 . S
C1882 H1874 0.930 . S
C1882 C1881 1.362 . S
C1882 C1885 1.409 . S
C1883 H1875 0.930 . S
C1883 C1884 1.355 . S
C1883 C1885 1.415 . S
C1884 C1883 1.355 . S
C1884 C1886 1.419 . S
C1885 C1880 1.425 . S
C1885 C1882 1.409 . S
C1885 C1883 1.415 . S
C1886 H1876 0.930 . S
C1886 C1884 1.419 . S
C1886 C1887 1.362 . S
C1887 H1877 0.930 . S
C1887 C1880 1.409 . S
C1887 C1886 1.362 . S
H1888 C1894 0.930 . S
H1889 C1897 0.930 . S
H1890 C1898 0.930 . S
H1891 C1899 0.930 . S
H1892 C1902 0.930 . S
H1893 C1903 0.930 . S
C1894 H1888 0.930 . S
C1894 C1895 1.355 . S
C1894 C1896 1.415 . S
C1895 C1894 1.355 . S
C1895 C1897 1.419 . S
C1896 C1894 1.415 . S
C1896 C1901 1.425 . S
C1896 C1903 1.409 . S
C1897 H1889 0.930 . S
C1897 C1895 1.419 . S
C1897 C1898 1.362 . S
C1898 H1890 0.930 . S
C1898 C1897 1.362 . S
C1898 C1901 1.409 . S
C1899 H1891 0.930 . S
C1899 C1900 1.355 . S
C1899 C1901 1.415 . S
C1900 C1899 1.355 . S
C1900 C1902 1.419 . S
C1901 C1896 1.425 . S
C1901 C1898 1.409 . S
C1901 C1899 1.415 . S
C1902 H1892 0.930 . S
C1902 C1900 1.419 . S
C1902 C1903 1.362 . S
C1903 H1893 0.930 . S
C1903 C1896 1.409 . S
C1903 C1902 1.362 . S
H1904 C1910 0.930 . S
H1905 C1913 0.930 . S
H1906 C1914 0.930 . S
H1907 C1915 0.930 . S
H1908 C1918 0.930 . S
H1909 C1919 0.930 . S
C1910 H1904 0.930 . S
C1910 C1911 1.355 . S
C1910 C1912 1.415 . S
C1911 C1910 1.355 . S
C1911 C1913 1.419 . S
C1912 C1910 1.415 . S
C1912 C1917 1.425 . S
C1912 C1919 1.409 . S
C1913 H1905 0.930 . S
C1913 C1911 1.419 . S
C1913 C1914 1.362 . S
C1914 H1906 0.930 . S
C1914 C1913 1.362 . S
C1914 C1917 1.409 . S
C1915 H1907 0.930 . S
C1915 C1916 1.355 . S
C1915 C1917 1.415 . S
C1916 C1915 1.355 . S
C1916 C1918 1.419 . S
C1917 C1912 1.425 . S
C1917 C1914 1.409 . S
C1917 C1915 1.415 . S
C1918 H1908 0.930 . S
C1918 C1916 1.419 . S
C1918 C1919 1.362 . S
C1919 H1909 0.930 . S
C1919 C1912 1.409 . S
C1919 C1918 1.362 . S
H1920 C1926 0.930 . S
H1921 C1929 0.930 . S
H1922 C1930 0.930 . S
H1923 C1931 0.930 . S
H1924 C1934 0.930 . S
H1925 C1935 0.930 . S
C1926 H1920 0.930 . S
C1926 C1927 1.355 . S
C1926 C1928 1.415 . S
C1927 C1926 1.355 . S
C1927 C1929 1.419 . S
C1928 C1926 1.415 . S
C1928 C1933 1.425 . S
C1928 C1935 1.409 . S
C1929 H1921 0.930 . S
C1929 C1927 1.419 . S
C1929 C1930 1.362 . S
C1930 H1922 0.930 . S
C1930 C1929 1.362 . S
C1930 C1933 1.409 . S
C1931 H1923 0.930 . S
C1931 C1932 1.355 . S
C1931 C1933 1.415 . S
C1932 C1931 1.355 . S
C1932 C1934 1.419 . S
C1933 C1928 1.425 . S
C1933 C1930 1.409 . S
C1933 C1931 1.415 . S
C1934 H1924 0.930 . S
C1934 C1932 1.419 . S
C1934 C1935 1.362 . S
C1935 H1925 0.930 . S
C1935 C1928 1.409 . S
C1935 C1934 1.362 . S
H1936 C1942 0.930 . S
H1937 C1945 0.930 . S
H1938 C1946 0.930 . S
H1939 C1947 0.930 . S
H1940 C1950 0.930 . S
H1941 C1951 0.930 . S
C1942 H1936 0.930 . S
C1942 C1943 1.355 . S
C1942 C1944 1.415 . S
C1943 C1942 1.355 . S
C1943 C1945 1.419 . S
C1944 C1942 1.415 . S
C1944 C1949 1.425 . S
C1944 C1951 1.409 . S
C1945 H1937 0.930 . S
C1945 C1943 1.419 . S
C1945 C1946 1.362 . S
C1946 H1938 0.930 . S
C1946 C1945 1.362 . S
C1946 C1949 1.409 . S
C1947 H1939 0.930 . S
C1947 C1948 1.355 . S
C1947 C1949 1.415 . S
C1948 C1947 1.355 . S
C1948 C1950 1.419 . S
C1949 C1944 1.425 . S
C1949 C1946 1.409 . S
C1949 C1947 1.415 . S
C1950 H1940 0.930 . S
C1950 C1948 1.419 . S
C1950 C1951 1.362 . S
C1951 H1941 0.930 . S
C1951 C1944 1.409 . S
C1951 C1950 1.362 . S
H1952 C1958 0.930 . S
H1953 C1961 0.930 . S
H1954 C1962 0.930 . S
H1955 C1963 0.930 . S
H1956 C1966 0.930 . S
H1957 C1967 0.930 . S
C1958 H1952 0.930 . S
C1958 C1959 1.355 . S
C1958 C1960 1.415 . S
C1959 C1958 1.355 . S
C1959 C1961 1.419 . S
C1960 C1958 1.415 . S
C1960 C1965 1.425 . S
C1960 C1967 1.409 . S
C1961 H1953 0.930 . S
C1961 C1959 1.419 . S
C1961 C1962 1.362 . S
C1962 H1954 0.930 . S
C1962 C1961 1.362 . S
C1962 C1965 1.409 . S
C1963 H1955 0.930 . S
C1963 C1964 1.355 . S
C1963 C1965 1.415 . S
C1964 C1963 1.355 . S
C1964 C1966 1.419 . S
C1965 C1960 1.425 . S
C1965 C1962 1.409 . S
C1965 C1963 1.415 . S
C1966 H1956 0.930 . S
C1966 C1964 1.419 . S
C1966 C1967 1.362 . S
C1967 H1957 0.930 . S
C1967 C1960 1.409 . S
C1967 C1966 1.362 . S
H1968 C1974 0.930 . S
H1969 C1977 0.930 . S
H1970 C1978 0.930 . S
H1971 C1979 0.930 . S
H1972 C1982 0.930 . S
H1973 C1983 0.930 . S
C1974 H1968 0.930 . S
C1974 C1975 1.355 . S
C1974 C1976 1.415 . S
C1975 C1974 1.355 . S
C1975 C1977 1.419 . S
C1976 C1974 1.415 . S
C1976 C1981 1.425 . S
C1976 C1983 1.409 . S
C1977 H1969 0.930 . S
C1977 C1975 1.419 . S
C1977 C1978 1.362 . S
C1978 H1970 0.930 . S
C1978 C1977 1.362 . S
C1978 C1981 1.409 . S
C1979 H1971 0.930 . S
C1979 C1980 1.355 . S
C1979 C1981 1.415 . S
C1980 C1979 1.355 . S
C1980 C1982 1.419 . S
C1981 C1976 1.425 . S
C1981 C1978 1.409 . S
C1981 C1979 1.415 . S
C1982 H1972 0.930 . S
C1982 C1980 1.419 . S
C1982 C1983 1.362 . S
C1983 H1973 0.930 . S
C1983 C1976 1.409 . S
C1983 C1982 1.362 . S
H1984 C1990 0.930 . S
H1985 C1993 0.930 . S
H1986 C1994 0.930 . S
H1987 C1995 0.930 . S
H1988 C1998 0.930 . S
H1989 C1999 0.930 . S
C1990 H1984 0.930 . S
C1990 C1991 1.355 . S
C1990 C1992 1.415 . S
C1991 C1990 1.355 . S
C1991 C1993 1.419 . S
C1992 C1990 1.415 . S
C1992 C1997 1.425 . S
C1992 C1999 1.409 . S
C1993 H1985 0.930 . S
C1993 C1991 1.419 . S
C1993 C1994 1.362 . S
C1994 H1986 0.930 . S
C1994 C1993 1.362 . S
C1994 C1997 1.409 . S
C1995 H1987 0.930 . S
C1995 C1996 1.355 . S
C1995 C1997 1.415 . S
C1996 C1995 1.355 . S
C1996 C1998 1.419 . S
C1997 C1992 1.425 . S
C1997 C1994 1.409 . S
C1997 C1995 1.415 . S
C1998 H1988 0.930 . S
C1998 C1996 1.419 . S
C1998 C1999 1.362 . S
C1999 H1989 0.930 . S
C1999 C1992 1.409 . S
C1999 C1998 1.362 . S
H2000 C2006 0.930 . S
H2001 C2009 0.930 . S
H2002 C2010 0.930 . S
H2003 C2011 0.930 . S
H2004 C2014 0.930 1_545 S
H2005 C2015 0.930 . S
C2006 H2000 0.930 . S
C2006 C2007 1.355 . S
C2006 C2008 1.415 . S
C2007 C2006 1.355 . S
C2007 C2009 1.419 . S
C2008 C2006 1.415 . S
C2008 C2013 1.425 . S
C2008 C2015 1.409 . S
C2009 H2001 0.930 . S
C2009 C2007 1.419 . S
C2009 C2010 1.362 . S
C2010 H2002 0.930 . S
C2010 C2009 1.362 . S
C2010 C2013 1.409 . S
C2011 H2003 0.930 . S
C2011 C2012 1.355 . S
C2011 C2013 1.415 . S
C2012 C2011 1.355 . S
C2012 C2014 1.419 . S
C2013 C2008 1.425 . S
C2013 C2010 1.409 . S
C2013 C2011 1.415 . S
C2014 H2004 0.930 1_565 S
C2014 C2012 1.419 . S
C2014 C2015 1.362 . S
C2015 H2005 0.930 . S
C2015 C2008 1.409 . S
C2015 C2014 1.362 . S
H2016 C2022 0.930 . S
H2017 C2025 0.930 . S
H2018 C2026 0.930 . S
H2019 C2027 0.930 . S
H2020 C2030 0.930 . S
H2021 C2031 0.930 . S
C2022 H2016 0.930 . S
C2022 C2023 1.355 . S
C2022 C2024 1.415 . S
C2023 C2022 1.355 . S
C2023 C2025 1.419 . S
C2024 C2022 1.415 . S
C2024 C2029 1.425 . S
C2024 C2031 1.409 . S
C2025 H2017 0.930 . S
C2025 C2023 1.419 . S
C2025 C2026 1.362 . S
C2026 H2018 0.930 . S
C2026 C2025 1.362 . S
C2026 C2029 1.409 . S
C2027 H2019 0.930 . S
C2027 C2028 1.355 . S
C2027 C2029 1.415 . S
C2028 C2027 1.355 . S
C2028 C2030 1.419 . S
C2029 C2024 1.425 . S
C2029 C2026 1.409 . S
C2029 C2027 1.415 . S
C2030 H2020 0.930 . S
C2030 C2028 1.419 . S
C2030 C2031 1.362 . S
C2031 H2021 0.930 . S
C2031 C2024 1.409 . S
C2031 C2030 1.362 . S
H2032 C2038 0.930 . S
H2033 C2041 0.930 . S
H2034 C2042 0.930 . S
H2035 C2043 0.930 . S
H2036 C2046 0.930 . S
H2037 C2047 0.930 . S
C2038 H2032 0.930 . S
C2038 C2039 1.355 . S
C2038 C2040 1.415 . S
C2039 C2038 1.355 . S
C2039 C2041 1.419 . S
C2040 C2038 1.415 . S
C2040 C2045 1.425 . S
C2040 C2047 1.409 . S
C2041 H2033 0.930 . S
C2041 C2039 1.419 . S
C2041 C2042 1.362 . S
C2042 H2034 0.930 . S
C2042 C2041 1.362 . S
C2042 C2045 1.409 . S
C2043 H2035 0.930 . S
C2043 C2044 1.355 . S
C2043 C2045 1.415 . S
C2044 C2043 1.355 . S
C2044 C2046 1.419 . S
C2045 C2040 1.425 . S
C2045 C2042 1.409 . S
C2045 C2043 1.415 . S
C2046 H2036 0.930 . S
C2046 C2044 1.419 . S
C2046 C2047 1.362 . S
C2047 H2037 0.930 . S
C2047 C2040 1.409 . S
C2047 C2046 1.362 . S
H2048 C2054 0.930 . S
H2049 C2057 0.930 . S
H2050 C2058 0.930 . S
H2051 C2059 0.930 . S
H2052 C2062 0.930 . S
H2053 C2063 0.930 . S
C2054 H2048 0.930 . S
C2054 C2055 1.355 . S
C2054 C2056 1.415 . S
C2055 C2054 1.355 . S
C2055 C2057 1.419 . S
C2056 C2054 1.415 . S
C2056 C2061 1.425 . S
C2056 C2063 1.409 . S
C2057 H2049 0.930 . S
C2057 C2055 1.419 . S
C2057 C2058 1.362 . S
C2058 H2050 0.930 . S
C2058 C2057 1.362 . S
C2058 C2061 1.409 . S
C2059 H2051 0.930 . S
C2059 C2060 1.355 . S
C2059 C2061 1.415 . S
C2060 C2059 1.355 . S
C2060 C2062 1.419 . S
C2061 C2056 1.425 . S
C2061 C2058 1.409 . S
C2061 C2059 1.415 . S
C2062 H2052 0.930 . S
C2062 C2060 1.419 . S
C2062 C2063 1.362 . S
C2063 H2053 0.930 . S
C2063 C2056 1.409 . S
C2063 C2062 1.362 . S
H2064 C2070 0.930 . S
H2065 C2073 0.930 . S
H2066 C2074 0.930 . S
H2067 C2075 0.930 . S
H2068 C2078 0.930 . S
H2069 C2079 0.930 . S
C2070 H2064 0.930 . S
C2070 C2071 1.355 . S
C2070 C2072 1.415 . S
C2071 C2070 1.355 . S
C2071 C2073 1.419 . S
C2072 C2070 1.415 . S
C2072 C2077 1.425 . S
C2072 C2079 1.409 . S
C2073 H2065 0.930 . S
C2073 C2071 1.419 . S
C2073 C2074 1.362 . S
C2074 H2066 0.930 . S
C2074 C2073 1.362 . S
C2074 C2077 1.409 . S
C2075 H2067 0.930 . S
C2075 C2076 1.355 . S
C2075 C2077 1.415 . S
C2076 C2075 1.355 . S
C2076 C2078 1.419 . S
C2077 C2072 1.425 . S
C2077 C2074 1.409 . S
C2077 C2075 1.415 . S
C2078 H2068 0.930 . S
C2078 C2076 1.419 . S
C2078 C2079 1.362 . S
C2079 H2069 0.930 . S
C2079 C2072 1.409 . S
C2079 C2078 1.362 . S
H2080 C2086 0.930 . S
H2081 C2089 0.930 . S
H2082 C2090 0.930 . S
H2083 C2091 0.930 . S
H2084 C2094 0.930 . S
H2085 C2095 0.930 . S
C2086 H2080 0.930 . S
C2086 C2087 1.355 . S
C2086 C2088 1.415 . S
C2087 C2086 1.355 . S
C2087 C2089 1.419 . S
C2088 C2086 1.415 . S
C2088 C2093 1.425 . S
C2088 C2095 1.409 . S
C2089 H2081 0.930 . S
C2089 C2087 1.419 . S
C2089 C2090 1.362 . S
C2090 H2082 0.930 . S
C2090 C2089 1.362 . S
C2090 C2093 1.409 . S
C2091 H2083 0.930 . S
C2091 C2092 1.355 . S
C2091 C2093 1.415 . S
C2092 C2091 1.355 . S
C2092 C2094 1.419 . S
C2093 C2088 1.425 . S
C2093 C2090 1.409 . S
C2093 C2091 1.415 . S
C2094 H2084 0.930 . S
C2094 C2092 1.419 . S
C2094 C2095 1.362 . S
C2095 H2085 0.930 . S
C2095 C2088 1.409 . S
C2095 C2094 1.362 . S
H2096 C2102 0.930 . S
H2097 C2105 0.930 . S
H2098 C2106 0.930 . S
H2099 C2107 0.930 . S
H2100 C2110 0.930 . S
H2101 C2111 0.930 . S
C2102 H2096 0.930 . S
C2102 C2103 1.355 . S
C2102 C2104 1.415 . S
C2103 C2102 1.355 . S
C2103 C2105 1.419 . S
C2104 C2102 1.415 . S
C2104 C2109 1.425 . S
C2104 C2111 1.409 . S
C2105 H2097 0.930 . S
C2105 C2103 1.419 . S
C2105 C2106 1.362 . S
C2106 H2098 0.930 . S
C2106 C2105 1.362 . S
C2106 C2109 1.409 . S
C2107 H2099 0.930 . S
C2107 C2108 1.355 . S
C2107 C2109 1.415 . S
C2108 C2107 1.355 . S
C2108 C2110 1.419 . S
C2109 C2104 1.425 . S
C2109 C2106 1.409 . S
C2109 C2107 1.415 . S
C2110 H2100 0.930 . S
C2110 C2108 1.419 . S
C2110 C2111 1.362 . S
C2111 H2101 0.930 . S
C2111 C2104 1.409 . S
C2111 C2110 1.362 . S
C1351 C67 1.482 . S
C1356 C823 1.492 . S
C1367 C151 1.498 . S
C1372 C739 1.478 . S
C1383 C991 1.488 . S
C1388 C235 1.485 . S
C1399 C319 1.508 . S
C1404 C907 1.479 . S
C1415 C1148 1.478 . S
C1420 C392 1.498 . S
C1431 C1064 1.484 . S
C1436 C476 1.509 . S
C1447 C1316 1.495 . S
C1452 C560 1.504 . S
C1463 C644 1.496 . S
C1468 C1232 1.480 . S
C1479 C242 1.661 . S
C1484 C74 1.666 . S
C1495 C326 1.667 . S
C1500 C158 1.669 . S
C1511 C567 1.669 . S
C1516 C399 1.666 . S
C1527 C483 1.669 . S
C1532 C651 1.667 . S
C1543 C914 1.666 . S
C1548 C746 1.669 . S
C1559 C998 1.664 . S
C1564 C830 1.669 . S
C1575 C1071 1.669 . S
C1580 C1239 1.667 . S
C1591 C1155 1.669 . S
C1596 C1323 1.664 . S
C1607 C494 1.707 . S
C1612 C63 1.637 . S
C1623 C410 1.708 . S
C1628 C147 1.637 . S
C1639 C231 1.670 . S
C1644 C662 1.675 . S
C1655 C578 1.708 . S
C1660 C315 1.637 . S
C1671 C735 1.694 . S
C1676 C1166 1.651 . S
C1687 C1082 1.708 . S
C1692 C819 1.637 . S
C1703 C903 1.686 . S
C1708 C1334 1.658 . S
C1719 C1250 1.708 . S
C1724 C987 1.637 . S
C1735 C140 1.497 . S
C1740 C56 1.495 . S
C1751 C308 1.507 . S
C1756 C224 1.482 . S
C1767 C487 1.484 . S
C1772 C403 1.507 . S
C1783 C571 1.503 . S
C1788 C655 1.485 . S
C1799 C812 1.502 . S
C1804 C728 1.490 . S
C1815 C980 1.494 . S
C1820 C896 1.498 . S
C1831 C1075 1.481 . S
C1836 C1159 1.509 . S
C1847 C1243 1.495 . S
C1852 C1327 1.497 . S
C1863 C69 1.377 . S
C1868 C58 1.377 . S
C1879 C153 1.320 . S
C1884 C142 1.320 . S
C1895 C237 1.294 . S
C1900 C226 1.294 . S
C1911 C310 1.321 . S
C1916 C321 1.321 . S
C1927 C394 1.424 . S
C1932 C405 1.424 . S
C1943 C489 1.399 . S
C1948 C478 1.399 . S
C1959 C562 1.411 . S
C1964 C573 1.411 . S
C1975 C646 1.351 . S
C1980 C657 1.351 . S
C1991 C730 1.419 1_545 S
C1996 C741 1.419 . S
C2007 C825 1.297 . S
C2012 C814 1.297 1_565 S
C2023 C898 1.380 1_565 S
C2028 C909 1.380 . S
C2039 C982 1.339 1_545 S
C2044 C993 1.339 . S
C2055 C1066 1.422 . S
C2060 C1077 1.422 1_565 S
C2071 C1150 1.365 . S
C2076 C1161 1.365 1_545 S
C2087 C1245 1.401 1_545 S
C2092 C1234 1.401 . S
C2103 C1318 1.364 . S
C2108 C1329 1.364 1_565 S
