# Generated by pormake.
# Topology umf, (4)-cn, num edge types: 1
# Building blocks:
#     Node 0, Type 0, BuildingBlock: ESEHIV_clean_sbu_0, # of connection points: 4
#     Node 1, Type 0, BuildingBlock: ESEHIV_clean_sbu_0, # of connection points: 4
#     Node 2, Type 0, BuildingBlock: ESEHIV_clean_sbu_0, # of connection points: 4
#     Node 3, Type 0, BuildingBlock: ESEHIV_clean_sbu_0, # of connection points: 4
#     Node 4, Type 0, BuildingBlock: ESEHIV_clean_sbu_0, # of connection points: 4
#     Node 5, Type 0, BuildingBlock: ESEHIV_clean_sbu_0, # of connection points: 4
#     Node 6, Type 0, BuildingBlock: ESEHIV_clean_sbu_0, # of connection points: 4
#     Node 7, Type 0, BuildingBlock: ESEHIV_clean_sbu_0, # of connection points: 4
#     Edge 8, Type (0, 0), BuildingBlock: UVAHIK_clean_linker_0, # of connection points: 2
#     Edge 9, Type (0, 0), BuildingBlock: UVAHIK_clean_linker_0, # of connection points: 2
#     Edge 10, Type (0, 0), BuildingBlock: UVAHIK_clean_linker_0, # of connection points: 2
#     Edge 11, Type (0, 0), BuildingBlock: UVAHIK_clean_linker_0, # of connection points: 2
#     Edge 12, Type (0, 0), BuildingBlock: UVAHIK_clean_linker_0, # of connection points: 2
#     Edge 13, Type (0, 0), BuildingBlock: UVAHIK_clean_linker_0, # of connection points: 2
#     Edge 14, Type (0, 0), BuildingBlock: UVAHIK_clean_linker_0, # of connection points: 2
#     Edge 15, Type (0, 0), BuildingBlock: UVAHIK_clean_linker_0, # of connection points: 2
#     Edge 16, Type (0, 0), BuildingBlock: UVAHIK_clean_linker_0, # of connection points: 2
#     Edge 17, Type (0, 0), BuildingBlock: UVAHIK_clean_linker_0, # of connection points: 2
#     Edge 18, Type (0, 0), BuildingBlock: UVAHIK_clean_linker_0, # of connection points: 2
#     Edge 19, Type (0, 0), BuildingBlock: UVAHIK_clean_linker_0, # of connection points: 2
#     Edge 20, Type (0, 0), BuildingBlock: UVAHIK_clean_linker_0, # of connection points: 2
#     Edge 21, Type (0, 0), BuildingBlock: UVAHIK_clean_linker_0, # of connection points: 2
#     Edge 22, Type (0, 0), BuildingBlock: UVAHIK_clean_linker_0, # of connection points: 2
#     Edge 23, Type (0, 0), BuildingBlock: UVAHIK_clean_linker_0, # of connection points: 2
# Relax obj value: 0.063
# Max RMSD: 0.101
# Mean RMSD: 0.101
data_MOF--net-umf--node1-ESEHIV_clean_sbu_0--edge1-UVAHIK_clean_linker_0
_symmetry_space_group_name_H-M    P1
_symmetry_Int_Tables_number       1
_symmetry_cell_setting            triclinic
loop_
_symmetry_equiv_pos_as_xyz
'x, y, z'
_cell_length_a     42.043208
_cell_length_b     42.091951
_cell_length_c     67.139428
_cell_angle_alpha  89.999454
_cell_angle_beta   89.576191
_cell_angle_gamma 90.029471
loop_
_atom_site_label
_atom_site_type_symbol
_atom_site_fract_x
_atom_site_fract_y
_atom_site_fract_z
_atom_type_partial_charge
Cu0 Cu 0.1146 0.27845 0.15791 0.0
N1 N 0.14397 0.24593 0.15344 0.0
N2 N 0.1562 0.19418 0.15166 0.0
C3 C 0.13445 0.21686 0.14765 0.0
C4 C 0.1808 0.20986 0.15998 0.0
C5 C 0.17303 0.24171 0.16127 0.0
O6 O 0.09804 0.26733 0.18438 0.0
C7 C 0.09784 0.27926 0.11863 0.0
O8 O 0.12881 0.28338 0.11782 0.0
H9 H 0.11073 0.21225 0.14223 0.0
H10 H 0.18613 0.25963 0.16932 0.0
N11 N 0.13241 0.31946 0.1579 0.0
N12 N 0.1354 0.37259 0.15913 0.0
C13 C 0.11599 0.34697 0.15904 0.0
C14 C 0.16324 0.32803 0.15698 0.0
C15 C 0.16516 0.36073 0.15788 0.0
C16 C 0.11465 0.2754 0.19941 0.0
O17 O 0.13831 0.29536 0.19674 0.0
H18 H 0.09032 0.34811 0.16017 0.0
H19 H 0.18299 0.31173 0.15575 0.0
O20 O 0.08464 0.27656 0.13574 0.0
H21 H 0.2015 0.19879 0.16648 0.0
H22 H 0.18677 0.37472 0.15745 0.0
Cu23 Cu 0.78645 0.04335 0.66106 0.0
N24 N 0.81448 1.0094 0.65701 0.0
N25 N 0.85831 0.97975 0.65358 0.0
C26 C 0.84564 1.00659 0.66137 0.0
C27 C 0.83414 0.96503 0.64423 0.0
C28 C 0.80723 0.98331 0.6464 0.0
O29 O 0.80339 0.07386 0.68048 0.0
C30 C 0.79957 0.06441 0.62185 0.0
O31 O 0.82909 0.05903 0.62712 0.0
H32 H 0.85909 0.02442 0.66927 0.0
H33 H 0.78411 0.97854 0.64009 0.0
N34 N 0.74899 0.02621 0.67188 0.0
N35 N 0.69922 1.00839 0.67638 0.0
C36 C 0.7193 0.02482 0.66431 0.0
C37 C 0.74751 1.01039 0.68925 0.0
C38 C 0.71699 0.99939 0.69207 0.0
C39 C 0.83002 0.08832 0.67942 0.0
O40 O 0.8481 0.08457 0.66358 0.0
H41 H 0.71281 0.03483 0.65006 0.0
H42 H 0.76749 1.00674 0.69905 0.0
O43 O 0.77743 0.06109 0.63477 0.0
H44 H 0.83592 0.94289 0.63609 0.0
H45 H 0.70851 0.98586 0.70475 0.0
Cu46 Cu 0.02049 0.79155 0.17221 0.0
N47 N 0.05532 0.81863 0.17514 0.0
N48 N 0.08457 0.86302 0.17394 0.0
C49 C 0.05601 0.84961 0.1702 0.0
C50 C 0.10252 0.83935 0.18151 0.0
C51 C 0.08439 0.812 0.18223 0.0
O52 O 0.9851 0.80978 0.18769 0.0
C53 C 0.99854 0.76976 0.13349 0.0
O54 O 0.9872 0.74433 0.14239 0.0
H55 H 0.03595 0.86186 0.16375 0.0
H56 H 0.09183 0.78896 0.1876 0.0
N57 N 0.03099 0.75087 0.18184 0.0
N58 N 0.04751 0.70041 0.18445 0.0
C59 C 0.0406 0.72456 0.17188 0.0
C60 C 0.03192 0.74284 0.20124 0.0
C61 C 0.04215 0.71193 0.20289 0.0
C62 C 0.99057 0.82112 0.20497 0.0
O63 O 0.01966 0.81979 0.21192 0.0
H64 H 0.04327 0.72333 0.15586 0.0
H65 H 0.02582 0.75848 0.21343 0.0
O66 O 1.01177 0.79142 0.14375 0.0
H67 H 0.12686 0.84164 0.18644 0.0
H68 H 0.04515 0.69879 0.21661 0.0
Cu69 Cu 0.27203 0.95045 0.66365 0.0
N70 N 0.24115 0.92346 0.65326 0.0
N71 N 0.19102 0.90794 0.64797 0.0
C72 C 0.21067 0.92562 0.65922 0.0
C73 C 0.21008 0.89401 0.63421 0.0
C74 C 0.24111 0.90368 0.63752 0.0
O75 O 0.25823 0.9555 0.6915 0.0
C76 C 0.285 0.98515 0.62955 0.0
O77 O 0.30173 0.95939 0.62607 0.0
H78 H 0.20285 0.94177 0.6708 0.0
H79 H 0.26178 0.89801 0.62852 0.0
N80 N 0.31332 0.9332 0.66291 0.0
N81 N 0.36656 0.93043 0.66316 0.0
C82 C 0.34079 0.94949 0.66485 0.0
C83 C 0.32198 0.90282 0.65982 0.0
C84 C 0.35475 0.90101 0.66006 0.0
C85 C 0.258 0.92924 0.70107 0.0
O86 O 0.2699 0.90406 0.69218 0.0
H87 H 0.34177 0.97484 0.66747 0.0
H88 H 0.30561 0.88339 0.65742 0.0
O89 O 0.27043 0.9878 0.64624 0.0
H90 H 0.20211 0.87881 0.62224 0.0
H91 H 0.36878 0.87977 0.65773 0.0
Cu92 Cu 1.00671 0.79279 0.87967 0.0
N93 N 0.97129 0.8198 0.87949 0.0
N94 N 0.9404 0.86311 0.87984 0.0
C95 C 0.96963 0.85126 0.87577 0.0
C96 C 0.92294 0.83804 0.88605 0.0
C97 C 0.94201 0.81146 0.88579 0.0
O98 O 0.04127 0.80981 0.86288 0.0
C99 C 0.01721 0.8085 0.92008 0.0
O100 O 1.01095 0.83737 0.91383 0.0
H101 H 0.98972 0.86551 0.87114 0.0
H102 H 0.93538 0.78781 0.89058 0.0
N103 N 0.99377 0.75396 0.86874 0.0
N104 N 0.97781 0.70355 0.86489 0.0
C105 C 0.98977 0.7254 0.87762 0.0
C106 C 0.98422 0.74996 0.84985 0.0
C107 C 0.97437 0.71902 0.84742 0.0
C108 C 0.05479 0.83675 0.86495 0.0
O109 O 0.04708 0.85481 0.88017 0.0
H110 H 0.99462 0.721 0.89319 0.0
H111 H 0.98397 0.76851 0.8387 0.0
O112 O 0.01831 0.78589 0.90748 0.0
H113 H 0.89832 0.83893 0.89084 0.0
H114 H 0.9654 0.7087 0.83381 0.0
Cu115 Cu 0.24046 0.04625 0.38971 0.0
N116 N 0.21406 1.01058 0.3916 0.0
N117 N 0.17059 0.98008 0.39371 0.0
C118 C 0.18269 1.00834 0.38777 0.0
C119 C 0.19535 0.96391 0.40137 0.0
C120 C 0.22209 0.98275 0.40002 0.0
O121 O 0.2225 0.07707 0.37092 0.0
C122 C 0.22462 0.06275 0.42956 0.0
O123 O 0.19565 0.05578 0.4238 0.0
H124 H 0.16866 0.0276 0.3818 0.0
H125 H 0.24553 0.97712 0.40553 0.0
N126 N 0.2796 0.03374 0.37871 0.0
N127 N 0.33088 0.02119 0.37395 0.0
C128 C 0.3076 0.02695 0.38754 0.0
C129 C 0.28539 0.0319 0.35902 0.0
C130 C 0.31686 0.02424 0.35604 0.0
C131 C 0.19666 0.09274 0.3725 0.0
O132 O 0.17957 0.09039 0.38888 0.0
H133 H 0.31105 0.02718 0.4035 0.0
H134 H 0.26793 0.03638 0.34761 0.0
O135 O 0.24721 0.06206 0.41678 0.0
H136 H 0.19409 0.94041 0.40788 0.0
H137 H 0.32855 0.02116 0.34175 0.0
Cu138 Cu 0.91848 0.27965 0.89 0.0
N139 N 0.88941 0.24671 0.89409 0.0
N140 N 0.87335 0.19603 0.89321 0.0
C141 C 0.89586 0.21714 0.88769 0.0
C142 C 0.85171 0.21309 0.90365 0.0
C143 C 0.86165 0.24448 0.90412 0.0
O144 O 0.93572 0.26882 0.86359 0.0
C145 C 0.93478 0.28358 0.92935 0.0
O146 O 0.90432 0.29051 0.92973 0.0
H147 H 0.91759 0.21107 0.87985 0.0
H148 H 0.84994 0.26395 0.91168 0.0
N149 N 0.89992 0.32027 0.88977 0.0
N150 N 0.89607 0.37333 0.88845 0.0
C151 C 0.91586 0.3481 0.88969 0.0
C152 C 0.86896 0.32811 0.88871 0.0
C153 C 0.86652 0.36078 0.88783 0.0
C154 C 0.9204 0.27818 0.84832 0.0
O155 O 0.89843 0.30003 0.85065 0.0
H156 H 0.94155 0.34971 0.88992 0.0
H157 H 0.84957 0.31126 0.88816 0.0
O158 O 0.9479 0.27802 0.91249 0.0
H159 H 0.83048 0.20358 0.91064 0.0
H160 H 0.84466 0.37422 0.88676 0.0
Cu161 Cu 0.75456 0.95196 0.38794 0.0
N162 N 0.78637 0.92506 0.39729 0.0
N163 N 0.83701 0.91018 0.40149 0.0
C164 C 0.81657 0.92798 0.39086 0.0
C165 C 0.81873 0.89535 0.4153 0.0
C166 C 0.78743 0.90466 0.4127 0.0
O167 O 0.7675 0.95901 0.3602 0.0
C168 C 0.74142 0.98522 0.42257 0.0
O169 O 0.72553 0.95886 0.4259 0.0
H170 H 0.8236 0.94473 0.37943 0.0
H171 H 0.76729 0.89833 0.422 0.0
N172 N 0.71349 0.93415 0.38886 0.0
N173 N 0.66023 0.93165 0.3895 0.0
C174 C 0.68605 0.95 0.38588 0.0
C175 C 0.70478 0.90465 0.39439 0.0
C176 C 0.67198 0.90305 0.39483 0.0
C177 C 0.76541 0.93435 0.34921 0.0
O178 O 0.75114 0.90913 0.35658 0.0
H179 H 0.6851 0.97492 0.38195 0.0
H180 H 0.72111 0.88584 0.39825 0.0
O181 O 0.75578 0.98866 0.40588 0.0
H182 H 0.82738 0.87977 0.42687 0.0
H183 H 0.6579 0.88247 0.39885 0.0
C184 C 0.09843 0.41693 0.1518 0.0
C185 C 0.12642 0.40563 0.1607 0.0
C186 C 0.08996 0.44909 0.15325 0.0
C187 C 0.09953 0.51889 0.18503 0.0
H188 H 0.07805 0.56865 0.13844 0.0
C189 C 0.08111 0.65388 0.19168 0.0
C190 C 0.0583 0.66875 0.1797 0.0
C191 C 0.08989 0.62229 0.18831 0.0
C192 C 0.08346 0.5551 0.15169 0.0
H193 H 0.16718 0.41916 0.17831 0.0
H194 H 0.15206 0.47509 0.18124 0.0
H195 H 0.09127 0.51239 0.1348 0.0
H196 H 0.02708 0.66235 0.15458 0.0
H197 H 0.04135 0.60665 0.14904 0.0
H198 H 0.09074 0.56072 0.20214 0.0
C199 C 0.13685 0.45914 0.17296 0.0
C200 C 0.09118 0.52283 0.14954 0.0
C201 C 0.14562 0.42718 0.17118 0.0
C202 C 0.04492 0.6515 0.16393 0.0
C203 C 0.05323 0.61956 0.16077 0.0
C204 C 0.09129 0.5509 0.18724 0.0
C205 C 0.10897 0.4705 0.16399 0.0
C206 C 0.09964 0.50447 0.16618 0.0
C207 C 0.07557 0.60429 0.17311 0.0
C208 C 0.0835 0.56972 0.17059 0.0
H209 H 0.08331 0.40094 0.1435 0.0
H210 H 0.06826 0.45713 0.14626 0.0
H211 H 0.10545 0.50523 0.19817 0.0
H212 H 0.09214 0.66679 0.20375 0.0
H213 H 0.10792 0.61203 0.19776 0.0
C214 C 0.40981 0.96988 0.65808 0.0
C215 C 0.39971 0.93947 0.66415 0.0
C216 C 0.44205 0.97838 0.65882 0.0
C217 C 0.51712 0.95787 0.68389 0.0
H218 H 0.55807 1.00077 0.63949 0.0
C219 C 0.65306 0.97271 0.68104 0.0
C220 C 0.66601 1.001 0.67336 0.0
C221 C 0.62064 0.96603 0.67923 0.0
C222 C 0.54697 0.9892 0.65216 0.0
H223 H 0.41567 0.89438 0.67599 0.0
H224 H 0.47173 0.90918 0.67735 0.0
H225 H 0.50138 0.98812 0.63796 0.0
H226 H 0.65499 0.04426 0.65742 0.0
H227 H 0.59805 0.03299 0.65455 0.0
H228 H 0.56224 0.95926 0.69829 0.0
C229 C 0.45475 0.92647 0.67201 0.0
C230 C 0.51444 0.98189 0.65125 0.0
C231 C 0.42262 0.91788 0.67106 0.0
C232 C 0.64577 0.02219 0.66339 0.0
C233 C 0.61311 0.01564 0.66174 0.0
C234 C 0.54948 0.9654 0.68488 0.0
C235 C 0.46491 0.95681 0.66588 0.0
C236 C 0.4992 0.9658 0.66703 0.0
C237 C 0.60001 0.9876 0.66987 0.0
C238 C 0.56505 0.98082 0.66894 0.0
H239 H 0.39286 0.98697 0.6525 0.0
H240 H 0.44904 1.00199 0.6541 0.0
H241 H 0.50602 0.94602 0.69647 0.0
H242 H 0.66808 0.95554 0.68841 0.0
H243 H 0.6118 0.94378 0.68518 0.0
C244 C 0.88558 0.42799 0.87646 0.0
C245 C 0.90471 0.40654 0.88706 0.0
C246 C 0.89421 0.46 0.87471 0.0
C247 C 0.94206 0.52337 0.89785 0.0
H248 H 0.93557 0.56332 0.84603 0.0
C249 C 0.98658 0.65247 0.88258 0.0
C250 C 0.9694 0.67083 0.86886 0.0
C251 C 0.97934 0.62019 0.88543 0.0
C252 C 0.9371 0.5528 0.86071 0.0
H253 H 0.94765 0.40225 0.9045 0.0
H254 H 0.96267 0.45828 0.90154 0.0
H255 H 0.92153 0.50758 0.84986 0.0
H256 H 0.9301 0.67002 0.84819 0.0
H257 H 0.91697 0.61444 0.85345 0.0
H258 H 0.95706 0.56877 0.90879 0.0
C259 C 0.94099 0.45022 0.89454 0.0
C260 C 0.92913 0.52071 0.86287 0.0
C261 C 0.93254 0.41806 0.89608 0.0
C262 C 0.94426 0.65642 0.85854 0.0
C263 C 0.93682 0.62439 0.86153 0.0
C264 C 0.94976 0.55566 0.89573 0.0
C265 C 0.92204 0.47154 0.88369 0.0
C266 C 0.93132 0.5056 0.88147 0.0
C267 C 0.95452 0.60559 0.87477 0.0
C268 C 0.94718 0.57093 0.87714 0.0
H269 H 0.86417 0.41992 0.86917 0.0
H270 H 0.87891 0.47581 0.86641 0.0
H271 H 0.94378 0.51251 0.91242 0.0
H272 H 1.00622 0.66282 0.89065 0.0
H273 H 0.99374 0.60655 0.89563 0.0
C274 C 0.37372 0.99553 0.39352 0.0
C275 C 0.36407 0.01422 0.37731 0.0
C276 C 0.40579 0.9869 0.3957 0.0
C277 C 0.48133 0.98102 0.36607 0.0
H278 H 0.52049 0.9716 0.41781 0.0
C279 C 0.61711 0.96464 0.37535 0.0
C280 C 0.62716 0.94103 0.38871 0.0
C281 C 0.58504 0.97356 0.37446 0.0
C282 C 0.50981 0.97391 0.40325 0.0
H283 H 0.38078 0.04001 0.35136 0.0
H284 H 0.43639 0.02596 0.35538 0.0
H285 H 0.46478 0.98769 0.41567 0.0
H286 H 0.61133 0.90882 0.41194 0.0
H287 H 0.5554 0.92446 0.41044 0.0
H288 H 0.52651 0.96778 0.35367 0.0
C289 C 0.41929 0.01678 0.36605 0.0
C290 C 0.47779 0.98306 0.40201 0.0
C291 C 0.38732 0.02503 0.36377 0.0
C292 C 0.60437 0.92682 0.40132 0.0
C293 C 0.57235 0.93601 0.40061 0.0
C294 C 0.51334 0.97222 0.36732 0.0
C295 C 0.42901 0.99707 0.38181 0.0
C296 C 0.46307 0.98688 0.38337 0.0
C297 C 0.56225 0.95937 0.38708 0.0
C298 C 0.52804 0.96862 0.3859 0.0
H299 H 0.35631 0.9867 0.40412 0.0
H300 H 0.41218 0.9715 0.40794 0.0
H301 H 0.47082 0.98285 0.35144 0.0
H302 H 0.63397 0.97592 0.36535 0.0
H303 H 0.57812 0.99181 0.36398 0.0
C304 C 0.93535 0.28489 0.96656 0.0
C305 C 0.95231 0.28184 0.94851 0.0
C306 C 0.95088 0.28354 0.98485 0.0
C307 C 0.02569 0.25745 1.00897 0.0
H308 H 0.99652 0.31283 0.05153 0.0
C309 C 0.09642 0.27569 0.08149 0.0
C310 C 0.07972 0.27754 0.0997 0.0
C311 C 0.08031 0.27482 0.06338 0.0
C312 C 1.00469 0.2969 0.03991 0.0
H313 H 0.99919 0.27481 0.93566 0.0
H314 H 0.02664 0.27299 0.96775 0.0
H315 H 0.9709 0.31498 1.01913 0.0
H316 H 0.03271 0.27971 0.11305 0.0
H317 H 1.00433 0.27838 0.08121 0.0
H318 H 0.05984 0.23978 0.02976 0.0
C319 C 1.00107 0.27601 0.96769 0.0
C320 C 0.99001 0.29812 1.02126 0.0
C321 C 0.9854 0.27722 0.94926 0.0
C322 C 0.04629 0.27829 0.09932 0.0
C323 C 0.03008 0.27769 0.08107 0.0
C324 C 0.04048 0.25636 0.0276 0.0
C325 C 0.98398 0.27931 0.98575 0.0
C326 C 1.00025 0.27838 1.00551 0.0
C327 C 0.04696 0.27597 0.06287 0.0
C328 C 0.03021 0.27611 0.04331 0.0
H329 H 0.9098 0.28818 0.96666 0.0
H330 H 0.93673 0.28547 0.99833 0.0
H331 H 0.03392 0.2415 0.99738 0.0
H332 H 0.12217 0.27502 0.08113 0.0
H333 H 0.09413 0.27394 0.04971 0.0
C334 C 0.76149 0.06393 0.59309 0.0
C335 C 0.79224 0.06929 0.60045 0.0
C336 C 0.75592 0.06371 0.57252 0.0
C337 C 0.79945 0.05028 0.52502 0.0
H338 H 0.71878 0.07334 0.50152 0.0
C339 C 0.7739 0.02443 0.44216 0.0
C340 C 0.74535 1.00772 0.43934 0.0
C341 C 0.77973 0.03992 0.46031 0.0
C342 C 0.74149 0.06686 0.50785 0.0
H343 H 0.84078 0.08074 0.592 0.0
H344 H 0.83095 0.08125 0.55632 0.0
H345 H 0.72872 0.08563 0.53648 0.0
H346 H 0.69968 0.9961 0.45262 0.0
H347 H 0.70956 0.02326 0.48391 0.0
H348 H 0.81194 0.03089 0.49655 0.0
C349 C 0.81126 0.07625 0.56632 0.0
C350 C 0.74715 0.07377 0.52793 0.0
C351 C 0.81686 0.0762 0.58684 0.0
C352 C 0.72195 1.00875 0.45437 0.0
C353 C 0.72757 0.02447 0.47231 0.0
C354 C 0.79386 0.04353 0.50494 0.0
C355 C 0.78093 0.06909 0.55882 0.0
C356 C 0.77596 0.06495 0.53693 0.0
C357 C 0.75692 0.03934 0.47581 0.0
C358 C 0.76454 0.05107 0.4962 0.0
H359 H 0.74201 0.05837 0.60315 0.0
H360 H 0.7323 0.05782 0.56738 0.0
H361 H 0.82174 0.04262 0.5314 0.0
H362 H 0.79246 0.02385 0.43089 0.0
H363 H 0.80249 0.05143 0.46246 0.0
C364 C 0.99113 0.74619 0.09934 0.0
C365 C 0.99813 0.77255 0.11143 0.0
C366 C 0.99282 0.7486 0.07853 0.0
C367 C 0.99104 0.807 0.03752 0.0
H368 H 0.03556 0.74251 1.00694 0.0
C369 C 0.02227 0.82773 0.95516 0.0
C370 C 0.01903 0.80225 0.9418 0.0
C371 C 0.02049 0.82276 0.97571 0.0
C372 C 0.02269 0.76054 1.01519 0.0
H373 H 1.01183 0.82226 0.11105 0.0
H374 H 0.0144 0.82649 0.0749 0.0
H375 H 0.02919 0.73618 0.04294 0.0
H376 H 1.01226 0.75131 0.93964 0.0
H377 H 1.00857 0.74264 0.97559 0.0
H378 H 0.98411 0.83127 1.00995 0.0
C379 C 1.0076 0.80396 0.08147 0.0
C380 C 0.01906 0.7569 0.03584 0.0
C381 C 1.00624 0.80148 0.10222 0.0
C382 C 0.01502 0.77144 0.94953 0.0
C383 C 1.01294 0.76648 0.97017 0.0
C384 C 0.99445 0.81054 1.01691 0.0
C385 C 1.00114 0.77752 0.06936 0.0
C386 C 1.00351 0.78029 0.04727 0.0
C387 C 0.01505 0.79219 0.98353 0.0
C388 C 1.01069 0.78759 1.00546 0.0
H389 H 0.98492 0.72353 0.10595 0.0
H390 H 0.98746 0.72788 0.0696 0.0
H391 H 0.97845 0.82518 0.04583 0.0
H392 H 0.0257 0.85173 0.94973 0.0
H393 H 0.02311 0.84304 0.98548 0.0
C394 C 0.20582 0.071 0.46471 0.0
C395 C 0.23113 0.06683 0.45115 0.0
C396 C 0.21112 0.07072 0.48526 0.0
C397 C 0.27489 0.07277 0.52397 0.0
H398 H 0.21307 0.02503 0.55496 0.0
C399 C 0.30355 1.01003 0.59793 0.0
C400 C 0.28 1.0075 0.61281 0.0
C401 C 0.29716 0.02514 0.57987 0.0
C402 C 0.23029 0.039 0.54667 0.0
H403 H 0.28213 0.06028 0.44864 0.0
H404 H 0.29136 0.0591 0.48445 0.0
H405 H 0.20291 0.03604 0.52005 0.0
H406 H 0.23171 0.02026 0.62084 0.0
H407 H 0.22035 0.04673 0.58909 0.0
H408 H 0.30284 0.07442 0.55055 0.0
C409 C 0.26739 0.06315 0.47925 0.0
C410 C 0.22448 0.04535 0.52655 0.0
C411 C 0.2621 0.06371 0.45865 0.0
C412 C 0.25041 0.0221 0.60972 0.0
C413 C 0.24383 0.03693 0.59145 0.0
C414 C 0.28078 0.06624 0.54408 0.0
C415 C 0.24186 0.06595 0.49288 0.0
C416 C 0.24694 0.06185 0.51479 0.0
C417 C 0.26688 0.03781 0.5761 0.0
C418 C 0.25881 0.04876 0.5556 0.0
H419 H 0.18168 0.07376 0.45946 0.0
H420 H 0.19094 0.07371 0.4952 0.0
H421 H 0.29248 0.08607 0.51556 0.0
H422 H 0.32658 0.99896 0.59988 0.0
H423 H 0.31541 0.0251 0.5684 0.0
C424 C 0.10166 0.22651 0.21961 0.0
C425 C 0.11253 0.25808 0.21868 0.0
C426 C 0.10603 0.20831 0.23693 0.0
C427 C 0.14166 0.17068 0.26896 0.0
H428 H 0.1344 0.2063 0.32206 0.0
C429 C 0.20195 0.11265 0.33723 0.0
C430 C 0.18507 0.11207 0.35541 0.0
C431 C 0.19048 0.12984 0.32091 0.0
C432 C 0.13633 0.19582 0.30737 0.0
H433 H 0.13489 0.29574 0.23556 0.0
H434 H 0.14202 0.2644 0.26565 0.0
H435 H 0.11647 0.23705 0.29345 0.0
H436 H 0.14278 0.12943 0.37056 0.0
H437 H 0.12283 0.15939 0.34213 0.0
H438 H 0.16167 0.12951 0.28286 0.0
C439 C 0.13018 0.25353 0.25311 0.0
C440 C 0.12625 0.21359 0.29092 0.0
C441 C 0.12614 0.27153 0.2358 0.0
C442 C 0.15652 0.12939 0.35685 0.0
C443 C 0.1451 0.1467 0.34054 0.0
C444 C 0.1519 0.15298 0.2854 0.0
C445 C 0.121 0.22141 0.25376 0.0
C446 C 0.12907 0.20141 0.27145 0.0
C447 C 0.16184 0.14705 0.3223 0.0
C448 C 0.14969 0.16542 0.30483 0.0
H449 H 0.09141 0.21531 0.20663 0.0
H450 H 0.09835 0.18375 0.23698 0.0
H451 H 0.14454 0.16062 0.25421 0.0
H452 H 0.22403 0.09964 0.33553 0.0
H453 H 0.20429 0.12992 0.30723 0.0
C454 C 0.93025 0.22798 0.82859 0.0
C455 C 0.92101 0.2601 0.82928 0.0
C456 C 0.92378 0.20934 0.81171 0.0
C457 C 0.8663 0.20634 0.77044 0.0
H458 H 0.9216 0.14179 0.74797 0.0
C459 C 0.82144 0.11443 0.71284 0.0
C460 C 0.84137 0.10802 0.6964 0.0
C461 C 0.83242 0.13252 0.72893 0.0
C462 C 0.90592 0.15983 0.75403 0.0
H463 H 0.89988 0.29827 0.81221 0.0
H464 H 0.8892 0.26614 0.78289 0.0
H465 H 0.94032 0.17464 0.77566 0.0
H466 H 0.88871 0.11555 0.68421 0.0
H467 H 0.90777 0.14701 0.71224 0.0
H468 H 0.83195 0.19176 0.74889 0.0
C469 C 0.90072 0.25506 0.79548 0.0
C470 C 0.91658 0.17848 0.77 0.0
C471 C 0.90713 0.27358 0.81226 0.0
C472 C 0.87262 0.12005 0.69656 0.0
C473 C 0.88368 0.13791 0.71272 0.0
C474 C 0.85558 0.18757 0.75464 0.0
C475 C 0.90792 0.22246 0.79521 0.0
C476 C 0.89696 0.20215 0.77832 0.0
C477 C 0.86371 0.14447 0.72911 0.0
C478 C 0.87524 0.16412 0.74616 0.0
H479 H 0.94067 0.21675 0.84151 0.0
H480 H 0.92964 0.1843 0.81202 0.0
H481 H 0.85033 0.224 0.77664 0.0
H482 H 0.79729 0.10547 0.7133 0.0
H483 H 0.81647 0.13681 0.74138 0.0
C484 C 0.80756 0.95241 0.32458 0.0
C485 C 0.78337 0.93104 0.33013 0.0
C486 C 0.82774 0.94564 0.30832 0.0
C487 C 0.83853 0.8894 0.26499 0.0
H488 H 0.92784 0.90757 0.27286 0.0
C489 C 0.93591 0.84548 0.20918 0.0
C490 C 0.96511 0.83602 0.21734 0.0
C491 C 0.91285 0.8607 0.22107 0.0
C492 C 0.90303 0.90198 0.27045 0.0
H493 H 0.76044 0.88665 0.32223 0.0
H494 H 0.79552 0.87463 0.29458 0.0
H495 H 0.88883 0.92794 0.2964 0.0
H496 H 0.99254 0.83445 0.24456 0.0
H497 H 0.95237 0.85957 0.26524 0.0
H498 H 0.85294 0.86177 0.23974 0.0
C499 C 0.79896 0.89687 0.30237 0.0
C500 C 0.88046 0.91426 0.28383 0.0
C501 C 0.77884 0.90369 0.31845 0.0
C502 C 0.97047 0.84168 0.23768 0.0
C503 C 0.94741 0.85646 0.24957 0.0
C504 C 0.86115 0.87679 0.25173 0.0
C505 C 0.82422 0.91731 0.29728 0.0
C506 C 0.84788 0.90762 0.28157 0.0
C507 C 0.91832 0.86653 0.24147 0.0
C508 C 0.89384 0.88231 0.25449 0.0
H509 H 0.81178 0.97366 0.33327 0.0
H510 H 0.84653 0.96231 0.3047 0.0
H511 H 0.81367 0.88426 0.26241 0.0
H512 H 0.93109 0.84165 0.19354 0.0
H513 H 0.89095 0.8683 0.21417 0.0
C514 C 0.22297 0.94905 0.7295 0.0
C515 C 0.24107 0.92485 0.72047 0.0
C516 C 0.20478 0.94275 0.74677 0.0
C517 C 0.19313 0.88076 0.78679 0.0
H518 H 0.10963 0.91878 0.79242 0.0
C519 C 0.09309 0.82757 0.8365 0.0
C520 C 0.07767 0.84862 0.84965 0.0
C521 C 0.11428 0.839 0.82194 0.0
C522 C 0.133 0.90814 0.7911 0.0
H523 H 0.25452 0.87518 0.72288 0.0
H524 H 0.22266 0.86417 0.75198 0.0
H525 H 0.14477 0.93571 0.76523 0.0
H526 H 0.07211 0.89829 0.85755 0.0
H527 H 0.10845 0.91821 0.83177 0.0
H528 H 0.18062 0.85218 0.81212 0.0
C529 C 0.22283 0.88826 0.74633 0.0
C530 C 0.15331 0.91799 0.77558 0.0
C531 C 0.24106 0.89458 0.72936 0.0
C532 C 0.08374 0.88139 0.84776 0.0
C533 C 0.1044 0.89285 0.83292 0.0
C534 C 0.17264 0.87054 0.80201 0.0
C535 C 0.20419 0.91207 0.75532 0.0
C536 C 0.18355 0.90408 0.77298 0.0
C537 C 0.12001 0.87178 0.81991 0.0
C538 C 0.14221 0.88383 0.80422 0.0
H539 H 0.22233 0.9726 0.72302 0.0
H540 H 0.19107 0.96189 0.75333 0.0
H541 H 0.21648 0.87004 0.78579 0.0
H542 H 0.08895 0.80222 0.83754 0.0
H543 H 0.12583 0.8222 0.81204 0.0
C544 C 0.17701 0.13895 0.1509 0.0
C545 C 0.15116 0.16017 0.15134 0.0
C546 C 0.17195 0.10602 0.15167 0.0
C547 C 0.10937 0.0447 0.14442 0.0
H548 H 0.16132 0.99331 0.17935 0.0
C549 C 0.07061 0.91978 0.16965 0.0
C550 C 0.09376 0.89571 0.17058 0.0
C551 C 0.07934 0.95135 0.16617 0.0
C552 C 0.14685 1.00723 0.16933 0.0
H553 H 0.09961 0.16291 0.1533 0.0
H554 H 0.09096 0.10617 0.15452 0.0
H555 H 0.17383 0.04954 0.17477 0.0
H556 H 0.1444 0.8863 0.16845 0.0
H557 H 0.15961 0.94146 0.16248 0.0
H558 H 0.08209 1.00263 0.1392 0.0
C559 C 0.11515 0.11481 0.15315 0.0
C560 C 0.15406 0.03947 0.16667 0.0
C561 C 0.12017 0.14756 0.1524 0.0
C562 C 0.12594 0.90418 0.16808 0.0
C563 C 0.13469 0.93583 0.16463 0.0
C564 C 0.10215 1.01256 0.14709 0.0
C565 C 0.14092 0.09357 0.15288 0.0
C566 C 0.13508 0.05872 0.15443 0.0
C567 C 0.11146 0.95979 0.16354 0.0
C568 C 0.12049 0.99352 0.15981 0.0
H569 H 0.20115 0.14779 0.14994 0.0
H570 H 0.19234 0.09032 0.15124 0.0
H571 H 0.09463 0.05864 0.13456 0.0
H572 H 0.04569 0.91438 0.17189 0.0
H573 H 0.06087 0.96927 0.16583 0.0
C574 C 0.14142 0.91596 0.66726 0.0
C575 C 0.15669 0.90827 0.64917 0.0
C576 C 0.10861 0.92083 0.66807 0.0
C577 C 0.03288 0.90625 0.64278 0.0
H578 H 1.00687 0.98489 0.66822 0.0
C579 C 0.90427 0.9538 0.63721 0.0
C580 C 0.89124 0.97017 0.65358 0.0
C581 C 0.9363 0.9449 0.63696 0.0
C582 C 1.01352 0.96256 0.66136 0.0
H583 H 0.14889 0.89789 0.61795 0.0
H584 H 0.09123 0.9058 0.61948 0.0
H585 H 0.06284 0.97028 0.66741 0.0
H586 H 0.90142 0.98954 0.68269 0.0
H587 H 0.95716 0.97329 0.68262 0.0
H588 H 0.98356 0.89815 0.63702 0.0
C589 C 0.10494 0.90828 0.63299 0.0
C590 C 0.04569 0.95426 0.66083 0.0
C591 C 0.13796 0.90366 0.63213 0.0
C592 C 0.91091 0.97725 0.66979 0.0
C593 C 0.9429 0.968 0.66968 0.0
C594 C 1.00058 0.91435 0.64352 0.0
C595 C 0.09009 0.91777 0.65087 0.0
C596 C 0.05575 0.92607 0.6515 0.0
C597 C 0.95611 0.95183 0.6532 0.0
C598 C 0.99045 0.9427 0.65277 0.0
H599 H 0.15494 0.91888 0.68078 0.0
H600 H 0.09774 0.92745 0.68215 0.0
H601 H 0.03993 0.88425 0.63564 0.0
H602 H 0.88987 0.94849 0.62434 0.0
H603 H 0.94562 0.93314 0.62383 0.0
C604 C 0.8605 0.14075 0.90342 0.0
C605 C 0.87455 0.16214 0.88987 0.0
C606 C 0.86492 0.10791 0.9012 0.0
C607 C 0.92205 0.05122 0.87964 0.0
H608 H 0.85543 0.98879 0.88777 0.0
C609 C 0.94499 0.91768 0.86634 0.0
C610 C 0.93085 0.89605 0.87966 0.0
C611 C 0.93646 0.94982 0.86666 0.0
C612 C 0.87442 1.00587 0.88567 0.0
H613 H 0.90229 0.16554 0.86257 0.0
H614 H 0.91019 0.1086 0.85887 0.0
H615 H 0.84286 0.04532 0.89019 0.0
H616 H 0.89682 0.8914 0.90391 0.0
H617 H 0.88234 0.94732 0.90472 0.0
H618 H 0.95381 1.01211 0.87558 0.0
C619 C 0.89635 0.11717 0.87143 0.0
C620 C 0.86715 0.03828 0.88702 0.0
C621 C 0.89183 0.14985 0.87358 0.0
C622 C 0.90781 0.90729 0.89321 0.0
C623 C 0.89946 0.93944 0.89365 0.0
C624 C 0.92937 0.01889 0.87845 0.0
C625 C 0.88354 0.09583 0.88543 0.0
C626 C 0.89088 0.06132 0.88397 0.0
C627 C 0.91377 0.96121 0.88045 0.0
C628 C 0.90567 0.99573 0.88141 0.0
H629 H 0.8472 0.14939 0.91617 0.0
H630 H 0.85482 0.09207 0.91228 0.0
H631 H 0.94101 0.06836 0.87756 0.0
H632 H 0.96252 0.9097 0.85556 0.0
H633 H 0.94759 0.9657 0.856 0.0
C634 C 0.89081 0.90437 0.41624 0.0
C635 C 0.87134 0.91103 0.39979 0.0
C636 C 0.92383 0.90889 0.41504 0.0
C637 C 0.9826 0.95741 0.38856 0.0
H638 H 0.04483 0.8974 0.40814 0.0
C639 C 0.11722 0.98023 0.37846 0.0
C640 C 0.13765 0.97047 0.39372 0.0
C641 C 0.08514 0.97125 0.37866 0.0
C642 C 0.02781 0.91468 0.40285 0.0
H643 H 0.87193 0.92539 0.36873 0.0
H644 H 0.9291 0.93391 0.36685 0.0
H645 H 0.9883 0.88422 0.40988 0.0
H646 H 0.14037 0.9441 0.42136 0.0
H647 H 0.08442 0.92926 0.42212 0.0
H648 H 0.02158 0.98839 0.38211 0.0
C649 C 0.91876 0.92568 0.38075 0.0
C650 C 0.99541 0.90699 0.40379 0.0
C651 C 0.88593 0.92087 0.38188 0.0
C652 C 0.12532 0.95157 0.40921 0.0
C653 C 0.09318 0.94297 0.40959 0.0
C654 C 0.01489 0.96529 0.38788 0.0
C655 C 0.93801 0.92037 0.39741 0.0
C656 C 0.97248 0.92823 0.39656 0.0
C657 C 0.07256 0.95269 0.39433 0.0
C658 C 0.03805 0.94403 0.39495 0.0
H659 H 0.88051 0.89692 0.4303 0.0
H660 H 0.93809 0.90465 0.42814 0.0
H661 H 0.96543 0.97449 0.38315 0.0
H662 H 0.12616 0.9945 0.36623 0.0
H663 H 0.07031 0.97871 0.36641 0.0
loop_
_geom_bond_atom_site_label_1
_geom_bond_atom_site_label_2
_geom_bond_distance
_geom_bond_site_symmetry_2
_ccdc_geom_bond_type
Cu0 N1 1.999 . S
Cu0 O6 1.974 . S
Cu0 N11 1.985 . S
Cu0 O20 1.959 . S
N1 Cu0 1.999 . S
N1 C3 1.263 . S
N1 C5 1.389 . S
N2 C3 1.358 . S
N2 C4 1.400 . S
C3 N1 1.263 . S
C3 N2 1.358 . S
C3 H9 0.930 . S
C4 N2 1.400 . S
C4 C5 1.351 . S
C4 H21 0.930 . S
C5 N1 1.389 . S
C5 C4 1.351 . S
C5 H10 0.930 . S
O6 Cu0 1.974 . S
O6 C16 1.282 . S
C7 O8 1.261 . S
C7 O20 1.251 . S
O8 C7 1.261 . S
H9 C3 0.930 . S
H10 C5 0.930 . S
N11 Cu0 1.985 . S
N11 C13 1.335 . S
N11 C14 1.390 . S
N12 C13 1.345 . S
N12 C15 1.336 . S
C13 N11 1.335 . S
C13 N12 1.345 . S
C13 H18 0.930 . S
C14 N11 1.390 . S
C14 C15 1.346 . S
C14 H19 0.930 . S
C15 N12 1.336 . S
C15 C14 1.346 . S
C15 H22 0.929 . S
C16 O6 1.282 . S
C16 O17 1.216 . S
O17 C16 1.216 . S
H18 C13 0.930 . S
H19 C14 0.930 . S
O20 Cu0 1.959 . S
O20 C7 1.251 . S
H21 C4 0.930 . S
H22 C15 0.929 . S
Cu23 N24 1.999 . S
Cu23 O29 1.974 . S
Cu23 N34 1.985 . S
Cu23 O43 1.959 . S
N24 Cu23 1.999 . S
N24 C26 1.263 . S
N24 C28 1.389 . S
N25 C26 1.358 . S
N25 C27 1.400 . S
C26 N24 1.263 . S
C26 N25 1.358 . S
C26 H32 0.930 . S
C27 N25 1.400 . S
C27 C28 1.351 . S
C27 H44 0.930 . S
C28 N24 1.389 . S
C28 C27 1.351 . S
C28 H33 0.930 . S
O29 Cu23 1.974 . S
O29 C39 1.282 . S
C30 O31 1.261 . S
C30 O43 1.251 . S
O31 C30 1.261 . S
H32 C26 0.930 . S
H33 C28 0.930 . S
N34 Cu23 1.985 . S
N34 C36 1.335 . S
N34 C37 1.390 . S
N35 C36 1.345 . S
N35 C38 1.336 . S
C36 N34 1.335 . S
C36 N35 1.345 . S
C36 H41 0.930 . S
C37 N34 1.390 . S
C37 C38 1.346 . S
C37 H42 0.930 . S
C38 N35 1.336 . S
C38 C37 1.346 . S
C38 H45 0.929 . S
C39 O29 1.282 . S
C39 O40 1.216 . S
O40 C39 1.216 . S
H41 C36 0.930 . S
H42 C37 0.930 . S
O43 Cu23 1.959 . S
O43 C30 1.251 . S
H44 C27 0.930 . S
H45 C38 0.929 . S
Cu46 N47 1.999 . S
Cu46 O52 1.974 . S
Cu46 N57 1.985 . S
Cu46 O66 1.959 . S
N47 Cu46 1.999 . S
N47 C49 1.263 . S
N47 C51 1.389 . S
N48 C49 1.358 . S
N48 C50 1.400 . S
C49 N47 1.263 . S
C49 N48 1.358 . S
C49 H55 0.930 . S
C50 N48 1.400 . S
C50 C51 1.351 . S
C50 H67 0.930 . S
C51 N47 1.389 . S
C51 C50 1.351 . S
C51 H56 0.930 . S
O52 Cu46 1.974 . S
O52 C62 1.282 . S
C53 O54 1.261 . S
C53 O66 1.251 . S
O54 C53 1.261 . S
H55 C49 0.930 . S
H56 C51 0.930 . S
N57 Cu46 1.985 . S
N57 C59 1.335 . S
N57 C60 1.390 . S
N58 C59 1.345 . S
N58 C61 1.336 . S
C59 N57 1.335 . S
C59 N58 1.345 . S
C59 H64 0.930 . S
C60 N57 1.390 . S
C60 C61 1.346 . S
C60 H65 0.930 . S
C61 N58 1.336 . S
C61 C60 1.346 . S
C61 H68 0.929 . S
C62 O52 1.282 . S
C62 O63 1.216 . S
O63 C62 1.216 . S
H64 C59 0.930 . S
H65 C60 0.930 . S
O66 Cu46 1.959 . S
O66 C53 1.251 . S
H67 C50 0.930 . S
H68 C61 0.929 . S
Cu69 N70 1.999 . S
Cu69 O75 1.974 . S
Cu69 N80 1.985 . S
Cu69 O89 1.959 . S
N70 Cu69 1.999 . S
N70 C72 1.263 . S
N70 C74 1.389 . S
N71 C72 1.358 . S
N71 C73 1.400 . S
C72 N70 1.263 . S
C72 N71 1.358 . S
C72 H78 0.930 . S
C73 N71 1.400 . S
C73 C74 1.351 . S
C73 H90 0.930 . S
C74 N70 1.389 . S
C74 C73 1.351 . S
C74 H79 0.930 . S
O75 Cu69 1.974 . S
O75 C85 1.282 . S
C76 O77 1.261 . S
C76 O89 1.251 . S
O77 C76 1.261 . S
H78 C72 0.930 . S
H79 C74 0.930 . S
N80 Cu69 1.985 . S
N80 C82 1.335 . S
N80 C83 1.390 . S
N81 C82 1.345 . S
N81 C84 1.336 . S
C82 N80 1.335 . S
C82 N81 1.345 . S
C82 H87 0.930 . S
C83 N80 1.390 . S
C83 C84 1.346 . S
C83 H88 0.930 . S
C84 N81 1.336 . S
C84 C83 1.346 . S
C84 H91 0.929 . S
C85 O75 1.282 . S
C85 O86 1.216 . S
O86 C85 1.216 . S
H87 C82 0.930 . S
H88 C83 0.930 . S
O89 Cu69 1.959 . S
O89 C76 1.251 . S
H90 C73 0.930 . S
H91 C84 0.929 . S
Cu92 N93 1.999 . S
Cu92 O98 1.974 . S
Cu92 N103 1.985 . S
Cu92 O112 1.959 . S
N93 Cu92 1.999 . S
N93 C95 1.263 . S
N93 C97 1.389 . S
N94 C95 1.358 . S
N94 C96 1.400 . S
C95 N93 1.263 . S
C95 N94 1.358 . S
C95 H101 0.930 . S
C96 N94 1.400 . S
C96 C97 1.351 . S
C96 H113 0.930 . S
C97 N93 1.389 . S
C97 C96 1.351 . S
C97 H102 0.930 . S
O98 Cu92 1.974 . S
O98 C108 1.282 . S
C99 O100 1.261 . S
C99 O112 1.251 . S
O100 C99 1.261 . S
H101 C95 0.930 . S
H102 C97 0.930 . S
N103 Cu92 1.985 . S
N103 C105 1.335 . S
N103 C106 1.390 . S
N104 C105 1.345 . S
N104 C107 1.336 . S
C105 N103 1.335 . S
C105 N104 1.345 . S
C105 H110 0.930 . S
C106 N103 1.390 . S
C106 C107 1.346 . S
C106 H111 0.930 . S
C107 N104 1.336 . S
C107 C106 1.346 . S
C107 H114 0.929 . S
C108 O98 1.282 . S
C108 O109 1.216 . S
O109 C108 1.216 . S
H110 C105 0.930 . S
H111 C106 0.930 . S
O112 Cu92 1.959 . S
O112 C99 1.251 . S
H113 C96 0.930 . S
H114 C107 0.929 . S
Cu115 N116 1.999 . S
Cu115 O121 1.974 . S
Cu115 N126 1.985 . S
Cu115 O135 1.959 . S
N116 Cu115 1.999 . S
N116 C118 1.263 . S
N116 C120 1.389 . S
N117 C118 1.358 . S
N117 C119 1.400 . S
C118 N116 1.263 . S
C118 N117 1.358 . S
C118 H124 0.930 . S
C119 N117 1.400 . S
C119 C120 1.351 . S
C119 H136 0.930 . S
C120 N116 1.389 . S
C120 C119 1.351 . S
C120 H125 0.930 . S
O121 Cu115 1.974 . S
O121 C131 1.282 . S
C122 O123 1.261 . S
C122 O135 1.251 . S
O123 C122 1.261 . S
H124 C118 0.930 . S
H125 C120 0.930 . S
N126 Cu115 1.985 . S
N126 C128 1.335 . S
N126 C129 1.390 . S
N127 C128 1.345 . S
N127 C130 1.336 . S
C128 N126 1.335 . S
C128 N127 1.345 . S
C128 H133 0.930 . S
C129 N126 1.390 . S
C129 C130 1.346 . S
C129 H134 0.930 . S
C130 N127 1.336 . S
C130 C129 1.346 . S
C130 H137 0.929 . S
C131 O121 1.282 . S
C131 O132 1.216 . S
O132 C131 1.216 . S
H133 C128 0.930 . S
H134 C129 0.930 . S
O135 Cu115 1.959 . S
O135 C122 1.251 . S
H136 C119 0.930 . S
H137 C130 0.929 . S
Cu138 N139 1.999 . S
Cu138 O144 1.974 . S
Cu138 N149 1.985 . S
Cu138 O158 1.959 . S
N139 Cu138 1.999 . S
N139 C141 1.263 . S
N139 C143 1.389 . S
N140 C141 1.358 . S
N140 C142 1.400 . S
C141 N139 1.263 . S
C141 N140 1.358 . S
C141 H147 0.930 . S
C142 N140 1.400 . S
C142 C143 1.351 . S
C142 H159 0.930 . S
C143 N139 1.389 . S
C143 C142 1.351 . S
C143 H148 0.930 . S
O144 Cu138 1.974 . S
O144 C154 1.282 . S
C145 O146 1.261 . S
C145 O158 1.251 . S
O146 C145 1.261 . S
H147 C141 0.930 . S
H148 C143 0.930 . S
N149 Cu138 1.985 . S
N149 C151 1.335 . S
N149 C152 1.390 . S
N150 C151 1.345 . S
N150 C153 1.336 . S
C151 N149 1.335 . S
C151 N150 1.345 . S
C151 H156 0.930 . S
C152 N149 1.390 . S
C152 C153 1.346 . S
C152 H157 0.930 . S
C153 N150 1.336 . S
C153 C152 1.346 . S
C153 H160 0.929 . S
C154 O144 1.282 . S
C154 O155 1.216 . S
O155 C154 1.216 . S
H156 C151 0.930 . S
H157 C152 0.930 . S
O158 Cu138 1.959 . S
O158 C145 1.251 . S
H159 C142 0.930 . S
H160 C153 0.929 . S
Cu161 N162 1.999 . S
Cu161 O167 1.974 . S
Cu161 N172 1.985 . S
Cu161 O181 1.959 . S
N162 Cu161 1.999 . S
N162 C164 1.263 . S
N162 C166 1.389 . S
N163 C164 1.358 . S
N163 C165 1.400 . S
C164 N162 1.263 . S
C164 N163 1.358 . S
C164 H170 0.930 . S
C165 N163 1.400 . S
C165 C166 1.351 . S
C165 H182 0.930 . S
C166 N162 1.389 . S
C166 C165 1.351 . S
C166 H171 0.930 . S
O167 Cu161 1.974 . S
O167 C177 1.282 . S
C168 O169 1.261 . S
C168 O181 1.251 . S
O169 C168 1.261 . S
H170 C164 0.930 . S
H171 C166 0.930 . S
N172 Cu161 1.985 . S
N172 C174 1.335 . S
N172 C175 1.390 . S
N173 C174 1.345 . S
N173 C176 1.336 . S
C174 N172 1.335 . S
C174 N173 1.345 . S
C174 H179 0.930 . S
C175 N172 1.390 . S
C175 C176 1.346 . S
C175 H180 0.930 . S
C176 N173 1.336 . S
C176 C175 1.346 . S
C176 H183 0.929 . S
C177 O167 1.282 . S
C177 O178 1.216 . S
O178 C177 1.216 . S
H179 C174 0.930 . S
H180 C175 0.930 . S
O181 Cu161 1.959 . S
O181 C168 1.251 . S
H182 C165 0.930 . S
H183 C176 0.929 . S
C184 C185 1.349 . S
C184 C186 1.327 . S
C184 H209 0.950 . S
C185 C184 1.349 . S
C185 C201 1.349 . S
C186 C184 1.327 . S
C186 C205 1.429 . S
C186 H210 0.970 . S
C187 C204 1.574 . S
C187 C206 1.368 . S
C187 H211 0.949 . S
H188 C192 0.949 . S
C189 C190 1.349 . S
C189 C191 1.327 . S
C189 H212 0.950 . S
C190 C189 1.349 . S
C190 C202 1.349 . S
C191 C189 1.327 . S
C191 C207 1.429 . S
C191 H213 0.970 . S
C192 H188 0.949 . S
C192 C200 1.574 . S
C192 C208 1.368 . S
H193 C201 0.950 . S
H194 C199 0.950 . S
H195 C200 0.949 . S
H196 C202 0.950 . S
H197 C203 0.950 . S
H198 C204 0.949 . S
C199 H194 0.950 . S
C199 C201 1.327 . S
C199 C205 1.429 . S
C200 C192 1.574 . S
C200 H195 0.949 . S
C200 C206 1.368 1_655 S
C201 C185 1.349 . S
C201 H193 0.950 . S
C201 C199 1.327 . S
C202 C190 1.349 . S
C202 H196 0.950 . S
C202 C203 1.327 . S
C203 H197 0.950 . S
C203 C202 1.327 . S
C203 C207 1.429 . S
C204 C187 1.574 . S
C204 H198 0.949 . S
C204 C208 1.368 1_455 S
C205 C186 1.429 . S
C205 C199 1.429 . S
C205 C206 1.523 . S
C206 C187 1.368 . S
C206 C200 1.368 1_455 S
C206 C205 1.523 . S
C207 C191 1.429 . S
C207 C203 1.429 . S
C207 C208 1.523 . S
C208 C192 1.368 . S
C208 C204 1.368 1_655 S
C208 C207 1.523 . S
H209 C184 0.950 . S
H210 C186 0.970 . S
H211 C187 0.949 . S
H212 C189 0.950 . S
H213 C191 0.970 . S
C214 C215 1.349 . S
C214 C216 1.327 . S
C214 H239 0.950 . S
C215 C214 1.349 . S
C215 C231 1.349 . S
C216 C214 1.327 . S
C216 C235 1.429 . S
C216 H240 0.970 . S
C217 C234 1.574 . S
C217 C236 1.368 . S
C217 H241 0.949 . S
H218 C222 0.949 . S
C219 C220 1.349 . S
C219 C221 1.327 . S
C219 H242 0.950 . S
C220 C219 1.349 . S
C220 C232 1.349 . S
C221 C219 1.327 . S
C221 C237 1.429 . S
C221 H243 0.970 . S
C222 H218 0.949 . S
C222 C230 1.574 . S
C222 C238 1.368 . S
H223 C231 0.950 . S
H224 C229 0.950 . S
H225 C230 0.949 . S
H226 C232 0.950 . S
H227 C233 0.950 . S
H228 C234 0.949 . S
C229 H224 0.950 . S
C229 C231 1.327 . S
C229 C235 1.429 . S
C230 C222 1.574 . S
C230 H225 0.949 . S
C230 C236 1.368 1_545 S
C231 C215 1.349 . S
C231 H223 0.950 . S
C231 C229 1.327 . S
C232 C220 1.349 . S
C232 H226 0.950 . S
C232 C233 1.327 . S
C233 H227 0.950 . S
C233 C232 1.327 . S
C233 C237 1.429 . S
C234 C217 1.574 . S
C234 H228 0.949 . S
C234 C238 1.368 1_565 S
C235 C216 1.429 . S
C235 C229 1.429 . S
C235 C236 1.523 . S
C236 C217 1.368 . S
C236 C230 1.368 1_565 S
C236 C235 1.523 . S
C237 C221 1.429 . S
C237 C233 1.429 . S
C237 C238 1.523 . S
C238 C222 1.368 . S
C238 C234 1.368 1_545 S
C238 C237 1.523 . S
H239 C214 0.950 . S
H240 C216 0.970 . S
H241 C217 0.949 . S
H242 C219 0.950 . S
H243 C221 0.970 . S
C244 C245 1.349 . S
C244 C246 1.327 . S
C244 H269 0.950 . S
C245 C244 1.349 . S
C245 C261 1.349 . S
C246 C244 1.327 . S
C246 C265 1.429 . S
C246 H270 0.950 . S
C247 C264 1.574 . S
C247 C266 1.368 1_455 S
C247 H271 0.949 . S
H248 C252 0.949 . S
C249 C250 1.349 . S
C249 C251 1.327 . S
C249 H272 0.950 . S
C250 C249 1.349 . S
C250 C262 1.349 . S
C251 C249 1.327 . S
C251 C267 1.429 . S
C251 H273 0.950 . S
C252 H248 0.949 . S
C252 C260 1.574 . S
C252 C268 1.368 1_655 S
H253 C261 0.950 . S
H254 C259 0.970 . S
H255 C260 0.949 . S
H256 C262 0.950 . S
H257 C263 0.970 . S
H258 C264 0.949 . S
C259 H254 0.970 . S
C259 C261 1.327 . S
C259 C265 1.429 . S
C260 C252 1.574 . S
C260 H255 0.949 . S
C260 C266 1.368 . S
C261 C245 1.349 . S
C261 H253 0.950 . S
C261 C259 1.327 . S
C262 C250 1.349 . S
C262 H256 0.950 . S
C262 C263 1.327 . S
C263 H257 0.970 . S
C263 C262 1.327 . S
C263 C267 1.429 . S
C264 C247 1.574 . S
C264 H258 0.949 . S
C264 C268 1.368 . S
C265 C246 1.429 . S
C265 C259 1.429 . S
C265 C266 1.523 . S
C266 C247 1.368 1_655 S
C266 C260 1.368 . S
C266 C265 1.523 . S
C267 C251 1.429 . S
C267 C263 1.429 . S
C267 C268 1.523 . S
C268 C252 1.368 1_455 S
C268 C264 1.368 . S
C268 C267 1.523 . S
H269 C244 0.950 . S
H270 C246 0.950 . S
H271 C247 0.949 . S
H272 C249 0.950 . S
H273 C251 0.950 . S
C274 C275 1.349 . S
C274 C276 1.327 . S
C274 H299 0.950 . S
C275 C274 1.349 . S
C275 C291 1.349 . S
C276 C274 1.327 . S
C276 C295 1.429 . S
C276 H300 0.970 . S
C277 C294 1.574 . S
C277 C296 1.368 . S
C277 H301 0.949 . S
H278 C282 0.949 . S
C279 C280 1.349 . S
C279 C281 1.327 . S
C279 H302 0.950 . S
C280 C279 1.349 . S
C280 C292 1.349 . S
C281 C279 1.327 . S
C281 C297 1.429 . S
C281 H303 0.970 . S
C282 H278 0.949 . S
C282 C290 1.574 . S
C282 C298 1.368 . S
H283 C291 0.950 . S
H284 C289 0.950 . S
H285 C290 0.949 . S
H286 C292 0.950 . S
H287 C293 0.950 . S
H288 C294 0.949 . S
C289 H284 0.950 . S
C289 C291 1.327 . S
C289 C295 1.429 . S
C290 C282 1.574 . S
C290 H285 0.949 . S
C290 C296 1.368 1_565 S
C291 C275 1.349 . S
C291 H283 0.950 . S
C291 C289 1.327 . S
C292 C280 1.349 . S
C292 H286 0.950 . S
C292 C293 1.327 . S
C293 H287 0.950 . S
C293 C292 1.327 . S
C293 C297 1.429 . S
C294 C277 1.574 . S
C294 H288 0.949 . S
C294 C298 1.368 1_545 S
C295 C276 1.429 . S
C295 C289 1.429 . S
C295 C296 1.523 . S
C296 C277 1.368 . S
C296 C290 1.368 1_545 S
C296 C295 1.523 . S
C297 C281 1.429 . S
C297 C293 1.429 . S
C297 C298 1.523 . S
C298 C282 1.368 . S
C298 C294 1.368 1_565 S
C298 C297 1.523 . S
H299 C274 0.950 . S
H300 C276 0.970 . S
H301 C277 0.949 . S
H302 C279 0.950 . S
H303 C281 0.970 . S
C304 C305 1.349 . S
C304 C306 1.327 . S
C304 H329 0.950 . S
C305 C304 1.349 . S
C305 C321 1.349 . S
C306 C304 1.327 . S
C306 C325 1.429 . S
C306 H330 0.950 . S
C307 C324 1.574 1_556 S
C307 C326 1.368 1_455 S
C307 H331 0.949 . S
H308 C312 0.949 . S
C309 C310 1.349 . S
C309 C311 1.327 . S
C309 H332 0.950 . S
C310 C309 1.349 . S
C310 C322 1.349 . S
C311 C309 1.327 . S
C311 C327 1.429 . S
C311 H333 0.950 . S
C312 H308 0.949 . S
C312 C320 1.574 1_554 S
C312 C328 1.368 1_655 S
H313 C321 0.950 . S
H314 C319 0.950 1_455 S
H315 C320 0.949 . S
H316 C322 0.950 . S
H317 C323 0.950 1_655 S
H318 C324 0.949 . S
C319 H314 0.950 1_655 S
C319 C321 1.327 . S
C319 C325 1.429 . S
C320 C312 1.574 1_556 S
C320 H315 0.949 . S
C320 C326 1.368 . S
C321 C305 1.349 . S
C321 H313 0.950 . S
C321 C319 1.327 . S
C322 C310 1.349 . S
C322 H316 0.950 . S
C322 C323 1.327 . S
C323 H317 0.950 1_455 S
C323 C322 1.327 . S
C323 C327 1.429 . S
C324 C307 1.574 1_554 S
C324 H318 0.949 . S
C324 C328 1.368 . S
C325 C306 1.429 . S
C325 C319 1.429 . S
C325 C326 1.523 . S
C326 C307 1.368 1_655 S
C326 C320 1.368 . S
C326 C325 1.523 . S
C327 C311 1.429 . S
C327 C323 1.429 . S
C327 C328 1.523 . S
C328 C312 1.368 1_455 S
C328 C324 1.368 . S
C328 C327 1.523 . S
H329 C304 0.950 . S
H330 C306 0.950 . S
H331 C307 0.949 . S
H332 C309 0.950 . S
H333 C311 0.950 . S
C334 C335 1.349 . S
C334 C336 1.337 . S
C334 H359 0.950 1_545 S
C335 C334 1.349 . S
C335 C351 1.349 . S
C336 C334 1.337 . S
C336 C355 1.446 . S
C336 H360 0.923 1_545 S
C337 C354 1.574 . S
C337 C356 1.368 . S
C337 H361 0.949 . S
H338 C342 0.949 . S
C339 C340 1.349 . S
C339 C341 1.337 . S
C339 H362 0.950 1_565 S
C340 C339 1.349 . S
C340 C352 1.349 . S
C341 C339 1.337 . S
C341 C357 1.446 . S
C341 H363 0.923 1_565 S
C342 H338 0.949 . S
C342 C350 1.574 . S
C342 C358 1.368 . S
H343 C351 0.950 . S
H344 C349 0.950 . S
H345 C350 0.949 . S
H346 C352 0.950 . S
H347 C353 0.950 . S
H348 C354 0.949 . S
C349 H344 0.950 . S
C349 C351 1.327 . S
C349 C355 1.429 . S
C350 C342 1.574 . S
C350 H345 0.949 . S
C350 C356 1.368 1_565 S
C351 C335 1.349 . S
C351 H343 0.950 . S
C351 C349 1.327 . S
C352 C340 1.349 . S
C352 H346 0.950 . S
C352 C353 1.327 . S
C353 H347 0.950 . S
C353 C352 1.327 . S
C353 C357 1.429 . S
C354 C337 1.574 . S
C354 H348 0.949 . S
C354 C358 1.368 1_545 S
C355 C336 1.446 . S
C355 C349 1.429 . S
C355 C356 1.523 . S
C356 C337 1.368 . S
C356 C350 1.368 1_545 S
C356 C355 1.523 . S
C357 C341 1.446 . S
C357 C353 1.429 . S
C357 C358 1.523 . S
C358 C342 1.368 . S
C358 C354 1.368 1_565 S
C358 C357 1.523 . S
H359 C334 0.950 1_565 S
H360 C336 0.923 1_565 S
H361 C337 0.949 . S
H362 C339 0.950 1_545 S
H363 C341 0.923 1_545 S
C364 C365 1.349 . S
C364 C366 1.327 . S
C364 H389 0.950 . S
C365 C364 1.349 . S
C365 C381 1.349 . S
C366 C364 1.327 . S
C366 C385 1.429 . S
C366 H390 0.950 . S
C367 C384 1.574 1_554 S
C367 C386 1.368 1_455 S
C367 H391 0.949 . S
H368 C372 0.949 . S
C369 C370 1.349 . S
C369 C371 1.327 . S
C369 H392 0.950 . S
C370 C369 1.349 . S
C370 C382 1.349 . S
C371 C369 1.327 . S
C371 C387 1.429 . S
C371 H393 0.950 . S
C372 H368 0.949 . S
C372 C380 1.574 1_556 S
C372 C388 1.368 1_655 S
H373 C381 0.950 . S
H374 C379 0.950 1_455 S
H375 C380 0.949 . S
H376 C382 0.950 . S
H377 C383 0.950 1_655 S
H378 C384 0.949 . S
C379 H374 0.950 1_655 S
C379 C381 1.327 . S
C379 C385 1.429 . S
C380 C372 1.574 1_554 S
C380 H375 0.949 . S
C380 C386 1.368 . S
C381 C365 1.349 . S
C381 H373 0.950 . S
C381 C379 1.327 . S
C382 C370 1.349 . S
C382 H376 0.950 . S
C382 C383 1.327 . S
C383 H377 0.950 1_455 S
C383 C382 1.327 . S
C383 C387 1.429 . S
C384 C367 1.574 1_556 S
C384 H378 0.949 . S
C384 C388 1.368 . S
C385 C366 1.429 . S
C385 C379 1.429 . S
C385 C386 1.523 . S
C386 C367 1.368 1_655 S
C386 C380 1.368 . S
C386 C385 1.523 . S
C387 C371 1.429 . S
C387 C383 1.429 . S
C387 C388 1.523 . S
C388 C372 1.368 1_455 S
C388 C384 1.368 . S
C388 C387 1.523 . S
H389 C364 0.950 . S
H390 C366 0.950 . S
H391 C367 0.949 . S
H392 C369 0.950 . S
H393 C371 0.950 . S
C394 C395 1.349 . S
C394 C396 1.327 . S
C394 H419 0.950 . S
C395 C394 1.349 . S
C395 C411 1.349 . S
C396 C394 1.327 . S
C396 C415 1.429 . S
C396 H420 0.950 . S
C397 C414 1.574 . S
C397 C416 1.368 1_565 S
C397 H421 0.949 . S
H398 C402 0.949 . S
C399 C400 1.349 . S
C399 C401 1.327 . S
C399 H422 0.950 . S
C400 C399 1.349 . S
C400 C412 1.349 . S
C401 C399 1.327 . S
C401 C417 1.429 . S
C401 H423 0.950 . S
C402 H398 0.949 . S
C402 C410 1.574 . S
C402 C418 1.368 1_545 S
H403 C411 0.950 1_565 S
H404 C409 0.939 1_565 S
H405 C410 0.949 . S
H406 C412 0.950 1_545 S
H407 C413 0.939 1_545 S
H408 C414 0.949 . S
C409 H404 0.939 1_545 S
C409 C411 1.331 . S
C409 C415 1.436 . S
C410 C402 1.574 . S
C410 H405 0.949 . S
C410 C416 1.368 . S
C411 C395 1.349 . S
C411 H403 0.950 1_545 S
C411 C409 1.331 . S
C412 C400 1.349 . S
C412 H406 0.950 1_565 S
C412 C413 1.331 . S
C413 H407 0.939 1_565 S
C413 C412 1.331 . S
C413 C417 1.436 . S
C414 C397 1.574 . S
C414 H408 0.949 . S
C414 C418 1.368 . S
C415 C396 1.429 . S
C415 C409 1.436 . S
C415 C416 1.523 . S
C416 C397 1.368 1_545 S
C416 C410 1.368 . S
C416 C415 1.523 . S
C417 C401 1.429 . S
C417 C413 1.436 . S
C417 C418 1.523 . S
C418 C402 1.368 1_565 S
C418 C414 1.368 . S
C418 C417 1.523 . S
H419 C394 0.950 . S
H420 C396 0.950 . S
H421 C397 0.949 . S
H422 C399 0.950 . S
H423 C401 0.950 . S
C424 C425 1.349 . S
C424 C426 1.327 . S
C424 H449 0.950 . S
C425 C424 1.349 . S
C425 C441 1.349 . S
C426 C424 1.327 . S
C426 C445 1.429 . S
C426 H450 0.950 . S
C427 C444 1.574 . S
C427 C446 1.368 . S
C427 H451 0.949 . S
H428 C432 0.949 . S
C429 C430 1.349 . S
C429 C431 1.327 . S
C429 H452 0.950 . S
C430 C429 1.349 . S
C430 C442 1.349 . S
C431 C429 1.327 . S
C431 C447 1.429 . S
C431 H453 0.950 . S
C432 H428 0.949 . S
C432 C440 1.574 . S
C432 C448 1.368 . S
H433 C441 0.950 . S
H434 C439 0.950 . S
H435 C440 0.949 . S
H436 C442 0.950 . S
H437 C443 0.950 . S
H438 C444 0.949 . S
C439 H434 0.950 . S
C439 C441 1.327 . S
C439 C445 1.429 . S
C440 C432 1.574 . S
C440 H435 0.949 . S
C440 C446 1.368 . S
C441 C425 1.349 . S
C441 H433 0.950 . S
C441 C439 1.327 . S
C442 C430 1.349 . S
C442 H436 0.950 . S
C442 C443 1.327 . S
C443 H437 0.950 . S
C443 C442 1.327 . S
C443 C447 1.429 . S
C444 C427 1.574 . S
C444 H438 0.949 . S
C444 C448 1.368 . S
C445 C426 1.429 . S
C445 C439 1.429 . S
C445 C446 1.523 . S
C446 C427 1.368 . S
C446 C440 1.368 . S
C446 C445 1.523 . S
C447 C431 1.429 . S
C447 C443 1.429 . S
C447 C448 1.523 . S
C448 C432 1.368 . S
C448 C444 1.368 . S
C448 C447 1.523 . S
H449 C424 0.950 . S
H450 C426 0.950 . S
H451 C427 0.949 . S
H452 C429 0.950 . S
H453 C431 0.950 . S
C454 C455 1.349 . S
C454 C456 1.327 . S
C454 H479 0.950 . S
C455 C454 1.349 . S
C455 C471 1.349 . S
C456 C454 1.327 . S
C456 C475 1.429 . S
C456 H480 0.950 . S
C457 C474 1.574 . S
C457 C476 1.368 . S
C457 H481 0.949 . S
H458 C462 0.949 . S
C459 C460 1.349 . S
C459 C461 1.327 . S
C459 H482 0.950 . S
C460 C459 1.349 . S
C460 C472 1.349 . S
C461 C459 1.327 . S
C461 C477 1.429 . S
C461 H483 0.950 . S
C462 H458 0.949 . S
C462 C470 1.574 . S
C462 C478 1.368 . S
H463 C471 0.950 . S
H464 C469 0.950 . S
H465 C470 0.949 . S
H466 C472 0.950 . S
H467 C473 0.950 . S
H468 C474 0.949 . S
C469 H464 0.950 . S
C469 C471 1.327 . S
C469 C475 1.429 . S
C470 C462 1.574 . S
C470 H465 0.949 . S
C470 C476 1.368 . S
C471 C455 1.349 . S
C471 H463 0.950 . S
C471 C469 1.327 . S
C472 C460 1.349 . S
C472 H466 0.950 . S
C472 C473 1.327 . S
C473 H467 0.950 . S
C473 C472 1.327 . S
C473 C477 1.429 . S
C474 C457 1.574 . S
C474 H468 0.949 . S
C474 C478 1.368 . S
C475 C456 1.429 . S
C475 C469 1.429 . S
C475 C476 1.523 . S
C476 C457 1.368 . S
C476 C470 1.368 . S
C476 C475 1.523 . S
C477 C461 1.429 . S
C477 C473 1.429 . S
C477 C478 1.523 . S
C478 C462 1.368 . S
C478 C474 1.368 . S
C478 C477 1.523 . S
H479 C454 0.950 . S
H480 C456 0.950 . S
H481 C457 0.949 . S
H482 C459 0.950 . S
H483 C461 0.950 . S
C484 C485 1.349 . S
C484 C486 1.327 . S
C484 H509 0.950 . S
C485 C484 1.349 . S
C485 C501 1.349 . S
C486 C484 1.327 . S
C486 C505 1.429 . S
C486 H510 0.950 . S
C487 C504 1.574 . S
C487 C506 1.368 . S
C487 H511 0.949 . S
H488 C492 0.949 . S
C489 C490 1.349 . S
C489 C491 1.327 . S
C489 H512 0.950 . S
C490 C489 1.349 . S
C490 C502 1.349 . S
C491 C489 1.327 . S
C491 C507 1.429 . S
C491 H513 0.950 . S
C492 H488 0.949 . S
C492 C500 1.574 . S
C492 C508 1.368 . S
H493 C501 0.950 . S
H494 C499 0.950 . S
H495 C500 0.949 . S
H496 C502 0.950 . S
H497 C503 0.950 . S
H498 C504 0.949 . S
C499 H494 0.950 . S
C499 C501 1.327 . S
C499 C505 1.429 . S
C500 C492 1.574 . S
C500 H495 0.949 . S
C500 C506 1.368 . S
C501 C485 1.349 . S
C501 H493 0.950 . S
C501 C499 1.327 . S
C502 C490 1.349 . S
C502 H496 0.950 . S
C502 C503 1.327 . S
C503 H497 0.950 . S
C503 C502 1.327 . S
C503 C507 1.429 . S
C504 C487 1.574 . S
C504 H498 0.949 . S
C504 C508 1.368 . S
C505 C486 1.429 . S
C505 C499 1.429 . S
C505 C506 1.523 . S
C506 C487 1.368 . S
C506 C500 1.368 . S
C506 C505 1.523 . S
C507 C491 1.429 . S
C507 C503 1.429 . S
C507 C508 1.523 . S
C508 C492 1.368 . S
C508 C504 1.368 . S
C508 C507 1.523 . S
H509 C484 0.950 . S
H510 C486 0.950 . S
H511 C487 0.949 . S
H512 C489 0.950 . S
H513 C491 0.950 . S
C514 C515 1.349 . S
C514 C516 1.327 . S
C514 H539 0.950 . S
C515 C514 1.349 . S
C515 C531 1.349 . S
C516 C514 1.327 . S
C516 C535 1.429 . S
C516 H540 0.950 . S
C517 C534 1.574 . S
C517 C536 1.368 . S
C517 H541 0.949 . S
H518 C522 0.949 . S
C519 C520 1.349 . S
C519 C521 1.327 . S
C519 H542 0.950 . S
C520 C519 1.349 . S
C520 C532 1.349 . S
C521 C519 1.327 . S
C521 C537 1.429 . S
C521 H543 0.950 . S
C522 H518 0.949 . S
C522 C530 1.574 . S
C522 C538 1.368 . S
H523 C531 0.950 . S
H524 C529 0.950 . S
H525 C530 0.949 . S
H526 C532 0.950 . S
H527 C533 0.950 . S
H528 C534 0.949 . S
C529 H524 0.950 . S
C529 C531 1.327 . S
C529 C535 1.429 . S
C530 C522 1.574 . S
C530 H525 0.949 . S
C530 C536 1.368 . S
C531 C515 1.349 . S
C531 H523 0.950 . S
C531 C529 1.327 . S
C532 C520 1.349 . S
C532 H526 0.950 . S
C532 C533 1.327 . S
C533 H527 0.950 . S
C533 C532 1.327 . S
C533 C537 1.429 . S
C534 C517 1.574 . S
C534 H528 0.949 . S
C534 C538 1.368 . S
C535 C516 1.429 . S
C535 C529 1.429 . S
C535 C536 1.523 . S
C536 C517 1.368 . S
C536 C530 1.368 . S
C536 C535 1.523 . S
C537 C521 1.429 . S
C537 C533 1.429 . S
C537 C538 1.523 . S
C538 C522 1.368 . S
C538 C534 1.368 . S
C538 C537 1.523 . S
H539 C514 0.950 . S
H540 C516 0.950 . S
H541 C517 0.949 . S
H542 C519 0.950 . S
H543 C521 0.950 . S
C544 C545 1.349 . S
C544 C546 1.327 . S
C544 H569 0.950 . S
C545 C544 1.349 . S
C545 C561 1.349 . S
C546 C544 1.327 . S
C546 C565 1.429 . S
C546 H570 0.950 . S
C547 C564 1.574 1_545 S
C547 C566 1.368 1_655 S
C547 H571 0.949 . S
H548 C552 0.949 . S
C549 C550 1.349 . S
C549 C551 1.327 . S
C549 H572 0.950 . S
C550 C549 1.349 . S
C550 C562 1.349 . S
C551 C549 1.327 . S
C551 C567 1.429 . S
C551 H573 0.950 . S
C552 H548 0.949 . S
C552 C560 1.574 1_565 S
C552 C568 1.368 1_455 S
H553 C561 0.950 . S
H554 C559 0.959 . S
H555 C560 0.949 . S
H556 C562 0.950 . S
H557 C563 0.959 . S
H558 C564 0.949 . S
C559 H554 0.959 . S
C559 C561 1.327 . S
C559 C565 1.429 . S
C560 C552 1.574 1_545 S
C560 H555 0.949 . S
C560 C566 1.368 . S
C561 C545 1.349 . S
C561 H553 0.950 . S
C561 C559 1.327 . S
C562 C550 1.349 . S
C562 H556 0.950 . S
C562 C563 1.327 . S
C563 H557 0.959 . S
C563 C562 1.327 . S
C563 C567 1.429 . S
C564 C547 1.574 1_565 S
C564 H558 0.949 . S
C564 C568 1.368 . S
C565 C546 1.429 . S
C565 C559 1.429 . S
C565 C566 1.523 . S
C566 C547 1.368 1_455 S
C566 C560 1.368 . S
C566 C565 1.523 . S
C567 C551 1.429 . S
C567 C563 1.429 . S
C567 C568 1.523 . S
C568 C552 1.368 1_655 S
C568 C564 1.368 . S
C568 C567 1.523 . S
H569 C544 0.950 . S
H570 C546 0.950 . S
H571 C547 0.949 . S
H572 C549 0.950 . S
H573 C551 0.950 . S
C574 C575 1.349 . S
C574 C576 1.327 . S
C574 H599 0.950 . S
C575 C574 1.349 . S
C575 C591 1.349 . S
C576 C574 1.327 . S
C576 C595 1.429 . S
C576 H600 0.959 . S
C577 C594 1.574 1_455 S
C577 C596 1.368 . S
C577 H601 0.949 . S
H578 C582 0.949 . S
C579 C580 1.349 . S
C579 C581 1.327 . S
C579 H602 0.950 . S
C580 C579 1.349 . S
C580 C592 1.349 . S
C581 C579 1.327 . S
C581 C597 1.429 . S
C581 H603 0.959 . S
C582 H578 0.949 . S
C582 C590 1.574 1_655 S
C582 C598 1.368 . S
H583 C591 0.950 . S
H584 C589 0.950 . S
H585 C590 0.949 . S
H586 C592 0.950 . S
H587 C593 0.950 . S
H588 C594 0.949 . S
C589 H584 0.950 . S
C589 C591 1.327 . S
C589 C595 1.429 . S
C590 C582 1.574 1_455 S
C590 H585 0.949 . S
C590 C596 1.368 1_545 S
C591 C575 1.349 . S
C591 H583 0.950 . S
C591 C589 1.327 . S
C592 C580 1.349 . S
C592 H586 0.950 . S
C592 C593 1.327 . S
C593 H587 0.950 . S
C593 C592 1.327 . S
C593 C597 1.429 . S
C594 C577 1.574 1_655 S
C594 H588 0.949 . S
C594 C598 1.368 1_565 S
C595 C576 1.429 . S
C595 C589 1.429 . S
C595 C596 1.523 . S
C596 C577 1.368 . S
C596 C590 1.368 1_565 S
C596 C595 1.523 . S
C597 C581 1.429 . S
C597 C593 1.429 . S
C597 C598 1.523 . S
C598 C582 1.368 . S
C598 C594 1.368 1_545 S
C598 C597 1.523 . S
H599 C574 0.950 . S
H600 C576 0.959 . S
H601 C577 0.949 . S
H602 C579 0.950 . S
H603 C581 0.959 . S
C604 C605 1.349 . S
C604 C606 1.327 . S
C604 H629 0.950 . S
C605 C604 1.349 . S
C605 C621 1.349 . S
C606 C604 1.327 . S
C606 C625 1.429 . S
C606 H630 0.950 . S
C607 C624 1.574 1_545 S
C607 C626 1.368 1_455 S
C607 H631 0.949 . S
H608 C612 0.949 . S
C609 C610 1.349 . S
C609 C611 1.327 . S
C609 H632 0.950 . S
C610 C609 1.349 . S
C610 C622 1.349 . S
C611 C609 1.327 . S
C611 C627 1.429 . S
C611 H633 0.950 . S
C612 H608 0.949 . S
C612 C620 1.574 1_565 S
C612 C628 1.368 1_655 S
H613 C621 0.950 . S
H614 C619 0.959 . S
H615 C620 0.949 . S
H616 C622 0.950 . S
H617 C623 0.959 . S
H618 C624 0.949 . S
C619 H614 0.959 . S
C619 C621 1.327 . S
C619 C625 1.429 . S
C620 C612 1.574 1_545 S
C620 H615 0.949 . S
C620 C626 1.368 . S
C621 C605 1.349 . S
C621 H613 0.950 . S
C621 C619 1.327 . S
C622 C610 1.349 . S
C622 H616 0.950 . S
C622 C623 1.327 . S
C623 H617 0.959 . S
C623 C622 1.327 . S
C623 C627 1.429 . S
C624 C607 1.574 1_565 S
C624 H618 0.949 . S
C624 C628 1.368 . S
C625 C606 1.429 . S
C625 C619 1.429 . S
C625 C626 1.523 . S
C626 C607 1.368 1_655 S
C626 C620 1.368 . S
C626 C625 1.523 . S
C627 C611 1.429 . S
C627 C623 1.429 . S
C627 C628 1.523 . S
C628 C612 1.368 1_455 S
C628 C624 1.368 . S
C628 C627 1.523 . S
H629 C604 0.950 . S
H630 C606 0.950 . S
H631 C607 0.949 . S
H632 C609 0.950 . S
H633 C611 0.950 . S
C634 C635 1.349 . S
C634 C636 1.327 . S
C634 H659 0.950 . S
C635 C634 1.349 . S
C635 C651 1.349 . S
C636 C634 1.327 . S
C636 C655 1.429 . S
C636 H660 0.950 . S
C637 C654 1.574 1_655 S
C637 C656 1.368 1_545 S
C637 H661 0.949 . S
H638 C642 0.949 . S
C639 C640 1.349 . S
C639 C641 1.327 . S
C639 H662 0.950 . S
C640 C639 1.349 . S
C640 C652 1.349 . S
C641 C639 1.327 . S
C641 C657 1.429 . S
C641 H663 0.950 . S
C642 H638 0.949 . S
C642 C650 1.574 1_455 S
C642 C658 1.368 1_565 S
H643 C651 0.950 . S
H644 C649 0.959 . S
H645 C650 0.949 . S
H646 C652 0.950 . S
H647 C653 0.959 . S
H648 C654 0.949 . S
C649 H644 0.959 . S
C649 C651 1.327 . S
C649 C655 1.429 . S
C650 C642 1.574 1_655 S
C650 H645 0.949 . S
C650 C656 1.368 . S
C651 C635 1.349 . S
C651 H643 0.950 . S
C651 C649 1.327 . S
C652 C640 1.349 . S
C652 H646 0.950 . S
C652 C653 1.327 . S
C653 H647 0.959 . S
C653 C652 1.327 . S
C653 C657 1.429 . S
C654 C637 1.574 1_455 S
C654 H648 0.949 . S
C654 C658 1.368 . S
C655 C636 1.429 . S
C655 C649 1.429 . S
C655 C656 1.523 . S
C656 C637 1.368 1_565 S
C656 C650 1.368 . S
C656 C655 1.523 . S
C657 C641 1.429 . S
C657 C653 1.429 . S
C657 C658 1.523 . S
C658 C642 1.368 1_545 S
C658 C654 1.368 . S
C658 C657 1.523 . S
H659 C634 0.950 . S
H660 C636 0.950 . S
H661 C637 0.949 . S
H662 C639 0.950 . S
H663 C641 0.950 . S
C185 N12 1.695 . S
C190 N58 1.695 . S
C215 N81 1.695 . S
C220 N35 1.695 . S
C245 N150 1.695 . S
C250 N104 1.695 . S
C275 N127 1.695 . S
C280 N173 1.695 . S
C305 C145 1.671 . S
C310 C7 1.671 . S
C335 C30 1.671 . S
C340 C168 1.671 . S
C365 C53 1.671 . S
C370 C99 1.671 . S
C395 C122 1.671 . S
C400 C76 1.671 . S
C425 C16 1.680 . S
C430 C131 1.680 . S
C455 C154 1.680 . S
C460 C39 1.680 . S
C485 C177 1.680 . S
C490 C62 1.680 . S
C515 C85 1.680 . S
C520 C108 1.680 . S
C545 N2 1.333 . S
C550 N48 1.333 . S
C575 N71 1.333 . S
C580 N25 1.333 . S
C605 N140 1.333 . S
C610 N94 1.333 . S
C635 N163 1.333 . S
C640 N117 1.333 . S
