# Generated by pormake.
# Topology qtz-a, (4)-cn, num edge types: 1
# Building blocks:
#     Node 0, Type 0, BuildingBlock: KUFVIS_clean_sbu_0, # of connection points: 4
#     Node 1, Type 0, BuildingBlock: KUFVIS_clean_sbu_0, # of connection points: 4
#     Node 2, Type 0, BuildingBlock: KUFVIS_clean_sbu_0, # of connection points: 4
#     Node 3, Type 0, BuildingBlock: KUFVIS_clean_sbu_0, # of connection points: 4
#     Node 4, Type 0, BuildingBlock: KUFVIS_clean_sbu_0, # of connection points: 4
#     Node 5, Type 0, BuildingBlock: KUFVIS_clean_sbu_0, # of connection points: 4
#     Node 6, Type 0, BuildingBlock: KUFVIS_clean_sbu_0, # of connection points: 4
#     Node 7, Type 0, BuildingBlock: KUFVIS_clean_sbu_0, # of connection points: 4
#     Node 8, Type 0, BuildingBlock: KUFVIS_clean_sbu_0, # of connection points: 4
#     Node 9, Type 0, BuildingBlock: KUFVIS_clean_sbu_0, # of connection points: 4
#     Node 10, Type 0, BuildingBlock: KUFVIS_clean_sbu_0, # of connection points: 4
#     Node 11, Type 0, BuildingBlock: KUFVIS_clean_sbu_0, # of connection points: 4
#     Edge 12, Type (0, 0), BuildingBlock: KIFKEQ_clean_linker_1, # of connection points: 2
#     Edge 13, Type (0, 0), BuildingBlock: KIFKEQ_clean_linker_1, # of connection points: 2
#     Edge 14, Type (0, 0), BuildingBlock: KIFKEQ_clean_linker_1, # of connection points: 2
#     Edge 15, Type (0, 0), BuildingBlock: KIFKEQ_clean_linker_1, # of connection points: 2
#     Edge 16, Type (0, 0), BuildingBlock: KIFKEQ_clean_linker_1, # of connection points: 2
#     Edge 17, Type (0, 0), BuildingBlock: KIFKEQ_clean_linker_1, # of connection points: 2
#     Edge 18, Type (0, 0), BuildingBlock: KIFKEQ_clean_linker_1, # of connection points: 2
#     Edge 19, Type (0, 0), BuildingBlock: KIFKEQ_clean_linker_1, # of connection points: 2
#     Edge 20, Type (0, 0), BuildingBlock: KIFKEQ_clean_linker_1, # of connection points: 2
#     Edge 21, Type (0, 0), BuildingBlock: KIFKEQ_clean_linker_1, # of connection points: 2
#     Edge 22, Type (0, 0), BuildingBlock: KIFKEQ_clean_linker_1, # of connection points: 2
#     Edge 23, Type (0, 0), BuildingBlock: KIFKEQ_clean_linker_1, # of connection points: 2
#     Edge 24, Type (0, 0), BuildingBlock: KIFKEQ_clean_linker_1, # of connection points: 2
#     Edge 25, Type (0, 0), BuildingBlock: KIFKEQ_clean_linker_1, # of connection points: 2
#     Edge 26, Type (0, 0), BuildingBlock: KIFKEQ_clean_linker_1, # of connection points: 2
#     Edge 27, Type (0, 0), BuildingBlock: KIFKEQ_clean_linker_1, # of connection points: 2
#     Edge 28, Type (0, 0), BuildingBlock: KIFKEQ_clean_linker_1, # of connection points: 2
#     Edge 29, Type (0, 0), BuildingBlock: KIFKEQ_clean_linker_1, # of connection points: 2
#     Edge 30, Type (0, 0), BuildingBlock: KIFKEQ_clean_linker_1, # of connection points: 2
#     Edge 31, Type (0, 0), BuildingBlock: KIFKEQ_clean_linker_1, # of connection points: 2
#     Edge 32, Type (0, 0), BuildingBlock: KIFKEQ_clean_linker_1, # of connection points: 2
#     Edge 33, Type (0, 0), BuildingBlock: KIFKEQ_clean_linker_1, # of connection points: 2
#     Edge 34, Type (0, 0), BuildingBlock: KIFKEQ_clean_linker_1, # of connection points: 2
#     Edge 35, Type (0, 0), BuildingBlock: KIFKEQ_clean_linker_1, # of connection points: 2
# Relax obj value: 0.788
# Max RMSD: 0.770
# Mean RMSD: 0.767
data_MOF--net-qtz-a--node1-KUFVIS_clean_sbu_0--edge1-KIFKEQ_clean_linker_1
_symmetry_space_group_name_H-M    P1
_symmetry_Int_Tables_number       1
_symmetry_cell_setting            triclinic
loop_
_symmetry_equiv_pos_as_xyz
'x, y, z'
_cell_length_a     34.280838
_cell_length_b     33.143834
_cell_length_c     60.037179
_cell_angle_alpha  89.958537
_cell_angle_beta   90.065686
_cell_angle_gamma 121.13494
loop_
_atom_site_label
_atom_site_type_symbol
_atom_site_fract_x
_atom_site_fract_y
_atom_site_fract_z
_atom_type_partial_charge
Mn0 Mn 0.69087 0.19932 0.07101 0.0
Mn1 Mn 0.7069 0.10888 0.07173 0.0
C2 C 0.63581 0.13146 0.08697 0.0
C3 C 0.70593 0.26907 0.08788 0.0
C4 C 0.66052 0.12216 0.0337 0.0
O5 O 0.75688 0.22896 0.06297 0.0
O6 O 0.75384 0.16296 0.05343 0.0
C7 C 0.78754 0.16291 0.10088 0.0
N8 N 0.745 0.12487 0.09751 0.0
C9 C 0.74281 0.0967 0.13473 0.0
C10 C 0.78645 0.13576 0.13863 0.0
C11 C 0.80892 0.16897 0.1216 0.0
C12 C 0.72299 0.09283 0.11383 0.0
H13 H 0.80512 0.18844 0.08788 0.0
C14 C 0.77121 0.20744 0.05148 0.0
O15 O 0.69466 0.26165 0.0669 0.0
O16 O 0.70882 0.23686 0.09845 0.0
N17 N 0.66489 0.05349 0.0879 0.0
C18 C 0.62779 0.0136 0.07996 0.0
C19 C 0.60195 0.97569 0.09448 0.0
C20 C 0.61613 0.97821 0.11666 0.0
C21 C 0.65681 0.01796 0.12387 0.0
C22 C 0.68063 0.05489 0.10869 0.0
H23 H 0.61788 0.01108 0.0627 0.0
O24 O 0.62776 0.16416 0.08146 0.0
O25 O 0.67792 0.14125 0.08442 0.0
O26 O 0.67076 0.16422 0.03975 0.0
O27 O 0.6673 0.09442 0.04592 0.0
C28 C 0.67559 0.02158 0.14519 0.0
C29 C 0.71849 0.06103 0.15065 0.0
H30 H 0.80319 0.14038 0.15454 0.0
H31 H 0.84271 0.1991 0.12444 0.0
H32 H 0.57157 0.94441 0.08851 0.0
H33 H 0.59645 0.94869 0.12776 0.0
H34 H 0.65779 0.99375 0.15734 0.0
H35 H 0.7329 0.06312 0.16698 0.0
Mn36 Mn 0.44444 0.55795 0.44479 0.0
Mn37 Mn 0.39879 0.60856 0.47501 0.0
C38 C 0.39193 0.57251 0.42902 0.0
C39 C 0.49804 0.55691 0.4211 0.0
C40 C 0.36214 0.50543 0.47623 0.0
O41 O 0.48791 0.5847 0.47083 0.0
O42 O 0.44483 0.60173 0.49215 0.0
C43 C 0.48255 0.70291 0.47698 0.0
N44 N 0.43799 0.67496 0.47106 0.0
C45 C 0.43469 0.74182 0.45804 0.0
C46 C 0.48061 0.77131 0.46391 0.0
C47 C 0.50464 0.75175 0.47341 0.0
C48 C 0.41459 0.6934 0.46186 0.0
H49 H 0.50097 0.68807 0.48449 0.0
C50 C 0.47665 0.59267 0.4898 0.0
O51 O 0.47322 0.52244 0.43456 0.0
O52 O 0.49383 0.59363 0.42227 0.0
N53 N 0.35281 0.61647 0.46135 0.0
C54 C 0.30774 0.58375 0.4586 0.0
C55 C 0.27854 0.59761 0.44972 0.0
C56 C 0.29577 0.64512 0.44428 0.0
C57 C 0.34193 0.67842 0.44805 0.0
C58 C 0.36941 0.66246 0.45684 0.0
H59 H 0.29423 0.54732 0.4631 0.0
O60 O 0.39882 0.54034 0.42112 0.0
O61 O 0.41743 0.59722 0.4458 0.0
O62 O 0.39472 0.50723 0.46513 0.0
O63 O 0.35724 0.54071 0.47933 0.0
C64 C 0.36155 0.72696 0.44386 0.0
C65 C 0.40791 0.75863 0.44884 0.0
H66 H 0.49769 0.80904 0.46133 0.0
H67 H 0.54003 0.77431 0.47808 0.0
H68 H 0.24279 0.57183 0.44725 0.0
H69 H 0.27307 0.65576 0.43761 0.0
H70 H 0.34115 0.74038 0.4371 0.0
H71 H 0.42249 0.79593 0.44576 0.0
Mn72 Mn 0.83772 0.39945 0.68855 0.0
Mn73 Mn 0.74337 0.34935 0.71812 0.0
C74 C 0.77045 0.34854 0.67141 0.0
C75 C 0.89288 0.46263 0.66767 0.0
C76 C 0.79999 0.3072 0.71616 0.0
O77 O 0.85549 0.44131 0.71537 0.0
O78 O 0.79964 0.38878 0.73709 0.0
C79 C 0.74819 0.43993 0.72702 0.0
N80 N 0.7261 0.39586 0.718 0.0
C81 C 0.66656 0.40682 0.70366 0.0
C82 C 0.68895 0.45244 0.71262 0.0
C83 C 0.72987 0.46899 0.72441 0.0
C84 C 0.68645 0.37946 0.70679 0.0
H85 H 0.77946 0.45288 0.73621 0.0
C86 C 0.8397 0.425 0.73446 0.0
O87 O 0.90252 0.43455 0.67825 0.0
O88 O 0.85146 0.45355 0.66899 0.0
N89 N 0.68752 0.31034 0.7025 0.0
C90 C 0.66879 0.26453 0.69612 0.0
C91 C 0.62729 0.24228 0.68444 0.0
C92 C 0.60521 0.26713 0.67978 0.0
C93 C 0.62453 0.31381 0.68712 0.0
C94 C 0.66596 0.33413 0.69866 0.0
H95 H 0.6858 0.24543 0.6996 0.0
O96 O 0.80868 0.35564 0.6634 0.0
O97 O 0.7731 0.37241 0.68926 0.0
O98 O 0.83421 0.34471 0.70788 0.0
O99 O 0.76014 0.30128 0.71759 0.0
C100 C 0.60416 0.34088 0.68356 0.0
C101 C 0.62516 0.38735 0.69182 0.0
H102 H 0.67494 0.47497 0.71065 0.0
H103 H 0.74723 0.50407 0.73149 0.0
H104 H 0.61244 0.20613 0.679 0.0
H105 H 0.57325 0.24989 0.67074 0.0
H106 H 0.5722 0.32619 0.67461 0.0
H107 H 0.60906 0.40773 0.68909 0.0
Mn108 Mn 0.35257 0.83433 0.05109 0.0
Mn109 Mn 0.28836 0.87403 0.03023 0.0
C110 C 0.34982 0.89196 0.07066 0.0
C111 C 0.35455 0.7776 0.07338 0.0
C112 C 0.38493 0.91779 0.01719 0.0
O113 O 0.31869 0.78775 0.02661 0.0
O114 O 0.29241 0.82861 0.00972 0.0
C115 C 0.2068 0.78017 0.03877 0.0
N116 N 0.23095 0.82751 0.04253 0.0
C117 C 0.17677 0.82071 0.07001 0.0
C118 C 0.15142 0.77187 0.06646 0.0
C119 C 0.1665 0.75154 0.05075 0.0
C120 C 0.21703 0.84734 0.05781 0.0
H121 H 0.21823 0.76431 0.02677 0.0
C122 C 0.3036 0.79732 0.00945 0.0
O123 O 0.38663 0.80138 0.05884 0.0
O124 O 0.32119 0.78502 0.07376 0.0
N125 N 0.28043 0.91841 0.047 0.0
C126 C 0.30067 0.96569 0.04358 0.0
C127 C 0.28847 0.99218 0.05694 0.0
C128 C 0.25292 0.96919 0.07244 0.0
C129 C 0.22858 0.91982 0.07356 0.0
C130 C 0.24309 0.89558 0.06008 0.0
H131 H 0.32611 0.98295 0.03071 0.0
O132 O 0.37989 0.88074 0.07489 0.0
O133 O 0.31887 0.86552 0.05574 0.0
O134 O 0.39082 0.88618 0.02684 0.0
O135 O 0.34881 0.92042 0.01886 0.0
C136 C 0.18893 0.8937 0.0865 0.0
C137 C 0.16319 0.84411 0.08483 0.0
H138 H 0.12011 0.74972 0.07553 0.0
H139 H 0.14708 0.71389 0.04788 0.0
H140 H 0.3057 0.03004 0.05497 0.0
H141 H 0.24301 0.98957 0.08247 0.0
H142 H 0.17718 0.91145 0.09727 0.0
H143 H 0.1323 0.82442 0.09455 0.0
Mn144 Mn 0.48025 0.38726 0.4375 0.0
Mn145 Mn 0.51019 0.31833 0.46414 0.0
C146 C 0.53375 0.3741 0.4223 0.0
C147 C 0.43741 0.40348 0.41289 0.0
C148 C 0.55479 0.4206 0.4736 0.0
O149 O 0.42968 0.35423 0.46012 0.0
O150 O 0.46417 0.32573 0.48081 0.0
C151 C 0.42075 0.23169 0.45619 0.0
N152 N 0.46695 0.25611 0.45406 0.0
C153 C 0.4649 0.19177 0.43441 0.0
C154 C 0.41729 0.16591 0.43641 0.0
C155 C 0.39514 0.186 0.44732 0.0
C156 C 0.48857 0.23728 0.44341 0.0
H157 H 0.40359 0.24695 0.46457 0.0
C158 C 0.43549 0.33914 0.47859 0.0
O159 O 0.45908 0.43093 0.42952 0.0
O160 O 0.4375 0.3644 0.41152 0.0
N161 N 0.55522 0.30829 0.45097 0.0
C162 C 0.60145 0.33626 0.45227 0.0
C163 C 0.62892 0.32091 0.44274 0.0
C164 C 0.60857 0.27647 0.43247 0.0
C165 C 0.56093 0.24747 0.43221 0.0
C166 C 0.53535 0.2647 0.44201 0.0
H167 H 0.61717 0.37028 0.46033 0.0
O168 O 0.53135 0.41043 0.41658 0.0
O169 O 0.5027 0.34414 0.43606 0.0
O170 O 0.52599 0.42598 0.46244 0.0
O171 O 0.55536 0.38226 0.4741 0.0
C172 C 0.53783 0.20185 0.42294 0.0
C173 C 0.48983 0.1741 0.42395 0.0
H174 H 0.39743 0.13059 0.42967 0.0
H175 H 0.3584 0.16628 0.44892 0.0
H176 H 0.66566 0.34315 0.4434 0.0
H177 H 0.62986 0.26468 0.42517 0.0
H178 H 0.55665 0.18764 0.41513 0.0
H179 H 0.47245 0.13901 0.41683 0.0
Mn180 Mn 0.17218 0.58136 0.70058 0.0
Mn181 Mn 0.2437 0.58216 0.73832 0.0
C182 C 0.24711 0.61213 0.69114 0.0
C183 C 0.12007 0.54043 0.67253 0.0
C184 C 0.21771 0.65577 0.73751 0.0
O185 O 0.12961 0.53504 0.72309 0.0
O186 O 0.17914 0.54446 0.75006 0.0
C187 C 0.21285 0.48088 0.73452 0.0
N188 N 0.24649 0.52696 0.73258 0.0
C189 C 0.29912 0.50544 0.7187 0.0
C190 C 0.2651 0.45775 0.72066 0.0
C191 C 0.22179 0.44544 0.72862 0.0
C192 C 0.28831 0.53919 0.72497 0.0
H193 H 0.17939 0.4712 0.74044 0.0
C194 C 0.13845 0.52729 0.74256 0.0
O195 O 0.11899 0.57397 0.68328 0.0
O196 O 0.15089 0.53104 0.678 0.0
N197 N 0.30614 0.61669 0.72918 0.0
C198 C 0.33493 0.66427 0.72798 0.0
C199 C 0.37955 0.68248 0.72014 0.0
C200 C 0.39406 0.65162 0.71364 0.0
C201 C 0.36388 0.60278 0.71516 0.0
C202 C 0.31992 0.5867 0.72324 0.0
H203 H 0.32376 0.68809 0.73276 0.0
O204 O 0.2221 0.62497 0.68073 0.0
O205 O 0.22682 0.58159 0.7072 0.0
O206 O 0.18777 0.63672 0.72204 0.0
O207 O 0.24273 0.63998 0.74419 0.0
C208 C 0.37556 0.56944 0.70882 0.0
C209 C 0.34321 0.5208 0.71059 0.0
H210 H 0.27178 0.43031 0.71602 0.0
H211 H 0.1953 0.40871 0.7301 0.0
H212 H 0.40261 0.72021 0.71898 0.0
H213 H 0.42842 0.6658 0.70746 0.0
H214 H 0.40928 0.58082 0.70248 0.0
H215 H 0.35253 0.49551 0.70559 0.0
Mn216 Mn 0.84487 0.42802 0.52546 0.0
Mn217 Mn 0.76603 0.37029 0.48587 0.0
C218 C 0.76966 0.38356 0.53529 0.0
C219 C 0.89897 0.43202 0.54989 0.0
C220 C 0.80628 0.47378 0.49555 0.0
O221 O 0.88199 0.42983 0.49925 0.0
O222 O 0.82801 0.39301 0.47293 0.0
C223 C 0.77761 0.28812 0.48166 0.0
N224 N 0.75068 0.30607 0.48634 0.0
C225 C 0.68667 0.22883 0.49435 0.0
C226 C 0.71365 0.20948 0.48948 0.0
C227 C 0.75934 0.23928 0.48315 0.0
C228 C 0.70677 0.27775 0.49262 0.0
H229 H 0.81278 0.31093 0.47686 0.0
C230 C 0.86957 0.41495 0.47951 0.0
O231 O 0.90133 0.46993 0.54228 0.0
O232 O 0.86532 0.39169 0.54328 0.0
N233 N 0.70491 0.34668 0.49578 0.0
C234 C 0.6835 0.37097 0.49984 0.0
C235 C 0.6376 0.34636 0.50643 0.0
C236 C 0.6141 0.29707 0.50853 0.0
C237 C 0.63672 0.27282 0.504 0.0
C238 C 0.68246 0.29923 0.49747 0.0
H239 H 0.70132 0.40885 0.49814 0.0
O240 O 0.79912 0.41675 0.54825 0.0
O241 O 0.78581 0.37625 0.51703 0.0
O242 O 0.83346 0.4769 0.51088 0.0
O243 O 0.7794 0.43558 0.48517 0.0
C244 C 0.61568 0.22348 0.50569 0.0
C245 C 0.64067 0.20151 0.50093 0.0
H246 H 0.69969 0.17183 0.49061 0.0
H247 H 0.78042 0.22463 0.47944 0.0
H248 H 0.62033 0.3653 0.50979 0.0
H249 H 0.57866 0.27821 0.51357 0.0
H250 H 0.58033 0.20211 0.5107 0.0
H251 H 0.62417 0.16357 0.50238 0.0
Mn252 Mn 0.47037 0.93239 0.84527 0.0
Mn253 Mn 0.55766 0.91674 0.84856 0.0
C254 C 0.53497 0.98411 0.82675 0.0
C255 C 0.40056 0.91164 0.82917 0.0
C256 C 0.54595 0.97396 0.88185 0.0
O257 O 0.44169 0.86586 0.85594 0.0
O258 O 0.50532 0.87206 0.86854 0.0
C259 C 0.50618 0.82529 0.82462 0.0
N260 N 0.54243 0.87031 0.82579 0.0
C261 C 0.57024 0.86234 0.79023 0.0
C262 C 0.53283 0.81623 0.78854 0.0
C263 C 0.50072 0.79761 0.80584 0.0
C264 C 0.57342 0.88861 0.80916 0.0
H265 H 0.48162 0.81032 0.83789 0.0
C266 C 0.46189 0.85271 0.8689 0.0
O267 O 0.40957 0.92706 0.84959 0.0
O268 O 0.43217 0.90997 0.81832 0.0
N269 N 0.61088 0.95576 0.83124 0.0
C270 C 0.64966 0.99553 0.83792 0.0
C271 C 0.68748 0.01684 0.82363 0.0
C272 C 0.68536 0.99651 0.80282 0.0
C273 C 0.64636 0.95354 0.79708 0.0
C274 C 0.60996 0.93368 0.81216 0.0
H275 H 0.65165 0.0107 0.85411 0.0
O276 O 0.50545 0.99552 0.83255 0.0
O277 O 0.52493 0.94114 0.83156 0.0
O278 O 0.50439 0.95864 0.87581 0.0
O279 O 0.57324 0.96562 0.8711 0.0
C280 C 0.6433 0.92831 0.77763 0.0
C281 C 0.60508 0.88285 0.77413 0.0
H282 H 0.52878 0.79456 0.7742 0.0
H283 H 0.47198 0.76187 0.80477 0.0
H284 H 0.71851 0.04828 0.82884 0.0
H285 H 0.7147 0.01296 0.79189 0.0
H286 H 0.67073 0.94297 0.76556 0.0
H287 H 0.60347 0.86342 0.75931 0.0
Mn288 Mn 0.59071 0.38309 0.25917 0.0
Mn289 Mn 0.69843 0.48052 0.25933 0.0
C290 C 0.64692 0.3906 0.28618 0.0
C291 C 0.5762 0.42637 0.2897 0.0
C292 C 0.66794 0.40329 0.22582 0.0
O293 O 0.58465 0.42696 0.23834 0.0
O294 O 0.6547 0.49298 0.24223 0.0
C295 C 0.68581 0.54882 0.28528 0.0
N296 N 0.70518 0.52209 0.28311 0.0
C297 C 0.74878 0.55466 0.31671 0.0
C298 C 0.72789 0.58113 0.31974 0.0
C299 C 0.69658 0.57852 0.30385 0.0
C300 C 0.73697 0.52604 0.29775 0.0
H301 H 0.66225 0.54732 0.27295 0.0
C302 C 0.61394 0.47012 0.23403 0.0
O303 O 0.54807 0.38496 0.28349 0.0
O304 O 0.61368 0.44342 0.27937 0.0
N305 N 0.74197 0.47182 0.27525 0.0
C306 C 0.75776 0.4427 0.27028 0.0
C307 C 0.78926 0.44088 0.28458 0.0
C308 C 0.8041 0.46894 0.30385 0.0
C309 C 0.78723 0.49853 0.30866 0.0
C310 C 0.75606 0.49899 0.29373 0.0
H311 H 0.74608 0.42068 0.2556 0.0
O312 O 0.61145 0.35108 0.28099 0.0
O313 O 0.64858 0.42556 0.27544 0.0
O314 O 0.62859 0.37748 0.23428 0.0
O315 O 0.69765 0.44259 0.23413 0.0
C316 C 0.7996 0.52703 0.32785 0.0
C317 C 0.78047 0.55517 0.33184 0.0
H318 H 0.73585 0.60379 0.33414 0.0
H319 H 0.68076 0.59932 0.3059 0.0
H320 H 0.80191 0.41776 0.28082 0.0
H321 H 0.82819 0.46724 0.31491 0.0
H322 H 0.82361 0.52738 0.3397 0.0
H323 H 0.79012 0.57681 0.34669 0.0
Mn324 Mn 0.16319 0.58105 0.53565 0.0
Mn325 Mn 0.25169 0.60426 0.50329 0.0
C326 C 0.22804 0.59053 0.55166 0.0
C327 C 0.11822 0.60137 0.55596 0.0
C328 C 0.17557 0.50659 0.51142 0.0
O329 O 0.14818 0.60168 0.50706 0.0
O330 O 0.1999 0.59916 0.48539 0.0
C331 C 0.27594 0.70124 0.49135 0.0
N332 N 0.28746 0.67139 0.50073 0.0
C333 C 0.364 0.73521 0.50769 0.0
C334 C 0.35284 0.76665 0.49822 0.0
C335 C 0.30859 0.74958 0.49006 0.0
C336 C 0.32985 0.68751 0.50879 0.0
H337 H 0.24225 0.68824 0.4847 0.0
C338 C 0.16349 0.60041 0.48802 0.0
O339 O 0.10161 0.56013 0.54695 0.0
O340 O 0.16125 0.6317 0.55291 0.0
N341 N 0.30394 0.60923 0.51745 0.0
C342 C 0.31025 0.5738 0.52426 0.0
C343 C 0.35279 0.5848 0.53276 0.0
C344 C 0.38891 0.6319 0.53332 0.0
C345 C 0.38208 0.66759 0.52539 0.0
C346 C 0.33862 0.65458 0.51757 0.0
H347 H 0.28286 0.53741 0.52339 0.0
O348 O 0.18896 0.56709 0.56167 0.0
O349 O 0.22872 0.61 0.53254 0.0
O350 O 0.15006 0.51856 0.52122 0.0
O351 O 0.2167 0.53557 0.50567 0.0
C352 C 0.41692 0.71542 0.52452 0.0
C353 C 0.40786 0.74923 0.51571 0.0
H354 H 0.37811 0.80388 0.49693 0.0
H355 H 0.29982 0.77357 0.48257 0.0
H356 H 0.35775 0.55702 0.53877 0.0
H357 H 0.42188 0.64017 0.53959 0.0
H358 H 0.45094 0.72652 0.53035 0.0
H359 H 0.43504 0.78583 0.51492 0.0
Mn360 Mn 0.66721 0.18503 0.86808 0.0
Mn361 Mn 0.62751 0.25313 0.88488 0.0
C362 C 0.61608 0.19202 0.84603 0.0
C363 C 0.72478 0.18324 0.84796 0.0
C364 C 0.5915 0.15444 0.9026 0.0
O365 O 0.71099 0.22301 0.89241 0.0
O366 O 0.68252 0.26769 0.90319 0.0
C367 C 0.70506 0.34431 0.8694 0.0
N368 N 0.65986 0.31091 0.86862 0.0
C369 C 0.64668 0.35323 0.83992 0.0
C370 C 0.69304 0.38825 0.84052 0.0
C371 C 0.72234 0.38374 0.85532 0.0
C372 C 0.63141 0.31479 0.85438 0.0
H373 H 0.72777 0.34075 0.8806 0.0
C374 C 0.71139 0.25409 0.90493 0.0
O375 O 0.69983 0.14956 0.86196 0.0
O376 O 0.71625 0.21658 0.84602 0.0
N377 N 0.57504 0.24254 0.86857 0.0
C378 C 0.53124 0.20581 0.87018 0.0
C379 C 0.49748 0.20506 0.8566 0.0
C380 C 0.50915 0.24199 0.8415 0.0
C381 C 0.5544 0.27966 0.84031 0.0
C382 C 0.58644 0.27874 0.85444 0.0
H383 H 0.52219 0.17718 0.88166 0.0
O384 O 0.62107 0.15599 0.84457 0.0
O385 O 0.64155 0.22313 0.86096 0.0
O386 O 0.61764 0.14526 0.89127 0.0
O387 O 0.59232 0.19343 0.90156 0.0
C388 C 0.56896 0.31808 0.82567 0.0
C389 C 0.61509 0.35479 0.82544 0.0
H390 H 0.70653 0.41865 0.82964 0.0
H391 H 0.75821 0.41051 0.85581 0.0
H392 H 0.46263 0.17592 0.85766 0.0
H393 H 0.4831 0.24111 0.83093 0.0
H394 H 0.54499 0.31972 0.81449 0.0
H395 H 0.62592 0.38407 0.81405 0.0
Mn396 Mn 0.42124 0.65957 0.26365 0.0
Mn397 Mn 0.32234 0.55793 0.2496 0.0
C398 C 0.35194 0.63275 0.28535 0.0
C399 C 0.42856 0.60616 0.29124 0.0
C400 C 0.35809 0.64747 0.22383 0.0
O401 O 0.44289 0.63027 0.24131 0.0
O402 O 0.37722 0.56012 0.23562 0.0
C403 C 0.33278 0.48334 0.27064 0.0
N404 N 0.31062 0.50747 0.2693 0.0
C405 C 0.25473 0.45591 0.29609 0.0
C406 C 0.27835 0.43204 0.29857 0.0
C407 C 0.31723 0.44545 0.28557 0.0
C408 C 0.27164 0.49306 0.28075 0.0
H409 H 0.36205 0.49297 0.26032 0.0
C410 C 0.42019 0.58951 0.23227 0.0
O411 O 0.45497 0.65023 0.29048 0.0
O412 O 0.3965 0.59197 0.27716 0.0
N413 N 0.26883 0.55313 0.26222 0.0
C414 C 0.25054 0.58039 0.25812 0.0
C415 C 0.21123 0.57144 0.26964 0.0
C416 C 0.1912 0.53463 0.28528 0.0
C417 C 0.21074 0.50715 0.28926 0.0
C418 C 0.24986 0.51767 0.27723 0.0
H419 H 0.26611 0.60902 0.24628 0.0
O420 O 0.38536 0.67553 0.28523 0.0
O421 O 0.35972 0.60615 0.27243 0.0
O422 O 0.39195 0.67222 0.23658 0.0
O423 O 0.3288 0.60456 0.22773 0.0
C424 C 0.19328 0.47012 0.3049 0.0
C425 C 0.21518 0.44442 0.30826 0.0
H426 H 0.26663 0.40302 0.31019 0.0
H427 H 0.33511 0.42657 0.28702 0.0
H428 H 0.19649 0.59297 0.26656 0.0
H429 H 0.16098 0.52797 0.2942 0.0
H430 H 0.16308 0.46119 0.31447 0.0
H431 H 0.20142 0.416 0.32031 0.0
H432 H 0.78306 0.16662 0.01447 0.0
H433 H 0.81059 0.30069 0.04019 0.0
H434 H 0.78739 0.19495 -0.0232 0.0
H435 H 0.81483 0.32894 0.0023 0.0
H436 H 0.70718 0.2955 0.94366 0.0
H437 H 0.74505 0.29909 -0.02142 0.0
H438 H 0.82421 0.24995 0.9451 0.0
H439 H 0.78637 0.24624 0.91016 0.0
C440 C 0.79231 0.20293 0.01216 0.0
C441 C 0.79492 0.23074 0.03044 0.0
C442 C 0.79467 0.21923 -0.00956 0.0
C443 C 0.80008 0.26374 -0.01339 0.0
C444 C 0.80953 0.29407 0.00478 0.0
C445 C 0.80746 0.27789 0.02651 0.0
C446 C 0.73384 0.28715 0.94354 0.0
C447 C 0.74299 0.26964 0.92421 0.0
C448 C 0.75571 0.28931 0.96358 0.0
C449 C 0.78719 0.2741 0.96465 0.0
C450 C 0.79966 0.26122 0.94486 0.0
C451 C 0.77792 0.25917 0.92484 0.0
H452 H 0.32366 0.677 0.31373 0.0
H453 H 0.33393 0.55332 0.30748 0.0
H454 H 0.31392 0.66383 0.35413 0.0
H455 H 0.31996 0.53778 0.34635 0.0
H456 H 0.41362 0.65848 0.41285 0.0
H457 H 0.37957 0.6703 0.37956 0.0
H458 H 0.27243 0.52383 0.38126 0.0
H459 H 0.30684 0.51212 0.41435 0.0
C460 C 0.32066 0.64528 0.32059 0.0
C461 C 0.32784 0.61516 0.30693 0.0
C462 C 0.31531 0.63793 0.34372 0.0
C463 C 0.31574 0.59954 0.35341 0.0
C464 C 0.31808 0.56695 0.33944 0.0
C465 C 0.32509 0.57528 0.31669 0.0
C466 C 0.38138 0.6296 0.40683 0.0
C467 C 0.36287 0.58438 0.41599 0.0
C468 C 0.36177 0.63631 0.38777 0.0
C469 C 0.32374 0.59772 0.37761 0.0
C470 C 0.3019 0.55406 0.38864 0.0
C471 C 0.32157 0.54736 0.40756 0.0
H472 H 0.74677 0.29529 0.54631 0.0
H473 H 0.6998 0.39286 0.55029 0.0
H474 H 0.71508 0.26443 0.58237 0.0
H475 H 0.66276 0.35857 0.58554 0.0
H476 H 0.72828 0.39212 0.65512 0.0
H477 H 0.69438 0.37758 0.61868 0.0
H478 H 0.68852 0.24378 0.61626 0.0
H479 H 0.72731 0.26192 0.65204 0.0
C480 C 0.7265 0.3077 0.55425 0.0
C481 C 0.72726 0.3476 0.546 0.0
C482 C 0.70833 0.29023 0.57536 0.0
C483 C 0.68931 0.31161 0.58822 0.0
C484 C 0.68035 0.34363 0.57721 0.0
C485 C 0.70034 0.36246 0.55653 0.0
C486 C 0.71811 0.35881 0.64709 0.0
C487 C 0.73136 0.32873 0.65604 0.0
C488 C 0.69844 0.3501 0.62588 0.0
C489 C 0.69095 0.31055 0.61332 0.0
C490 C 0.69645 0.27623 0.62442 0.0
C491 C 0.71785 0.28598 0.64525 0.0
H492 H 0.34811 0.7499 0.00114 0.0
H493 H 0.28001 0.81234 0.9679 0.0
H494 H 0.38228 0.74784 0.96593 0.0
H495 H 0.31402 0.80984 0.93275 0.0
H496 H 0.37005 0.79167 0.87004 0.0
H497 H 0.32274 0.76174 0.90328 0.0
H498 H 0.44363 0.81647 0.94393 0.0
H499 H 0.49115 0.8466 0.91064 0.0
C500 C 0.33905 0.76171 -0.01375 0.0
C501 C 0.31159 0.78189 -0.01248 0.0
C502 C 0.3591 0.76088 0.96609 0.0
C503 C 0.35147 0.77931 0.94663 0.0
C504 C 0.32052 0.79519 0.94743 0.0
C505 C 0.3009 0.79657 0.96764 0.0
C506 C 0.38659 0.796 0.886 0.0
C507 C 0.43449 0.82196 0.88769 0.0
C508 C 0.35939 0.77909 0.90505 0.0
C509 C 0.37938 0.78739 0.92626 0.0
C510 C 0.42713 0.80926 0.92781 0.0
C511 C 0.45445 0.82639 0.9087 0.0
H512 H 0.624 0.43618 0.42173 0.0
H513 H 0.52071 0.29984 0.3972 0.0
H514 H 0.6768 0.44039 0.39328 0.0
H515 H 0.57306 0.30422 0.3684 0.0
H516 H 0.66151 0.45942 0.31544 0.0
H517 H 0.65569 0.45245 0.35494 0.0
H518 H 0.64812 0.31853 0.35106 0.0
H519 H 0.65849 0.32811 0.31058 0.0
C520 C 0.61345 0.40616 0.41085 0.0
C521 C 0.56851 0.36773 0.41148 0.0
C522 C 0.64364 0.40849 0.39464 0.0
C523 C 0.62883 0.37308 0.37838 0.0
C524 C 0.58563 0.33195 0.38077 0.0
C525 C 0.55549 0.32943 0.39719 0.0
C526 C 0.66346 0.43089 0.3228 0.0
C527 C 0.66222 0.39533 0.3096 0.0
C528 C 0.65901 0.4262 0.34579 0.0
C529 C 0.65109 0.38469 0.35621 0.0
C530 C 0.65423 0.35094 0.34345 0.0
C531 C 0.66039 0.35658 0.32031 0.0
H532 H 0.28656 0.67616 0.56896 0.0
H533 H 0.25681 0.53326 0.56705 0.0
H534 H 0.32029 0.68659 0.60532 0.0
H535 H 0.29568 0.54458 0.60236 0.0
H536 H 0.24927 0.53782 0.67452 0.0
H537 H 0.27239 0.53823 0.63677 0.0
H538 H 0.35181 0.69094 0.63784 0.0
H539 H 0.32392 0.68941 0.67522 0.0
C540 C 0.29026 0.64798 0.57571 0.0
C541 C 0.26861 0.60382 0.56534 0.0
C542 C 0.30959 0.65366 0.59691 0.0
C543 C 0.30867 0.61542 0.60797 0.0
C544 C 0.29461 0.5741 0.59542 0.0
C545 C 0.27339 0.56783 0.57471 0.0
C546 C 0.27353 0.57144 0.66707 0.0
C547 C 0.28346 0.61351 0.67748 0.0
C548 C 0.28677 0.57197 0.64497 0.0
C549 C 0.3116 0.61489 0.6331 0.0
C550 C 0.32993 0.657 0.64554 0.0
C551 C 0.31515 0.65632 0.66737 0.0
H552 H 0.60778 0.03048 0.0223 0.0
H553 H 0.67119 0.17039 -0.00575 0.0
H554 H 0.58535 0.99646 -0.01408 0.0
H555 H 0.64614 0.13594 0.9571 0.0
H556 H 0.62273 0.0591 0.89022 0.0
H557 H 0.65172 0.09655 0.92654 0.0
H558 H 0.53685 0.97691 0.95823 0.0
H559 H 0.508 0.9411 0.92212 0.0
C560 C 0.61608 0.05416 0.00829 0.0
C561 C 0.64099 0.10329 0.01133 0.0
C562 C 0.60267 0.03443 -0.01283 0.0
C563 C 0.61271 0.06297 0.96816 0.0
C564 C 0.63748 0.11244 0.97117 0.0
C565 C 0.65127 0.13239 -0.00745 0.0
C566 C 0.60352 0.04155 0.9051 0.0
C567 C 0.56233 0.99809 0.90346 0.0
C568 C 0.62004 0.06293 0.92594 0.0
C569 C 0.5963 0.04059 0.94565 0.0
C570 C 0.55611 0.99595 0.94371 0.0
C571 C 0.53907 0.97534 0.92294 0.0
H572 H 0.5925 0.51584 0.29199 0.0
H573 H 0.54303 0.38885 0.33045 0.0
H574 H 0.58544 0.55605 0.32442 0.0
H575 H 0.53362 0.42766 0.3627 0.0
H576 H 0.50935 0.58925 0.37853 0.0
H577 H 0.53225 0.56099 0.34659 0.0
H578 H 0.56957 0.48354 0.39084 0.0
H579 H 0.54299 0.50895 0.42259 0.0
C580 C 0.58056 0.49678 0.30752 0.0
C581 C 0.56904 0.44965 0.30888 0.0
C582 C 0.57577 0.51951 0.32606 0.0
C583 C 0.55901 0.4954 0.34639 0.0
C584 C 0.54727 0.44787 0.34755 0.0
C585 C 0.552 0.42525 0.32898 0.0
C586 C 0.52315 0.56679 0.38141 0.0
C587 C 0.52345 0.55045 0.40295 0.0
C588 C 0.5365 0.5506 0.36308 0.0
C589 C 0.55149 0.51854 0.36598 0.0
C590 C 0.55603 0.50616 0.38785 0.0
C591 C 0.54152 0.52132 0.40609 0.0
H592 H 0.14089 0.64226 0.59704 0.0
H593 H 0.03135 0.57875 0.54942 0.0
H594 H 0.0869 0.6296 0.62644 0.0
H595 H 0.97666 0.56168 0.5785 0.0
H596 H 0.87734 0.50133 0.63122 0.0
H597 H 0.93346 0.5593 0.6059 0.0
H598 H 0.04113 0.57069 0.64831 0.0
H599 H 0.98424 0.51625 0.67439 0.0
C600 C 0.10521 0.62671 0.59281 0.0
C601 C 0.08979 0.60997 0.57123 0.0
C602 C 0.07384 0.61826 0.60977 0.0
C603 C 0.02648 0.59185 0.60549 0.0
C604 C 0.01226 0.58149 0.58307 0.0
C605 C 0.0437 0.59089 0.56615 0.0
C606 C 0.91316 0.51699 0.63519 0.0
C607 C 0.92683 0.50234 0.65401 0.0
C608 C 0.94563 0.54996 0.62048 0.0
C609 C 0.99257 0.56823 0.62401 0.0
C610 C 1.00577 0.55727 0.64433 0.0
C611 C 0.97317 0.52502 0.65922 0.0
H612 H 0.4284 0.01292 0.01986 0.0
H613 H 0.41511 0.89977 -0.02106 0.0
H614 H 0.47399 0.06967 -0.00852 0.0
H615 H 0.45996 0.95624 0.9499 0.0
H616 H 0.52048 0.06502 0.89482 0.0
H617 H 0.46825 0.00839 0.92239 0.0
H618 H 0.54283 0.10946 0.97469 0.0
H619 H 0.59142 0.16659 0.94687 0.0
C620 C 0.4366 1.00041 0.00501 0.0
C621 C 0.41988 0.95223 0.00197 0.0
C622 C 0.46272 0.03302 -0.01144 0.0
C623 C 0.47229 0.01827 0.96837 0.0
C624 C 0.45454 0.96958 0.96526 0.0
C625 C 0.42928 0.93703 -0.01798 0.0
C626 C 0.52507 0.07483 0.91226 0.0
C627 C 0.56016 0.11962 0.91891 0.0
C628 C 0.49537 0.04242 0.92812 0.0
C629 C 0.50123 0.05372 0.95102 0.0
C630 C 0.53621 0.09924 0.95735 0.0
C631 C 0.56468 0.13197 0.94145 0.0
H632 H 0.43719 0.62037 0.33607 0.0
H633 H 0.42321 0.5225 0.28511 0.0
H634 H 0.43152 0.56537 0.36471 0.0
H635 H 0.41397 0.46555 0.31337 0.0
H636 H 0.39315 0.45227 0.41437 0.0
H637 H 0.38577 0.49691 0.38386 0.0
H638 H 0.44883 0.44495 0.33922 0.0
H639 H 0.45154 0.39709 0.3691 0.0
C640 C 0.43297 0.58694 0.33106 0.0
C641 C 0.42994 0.57518 0.30846 0.0
C642 C 0.4288 0.55484 0.34745 0.0
C643 C 0.42167 0.51022 0.34159 0.0
C644 C 0.4197 0.49933 0.31878 0.0
C645 C 0.42421 0.53162 0.30248 0.0
C646 C 0.4041 0.44954 0.39781 0.0
C647 C 0.42308 0.42149 0.39405 0.0
C648 C 0.40081 0.47585 0.38043 0.0
C649 C 0.41819 0.47625 0.35912 0.0
C650 C 0.43464 0.44571 0.35519 0.0
C651 C 0.43639 0.41817 0.37238 0.0
H652 H 0.14233 0.53799 0.62979 0.0
H653 H 0.02889 0.48046 0.6751 0.0
H654 H 0.09091 0.49662 0.59891 0.0
H655 H 0.97621 0.44129 0.6442 0.0
H656 H 0.88503 0.37643 0.58619 0.0
H657 H 0.94053 0.39015 0.61535 0.0
H658 H 0.04411 0.50873 0.57791 0.0
H659 H 0.98914 0.49376 0.54886 0.0
C660 C 0.10602 0.51679 0.63295 0.0
C661 C 0.08878 0.51434 0.65433 0.0
C662 C 0.07641 0.49317 0.6153 0.0
C663 C 0.02887 0.46709 0.61871 0.0
C664 C 0.01235 0.46131 0.64068 0.0
C665 C 0.04223 0.48463 0.65837 0.0
C666 C 0.92005 0.40486 0.58419 0.0
C667 C 0.93294 0.43514 0.56576 0.0
C668 C 0.95179 0.41308 0.60095 0.0
C669 C 0.9969 0.4516 0.5994 0.0
C670 C 1.01001 0.47901 0.57989 0.0
C671 C 0.97839 0.47098 0.56332 0.0
H672 H 0.35399 0.91469 0.11439 0.0
H673 H 0.37898 0.97524 0.04899 0.0
H674 H 0.43195 0.97386 0.12487 0.0
H675 H 0.45147 0.03812 0.06025 0.0
H676 H 0.58584 0.06158 0.05815 0.0
H677 H 0.50482 0.0101 0.06052 0.0
H678 H 0.50699 0.05508 0.12821 0.0
H679 H 0.59053 0.10435 0.12628 0.0
C680 C 0.374 0.94307 0.10277 0.0
C681 C 0.36074 0.93771 0.08013 0.0
C682 C 0.4192 0.97655 0.10877 0.0
C683 C 0.4489 0.00828 0.09267 0.0
C684 C 0.43018 0.01201 0.07256 0.0
C685 C 0.3867 0.97661 0.06627 0.0
C686 C 0.57004 0.05799 0.07412 0.0
C687 C 0.59534 0.08569 0.09228 0.0
C688 C 0.52294 0.0297 0.07527 0.0
C689 C 0.49922 0.03041 0.09421 0.0
C690 C 0.52428 0.05442 0.11326 0.0
C691 C 0.57214 0.08185 0.11227 0.0
H692 H 0.37078 0.36355 0.48413 0.0
H693 H 0.47707 0.35625 0.5193 0.0
H694 H 0.38549 0.43045 0.50684 0.0
H695 H 0.49327 0.42488 0.54101 0.0
H696 H 0.54435 0.57218 0.49479 0.0
H697 H 0.52661 0.49763 0.51104 0.0
H698 H 0.40977 0.48665 0.54401 0.0
H699 H 0.42912 0.56266 0.52895 0.0
C700 C 0.39533 0.37426 0.49756 0.0
C701 C 0.42424 0.35607 0.49906 0.0
C702 C 0.40383 0.41278 0.51067 0.0
C703 C 0.44163 0.43377 0.52512 0.0
C704 C 0.46431 0.40968 0.5298 0.0
C705 C 0.45487 0.37022 0.51718 0.0
C706 C 0.51695 0.55582 0.50685 0.0
C707 C 0.4863 0.57168 0.50932 0.0
C708 C 0.50663 0.5128 0.51621 0.0
C709 C 0.46555 0.48549 0.52795 0.0
C710 C 0.44113 0.50665 0.53466 0.0
C711 C 0.45236 0.5504 0.52586 0.0
H712 H 0.11573 0.56494 0.77645 0.0
H713 H 0.06939 0.4366 0.73953 0.0
H714 H 0.03713 0.53762 0.78744 0.0
H715 H 0.99117 0.40883 0.75062 0.0
H716 H 0.90782 0.51399 0.74418 0.0
H717 H 0.98168 0.53367 0.7589 0.0
H718 H 0.92658 0.38816 0.77746 0.0
H719 H 0.85197 0.36889 0.76322 0.0
C720 C 0.0891 0.52958 0.77191 0.0
C721 C 0.09858 0.50262 0.75734 0.0
C722 C 0.04398 0.51416 0.77795 0.0
C723 C 1.00774 0.4713 0.76968 0.0
C724 C 0.01814 0.4418 0.75748 0.0
C725 C 0.06308 0.45755 0.75118 0.0
C726 C 0.91076 0.48679 0.75264 0.0
C727 C 0.8743 0.43984 0.75228 0.0
C728 C 0.95327 0.49798 0.76104 0.0
C729 C 0.96036 0.46228 0.76895 0.0
C730 C 0.92235 0.41637 0.77126 0.0
C731 C 0.87946 0.40539 0.76327 0.0
H732 H 0.8927 0.47894 0.44654 0.0
H733 H 0.93215 0.38876 0.47826 0.0
H734 H 0.97095 0.53036 0.43345 0.0
H735 H 1.00976 0.43912 0.46504 0.0
H736 H 0.14806 0.53729 0.45522 0.0
H737 H 0.07367 0.48692 0.43802 0.0
H738 H 0.0292 0.57898 0.46266 0.0
H739 H 0.10306 0.6287 0.48 0.0
C740 C 0.91745 0.46846 0.44943 0.0
C741 C 0.9067 0.43006 0.46337 0.0
C742 C 0.96231 0.49809 0.44211 0.0
C743 C 0.99673 0.48929 0.4485 0.0
C744 C 0.98416 0.44689 0.45966 0.0
C745 C 0.9396 0.41783 0.46726 0.0
C746 C 0.12333 0.54832 0.45582 0.0
C747 C 0.13089 0.58632 0.46937 0.0
C748 C 0.08054 0.51919 0.44608 0.0
C749 C 0.04518 0.52824 0.44947 0.0
C750 C 0.05556 0.57082 0.45974 0.0
C751 C 0.098 0.59947 0.46975 0.0
H752 H 0.51765 0.9863 0.78328 0.0
H753 H 0.62187 0.0556 0.83317 0.0
H754 H 0.54187 0.06261 0.7664 0.0
H755 H 0.65203 0.1289 0.81354 0.0
H756 H 0.52985 0.15805 0.82873 0.0
H757 H 0.52238 0.10632 0.79873 0.0
H758 H 0.66535 0.19656 0.78395 0.0
H759 H 0.67082 0.25058 0.81288 0.0
C760 C 0.54888 0.01679 0.78921 0.0
C761 C 0.56787 0.01449 0.80966 0.0
C762 C 0.56274 0.06066 0.77942 0.0
C763 C 0.5978 0.10215 0.78923 0.0
C764 C 0.6242 0.09774 0.80591 0.0
C765 C 0.6078 0.05484 0.81695 0.0
C766 C 0.55875 0.16956 0.81776 0.0
C767 C 0.60247 0.20418 0.82497 0.0
C768 C 0.55463 0.13917 0.80049 0.0
C769 C 0.59431 0.14509 0.79031 0.0
C770 C 0.6344 0.18968 0.7922 0.0
C771 C 0.63735 0.22088 0.80889 0.0
H772 H 0.54953 0.43467 0.20156 0.0
H773 H 0.63908 0.56268 0.23764 0.0
H774 H 0.50417 0.46784 0.18932 0.0
H775 H 0.59303 0.59525 0.22614 0.0
H776 H 0.39907 0.4992 0.22418 0.0
H777 H 0.45254 0.47543 0.21362 0.0
H778 H 0.55554 0.62085 0.20079 0.0
H779 H 0.50221 0.64477 0.212 0.0
C780 C 0.56021 0.47044 0.20637 0.0
C781 C 0.59684 0.49561 0.22116 0.0
C782 C 0.53418 0.48934 0.19939 0.0
C783 C 0.5441 0.53349 0.20731 0.0
C784 C 0.5843 0.56104 0.21973 0.0
C785 C 0.61068 0.54229 0.2265 0.0
C786 C 0.43262 0.52596 0.21848 0.0
C787 C 0.44697 0.57391 0.21969 0.0
C788 C 0.46334 0.51235 0.21222 0.0
C789 C 0.50874 0.54648 0.20685 0.0
C790 C 0.52118 0.59391 0.20537 0.0
C791 C 0.4906 0.60753 0.2118 0.0
H792 H 0.74815 0.44734 0.20236 0.0
H793 H 0.60968 0.3289 0.19936 0.0
H794 H 0.76191 0.42887 0.16493 0.0
H795 H 0.62378 0.31028 0.16218 0.0
H796 H 0.64541 0.29863 0.09092 0.0
H797 H 0.63884 0.33981 0.12328 0.0
H798 H 0.76842 0.36562 0.1477 0.0
H799 H 0.77472 0.32488 0.11548 0.0
C800 C 0.72072 0.41719 0.19383 0.0
C801 C 0.67785 0.38946 0.20401 0.0
C802 C 0.72859 0.4068 0.17232 0.0
C803 C 0.69374 0.36859 0.16044 0.0
C804 C 0.65103 0.34069 0.17065 0.0
C805 C 0.6432 0.35091 0.19217 0.0
C806 C 0.67346 0.31537 0.10263 0.0
C807 C 0.71064 0.30893 0.10077 0.0
C808 C 0.66938 0.33814 0.12135 0.0
C809 C 0.70266 0.35502 0.13829 0.0
C810 C 0.74223 0.35313 0.135 0.0
C811 C 0.74602 0.33004 0.11647 0.0
H812 H 0.15925 0.46231 0.47185 0.0
H813 H 0.15825 0.43958 0.5425 0.0
H814 H 0.18437 0.40781 0.46521 0.0
H815 H 0.18262 0.38336 0.53601 0.0
H816 H 0.30459 0.42593 0.4529 0.0
H817 H 0.22625 0.37107 0.4646 0.0
H818 H 0.26077 0.43042 0.53096 0.0
H819 H 0.3379 0.48354 0.51917 0.0
C820 C 0.16141 0.44297 0.4859 0.0
C821 C 0.1593 0.45672 0.50768 0.0
C822 C 0.17602 0.41135 0.48219 0.0
C823 C 0.19063 0.39535 0.50035 0.0
C824 C 0.17508 0.39815 0.52171 0.0
C825 C 0.16075 0.43019 0.5255 0.0
C826 C 0.29565 0.42507 0.47028 0.0
C827 C 0.32604 0.46012 0.48499 0.0
C828 C 0.25071 0.39375 0.47703 0.0
C829 C 0.23589 0.3991 0.49815 0.0
C830 C 0.26961 0.42643 0.51415 0.0
C831 C 0.31424 0.45756 0.50743 0.0
H832 H 0.80954 0.25561 0.84014 0.0
H833 H 0.71333 0.11377 0.81951 0.0
H834 H 0.84437 0.27332 0.80379 0.0
H835 H 0.74947 0.13002 0.78296 0.0
H836 H 0.8772 0.32152 0.73764 0.0
H837 H 0.87689 0.27594 0.76968 0.0
H838 H 0.73609 0.17085 0.75589 0.0
H839 H 0.73744 0.21508 0.72377 0.0
C840 C 0.79777 0.22715 0.82818 0.0
C841 C 0.75823 0.18352 0.83247 0.0
C842 C 0.81779 0.23728 0.8071 0.0
C843 C 0.79863 0.20377 0.78985 0.0
C844 C 0.76417 0.1574 0.79551 0.0
C845 C 0.7439 0.1475 0.81667 0.0
C846 C 0.84699 0.28752 0.74088 0.0
C847 C 0.80681 0.27273 0.72869 0.0
C848 C 0.84655 0.26152 0.75945 0.0
C849 C 0.80586 0.22049 0.76616 0.0
C850 C 0.76813 0.20224 0.75168 0.0
C851 C 0.76871 0.22797 0.73316 0.0
H852 H 0.41481 0.73663 0.20675 0.0
H853 H 0.29796 0.60055 0.19014 0.0
H854 H 0.41631 0.76316 0.16858 0.0
H855 H 0.30098 0.62599 0.15217 0.0
H856 H 0.2841 0.70519 0.09462 0.0
H857 H 0.28538 0.67414 0.13085 0.0
H858 H 0.43274 0.75515 0.13036 0.0
H859 H 0.43104 0.78811 0.09398 0.0
C860 C 0.38926 0.71249 0.19508 0.0
C861 C 0.356 0.66657 0.20172 0.0
C862 C 0.39061 0.72743 0.17306 0.0
C863 C 0.35898 0.69667 0.15713 0.0
C864 C 0.32554 0.65103 0.16393 0.0
C865 C 0.3238 0.63638 0.18587 0.0
C866 C 0.31687 0.71546 0.10195 0.0
C867 C 0.35746 0.74903 0.09145 0.0
C868 C 0.31766 0.6976 0.12283 0.0
C869 C 0.35917 0.71244 0.1338 0.0
C870 C 0.4001 0.74365 0.1226 0.0
C871 C 0.39925 0.76179 0.10156 0.0
H872 H 0.78568 0.50288 0.45736 0.0
H873 H 0.80391 0.52961 0.52803 0.0
H874 H 0.73154 0.52884 0.45653 0.0
H875 H 0.74903 0.55533 0.52732 0.0
H876 H 0.60396 0.50857 0.45593 0.0
H877 H 0.68403 0.56436 0.46455 0.0
H878 H 0.67316 0.48113 0.52228 0.0
H879 H 0.59402 0.42582 0.51348 0.0
C880 C 0.78025 0.51721 0.47246 0.0
C881 C 0.79724 0.51233 0.49289 0.0
C882 C 0.74925 0.53246 0.47204 0.0
C883 C 0.73426 0.54177 0.49214 0.0
C884 C 0.75911 0.5471 0.51169 0.0
C885 C 0.79063 0.53232 0.51207 0.0
C886 C 0.6182 0.50384 0.47114 0.0
C887 C 0.59371 0.46233 0.48371 0.0
C888 C 0.66401 0.53585 0.47609 0.0
C889 C 0.68534 0.52651 0.49368 0.0
C890 C 0.65811 0.48948 0.50851 0.0
C891 C 0.61272 0.45726 0.50337 0.0
H892 H 0.28519 0.74293 0.72681 0.0
H893 H 0.17334 0.66702 0.77235 0.0
H894 H 0.3152 0.81299 0.74981 0.0
H895 H 0.20248 0.73791 0.7955 0.0
H896 H 0.3251 0.83367 0.84444 0.0
H897 H 0.26573 0.77525 0.82025 0.0
H898 H 0.31451 0.87666 0.76649 0.0
H899 H 0.37544 0.93387 0.79055 0.0
C900 C 0.26596 0.74212 0.7413 0.0
C901 C 0.22683 0.70007 0.74773 0.0
C902 C 0.28301 0.78236 0.75455 0.0
C903 C 0.26144 0.7814 0.77471 0.0
C904 C 0.22025 0.73992 0.78026 0.0
C905 C 0.20322 0.6995 0.76691 0.0
C906 C 0.32146 0.84419 0.82783 0.0
C907 C 0.35472 0.88814 0.81931 0.0
C908 C 0.28751 0.81054 0.81381 0.0
C909 C 0.28609 0.82062 0.7911 0.0
C910 C 0.31542 0.86711 0.78366 0.0
C911 C 0.34986 0.9003 0.79754 0.0
loop_
_geom_bond_atom_site_label_1
_geom_bond_atom_site_label_2
_geom_bond_distance
_geom_bond_site_symmetry_2
_ccdc_geom_bond_type
Mn0 O5 2.095 . S
Mn0 O15 2.162 . S
Mn0 O16 2.297 . S
Mn0 O24 2.385 . S
Mn0 O25 2.209 . S
Mn0 O26 2.094 . S
Mn1 O6 2.121 . S
Mn1 N8 2.257 . S
Mn1 N17 2.282 . S
Mn1 O25 2.215 . S
Mn1 O27 2.117 . S
C2 O24 1.234 . S
C2 O25 1.283 . S
C3 O15 1.281 . S
C3 O16 1.236 . S
C4 O26 1.240 . S
C4 O27 1.264 . S
O5 Mn0 2.095 . S
O5 C14 1.250 . S
O6 Mn1 2.121 . S
O6 C14 1.258 . S
C7 N8 1.326 . S
C7 C11 1.460 . S
C7 H13 0.929 . S
N8 Mn1 2.257 . S
N8 C7 1.326 . S
N8 C12 1.362 . S
C9 C10 1.258 . S
C9 C12 1.431 . S
C9 C29 1.463 . S
C10 C9 1.258 . S
C10 C11 1.477 . S
C10 H30 0.931 . S
C11 C7 1.460 . S
C11 C10 1.477 . S
C11 H31 0.930 . S
C12 N8 1.362 . S
C12 C9 1.431 . S
C12 C22 1.476 . S
H13 C7 0.929 . S
C14 O5 1.250 . S
C14 O6 1.258 . S
O15 Mn0 2.162 . S
O15 C3 1.281 . S
O16 Mn0 2.297 . S
O16 C3 1.236 . S
N17 Mn1 2.282 . S
N17 C18 1.326 1_545 S
N17 C22 1.318 . S
C18 N17 1.326 1_565 S
C18 C19 1.463 . S
C18 H23 0.924 1_565 S
C19 C18 1.463 . S
C19 C20 1.291 . S
C19 H32 0.931 . S
C20 C19 1.291 . S
C20 C21 1.373 . S
C20 H33 0.929 . S
C21 C20 1.373 . S
C21 C22 1.396 1_565 S
C21 C28 1.403 . S
C22 C12 1.476 . S
C22 N17 1.318 . S
C22 C21 1.396 1_545 S
H23 C18 0.924 1_545 S
O24 Mn0 2.385 . S
O24 C2 1.234 . S
O25 Mn0 2.209 . S
O25 Mn1 2.215 . S
O25 C2 1.283 . S
O26 Mn0 2.094 . S
O26 C4 1.240 . S
O27 Mn1 2.117 . S
O27 C4 1.264 . S
C28 C21 1.403 . S
C28 C29 1.396 1_565 S
C28 H34 0.929 . S
C29 C9 1.463 . S
C29 C28 1.396 1_545 S
C29 H35 0.919 1_545 S
H30 C10 0.931 . S
H31 C11 0.930 . S
H32 C19 0.931 . S
H33 C20 0.929 . S
H34 C28 0.929 . S
H35 C29 0.919 1_565 S
Mn36 O41 2.095 . S
Mn36 O51 2.162 . S
Mn36 O52 2.297 . S
Mn36 O60 2.385 . S
Mn36 O61 2.209 . S
Mn36 O62 2.094 . S
Mn37 O42 2.121 . S
Mn37 N44 2.257 . S
Mn37 N53 2.282 . S
Mn37 O61 2.215 . S
Mn37 O63 2.117 . S
C38 O60 1.234 . S
C38 O61 1.283 . S
C39 O51 1.281 . S
C39 O52 1.236 . S
C40 O62 1.240 . S
C40 O63 1.264 . S
O41 Mn36 2.095 . S
O41 C50 1.250 . S
O42 Mn37 2.121 . S
O42 C50 1.258 . S
C43 N44 1.326 . S
C43 C47 1.460 . S
C43 H49 0.929 . S
N44 Mn37 2.257 . S
N44 C43 1.326 . S
N44 C48 1.362 . S
C45 C46 1.258 . S
C45 C48 1.431 . S
C45 C65 1.449 . S
C46 C45 1.258 . S
C46 C47 1.477 . S
C46 H66 0.931 . S
C47 C43 1.460 . S
C47 C46 1.477 . S
C47 H67 0.930 . S
C48 N44 1.362 . S
C48 C45 1.431 . S
C48 C58 1.476 . S
H49 C43 0.929 . S
C50 O41 1.250 . S
C50 O42 1.258 . S
O51 Mn36 2.162 . S
O51 C39 1.281 . S
O52 Mn36 2.297 . S
O52 C39 1.236 . S
N53 Mn37 2.282 . S
N53 C54 1.328 . S
N53 C58 1.318 . S
C54 N53 1.328 . S
C54 C55 1.457 . S
C54 H59 0.929 . S
C55 C54 1.457 . S
C55 C56 1.291 . S
C55 H68 0.931 . S
C56 C55 1.291 . S
C56 C57 1.373 . S
C56 H69 0.929 . S
C57 C56 1.373 . S
C57 C58 1.396 . S
C57 C64 1.403 . S
C58 C48 1.476 . S
C58 N53 1.318 . S
C58 C57 1.396 . S
H59 C54 0.929 . S
O60 Mn36 2.385 . S
O60 C38 1.234 . S
O61 Mn36 2.209 . S
O61 Mn37 2.215 . S
O61 C38 1.283 . S
O62 Mn36 2.094 . S
O62 C40 1.240 . S
O63 Mn37 2.117 . S
O63 C40 1.264 . S
C64 C57 1.403 . S
C64 C65 1.399 . S
C64 H70 0.929 . S
C65 C45 1.449 . S
C65 C64 1.399 . S
C65 H71 0.930 . S
H66 C46 0.931 . S
H67 C47 0.930 . S
H68 C55 0.931 . S
H69 C56 0.929 . S
H70 C64 0.929 . S
H71 C65 0.930 . S
Mn72 O77 2.095 . S
Mn72 O87 2.162 . S
Mn72 O88 2.297 . S
Mn72 O96 2.385 . S
Mn72 O97 2.209 . S
Mn72 O98 2.094 . S
Mn73 O78 2.121 . S
Mn73 N80 2.257 . S
Mn73 N89 2.282 . S
Mn73 O97 2.215 . S
Mn73 O99 2.117 . S
C74 O96 1.234 . S
C74 O97 1.283 . S
C75 O87 1.281 . S
C75 O88 1.236 . S
C76 O98 1.240 . S
C76 O99 1.264 . S
O77 Mn72 2.095 . S
O77 C86 1.250 . S
O78 Mn73 2.121 . S
O78 C86 1.258 . S
C79 N80 1.326 . S
C79 C83 1.460 . S
C79 H85 0.929 . S
N80 Mn73 2.257 . S
N80 C79 1.326 . S
N80 C84 1.362 . S
C81 C82 1.258 . S
C81 C84 1.431 . S
C81 C101 1.449 . S
C82 C81 1.258 . S
C82 C83 1.477 . S
C82 H102 0.931 . S
C83 C79 1.460 . S
C83 C82 1.477 . S
C83 H103 0.930 . S
C84 N80 1.362 . S
C84 C81 1.431 . S
C84 C94 1.476 . S
H85 C79 0.929 . S
C86 O77 1.250 . S
C86 O78 1.258 . S
O87 Mn72 2.162 . S
O87 C75 1.281 . S
O88 Mn72 2.297 . S
O88 C75 1.236 . S
N89 Mn73 2.282 . S
N89 C90 1.328 . S
N89 C94 1.318 . S
C90 N89 1.328 . S
C90 C91 1.457 . S
C90 H95 0.929 . S
C91 C90 1.457 . S
C91 C92 1.291 . S
C91 H104 0.931 . S
C92 C91 1.291 . S
C92 C93 1.373 . S
C92 H105 0.929 . S
C93 C92 1.373 . S
C93 C94 1.396 . S
C93 C100 1.403 . S
C94 C84 1.476 . S
C94 N89 1.318 . S
C94 C93 1.396 . S
H95 C90 0.929 . S
O96 Mn72 2.385 . S
O96 C74 1.234 . S
O97 Mn72 2.209 . S
O97 Mn73 2.215 . S
O97 C74 1.283 . S
O98 Mn72 2.094 . S
O98 C76 1.240 . S
O99 Mn73 2.117 . S
O99 C76 1.264 . S
C100 C93 1.403 . S
C100 C101 1.399 . S
C100 H106 0.929 . S
C101 C81 1.449 . S
C101 C100 1.399 . S
C101 H107 0.930 . S
H102 C82 0.931 . S
H103 C83 0.930 . S
H104 C91 0.931 . S
H105 C92 0.929 . S
H106 C100 0.929 . S
H107 C101 0.930 . S
Mn108 O113 2.095 . S
Mn108 O123 2.162 . S
Mn108 O124 2.297 . S
Mn108 O132 2.385 . S
Mn108 O133 2.209 . S
Mn108 O134 2.094 . S
Mn109 O114 2.121 . S
Mn109 N116 2.257 . S
Mn109 N125 2.282 . S
Mn109 O133 2.215 . S
Mn109 O135 2.117 . S
C110 O132 1.234 . S
C110 O133 1.283 . S
C111 O123 1.281 . S
C111 O124 1.236 . S
C112 O134 1.240 . S
C112 O135 1.264 . S
O113 Mn108 2.095 . S
O113 C122 1.250 . S
O114 Mn109 2.121 . S
O114 C122 1.258 . S
C115 N116 1.326 . S
C115 C119 1.460 . S
C115 H121 0.929 . S
N116 Mn109 2.257 . S
N116 C115 1.326 . S
N116 C120 1.362 . S
C117 C118 1.258 . S
C117 C120 1.431 . S
C117 C137 1.464 . S
C118 C117 1.258 . S
C118 C119 1.477 . S
C118 H138 0.931 . S
C119 C115 1.460 . S
C119 C118 1.477 . S
C119 H139 0.930 . S
C120 N116 1.362 . S
C120 C117 1.431 . S
C120 C130 1.476 . S
H121 C115 0.929 . S
C122 O113 1.250 . S
C122 O114 1.258 . S
O123 Mn108 2.162 . S
O123 C111 1.281 . S
O124 Mn108 2.297 . S
O124 C111 1.236 . S
N125 Mn109 2.282 . S
N125 C126 1.327 1_565 S
N125 C130 1.318 . S
C126 N125 1.327 1_545 S
C126 C127 1.462 . S
C126 H131 0.925 1_545 S
C127 C126 1.462 . S
C127 C128 1.291 . S
C127 H140 0.931 . S
C128 C127 1.291 . S
C128 C129 1.373 . S
C128 H141 0.929 . S
C129 C128 1.373 . S
C129 C130 1.396 1_545 S
C129 C136 1.403 . S
C130 C120 1.476 . S
C130 N125 1.318 . S
C130 C129 1.396 1_565 S
H131 C126 0.925 1_565 S
O132 Mn108 2.385 . S
O132 C110 1.234 . S
O133 Mn108 2.209 . S
O133 Mn109 2.215 . S
O133 C110 1.283 . S
O134 Mn108 2.094 . S
O134 C112 1.240 . S
O135 Mn109 2.117 . S
O135 C112 1.264 . S
C136 C129 1.403 . S
C136 C137 1.396 1_545 S
C136 H142 0.929 . S
C137 C117 1.464 . S
C137 C136 1.396 1_565 S
C137 H143 0.918 1_565 S
H138 C118 0.931 . S
H139 C119 0.930 . S
H140 C127 0.931 . S
H141 C128 0.929 . S
H142 C136 0.929 . S
H143 C137 0.918 1_545 S
Mn144 O149 2.095 . S
Mn144 O159 2.162 . S
Mn144 O160 2.297 . S
Mn144 O168 2.385 . S
Mn144 O169 2.209 . S
Mn144 O170 2.094 . S
Mn145 O150 2.121 . S
Mn145 N152 2.257 . S
Mn145 N161 2.282 . S
Mn145 O169 2.215 . S
Mn145 O171 2.117 . S
C146 O168 1.234 . S
C146 O169 1.283 . S
C147 O159 1.281 . S
C147 O160 1.236 . S
C148 O170 1.240 . S
C148 O171 1.264 . S
O149 Mn144 2.095 . S
O149 C158 1.250 . S
O150 Mn145 2.121 . S
O150 C158 1.258 . S
C151 N152 1.326 . S
C151 C155 1.460 . S
C151 H157 0.929 . S
N152 Mn145 2.257 . S
N152 C151 1.326 . S
N152 C156 1.362 . S
C153 C154 1.258 . S
C153 C156 1.431 . S
C153 C173 1.449 . S
C154 C153 1.258 . S
C154 C155 1.477 . S
C154 H174 0.931 . S
C155 C151 1.460 . S
C155 C154 1.477 . S
C155 H175 0.930 . S
C156 N152 1.362 . S
C156 C153 1.431 . S
C156 C166 1.476 . S
H157 C151 0.929 . S
C158 O149 1.250 . S
C158 O150 1.258 . S
O159 Mn144 2.162 . S
O159 C147 1.281 . S
O160 Mn144 2.297 . S
O160 C147 1.236 . S
N161 Mn145 2.282 . S
N161 C162 1.328 . S
N161 C166 1.318 . S
C162 N161 1.328 . S
C162 C163 1.457 . S
C162 H167 0.929 . S
C163 C162 1.457 . S
C163 C164 1.291 . S
C163 H176 0.931 . S
C164 C163 1.291 . S
C164 C165 1.373 . S
C164 H177 0.929 . S
C165 C164 1.373 . S
C165 C166 1.396 . S
C165 C172 1.403 . S
C166 C156 1.476 . S
C166 N161 1.318 . S
C166 C165 1.396 . S
H167 C162 0.929 . S
O168 Mn144 2.385 . S
O168 C146 1.234 . S
O169 Mn144 2.209 . S
O169 Mn145 2.215 . S
O169 C146 1.283 . S
O170 Mn144 2.094 . S
O170 C148 1.240 . S
O171 Mn145 2.117 . S
O171 C148 1.264 . S
C172 C165 1.403 . S
C172 C173 1.399 . S
C172 H178 0.929 . S
C173 C153 1.449 . S
C173 C172 1.399 . S
C173 H179 0.930 . S
H174 C154 0.931 . S
H175 C155 0.930 . S
H176 C163 0.931 . S
H177 C164 0.929 . S
H178 C172 0.929 . S
H179 C173 0.930 . S
Mn180 O185 2.095 . S
Mn180 O195 2.162 . S
Mn180 O196 2.297 . S
Mn180 O204 2.385 . S
Mn180 O205 2.209 . S
Mn180 O206 2.094 . S
Mn181 O186 2.121 . S
Mn181 N188 2.257 . S
Mn181 N197 2.282 . S
Mn181 O205 2.215 . S
Mn181 O207 2.117 . S
C182 O204 1.234 . S
C182 O205 1.283 . S
C183 O195 1.281 . S
C183 O196 1.236 . S
C184 O206 1.240 . S
C184 O207 1.264 . S
O185 Mn180 2.095 . S
O185 C194 1.250 . S
O186 Mn181 2.121 . S
O186 C194 1.258 . S
C187 N188 1.326 . S
C187 C191 1.460 . S
C187 H193 0.929 . S
N188 Mn181 2.257 . S
N188 C187 1.326 . S
N188 C192 1.362 . S
C189 C190 1.258 . S
C189 C192 1.431 . S
C189 C209 1.449 . S
C190 C189 1.258 . S
C190 C191 1.477 . S
C190 H210 0.931 . S
C191 C187 1.460 . S
C191 C190 1.477 . S
C191 H211 0.930 . S
C192 N188 1.362 . S
C192 C189 1.431 . S
C192 C202 1.476 . S
H193 C187 0.929 . S
C194 O185 1.250 . S
C194 O186 1.258 . S
O195 Mn180 2.162 . S
O195 C183 1.281 . S
O196 Mn180 2.297 . S
O196 C183 1.236 . S
N197 Mn181 2.282 . S
N197 C198 1.328 . S
N197 C202 1.318 . S
C198 N197 1.328 . S
C198 C199 1.457 . S
C198 H203 0.929 . S
C199 C198 1.457 . S
C199 C200 1.291 . S
C199 H212 0.931 . S
C200 C199 1.291 . S
C200 C201 1.373 . S
C200 H213 0.929 . S
C201 C200 1.373 . S
C201 C202 1.396 . S
C201 C208 1.403 . S
C202 C192 1.476 . S
C202 N197 1.318 . S
C202 C201 1.396 . S
H203 C198 0.929 . S
O204 Mn180 2.385 . S
O204 C182 1.234 . S
O205 Mn180 2.209 . S
O205 Mn181 2.215 . S
O205 C182 1.283 . S
O206 Mn180 2.094 . S
O206 C184 1.240 . S
O207 Mn181 2.117 . S
O207 C184 1.264 . S
C208 C201 1.403 . S
C208 C209 1.399 . S
C208 H214 0.929 . S
C209 C189 1.449 . S
C209 C208 1.399 . S
C209 H215 0.930 . S
H210 C190 0.931 . S
H211 C191 0.930 . S
H212 C199 0.931 . S
H213 C200 0.929 . S
H214 C208 0.929 . S
H215 C209 0.930 . S
Mn216 O221 2.095 . S
Mn216 O231 2.162 . S
Mn216 O232 2.297 . S
Mn216 O240 2.385 . S
Mn216 O241 2.209 . S
Mn216 O242 2.094 . S
Mn217 O222 2.121 . S
Mn217 N224 2.257 . S
Mn217 N233 2.282 . S
Mn217 O241 2.215 . S
Mn217 O243 2.117 . S
C218 O240 1.234 . S
C218 O241 1.283 . S
C219 O231 1.281 . S
C219 O232 1.236 . S
C220 O242 1.240 . S
C220 O243 1.264 . S
O221 Mn216 2.095 . S
O221 C230 1.250 . S
O222 Mn217 2.121 . S
O222 C230 1.258 . S
C223 N224 1.326 . S
C223 C227 1.460 . S
C223 H229 0.929 . S
N224 Mn217 2.257 . S
N224 C223 1.326 . S
N224 C228 1.362 . S
C225 C226 1.258 . S
C225 C228 1.431 . S
C225 C245 1.449 . S
C226 C225 1.258 . S
C226 C227 1.477 . S
C226 H246 0.931 . S
C227 C223 1.460 . S
C227 C226 1.477 . S
C227 H247 0.930 . S
C228 N224 1.362 . S
C228 C225 1.431 . S
C228 C238 1.476 . S
H229 C223 0.929 . S
C230 O221 1.250 . S
C230 O222 1.258 . S
O231 Mn216 2.162 . S
O231 C219 1.281 . S
O232 Mn216 2.297 . S
O232 C219 1.236 . S
N233 Mn217 2.282 . S
N233 C234 1.328 . S
N233 C238 1.318 . S
C234 N233 1.328 . S
C234 C235 1.457 . S
C234 H239 0.929 . S
C235 C234 1.457 . S
C235 C236 1.291 . S
C235 H248 0.931 . S
C236 C235 1.291 . S
C236 C237 1.373 . S
C236 H249 0.929 . S
C237 C236 1.373 . S
C237 C238 1.396 . S
C237 C244 1.403 . S
C238 C228 1.476 . S
C238 N233 1.318 . S
C238 C237 1.396 . S
H239 C234 0.929 . S
O240 Mn216 2.385 . S
O240 C218 1.234 . S
O241 Mn216 2.209 . S
O241 Mn217 2.215 . S
O241 C218 1.283 . S
O242 Mn216 2.094 . S
O242 C220 1.240 . S
O243 Mn217 2.117 . S
O243 C220 1.264 . S
C244 C237 1.403 . S
C244 C245 1.399 . S
C244 H250 0.929 . S
C245 C225 1.449 . S
C245 C244 1.399 . S
C245 H251 0.930 . S
H246 C226 0.931 . S
H247 C227 0.930 . S
H248 C235 0.931 . S
H249 C236 0.929 . S
H250 C244 0.929 . S
H251 C245 0.930 . S
Mn252 O257 2.095 . S
Mn252 O267 2.162 . S
Mn252 O268 2.297 . S
Mn252 O276 2.385 . S
Mn252 O277 2.209 . S
Mn252 O278 2.094 . S
Mn253 O258 2.121 . S
Mn253 N260 2.257 . S
Mn253 N269 2.282 . S
Mn253 O277 2.215 . S
Mn253 O279 2.117 . S
C254 O276 1.234 . S
C254 O277 1.283 . S
C255 O267 1.281 . S
C255 O268 1.236 . S
C256 O278 1.240 . S
C256 O279 1.264 . S
O257 Mn252 2.095 . S
O257 C266 1.250 . S
O258 Mn253 2.121 . S
O258 C266 1.258 . S
C259 N260 1.326 . S
C259 C263 1.460 . S
C259 H265 0.929 . S
N260 Mn253 2.257 . S
N260 C259 1.326 . S
N260 C264 1.362 . S
C261 C262 1.258 . S
C261 C264 1.431 . S
C261 C281 1.449 . S
C262 C261 1.258 . S
C262 C263 1.477 . S
C262 H282 0.931 . S
C263 C259 1.460 . S
C263 C262 1.477 . S
C263 H283 0.930 . S
C264 N260 1.362 . S
C264 C261 1.431 . S
C264 C274 1.476 . S
H265 C259 0.929 . S
C266 O257 1.250 . S
C266 O258 1.258 . S
O267 Mn252 2.162 . S
O267 C255 1.281 . S
O268 Mn252 2.297 . S
O268 C255 1.236 . S
N269 Mn253 2.282 . S
N269 C270 1.331 1_565 S
N269 C274 1.318 . S
C270 N269 1.331 1_545 S
C270 C271 1.455 . S
C270 H275 0.928 1_545 S
C271 C270 1.455 . S
C271 C272 1.291 . S
C271 H284 0.931 . S
C272 C271 1.291 . S
C272 C273 1.373 . S
C272 H285 0.929 . S
C273 C272 1.373 . S
C273 C274 1.396 1_545 S
C273 C280 1.403 . S
C274 C264 1.476 . S
C274 N269 1.318 . S
C274 C273 1.396 1_565 S
H275 C270 0.928 1_565 S
O276 Mn252 2.385 . S
O276 C254 1.234 . S
O277 Mn252 2.209 . S
O277 Mn253 2.215 . S
O277 C254 1.283 . S
O278 Mn252 2.094 . S
O278 C256 1.240 . S
O279 Mn253 2.117 . S
O279 C256 1.264 . S
C280 C273 1.403 . S
C280 C281 1.399 1_545 S
C280 H286 0.929 . S
C281 C261 1.449 . S
C281 C280 1.399 1_565 S
C281 H287 0.930 1_565 S
H282 C262 0.931 . S
H283 C263 0.930 . S
H284 C271 0.931 . S
H285 C272 0.929 . S
H286 C280 0.929 . S
H287 C281 0.930 1_545 S
Mn288 O293 2.095 . S
Mn288 O303 2.162 . S
Mn288 O304 2.297 . S
Mn288 O312 2.385 . S
Mn288 O313 2.209 . S
Mn288 O314 2.094 . S
Mn289 O294 2.121 . S
Mn289 N296 2.257 . S
Mn289 N305 2.282 . S
Mn289 O313 2.215 . S
Mn289 O315 2.117 . S
C290 O312 1.234 . S
C290 O313 1.283 . S
C291 O303 1.281 . S
C291 O304 1.236 . S
C292 O314 1.240 . S
C292 O315 1.264 . S
O293 Mn288 2.095 . S
O293 C302 1.250 . S
O294 Mn289 2.121 . S
O294 C302 1.258 . S
C295 N296 1.326 . S
C295 C299 1.460 . S
C295 H301 0.929 . S
N296 Mn289 2.257 . S
N296 C295 1.326 . S
N296 C300 1.362 . S
C297 C298 1.258 . S
C297 C300 1.431 . S
C297 C317 1.449 . S
C298 C297 1.258 . S
C298 C299 1.477 . S
C298 H318 0.931 . S
C299 C295 1.460 . S
C299 C298 1.477 . S
C299 H319 0.930 . S
C300 N296 1.362 . S
C300 C297 1.431 . S
C300 C310 1.476 . S
H301 C295 0.929 . S
C302 O293 1.250 . S
C302 O294 1.258 . S
O303 Mn288 2.162 . S
O303 C291 1.281 . S
O304 Mn288 2.297 . S
O304 C291 1.236 . S
N305 Mn289 2.282 . S
N305 C306 1.328 . S
N305 C310 1.318 . S
C306 N305 1.328 . S
C306 C307 1.457 . S
C306 H311 0.929 . S
C307 C306 1.457 . S
C307 C308 1.291 . S
C307 H320 0.931 . S
C308 C307 1.291 . S
C308 C309 1.373 . S
C308 H321 0.929 . S
C309 C308 1.373 . S
C309 C310 1.396 . S
C309 C316 1.403 . S
C310 C300 1.476 . S
C310 N305 1.318 . S
C310 C309 1.396 . S
H311 C306 0.929 . S
O312 Mn288 2.385 . S
O312 C290 1.234 . S
O313 Mn288 2.209 . S
O313 Mn289 2.215 . S
O313 C290 1.283 . S
O314 Mn288 2.094 . S
O314 C292 1.240 . S
O315 Mn289 2.117 . S
O315 C292 1.264 . S
C316 C309 1.403 . S
C316 C317 1.399 . S
C316 H322 0.929 . S
C317 C297 1.449 . S
C317 C316 1.399 . S
C317 H323 0.930 . S
H318 C298 0.931 . S
H319 C299 0.930 . S
H320 C307 0.931 . S
H321 C308 0.929 . S
H322 C316 0.929 . S
H323 C317 0.930 . S
Mn324 O329 2.095 . S
Mn324 O339 2.162 . S
Mn324 O340 2.297 . S
Mn324 O348 2.385 . S
Mn324 O349 2.209 . S
Mn324 O350 2.094 . S
Mn325 O330 2.121 . S
Mn325 N332 2.257 . S
Mn325 N341 2.282 . S
Mn325 O349 2.215 . S
Mn325 O351 2.117 . S
C326 O348 1.234 . S
C326 O349 1.283 . S
C327 O339 1.281 . S
C327 O340 1.236 . S
C328 O350 1.240 . S
C328 O351 1.264 . S
O329 Mn324 2.095 . S
O329 C338 1.250 . S
O330 Mn325 2.121 . S
O330 C338 1.258 . S
C331 N332 1.326 . S
C331 C335 1.460 . S
C331 H337 0.929 . S
N332 Mn325 2.257 . S
N332 C331 1.326 . S
N332 C336 1.362 . S
C333 C334 1.258 . S
C333 C336 1.431 . S
C333 C353 1.449 . S
C334 C333 1.258 . S
C334 C335 1.477 . S
C334 H354 0.931 . S
C335 C331 1.460 . S
C335 C334 1.477 . S
C335 H355 0.930 . S
C336 N332 1.362 . S
C336 C333 1.431 . S
C336 C346 1.476 . S
H337 C331 0.929 . S
C338 O329 1.250 . S
C338 O330 1.258 . S
O339 Mn324 2.162 . S
O339 C327 1.281 . S
O340 Mn324 2.297 . S
O340 C327 1.236 . S
N341 Mn325 2.282 . S
N341 C342 1.328 . S
N341 C346 1.318 . S
C342 N341 1.328 . S
C342 C343 1.457 . S
C342 H347 0.929 . S
C343 C342 1.457 . S
C343 C344 1.291 . S
C343 H356 0.931 . S
C344 C343 1.291 . S
C344 C345 1.373 . S
C344 H357 0.929 . S
C345 C344 1.373 . S
C345 C346 1.396 . S
C345 C352 1.403 . S
C346 C336 1.476 . S
C346 N341 1.318 . S
C346 C345 1.396 . S
H347 C342 0.929 . S
O348 Mn324 2.385 . S
O348 C326 1.234 . S
O349 Mn324 2.209 . S
O349 Mn325 2.215 . S
O349 C326 1.283 . S
O350 Mn324 2.094 . S
O350 C328 1.240 . S
O351 Mn325 2.117 . S
O351 C328 1.264 . S
C352 C345 1.403 . S
C352 C353 1.399 . S
C352 H358 0.929 . S
C353 C333 1.449 . S
C353 C352 1.399 . S
C353 H359 0.930 . S
H354 C334 0.931 . S
H355 C335 0.930 . S
H356 C343 0.931 . S
H357 C344 0.929 . S
H358 C352 0.929 . S
H359 C353 0.930 . S
Mn360 O365 2.095 . S
Mn360 O375 2.162 . S
Mn360 O376 2.297 . S
Mn360 O384 2.385 . S
Mn360 O385 2.209 . S
Mn360 O386 2.094 . S
Mn361 O366 2.121 . S
Mn361 N368 2.257 . S
Mn361 N377 2.282 . S
Mn361 O385 2.215 . S
Mn361 O387 2.117 . S
C362 O384 1.234 . S
C362 O385 1.283 . S
C363 O375 1.281 . S
C363 O376 1.236 . S
C364 O386 1.240 . S
C364 O387 1.264 . S
O365 Mn360 2.095 . S
O365 C374 1.250 . S
O366 Mn361 2.121 . S
O366 C374 1.258 . S
C367 N368 1.326 . S
C367 C371 1.460 . S
C367 H373 0.929 . S
N368 Mn361 2.257 . S
N368 C367 1.326 . S
N368 C372 1.362 . S
C369 C370 1.258 . S
C369 C372 1.431 . S
C369 C389 1.449 . S
C370 C369 1.258 . S
C370 C371 1.477 . S
C370 H390 0.931 . S
C371 C367 1.460 . S
C371 C370 1.477 . S
C371 H391 0.930 . S
C372 N368 1.362 . S
C372 C369 1.431 . S
C372 C382 1.476 . S
H373 C367 0.929 . S
C374 O365 1.250 . S
C374 O366 1.258 . S
O375 Mn360 2.162 . S
O375 C363 1.281 . S
O376 Mn360 2.297 . S
O376 C363 1.236 . S
N377 Mn361 2.282 . S
N377 C378 1.325 . S
N377 C382 1.318 . S
C378 N377 1.325 . S
C378 C379 1.459 1_545 S
C378 H383 0.930 . S
C379 C378 1.459 1_565 S
C379 C380 1.291 . S
C379 H392 0.931 . S
C380 C379 1.291 . S
C380 C381 1.373 . S
C380 H393 0.929 . S
C381 C380 1.373 . S
C381 C382 1.396 1_565 S
C381 C388 1.403 . S
C382 C372 1.476 . S
C382 N377 1.318 . S
C382 C381 1.396 1_545 S
H383 C378 0.930 . S
O384 Mn360 2.385 . S
O384 C362 1.234 . S
O385 Mn360 2.209 . S
O385 Mn361 2.215 . S
O385 C362 1.283 . S
O386 Mn360 2.094 . S
O386 C364 1.240 . S
O387 Mn361 2.117 . S
O387 C364 1.264 . S
C388 C381 1.403 . S
C388 C389 1.399 1_565 S
C388 H394 0.929 . S
C389 C369 1.449 . S
C389 C388 1.399 1_545 S
C389 H395 0.930 1_545 S
H390 C370 0.931 . S
H391 C371 0.930 . S
H392 C379 0.931 . S
H393 C380 0.929 . S
H394 C388 0.929 . S
H395 C389 0.930 1_565 S
Mn396 O401 2.095 . S
Mn396 O411 2.162 . S
Mn396 O412 2.297 . S
Mn396 O420 2.385 . S
Mn396 O421 2.209 . S
Mn396 O422 2.094 . S
Mn397 O402 2.121 . S
Mn397 N404 2.257 . S
Mn397 N413 2.282 . S
Mn397 O421 2.215 . S
Mn397 O423 2.117 . S
C398 O420 1.234 . S
C398 O421 1.283 . S
C399 O411 1.281 . S
C399 O412 1.236 . S
C400 O422 1.240 . S
C400 O423 1.264 . S
O401 Mn396 2.095 . S
O401 C410 1.250 . S
O402 Mn397 2.121 . S
O402 C410 1.258 . S
C403 N404 1.326 . S
C403 C407 1.460 . S
C403 H409 0.929 . S
N404 Mn397 2.257 . S
N404 C403 1.326 . S
N404 C408 1.362 . S
C405 C406 1.258 . S
C405 C408 1.431 . S
C405 C425 1.449 . S
C406 C405 1.258 . S
C406 C407 1.477 . S
C406 H426 0.931 . S
C407 C403 1.460 . S
C407 C406 1.477 . S
C407 H427 0.930 . S
C408 N404 1.362 . S
C408 C405 1.431 . S
C408 C418 1.476 . S
H409 C403 0.929 . S
C410 O401 1.250 . S
C410 O402 1.258 . S
O411 Mn396 2.162 . S
O411 C399 1.281 . S
O412 Mn396 2.297 . S
O412 C399 1.236 . S
N413 Mn397 2.282 . S
N413 C414 1.328 . S
N413 C418 1.318 . S
C414 N413 1.328 . S
C414 C415 1.457 . S
C414 H419 0.929 . S
C415 C414 1.457 . S
C415 C416 1.291 . S
C415 H428 0.931 . S
C416 C415 1.291 . S
C416 C417 1.373 . S
C416 H429 0.929 . S
C417 C416 1.373 . S
C417 C418 1.396 . S
C417 C424 1.403 . S
C418 C408 1.476 . S
C418 N413 1.318 . S
C418 C417 1.396 . S
H419 C414 0.929 . S
O420 Mn396 2.385 . S
O420 C398 1.234 . S
O421 Mn396 2.209 . S
O421 Mn397 2.215 . S
O421 C398 1.283 . S
O422 Mn396 2.094 . S
O422 C400 1.240 . S
O423 Mn397 2.117 . S
O423 C400 1.264 . S
C424 C417 1.403 . S
C424 C425 1.399 . S
C424 H430 0.929 . S
C425 C405 1.449 . S
C425 C424 1.399 . S
C425 H431 0.930 . S
H426 C406 0.931 . S
H427 C407 0.930 . S
H428 C415 0.931 . S
H429 C416 0.929 . S
H430 C424 0.929 . S
H431 C425 0.930 . S
H432 C440 0.950 1_556 S
H433 C445 0.950 . S
H434 C442 0.950 . S
H435 C444 0.950 . S
H436 C446 0.950 1_554 S
H437 C448 0.950 . S
H438 C450 0.950 . S
H439 C451 0.950 . S
C440 H432 0.950 1_554 S
C440 C441 1.386 . S
C440 C442 1.391 1_554 S
C441 C440 1.386 . S
C441 C445 1.393 . S
C442 H434 0.950 . S
C442 C440 1.391 1_556 S
C442 C443 1.400 1_556 S
C443 C442 1.400 1_554 S
C443 C444 1.398 . S
C443 C449 1.491 1_554 S
C444 H435 0.950 . S
C444 C443 1.398 . S
C444 C445 1.391 . S
C445 H433 0.950 . S
C445 C441 1.393 . S
C445 C444 1.391 . S
C446 H436 0.950 1_556 S
C446 C447 1.386 . S
C446 C448 1.391 1_556 S
C447 C446 1.386 . S
C447 C451 1.393 . S
C448 H437 0.950 . S
C448 C446 1.391 1_554 S
C448 C449 1.400 1_554 S
C449 C443 1.491 1_556 S
C449 C448 1.400 1_556 S
C449 C450 1.398 . S
C450 H438 0.950 . S
C450 C449 1.398 . S
C450 C451 1.391 . S
C451 H439 0.950 . S
C451 C447 1.393 . S
C451 C450 1.391 . S
H452 C460 0.950 . S
H453 C465 0.950 . S
H454 C462 0.950 . S
H455 C464 0.950 . S
H456 C466 0.950 . S
H457 C468 0.950 . S
H458 C470 0.950 . S
H459 C471 0.950 . S
C460 H452 0.950 . S
C460 C461 1.386 . S
C460 C462 1.391 . S
C461 C460 1.386 . S
C461 C465 1.393 . S
C462 H454 0.950 . S
C462 C460 1.391 . S
C462 C463 1.400 . S
C463 C462 1.400 . S
C463 C464 1.398 . S
C463 C469 1.491 . S
C464 H455 0.950 . S
C464 C463 1.398 . S
C464 C465 1.391 . S
C465 H453 0.950 . S
C465 C461 1.393 . S
C465 C464 1.391 . S
C466 H456 0.950 . S
C466 C467 1.386 . S
C466 C468 1.391 . S
C467 C466 1.386 . S
C467 C471 1.393 . S
C468 H457 0.950 . S
C468 C466 1.391 . S
C468 C469 1.400 . S
C469 C463 1.491 . S
C469 C468 1.400 . S
C469 C470 1.398 . S
C470 H458 0.950 . S
C470 C469 1.398 . S
C470 C471 1.391 . S
C471 H459 0.950 . S
C471 C467 1.393 . S
C471 C470 1.391 . S
H472 C480 0.950 . S
H473 C485 0.950 . S
H474 C482 0.950 . S
H475 C484 0.950 . S
H476 C486 0.950 . S
H477 C488 0.950 . S
H478 C490 0.950 . S
H479 C491 0.950 . S
C480 H472 0.950 . S
C480 C481 1.386 . S
C480 C482 1.391 . S
C481 C480 1.386 . S
C481 C485 1.393 . S
C482 H474 0.950 . S
C482 C480 1.391 . S
C482 C483 1.400 . S
C483 C482 1.400 . S
C483 C484 1.398 . S
C483 C489 1.491 . S
C484 H475 0.950 . S
C484 C483 1.398 . S
C484 C485 1.391 . S
C485 H473 0.950 . S
C485 C481 1.393 . S
C485 C484 1.391 . S
C486 H476 0.950 . S
C486 C487 1.386 . S
C486 C488 1.391 . S
C487 C486 1.386 . S
C487 C491 1.393 . S
C488 H477 0.950 . S
C488 C486 1.391 . S
C488 C489 1.400 . S
C489 C483 1.491 . S
C489 C488 1.400 . S
C489 C490 1.398 . S
C490 H478 0.950 . S
C490 C489 1.398 . S
C490 C491 1.391 . S
C491 H479 0.950 . S
C491 C487 1.393 . S
C491 C490 1.391 . S
H492 C500 0.950 . S
H493 C505 0.950 1_556 S
H494 C502 0.950 . S
H495 C504 0.950 . S
H496 C506 0.950 . S
H497 C508 0.950 . S
H498 C510 0.950 . S
H499 C511 0.950 1_554 S
C500 H492 0.950 . S
C500 C501 1.386 . S
C500 C502 1.391 . S
C501 C500 1.386 . S
C501 C505 1.393 . S
C502 H494 0.950 . S
C502 C500 1.391 . S
C502 C503 1.400 . S
C503 C502 1.400 . S
C503 C504 1.398 1_554 S
C503 C509 1.491 1_554 S
C504 H495 0.950 . S
C504 C503 1.398 1_556 S
C504 C505 1.391 1_556 S
C505 H493 0.950 1_554 S
C505 C501 1.393 . S
C505 C504 1.391 1_554 S
C506 H496 0.950 . S
C506 C507 1.386 . S
C506 C508 1.391 . S
C507 C506 1.386 . S
C507 C511 1.393 . S
C508 H497 0.950 . S
C508 C506 1.391 . S
C508 C509 1.400 . S
C509 C503 1.491 1_556 S
C509 C508 1.400 . S
C509 C510 1.398 1_556 S
C510 H498 0.950 . S
C510 C509 1.398 1_554 S
C510 C511 1.391 1_554 S
C511 H499 0.950 1_556 S
C511 C507 1.393 . S
C511 C510 1.391 1_556 S
H512 C520 0.950 . S
H513 C525 0.950 . S
H514 C522 0.950 . S
H515 C524 0.950 . S
H516 C526 0.950 . S
H517 C528 0.950 . S
H518 C530 0.950 . S
H519 C531 0.950 . S
C520 H512 0.950 . S
C520 C521 1.386 . S
C520 C522 1.391 . S
C521 C520 1.386 . S
C521 C525 1.393 . S
C522 H514 0.950 . S
C522 C520 1.391 . S
C522 C523 1.400 . S
C523 C522 1.400 . S
C523 C524 1.398 . S
C523 C529 1.491 . S
C524 H515 0.950 . S
C524 C523 1.398 . S
C524 C525 1.391 . S
C525 H513 0.950 . S
C525 C521 1.393 . S
C525 C524 1.391 . S
C526 H516 0.950 . S
C526 C527 1.386 . S
C526 C528 1.391 . S
C527 C526 1.386 . S
C527 C531 1.393 . S
C528 H517 0.950 . S
C528 C526 1.391 . S
C528 C529 1.400 . S
C529 C523 1.491 . S
C529 C528 1.400 . S
C529 C530 1.398 . S
C530 H518 0.950 . S
C530 C529 1.398 . S
C530 C531 1.391 . S
C531 H519 0.950 . S
C531 C527 1.393 . S
C531 C530 1.391 . S
H532 C540 0.950 . S
H533 C545 0.950 . S
H534 C542 0.950 . S
H535 C544 0.950 . S
H536 C546 0.950 . S
H537 C548 0.950 . S
H538 C550 0.950 . S
H539 C551 0.950 . S
C540 H532 0.950 . S
C540 C541 1.386 . S
C540 C542 1.391 . S
C541 C540 1.386 . S
C541 C545 1.393 . S
C542 H534 0.950 . S
C542 C540 1.391 . S
C542 C543 1.400 . S
C543 C542 1.400 . S
C543 C544 1.398 . S
C543 C549 1.491 . S
C544 H535 0.950 . S
C544 C543 1.398 . S
C544 C545 1.391 . S
C545 H533 0.950 . S
C545 C541 1.393 . S
C545 C544 1.391 . S
C546 H536 0.950 . S
C546 C547 1.386 . S
C546 C548 1.391 . S
C547 C546 1.386 . S
C547 C551 1.393 . S
C548 H537 0.950 . S
C548 C546 1.391 . S
C548 C549 1.400 . S
C549 C543 1.491 . S
C549 C548 1.400 . S
C549 C550 1.398 . S
C550 H538 0.950 . S
C550 C549 1.398 . S
C550 C551 1.391 . S
C551 H539 0.950 . S
C551 C547 1.393 . S
C551 C550 1.391 . S
H552 C560 0.950 . S
H553 C565 0.950 . S
H554 C562 0.929 1_565 S
H555 C564 0.950 1_556 S
H556 C566 0.950 . S
H557 C568 0.926 1_545 S
H558 C570 0.950 1_554 S
H559 C571 0.950 . S
C560 H552 0.950 . S
C560 C561 1.386 . S
C560 C562 1.406 . S
C561 C560 1.386 . S
C561 C565 1.393 . S
C562 H554 0.929 1_545 S
C562 C560 1.406 . S
C562 C563 1.406 . S
C563 C562 1.406 . S
C563 C564 1.398 . S
C563 C569 1.491 1_544 S
C564 H555 0.950 1_554 S
C564 C563 1.398 . S
C564 C565 1.391 . S
C565 H553 0.950 . S
C565 C561 1.393 . S
C565 C564 1.391 . S
C566 H556 0.950 . S
C566 C567 1.386 . S
C566 C568 1.408 . S
C567 C566 1.386 . S
C567 C571 1.393 . S
C568 H557 0.926 1_565 S
C568 C566 1.408 . S
C568 C569 1.407 . S
C569 C563 1.491 1_566 S
C569 C568 1.407 . S
C569 C570 1.398 . S
C570 H558 0.950 1_556 S
C570 C569 1.398 . S
C570 C571 1.391 . S
C571 H559 0.950 . S
C571 C567 1.393 . S
C571 C570 1.391 . S
H572 C580 0.950 . S
H573 C585 0.950 . S
H574 C582 0.950 . S
H575 C584 0.950 . S
H576 C586 0.950 . S
H577 C588 0.950 . S
H578 C590 0.950 . S
H579 C591 0.950 . S
C580 H572 0.950 . S
C580 C581 1.386 . S
C580 C582 1.391 . S
C581 C580 1.386 . S
C581 C585 1.393 . S
C582 H574 0.950 . S
C582 C580 1.391 . S
C582 C583 1.400 . S
C583 C582 1.400 . S
C583 C584 1.398 . S
C583 C589 1.491 . S
C584 H575 0.950 . S
C584 C583 1.398 . S
C584 C585 1.391 . S
C585 H573 0.950 . S
C585 C581 1.393 . S
C585 C584 1.391 . S
C586 H576 0.950 . S
C586 C587 1.386 . S
C586 C588 1.391 . S
C587 C586 1.386 . S
C587 C591 1.393 . S
C588 H577 0.950 . S
C588 C586 1.391 . S
C588 C589 1.400 . S
C589 C583 1.491 . S
C589 C588 1.400 . S
C589 C590 1.398 . S
C590 H578 0.950 . S
C590 C589 1.398 . S
C590 C591 1.391 . S
C591 H579 0.950 . S
C591 C587 1.393 . S
C591 C590 1.391 . S
H592 C600 0.950 . S
H593 C605 0.950 . S
H594 C602 0.950 . S
H595 C604 0.950 1_655 S
H596 C606 0.950 . S
H597 C608 0.950 . S
H598 C610 0.950 1_455 S
H599 C611 0.950 . S
C600 H592 0.950 . S
C600 C601 1.386 . S
C600 C602 1.391 . S
C601 C600 1.386 . S
C601 C605 1.393 . S
C602 H594 0.950 . S
C602 C600 1.391 . S
C602 C603 1.400 . S
C603 C602 1.400 . S
C603 C604 1.398 . S
C603 C609 1.491 1_455 S
C604 H595 0.950 1_455 S
C604 C603 1.398 . S
C604 C605 1.391 . S
C605 H593 0.950 . S
C605 C601 1.393 . S
C605 C604 1.391 . S
C606 H596 0.950 . S
C606 C607 1.386 . S
C606 C608 1.391 . S
C607 C606 1.386 . S
C607 C611 1.393 . S
C608 H597 0.950 . S
C608 C606 1.391 . S
C608 C609 1.400 . S
C609 C603 1.491 1_655 S
C609 C608 1.400 . S
C609 C610 1.398 . S
C610 H598 0.950 1_655 S
C610 C609 1.398 . S
C610 C611 1.391 . S
C611 H599 0.950 . S
C611 C607 1.393 . S
C611 C610 1.391 . S
H612 C620 0.950 . S
H613 C625 0.950 . S
H614 C622 0.941 1_545 S
H615 C624 0.950 . S
H616 C626 0.950 . S
H617 C628 0.944 1_565 S
H618 C630 0.950 . S
H619 C631 0.950 . S
C620 H612 0.950 . S
C620 C621 1.386 . S
C620 C622 1.391 . S
C621 C620 1.386 . S
C621 C625 1.393 . S
C622 H614 0.941 1_565 S
C622 C620 1.391 . S
C622 C623 1.400 . S
C623 C622 1.400 . S
C623 C624 1.398 . S
C623 C629 1.491 1_564 S
C624 H615 0.950 . S
C624 C623 1.398 . S
C624 C625 1.391 . S
C625 H613 0.950 . S
C625 C621 1.393 . S
C625 C624 1.391 . S
C626 H616 0.950 . S
C626 C627 1.386 . S
C626 C628 1.391 . S
C627 C626 1.386 . S
C627 C631 1.393 . S
C628 H617 0.944 1_545 S
C628 C626 1.391 . S
C628 C629 1.400 . S
C629 C623 1.491 1_546 S
C629 C628 1.400 . S
C629 C630 1.398 . S
C630 H618 0.950 . S
C630 C629 1.398 . S
C630 C631 1.391 . S
C631 H619 0.950 . S
C631 C627 1.393 . S
C631 C630 1.391 . S
H632 C640 0.950 . S
H633 C645 0.950 . S
H634 C642 0.950 . S
H635 C644 0.950 . S
H636 C646 0.950 . S
H637 C648 0.950 . S
H638 C650 0.950 . S
H639 C651 0.950 . S
C640 H632 0.950 . S
C640 C641 1.386 . S
C640 C642 1.391 . S
C641 C640 1.386 . S
C641 C645 1.393 . S
C642 H634 0.950 . S
C642 C640 1.391 . S
C642 C643 1.400 . S
C643 C642 1.400 . S
C643 C644 1.398 . S
C643 C649 1.491 . S
C644 H635 0.950 . S
C644 C643 1.398 . S
C644 C645 1.391 . S
C645 H633 0.950 . S
C645 C641 1.393 . S
C645 C644 1.391 . S
C646 H636 0.950 . S
C646 C647 1.386 . S
C646 C648 1.391 . S
C647 C646 1.386 . S
C647 C651 1.393 . S
C648 H637 0.950 . S
C648 C646 1.391 . S
C648 C649 1.400 . S
C649 C643 1.491 . S
C649 C648 1.400 . S
C649 C650 1.398 . S
C650 H638 0.950 . S
C650 C649 1.398 . S
C650 C651 1.391 . S
C651 H639 0.950 . S
C651 C647 1.393 . S
C651 C650 1.391 . S
H652 C660 0.950 . S
H653 C665 0.950 . S
H654 C662 0.950 . S
H655 C664 0.950 1_655 S
H656 C666 0.950 . S
H657 C668 0.950 . S
H658 C670 0.950 1_455 S
H659 C671 0.950 . S
C660 H652 0.950 . S
C660 C661 1.386 . S
C660 C662 1.391 . S
C661 C660 1.386 . S
C661 C665 1.393 . S
C662 H654 0.950 . S
C662 C660 1.391 . S
C662 C663 1.400 . S
C663 C662 1.400 . S
C663 C664 1.398 . S
C663 C669 1.491 1_455 S
C664 H655 0.950 1_455 S
C664 C663 1.398 . S
C664 C665 1.391 . S
C665 H653 0.950 . S
C665 C661 1.393 . S
C665 C664 1.391 . S
C666 H656 0.950 . S
C666 C667 1.386 . S
C666 C668 1.391 . S
C667 C666 1.386 . S
C667 C671 1.393 . S
C668 H657 0.950 . S
C668 C666 1.391 . S
C668 C669 1.400 . S
C669 C663 1.491 1_655 S
C669 C668 1.400 . S
C669 C670 1.398 . S
C670 H658 0.950 1_655 S
C670 C669 1.398 . S
C670 C671 1.391 . S
C671 H659 0.950 . S
C671 C667 1.393 . S
C671 C670 1.391 . S
H672 C680 0.950 . S
H673 C685 0.950 . S
H674 C682 0.950 . S
H675 C684 0.950 . S
H676 C686 0.950 . S
H677 C688 0.950 . S
H678 C690 0.950 . S
H679 C691 0.950 . S
C680 H672 0.950 . S
C680 C681 1.386 . S
C680 C682 1.391 . S
C681 C680 1.386 . S
C681 C685 1.393 . S
C682 H674 0.950 . S
C682 C680 1.391 . S
C682 C683 1.400 . S
C683 C682 1.400 . S
C683 C684 1.398 . S
C683 C689 1.491 1_565 S
C684 H675 0.950 . S
C684 C683 1.398 . S
C684 C685 1.391 . S
C685 H673 0.950 . S
C685 C681 1.393 . S
C685 C684 1.391 . S
C686 H676 0.950 . S
C686 C687 1.386 . S
C686 C688 1.391 . S
C687 C686 1.386 . S
C687 C691 1.393 . S
C688 H677 0.950 . S
C688 C686 1.391 . S
C688 C689 1.400 . S
C689 C683 1.491 1_545 S
C689 C688 1.400 . S
C689 C690 1.398 . S
C690 H678 0.950 . S
C690 C689 1.398 . S
C690 C691 1.391 . S
C691 H679 0.950 . S
C691 C687 1.393 . S
C691 C690 1.391 . S
H692 C700 0.950 . S
H693 C705 0.950 . S
H694 C702 0.950 . S
H695 C704 0.950 . S
H696 C706 0.950 . S
H697 C708 0.950 . S
H698 C710 0.950 . S
H699 C711 0.950 . S
C700 H692 0.950 . S
C700 C701 1.386 . S
C700 C702 1.391 . S
C701 C700 1.386 . S
C701 C705 1.393 . S
C702 H694 0.950 . S
C702 C700 1.391 . S
C702 C703 1.400 . S
C703 C702 1.400 . S
C703 C704 1.398 . S
C703 C709 1.491 . S
C704 H695 0.950 . S
C704 C703 1.398 . S
C704 C705 1.391 . S
C705 H693 0.950 . S
C705 C701 1.393 . S
C705 C704 1.391 . S
C706 H696 0.950 . S
C706 C707 1.386 . S
C706 C708 1.391 . S
C707 C706 1.386 . S
C707 C711 1.393 . S
C708 H697 0.950 . S
C708 C706 1.391 . S
C708 C709 1.400 . S
C709 C703 1.491 . S
C709 C708 1.400 . S
C709 C710 1.398 . S
C710 H698 0.950 . S
C710 C709 1.398 . S
C710 C711 1.391 . S
C711 H699 0.950 . S
C711 C707 1.393 . S
C711 C710 1.391 . S
H712 C720 0.950 . S
H713 C725 0.950 . S
H714 C722 0.950 1_655 S
H715 C724 0.950 . S
H716 C726 0.950 . S
H717 C728 0.950 1_455 S
H718 C730 0.950 . S
H719 C731 0.950 . S
C720 H712 0.950 . S
C720 C721 1.386 . S
C720 C722 1.391 . S
C721 C720 1.386 . S
C721 C725 1.393 . S
C722 H714 0.950 1_455 S
C722 C720 1.391 . S
C722 C723 1.400 . S
C723 C722 1.400 . S
C723 C724 1.398 . S
C723 C729 1.491 1_455 S
C724 H715 0.950 . S
C724 C723 1.398 . S
C724 C725 1.391 . S
C725 H713 0.950 . S
C725 C721 1.393 . S
C725 C724 1.391 . S
C726 H716 0.950 . S
C726 C727 1.386 . S
C726 C728 1.391 . S
C727 C726 1.386 . S
C727 C731 1.393 . S
C728 H717 0.950 1_655 S
C728 C726 1.391 . S
C728 C729 1.400 . S
C729 C723 1.491 1_655 S
C729 C728 1.400 . S
C729 C730 1.398 . S
C730 H718 0.950 . S
C730 C729 1.398 . S
C730 C731 1.391 . S
C731 H719 0.950 . S
C731 C727 1.393 . S
C731 C730 1.391 . S
H732 C740 0.950 . S
H733 C745 0.925 1_455 S
H734 C742 0.950 . S
H735 C744 0.950 . S
H736 C746 0.950 . S
H737 C748 0.950 . S
H738 C750 0.950 . S
H739 C751 0.924 1_655 S
C740 H732 0.950 . S
C740 C741 1.386 . S
C740 C742 1.391 . S
C741 C740 1.386 . S
C741 C745 1.393 . S
C742 H734 0.950 . S
C742 C740 1.391 . S
C742 C743 1.400 . S
C743 C742 1.400 . S
C743 C744 1.398 1_655 S
C743 C749 1.491 1_655 S
C744 H735 0.950 . S
C744 C743 1.398 1_455 S
C744 C745 1.391 1_455 S
C745 H733 0.925 1_655 S
C745 C741 1.393 . S
C745 C744 1.391 1_655 S
C746 H736 0.950 . S
C746 C747 1.386 . S
C746 C748 1.391 . S
C747 C746 1.386 . S
C747 C751 1.393 . S
C748 H737 0.950 . S
C748 C746 1.391 . S
C748 C749 1.400 . S
C749 C743 1.491 1_455 S
C749 C748 1.400 . S
C749 C750 1.398 1_455 S
C750 H738 0.950 . S
C750 C749 1.398 1_655 S
C750 C751 1.391 1_655 S
C751 H739 0.924 1_455 S
C751 C747 1.393 . S
C751 C750 1.391 1_455 S
H752 C760 0.950 . S
H753 C765 0.950 . S
H754 C762 0.950 . S
H755 C764 0.950 1_545 S
H756 C766 0.950 . S
H757 C768 0.950 . S
H758 C770 0.950 1_565 S
H759 C771 0.950 . S
C760 H752 0.950 . S
C760 C761 1.386 . S
C760 C762 1.391 . S
C761 C760 1.386 . S
C761 C765 1.393 . S
C762 H754 0.950 . S
C762 C760 1.391 . S
C762 C763 1.400 . S
C763 C762 1.400 . S
C763 C764 1.398 . S
C763 C769 1.491 1_565 S
C764 H755 0.950 1_565 S
C764 C763 1.398 . S
C764 C765 1.391 . S
C765 H753 0.950 . S
C765 C761 1.393 . S
C765 C764 1.391 . S
C766 H756 0.950 . S
C766 C767 1.386 . S
C766 C768 1.391 . S
C767 C766 1.386 . S
C767 C771 1.393 . S
C768 H757 0.950 . S
C768 C766 1.391 . S
C768 C769 1.400 . S
C769 C763 1.491 1_545 S
C769 C768 1.400 . S
C769 C770 1.398 . S
C770 H758 0.950 1_545 S
C770 C769 1.398 . S
C770 C771 1.391 . S
C771 H759 0.950 . S
C771 C767 1.393 . S
C771 C770 1.391 . S
H772 C780 0.950 . S
H773 C785 0.950 . S
H774 C782 0.950 . S
H775 C784 0.950 . S
H776 C786 0.950 . S
H777 C788 0.950 . S
H778 C790 0.950 . S
H779 C791 0.950 . S
C780 H772 0.950 . S
C780 C781 1.386 . S
C780 C782 1.391 . S
C781 C780 1.386 . S
C781 C785 1.393 . S
C782 H774 0.950 . S
C782 C780 1.391 . S
C782 C783 1.400 . S
C783 C782 1.400 . S
C783 C784 1.398 . S
C783 C789 1.491 . S
C784 H775 0.950 . S
C784 C783 1.398 . S
C784 C785 1.391 . S
C785 H773 0.950 . S
C785 C781 1.393 . S
C785 C784 1.391 . S
C786 H776 0.950 . S
C786 C787 1.386 . S
C786 C788 1.391 . S
C787 C786 1.386 . S
C787 C791 1.393 . S
C788 H777 0.950 . S
C788 C786 1.391 . S
C788 C789 1.400 . S
C789 C783 1.491 . S
C789 C788 1.400 . S
C789 C790 1.398 . S
C790 H778 0.950 . S
C790 C789 1.398 . S
C790 C791 1.391 . S
C791 H779 0.950 . S
C791 C787 1.393 . S
C791 C790 1.391 . S
H792 C800 0.950 . S
H793 C805 0.950 . S
H794 C802 0.950 . S
H795 C804 0.950 . S
H796 C806 0.950 . S
H797 C808 0.950 . S
H798 C810 0.950 . S
H799 C811 0.950 . S
C800 H792 0.950 . S
C800 C801 1.386 . S
C800 C802 1.391 . S
C801 C800 1.386 . S
C801 C805 1.393 . S
C802 H794 0.950 . S
C802 C800 1.391 . S
C802 C803 1.400 . S
C803 C802 1.400 . S
C803 C804 1.398 . S
C803 C809 1.491 . S
C804 H795 0.950 . S
C804 C803 1.398 . S
C804 C805 1.391 . S
C805 H793 0.950 . S
C805 C801 1.393 . S
C805 C804 1.391 . S
C806 H796 0.950 . S
C806 C807 1.386 . S
C806 C808 1.391 . S
C807 C806 1.386 . S
C807 C811 1.393 . S
C808 H797 0.950 . S
C808 C806 1.391 . S
C808 C809 1.400 . S
C809 C803 1.491 . S
C809 C808 1.400 . S
C809 C810 1.398 . S
C810 H798 0.950 . S
C810 C809 1.398 . S
C810 C811 1.391 . S
C811 H799 0.950 . S
C811 C807 1.393 . S
C811 C810 1.391 . S
H812 C820 0.950 . S
H813 C825 0.950 . S
H814 C822 0.950 . S
H815 C824 0.950 . S
H816 C826 0.950 . S
H817 C828 0.950 . S
H818 C830 0.950 . S
H819 C831 0.950 . S
C820 H812 0.950 . S
C820 C821 1.386 . S
C820 C822 1.391 . S
C821 C820 1.386 . S
C821 C825 1.393 . S
C822 H814 0.950 . S
C822 C820 1.391 . S
C822 C823 1.400 . S
C823 C822 1.400 . S
C823 C824 1.398 . S
C823 C829 1.491 . S
C824 H815 0.950 . S
C824 C823 1.398 . S
C824 C825 1.391 . S
C825 H813 0.950 . S
C825 C821 1.393 . S
C825 C824 1.391 . S
C826 H816 0.950 . S
C826 C827 1.386 . S
C826 C828 1.391 . S
C827 C826 1.386 . S
C827 C831 1.393 . S
C828 H817 0.950 . S
C828 C826 1.391 . S
C828 C829 1.400 . S
C829 C823 1.491 . S
C829 C828 1.400 . S
C829 C830 1.398 . S
C830 H818 0.950 . S
C830 C829 1.398 . S
C830 C831 1.391 . S
C831 H819 0.950 . S
C831 C827 1.393 . S
C831 C830 1.391 . S
H832 C840 0.950 . S
H833 C845 0.950 . S
H834 C842 0.950 . S
H835 C844 0.950 . S
H836 C846 0.950 . S
H837 C848 0.950 . S
H838 C850 0.950 . S
H839 C851 0.950 . S
C840 H832 0.950 . S
C840 C841 1.386 . S
C840 C842 1.391 . S
C841 C840 1.386 . S
C841 C845 1.393 . S
C842 H834 0.950 . S
C842 C840 1.391 . S
C842 C843 1.400 . S
C843 C842 1.400 . S
C843 C844 1.398 . S
C843 C849 1.491 . S
C844 H835 0.950 . S
C844 C843 1.398 . S
C844 C845 1.391 . S
C845 H833 0.950 . S
C845 C841 1.393 . S
C845 C844 1.391 . S
C846 H836 0.950 . S
C846 C847 1.386 . S
C846 C848 1.391 . S
C847 C846 1.386 . S
C847 C851 1.393 . S
C848 H837 0.950 . S
C848 C846 1.391 . S
C848 C849 1.400 . S
C849 C843 1.491 . S
C849 C848 1.400 . S
C849 C850 1.398 . S
C850 H838 0.950 . S
C850 C849 1.398 . S
C850 C851 1.391 . S
C851 H839 0.950 . S
C851 C847 1.393 . S
C851 C850 1.391 . S
H852 C860 0.950 . S
H853 C865 0.950 . S
H854 C862 0.950 . S
H855 C864 0.950 . S
H856 C866 0.950 . S
H857 C868 0.950 . S
H858 C870 0.950 . S
H859 C871 0.950 . S
C860 H852 0.950 . S
C860 C861 1.386 . S
C860 C862 1.391 . S
C861 C860 1.386 . S
C861 C865 1.393 . S
C862 H854 0.950 . S
C862 C860 1.391 . S
C862 C863 1.400 . S
C863 C862 1.400 . S
C863 C864 1.398 . S
C863 C869 1.491 . S
C864 H855 0.950 . S
C864 C863 1.398 . S
C864 C865 1.391 . S
C865 H853 0.950 . S
C865 C861 1.393 . S
C865 C864 1.391 . S
C866 H856 0.950 . S
C866 C867 1.386 . S
C866 C868 1.391 . S
C867 C866 1.386 . S
C867 C871 1.393 . S
C868 H857 0.950 . S
C868 C866 1.391 . S
C868 C869 1.400 . S
C869 C863 1.491 . S
C869 C868 1.400 . S
C869 C870 1.398 . S
C870 H858 0.950 . S
C870 C869 1.398 . S
C870 C871 1.391 . S
C871 H859 0.950 . S
C871 C867 1.393 . S
C871 C870 1.391 . S
H872 C880 0.950 . S
H873 C885 0.950 . S
H874 C882 0.950 . S
H875 C884 0.950 . S
H876 C886 0.950 . S
H877 C888 0.950 . S
H878 C890 0.950 . S
H879 C891 0.950 . S
C880 H872 0.950 . S
C880 C881 1.386 . S
C880 C882 1.391 . S
C881 C880 1.386 . S
C881 C885 1.393 . S
C882 H874 0.950 . S
C882 C880 1.391 . S
C882 C883 1.400 . S
C883 C882 1.400 . S
C883 C884 1.398 . S
C883 C889 1.491 . S
C884 H875 0.950 . S
C884 C883 1.398 . S
C884 C885 1.391 . S
C885 H873 0.950 . S
C885 C881 1.393 . S
C885 C884 1.391 . S
C886 H876 0.950 . S
C886 C887 1.386 . S
C886 C888 1.391 . S
C887 C886 1.386 . S
C887 C891 1.393 . S
C888 H877 0.950 . S
C888 C886 1.391 . S
C888 C889 1.400 . S
C889 C883 1.491 . S
C889 C888 1.400 . S
C889 C890 1.398 . S
C890 H878 0.950 . S
C890 C889 1.398 . S
C890 C891 1.391 . S
C891 H879 0.950 . S
C891 C887 1.393 . S
C891 C890 1.391 . S
H892 C900 0.950 . S
H893 C905 0.950 . S
H894 C902 0.950 . S
H895 C904 0.950 . S
H896 C906 0.950 . S
H897 C908 0.950 . S
H898 C910 0.950 . S
H899 C911 0.950 . S
C900 H892 0.950 . S
C900 C901 1.386 . S
C900 C902 1.391 . S
C901 C900 1.386 . S
C901 C905 1.393 . S
C902 H894 0.950 . S
C902 C900 1.391 . S
C902 C903 1.400 . S
C903 C902 1.400 . S
C903 C904 1.398 . S
C903 C909 1.491 . S
C904 H895 0.950 . S
C904 C903 1.398 . S
C904 C905 1.391 . S
C905 H893 0.950 . S
C905 C901 1.393 . S
C905 C904 1.391 . S
C906 H896 0.950 . S
C906 C907 1.386 . S
C906 C908 1.391 . S
C907 C906 1.386 . S
C907 C911 1.393 . S
C908 H897 0.950 . S
C908 C906 1.391 . S
C908 C909 1.400 . S
C909 C903 1.491 . S
C909 C908 1.400 . S
C909 C910 1.398 . S
C910 H898 0.950 . S
C910 C909 1.398 . S
C910 C911 1.391 . S
C911 H899 0.950 . S
C911 C907 1.393 . S
C911 C910 1.391 . S
C441 C14 2.380 . S
C447 C374 2.408 . S
C461 C398 2.187 . S
C467 C38 2.205 . S
C481 C218 2.186 . S
C487 C74 2.196 . S
C501 C122 2.409 . S
C507 C266 2.381 . S
C521 C146 2.205 . S
C527 C290 2.196 . S
C541 C326 2.176 . S
C547 C182 2.185 . S
C561 C4 0.718 . S
C567 C256 0.658 . S
C581 C291 0.671 . S
C587 C39 0.668 . S
C601 C327 0.659 . S
C607 C75 0.681 . S
C621 C112 0.707 . S
C627 C364 0.675 . S
C641 C399 0.682 . S
C647 C147 0.658 . S
C661 C183 0.649 . S
C667 C219 0.691 . S
C681 C110 1.988 . S
C687 C2 1.995 . S
C701 C158 2.474 . S
C707 C50 2.464 . S
C721 C194 2.422 . S
C727 C86 2.419 . S
C741 C230 2.460 . S
C747 C338 2.470 . S
C761 C254 1.987 . S
C767 C362 2.002 . S
C781 C302 2.419 . S
C787 C410 2.425 . S
C801 C292 1.303 . S
C807 C3 1.305 . S
C821 C328 1.305 . S
C827 C40 1.303 . S
C841 C363 1.309 . S
C847 C76 1.311 . S
C861 C400 1.306 . S
C867 C111 1.313 . S
C881 C220 1.302 . S
C887 C148 1.306 . S
C901 C184 1.302 . S
C907 C255 1.313 . S
