# Generated by pormake.
# Topology vby, (6)-cn, num edge types: 1
# Building blocks:
#     Node 0, Type 0, BuildingBlock: KUMBOL_clean_sbu_1, # of connection points: 6
#     Node 1, Type 0, BuildingBlock: KUMBOL_clean_sbu_1, # of connection points: 6
#     Node 2, Type 0, BuildingBlock: KUMBOL_clean_sbu_1, # of connection points: 6
#     Node 3, Type 0, BuildingBlock: KUMBOL_clean_sbu_1, # of connection points: 6
#     Node 4, Type 0, BuildingBlock: KUMBOL_clean_sbu_1, # of connection points: 6
#     Node 5, Type 0, BuildingBlock: KUMBOL_clean_sbu_1, # of connection points: 6
#     Node 6, Type 0, BuildingBlock: KUMBOL_clean_sbu_1, # of connection points: 6
#     Node 7, Type 0, BuildingBlock: KUMBOL_clean_sbu_1, # of connection points: 6
#     Edge 8, Type (0, 0), BuildingBlock: XUDNAN_clean_linker_2, # of connection points: 2
#     Edge 9, Type (0, 0), BuildingBlock: XUDNAN_clean_linker_2, # of connection points: 2
#     Edge 10, Type (0, 0), BuildingBlock: XUDNAN_clean_linker_2, # of connection points: 2
#     Edge 11, Type (0, 0), BuildingBlock: XUDNAN_clean_linker_2, # of connection points: 2
#     Edge 12, Type (0, 0), BuildingBlock: XUDNAN_clean_linker_2, # of connection points: 2
#     Edge 13, Type (0, 0), BuildingBlock: XUDNAN_clean_linker_2, # of connection points: 2
#     Edge 14, Type (0, 0), BuildingBlock: XUDNAN_clean_linker_2, # of connection points: 2
#     Edge 15, Type (0, 0), BuildingBlock: XUDNAN_clean_linker_2, # of connection points: 2
#     Edge 16, Type (0, 0), BuildingBlock: XUDNAN_clean_linker_2, # of connection points: 2
#     Edge 17, Type (0, 0), BuildingBlock: XUDNAN_clean_linker_2, # of connection points: 2
#     Edge 18, Type (0, 0), BuildingBlock: XUDNAN_clean_linker_2, # of connection points: 2
#     Edge 19, Type (0, 0), BuildingBlock: XUDNAN_clean_linker_2, # of connection points: 2
#     Edge 20, Type (0, 0), BuildingBlock: XUDNAN_clean_linker_2, # of connection points: 2
#     Edge 21, Type (0, 0), BuildingBlock: XUDNAN_clean_linker_2, # of connection points: 2
#     Edge 22, Type (0, 0), BuildingBlock: XUDNAN_clean_linker_2, # of connection points: 2
#     Edge 23, Type (0, 0), BuildingBlock: XUDNAN_clean_linker_2, # of connection points: 2
#     Edge 24, Type (0, 0), BuildingBlock: XUDNAN_clean_linker_2, # of connection points: 2
#     Edge 25, Type (0, 0), BuildingBlock: XUDNAN_clean_linker_2, # of connection points: 2
#     Edge 26, Type (0, 0), BuildingBlock: XUDNAN_clean_linker_2, # of connection points: 2
#     Edge 27, Type (0, 0), BuildingBlock: XUDNAN_clean_linker_2, # of connection points: 2
#     Edge 28, Type (0, 0), BuildingBlock: XUDNAN_clean_linker_2, # of connection points: 2
#     Edge 29, Type (0, 0), BuildingBlock: XUDNAN_clean_linker_2, # of connection points: 2
#     Edge 30, Type (0, 0), BuildingBlock: XUDNAN_clean_linker_2, # of connection points: 2
#     Edge 31, Type (0, 0), BuildingBlock: XUDNAN_clean_linker_2, # of connection points: 2
# Relax obj value: 0.083
# Max RMSD: 0.155
# Mean RMSD: 0.155
data_MOF--net-vby--node1-KUMBOL_clean_sbu_1--edge1-XUDNAN_clean_linker_2
_symmetry_space_group_name_H-M    P1
_symmetry_Int_Tables_number       1
_symmetry_cell_setting            triclinic
loop_
_symmetry_equiv_pos_as_xyz
'x, y, z'
_cell_length_a     15.131696
_cell_length_b     98.849393
_cell_length_c     29.571711
_cell_angle_alpha  113.6131
_cell_angle_beta   89.986952
_cell_angle_gamma 90.12553
loop_
_atom_site_label
_atom_site_type_symbol
_atom_site_fract_x
_atom_site_fract_y
_atom_site_fract_z
_atom_type_partial_charge
C0 C 0.25915 0.42241 0.0894 0.0
C1 C 0.36174 0.42222 0.02574 0.0
C2 C 0.28179 0.41758 0.03943 0.0
C3 C 0.41655 0.43218 0.06223 0.0
C4 C 0.31601 0.43198 0.12606 0.0
C5 C 0.39391 0.43702 0.11216 0.0
N6 N 0.18176 0.4178 0.1021 0.0
C7 C 0.15701 0.42244 0.15029 0.0
C8 C 0.29227 0.43643 0.17572 0.0
C9 C 0.21246 0.43161 0.18785 0.0
Gd10 Gd 0.07541 0.36141 0.99788 0.0
Gd11 Gd 0.09012 0.40498 0.03539 0.0
N12 N 0.22612 0.40832 0.00438 0.0
C13 C 0.3839 0.41685 0.97563 0.0
C14 C 0.24571 0.40354 0.95544 0.0
C15 C 0.32566 0.40745 0.94037 0.0
H16 H 0.1993 0.39709 0.92783 0.0
H17 H 0.34131 0.40351 0.90149 0.0
H18 H 0.93009 0.36381 0.08642 0.0
H19 H 0.09335 0.41961 0.15992 0.0
H20 H 0.77739 0.35561 0.09187 0.0
H21 H 0.44525 0.42005 0.96374 0.0
H22 H 0.47739 0.43608 0.05224 0.0
H23 H 0.14684 0.34048 0.88415 0.0
H24 H 0.33448 0.44373 0.20491 0.0
H25 H 0.19259 0.43526 0.22608 0.0
H26 H 0.69861 0.3261 0.92332 0.0
H27 H 0.43783 0.44453 0.13983 0.0
H28 H 0.92425 0.3164 0.80031 0.0
H29 H 0.08223 0.32339 0.8045 0.0
N30 N 1.02466 0.3441 0.92225 0.0
C31 C 0.93928 0.33972 0.9217 0.0
C32 C 0.07709 0.33787 0.88171 0.0
C33 C 0.95182 0.32413 0.83484 0.0
C34 C 0.04105 0.32805 0.83702 0.0
C35 C 0.90031 0.32968 0.87779 0.0
H36 H 0.78108 0.31751 0.84508 0.0
N37 N 0.93312 0.35382 0.00814 0.0
C38 C 0.89272 0.34447 0.966 0.0
C39 C 0.7636 0.34381 0.01307 0.0
C40 C 0.80611 0.33943 0.96729 0.0
C41 C 0.89493 0.35719 0.05319 0.0
C42 C 0.80879 0.35252 0.05625 0.0
O43 O 0.20861 0.39176 0.04571 0.0
O44 O 0.20155 0.36981 0.97863 0.0
O45 O 0.16279 0.35427 0.04293 0.0
O46 O 0.09172 0.33824 0.98163 0.0
O47 O 0.04684 0.39063 0.95763 0.0
O48 O 0.11838 0.36832 0.93683 0.0
O49 O 0.94563 0.37295 0.00106 0.0
O50 O 0.94489 0.39858 0.03198 0.0
O51 O 0.0804 0.4202 0.99977 0.0
O52 O 0.04254 0.42738 0.07648 0.0
O53 O 0.08513 0.37679 0.0788 0.0
O54 O 1.02093 0.39927 0.09239 0.0
C55 C 0.24847 0.38051 0.01091 0.0
C56 C 0.07928 0.3783 0.92459 0.0
C57 C 0.22311 0.33014 0.00267 0.0
C58 C 0.28664 0.30688 0.99702 0.0
C59 C 0.35329 0.32033 0.95256 0.0
C60 C 0.28888 0.33129 0.97101 0.0
C61 C 0.35179 0.30811 0.96507 0.0
C62 C 0.22266 0.318 0.01605 0.0
C63 C 0.14795 0.34029 0.01673 0.0
C64 C 0.76556 0.32998 0.92317 0.0
C65 C 0.81251 0.32512 0.87856 0.0
H66 H 0.69684 0.34021 0.0156 0.0
C67 C 0.90455 0.38565 0.01457 0.0
C68 C 0.03877 0.38847 0.10614 0.0
C69 C 0.98169 0.43998 0.0304 0.0
C70 C 0.94154 0.4622 0.01855 0.0
C71 C 0.83344 0.44265 0.00434 0.0
C72 C 0.89612 0.43439 0.01689 0.0
C73 C 0.85604 0.45642 0.00478 0.0
C74 C 1.00402 0.45393 0.03167 0.0
C75 C 0.05116 0.43103 0.03896 0.0
H76 H 0.40376 0.3212 0.92791 0.0
H77 H 0.28901 0.34045 0.95968 0.0
H78 H 0.40181 0.29965 0.95009 0.0
H79 H 0.17075 0.31694 0.03973 0.0
H80 H 0.76746 0.43829 0.99367 0.0
H81 H 0.87844 0.42357 0.01526 0.0
H82 H 0.8066 0.4626 0.99457 0.0
H83 H 0.07088 0.45809 0.04114 0.0
C84 C 0.12369 0.6768 0.1264 0.0
C85 C 0.23441 0.68233 0.07652 0.0
C86 C 0.15374 0.67577 0.08051 0.0
C87 C 0.28512 0.6898 0.11907 0.0
C88 C 0.17427 0.68439 0.16916 0.0
C89 C 0.25526 0.6908 0.16519 0.0
N90 N 0.04498 0.6705 0.12921 0.0
C91 C 1.01121 0.67194 0.17375 0.0
C92 C 0.14167 0.68539 0.21474 0.0
C93 C 0.05957 0.67921 0.21705 0.0
Gd94 Gd 0.96833 0.61459 0.98321 0.0
Gd95 Gd 0.97077 0.65876 0.05401 0.0
N96 N 0.10505 0.66796 0.03952 0.0
C97 C 0.26155 0.6812 0.02983 0.0
C98 C 0.12858 0.66749 0.9944 0.0
C99 C 0.20792 0.67388 0.9887 0.0
H100 H 0.08608 0.66228 0.96295 0.0
H101 H 0.22726 0.67328 0.9527 0.0
H102 H 0.87566 0.6142 0.08721 0.0
H103 H 0.94621 0.66773 0.17614 0.0
H104 H 0.74036 0.60454 0.10937 0.0
H105 H 0.32309 0.68612 0.02525 0.0
H106 H 0.3475 0.69487 0.11672 0.0
H107 H 0.94908 0.6083 0.86302 0.0
H108 H 0.17873 0.6911 0.24843 0.0
H109 H 0.03304 0.68019 0.25223 0.0
H110 H 0.58904 0.58016 0.95532 0.0
H111 H 0.2951 0.69665 0.19766 0.0
H112 H 0.71061 0.58366 0.81087 0.0
H113 H 0.84464 0.59549 0.7952 0.0
N114 N 0.8711 0.60477 0.9172 0.0
C115 C 0.7982 0.59826 0.92681 0.0
C116 C 0.88879 0.60377 0.87075 0.0
C117 C 0.75519 0.58956 0.84106 0.0
C118 C 0.83056 0.59629 0.83208 0.0
C119 C 0.73847 0.59042 0.88874 0.0
H120 H 0.61801 0.57748 0.87038 0.0
N121 N 0.84032 0.60743 0.01171 0.0
C122 C 0.78225 0.59966 0.9752 0.0
C123 C 0.69012 0.59537 0.03494 0.0
C124 C 0.70579 0.59336 0.98599 0.0
C125 C 0.82714 0.60894 0.05911 0.0
C126 C 0.75105 0.60319 0.07161 0.0
O127 O 0.10341 0.64753 0.04098 0.0
O128 O 0.10958 0.62272 0.98808 0.0
O129 O 0.99881 0.59535 0.99957 0.0
O130 O 1.02041 0.59478 0.92546 0.0
O131 O 0.9378 0.64789 0.97266 0.0
O132 O 1.02065 0.62669 0.93835 0.0
O133 O 0.84067 0.62779 0.9871 0.0
O134 O 0.84856 0.64721 0.06269 0.0
O135 O 0.90521 0.6729 0.02263 0.0
O136 O 0.92928 0.68063 0.10155 0.0
O137 O 1.01518 0.62456 0.0624 0.0
O138 O 0.93293 0.64576 0.0988 0.0
C139 C 0.14709 0.63533 0.0162 0.0
C140 C 0.98407 0.63844 0.93603 0.0
C141 C 0.05433 0.57225 0.93636 0.0
C142 C 0.05898 0.5482 0.94165 0.0
C143 C 0.1261 0.55146 0.87203 0.0
C144 C 0.10053 0.56622 0.89149 0.0
C145 C 0.10519 0.54248 0.89672 0.0
C146 C 0.03447 0.56321 0.96184 0.0
C147 C 1.02247 0.58763 0.95406 0.0
C148 C 0.64767 0.58521 0.94774 0.0
C149 C 0.66422 0.58367 0.8993 0.0
H150 H 0.63171 0.59078 0.04472 0.0
C151 C 0.80187 0.63783 0.0261 0.0
C152 C 0.98459 0.63547 0.10175 0.0
C153 C 0.83399 0.69546 0.07715 0.0
C154 C 0.7877 0.71843 0.07223 0.0
C155 C 0.72102 0.71059 0.13248 0.0
C156 C 0.77351 0.69794 0.11564 0.0
C157 C 0.7287 0.72088 0.11133 0.0
C158 C 0.8398 0.70562 0.05489 0.0
C159 C 0.90154 0.68393 0.06568 0.0
H160 H 0.16167 0.54692 0.83743 0.0
H161 H 0.11646 0.57289 0.87112 0.0
H162 H 0.12564 0.53102 0.88075 0.0
H163 H 0.99758 0.56766 0.9961 0.0
H164 H 0.67538 0.71256 0.16264 0.0
H165 H 0.76896 0.69035 0.13371 0.0
H166 H 0.68816 0.73072 0.12524 0.0
H167 H 0.88764 0.70393 0.0258 0.0
C168 C 0.26043 0.60138 0.45339 0.0
C169 C 0.34775 0.60138 0.52226 0.0
C170 C 0.26806 0.60442 0.50356 0.0
C171 C 0.4196 0.59553 0.49031 0.0
C172 C 0.33191 0.59531 0.42115 0.0
C173 C 0.41167 0.59249 0.43994 0.0
N174 N 0.18385 0.60485 0.43651 0.0
C175 C 0.17145 0.60144 0.3875 0.0
C176 C 0.32115 0.59235 0.37099 0.0
C177 C 0.24024 0.59529 0.35403 0.0
Gd178 Gd 0.06853 0.65922 0.54486 0.0
Gd179 Gd 0.07302 0.61488 0.49516 0.0
N180 N 0.19788 0.61038 0.53396 0.0
C181 C 0.3526 0.60419 0.57249 0.0
C182 C 0.20013 0.61202 0.58192 0.0
C183 C 0.27804 0.60931 0.60225 0.0
H184 H 0.14138 0.61488 0.60417 0.0
H185 H 0.2801 0.61092 0.64063 0.0
H186 H 0.94246 0.6653 0.4625 0.0
H187 H 0.10841 0.60338 0.37412 0.0
H188 H 0.79011 0.67378 0.45708 0.0
H189 H 0.41275 0.60205 0.58833 0.0
H190 H 0.48145 0.59319 0.50412 0.0
H191 H 0.12033 0.67348 0.66582 0.0
H192 H 0.37453 0.58766 0.345 0.0
H193 H 0.23076 0.59279 0.31522 0.0
H194 H 0.67605 0.68819 0.62158 0.0
H195 H 0.46761 0.58791 0.41579 0.0
H196 H 0.88265 0.69048 0.74739 0.0
H197 H 0.04264 0.68512 0.74571 0.0
N198 N 1.00408 0.67143 0.623 0.0
C199 C 0.91798 0.67527 0.62318 0.0
C200 C 0.05012 0.67556 0.66624 0.0
C201 C 0.91619 0.68524 0.71229 0.0
C202 C 1.00655 0.68226 0.71151 0.0
C203 C 0.87125 0.6821 0.6678 0.0
H204 H 0.74514 0.69124 0.70048 0.0
N205 N 0.92803 0.66796 0.53712 0.0
C206 C 0.87892 0.6736 0.57887 0.0
C207 C 0.75915 0.6782 0.53296 0.0
C208 C 0.79231 0.67862 0.57778 0.0
C209 C 0.89984 0.66895 0.49455 0.0
C210 C 0.81395 0.67366 0.49142 0.0
O211 O 0.18964 0.62856 0.48622 0.0
O212 O 0.2013 0.64991 0.55514 0.0
O213 O 0.12657 0.67021 0.50169 0.0
O214 O 0.10778 0.68238 0.57996 0.0
O215 O 1.02937 0.62726 0.57377 0.0
O216 O 0.11113 0.64861 0.59679 0.0
O217 O 0.94305 0.64598 0.51199 0.0
O218 O 0.93861 0.62485 0.52635 0.0
O219 O 0.05975 0.59446 0.50637 0.0
O220 O 1.00332 0.59617 0.4406 0.0
O221 O 0.09452 0.64592 0.46365 0.0
O222 O 1.02076 0.62346 0.43967 0.0
C223 C 0.23878 0.63831 0.52094 0.0
C224 C 0.06174 0.63938 0.60775 0.0
C225 C 0.21092 0.69192 0.53974 0.0
C226 C 0.26977 0.71476 0.53801 0.0
C227 C 0.36885 0.69505 0.53548 0.0
C228 C 0.29679 0.68646 0.53755 0.0
C229 C 0.35568 0.70908 0.53563 0.0
C230 C 0.19758 0.706 0.53994 0.0
C231 C 0.13349 0.6829 0.5388 0.0
C232 C 0.74327 0.68446 0.6217 0.0
C233 C 0.78265 0.68619 0.66664 0.0
H234 H 0.6927 0.68191 0.53053 0.0
C235 C 0.89841 0.63608 0.52195 0.0
C236 C 0.05176 0.63465 0.43071 0.0
C237 C 0.9866 0.57245 0.44736 0.0
C238 C 0.98281 0.54843 0.45319 0.0
C239 C 0.91064 0.55171 0.38485 0.0
C240 C 0.93723 0.56644 0.40357 0.0
C241 C 0.93336 0.54276 0.40929 0.0
C242 C 1.00878 0.56339 0.47249 0.0
C243 C 1.01806 0.58788 0.46478 0.0
H244 H 0.43524 0.69082 0.53373 0.0
H245 H 0.30785 0.67556 0.53694 0.0
H246 H 0.41288 0.71556 0.53469 0.0
H247 H 0.13064 0.70997 0.54059 0.0
H248 H 0.87257 0.5472 0.35107 0.0
H249 H 0.91959 0.5731 0.38344 0.0
H250 H 0.91158 0.53135 0.39397 0.0
H251 H 0.04782 0.56782 0.50602 0.0
C252 C 0.05866 0.34182 0.37535 0.0
C253 C 0.20536 0.33587 0.39483 0.0
C254 C 0.12361 0.3431 0.40992 0.0
C255 C 0.22233 0.32797 0.34434 0.0
C256 C 0.07394 0.33335 0.32481 0.0
C257 C 0.15684 0.32674 0.30939 0.0
N258 N 0.97882 0.34815 0.39138 0.0
C259 C 0.90987 0.34589 0.35942 0.0
C260 C 1.00448 0.33139 0.29148 0.0
C261 C 0.92173 0.33752 0.30897 0.0
Gd262 Gd 0.9493 0.40586 0.55081 0.0
Gd263 Gd 0.96472 0.36199 0.47613 0.0
N264 N 0.1054 0.35086 0.45845 0.0
C265 C 0.26673 0.33645 0.43097 0.0
C266 C 0.16454 0.35118 0.49392 0.0
C267 C 0.24604 0.34409 0.48075 0.0
H268 H 0.14967 0.35734 0.53242 0.0
H269 H 0.29297 0.34459 0.509 0.0
H270 H 0.81063 0.40059 0.45555 0.0
H271 H 0.84577 0.35058 0.37304 0.0
H272 H 0.65762 0.40682 0.44383 0.0
H273 H 0.32984 0.3309 0.42084 0.0
H274 H 0.28518 0.3225 0.33202 0.0
H275 H 0.98674 0.42092 0.67325 0.0
H276 H 1.01354 0.32493 0.25235 0.0
H277 H 0.86725 0.33585 0.28357 0.0
H278 H 0.54836 0.43258 0.60838 0.0
H279 H 0.17017 0.32033 0.27064 0.0
H280 H 0.74422 0.44025 0.74368 0.0
H281 H 0.90132 0.43421 0.74926 0.0
N282 N 0.87705 0.41844 0.6255 0.0
C283 C 0.79193 0.42215 0.62127 0.0
C284 C 0.9173 0.42303 0.67051 0.0
C285 C 0.78099 0.43419 0.71022 0.0
C286 C 0.86956 0.43077 0.71357 0.0
C287 C 0.74138 0.43005 0.66374 0.0
H288 H 0.61352 0.43969 0.69087 0.0
N289 N 0.80442 0.4104 0.5337 0.0
C290 C 0.75504 0.41819 0.57432 0.0
C291 C 0.6317 0.41777 0.52178 0.0
C292 C 0.66691 0.42198 0.56929 0.0
C293 C 0.77124 0.40661 0.48736 0.0
C294 C 0.68425 0.41012 0.48068 0.0
O295 O 0.09673 0.37432 0.48312 0.0
O296 O 0.089 0.39751 0.54838 0.0
O297 O 0.94183 0.4239 0.52738 0.0
O298 O 1.0176 0.42655 0.59253 0.0
O299 O 0.99588 0.37078 0.55784 0.0
O300 O 0.99653 0.39632 0.60385 0.0
O301 O 0.8412 0.3902 0.55524 0.0
O302 O 0.83079 0.37252 0.47728 0.0
O303 O 0.89441 0.35345 0.52334 0.0
O304 O 0.92108 0.33911 0.44743 0.0
O305 O 0.99508 0.39634 0.47166 0.0
O306 O 0.91314 0.37527 0.43554 0.0
C307 C 0.13401 0.38613 0.51739 0.0
C308 C 1.00491 0.38258 0.59956 0.0
C309 C 0.05848 0.44075 0.54741 0.0
C310 C 0.0956 0.46224 0.53002 0.0
C311 C 0.19914 0.44182 0.50992 0.0
C312 C 0.13989 0.43433 0.52792 0.0
C313 C 0.17719 0.45564 0.51074 0.0
C314 C 0.0366 0.45472 0.54864 0.0
C315 C 0.99239 0.43259 0.56271 0.0
C316 C 0.61636 0.42968 0.61162 0.0
C317 C 0.65342 0.43369 0.65863 0.0
H318 H 0.56401 0.42037 0.51644 0.0
C319 C 0.79281 0.38086 0.5191 0.0
C320 C 0.95829 0.38623 0.4327 0.0
C321 C 0.92256 0.32833 0.50511 0.0
C322 C 0.89906 0.3055 0.51679 0.0
C323 C 0.0421 0.31774 0.53486 0.0
C324 C 1.00939 0.32885 0.52201 0.0
C325 C 0.9876 0.3061 0.5321 0.0
C326 C 0.86703 0.31658 0.50239 0.0
C327 C 0.89141 0.33996 0.48976 0.0
H328 H 0.26197 0.43684 0.49485 0.0
H329 H 0.15697 0.42348 0.52605 0.0
H330 H 0.22424 0.46122 0.49646 0.0
H331 H 0.97259 0.45949 0.5626 0.0
H332 H 0.10977 0.3182 0.54726 0.0
H333 H 0.05174 0.3379 0.52547 0.0
H334 H 1.01482 0.29755 0.54211 0.0
H335 H 0.79924 0.31623 0.49013 0.0
C336 C 0.72793 0.92124 0.11332 0.0
C337 C 0.84836 0.92425 0.0635 0.0
C338 C 0.76528 0.91833 0.06714 0.0
C339 C 0.89317 0.93325 0.10667 0.0
C340 C 0.77377 0.93005 0.15666 0.0
C341 C 0.85652 0.93601 0.15306 0.0
N342 N 0.64663 0.91564 0.11582 0.0
C343 C 0.60652 0.91879 0.16028 0.0
C344 C 0.73448 0.93283 0.2024 0.0
C345 C 0.65041 0.92721 0.20418 0.0
Gd346 Gd 0.56942 0.85907 0.98193 0.0
Gd347 Gd 0.57893 0.90282 0.03935 0.0
N348 N 0.72086 0.90949 0.02578 0.0
C349 C 0.88376 0.92099 0.01649 0.0
C350 C 0.75278 0.90685 0.97992 0.0
C351 C 0.83559 0.91229 0.97454 0.0
H352 H 0.71431 0.90061 0.94762 0.0
H353 H 0.86165 0.90994 0.93809 0.0
H354 H 0.42669 0.86064 0.0695 0.0
H355 H 0.53978 0.91516 0.16218 0.0
H356 H 0.27468 0.85224 0.07526 0.0
H357 H 0.94775 0.92526 0.01219 0.0
H358 H 0.95687 0.93799 0.10461 0.0
H359 H 0.62286 0.84533 0.86121 0.0
H360 H 0.76781 0.93952 0.23652 0.0
H361 H 0.61871 0.9296 0.23936 0.0
H362 H 0.18721 0.82589 0.90605 0.0
H363 H 0.89252 0.94286 0.18598 0.0
H364 H 0.39667 0.82214 0.77977 0.0
H365 H 0.55013 0.83104 0.78151 0.0
N366 N 0.50995 0.84516 0.904 0.0
C367 C 0.42643 0.84006 0.904 0.0
C368 C 0.55509 0.84181 0.86088 0.0
C369 C 0.4279 0.82854 0.81487 0.0
C370 C 0.51447 0.83358 0.81567 0.0
C371 C 0.38299 0.83166 0.85936 0.0
H372 H 0.26183 0.82021 0.82656 0.0
N373 N 0.42636 0.85186 0.99135 0.0
C374 C 0.38398 0.84328 0.94892 0.0
C375 C 0.25756 0.84162 0.99631 0.0
C376 C 0.29758 0.83816 0.95026 0.0
C377 C 0.38988 0.85464 0.0363 0.0
C378 C 0.30433 0.84976 0.03952 0.0
O379 O 0.70711 0.89023 0.04098 0.0
O380 O 0.70151 0.86796 0.97365 0.0
O381 O 0.5967 0.84611 0.02434 0.0
O382 O 0.6256 0.8371 0.946 0.0
O383 O 0.54721 0.89071 0.95748 0.0
O384 O 0.62718 0.86917 0.93248 0.0
O385 O 0.44485 0.87134 0.97825 0.0
O386 O 0.43914 0.89465 0.04149 0.0
O387 O 0.55647 0.91729 0.00117 0.0
O388 O 0.53151 0.9252 0.07994 0.0
O389 O 0.59972 0.87232 0.06263 0.0
O390 O 0.51484 0.89308 0.08858 0.0
C391 C 0.7465 0.87874 0.00685 0.0
C392 C 0.58848 0.87964 0.92314 0.0
C393 C 0.70969 0.82854 0.99626 0.0
C394 C 0.7816 0.80802 0.00708 0.0
C395 C 0.86289 0.83068 0.02189 0.0
C396 C 0.78811 0.83676 0.00969 0.0
C397 C 0.85965 0.81643 0.02096 0.0
C398 C 0.70674 0.81416 0.99454 0.0
C399 C 0.62879 0.83502 0.98674 0.0
C400 C 0.25391 0.82986 0.90581 0.0
C401 C 0.29642 0.82664 0.86052 0.0
H402 H 0.19105 0.83792 0.99892 0.0
C403 C 0.40065 0.88299 0.00783 0.0
C404 C 0.54899 0.88194 0.09597 0.0
C405 C 0.47587 0.93972 0.03843 0.0
C406 C 0.45786 0.96267 0.02643 0.0
C407 C 0.33042 0.95033 0.04355 0.0
C408 C 0.38481 0.93919 0.04569 0.0
C409 C 0.36641 0.96198 0.03401 0.0
C410 C 0.5121 0.95143 0.02894 0.0
C411 C 0.53592 0.92852 0.04162 0.0
H412 H 0.92334 0.83705 0.03244 0.0
H413 H 0.79102 0.8479 0.01132 0.0
H414 H 0.91836 0.81193 0.03064 0.0
H415 H 0.64554 0.80791 0.98475 0.0
H416 H 0.25995 0.94991 0.04911 0.0
H417 H 0.35608 0.93024 0.05311 0.0
H418 H 0.32231 0.97029 0.03169 0.0
H419 H 0.58299 0.95184 0.02419 0.0
C420 C 0.63557 0.17832 0.12212 0.0
C421 C 0.76571 0.18069 0.07774 0.0
C422 C 0.68148 0.17468 0.07812 0.0
C423 C 0.80426 0.19014 0.12249 0.0
C424 C 0.67349 0.18797 0.16702 0.0
C425 C 0.75862 0.19367 0.16704 0.0
N426 N 0.55239 0.17297 0.12071 0.0
C427 C 0.50159 0.17752 0.16224 0.0
C428 C 0.62367 0.19193 0.21036 0.0
C429 C 0.53693 0.1868 0.20785 0.0
Gd430 Gd 0.48409 0.11369 0.99284 0.0
Gd431 Gd 0.50009 0.15748 0.04249 0.0
N432 N 0.64292 0.16537 0.03544 0.0
C433 C 0.80784 0.17724 0.03225 0.0
C434 C 0.68097 0.1627 0.99088 0.0
C435 C 0.76487 0.16831 0.9886 0.0
H436 H 0.64647 0.15623 0.95729 0.0
H437 H 0.79582 0.16589 0.95321 0.0
H438 H 0.36441 0.11939 0.0953 0.0
H439 H 0.43292 0.17435 0.15977 0.0
H440 H 0.21383 0.1144 0.11556 0.0
H441 H 0.87255 0.18168 0.03035 0.0
H442 H 0.86916 0.19485 0.12301 0.0
H443 H 0.4952 0.10045 0.86873 0.0
H444 H 0.65053 0.1993 0.24563 0.0
H445 H 0.49673 0.19024 0.24082 0.0
H446 H 0.07854 0.08775 0.95796 0.0
H447 H 0.789 0.20107 0.2012 0.0
H448 H 0.24665 0.07998 0.81239 0.0
H449 H 0.39775 0.08701 0.79808 0.0
N450 N 0.39857 0.10163 0.92257 0.0
C451 C 0.3164 0.09763 0.93145 0.0
C452 C 0.4286 0.0978 0.87554 0.0
C453 C 0.28885 0.08599 0.84363 0.0
C454 C 0.37397 0.09001 0.83538 0.0
C455 C 0.25907 0.08978 0.89204 0.0
H456 H 0.1286 0.08016 0.87223 0.0
N457 N 0.34303 0.11006 0.01787 0.0
C458 C 0.28797 0.10192 0.98027 0.0
C459 C 0.17464 0.10321 0.03946 0.0
C460 C 0.20179 0.09843 0.99023 0.0
C461 C 0.31852 0.11409 0.06584 0.0
C462 C 0.23351 0.11097 0.07739 0.0
O463 O 0.63133 0.14588 0.044 0.0
O464 O 0.6241 0.1211 0.99008 0.0
O465 O 0.49866 0.09826 0.02765 0.0
O466 O 0.52833 0.09125 0.95 0.0
O467 O 0.48162 0.14364 0.96019 0.0
O468 O 0.55336 0.12138 0.93971 0.0
O469 O 0.37151 0.12729 0.98112 0.0
O470 O 0.36287 0.14908 0.0491 0.0
O471 O 0.47233 0.16887 0.99511 0.0
O472 O 0.44443 0.17967 0.07324 0.0
O473 O 0.52437 0.12668 0.07234 0.0
O474 O 0.44537 0.14816 0.09521 0.0
C475 C 0.66892 0.13314 0.01669 0.0
C476 C 0.53001 0.13273 0.9298 0.0
C477 C 0.59337 0.07789 0.9922 0.0
C478 C 0.63759 0.05439 0.99412 0.0
C479 C 0.74712 0.07348 0.00406 0.0
C480 C 0.68134 0.08271 0.9994 0.0
C481 C 0.72563 0.05941 0.00128 0.0
C482 C 0.57133 0.06381 0.9901 0.0
C483 C 0.52338 0.0874 0.98721 0.0
C484 C 0.14506 0.09049 0.95093 0.0
C485 C 0.1736 0.08617 0.90207 0.0
H486 H 0.1087 0.10083 0.0486 0.0
C487 C 0.32436 0.13801 0.01334 0.0
C488 C 0.48669 0.13822 0.10645 0.0
C489 C 0.36588 0.18776 0.01944 0.0
C490 C 0.30188 0.20946 0.01239 0.0
C491 C 0.22153 0.18615 0.98225 0.0
C492 C 0.29055 0.17952 0.99715 0.0
C493 C 0.22734 0.20099 0.98938 0.0
C494 C 0.37092 0.20276 0.02763 0.0
C495 C 0.44288 0.18072 0.03081 0.0
H496 H 0.81509 0.07721 0.00968 0.0
H497 H 0.69892 0.09356 0.00138 0.0
H498 H 0.7779 0.05245 0.00497 0.0
H499 H 0.50316 0.06008 0.98434 0.0
H500 H 0.16367 0.17975 0.96472 0.0
H501 H 0.28594 0.16793 0.99052 0.0
H502 H 0.17315 0.2059 0.9774 0.0
H503 H 0.42967 0.20909 0.04444 0.0
C504 C 0.76703 0.09649 0.43463 0.0
C505 C 0.86105 0.09132 0.4927 0.0
C506 C 0.78374 0.09747 0.48237 0.0
C507 C 0.92286 0.08456 0.45504 0.0
C508 C 0.82839 0.08933 0.3966 0.0
C509 C 0.90703 0.0837 0.40732 0.0
N510 N 0.68907 0.10169 0.42476 0.0
C511 C 0.6645 0.09828 0.37696 0.0
C512 C 0.80724 0.08742 0.34835 0.0
C513 C 0.72415 0.09163 0.33836 0.0
Gd514 Gd 0.59148 0.15651 0.54065 0.0
Gd515 Gd 0.59412 0.11178 0.49299 0.0
N516 N 0.72417 0.10445 0.51881 0.0
C517 C 0.87345 0.092 0.54055 0.0
C518 C 0.73496 0.10489 0.56524 0.0
C519 C 0.81034 0.09886 0.57698 0.0
H520 H 0.68415 0.1096 0.59263 0.0
H521 H 0.81902 0.09929 0.61386 0.0
H522 H 0.39763 0.16817 0.51074 0.0
H523 H 0.59788 0.1001 0.36778 0.0
H524 H 0.2516 0.17632 0.54907 0.0
H525 H 0.9312 0.08714 0.54967 0.0
H526 H 0.98283 0.07981 0.46233 0.0
H527 H 0.73772 0.16882 0.63564 0.0
H528 H 0.85268 0.08199 0.31819 0.0
H529 H 0.70494 0.08934 0.30072 0.0
H530 H 0.29121 0.18185 0.71639 0.0
H531 H 0.95491 0.07823 0.37855 0.0
H532 H 0.5892 0.18157 0.76983 0.0
H533 H 0.73312 0.17791 0.72685 0.0
N534 N 0.59789 0.16704 0.62767 0.0
C535 C 0.51825 0.17017 0.65084 0.0
C536 C 0.67471 0.17067 0.65443 0.0
C537 C 0.59087 0.17765 0.72998 0.0
C538 C 0.67228 0.17567 0.70586 0.0
C539 C 0.51258 0.17536 0.70265 0.0
H540 H 0.42373 0.18253 0.76535 0.0
N541 N 0.45233 0.16605 0.57396 0.0
C542 C 0.44317 0.16961 0.62308 0.0
C543 C 0.29051 0.17624 0.61906 0.0
C544 C 0.36124 0.17448 0.64675 0.0
C545 C 0.38708 0.1696 0.54856 0.0
C546 C 0.30439 0.17425 0.57014 0.0
O547 O 0.72321 0.12494 0.52261 0.0
O548 O 0.71907 0.14568 0.50567 0.0
O549 O 0.56777 0.17388 0.51451 0.0
O550 O 0.68375 0.17472 0.55765 0.0
O551 O 0.54313 0.12442 0.56991 0.0
O552 O 0.63321 0.14447 0.58872 0.0
O553 O 0.46684 0.14404 0.50396 0.0
O554 O 0.45802 0.12237 0.51655 0.0
O555 O 0.57128 0.09411 0.51716 0.0
O556 O 0.53428 0.09106 0.44332 0.0
O557 O 0.62368 0.14268 0.46049 0.0
O558 O 0.5486 0.12055 0.43626 0.0
C559 C 0.76301 0.1349 0.51054 0.0
C560 C 0.58296 0.13594 0.60258 0.0
C561 C 0.62301 0.19736 0.5652 0.0
C562 C 0.64214 0.22273 0.57362 0.0
C563 C 0.5784 0.21764 0.64068 0.0
C564 C 0.58651 0.20251 0.61273 0.0
C565 C 0.60649 0.22771 0.62145 0.0
C566 C 0.64979 0.20747 0.54545 0.0
C567 C 0.63663 0.18152 0.53659 0.0
C568 C 0.35403 0.17838 0.69777 0.0
C569 C 0.42959 0.1788 0.72568 0.0
H570 H 0.22657 0.17996 0.63586 0.0
C571 C 0.42067 0.13351 0.50985 0.0
C572 C 0.57847 0.13185 0.42758 0.0
C573 C 0.46545 0.0759 0.47843 0.0
C574 C 0.4159 0.05303 0.48329 0.0
C575 C 0.30942 0.07171 0.48515 0.0
C576 C 0.37783 0.0807 0.48142 0.0
C577 C 0.3281 0.05795 0.4859 0.0
C578 C 0.48448 0.06217 0.4799 0.0
C579 C 0.53892 0.08512 0.47538 0.0
H580 H 0.55073 0.22158 0.67746 0.0
H581 H 0.56521 0.19488 0.6284 0.0
H582 H 0.59971 0.23941 0.6438 0.0
H583 H 0.67857 0.2035 0.50883 0.0
H584 H 0.24166 0.07541 0.4875 0.0
H585 H 0.36255 0.09135 0.48104 0.0
H586 H 0.27389 0.0512 0.489 0.0
H587 H 0.55256 0.05853 0.47765 0.0
C588 C 0.62943 0.84124 0.40037 0.0
C589 C 0.75927 0.83745 0.44219 0.0
C590 C 0.67388 0.84322 0.4437 0.0
C591 C 0.80077 0.83006 0.39639 0.0
C592 C 0.66979 0.83344 0.35429 0.0
C593 C 0.75621 0.82807 0.35256 0.0
N594 N 0.54577 0.8465 0.40331 0.0
C595 C 0.49678 0.84357 0.36163 0.0
C596 C 0.62154 0.83107 0.31134 0.0
C597 C 0.53433 0.83602 0.31505 0.0
Gd598 Gd 0.4825 0.90426 0.54279 0.0
Gd599 Gd 0.49286 0.85998 0.48342 0.0
N600 N 0.63329 0.85086 0.48756 0.0
C601 C 0.79979 0.83917 0.4868 0.0
C602 C 0.66907 0.85156 0.53075 0.0
C603 C 0.7538 0.84603 0.53122 0.0
H604 H 0.63229 0.85655 0.56462 0.0
H605 H 0.78335 0.84699 0.5657 0.0
H606 H 0.36247 0.90016 0.44228 0.0
H607 H 0.42862 0.84707 0.36422 0.0
H608 H 0.21828 0.90875 0.42519 0.0
H609 H 0.86555 0.83491 0.48725 0.0
H610 H 0.86684 0.82566 0.39443 0.0
H611 H 0.49291 0.91386 0.6664 0.0
H612 H 0.65031 0.82516 0.27519 0.0
H613 H 0.49586 0.83395 0.28207 0.0
H614 H 0.09917 0.9371 0.58591 0.0
H615 H 0.78863 0.82215 0.31749 0.0
H616 H 0.25661 0.93781 0.72731 0.0
H617 H 0.39984 0.92754 0.73849 0.0
N618 N 0.39925 0.91508 0.61434 0.0
C619 C 0.32075 0.92066 0.60713 0.0
C620 C 0.42858 0.91759 0.66066 0.0
C621 C 0.296 0.93142 0.69528 0.0
C622 C 0.3767 0.92559 0.70176 0.0
C623 C 0.26751 0.92912 0.64766 0.0
H624 H 0.14691 0.94181 0.67031 0.0
N625 N 0.34406 0.90936 0.51997 0.0
C626 C 0.2929 0.91786 0.5589 0.0
C627 C 0.18452 0.92 0.50215 0.0
C628 C 0.21189 0.9235 0.55083 0.0
C629 C 0.31941 0.90629 0.47254 0.0
C630 C 0.23839 0.91133 0.46287 0.0
O631 O 0.62407 0.87162 0.49219 0.0
O632 O 0.62659 0.89713 0.5369 0.0
O633 O 0.49252 0.92104 0.51334 0.0
O634 O 0.53 0.92627 0.58949 0.0
O635 O 0.47407 0.87337 0.56605 0.0
O636 O 0.55163 0.89514 0.59136 0.0
O637 O 0.36007 0.89035 0.54479 0.0
O638 O 0.36594 0.86975 0.47251 0.0
O639 O 0.44087 0.84889 0.52805 0.0
O640 O 0.44705 0.83732 0.44873 0.0
O641 O 0.52602 0.8928 0.46362 0.0
O642 O 0.44671 0.87115 0.43379 0.0
C643 C 0.6658 0.88431 0.51261 0.0
C644 C 0.52902 0.88306 0.59672 0.0
C645 C 0.57923 0.94248 0.5524 0.0
C646 C 0.59735 0.96486 0.53696 0.0
C647 C 0.72406 0.95352 0.55888 0.0
C648 C 0.66989 0.94239 0.56159 0.0
C649 C 0.68831 0.96467 0.54663 0.0
C650 C 0.54334 0.9537 0.54038 0.0
C651 C 0.51897 0.93119 0.55502 0.0
C652 C 0.16091 0.93244 0.5914 0.0
C653 C 0.18819 0.93514 0.63955 0.0
H654 H 0.12214 0.92402 0.49449 0.0
C655 C 0.3201 0.87963 0.50795 0.0
C656 C 0.494 0.88132 0.42673 0.0
C657 C 0.34046 0.82935 0.4905 0.0
C658 C 0.25847 0.80988 0.50315 0.0
C659 C 0.18147 0.82799 0.48103 0.0
C660 C 0.26145 0.83492 0.48024 0.0
C661 C 0.1798 0.81559 0.49246 0.0
C662 C 0.33915 0.81677 0.50155 0.0
C663 C 0.42467 0.83661 0.49017 0.0
H664 H 0.79419 0.95345 0.56594 0.0
H665 H 0.69856 0.93378 0.57077 0.0
H666 H 0.73226 0.97295 0.54379 0.0
H667 H 0.47275 0.95376 0.53408 0.0
H668 H 0.12048 0.83229 0.47299 0.0
H669 H 0.26177 0.84459 0.47167 0.0
H670 H 0.11679 0.81042 0.49289 0.0
H671 H 0.40038 0.81258 0.51002 0.0
H672 H 0.38126 0.39608 0.07864 0.0
H673 H 0.34009 0.36406 0.92834 0.0
H674 H 0.50016 0.3626 0.91438 0.0
H675 H 0.56845 0.41541 0.05614 0.0
H676 H 0.63018 0.41706 0.11012 0.0
H677 H 0.51168 0.41606 0.11101 0.0
H678 H 0.51777 0.3938 0.13451 0.0
H679 H 0.63676 0.39483 0.13509 0.0
H680 H 0.58181 0.37785 0.09731 0.0
H681 H 0.66294 0.36397 0.91503 0.0
H682 H 0.82237 0.36842 0.93078 0.0
H683 H 0.76755 0.39955 0.08021 0.0
C684 C 0.40607 0.38885 0.04275 0.0
C685 C 0.34698 0.3802 0.00453 0.0
C686 C 0.38287 0.37076 0.95836 0.0
C687 C 0.47417 0.36987 0.9499 0.0
C688 C 0.53027 0.37841 0.98796 0.0
C689 C 0.49831 0.38769 0.03364 0.0
C690 C 0.57534 0.39507 0.06836 0.0
C691 C 0.57096 0.41193 0.08748 0.0
C692 C 0.57807 0.39009 0.11137 0.0
C693 C 0.6543 0.38908 0.03418 0.0
C694 C 0.62615 0.37926 0.98827 0.0
C695 C 0.68562 0.37179 0.95063 0.0
C696 C 0.77616 0.37444 0.95987 0.0
C697 C 0.80739 0.3846 0.00619 0.0
C698 C 0.74545 0.39206 0.04396 0.0
H699 H 0.28426 0.6219 0.94987 0.0
H700 H 0.22927 0.65083 0.10214 0.0
H701 H 0.38798 0.65452 0.11914 0.0
H702 H 0.48224 0.60424 0.97381 0.0
H703 H 0.53512 0.60391 0.91856 0.0
H704 H 0.41685 0.60347 0.92182 0.0
H705 H 0.4185 0.62619 0.89786 0.0
H706 H 0.53757 0.62678 0.89944 0.0
H707 H 0.47498 0.64281 0.93741 0.0
H708 H 0.54904 0.65533 0.12131 0.0
H709 H 0.70908 0.6534 0.10917 0.0
H710 H 0.67052 0.62365 0.95554 0.0
C711 C 0.30609 0.62885 0.9868 0.0
C712 C 0.24407 0.63618 0.02462 0.0
C713 C 0.27518 0.64532 0.07236 0.0
C714 C 0.36545 0.64742 0.08254 0.0
C715 C 0.42487 0.64023 0.04469 0.0
C716 C 0.39719 0.63115 0.99776 0.0
C717 C 0.47668 0.62507 0.96411 0.0
C718 C 0.47777 0.60815 0.94347 0.0
C719 C 0.47691 0.63054 0.92223 0.0
C720 C 0.55295 0.63184 1.00001 0.0
C721 C 0.5204 0.64065 0.04606 0.0
C722 C 0.57565 0.64843 0.08549 0.0
C723 C 0.66698 0.64726 0.07805 0.0
C724 C 0.70352 0.63834 0.03143 0.0
C725 C 0.6452 0.63046 0.99177 0.0
H726 H 0.76092 0.63917 0.58835 0.0
H727 H 0.8144 0.63229 0.4368 0.0
H728 H 0.65388 0.63206 0.42065 0.0
H729 H 0.56051 0.61675 0.56507 0.0
H730 H 0.50329 0.62915 0.61922 0.0
H731 H 0.62227 0.62819 0.619 0.0
H732 H 0.63298 0.65635 0.64204 0.0
H733 H 0.51402 0.6574 0.64319 0.0
H734 H 0.57632 0.66416 0.60454 0.0
H735 H 0.48677 0.63125 0.41939 0.0
H736 H 0.32607 0.6327 0.43506 0.0
H737 H 0.37497 0.64247 0.58942 0.0
C738 C 0.73845 0.63739 0.55164 0.0
C739 C 0.80051 0.63534 0.51336 0.0
C740 C 0.76842 0.63359 0.46634 0.0
C741 C 0.67715 0.63347 0.45688 0.0
C742 C 0.61759 0.63542 0.49506 0.0
C743 C 0.64677 0.63755 0.54175 0.0
C744 C 0.56811 0.64004 0.57659 0.0
C745 C 0.56326 0.62781 0.59614 0.0
C746 C 0.57319 0.6554 0.61913 0.0
C747 C 0.49041 0.63898 0.54228 0.0
C748 C 0.5209 0.63605 0.4952 0.0
C749 C 0.46246 0.63379 0.45631 0.0
C750 C 0.37094 0.63464 0.46558 0.0
C751 C 0.33726 0.63803 0.51359 0.0
C752 C 0.39839 0.64025 0.55253 0.0
H753 H 0.65609 0.37036 0.44827 0.0
H754 H 0.70384 0.39288 0.6058 0.0
H755 H 0.54476 0.39689 0.62032 0.0
H756 H 0.47313 0.39343 0.44327 0.0
H757 H 0.40907 0.37861 0.39917 0.0
H758 H 0.52789 0.37734 0.39941 0.0
H759 H 0.51715 0.35254 0.40977 0.0
H760 H 0.39866 0.35373 0.40774 0.0
H761 H 0.45142 0.3516 0.45928 0.0
H762 H 0.38268 0.39987 0.61928 0.0
H763 H 0.22296 0.39941 0.60352 0.0
H764 H 0.26884 0.37342 0.44763 0.0
C765 C 0.63285 0.37592 0.48585 0.0
C766 C 0.69392 0.3814 0.52586 0.0
C767 C 0.65978 0.38865 0.57434 0.0
C768 C 0.56893 0.39103 0.5831 0.0
C769 C 0.51103 0.38583 0.54321 0.0
C770 C 0.54091 0.37824 0.49553 0.0
C771 C 0.46253 0.37376 0.45983 0.0
C772 C 0.46855 0.38123 0.42325 0.0
C773 C 0.45709 0.3569 0.43257 0.0
C774 C 0.38458 0.37984 0.49513 0.0
C775 C 0.41513 0.387 0.54289 0.0
C776 C 0.35784 0.39416 0.5821 0.0
C777 C 0.26686 0.39391 0.57266 0.0
C778 C 0.23242 0.3864 0.5244 0.0
C779 C 0.29265 0.3792 0.48503 0.0
H780 H 0.8791 0.89312 0.07594 0.0
H781 H 0.83609 0.86391 0.92224 0.0
H782 H 0.99551 0.86281 0.9075 0.0
H783 H 0.0613 0.91359 0.05799 0.0
H784 H 0.12857 0.91411 0.10897 0.0
H785 H 1.01039 0.913 0.11251 0.0
H786 H 1.01599 0.88957 0.12851 0.0
H787 H 0.13493 0.89066 0.12899 0.0
H788 H 0.07997 0.87403 0.08835 0.0
H789 H 0.15606 0.86443 0.90718 0.0
H790 H 0.31512 0.86829 0.92201 0.0
H791 H 0.26543 0.89591 0.07634 0.0
C792 C 0.90351 0.88657 0.03922 0.0
C793 C 0.84431 0.8786 1.00027 0.0
C794 C 0.87924 0.87005 0.95287 0.0
C795 C 0.97007 0.86938 0.94393 0.0
C796 C 1.0264 0.87724 0.98274 0.0
C797 C 0.99534 0.8856 0.02959 0.0
C798 C 0.0727 0.89237 0.06463 0.0
C799 C 0.0679 0.90929 0.08727 0.0
C800 C 0.07609 0.88629 0.10501 0.0
C801 C 0.15098 0.8869 0.02954 0.0
C802 C 0.12179 0.87809 0.98266 0.0
C803 C 0.17984 0.87137 0.94367 0.0
C804 C 0.27039 0.87364 0.95258 0.0
C805 C 0.30325 0.88246 1.00027 0.0
C806 C 0.24242 0.88932 0.03932 0.0
H807 H 0.18899 0.1513 0.08195 0.0
H808 H 0.23661 0.12333 0.92779 0.0
H809 H 0.07769 0.11873 0.91443 0.0
H810 H 1.00505 0.13064 0.09994 0.0
H811 H 0.94118 0.14654 0.13772 0.0
H812 H 0.06005 0.14768 0.13717 0.0
H813 H 0.05097 0.16988 0.11194 0.0
H814 H 0.93239 0.16889 0.11401 0.0
H815 H 0.98658 0.16821 0.05872 0.0
H816 H 0.9173 0.11527 0.9178 0.0
H817 H 0.75805 0.11604 0.93428 0.0
H818 H 0.80228 0.14877 0.08307 0.0
C819 C 0.16565 0.14441 0.04528 0.0
C820 C 0.2263 0.13739 0.00616 0.0
C821 C 0.1925 0.12852 0.95874 0.0
C822 C 0.10189 0.12586 0.95062 0.0
C823 C 0.04427 0.13251 0.98989 0.0
C824 C 0.07396 0.14186 0.03608 0.0
C825 C 0.99573 0.14784 0.07101 0.0
C826 C 1.00085 0.14288 0.11401 0.0
C827 C 0.99111 0.16472 0.09 0.0
C828 C 0.91813 0.14045 0.03695 0.0
C829 C 0.94878 0.1314 0.99071 0.0
C830 C 0.89215 0.12253 0.95355 0.0
C831 C 0.80147 0.12304 0.9634 0.0
C832 C 0.76685 0.13261 0.00969 0.0
C833 C 0.82639 0.14149 0.04706 0.0
H834 H 0.28454 0.12327 0.55227 0.0
H835 H 0.33449 0.14383 0.44975 0.0
H836 H 0.17495 0.14607 0.43972 0.0
H837 H 0.08937 0.10224 0.48828 0.0
H838 H 0.03505 0.10488 0.54555 0.0
H839 H 0.15343 0.10476 0.54247 0.0
H840 H 0.15192 0.13035 0.61656 0.0
H841 H 0.03281 0.13053 0.61693 0.0
H842 H 0.09326 0.14545 0.61089 0.0
H843 H 1.01219 0.14698 0.4418 0.0
H844 H 0.85218 0.14577 0.4533 0.0
H845 H 0.89757 0.1241 0.55316 0.0
C846 C 0.26165 0.1281 0.52739 0.0
C847 C 0.32288 0.1335 0.50211 0.0
C848 C 0.28976 0.13979 0.47006 0.0
C849 C 0.19881 0.14109 0.46399 0.0
C850 C 0.1404 0.13594 0.48985 0.0
C851 C 0.16994 0.12954 0.52086 0.0
C852 C 0.09158 0.12496 0.54402 0.0
C853 C 0.09235 0.1082 0.52909 0.0
C854 C 0.09247 0.13332 0.60046 0.0
C855 C 1.01357 0.12973 0.52093 0.0
C856 C 0.04436 0.13612 0.49008 0.0
C857 C 0.98714 0.1419 0.46556 0.0
C858 C 0.89596 0.14119 0.47251 0.0
C859 C 0.86129 0.1347 0.50365 0.0
C860 C 0.92144 0.12883 0.5282 0.0
H861 H 0.80199 0.89678 0.58055 0.0
H862 H 0.74823 0.86922 0.42684 0.0
H863 H 0.90733 0.86531 0.41063 0.0
H864 H 1.00286 0.91426 0.56321 0.0
H865 H 0.05619 0.91335 0.61676 0.0
H866 H 0.93788 0.91426 0.61429 0.0
H867 H 0.93181 0.89049 0.63137 0.0
H868 H 0.05078 0.88949 0.63093 0.0
H869 H 0.98692 0.87406 0.58976 0.0
H870 H 0.06871 0.86406 0.4097 0.0
H871 H 0.22847 0.86523 0.42345 0.0
H872 H 0.18811 0.89354 0.57825 0.0
C873 C 0.82431 0.8902 0.5434 0.0
C874 C 0.76274 0.88355 0.50462 0.0
C875 C 0.79411 0.87458 0.45687 0.0
C876 C 0.88449 0.87225 0.4473 0.0
C877 C 0.94357 0.87887 0.48598 0.0
C878 C 0.9154 0.88755 0.53318 0.0
C879 C 0.99431 0.89279 0.56796 0.0
C880 C 0.99812 0.9097 0.5919 0.0
C881 C 0.9907 0.88632 0.60734 0.0
C882 C 0.07108 0.88624 0.53233 0.0
C883 C 0.0391 0.87806 0.48549 0.0
C884 C 0.09482 0.87046 0.44615 0.0
C885 C 0.18593 0.87117 0.45452 0.0
C886 C 0.22186 0.87948 0.50194 0.0
C887 C 0.16316 0.88718 0.54148 0.0
H888 H 0.97709 0.5215 0.90029 0.0
H889 H 0.09249 0.55208 0.03736 0.0
H890 H 0.07483 0.5334 0.07321 0.0
H891 H 0.81527 0.50528 0.95641 0.0
H892 H 0.82623 0.48716 0.90763 0.0
H893 H 0.84347 0.50332 0.89485 0.0
H894 H 0.99864 0.49357 0.85971 0.0
H895 H 0.98236 0.47752 0.87312 0.0
H896 H 0.07717 0.48924 0.89777 0.0
H897 H 0.05755 0.51014 0.09029 0.0
H898 H 1.02361 0.48567 0.09117 0.0
H899 H 0.91576 0.47106 0.94338 0.0
C900 C 0.99755 0.52432 0.9381 0.0
C901 C 0.03653 0.53816 0.96611 0.0
C902 C 0.06202 0.54154 0.01551 0.0
C903 C 0.05283 0.53098 0.03594 0.0
C904 C 1.01696 0.51721 0.00658 0.0
C905 C 0.98816 0.51401 0.95903 0.0
C906 C 0.95215 0.49845 0.93489 0.0
C907 C 0.85342 0.49857 0.92274 0.0
C908 C 1.00582 0.48915 0.88865 0.0
C909 C 0.96632 0.49327 0.97593 0.0
C910 C 1.00434 0.50416 0.01693 0.0
C911 C 1.02655 0.50163 0.05865 0.0
C912 C 1.00753 0.48771 0.05875 0.0
C913 C 0.96582 0.47662 0.01765 0.0
C914 C 0.94597 0.47945 0.97568 0.0
H915 H 0.11281 0.47066 0.45318 0.0
H916 H 1.02402 0.48645 0.60501 0.0
H917 H 0.99325 0.51102 0.60433 0.0
H918 H 0.22057 0.50384 0.46161 0.0
H919 H 0.1865 0.50191 0.40091 0.0
H920 H 0.20137 0.48575 0.4139 0.0
H921 H 0.04103 0.47734 0.38531 0.0
H922 H 1.02597 0.49335 0.37161 0.0
H923 H 0.95074 0.4898 0.41286 0.0
H924 H 0.97739 0.53432 0.58669 0.0
H925 H 0.95938 0.55289 0.55045 0.0
H926 H 0.05716 0.52117 0.41043 0.0
C927 C 0.08743 0.47931 0.48642 0.0
C928 C 0.07203 0.47674 0.52937 0.0
C929 C 0.0365 0.48822 0.57172 0.0
C930 C 1.01941 0.50222 0.57176 0.0
C931 C 0.03745 0.50447 0.529 0.0
C932 C 0.06943 0.49322 0.48692 0.0
C933 C 0.08061 0.49818 0.44512 0.0
C934 C 0.17806 0.49737 0.42948 0.0
C935 C 1.02101 0.48914 0.40115 0.0
C936 C 0.04981 0.514 0.47002 0.0
C937 C 1.02612 0.51755 0.51858 0.0
C938 C 0.99546 0.53162 0.54865 0.0
C939 C 0.9861 0.54213 0.52796 0.0
C940 C 1.00634 0.53841 0.47763 0.0
C941 C 0.04055 0.52427 0.44892 0.0
H942 H 0.41134 0.99218 0.06534 0.0
H943 H 0.59118 0.96085 0.96116 0.0
H944 H 0.65306 0.98079 0.94079 0.0
H945 H 0.36584 0.0128 0.99103 0.0
H946 H 0.36081 0.03039 0.04294 0.0
H947 H 0.33141 0.01376 0.05061 0.0
H948 H 0.44699 0.01981 0.12069 0.0
H949 H 0.47613 0.03652 0.11351 0.0
H950 H 0.56024 0.02317 0.10916 0.0
H951 H 0.69543 1.00388 0.93116 0.0
H952 H 0.71948 0.02903 0.93504 0.0
H953 H 0.50943 0.04551 0.04312 0.0
C954 C 0.46323 0.98946 0.03793 0.0
C955 C 0.49622 0.97487 0.01494 0.0
C956 C 0.5654 0.97192 0.97991 0.0
C957 C 0.6006 0.98316 0.96774 0.0
C958 C 0.56589 0.99733 0.9907 0.0
C959 C 0.49896 1.00056 0.02515 0.0
C960 C 0.47374 0.01676 0.04435 0.0
C961 C 0.37722 0.01853 0.03145 0.0
C962 C 0.49029 0.02452 0.10024 0.0
C963 C 0.53748 0.02215 0.01551 0.0
C964 C 0.5898 0.01072 0.98473 0.0
C965 C 0.65495 0.01292 0.95513 0.0
C966 C 0.66827 0.02723 0.95766 0.0
C967 C 0.61674 0.0392 0.9895 0.0
C968 C 0.54938 0.03655 0.01818 0.0
H969 H 0.54042 0.0457 0.53786 0.0
H970 H 0.3345 0.02706 0.42808 0.0
H971 H 0.35921 1.00259 0.42972 0.0
H972 H 0.68636 0.0136 0.49241 0.0
H973 H 0.71984 0.01567 0.55332 0.0
H974 H 0.68876 0.03166 0.5422 0.0
H975 H 0.57196 0.03837 0.61182 0.0
H976 H 0.60214 0.02234 0.6229 0.0
H977 H 0.48894 0.02497 0.6093 0.0
H978 H 0.40374 0.98035 0.44376 0.0
H979 H 0.46708 0.96143 0.46851 0.0
H980 H 0.64092 0.99447 0.57177 0.0
C981 C 0.50126 0.03642 0.51384 0.0
C982 C 0.43499 0.03827 0.48303 0.0
C983 C 0.38464 0.02591 0.45242 0.0
C984 C 0.39847 0.01197 0.45294 0.0
C985 C 0.46292 1.01055 0.48433 0.0
C986 C 0.51379 0.0224 0.51415 0.0
C987 C 0.57735 0.01784 0.5452 0.0
C988 C 0.67379 0.01981 0.53251 0.0
C989 C 0.55895 0.02639 0.60059 0.0
C990 C 0.55368 1.00164 0.52829 0.0
C991 C 0.48781 0.99767 0.49302 0.0
C992 C 0.45519 0.98331 0.47149 0.0
C993 C 0.49122 0.97266 0.48615 0.0
C994 C 0.55899 0.9764 0.52232 0.0
C995 C 0.59008 0.99115 0.54365 0.0
H996 H 0.26517 0.27793 0.93478 0.0
H997 H 0.30622 0.30675 0.08841 0.0
H998 H 0.31877 0.2849 0.10935 0.0
H999 H 0.1297 0.25093 0.95972 0.0
H1000 H 0.17345 0.23549 0.90788 0.0
H1001 H 0.16712 0.2534 0.90562 0.0
H1002 H 0.33478 0.25223 0.88644 0.0
H1003 H 0.34179 0.23442 0.88937 0.0
H1004 H 0.41208 0.2493 0.92802 0.0
H1005 H 0.33799 0.2597 0.11181 0.0
H1006 H 0.33989 0.23326 0.09803 0.0
H1007 H 0.27658 0.22111 0.94372 0.0
C1008 C 0.27632 0.27957 0.97282 0.0
C1009 C 0.2858 0.29392 0.01006 0.0
C1010 C 0.29909 0.29578 0.05954 0.0
C1011 C 0.30666 0.28346 0.07163 0.0
C1012 C 0.29905 0.26941 0.03386 0.0
C1013 C 0.28217 0.26742 0.98563 0.0
C1014 C 0.27389 0.25119 0.95223 0.0
C1015 C 0.18048 0.24755 0.93007 0.0
C1016 C 0.34488 0.24652 0.91163 0.0
C1017 C 0.29028 0.24434 0.98898 0.0
C1018 C 0.30561 0.25501 0.03577 0.0
C1019 C 0.3249 0.25127 0.07545 0.0
C1020 C 0.32632 0.23626 0.06728 0.0
C1021 C 0.30723 0.22521 0.02001 0.0
C1022 C 0.29003 0.22936 0.98039 0.0
H1023 H 0.8345 0.79948 0.07987 0.0
H1024 H 0.71929 0.78276 0.93336 0.0
H1025 H 0.71865 0.75749 0.93157 0.0
H1026 H 0.97475 0.76816 0.06143 0.0
H1027 H 0.95704 0.76901 0.12279 0.0
H1028 H 0.95128 0.7856 0.11152 0.0
H1029 H 0.79356 0.79077 0.1486 0.0
H1030 H 0.79922 0.77433 0.1606 0.0
H1031 H 0.7095 0.77674 0.12443 0.0
H1032 H 0.735 0.73393 0.94529 0.0
H1033 H 0.74571 0.71455 0.97834 0.0
H1034 H 0.84232 0.74705 0.11738 0.0
C1035 C 0.80988 0.79046 0.04727 0.0
C1036 C 0.77819 0.79297 0.00645 0.0
C1037 C 0.74423 0.78101 0.96491 0.0
C1038 C 0.74415 0.76663 0.96346 0.0
C1039 C 0.7774 0.76449 0.00406 0.0
C1040 C 0.80825 0.77612 0.0455 0.0
C1041 C 0.83621 0.77104 0.08526 0.0
C1042 C 0.93573 0.7736 0.09586 0.0
C1043 C 0.7813 0.77867 0.13249 0.0
C1044 C 0.81484 0.75474 0.0601 0.0
C1045 C 0.78293 0.75111 0.01284 0.0
C1046 C 0.75945 0.73666 0.9823 0.0
C1047 C 0.7661 0.72573 0.00116 0.0
C1048 C 0.79426 0.72942 0.05025 0.0
C1049 C 0.82035 0.74403 0.07972 0.0
H1050 H 0.35827 0.72826 0.48559 0.0
H1051 H 0.14903 0.73547 0.59332 0.0
H1052 H 0.12752 0.76062 0.5972 0.0
H1053 H 0.45102 0.76495 0.54114 0.0
H1054 H 0.47666 0.76589 0.48293 0.0
H1055 H 0.47483 0.7483 0.48782 0.0
H1056 H 0.36081 0.73841 0.41663 0.0
H1057 H 0.36278 0.75592 0.41121 0.0
H1058 H 0.25941 0.7484 0.42101 0.0
H1059 H 0.12984 0.78497 0.59095 0.0
H1060 H 0.14904 0.80673 0.57099 0.0
H1061 H 0.35831 0.78426 0.46809 0.0
C1062 C 0.3084 0.73516 0.51033 0.0
C1063 C 0.25556 0.72983 0.53927 0.0
C1064 C 0.18979 0.73917 0.57037 0.0
C1065 C 0.1775 0.75353 0.57315 0.0
C1066 C 0.23149 0.75846 0.54468 0.0
C1067 C 0.29529 0.74956 0.51365 0.0
C1068 C 0.34385 0.75757 0.48669 0.0
C1069 C 0.44244 0.75928 0.50048 0.0
C1070 C 0.33089 0.7496 0.43056 0.0
C1071 C 0.29683 0.77236 0.50725 0.0
C1072 C 0.23263 0.7726 0.54085 0.0
C1073 C 0.17955 0.7849 0.56456 0.0
C1074 C 0.19077 0.79719 0.55288 0.0
C1075 C 0.25436 0.79713 0.51768 0.0
C1076 C 0.30935 0.78463 0.49528 0.0
H1077 H 0.88852 0.29527 0.58918 0.0
H1078 H 0.78174 0.28821 0.44536 0.0
H1079 H 0.70265 0.26592 0.4433 0.0
H1080 H 0.93115 0.25763 0.56193 0.0
H1081 H 0.90453 0.2591 0.62312 0.0
H1082 H 0.94645 0.27492 0.61426 0.0
H1083 H 0.8092 0.29014 0.6586 0.0
H1084 H 0.76728 0.27443 0.66815 0.0
H1085 H 0.70013 0.28312 0.63709 0.0
H1086 H 0.64582 0.24307 0.45525 0.0
H1087 H 0.60295 0.22359 0.48412 0.0
H1088 H 0.75078 0.24621 0.6192 0.0
C1089 C 0.84817 0.28909 0.55726 0.0
C1090 C 0.84189 0.29335 0.51719 0.0
C1091 C 0.78715 0.28514 0.47653 0.0
C1092 C 0.74267 0.27243 0.47492 0.0
C1093 C 0.75359 0.26821 0.51435 0.0
C1094 C 0.80431 0.27645 0.55496 0.0
C1095 C 0.80805 0.26954 0.59213 0.0
C1096 C 0.90318 0.26503 0.59819 0.0
C1097 C 0.76877 0.27992 0.64192 0.0
C1098 C 0.75037 0.25618 0.5666 0.0
C1099 C 0.72029 0.25542 0.52148 0.0
C1100 C 0.66825 0.24366 0.49074 0.0
C1101 C 0.64476 0.23263 0.50722 0.0
C1102 C 0.67268 0.23357 0.55411 0.0
C1103 C 0.72718 0.24538 0.5836 0.0
H1104 H 0.06353 0.36892 0.15011 0.0
H1105 H 0.95719 0.41232 0.17752 0.0
H1106 H 0.9275 0.41633 0.26368 0.0
H1107 H 0.8938 0.36069 0.22223 0.0
H1108 H 0.96808 0.35001 0.24233 0.0
H1109 H 0.9857 0.35117 0.18395 0.0
H1110 H 0.14529 0.36055 0.21142 0.0
H1111 H 0.1267 0.35959 0.27021 0.0
H1112 H 0.16189 0.37671 0.26766 0.0
H1113 H 0.92211 0.41658 0.34815 0.0
H1114 H 0.91923 0.41169 0.42349 0.0
H1115 H 1.0072 0.36687 0.33949 0.0
C1116 C 0.03432 0.37931 0.1742 0.0
C1117 C 1.01593 0.39052 0.15727 0.0
C1118 C 0.9751 0.40374 0.18979 0.0
C1119 C 0.95729 0.40611 0.23884 0.0
C1120 C 0.97742 0.39493 0.25439 0.0
C1121 C 1.01323 0.38167 0.22288 0.0
C1122 C 1.02276 0.37111 0.24815 0.0
C1123 C 0.96402 0.35744 0.22267 0.0
C1124 C 0.11995 0.36674 0.24943 0.0
C1125 C 0.98909 0.3807 0.29939 0.0
C1126 C 0.96439 0.39446 0.3021 0.0
C1127 C 0.93859 0.40573 0.34627 0.0
C1128 C 0.93706 0.40284 0.38883 0.0
C1129 C 0.95858 0.38868 0.38674 0.0
C1130 C 0.98555 0.37749 0.34149 0.0
H1131 H 0.87982 0.64138 0.18412 0.0
H1132 H 0.14604 0.62975 0.12775 0.0
H1133 H 0.19106 0.62828 0.2058 0.0
H1134 H 0.94026 0.66323 0.31336 0.0
H1135 H 0.84931 0.65649 0.33793 0.0
H1136 H 0.83855 0.65774 0.27901 0.0
H1137 H 0.79672 0.62998 0.23853 0.0
H1138 H 0.80809 0.62861 0.29722 0.0
H1139 H 0.87047 0.61652 0.24469 0.0
H1140 H 0.2086 0.6282 0.28892 0.0
H1141 H 0.19632 0.62887 0.37312 0.0
H1142 H 0.91677 0.63846 0.37501 0.0
C1143 C 0.94775 0.63875 0.18876 0.0
C1144 C 1.0099 0.63574 0.15024 0.0
C1145 C 0.09774 0.63206 0.15694 0.0
C1146 C 0.12389 0.63123 0.20111 0.0
C1147 C 0.06108 0.63394 0.23807 0.0
C1148 C 0.97476 0.6376 0.23258 0.0
C1149 C 0.92 0.63927 0.2776 0.0
C1150 C 0.88496 0.65512 0.3035 0.0
C1151 C 0.84433 0.62792 0.26366 0.0
C1152 C 0.98908 0.63595 0.30895 0.0
C1153 C 0.07014 0.63306 0.28546 0.0
C1154 C 0.14532 0.63027 0.30749 0.0
C1155 C 0.13773 0.63058 0.35505 0.0
C1156 C 0.0553 0.63325 0.37944 0.0
C1157 C 0.97991 0.63596 0.35622 0.0
H1158 H 0.11496 0.63183 0.86564 0.0
H1159 H 0.84707 0.64839 0.89879 0.0
H1160 H 0.84048 0.65141 0.81998 0.0
H1161 H 0.18242 0.65719 0.81172 0.0
H1162 H 0.25104 0.64399 0.76499 0.0
H1163 H 0.23415 0.64243 0.82304 0.0
H1164 H 0.17703 0.61561 0.77699 0.0
H1165 H 0.19467 0.61706 0.71888 0.0
H1166 H 0.08726 0.61206 0.73362 0.0
H1167 H 0.85833 0.6508 0.73509 0.0
H1168 H 0.90437 0.64842 0.65195 0.0
H1169 H 0.16769 0.63604 0.67838 0.0
C1170 C 0.05492 0.636 0.85599 0.0
C1171 C 0.98129 0.63982 0.88808 0.0
C1172 C 0.90423 0.64545 0.87474 0.0
C1173 C 0.89979 0.64717 0.83003 0.0
C1174 C 0.9736 0.64348 0.79939 0.0
C1175 C 0.05011 0.63816 0.81188 0.0
C1176 C 0.12079 0.6355 0.77282 0.0
C1177 C 0.20191 0.64537 0.79444 0.0
C1178 C 0.14642 0.61908 0.74919 0.0
C1179 C 0.07181 0.64008 0.7364 0.0
C1180 C 0.98642 0.64439 0.75215 0.0
C1181 C 0.92557 0.64776 0.72283 0.0
C1182 C 0.95224 0.64645 0.67586 0.0
C1183 C 0.0398 0.64241 0.65947 0.0
C1184 C 0.10079 0.63944 0.69048 0.0
H1185 H 0.97675 0.40077 0.69791 0.0
H1186 H 0.08045 0.35791 0.60245 0.0
H1187 H 0.11405 0.35262 0.67474 0.0
H1188 H 0.13294 0.4083 0.79983 0.0
H1189 H 0.05078 0.41663 0.8469 0.0
H1190 H 0.03995 0.41776 0.78781 0.0
H1191 H 0.88415 0.40604 0.77735 0.0
H1192 H 0.89462 0.40483 0.83627 0.0
H1193 H 0.87039 0.38849 0.78184 0.0
H1194 H 0.14297 0.35224 0.75692 0.0
H1195 H 0.15091 0.35576 0.8438 0.0
H1196 H 1.01227 0.39744 0.88651 0.0
C1197 C 1.00832 0.39043 0.69218 0.0
C1198 C 1.02794 0.37992 0.64411 0.0
C1199 C 0.06605 0.36627 0.63853 0.0
C1200 C 0.08552 0.36314 0.67954 0.0
C1201 C 0.06565 0.3737 0.72618 0.0
C1202 C 1.02713 0.38703 0.73291 0.0
C1203 C 1.00787 0.39605 0.78715 0.0
C1204 C 0.06107 0.41054 0.80654 0.0
C1205 C 0.90833 0.39902 0.79615 0.0
C1206 C 0.04089 0.38558 0.80942 0.0
C1207 C 0.07539 0.3729 0.77363 0.0
C1208 C 0.1141 0.36194 0.78525 0.0
C1209 C 0.11688 0.36392 0.83483 0.0
C1210 C 0.07805 0.37644 0.87213 0.0
C1211 C 0.04042 0.38749 0.85896 0.0
H1212 H 0.41494 0.87921 0.15502 0.0
H1213 H 0.69699 0.88637 0.15087 0.0
H1214 H 0.71293 0.88614 0.23378 0.0
H1215 H 0.38112 0.90066 0.2859 0.0
H1216 H 0.30326 0.88781 0.29294 0.0
H1217 H 0.31335 0.88933 0.23445 0.0
H1218 H 0.34411 0.86124 0.19165 0.0
H1219 H 0.33493 0.85965 0.25012 0.0
H1220 H 0.43355 0.85342 0.21348 0.0
H1221 H 0.69891 0.88546 0.31643 0.0
H1222 H 0.65615 0.88458 0.39563 0.0
H1223 H 0.38449 0.8757 0.34577 0.0
C1224 C 0.47973 0.88084 0.17193 0.0
C1225 C 0.55494 0.88288 0.14694 0.0
C1226 C 0.63887 0.88481 0.16967 0.0
C1227 C 0.64846 0.88467 0.21661 0.0
C1228 C 0.57363 0.88227 0.23994 0.0
C1229 C 0.49084 0.88035 0.21851 0.0
C1230 C 0.42211 0.87749 0.25122 0.0
C1231 C 0.35074 0.88954 0.26707 0.0
C1232 C 0.38124 0.86203 0.22505 0.0
C1233 C 0.47898 0.87838 0.29476 0.0
C1234 C 0.56617 0.88117 0.28719 0.0
C1235 C 0.6311 0.88314 0.3226 0.0
C1236 C 0.60626 0.88258 0.3674 0.0
C1237 C 0.51756 0.87987 0.37644 0.0
C1238 C 0.45315 0.87748 0.33929 0.0
H1239 H 0.57706 0.12089 0.14414 0.0
H1240 H 0.38969 0.15701 0.18558 0.0
H1241 H 0.3938 0.1593 0.27157 0.0
H1242 H 0.47706 0.10432 0.22173 0.0
H1243 H 0.58115 0.09817 0.23626 0.0
H1244 H 0.56697 0.09985 0.17822 0.0
H1245 H 0.70286 0.11723 0.19718 0.0
H1246 H 0.71786 0.11551 0.25505 0.0
H1247 H 0.70631 0.13353 0.25398 0.0
H1248 H 0.42316 0.1583 0.35414 0.0
H1249 H 0.46912 0.15317 0.42592 0.0
H1250 H 0.62642 0.11633 0.32977 0.0
C1251 C 0.53693 0.12933 0.17122 0.0
C1252 C 0.48603 0.13925 0.15817 0.0
C1253 C 0.43301 0.14984 0.1948 0.0
C1254 C 0.43369 0.15104 0.24376 0.0
C1255 C 0.48539 0.14123 0.25538 0.0
C1256 C 0.53504 0.13043 0.22002 0.0
C1257 C 0.58267 0.12095 0.24189 0.0
C1258 C 0.55 0.10487 0.21812 0.0
C1259 C 0.6834 0.12187 0.23673 0.0
C1260 C 0.5538 0.12835 0.29542 0.0
C1261 C 0.49759 0.14002 0.30233 0.0
C1262 C 0.46572 0.14901 0.34895 0.0
C1263 C 0.49194 0.146 0.38949 0.0
C1264 C 0.54836 0.13399 0.38327 0.0
C1265 C 0.57991 0.12511 0.33556 0.0
H1266 H 0.41993 0.1359 0.86071 0.0
H1267 H 0.69379 0.12954 0.88984 0.0
H1268 H 0.73789 0.1312 0.81167 0.0
H1269 H 0.43213 0.1129 0.7296 0.0
H1270 H 0.35654 0.1241 0.7124 0.0
H1271 H 0.3474 0.12333 0.77206 0.0
H1272 H 0.3604 0.15192 0.81397 0.0
H1273 H 0.37031 0.15268 0.7543 0.0
H1274 H 0.45445 0.16088 0.8004 0.0
H1275 H 0.75291 0.13559 0.73351 0.0
H1276 H 0.73574 0.13693 0.65213 0.0
H1277 H 0.45095 0.13681 0.66718 0.0
C1278 C 0.48909 0.13488 0.85043 0.0
C1279 C 0.55398 0.13275 0.88137 0.0
C1280 C 0.64346 0.13114 0.8665 0.0
C1281 C 0.66905 0.13221 0.82243 0.0
C1282 C 0.60389 0.13449 0.79291 0.0
C1283 C 0.51545 0.13539 0.80556 0.0
C1284 C 0.45825 0.1367 0.76529 0.0
C1285 C 0.39483 0.12347 0.74356 0.0
C1286 C 0.40786 0.15142 0.78466 0.0
C1287 C 0.52826 0.13637 0.72812 0.0
C1288 C 0.61199 0.13555 0.74552 0.0
C1289 C 0.68762 0.13595 0.71911 0.0
C1290 C 0.67732 0.13676 0.67309 0.0
C1291 C 0.59216 0.13662 0.65318 0.0
C1292 C 0.51674 0.13659 0.68129 0.0
H1293 H 0.41916 0.88352 0.67141 0.0
H1294 H 0.69411 0.88118 0.6281 0.0
H1295 H 0.7386 0.87905 0.70553 0.0
H1296 H 0.46216 0.90701 0.80028 0.0
H1297 H 0.37626 0.89885 0.82344 0.0
H1298 H 0.36565 0.89919 0.76321 0.0
H1299 H 0.34449 0.87075 0.72487 0.0
H1300 H 0.35596 0.87032 0.78495 0.0
H1301 H 0.42723 0.85919 0.73518 0.0
H1302 H 0.7519 0.87537 0.78463 0.0
H1303 H 0.73666 0.87496 0.86742 0.0
H1304 H 0.45582 0.88326 0.86568 0.0
C1305 C 0.4885 0.88239 0.67826 0.0
C1306 C 0.55343 0.88198 0.64339 0.0
C1307 C 0.64372 0.88115 0.6541 0.0
C1308 C 0.66943 0.87993 0.69786 0.0
C1309 C 0.60405 0.88013 0.73135 0.0
C1310 C 0.51562 0.88174 0.72279 0.0
C1311 C 0.45967 0.8828 0.76674 0.0
C1312 C 0.41319 0.89786 0.78977 0.0
C1313 C 0.39288 0.87 0.75205 0.0
C1314 C 0.5303 0.88133 0.80094 0.0
C1315 C 0.61285 0.87949 0.77928 0.0
C1316 C 0.6879 0.87708 0.80236 0.0
C1317 C 0.67867 0.87681 0.84919 0.0
C1318 C 0.5956 0.87936 0.87301 0.0
C1319 C 0.52042 0.8816 0.84851 0.0
loop_
_geom_bond_atom_site_label_1
_geom_bond_atom_site_label_2
_geom_bond_distance
_geom_bond_site_symmetry_2
_ccdc_geom_bond_type
C0 C2 1.422 . S
C0 C4 1.415 . S
C0 N6 1.369 . S
C1 C2 1.421 . S
C1 C3 1.417 . S
C1 C13 1.422 . S
C2 C0 1.422 . S
C2 C1 1.421 . S
C2 N12 1.359 . S
C3 C1 1.417 . S
C3 C5 1.329 . S
C3 H22 0.930 . S
C4 C0 1.415 . S
C4 C5 1.437 . S
C4 C8 1.413 . S
C5 C3 1.329 . S
C5 C4 1.437 . S
C5 H27 0.929 . S
N6 C0 1.369 . S
N6 C7 1.338 . S
N6 Gd11 2.622 . S
C7 N6 1.338 . S
C7 C9 1.378 . S
C7 H19 0.929 . S
C8 C4 1.413 . S
C8 C9 1.348 . S
C8 H24 0.931 . S
C9 C7 1.378 . S
C9 C8 1.348 . S
C9 H25 0.930 . S
Gd10 N30 2.622 1_455 S
Gd10 N37 2.570 1_455 S
Gd10 O44 2.353 . S
Gd10 O45 2.468 1_556 S
Gd10 O46 2.427 . S
Gd10 O48 2.388 . S
Gd10 O49 2.386 1_455 S
Gd10 O53 2.307 1_556 S
Gd10 C63 2.805 . S
Gd11 N6 2.622 . S
Gd11 N12 2.570 . S
Gd11 O43 2.386 . S
Gd11 O47 2.307 1_554 S
Gd11 O50 2.353 1_455 S
Gd11 O51 2.468 . S
Gd11 O52 2.427 . S
Gd11 O54 2.388 . S
Gd11 C75 2.805 1_455 S
N12 C2 1.359 . S
N12 Gd11 2.570 . S
N12 C14 1.343 1_554 S
C13 C1 1.422 . S
C13 C15 1.321 1_554 S
C13 H21 0.922 1_554 S
C14 N12 1.343 1_556 S
C14 C15 1.390 . S
C14 H16 0.931 . S
C15 C13 1.321 1_556 S
C15 C14 1.390 . S
C15 H17 0.930 . S
H16 C14 0.931 . S
H17 C15 0.930 . S
H18 C41 0.931 . S
H19 C7 0.929 . S
H20 C42 0.930 . S
H21 C13 0.922 1_556 S
H22 C3 0.930 . S
H23 C32 0.929 1_455 S
H24 C8 0.931 . S
H25 C9 0.930 . S
H26 C64 0.930 . S
H27 C5 0.929 . S
H28 C33 0.931 . S
H29 C34 0.930 . S
N30 Gd10 2.622 1_655 S
N30 C31 1.369 . S
N30 C32 1.338 . S
C31 N30 1.369 . S
C31 C35 1.415 . S
C31 C38 1.422 . S
C32 H23 0.929 1_655 S
C32 N30 1.338 . S
C32 C34 1.378 . S
C33 H28 0.931 . S
C33 C34 1.348 . S
C33 C35 1.413 . S
C34 H29 0.930 . S
C34 C32 1.378 . S
C34 C33 1.348 . S
C35 C31 1.415 . S
C35 C33 1.413 . S
C35 C65 1.437 . S
H36 C65 0.929 . S
N37 Gd10 2.570 1_655 S
N37 C38 1.359 . S
N37 C41 1.343 1_556 S
C38 C31 1.422 . S
C38 N37 1.359 . S
C38 C40 1.421 . S
C39 C40 1.422 1_554 S
C39 C42 1.321 . S
C39 H66 0.931 . S
C40 C38 1.421 . S
C40 C39 1.422 1_556 S
C40 C64 1.417 . S
C41 H18 0.931 . S
C41 N37 1.343 1_554 S
C41 C42 1.390 . S
C42 H20 0.930 . S
C42 C39 1.321 . S
C42 C41 1.390 . S
O43 Gd11 2.386 . S
O43 C55 1.265 . S
O44 Gd10 2.353 . S
O44 C55 1.242 1_556 S
O45 Gd10 2.468 1_554 S
O45 C63 1.263 1_554 S
O46 Gd10 2.427 . S
O46 C63 1.252 . S
O47 Gd11 2.307 1_556 S
O47 C56 1.261 . S
O48 Gd10 2.388 . S
O48 C56 1.252 . S
O49 Gd10 2.386 1_655 S
O49 C67 1.265 1_556 S
O50 Gd11 2.353 1_655 S
O50 C67 1.242 . S
O51 Gd11 2.468 . S
O51 C75 1.263 1_455 S
O52 Gd11 2.427 . S
O52 C75 1.252 1_455 S
O53 Gd10 2.307 1_554 S
O53 C68 1.261 . S
O54 Gd11 2.388 . S
O54 C68 1.252 . S
C55 O43 1.265 . S
C55 O44 1.242 1_554 S
C56 O47 1.261 . S
C56 O48 1.252 . S
C57 C60 1.394 . S
C57 C62 1.369 1_556 S
C57 C63 1.500 . S
C58 C61 1.383 . S
C58 C62 1.396 1_556 S
C59 C60 1.396 . S
C59 C61 1.365 . S
C59 H76 0.929 . S
C60 C57 1.394 . S
C60 C59 1.396 . S
C60 H77 0.930 . S
C61 C58 1.383 . S
C61 C59 1.365 . S
C61 H78 0.931 . S
C62 C57 1.369 1_554 S
C62 C58 1.396 1_554 S
C62 H79 0.931 . S
C63 Gd10 2.805 . S
C63 O45 1.263 1_556 S
C63 O46 1.252 . S
C63 C57 1.500 . S
C64 H26 0.930 . S
C64 C40 1.417 . S
C64 C65 1.329 . S
C65 C35 1.437 . S
C65 H36 0.929 . S
C65 C64 1.329 . S
H66 C39 0.931 . S
C67 O49 1.265 1_554 S
C67 O50 1.242 . S
C68 O53 1.261 . S
C68 O54 1.252 . S
C69 C72 1.394 . S
C69 C74 1.370 . S
C69 C75 1.500 . S
C70 C73 1.383 . S
C70 C74 1.395 . S
C71 C72 1.396 . S
C71 C73 1.365 . S
C71 H80 0.929 . S
C72 C69 1.394 . S
C72 C71 1.396 . S
C72 H81 0.930 . S
C73 C70 1.383 . S
C73 C71 1.365 . S
C73 H82 0.931 . S
C74 C69 1.370 . S
C74 C70 1.395 . S
C74 H83 0.930 1_554 S
C75 Gd11 2.805 1_655 S
C75 O51 1.263 1_655 S
C75 O52 1.252 1_655 S
C75 C69 1.500 . S
H76 C59 0.929 . S
H77 C60 0.930 . S
H78 C61 0.931 . S
H79 C62 0.931 . S
H80 C71 0.929 . S
H81 C72 0.930 . S
H82 C73 0.931 . S
H83 C74 0.930 1_556 S
C84 C86 1.422 . S
C84 C88 1.415 . S
C84 N90 1.369 . S
C85 C86 1.421 . S
C85 C87 1.417 . S
C85 C97 1.422 . S
C86 C84 1.422 . S
C86 C85 1.421 . S
C86 N96 1.359 . S
C87 C85 1.417 . S
C87 C89 1.329 . S
C87 H106 0.930 . S
C88 C84 1.415 . S
C88 C89 1.437 . S
C88 C92 1.413 . S
C89 C87 1.329 . S
C89 C88 1.437 . S
C89 H111 0.929 . S
N90 C84 1.369 . S
N90 C91 1.338 . S
N90 Gd95 2.622 1_455 S
C91 N90 1.338 . S
C91 C93 1.378 . S
C91 H103 0.929 1_455 S
C92 C88 1.413 . S
C92 C93 1.348 . S
C92 H108 0.931 . S
C93 C91 1.378 . S
C93 C92 1.348 . S
C93 H109 0.930 . S
Gd94 N114 2.622 . S
Gd94 N121 2.570 . S
Gd94 O128 2.353 1_655 S
Gd94 O129 2.468 1_556 S
Gd94 O130 2.427 . S
Gd94 O132 2.388 . S
Gd94 O133 2.386 . S
Gd94 O137 2.307 1_556 S
Gd94 C147 2.805 1_655 S
Gd95 N90 2.622 1_655 S
Gd95 N96 2.570 1_655 S
Gd95 O127 2.386 1_655 S
Gd95 O131 2.307 1_554 S
Gd95 O134 2.353 . S
Gd95 O135 2.468 . S
Gd95 O136 2.427 . S
Gd95 O138 2.388 . S
Gd95 C159 2.805 . S
N96 C86 1.359 . S
N96 Gd95 2.570 1_455 S
N96 C98 1.343 1_554 S
C97 C85 1.422 . S
C97 C99 1.321 1_554 S
C97 H105 0.931 . S
C98 N96 1.343 1_556 S
C98 C99 1.390 . S
C98 H100 0.931 . S
C99 C97 1.321 1_556 S
C99 C98 1.390 . S
C99 H101 0.930 . S
H100 C98 0.931 . S
H101 C99 0.930 . S
H102 C125 0.931 . S
H103 C91 0.929 1_655 S
H104 C126 0.930 . S
H105 C97 0.931 . S
H106 C87 0.930 . S
H107 C116 0.929 . S
H108 C92 0.931 . S
H109 C93 0.930 . S
H110 C148 0.930 . S
H111 C89 0.929 . S
H112 C117 0.931 . S
H113 C118 0.930 . S
N114 Gd94 2.622 . S
N114 C115 1.369 . S
N114 C116 1.338 . S
C115 N114 1.369 . S
C115 C119 1.415 . S
C115 C122 1.422 . S
C116 H107 0.929 . S
C116 N114 1.338 . S
C116 C118 1.378 . S
C117 H112 0.931 . S
C117 C118 1.348 . S
C117 C119 1.413 . S
C118 H113 0.930 . S
C118 C116 1.378 . S
C118 C117 1.348 . S
C119 C115 1.415 . S
C119 C117 1.413 . S
C119 C149 1.437 . S
H120 C149 0.929 . S
N121 Gd94 2.570 . S
N121 C122 1.359 . S
N121 C125 1.343 1_556 S
C122 C115 1.422 . S
C122 N121 1.359 . S
C122 C124 1.421 . S
C123 C124 1.422 1_554 S
C123 C126 1.321 . S
C123 H150 0.931 . S
C124 C122 1.421 . S
C124 C123 1.422 1_556 S
C124 C148 1.417 . S
C125 H102 0.931 . S
C125 N121 1.343 1_554 S
C125 C126 1.390 . S
C126 H104 0.930 . S
C126 C123 1.321 . S
C126 C125 1.390 . S
O127 Gd95 2.386 1_455 S
O127 C139 1.265 . S
O128 Gd94 2.353 1_455 S
O128 C139 1.242 1_556 S
O129 Gd94 2.468 1_554 S
O129 C147 1.263 1_654 S
O130 Gd94 2.427 . S
O130 C147 1.252 1_655 S
O131 Gd95 2.307 1_556 S
O131 C140 1.261 . S
O132 Gd94 2.388 . S
O132 C140 1.252 . S
O133 Gd94 2.386 . S
O133 C151 1.265 1_556 S
O134 Gd95 2.353 . S
O134 C151 1.242 . S
O135 Gd95 2.468 . S
O135 C159 1.263 . S
O136 Gd95 2.427 . S
O136 C159 1.252 . S
O137 Gd94 2.307 1_554 S
O137 C152 1.261 . S
O138 Gd95 2.388 . S
O138 C152 1.252 . S
C139 O127 1.265 . S
C139 O128 1.242 1_554 S
C140 O131 1.261 . S
C140 O132 1.252 . S
C141 C144 1.394 . S
C141 C146 1.370 1_556 S
C141 C147 1.500 . S
C142 C145 1.390 . S
C142 C146 1.398 1_556 S
C143 C144 1.396 . S
C143 C145 1.365 . S
C143 H160 0.929 . S
C144 C141 1.394 . S
C144 C143 1.396 . S
C144 H161 0.930 . S
C145 C142 1.390 . S
C145 C143 1.365 . S
C145 H162 0.931 . S
C146 C141 1.370 1_554 S
C146 C142 1.398 1_554 S
C146 H163 0.930 . S
C147 Gd94 2.805 1_455 S
C147 O129 1.263 1_456 S
C147 O130 1.252 1_455 S
C147 C141 1.500 . S
C148 H110 0.930 . S
C148 C124 1.417 . S
C148 C149 1.329 . S
C149 C119 1.437 . S
C149 H120 0.929 . S
C149 C148 1.329 . S
H150 C123 0.931 . S
C151 O133 1.265 1_554 S
C151 O134 1.242 . S
C152 O137 1.261 . S
C152 O138 1.252 . S
C153 C156 1.394 . S
C153 C158 1.370 . S
C153 C159 1.500 . S
C154 C157 1.383 . S
C154 C158 1.395 . S
C155 C156 1.396 . S
C155 C157 1.365 . S
C155 H164 0.929 . S
C156 C153 1.394 . S
C156 C155 1.396 . S
C156 H165 0.930 . S
C157 C154 1.383 . S
C157 C155 1.365 . S
C157 H166 0.931 . S
C158 C153 1.370 . S
C158 C154 1.395 . S
C158 H167 0.930 1_554 S
C159 Gd95 2.805 . S
C159 O135 1.263 . S
C159 O136 1.252 . S
C159 C153 1.500 . S
H160 C143 0.929 . S
H161 C144 0.930 . S
H162 C145 0.931 . S
H163 C146 0.930 . S
H164 C155 0.929 . S
H165 C156 0.930 . S
H166 C157 0.931 . S
H167 C158 0.930 1_556 S
C168 C170 1.422 . S
C168 C172 1.415 . S
C168 N174 1.369 . S
C169 C170 1.421 . S
C169 C171 1.417 . S
C169 C181 1.422 . S
C170 C168 1.422 . S
C170 C169 1.421 . S
C170 N180 1.359 . S
C171 C169 1.417 . S
C171 C173 1.329 . S
C171 H190 0.930 . S
C172 C168 1.415 . S
C172 C173 1.437 . S
C172 C176 1.413 . S
C173 C171 1.329 . S
C173 C172 1.437 . S
C173 H195 0.929 . S
N174 C168 1.369 . S
N174 C175 1.338 . S
N174 Gd179 2.622 . S
C175 N174 1.338 . S
C175 C177 1.378 . S
C175 H187 0.929 . S
C176 C172 1.413 . S
C176 C177 1.348 . S
C176 H192 0.931 . S
C177 C175 1.378 . S
C177 C176 1.348 . S
C177 H193 0.930 . S
Gd178 N198 2.622 1_455 S
Gd178 N205 2.570 1_455 S
Gd178 O212 2.353 . S
Gd178 O213 2.468 . S
Gd178 O214 2.427 . S
Gd178 O216 2.388 . S
Gd178 O217 2.386 1_455 S
Gd178 O221 2.307 . S
Gd178 C231 2.805 . S
Gd179 N174 2.622 . S
Gd179 N180 2.570 . S
Gd179 O211 2.386 . S
Gd179 O215 2.307 . S
Gd179 O218 2.353 1_455 S
Gd179 O219 2.468 . S
Gd179 O220 2.427 . S
Gd179 O222 2.388 . S
Gd179 C243 2.805 1_455 S
N180 C170 1.359 . S
N180 Gd179 2.570 . S
N180 C182 1.343 . S
C181 C169 1.422 . S
C181 C183 1.321 . S
C181 H189 0.931 . S
C182 N180 1.343 . S
C182 C183 1.390 . S
C182 H184 0.931 . S
C183 C181 1.321 . S
C183 C182 1.390 . S
C183 H185 0.930 . S
H184 C182 0.931 . S
H185 C183 0.930 . S
H186 C209 0.931 . S
H187 C175 0.929 . S
H188 C210 0.930 . S
H189 C181 0.931 . S
H190 C171 0.930 . S
H191 C200 0.929 1_455 S
H192 C176 0.931 . S
H193 C177 0.930 . S
H194 C232 0.930 . S
H195 C173 0.929 . S
H196 C201 0.931 . S
H197 C202 0.930 . S
N198 Gd178 2.622 1_655 S
N198 C199 1.369 . S
N198 C200 1.338 . S
C199 N198 1.369 . S
C199 C203 1.415 . S
C199 C206 1.422 . S
C200 H191 0.929 1_655 S
C200 N198 1.338 . S
C200 C202 1.378 . S
C201 H196 0.931 . S
C201 C202 1.348 . S
C201 C203 1.413 . S
C202 H197 0.930 . S
C202 C200 1.378 . S
C202 C201 1.348 . S
C203 C199 1.415 . S
C203 C201 1.413 . S
C203 C233 1.437 . S
H204 C233 0.929 . S
N205 Gd178 2.570 1_655 S
N205 C206 1.359 . S
N205 C209 1.343 . S
C206 C199 1.422 . S
C206 N205 1.359 . S
C206 C208 1.421 . S
C207 C208 1.422 . S
C207 C210 1.321 . S
C207 H234 0.931 . S
C208 C206 1.421 . S
C208 C207 1.422 . S
C208 C232 1.417 . S
C209 H186 0.931 . S
C209 N205 1.343 . S
C209 C210 1.390 . S
C210 H188 0.930 . S
C210 C207 1.321 . S
C210 C209 1.390 . S
O211 Gd179 2.386 . S
O211 C223 1.265 . S
O212 Gd178 2.353 . S
O212 C223 1.242 . S
O213 Gd178 2.468 . S
O213 C231 1.263 . S
O214 Gd178 2.427 . S
O214 C231 1.252 . S
O215 Gd179 2.307 . S
O215 C224 1.261 . S
O216 Gd178 2.388 . S
O216 C224 1.252 . S
O217 Gd178 2.386 1_655 S
O217 C235 1.265 . S
O218 Gd179 2.353 1_655 S
O218 C235 1.242 . S
O219 Gd179 2.468 . S
O219 C243 1.263 1_455 S
O220 Gd179 2.427 . S
O220 C243 1.252 1_455 S
O221 Gd178 2.307 . S
O221 C236 1.261 . S
O222 Gd179 2.388 . S
O222 C236 1.252 . S
C223 O211 1.265 . S
C223 O212 1.242 . S
C224 O215 1.261 . S
C224 O216 1.252 . S
C225 C228 1.394 . S
C225 C230 1.370 . S
C225 C231 1.500 . S
C226 C229 1.383 . S
C226 C230 1.395 . S
C227 C228 1.396 . S
C227 C229 1.365 . S
C227 H244 0.929 . S
C228 C225 1.394 . S
C228 C227 1.396 . S
C228 H245 0.930 . S
C229 C226 1.383 . S
C229 C227 1.365 . S
C229 H246 0.931 . S
C230 C225 1.370 . S
C230 C226 1.395 . S
C230 H247 0.930 . S
C231 Gd178 2.805 . S
C231 O213 1.263 . S
C231 O214 1.252 . S
C231 C225 1.500 . S
C232 H194 0.930 . S
C232 C208 1.417 . S
C232 C233 1.329 . S
C233 C203 1.437 . S
C233 H204 0.929 . S
C233 C232 1.329 . S
H234 C207 0.931 . S
C235 O217 1.265 . S
C235 O218 1.242 . S
C236 O221 1.261 . S
C236 O222 1.252 . S
C237 C240 1.394 . S
C237 C242 1.370 . S
C237 C243 1.500 . S
C238 C241 1.383 . S
C238 C242 1.395 . S
C239 C240 1.396 . S
C239 C241 1.365 . S
C239 H248 0.929 . S
C240 C237 1.394 . S
C240 C239 1.396 . S
C240 H249 0.930 . S
C241 C238 1.383 . S
C241 C239 1.365 . S
C241 H250 0.931 . S
C242 C237 1.370 . S
C242 C238 1.395 . S
C242 H251 0.930 . S
C243 Gd179 2.805 1_655 S
C243 O219 1.263 1_655 S
C243 O220 1.252 1_655 S
C243 C237 1.500 . S
H244 C227 0.929 . S
H245 C228 0.930 . S
H246 C229 0.931 . S
H247 C230 0.930 . S
H248 C239 0.929 . S
H249 C240 0.930 . S
H250 C241 0.931 . S
H251 C242 0.930 . S
C252 C254 1.422 . S
C252 C256 1.415 . S
C252 N258 1.369 . S
C253 C254 1.421 . S
C253 C255 1.417 . S
C253 C265 1.422 . S
C254 C252 1.422 . S
C254 C253 1.421 . S
C254 N264 1.359 . S
C255 C253 1.417 . S
C255 C257 1.329 . S
C255 H274 0.930 . S
C256 C252 1.415 . S
C256 C257 1.437 . S
C256 C260 1.413 . S
C257 C255 1.329 . S
C257 C256 1.437 . S
C257 H279 0.929 . S
N258 C252 1.369 . S
N258 C259 1.338 . S
N258 Gd263 2.622 1_455 S
C259 N258 1.338 . S
C259 C261 1.378 . S
C259 H271 0.929 1_455 S
C260 C256 1.413 . S
C260 C261 1.348 . S
C260 H276 0.931 . S
C261 C259 1.378 . S
C261 C260 1.348 . S
C261 H277 0.930 . S
Gd262 N282 2.622 . S
Gd262 N289 2.570 . S
Gd262 O296 2.353 1_655 S
Gd262 O297 2.468 . S
Gd262 O298 2.427 . S
Gd262 O300 2.388 . S
Gd262 O301 2.386 . S
Gd262 O305 2.307 . S
Gd262 C315 2.805 1_655 S
Gd263 N258 2.622 1_655 S
Gd263 N264 2.570 1_655 S
Gd263 O295 2.386 1_655 S
Gd263 O299 2.307 . S
Gd263 O302 2.353 . S
Gd263 O303 2.468 . S
Gd263 O304 2.427 . S
Gd263 O306 2.388 . S
Gd263 C327 2.805 . S
N264 C254 1.359 . S
N264 Gd263 2.570 1_455 S
N264 C266 1.343 . S
C265 C253 1.422 . S
C265 C267 1.321 . S
C265 H273 0.931 . S
C266 N264 1.343 . S
C266 C267 1.390 . S
C266 H268 0.931 . S
C267 C265 1.321 . S
C267 C266 1.390 . S
C267 H269 0.930 . S
H268 C266 0.931 . S
H269 C267 0.930 . S
H270 C293 0.931 . S
H271 C259 0.929 1_655 S
H272 C294 0.930 . S
H273 C265 0.931 . S
H274 C255 0.930 . S
H275 C284 0.929 . S
H276 C260 0.931 . S
H277 C261 0.930 . S
H278 C316 0.930 . S
H279 C257 0.929 . S
H280 C285 0.931 . S
H281 C286 0.930 . S
N282 Gd262 2.622 . S
N282 C283 1.369 . S
N282 C284 1.338 . S
C283 N282 1.369 . S
C283 C287 1.415 . S
C283 C290 1.422 . S
C284 H275 0.929 . S
C284 N282 1.338 . S
C284 C286 1.378 . S
C285 H280 0.931 . S
C285 C286 1.348 . S
C285 C287 1.413 . S
C286 H281 0.930 . S
C286 C284 1.378 . S
C286 C285 1.348 . S
C287 C283 1.415 . S
C287 C285 1.413 . S
C287 C317 1.437 . S
H288 C317 0.929 . S
N289 Gd262 2.570 . S
N289 C290 1.359 . S
N289 C293 1.343 . S
C290 C283 1.422 . S
C290 N289 1.359 . S
C290 C292 1.421 . S
C291 C292 1.422 . S
C291 C294 1.321 . S
C291 H318 0.931 . S
C292 C290 1.421 . S
C292 C291 1.422 . S
C292 C316 1.417 . S
C293 H270 0.931 . S
C293 N289 1.343 . S
C293 C294 1.390 . S
C294 H272 0.930 . S
C294 C291 1.321 . S
C294 C293 1.390 . S
O295 Gd263 2.386 1_455 S
O295 C307 1.265 . S
O296 Gd262 2.353 1_455 S
O296 C307 1.242 . S
O297 Gd262 2.468 . S
O297 C315 1.263 1_655 S
O298 Gd262 2.427 . S
O298 C315 1.252 1_655 S
O299 Gd263 2.307 . S
O299 C308 1.261 . S
O300 Gd262 2.388 . S
O300 C308 1.252 . S
O301 Gd262 2.386 . S
O301 C319 1.265 . S
O302 Gd263 2.353 . S
O302 C319 1.242 . S
O303 Gd263 2.468 . S
O303 C327 1.263 . S
O304 Gd263 2.427 . S
O304 C327 1.252 . S
O305 Gd262 2.307 . S
O305 C320 1.261 . S
O306 Gd263 2.388 . S
O306 C320 1.252 . S
C307 O295 1.265 . S
C307 O296 1.242 . S
C308 O299 1.261 . S
C308 O300 1.252 . S
C309 C312 1.394 . S
C309 C314 1.370 . S
C309 C315 1.500 . S
C310 C313 1.383 . S
C310 C314 1.395 . S
C311 C312 1.396 . S
C311 C313 1.365 . S
C311 H328 0.929 . S
C312 C309 1.394 . S
C312 C311 1.396 . S
C312 H329 0.930 . S
C313 C310 1.383 . S
C313 C311 1.365 . S
C313 H330 0.931 . S
C314 C309 1.370 . S
C314 C310 1.395 . S
C314 H331 0.930 . S
C315 Gd262 2.805 1_455 S
C315 O297 1.263 1_455 S
C315 O298 1.252 1_455 S
C315 C309 1.500 . S
C316 H278 0.930 . S
C316 C292 1.417 . S
C316 C317 1.329 . S
C317 C287 1.437 . S
C317 H288 0.929 . S
C317 C316 1.329 . S
H318 C291 0.931 . S
C319 O301 1.265 . S
C319 O302 1.242 . S
C320 O305 1.261 . S
C320 O306 1.252 . S
C321 C324 1.394 . S
C321 C326 1.370 . S
C321 C327 1.500 . S
C322 C325 1.383 . S
C322 C326 1.395 . S
C323 C324 1.396 . S
C323 C325 1.365 . S
C323 H332 0.929 . S
C324 C321 1.394 . S
C324 C323 1.396 . S
C324 H333 0.930 . S
C325 C322 1.383 . S
C325 C323 1.365 . S
C325 H334 0.931 . S
C326 C321 1.370 . S
C326 C322 1.395 . S
C326 H335 0.930 . S
C327 Gd263 2.805 . S
C327 O303 1.263 . S
C327 O304 1.252 . S
C327 C321 1.500 . S
H328 C311 0.929 . S
H329 C312 0.930 . S
H330 C313 0.931 . S
H331 C314 0.930 . S
H332 C323 0.929 . S
H333 C324 0.930 . S
H334 C325 0.931 . S
H335 C326 0.930 . S
C336 C338 1.422 . S
C336 C340 1.415 . S
C336 N342 1.369 . S
C337 C338 1.421 . S
C337 C339 1.417 . S
C337 C349 1.422 . S
C338 C336 1.422 . S
C338 C337 1.421 . S
C338 N348 1.359 . S
C339 C337 1.417 . S
C339 C341 1.329 . S
C339 H358 0.930 . S
C340 C336 1.415 . S
C340 C341 1.437 . S
C340 C344 1.413 . S
C341 C339 1.329 . S
C341 C340 1.437 . S
C341 H363 0.929 . S
N342 C336 1.369 . S
N342 C343 1.338 . S
N342 Gd347 2.622 . S
C343 N342 1.338 . S
C343 C345 1.378 . S
C343 H355 0.929 . S
C344 C340 1.413 . S
C344 C345 1.348 . S
C344 H360 0.931 . S
C345 C343 1.378 . S
C345 C344 1.348 . S
C345 H361 0.930 . S
Gd346 N366 2.622 . S
Gd346 N373 2.570 . S
Gd346 O380 2.353 . S
Gd346 O381 2.468 1_556 S
Gd346 O382 2.427 . S
Gd346 O384 2.388 . S
Gd346 O385 2.386 . S
Gd346 O389 2.307 1_556 S
Gd346 C399 2.805 . S
Gd347 N342 2.622 . S
Gd347 N348 2.570 . S
Gd347 O379 2.386 . S
Gd347 O383 2.307 1_554 S
Gd347 O386 2.353 . S
Gd347 O387 2.468 . S
Gd347 O388 2.427 . S
Gd347 O390 2.388 . S
Gd347 C411 2.805 . S
N348 C338 1.359 . S
N348 Gd347 2.570 . S
N348 C350 1.343 1_554 S
C349 C337 1.422 . S
C349 C351 1.321 1_554 S
C349 H357 0.922 1_554 S
C350 N348 1.343 1_556 S
C350 C351 1.390 . S
C350 H352 0.931 . S
C351 C349 1.321 1_556 S
C351 C350 1.390 . S
C351 H353 0.930 . S
H352 C350 0.931 . S
H353 C351 0.930 . S
H354 C377 0.931 . S
H355 C343 0.929 . S
H356 C378 0.930 . S
H357 C349 0.922 1_556 S
H358 C339 0.930 . S
H359 C368 0.929 . S
H360 C344 0.931 . S
H361 C345 0.930 . S
H362 C400 0.930 . S
H363 C341 0.929 . S
H364 C369 0.931 . S
H365 C370 0.930 . S
N366 Gd346 2.622 . S
N366 C367 1.369 . S
N366 C368 1.338 . S
C367 N366 1.369 . S
C367 C371 1.415 . S
C367 C374 1.422 . S
C368 H359 0.929 . S
C368 N366 1.338 . S
C368 C370 1.378 . S
C369 H364 0.931 . S
C369 C370 1.348 . S
C369 C371 1.413 . S
C370 H365 0.930 . S
C370 C368 1.378 . S
C370 C369 1.348 . S
C371 C367 1.415 . S
C371 C369 1.413 . S
C371 C401 1.437 . S
H372 C401 0.929 . S
N373 Gd346 2.570 . S
N373 C374 1.359 . S
N373 C377 1.343 1_556 S
C374 C367 1.422 . S
C374 N373 1.359 . S
C374 C376 1.421 . S
C375 C376 1.422 1_554 S
C375 C378 1.321 . S
C375 H402 0.931 . S
C376 C374 1.421 . S
C376 C375 1.422 1_556 S
C376 C400 1.417 . S
C377 H354 0.931 . S
C377 N373 1.343 1_554 S
C377 C378 1.390 . S
C378 H356 0.930 . S
C378 C375 1.321 . S
C378 C377 1.390 . S
O379 Gd347 2.386 . S
O379 C391 1.265 . S
O380 Gd346 2.353 . S
O380 C391 1.242 1_556 S
O381 Gd346 2.468 1_554 S
O381 C399 1.263 1_554 S
O382 Gd346 2.427 . S
O382 C399 1.252 . S
O383 Gd347 2.307 1_556 S
O383 C392 1.261 . S
O384 Gd346 2.388 . S
O384 C392 1.252 . S
O385 Gd346 2.386 . S
O385 C403 1.265 1_556 S
O386 Gd347 2.353 . S
O386 C403 1.242 . S
O387 Gd347 2.468 . S
O387 C411 1.263 . S
O388 Gd347 2.427 . S
O388 C411 1.252 . S
O389 Gd346 2.307 1_554 S
O389 C404 1.261 . S
O390 Gd347 2.388 . S
O390 C404 1.252 . S
C391 O379 1.265 . S
C391 O380 1.242 1_554 S
C392 O383 1.261 . S
C392 O384 1.252 . S
C393 C396 1.394 . S
C393 C398 1.368 1_556 S
C393 C399 1.500 . S
C394 C397 1.383 . S
C394 C398 1.396 1_556 S
C395 C396 1.396 . S
C395 C397 1.365 . S
C395 H412 0.929 . S
C396 C393 1.394 . S
C396 C395 1.396 . S
C396 H413 0.930 . S
C397 C394 1.383 . S
C397 C395 1.365 . S
C397 H414 0.931 . S
C398 C393 1.368 1_554 S
C398 C394 1.396 1_554 S
C398 H415 0.932 . S
C399 Gd346 2.805 . S
C399 O381 1.263 1_556 S
C399 O382 1.252 . S
C399 C393 1.500 . S
C400 H362 0.930 . S
C400 C376 1.417 . S
C400 C401 1.329 . S
C401 C371 1.437 . S
C401 H372 0.929 . S
C401 C400 1.329 . S
H402 C375 0.931 . S
C403 O385 1.265 1_554 S
C403 O386 1.242 . S
C404 O389 1.261 . S
C404 O390 1.252 . S
C405 C408 1.394 . S
C405 C410 1.370 . S
C405 C411 1.500 . S
C406 C409 1.383 . S
C406 C410 1.395 . S
C407 C408 1.396 . S
C407 C409 1.365 . S
C407 H416 0.929 . S
C408 C405 1.394 . S
C408 C407 1.396 . S
C408 H417 0.930 . S
C409 C406 1.383 . S
C409 C407 1.365 . S
C409 H418 0.931 . S
C410 C405 1.370 . S
C410 C406 1.395 . S
C410 H419 0.930 1_554 S
C411 Gd347 2.805 . S
C411 O387 1.263 . S
C411 O388 1.252 . S
C411 C405 1.500 . S
H412 C395 0.929 . S
H413 C396 0.930 . S
H414 C397 0.931 . S
H415 C398 0.932 . S
H416 C407 0.929 . S
H417 C408 0.930 . S
H418 C409 0.931 . S
H419 C410 0.930 1_556 S
C420 C422 1.422 . S
C420 C424 1.415 . S
C420 N426 1.369 . S
C421 C422 1.421 . S
C421 C423 1.417 . S
C421 C433 1.422 . S
C422 C420 1.422 . S
C422 C421 1.421 . S
C422 N432 1.359 . S
C423 C421 1.417 . S
C423 C425 1.329 . S
C423 H442 0.930 . S
C424 C420 1.415 . S
C424 C425 1.437 . S
C424 C428 1.413 . S
C425 C423 1.329 . S
C425 C424 1.437 . S
C425 H447 0.929 . S
N426 C420 1.369 . S
N426 C427 1.338 . S
N426 Gd431 2.622 . S
C427 N426 1.338 . S
C427 C429 1.378 . S
C427 H439 0.929 . S
C428 C424 1.413 . S
C428 C429 1.348 . S
C428 H444 0.931 . S
C429 C427 1.378 . S
C429 C428 1.348 . S
C429 H445 0.930 . S
Gd430 N450 2.622 . S
Gd430 N457 2.570 . S
Gd430 O464 2.353 . S
Gd430 O465 2.468 1_556 S
Gd430 O466 2.427 . S
Gd430 O468 2.388 . S
Gd430 O469 2.386 . S
Gd430 O473 2.307 1_556 S
Gd430 C483 2.805 . S
Gd431 N426 2.622 . S
Gd431 N432 2.570 . S
Gd431 O463 2.386 . S
Gd431 O467 2.307 1_554 S
Gd431 O470 2.353 . S
Gd431 O471 2.468 . S
Gd431 O472 2.427 . S
Gd431 O474 2.388 . S
Gd431 C495 2.805 . S
N432 C422 1.359 . S
N432 Gd431 2.570 . S
N432 C434 1.343 1_554 S
C433 C421 1.422 . S
C433 C435 1.321 1_554 S
C433 H441 0.931 . S
C434 N432 1.343 1_556 S
C434 C435 1.390 . S
C434 H436 0.931 . S
C435 C433 1.321 1_556 S
C435 C434 1.390 . S
C435 H437 0.930 . S
H436 C434 0.931 . S
H437 C435 0.930 . S
H438 C461 0.931 . S
H439 C427 0.929 . S
H440 C462 0.930 . S
H441 C433 0.931 . S
H442 C423 0.930 . S
H443 C452 0.929 . S
H444 C428 0.931 . S
H445 C429 0.930 . S
H446 C484 0.930 . S
H447 C425 0.929 . S
H448 C453 0.931 . S
H449 C454 0.930 . S
N450 Gd430 2.622 . S
N450 C451 1.369 . S
N450 C452 1.338 . S
C451 N450 1.369 . S
C451 C455 1.415 . S
C451 C458 1.422 . S
C452 H443 0.929 . S
C452 N450 1.338 . S
C452 C454 1.378 . S
C453 H448 0.931 . S
C453 C454 1.348 . S
C453 C455 1.413 . S
C454 H449 0.930 . S
C454 C452 1.378 . S
C454 C453 1.348 . S
C455 C451 1.415 . S
C455 C453 1.413 . S
C455 C485 1.437 . S
H456 C485 0.929 . S
N457 Gd430 2.570 . S
N457 C458 1.359 . S
N457 C461 1.343 1_556 S
C458 C451 1.422 . S
C458 N457 1.359 . S
C458 C460 1.421 . S
C459 C460 1.422 1_554 S
C459 C462 1.321 . S
C459 H486 0.931 . S
C460 C458 1.421 . S
C460 C459 1.422 1_556 S
C460 C484 1.417 . S
C461 H438 0.931 . S
C461 N457 1.343 1_554 S
C461 C462 1.390 . S
C462 H440 0.930 . S
C462 C459 1.321 . S
C462 C461 1.390 . S
O463 Gd431 2.386 . S
O463 C475 1.265 . S
O464 Gd430 2.353 . S
O464 C475 1.242 1_556 S
O465 Gd430 2.468 1_554 S
O465 C483 1.263 1_554 S
O466 Gd430 2.427 . S
O466 C483 1.252 . S
O467 Gd431 2.307 1_556 S
O467 C476 1.261 . S
O468 Gd430 2.388 . S
O468 C476 1.252 . S
O469 Gd430 2.386 . S
O469 C487 1.265 1_556 S
O470 Gd431 2.353 . S
O470 C487 1.242 . S
O471 Gd431 2.468 . S
O471 C495 1.263 . S
O472 Gd431 2.427 . S
O472 C495 1.252 . S
O473 Gd430 2.307 1_554 S
O473 C488 1.261 . S
O474 Gd431 2.388 . S
O474 C488 1.252 . S
C475 O463 1.265 . S
C475 O464 1.242 1_554 S
C476 O467 1.261 . S
C476 O468 1.252 . S
C477 C480 1.394 . S
C477 C482 1.370 1_556 S
C477 C483 1.500 . S
C478 C481 1.390 . S
C478 C482 1.398 1_556 S
C479 C480 1.396 . S
C479 C481 1.365 . S
C479 H496 0.929 . S
C480 C477 1.394 . S
C480 C479 1.396 . S
C480 H497 0.930 . S
C481 C478 1.390 . S
C481 C479 1.365 . S
C481 H498 0.931 . S
C482 C477 1.370 1_554 S
C482 C478 1.398 1_554 S
C482 H499 0.930 . S
C483 Gd430 2.805 . S
C483 O465 1.263 1_556 S
C483 O466 1.252 . S
C483 C477 1.500 . S
C484 H446 0.930 . S
C484 C460 1.417 . S
C484 C485 1.329 . S
C485 C455 1.437 . S
C485 H456 0.929 . S
C485 C484 1.329 . S
H486 C459 0.931 . S
C487 O469 1.265 1_554 S
C487 O470 1.242 . S
C488 O473 1.261 . S
C488 O474 1.252 . S
C489 C492 1.394 . S
C489 C494 1.370 . S
C489 C495 1.500 . S
C490 C493 1.383 . S
C490 C494 1.395 . S
C491 C492 1.396 . S
C491 C493 1.365 . S
C491 H500 0.929 . S
C492 C489 1.394 . S
C492 C491 1.396 . S
C492 H501 0.930 . S
C493 C490 1.383 . S
C493 C491 1.365 . S
C493 H502 0.931 . S
C494 C489 1.370 . S
C494 C490 1.395 . S
C494 H503 0.930 1_554 S
C495 Gd431 2.805 . S
C495 O471 1.263 . S
C495 O472 1.252 . S
C495 C489 1.500 . S
H496 C479 0.929 . S
H497 C480 0.930 . S
H498 C481 0.931 . S
H499 C482 0.930 . S
H500 C491 0.929 . S
H501 C492 0.930 . S
H502 C493 0.931 . S
H503 C494 0.930 1_556 S
C504 C506 1.422 . S
C504 C508 1.415 . S
C504 N510 1.369 . S
C505 C506 1.421 . S
C505 C507 1.417 . S
C505 C517 1.422 . S
C506 C504 1.422 . S
C506 C505 1.421 . S
C506 N516 1.359 . S
C507 C505 1.417 . S
C507 C509 1.329 . S
C507 H526 0.930 . S
C508 C504 1.415 . S
C508 C509 1.437 . S
C508 C512 1.413 . S
C509 C507 1.329 . S
C509 C508 1.437 . S
C509 H531 0.929 . S
N510 C504 1.369 . S
N510 C511 1.338 . S
N510 Gd515 2.622 . S
C511 N510 1.338 . S
C511 C513 1.378 . S
C511 H523 0.929 . S
C512 C508 1.413 . S
C512 C513 1.348 . S
C512 H528 0.931 . S
C513 C511 1.378 . S
C513 C512 1.348 . S
C513 H529 0.930 . S
Gd514 N534 2.622 . S
Gd514 N541 2.570 . S
Gd514 O548 2.353 . S
Gd514 O549 2.468 . S
Gd514 O550 2.427 . S
Gd514 O552 2.388 . S
Gd514 O553 2.386 . S
Gd514 O557 2.307 . S
Gd514 C567 2.805 . S
Gd515 N510 2.622 . S
Gd515 N516 2.570 . S
Gd515 O547 2.386 . S
Gd515 O551 2.307 . S
Gd515 O554 2.353 . S
Gd515 O555 2.468 . S
Gd515 O556 2.427 . S
Gd515 O558 2.388 . S
Gd515 C579 2.805 . S
N516 C506 1.359 . S
N516 Gd515 2.570 . S
N516 C518 1.343 . S
C517 C505 1.422 . S
C517 C519 1.321 . S
C517 H525 0.931 . S
C518 N516 1.343 . S
C518 C519 1.390 . S
C518 H520 0.931 . S
C519 C517 1.321 . S
C519 C518 1.390 . S
C519 H521 0.930 . S
H520 C518 0.931 . S
H521 C519 0.930 . S
H522 C545 0.931 . S
H523 C511 0.929 . S
H524 C546 0.930 . S
H525 C517 0.931 . S
H526 C507 0.930 . S
H527 C536 0.929 . S
H528 C512 0.931 . S
H529 C513 0.930 . S
H530 C568 0.930 . S
H531 C509 0.929 . S
H532 C537 0.931 . S
H533 C538 0.930 . S
N534 Gd514 2.622 . S
N534 C535 1.369 . S
N534 C536 1.338 . S
C535 N534 1.369 . S
C535 C539 1.415 . S
C535 C542 1.422 . S
C536 H527 0.929 . S
C536 N534 1.338 . S
C536 C538 1.378 . S
C537 H532 0.931 . S
C537 C538 1.348 . S
C537 C539 1.413 . S
C538 H533 0.930 . S
C538 C536 1.378 . S
C538 C537 1.348 . S
C539 C535 1.415 . S
C539 C537 1.413 . S
C539 C569 1.437 . S
H540 C569 0.929 . S
N541 Gd514 2.570 . S
N541 C542 1.359 . S
N541 C545 1.343 . S
C542 C535 1.422 . S
C542 N541 1.359 . S
C542 C544 1.421 . S
C543 C544 1.422 . S
C543 C546 1.321 . S
C543 H570 0.931 . S
C544 C542 1.421 . S
C544 C543 1.422 . S
C544 C568 1.417 . S
C545 H522 0.931 . S
C545 N541 1.343 . S
C545 C546 1.390 . S
C546 H524 0.930 . S
C546 C543 1.321 . S
C546 C545 1.390 . S
O547 Gd515 2.386 . S
O547 C559 1.265 . S
O548 Gd514 2.353 . S
O548 C559 1.242 . S
O549 Gd514 2.468 . S
O549 C567 1.263 . S
O550 Gd514 2.427 . S
O550 C567 1.252 . S
O551 Gd515 2.307 . S
O551 C560 1.261 . S
O552 Gd514 2.388 . S
O552 C560 1.252 . S
O553 Gd514 2.386 . S
O553 C571 1.265 . S
O554 Gd515 2.353 . S
O554 C571 1.242 . S
O555 Gd515 2.468 . S
O555 C579 1.263 . S
O556 Gd515 2.427 . S
O556 C579 1.252 . S
O557 Gd514 2.307 . S
O557 C572 1.261 . S
O558 Gd515 2.388 . S
O558 C572 1.252 . S
C559 O547 1.265 . S
C559 O548 1.242 . S
C560 O551 1.261 . S
C560 O552 1.252 . S
C561 C564 1.394 . S
C561 C566 1.370 . S
C561 C567 1.500 . S
C562 C565 1.383 . S
C562 C566 1.395 . S
C563 C564 1.396 . S
C563 C565 1.365 . S
C563 H580 0.929 . S
C564 C561 1.394 . S
C564 C563 1.396 . S
C564 H581 0.930 . S
C565 C562 1.383 . S
C565 C563 1.365 . S
C565 H582 0.931 . S
C566 C561 1.370 . S
C566 C562 1.395 . S
C566 H583 0.930 . S
C567 Gd514 2.805 . S
C567 O549 1.263 . S
C567 O550 1.252 . S
C567 C561 1.500 . S
C568 H530 0.930 . S
C568 C544 1.417 . S
C568 C569 1.329 . S
C569 C539 1.437 . S
C569 H540 0.929 . S
C569 C568 1.329 . S
H570 C543 0.931 . S
C571 O553 1.265 . S
C571 O554 1.242 . S
C572 O557 1.261 . S
C572 O558 1.252 . S
C573 C576 1.394 . S
C573 C578 1.370 . S
C573 C579 1.500 . S
C574 C577 1.383 . S
C574 C578 1.395 . S
C575 C576 1.396 . S
C575 C577 1.365 . S
C575 H584 0.929 . S
C576 C573 1.394 . S
C576 C575 1.396 . S
C576 H585 0.930 . S
C577 C574 1.383 . S
C577 C575 1.365 . S
C577 H586 0.931 . S
C578 C573 1.370 . S
C578 C574 1.395 . S
C578 H587 0.930 . S
C579 Gd515 2.805 . S
C579 O555 1.263 . S
C579 O556 1.252 . S
C579 C573 1.500 . S
H580 C563 0.929 . S
H581 C564 0.930 . S
H582 C565 0.931 . S
H583 C566 0.930 . S
H584 C575 0.929 . S
H585 C576 0.930 . S
H586 C577 0.931 . S
H587 C578 0.930 . S
C588 C590 1.422 . S
C588 C592 1.415 . S
C588 N594 1.369 . S
C589 C590 1.421 . S
C589 C591 1.417 . S
C589 C601 1.422 . S
C590 C588 1.422 . S
C590 C589 1.421 . S
C590 N600 1.359 . S
C591 C589 1.417 . S
C591 C593 1.329 . S
C591 H610 0.930 . S
C592 C588 1.415 . S
C592 C593 1.437 . S
C592 C596 1.413 . S
C593 C591 1.329 . S
C593 C592 1.437 . S
C593 H615 0.929 . S
N594 C588 1.369 . S
N594 C595 1.338 . S
N594 Gd599 2.622 . S
C595 N594 1.338 . S
C595 C597 1.378 . S
C595 H607 0.929 . S
C596 C592 1.413 . S
C596 C597 1.348 . S
C596 H612 0.931 . S
C597 C595 1.378 . S
C597 C596 1.348 . S
C597 H613 0.930 . S
Gd598 N618 2.622 . S
Gd598 N625 2.570 . S
Gd598 O632 2.353 . S
Gd598 O633 2.468 . S
Gd598 O634 2.427 . S
Gd598 O636 2.388 . S
Gd598 O637 2.386 . S
Gd598 O641 2.307 . S
Gd598 C651 2.805 . S
Gd599 N594 2.622 . S
Gd599 N600 2.570 . S
Gd599 O631 2.386 . S
Gd599 O635 2.307 . S
Gd599 O638 2.353 . S
Gd599 O639 2.468 . S
Gd599 O640 2.427 . S
Gd599 O642 2.388 . S
Gd599 C663 2.805 . S
N600 C590 1.359 . S
N600 Gd599 2.570 . S
N600 C602 1.343 . S
C601 C589 1.422 . S
C601 C603 1.321 . S
C601 H609 0.931 . S
C602 N600 1.343 . S
C602 C603 1.390 . S
C602 H604 0.931 . S
C603 C601 1.321 . S
C603 C602 1.390 . S
C603 H605 0.930 . S
H604 C602 0.931 . S
H605 C603 0.930 . S
H606 C629 0.931 . S
H607 C595 0.929 . S
H608 C630 0.930 . S
H609 C601 0.931 . S
H610 C591 0.930 . S
H611 C620 0.929 . S
H612 C596 0.931 . S
H613 C597 0.930 . S
H614 C652 0.930 . S
H615 C593 0.929 . S
H616 C621 0.931 . S
H617 C622 0.930 . S
N618 Gd598 2.622 . S
N618 C619 1.369 . S
N618 C620 1.338 . S
C619 N618 1.369 . S
C619 C623 1.415 . S
C619 C626 1.422 . S
C620 H611 0.929 . S
C620 N618 1.338 . S
C620 C622 1.378 . S
C621 H616 0.931 . S
C621 C622 1.348 . S
C621 C623 1.413 . S
C622 H617 0.930 . S
C622 C620 1.378 . S
C622 C621 1.348 . S
C623 C619 1.415 . S
C623 C621 1.413 . S
C623 C653 1.437 . S
H624 C653 0.929 . S
N625 Gd598 2.570 . S
N625 C626 1.359 . S
N625 C629 1.343 . S
C626 C619 1.422 . S
C626 N625 1.359 . S
C626 C628 1.421 . S
C627 C628 1.422 . S
C627 C630 1.321 . S
C627 H654 0.931 . S
C628 C626 1.421 . S
C628 C627 1.422 . S
C628 C652 1.417 . S
C629 H606 0.931 . S
C629 N625 1.343 . S
C629 C630 1.390 . S
C630 H608 0.930 . S
C630 C627 1.321 . S
C630 C629 1.390 . S
O631 Gd599 2.386 . S
O631 C643 1.265 . S
O632 Gd598 2.353 . S
O632 C643 1.242 . S
O633 Gd598 2.468 . S
O633 C651 1.263 . S
O634 Gd598 2.427 . S
O634 C651 1.252 . S
O635 Gd599 2.307 . S
O635 C644 1.261 . S
O636 Gd598 2.388 . S
O636 C644 1.252 . S
O637 Gd598 2.386 . S
O637 C655 1.265 . S
O638 Gd599 2.353 . S
O638 C655 1.242 . S
O639 Gd599 2.468 . S
O639 C663 1.263 . S
O640 Gd599 2.427 . S
O640 C663 1.252 . S
O641 Gd598 2.307 . S
O641 C656 1.261 . S
O642 Gd599 2.388 . S
O642 C656 1.252 . S
C643 O631 1.265 . S
C643 O632 1.242 . S
C644 O635 1.261 . S
C644 O636 1.252 . S
C645 C648 1.394 . S
C645 C650 1.370 . S
C645 C651 1.500 . S
C646 C649 1.383 . S
C646 C650 1.395 . S
C647 C648 1.396 . S
C647 C649 1.365 . S
C647 H664 0.929 . S
C648 C645 1.394 . S
C648 C647 1.396 . S
C648 H665 0.930 . S
C649 C646 1.383 . S
C649 C647 1.365 . S
C649 H666 0.931 . S
C650 C645 1.370 . S
C650 C646 1.395 . S
C650 H667 0.930 . S
C651 Gd598 2.805 . S
C651 O633 1.263 . S
C651 O634 1.252 . S
C651 C645 1.500 . S
C652 H614 0.930 . S
C652 C628 1.417 . S
C652 C653 1.329 . S
C653 C623 1.437 . S
C653 H624 0.929 . S
C653 C652 1.329 . S
H654 C627 0.931 . S
C655 O637 1.265 . S
C655 O638 1.242 . S
C656 O641 1.261 . S
C656 O642 1.252 . S
C657 C660 1.394 . S
C657 C662 1.370 . S
C657 C663 1.500 . S
C658 C661 1.383 . S
C658 C662 1.395 . S
C659 C660 1.396 . S
C659 C661 1.365 . S
C659 H668 0.929 . S
C660 C657 1.394 . S
C660 C659 1.396 . S
C660 H669 0.930 . S
C661 C658 1.383 . S
C661 C659 1.365 . S
C661 H670 0.931 . S
C662 C657 1.370 . S
C662 C658 1.395 . S
C662 H671 0.930 . S
C663 Gd599 2.805 . S
C663 O639 1.263 . S
C663 O640 1.252 . S
C663 C657 1.500 . S
H664 C647 0.929 . S
H665 C648 0.930 . S
H666 C649 0.931 . S
H667 C650 0.930 . S
H668 C659 0.929 . S
H669 C660 0.930 . S
H670 C661 0.931 . S
H671 C662 0.930 . S
H672 C684 0.930 . S
H673 C686 0.930 . S
H674 C687 0.930 . S
H675 C691 0.959 . S
H676 C691 0.959 . S
H677 C691 0.961 . S
H678 C692 0.960 . S
H679 C692 0.961 . S
H680 C692 0.959 . S
H681 C695 0.929 . S
H682 C696 0.931 . S
H683 C698 0.930 . S
C684 H672 0.930 . S
C684 C685 1.399 . S
C684 C689 1.399 . S
C685 C684 1.399 . S
C685 C686 1.376 1_554 S
C686 H673 0.930 . S
C686 C685 1.376 1_556 S
C686 C687 1.388 . S
C687 H674 0.930 . S
C687 C686 1.388 . S
C687 C688 1.390 . S
C688 C687 1.390 . S
C688 C689 1.394 1_556 S
C688 C694 1.465 . S
C689 C684 1.399 . S
C689 C688 1.394 1_554 S
C689 C690 1.516 . S
C690 C689 1.516 . S
C690 C691 1.502 . S
C690 C692 1.561 . S
C690 C693 1.526 . S
C691 H675 0.959 . S
C691 H676 0.959 . S
C691 H677 0.961 . S
C691 C690 1.502 . S
C692 H678 0.960 . S
C692 H679 0.961 . S
C692 H680 0.959 . S
C692 C690 1.561 . S
C693 C690 1.526 . S
C693 C694 1.396 1_554 S
C693 C698 1.390 . S
C694 C688 1.465 . S
C694 C693 1.396 1_556 S
C694 C695 1.399 . S
C695 H681 0.929 . S
C695 C694 1.399 . S
C695 C696 1.385 . S
C696 H682 0.931 . S
C696 C695 1.385 . S
C696 C697 1.389 1_556 S
C697 C696 1.389 1_554 S
C697 C698 1.387 . S
C698 H683 0.930 . S
C698 C693 1.390 . S
C698 C697 1.387 . S
H699 C711 0.930 . S
H700 C713 0.930 . S
H701 C714 0.930 . S
H702 C718 0.959 . S
H703 C718 0.959 . S
H704 C718 0.961 . S
H705 C719 0.960 . S
H706 C719 0.961 . S
H707 C719 0.959 . S
H708 C722 0.929 . S
H709 C723 0.931 . S
H710 C725 0.930 . S
C711 H699 0.930 . S
C711 C712 1.399 1_556 S
C711 C716 1.399 . S
C712 C711 1.399 1_554 S
C712 C713 1.376 . S
C713 H700 0.930 . S
C713 C712 1.376 . S
C713 C714 1.388 . S
C714 H701 0.930 . S
C714 C713 1.388 . S
C714 C715 1.390 . S
C715 C714 1.390 . S
C715 C716 1.394 1_554 S
C715 C721 1.465 . S
C716 C711 1.399 . S
C716 C715 1.394 1_556 S
C716 C717 1.516 . S
C717 C716 1.516 . S
C717 C718 1.502 . S
C717 C719 1.561 . S
C717 C720 1.526 . S
C718 H702 0.959 . S
C718 H703 0.959 . S
C718 H704 0.961 . S
C718 C717 1.502 . S
C719 H705 0.960 . S
C719 H706 0.961 . S
C719 H707 0.959 . S
C719 C717 1.561 . S
C720 C717 1.526 . S
C720 C721 1.396 1_556 S
C720 C725 1.390 . S
C721 C715 1.465 . S
C721 C720 1.396 1_554 S
C721 C722 1.399 . S
C722 H708 0.929 . S
C722 C721 1.399 . S
C722 C723 1.385 . S
C723 H709 0.931 . S
C723 C722 1.385 . S
C723 C724 1.389 . S
C724 C723 1.389 . S
C724 C725 1.387 1_554 S
C725 H710 0.930 . S
C725 C720 1.390 . S
C725 C724 1.387 1_556 S
H726 C738 0.930 . S
H727 C740 0.930 . S
H728 C741 0.930 . S
H729 C745 0.959 . S
H730 C745 0.959 . S
H731 C745 0.961 . S
H732 C746 0.960 . S
H733 C746 0.961 . S
H734 C746 0.959 . S
H735 C749 0.929 . S
H736 C750 0.931 . S
H737 C752 0.930 . S
C738 H726 0.930 . S
C738 C739 1.399 . S
C738 C743 1.399 . S
C739 C738 1.399 . S
C739 C740 1.376 . S
C740 H727 0.930 . S
C740 C739 1.376 . S
C740 C741 1.388 . S
C741 H728 0.930 . S
C741 C740 1.388 . S
C741 C742 1.390 . S
C742 C741 1.390 . S
C742 C743 1.394 . S
C742 C748 1.465 . S
C743 C738 1.399 . S
C743 C742 1.394 . S
C743 C744 1.516 . S
C744 C743 1.516 . S
C744 C745 1.502 . S
C744 C746 1.561 . S
C744 C747 1.526 . S
C745 H729 0.959 . S
C745 H730 0.959 . S
C745 H731 0.961 . S
C745 C744 1.502 . S
C746 H732 0.960 . S
C746 H733 0.961 . S
C746 H734 0.959 . S
C746 C744 1.561 . S
C747 C744 1.526 . S
C747 C748 1.396 . S
C747 C752 1.390 . S
C748 C742 1.465 . S
C748 C747 1.396 . S
C748 C749 1.399 . S
C749 H735 0.929 . S
C749 C748 1.399 . S
C749 C750 1.385 . S
C750 H736 0.931 . S
C750 C749 1.385 . S
C750 C751 1.389 . S
C751 C750 1.389 . S
C751 C752 1.387 . S
C752 H737 0.930 . S
C752 C747 1.390 . S
C752 C751 1.387 . S
H753 C765 0.930 . S
H754 C767 0.930 . S
H755 C768 0.930 . S
H756 C772 0.959 . S
H757 C772 0.959 . S
H758 C772 0.961 . S
H759 C773 0.960 . S
H760 C773 0.961 . S
H761 C773 0.959 . S
H762 C776 0.929 . S
H763 C777 0.931 . S
H764 C779 0.930 . S
C765 H753 0.930 . S
C765 C766 1.399 . S
C765 C770 1.399 . S
C766 C765 1.399 . S
C766 C767 1.376 . S
C767 H754 0.930 . S
C767 C766 1.376 . S
C767 C768 1.388 . S
C768 H755 0.930 . S
C768 C767 1.388 . S
C768 C769 1.390 . S
C769 C768 1.390 . S
C769 C770 1.394 . S
C769 C775 1.465 . S
C770 C765 1.399 . S
C770 C769 1.394 . S
C770 C771 1.516 . S
C771 C770 1.516 . S
C771 C772 1.502 . S
C771 C773 1.561 . S
C771 C774 1.526 . S
C772 H756 0.959 . S
C772 H757 0.959 . S
C772 H758 0.961 . S
C772 C771 1.502 . S
C773 H759 0.960 . S
C773 H760 0.961 . S
C773 H761 0.959 . S
C773 C771 1.561 . S
C774 C771 1.526 . S
C774 C775 1.396 . S
C774 C779 1.390 . S
C775 C769 1.465 . S
C775 C774 1.396 . S
C775 C776 1.399 . S
C776 H762 0.929 . S
C776 C775 1.399 . S
C776 C777 1.385 . S
C777 H763 0.931 . S
C777 C776 1.385 . S
C777 C778 1.389 . S
C778 C777 1.389 . S
C778 C779 1.387 . S
C779 H764 0.930 . S
C779 C774 1.390 . S
C779 C778 1.387 . S
H780 C792 0.930 . S
H781 C794 0.930 . S
H782 C795 0.930 . S
H783 C799 0.959 . S
H784 C799 0.959 . S
H785 C799 0.963 . S
H786 C800 0.960 . S
H787 C800 0.961 . S
H788 C800 0.959 . S
H789 C803 0.929 . S
H790 C804 0.931 . S
H791 C806 0.930 . S
C792 H780 0.930 . S
C792 C793 1.399 . S
C792 C797 1.399 . S
C793 C792 1.399 . S
C793 C794 1.376 1_554 S
C794 H781 0.930 . S
C794 C793 1.376 1_556 S
C794 C795 1.388 . S
C795 H782 0.930 . S
C795 C794 1.388 . S
C795 C796 1.390 1_655 S
C796 C795 1.390 1_455 S
C796 C797 1.394 1_456 S
C796 C802 1.465 . S
C797 C792 1.399 . S
C797 C796 1.394 1_654 S
C797 C798 1.516 1_655 S
C798 C797 1.516 1_455 S
C798 C799 1.502 . S
C798 C800 1.561 . S
C798 C801 1.526 . S
C799 H783 0.959 . S
C799 H784 0.959 . S
C799 H785 0.963 . S
C799 C798 1.502 . S
C800 H786 0.960 . S
C800 H787 0.961 . S
C800 H788 0.959 . S
C800 C798 1.561 . S
C801 C798 1.526 . S
C801 C802 1.396 1_554 S
C801 C806 1.390 . S
C802 C796 1.465 . S
C802 C801 1.396 1_556 S
C802 C803 1.399 . S
C803 H789 0.929 . S
C803 C802 1.399 . S
C803 C804 1.385 . S
C804 H790 0.931 . S
C804 C803 1.385 . S
C804 C805 1.389 1_556 S
C805 C804 1.389 1_554 S
C805 C806 1.387 . S
C806 H791 0.930 . S
C806 C801 1.390 . S
C806 C805 1.387 . S
H807 C819 0.930 . S
H808 C821 0.930 . S
H809 C822 0.930 . S
H810 C826 0.959 . S
H811 C826 0.959 . S
H812 C826 0.954 1_455 S
H813 C827 0.960 . S
H814 C827 0.961 . S
H815 C827 0.959 . S
H816 C830 0.929 . S
H817 C831 0.931 . S
H818 C833 0.930 . S
C819 H807 0.930 . S
C819 C820 1.399 . S
C819 C824 1.399 . S
C820 C819 1.399 . S
C820 C821 1.376 1_554 S
C821 H808 0.930 . S
C821 C820 1.376 1_556 S
C821 C822 1.388 . S
C822 H809 0.930 . S
C822 C821 1.388 . S
C822 C823 1.390 1_455 S
C823 C822 1.390 1_655 S
C823 C824 1.394 1_656 S
C823 C829 1.465 . S
C824 C819 1.399 . S
C824 C823 1.394 1_454 S
C824 C825 1.516 1_455 S
C825 C824 1.516 1_655 S
C825 C826 1.502 . S
C825 C827 1.561 . S
C825 C828 1.526 . S
C826 H810 0.959 . S
C826 H811 0.959 . S
C826 H812 0.954 1_655 S
C826 C825 1.502 . S
C827 H813 0.960 . S
C827 H814 0.961 . S
C827 H815 0.959 . S
C827 C825 1.561 . S
C828 C825 1.526 . S
C828 C829 1.396 1_554 S
C828 C833 1.390 . S
C829 C823 1.465 . S
C829 C828 1.396 1_556 S
C829 C830 1.399 . S
C830 H816 0.929 . S
C830 C829 1.399 . S
C830 C831 1.385 . S
C831 H817 0.931 . S
C831 C830 1.385 . S
C831 C832 1.389 1_556 S
C832 C831 1.389 1_554 S
C832 C833 1.387 . S
C833 H818 0.930 . S
C833 C828 1.390 . S
C833 C832 1.387 . S
H834 C846 0.930 . S
H835 C848 0.930 . S
H836 C849 0.930 . S
H837 C853 0.959 . S
H838 C853 0.959 1_655 S
H839 C853 0.961 . S
H840 C854 0.960 . S
H841 C854 0.961 1_655 S
H842 C854 0.959 . S
H843 C857 0.929 . S
H844 C858 0.931 . S
H845 C860 0.930 . S
C846 H834 0.930 . S
C846 C847 1.399 . S
C846 C851 1.399 . S
C847 C846 1.399 . S
C847 C848 1.376 . S
C848 H835 0.930 . S
C848 C847 1.376 . S
C848 C849 1.388 . S
C849 H836 0.930 . S
C849 C848 1.388 . S
C849 C850 1.390 . S
C850 C849 1.390 . S
C850 C851 1.394 . S
C850 C856 1.465 . S
C851 C846 1.399 . S
C851 C850 1.394 . S
C851 C852 1.516 . S
C852 C851 1.516 . S
C852 C853 1.502 . S
C852 C854 1.561 . S
C852 C855 1.526 1_455 S
C853 H837 0.959 . S
C853 H838 0.959 1_455 S
C853 H839 0.961 . S
C853 C852 1.502 . S
C854 H840 0.960 . S
C854 H841 0.961 1_455 S
C854 H842 0.959 . S
C854 C852 1.561 . S
C855 C852 1.526 1_655 S
C855 C856 1.396 1_655 S
C855 C860 1.390 . S
C856 C850 1.465 . S
C856 C855 1.396 1_455 S
C856 C857 1.399 1_455 S
C857 H843 0.929 . S
C857 C856 1.399 1_655 S
C857 C858 1.385 . S
C858 H844 0.931 . S
C858 C857 1.385 . S
C858 C859 1.389 . S
C859 C858 1.389 . S
C859 C860 1.387 . S
C860 H845 0.930 . S
C860 C855 1.390 . S
C860 C859 1.387 . S
H861 C873 0.930 . S
H862 C875 0.930 . S
H863 C876 0.930 . S
H864 C880 0.959 . S
H865 C880 0.967 . S
H866 C880 0.961 . S
H867 C881 0.960 . S
H868 C881 0.961 . S
H869 C881 0.959 . S
H870 C884 0.929 . S
H871 C885 0.931 . S
H872 C887 0.930 . S
C873 H861 0.930 . S
C873 C874 1.399 . S
C873 C878 1.399 . S
C874 C873 1.399 . S
C874 C875 1.376 . S
C875 H862 0.930 . S
C875 C874 1.376 . S
C875 C876 1.388 . S
C876 H863 0.930 . S
C876 C875 1.388 . S
C876 C877 1.390 . S
C877 C876 1.390 . S
C877 C878 1.394 . S
C877 C883 1.465 . S
C878 C873 1.399 . S
C878 C877 1.394 . S
C878 C879 1.516 . S
C879 C878 1.516 . S
C879 C880 1.502 . S
C879 C881 1.561 . S
C879 C882 1.526 1_655 S
C880 H864 0.959 . S
C880 H865 0.967 . S
C880 H866 0.961 . S
C880 C879 1.502 . S
C881 H867 0.960 . S
C881 H868 0.961 . S
C881 H869 0.959 . S
C881 C879 1.561 . S
C882 C879 1.526 1_455 S
C882 C883 1.396 1_455 S
C882 C887 1.390 . S
C883 C877 1.465 . S
C883 C882 1.396 1_655 S
C883 C884 1.399 1_655 S
C884 H870 0.929 . S
C884 C883 1.399 1_455 S
C884 C885 1.385 . S
C885 H871 0.931 . S
C885 C884 1.385 . S
C885 C886 1.389 . S
C886 C885 1.389 . S
C886 C887 1.387 . S
C887 H872 0.930 . S
C887 C882 1.390 . S
C887 C886 1.387 . S
H888 C900 0.930 . S
H889 C902 0.930 . S
H890 C903 0.930 . S
H891 C907 0.959 . S
H892 C907 0.959 . S
H893 C907 0.961 . S
H894 C908 0.960 . S
H895 C908 0.961 . S
H896 C908 0.959 . S
H897 C911 0.929 1_455 S
H898 C912 0.931 . S
H899 C914 0.930 . S
C900 H888 0.930 . S
C900 C901 1.399 1_556 S
C900 C905 1.399 . S
C901 C900 1.399 1_554 S
C901 C902 1.376 . S
C902 H889 0.930 . S
C902 C901 1.376 . S
C902 C903 1.388 . S
C903 H890 0.930 . S
C903 C902 1.388 . S
C903 C904 1.390 . S
C904 C903 1.390 . S
C904 C905 1.394 1_554 S
C904 C910 1.465 . S
C905 C900 1.399 . S
C905 C904 1.394 1_556 S
C905 C906 1.516 1_455 S
C906 C905 1.516 1_655 S
C906 C907 1.502 . S
C906 C908 1.561 1_655 S
C906 C909 1.526 . S
C907 H891 0.959 . S
C907 H892 0.959 . S
C907 H893 0.961 . S
C907 C906 1.502 . S
C908 H894 0.960 . S
C908 H895 0.961 . S
C908 H896 0.959 . S
C908 C906 1.561 1_455 S
C909 C906 1.526 . S
C909 C910 1.396 1_656 S
C909 C914 1.390 . S
C910 C904 1.465 . S
C910 C909 1.396 1_454 S
C910 C911 1.399 1_455 S
C911 H897 0.929 1_655 S
C911 C910 1.399 1_655 S
C911 C912 1.385 . S
C912 H898 0.931 . S
C912 C911 1.385 . S
C912 C913 1.389 . S
C913 C912 1.389 . S
C913 C914 1.387 1_554 S
C914 H899 0.930 . S
C914 C909 1.390 . S
C914 C913 1.387 1_556 S
H915 C927 0.930 . S
H916 C929 0.930 . S
H917 C930 0.930 . S
H918 C934 0.959 . S
H919 C934 0.959 . S
H920 C934 0.961 . S
H921 C935 0.960 . S
H922 C935 0.961 . S
H923 C935 0.959 . S
H924 C938 0.929 . S
H925 C939 0.931 . S
H926 C941 0.930 . S
C927 H915 0.930 . S
C927 C928 1.399 . S
C927 C932 1.399 . S
C928 C927 1.399 . S
C928 C929 1.376 . S
C929 H916 0.930 . S
C929 C928 1.376 . S
C929 C930 1.388 1_455 S
C930 H917 0.930 . S
C930 C929 1.388 1_655 S
C930 C931 1.390 . S
C931 C930 1.390 . S
C931 C932 1.394 1_655 S
C931 C937 1.465 . S
C932 C927 1.399 . S
C932 C931 1.394 1_455 S
C932 C933 1.516 . S
C933 C932 1.516 . S
C933 C934 1.502 . S
C933 C935 1.561 1_455 S
C933 C936 1.526 1_455 S
C934 H918 0.959 . S
C934 H919 0.959 . S
C934 H920 0.961 . S
C934 C933 1.502 . S
C935 H921 0.960 . S
C935 H922 0.961 . S
C935 H923 0.959 . S
C935 C933 1.561 1_655 S
C936 C933 1.526 1_655 S
C936 C937 1.396 . S
C936 C941 1.390 . S
C937 C931 1.465 . S
C937 C936 1.396 . S
C937 C938 1.399 . S
C938 H924 0.929 . S
C938 C937 1.399 . S
C938 C939 1.385 . S
C939 H925 0.931 . S
C939 C938 1.385 . S
C939 C940 1.389 . S
C940 C939 1.389 . S
C940 C941 1.387 . S
C941 H926 0.930 . S
C941 C936 1.390 . S
C941 C940 1.387 . S
H942 C954 0.930 . S
H943 C956 0.930 . S
H944 C957 0.930 . S
H945 C961 0.959 . S
H946 C961 0.959 . S
H947 C961 0.961 . S
H948 C962 0.960 . S
H949 C962 0.961 . S
H950 C962 0.959 . S
H951 C965 0.929 1_565 S
H952 C966 0.931 . S
H953 C968 0.930 . S
C954 H942 0.930 . S
C954 C955 1.399 . S
C954 C959 1.399 . S
C955 C954 1.399 . S
C955 C956 1.376 1_554 S
C956 H943 0.930 . S
C956 C955 1.376 1_556 S
C956 C957 1.388 . S
C957 H944 0.930 . S
C957 C956 1.388 . S
C957 C958 1.390 . S
C958 C957 1.390 . S
C958 C959 1.394 1_556 S
C958 C964 1.465 1_565 S
C959 C954 1.399 . S
C959 C958 1.394 1_554 S
C959 C960 1.516 1_565 S
C960 C959 1.516 1_545 S
C960 C961 1.502 . S
C960 C962 1.561 . S
C960 C963 1.526 . S
C961 H945 0.959 . S
C961 H946 0.959 . S
C961 H947 0.961 . S
C961 C960 1.502 . S
C962 H948 0.960 . S
C962 H949 0.961 . S
C962 H950 0.959 . S
C962 C960 1.561 . S
C963 C960 1.526 . S
C963 C964 1.396 1_554 S
C963 C968 1.390 . S
C964 C958 1.465 1_545 S
C964 C963 1.396 1_556 S
C964 C965 1.399 . S
C965 H951 0.929 1_545 S
C965 C964 1.399 . S
C965 C966 1.385 . S
C966 H952 0.931 . S
C966 C965 1.385 . S
C966 C967 1.389 1_556 S
C967 C966 1.389 1_554 S
C967 C968 1.387 . S
C968 H953 0.930 . S
C968 C963 1.390 . S
C968 C967 1.387 . S
H969 C981 0.930 . S
H970 C983 0.930 . S
H971 C984 0.930 1_565 S
H972 C988 0.959 . S
H973 C988 0.959 . S
H974 C988 0.961 . S
H975 C989 0.960 . S
H976 C989 0.961 . S
H977 C989 0.959 . S
H978 C992 0.929 . S
H979 C993 0.931 . S
H980 C995 0.930 . S
C981 H969 0.930 . S
C981 C982 1.399 . S
C981 C986 1.399 . S
C982 C981 1.399 . S
C982 C983 1.376 . S
C983 H970 0.930 . S
C983 C982 1.376 . S
C983 C984 1.388 . S
C984 H971 0.930 1_545 S
C984 C983 1.388 . S
C984 C985 1.390 . S
C985 C984 1.390 . S
C985 C986 1.394 . S
C985 C991 1.465 1_545 S
C986 C981 1.399 . S
C986 C985 1.394 . S
C986 C987 1.516 . S
C987 C986 1.516 . S
C987 C988 1.502 . S
C987 C989 1.561 . S
C987 C990 1.526 1_545 S
C988 H972 0.959 . S
C988 H973 0.959 . S
C988 H974 0.961 . S
C988 C987 1.502 . S
C989 H975 0.960 . S
C989 H976 0.961 . S
C989 H977 0.959 . S
C989 C987 1.561 . S
C990 C987 1.526 1_565 S
C990 C991 1.396 . S
C990 C995 1.390 . S
C991 C985 1.465 1_565 S
C991 C990 1.396 . S
C991 C992 1.399 . S
C992 H978 0.929 . S
C992 C991 1.399 . S
C992 C993 1.385 . S
C993 H979 0.931 . S
C993 C992 1.385 . S
C993 C994 1.389 . S
C994 C993 1.389 . S
C994 C995 1.387 . S
C995 H980 0.930 . S
C995 C990 1.390 . S
C995 C994 1.387 . S
H996 C1008 0.930 . S
H997 C1010 0.930 . S
H998 C1011 0.930 . S
H999 C1015 0.959 . S
H1000 C1015 0.959 . S
H1001 C1015 0.961 . S
H1002 C1016 0.960 . S
H1003 C1016 0.961 . S
H1004 C1016 0.959 . S
H1005 C1019 0.929 . S
H1006 C1020 0.931 . S
H1007 C1022 0.930 . S
C1008 H996 0.930 . S
C1008 C1009 1.399 1_556 S
C1008 C1013 1.399 . S
C1009 C1008 1.399 1_554 S
C1009 C1010 1.376 . S
C1010 H997 0.930 . S
C1010 C1009 1.376 . S
C1010 C1011 1.388 . S
C1011 H998 0.930 . S
C1011 C1010 1.388 . S
C1011 C1012 1.390 . S
C1012 C1011 1.390 . S
C1012 C1013 1.394 1_554 S
C1012 C1018 1.465 . S
C1013 C1008 1.399 . S
C1013 C1012 1.394 1_556 S
C1013 C1014 1.516 . S
C1014 C1013 1.516 . S
C1014 C1015 1.502 . S
C1014 C1016 1.561 . S
C1014 C1017 1.526 . S
C1015 H999 0.959 . S
C1015 H1000 0.959 . S
C1015 H1001 0.961 . S
C1015 C1014 1.502 . S
C1016 H1002 0.960 . S
C1016 H1003 0.961 . S
C1016 H1004 0.959 . S
C1016 C1014 1.561 . S
C1017 C1014 1.526 . S
C1017 C1018 1.396 1_556 S
C1017 C1022 1.390 . S
C1018 C1012 1.465 . S
C1018 C1017 1.396 1_554 S
C1018 C1019 1.399 . S
C1019 H1005 0.929 . S
C1019 C1018 1.399 . S
C1019 C1020 1.385 . S
C1020 H1006 0.931 . S
C1020 C1019 1.385 . S
C1020 C1021 1.389 . S
C1021 C1020 1.389 . S
C1021 C1022 1.387 1_554 S
C1022 H1007 0.930 . S
C1022 C1017 1.390 . S
C1022 C1021 1.387 1_556 S
H1023 C1035 0.930 . S
H1024 C1037 0.930 . S
H1025 C1038 0.930 . S
H1026 C1042 0.959 . S
H1027 C1042 0.959 . S
H1028 C1042 0.961 . S
H1029 C1043 0.960 . S
H1030 C1043 0.961 . S
H1031 C1043 0.959 . S
H1032 C1046 0.929 . S
H1033 C1047 0.931 . S
H1034 C1049 0.930 . S
C1035 H1023 0.930 . S
C1035 C1036 1.399 . S
C1035 C1040 1.399 . S
C1036 C1035 1.399 . S
C1036 C1037 1.376 1_554 S
C1037 H1024 0.930 . S
C1037 C1036 1.376 1_556 S
C1037 C1038 1.388 . S
C1038 H1025 0.930 . S
C1038 C1037 1.388 . S
C1038 C1039 1.390 . S
C1039 C1038 1.390 . S
C1039 C1040 1.394 1_556 S
C1039 C1045 1.465 . S
C1040 C1035 1.399 . S
C1040 C1039 1.394 1_554 S
C1040 C1041 1.516 . S
C1041 C1040 1.516 . S
C1041 C1042 1.502 . S
C1041 C1043 1.561 . S
C1041 C1044 1.526 . S
C1042 H1026 0.959 . S
C1042 H1027 0.959 . S
C1042 H1028 0.961 . S
C1042 C1041 1.502 . S
C1043 H1029 0.960 . S
C1043 H1030 0.961 . S
C1043 H1031 0.959 . S
C1043 C1041 1.561 . S
C1044 C1041 1.526 . S
C1044 C1045 1.396 1_554 S
C1044 C1049 1.390 . S
C1045 C1039 1.465 . S
C1045 C1044 1.396 1_556 S
C1045 C1046 1.399 . S
C1046 H1032 0.929 . S
C1046 C1045 1.399 . S
C1046 C1047 1.385 . S
C1047 H1033 0.931 . S
C1047 C1046 1.385 . S
C1047 C1048 1.389 1_556 S
C1048 C1047 1.389 1_554 S
C1048 C1049 1.387 . S
C1049 H1034 0.930 . S
C1049 C1044 1.390 . S
C1049 C1048 1.387 . S
H1050 C1062 0.930 . S
H1051 C1064 0.930 . S
H1052 C1065 0.930 . S
H1053 C1069 0.959 . S
H1054 C1069 0.959 . S
H1055 C1069 0.961 . S
H1056 C1070 0.960 . S
H1057 C1070 0.961 . S
H1058 C1070 0.959 . S
H1059 C1073 0.929 . S
H1060 C1074 0.931 . S
H1061 C1076 0.930 . S
C1062 H1050 0.930 . S
C1062 C1063 1.399 . S
C1062 C1067 1.399 . S
C1063 C1062 1.399 . S
C1063 C1064 1.376 . S
C1064 H1051 0.930 . S
C1064 C1063 1.376 . S
C1064 C1065 1.388 . S
C1065 H1052 0.930 . S
C1065 C1064 1.388 . S
C1065 C1066 1.390 . S
C1066 C1065 1.390 . S
C1066 C1067 1.394 . S
C1066 C1072 1.465 . S
C1067 C1062 1.399 . S
C1067 C1066 1.394 . S
C1067 C1068 1.516 . S
C1068 C1067 1.516 . S
C1068 C1069 1.502 . S
C1068 C1070 1.561 . S
C1068 C1071 1.526 . S
C1069 H1053 0.959 . S
C1069 H1054 0.959 . S
C1069 H1055 0.961 . S
C1069 C1068 1.502 . S
C1070 H1056 0.960 . S
C1070 H1057 0.961 . S
C1070 H1058 0.959 . S
C1070 C1068 1.561 . S
C1071 C1068 1.526 . S
C1071 C1072 1.396 . S
C1071 C1076 1.390 . S
C1072 C1066 1.465 . S
C1072 C1071 1.396 . S
C1072 C1073 1.399 . S
C1073 H1059 0.929 . S
C1073 C1072 1.399 . S
C1073 C1074 1.385 . S
C1074 H1060 0.931 . S
C1074 C1073 1.385 . S
C1074 C1075 1.389 . S
C1075 C1074 1.389 . S
C1075 C1076 1.387 . S
C1076 H1061 0.930 . S
C1076 C1071 1.390 . S
C1076 C1075 1.387 . S
H1077 C1089 0.930 . S
H1078 C1091 0.930 . S
H1079 C1092 0.930 . S
H1080 C1096 0.959 . S
H1081 C1096 0.959 . S
H1082 C1096 0.961 . S
H1083 C1097 0.960 . S
H1084 C1097 0.961 . S
H1085 C1097 0.959 . S
H1086 C1100 0.929 . S
H1087 C1101 0.931 . S
H1088 C1103 0.930 . S
C1089 H1077 0.930 . S
C1089 C1090 1.399 . S
C1089 C1094 1.399 . S
C1090 C1089 1.399 . S
C1090 C1091 1.376 . S
C1091 H1078 0.930 . S
C1091 C1090 1.376 . S
C1091 C1092 1.388 . S
C1092 H1079 0.930 . S
C1092 C1091 1.388 . S
C1092 C1093 1.390 . S
C1093 C1092 1.390 . S
C1093 C1094 1.394 . S
C1093 C1099 1.465 . S
C1094 C1089 1.399 . S
C1094 C1093 1.394 . S
C1094 C1095 1.516 . S
C1095 C1094 1.516 . S
C1095 C1096 1.502 . S
C1095 C1097 1.561 . S
C1095 C1098 1.526 . S
C1096 H1080 0.959 . S
C1096 H1081 0.959 . S
C1096 H1082 0.961 . S
C1096 C1095 1.502 . S
C1097 H1083 0.960 . S
C1097 H1084 0.961 . S
C1097 H1085 0.959 . S
C1097 C1095 1.561 . S
C1098 C1095 1.526 . S
C1098 C1099 1.396 . S
C1098 C1103 1.390 . S
C1099 C1093 1.465 . S
C1099 C1098 1.396 . S
C1099 C1100 1.399 . S
C1100 H1086 0.929 . S
C1100 C1099 1.399 . S
C1100 C1101 1.385 . S
C1101 H1087 0.931 . S
C1101 C1100 1.385 . S
C1101 C1102 1.389 . S
C1102 C1101 1.389 . S
C1102 C1103 1.387 . S
C1103 H1088 0.930 . S
C1103 C1098 1.390 . S
C1103 C1102 1.387 . S
H1104 C1116 0.930 . S
H1105 C1118 0.930 . S
H1106 C1119 0.930 . S
H1107 C1123 0.959 . S
H1108 C1123 0.959 . S
H1109 C1123 0.961 . S
H1110 C1124 0.960 . S
H1111 C1124 0.961 . S
H1112 C1124 0.959 . S
H1113 C1127 0.929 . S
H1114 C1128 0.931 . S
H1115 C1130 0.930 . S
C1116 H1104 0.930 . S
C1116 C1117 1.399 . S
C1116 C1121 1.399 . S
C1117 C1116 1.399 . S
C1117 C1118 1.376 . S
C1118 H1105 0.930 . S
C1118 C1117 1.376 . S
C1118 C1119 1.388 . S
C1119 H1106 0.930 . S
C1119 C1118 1.388 . S
C1119 C1120 1.390 . S
C1120 C1119 1.390 . S
C1120 C1121 1.394 . S
C1120 C1126 1.465 1_455 S
C1121 C1116 1.399 . S
C1121 C1120 1.394 . S
C1121 C1122 1.516 . S
C1122 C1121 1.516 . S
C1122 C1123 1.502 1_455 S
C1122 C1124 1.561 . S
C1122 C1125 1.526 1_455 S
C1123 H1107 0.959 . S
C1123 H1108 0.959 . S
C1123 H1109 0.961 . S
C1123 C1122 1.502 1_655 S
C1124 H1110 0.960 . S
C1124 H1111 0.961 . S
C1124 H1112 0.959 . S
C1124 C1122 1.561 . S
C1125 C1122 1.526 1_655 S
C1125 C1126 1.396 . S
C1125 C1130 1.390 . S
C1126 C1120 1.465 1_655 S
C1126 C1125 1.396 . S
C1126 C1127 1.399 . S
C1127 H1113 0.929 . S
C1127 C1126 1.399 . S
C1127 C1128 1.385 . S
C1128 H1114 0.931 . S
C1128 C1127 1.385 . S
C1128 C1129 1.389 . S
C1129 C1128 1.389 . S
C1129 C1130 1.387 . S
C1130 H1115 0.930 . S
C1130 C1125 1.390 . S
C1130 C1129 1.387 . S
H1131 C1143 0.930 . S
H1132 C1145 0.930 . S
H1133 C1146 0.930 . S
H1134 C1150 0.959 1_455 S
H1135 C1150 0.959 . S
H1136 C1150 0.961 . S
H1137 C1151 0.960 . S
H1138 C1151 0.961 . S
H1139 C1151 0.959 . S
H1140 C1154 0.929 . S
H1141 C1155 0.931 . S
H1142 C1157 0.930 1_655 S
C1143 H1131 0.930 . S
C1143 C1144 1.399 . S
C1143 C1148 1.399 . S
C1144 C1143 1.399 . S
C1144 C1145 1.376 . S
C1145 H1132 0.930 . S
C1145 C1144 1.376 . S
C1145 C1146 1.388 1_655 S
C1146 H1133 0.930 . S
C1146 C1145 1.388 1_455 S
C1146 C1147 1.390 1_455 S
C1147 C1146 1.390 1_655 S
C1147 C1148 1.394 . S
C1147 C1153 1.465 1_655 S
C1148 C1143 1.399 . S
C1148 C1147 1.394 . S
C1148 C1149 1.516 . S
C1149 C1148 1.516 . S
C1149 C1150 1.502 . S
C1149 C1151 1.561 . S
C1149 C1152 1.526 . S
C1150 H1134 0.959 1_655 S
C1150 H1135 0.959 . S
C1150 H1136 0.961 . S
C1150 C1149 1.502 . S
C1151 H1137 0.960 . S
C1151 H1138 0.961 . S
C1151 H1139 0.959 . S
C1151 C1149 1.561 . S
C1152 C1149 1.526 . S
C1152 C1153 1.396 1_655 S
C1152 C1157 1.390 1_655 S
C1153 C1147 1.465 1_455 S
C1153 C1152 1.396 1_455 S
C1153 C1154 1.399 . S
C1154 H1140 0.929 . S
C1154 C1153 1.399 . S
C1154 C1155 1.385 . S
C1155 H1141 0.931 . S
C1155 C1154 1.385 . S
C1155 C1156 1.389 . S
C1156 C1155 1.389 . S
C1156 C1157 1.387 . S
C1157 H1142 0.930 1_455 S
C1157 C1152 1.390 1_455 S
C1157 C1156 1.387 . S
H1158 C1170 0.927 1_455 S
H1159 C1172 0.930 . S
H1160 C1173 0.930 . S
H1161 C1177 0.959 . S
H1162 C1177 0.959 . S
H1163 C1177 0.961 . S
H1164 C1178 0.960 . S
H1165 C1178 0.961 . S
H1166 C1178 0.959 . S
H1167 C1181 0.929 . S
H1168 C1182 0.931 . S
H1169 C1184 0.930 . S
C1170 H1158 0.927 1_655 S
C1170 C1171 1.399 . S
C1170 C1175 1.399 . S
C1171 C1170 1.399 . S
C1171 C1172 1.376 . S
C1172 H1159 0.930 . S
C1172 C1171 1.376 . S
C1172 C1173 1.388 . S
C1173 H1160 0.930 . S
C1173 C1172 1.388 . S
C1173 C1174 1.390 . S
C1174 C1173 1.390 . S
C1174 C1175 1.394 . S
C1174 C1180 1.465 . S
C1175 C1170 1.399 . S
C1175 C1174 1.394 . S
C1175 C1176 1.516 1_655 S
C1176 C1175 1.516 1_455 S
C1176 C1177 1.502 . S
C1176 C1178 1.561 1_455 S
C1176 C1179 1.526 . S
C1177 H1161 0.959 . S
C1177 H1162 0.959 . S
C1177 H1163 0.961 . S
C1177 C1176 1.502 . S
C1178 H1164 0.960 . S
C1178 H1165 0.961 . S
C1178 H1166 0.959 . S
C1178 C1176 1.561 1_655 S
C1179 C1176 1.526 . S
C1179 C1180 1.396 1_455 S
C1179 C1184 1.390 . S
C1180 C1174 1.465 . S
C1180 C1179 1.396 1_655 S
C1180 C1181 1.399 . S
C1181 H1167 0.929 . S
C1181 C1180 1.399 . S
C1181 C1182 1.385 1_655 S
C1182 H1168 0.931 . S
C1182 C1181 1.385 1_455 S
C1182 C1183 1.389 . S
C1183 C1182 1.389 . S
C1183 C1184 1.387 . S
C1184 H1169 0.930 . S
C1184 C1179 1.390 . S
C1184 C1183 1.387 . S
H1185 C1197 0.930 . S
H1186 C1199 0.930 . S
H1187 C1200 0.930 . S
H1188 C1204 0.959 . S
H1189 C1204 0.959 . S
H1190 C1204 0.961 . S
H1191 C1205 0.960 . S
H1192 C1205 0.961 . S
H1193 C1205 0.959 . S
H1194 C1208 0.929 . S
H1195 C1209 0.931 . S
H1196 C1211 0.930 . S
C1197 H1185 0.930 . S
C1197 C1198 1.399 . S
C1197 C1202 1.399 . S
C1198 C1197 1.399 . S
C1198 C1199 1.376 . S
C1199 H1186 0.930 . S
C1199 C1198 1.376 . S
C1199 C1200 1.388 . S
C1200 H1187 0.930 . S
C1200 C1199 1.388 . S
C1200 C1201 1.390 . S
C1201 C1200 1.390 . S
C1201 C1202 1.394 . S
C1201 C1207 1.465 1_655 S
C1202 C1197 1.399 . S
C1202 C1201 1.394 . S
C1202 C1203 1.516 . S
C1203 C1202 1.516 . S
C1203 C1204 1.502 1_655 S
C1203 C1205 1.561 . S
C1203 C1206 1.526 1_655 S
C1204 H1188 0.959 . S
C1204 H1189 0.959 . S
C1204 H1190 0.961 . S
C1204 C1203 1.502 1_455 S
C1205 H1191 0.960 . S
C1205 H1192 0.961 . S
C1205 H1193 0.959 . S
C1205 C1203 1.561 . S
C1206 C1203 1.526 1_455 S
C1206 C1207 1.396 . S
C1206 C1211 1.390 . S
C1207 C1201 1.465 1_455 S
C1207 C1206 1.396 . S
C1207 C1208 1.399 . S
C1208 H1194 0.929 . S
C1208 C1207 1.399 . S
C1208 C1209 1.385 . S
C1209 H1195 0.931 . S
C1209 C1208 1.385 . S
C1209 C1210 1.389 . S
C1210 C1209 1.389 . S
C1210 C1211 1.387 . S
C1211 H1196 0.930 . S
C1211 C1206 1.390 . S
C1211 C1210 1.387 . S
H1212 C1224 0.930 . S
H1213 C1226 0.930 . S
H1214 C1227 0.930 . S
H1215 C1231 0.959 . S
H1216 C1231 0.959 . S
H1217 C1231 0.961 . S
H1218 C1232 0.960 . S
H1219 C1232 0.961 . S
H1220 C1232 0.959 . S
H1221 C1235 0.929 . S
H1222 C1236 0.931 . S
H1223 C1238 0.930 . S
C1224 H1212 0.930 . S
C1224 C1225 1.399 . S
C1224 C1229 1.399 . S
C1225 C1224 1.399 . S
C1225 C1226 1.376 . S
C1226 H1213 0.930 . S
C1226 C1225 1.376 . S
C1226 C1227 1.388 . S
C1227 H1214 0.930 . S
C1227 C1226 1.388 . S
C1227 C1228 1.390 . S
C1228 C1227 1.390 . S
C1228 C1229 1.394 . S
C1228 C1234 1.465 . S
C1229 C1224 1.399 . S
C1229 C1228 1.394 . S
C1229 C1230 1.516 . S
C1230 C1229 1.516 . S
C1230 C1231 1.502 . S
C1230 C1232 1.561 . S
C1230 C1233 1.526 . S
C1231 H1215 0.959 . S
C1231 H1216 0.959 . S
C1231 H1217 0.961 . S
C1231 C1230 1.502 . S
C1232 H1218 0.960 . S
C1232 H1219 0.961 . S
C1232 H1220 0.959 . S
C1232 C1230 1.561 . S
C1233 C1230 1.526 . S
C1233 C1234 1.396 . S
C1233 C1238 1.390 . S
C1234 C1228 1.465 . S
C1234 C1233 1.396 . S
C1234 C1235 1.399 . S
C1235 H1221 0.929 . S
C1235 C1234 1.399 . S
C1235 C1236 1.385 . S
C1236 H1222 0.931 . S
C1236 C1235 1.385 . S
C1236 C1237 1.389 . S
C1237 C1236 1.389 . S
C1237 C1238 1.387 . S
C1238 H1223 0.930 . S
C1238 C1233 1.390 . S
C1238 C1237 1.387 . S
H1239 C1251 0.930 . S
H1240 C1253 0.930 . S
H1241 C1254 0.930 . S
H1242 C1258 0.959 . S
H1243 C1258 0.959 . S
H1244 C1258 0.961 . S
H1245 C1259 0.960 . S
H1246 C1259 0.961 . S
H1247 C1259 0.959 . S
H1248 C1262 0.929 . S
H1249 C1263 0.931 . S
H1250 C1265 0.930 . S
C1251 H1239 0.930 . S
C1251 C1252 1.399 . S
C1251 C1256 1.399 . S
C1252 C1251 1.399 . S
C1252 C1253 1.376 . S
C1253 H1240 0.930 . S
C1253 C1252 1.376 . S
C1253 C1254 1.388 . S
C1254 H1241 0.930 . S
C1254 C1253 1.388 . S
C1254 C1255 1.390 . S
C1255 C1254 1.390 . S
C1255 C1256 1.394 . S
C1255 C1261 1.465 . S
C1256 C1251 1.399 . S
C1256 C1255 1.394 . S
C1256 C1257 1.516 . S
C1257 C1256 1.516 . S
C1257 C1258 1.502 . S
C1257 C1259 1.561 . S
C1257 C1260 1.526 . S
C1258 H1242 0.959 . S
C1258 H1243 0.959 . S
C1258 H1244 0.961 . S
C1258 C1257 1.502 . S
C1259 H1245 0.960 . S
C1259 H1246 0.961 . S
C1259 H1247 0.959 . S
C1259 C1257 1.561 . S
C1260 C1257 1.526 . S
C1260 C1261 1.396 . S
C1260 C1265 1.390 . S
C1261 C1255 1.465 . S
C1261 C1260 1.396 . S
C1261 C1262 1.399 . S
C1262 H1248 0.929 . S
C1262 C1261 1.399 . S
C1262 C1263 1.385 . S
C1263 H1249 0.931 . S
C1263 C1262 1.385 . S
C1263 C1264 1.389 . S
C1264 C1263 1.389 . S
C1264 C1265 1.387 . S
C1265 H1250 0.930 . S
C1265 C1260 1.390 . S
C1265 C1264 1.387 . S
H1266 C1278 0.930 . S
H1267 C1280 0.930 . S
H1268 C1281 0.930 . S
H1269 C1285 0.959 . S
H1270 C1285 0.959 . S
H1271 C1285 0.961 . S
H1272 C1286 0.960 . S
H1273 C1286 0.961 . S
H1274 C1286 0.959 . S
H1275 C1289 0.929 . S
H1276 C1290 0.931 . S
H1277 C1292 0.930 . S
C1278 H1266 0.930 . S
C1278 C1279 1.399 . S
C1278 C1283 1.399 . S
C1279 C1278 1.399 . S
C1279 C1280 1.376 . S
C1280 H1267 0.930 . S
C1280 C1279 1.376 . S
C1280 C1281 1.388 . S
C1281 H1268 0.930 . S
C1281 C1280 1.388 . S
C1281 C1282 1.390 . S
C1282 C1281 1.390 . S
C1282 C1283 1.394 . S
C1282 C1288 1.465 . S
C1283 C1278 1.399 . S
C1283 C1282 1.394 . S
C1283 C1284 1.516 . S
C1284 C1283 1.516 . S
C1284 C1285 1.502 . S
C1284 C1286 1.561 . S
C1284 C1287 1.526 . S
C1285 H1269 0.959 . S
C1285 H1270 0.959 . S
C1285 H1271 0.961 . S
C1285 C1284 1.502 . S
C1286 H1272 0.960 . S
C1286 H1273 0.961 . S
C1286 H1274 0.959 . S
C1286 C1284 1.561 . S
C1287 C1284 1.526 . S
C1287 C1288 1.396 . S
C1287 C1292 1.390 . S
C1288 C1282 1.465 . S
C1288 C1287 1.396 . S
C1288 C1289 1.399 . S
C1289 H1275 0.929 . S
C1289 C1288 1.399 . S
C1289 C1290 1.385 . S
C1290 H1276 0.931 . S
C1290 C1289 1.385 . S
C1290 C1291 1.389 . S
C1291 C1290 1.389 . S
C1291 C1292 1.387 . S
C1292 H1277 0.930 . S
C1292 C1287 1.390 . S
C1292 C1291 1.387 . S
H1293 C1305 0.930 . S
H1294 C1307 0.930 . S
H1295 C1308 0.930 . S
H1296 C1312 0.959 . S
H1297 C1312 0.959 . S
H1298 C1312 0.961 . S
H1299 C1313 0.960 . S
H1300 C1313 0.961 . S
H1301 C1313 0.959 . S
H1302 C1316 0.929 . S
H1303 C1317 0.931 . S
H1304 C1319 0.930 . S
C1305 H1293 0.930 . S
C1305 C1306 1.399 . S
C1305 C1310 1.399 . S
C1306 C1305 1.399 . S
C1306 C1307 1.376 . S
C1307 H1294 0.930 . S
C1307 C1306 1.376 . S
C1307 C1308 1.388 . S
C1308 H1295 0.930 . S
C1308 C1307 1.388 . S
C1308 C1309 1.390 . S
C1309 C1308 1.390 . S
C1309 C1310 1.394 . S
C1309 C1315 1.465 . S
C1310 C1305 1.399 . S
C1310 C1309 1.394 . S
C1310 C1311 1.516 . S
C1311 C1310 1.516 . S
C1311 C1312 1.502 . S
C1311 C1313 1.561 . S
C1311 C1314 1.526 . S
C1312 H1296 0.959 . S
C1312 H1297 0.959 . S
C1312 H1298 0.961 . S
C1312 C1311 1.502 . S
C1313 H1299 0.960 . S
C1313 H1300 0.961 . S
C1313 H1301 0.959 . S
C1313 C1311 1.561 . S
C1314 C1311 1.526 . S
C1314 C1315 1.396 . S
C1314 C1319 1.390 . S
C1315 C1309 1.465 . S
C1315 C1314 1.396 . S
C1315 C1316 1.399 . S
C1316 H1302 0.929 . S
C1316 C1315 1.399 . S
C1316 C1317 1.385 . S
C1317 H1303 0.931 . S
C1317 C1316 1.385 . S
C1317 C1318 1.389 . S
C1318 C1317 1.389 . S
C1318 C1319 1.387 . S
C1319 H1304 0.930 . S
C1319 C1314 1.390 . S
C1319 C1318 1.387 . S
C685 C55 1.965 . S
C697 C67 1.938 . S
C712 C139 1.937 . S
C724 C151 1.963 . S
C739 C235 1.945 . S
C751 C223 1.953 . S
C766 C319 1.953 . S
C778 C307 1.953 . S
C793 C391 1.964 . S
C805 C403 1.939 . S
C820 C487 1.953 . S
C832 C475 1.953 . S
C847 C571 1.938 . S
C859 C559 1.961 . S
C874 C643 1.937 . S
C886 C655 1.963 . S
C901 C142 1.972 1_554 S
C913 C70 1.881 . S
C928 C310 1.882 . S
C940 C238 1.980 . S
C955 C406 1.951 . S
C967 C478 1.892 1_554 S
C982 C574 1.912 . S
C994 C646 1.962 . S
C1009 C58 1.480 1_554 S
C1021 C490 1.377 . S
C1036 C394 1.386 1_554 S
C1048 C154 1.489 . S
C1063 C226 1.393 . S
C1075 C658 1.485 . S
C1090 C322 1.399 . S
C1102 C562 1.481 . S
C1117 C68 1.531 . S
C1129 C320 1.588 . S
C1144 C152 1.589 . S
C1156 C236 1.527 . S
C1171 C140 1.570 . S
C1183 C224 1.552 . S
C1198 C308 1.565 . S
C1210 C56 1.552 . S
C1225 C404 1.542 . S
C1237 C656 1.587 . S
C1252 C488 1.552 . S
C1264 C572 1.561 . S
C1279 C476 1.522 . S
C1291 C560 1.569 . S
C1306 C644 1.540 . S
C1318 C392 1.559 . S
