# Generated by pormake.
# Topology wme, (6)-cn, num edge types: 1
# Building blocks:
#     Node 0, Type 0, BuildingBlock: VOLQOD_clean_sbu_1, # of connection points: 6
#     Node 1, Type 0, BuildingBlock: VOLQOD_clean_sbu_1, # of connection points: 6
#     Node 2, Type 0, BuildingBlock: VOLQOD_clean_sbu_1, # of connection points: 6
#     Node 3, Type 0, BuildingBlock: VOLQOD_clean_sbu_1, # of connection points: 6
#     Node 4, Type 0, BuildingBlock: VOLQOD_clean_sbu_1, # of connection points: 6
#     Node 5, Type 0, BuildingBlock: VOLQOD_clean_sbu_1, # of connection points: 6
#     Node 6, Type 0, BuildingBlock: VOLQOD_clean_sbu_1, # of connection points: 6
#     Node 7, Type 0, BuildingBlock: VOLQOD_clean_sbu_1, # of connection points: 6
#     Node 8, Type 0, BuildingBlock: VOLQOD_clean_sbu_1, # of connection points: 6
#     Node 9, Type 0, BuildingBlock: VOLQOD_clean_sbu_1, # of connection points: 6
#     Node 10, Type 0, BuildingBlock: VOLQOD_clean_sbu_1, # of connection points: 6
#     Node 11, Type 0, BuildingBlock: VOLQOD_clean_sbu_1, # of connection points: 6
#     Edge 12, Type (0, 0), BuildingBlock: EYOCIG_clean_linker_4, # of connection points: 2
#     Edge 13, Type (0, 0), BuildingBlock: EYOCIG_clean_linker_4, # of connection points: 2
#     Edge 14, Type (0, 0), BuildingBlock: EYOCIG_clean_linker_4, # of connection points: 2
#     Edge 15, Type (0, 0), BuildingBlock: EYOCIG_clean_linker_4, # of connection points: 2
#     Edge 16, Type (0, 0), BuildingBlock: EYOCIG_clean_linker_4, # of connection points: 2
#     Edge 17, Type (0, 0), BuildingBlock: EYOCIG_clean_linker_4, # of connection points: 2
#     Edge 18, Type (0, 0), BuildingBlock: EYOCIG_clean_linker_4, # of connection points: 2
#     Edge 19, Type (0, 0), BuildingBlock: EYOCIG_clean_linker_4, # of connection points: 2
#     Edge 20, Type (0, 0), BuildingBlock: EYOCIG_clean_linker_4, # of connection points: 2
#     Edge 21, Type (0, 0), BuildingBlock: EYOCIG_clean_linker_4, # of connection points: 2
#     Edge 22, Type (0, 0), BuildingBlock: EYOCIG_clean_linker_4, # of connection points: 2
#     Edge 23, Type (0, 0), BuildingBlock: EYOCIG_clean_linker_4, # of connection points: 2
#     Edge 24, Type (0, 0), BuildingBlock: EYOCIG_clean_linker_4, # of connection points: 2
#     Edge 25, Type (0, 0), BuildingBlock: EYOCIG_clean_linker_4, # of connection points: 2
#     Edge 26, Type (0, 0), BuildingBlock: EYOCIG_clean_linker_4, # of connection points: 2
#     Edge 27, Type (0, 0), BuildingBlock: EYOCIG_clean_linker_4, # of connection points: 2
#     Edge 28, Type (0, 0), BuildingBlock: EYOCIG_clean_linker_4, # of connection points: 2
#     Edge 29, Type (0, 0), BuildingBlock: EYOCIG_clean_linker_4, # of connection points: 2
#     Edge 30, Type (0, 0), BuildingBlock: EYOCIG_clean_linker_4, # of connection points: 2
#     Edge 31, Type (0, 0), BuildingBlock: EYOCIG_clean_linker_4, # of connection points: 2
#     Edge 32, Type (0, 0), BuildingBlock: EYOCIG_clean_linker_4, # of connection points: 2
#     Edge 33, Type (0, 0), BuildingBlock: EYOCIG_clean_linker_4, # of connection points: 2
#     Edge 34, Type (0, 0), BuildingBlock: EYOCIG_clean_linker_4, # of connection points: 2
#     Edge 35, Type (0, 0), BuildingBlock: EYOCIG_clean_linker_4, # of connection points: 2
#     Edge 36, Type (0, 0), BuildingBlock: EYOCIG_clean_linker_4, # of connection points: 2
#     Edge 37, Type (0, 0), BuildingBlock: EYOCIG_clean_linker_4, # of connection points: 2
#     Edge 38, Type (0, 0), BuildingBlock: EYOCIG_clean_linker_4, # of connection points: 2
#     Edge 39, Type (0, 0), BuildingBlock: EYOCIG_clean_linker_4, # of connection points: 2
#     Edge 40, Type (0, 0), BuildingBlock: EYOCIG_clean_linker_4, # of connection points: 2
#     Edge 41, Type (0, 0), BuildingBlock: EYOCIG_clean_linker_4, # of connection points: 2
#     Edge 42, Type (0, 0), BuildingBlock: EYOCIG_clean_linker_4, # of connection points: 2
#     Edge 43, Type (0, 0), BuildingBlock: EYOCIG_clean_linker_4, # of connection points: 2
#     Edge 44, Type (0, 0), BuildingBlock: EYOCIG_clean_linker_4, # of connection points: 2
#     Edge 45, Type (0, 0), BuildingBlock: EYOCIG_clean_linker_4, # of connection points: 2
#     Edge 46, Type (0, 0), BuildingBlock: EYOCIG_clean_linker_4, # of connection points: 2
#     Edge 47, Type (0, 0), BuildingBlock: EYOCIG_clean_linker_4, # of connection points: 2
# Relax obj value: 0.332
# Max RMSD: 0.236
# Mean RMSD: 0.236
data_MOF--net-wme--node1-VOLQOD_clean_sbu_1--edge1-EYOCIG_clean_linker_4
_symmetry_space_group_name_H-M    P1
_symmetry_Int_Tables_number       1
_symmetry_cell_setting            triclinic
loop_
_symmetry_equiv_pos_as_xyz
'x, y, z'
_cell_length_a     26.913879
_cell_length_b     26.905883
_cell_length_c     52.91078
_cell_angle_alpha  89.995843
_cell_angle_beta   89.991774
_cell_angle_gamma 119.99988
loop_
_atom_site_label
_atom_site_type_symbol
_atom_site_fract_x
_atom_site_fract_y
_atom_site_fract_z
_atom_type_partial_charge
O0 O 0.09839 0.3678 0.08257 0.0
Zn1 Zn 0.10283 0.29414 0.08245 0.0
O2 O 0.15009 0.29439 0.11085 0.0
Zn3 Zn 0.21866 0.29512 0.09871 0.0
Zn4 Zn 0.17288 0.36119 0.13173 0.0
Zn5 Zn 0.1077 0.22638 0.13123 0.0
O6 O 0.2269 0.22961 0.11253 0.0
O7 O 0.13626 0.17178 0.12427 0.0
O8 O 0.13117 0.2775 0.04897 0.0
O9 O 0.21003 0.27779 0.06196 0.0
O10 O 0.28924 0.37327 0.10266 0.0
O11 O 0.25566 0.42013 0.12514 0.0
O12 O 0.158 0.34049 0.16877 0.0
O13 O 0.02015 0.2322 0.08802 0.0
O14 O 0.1136 0.24501 0.16835 0.0
O15 O 0.02427 0.18803 0.12287 0.0
C16 C 0.10463 0.40057 0.10122 0.0
C17 C 0.18581 0.18022 0.11857 0.0
C18 C 0.29601 0.41879 0.11318 0.0
C19 C 0.17461 0.27143 0.04472 0.0
C20 C 0.13366 0.29237 0.18016 0.0
C21 C -0.004 0.19479 0.10533 0.0
O22 O 0.12799 0.39883 0.12182 0.0
O23 O 0.69466 0.11624 0.58234 0.0
Zn24 Zn 0.77251 0.12022 0.5823 0.0
O25 O 0.81951 0.16741 0.61071 0.0
Zn26 Zn 0.88752 0.23589 0.59864 0.0
Zn27 Zn 0.77568 0.19041 0.63158 0.0
Zn28 Zn 0.84484 0.12479 0.63108 0.0
O29 O -0.03897 0.24388 0.61257 0.0
O30 O 0.92792 0.15309 0.62418 0.0
O31 O 0.81774 0.14839 0.54887 0.0
O32 O 0.89637 0.22716 0.56192 0.0
O33 O 0.88024 0.30666 0.60255 0.0
O34 O 0.79984 0.27329 0.62503 0.0
O35 O 0.78128 0.17538 0.66859 0.0
O36 O 0.75127 0.03738 0.58792 0.0
O37 O 0.83209 0.13072 0.66817 0.0
O38 O 0.79953 0.04136 0.62274 0.0
C39 C 0.66817 0.12255 0.60099 0.0
C40 C -0.03085 0.20265 0.61857 0.0
C41 C 0.8416 0.31358 0.61308 0.0
C42 C 0.86736 0.19174 0.54467 0.0
C43 C 0.8049 0.15088 0.67998 0.0
C44 C 0.7644 0.01314 0.60523 0.0
O45 O 0.69322 0.14578 0.62161 0.0
O46 O 0.54347 0.71241 0.08213 0.0
Zn47 Zn 0.61717 0.79053 0.08212 0.0
O48 O 0.61687 0.83723 0.11064 0.0
Zn49 Zn 0.61628 0.90531 0.09874 0.0
Zn50 Zn 0.55005 0.79304 0.13146 0.0
Zn51 Zn 0.68472 0.86249 0.13104 0.0
O52 O 0.6817 -0.02116 0.11279 0.0
O53 O 0.73937 0.94566 0.12427 0.0
O54 O 0.63393 0.83599 0.04877 0.0
O55 O 0.63394 0.91457 0.06202 0.0
O56 O 0.53804 0.89757 0.1026 0.0
O57 O 0.49106 0.81674 0.12482 0.0
O58 O 0.5705 0.79869 0.16851 0.0
O59 O 0.67913 0.76974 0.08755 0.0
O60 O 0.66596 0.84946 0.16813 0.0
O61 O 0.72305 0.81752 0.12252 0.0
C62 C 0.5108 0.68571 0.10079 0.0
C63 C 0.73104 -0.01307 0.11876 0.0
C64 C 0.49243 0.85855 0.11295 0.0
C65 C 0.64024 0.88567 0.04468 0.0
C66 C 0.61858 0.82227 0.17992 0.0
C67 C 0.71644 0.78278 0.10487 0.0
O68 O 0.51261 0.71061 0.12146 0.0
O69 O 0.79555 0.56109 0.58221 0.0
Zn70 Zn 0.79106 0.63472 0.58215 0.0
O71 O 0.74401 0.63452 0.61063 0.0
Zn72 Zn 0.67536 0.63378 0.59863 0.0
Zn73 Zn 0.72141 0.56775 0.63151 0.0
Zn74 Zn 0.78649 0.70253 0.63097 0.0
O75 O 0.66702 0.69911 0.6126 0.0
O76 O 0.75772 0.75702 0.62421 0.0
O77 O 0.76248 0.65129 0.54874 0.0
O78 O 0.68383 0.65124 0.56189 0.0
O79 O 0.60492 0.55557 0.60256 0.0
O80 O 0.63865 0.50876 0.62498 0.0
O81 O 0.73645 0.58843 0.66853 0.0
O82 O 0.87373 0.6967 0.58759 0.0
O83 O 0.78097 0.68391 0.66807 0.0
O84 O 0.8698 0.74098 0.62243 0.0
C85 C 0.7895 0.5284 0.60088 0.0
C86 C 0.70809 0.7485 0.61865 0.0
C87 C 0.59826 0.51006 0.61305 0.0
C88 C 0.71909 0.65749 0.54458 0.0
C89 C 0.76094 0.63658 0.6799 0.0
C90 C 0.89796 0.7342 0.60485 0.0
O91 O 0.76631 0.53019 0.62152 0.0
O92 O 0.19878 0.8122 0.0818 0.0
Zn93 Zn 0.12091 0.80828 0.08195 0.0
O94 O 0.0743 0.76142 0.11054 0.0
Zn95 Zn 0.00612 0.69281 0.09868 0.0
Zn96 Zn 0.11842 0.73867 0.13135 0.0
Zn97 Zn 0.04933 0.80426 0.13096 0.0
O98 O 0.9328 0.68517 0.1127 0.0
O99 O -0.03376 0.77612 0.12414 0.0
O100 O 0.07518 0.77974 0.04865 0.0
O101 O -0.00321 0.70103 0.06194 0.0
O102 O 0.01338 0.62203 0.10273 0.0
O103 O 0.09415 0.65574 0.12496 0.0
O104 O 0.11332 0.75405 0.16838 0.0
O105 O 0.14224 0.8912 0.08743 0.0
O106 O 0.06237 0.79855 0.16806 0.0
O107 O 0.09467 0.88759 0.12245 0.0
C108 C 0.2255 0.80608 0.10041 0.0
C109 C 0.92489 0.72658 0.11861 0.0
C110 C 0.0522 0.61527 0.11318 0.0
C111 C 0.02554 0.7363 0.04459 0.0
C112 C 0.08976 0.77854 0.17982 0.0
C113 C 0.12946 0.91562 0.10479 0.0
O114 O 0.20071 0.78313 0.12112 0.0
O115 O 0.35057 0.2166 0.58207 0.0
Zn116 Zn 0.27674 0.13868 0.58211 0.0
O117 O 0.27696 0.09185 0.6106 0.0
Zn118 Zn 0.27758 0.02385 0.59862 0.0
Zn119 Zn 0.34368 0.13593 0.63147 0.0
Zn120 Zn 0.20902 0.06649 0.63095 0.0
O121 O 0.21206 0.95029 0.61256 0.0
O122 O 0.15433 -0.01658 0.62403 0.0
O123 O 0.25978 0.09331 0.54875 0.0
O124 O 0.26013 0.01483 0.56188 0.0
O125 O 0.35568 0.03135 0.60263 0.0
O126 O 0.4025 0.11193 0.62502 0.0
O127 O 0.323 0.13036 0.66849 0.0
O128 O 0.21501 0.15975 0.58763 0.0
O129 O 0.22756 0.07919 0.66805 0.0
O130 O 0.17085 0.11166 0.62252 0.0
C131 C 0.38332 0.24324 0.60071 0.0
C132 C 0.16269 0.94218 0.61848 0.0
C133 C 0.40116 0.07015 0.61314 0.0
C134 C 0.25366 0.04374 0.5446 0.0
C135 C 0.27488 0.10654 0.67986 0.0
C136 C 0.17764 0.14662 0.60494 0.0
O137 O 0.38142 0.21833 0.6214 0.0
O138 O 0.54343 0.81319 0.4023 0.0
Zn139 Zn 0.61713 0.80886 0.40225 0.0
O140 O 0.61688 0.76199 0.37369 0.0
Zn141 Zn 0.61632 0.6933 0.38553 0.0
Zn142 Zn 0.55006 0.73939 0.35289 0.0
Zn143 Zn 0.68474 0.80474 0.3533 0.0
O144 O 0.68192 0.68545 0.3715 0.0
O145 O 0.73953 0.7764 0.36009 0.0
O146 O 0.63383 0.78006 0.43556 0.0
O147 O 0.63377 0.70148 0.42226 0.0
O148 O 0.53816 0.6227 0.38157 0.0
O149 O 0.49109 0.65665 0.35949 0.0
O150 O 0.57054 0.75424 0.31584 0.0
O151 O 0.67899 0.89168 0.39686 0.0
O152 O 0.666 0.79894 0.31621 0.0
O153 O 0.72286 0.88806 0.36182 0.0
C154 C 0.51081 0.80735 0.38365 0.0
C155 C 0.73126 0.7268 0.36557 0.0
C156 C 0.49252 0.61613 0.37126 0.0
C157 C 0.64005 0.73663 0.43962 0.0
C158 C 0.61862 0.77873 0.30443 0.0
C159 C 0.71622 0.91608 0.37951 0.0
O160 O 0.51265 0.78437 0.36294 0.0
O161 O 0.69419 0.56031 0.90201 0.0
Zn162 Zn 0.7721 0.63417 0.90213 0.0
O163 O 0.81909 0.63419 0.87367 0.0
Zn164 Zn 0.88701 0.63353 0.88569 0.0
Zn165 Zn 0.77517 0.56756 0.85271 0.0
Zn166 Zn 0.84449 0.70226 0.85338 0.0
O167 O -0.03941 0.69918 0.87184 0.0
O168 O 0.92751 0.75699 0.86042 0.0
O169 O 0.81731 0.65098 0.93556 0.0
O170 O 0.89588 0.65083 0.92245 0.0
O171 O 0.87952 0.5554 0.88164 0.0
O172 O 0.79903 0.50863 0.85921 0.0
O173 O 0.78111 0.58842 0.81571 0.0
O174 O 0.75094 0.69585 0.89663 0.0
O175 O 0.83208 0.6839 0.81623 0.0
O176 O 0.79907 0.74022 0.86179 0.0
C177 C 0.66764 0.52781 0.88328 0.0
C178 C -0.03129 0.74861 0.86599 0.0
C179 C 0.84075 0.50992 0.87111 0.0
C180 C 0.86689 0.65716 0.93974 0.0
C181 C 0.80492 0.63661 0.80437 0.0
C182 C 0.764 0.73325 0.87934 0.0
O183 O 0.69268 0.52988 0.86262 0.0
O184 O 0.09852 0.71282 0.40207 0.0
Zn185 Zn 0.10283 0.79087 0.40202 0.0
O186 O 0.15017 0.83772 0.37359 0.0
Zn187 Zn 0.21867 0.90571 0.38567 0.0
Zn188 Zn 0.17311 0.79366 0.35283 0.0
Zn189 Zn 0.10779 0.86312 0.35309 0.0
O190 O 0.22685 -0.02068 0.37173 0.0
O191 O 0.13621 0.94628 0.35996 0.0
O192 O 0.13108 0.83609 0.43543 0.0
O193 O 0.20995 0.91462 0.42239 0.0
O194 O 0.28934 0.89832 0.38182 0.0
O195 O 0.2559 0.81774 0.35946 0.0
O196 O 0.15831 0.79918 0.31575 0.0
O197 O 0.02014 0.77007 0.39639 0.0
O198 O 0.11389 0.85022 0.31601 0.0
O199 O 0.02436 0.81807 0.36143 0.0
C200 C 0.10498 0.68624 0.3835 0.0
C201 C 0.18571 -0.01252 0.36564 0.0
C202 C 0.29619 0.85955 0.37138 0.0
C203 C 0.1745 0.88565 0.43964 0.0
C204 C 0.13401 0.82289 0.30428 0.0
C205 C -0.00396 0.78321 0.37902 0.0
O206 O 0.12839 0.71122 0.36288 0.0
O207 O 0.3501 0.11613 0.90207 0.0
Zn208 Zn 0.27639 0.12048 0.90214 0.0
O209 O 0.27645 0.16729 0.87358 0.0
Zn210 Zn 0.27699 0.23596 0.88545 0.0
Zn211 Zn 0.34319 0.18994 0.8527 0.0
Zn212 Zn 0.20851 0.12448 0.85324 0.0
O213 O 0.21143 0.24383 0.87144 0.0
O214 O 0.1538 0.15294 0.85998 0.0
O215 O 0.25981 0.1493 0.93549 0.0
O216 O 0.25959 0.22775 0.9222 0.0
O217 O 0.35509 0.30659 0.8814 0.0
O218 O 0.40205 0.27275 0.85917 0.0
O219 O 0.32257 0.17487 0.81569 0.0
O220 O 0.21448 0.03767 0.89682 0.0
O221 O 0.2271 0.12999 0.81614 0.0
O222 O 0.17032 0.04121 0.86187 0.0
C223 C 0.38272 0.1221 0.88339 0.0
C224 C 0.16211 0.20254 0.86546 0.0
C225 C 0.40064 0.31324 0.87098 0.0
C226 C 0.25346 0.19264 0.93957 0.0
C227 C 0.27445 0.15022 0.80432 0.0
C228 C 0.17708 0.01323 0.87955 0.0
O229 O 0.38083 0.14515 0.86272 0.0
O230 O 0.19901 0.36858 0.40242 0.0
Zn231 Zn 0.12112 0.29465 0.40237 0.0
O232 O 0.07432 0.29484 0.37387 0.0
Zn233 Zn 0.00635 0.29549 0.38585 0.0
Zn234 Zn 0.11841 0.36159 0.35298 0.0
Zn235 Zn 0.04893 0.22685 0.35354 0.0
O236 O 0.93281 0.23011 0.37184 0.0
O237 O -0.03421 0.17222 0.36043 0.0
O238 O 0.07561 0.27747 0.43573 0.0
O239 O -0.00286 0.27774 0.42256 0.0
O240 O 0.01403 0.37371 0.38195 0.0
O241 O 0.09445 0.42048 0.35945 0.0
O242 O 0.11297 0.34088 0.31596 0.0
O243 O 0.14231 0.23301 0.39683 0.0
O244 O 0.06187 0.2454 0.31642 0.0
O245 O 0.09405 0.18864 0.36202 0.0
C246 C 0.22567 0.40129 0.38376 0.0
C247 C 0.92461 0.18068 0.36595 0.0
C248 C 0.05279 0.41919 0.37141 0.0
C249 C 0.02599 0.27121 0.43986 0.0
C250 C 0.08927 0.29273 0.3046 0.0
C251 C 0.12912 0.19555 0.37955 0.0
O252 O 0.20078 0.39933 0.36307 0.0
O253 O 0.79477 0.21632 0.90188 0.0
Zn254 Zn 0.79055 0.13832 0.90195 0.0
O255 O 0.74321 0.09123 0.87358 0.0
Zn256 Zn 0.67465 0.0234 0.88574 0.0
Zn257 Zn 0.72042 0.1352 0.85269 0.0
Zn258 Zn 0.78557 0.06555 0.85323 0.0
O259 O 0.66631 0.94962 0.8719 0.0
O260 O 0.75692 -0.01762 0.86014 0.0
O261 O 0.7624 0.09328 0.93542 0.0
O262 O 0.68342 0.01472 0.92248 0.0
O263 O 0.60408 0.03097 0.8818 0.0
O264 O 0.63759 0.11122 0.85918 0.0
O265 O 0.73555 0.12959 0.81569 0.0
O266 O 0.87325 0.15925 0.8963 0.0
O267 O 0.77981 0.07838 0.81613 0.0
O268 O 0.86898 0.11056 0.86157 0.0
C269 C 0.78842 0.24281 0.88324 0.0
C270 C 0.70735 0.94129 0.86583 0.0
C271 C 0.59727 0.06961 0.87118 0.0
C272 C 0.71896 0.04377 0.93969 0.0
C273 C 0.7599 0.1058 0.80432 0.0
C274 C 0.89732 0.1458 0.87903 0.0
O275 O 0.76511 0.2177 0.86263 0.0
C276 C 0.17446 0.02756 0.10799 0.0
C277 C 0.15588 -0.02311 0.10519 0.0
C278 C 0.18861 0.08487 0.1122 0.0
C279 C 0.19193 0.1309 0.11468 0.0
C280 C 0.11047 0.19131 0.60815 0.0
C281 C 0.14267 0.17287 0.60537 0.0
C282 C 0.06725 0.20537 0.61232 0.0
C283 C 0.02456 0.20869 0.61476 0.0
C284 C 0.82664 0.08492 0.11266 0.0
C285 C 0.78045 0.04238 0.11503 0.0
C286 C 0.88408 0.12785 0.10858 0.0
C287 C 0.93477 0.15988 0.10583 0.0
C288 C 0.70512 0.84383 0.61262 0.0
C289 C 0.7018 0.79778 0.61495 0.0
C290 C 0.71934 0.9012 0.60852 0.0
C291 C 0.73798 0.95189 0.60572 0.0
C292 C 0.82696 0.7242 0.11226 0.0
C293 C 0.86958 0.72075 0.11476 0.0
C294 C 0.78378 0.73828 0.10804 0.0
C295 C 0.75151 0.75663 0.10526 0.0
C296 C 0.00984 0.80124 0.60801 0.0
C297 C -0.04083 0.76913 0.60527 0.0
C298 C 0.06719 0.84423 0.61217 0.0
C299 C 0.11331 0.88679 0.61463 0.0
C300 C 0.88418 0.7386 0.37579 0.0
C301 C 0.93483 0.75707 0.37855 0.0
C302 C 0.82682 0.72435 0.37169 0.0
C303 C 0.78069 0.72082 0.36931 0.0
C304 C 0.06674 0.84402 0.87239 0.0
C305 C 0.0241 0.79796 0.86988 0.0
C306 C 0.10989 0.90132 0.87655 0.0
C307 C 0.14211 0.952 0.87925 0.0
C308 C 0.17408 0.12861 0.37625 0.0
C309 C 0.15553 0.16072 0.37908 0.0
C310 C 0.18828 0.08551 0.37201 0.0
C311 C 0.19168 0.04286 0.36952 0.0
C312 C 0.06657 0.20504 0.87154 0.0
C313 C 0.1127 0.20857 0.86918 0.0
C314 C 0.0092 0.1907 0.87567 0.0
C315 C -0.04145 0.17212 0.87848 0.0
C316 C 0.82648 0.08532 0.37225 0.0
C317 C 0.86915 0.13137 0.36978 0.0
C318 C 0.78333 0.028 0.37641 0.0
C319 C 0.75117 -0.02267 0.37916 0.0
C320 C 0.71883 0.80003 0.87614 0.0
C321 C 0.73752 0.76802 0.87891 0.0
C322 C 0.70452 0.8431 0.87203 0.0
C323 C 0.70115 0.88578 0.86962 0.0
C324 C 0.05805 0.52135 0.10557 0.0
C325 C 0.05349 0.56334 0.10856 0.0
C326 C 0.07001 0.47645 0.10159 0.0
C327 C 0.08434 0.4407 0.09965 0.0
C328 C 0.55777 0.08817 0.60137 0.0
C329 C 0.60779 0.10238 0.59941 0.0
C330 C 0.50097 0.07625 0.60542 0.0
C331 C 0.45444 0.07165 0.60847 0.0
C332 C 0.43473 0.57529 0.10114 0.0
C333 C 0.47059 0.62532 0.09914 0.0
C334 C 0.38974 0.51854 0.10528 0.0
C335 C 0.34776 0.47208 0.10843 0.0
C336 C 0.82401 0.45245 0.60122 0.0
C337 C 0.80975 0.48824 0.59926 0.0
C338 C 0.83583 0.40748 0.60528 0.0
C339 C 0.84028 0.36546 0.60836 0.0
C340 C 0.39259 0.85215 0.10486 0.0
C341 C 0.43912 0.85686 0.10809 0.0
C342 C 0.33584 0.84026 0.10067 0.0
C343 C 0.28584 0.82617 0.0987 0.0
C344 C 0.50461 0.41028 0.60513 0.0
C345 C 0.54656 0.45675 0.60829 0.0
C346 C 0.4596 0.35357 0.601 0.0
C347 C 0.42365 0.30358 0.59904 0.0
C348 C 0.38996 0.85368 0.3793 0.0
C349 C 0.348 0.85817 0.37615 0.0
C350 C 0.43489 0.84185 0.3834 0.0
C351 C 0.47067 0.82759 0.38534 0.0
C352 C 0.55723 0.45182 0.88285 0.0
C353 C 0.60726 0.4876 0.88484 0.0
C354 C 0.50043 0.40695 0.87875 0.0
C355 C 0.45391 0.36503 0.87567 0.0
C356 C 0.07072 0.57583 0.38326 0.0
C357 C 0.08484 0.62585 0.38517 0.0
C358 C 0.05892 0.51904 0.37921 0.0
C359 C 0.05435 0.47252 0.37611 0.0
C360 C 0.50357 0.07571 0.87896 0.0
C361 C 0.54551 0.07115 0.87588 0.0
C362 C 0.45867 0.08761 0.88304 0.0
C363 C 0.42289 0.10187 0.88501 0.0
C364 C 0.336 0.47754 0.38342 0.0
C365 C 0.28601 0.44161 0.38541 0.0
C366 C 0.39274 0.5225 0.37925 0.0
C367 C 0.43924 0.5644 0.37607 0.0
C368 C 0.83462 0.41006 0.87882 0.0
C369 C 0.83922 0.4566 0.87577 0.0
C370 C 0.82275 0.35324 0.88286 0.0
C371 C 0.80856 0.3032 0.88482 0.0
C372 C 0.10539 0.29075 0.25546 0.0
C373 C 0.09795 0.2915 0.27789 0.0
C374 C 0.11599 0.29063 0.22933 0.0
C375 C 0.12396 0.29121 0.20688 0.0
C376 C 0.78877 0.1329 0.7291 0.0
C377 C 0.79621 0.14104 0.70667 0.0
C378 C 0.77801 0.12207 0.7552 0.0
C379 C 0.76984 0.11453 0.77763 0.0
C380 C 0.62028 0.8065 0.22909 0.0
C381 C 0.61964 0.81378 0.20664 0.0
C382 C 0.6203 0.7961 0.25524 0.0
C383 C 0.61968 0.78824 0.2777 0.0
C384 C 0.77883 0.6385 0.72905 0.0
C385 C 0.77074 0.63778 0.70661 0.0
C386 C 0.78938 0.63856 0.75518 0.0
C387 C 0.7966 0.6379 0.77764 0.0
C388 C 0.10601 0.79638 0.22896 0.0
C389 C 0.09851 0.78831 0.20653 0.0
C390 C 0.1166 0.80696 0.2551 0.0
C391 C 0.12449 0.81429 0.27755 0.0
C392 C 0.27276 0.13261 0.75517 0.0
C393 C 0.27333 0.14055 0.77761 0.0
C394 C 0.2729 0.12219 0.72903 0.0
C395 C 0.27366 0.11497 0.70658 0.0
C396 C 0.21747 0.21572 0.98197 0.0
C397 C 0.23391 0.20101 0.96368 0.0
C398 C 0.19748 0.2356 0.00223 0.0
C399 C 0.18278 0.25194 0.02055 0.0
C400 C -0.03341 0.23462 0.48215 0.0
C401 C -0.00206 0.25129 0.46393 0.0
C402 C 0.92645 0.2145 0.5023 0.0
C403 C 0.89519 0.1998 0.52055 0.0
C404 C 0.67638 0.94492 0.00234 0.0
C405 C 0.65989 0.91367 0.02058 0.0
C406 C 0.69633 -0.01507 0.98212 0.0
C407 C 0.71095 0.01605 0.96383 0.0
C408 C 0.69606 0.6934 0.50217 0.0
C409 C 0.71081 0.67701 0.52045 0.0
C410 C 0.67606 0.71339 0.48196 0.0
C411 C 0.65963 0.72819 0.46371 0.0
C412 C 0.92596 0.69326 0.98213 0.0
C413 C 0.89474 0.6768 0.96387 0.0
C414 C -0.03394 0.71326 0.00231 0.0
C415 C -0.0026 0.72799 0.02053 0.0
C416 C 0.1973 0.94462 0.48203 0.0
C417 C 0.18261 0.91346 0.46376 0.0
C418 C 0.21735 -0.01538 0.50224 0.0
C419 C 0.2339 0.01581 0.5205 0.0
loop_
_geom_bond_atom_site_label_1
_geom_bond_atom_site_label_2
_geom_bond_distance
_geom_bond_site_symmetry_2
_ccdc_geom_bond_type
O0 Zn1 1.953 . S
O0 C16 1.225 . S
Zn1 O0 1.953 . S
Zn1 O2 1.949 . S
Zn1 O8 1.919 . S
Zn1 O13 1.924 . S
O2 Zn1 1.949 . S
O2 Zn3 1.923 . S
O2 Zn4 1.950 . S
O2 Zn5 1.945 . S
Zn3 O2 1.923 . S
Zn3 O6 1.933 . S
Zn3 O9 1.941 . S
Zn3 O10 1.965 . S
Zn4 O2 1.950 . S
Zn4 O11 1.938 . S
Zn4 O12 1.906 . S
Zn4 O22 1.953 . S
Zn5 O2 1.945 . S
Zn5 O7 1.932 . S
Zn5 O14 1.977 . S
Zn5 O15 1.910 . S
O6 Zn3 1.933 . S
O6 C17 1.226 . S
O7 Zn5 1.932 . S
O7 C17 1.307 . S
O8 Zn1 1.919 . S
O8 C19 1.253 . S
O9 Zn3 1.941 . S
O9 C19 1.283 . S
O10 Zn3 1.965 . S
O10 C18 1.303 . S
O11 Zn4 1.938 . S
O11 C18 1.247 . S
O12 Zn4 1.906 . S
O12 C20 1.304 . S
O13 Zn1 1.924 . S
O13 C21 1.311 . S
O14 Zn5 1.977 . S
O14 C20 1.272 . S
O15 Zn5 1.910 . S
O15 C21 1.231 . S
C16 O0 1.225 . S
C16 O22 1.298 . S
C17 O6 1.226 . S
C17 O7 1.307 . S
C18 O10 1.303 . S
C18 O11 1.247 . S
C19 O8 1.253 . S
C19 O9 1.283 . S
C20 O12 1.304 . S
C20 O14 1.272 . S
C21 O13 1.311 . S
C21 O15 1.231 . S
O22 Zn4 1.953 . S
O22 C16 1.298 . S
O23 Zn24 1.953 . S
O23 C39 1.225 . S
Zn24 O23 1.953 . S
Zn24 O25 1.949 . S
Zn24 O31 1.919 . S
Zn24 O36 1.924 . S
O25 Zn24 1.949 . S
O25 Zn26 1.923 . S
O25 Zn27 1.950 . S
O25 Zn28 1.945 . S
Zn26 O25 1.923 . S
Zn26 O29 1.933 1_655 S
Zn26 O32 1.941 . S
Zn26 O33 1.965 . S
Zn27 O25 1.950 . S
Zn27 O34 1.938 . S
Zn27 O35 1.906 . S
Zn27 O45 1.953 . S
Zn28 O25 1.945 . S
Zn28 O30 1.932 . S
Zn28 O37 1.977 . S
Zn28 O38 1.910 . S
O29 Zn26 1.933 1_455 S
O29 C40 1.226 . S
O30 Zn28 1.932 . S
O30 C40 1.307 1_655 S
O31 Zn24 1.919 . S
O31 C42 1.253 . S
O32 Zn26 1.941 . S
O32 C42 1.283 . S
O33 Zn26 1.965 . S
O33 C41 1.303 . S
O34 Zn27 1.938 . S
O34 C41 1.247 . S
O35 Zn27 1.906 . S
O35 C43 1.304 . S
O36 Zn24 1.924 . S
O36 C44 1.311 . S
O37 Zn28 1.977 . S
O37 C43 1.272 . S
O38 Zn28 1.910 . S
O38 C44 1.231 . S
C39 O23 1.225 . S
C39 O45 1.298 . S
C40 O29 1.226 . S
C40 O30 1.307 1_455 S
C41 O33 1.303 . S
C41 O34 1.247 . S
C42 O31 1.253 . S
C42 O32 1.283 . S
C43 O35 1.304 . S
C43 O37 1.272 . S
C44 O36 1.311 . S
C44 O38 1.231 . S
O45 Zn27 1.953 . S
O45 C39 1.298 . S
O46 Zn47 1.953 . S
O46 C62 1.225 . S
Zn47 O46 1.953 . S
Zn47 O48 1.949 . S
Zn47 O54 1.919 . S
Zn47 O59 1.924 . S
O48 Zn47 1.949 . S
O48 Zn49 1.923 . S
O48 Zn50 1.950 . S
O48 Zn51 1.945 . S
Zn49 O48 1.923 . S
Zn49 O52 1.933 1_565 S
Zn49 O55 1.941 . S
Zn49 O56 1.965 . S
Zn50 O48 1.950 . S
Zn50 O57 1.938 . S
Zn50 O58 1.906 . S
Zn50 O68 1.953 . S
Zn51 O48 1.945 . S
Zn51 O53 1.932 . S
Zn51 O60 1.977 . S
Zn51 O61 1.910 . S
O52 Zn49 1.933 1_545 S
O52 C63 1.226 . S
O53 Zn51 1.932 . S
O53 C63 1.307 1_565 S
O54 Zn47 1.919 . S
O54 C65 1.253 . S
O55 Zn49 1.941 . S
O55 C65 1.283 . S
O56 Zn49 1.965 . S
O56 C64 1.303 . S
O57 Zn50 1.938 . S
O57 C64 1.247 . S
O58 Zn50 1.906 . S
O58 C66 1.304 . S
O59 Zn47 1.924 . S
O59 C67 1.311 . S
O60 Zn51 1.977 . S
O60 C66 1.272 . S
O61 Zn51 1.910 . S
O61 C67 1.231 . S
C62 O46 1.225 . S
C62 O68 1.298 . S
C63 O52 1.226 . S
C63 O53 1.307 1_545 S
C64 O56 1.303 . S
C64 O57 1.247 . S
C65 O54 1.253 . S
C65 O55 1.283 . S
C66 O58 1.304 . S
C66 O60 1.272 . S
C67 O59 1.311 . S
C67 O61 1.231 . S
O68 Zn50 1.953 . S
O68 C62 1.298 . S
O69 Zn70 1.953 . S
O69 C85 1.225 . S
Zn70 O69 1.953 . S
Zn70 O71 1.949 . S
Zn70 O77 1.919 . S
Zn70 O82 1.924 . S
O71 Zn70 1.949 . S
O71 Zn72 1.923 . S
O71 Zn73 1.950 . S
O71 Zn74 1.945 . S
Zn72 O71 1.923 . S
Zn72 O75 1.933 . S
Zn72 O78 1.941 . S
Zn72 O79 1.965 . S
Zn73 O71 1.950 . S
Zn73 O80 1.938 . S
Zn73 O81 1.906 . S
Zn73 O91 1.953 . S
Zn74 O71 1.945 . S
Zn74 O76 1.932 . S
Zn74 O83 1.977 . S
Zn74 O84 1.910 . S
O75 Zn72 1.933 . S
O75 C86 1.226 . S
O76 Zn74 1.932 . S
O76 C86 1.307 . S
O77 Zn70 1.919 . S
O77 C88 1.253 . S
O78 Zn72 1.941 . S
O78 C88 1.283 . S
O79 Zn72 1.965 . S
O79 C87 1.303 . S
O80 Zn73 1.938 . S
O80 C87 1.247 . S
O81 Zn73 1.906 . S
O81 C89 1.304 . S
O82 Zn70 1.924 . S
O82 C90 1.311 . S
O83 Zn74 1.977 . S
O83 C89 1.272 . S
O84 Zn74 1.910 . S
O84 C90 1.231 . S
C85 O69 1.225 . S
C85 O91 1.298 . S
C86 O75 1.226 . S
C86 O76 1.307 . S
C87 O79 1.303 . S
C87 O80 1.247 . S
C88 O77 1.253 . S
C88 O78 1.283 . S
C89 O81 1.304 . S
C89 O83 1.272 . S
C90 O82 1.311 . S
C90 O84 1.231 . S
O91 Zn73 1.953 . S
O91 C85 1.298 . S
O92 Zn93 1.953 . S
O92 C108 1.225 . S
Zn93 O92 1.953 . S
Zn93 O94 1.949 . S
Zn93 O100 1.919 . S
Zn93 O105 1.924 . S
O94 Zn93 1.949 . S
O94 Zn95 1.923 . S
O94 Zn96 1.950 . S
O94 Zn97 1.945 . S
Zn95 O94 1.923 . S
Zn95 O98 1.933 1_455 S
Zn95 O101 1.941 . S
Zn95 O102 1.965 . S
Zn96 O94 1.950 . S
Zn96 O103 1.938 . S
Zn96 O104 1.906 . S
Zn96 O114 1.953 . S
Zn97 O94 1.945 . S
Zn97 O99 1.932 . S
Zn97 O106 1.977 . S
Zn97 O107 1.910 . S
O98 Zn95 1.933 1_655 S
O98 C109 1.226 . S
O99 Zn97 1.932 . S
O99 C109 1.307 1_455 S
O100 Zn93 1.919 . S
O100 C111 1.253 . S
O101 Zn95 1.941 . S
O101 C111 1.283 . S
O102 Zn95 1.965 . S
O102 C110 1.303 . S
O103 Zn96 1.938 . S
O103 C110 1.247 . S
O104 Zn96 1.906 . S
O104 C112 1.304 . S
O105 Zn93 1.924 . S
O105 C113 1.311 . S
O106 Zn97 1.977 . S
O106 C112 1.272 . S
O107 Zn97 1.910 . S
O107 C113 1.231 . S
C108 O92 1.225 . S
C108 O114 1.298 . S
C109 O98 1.226 . S
C109 O99 1.307 1_655 S
C110 O102 1.303 . S
C110 O103 1.247 . S
C111 O100 1.253 . S
C111 O101 1.283 . S
C112 O104 1.304 . S
C112 O106 1.272 . S
C113 O105 1.311 . S
C113 O107 1.231 . S
O114 Zn96 1.953 . S
O114 C108 1.298 . S
O115 Zn116 1.953 . S
O115 C131 1.225 . S
Zn116 O115 1.953 . S
Zn116 O117 1.949 . S
Zn116 O123 1.919 . S
Zn116 O128 1.924 . S
O117 Zn116 1.949 . S
O117 Zn118 1.923 . S
O117 Zn119 1.950 . S
O117 Zn120 1.945 . S
Zn118 O117 1.923 . S
Zn118 O121 1.933 1_545 S
Zn118 O124 1.941 . S
Zn118 O125 1.965 . S
Zn119 O117 1.950 . S
Zn119 O126 1.938 . S
Zn119 O127 1.906 . S
Zn119 O137 1.953 . S
Zn120 O117 1.945 . S
Zn120 O122 1.932 . S
Zn120 O129 1.977 . S
Zn120 O130 1.910 . S
O121 Zn118 1.933 1_565 S
O121 C132 1.226 . S
O122 Zn120 1.932 . S
O122 C132 1.307 1_545 S
O123 Zn116 1.919 . S
O123 C134 1.253 . S
O124 Zn118 1.941 . S
O124 C134 1.283 . S
O125 Zn118 1.965 . S
O125 C133 1.303 . S
O126 Zn119 1.938 . S
O126 C133 1.247 . S
O127 Zn119 1.906 . S
O127 C135 1.304 . S
O128 Zn116 1.924 . S
O128 C136 1.311 . S
O129 Zn120 1.977 . S
O129 C135 1.272 . S
O130 Zn120 1.910 . S
O130 C136 1.231 . S
C131 O115 1.225 . S
C131 O137 1.298 . S
C132 O121 1.226 . S
C132 O122 1.307 1_565 S
C133 O125 1.303 . S
C133 O126 1.247 . S
C134 O123 1.253 . S
C134 O124 1.283 . S
C135 O127 1.304 . S
C135 O129 1.272 . S
C136 O128 1.311 . S
C136 O130 1.231 . S
O137 Zn119 1.953 . S
O137 C131 1.298 . S
O138 Zn139 1.953 . S
O138 C154 1.225 . S
Zn139 O138 1.953 . S
Zn139 O140 1.949 . S
Zn139 O146 1.919 . S
Zn139 O151 1.924 . S
O140 Zn139 1.949 . S
O140 Zn141 1.923 . S
O140 Zn142 1.950 . S
O140 Zn143 1.945 . S
Zn141 O140 1.923 . S
Zn141 O144 1.933 . S
Zn141 O147 1.941 . S
Zn141 O148 1.965 . S
Zn142 O140 1.950 . S
Zn142 O149 1.938 . S
Zn142 O150 1.906 . S
Zn142 O160 1.953 . S
Zn143 O140 1.945 . S
Zn143 O145 1.932 . S
Zn143 O152 1.977 . S
Zn143 O153 1.910 . S
O144 Zn141 1.933 . S
O144 C155 1.226 . S
O145 Zn143 1.932 . S
O145 C155 1.307 . S
O146 Zn139 1.919 . S
O146 C157 1.253 . S
O147 Zn141 1.941 . S
O147 C157 1.283 . S
O148 Zn141 1.965 . S
O148 C156 1.303 . S
O149 Zn142 1.938 . S
O149 C156 1.247 . S
O150 Zn142 1.906 . S
O150 C158 1.304 . S
O151 Zn139 1.924 . S
O151 C159 1.311 . S
O152 Zn143 1.977 . S
O152 C158 1.272 . S
O153 Zn143 1.910 . S
O153 C159 1.231 . S
C154 O138 1.225 . S
C154 O160 1.298 . S
C155 O144 1.226 . S
C155 O145 1.307 . S
C156 O148 1.303 . S
C156 O149 1.247 . S
C157 O146 1.253 . S
C157 O147 1.283 . S
C158 O150 1.304 . S
C158 O152 1.272 . S
C159 O151 1.311 . S
C159 O153 1.231 . S
O160 Zn142 1.953 . S
O160 C154 1.298 . S
O161 Zn162 1.953 . S
O161 C177 1.225 . S
Zn162 O161 1.953 . S
Zn162 O163 1.949 . S
Zn162 O169 1.919 . S
Zn162 O174 1.924 . S
O163 Zn162 1.949 . S
O163 Zn164 1.923 . S
O163 Zn165 1.950 . S
O163 Zn166 1.945 . S
Zn164 O163 1.923 . S
Zn164 O167 1.933 1_655 S
Zn164 O170 1.941 . S
Zn164 O171 1.965 . S
Zn165 O163 1.950 . S
Zn165 O172 1.938 . S
Zn165 O173 1.906 . S
Zn165 O183 1.953 . S
Zn166 O163 1.945 . S
Zn166 O168 1.932 . S
Zn166 O175 1.977 . S
Zn166 O176 1.910 . S
O167 Zn164 1.933 1_455 S
O167 C178 1.226 . S
O168 Zn166 1.932 . S
O168 C178 1.307 1_655 S
O169 Zn162 1.919 . S
O169 C180 1.253 . S
O170 Zn164 1.941 . S
O170 C180 1.283 . S
O171 Zn164 1.965 . S
O171 C179 1.303 . S
O172 Zn165 1.938 . S
O172 C179 1.247 . S
O173 Zn165 1.906 . S
O173 C181 1.304 . S
O174 Zn162 1.924 . S
O174 C182 1.311 . S
O175 Zn166 1.977 . S
O175 C181 1.272 . S
O176 Zn166 1.910 . S
O176 C182 1.231 . S
C177 O161 1.225 . S
C177 O183 1.298 . S
C178 O167 1.226 . S
C178 O168 1.307 1_455 S
C179 O171 1.303 . S
C179 O172 1.247 . S
C180 O169 1.253 . S
C180 O170 1.283 . S
C181 O173 1.304 . S
C181 O175 1.272 . S
C182 O174 1.311 . S
C182 O176 1.231 . S
O183 Zn165 1.953 . S
O183 C177 1.298 . S
O184 Zn185 1.953 . S
O184 C200 1.225 . S
Zn185 O184 1.953 . S
Zn185 O186 1.949 . S
Zn185 O192 1.919 . S
Zn185 O197 1.924 . S
O186 Zn185 1.949 . S
O186 Zn187 1.923 . S
O186 Zn188 1.950 . S
O186 Zn189 1.945 . S
Zn187 O186 1.923 . S
Zn187 O190 1.933 1_565 S
Zn187 O193 1.941 . S
Zn187 O194 1.965 . S
Zn188 O186 1.950 . S
Zn188 O195 1.938 . S
Zn188 O196 1.906 . S
Zn188 O206 1.953 . S
Zn189 O186 1.945 . S
Zn189 O191 1.932 . S
Zn189 O198 1.977 . S
Zn189 O199 1.910 . S
O190 Zn187 1.933 1_545 S
O190 C201 1.226 . S
O191 Zn189 1.932 . S
O191 C201 1.307 1_565 S
O192 Zn185 1.919 . S
O192 C203 1.253 . S
O193 Zn187 1.941 . S
O193 C203 1.283 . S
O194 Zn187 1.965 . S
O194 C202 1.303 . S
O195 Zn188 1.938 . S
O195 C202 1.247 . S
O196 Zn188 1.906 . S
O196 C204 1.304 . S
O197 Zn185 1.924 . S
O197 C205 1.311 . S
O198 Zn189 1.977 . S
O198 C204 1.272 . S
O199 Zn189 1.910 . S
O199 C205 1.231 . S
C200 O184 1.225 . S
C200 O206 1.298 . S
C201 O190 1.226 . S
C201 O191 1.307 1_545 S
C202 O194 1.303 . S
C202 O195 1.247 . S
C203 O192 1.253 . S
C203 O193 1.283 . S
C204 O196 1.304 . S
C204 O198 1.272 . S
C205 O197 1.311 . S
C205 O199 1.231 . S
O206 Zn188 1.953 . S
O206 C200 1.298 . S
O207 Zn208 1.953 . S
O207 C223 1.225 . S
Zn208 O207 1.953 . S
Zn208 O209 1.949 . S
Zn208 O215 1.919 . S
Zn208 O220 1.924 . S
O209 Zn208 1.949 . S
O209 Zn210 1.923 . S
O209 Zn211 1.950 . S
O209 Zn212 1.945 . S
Zn210 O209 1.923 . S
Zn210 O213 1.933 . S
Zn210 O216 1.941 . S
Zn210 O217 1.965 . S
Zn211 O209 1.950 . S
Zn211 O218 1.938 . S
Zn211 O219 1.906 . S
Zn211 O229 1.953 . S
Zn212 O209 1.945 . S
Zn212 O214 1.932 . S
Zn212 O221 1.977 . S
Zn212 O222 1.910 . S
O213 Zn210 1.933 . S
O213 C224 1.226 . S
O214 Zn212 1.932 . S
O214 C224 1.307 . S
O215 Zn208 1.919 . S
O215 C226 1.253 . S
O216 Zn210 1.941 . S
O216 C226 1.283 . S
O217 Zn210 1.965 . S
O217 C225 1.303 . S
O218 Zn211 1.938 . S
O218 C225 1.247 . S
O219 Zn211 1.906 . S
O219 C227 1.304 . S
O220 Zn208 1.924 . S
O220 C228 1.311 . S
O221 Zn212 1.977 . S
O221 C227 1.272 . S
O222 Zn212 1.910 . S
O222 C228 1.231 . S
C223 O207 1.225 . S
C223 O229 1.298 . S
C224 O213 1.226 . S
C224 O214 1.307 . S
C225 O217 1.303 . S
C225 O218 1.247 . S
C226 O215 1.253 . S
C226 O216 1.283 . S
C227 O219 1.304 . S
C227 O221 1.272 . S
C228 O220 1.311 . S
C228 O222 1.231 . S
O229 Zn211 1.953 . S
O229 C223 1.298 . S
O230 Zn231 1.953 . S
O230 C246 1.225 . S
Zn231 O230 1.953 . S
Zn231 O232 1.949 . S
Zn231 O238 1.919 . S
Zn231 O243 1.924 . S
O232 Zn231 1.949 . S
O232 Zn233 1.923 . S
O232 Zn234 1.950 . S
O232 Zn235 1.945 . S
Zn233 O232 1.923 . S
Zn233 O236 1.933 1_455 S
Zn233 O239 1.941 . S
Zn233 O240 1.965 . S
Zn234 O232 1.950 . S
Zn234 O241 1.938 . S
Zn234 O242 1.906 . S
Zn234 O252 1.953 . S
Zn235 O232 1.945 . S
Zn235 O237 1.932 . S
Zn235 O244 1.977 . S
Zn235 O245 1.910 . S
O236 Zn233 1.933 1_655 S
O236 C247 1.226 . S
O237 Zn235 1.932 . S
O237 C247 1.307 1_455 S
O238 Zn231 1.919 . S
O238 C249 1.253 . S
O239 Zn233 1.941 . S
O239 C249 1.283 . S
O240 Zn233 1.965 . S
O240 C248 1.303 . S
O241 Zn234 1.938 . S
O241 C248 1.247 . S
O242 Zn234 1.906 . S
O242 C250 1.304 . S
O243 Zn231 1.924 . S
O243 C251 1.311 . S
O244 Zn235 1.977 . S
O244 C250 1.272 . S
O245 Zn235 1.910 . S
O245 C251 1.231 . S
C246 O230 1.225 . S
C246 O252 1.298 . S
C247 O236 1.226 . S
C247 O237 1.307 1_655 S
C248 O240 1.303 . S
C248 O241 1.247 . S
C249 O238 1.253 . S
C249 O239 1.283 . S
C250 O242 1.304 . S
C250 O244 1.272 . S
C251 O243 1.311 . S
C251 O245 1.231 . S
O252 Zn234 1.953 . S
O252 C246 1.298 . S
O253 Zn254 1.953 . S
O253 C269 1.225 . S
Zn254 O253 1.953 . S
Zn254 O255 1.949 . S
Zn254 O261 1.919 . S
Zn254 O266 1.924 . S
O255 Zn254 1.949 . S
O255 Zn256 1.923 . S
O255 Zn257 1.950 . S
O255 Zn258 1.945 . S
Zn256 O255 1.923 . S
Zn256 O259 1.933 1_545 S
Zn256 O262 1.941 . S
Zn256 O263 1.965 . S
Zn257 O255 1.950 . S
Zn257 O264 1.938 . S
Zn257 O265 1.906 . S
Zn257 O275 1.953 . S
Zn258 O255 1.945 . S
Zn258 O260 1.932 . S
Zn258 O267 1.977 . S
Zn258 O268 1.910 . S
O259 Zn256 1.933 1_565 S
O259 C270 1.226 . S
O260 Zn258 1.932 . S
O260 C270 1.307 1_545 S
O261 Zn254 1.919 . S
O261 C272 1.253 . S
O262 Zn256 1.941 . S
O262 C272 1.283 . S
O263 Zn256 1.965 . S
O263 C271 1.303 . S
O264 Zn257 1.938 . S
O264 C271 1.247 . S
O265 Zn257 1.906 . S
O265 C273 1.304 . S
O266 Zn254 1.924 . S
O266 C274 1.311 . S
O267 Zn258 1.977 . S
O267 C273 1.272 . S
O268 Zn258 1.910 . S
O268 C274 1.231 . S
C269 O253 1.225 . S
C269 O275 1.298 . S
C270 O259 1.226 . S
C270 O260 1.307 1_565 S
C271 O263 1.303 . S
C271 O264 1.247 . S
C272 O261 1.253 . S
C272 O262 1.283 . S
C273 O265 1.304 . S
C273 O267 1.272 . S
C274 O266 1.311 . S
C274 O268 1.231 . S
O275 Zn257 1.953 . S
O275 C269 1.298 . S
C276 C277 1.170 . S
C276 C278 1.380 . S
C277 C276 1.170 . S
C278 C276 1.380 . S
C278 C279 1.170 . S
C279 C278 1.170 . S
C280 C281 1.170 . S
C280 C282 1.380 . S
C281 C280 1.170 . S
C282 C280 1.380 . S
C282 C283 1.170 . S
C283 C282 1.170 . S
C284 C285 1.170 . S
C284 C286 1.380 . S
C285 C284 1.170 . S
C286 C284 1.380 . S
C286 C287 1.170 . S
C287 C286 1.170 . S
C288 C289 1.170 . S
C288 C290 1.380 . S
C289 C288 1.170 . S
C290 C288 1.380 . S
C290 C291 1.170 . S
C291 C290 1.170 . S
C292 C293 1.170 . S
C292 C294 1.380 . S
C293 C292 1.170 . S
C294 C292 1.380 . S
C294 C295 1.170 . S
C295 C294 1.170 . S
C296 C297 1.170 . S
C296 C298 1.380 . S
C297 C296 1.170 . S
C298 C296 1.380 . S
C298 C299 1.170 . S
C299 C298 1.170 . S
C300 C301 1.170 . S
C300 C302 1.380 . S
C301 C300 1.170 . S
C302 C300 1.380 . S
C302 C303 1.170 . S
C303 C302 1.170 . S
C304 C305 1.170 . S
C304 C306 1.380 . S
C305 C304 1.170 . S
C306 C304 1.380 . S
C306 C307 1.170 . S
C307 C306 1.170 . S
C308 C309 1.170 . S
C308 C310 1.380 . S
C309 C308 1.170 . S
C310 C308 1.380 . S
C310 C311 1.170 . S
C311 C310 1.170 . S
C312 C313 1.170 . S
C312 C314 1.380 . S
C313 C312 1.170 . S
C314 C312 1.380 . S
C314 C315 1.170 . S
C315 C314 1.170 . S
C316 C317 1.170 . S
C316 C318 1.380 . S
C317 C316 1.170 . S
C318 C316 1.380 . S
C318 C319 1.170 . S
C319 C318 1.170 . S
C320 C321 1.170 . S
C320 C322 1.380 . S
C321 C320 1.170 . S
C322 C320 1.380 . S
C322 C323 1.170 . S
C323 C322 1.170 . S
C324 C325 1.170 . S
C324 C326 1.380 . S
C325 C324 1.170 . S
C326 C324 1.380 . S
C326 C327 1.170 . S
C327 C326 1.170 . S
C328 C329 1.170 . S
C328 C330 1.380 . S
C329 C328 1.170 . S
C330 C328 1.380 . S
C330 C331 1.170 . S
C331 C330 1.170 . S
C332 C333 1.170 . S
C332 C334 1.380 . S
C333 C332 1.170 . S
C334 C332 1.380 . S
C334 C335 1.170 . S
C335 C334 1.170 . S
C336 C337 1.170 . S
C336 C338 1.380 . S
C337 C336 1.170 . S
C338 C336 1.380 . S
C338 C339 1.170 . S
C339 C338 1.170 . S
C340 C341 1.170 . S
C340 C342 1.380 . S
C341 C340 1.170 . S
C342 C340 1.380 . S
C342 C343 1.170 . S
C343 C342 1.170 . S
C344 C345 1.170 . S
C344 C346 1.380 . S
C345 C344 1.170 . S
C346 C344 1.380 . S
C346 C347 1.170 . S
C347 C346 1.170 . S
C348 C349 1.170 . S
C348 C350 1.380 . S
C349 C348 1.170 . S
C350 C348 1.380 . S
C350 C351 1.170 . S
C351 C350 1.170 . S
C352 C353 1.170 . S
C352 C354 1.380 . S
C353 C352 1.170 . S
C354 C352 1.380 . S
C354 C355 1.170 . S
C355 C354 1.170 . S
C356 C357 1.170 . S
C356 C358 1.380 . S
C357 C356 1.170 . S
C358 C356 1.380 . S
C358 C359 1.170 . S
C359 C358 1.170 . S
C360 C361 1.170 . S
C360 C362 1.380 . S
C361 C360 1.170 . S
C362 C360 1.380 . S
C362 C363 1.170 . S
C363 C362 1.170 . S
C364 C365 1.170 . S
C364 C366 1.380 . S
C365 C364 1.170 . S
C366 C364 1.380 . S
C366 C367 1.170 . S
C367 C366 1.170 . S
C368 C369 1.170 . S
C368 C370 1.380 . S
C369 C368 1.170 . S
C370 C368 1.380 . S
C370 C371 1.170 . S
C371 C370 1.170 . S
C372 C373 1.170 . S
C372 C374 1.380 . S
C373 C372 1.170 . S
C374 C372 1.380 . S
C374 C375 1.170 . S
C375 C374 1.170 . S
C376 C377 1.170 . S
C376 C378 1.380 . S
C377 C376 1.170 . S
C378 C376 1.380 . S
C378 C379 1.170 . S
C379 C378 1.170 . S
C380 C381 1.170 . S
C380 C382 1.380 . S
C381 C380 1.170 . S
C382 C380 1.380 . S
C382 C383 1.170 . S
C383 C382 1.170 . S
C384 C385 1.170 . S
C384 C386 1.380 . S
C385 C384 1.170 . S
C386 C384 1.380 . S
C386 C387 1.170 . S
C387 C386 1.170 . S
C388 C389 1.170 . S
C388 C390 1.380 . S
C389 C388 1.170 . S
C390 C388 1.380 . S
C390 C391 1.170 . S
C391 C390 1.170 . S
C392 C393 1.170 . S
C392 C394 1.380 . S
C393 C392 1.170 . S
C394 C392 1.380 . S
C394 C395 1.170 . S
C395 C394 1.170 . S
C396 C397 1.170 . S
C396 C398 1.380 1_556 S
C397 C396 1.170 . S
C398 C396 1.380 1_554 S
C398 C399 1.170 . S
C399 C398 1.170 . S
C400 C401 1.170 . S
C400 C402 1.380 1_455 S
C401 C400 1.170 . S
C402 C400 1.380 1_655 S
C402 C403 1.170 . S
C403 C402 1.170 . S
C404 C405 1.170 . S
C404 C406 1.380 1_564 S
C405 C404 1.170 . S
C406 C404 1.380 1_546 S
C406 C407 1.170 . S
C407 C406 1.170 . S
C408 C409 1.170 . S
C408 C410 1.380 . S
C409 C408 1.170 . S
C410 C408 1.380 . S
C410 C411 1.170 . S
C411 C410 1.170 . S
C412 C413 1.170 . S
C412 C414 1.380 1_656 S
C413 C412 1.170 . S
C414 C412 1.380 1_454 S
C414 C415 1.170 . S
C415 C414 1.170 . S
C416 C417 1.170 . S
C416 C418 1.380 1_565 S
C417 C416 1.170 . S
C418 C416 1.380 1_545 S
C418 C419 1.170 . S
C419 C418 1.170 . S
C277 C113 1.029 1_545 S
C279 C17 1.029 . S
C281 C136 0.971 . S
C283 C40 0.985 . S
C285 C63 0.983 . S
C287 C21 0.971 1_655 S
C289 C86 1.026 . S
C291 C44 1.014 1_565 S
C293 C109 0.983 . S
C295 C67 0.976 . S
C297 C90 0.971 1_455 S
C299 C132 0.984 . S
C301 C205 0.975 1_655 S
C303 C155 0.982 . S
C305 C178 0.985 . S
C307 C228 0.980 1_565 S
C309 C251 1.017 . S
C311 C201 1.015 . S
C313 C224 1.002 . S
C315 C274 0.986 1_455 S
C317 C247 1.001 . S
C319 C159 1.003 1_545 S
C321 C182 1.028 . S
C323 C270 1.029 . S
C325 C110 1.225 . S
C327 C16 1.213 . S
C329 C39 1.212 . S
C331 C133 1.222 . S
C333 C62 1.216 . S
C335 C18 1.228 . S
C337 C85 1.223 . S
C339 C41 1.233 . S
C341 C64 1.222 . S
C343 C108 1.225 . S
C345 C87 1.232 . S
C347 C131 1.234 . S
C349 C202 1.235 . S
C351 C154 1.229 . S
C353 C177 1.212 . S
C355 C225 1.222 . S
C357 C200 1.233 . S
C359 C248 1.229 . S
C361 C271 1.229 . S
C363 C223 1.216 . S
C365 C246 1.234 . S
C367 C156 1.230 . S
C369 C179 1.220 . S
C371 C269 1.214 . S
C373 C250 1.498 . S
C375 C20 1.525 . S
C377 C43 1.517 . S
C379 C273 1.512 . S
C381 C66 1.506 . S
C383 C158 1.521 . S
C385 C89 1.498 . S
C387 C181 1.525 . S
C389 C112 1.486 . S
C391 C204 1.518 . S
C393 C227 1.509 . S
C395 C135 1.519 . S
C397 C226 1.540 . S
C399 C19 1.540 . S
C401 C249 1.538 . S
C403 C42 1.540 . S
C405 C65 1.539 . S
C407 C272 1.537 . S
C409 C88 1.529 . S
C411 C157 1.532 . S
C413 C180 1.538 . S
C415 C111 1.540 . S
C417 C203 1.540 . S
C419 C134 1.539 . S
