# Generated by pormake.
# Topology vme, (6)-cn, num edge types: 1
# Building blocks:
#     Node 0, Type 0, BuildingBlock: IZENUY_clean_sbu_0, # of connection points: 6
#     Node 1, Type 0, BuildingBlock: IZENUY_clean_sbu_0, # of connection points: 6
#     Node 2, Type 0, BuildingBlock: IZENUY_clean_sbu_0, # of connection points: 6
#     Node 3, Type 0, BuildingBlock: IZENUY_clean_sbu_0, # of connection points: 6
#     Edge 4, Type (0, 0), BuildingBlock: XUDNAN_clean_linker_2, # of connection points: 2
#     Edge 5, Type (0, 0), BuildingBlock: XUDNAN_clean_linker_2, # of connection points: 2
#     Edge 6, Type (0, 0), BuildingBlock: XUDNAN_clean_linker_2, # of connection points: 2
#     Edge 7, Type (0, 0), BuildingBlock: XUDNAN_clean_linker_2, # of connection points: 2
#     Edge 8, Type (0, 0), BuildingBlock: XUDNAN_clean_linker_2, # of connection points: 2
#     Edge 9, Type (0, 0), BuildingBlock: XUDNAN_clean_linker_2, # of connection points: 2
#     Edge 10, Type (0, 0), BuildingBlock: XUDNAN_clean_linker_2, # of connection points: 2
#     Edge 11, Type (0, 0), BuildingBlock: XUDNAN_clean_linker_2, # of connection points: 2
#     Edge 12, Type (0, 0), BuildingBlock: XUDNAN_clean_linker_2, # of connection points: 2
#     Edge 13, Type (0, 0), BuildingBlock: XUDNAN_clean_linker_2, # of connection points: 2
#     Edge 14, Type (0, 0), BuildingBlock: XUDNAN_clean_linker_2, # of connection points: 2
#     Edge 15, Type (0, 0), BuildingBlock: XUDNAN_clean_linker_2, # of connection points: 2
# Relax obj value: 0.240
# Max RMSD: 0.243
# Mean RMSD: 0.243
data_MOF--net-vme--node1-IZENUY_clean_sbu_0--edge1-XUDNAN_clean_linker_2
_symmetry_space_group_name_H-M    P1
_symmetry_Int_Tables_number       1
_symmetry_cell_setting            triclinic
loop_
_symmetry_equiv_pos_as_xyz
'x, y, z'
_cell_length_a     25.451405
_cell_length_b     25.487612
_cell_length_c     27.845069
_cell_angle_alpha  90.155534
_cell_angle_beta   117.04914
_cell_angle_gamma 89.849212
loop_
_atom_site_label
_atom_site_type_symbol
_atom_site_fract_x
_atom_site_fract_y
_atom_site_fract_z
_atom_type_partial_charge
Fe0 Fe 0.14052 0.38537 0.34848 0.0
Fe1 Fe 0.26295 0.33439 0.40663 0.0
O2 O 0.21135 0.38227 0.40425 0.0
Fe3 Fe 0.22988 0.42662 0.45784 0.0
O4 O 0.17131 0.40265 0.47034 0.0
O5 O 0.10223 0.41077 0.38733 0.0
O6 O 0.12397 0.32003 0.36221 0.0
C7 C 0.15155 0.28038 0.35869 0.0
C8 C 0.16506 0.48868 0.36434 0.0
O9 O 0.2051 0.28472 0.36729 0.0
C10 C 0.33213 0.42641 0.44916 0.0
O11 O 0.16588 0.36115 0.29944 0.0
O12 O 0.26251 0.36043 0.34619 0.0
O13 O 0.18448 0.48104 0.41462 0.0
O14 O 0.15365 0.45076 0.33219 0.0
C15 C 0.27681 0.33043 0.50971 0.0
O16 O 0.32926 0.3765 0.44526 0.0
O17 O 0.28956 0.45246 0.44796 0.0
C18 C 0.21685 0.36159 0.30154 0.0
O19 O 0.26592 0.30549 0.46712 0.0
O20 O 0.27761 0.38021 0.51044 0.0
C21 C 0.11785 0.40703 0.43749 0.0
Fe22 Fe 0.79846 0.82834 0.14054 0.0
Fe23 Fe 0.80863 0.92648 0.08246 0.0
O24 O 0.83912 0.88344 0.13796 0.0
Fe25 Fe 0.91099 0.89506 0.18978 0.0
O26 O 0.93647 0.83334 0.17704 0.0
O27 O 0.86421 0.78555 0.176 0.0
O28 O 0.79431 0.8027 0.07877 0.0
C29 C 0.77403 0.82661 0.03459 0.0
C30 C 0.8482 0.85611 0.24554 0.0
O31 O 0.76486 0.87572 0.03261 0.0
C32 C 0.87465 0.99504 0.17197 0.0
O33 O 0.72589 0.86215 0.10547 0.0
O34 O 0.74889 0.94372 0.09722 0.0
O35 O 0.89609 0.86673 0.24375 0.0
O36 O 0.80085 0.84966 0.20307 0.0
C37 C 0.91957 0.92002 0.09415 0.0
O38 O 0.84856 0.98525 0.12162 0.0
O39 O 0.88948 0.95785 0.20518 0.0
C40 C 0.71263 0.91081 0.09828 0.0
O41 O 0.86604 0.9107 0.06467 0.0
O42 O 0.93904 0.92511 0.14483 0.0
C43 C 0.91606 0.78941 0.18037 0.0
Fe44 Fe 0.82773 0.59158 0.59293 0.0
Fe45 Fe 0.90761 0.6293 0.70724 0.0
O46 O 0.84289 0.63647 0.64606 0.0
Fe47 Fe 0.79444 0.68907 0.63804 0.0
O48 O 0.80543 0.71483 0.58375 0.0
O49 O 0.79252 0.64136 0.53851 0.0
O50 O 0.89494 0.60881 0.59062 0.0
C51 C 0.94506 0.6005 0.62873 0.0
C52 C 0.71726 0.60388 0.58383 0.0
O53 O 0.95164 0.59834 0.67672 0.0
C54 C 0.82255 0.66246 0.74056 0.0
O55 O 0.86316 0.53431 0.63901 0.0
O56 O 0.88224 0.56701 0.7182 0.0
O57 O 0.72744 0.65277 0.59207 0.0
O58 O 0.75841 0.57224 0.59128 0.0
C59 C 0.90802 0.73403 0.69313 0.0
O60 O 0.87588 0.65865 0.74924 0.0
O61 O 0.78165 0.66652 0.69326 0.0
C62 C 0.87746 0.52779 0.68898 0.0
O63 O 0.93515 0.69148 0.69832 0.0
O64 O 0.85366 0.73481 0.68179 0.0
C65 C 0.80056 0.69085 0.54251 0.0
Fe66 Fe 0.26697 0.18565 0.91176 0.0
Fe67 Fe 0.21542 0.09634 0.95102 0.0
O68 O 0.20961 0.14086 0.90059 0.0
Fe69 Fe 0.14471 0.14044 0.83842 0.0
O70 O 0.12647 0.20535 0.85019 0.0
O71 O 0.21464 0.23931 0.87256 0.0
O72 O 0.26387 0.2136 0.96985 0.0
C73 C 0.26474 0.18935 1.00938 0.0
C74 C 0.23336 0.16403 0.80657 0.0
O75 O 0.25854 0.14003 1.00818 0.0
C76 C 0.16238 0.03651 0.85358 0.0
O77 O 0.32761 0.13902 0.95318 0.0
O78 O 0.27982 0.06681 0.95251 0.0
O79 O 0.18016 0.16563 0.79822 0.0
O80 O 0.27437 0.16148 0.85386 0.0
C81 C 0.10089 0.11898 0.91373 0.0
O82 O 0.17295 0.04379 0.90244 0.0
O83 O 0.16077 0.0749 0.82447 0.0
C84 C 0.32657 0.08949 0.95954 0.0
O85 O 0.15117 0.12419 0.95259 0.0
O86 O 0.09579 0.11564 0.86633 0.0
C87 C 0.1595 0.24445 0.8584 0.0
H88 H 0.94783 0.02456 0.2766 0.0
H89 H 0.87373 0.08005 0.11123 0.0
H90 H 0.93969 0.15684 0.14173 0.0
H91 H 0.96912 0.15394 0.34099 0.0
H92 H 0.03747 0.13487 0.39753 0.0
H93 H 0.9811 0.08657 0.36303 0.0
H94 H 0.05686 0.03034 0.34736 0.0
H95 H 0.11313 0.07901 0.38069 0.0
H96 H 0.09519 0.05868 0.31293 0.0
H97 H 1.01626 0.22492 0.18887 0.0
H98 H 0.09192 0.28535 0.25091 0.0
H99 H 0.12066 0.18505 0.38604 0.0
C100 C 0.94436 0.05341 0.24682 0.0
C101 C 0.90508 0.04618 0.19135 0.0
C102 C 0.90277 0.08476 0.15388 0.0
C103 C 0.94049 0.12834 0.1708 0.0
C104 C 0.98026 0.13293 0.22532 0.0
C105 C 0.9819 0.09703 0.26295 0.0
C106 C 0.0297 0.11074 0.31901 0.0
C107 C 1.00273 0.12223 0.3574 0.0
C108 C 0.07648 0.06708 0.34129 0.0
C109 C 0.0549 0.15999 0.307 0.0
C110 C 0.02572 0.17176 0.25256 0.0
C111 C 0.03978 0.21578 0.23141 0.0
C112 C 0.08365 0.24943 0.2669 0.0
C113 C 0.11403 0.2386 0.32283 0.0
C114 C 0.09955 0.19319 0.34319 0.0
H115 H 0.05464 0.52272 0.33798 0.0
H116 H 0.21709 0.56594 0.33412 0.0
H117 H 0.16857 0.64599 0.28207 0.0
H118 H 0.95775 0.56456 0.20417 0.0
H119 H 0.90098 0.58831 0.22046 0.0
H120 H 0.9488 0.53565 0.25901 0.0
H121 H 0.9771 0.58824 0.34577 0.0
H122 H 0.93104 0.64224 0.30888 0.0
H123 H 1.00822 0.65307 0.35301 0.0
H124 H 0.10165 0.71826 0.228 0.0
H125 H 1.0242 0.7843 0.18299 0.0
H126 H 0.90425 0.69478 0.22278 0.0
C127 C 0.08019 0.54996 0.32735 0.0
C128 C 0.13976 0.53952 0.34088 0.0
C129 C 0.17172 0.5744 0.32482 0.0
C130 C 0.14439 0.61947 0.29501 0.0
C131 C 0.08516 0.62841 0.28152 0.0
C132 C 0.05353 0.59498 0.2976 0.0
C133 C 0.99021 0.6133 0.27708 0.0
C134 C 0.94689 0.57305 0.23784 0.0
C135 C 0.97588 0.625 0.32404 0.0
C136 C 0.99147 0.66292 0.2479 0.0
C137 C 0.04643 0.67032 0.25029 0.0
C138 C 0.05859 0.7131 0.22619 0.0
C139 C 1.01411 0.75034 0.20059 0.0
C140 C 0.95813 0.74498 0.19965 0.0
C141 C 0.94637 0.69992 0.22258 0.0
H142 H 0.1116 0.95874 0.88697 0.0
H143 H 0.15068 1.00339 0.75621 0.0
H144 H 0.08938 0.93045 0.70113 0.0
H145 H 0.10789 0.81348 0.86064 0.0
H146 H 0.04929 0.80368 0.87909 0.0
H147 H 0.10243 0.85522 0.91054 0.0
H148 H 1.01719 0.92068 0.88202 0.0
H149 H 0.96277 0.87125 0.84705 0.0
H150 H 0.96633 0.92915 0.81155 0.0
H151 H 1.01816 0.85794 0.65745 0.0
H152 H 0.947 0.78441 0.63064 0.0
H153 H 0.95115 0.78801 0.78786 0.0
C154 C 0.10881 0.95213 0.84744 0.0
C155 C 0.13602 0.98672 0.82588 0.0
C156 C 0.13026 0.97738 0.77352 0.0
C157 C 0.09544 0.93613 0.74187 0.0
C158 C 0.06705 0.90428 0.76329 0.0
C159 C 0.07418 0.91098 0.8152 0.0
C160 C 0.03699 0.87207 0.82757 0.0
C161 C 0.07651 0.83383 0.87208 0.0
C162 C 0.99314 0.90002 0.84285 0.0
C163 C 1.00572 0.84443 0.77365 0.0
C164 C 1.02449 0.8631 0.73746 0.0
C165 C 1.003 0.84305 0.68534 0.0
C166 C 0.96224 0.80188 0.67023 0.0
C167 C 0.94276 0.78222 0.70674 0.0
C168 C 0.96437 0.8038 0.75891 0.0
H169 H 0.92058 0.44286 0.65366 0.0
H170 H 0.90576 0.50396 0.79287 0.0
H171 H 0.98117 0.44177 0.85135 0.0
H172 H 0.94271 0.30206 0.70672 0.0
H173 H 0.99101 0.28679 0.67726 0.0
H174 H 0.93201 0.33351 0.645 0.0
H175 H 1.00811 0.40234 0.64775 0.0
H176 H 0.06679 0.35557 0.68043 0.0
H177 H 0.07012 0.41807 0.71205 0.0
H178 H 0.06916 0.38372 0.89737 0.0
H179 H 0.14574 0.31435 0.92502 0.0
H180 H 0.09881 0.28377 0.75731 0.0
C181 C 0.93153 0.44181 0.69604 0.0
C182 C 0.90772 0.47928 0.71853 0.0
C183 C 0.92371 0.47641 0.77447 0.0
C184 C 0.96691 0.44132 0.80833 0.0
C185 C 0.99246 0.40759 0.78568 0.0
C186 C 0.97354 0.40549 0.73061 0.0
C187 C 1.00733 0.36344 0.71721 0.0
C188 C 0.9658 0.31879 0.68463 0.0
C189 C 0.03999 0.3863 0.68749 0.0
C190 C 0.05054 0.34534 0.77337 0.0
C191 C 0.04126 0.37149 0.81229 0.0
C192 C 0.07656 0.36259 0.86722 0.0
C193 C 0.12073 0.32404 0.88268 0.0
C194 C 0.12928 0.29528 0.84337 0.0
C195 C 0.09432 0.30662 0.78812 0.0
H196 H 0.95478 0.61526 0.53579 0.0
H197 H 0.03101 0.52891 0.6867 0.0
H198 H 0.0792 0.46883 0.6486 0.0
H199 H 0.91584 0.51447 0.44702 0.0
H200 H 0.93958 0.54066 0.40011 0.0
H201 H 0.91939 0.58447 0.43984 0.0
H202 H 1.01948 0.6303 0.47715 0.0
H203 H 0.04385 0.58792 0.43926 0.0
H204 H 0.08657 0.5928 0.51114 0.0
H205 H 0.0886 0.40246 0.58706 0.0
H206 H 0.11228 0.3592 0.51979 0.0
H207 H 0.04087 0.49126 0.41234 0.0
C208 C 0.9825 0.58418 0.56129 0.0
C209 C 0.98816 0.57601 0.61381 0.0
C210 C 0.02558 0.53568 0.6463 0.0
C211 C 0.05151 0.50042 0.62466 0.0
C212 C 0.03903 0.50582 0.57085 0.0
C213 C 1.00879 0.54846 0.54054 0.0
C214 C 1.00554 0.54655 0.48472 0.0
C215 C 0.94127 0.54657 0.44031 0.0
C216 C 0.04088 0.59211 0.47761 0.0
C217 C 0.03526 0.49421 0.48743 0.0
C218 C 0.05291 0.47108 0.53728 0.0
C219 C 0.07744 0.42115 0.54876 0.0
C220 C 0.0897 0.39642 0.51018 0.0
C221 C 0.0794 0.42208 0.46179 0.0
C222 C 0.04896 0.4705 0.44888 0.0
H223 H 1.00018 1.00093 0.12204 0.0
H224 H 0.90957 0.88246 1.00008 0.0
H225 H 0.93572 0.92918 0.93651 0.0
H226 H 0.96086 0.11007 0.03705 0.0
H227 H 0.03096 0.14318 0.06841 0.0
H228 H 1.00964 0.10007 0.10762 0.0
H229 H 0.10361 0.044 0.13603 0.0
H230 H 0.12754 0.08827 0.09967 0.0
H231 H 0.12236 0.01898 0.08513 0.0
H232 H 0.95749 0.99425 0.88241 0.0
H233 H 1.00995 0.05454 0.85005 0.0
H234 H 0.09209 0.12917 1.00766 0.0
C235 C 0.98787 0.98386 0.08269 0.0
C236 C 0.95248 0.93837 0.06559 0.0
C237 C 0.93637 0.91753 1.01354 0.0
C238 C 0.95019 0.94408 0.97698 0.0
C239 C 0.98101 0.99094 0.99345 0.0
C240 C 1.00217 1.00952 0.04567 0.0
C241 C 0.03706 0.05963 0.05314 0.0
C242 C 1.00787 0.10597 0.06739 0.0
C243 C 0.10147 0.05226 0.09601 0.0
C244 C 0.03226 0.0657 0.99705 0.0
C245 C 0.99798 0.02661 0.96294 0.0
C246 C 0.98627 0.02403 0.90903 0.0
C247 C 1.01526 0.05921 0.8907 0.0
C248 C 0.05556 0.09613 0.9265 0.0
C249 C 0.06158 0.10118 0.97946 0.0
H250 H 0.21321 0.16863 0.07481 0.0
H251 H 0.32402 0.28117 0.04703 0.0
H252 H 0.32125 0.33924 0.11706 0.0
H253 H 0.1195 0.26349 0.09116 0.0
H254 H 0.1107 0.22711 0.14248 0.0
H255 H 0.1252 0.19298 0.09301 0.0
H256 H 0.21648 0.14829 0.16955 0.0
H257 H 0.20155 0.1823 0.21881 0.0
H258 H 0.27278 0.18845 0.22019 0.0
H259 H 0.30642 0.38512 0.19008 0.0
H260 H 0.28089 0.41488 0.26178 0.0
H261 H 0.17522 0.27528 0.23775 0.0
C262 C 0.23805 0.2049 0.08449 0.0
C263 C 0.26967 0.22012 0.05625 0.0
C264 C 0.30005 0.26865 0.06867 0.0
C265 C 0.29853 0.30194 0.10818 0.0
C266 C 0.26572 0.28649 0.13434 0.0
C267 C 0.23609 0.2391 0.12314 0.0
C268 C 0.20211 0.23285 0.15552 0.0
C269 C 0.13541 0.2289 0.11832 0.0
C270 C 0.22461 0.18516 0.19327 0.0
C271 C 0.2176 0.28397 0.18684 0.0
C272 C 0.2545 0.31428 0.17419 0.0
C273 C 0.2769 0.36208 0.19981 0.0
C274 C 0.26198 0.37885 0.24012 0.0
C275 C 0.22424 0.34837 0.25353 0.0
C276 C 0.20161 0.30057 0.22631 0.0
H277 H 0.8094 0.76316 0.26488 0.0
H278 H 0.89016 0.91035 0.34045 0.0
H279 H 0.88589 0.88298 0.42408 0.0
H280 H 0.71099 0.74875 0.32178 0.0
H281 H 0.72118 0.67896 0.33241 0.0
H282 H 0.73134 0.70938 0.27893 0.0
H283 H 0.83684 0.67082 0.3174 0.0
H284 H 0.82696 0.63988 0.37082 0.0
H285 H 0.88862 0.68315 0.38677 0.0
H286 H 0.86516 0.84335 0.4949 0.0
H287 H 0.84179 0.79044 0.55552 0.0
H288 H 0.78152 0.6634 0.43819 0.0
C289 C 0.8263 0.78944 0.29927 0.0
C290 C 0.84944 0.83917 0.29652 0.0
C291 C 0.87218 0.87231 0.34212 0.0
C292 C 0.86975 0.85707 0.38948 0.0
C293 C 0.8458 0.80809 0.39066 0.0
C294 C 0.82562 0.77423 0.34725 0.0
C295 C 0.80344 0.72324 0.35978 0.0
C296 C 0.73784 0.7146 0.32091 0.0
C297 C 0.84124 0.67652 0.35865 0.0
C298 C 0.81262 0.73436 0.41664 0.0
C299 C 0.83677 0.78374 0.43315 0.0
C300 C 0.84704 0.8044 0.48274 0.0
C301 C 0.83313 0.77377 0.51682 0.0
C302 C 0.80976 0.72227 0.50196 0.0
C303 C 0.79939 0.70236 0.45092 0.0
H304 H 0.78659 0.85945 0.94636 0.0
H305 H 0.74323 0.72395 1.01534 0.0
H306 H 0.74607 0.66761 0.94447 0.0
H307 H 0.70447 0.81561 0.80165 0.0
H308 H 0.76045 0.84168 0.78572 0.0
H309 H 0.74612 0.87258 0.8369 0.0
H310 H 0.85572 0.86306 0.90321 0.0
H311 H 0.87139 0.82944 0.85438 0.0
H312 H 0.88973 0.79901 0.91847 0.0
H313 H 0.76363 0.62415 0.87235 0.0
H314 H 0.79003 0.59789 0.80006 0.0
H315 H 0.82425 0.76041 0.77904 0.0
C316 C 0.77551 0.81831 0.94522 0.0
C317 C 0.76391 0.79615 0.98588 0.0
C318 C 0.75173 0.74177 0.98427 0.0
C319 C 0.75331 0.70941 0.94423 0.0
C320 C 0.76716 0.73195 0.90596 0.0
C321 C 0.77734 0.78524 0.90558 0.0
C322 C 0.79521 0.7987 0.86201 0.0
C323 C 0.74878 0.83423 0.81901 0.0
C324 C 0.85674 0.82397 0.88602 0.0
C325 C 0.79558 0.74455 0.83954 0.0
C326 C 0.77851 0.70664 0.86495 0.0
C327 C 0.7766 0.65352 0.85182 0.0
C328 C 0.79192 0.63887 0.81116 0.0
C329 C 0.80938 0.67719 0.78485 0.0
C330 C 0.81125 0.73055 0.79913 0.0
H331 H 0.17831 0.237 0.72881 0.0
H332 H 0.32376 0.12651 0.78826 0.0
H333 H 0.35198 0.15677 0.71843 0.0
H334 H 0.14157 0.22624 0.58796 0.0
H335 H 0.1227 0.29453 0.57603 0.0
H336 H 0.1146 0.26116 0.62875 0.0
H337 H 0.18057 0.3313 0.69657 0.0
H338 H 0.19165 0.36428 0.6448 0.0
H339 H 0.25431 0.34201 0.70503 0.0
H340 H 0.36126 0.1984 0.63891 0.0
H341 H 0.35542 0.25164 0.56197 0.0
H342 H 0.21188 0.34149 0.56376 0.0
C343 C 0.21559 0.21863 0.7266 0.0
C344 C 0.2482 0.1787 0.76297 0.0
C345 C 0.2978 0.15669 0.76006 0.0
C346 C 0.31416 0.17374 0.72071 0.0
C347 C 0.28122 0.21366 0.6856 0.0
C348 C 0.23347 0.2362 0.68884 0.0
C349 C 0.20616 0.27938 0.64778 0.0
C350 C 0.14258 0.26445 0.60774 0.0
C351 C 0.20832 0.33236 0.67521 0.0
C352 C 0.2468 0.27874 0.62147 0.0
C353 C 0.28901 0.23973 0.64288 0.0
C354 C 0.32906 0.2296 0.62251 0.0
C355 C 0.32568 0.26005 0.5791 0.0
C356 C 0.28399 0.30116 0.55797 0.0
C357 C 0.24468 0.31084 0.57991 0.0
H358 H 0.45111 0.39575 0.49914 0.0
H359 H 0.33423 0.52693 0.42067 0.0
H360 H 0.41948 0.58455 0.44503 0.0
H361 H 0.5569 0.4673 0.60968 0.0
H362 H 0.62102 0.4343 0.61259 0.0
H363 H 0.55124 0.40069 0.58585 0.0
H364 H 0.55702 0.38221 0.49689 0.0
H365 H 0.62719 0.41528 0.52363 0.0
H366 H 0.56771 0.43601 0.46037 0.0
H367 H 0.51445 0.63087 0.48464 0.0
H368 H 0.61722 0.6618 0.52978 0.0
H369 H 0.677 0.50236 0.58057 0.0
C370 C 0.44373 0.43627 0.48613 0.0
C371 C 0.38574 0.45675 0.45827 0.0
C372 C 0.37802 0.51027 0.44251 0.0
C373 C 0.42623 0.54351 0.45607 0.0
C374 C 0.48252 0.52291 0.4851 0.0
C375 C 0.49196 0.47048 0.4993 0.0
C376 C 0.55773 0.45957 0.53158 0.0
C377 C 0.57257 0.43927 0.58829 0.0
C378 C 0.57865 0.42098 0.5013 0.0
C379 C 0.58305 0.51417 0.53399 0.0
C380 C 0.53855 0.54994 0.50695 0.0
C381 C 0.54992 0.60318 0.50534 0.0
C382 C 0.60851 0.62045 0.53145 0.0
C383 C 0.65537 0.58463 0.55852 0.0
C384 C 0.64223 0.53068 0.55974 0.0
H385 H 0.44497 0.11826 0.99594 0.0
H386 H 0.33018 0.98323 0.96703 0.0
H387 H 0.41573 0.925 1.00271 0.0
H388 H 0.54785 0.05245 0.9583 0.0
H389 H 0.61218 0.08431 1.00947 0.0
H390 H 0.54166 0.11692 0.98208 0.0
H391 H 0.5518 0.12774 0.07846 0.0
H392 H 0.62214 0.09475 0.10606 0.0
H393 H 0.56422 0.07061 0.12033 0.0
H394 H 0.51223 0.87983 0.0424 0.0
H395 H 0.61559 0.85041 0.07785 0.0
H396 H 0.67028 0.01223 0.08054 0.0
C397 C 0.43793 0.07649 0.99698 0.0
C398 C 0.38039 0.05588 0.97895 0.0
C399 C 0.37343 1.00067 0.98093 0.0
C400 C 0.42191 0.96685 1.00125 0.0
C401 C 0.47774 0.98825 1.01944 0.0
C402 C 0.48632 0.0416 1.01715 0.0
C403 C 0.55159 0.05349 0.03855 0.0
C404 C 0.56404 0.07825 0.99447 0.0
C405 C 0.57373 0.08874 0.08884 0.0
C406 C 0.57764 0.99856 0.05283 0.0
C407 C 0.53414 0.96167 0.0418 0.0
C408 C 0.5469 0.9083 0.05121 0.0
C409 C 0.6058 0.89193 0.07156 0.0
C410 C 0.65125 0.92877 0.08199 0.0
C411 C 0.63671 0.98291 0.07304 0.0
loop_
_geom_bond_atom_site_label_1
_geom_bond_atom_site_label_2
_geom_bond_distance
_geom_bond_site_symmetry_2
_ccdc_geom_bond_type
Fe0 O2 1.918 . S
Fe0 O5 1.997 . S
Fe0 O6 2.002 . S
Fe0 O11 1.976 . S
Fe0 O14 1.996 . S
Fe1 O2 1.918 . S
Fe1 O9 1.997 . S
Fe1 O12 1.996 . S
Fe1 O16 1.976 . S
Fe1 O19 2.002 . S
O2 Fe0 1.918 . S
O2 Fe1 1.918 . S
O2 Fe3 1.918 . S
Fe3 O2 1.918 . S
Fe3 O4 2.002 . S
Fe3 O13 1.976 . S
Fe3 O17 1.996 . S
Fe3 O20 1.997 . S
O4 Fe3 2.002 . S
O4 C21 1.295 . S
O5 Fe0 1.997 . S
O5 C21 1.235 . S
O6 Fe0 2.002 . S
O6 C7 1.295 . S
C7 O6 1.295 . S
C7 O9 1.235 . S
C8 O13 1.287 . S
C8 O14 1.255 . S
O9 Fe1 1.997 . S
O9 C7 1.235 . S
C10 O16 1.287 . S
C10 O17 1.255 . S
O11 Fe0 1.976 . S
O11 C18 1.287 . S
O12 Fe1 1.996 . S
O12 C18 1.255 . S
O13 Fe3 1.976 . S
O13 C8 1.287 . S
O14 Fe0 1.996 . S
O14 C8 1.255 . S
C15 O19 1.295 . S
C15 O20 1.235 . S
O16 Fe1 1.976 . S
O16 C10 1.287 . S
O17 Fe3 1.996 . S
O17 C10 1.255 . S
C18 O11 1.287 . S
C18 O12 1.255 . S
O19 Fe1 2.002 . S
O19 C15 1.295 . S
O20 Fe3 1.997 . S
O20 C15 1.235 . S
C21 O4 1.295 . S
C21 O5 1.235 . S
Fe22 O24 1.918 . S
Fe22 O27 1.997 . S
Fe22 O28 2.002 . S
Fe22 O33 1.976 . S
Fe22 O36 1.996 . S
Fe23 O24 1.918 . S
Fe23 O31 1.997 . S
Fe23 O34 1.996 . S
Fe23 O38 1.976 . S
Fe23 O41 2.002 . S
O24 Fe22 1.918 . S
O24 Fe23 1.918 . S
O24 Fe25 1.918 . S
Fe25 O24 1.918 . S
Fe25 O26 2.002 . S
Fe25 O35 1.976 . S
Fe25 O39 1.996 . S
Fe25 O42 1.997 . S
O26 Fe25 2.002 . S
O26 C43 1.295 . S
O27 Fe22 1.997 . S
O27 C43 1.235 . S
O28 Fe22 2.002 . S
O28 C29 1.295 1_554 S
C29 O28 1.295 1_556 S
C29 O31 1.235 1_556 S
C30 O35 1.287 . S
C30 O36 1.255 . S
O31 Fe23 1.997 . S
O31 C29 1.235 1_554 S
C32 O38 1.287 1_545 S
C32 O39 1.255 1_545 S
O33 Fe22 1.976 . S
O33 C40 1.287 . S
O34 Fe23 1.996 . S
O34 C40 1.255 . S
O35 Fe25 1.976 . S
O35 C30 1.287 . S
O36 Fe22 1.996 . S
O36 C30 1.255 . S
C37 O41 1.295 . S
C37 O42 1.235 . S
O38 Fe23 1.976 . S
O38 C32 1.287 1_565 S
O39 Fe25 1.996 . S
O39 C32 1.255 1_565 S
C40 O33 1.287 . S
C40 O34 1.255 . S
O41 Fe23 2.002 . S
O41 C37 1.295 . S
O42 Fe25 1.997 . S
O42 C37 1.235 . S
C43 O26 1.295 . S
C43 O27 1.235 . S
Fe44 O46 1.918 . S
Fe44 O49 1.997 . S
Fe44 O50 2.002 . S
Fe44 O55 1.976 . S
Fe44 O58 1.996 . S
Fe45 O46 1.918 . S
Fe45 O53 1.997 . S
Fe45 O56 1.996 . S
Fe45 O60 1.976 . S
Fe45 O63 2.002 . S
O46 Fe44 1.918 . S
O46 Fe45 1.918 . S
O46 Fe47 1.918 . S
Fe47 O46 1.918 . S
Fe47 O48 2.002 . S
Fe47 O57 1.976 . S
Fe47 O61 1.996 . S
Fe47 O64 1.997 . S
O48 Fe47 2.002 . S
O48 C65 1.295 . S
O49 Fe44 1.997 . S
O49 C65 1.235 . S
O50 Fe44 2.002 . S
O50 C51 1.295 . S
C51 O50 1.295 . S
C51 O53 1.235 . S
C52 O57 1.287 . S
C52 O58 1.255 . S
O53 Fe45 1.997 . S
O53 C51 1.235 . S
C54 O60 1.287 . S
C54 O61 1.255 . S
O55 Fe44 1.976 . S
O55 C62 1.287 . S
O56 Fe45 1.996 . S
O56 C62 1.255 . S
O57 Fe47 1.976 . S
O57 C52 1.287 . S
O58 Fe44 1.996 . S
O58 C52 1.255 . S
C59 O63 1.295 . S
C59 O64 1.235 . S
O60 Fe45 1.976 . S
O60 C54 1.287 . S
O61 Fe47 1.996 . S
O61 C54 1.255 . S
C62 O55 1.287 . S
C62 O56 1.255 . S
O63 Fe45 2.002 . S
O63 C59 1.295 . S
O64 Fe47 1.997 . S
O64 C59 1.235 . S
C65 O48 1.295 . S
C65 O49 1.235 . S
Fe66 O68 1.918 . S
Fe66 O71 1.997 . S
Fe66 O72 2.002 . S
Fe66 O77 1.976 . S
Fe66 O80 1.996 . S
Fe67 O68 1.918 . S
Fe67 O75 1.997 . S
Fe67 O78 1.996 . S
Fe67 O82 1.976 . S
Fe67 O85 2.002 . S
O68 Fe66 1.918 . S
O68 Fe67 1.918 . S
O68 Fe69 1.918 . S
Fe69 O68 1.918 . S
Fe69 O70 2.002 . S
Fe69 O79 1.976 . S
Fe69 O83 1.996 . S
Fe69 O86 1.997 . S
O70 Fe69 2.002 . S
O70 C87 1.295 . S
O71 Fe66 1.997 . S
O71 C87 1.235 . S
O72 Fe66 2.002 . S
O72 C73 1.295 1_556 S
C73 O72 1.295 1_554 S
C73 O75 1.235 1_554 S
C74 O79 1.287 . S
C74 O80 1.255 . S
O75 Fe67 1.997 . S
O75 C73 1.235 1_556 S
C76 O82 1.287 1_565 S
C76 O83 1.255 1_565 S
O77 Fe66 1.976 . S
O77 C84 1.287 . S
O78 Fe67 1.996 . S
O78 C84 1.255 . S
O79 Fe69 1.976 . S
O79 C74 1.287 . S
O80 Fe66 1.996 . S
O80 C74 1.255 . S
C81 O85 1.295 . S
C81 O86 1.235 . S
O82 Fe67 1.976 . S
O82 C76 1.287 1_545 S
O83 Fe69 1.996 . S
O83 C76 1.255 1_545 S
C84 O77 1.287 . S
C84 O78 1.255 . S
O85 Fe67 2.002 . S
O85 C81 1.295 . S
O86 Fe69 1.997 . S
O86 C81 1.235 . S
C87 O70 1.295 . S
C87 O71 1.235 . S
H88 C100 0.930 . S
H89 C102 0.930 . S
H90 C103 0.930 . S
H91 C107 0.959 . S
H92 C107 0.959 . S
H93 C107 0.961 . S
H94 C108 0.960 . S
H95 C108 0.961 . S
H96 C108 0.959 . S
H97 C111 0.929 . S
H98 C112 0.931 . S
H99 C114 0.930 . S
C100 H88 0.930 . S
C100 C101 1.399 . S
C100 C105 1.399 . S
C101 C100 1.399 . S
C101 C102 1.376 . S
C102 H89 0.930 . S
C102 C101 1.376 . S
C102 C103 1.388 . S
C103 H90 0.930 . S
C103 C102 1.388 . S
C103 C104 1.390 . S
C104 C103 1.390 . S
C104 C105 1.394 . S
C104 C110 1.465 . S
C105 C100 1.399 . S
C105 C104 1.394 . S
C105 C106 1.516 . S
C106 C105 1.516 . S
C106 C107 1.502 . S
C106 C108 1.561 1_655 S
C106 C109 1.526 1_655 S
C107 H91 0.959 . S
C107 H92 0.959 . S
C107 H93 0.961 . S
C107 C106 1.502 . S
C108 H94 0.960 . S
C108 H95 0.961 . S
C108 H96 0.959 . S
C108 C106 1.561 1_455 S
C109 C106 1.526 1_455 S
C109 C110 1.396 1_455 S
C109 C114 1.390 . S
C110 C104 1.465 . S
C110 C109 1.396 1_655 S
C110 C111 1.399 1_655 S
C111 H97 0.929 . S
C111 C110 1.399 1_455 S
C111 C112 1.385 . S
C112 H98 0.931 . S
C112 C111 1.385 . S
C112 C113 1.389 . S
C113 C112 1.389 . S
C113 C114 1.387 . S
C114 H99 0.930 . S
C114 C109 1.390 . S
C114 C113 1.387 . S
H115 C127 0.930 . S
H116 C129 0.930 . S
H117 C130 0.930 . S
H118 C134 0.959 . S
H119 C134 0.959 . S
H120 C134 0.961 . S
H121 C135 0.960 . S
H122 C135 0.961 . S
H123 C135 0.959 . S
H124 C138 0.929 . S
H125 C139 0.931 . S
H126 C141 0.930 . S
C127 H115 0.930 . S
C127 C128 1.399 . S
C127 C132 1.399 . S
C128 C127 1.399 . S
C128 C129 1.376 . S
C129 H116 0.930 . S
C129 C128 1.376 . S
C129 C130 1.388 . S
C130 H117 0.930 . S
C130 C129 1.388 . S
C130 C131 1.390 . S
C131 C130 1.390 . S
C131 C132 1.394 . S
C131 C137 1.465 . S
C132 C127 1.399 . S
C132 C131 1.394 . S
C132 C133 1.516 1_455 S
C133 C132 1.516 1_655 S
C133 C134 1.502 . S
C133 C135 1.561 . S
C133 C136 1.526 . S
C134 H118 0.959 . S
C134 H119 0.959 . S
C134 H120 0.961 . S
C134 C133 1.502 . S
C135 H121 0.960 . S
C135 H122 0.961 . S
C135 H123 0.959 . S
C135 C133 1.561 . S
C136 C133 1.526 . S
C136 C137 1.396 1_655 S
C136 C141 1.390 . S
C137 C131 1.465 . S
C137 C136 1.396 1_455 S
C137 C138 1.399 . S
C138 H124 0.929 . S
C138 C137 1.399 . S
C138 C139 1.385 1_455 S
C139 H125 0.931 . S
C139 C138 1.385 1_655 S
C139 C140 1.389 . S
C140 C139 1.389 . S
C140 C141 1.387 . S
C141 H126 0.930 . S
C141 C136 1.390 . S
C141 C140 1.387 . S
H142 C154 0.930 . S
H143 C156 0.930 1_545 S
H144 C157 0.930 . S
H145 C161 0.959 . S
H146 C161 0.959 . S
H147 C161 0.961 . S
H148 C162 0.960 . S
H149 C162 0.961 1_655 S
H150 C162 0.959 1_655 S
H151 C165 0.929 . S
H152 C166 0.931 . S
H153 C168 0.930 . S
C154 H142 0.930 . S
C154 C155 1.399 . S
C154 C159 1.399 . S
C155 C154 1.399 . S
C155 C156 1.376 . S
C156 H143 0.930 1_565 S
C156 C155 1.376 . S
C156 C157 1.388 . S
C157 H144 0.930 . S
C157 C156 1.388 . S
C157 C158 1.390 . S
C158 C157 1.390 . S
C158 C159 1.394 . S
C158 C164 1.465 1_455 S
C159 C154 1.399 . S
C159 C158 1.394 . S
C159 C160 1.516 . S
C160 C159 1.516 . S
C160 C161 1.502 . S
C160 C162 1.561 . S
C160 C163 1.526 1_455 S
C161 H145 0.959 . S
C161 H146 0.959 . S
C161 H147 0.961 . S
C161 C160 1.502 . S
C162 H148 0.960 . S
C162 H149 0.961 1_455 S
C162 H150 0.959 1_455 S
C162 C160 1.561 . S
C163 C160 1.526 1_655 S
C163 C164 1.396 . S
C163 C168 1.390 . S
C164 C158 1.465 1_655 S
C164 C163 1.396 . S
C164 C165 1.399 . S
C165 H151 0.929 . S
C165 C164 1.399 . S
C165 C166 1.385 . S
C166 H152 0.931 . S
C166 C165 1.385 . S
C166 C167 1.389 . S
C167 C166 1.389 . S
C167 C168 1.387 . S
C168 H153 0.930 . S
C168 C163 1.390 . S
C168 C167 1.387 . S
H169 C181 0.930 . S
H170 C183 0.930 . S
H171 C184 0.930 . S
H172 C188 0.959 . S
H173 C188 0.959 . S
H174 C188 0.961 . S
H175 C189 0.960 . S
H176 C189 0.961 . S
H177 C189 0.959 1_455 S
H178 C192 0.929 . S
H179 C193 0.931 . S
H180 C195 0.930 . S
C181 H169 0.930 . S
C181 C182 1.399 . S
C181 C186 1.399 . S
C182 C181 1.399 . S
C182 C183 1.376 . S
C183 H170 0.930 . S
C183 C182 1.376 . S
C183 C184 1.388 . S
C184 H171 0.930 . S
C184 C183 1.388 . S
C184 C185 1.390 . S
C185 C184 1.390 . S
C185 C186 1.394 . S
C185 C191 1.465 1_655 S
C186 C181 1.399 . S
C186 C185 1.394 . S
C186 C187 1.516 . S
C187 C186 1.516 . S
C187 C188 1.502 . S
C187 C189 1.561 . S
C187 C190 1.526 1_655 S
C188 H172 0.959 . S
C188 H173 0.959 . S
C188 H174 0.961 . S
C188 C187 1.502 . S
C189 H175 0.960 . S
C189 H176 0.961 . S
C189 H177 0.959 1_655 S
C189 C187 1.561 . S
C190 C187 1.526 1_455 S
C190 C191 1.396 . S
C190 C195 1.390 . S
C191 C185 1.465 1_455 S
C191 C190 1.396 . S
C191 C192 1.399 . S
C192 H178 0.929 . S
C192 C191 1.399 . S
C192 C193 1.385 . S
C193 H179 0.931 . S
C193 C192 1.385 . S
C193 C194 1.389 . S
C194 C193 1.389 . S
C194 C195 1.387 . S
C195 H180 0.930 . S
C195 C190 1.390 . S
C195 C194 1.387 . S
H196 C208 0.930 . S
H197 C210 0.930 . S
H198 C211 0.930 . S
H199 C215 0.959 . S
H200 C215 0.959 . S
H201 C215 0.961 . S
H202 C216 0.960 . S
H203 C216 0.961 . S
H204 C216 0.959 . S
H205 C219 0.929 . S
H206 C220 0.931 . S
H207 C222 0.930 . S
C208 H196 0.930 . S
C208 C209 1.399 . S
C208 C213 1.399 . S
C209 C208 1.399 . S
C209 C210 1.376 . S
C210 H197 0.930 . S
C210 C209 1.376 . S
C210 C211 1.388 1_655 S
C211 H198 0.930 . S
C211 C210 1.388 1_455 S
C211 C212 1.390 . S
C212 C211 1.390 . S
C212 C213 1.394 1_455 S
C212 C218 1.465 . S
C213 C208 1.399 . S
C213 C212 1.394 1_655 S
C213 C214 1.516 . S
C214 C213 1.516 . S
C214 C215 1.502 . S
C214 C216 1.561 1_655 S
C214 C217 1.526 1_655 S
C215 H199 0.959 . S
C215 H200 0.959 . S
C215 H201 0.961 . S
C215 C214 1.502 . S
C216 H202 0.960 . S
C216 H203 0.961 . S
C216 H204 0.959 . S
C216 C214 1.561 1_455 S
C217 C214 1.526 1_455 S
C217 C218 1.396 . S
C217 C222 1.390 . S
C218 C212 1.465 . S
C218 C217 1.396 . S
C218 C219 1.399 . S
C219 H205 0.929 . S
C219 C218 1.399 . S
C219 C220 1.385 . S
C220 H206 0.931 . S
C220 C219 1.385 . S
C220 C221 1.389 . S
C221 C220 1.389 . S
C221 C222 1.387 . S
C222 H207 0.930 . S
C222 C217 1.390 . S
C222 C221 1.387 . S
H223 C235 0.930 1_545 S
H224 C237 0.930 . S
H225 C238 0.930 1_456 S
H226 C242 0.959 1_556 S
H227 C242 0.959 . S
H228 C242 0.961 . S
H229 C243 0.960 . S
H230 C243 0.961 . S
H231 C243 0.959 . S
H232 C246 0.929 . S
H233 C247 0.931 1_565 S
H234 C249 0.930 . S
C235 H223 0.930 1_565 S
C235 C236 1.399 . S
C235 C240 1.399 . S
C236 C235 1.399 . S
C236 C237 1.376 . S
C237 H224 0.930 . S
C237 C236 1.376 . S
C237 C238 1.388 . S
C238 H225 0.930 1_654 S
C238 C237 1.388 . S
C238 C239 1.393 . S
C239 C238 1.393 . S
C239 C240 1.402 . S
C239 C245 1.456 1_654 S
C240 C235 1.399 . S
C240 C239 1.402 . S
C240 C241 1.516 1_565 S
C241 C240 1.516 1_545 S
C241 C242 1.502 . S
C241 C243 1.561 1_655 S
C241 C244 1.526 1_654 S
C242 H226 0.959 1_554 S
C242 H227 0.959 . S
C242 H228 0.961 . S
C242 C241 1.502 . S
C243 H229 0.960 . S
C243 H230 0.961 . S
C243 H231 0.959 . S
C243 C241 1.561 1_455 S
C244 C241 1.526 1_456 S
C244 C245 1.396 1_545 S
C244 C249 1.390 . S
C245 C239 1.456 1_456 S
C245 C244 1.396 1_565 S
C245 C246 1.399 . S
C246 H232 0.929 . S
C246 C245 1.399 . S
C246 C247 1.385 1_565 S
C247 H233 0.931 1_545 S
C247 C246 1.385 1_545 S
C247 C248 1.389 . S
C248 C247 1.389 . S
C248 C249 1.387 . S
C249 H234 0.930 . S
C249 C244 1.390 . S
C249 C248 1.387 . S
H250 C262 0.930 . S
H251 C264 0.930 . S
H252 C265 0.930 . S
H253 C269 0.959 . S
H254 C269 0.959 . S
H255 C269 0.961 . S
H256 C270 0.960 . S
H257 C270 0.961 . S
H258 C270 0.959 . S
H259 C273 0.929 . S
H260 C274 0.931 . S
H261 C276 0.930 . S
C262 H250 0.930 . S
C262 C263 1.399 . S
C262 C267 1.399 . S
C263 C262 1.399 . S
C263 C264 1.376 . S
C264 H251 0.930 . S
C264 C263 1.376 . S
C264 C265 1.388 . S
C265 H252 0.930 . S
C265 C264 1.388 . S
C265 C266 1.390 . S
C266 C265 1.390 . S
C266 C267 1.394 . S
C266 C272 1.465 . S
C267 C262 1.399 . S
C267 C266 1.394 . S
C267 C268 1.516 . S
C268 C267 1.516 . S
C268 C269 1.502 . S
C268 C270 1.561 . S
C268 C271 1.526 . S
C269 H253 0.959 . S
C269 H254 0.959 . S
C269 H255 0.961 . S
C269 C268 1.502 . S
C270 H256 0.960 . S
C270 H257 0.961 . S
C270 H258 0.959 . S
C270 C268 1.561 . S
C271 C268 1.526 . S
C271 C272 1.396 . S
C271 C276 1.390 . S
C272 C266 1.465 . S
C272 C271 1.396 . S
C272 C273 1.399 . S
C273 H259 0.929 . S
C273 C272 1.399 . S
C273 C274 1.385 . S
C274 H260 0.931 . S
C274 C273 1.385 . S
C274 C275 1.389 . S
C275 C274 1.389 . S
C275 C276 1.387 . S
C276 H261 0.930 . S
C276 C271 1.390 . S
C276 C275 1.387 . S
H277 C289 0.930 . S
H278 C291 0.930 . S
H279 C292 0.930 . S
H280 C296 0.959 . S
H281 C296 0.959 . S
H282 C296 0.961 . S
H283 C297 0.960 . S
H284 C297 0.961 . S
H285 C297 0.959 . S
H286 C300 0.929 . S
H287 C301 0.931 . S
H288 C303 0.930 . S
C289 H277 0.930 . S
C289 C290 1.399 . S
C289 C294 1.399 . S
C290 C289 1.399 . S
C290 C291 1.376 . S
C291 H278 0.930 . S
C291 C290 1.376 . S
C291 C292 1.388 . S
C292 H279 0.930 . S
C292 C291 1.388 . S
C292 C293 1.390 . S
C293 C292 1.390 . S
C293 C294 1.394 . S
C293 C299 1.465 . S
C294 C289 1.399 . S
C294 C293 1.394 . S
C294 C295 1.516 . S
C295 C294 1.516 . S
C295 C296 1.502 . S
C295 C297 1.561 . S
C295 C298 1.526 . S
C296 H280 0.959 . S
C296 H281 0.959 . S
C296 H282 0.961 . S
C296 C295 1.502 . S
C297 H283 0.960 . S
C297 H284 0.961 . S
C297 H285 0.959 . S
C297 C295 1.561 . S
C298 C295 1.526 . S
C298 C299 1.396 . S
C298 C303 1.390 . S
C299 C293 1.465 . S
C299 C298 1.396 . S
C299 C300 1.399 . S
C300 H286 0.929 . S
C300 C299 1.399 . S
C300 C301 1.385 . S
C301 H287 0.931 . S
C301 C300 1.385 . S
C301 C302 1.389 . S
C302 C301 1.389 . S
C302 C303 1.387 . S
C303 H288 0.930 . S
C303 C298 1.390 . S
C303 C302 1.387 . S
H304 C316 0.930 . S
H305 C318 0.930 1_554 S
H306 C319 0.930 . S
H307 C323 0.959 . S
H308 C323 0.959 . S
H309 C323 0.961 . S
H310 C324 0.960 . S
H311 C324 0.961 . S
H312 C324 0.959 . S
H313 C327 0.929 . S
H314 C328 0.931 . S
H315 C330 0.930 . S
C316 H304 0.930 . S
C316 C317 1.399 . S
C316 C321 1.399 . S
C317 C316 1.399 . S
C317 C318 1.376 . S
C318 H305 0.930 1_556 S
C318 C317 1.376 . S
C318 C319 1.388 . S
C319 H306 0.930 . S
C319 C318 1.388 . S
C319 C320 1.390 . S
C320 C319 1.390 . S
C320 C321 1.394 . S
C320 C326 1.465 . S
C321 C316 1.399 . S
C321 C320 1.394 . S
C321 C322 1.516 . S
C322 C321 1.516 . S
C322 C323 1.502 . S
C322 C324 1.561 . S
C322 C325 1.526 . S
C323 H307 0.959 . S
C323 H308 0.959 . S
C323 H309 0.961 . S
C323 C322 1.502 . S
C324 H310 0.960 . S
C324 H311 0.961 . S
C324 H312 0.959 . S
C324 C322 1.561 . S
C325 C322 1.526 . S
C325 C326 1.396 . S
C325 C330 1.390 . S
C326 C320 1.465 . S
C326 C325 1.396 . S
C326 C327 1.399 . S
C327 H313 0.929 . S
C327 C326 1.399 . S
C327 C328 1.385 . S
C328 H314 0.931 . S
C328 C327 1.385 . S
C328 C329 1.389 . S
C329 C328 1.389 . S
C329 C330 1.387 . S
C330 H315 0.930 . S
C330 C325 1.390 . S
C330 C329 1.387 . S
H331 C343 0.930 . S
H332 C345 0.930 . S
H333 C346 0.930 . S
H334 C350 0.959 . S
H335 C350 0.959 . S
H336 C350 0.961 . S
H337 C351 0.960 . S
H338 C351 0.961 . S
H339 C351 0.959 . S
H340 C354 0.929 . S
H341 C355 0.931 . S
H342 C357 0.930 . S
C343 H331 0.930 . S
C343 C344 1.399 . S
C343 C348 1.399 . S
C344 C343 1.399 . S
C344 C345 1.376 . S
C345 H332 0.930 . S
C345 C344 1.376 . S
C345 C346 1.388 . S
C346 H333 0.930 . S
C346 C345 1.388 . S
C346 C347 1.390 . S
C347 C346 1.390 . S
C347 C348 1.394 . S
C347 C353 1.465 . S
C348 C343 1.399 . S
C348 C347 1.394 . S
C348 C349 1.516 . S
C349 C348 1.516 . S
C349 C350 1.502 . S
C349 C351 1.561 . S
C349 C352 1.526 . S
C350 H334 0.959 . S
C350 H335 0.959 . S
C350 H336 0.961 . S
C350 C349 1.502 . S
C351 H337 0.960 . S
C351 H338 0.961 . S
C351 H339 0.959 . S
C351 C349 1.561 . S
C352 C349 1.526 . S
C352 C353 1.396 . S
C352 C357 1.390 . S
C353 C347 1.465 . S
C353 C352 1.396 . S
C353 C354 1.399 . S
C354 H340 0.929 . S
C354 C353 1.399 . S
C354 C355 1.385 . S
C355 H341 0.931 . S
C355 C354 1.385 . S
C355 C356 1.389 . S
C356 C355 1.389 . S
C356 C357 1.387 . S
C357 H342 0.930 . S
C357 C352 1.390 . S
C357 C356 1.387 . S
H358 C370 0.930 . S
H359 C372 0.930 . S
H360 C373 0.930 . S
H361 C377 0.959 . S
H362 C377 0.959 . S
H363 C377 0.961 . S
H364 C378 0.960 . S
H365 C378 0.961 . S
H366 C378 0.959 . S
H367 C381 0.929 . S
H368 C382 0.931 . S
H369 C384 0.930 . S
C370 H358 0.930 . S
C370 C371 1.399 . S
C370 C375 1.399 . S
C371 C370 1.399 . S
C371 C372 1.376 . S
C372 H359 0.930 . S
C372 C371 1.376 . S
C372 C373 1.388 . S
C373 H360 0.930 . S
C373 C372 1.388 . S
C373 C374 1.390 . S
C374 C373 1.390 . S
C374 C375 1.394 . S
C374 C380 1.465 . S
C375 C370 1.399 . S
C375 C374 1.394 . S
C375 C376 1.516 . S
C376 C375 1.516 . S
C376 C377 1.502 . S
C376 C378 1.561 . S
C376 C379 1.526 . S
C377 H361 0.959 . S
C377 H362 0.959 . S
C377 H363 0.961 . S
C377 C376 1.502 . S
C378 H364 0.960 . S
C378 H365 0.961 . S
C378 H366 0.959 . S
C378 C376 1.561 . S
C379 C376 1.526 . S
C379 C380 1.396 . S
C379 C384 1.390 . S
C380 C374 1.465 . S
C380 C379 1.396 . S
C380 C381 1.399 . S
C381 H367 0.929 . S
C381 C380 1.399 . S
C381 C382 1.385 . S
C382 H368 0.931 . S
C382 C381 1.385 . S
C382 C383 1.389 . S
C383 C382 1.389 . S
C383 C384 1.387 . S
C384 H369 0.930 . S
C384 C379 1.390 . S
C384 C383 1.387 . S
H385 C397 0.930 . S
H386 C399 0.930 . S
H387 C400 0.930 1_565 S
H388 C404 0.959 . S
H389 C404 0.959 . S
H390 C404 0.961 . S
H391 C405 0.960 . S
H392 C405 0.961 . S
H393 C405 0.959 . S
H394 C408 0.929 . S
H395 C409 0.931 . S
H396 C411 0.930 . S
C397 H385 0.930 . S
C397 C398 1.399 1_554 S
C397 C402 1.399 . S
C398 C397 1.399 1_556 S
C398 C399 1.376 . S
C399 H386 0.930 . S
C399 C398 1.376 . S
C399 C400 1.388 . S
C400 H387 0.930 1_545 S
C400 C399 1.388 . S
C400 C401 1.390 . S
C401 C400 1.390 . S
C401 C402 1.394 1_556 S
C401 C407 1.465 1_545 S
C402 C397 1.399 . S
C402 C401 1.394 1_554 S
C402 C403 1.516 . S
C403 C402 1.516 . S
C403 C404 1.502 . S
C403 C405 1.561 1_545 S
C403 C406 1.526 1_545 S
C404 H388 0.959 . S
C404 H389 0.959 . S
C404 H390 0.961 . S
C404 C403 1.502 . S
C405 H391 0.960 . S
C405 H392 0.961 . S
C405 H393 0.959 . S
C405 C403 1.561 1_565 S
C406 C403 1.526 1_565 S
C406 C407 1.396 1_554 S
C406 C411 1.390 . S
C407 C401 1.465 1_565 S
C407 C406 1.396 1_556 S
C407 C408 1.399 . S
C408 H394 0.929 . S
C408 C407 1.399 . S
C408 C409 1.385 . S
C409 H395 0.931 . S
C409 C408 1.385 . S
C409 C410 1.389 1_556 S
C410 C409 1.389 1_554 S
C410 C411 1.387 . S
C411 H396 0.930 . S
C411 C406 1.390 . S
C411 C410 1.387 . S
C101 C32 1.463 . S
C113 C7 1.466 . S
C128 C8 1.511 . S
C140 C43 1.484 . S
C155 C76 1.442 . S
C167 C59 1.533 . S
C182 C62 1.436 . S
C194 C87 1.530 . S
C209 C51 1.000 . S
C221 C21 0.993 . S
C236 C37 1.043 . S
C248 C81 0.940 . S
C263 C73 1.566 . S
C275 C18 1.558 . S
C290 C30 1.562 . S
C302 C65 1.537 . S
C317 C29 1.530 . S
C329 C54 1.564 . S
C344 C74 1.558 . S
C356 C15 1.553 . S
C371 C10 1.536 . S
C383 C52 1.561 . S
C398 C84 1.545 . S
C410 C40 1.550 . S
