# Generated by pormake.
# Topology snx, (6)-cn, num edge types: 1
# Building blocks:
#     Node 0, Type 0, BuildingBlock: OJICUG_clean_sbu_0, # of connection points: 6
#     Node 1, Type 0, BuildingBlock: OJICUG_clean_sbu_0, # of connection points: 6
#     Node 2, Type 0, BuildingBlock: OJICUG_clean_sbu_0, # of connection points: 6
#     Node 3, Type 0, BuildingBlock: OJICUG_clean_sbu_0, # of connection points: 6
#     Node 4, Type 0, BuildingBlock: OJICUG_clean_sbu_0, # of connection points: 6
#     Node 5, Type 0, BuildingBlock: OJICUG_clean_sbu_0, # of connection points: 6
#     Edge 6, Type (0, 0), BuildingBlock: FUNLAD_clean_linker_0, # of connection points: 2
#     Edge 7, Type (0, 0), BuildingBlock: FUNLAD_clean_linker_0, # of connection points: 2
#     Edge 8, Type (0, 0), BuildingBlock: FUNLAD_clean_linker_0, # of connection points: 2
#     Edge 9, Type (0, 0), BuildingBlock: FUNLAD_clean_linker_0, # of connection points: 2
#     Edge 10, Type (0, 0), BuildingBlock: FUNLAD_clean_linker_0, # of connection points: 2
#     Edge 11, Type (0, 0), BuildingBlock: FUNLAD_clean_linker_0, # of connection points: 2
#     Edge 12, Type (0, 0), BuildingBlock: FUNLAD_clean_linker_0, # of connection points: 2
#     Edge 13, Type (0, 0), BuildingBlock: FUNLAD_clean_linker_0, # of connection points: 2
#     Edge 14, Type (0, 0), BuildingBlock: FUNLAD_clean_linker_0, # of connection points: 2
#     Edge 15, Type (0, 0), BuildingBlock: FUNLAD_clean_linker_0, # of connection points: 2
#     Edge 16, Type (0, 0), BuildingBlock: FUNLAD_clean_linker_0, # of connection points: 2
#     Edge 17, Type (0, 0), BuildingBlock: FUNLAD_clean_linker_0, # of connection points: 2
#     Edge 18, Type (0, 0), BuildingBlock: FUNLAD_clean_linker_0, # of connection points: 2
#     Edge 19, Type (0, 0), BuildingBlock: FUNLAD_clean_linker_0, # of connection points: 2
#     Edge 20, Type (0, 0), BuildingBlock: FUNLAD_clean_linker_0, # of connection points: 2
#     Edge 21, Type (0, 0), BuildingBlock: FUNLAD_clean_linker_0, # of connection points: 2
#     Edge 22, Type (0, 0), BuildingBlock: FUNLAD_clean_linker_0, # of connection points: 2
#     Edge 23, Type (0, 0), BuildingBlock: FUNLAD_clean_linker_0, # of connection points: 2
# Relax obj value: 0.060
# Max RMSD: 0.112
# Mean RMSD: 0.112
data_MOF--net-snx--node1-OJICUG_clean_sbu_0--edge1-FUNLAD_clean_linker_0
_symmetry_space_group_name_H-M    P1
_symmetry_Int_Tables_number       1
_symmetry_cell_setting            triclinic
loop_
_symmetry_equiv_pos_as_xyz
'x, y, z'
_cell_length_a     44.230462
_cell_length_b     44.333634
_cell_length_c     24.446418
_cell_angle_alpha  90.17975
_cell_angle_beta   90.024632
_cell_angle_gamma 120.09377
loop_
_atom_site_label
_atom_site_type_symbol
_atom_site_fract_x
_atom_site_fract_y
_atom_site_fract_z
_atom_type_partial_charge
Sc0 Sc 0.18896 0.40165 0.17941 0.0
Sc1 Sc 0.1997 0.40233 0.32252 0.0
Sc2 Sc 0.15218 0.32255 0.25209 0.0
O3 O 0.18027 0.37553 0.2513 0.0
C4 C 0.10971 0.34036 0.16557 0.0
C5 C 0.1737 0.44867 0.2615 0.0
C6 C 0.12515 0.34119 0.36104 0.0
C7 C 0.26229 0.44686 0.23982 0.0
C8 C 0.19691 0.33701 0.14273 0.0
C9 C 0.21409 0.33915 0.33574 0.0
O10 O 0.13561 0.36982 0.15289 0.0
O11 O 0.18182 0.43817 0.3044 0.0
O12 O 0.12202 0.32089 0.32196 0.0
O13 O 0.24338 0.43656 0.19704 0.0
O14 O 0.17843 0.31765 0.18169 0.0
O15 O 0.21996 0.36956 0.34744 0.0
O16 O 0.2039 0.36837 0.13719 0.0
O17 O 0.2501 0.43662 0.2875 0.0
O18 O 0.19036 0.31902 0.30238 0.0
O19 O 0.17492 0.43778 0.21379 0.0
O20 O 0.11141 0.32068 0.20165 0.0
O21 O 0.15172 0.37139 0.36677 0.0
Sc22 Sc 0.82434 0.15757 0.74655 0.0
Sc23 Sc 0.78433 0.19844 0.67841 0.0
Sc24 Sc 0.784 0.19544 0.82243 0.0
O25 O 0.79754 0.18377 0.74914 0.0
C26 C 0.77146 0.11923 0.84497 0.0
C27 C 0.76943 0.12215 0.64874 0.0
C28 C 0.71602 0.17466 0.7512 0.0
C29 C 0.86066 0.21222 0.64991 0.0
C30 C 0.86105 0.21005 0.84654 0.0
C31 C 0.80717 0.26499 0.75414 0.0
O32 O 0.79129 0.12003 0.80669 0.0
O33 O 0.76424 0.14765 0.64243 0.0
O34 O 0.73112 0.17774 0.79681 0.0
O35 O 0.86079 0.19205 0.68659 0.0
O36 O 0.83524 0.21435 0.85625 0.0
O37 O 0.80305 0.25077 0.7074 0.0
O38 O 0.86092 0.19034 0.80849 0.0
O39 O 0.83481 0.2167 0.64187 0.0
O40 O 0.80057 0.24807 0.79858 0.0
O41 O 0.79064 0.12219 0.68399 0.0
O42 O 0.76634 0.14443 0.85518 0.0
O43 O 0.73212 0.18184 0.70583 0.0
Sc44 Sc 0.66576 0.82662 0.24432 0.0
Sc45 Sc 0.58677 0.78243 0.17075 0.0
Sc46 Sc 0.58558 0.79275 0.31384 0.0
O47 O 0.61268 0.80061 0.24298 0.0
C48 C 0.64665 0.77833 0.34961 0.0
C49 C 0.64964 0.76801 0.15422 0.0
C50 C 0.53929 0.72016 0.25159 0.0
C51 C 0.65005 0.85738 0.1376 0.0
C52 C 0.64974 0.86916 0.33427 0.0
C53 C 0.54142 0.8106 0.23038 0.0
O54 O 0.66688 0.79511 0.31021 0.0
O55 O 0.61853 0.76094 0.14471 0.0
O56 O 0.54938 0.73892 0.29456 0.0
O57 O 0.66921 0.86033 0.17843 0.0
O58 O 0.61829 0.84547 0.34234 0.0
O59 O 0.55184 0.80184 0.18795 0.0
O60 O 0.66963 0.86562 0.3007 0.0
O61 O 0.62025 0.83061 0.12915 0.0
O62 O 0.55148 0.80888 0.2784 0.0
O63 O 0.66946 0.7913 0.1882 0.0
O64 O 0.61699 0.77586 0.35665 0.0
O65 O 0.55064 0.73221 0.20421 0.0
Sc66 Sc 0.82738 0.66302 0.74115 0.0
Sc67 Sc 0.79304 0.58474 0.66609 0.0
Sc68 Sc 0.79311 0.58265 0.81014 0.0
O69 O 0.80457 0.61017 0.73918 0.0
C70 C 0.86696 0.64954 0.83893 0.0
C71 C 0.8668 0.65152 0.64119 0.0
C72 C 0.8211 0.54284 0.73531 0.0
C73 C 0.77319 0.6433 0.64263 0.0
C74 C 0.77221 0.64001 0.83865 0.0
C75 C 0.72628 0.53396 0.73647 0.0
O76 O 0.86465 0.66863 0.80244 0.0
O77 O 0.84267 0.62049 0.63197 0.0
O78 O 0.81489 0.55163 0.78167 0.0
O79 O 0.79259 0.66369 0.68024 0.0
O80 O 0.77001 0.61061 0.84602 0.0
O81 O 0.74185 0.54632 0.69153 0.0
O82 O 0.79185 0.6616 0.80264 0.0
O83 O 0.77053 0.6139 0.63305 0.0
O84 O 0.74133 0.5442 0.78268 0.0
O85 O 0.8655 0.67021 0.6797 0.0
O86 O 0.84338 0.61795 0.84637 0.0
O87 O 0.81441 0.55266 0.69039 0.0
Sc88 Sc 0.1605 0.83073 0.24359 0.0
Sc89 Sc 0.20388 0.79519 0.31673 0.0
Sc90 Sc 0.20205 0.79249 0.17244 0.0
O91 O 0.18879 0.80611 0.24431 0.0
C92 C 0.12432 0.7756 0.14661 0.0
C93 C 0.12713 0.78014 0.34509 0.0
C94 C 0.18082 0.72592 0.24708 0.0
C95 C 0.2151 0.87074 0.34034 0.0
C96 C 0.214 0.8679 0.1457 0.0
C97 C 0.27129 0.81734 0.24295 0.0
O98 O 0.12422 0.79606 0.18304 0.0
O99 O 0.15382 0.77723 0.3543 0.0
O100 O 0.18586 0.74083 0.20095 0.0
O101 O 0.19311 0.86814 0.30443 0.0
O102 O 0.21969 0.84291 0.13695 0.0
O103 O 0.25608 0.81236 0.28883 0.0
O104 O 0.19314 0.86691 0.1823 0.0
O105 O 0.22259 0.84692 0.34863 0.0
O106 O 0.25517 0.81135 0.19766 0.0
O107 O 0.12526 0.79758 0.30544 0.0
O108 O 0.15052 0.77174 0.13814 0.0
O109 O 0.18626 0.74211 0.29236 0.0
Sc110 Sc 0.31779 0.1602 0.74448 0.0
Sc111 Sc 0.39416 0.20228 0.82476 0.0
Sc112 Sc 0.40044 0.20074 0.68115 0.0
O113 O 0.3708 0.18775 0.75008 0.0
C114 C 0.34075 0.12233 0.65629 0.0
C115 C 0.33049 0.12677 0.85089 0.0
C116 C 0.4442 0.18109 0.76359 0.0
C117 C 0.33055 0.21671 0.83611 0.0
C118 C 0.33687 0.20952 0.64037 0.0
C119 C 0.44186 0.26977 0.75282 0.0
O120 O 0.31874 0.12253 0.68964 0.0
O121 O 0.36091 0.15207 0.86072 0.0
O122 O 0.43614 0.18633 0.71603 0.0
O123 O 0.31199 0.19551 0.79856 0.0
O124 O 0.36842 0.21657 0.63706 0.0
O125 O 0.43042 0.25421 0.79811 0.0
O126 O 0.31616 0.1899 0.67707 0.0
O127 O 0.36026 0.22132 0.8502 0.0
O128 O 0.43291 0.25412 0.70689 0.0
O129 O 0.31207 0.12646 0.81091 0.0
O130 O 0.37101 0.14859 0.6488 0.0
O131 O 0.43072 0.18513 0.80688 0.0
C132 C 0.1583 0.49104 0.22069 0.0
C133 C 0.16453 0.47638 0.26721 0.0
C134 C 0.15352 0.51974 0.22563 0.0
C135 C 0.15456 0.53427 0.2774 0.0
C136 C 0.15947 0.5188 0.32396 0.0
C137 C 0.16426 0.4901 0.31903 0.0
C138 C 0.15455 0.56756 0.28407 0.0
C139 C 0.14251 0.58075 0.24589 0.0
C140 C 0.1492 0.61702 0.24819 0.0
C141 C 0.15176 0.63412 0.1988 0.0
C142 C 0.16148 0.66929 0.1985 0.0
C143 C 0.16858 0.68813 0.2478 0.0
H144 H 0.15165 0.62272 0.33677 0.0
C145 C 0.16433 0.67055 0.29748 0.0
C146 C 0.15465 0.63533 0.29773 0.0
H147 H 0.16898 0.68408 0.33626 0.0
H148 H 0.15841 0.4812 0.18012 0.0
H149 H 0.15078 0.5313 0.18845 0.0
H150 H 0.16056 0.52954 0.36428 0.0
H151 H 0.16883 0.47942 0.35583 0.0
H152 H 0.16701 0.58257 0.32073 0.0
H153 H 0.13002 0.56581 0.20921 0.0
H154 H 0.14737 0.62053 0.16009 0.0
H155 H 0.16401 0.68181 0.15945 0.0
C156 C 0.66017 0.15907 0.80006 0.0
C157 C 0.67838 0.16361 0.75082 0.0
C158 C 0.62549 0.15157 0.79946 0.0
C159 C 0.60834 0.14858 0.74952 0.0
C160 C 0.62589 0.15117 0.70045 0.0
C161 C 0.66056 0.15876 0.70101 0.0
C162 C 0.57295 0.14446 0.74655 0.0
C163 C 0.56027 0.15668 0.78546 0.0
C164 C 0.52807 0.15888 0.77861 0.0
C165 C 0.51185 0.16263 0.82539 0.0
C166 C 0.48386 0.16867 0.82065 0.0
C167 C 0.47167 0.17147 0.76883 0.0
H168 H 0.52753 0.15904 0.68951 0.0
C169 C 0.48731 0.1668 0.72197 0.0
C170 C 0.51525 0.16071 0.72673 0.0
H171 H 0.47868 0.16885 0.68139 0.0
H172 H 0.6729 0.16206 0.83919 0.0
H173 H 0.61242 0.14843 0.83818 0.0
H174 H 0.61318 0.14859 0.66142 0.0
H175 H 0.67357 0.16158 0.66226 0.0
H176 H 0.55834 0.13367 0.70897 0.0
H177 H 0.57485 0.16737 0.82311 0.0
H178 H 0.52135 0.16161 0.86583 0.0
H179 H 0.47245 0.17209 0.85767 0.0
C180 C 0.3226 0.48182 0.27909 0.0
C181 C 0.29975 0.47333 0.23431 0.0
C182 C 0.35716 0.50903 0.27553 0.0
C183 C 0.36949 0.52873 0.22725 0.0
C184 C 0.34717 0.51898 0.18165 0.0
C185 C 0.3127 0.49161 0.18507 0.0
C186 C 0.40469 0.56037 0.22316 0.0
C187 C 0.42325 0.57907 0.26698 0.0
C188 C 0.4553 0.61395 0.263 0.0
C189 C 0.46525 0.6362 0.30868 0.0
C190 C 0.49318 0.67034 0.30557 0.0
C191 C 0.51188 0.68304 0.25655 0.0
H192 H 0.46956 0.60941 0.17935 0.0
C193 C 0.50308 0.66026 0.2116 0.0
C194 C 0.47528 0.62602 0.21485 0.0
H195 H 0.5174 0.66898 0.17354 0.0
H196 H 0.31368 0.46777 0.3173 0.0
H197 H 0.37381 0.51457 0.31094 0.0
H198 H 0.35605 0.53336 0.1437 0.0
H199 H 0.29591 0.48562 0.14961 0.0
H200 H 0.41366 0.57033 0.18234 0.0
H201 H 0.41288 0.57044 0.30773 0.0
H202 H 0.45064 0.62754 0.34652 0.0
H203 H 0.49937 0.68706 0.34115 0.0
C204 C 0.84248 0.50684 0.78216 0.0
C205 C 0.83454 0.51828 0.73352 0.0
C206 C 0.85084 0.48038 0.78097 0.0
C207 C 0.85109 0.4646 0.73108 0.0
C208 C 0.84581 0.47784 0.68224 0.0
C209 C 0.8375 0.50433 0.68338 0.0
C210 C 0.85406 0.43277 0.72857 0.0
C211 C 0.84191 0.40884 0.76874 0.0
C212 C 0.83723 0.37341 0.76336 0.0
C213 C 0.83251 0.3541 0.81112 0.0
C214 C 0.82372 0.31922 0.80815 0.0
C215 C 0.81916 0.3027 0.75715 0.0
H216 H 0.8361 0.37073 0.67432 0.0
C217 C 0.82487 0.32228 0.70924 0.0
C218 C 0.83368 0.35722 0.71223 0.0
H219 H 0.82155 0.31039 0.66926 0.0
H220 H 0.84125 0.51756 0.82143 0.0
H221 H 0.85631 0.47192 0.8193 0.0
H222 H 0.84634 0.46645 0.64321 0.0
H223 H 0.83205 0.51285 0.64502 0.0
H224 H 0.8631 0.42744 0.69047 0.0
H225 H 0.83271 0.41432 0.80658 0.0
H226 H 0.83484 0.36583 0.85101 0.0
H227 H 0.81971 0.30503 0.84596 0.0
C228 C 0.50161 0.82989 0.27001 0.0
C229 C 0.51495 0.82147 0.22392 0.0
C230 C 0.47416 0.83667 0.26472 0.0
C231 C 0.45957 0.83547 0.21299 0.0
C232 C 0.47374 0.82829 0.16677 0.0
C233 C 0.5012 0.8215 0.17206 0.0
C234 C 0.42736 0.83767 0.20624 0.0
C235 C 0.41547 0.85132 0.24407 0.0
C236 C 0.37978 0.84647 0.24191 0.0
C237 C 0.36287 0.84465 0.29133 0.0
C238 C 0.32789 0.83605 0.29166 0.0
C239 C 0.30915 0.8294 0.24237 0.0
H240 H 0.37426 0.8443 0.15336 0.0
C241 C 0.32671 0.83325 0.19267 0.0
C242 C 0.36169 0.84178 0.19239 0.0
H243 H 0.31328 0.82895 0.15388 0.0
H244 H 0.51153 0.8301 0.31061 0.0
H245 H 0.46359 0.84113 0.30172 0.0
H246 H 0.4629 0.82699 0.12649 0.0
H247 H 0.51088 0.81523 0.1356 0.0
H248 H 0.41183 0.82537 0.16992 0.0
H249 H 0.43081 0.86362 0.2805 0.0
H250 H 0.37633 0.84852 0.33002 0.0
H251 H 0.31537 0.8338 0.3307 0.0
C252 C 0.6697 0.4918 0.78203 0.0
C253 C 0.68918 0.50605 0.73407 0.0
C254 C 0.63507 0.46452 0.77901 0.0
C255 C 0.61928 0.45107 0.72785 0.0
C256 C 0.63863 0.46561 0.68013 0.0
C257 C 0.67306 0.49287 0.6831 0.0
C258 C 0.58395 0.42007 0.72235 0.0
C259 C 0.55896 0.40975 0.76076 0.0
C260 C 0.52592 0.37585 0.75724 0.0
C261 C 0.50999 0.3585 0.80586 0.0
C262 C 0.48168 0.32452 0.80441 0.0
C263 C 0.4686 0.30725 0.75412 0.0
H264 H 0.52178 0.37278 0.66847 0.0
C265 C 0.48295 0.32559 0.70536 0.0
C266 C 0.51121 0.35962 0.70686 0.0
H267 H 0.47305 0.31338 0.66592 0.0
H268 H 0.68133 0.50128 0.82193 0.0
H269 H 0.62135 0.45335 0.81682 0.0
H270 H 0.6272 0.45555 0.64027 0.0
H271 H 0.68718 0.50315 0.64521 0.0
H272 H 0.57908 0.40457 0.68548 0.0
H273 H 0.56382 0.425 0.79791 0.0
H274 H 0.52048 0.37063 0.84518 0.0
H275 H 0.47097 0.31139 0.84284 0.0
C276 C 0.28174 0.22753 0.86082 0.0
C277 C 0.31705 0.23681 0.86528 0.0
C278 C 0.26883 0.2456 0.89058 0.0
C279 C 0.29106 0.27338 0.92523 0.0
C280 C 0.32657 0.28357 0.92788 0.0
C281 C 0.33942 0.26533 0.8986 0.0
C282 C 0.27796 0.2918 0.95998 0.0
C283 C 0.24576 0.27542 0.9819 0.0
C284 C 0.23373 0.29214 0.0222 0.0
C285 C 0.2089 0.27107 0.06117 0.0
C286 C 0.19731 0.28573 0.10057 0.0
C287 C 0.20993 0.32184 0.10138 0.0
H288 H 0.26471 0.34514 0.99211 0.0
C289 C 0.23438 0.34292 0.06169 0.0
C290 C 0.24622 0.32824 0.02248 0.0
H291 H 0.24443 0.37078 0.06088 0.0
H292 H 0.26389 0.20593 0.8351 0.0
H293 H 0.2415 0.23776 0.88636 0.0
H294 H 0.34427 0.30511 0.95386 0.0
H295 H 0.36688 0.2735 0.90239 0.0
H296 H 0.29649 0.3184 0.97217 0.0
H297 H 0.2286 0.24777 0.974 0.0
H298 H 0.19872 0.24317 0.06159 0.0
H299 H 0.17822 0.26861 0.13015 0.0
C300 C 0.92332 0.23237 0.62804 0.0
C301 C 0.89162 0.23061 0.61413 0.0
C302 C 0.95211 0.24851 0.59317 0.0
C303 C 0.94972 0.26313 0.5435 0.0
C304 C 0.91815 0.2615 0.52972 0.0
C305 C 0.88949 0.24572 0.56485 0.0
C306 C 0.97877 0.27796 0.50353 0.0
C307 C 0.01263 0.2928 0.518 0.0
C308 C 0.04105 0.30544 0.477 0.0
C309 C 0.07396 0.33403 0.48963 0.0
C310 C 0.10129 0.346 0.45184 0.0
C311 C 0.09634 0.32905 0.40112 0.0
H312 H 0.01138 0.26565 0.41598 0.0
C313 C 0.06347 0.30008 0.38895 0.0
C314 C 0.03613 0.28842 0.42639 0.0
H315 H 0.05876 0.28635 0.35034 0.0
H316 H 0.92583 0.22097 0.66568 0.0
H317 H 0.97575 0.24848 0.60445 0.0
H318 H 0.91558 0.27229 0.49145 0.0
H319 H 0.86542 0.24468 0.55272 0.0
H320 H 0.97192 0.2773 0.46066 0.0
H321 H 0.01994 0.29684 0.56096 0.0
H322 H 0.07847 0.3473 0.52864 0.0
H323 H 0.12636 0.36824 0.46263 0.0
C324 C 0.75564 0.05789 0.86763 0.0
C325 C 0.75494 0.08839 0.88108 0.0
C326 C 0.74182 0.0296 0.90346 0.0
C327 C 0.72708 0.03132 0.95354 0.0
C328 C 0.72624 0.06166 0.96683 0.0
C329 C 0.73972 0.08979 0.93084 0.0
C330 C 0.71411 0.00278 0.99406 0.0
C331 C 0.70072 0.9691 0.97999 0.0
C332 C 0.68799 0.94095 0.02116 0.0
C333 C 0.66004 0.9079 0.00772 0.0
C334 C 0.64746 0.88085 0.04573 0.0
C335 C 0.6631 0.88619 0.09766 0.0
H336 H 0.72612 0.97125 0.08399 0.0
C337 C 0.69155 0.91917 0.11072 0.0
C338 C 0.70385 0.94631 0.07291 0.0
H339 H 0.7043 0.92411 0.15023 0.0
H340 H 0.76729 0.056 0.82975 0.0
H341 H 0.7437 0.00693 0.89251 0.0
H342 H 0.71524 0.06369 0.00533 0.0
H343 H 0.73892 0.11293 0.94273 0.0
H344 H 0.71421 0.00967 0.03679 0.0
H345 H 0.69717 0.96162 0.93708 0.0
H346 H 0.64765 0.90308 0.9679 0.0
H347 H 0.6257 0.85567 0.03415 0.0
C348 C 0.68658 0.75629 0.3772 0.0
C349 C 0.65826 0.76115 0.38937 0.0
C350 C 0.69779 0.74041 0.41493 0.0
C351 C 0.68094 0.72913 0.46572 0.0
C352 C 0.65295 0.73433 0.47819 0.0
C353 C 0.64146 0.74987 0.44021 0.0
C354 C 0.69316 0.71344 0.50729 0.0
C355 C 0.70756 0.69399 0.49372 0.0
C356 C 0.72197 0.67998 0.53459 0.0
C357 C 0.72342 0.6499 0.52164 0.0
C358 C 0.73906 0.63733 0.55753 0.0
C359 C 0.75414 0.655 0.60678 0.0
H360 H 0.73661 0.72112 0.59502 0.0
C361 C 0.75234 0.68494 0.62003 0.0
C362 C 0.73641 0.69731 0.58433 0.0
H363 H 0.76376 0.69922 0.65757 0.0
H364 H 0.70016 0.76478 0.3385 0.0
H365 H 0.72013 0.73773 0.40465 0.0
H366 H 0.63983 0.7262 0.51732 0.0
H367 H 0.61973 0.75347 0.45104 0.0
H368 H 0.68913 0.71714 0.55006 0.0
H369 H 0.70819 0.68736 0.45106 0.0
H370 H 0.71271 0.63625 0.48337 0.0
H371 H 0.74012 0.61429 0.54589 0.0
C372 C 0.90443 0.64498 0.91226 0.0
C373 C 0.89795 0.66544 0.87546 0.0
C374 C 0.93307 0.66051 0.94791 0.0
C375 C 0.95574 0.69686 0.94753 0.0
C376 C 0.94922 0.71719 0.91087 0.0
C377 C 0.92087 0.70171 0.87499 0.0
C378 C 0.98551 0.71476 0.98617 0.0
C379 C 0.00265 0.69969 0.00783 0.0
C380 C 0.03319 0.71885 0.04474 0.0
C381 C 0.0599 0.71055 0.04422 0.0
C382 C 0.08948 0.72892 0.07727 0.0
C383 C 0.09269 0.75564 0.11227 0.0
H384 H 0.01536 0.75136 0.08332 0.0
C385 C 0.06539 0.7632 0.11394 0.0
C386 C 0.03598 0.74503 0.08057 0.0
H387 H 0.0668 0.78337 0.14073 0.0
H388 H 0.88722 0.617 0.91388 0.0
H389 H 0.9368 0.64409 0.97655 0.0
H390 H 0.96613 0.74525 0.90997 0.0
H391 H 0.91665 0.71837 0.8475 0.0
H392 H -0.00513 0.74214 0.99452 0.0
H393 H -0.00422 0.67347 0.99539 0.0
H394 H 0.05818 0.69024 0.01741 0.0
H395 H 0.10982 0.72214 0.07532 0.0
C396 C 0.29514 0.06385 0.62105 0.0
C397 C 0.3303 0.09055 0.62327 0.0
C398 C 0.28489 0.03493 0.58712 0.0
C399 C 0.30961 0.03207 0.55474 0.0
C400 C 0.34491 0.05788 0.55873 0.0
C401 C 0.35516 0.08701 0.59229 0.0
C402 C 0.29916 0.00254 0.51633 0.0
C403 C 0.26852 0.98796 0.48925 0.0
C404 C 0.25733 0.95901 0.44938 0.0
C405 C 0.23268 0.95456 0.40938 0.0
C406 C 0.21986 0.92656 0.3729 0.0
C407 C 0.23108 0.90202 0.37606 0.0
H408 H 0.28752 0.93701 0.48318 0.0
C409 C 0.25616 0.90672 0.41571 0.0
C410 C 0.26915 0.93491 0.45206 0.0
H411 H 0.26527 0.88824 0.41949 0.0
H412 H 0.27534 0.06554 0.64472 0.0
H413 H 0.25759 0.01487 0.58633 0.0
H414 H 0.36448 0.056 0.5347 0.0
H415 H 0.38254 0.10689 0.59352 0.0
H416 H 0.31811 -0.00553 0.50739 0.0
H417 H 0.25141 -0.00123 0.49448 0.0
H418 H 0.22305 0.97267 0.4066 0.0
H419 H 0.20051 0.92378 0.34305 0.0
C420 C 0.64368 0.72428 0.08331 0.0
C421 C 0.66435 0.75019 0.12175 0.0
C422 C 0.65861 0.71007 0.04892 0.0
C423 C 0.69452 0.72151 0.05244 0.0
C424 C 0.7149 0.74668 0.09172 0.0
C425 C 0.7 0.76072 0.12626 0.0
C426 C 0.71218 0.70988 0.01335 0.0
C427 C 0.69592 0.67926 0.98645 0.0
C428 C 0.71471 0.66931 0.94684 0.0
C429 C 0.70614 0.63437 0.94276 0.0
C430 C 0.72463 0.62472 0.90732 0.0
C431 C 0.75161 0.64983 0.87452 0.0
H432 H 0.74743 0.72127 0.91394 0.0
C433 C 0.7592 0.68461 0.87713 0.0
C434 C 0.74098 0.69426 0.91297 0.0
H435 H 0.77962 0.70455 0.85215 0.0
H436 H 0.61616 0.71562 0.07864 0.0
H437 H 0.6422 0.69126 0.01831 0.0
H438 H 0.74265 0.756 0.09513 0.0
H439 H 0.71676 0.78061 0.15535 0.0
H440 H 0.74012 0.72699 0.0077 0.0
H441 H 0.66892 0.66025 0.9957 0.0
H442 H 0.68567 0.61464 0.96798 0.0
H443 H 0.71785 0.59762 0.90581 0.0
C444 C 0.92852 0.6964 0.61802 0.0
C445 C 0.89684 0.66661 0.60357 0.0
C446 C 0.95654 0.71042 0.58145 0.0
C447 C 0.9531 0.69498 0.52973 0.0
C448 C 0.92135 0.66561 0.51514 0.0
C449 C 0.89361 0.65134 0.5518 0.0
C450 C 0.98156 0.70945 0.48915 0.0
C451 C 0.01547 0.72532 0.50315 0.0
C452 C 0.04344 0.73857 0.46158 0.0
C453 C 0.07448 0.73854 0.47289 0.0
C454 C 0.10133 0.75106 0.43438 0.0
C455 C 0.09778 0.76438 0.38414 0.0
H456 H 0.01658 0.75312 0.40194 0.0
C457 C 0.06667 0.76449 0.373 0.0
C458 C 0.03981 0.7518 0.41134 0.0
H459 H 0.06317 0.77483 0.33494 0.0
H460 H 0.93167 0.70879 0.65752 0.0
H461 H 0.98051 0.73366 0.59328 0.0
H462 H 0.91804 0.6535 0.47532 0.0
H463 H 0.86942 0.62859 0.53913 0.0
H464 H 0.97414 0.70474 0.44624 0.0
H465 H 0.0229 0.72676 0.54587 0.0
H466 H 0.0779 0.72866 0.51149 0.0
H467 H 0.12509 0.7509 0.44449 0.0
C468 C 0.22495 0.92674 0.11812 0.0
C469 C 0.23274 0.89981 0.11243 0.0
C470 C 0.2424 0.95686 0.08681 0.0
C471 C 0.26794 0.96065 0.04891 0.0
C472 C 0.27651 0.93431 0.04423 0.0
C473 C 0.25891 0.90401 0.07542 0.0
C474 C 0.28587 0.99184 0.01384 0.0
C475 C 0.26943 0.00835 0.9953 0.0
C476 C 0.28604 0.03866 0.95836 0.0
C477 C 0.26483 0.04403 0.9218 0.0
C478 C 0.27937 0.07247 0.88655 0.0
C479 C 0.31543 0.09649 0.88788 0.0
H480 H 0.33904 0.05974 0.98886 0.0
C481 C 0.33667 0.09141 0.92514 0.0
C482 C 0.32212 0.06268 0.96004 0.0
H483 H 0.36452 0.10955 0.92729 0.0
H484 H 0.20527 0.92462 0.1467 0.0
H485 H 0.236 0.97723 0.0927 0.0
H486 H 0.29639 0.93688 0.01566 0.0
H487 H 0.26584 0.88394 0.0705 0.0
H488 H 0.31214 -0.00025 -1e-05 0.0
H489 H 0.24194 -0.00203 0.0046 0.0
H490 H 0.23691 0.02602 0.92017 0.0
H491 H 0.26221 0.07578 0.85869 0.0
C492 C 0.34465 0.24795 0.55989 0.0
C493 C 0.32272 0.22307 0.59838 0.0
C494 C 0.33058 0.25962 0.51947 0.0
C495 C 0.2943 0.24649 0.51684 0.0
C496 C 0.27249 0.2214 0.55481 0.0
C497 C 0.28648 0.21001 0.59534 0.0
C498 C 0.27795 0.258 0.47525 0.0
C499 C 0.29416 0.29005 0.45325 0.0
C500 C 0.27516 0.30259 0.41888 0.0
C501 C 0.28429 0.3377 0.42246 0.0
C502 C 0.2647 0.34965 0.39492 0.0
C503 C 0.2358 0.32675 0.36263 0.0
H504 H 0.24027 0.25297 0.37964 0.0
C505 C 0.22776 0.29195 0.35688 0.0
C506 C 0.24727 0.27998 0.38468 0.0
H507 H 0.20603 0.27374 0.33169 0.0
H508 H 0.37264 0.25831 0.56083 0.0
H509 H 0.34808 0.27842 0.48996 0.0
H510 H 0.24445 0.21077 0.55351 0.0
H511 H 0.2687 0.19057 0.62391 0.0
H512 H 0.25037 0.24058 0.46684 0.0
H513 H 0.32064 0.30888 0.46576 0.0
H514 H 0.30588 0.35568 0.44812 0.0
H515 H 0.272 0.37677 0.39962 0.0
C516 C 0.89119 0.24455 0.93054 0.0
C517 C 0.89255 0.22877 0.88131 0.0
C518 C 0.92075 0.26195 0.96376 0.0
C519 C 0.95234 0.26403 0.94831 0.0
C520 C 0.95395 0.24898 0.89864 0.0
C521 C 0.92429 0.23124 0.86565 0.0
C522 C 0.98417 0.28225 0.98259 0.0
C523 C 0.98308 0.28344 0.03754 0.0
C524 C 0.01517 0.29977 0.07142 0.0
C525 C 0.01503 0.28518 0.12229 0.0
C526 C 0.04558 0.29872 0.15352 0.0
C527 C 0.07668 0.3276 0.13483 0.0
H528 H 0.04651 0.34187 0.01527 0.0
C529 C 0.0763 0.34321 0.08506 0.0
C530 C 0.04588 0.32939 0.05358 0.0
H531 H 0.09972 0.36561 0.06962 0.0
H532 H 0.86722 0.24333 0.9437 0.0
H533 H 0.91887 0.27413 0.00106 0.0
H534 H 0.97812 0.25054 0.88565 0.0
H535 H 0.92632 0.21967 0.82774 0.0
H536 H 0.00926 0.29283 0.96212 0.0
H537 H 0.95814 0.26964 0.05855 0.0
H538 H -0.00848 0.26259 0.13714 0.0
H539 H 0.0449 0.28632 0.19196 0.0
C540 C 0.6441 0.90655 0.40636 0.0
C541 C 0.66469 0.90138 0.36781 0.0
C542 C 0.65911 0.93551 0.44124 0.0
C543 C 0.69506 0.95997 0.43813 0.0
C544 C 0.71542 0.95513 0.39902 0.0
C545 C 0.70043 0.92633 0.36402 0.0
C546 C 0.71269 0.98959 0.47697 0.0
C547 C 0.69629 0.00402 0.50317 0.0
C548 C 0.71485 0.03364 0.5417 0.0
C549 C 0.70425 0.05851 0.54603 0.0
C550 C 0.7219 0.08721 0.58088 0.0
C551 C 0.75016 0.09126 0.61289 0.0
H552 H 0.7507 0.01787 0.57352 0.0
C553 C 0.76002 0.0657 0.60983 0.0
C554 C 0.74259 0.0372 0.57457 0.0
H555 H 0.78148 0.06785 0.6342 0.0
H556 H 0.61653 0.88779 0.4106 0.0
H557 H 0.6427 0.93789 0.47173 0.0
H558 H 0.74319 0.9735 0.39591 0.0
H559 H 0.71717 0.92325 0.33494 0.0
H560 H 0.74069 0.00077 0.48247 0.0
H561 H 0.66915 -0.00454 0.49388 0.0
H562 H 0.68269 0.05609 0.52161 0.0
H563 H 0.71335 0.10621 0.58268 0.0
loop_
_geom_bond_atom_site_label_1
_geom_bond_atom_site_label_2
_geom_bond_distance
_geom_bond_site_symmetry_2
_ccdc_geom_bond_type
Sc0 O3 2.025 . S
Sc0 O10 2.105 . S
Sc0 O13 2.105 . S
Sc0 O16 2.105 . S
Sc0 O19 2.105 . S
Sc1 O3 2.025 . S
Sc1 O11 2.105 . S
Sc1 O15 2.105 . S
Sc1 O17 2.105 . S
Sc1 O21 2.105 . S
Sc2 O3 2.025 . S
Sc2 O12 2.105 . S
Sc2 O14 2.105 . S
Sc2 O18 2.105 . S
Sc2 O20 2.105 . S
O3 Sc0 2.025 . S
O3 Sc1 2.025 . S
O3 Sc2 2.025 . S
C4 O10 1.268 . S
C4 O20 1.268 . S
C5 O11 1.268 . S
C5 O19 1.268 . S
C6 O12 1.268 . S
C6 O21 1.268 . S
C7 O13 1.268 . S
C7 O17 1.268 . S
C8 O14 1.268 . S
C8 O16 1.268 . S
C9 O15 1.268 . S
C9 O18 1.268 . S
O10 Sc0 2.105 . S
O10 C4 1.268 . S
O11 Sc1 2.105 . S
O11 C5 1.268 . S
O12 Sc2 2.105 . S
O12 C6 1.268 . S
O13 Sc0 2.105 . S
O13 C7 1.268 . S
O14 Sc2 2.105 . S
O14 C8 1.268 . S
O15 Sc1 2.105 . S
O15 C9 1.268 . S
O16 Sc0 2.105 . S
O16 C8 1.268 . S
O17 Sc1 2.105 . S
O17 C7 1.268 . S
O18 Sc2 2.105 . S
O18 C9 1.268 . S
O19 Sc0 2.105 . S
O19 C5 1.268 . S
O20 Sc2 2.105 . S
O20 C4 1.268 . S
O21 Sc1 2.105 . S
O21 C6 1.268 . S
Sc22 O25 2.025 . S
Sc22 O32 2.105 . S
Sc22 O35 2.105 . S
Sc22 O38 2.105 . S
Sc22 O41 2.105 . S
Sc23 O25 2.025 . S
Sc23 O33 2.105 . S
Sc23 O37 2.105 . S
Sc23 O39 2.105 . S
Sc23 O43 2.105 . S
Sc24 O25 2.025 . S
Sc24 O34 2.105 . S
Sc24 O36 2.105 . S
Sc24 O40 2.105 . S
Sc24 O42 2.105 . S
O25 Sc22 2.025 . S
O25 Sc23 2.025 . S
O25 Sc24 2.025 . S
C26 O32 1.268 . S
C26 O42 1.268 . S
C27 O33 1.268 . S
C27 O41 1.268 . S
C28 O34 1.268 . S
C28 O43 1.268 . S
C29 O35 1.268 . S
C29 O39 1.268 . S
C30 O36 1.268 . S
C30 O38 1.268 . S
C31 O37 1.268 . S
C31 O40 1.268 . S
O32 Sc22 2.105 . S
O32 C26 1.268 . S
O33 Sc23 2.105 . S
O33 C27 1.268 . S
O34 Sc24 2.105 . S
O34 C28 1.268 . S
O35 Sc22 2.105 . S
O35 C29 1.268 . S
O36 Sc24 2.105 . S
O36 C30 1.268 . S
O37 Sc23 2.105 . S
O37 C31 1.268 . S
O38 Sc22 2.105 . S
O38 C30 1.268 . S
O39 Sc23 2.105 . S
O39 C29 1.268 . S
O40 Sc24 2.105 . S
O40 C31 1.268 . S
O41 Sc22 2.105 . S
O41 C27 1.268 . S
O42 Sc24 2.105 . S
O42 C26 1.268 . S
O43 Sc23 2.105 . S
O43 C28 1.268 . S
Sc44 O47 2.025 . S
Sc44 O54 2.105 . S
Sc44 O57 2.105 . S
Sc44 O60 2.105 . S
Sc44 O63 2.105 . S
Sc45 O47 2.025 . S
Sc45 O55 2.105 . S
Sc45 O59 2.105 . S
Sc45 O61 2.105 . S
Sc45 O65 2.105 . S
Sc46 O47 2.025 . S
Sc46 O56 2.105 . S
Sc46 O58 2.105 . S
Sc46 O62 2.105 . S
Sc46 O64 2.105 . S
O47 Sc44 2.025 . S
O47 Sc45 2.025 . S
O47 Sc46 2.025 . S
C48 O54 1.268 . S
C48 O64 1.268 . S
C49 O55 1.268 . S
C49 O63 1.268 . S
C50 O56 1.268 . S
C50 O65 1.268 . S
C51 O57 1.268 . S
C51 O61 1.268 . S
C52 O58 1.268 . S
C52 O60 1.268 . S
C53 O59 1.268 . S
C53 O62 1.268 . S
O54 Sc44 2.105 . S
O54 C48 1.268 . S
O55 Sc45 2.105 . S
O55 C49 1.268 . S
O56 Sc46 2.105 . S
O56 C50 1.268 . S
O57 Sc44 2.105 . S
O57 C51 1.268 . S
O58 Sc46 2.105 . S
O58 C52 1.268 . S
O59 Sc45 2.105 . S
O59 C53 1.268 . S
O60 Sc44 2.105 . S
O60 C52 1.268 . S
O61 Sc45 2.105 . S
O61 C51 1.268 . S
O62 Sc46 2.105 . S
O62 C53 1.268 . S
O63 Sc44 2.105 . S
O63 C49 1.268 . S
O64 Sc46 2.105 . S
O64 C48 1.268 . S
O65 Sc45 2.105 . S
O65 C50 1.268 . S
Sc66 O69 2.025 . S
Sc66 O76 2.105 . S
Sc66 O79 2.105 . S
Sc66 O82 2.105 . S
Sc66 O85 2.105 . S
Sc67 O69 2.025 . S
Sc67 O77 2.105 . S
Sc67 O81 2.105 . S
Sc67 O83 2.105 . S
Sc67 O87 2.105 . S
Sc68 O69 2.025 . S
Sc68 O78 2.105 . S
Sc68 O80 2.105 . S
Sc68 O84 2.105 . S
Sc68 O86 2.105 . S
O69 Sc66 2.025 . S
O69 Sc67 2.025 . S
O69 Sc68 2.025 . S
C70 O76 1.268 . S
C70 O86 1.268 . S
C71 O77 1.268 . S
C71 O85 1.268 . S
C72 O78 1.268 . S
C72 O87 1.268 . S
C73 O79 1.268 . S
C73 O83 1.268 . S
C74 O80 1.268 . S
C74 O82 1.268 . S
C75 O81 1.268 . S
C75 O84 1.268 . S
O76 Sc66 2.105 . S
O76 C70 1.268 . S
O77 Sc67 2.105 . S
O77 C71 1.268 . S
O78 Sc68 2.105 . S
O78 C72 1.268 . S
O79 Sc66 2.105 . S
O79 C73 1.268 . S
O80 Sc68 2.105 . S
O80 C74 1.268 . S
O81 Sc67 2.105 . S
O81 C75 1.268 . S
O82 Sc66 2.105 . S
O82 C74 1.268 . S
O83 Sc67 2.105 . S
O83 C73 1.268 . S
O84 Sc68 2.105 . S
O84 C75 1.268 . S
O85 Sc66 2.105 . S
O85 C71 1.268 . S
O86 Sc68 2.105 . S
O86 C70 1.268 . S
O87 Sc67 2.105 . S
O87 C72 1.268 . S
Sc88 O91 2.025 . S
Sc88 O98 2.105 . S
Sc88 O101 2.105 . S
Sc88 O104 2.105 . S
Sc88 O107 2.105 . S
Sc89 O91 2.025 . S
Sc89 O99 2.105 . S
Sc89 O103 2.105 . S
Sc89 O105 2.105 . S
Sc89 O109 2.105 . S
Sc90 O91 2.025 . S
Sc90 O100 2.105 . S
Sc90 O102 2.105 . S
Sc90 O106 2.105 . S
Sc90 O108 2.105 . S
O91 Sc88 2.025 . S
O91 Sc89 2.025 . S
O91 Sc90 2.025 . S
C92 O98 1.268 . S
C92 O108 1.268 . S
C93 O99 1.268 . S
C93 O107 1.268 . S
C94 O100 1.268 . S
C94 O109 1.268 . S
C95 O101 1.268 . S
C95 O105 1.268 . S
C96 O102 1.268 . S
C96 O104 1.268 . S
C97 O103 1.268 . S
C97 O106 1.268 . S
O98 Sc88 2.105 . S
O98 C92 1.268 . S
O99 Sc89 2.105 . S
O99 C93 1.268 . S
O100 Sc90 2.105 . S
O100 C94 1.268 . S
O101 Sc88 2.105 . S
O101 C95 1.268 . S
O102 Sc90 2.105 . S
O102 C96 1.268 . S
O103 Sc89 2.105 . S
O103 C97 1.268 . S
O104 Sc88 2.105 . S
O104 C96 1.268 . S
O105 Sc89 2.105 . S
O105 C95 1.268 . S
O106 Sc90 2.105 . S
O106 C97 1.268 . S
O107 Sc88 2.105 . S
O107 C93 1.268 . S
O108 Sc90 2.105 . S
O108 C92 1.268 . S
O109 Sc89 2.105 . S
O109 C94 1.268 . S
Sc110 O113 2.025 . S
Sc110 O120 2.105 . S
Sc110 O123 2.105 . S
Sc110 O126 2.105 . S
Sc110 O129 2.105 . S
Sc111 O113 2.025 . S
Sc111 O121 2.105 . S
Sc111 O125 2.105 . S
Sc111 O127 2.105 . S
Sc111 O131 2.105 . S
Sc112 O113 2.025 . S
Sc112 O122 2.105 . S
Sc112 O124 2.105 . S
Sc112 O128 2.105 . S
Sc112 O130 2.105 . S
O113 Sc110 2.025 . S
O113 Sc111 2.025 . S
O113 Sc112 2.025 . S
C114 O120 1.268 . S
C114 O130 1.268 . S
C115 O121 1.268 . S
C115 O129 1.268 . S
C116 O122 1.268 . S
C116 O131 1.268 . S
C117 O123 1.268 . S
C117 O127 1.268 . S
C118 O124 1.268 . S
C118 O126 1.268 . S
C119 O125 1.268 . S
C119 O128 1.268 . S
O120 Sc110 2.105 . S
O120 C114 1.268 . S
O121 Sc111 2.105 . S
O121 C115 1.268 . S
O122 Sc112 2.105 . S
O122 C116 1.268 . S
O123 Sc110 2.105 . S
O123 C117 1.268 . S
O124 Sc112 2.105 . S
O124 C118 1.268 . S
O125 Sc111 2.105 . S
O125 C119 1.268 . S
O126 Sc110 2.105 . S
O126 C118 1.268 . S
O127 Sc111 2.105 . S
O127 C117 1.268 . S
O128 Sc112 2.105 . S
O128 C119 1.268 . S
O129 Sc110 2.105 . S
O129 C115 1.268 . S
O130 Sc112 2.105 . S
O130 C114 1.268 . S
O131 Sc111 2.105 . S
O131 C116 1.268 . S
C132 C133 1.386 . S
C132 C134 1.383 . S
C132 H148 0.951 . S
C133 C132 1.386 . S
C133 C137 1.383 . S
C134 C132 1.383 . S
C134 C135 1.402 . S
C134 H149 0.951 . S
C135 C134 1.402 . S
C135 C136 1.375 . S
C135 C138 1.481 . S
C136 C135 1.375 . S
C136 C137 1.367 . S
C136 H150 0.951 . S
C137 C133 1.383 . S
C137 C136 1.367 . S
C137 H151 0.950 . S
C138 C135 1.481 . S
C138 C139 1.297 . S
C138 H152 0.950 . S
C139 C138 1.297 . S
C139 C140 1.479 . S
C139 H153 0.950 . S
C140 C139 1.479 . S
C140 C141 1.375 . S
C140 C146 1.404 . S
C141 C140 1.375 . S
C141 C142 1.369 . S
C141 H154 0.950 . S
C142 C141 1.369 . S
C142 C143 1.392 . S
C142 H155 0.951 . S
C143 C142 1.392 . S
C143 C145 1.384 . S
H144 C146 0.949 . S
C145 C143 1.384 . S
C145 C146 1.385 . S
C145 H147 0.950 . S
C146 C140 1.404 . S
C146 H144 0.949 . S
C146 C145 1.385 . S
H147 C145 0.950 . S
H148 C132 0.951 . S
H149 C134 0.951 . S
H150 C136 0.951 . S
H151 C137 0.950 . S
H152 C138 0.950 . S
H153 C139 0.950 . S
H154 C141 0.950 . S
H155 C142 0.951 . S
C156 C157 1.386 . S
C156 C158 1.383 . S
C156 H172 0.951 . S
C157 C156 1.386 . S
C157 C161 1.383 . S
C158 C156 1.383 . S
C158 C159 1.402 . S
C158 H173 0.951 . S
C159 C158 1.402 . S
C159 C160 1.375 . S
C159 C162 1.481 . S
C160 C159 1.375 . S
C160 C161 1.367 . S
C160 H174 0.951 . S
C161 C157 1.383 . S
C161 C160 1.367 . S
C161 H175 0.950 . S
C162 C159 1.481 . S
C162 C163 1.297 . S
C162 H176 0.950 . S
C163 C162 1.297 . S
C163 C164 1.479 . S
C163 H177 0.950 . S
C164 C163 1.479 . S
C164 C165 1.375 . S
C164 C170 1.404 . S
C165 C164 1.375 . S
C165 C166 1.369 . S
C165 H178 0.950 . S
C166 C165 1.369 . S
C166 C167 1.392 . S
C166 H179 0.951 . S
C167 C166 1.392 . S
C167 C169 1.384 . S
H168 C170 0.949 . S
C169 C167 1.384 . S
C169 C170 1.385 . S
C169 H171 0.950 . S
C170 C164 1.404 . S
C170 H168 0.949 . S
C170 C169 1.385 . S
H171 C169 0.950 . S
H172 C156 0.951 . S
H173 C158 0.951 . S
H174 C160 0.951 . S
H175 C161 0.950 . S
H176 C162 0.950 . S
H177 C163 0.950 . S
H178 C165 0.950 . S
H179 C166 0.951 . S
C180 C181 1.386 . S
C180 C182 1.383 . S
C180 H196 0.951 . S
C181 C180 1.386 . S
C181 C185 1.383 . S
C182 C180 1.383 . S
C182 C183 1.402 . S
C182 H197 0.951 . S
C183 C182 1.402 . S
C183 C184 1.375 . S
C183 C186 1.481 . S
C184 C183 1.375 . S
C184 C185 1.367 . S
C184 H198 0.951 . S
C185 C181 1.383 . S
C185 C184 1.367 . S
C185 H199 0.950 . S
C186 C183 1.481 . S
C186 C187 1.297 . S
C186 H200 0.950 . S
C187 C186 1.297 . S
C187 C188 1.479 . S
C187 H201 0.950 . S
C188 C187 1.479 . S
C188 C189 1.375 . S
C188 C194 1.404 . S
C189 C188 1.375 . S
C189 C190 1.369 . S
C189 H202 0.950 . S
C190 C189 1.369 . S
C190 C191 1.392 . S
C190 H203 0.951 . S
C191 C190 1.392 . S
C191 C193 1.384 . S
H192 C194 0.949 . S
C193 C191 1.384 . S
C193 C194 1.385 . S
C193 H195 0.950 . S
C194 C188 1.404 . S
C194 H192 0.949 . S
C194 C193 1.385 . S
H195 C193 0.950 . S
H196 C180 0.951 . S
H197 C182 0.951 . S
H198 C184 0.951 . S
H199 C185 0.950 . S
H200 C186 0.950 . S
H201 C187 0.950 . S
H202 C189 0.950 . S
H203 C190 0.951 . S
C204 C205 1.386 . S
C204 C206 1.383 . S
C204 H220 0.951 . S
C205 C204 1.386 . S
C205 C209 1.383 . S
C206 C204 1.383 . S
C206 C207 1.402 . S
C206 H221 0.951 . S
C207 C206 1.402 . S
C207 C208 1.375 . S
C207 C210 1.481 . S
C208 C207 1.375 . S
C208 C209 1.367 . S
C208 H222 0.951 . S
C209 C205 1.383 . S
C209 C208 1.367 . S
C209 H223 0.950 . S
C210 C207 1.481 . S
C210 C211 1.297 . S
C210 H224 0.950 . S
C211 C210 1.297 . S
C211 C212 1.479 . S
C211 H225 0.950 . S
C212 C211 1.479 . S
C212 C213 1.375 . S
C212 C218 1.404 . S
C213 C212 1.375 . S
C213 C214 1.369 . S
C213 H226 0.950 . S
C214 C213 1.369 . S
C214 C215 1.392 . S
C214 H227 0.951 . S
C215 C214 1.392 . S
C215 C217 1.384 . S
H216 C218 0.949 . S
C217 C215 1.384 . S
C217 C218 1.385 . S
C217 H219 0.950 . S
C218 C212 1.404 . S
C218 H216 0.949 . S
C218 C217 1.385 . S
H219 C217 0.950 . S
H220 C204 0.951 . S
H221 C206 0.951 . S
H222 C208 0.951 . S
H223 C209 0.950 . S
H224 C210 0.950 . S
H225 C211 0.950 . S
H226 C213 0.950 . S
H227 C214 0.951 . S
C228 C229 1.386 . S
C228 C230 1.383 . S
C228 H244 0.951 . S
C229 C228 1.386 . S
C229 C233 1.383 . S
C230 C228 1.383 . S
C230 C231 1.402 . S
C230 H245 0.951 . S
C231 C230 1.402 . S
C231 C232 1.375 . S
C231 C234 1.481 . S
C232 C231 1.375 . S
C232 C233 1.367 . S
C232 H246 0.951 . S
C233 C229 1.383 . S
C233 C232 1.367 . S
C233 H247 0.950 . S
C234 C231 1.481 . S
C234 C235 1.297 . S
C234 H248 0.950 . S
C235 C234 1.297 . S
C235 C236 1.479 . S
C235 H249 0.950 . S
C236 C235 1.479 . S
C236 C237 1.375 . S
C236 C242 1.404 . S
C237 C236 1.375 . S
C237 C238 1.369 . S
C237 H250 0.950 . S
C238 C237 1.369 . S
C238 C239 1.392 . S
C238 H251 0.951 . S
C239 C238 1.392 . S
C239 C241 1.384 . S
H240 C242 0.949 . S
C241 C239 1.384 . S
C241 C242 1.385 . S
C241 H243 0.950 . S
C242 C236 1.404 . S
C242 H240 0.949 . S
C242 C241 1.385 . S
H243 C241 0.950 . S
H244 C228 0.951 . S
H245 C230 0.951 . S
H246 C232 0.951 . S
H247 C233 0.950 . S
H248 C234 0.950 . S
H249 C235 0.950 . S
H250 C237 0.950 . S
H251 C238 0.951 . S
C252 C253 1.386 . S
C252 C254 1.383 . S
C252 H268 0.951 . S
C253 C252 1.386 . S
C253 C257 1.383 . S
C254 C252 1.383 . S
C254 C255 1.402 . S
C254 H269 0.951 . S
C255 C254 1.402 . S
C255 C256 1.375 . S
C255 C258 1.481 . S
C256 C255 1.375 . S
C256 C257 1.367 . S
C256 H270 0.951 . S
C257 C253 1.383 . S
C257 C256 1.367 . S
C257 H271 0.950 . S
C258 C255 1.481 . S
C258 C259 1.297 . S
C258 H272 0.950 . S
C259 C258 1.297 . S
C259 C260 1.479 . S
C259 H273 0.950 . S
C260 C259 1.479 . S
C260 C261 1.375 . S
C260 C266 1.404 . S
C261 C260 1.375 . S
C261 C262 1.369 . S
C261 H274 0.950 . S
C262 C261 1.369 . S
C262 C263 1.392 . S
C262 H275 0.951 . S
C263 C262 1.392 . S
C263 C265 1.384 . S
H264 C266 0.949 . S
C265 C263 1.384 . S
C265 C266 1.385 . S
C265 H267 0.950 . S
C266 C260 1.404 . S
C266 H264 0.949 . S
C266 C265 1.385 . S
H267 C265 0.950 . S
H268 C252 0.951 . S
H269 C254 0.951 . S
H270 C256 0.951 . S
H271 C257 0.950 . S
H272 C258 0.950 . S
H273 C259 0.950 . S
H274 C261 0.950 . S
H275 C262 0.951 . S
C276 C277 1.386 . S
C276 C278 1.383 . S
C276 H292 0.951 . S
C277 C276 1.386 . S
C277 C281 1.383 . S
C278 C276 1.383 . S
C278 C279 1.402 . S
C278 H293 0.951 . S
C279 C278 1.402 . S
C279 C280 1.375 . S
C279 C282 1.481 1_556 S
C280 C279 1.375 . S
C280 C281 1.367 . S
C280 H294 0.951 . S
C281 C277 1.383 . S
C281 C280 1.367 . S
C281 H295 0.950 . S
C282 C279 1.481 1_554 S
C282 C283 1.297 . S
C282 H296 0.950 . S
C283 C282 1.297 . S
C283 C284 1.479 . S
C283 H297 0.950 . S
C284 C283 1.479 . S
C284 C285 1.375 . S
C284 C290 1.404 . S
C285 C284 1.375 . S
C285 C286 1.369 . S
C285 H298 0.950 . S
C286 C285 1.369 . S
C286 C287 1.392 . S
C286 H299 0.951 . S
C287 C286 1.392 . S
C287 C289 1.384 . S
H288 C290 0.949 . S
C289 C287 1.384 . S
C289 C290 1.385 . S
C289 H291 0.950 . S
C290 C284 1.404 . S
C290 H288 0.949 . S
C290 C289 1.385 . S
H291 C289 0.950 . S
H292 C276 0.951 . S
H293 C278 0.951 . S
H294 C280 0.951 . S
H295 C281 0.950 . S
H296 C282 0.950 . S
H297 C283 0.950 . S
H298 C285 0.950 . S
H299 C286 0.951 . S
C300 C301 1.386 . S
C300 C302 1.383 . S
C300 H316 0.951 . S
C301 C300 1.386 . S
C301 C305 1.383 . S
C302 C300 1.383 . S
C302 C303 1.402 . S
C302 H317 0.951 . S
C303 C302 1.402 . S
C303 C304 1.375 . S
C303 C306 1.481 . S
C304 C303 1.375 . S
C304 C305 1.367 . S
C304 H318 0.951 . S
C305 C301 1.383 . S
C305 C304 1.367 . S
C305 H319 0.950 . S
C306 C303 1.481 . S
C306 C307 1.297 1_655 S
C306 H320 0.950 . S
C307 C306 1.297 1_455 S
C307 C308 1.479 . S
C307 H321 0.950 . S
C308 C307 1.479 . S
C308 C309 1.375 . S
C308 C314 1.404 . S
C309 C308 1.375 . S
C309 C310 1.369 . S
C309 H322 0.950 . S
C310 C309 1.369 . S
C310 C311 1.392 . S
C310 H323 0.951 . S
C311 C310 1.392 . S
C311 C313 1.384 . S
H312 C314 0.949 . S
C313 C311 1.384 . S
C313 C314 1.385 . S
C313 H315 0.950 . S
C314 C308 1.404 . S
C314 H312 0.949 . S
C314 C313 1.385 . S
H315 C313 0.950 . S
H316 C300 0.951 . S
H317 C302 0.951 . S
H318 C304 0.951 . S
H319 C305 0.950 . S
H320 C306 0.950 . S
H321 C307 0.950 . S
H322 C309 0.950 . S
H323 C310 0.951 . S
C324 C325 1.386 . S
C324 C326 1.383 . S
C324 H340 0.951 . S
C325 C324 1.386 . S
C325 C329 1.383 . S
C326 C324 1.383 . S
C326 C327 1.402 . S
C326 H341 0.951 . S
C327 C326 1.402 . S
C327 C328 1.375 . S
C327 C330 1.481 1_556 S
C328 C327 1.375 . S
C328 C329 1.367 . S
C328 H342 0.951 1_556 S
C329 C325 1.383 . S
C329 C328 1.367 . S
C329 H343 0.950 . S
C330 C327 1.481 1_554 S
C330 C331 1.297 1_545 S
C330 H344 0.950 . S
C331 C330 1.297 1_565 S
C331 C332 1.479 . S
C331 H345 0.950 1_554 S
C332 C331 1.479 . S
C332 C333 1.375 . S
C332 C338 1.404 . S
C333 C332 1.375 . S
C333 C334 1.369 . S
C333 H346 0.950 . S
C334 C333 1.369 . S
C334 C335 1.392 . S
C334 H347 0.951 . S
C335 C334 1.392 . S
C335 C337 1.384 . S
H336 C338 0.949 . S
C337 C335 1.384 . S
C337 C338 1.385 . S
C337 H339 0.950 . S
C338 C332 1.404 . S
C338 H336 0.949 . S
C338 C337 1.385 . S
H339 C337 0.950 . S
H340 C324 0.951 . S
H341 C326 0.951 . S
H342 C328 0.951 1_554 S
H343 C329 0.950 . S
H344 C330 0.950 . S
H345 C331 0.950 1_556 S
H346 C333 0.950 . S
H347 C334 0.951 . S
C348 C349 1.386 . S
C348 C350 1.383 . S
C348 H364 0.951 . S
C349 C348 1.386 . S
C349 C353 1.383 . S
C350 C348 1.383 . S
C350 C351 1.402 . S
C350 H365 0.951 . S
C351 C350 1.402 . S
C351 C352 1.375 . S
C351 C354 1.481 . S
C352 C351 1.375 . S
C352 C353 1.367 . S
C352 H366 0.951 . S
C353 C349 1.383 . S
C353 C352 1.367 . S
C353 H367 0.950 . S
C354 C351 1.481 . S
C354 C355 1.297 . S
C354 H368 0.950 . S
C355 C354 1.297 . S
C355 C356 1.479 . S
C355 H369 0.950 . S
C356 C355 1.479 . S
C356 C357 1.375 . S
C356 C362 1.404 . S
C357 C356 1.375 . S
C357 C358 1.369 . S
C357 H370 0.950 . S
C358 C357 1.369 . S
C358 C359 1.392 . S
C358 H371 0.951 . S
C359 C358 1.392 . S
C359 C361 1.384 . S
H360 C362 0.949 . S
C361 C359 1.384 . S
C361 C362 1.385 . S
C361 H363 0.950 . S
C362 C356 1.404 . S
C362 H360 0.949 . S
C362 C361 1.385 . S
H363 C361 0.950 . S
H364 C348 0.951 . S
H365 C350 0.951 . S
H366 C352 0.951 . S
H367 C353 0.950 . S
H368 C354 0.950 . S
H369 C355 0.950 . S
H370 C357 0.950 . S
H371 C358 0.951 . S
C372 C373 1.386 . S
C372 C374 1.383 . S
C372 H388 0.951 . S
C373 C372 1.386 . S
C373 C377 1.383 . S
C374 C372 1.383 . S
C374 C375 1.402 . S
C374 H389 0.951 . S
C375 C374 1.402 . S
C375 C376 1.375 . S
C375 C378 1.481 . S
C376 C375 1.375 . S
C376 C377 1.367 . S
C376 H390 0.951 . S
C377 C373 1.383 . S
C377 C376 1.367 . S
C377 H391 0.950 . S
C378 C375 1.481 . S
C378 C379 1.297 1_655 S
C378 H392 0.950 1_556 S
C379 C378 1.297 1_455 S
C379 C380 1.479 1_556 S
C379 H393 0.950 . S
C380 C379 1.479 1_554 S
C380 C381 1.375 . S
C380 C386 1.404 . S
C381 C380 1.375 . S
C381 C382 1.369 . S
C381 H394 0.950 1_554 S
C382 C381 1.369 . S
C382 C383 1.392 . S
C382 H395 0.951 . S
C383 C382 1.392 . S
C383 C385 1.384 . S
H384 C386 0.949 . S
C385 C383 1.384 . S
C385 C386 1.385 . S
C385 H387 0.950 . S
C386 C380 1.404 . S
C386 H384 0.949 . S
C386 C385 1.385 . S
H387 C385 0.950 . S
H388 C372 0.951 . S
H389 C374 0.951 . S
H390 C376 0.951 . S
H391 C377 0.950 . S
H392 C378 0.950 1_554 S
H393 C379 0.950 . S
H394 C381 0.950 1_556 S
H395 C382 0.951 . S
C396 C397 1.386 . S
C396 C398 1.383 . S
C396 H412 0.951 . S
C397 C396 1.386 . S
C397 C401 1.383 . S
C398 C396 1.383 . S
C398 C399 1.402 . S
C398 H413 0.951 . S
C399 C398 1.402 . S
C399 C400 1.375 . S
C399 C402 1.481 . S
C400 C399 1.375 . S
C400 C401 1.367 . S
C400 H414 0.951 . S
C401 C397 1.383 . S
C401 C400 1.367 . S
C401 H415 0.950 . S
C402 C399 1.481 . S
C402 C403 1.297 1_545 S
C402 H416 0.950 . S
C403 C402 1.297 1_565 S
C403 C404 1.479 . S
C403 H417 0.950 1_565 S
C404 C403 1.479 . S
C404 C405 1.375 . S
C404 C410 1.404 . S
C405 C404 1.375 . S
C405 C406 1.369 . S
C405 H418 0.950 . S
C406 C405 1.369 . S
C406 C407 1.392 . S
C406 H419 0.951 . S
C407 C406 1.392 . S
C407 C409 1.384 . S
H408 C410 0.949 . S
C409 C407 1.384 . S
C409 C410 1.385 . S
C409 H411 0.950 . S
C410 C404 1.404 . S
C410 H408 0.949 . S
C410 C409 1.385 . S
H411 C409 0.950 . S
H412 C396 0.951 . S
H413 C398 0.951 . S
H414 C400 0.951 . S
H415 C401 0.950 . S
H416 C402 0.950 . S
H417 C403 0.950 1_545 S
H418 C405 0.950 . S
H419 C406 0.951 . S
C420 C421 1.386 . S
C420 C422 1.383 . S
C420 H436 0.951 . S
C421 C420 1.386 . S
C421 C425 1.383 . S
C422 C420 1.383 . S
C422 C423 1.402 . S
C422 H437 0.951 . S
C423 C422 1.402 . S
C423 C424 1.375 . S
C423 C426 1.481 1_554 S
C424 C423 1.375 . S
C424 C425 1.367 . S
C424 H438 0.951 . S
C425 C421 1.383 . S
C425 C424 1.367 . S
C425 H439 0.950 . S
C426 C423 1.481 1_556 S
C426 C427 1.297 . S
C426 H440 0.950 . S
C427 C426 1.297 . S
C427 C428 1.479 . S
C427 H441 0.950 . S
C428 C427 1.479 . S
C428 C429 1.375 . S
C428 C434 1.404 . S
C429 C428 1.375 . S
C429 C430 1.369 . S
C429 H442 0.950 . S
C430 C429 1.369 . S
C430 C431 1.392 . S
C430 H443 0.951 . S
C431 C430 1.392 . S
C431 C433 1.384 . S
H432 C434 0.949 . S
C433 C431 1.384 . S
C433 C434 1.385 . S
C433 H435 0.950 . S
C434 C428 1.404 . S
C434 H432 0.949 . S
C434 C433 1.385 . S
H435 C433 0.950 . S
H436 C420 0.951 . S
H437 C422 0.951 . S
H438 C424 0.951 . S
H439 C425 0.950 . S
H440 C426 0.950 . S
H441 C427 0.950 . S
H442 C429 0.950 . S
H443 C430 0.951 . S
C444 C445 1.386 . S
C444 C446 1.383 . S
C444 H460 0.951 . S
C445 C444 1.386 . S
C445 C449 1.383 . S
C446 C444 1.383 . S
C446 C447 1.402 . S
C446 H461 0.951 . S
C447 C446 1.402 . S
C447 C448 1.375 . S
C447 C450 1.481 . S
C448 C447 1.375 . S
C448 C449 1.367 . S
C448 H462 0.951 . S
C449 C445 1.383 . S
C449 C448 1.367 . S
C449 H463 0.950 . S
C450 C447 1.481 . S
C450 C451 1.297 1_655 S
C450 H464 0.950 . S
C451 C450 1.297 1_455 S
C451 C452 1.479 . S
C451 H465 0.950 . S
C452 C451 1.479 . S
C452 C453 1.375 . S
C452 C458 1.404 . S
C453 C452 1.375 . S
C453 C454 1.369 . S
C453 H466 0.950 . S
C454 C453 1.369 . S
C454 C455 1.392 . S
C454 H467 0.951 . S
C455 C454 1.392 . S
C455 C457 1.384 . S
H456 C458 0.949 . S
C457 C455 1.384 . S
C457 C458 1.385 . S
C457 H459 0.950 . S
C458 C452 1.404 . S
C458 H456 0.949 . S
C458 C457 1.385 . S
H459 C457 0.950 . S
H460 C444 0.951 . S
H461 C446 0.951 . S
H462 C448 0.951 . S
H463 C449 0.950 . S
H464 C450 0.950 . S
H465 C451 0.950 . S
H466 C453 0.950 . S
H467 C454 0.951 . S
C468 C469 1.386 . S
C468 C470 1.383 . S
C468 H484 0.951 . S
C469 C468 1.386 . S
C469 C473 1.383 . S
C470 C468 1.383 . S
C470 C471 1.402 . S
C470 H485 0.951 . S
C471 C470 1.402 . S
C471 C472 1.375 . S
C471 C474 1.481 . S
C472 C471 1.375 . S
C472 C473 1.367 . S
C472 H486 0.951 . S
C473 C469 1.383 . S
C473 C472 1.367 . S
C473 H487 0.950 . S
C474 C471 1.481 . S
C474 C475 1.297 1_565 S
C474 H488 0.950 . S
C475 C474 1.297 1_545 S
C475 C476 1.479 1_554 S
C475 H489 0.950 . S
C476 C475 1.479 1_556 S
C476 C477 1.375 . S
C476 C482 1.404 . S
C477 C476 1.375 . S
C477 C478 1.369 . S
C477 H490 0.950 . S
C478 C477 1.369 . S
C478 C479 1.392 . S
C478 H491 0.951 . S
C479 C478 1.392 . S
C479 C481 1.384 . S
H480 C482 0.949 . S
C481 C479 1.384 . S
C481 C482 1.385 . S
C481 H483 0.950 . S
C482 C476 1.404 . S
C482 H480 0.949 . S
C482 C481 1.385 . S
H483 C481 0.950 . S
H484 C468 0.951 . S
H485 C470 0.951 . S
H486 C472 0.951 . S
H487 C473 0.950 . S
H488 C474 0.950 . S
H489 C475 0.950 . S
H490 C477 0.950 . S
H491 C478 0.951 . S
C492 C493 1.386 . S
C492 C494 1.383 . S
C492 H508 0.951 . S
C493 C492 1.386 . S
C493 C497 1.383 . S
C494 C492 1.383 . S
C494 C495 1.402 . S
C494 H509 0.951 . S
C495 C494 1.402 . S
C495 C496 1.375 . S
C495 C498 1.481 . S
C496 C495 1.375 . S
C496 C497 1.367 . S
C496 H510 0.951 . S
C497 C493 1.383 . S
C497 C496 1.367 . S
C497 H511 0.950 . S
C498 C495 1.481 . S
C498 C499 1.297 . S
C498 H512 0.950 . S
C499 C498 1.297 . S
C499 C500 1.479 . S
C499 H513 0.950 . S
C500 C499 1.479 . S
C500 C501 1.375 . S
C500 C506 1.404 . S
C501 C500 1.375 . S
C501 C502 1.369 . S
C501 H514 0.950 . S
C502 C501 1.369 . S
C502 C503 1.392 . S
C502 H515 0.951 . S
C503 C502 1.392 . S
C503 C505 1.384 . S
H504 C506 0.949 . S
C505 C503 1.384 . S
C505 C506 1.385 . S
C505 H507 0.950 . S
C506 C500 1.404 . S
C506 H504 0.949 . S
C506 C505 1.385 . S
H507 C505 0.950 . S
H508 C492 0.951 . S
H509 C494 0.951 . S
H510 C496 0.951 . S
H511 C497 0.950 . S
H512 C498 0.950 . S
H513 C499 0.950 . S
H514 C501 0.950 . S
H515 C502 0.951 . S
C516 C517 1.386 . S
C516 C518 1.383 . S
C516 H532 0.951 . S
C517 C516 1.386 . S
C517 C521 1.383 . S
C518 C516 1.383 . S
C518 C519 1.402 . S
C518 H533 0.951 . S
C519 C518 1.402 . S
C519 C520 1.375 . S
C519 C522 1.481 1_655 S
C520 C519 1.375 . S
C520 C521 1.367 . S
C520 H534 0.951 . S
C521 C517 1.383 . S
C521 C520 1.367 . S
C521 H535 0.950 . S
C522 C519 1.481 1_455 S
C522 C523 1.297 1_556 S
C522 H536 0.950 . S
C523 C522 1.297 1_554 S
C523 C524 1.479 . S
C523 H537 0.950 1_455 S
C524 C523 1.479 . S
C524 C525 1.375 . S
C524 C530 1.404 . S
C525 C524 1.375 . S
C525 C526 1.369 . S
C525 H538 0.950 . S
C526 C525 1.369 . S
C526 C527 1.392 . S
C526 H539 0.951 . S
C527 C526 1.392 . S
C527 C529 1.384 . S
H528 C530 0.949 1_556 S
C529 C527 1.384 . S
C529 C530 1.385 . S
C529 H531 0.950 . S
C530 C524 1.404 . S
C530 H528 0.949 1_554 S
C530 C529 1.385 . S
H531 C529 0.950 . S
H532 C516 0.951 . S
H533 C518 0.951 . S
H534 C520 0.951 . S
H535 C521 0.950 . S
H536 C522 0.950 . S
H537 C523 0.950 1_655 S
H538 C525 0.950 . S
H539 C526 0.951 . S
C540 C541 1.386 . S
C540 C542 1.383 . S
C540 H556 0.951 . S
C541 C540 1.386 . S
C541 C545 1.383 . S
C542 C540 1.383 . S
C542 C543 1.402 . S
C542 H557 0.951 . S
C543 C542 1.402 . S
C543 C544 1.375 . S
C543 C546 1.481 . S
C544 C543 1.375 . S
C544 C545 1.367 . S
C544 H558 0.951 . S
C545 C541 1.383 . S
C545 C544 1.367 . S
C545 H559 0.950 . S
C546 C543 1.481 . S
C546 C547 1.297 1_565 S
C546 H560 0.950 . S
C547 C546 1.297 1_545 S
C547 C548 1.479 . S
C547 H561 0.950 1_545 S
C548 C547 1.479 . S
C548 C549 1.375 . S
C548 C554 1.404 . S
C549 C548 1.375 . S
C549 C550 1.369 . S
C549 H562 0.950 . S
C550 C549 1.369 . S
C550 C551 1.392 . S
C550 H563 0.951 . S
C551 C550 1.392 . S
C551 C553 1.384 . S
H552 C554 0.949 . S
C553 C551 1.384 . S
C553 C554 1.385 . S
C553 H555 0.950 . S
C554 C548 1.404 . S
C554 H552 0.949 . S
C554 C553 1.385 . S
H555 C553 0.950 . S
H556 C540 0.951 . S
H557 C542 0.951 . S
H558 C544 0.951 . S
H559 C545 0.950 . S
H560 C546 0.950 . S
H561 C547 0.950 1_565 S
H562 C549 0.950 . S
H563 C550 0.951 . S
C133 C5 1.296 . S
C143 C94 1.329 . S
C157 C28 1.307 . S
C167 C116 1.257 . S
C181 C7 1.344 . S
C191 C50 1.348 . S
C205 C72 1.327 . S
C215 C31 1.280 . S
C229 C53 1.318 . S
C239 C97 1.355 . S
C253 C75 1.301 . S
C263 C119 1.336 . S
C277 C117 1.557 . S
C287 C8 1.560 . S
C301 C29 1.549 . S
C311 C6 1.541 . S
C325 C26 1.552 . S
C335 C51 1.550 . S
C349 C48 1.550 . S
C359 C73 1.544 . S
C373 C70 1.551 . S
C383 C92 1.528 . S
C397 C114 1.560 . S
C407 C95 1.565 . S
C421 C49 1.549 . S
C431 C74 1.583 . S
C445 C71 1.566 . S
C455 C93 1.569 . S
C469 C96 1.580 . S
C479 C115 1.538 . S
C493 C118 1.553 . S
C503 C9 1.584 . S
C517 C30 1.571 . S
C527 C4 1.533 . S
C541 C52 1.549 . S
C551 C27 1.583 . S
