# Generated by pormake.
# Topology rob, (6)-cn, num edge types: 1
# Building blocks:
#     Node 0, Type 0, BuildingBlock: LEVNOQ01_clean_sbu_1, # of connection points: 6
#     Node 1, Type 0, BuildingBlock: LEVNOQ01_clean_sbu_1, # of connection points: 6
#     Node 2, Type 0, BuildingBlock: LEVNOQ01_clean_sbu_1, # of connection points: 6
#     Node 3, Type 0, BuildingBlock: LEVNOQ01_clean_sbu_1, # of connection points: 6
#     Edge 4, Type (0, 0), BuildingBlock: FUNLAD_clean_linker_0, # of connection points: 2
#     Edge 5, Type (0, 0), BuildingBlock: FUNLAD_clean_linker_0, # of connection points: 2
#     Edge 6, Type (0, 0), BuildingBlock: FUNLAD_clean_linker_0, # of connection points: 2
#     Edge 7, Type (0, 0), BuildingBlock: FUNLAD_clean_linker_0, # of connection points: 2
#     Edge 8, Type (0, 0), BuildingBlock: FUNLAD_clean_linker_0, # of connection points: 2
#     Edge 9, Type (0, 0), BuildingBlock: FUNLAD_clean_linker_0, # of connection points: 2
#     Edge 10, Type (0, 0), BuildingBlock: FUNLAD_clean_linker_0, # of connection points: 2
#     Edge 11, Type (0, 0), BuildingBlock: FUNLAD_clean_linker_0, # of connection points: 2
#     Edge 12, Type (0, 0), BuildingBlock: FUNLAD_clean_linker_0, # of connection points: 2
#     Edge 13, Type (0, 0), BuildingBlock: FUNLAD_clean_linker_0, # of connection points: 2
#     Edge 14, Type (0, 0), BuildingBlock: FUNLAD_clean_linker_0, # of connection points: 2
#     Edge 15, Type (0, 0), BuildingBlock: FUNLAD_clean_linker_0, # of connection points: 2
# Relax obj value: 0.200
# Max RMSD: 0.225
# Mean RMSD: 0.225
data_MOF--net-rob--node1-LEVNOQ01_clean_sbu_1--edge1-FUNLAD_clean_linker_0
_symmetry_space_group_name_H-M    P1
_symmetry_Int_Tables_number       1
_symmetry_cell_setting            triclinic
loop_
_symmetry_equiv_pos_as_xyz
'x, y, z'
_cell_length_a     17.346083
_cell_length_b     31.642338
_cell_length_c     30.885398
_cell_angle_alpha  105.523
_cell_angle_beta   89.908384
_cell_angle_gamma 89.898616
loop_
_atom_site_label
_atom_site_type_symbol
_atom_site_fract_x
_atom_site_fract_y
_atom_site_fract_z
_atom_type_partial_charge
O0 O 0.09336 0.31306 0.04219 0.0
Mg1 Mg 0.21182 0.32603 0.0462 0.0
O2 O 0.14428 0.2483 0.03076 0.0
Mg3 Mg 0.23888 0.24419 0.97651 0.0
O4 O 0.2628 0.31821 -0.01415 0.0
O5 O 0.24166 0.38372 0.03494 0.0
O6 O 0.33635 0.24203 0.92275 0.0
O7 O 0.1505 0.24982 0.92436 0.0
Mg8 Mg 0.27283 0.1739 0.91531 0.0
O9 O 0.21051 0.16859 0.96846 0.0
O10 O 0.39267 0.18224 0.92633 0.0
O11 O 0.21055 0.20156 0.8696 0.0
O12 O 0.24345 0.11199 0.90947 0.0
C13 C 0.3293 0.263 0.07051 0.0
C14 C 0.09179 0.27544 0.04857 0.0
C15 C 0.26933 0.3606 -0.00281 0.0
C16 C 0.39297 0.21573 0.91182 0.0
C17 C 0.1594 0.23092 0.88289 0.0
C18 C 0.21024 0.12679 0.948 0.0
O19 O 0.28677 0.2967 0.08503 0.0
O20 O 0.32629 0.23989 0.02985 0.0
O21 O 0.59331 0.79911 0.03209 0.0
Mg22 Mg 0.71317 0.79282 0.03966 0.0
O23 O 0.63105 0.73267 0.02674 0.0
Mg24 Mg 0.73316 0.72886 0.97495 0.0
O25 O 0.78409 0.80214 -0.00835 0.0
O26 O 0.76288 0.8514 0.05853 0.0
O27 O 0.82837 0.71816 0.92104 0.0
O28 O 0.6478 0.75135 0.92796 0.0
Mg29 Mg 0.68231 0.65416 0.89086 0.0
O30 O 0.69815 0.65641 0.95607 0.0
O31 O 0.78921 0.66382 0.86354 0.0
O32 O 0.58827 0.69396 0.88422 0.0
O33 O 0.6629 0.59569 0.90405 0.0
C34 C 0.80396 0.72254 0.0652 0.0
C35 C 0.58169 0.76305 0.04097 0.0
C36 C 0.79635 0.84036 0.01979 0.0
C37 C 0.83898 0.69212 0.88215 0.0
C38 C 0.59495 0.73502 0.89995 0.0
C39 C 0.67837 0.6155 0.94534 0.0
O40 O 0.75647 0.75347 0.0804 0.0
O41 O 0.81721 0.70945 0.02328 0.0
O42 O 0.09964 0.69332 0.433 0.0
Mg43 Mg 0.22244 0.69024 0.4295 0.0
O44 O 0.15766 0.7483 0.41923 0.0
Mg45 Mg 0.24938 0.74414 0.47652 0.0
O46 O 0.29298 0.66719 0.46784 0.0
O47 O 0.23496 0.62527 0.4067 0.0
O48 O 0.33859 0.74484 0.53474 0.0
O49 O 0.15407 0.73003 0.52022 0.0
Mg50 Mg 0.26414 0.80966 0.53911 0.0
O51 O 0.20473 0.81874 0.48646 0.0
O52 O 0.38541 0.80879 0.5381 0.0
O53 O 0.19813 0.77837 0.58028 0.0
O54 O 0.23072 0.87193 0.54979 0.0
C55 C 0.3406 0.73616 0.39102 0.0
C56 C 0.09907 0.72357 0.41363 0.0
C57 C 0.28248 0.62908 0.43933 0.0
C58 C 0.39047 0.77341 0.54907 0.0
C59 C 0.15287 0.74722 0.56222 0.0
C60 C 0.19873 0.85923 0.51085 0.0
O61 O 0.28553 0.70951 0.37849 0.0
O62 O 0.34685 0.75653 0.4322 0.0
O63 O 0.68448 0.16936 0.37166 0.0
Mg64 Mg 0.79196 0.15196 0.39375 0.0
O65 O 0.64173 0.21702 0.43375 0.0
Mg66 Mg 0.74162 0.23111 0.48433 0.0
O67 O 0.7927 0.16311 0.46113 0.0
O68 O 0.78243 0.0964 0.41772 0.0
O69 O 0.84535 0.25001 0.53506 0.0
O70 O 0.67147 0.20075 0.53139 0.0
Mg71 Mg 0.70384 0.30268 0.5731 0.0
O72 O 0.69297 0.30141 0.50673 0.0
O73 O 0.82107 0.316 0.58102 0.0
O74 O 0.6655 0.25 0.59704 0.0
O75 O 0.61391 0.33918 0.55926 0.0
C76 C 0.86656 0.2381 0.40353 0.0
C77 C 0.63258 0.19472 0.39317 0.0
C78 C 0.77994 0.1223 0.45765 0.0
C79 C 0.86734 0.28464 0.5647 0.0
C80 C 0.65354 0.21172 0.57262 0.0
C81 C 0.63286 0.32619 0.51749 0.0
O82 O 0.88047 0.19712 0.39148 0.0
O83 O 0.81375 0.25469 0.43202 0.0
C84 C 0.59903 0.59745 0.00294 0.0
C85 C 0.66807 0.59094 -0.02144 0.0
C86 C 0.56264 0.56174 0.01246 0.0
C87 C 0.59619 0.51983 -0.00176 0.0
C88 C 0.67155 0.51523 -0.01851 0.0
C89 C 0.7074 0.55084 0.97138 0.0
C90 C 0.54721 0.48076 -0.0093 0.0
C91 C 0.48557 0.47727 0.96358 0.0
C92 C 0.42862 0.442 0.95858 0.0
C93 C 0.35036 0.45329 0.96037 0.0
C94 C 0.29537 0.42399 0.96765 0.0
C95 C 0.31817 0.38273 0.97171 0.0
H96 H 0.5105 0.38914 0.95435 0.0
C97 C 0.39495 0.36906 0.96326 0.0
C98 C 0.45041 0.39887 0.95719 0.0
H99 H 0.41341 0.33726 0.96636 0.0
H100 H 0.56758 0.62805 0.00826 0.0
H101 H 0.5046 0.56578 0.02601 0.0
H102 H 0.6983 0.48314 0.9707 0.0
H103 H 0.76066 0.54535 0.95227 0.0
H104 H 0.56283 0.45481 0.00604 0.0
H105 H 0.47165 0.50401 0.94888 0.0
H106 H 0.33248 0.48621 0.96067 0.0
H107 H 0.23619 0.43494 0.97412 0.0
C108 C 0.37439 0.58965 0.47806 0.0
C109 C 0.32762 0.59011 0.44118 0.0
C110 C 0.41772 0.55222 0.47792 0.0
C111 C 0.41528 0.51499 0.44061 0.0
C112 C 0.36858 0.51575 0.404 0.0
C113 C 0.32543 0.55279 0.40418 0.0
C114 C 0.45576 0.47359 0.43967 0.0
C115 C 0.51944 0.4716 0.46363 0.0
C116 C 0.55342 0.4296 0.46708 0.0
C117 C 0.62927 0.42968 0.4827 0.0
C118 C 0.65864 0.39309 0.49419 0.0
C119 C 0.61217 0.35611 0.49074 0.0
H120 H 0.44974 0.38975 0.44951 0.0
C121 C 0.53818 0.35471 0.47264 0.0
C122 C 0.50901 0.39106 0.46053 0.0
H123 H 0.50107 0.32678 0.47085 0.0
H124 H 0.37689 0.61789 0.50705 0.0
H125 H 0.45135 0.55225 0.5074 0.0
H126 H 0.36533 0.4875 0.37503 0.0
H127 H 0.29062 0.55208 0.37491 0.0
H128 H 0.43237 0.44373 0.41764 0.0
H129 H 0.54717 0.50176 0.48218 0.0
H130 H 0.66441 0.45894 0.48842 0.0
H131 H 0.71525 0.39513 0.50942 0.0
C132 C 0.18322 0.05049 0.95005 0.0
C133 C 0.16935 0.09558 0.96738 0.0
C134 C 0.13916 0.02007 0.96419 0.0
C135 C 0.07933 0.03415 -0.00456 0.0
C136 C 0.06855 0.07925 0.01489 0.0
C137 C 0.11327 0.10985 0.00091 0.0
C138 C 0.02682 0.00252 0.00772 0.0
C139 C 0.01083 0.96313 -0.02068 0.0
C140 C 0.95678 0.93142 -0.00969 0.0
C141 C 0.92435 0.89854 0.95518 0.0
C142 C 0.87232 0.86843 0.96441 0.0
C143 C 0.85178 0.87104 0.00897 0.0
H144 H 0.9644 0.95616 0.06311 0.0
C145 C 0.88559 0.90323 0.04409 0.0
C146 C 0.93813 0.9328 0.03495 0.0
H147 H 0.87232 0.90526 0.07888 0.0
H148 H 0.22742 0.03854 0.9249 0.0
H149 H 0.15178 0.9856 0.95016 0.0
H150 H 0.0237 0.09084 0.03972 0.0
H151 H 0.10199 0.14447 0.01501 0.0
H152 H -0.00315 0.01346 0.03963 0.0
H153 H 0.03502 0.95444 0.94563 0.0
H154 H 0.93867 0.89643 0.92049 0.0
H155 H 0.84739 0.84366 0.93678 0.0
C156 C 0.86192 0.11337 0.51944 0.0
C157 C 0.79369 0.1025 0.49473 0.0
C158 C 0.9011 0.08117 0.53411 0.0
C159 C 0.87125 0.03837 0.52486 0.0
C160 C 0.79619 0.03036 0.5081 0.0
C161 C 0.75757 0.06234 0.49284 0.0
C162 C 0.92184 0.00058 0.52437 0.0
C163 C -0.00783 -0.00246 0.50515 0.0
C164 C 0.0443 0.95943 0.4999 0.0
C165 C 0.12407 0.96671 0.5004 0.0
C166 C 0.17546 0.93273 0.5001 0.0
C167 C 0.14794 0.89056 0.49764 0.0
H168 H 0.95567 0.90953 0.4925 0.0
C169 C 0.06857 0.88218 0.49321 0.0
C170 C 0.01683 0.91651 0.49459 0.0
H171 H 0.0463 0.8499 0.49196 0.0
H172 H 0.89069 0.1442 0.52147 0.0
H173 H 0.95806 0.08845 0.54847 0.0
H174 H 0.7715 -0.00217 0.50157 0.0
H175 H 0.70458 0.05348 0.47409 0.0
H176 H 0.89827 0.97346 0.53544 0.0
H177 H 0.01376 0.02484 0.49349 0.0
H178 H 0.1466 -0.00068 0.50357 0.0
H179 H 0.23654 0.93984 0.50404 0.0
C180 C 0.53597 0.17006 0.33315 0.0
C181 C 0.56767 0.20415 0.36708 0.0
C182 C 0.49313 0.17947 0.29879 0.0
C183 C 0.48296 0.22319 0.2975 0.0
C184 C 0.50814 0.25728 0.33387 0.0
C185 C 0.55037 0.24783 0.36856 0.0
C186 C 0.45207 0.23431 0.25739 0.0
C187 C 0.46142 0.20805 0.21549 0.0
C188 C 0.43684 0.22162 0.17554 0.0
C189 C 0.40618 0.19032 0.13856 0.0
C190 C 0.37562 0.2034 0.10238 0.0
C191 C 0.37565 0.24792 0.10299 0.0
H192 H 0.46929 0.29004 0.20133 0.0
C193 C 0.41128 0.27867 0.1384 0.0
C194 C 0.44246 0.26557 0.17423 0.0
H195 H 0.41287 0.31306 0.139 0.0
H196 H 0.54852 0.13614 0.33167 0.0
H197 H 0.47128 0.15242 0.27235 0.0
H198 H 0.50015 0.29124 0.3338 0.0
H199 H 0.57546 0.27462 0.39408 0.0
H200 H 0.42614 0.26655 0.26227 0.0
H201 H 0.48689 0.17567 0.20994 0.0
H202 H 0.40241 0.15617 0.13867 0.0
H203 H 0.34777 0.17921 0.0754 0.0
C204 C 0.53923 0.72572 0.09817 0.0
C205 C 0.53815 0.7632 0.08202 0.0
C206 C 0.5216 0.72902 0.14294 0.0
C207 C 0.50255 0.76991 0.17237 0.0
C208 C 0.49402 0.8064 0.15528 0.0
C209 C 0.5117 0.80315 0.11044 0.0
C210 C 0.4888 0.77497 0.22062 0.0
C211 C 0.52329 0.74935 0.2432 0.0
C212 C 0.49173 0.74656 0.2864 0.0
C213 C 0.46859 0.70534 0.28999 0.0
C214 C 0.42129 0.70215 0.32529 0.0
C215 C 0.39875 0.74006 0.35815 0.0
H216 H 0.49225 0.81641 0.31875 0.0
C217 C 0.42819 0.78099 0.35715 0.0
C218 C 0.47387 0.78434 0.32092 0.0
H219 H 0.41193 0.81045 0.38264 0.0
H220 H 0.55857 0.69438 0.07705 0.0
H221 H 0.5245 0.69964 0.1545 0.0
H222 H 0.47733 0.83796 0.17715 0.0
H223 H 0.51005 0.8327 0.09909 0.0
H224 H 0.44637 0.79918 0.23749 0.0
H225 H 0.56543 0.72484 0.22673 0.0
H226 H 0.48207 0.67592 0.26368 0.0
H227 H 0.40011 0.67015 0.32609 0.0
C228 C 0.60068 0.78682 0.8535 0.0
C229 C 0.55549 0.76268 0.87599 0.0
C230 C 0.56982 0.8 0.81762 0.0
C231 C 0.49301 0.7901 0.80475 0.0
C232 C 0.44526 0.77093 0.83083 0.0
C233 C 0.47683 0.75645 0.86591 0.0
C234 C 0.46572 0.79396 0.76095 0.0
C235 C 0.50569 0.77486 0.72338 0.0
C236 C 0.47904 0.77517 0.67817 0.0
C237 C 0.49398 0.73884 0.64141 0.0
C238 C 0.46705 0.73817 0.59854 0.0
C239 C 0.42774 0.77462 0.59188 0.0
H240 H 0.42876 0.84034 0.69877 0.0
C241 C 0.415 0.8114 0.62845 0.0
C242 C 0.43996 0.8116 0.67123 0.0
H243 H 0.38299 0.8395 0.6243 0.0
H244 H 0.66179 0.79139 0.86045 0.0
H245 H 0.60719 0.81524 0.79805 0.0
H246 H 0.38563 0.76347 0.82148 0.0
H247 H 0.44141 0.73766 0.88292 0.0
H248 H 0.40928 0.80829 0.75904 0.0
H249 H 0.5576 0.75623 0.72571 0.0
H250 H 0.52452 0.71052 0.64614 0.0
H251 H 0.47625 0.70928 0.57083 0.0
C252 C 0.5474 0.17064 0.59594 0.0
C253 C 0.62636 0.17894 0.5943 0.0
C254 C 0.51866 0.15271 0.62934 0.0
C255 C 0.56887 0.14408 0.66176 0.0
C256 C 0.64868 0.1464 0.65572 0.0
C257 C 0.67734 0.16421 0.62229 0.0
C258 C 0.54047 0.14315 0.70662 0.0
C259 C 0.48706 0.17264 0.7274 0.0
C260 C 0.47061 0.18536 0.77632 0.0
C261 C 0.41782 0.21964 0.7926 0.0
C262 C 0.39868 0.233 0.838 0.0
C263 C 0.43108 0.21181 0.86823 0.0
H264 H 0.54873 0.13997 0.79643 0.0
C265 C 0.4873 0.17923 0.85257 0.0
C266 C 0.50691 0.16602 0.80704 0.0
H267 H 0.51298 0.1622 0.8751 0.0
H268 H 0.5075 0.18181 0.57437 0.0
H269 H 0.45683 0.14982 0.63255 0.0
H270 H 0.68841 0.13943 0.67998 0.0
H271 H 0.73866 0.17041 0.62116 0.0
H272 H 0.57389 0.12479 0.72503 0.0
H273 H 0.45799 0.192 0.70806 0.0
H274 H 0.38956 0.23556 0.7699 0.0
H275 H 0.35447 0.25787 0.84867 0.0
C276 C 0.80496 0.70358 0.13731 0.0
C277 C 0.84298 0.70304 0.09717 0.0
C278 C 0.84434 0.69332 0.17214 0.0
C279 C 0.92303 0.68208 0.16757 0.0
C280 C 0.95978 0.67855 0.12612 0.0
C281 C 0.91973 0.68866 0.09085 0.0
C282 C 0.96992 0.68146 0.2074 0.0
C283 C 0.93805 0.67853 0.24623 0.0
C284 C 0.97759 0.69276 0.28999 0.0
C285 C 0.94995 0.67788 0.32597 0.0
C286 C 0.98553 0.6909 0.36786 0.0
C287 C 0.0489 0.71943 0.3745 0.0
H288 H 0.05828 0.73752 0.27122 0.0
C289 C 0.07303 0.73683 0.33942 0.0
C290 C 0.03784 0.72358 0.2975 0.0
H291 H 0.12185 0.75886 0.34352 0.0
H292 H 0.74542 0.7142 0.14272 0.0
H293 H 0.81361 0.69764 0.20348 0.0
H294 H 0.02046 0.67026 0.12183 0.0
H295 H 0.95005 0.68808 0.06 0.0
H296 H 0.03122 0.6879 0.20583 0.0
H297 H 0.87917 0.66713 0.24672 0.0
H298 H 0.90202 0.6552 0.32135 0.0
H299 H 0.9657 0.6771 0.39442 0.0
C300 C 0.97171 0.26228 0.36192 0.0
C301 C 0.89329 0.26258 0.37272 0.0
C302 C -0.00521 0.2719 0.32239 0.0
C303 C 0.93936 0.28125 0.29314 0.0
C304 C 0.86145 0.28449 0.30552 0.0
C305 C 0.83844 0.27515 0.34518 0.0
C306 C 0.96133 0.28569 0.24868 0.0
C307 C 0.01123 0.25788 0.22232 0.0
C308 C 0.02956 0.26222 0.1774 0.0
C309 C 0.0546 0.30262 0.17228 0.0
C310 C 0.07004 0.30737 0.12972 0.0
C311 C 0.06088 0.27171 0.09154 0.0
H312 H 0.0014 0.19499 0.14323 0.0
C313 C 0.03626 0.23114 0.09672 0.0
C314 C 0.02074 0.2264 0.13958 0.0
H315 H 0.03038 0.20311 0.06779 0.0
H316 H 0.01444 0.25203 0.3826 0.0
H317 H 0.05549 0.27028 0.31378 0.0
H318 H 0.81801 0.29138 0.28314 0.0
H319 H 0.77733 0.27394 0.35223 0.0
H320 H 0.93118 0.30989 0.2357 0.0
H321 H 0.03541 0.23043 0.23274 0.0
H322 H 0.06363 0.33026 0.20133 0.0
H323 H 0.09263 0.33845 0.12695 0.0
C324 C 0.97261 0.24599 0.59276 0.0
C325 C 0.94139 0.28533 0.58784 0.0
C326 C 0.02351 0.24688 0.62783 0.0
C327 C 0.04424 0.28708 0.65768 0.0
C328 C 0.02227 0.3264 0.64873 0.0
C329 C 0.9707 0.32556 0.61393 0.0
C330 C 0.07364 0.28787 0.70241 0.0
C331 C 0.03076 0.26962 0.7289 0.0
C332 C 0.05659 0.26466 0.77269 0.0
C333 C 0.0283 0.22895 0.78676 0.0
C334 C 0.05888 0.21917 0.8246 0.0
C335 C 0.11632 0.24581 0.84944 0.0
H336 H 0.13184 0.32159 0.79026 0.0
C337 C 0.14052 0.2835 0.8377 0.0
C338 C 0.11085 0.29295 0.79939 0.0
H339 H 0.18521 0.30424 0.85677 0.0
H340 H 0.95132 0.21459 0.57302 0.0
H341 H 0.04089 0.2162 0.63422 0.0
H342 H 0.03823 0.35764 0.67138 0.0
H343 H 0.94816 0.35639 0.61029 0.0
H344 H 0.12809 0.30396 0.71344 0.0
H345 H 0.97621 0.25432 0.7161 0.0
H346 H 0.98562 0.20713 0.76702 0.0
H347 H 0.04001 0.1899 0.83341 0.0
C348 C 0.0472 0.75316 0.61677 0.0
C349 C 0.10536 0.72809 0.59062 0.0
C350 C 0.01198 0.73827 0.65035 0.0
C351 C 0.03603 0.69866 0.65842 0.0
C352 C 0.08975 0.67194 0.62982 0.0
C353 C 0.12462 0.68673 0.59592 0.0
C354 C 0.01158 0.68753 0.6994 0.0
C355 C 0.01737 0.71756 0.73934 0.0
C356 C 0.98784 0.7104 0.78151 0.0
C357 C 0.96336 0.74696 0.81556 0.0
C358 C 0.92146 0.74117 0.85206 0.0
C359 C 0.90364 0.6987 0.85451 0.0
H360 H -0.00052 0.6393 0.76261 0.0
C361 C 0.93532 0.66233 0.82317 0.0
C362 C 0.97791 0.6681 0.78705 0.0
H363 H 0.92275 0.6293 0.82499 0.0
H364 H 0.03148 0.78495 0.61246 0.0
H365 H 0.96887 0.75867 0.67153 0.0
H366 H 0.10853 0.64125 0.63566 0.0
H367 H 0.17005 0.66729 0.57588 0.0
H368 H -0.00921 0.65456 0.69641 0.0
H369 H 0.03919 0.75008 0.74054 0.0
H370 H 0.97154 0.7799 0.81225 0.0
H371 H 0.89696 0.76964 0.87582 0.0
loop_
_geom_bond_atom_site_label_1
_geom_bond_atom_site_label_2
_geom_bond_distance
_geom_bond_site_symmetry_2
_ccdc_geom_bond_type
O0 Mg1 1.990 . S
O0 C14 1.253 . S
Mg1 O0 1.990 . S
Mg1 O4 2.180 . S
Mg1 O5 2.117 . S
Mg1 O19 2.030 . S
O2 Mg3 2.084 . S
O2 C14 1.260 . S
Mg3 O2 2.084 . S
Mg3 O4 2.101 . S
Mg3 O6 2.067 1_554 S
Mg3 O7 2.060 1_554 S
Mg3 O9 2.096 1_554 S
Mg3 O20 2.091 . S
O4 Mg1 2.180 . S
O4 Mg3 2.101 . S
O4 C15 1.279 . S
O5 Mg1 2.117 . S
O5 C15 1.250 . S
O6 Mg3 2.067 1_556 S
O6 C16 1.264 . S
O7 Mg3 2.060 1_556 S
O7 C17 1.260 . S
Mg8 O9 2.180 . S
Mg8 O10 2.030 . S
Mg8 O11 1.990 . S
Mg8 O12 2.117 . S
O9 Mg3 2.096 1_556 S
O9 Mg8 2.180 . S
O9 C18 1.279 . S
O10 Mg8 2.030 . S
O10 C16 1.248 . S
O11 Mg8 1.990 . S
O11 C17 1.253 . S
O12 Mg8 2.117 . S
O12 C18 1.250 . S
C13 O19 1.248 . S
C13 O20 1.264 . S
C14 O0 1.253 . S
C14 O2 1.260 . S
C15 O4 1.279 . S
C15 O5 1.250 . S
C16 O6 1.264 . S
C16 O10 1.248 . S
C17 O7 1.260 . S
C17 O11 1.253 . S
C18 O9 1.279 . S
C18 O12 1.250 . S
O19 Mg1 2.030 . S
O19 C13 1.248 . S
O20 Mg3 2.091 . S
O20 C13 1.264 . S
O21 Mg22 1.990 . S
O21 C35 1.253 . S
Mg22 O21 1.990 . S
Mg22 O25 2.180 . S
Mg22 O26 2.117 . S
Mg22 O40 2.030 . S
O23 Mg24 2.084 . S
O23 C35 1.260 . S
Mg24 O23 2.084 . S
Mg24 O25 2.101 . S
Mg24 O27 2.067 1_554 S
Mg24 O28 2.060 1_554 S
Mg24 O30 2.096 1_554 S
Mg24 O41 2.091 . S
O25 Mg22 2.180 . S
O25 Mg24 2.101 . S
O25 C36 1.279 . S
O26 Mg22 2.117 . S
O26 C36 1.250 . S
O27 Mg24 2.067 1_556 S
O27 C37 1.264 . S
O28 Mg24 2.060 1_556 S
O28 C38 1.260 . S
Mg29 O30 2.180 . S
Mg29 O31 2.030 . S
Mg29 O32 1.990 . S
Mg29 O33 2.117 . S
O30 Mg24 2.096 1_556 S
O30 Mg29 2.180 . S
O30 C39 1.279 . S
O31 Mg29 2.030 . S
O31 C37 1.248 . S
O32 Mg29 1.990 . S
O32 C38 1.253 . S
O33 Mg29 2.117 . S
O33 C39 1.250 . S
C34 O40 1.248 . S
C34 O41 1.264 . S
C35 O21 1.253 . S
C35 O23 1.260 . S
C36 O25 1.279 . S
C36 O26 1.250 . S
C37 O27 1.264 . S
C37 O31 1.248 . S
C38 O28 1.260 . S
C38 O32 1.253 . S
C39 O30 1.279 . S
C39 O33 1.250 . S
O40 Mg22 2.030 . S
O40 C34 1.248 . S
O41 Mg24 2.091 . S
O41 C34 1.264 . S
O42 Mg43 1.990 . S
O42 C56 1.253 . S
Mg43 O42 1.990 . S
Mg43 O46 2.180 . S
Mg43 O47 2.117 . S
Mg43 O61 2.030 . S
O44 Mg45 2.072 . S
O44 C56 1.260 . S
Mg45 O44 2.072 . S
Mg45 O46 2.099 . S
Mg45 O48 2.079 . S
Mg45 O49 2.072 . S
Mg45 O51 2.099 . S
Mg45 O62 2.079 . S
O46 Mg43 2.180 . S
O46 Mg45 2.099 . S
O46 C57 1.279 . S
O47 Mg43 2.117 . S
O47 C57 1.250 . S
O48 Mg45 2.079 . S
O48 C58 1.264 . S
O49 Mg45 2.072 . S
O49 C59 1.260 . S
Mg50 O51 2.180 . S
Mg50 O52 2.030 . S
Mg50 O53 1.990 . S
Mg50 O54 2.117 . S
O51 Mg45 2.099 . S
O51 Mg50 2.180 . S
O51 C60 1.279 . S
O52 Mg50 2.030 . S
O52 C58 1.248 . S
O53 Mg50 1.990 . S
O53 C59 1.253 . S
O54 Mg50 2.117 . S
O54 C60 1.250 . S
C55 O61 1.248 . S
C55 O62 1.264 . S
C56 O42 1.253 . S
C56 O44 1.260 . S
C57 O46 1.279 . S
C57 O47 1.250 . S
C58 O48 1.264 . S
C58 O52 1.248 . S
C59 O49 1.260 . S
C59 O53 1.253 . S
C60 O51 1.279 . S
C60 O54 1.250 . S
O61 Mg43 2.030 . S
O61 C55 1.248 . S
O62 Mg45 2.079 . S
O62 C55 1.264 . S
O63 Mg64 1.990 . S
O63 C77 1.253 . S
Mg64 O63 1.990 . S
Mg64 O67 2.180 . S
Mg64 O68 2.117 . S
Mg64 O82 2.030 . S
O65 Mg66 2.072 . S
O65 C77 1.260 . S
Mg66 O65 2.072 . S
Mg66 O67 2.099 . S
Mg66 O69 2.079 . S
Mg66 O70 2.072 . S
Mg66 O72 2.099 . S
Mg66 O83 2.079 . S
O67 Mg64 2.180 . S
O67 Mg66 2.099 . S
O67 C78 1.279 . S
O68 Mg64 2.117 . S
O68 C78 1.250 . S
O69 Mg66 2.079 . S
O69 C79 1.264 . S
O70 Mg66 2.072 . S
O70 C80 1.260 . S
Mg71 O72 2.180 . S
Mg71 O73 2.030 . S
Mg71 O74 1.990 . S
Mg71 O75 2.117 . S
O72 Mg66 2.099 . S
O72 Mg71 2.180 . S
O72 C81 1.279 . S
O73 Mg71 2.030 . S
O73 C79 1.248 . S
O74 Mg71 1.990 . S
O74 C80 1.253 . S
O75 Mg71 2.117 . S
O75 C81 1.250 . S
C76 O82 1.248 . S
C76 O83 1.264 . S
C77 O63 1.253 . S
C77 O65 1.260 . S
C78 O67 1.279 . S
C78 O68 1.250 . S
C79 O69 1.264 . S
C79 O73 1.248 . S
C80 O70 1.260 . S
C80 O74 1.253 . S
C81 O72 1.279 . S
C81 O75 1.250 . S
O82 Mg64 2.030 . S
O82 C76 1.248 . S
O83 Mg66 2.079 . S
O83 C76 1.264 . S
C84 C85 1.386 . S
C84 C86 1.383 . S
C84 H100 0.951 . S
C85 C84 1.386 . S
C85 C89 1.383 . S
C86 C84 1.383 . S
C86 C87 1.402 . S
C86 H101 0.951 . S
C87 C86 1.402 . S
C87 C88 1.375 . S
C87 C90 1.481 . S
C88 C87 1.375 . S
C88 C89 1.367 . S
C88 H102 0.951 . S
C89 C85 1.383 . S
C89 C88 1.367 . S
C89 H103 0.950 . S
C90 C87 1.481 . S
C90 C91 1.297 . S
C90 H104 0.950 . S
C91 C90 1.297 . S
C91 C92 1.479 . S
C91 H105 0.950 . S
C92 C91 1.479 . S
C92 C93 1.375 . S
C92 C98 1.404 . S
C93 C92 1.375 . S
C93 C94 1.369 . S
C93 H106 0.950 . S
C94 C93 1.369 . S
C94 C95 1.392 . S
C94 H107 0.952 . S
C95 C94 1.392 . S
C95 C97 1.384 . S
H96 C98 0.949 . S
C97 C95 1.384 . S
C97 C98 1.385 . S
C97 H99 0.950 . S
C98 C92 1.404 . S
C98 H96 0.949 . S
C98 C97 1.385 . S
H99 C97 0.950 . S
H100 C84 0.951 . S
H101 C86 0.951 . S
H102 C88 0.951 . S
H103 C89 0.950 . S
H104 C90 0.950 . S
H105 C91 0.950 . S
H106 C93 0.950 . S
H107 C94 0.952 . S
C108 C109 1.386 . S
C108 C110 1.383 . S
C108 H124 0.951 . S
C109 C108 1.386 . S
C109 C113 1.383 . S
C110 C108 1.383 . S
C110 C111 1.402 . S
C110 H125 0.951 . S
C111 C110 1.402 . S
C111 C112 1.375 . S
C111 C114 1.481 . S
C112 C111 1.375 . S
C112 C113 1.367 . S
C112 H126 0.951 . S
C113 C109 1.383 . S
C113 C112 1.367 . S
C113 H127 0.950 . S
C114 C111 1.481 . S
C114 C115 1.297 . S
C114 H128 0.950 . S
C115 C114 1.297 . S
C115 C116 1.479 . S
C115 H129 0.950 . S
C116 C115 1.479 . S
C116 C117 1.375 . S
C116 C122 1.404 . S
C117 C116 1.375 . S
C117 C118 1.369 . S
C117 H130 0.950 . S
C118 C117 1.369 . S
C118 C119 1.392 . S
C118 H131 0.951 . S
C119 C118 1.392 . S
C119 C121 1.384 . S
H120 C122 0.949 . S
C121 C119 1.384 . S
C121 C122 1.385 . S
C121 H123 0.950 . S
C122 C116 1.404 . S
C122 H120 0.949 . S
C122 C121 1.385 . S
H123 C121 0.950 . S
H124 C108 0.951 . S
H125 C110 0.951 . S
H126 C112 0.951 . S
H127 C113 0.950 . S
H128 C114 0.950 . S
H129 C115 0.950 . S
H130 C117 0.950 . S
H131 C118 0.951 . S
C132 C133 1.386 1_556 S
C132 C134 1.383 . S
C132 H148 0.951 . S
C133 C132 1.386 1_554 S
C133 C137 1.383 . S
C134 C132 1.383 . S
C134 C135 1.402 1_556 S
C134 H149 0.951 . S
C135 C134 1.402 1_554 S
C135 C136 1.375 . S
C135 C138 1.481 . S
C136 C135 1.375 . S
C136 C137 1.367 . S
C136 H150 0.951 . S
C137 C133 1.383 . S
C137 C136 1.367 . S
C137 H151 0.950 . S
C138 C135 1.481 . S
C138 C139 1.295 1_444 S
C138 H152 0.950 1_455 S
C139 C138 1.295 1_666 S
C139 C140 1.490 . S
C139 H153 0.946 1_655 S
C140 C139 1.490 . S
C140 C141 1.388 . S
C140 C146 1.388 1_556 S
C141 C140 1.388 . S
C141 C142 1.369 . S
C141 H154 0.950 . S
C142 C141 1.369 . S
C142 C143 1.392 1_556 S
C142 H155 0.951 . S
C143 C142 1.392 1_554 S
C143 C145 1.384 . S
H144 C146 0.949 . S
C145 C143 1.384 . S
C145 C146 1.385 . S
C145 H147 0.950 . S
C146 C140 1.388 1_554 S
C146 H144 0.949 . S
C146 C145 1.385 . S
H147 C145 0.950 . S
H148 C132 0.951 . S
H149 C134 0.951 . S
H150 C136 0.951 . S
H151 C137 0.950 . S
H152 C138 0.950 1_655 S
H153 C139 0.946 1_455 S
H154 C141 0.950 . S
H155 C142 0.951 . S
C156 C157 1.386 . S
C156 C158 1.383 . S
C156 H172 0.951 . S
C157 C156 1.386 . S
C157 C161 1.383 . S
C158 C156 1.383 . S
C158 C159 1.402 . S
C158 H173 0.951 . S
C159 C158 1.402 . S
C159 C160 1.375 . S
C159 C162 1.457 1_545 S
C160 C159 1.375 . S
C160 C161 1.367 . S
C160 H174 0.951 . S
C161 C157 1.383 . S
C161 C160 1.367 . S
C161 H175 0.950 . S
C162 C159 1.457 1_565 S
C162 C163 1.301 1_655 S
C162 H176 0.972 . S
C163 C162 1.301 1_455 S
C163 C164 1.479 . S
C163 H177 0.950 1_565 S
C164 C163 1.479 . S
C164 C165 1.375 . S
C164 C170 1.404 . S
C165 C164 1.375 . S
C165 C166 1.369 . S
C165 H178 0.950 . S
C166 C165 1.369 . S
C166 C167 1.392 . S
C166 H179 0.951 . S
C167 C166 1.392 . S
C167 C169 1.384 . S
H168 C170 0.949 1_655 S
C169 C167 1.384 . S
C169 C170 1.385 . S
C169 H171 0.950 . S
C170 C164 1.404 . S
C170 H168 0.949 1_455 S
C170 C169 1.385 . S
H171 C169 0.950 . S
H172 C156 0.951 . S
H173 C158 0.951 . S
H174 C160 0.951 . S
H175 C161 0.950 . S
H176 C162 0.972 . S
H177 C163 0.950 1_545 S
H178 C165 0.950 . S
H179 C166 0.951 . S
C180 C181 1.386 . S
C180 C182 1.383 . S
C180 H196 0.951 . S
C181 C180 1.386 . S
C181 C185 1.383 . S
C182 C180 1.383 . S
C182 C183 1.402 . S
C182 H197 0.951 . S
C183 C182 1.402 . S
C183 C184 1.375 . S
C183 C186 1.481 . S
C184 C183 1.375 . S
C184 C185 1.367 . S
C184 H198 0.951 . S
C185 C181 1.383 . S
C185 C184 1.367 . S
C185 H199 0.950 . S
C186 C183 1.481 . S
C186 C187 1.297 . S
C186 H200 0.950 . S
C187 C186 1.297 . S
C187 C188 1.479 . S
C187 H201 0.950 . S
C188 C187 1.479 . S
C188 C189 1.375 . S
C188 C194 1.404 . S
C189 C188 1.375 . S
C189 C190 1.369 . S
C189 H202 0.950 . S
C190 C189 1.369 . S
C190 C191 1.392 . S
C190 H203 0.951 . S
C191 C190 1.392 . S
C191 C193 1.384 . S
H192 C194 0.949 . S
C193 C191 1.384 . S
C193 C194 1.385 . S
C193 H195 0.950 . S
C194 C188 1.404 . S
C194 H192 0.949 . S
C194 C193 1.385 . S
H195 C193 0.950 . S
H196 C180 0.951 . S
H197 C182 0.951 . S
H198 C184 0.951 . S
H199 C185 0.950 . S
H200 C186 0.950 . S
H201 C187 0.950 . S
H202 C189 0.950 . S
H203 C190 0.951 . S
C204 C205 1.386 . S
C204 C206 1.383 . S
C204 H220 0.951 . S
C205 C204 1.386 . S
C205 C209 1.383 . S
C206 C204 1.383 . S
C206 C207 1.402 . S
C206 H221 0.951 . S
C207 C206 1.402 . S
C207 C208 1.375 . S
C207 C210 1.481 . S
C208 C207 1.375 . S
C208 C209 1.367 . S
C208 H222 0.951 . S
C209 C205 1.383 . S
C209 C208 1.367 . S
C209 H223 0.950 . S
C210 C207 1.481 . S
C210 C211 1.297 . S
C210 H224 0.950 . S
C211 C210 1.297 . S
C211 C212 1.479 . S
C211 H225 0.950 . S
C212 C211 1.479 . S
C212 C213 1.375 . S
C212 C218 1.404 . S
C213 C212 1.375 . S
C213 C214 1.369 . S
C213 H226 0.950 . S
C214 C213 1.369 . S
C214 C215 1.392 . S
C214 H227 0.951 . S
C215 C214 1.392 . S
C215 C217 1.384 . S
H216 C218 0.949 . S
C217 C215 1.384 . S
C217 C218 1.385 . S
C217 H219 0.950 . S
C218 C212 1.404 . S
C218 H216 0.949 . S
C218 C217 1.385 . S
H219 C217 0.950 . S
H220 C204 0.951 . S
H221 C206 0.951 . S
H222 C208 0.951 . S
H223 C209 0.950 . S
H224 C210 0.950 . S
H225 C211 0.950 . S
H226 C213 0.950 . S
H227 C214 0.951 . S
C228 C229 1.386 . S
C228 C230 1.383 . S
C228 H244 0.951 . S
C229 C228 1.386 . S
C229 C233 1.383 . S
C230 C228 1.383 . S
C230 C231 1.402 . S
C230 H245 0.951 . S
C231 C230 1.402 . S
C231 C232 1.375 . S
C231 C234 1.481 . S
C232 C231 1.375 . S
C232 C233 1.367 . S
C232 H246 0.951 . S
C233 C229 1.383 . S
C233 C232 1.367 . S
C233 H247 0.950 . S
C234 C231 1.481 . S
C234 C235 1.297 . S
C234 H248 0.950 . S
C235 C234 1.297 . S
C235 C236 1.479 . S
C235 H249 0.950 . S
C236 C235 1.479 . S
C236 C237 1.375 . S
C236 C242 1.404 . S
C237 C236 1.375 . S
C237 C238 1.369 . S
C237 H250 0.950 . S
C238 C237 1.369 . S
C238 C239 1.392 . S
C238 H251 0.951 . S
C239 C238 1.392 . S
C239 C241 1.384 . S
H240 C242 0.949 . S
C241 C239 1.384 . S
C241 C242 1.385 . S
C241 H243 0.950 . S
C242 C236 1.404 . S
C242 H240 0.949 . S
C242 C241 1.385 . S
H243 C241 0.950 . S
H244 C228 0.951 . S
H245 C230 0.951 . S
H246 C232 0.951 . S
H247 C233 0.950 . S
H248 C234 0.950 . S
H249 C235 0.950 . S
H250 C237 0.950 . S
H251 C238 0.951 . S
C252 C253 1.386 . S
C252 C254 1.383 . S
C252 H268 0.951 . S
C253 C252 1.386 . S
C253 C257 1.383 . S
C254 C252 1.383 . S
C254 C255 1.402 . S
C254 H269 0.951 . S
C255 C254 1.402 . S
C255 C256 1.375 . S
C255 C258 1.481 . S
C256 C255 1.375 . S
C256 C257 1.367 . S
C256 H270 0.951 . S
C257 C253 1.383 . S
C257 C256 1.367 . S
C257 H271 0.950 . S
C258 C255 1.481 . S
C258 C259 1.297 . S
C258 H272 0.950 . S
C259 C258 1.297 . S
C259 C260 1.479 . S
C259 H273 0.950 . S
C260 C259 1.479 . S
C260 C261 1.375 . S
C260 C266 1.404 . S
C261 C260 1.375 . S
C261 C262 1.369 . S
C261 H274 0.950 . S
C262 C261 1.369 . S
C262 C263 1.392 . S
C262 H275 0.951 . S
C263 C262 1.392 . S
C263 C265 1.384 . S
H264 C266 0.949 . S
C265 C263 1.384 . S
C265 C266 1.385 . S
C265 H267 0.950 . S
C266 C260 1.404 . S
C266 H264 0.949 . S
C266 C265 1.385 . S
H267 C265 0.950 . S
H268 C252 0.951 . S
H269 C254 0.951 . S
H270 C256 0.951 . S
H271 C257 0.950 . S
H272 C258 0.950 . S
H273 C259 0.950 . S
H274 C261 0.950 . S
H275 C262 0.951 . S
C276 C277 1.386 . S
C276 C278 1.383 . S
C276 H292 0.951 . S
C277 C276 1.386 . S
C277 C281 1.383 . S
C278 C276 1.383 . S
C278 C279 1.402 . S
C278 H293 0.951 . S
C279 C278 1.402 . S
C279 C280 1.375 1_655 S
C279 C282 1.481 1_655 S
C280 C279 1.375 1_455 S
C280 C281 1.367 1_455 S
C280 H294 0.951 . S
C281 C277 1.383 . S
C281 C280 1.367 1_655 S
C281 H295 0.950 1_655 S
C282 C279 1.481 1_455 S
C282 C283 1.297 1_455 S
C282 H296 0.950 . S
C283 C282 1.297 1_655 S
C283 C284 1.479 1_655 S
C283 H297 0.950 . S
C284 C283 1.479 1_455 S
C284 C285 1.375 1_455 S
C284 C290 1.404 . S
C285 C284 1.375 1_655 S
C285 C286 1.369 1_655 S
C285 H298 0.950 . S
C286 C285 1.369 1_455 S
C286 C287 1.392 . S
C286 H299 0.951 . S
C287 C286 1.392 . S
C287 C289 1.384 . S
H288 C290 0.949 . S
C289 C287 1.384 . S
C289 C290 1.385 . S
C289 H291 0.950 . S
C290 C284 1.404 . S
C290 H288 0.949 . S
C290 C289 1.385 . S
H291 C289 0.950 . S
H292 C276 0.951 . S
H293 C278 0.951 . S
H294 C280 0.951 . S
H295 C281 0.950 1_455 S
H296 C282 0.950 . S
H297 C283 0.950 . S
H298 C285 0.950 . S
H299 C286 0.951 . S
C300 C301 1.386 . S
C300 C302 1.383 . S
C300 H316 0.951 . S
C301 C300 1.386 . S
C301 C305 1.383 . S
C302 C300 1.383 . S
C302 C303 1.402 . S
C302 H317 0.951 1_655 S
C303 C302 1.402 . S
C303 C304 1.375 . S
C303 C306 1.481 . S
C304 C303 1.375 . S
C304 C305 1.367 . S
C304 H318 0.951 . S
C305 C301 1.383 . S
C305 C304 1.367 . S
C305 H319 0.950 . S
C306 C303 1.481 . S
C306 C307 1.297 1_655 S
C306 H320 0.950 . S
C307 C306 1.297 1_455 S
C307 C308 1.479 . S
C307 H321 0.950 . S
C308 C307 1.479 . S
C308 C309 1.375 . S
C308 C314 1.404 . S
C309 C308 1.375 . S
C309 C310 1.369 . S
C309 H322 0.950 . S
C310 C309 1.369 . S
C310 C311 1.392 . S
C310 H323 0.951 . S
C311 C310 1.392 . S
C311 C313 1.384 . S
H312 C314 0.949 . S
C313 C311 1.384 . S
C313 C314 1.385 . S
C313 H315 0.950 . S
C314 C308 1.404 . S
C314 H312 0.949 . S
C314 C313 1.385 . S
H315 C313 0.950 . S
H316 C300 0.951 . S
H317 C302 0.951 1_455 S
H318 C304 0.951 . S
H319 C305 0.950 . S
H320 C306 0.950 . S
H321 C307 0.950 . S
H322 C309 0.950 . S
H323 C310 0.951 . S
C324 C325 1.386 . S
C324 C326 1.383 . S
C324 H340 0.951 . S
C325 C324 1.386 . S
C325 C329 1.383 . S
C326 C324 1.383 . S
C326 C327 1.402 . S
C326 H341 0.951 . S
C327 C326 1.402 . S
C327 C328 1.375 . S
C327 C330 1.481 1_655 S
C328 C327 1.375 . S
C328 C329 1.367 . S
C328 H342 0.951 1_655 S
C329 C325 1.383 . S
C329 C328 1.367 . S
C329 H343 0.950 . S
C330 C327 1.481 1_455 S
C330 C331 1.297 . S
C330 H344 0.950 . S
C331 C330 1.297 . S
C331 C332 1.479 . S
C331 H345 0.950 . S
C332 C331 1.479 . S
C332 C333 1.375 . S
C332 C338 1.404 . S
C333 C332 1.375 . S
C333 C334 1.369 . S
C333 H346 0.950 . S
C334 C333 1.369 . S
C334 C335 1.392 . S
C334 H347 0.951 . S
C335 C334 1.392 . S
C335 C337 1.384 . S
H336 C338 0.949 . S
C337 C335 1.384 . S
C337 C338 1.385 . S
C337 H339 0.950 . S
C338 C332 1.404 . S
C338 H336 0.949 . S
C338 C337 1.385 . S
H339 C337 0.950 . S
H340 C324 0.951 . S
H341 C326 0.951 . S
H342 C328 0.951 1_455 S
H343 C329 0.950 . S
H344 C330 0.950 . S
H345 C331 0.950 . S
H346 C333 0.950 . S
H347 C334 0.951 . S
C348 C349 1.386 . S
C348 C350 1.383 . S
C348 H364 0.951 . S
C349 C348 1.386 . S
C349 C353 1.383 . S
C350 C348 1.383 . S
C350 C351 1.402 . S
C350 H365 0.952 . S
C351 C350 1.402 . S
C351 C352 1.375 . S
C351 C354 1.481 . S
C352 C351 1.375 . S
C352 C353 1.367 . S
C352 H366 0.951 . S
C353 C349 1.383 . S
C353 C352 1.367 . S
C353 H367 0.950 . S
C354 C351 1.481 . S
C354 C355 1.297 1_455 S
C354 H368 0.950 . S
C355 C354 1.297 1_655 S
C355 C356 1.479 . S
C355 H369 0.950 . S
C356 C355 1.479 . S
C356 C357 1.375 . S
C356 C362 1.404 . S
C357 C356 1.375 . S
C357 C358 1.369 . S
C357 H370 0.950 . S
C358 C357 1.369 . S
C358 C359 1.392 . S
C358 H371 0.951 . S
C359 C358 1.392 . S
C359 C361 1.384 . S
H360 C362 0.949 . S
C361 C359 1.384 . S
C361 C362 1.385 . S
C361 H363 0.950 . S
C362 C356 1.404 . S
C362 H360 0.949 . S
C362 C361 1.385 . S
H363 C361 0.950 . S
H364 C348 0.951 . S
H365 C350 0.952 . S
H366 C352 0.951 . S
H367 C353 0.950 . S
H368 C354 0.950 . S
H369 C355 0.950 . S
H370 C357 0.950 . S
H371 C358 0.951 . S
C85 C39 1.359 . S
C95 C15 1.461 1_556 S
C109 C57 1.351 . S
C119 C81 1.344 . S
C133 C18 1.430 1_554 S
C143 C36 1.351 . S
C157 C78 1.419 . S
C167 C60 1.288 . S
C181 C77 0.937 . S
C191 C13 0.792 . S
C205 C35 0.860 . S
C215 C55 0.883 . S
C229 C38 0.928 . S
C239 C58 0.873 . S
C253 C80 0.923 . S
C263 C16 0.906 . S
C277 C34 0.949 . S
C287 C56 0.876 . S
C301 C76 0.832 . S
C311 C14 0.872 . S
C325 C79 0.951 . S
C335 C17 0.853 . S
C349 C59 0.967 . S
C359 C37 0.822 . S
