# Generated by pormake.
# Topology upd, (4)-cn, num edge types: 1
# Building blocks:
#     Node 0, Type 0, BuildingBlock: NAWXER_clean_sbu_0, # of connection points: 4
#     Node 1, Type 0, BuildingBlock: NAWXER_clean_sbu_0, # of connection points: 4
#     Node 2, Type 0, BuildingBlock: NAWXER_clean_sbu_0, # of connection points: 4
#     Node 3, Type 0, BuildingBlock: NAWXER_clean_sbu_0, # of connection points: 4
#     Node 4, Type 0, BuildingBlock: NAWXER_clean_sbu_0, # of connection points: 4
#     Node 5, Type 0, BuildingBlock: NAWXER_clean_sbu_0, # of connection points: 4
#     Node 6, Type 0, BuildingBlock: NAWXER_clean_sbu_0, # of connection points: 4
#     Node 7, Type 0, BuildingBlock: NAWXER_clean_sbu_0, # of connection points: 4
#     Node 8, Type 0, BuildingBlock: NAWXER_clean_sbu_0, # of connection points: 4
#     Node 9, Type 0, BuildingBlock: NAWXER_clean_sbu_0, # of connection points: 4
#     Node 10, Type 0, BuildingBlock: NAWXER_clean_sbu_0, # of connection points: 4
#     Node 11, Type 0, BuildingBlock: NAWXER_clean_sbu_0, # of connection points: 4
#     Node 12, Type 0, BuildingBlock: NAWXER_clean_sbu_0, # of connection points: 4
#     Node 13, Type 0, BuildingBlock: NAWXER_clean_sbu_0, # of connection points: 4
#     Node 14, Type 0, BuildingBlock: NAWXER_clean_sbu_0, # of connection points: 4
#     Node 15, Type 0, BuildingBlock: NAWXER_clean_sbu_0, # of connection points: 4
#     Node 16, Type 0, BuildingBlock: NAWXER_clean_sbu_0, # of connection points: 4
#     Node 17, Type 0, BuildingBlock: NAWXER_clean_sbu_0, # of connection points: 4
#     Node 18, Type 0, BuildingBlock: NAWXER_clean_sbu_0, # of connection points: 4
#     Node 19, Type 0, BuildingBlock: NAWXER_clean_sbu_0, # of connection points: 4
#     Node 20, Type 0, BuildingBlock: NAWXER_clean_sbu_0, # of connection points: 4
#     Node 21, Type 0, BuildingBlock: NAWXER_clean_sbu_0, # of connection points: 4
#     Node 22, Type 0, BuildingBlock: NAWXER_clean_sbu_0, # of connection points: 4
#     Node 23, Type 0, BuildingBlock: NAWXER_clean_sbu_0, # of connection points: 4
#     Node 24, Type 0, BuildingBlock: NAWXER_clean_sbu_0, # of connection points: 4
#     Node 25, Type 0, BuildingBlock: NAWXER_clean_sbu_0, # of connection points: 4
#     Node 26, Type 0, BuildingBlock: NAWXER_clean_sbu_0, # of connection points: 4
#     Node 27, Type 0, BuildingBlock: NAWXER_clean_sbu_0, # of connection points: 4
#     Node 28, Type 0, BuildingBlock: NAWXER_clean_sbu_0, # of connection points: 4
#     Node 29, Type 0, BuildingBlock: NAWXER_clean_sbu_0, # of connection points: 4
#     Node 30, Type 0, BuildingBlock: NAWXER_clean_sbu_0, # of connection points: 4
#     Node 31, Type 0, BuildingBlock: NAWXER_clean_sbu_0, # of connection points: 4
#     Edge 32, Type (0, 0), None
#     Edge 33, Type (0, 0), None
#     Edge 34, Type (0, 0), None
#     Edge 35, Type (0, 0), None
#     Edge 36, Type (0, 0), None
#     Edge 37, Type (0, 0), None
#     Edge 38, Type (0, 0), None
#     Edge 39, Type (0, 0), None
#     Edge 40, Type (0, 0), None
#     Edge 41, Type (0, 0), None
#     Edge 42, Type (0, 0), None
#     Edge 43, Type (0, 0), None
#     Edge 44, Type (0, 0), None
#     Edge 45, Type (0, 0), None
#     Edge 46, Type (0, 0), None
#     Edge 47, Type (0, 0), None
#     Edge 48, Type (0, 0), None
#     Edge 49, Type (0, 0), None
#     Edge 50, Type (0, 0), None
#     Edge 51, Type (0, 0), None
#     Edge 52, Type (0, 0), None
#     Edge 53, Type (0, 0), None
#     Edge 54, Type (0, 0), None
#     Edge 55, Type (0, 0), None
#     Edge 56, Type (0, 0), None
#     Edge 57, Type (0, 0), None
#     Edge 58, Type (0, 0), None
#     Edge 59, Type (0, 0), None
#     Edge 60, Type (0, 0), None
#     Edge 61, Type (0, 0), None
#     Edge 62, Type (0, 0), None
#     Edge 63, Type (0, 0), None
#     Edge 64, Type (0, 0), None
#     Edge 65, Type (0, 0), None
#     Edge 66, Type (0, 0), None
#     Edge 67, Type (0, 0), None
#     Edge 68, Type (0, 0), None
#     Edge 69, Type (0, 0), None
#     Edge 70, Type (0, 0), None
#     Edge 71, Type (0, 0), None
#     Edge 72, Type (0, 0), None
#     Edge 73, Type (0, 0), None
#     Edge 74, Type (0, 0), None
#     Edge 75, Type (0, 0), None
#     Edge 76, Type (0, 0), None
#     Edge 77, Type (0, 0), None
#     Edge 78, Type (0, 0), None
#     Edge 79, Type (0, 0), None
#     Edge 80, Type (0, 0), None
#     Edge 81, Type (0, 0), None
#     Edge 82, Type (0, 0), None
#     Edge 83, Type (0, 0), None
#     Edge 84, Type (0, 0), None
#     Edge 85, Type (0, 0), None
#     Edge 86, Type (0, 0), None
#     Edge 87, Type (0, 0), None
#     Edge 88, Type (0, 0), None
#     Edge 89, Type (0, 0), None
#     Edge 90, Type (0, 0), None
#     Edge 91, Type (0, 0), None
#     Edge 92, Type (0, 0), None
#     Edge 93, Type (0, 0), None
#     Edge 94, Type (0, 0), None
#     Edge 95, Type (0, 0), None
# Relax obj value: 0.044
# Max RMSD: 0.097
# Mean RMSD: 0.097
data_MOF--net-upd--node1-NAWXER_clean_sbu_0--edge1-none
_symmetry_space_group_name_H-M    P1
_symmetry_Int_Tables_number       1
_symmetry_cell_setting            triclinic
loop_
_symmetry_equiv_pos_as_xyz
'x, y, z'
_cell_length_a     19.450604
_cell_length_b     19.450211
_cell_length_c     26.784373
_cell_angle_alpha  89.999654
_cell_angle_beta   89.999981
_cell_angle_gamma 90.003516
loop_
_atom_site_label
_atom_site_type_symbol
_atom_site_fract_x
_atom_site_fract_y
_atom_site_fract_z
_atom_type_partial_charge
C0 C 0.15134 -0.0124 0.40344 0.0
C1 C 0.10854 0.16278 0.53361 0.0
O2 O 0.11314 0.03753 0.3903 0.0
Zn3 Zn 0.07121 0.12705 0.41972 0.0
O4 O 0.17253 -0.01668 0.44841 0.0
Zn5 Zn 0.13534 0.07005 0.47365 0.0
O6 O 0.02911 0.04871 0.47647 0.0
O7 O -0.02917 0.10803 0.42079 0.0
O8 O 0.14558 0.10989 0.54236 0.0
O9 O 0.08244 0.17167 0.4904 0.0
O10 O 0.11825 0.19567 0.37968 0.0
O11 O 0.19069 0.14298 0.43064 0.0
C12 C -0.02837 0.06463 0.4565 0.0
C13 C 0.17911 0.18742 0.39654 0.0
C14 C -0.02158 0.9291 0.64654 0.0
C15 C 0.10116 0.72165 0.70653 0.0
O16 O 0.02286 0.9407 0.68064 0.0
Zn17 Zn 0.09578 0.88537 0.72365 0.0
O18 O -0.02984 0.86824 0.62969 0.0
Zn19 Zn 0.03878 0.82121 0.66973 0.0
O20 O -0.00582 0.83245 0.74042 0.0
O21 O 0.05595 0.89563 0.79235 0.0
O22 O 0.05779 0.72083 0.67081 0.0
O23 O 0.11711 0.77914 0.72648 0.0
O24 O 0.18251 0.92256 0.6984 0.0
O25 O 0.12829 0.86313 0.6403 0.0
C26 C 0.00308 0.85855 0.78362 0.0
C27 C 0.17824 0.90134 0.65344 0.0
C28 C 0.30724 0.75305 1.03364 0.0
C29 C 0.26448 0.92821 0.90343 0.0
O30 O 0.33334 0.74415 0.99043 0.0
Zn31 Zn 0.34459 0.78875 0.91974 0.0
O32 O 0.27016 0.80592 1.04235 0.0
Zn33 Zn 0.28042 0.84575 0.97365 0.0
O34 O 0.2251 0.77283 0.93064 0.0
O35 O 0.29755 0.72012 0.8797 0.0
O36 O 0.24324 0.93249 0.94839 0.0
O37 O 0.30268 0.87827 0.8903 0.0
O38 O 0.44497 0.80777 0.92083 0.0
O39 O 0.38665 0.86709 0.97649 0.0
C40 C 0.23669 0.72838 0.89654 0.0
C41 C 0.44414 0.85116 0.95655 0.0
C42 C 0.41273 0.05726 0.28364 0.0
C43 C 0.23757 0.0145 0.15344 0.0
O44 O 0.42164 0.08337 0.24043 0.0
Zn45 Zn 0.37704 0.09461 0.16974 0.0
O46 O 0.35984 0.02018 0.29235 0.0
Zn47 Zn 0.32003 0.03045 0.22365 0.0
O48 O 0.39295 -0.02488 0.18065 0.0
O49 O 0.44566 0.04758 1.1297 0.0
O50 O 0.2333 -0.00674 0.1984 0.0
O51 O 0.28752 0.0527 0.1403 0.0
O52 O 0.35803 0.19499 0.17082 0.0
O53 O 0.2987 0.13669 0.22649 0.0
C54 C 0.4374 -0.01328 0.14655 0.0
C55 C 0.31465 0.19417 0.20654 0.0
C56 C 0.10858 0.75307 0.24024 0.0
C57 C 0.15133 0.92821 0.37045 0.0
O58 O 0.08247 0.74416 0.28345 0.0
Zn59 Zn 0.0712 0.78875 0.35414 0.0
O60 O 0.14566 0.80595 0.23153 0.0
Zn61 Zn 0.13538 0.84577 0.30023 0.0
O62 O 0.19069 0.77285 0.34324 0.0
O63 O 0.11823 0.72013 0.39418 0.0
O64 O 0.17256 0.93251 0.32549 0.0
O65 O 0.11312 0.87827 0.38359 0.0
O66 O -0.02918 0.80777 0.35304 0.0
O67 O 0.02915 0.86709 0.29738 0.0
C68 C 0.1791 0.7284 0.37734 0.0
C69 C -0.02834 0.85115 0.31733 0.0
C70 C 0.23763 0.90137 0.62045 0.0
C71 C 0.41275 0.85854 0.49027 0.0
O72 O 0.28755 0.86315 0.6336 0.0
Zn73 Zn 0.37705 0.8212 0.60416 0.0
O74 O 0.23332 0.92255 0.57548 0.0
Zn75 Zn 0.32005 0.88535 0.55024 0.0
O76 O 0.2987 0.77912 0.54742 0.0
O77 O 0.35803 0.72082 0.60309 0.0
O78 O 0.35987 0.89559 0.48153 0.0
O79 O 0.42165 0.83244 0.53348 0.0
O80 O 0.44568 0.86824 0.6442 0.0
O81 O 0.39298 0.94069 0.59324 0.0
C82 C 0.31462 0.72163 0.56739 0.0
C83 C 0.43743 0.9291 0.62734 0.0
C84 C 0.2367 0.18741 0.87734 0.0
C85 C 0.44414 0.06467 0.81733 0.0
O86 O 0.2251 0.14296 0.84324 0.0
Zn87 Zn 0.28043 0.07004 0.80023 0.0
O88 O 0.29756 0.19568 0.89418 0.0
Zn89 Zn 0.34459 0.12707 0.85414 0.0
O90 O 0.33334 0.17166 0.78345 0.0
O91 O 0.27015 0.10987 0.73153 0.0
O92 O 0.44498 0.10805 0.85305 0.0
O93 O 0.38665 0.04873 0.79738 0.0
O94 O 0.24324 -0.0167 0.82549 0.0
O95 O 0.30268 0.03755 0.88358 0.0
C96 C 0.30723 0.16275 0.74024 0.0
C97 C 0.26447 -0.0124 0.87045 0.0
C98 C 0.10117 0.19419 1.06738 0.0
C99 C -0.02162 -0.01327 1.12733 0.0
O100 O 0.1171 0.13671 1.04742 0.0
Zn101 Zn 0.09576 0.03048 1.05023 0.0
O102 O 0.05777 0.195 1.10308 0.0
Zn103 Zn 0.03875 0.09462 1.10416 0.0
O104 O 0.12825 0.05269 1.13359 0.0
O105 O 0.18249 -0.00672 1.07548 0.0
O106 O -0.02988 0.04758 0.14419 0.0
O107 O 0.02283 -0.02486 1.09323 0.0
O108 O 0.05595 0.02023 0.98153 0.0
O109 O -0.00585 0.08338 1.03346 0.0
C110 C 0.17818 0.01447 1.12045 0.0
C111 C 0.00305 0.05728 0.99026 0.0
C112 C 0.94417 0.85121 0.81736 0.0
C113 C 0.73675 0.72842 0.87735 0.0
O114 O 0.94503 0.80781 0.85306 0.0
Zn115 Zn 0.84465 0.78879 0.85415 0.0
O116 O 0.88669 0.86716 0.79739 0.0
Zn117 Zn 0.78047 0.84579 0.80023 0.0
O118 O 0.74327 0.93251 0.82548 0.0
O119 O 0.80272 0.87831 0.88357 0.0
O120 O 0.72516 0.77286 0.84324 0.0
O121 O 0.79761 0.72017 0.89419 0.0
O122 O 0.8334 0.74419 0.78346 0.0
O123 O 0.77021 0.80595 0.73153 0.0
C124 C 0.76451 0.92825 0.87044 0.0
C125 C 0.8073 0.75308 0.74025 0.0
C126 C 0.81463 0.19416 0.56734 0.0
C127 C 0.93743 -0.01327 0.62734 0.0
O128 O 0.85801 0.19499 0.60306 0.0
Zn129 Zn 0.87705 0.09461 0.60415 0.0
O130 O 0.7987 0.13666 0.54739 0.0
Zn131 Zn 0.82004 0.03044 0.55023 0.0
O132 O 0.73333 -0.00677 0.57549 0.0
O133 O 0.78754 0.05268 0.63358 0.0
O134 O 0.89298 -0.02487 0.59324 0.0
O135 O 0.94568 0.04759 0.64419 0.0
O136 O 0.92164 0.08337 0.53346 0.0
O137 O 0.85987 0.02018 0.48153 0.0
C138 C 0.7376 0.01446 0.62046 0.0
C139 C 0.91274 0.05727 0.49025 0.0
C140 C 0.6085 0.16276 0.24026 0.0
C141 C 0.65132 -0.01241 0.37044 0.0
O142 O 0.64556 0.10987 0.23151 0.0
Zn143 Zn 0.63531 0.07003 0.30022 0.0
O144 O 0.5824 0.17164 0.28347 0.0
Zn145 Zn 0.57116 0.12703 0.35415 0.0
O146 O 0.61821 0.19565 0.39419 0.0
O147 O 0.69065 0.14296 0.34323 0.0
O148 O 0.6131 0.03752 0.38357 0.0
O149 O 0.67252 -0.01669 0.32547 0.0
O150 O 0.52909 0.04867 0.2974 0.0
O151 O 0.47078 0.10802 0.35308 0.0
C152 C 0.67906 0.1874 0.37733 0.0
C153 C 0.47162 0.0646 0.31739 0.0
C154 C 0.47839 0.92909 1.12735 0.0
C155 C 0.60121 0.72165 1.06738 0.0
O156 O 0.47015 0.86823 0.14421 0.0
Zn157 Zn 0.53877 0.82121 1.10417 0.0
O158 O 0.52283 0.94069 1.09325 0.0
Zn159 Zn 0.59576 0.88537 1.05024 0.0
O160 O 0.55592 0.8956 0.98153 0.0
O161 O 0.49416 0.83244 1.03349 0.0
O162 O 0.61711 0.77914 1.04742 0.0
O163 O 0.55781 0.72083 1.10309 0.0
O164 O 0.62828 0.86317 1.13359 0.0
O165 O 0.68248 0.92259 1.07548 0.0
C166 C 0.50304 0.85854 0.99028 0.0
C167 C 0.6782 0.90139 1.12045 0.0
C168 C 0.80728 0.16276 1.03363 0.0
C169 C 0.76448 -0.01236 0.90343 0.0
O170 O 0.77023 0.10987 1.04236 0.0
Zn171 Zn 0.78048 0.07005 0.97365 0.0
O172 O 0.83339 0.17167 0.99043 0.0
Zn173 Zn 0.84464 0.12708 0.91974 0.0
O174 O 0.79761 0.1957 0.8797 0.0
O175 O 0.72515 0.14298 0.93064 0.0
O176 O 0.80271 0.03757 0.89029 0.0
O177 O 0.74327 -0.01667 0.94839 0.0
O178 O 0.8867 0.04869 0.97647 0.0
O179 O 0.94503 0.10807 0.92081 0.0
C180 C 0.73675 0.18744 0.89655 0.0
C181 C 0.94417 0.06463 0.9565 0.0
C182 C 0.50305 0.0573 0.7836 0.0
C183 C 0.67821 0.01445 0.65344 0.0
O184 O 0.55594 0.02025 0.79235 0.0
Zn185 Zn 0.59578 0.03048 0.72365 0.0
O186 O 0.49417 0.08339 0.74039 0.0
Zn187 Zn 0.53879 0.09463 0.66971 0.0
O188 O 0.47017 0.04759 0.62967 0.0
O189 O 0.52286 -0.02485 0.68064 0.0
O190 O 0.62829 0.05267 0.64029 0.0
O191 O 0.68251 -0.00673 0.69841 0.0
O192 O 0.61713 0.13671 0.72647 0.0
O193 O 0.55784 0.19501 0.67079 0.0
C194 C 0.47842 -0.01327 0.64653 0.0
C195 C 0.60123 0.19419 0.7065 0.0
C196 C 0.65131 0.9282 0.40342 0.0
C197 C 0.60852 0.75308 0.53364 0.0
O198 O 0.67256 0.9325 0.44838 0.0
Zn199 Zn 0.63535 0.84578 0.47365 0.0
O200 O 0.61308 0.87827 0.3903 0.0
Zn201 Zn 0.57116 0.78875 0.41974 0.0
O202 O 0.47078 0.80777 0.42083 0.0
O203 O 0.52913 0.86714 0.47648 0.0
O204 O 0.58241 0.74417 0.49044 0.0
O205 O 0.64561 0.80595 0.54235 0.0
O206 O 0.69065 0.77285 0.43064 0.0
O207 O 0.61819 0.72013 0.3797 0.0
C208 C 0.47166 0.85119 0.45652 0.0
C209 C 0.67905 0.72839 0.39654 0.0
C210 C 0.93739 0.92909 0.14653 0.0
C211 C 0.81456 0.72164 0.20649 0.0
O212 O 0.94563 0.86824 1.12966 0.0
Zn213 Zn 0.87701 0.8212 0.1697 0.0
O214 O 0.89295 0.94068 0.18064 0.0
Zn215 Zn 0.82002 0.88535 0.22365 0.0
O216 O 0.85987 0.89558 0.29235 0.0
O217 O 0.92163 0.83243 0.24038 0.0
O218 O 0.79866 0.77912 0.22646 0.0
O219 O 0.85796 0.72083 0.17078 0.0
O220 O 0.78751 0.86317 0.14029 0.0
O221 O 0.7333 0.92258 0.19841 0.0
C222 C 0.91275 0.85853 0.28359 0.0
C223 C 0.73759 0.9014 0.15343 0.0
C224 C 0.65135 0.48761 0.90344 0.0
C225 C 0.60858 0.66277 1.03362 0.0
O226 O 0.61314 0.53755 0.8903 0.0
Zn227 Zn 0.57122 0.62707 0.91973 0.0
O228 O 0.67255 0.48333 0.9484 0.0
Zn229 Zn 0.63536 0.57006 0.97366 0.0
O230 O 0.52913 0.54873 0.97648 0.0
O231 O 0.47084 0.60805 0.92081 0.0
O232 O 0.64562 0.60987 1.04236 0.0
O233 O 0.58247 0.67167 0.99042 0.0
O234 O 0.61826 0.69569 0.87969 0.0
O235 O 0.69071 0.64299 0.93065 0.0
C236 C 0.47165 0.56465 0.95652 0.0
C237 C 0.67912 0.68743 0.89654 0.0
C238 C 0.47841 0.4291 0.14654 0.0
C239 C 0.60116 0.22167 0.20652 0.0
O240 O 0.52286 0.4407 0.18064 0.0
Zn241 Zn 0.59578 0.38537 0.22365 0.0
O242 O 0.47015 0.36824 1.12969 0.0
Zn243 Zn 0.53877 0.3212 0.16973 0.0
O244 O 0.49418 0.33245 0.24042 0.0
O245 O 0.55595 0.39563 0.29235 0.0
O246 O 0.55776 0.22081 0.17082 0.0
O247 O 0.61712 0.27914 0.22649 0.0
O248 O 0.68251 0.42256 0.19839 0.0
O249 O 0.6283 0.36311 0.1403 0.0
C250 C 0.50308 0.35855 0.28363 0.0
C251 C 0.67824 0.40132 0.15343 0.0
C252 C 0.80726 0.25307 0.53361 0.0
C253 C 0.76446 0.42822 0.40342 0.0
O254 O 0.83335 0.24417 0.4904 0.0
Zn255 Zn 0.84459 0.28877 0.41971 0.0
O256 O 0.77018 0.30593 0.54234 0.0
Zn257 Zn 0.78043 0.34577 0.47364 0.0
O258 O 0.72511 0.27284 0.43063 0.0
O259 O 0.79755 0.22015 0.37967 0.0
O260 O 0.74323 0.4325 0.44838 0.0
O261 O 0.80267 0.37829 0.39029 0.0
O262 O 0.94497 0.30781 0.4208 0.0
O263 O 0.88666 0.36712 0.47647 0.0
C264 C 0.7367 0.2284 0.39653 0.0
C265 C 0.94414 0.35119 0.45652 0.0
C266 C 0.91272 0.55727 0.78363 0.0
C267 C 0.73756 0.51451 0.65344 0.0
O268 O 0.92162 0.58338 0.74042 0.0
Zn269 Zn 0.87703 0.59463 0.66973 0.0
O270 O 0.85985 0.52019 0.79235 0.0
Zn271 Zn 0.82001 0.53046 0.72365 0.0
O272 O 0.89294 0.47513 0.68064 0.0
O273 O 0.94564 0.54759 0.62969 0.0
O274 O 0.73329 0.49326 0.6984 0.0
O275 O 0.7875 0.55272 0.64031 0.0
O276 O 0.85803 0.69502 0.67082 0.0
O277 O 0.79867 0.63669 0.72649 0.0
C278 C 0.93738 0.48672 0.64654 0.0
C279 C 0.81463 0.69416 0.70652 0.0
C280 C 0.67911 0.22842 0.87734 0.0
C281 C 0.47166 0.35116 0.81733 0.0
O282 O 0.69071 0.27287 0.84324 0.0
Zn283 Zn 0.63538 0.34579 0.80023 0.0
O284 O 0.61825 0.22015 0.89419 0.0
Zn285 Zn 0.57122 0.28877 0.85415 0.0
O286 O 0.58248 0.24418 0.78346 0.0
O287 O 0.64566 0.30597 0.73153 0.0
O288 O 0.47083 0.30778 0.85305 0.0
O289 O 0.52915 0.36711 0.79739 0.0
O290 O 0.67257 0.43253 0.82549 0.0
O291 O 0.61313 0.37828 0.88359 0.0
C292 C 0.60858 0.25309 0.74025 0.0
C293 C 0.65134 0.42822 0.87045 0.0
C294 C 0.73763 0.40135 1.12045 0.0
C295 C 0.91276 0.35855 0.99025 0.0
O296 O 0.78756 0.36312 1.13359 0.0
Zn297 Zn 0.87707 0.3212 1.10415 0.0
O298 O 0.73333 0.42255 1.07548 0.0
Zn299 Zn 0.82005 0.38535 1.05023 0.0
O300 O 0.79869 0.27912 1.04741 0.0
O301 O 0.85806 0.22081 1.10307 0.0
O302 O 0.85986 0.3956 0.98152 0.0
O303 O 0.92166 0.33244 1.03346 0.0
O304 O 0.94569 0.36824 0.14418 0.0
O305 O 0.89298 0.44069 1.09323 0.0
C306 C 0.81463 0.22165 1.06739 0.0
C307 C 0.93743 0.4291 1.12733 0.0
C308 C 0.73668 0.68742 0.37734 0.0
C309 C 0.94413 0.56467 0.31733 0.0
O310 O 0.72508 0.64297 0.34323 0.0
Zn311 Zn 0.78041 0.57005 0.30022 0.0
O312 O 0.79754 0.69569 0.39417 0.0
Zn313 Zn 0.84458 0.62707 0.35413 0.0
O314 O 0.83332 0.67166 0.28344 0.0
O315 O 0.77013 0.60986 0.23152 0.0
O316 O 0.94496 0.60806 0.35304 0.0
O317 O 0.88664 0.54873 0.29738 0.0
O318 O 0.74322 0.48331 0.32548 0.0
O319 O 0.80266 0.53756 0.38358 0.0
C320 C 0.80721 0.66275 0.24024 0.0
C321 C 0.76445 0.48762 0.37044 0.0
C322 C 0.67817 0.51448 0.62045 0.0
C323 C 0.50304 0.55728 0.49025 0.0
O324 O 0.62824 0.5527 0.63359 0.0
Zn325 Zn 0.53873 0.59464 0.60415 0.0
O326 O 0.68247 0.49328 0.57549 0.0
Zn327 Zn 0.59575 0.53049 0.55023 0.0
O328 O 0.61712 0.63672 0.54741 0.0
O329 O 0.55774 0.69502 0.60308 0.0
O330 O 0.55594 0.52024 0.48153 0.0
O331 O 0.49414 0.58339 0.53346 0.0
O332 O 0.47011 0.54759 0.64418 0.0
O333 O 0.52282 0.47515 0.59323 0.0
C334 C 0.60118 0.69418 0.5674 0.0
C335 C 0.47837 0.48673 0.62733 0.0
C336 C 0.44416 0.35121 0.31737 0.0
C337 C 0.23674 0.22841 0.37734 0.0
O338 O 0.44502 0.30781 0.35307 0.0
Zn339 Zn 0.34464 0.28879 0.35416 0.0
O340 O 0.38669 0.36716 0.2974 0.0
Zn341 Zn 0.28047 0.34579 0.30023 0.0
O342 O 0.24326 0.43251 0.32549 0.0
O343 O 0.30271 0.37831 0.38358 0.0
O344 O 0.22515 0.27286 0.34324 0.0
O345 O 0.2976 0.22016 0.39419 0.0
O346 O 0.3334 0.2442 0.28347 0.0
O347 O 0.27021 0.30595 0.23153 0.0
C348 C 0.26449 0.42824 0.37045 0.0
C349 C 0.3073 0.25309 0.24026 0.0
C350 C 0.41275 0.55728 0.99027 0.0
C351 C 0.2376 0.51445 1.12046 0.0
O352 O 0.35987 0.52022 0.98153 0.0
Zn353 Zn 0.32004 0.53046 1.05023 0.0
O354 O 0.42165 0.58339 1.03347 0.0
Zn355 Zn 0.37704 0.59463 1.10416 0.0
O356 O 0.44567 0.54759 0.1442 0.0
O357 O 0.39297 0.47514 1.09324 0.0
O358 O 0.28753 0.55268 1.13359 0.0
O359 O 0.23333 0.49324 1.07549 0.0
O360 O 0.29866 0.63669 1.04741 0.0
O361 O 0.35802 0.69501 1.10308 0.0
C362 C 0.43742 0.48673 1.12734 0.0
C363 C 0.31459 0.69416 1.06739 0.0
C364 C 0.15131 0.48757 0.87043 0.0
C365 C 0.10851 0.66273 0.74025 0.0
O366 O 0.17254 0.4833 0.82547 0.0
Zn367 Zn 0.13534 0.57002 0.80022 0.0
O368 O 0.1131 0.5375 0.88357 0.0
Zn369 Zn 0.07117 0.62702 0.85415 0.0
O370 O -0.02922 0.608 0.85307 0.0
O371 O 0.02911 0.54866 0.79739 0.0
O372 O 0.08241 0.67162 0.78346 0.0
O373 O 0.14559 0.60986 0.73152 0.0
O374 O 0.19066 0.64295 0.84323 0.0
O375 O 0.1182 0.69564 0.89419 0.0
C376 C -0.02836 0.5646 0.81736 0.0
C377 C 0.17906 0.68739 0.87734 0.0
C378 C 0.1782 0.40135 0.62046 0.0
C379 C 0.00306 0.35855 0.49025 0.0
O380 O 0.18247 0.4226 0.5755 0.0
Zn381 Zn 0.09575 0.38539 0.55023 0.0
O382 O 0.12826 0.36313 0.63358 0.0
Zn383 Zn 0.03875 0.3212 0.60415 0.0
O384 O 0.05777 0.22081 0.60305 0.0
O385 O 0.11712 0.27917 0.54739 0.0
O386 O -0.00584 0.33244 0.53346 0.0
O387 O 0.05592 0.39565 0.48152 0.0
O388 O 0.02282 0.4407 0.59324 0.0
O389 O -0.02988 0.36823 0.64419 0.0
C390 C 0.10118 0.22169 0.56735 0.0
C391 C -0.02163 0.4291 0.62734 0.0
C392 C 0.30726 0.66275 0.53363 0.0
C393 C 0.26446 0.48763 0.40343 0.0
O394 O 0.27021 0.60985 0.54236 0.0
Zn395 Zn 0.28046 0.57004 0.47366 0.0
O396 O 0.33337 0.67165 0.49042 0.0
Zn397 Zn 0.34462 0.62707 0.41974 0.0
O398 O 0.29759 0.69569 0.3797 0.0
O399 O 0.22513 0.64297 0.43065 0.0
O400 O 0.30269 0.53756 0.3903 0.0
O401 O 0.24325 0.48332 0.4484 0.0
O402 O 0.38669 0.54869 0.47647 0.0
O403 O 0.44501 0.60807 0.42081 0.0
C404 C 0.23673 0.68742 0.39655 0.0
C405 C 0.44416 0.56463 0.45649 0.0
C406 C 0.00304 0.5573 0.2836 0.0
C407 C 0.17821 0.51445 0.15344 0.0
O408 O 0.05593 0.52025 0.29235 0.0
Zn409 Zn 0.09578 0.53048 0.22365 0.0
O410 O -0.00583 0.5834 0.24039 0.0
Zn411 Zn 0.03879 0.59464 0.16971 0.0
O412 O -0.02982 0.5476 1.12967 0.0
O413 O 0.02286 0.47515 0.18064 0.0
O414 O 0.1283 0.55268 0.1403 0.0
O415 O 0.18251 0.49326 0.19841 0.0
O416 O 0.11716 0.63671 0.22647 0.0
O417 O 0.05783 0.69502 0.17079 0.0
C418 C -0.02158 0.48674 0.14653 0.0
C419 C 0.10124 0.69417 0.20648 0.0
C420 C 0.10854 0.25308 1.03362 0.0
C421 C 0.15135 0.42819 0.90342 0.0
O422 O 0.14559 0.30597 1.04236 0.0
Zn423 Zn 0.13534 0.34578 0.97365 0.0
O424 O 0.08242 0.24417 0.99042 0.0
Zn425 Zn 0.07117 0.28875 0.91973 0.0
O426 O 0.11821 0.22013 0.8797 0.0
O427 O 0.19066 0.27285 0.93064 0.0
O428 O 0.11311 0.37826 0.89029 0.0
O429 O 0.17255 0.4325 0.94838 0.0
O430 O 0.02911 0.36714 0.97647 0.0
O431 O -0.02921 0.30776 0.92081 0.0
C432 C 0.17907 0.22839 0.89654 0.0
C433 C -0.02836 0.3512 0.95649 0.0
C434 C 0.41275 0.35853 0.7836 0.0
C435 C 0.23759 0.40137 0.65344 0.0
O436 O 0.35987 0.39558 0.79236 0.0
Zn437 Zn 0.32002 0.38535 0.72365 0.0
O438 O 0.42163 0.33243 0.74039 0.0
Zn439 Zn 0.37701 0.32119 0.66971 0.0
O440 O 0.44563 0.36823 0.62967 0.0
O441 O 0.39294 0.44068 0.68064 0.0
O442 O 0.28751 0.36314 0.6403 0.0
O443 O 0.23329 0.42256 0.69841 0.0
O444 O 0.29865 0.27912 0.72647 0.0
O445 O 0.35799 0.2208 0.67079 0.0
C446 C 0.43738 0.42909 0.64653 0.0
C447 C 0.31457 0.22165 0.70649 0.0
loop_
_geom_bond_atom_site_label_1
_geom_bond_atom_site_label_2
_geom_bond_distance
_geom_bond_site_symmetry_2
_ccdc_geom_bond_type
C0 O2 1.247 . S
C0 O4 1.258 . S
C1 O8 1.247 . S
C1 O9 1.258 . S
O2 C0 1.247 . S
O2 Zn3 2.028 . S
Zn3 O2 2.028 . S
Zn3 O7 2.035 . S
Zn3 O9 2.035 . S
Zn3 O10 2.028 . S
O4 C0 1.258 . S
O4 Zn5 2.035 . S
Zn5 O4 2.035 . S
Zn5 O6 2.028 . S
Zn5 O8 2.028 . S
Zn5 O11 2.035 . S
O6 Zn5 2.028 . S
O6 C12 1.247 . S
O7 Zn3 2.035 . S
O7 C12 1.258 . S
O8 C1 1.247 . S
O8 Zn5 2.028 . S
O9 C1 1.258 . S
O9 Zn3 2.035 . S
O10 Zn3 2.028 . S
O10 C13 1.247 . S
O11 Zn5 2.035 . S
O11 C13 1.258 . S
C12 O6 1.247 . S
C12 O7 1.258 . S
C13 O10 1.247 . S
C13 O11 1.258 . S
C14 O16 1.247 . S
C14 O18 1.258 1_545 S
C15 O22 1.247 . S
C15 O23 1.258 . S
O16 C14 1.247 . S
O16 Zn17 2.031 . S
Zn17 O16 2.031 . S
Zn17 O21 2.034 1_545 S
Zn17 O23 2.029 1_545 S
Zn17 O24 2.027 1_545 S
O18 C14 1.258 1_565 S
O18 Zn19 2.035 . S
Zn19 O18 2.035 . S
Zn19 O20 2.028 1_455 S
Zn19 O22 2.028 . S
Zn19 O25 2.035 . S
O20 Zn19 2.028 1_655 S
O20 C26 1.247 . S
O21 Zn17 2.034 1_565 S
O21 C26 1.258 1_455 S
O22 C15 1.247 . S
O22 Zn19 2.028 . S
O23 C15 1.258 . S
O23 Zn17 2.029 1_565 S
O24 Zn17 2.027 1_565 S
O24 C27 1.247 . S
O25 Zn19 2.035 . S
O25 C27 1.258 . S
C26 O20 1.247 . S
C26 O21 1.258 1_655 S
C27 O24 1.247 . S
C27 O25 1.258 . S
C28 O30 1.247 . S
C28 O32 1.258 . S
C29 O36 1.247 . S
C29 O37 1.258 . S
O30 C28 1.247 . S
O30 Zn31 2.028 . S
Zn31 O30 2.028 . S
Zn31 O35 2.035 . S
Zn31 O37 2.035 . S
Zn31 O38 2.028 . S
O32 C28 1.258 . S
O32 Zn33 2.035 . S
Zn33 O32 2.035 . S
Zn33 O34 2.028 . S
Zn33 O36 2.028 . S
Zn33 O39 2.035 . S
O34 Zn33 2.028 . S
O34 C40 1.247 . S
O35 Zn31 2.035 . S
O35 C40 1.258 . S
O36 C29 1.247 . S
O36 Zn33 2.028 . S
O37 C29 1.258 . S
O37 Zn31 2.035 . S
O38 Zn31 2.028 . S
O38 C41 1.247 . S
O39 Zn33 2.035 . S
O39 C41 1.258 . S
C40 O34 1.247 . S
C40 O35 1.258 . S
C41 O38 1.247 . S
C41 O39 1.258 . S
C42 O44 1.247 . S
C42 O46 1.258 . S
C43 O50 1.247 . S
C43 O51 1.258 . S
O44 C42 1.247 . S
O44 Zn45 2.028 . S
Zn45 O44 2.028 . S
Zn45 O49 2.035 . S
Zn45 O51 2.035 . S
Zn45 O52 2.028 . S
O46 C42 1.258 . S
O46 Zn47 2.034 1_545 S
Zn47 O46 2.034 1_565 S
Zn47 O48 2.031 . S
Zn47 O50 2.027 1_565 S
Zn47 O53 2.030 1_565 S
O48 Zn47 2.031 . S
O48 C54 1.247 . S
O49 Zn45 2.035 . S
O49 C54 1.258 1_545 S
O50 C43 1.247 . S
O50 Zn47 2.027 1_545 S
O51 C43 1.258 . S
O51 Zn45 2.035 . S
O52 Zn45 2.028 . S
O52 C55 1.247 . S
O53 Zn47 2.030 1_545 S
O53 C55 1.258 . S
C54 O48 1.247 . S
C54 O49 1.258 1_565 S
C55 O52 1.247 . S
C55 O53 1.258 . S
C56 O58 1.247 . S
C56 O60 1.258 . S
C57 O64 1.247 . S
C57 O65 1.258 . S
O58 C56 1.247 . S
O58 Zn59 2.028 . S
Zn59 O58 2.028 . S
Zn59 O63 2.035 . S
Zn59 O65 2.035 . S
Zn59 O66 2.028 . S
O60 C56 1.258 . S
O60 Zn61 2.035 . S
Zn61 O60 2.035 . S
Zn61 O62 2.028 . S
Zn61 O64 2.028 . S
Zn61 O67 2.035 . S
O62 Zn61 2.028 . S
O62 C68 1.247 . S
O63 Zn59 2.035 . S
O63 C68 1.258 . S
O64 C57 1.247 . S
O64 Zn61 2.028 . S
O65 C57 1.258 . S
O65 Zn59 2.035 . S
O66 Zn59 2.028 . S
O66 C69 1.247 . S
O67 Zn61 2.035 . S
O67 C69 1.258 . S
C68 O62 1.247 . S
C68 O63 1.258 . S
C69 O66 1.247 . S
C69 O67 1.258 . S
C70 O72 1.247 . S
C70 O74 1.258 . S
C71 O78 1.247 . S
C71 O79 1.258 . S
O72 C70 1.247 . S
O72 Zn73 2.028 . S
Zn73 O72 2.028 . S
Zn73 O77 2.035 . S
Zn73 O79 2.035 . S
Zn73 O80 2.028 . S
O74 C70 1.258 . S
O74 Zn75 2.035 1_565 S
Zn75 O74 2.035 1_545 S
Zn75 O76 2.029 1_545 S
Zn75 O78 2.028 1_545 S
Zn75 O81 2.035 . S
O76 Zn75 2.029 1_565 S
O76 C82 1.247 . S
O77 Zn73 2.035 . S
O77 C82 1.258 . S
O78 C71 1.247 . S
O78 Zn75 2.028 1_565 S
O79 C71 1.258 . S
O79 Zn73 2.035 . S
O80 Zn73 2.028 . S
O80 C83 1.247 1_565 S
O81 Zn75 2.035 . S
O81 C83 1.258 . S
C82 O76 1.247 . S
C82 O77 1.258 . S
C83 O80 1.247 1_545 S
C83 O81 1.258 . S
C84 O86 1.247 . S
C84 O88 1.258 . S
C85 O92 1.247 . S
C85 O93 1.258 . S
O86 C84 1.247 . S
O86 Zn87 2.028 . S
Zn87 O86 2.028 . S
Zn87 O91 2.035 . S
Zn87 O93 2.035 . S
Zn87 O94 2.028 . S
O88 C84 1.258 . S
O88 Zn89 2.035 . S
Zn89 O88 2.035 . S
Zn89 O90 2.028 . S
Zn89 O92 2.028 . S
Zn89 O95 2.035 . S
O90 Zn89 2.028 . S
O90 C96 1.247 . S
O91 Zn87 2.035 . S
O91 C96 1.258 . S
O92 C85 1.247 . S
O92 Zn89 2.028 . S
O93 C85 1.258 . S
O93 Zn87 2.035 . S
O94 Zn87 2.028 . S
O94 C97 1.247 . S
O95 Zn89 2.035 . S
O95 C97 1.258 . S
C96 O90 1.247 . S
C96 O91 1.258 . S
C97 O94 1.247 . S
C97 O95 1.258 . S
C98 O100 1.247 . S
C98 O102 1.258 . S
C99 O106 1.247 1_565 S
C99 O107 1.258 . S
O100 C98 1.247 . S
O100 Zn101 2.027 . S
Zn101 O100 2.027 . S
Zn101 O105 2.035 . S
Zn101 O107 2.036 1_545 S
Zn101 O108 2.028 . S
O102 C98 1.258 . S
O102 Zn103 2.035 . S
Zn103 O102 2.035 . S
Zn103 O104 2.028 . S
Zn103 O106 2.028 . S
Zn103 O109 2.035 1_455 S
O104 Zn103 2.028 . S
O104 C110 1.247 . S
O105 Zn101 2.035 . S
O105 C110 1.258 . S
O106 C99 1.247 1_545 S
O106 Zn103 2.028 . S
O107 C99 1.258 . S
O107 Zn101 2.036 1_565 S
O108 Zn101 2.028 . S
O108 C111 1.247 1_455 S
O109 Zn103 2.035 1_655 S
O109 C111 1.258 . S
C110 O104 1.247 . S
C110 O105 1.258 . S
C111 O108 1.247 1_655 S
C111 O109 1.258 . S
C112 O114 1.247 . S
C112 O116 1.258 . S
C113 O120 1.247 . S
C113 O121 1.258 . S
O114 C112 1.247 . S
O114 Zn115 2.028 . S
Zn115 O114 2.028 . S
Zn115 O119 2.035 . S
Zn115 O121 2.035 . S
Zn115 O122 2.028 . S
O116 C112 1.258 . S
O116 Zn117 2.035 . S
Zn117 O116 2.035 . S
Zn117 O118 2.028 . S
Zn117 O120 2.028 . S
Zn117 O123 2.035 . S
O118 Zn117 2.028 . S
O118 C124 1.247 . S
O119 Zn115 2.035 . S
O119 C124 1.258 . S
O120 C113 1.247 . S
O120 Zn117 2.028 . S
O121 C113 1.258 . S
O121 Zn115 2.035 . S
O122 Zn115 2.028 . S
O122 C125 1.247 . S
O123 Zn117 2.035 . S
O123 C125 1.258 . S
C124 O118 1.247 . S
C124 O119 1.258 . S
C125 O122 1.247 . S
C125 O123 1.258 . S
C126 O128 1.247 . S
C126 O130 1.258 . S
C127 O134 1.247 . S
C127 O135 1.258 1_565 S
O128 C126 1.247 . S
O128 Zn129 2.028 . S
Zn129 O128 2.028 . S
Zn129 O133 2.035 . S
Zn129 O135 2.035 . S
Zn129 O136 2.028 1_655 S
O130 C126 1.258 . S
O130 Zn131 2.029 1_545 S
Zn131 O130 2.029 1_565 S
Zn131 O132 2.027 1_565 S
Zn131 O134 2.031 . S
Zn131 O137 2.034 1_565 S
O132 Zn131 2.027 1_545 S
O132 C138 1.247 . S
O133 Zn129 2.035 . S
O133 C138 1.258 . S
O134 C127 1.247 . S
O134 Zn131 2.031 . S
O135 C127 1.258 1_545 S
O135 Zn129 2.035 . S
O136 Zn129 2.028 1_455 S
O136 C139 1.247 . S
O137 Zn131 2.034 1_545 S
O137 C139 1.258 1_655 S
C138 O132 1.247 . S
C138 O133 1.258 . S
C139 O136 1.247 . S
C139 O137 1.258 1_455 S
C140 O142 1.247 . S
C140 O144 1.258 . S
C141 O148 1.247 . S
C141 O149 1.258 . S
O142 C140 1.247 . S
O142 Zn143 2.028 . S
Zn143 O142 2.028 . S
Zn143 O147 2.035 . S
Zn143 O149 2.035 . S
Zn143 O150 2.028 . S
O144 C140 1.258 . S
O144 Zn145 2.035 . S
Zn145 O144 2.035 . S
Zn145 O146 2.028 . S
Zn145 O148 2.028 . S
Zn145 O151 2.035 . S
O146 Zn145 2.028 . S
O146 C152 1.247 . S
O147 Zn143 2.035 . S
O147 C152 1.258 . S
O148 C141 1.247 . S
O148 Zn145 2.028 . S
O149 C141 1.258 . S
O149 Zn143 2.035 . S
O150 Zn143 2.028 . S
O150 C153 1.247 . S
O151 Zn145 2.035 . S
O151 C153 1.258 . S
C152 O146 1.247 . S
C152 O147 1.258 . S
C153 O150 1.247 . S
C153 O151 1.258 . S
C154 O156 1.247 1_545 S
C154 O158 1.258 . S
C155 O162 1.247 . S
C155 O163 1.258 . S
O156 C154 1.247 1_565 S
O156 Zn157 2.028 . S
Zn157 O156 2.028 . S
Zn157 O161 2.035 . S
Zn157 O163 2.035 . S
Zn157 O164 2.028 . S
O158 C154 1.258 . S
O158 Zn159 2.036 1_545 S
Zn159 O158 2.036 1_565 S
Zn159 O160 2.028 . S
Zn159 O162 2.027 . S
Zn159 O165 2.035 . S
O160 Zn159 2.028 . S
O160 C166 1.247 . S
O161 Zn157 2.035 . S
O161 C166 1.258 . S
O162 C155 1.247 . S
O162 Zn159 2.027 . S
O163 C155 1.258 . S
O163 Zn157 2.035 . S
O164 Zn157 2.028 . S
O164 C167 1.247 . S
O165 Zn159 2.035 . S
O165 C167 1.258 . S
C166 O160 1.247 . S
C166 O161 1.258 . S
C167 O164 1.247 . S
C167 O165 1.258 . S
C168 O170 1.247 . S
C168 O172 1.258 . S
C169 O176 1.247 . S
C169 O177 1.258 . S
O170 C168 1.247 . S
O170 Zn171 2.028 . S
Zn171 O170 2.028 . S
Zn171 O175 2.035 . S
Zn171 O177 2.035 . S
Zn171 O178 2.028 . S
O172 C168 1.258 . S
O172 Zn173 2.035 . S
Zn173 O172 2.035 . S
Zn173 O174 2.028 . S
Zn173 O176 2.028 . S
Zn173 O179 2.035 . S
O174 Zn173 2.028 . S
O174 C180 1.247 . S
O175 Zn171 2.035 . S
O175 C180 1.258 . S
O176 C169 1.247 . S
O176 Zn173 2.028 . S
O177 C169 1.258 . S
O177 Zn171 2.035 . S
O178 Zn171 2.028 . S
O178 C181 1.247 . S
O179 Zn173 2.035 . S
O179 C181 1.258 . S
C180 O174 1.247 . S
C180 O175 1.258 . S
C181 O178 1.247 . S
C181 O179 1.258 . S
C182 O184 1.247 . S
C182 O186 1.258 . S
C183 O190 1.247 . S
C183 O191 1.258 . S
O184 C182 1.247 . S
O184 Zn185 2.028 1_545 S
Zn185 O184 2.028 1_565 S
Zn185 O189 2.035 . S
Zn185 O191 2.035 1_565 S
Zn185 O192 2.029 1_565 S
O186 C182 1.258 . S
O186 Zn187 2.035 . S
Zn187 O186 2.035 . S
Zn187 O188 2.028 . S
Zn187 O190 2.028 . S
Zn187 O193 2.035 . S
O188 Zn187 2.028 . S
O188 C194 1.247 1_545 S
O189 Zn185 2.035 . S
O189 C194 1.258 . S
O190 C183 1.247 . S
O190 Zn187 2.028 . S
O191 C183 1.258 . S
O191 Zn185 2.035 1_545 S
O192 Zn185 2.029 1_545 S
O192 C195 1.247 . S
O193 Zn187 2.035 . S
O193 C195 1.258 . S
C194 O188 1.247 1_565 S
C194 O189 1.258 . S
C195 O192 1.247 . S
C195 O193 1.258 . S
C196 O198 1.247 . S
C196 O200 1.258 . S
C197 O204 1.247 . S
C197 O205 1.258 . S
O198 C196 1.247 . S
O198 Zn199 2.028 . S
Zn199 O198 2.028 . S
Zn199 O203 2.035 . S
Zn199 O205 2.035 . S
Zn199 O206 2.028 . S
O200 C196 1.258 . S
O200 Zn201 2.035 . S
Zn201 O200 2.035 . S
Zn201 O202 2.028 . S
Zn201 O204 2.028 . S
Zn201 O207 2.035 . S
O202 Zn201 2.028 . S
O202 C208 1.247 . S
O203 Zn199 2.035 . S
O203 C208 1.258 . S
O204 C197 1.247 . S
O204 Zn201 2.028 . S
O205 C197 1.258 . S
O205 Zn199 2.035 . S
O206 Zn199 2.028 . S
O206 C209 1.247 . S
O207 Zn201 2.035 . S
O207 C209 1.258 . S
C208 O202 1.247 . S
C208 O203 1.258 . S
C209 O206 1.247 . S
C209 O207 1.258 . S
C210 O212 1.247 1_545 S
C210 O214 1.258 . S
C211 O218 1.247 . S
C211 O219 1.258 . S
O212 C210 1.247 1_565 S
O212 Zn213 2.028 . S
Zn213 O212 2.028 . S
Zn213 O217 2.035 1_655 S
Zn213 O219 2.035 . S
Zn213 O220 2.028 . S
O214 C210 1.258 . S
O214 Zn215 2.036 1_545 S
Zn215 O214 2.036 1_565 S
Zn215 O216 2.028 . S
Zn215 O218 2.027 . S
Zn215 O221 2.035 . S
O216 Zn215 2.028 . S
O216 C222 1.247 1_655 S
O217 Zn213 2.035 1_455 S
O217 C222 1.258 . S
O218 C211 1.247 . S
O218 Zn215 2.027 . S
O219 C211 1.258 . S
O219 Zn213 2.035 . S
O220 Zn213 2.028 . S
O220 C223 1.247 . S
O221 Zn215 2.035 . S
O221 C223 1.258 . S
C222 O216 1.247 1_455 S
C222 O217 1.258 . S
C223 O220 1.247 . S
C223 O221 1.258 . S
C224 O226 1.247 . S
C224 O228 1.258 . S
C225 O232 1.247 . S
C225 O233 1.258 . S
O226 C224 1.247 . S
O226 Zn227 2.028 . S
Zn227 O226 2.028 . S
Zn227 O231 2.035 . S
Zn227 O233 2.035 . S
Zn227 O234 2.028 . S
O228 C224 1.258 . S
O228 Zn229 2.035 . S
Zn229 O228 2.035 . S
Zn229 O230 2.028 . S
Zn229 O232 2.028 . S
Zn229 O235 2.035 . S
O230 Zn229 2.028 . S
O230 C236 1.247 . S
O231 Zn227 2.035 . S
O231 C236 1.258 . S
O232 C225 1.247 . S
O232 Zn229 2.028 . S
O233 C225 1.258 . S
O233 Zn227 2.035 . S
O234 Zn227 2.028 . S
O234 C237 1.247 . S
O235 Zn229 2.035 . S
O235 C237 1.258 . S
C236 O230 1.247 . S
C236 O231 1.258 . S
C237 O234 1.247 . S
C237 O235 1.258 . S
C238 O240 1.247 . S
C238 O242 1.258 . S
C239 O246 1.247 . S
C239 O247 1.258 . S
O240 C238 1.247 . S
O240 Zn241 2.028 . S
Zn241 O240 2.028 . S
Zn241 O245 2.035 . S
Zn241 O247 2.035 . S
Zn241 O248 2.028 . S
O242 C238 1.258 . S
O242 Zn243 2.035 . S
Zn243 O242 2.035 . S
Zn243 O244 2.028 . S
Zn243 O246 2.028 . S
Zn243 O249 2.035 . S
O244 Zn243 2.028 . S
O244 C250 1.247 . S
O245 Zn241 2.035 . S
O245 C250 1.258 . S
O246 C239 1.247 . S
O246 Zn243 2.028 . S
O247 C239 1.258 . S
O247 Zn241 2.035 . S
O248 Zn241 2.028 . S
O248 C251 1.247 . S
O249 Zn243 2.035 . S
O249 C251 1.258 . S
C250 O244 1.247 . S
C250 O245 1.258 . S
C251 O248 1.247 . S
C251 O249 1.258 . S
C252 O254 1.247 . S
C252 O256 1.258 . S
C253 O260 1.247 . S
C253 O261 1.258 . S
O254 C252 1.247 . S
O254 Zn255 2.028 . S
Zn255 O254 2.028 . S
Zn255 O259 2.035 . S
Zn255 O261 2.035 . S
Zn255 O262 2.028 . S
O256 C252 1.258 . S
O256 Zn257 2.035 . S
Zn257 O256 2.035 . S
Zn257 O258 2.028 . S
Zn257 O260 2.028 . S
Zn257 O263 2.035 . S
O258 Zn257 2.028 . S
O258 C264 1.247 . S
O259 Zn255 2.035 . S
O259 C264 1.258 . S
O260 C253 1.247 . S
O260 Zn257 2.028 . S
O261 C253 1.258 . S
O261 Zn255 2.035 . S
O262 Zn255 2.028 . S
O262 C265 1.247 . S
O263 Zn257 2.035 . S
O263 C265 1.258 . S
C264 O258 1.247 . S
C264 O259 1.258 . S
C265 O262 1.247 . S
C265 O263 1.258 . S
C266 O268 1.247 . S
C266 O270 1.258 1_455 S
C267 O274 1.247 . S
C267 O275 1.258 . S
O268 C266 1.247 . S
O268 Zn269 2.028 1_455 S
Zn269 O268 2.028 1_655 S
Zn269 O273 2.035 . S
Zn269 O275 2.035 . S
Zn269 O276 2.028 . S
O270 C266 1.258 1_655 S
O270 Zn271 2.035 . S
Zn271 O270 2.035 . S
Zn271 O272 2.028 . S
Zn271 O274 2.028 . S
Zn271 O277 2.035 . S
O272 Zn271 2.028 . S
O272 C278 1.247 . S
O273 Zn269 2.035 . S
O273 C278 1.258 . S
O274 C267 1.247 . S
O274 Zn271 2.028 . S
O275 C267 1.258 . S
O275 Zn269 2.035 . S
O276 Zn269 2.028 . S
O276 C279 1.247 . S
O277 Zn271 2.035 . S
O277 C279 1.258 . S
C278 O272 1.247 . S
C278 O273 1.258 . S
C279 O276 1.247 . S
C279 O277 1.258 . S
C280 O282 1.247 . S
C280 O284 1.258 . S
C281 O288 1.247 . S
C281 O289 1.258 . S
O282 C280 1.247 . S
O282 Zn283 2.028 . S
Zn283 O282 2.028 . S
Zn283 O287 2.035 . S
Zn283 O289 2.035 . S
Zn283 O290 2.028 . S
O284 C280 1.258 . S
O284 Zn285 2.035 . S
Zn285 O284 2.035 . S
Zn285 O286 2.028 . S
Zn285 O288 2.028 . S
Zn285 O291 2.035 . S
O286 Zn285 2.028 . S
O286 C292 1.247 . S
O287 Zn283 2.035 . S
O287 C292 1.258 . S
O288 C281 1.247 . S
O288 Zn285 2.028 . S
O289 C281 1.258 . S
O289 Zn283 2.035 . S
O290 Zn283 2.028 . S
O290 C293 1.247 . S
O291 Zn285 2.035 . S
O291 C293 1.258 . S
C292 O286 1.247 . S
C292 O287 1.258 . S
C293 O290 1.247 . S
C293 O291 1.258 . S
C294 O296 1.247 . S
C294 O298 1.258 . S
C295 O302 1.247 1_455 S
C295 O303 1.258 . S
O296 C294 1.247 . S
O296 Zn297 2.028 . S
Zn297 O296 2.028 . S
Zn297 O301 2.035 . S
Zn297 O303 2.035 1_655 S
Zn297 O304 2.028 . S
O298 C294 1.258 . S
O298 Zn299 2.035 . S
Zn299 O298 2.035 . S
Zn299 O300 2.028 . S
Zn299 O302 2.028 . S
Zn299 O305 2.035 . S
O300 Zn299 2.028 . S
O300 C306 1.247 . S
O301 Zn297 2.035 . S
O301 C306 1.258 . S
O302 C295 1.247 1_655 S
O302 Zn299 2.028 . S
O303 C295 1.258 . S
O303 Zn297 2.035 1_455 S
O304 Zn297 2.028 . S
O304 C307 1.247 . S
O305 Zn299 2.035 . S
O305 C307 1.258 . S
C306 O300 1.247 . S
C306 O301 1.258 . S
C307 O304 1.247 . S
C307 O305 1.258 . S
C308 O310 1.247 . S
C308 O312 1.258 . S
C309 O316 1.247 . S
C309 O317 1.258 . S
O310 C308 1.247 . S
O310 Zn311 2.028 . S
Zn311 O310 2.028 . S
Zn311 O315 2.035 . S
Zn311 O317 2.035 . S
Zn311 O318 2.028 . S
O312 C308 1.258 . S
O312 Zn313 2.035 . S
Zn313 O312 2.035 . S
Zn313 O314 2.028 . S
Zn313 O316 2.028 . S
Zn313 O319 2.035 . S
O314 Zn313 2.028 . S
O314 C320 1.247 . S
O315 Zn311 2.035 . S
O315 C320 1.258 . S
O316 C309 1.247 . S
O316 Zn313 2.028 . S
O317 C309 1.258 . S
O317 Zn311 2.035 . S
O318 Zn311 2.028 . S
O318 C321 1.247 . S
O319 Zn313 2.035 . S
O319 C321 1.258 . S
C320 O314 1.247 . S
C320 O315 1.258 . S
C321 O318 1.247 . S
C321 O319 1.258 . S
C322 O324 1.247 . S
C322 O326 1.258 . S
C323 O330 1.247 . S
C323 O331 1.258 . S
O324 C322 1.247 . S
O324 Zn325 2.028 . S
Zn325 O324 2.028 . S
Zn325 O329 2.035 . S
Zn325 O331 2.035 . S
Zn325 O332 2.028 . S
O326 C322 1.258 . S
O326 Zn327 2.035 . S
Zn327 O326 2.035 . S
Zn327 O328 2.028 . S
Zn327 O330 2.028 . S
Zn327 O333 2.035 . S
O328 Zn327 2.028 . S
O328 C334 1.247 . S
O329 Zn325 2.035 . S
O329 C334 1.258 . S
O330 C323 1.247 . S
O330 Zn327 2.028 . S
O331 C323 1.258 . S
O331 Zn325 2.035 . S
O332 Zn325 2.028 . S
O332 C335 1.247 . S
O333 Zn327 2.035 . S
O333 C335 1.258 . S
C334 O328 1.247 . S
C334 O329 1.258 . S
C335 O332 1.247 . S
C335 O333 1.258 . S
C336 O338 1.247 . S
C336 O340 1.258 . S
C337 O344 1.247 . S
C337 O345 1.258 . S
O338 C336 1.247 . S
O338 Zn339 2.028 . S
Zn339 O338 2.028 . S
Zn339 O343 2.035 . S
Zn339 O345 2.035 . S
Zn339 O346 2.028 . S
O340 C336 1.258 . S
O340 Zn341 2.035 . S
Zn341 O340 2.035 . S
Zn341 O342 2.028 . S
Zn341 O344 2.028 . S
Zn341 O347 2.035 . S
O342 Zn341 2.028 . S
O342 C348 1.247 . S
O343 Zn339 2.035 . S
O343 C348 1.258 . S
O344 C337 1.247 . S
O344 Zn341 2.028 . S
O345 C337 1.258 . S
O345 Zn339 2.035 . S
O346 Zn339 2.028 . S
O346 C349 1.247 . S
O347 Zn341 2.035 . S
O347 C349 1.258 . S
C348 O342 1.247 . S
C348 O343 1.258 . S
C349 O346 1.247 . S
C349 O347 1.258 . S
C350 O352 1.247 . S
C350 O354 1.258 . S
C351 O358 1.247 . S
C351 O359 1.258 . S
O352 C350 1.247 . S
O352 Zn353 2.028 . S
Zn353 O352 2.028 . S
Zn353 O357 2.035 . S
Zn353 O359 2.035 . S
Zn353 O360 2.028 . S
O354 C350 1.258 . S
O354 Zn355 2.035 . S
Zn355 O354 2.035 . S
Zn355 O356 2.028 . S
Zn355 O358 2.028 . S
Zn355 O361 2.035 . S
O356 Zn355 2.028 . S
O356 C362 1.247 . S
O357 Zn353 2.035 . S
O357 C362 1.258 . S
O358 C351 1.247 . S
O358 Zn355 2.028 . S
O359 C351 1.258 . S
O359 Zn353 2.035 . S
O360 Zn353 2.028 . S
O360 C363 1.247 . S
O361 Zn355 2.035 . S
O361 C363 1.258 . S
C362 O356 1.247 . S
C362 O357 1.258 . S
C363 O360 1.247 . S
C363 O361 1.258 . S
C364 O366 1.247 . S
C364 O368 1.258 . S
C365 O372 1.247 . S
C365 O373 1.258 . S
O366 C364 1.247 . S
O366 Zn367 2.028 . S
Zn367 O366 2.028 . S
Zn367 O371 2.035 . S
Zn367 O373 2.035 . S
Zn367 O374 2.028 . S
O368 C364 1.258 . S
O368 Zn369 2.035 . S
Zn369 O368 2.035 . S
Zn369 O370 2.028 . S
Zn369 O372 2.028 . S
Zn369 O375 2.035 . S
O370 Zn369 2.028 . S
O370 C376 1.247 . S
O371 Zn367 2.035 . S
O371 C376 1.258 . S
O372 C365 1.247 . S
O372 Zn369 2.028 . S
O373 C365 1.258 . S
O373 Zn367 2.035 . S
O374 Zn367 2.028 . S
O374 C377 1.247 . S
O375 Zn369 2.035 . S
O375 C377 1.258 . S
C376 O370 1.247 . S
C376 O371 1.258 . S
C377 O374 1.247 . S
C377 O375 1.258 . S
C378 O380 1.247 . S
C378 O382 1.258 . S
C379 O386 1.247 . S
C379 O387 1.258 1_655 S
O380 C378 1.247 . S
O380 Zn381 2.028 . S
Zn381 O380 2.028 . S
Zn381 O385 2.035 . S
Zn381 O387 2.035 . S
Zn381 O388 2.028 . S
O382 C378 1.258 . S
O382 Zn383 2.035 . S
Zn383 O382 2.035 . S
Zn383 O384 2.028 . S
Zn383 O386 2.028 1_455 S
Zn383 O389 2.035 . S
O384 Zn383 2.028 . S
O384 C390 1.247 . S
O385 Zn381 2.035 . S
O385 C390 1.258 . S
O386 C379 1.247 . S
O386 Zn383 2.028 1_655 S
O387 C379 1.258 1_455 S
O387 Zn381 2.035 . S
O388 Zn381 2.028 . S
O388 C391 1.247 . S
O389 Zn383 2.035 . S
O389 C391 1.258 . S
C390 O384 1.247 . S
C390 O385 1.258 . S
C391 O388 1.247 . S
C391 O389 1.258 . S
C392 O394 1.247 . S
C392 O396 1.258 . S
C393 O400 1.247 . S
C393 O401 1.258 . S
O394 C392 1.247 . S
O394 Zn395 2.028 . S
Zn395 O394 2.028 . S
Zn395 O399 2.035 . S
Zn395 O401 2.035 . S
Zn395 O402 2.028 . S
O396 C392 1.258 . S
O396 Zn397 2.035 . S
Zn397 O396 2.035 . S
Zn397 O398 2.028 . S
Zn397 O400 2.028 . S
Zn397 O403 2.035 . S
O398 Zn397 2.028 . S
O398 C404 1.247 . S
O399 Zn395 2.035 . S
O399 C404 1.258 . S
O400 C393 1.247 . S
O400 Zn397 2.028 . S
O401 C393 1.258 . S
O401 Zn395 2.035 . S
O402 Zn395 2.028 . S
O402 C405 1.247 . S
O403 Zn397 2.035 . S
O403 C405 1.258 . S
C404 O398 1.247 . S
C404 O399 1.258 . S
C405 O402 1.247 . S
C405 O403 1.258 . S
C406 O408 1.247 1_655 S
C406 O410 1.258 . S
C407 O414 1.247 . S
C407 O415 1.258 . S
O408 C406 1.247 1_455 S
O408 Zn409 2.028 . S
Zn409 O408 2.028 . S
Zn409 O413 2.035 . S
Zn409 O415 2.035 . S
Zn409 O416 2.028 . S
O410 C406 1.258 . S
O410 Zn411 2.035 1_655 S
Zn411 O410 2.035 1_455 S
Zn411 O412 2.028 . S
Zn411 O414 2.028 . S
Zn411 O417 2.035 . S
O412 Zn411 2.028 . S
O412 C418 1.247 . S
O413 Zn409 2.035 . S
O413 C418 1.258 . S
O414 C407 1.247 . S
O414 Zn411 2.028 . S
O415 C407 1.258 . S
O415 Zn409 2.035 . S
O416 Zn409 2.028 . S
O416 C419 1.247 . S
O417 Zn411 2.035 . S
O417 C419 1.258 . S
C418 O412 1.247 . S
C418 O413 1.258 . S
C419 O416 1.247 . S
C419 O417 1.258 . S
C420 O422 1.247 . S
C420 O424 1.258 . S
C421 O428 1.247 . S
C421 O429 1.258 . S
O422 C420 1.247 . S
O422 Zn423 2.028 . S
Zn423 O422 2.028 . S
Zn423 O427 2.035 . S
Zn423 O429 2.035 . S
Zn423 O430 2.028 . S
O424 C420 1.258 . S
O424 Zn425 2.035 . S
Zn425 O424 2.035 . S
Zn425 O426 2.028 . S
Zn425 O428 2.028 . S
Zn425 O431 2.035 . S
O426 Zn425 2.028 . S
O426 C432 1.247 . S
O427 Zn423 2.035 . S
O427 C432 1.258 . S
O428 C421 1.247 . S
O428 Zn425 2.028 . S
O429 C421 1.258 . S
O429 Zn423 2.035 . S
O430 Zn423 2.028 . S
O430 C433 1.247 . S
O431 Zn425 2.035 . S
O431 C433 1.258 . S
C432 O426 1.247 . S
C432 O427 1.258 . S
C433 O430 1.247 . S
C433 O431 1.258 . S
C434 O436 1.247 . S
C434 O438 1.258 . S
C435 O442 1.247 . S
C435 O443 1.258 . S
O436 C434 1.247 . S
O436 Zn437 2.028 . S
Zn437 O436 2.028 . S
Zn437 O441 2.035 . S
Zn437 O443 2.035 . S
Zn437 O444 2.028 . S
O438 C434 1.258 . S
O438 Zn439 2.035 . S
Zn439 O438 2.035 . S
Zn439 O440 2.028 . S
Zn439 O442 2.028 . S
Zn439 O445 2.035 . S
O440 Zn439 2.028 . S
O440 C446 1.247 . S
O441 Zn437 2.035 . S
O441 C446 1.258 . S
O442 C435 1.247 . S
O442 Zn439 2.028 . S
O443 C435 1.258 . S
O443 Zn437 2.035 . S
O444 Zn437 2.028 . S
O444 C447 1.247 . S
O445 Zn439 2.035 . S
O445 C447 1.258 . S
C446 O440 1.247 . S
C446 O441 1.258 . S
C447 O444 1.247 . S
C447 O445 1.258 . S
C390 C1 1.704 . S
C26 C112 1.702 . S
C363 C28 1.709 . S
C42 C153 1.709 . S
C56 C419 1.709 . S
C71 C208 1.704 . S
C96 C447 1.708 . S
C111 C181 1.710 . S
C279 C125 1.702 . S
C12 C139 1.708 . S
C239 C140 1.704 . S
C166 C41 1.704 . S
C306 C168 1.711 . S
C85 C182 1.704 . S
C197 C334 1.708 . S
C69 C222 1.704 . S
C225 C155 1.710 . S
C250 C336 1.702 . S
C126 C252 1.703 . S
C376 C266 1.703 . S
C195 C292 1.709 . S
C433 C295 1.711 . S
C211 C320 1.708 . S
C323 C405 1.710 . S
C55 C349 1.702 . S
C350 C236 1.710 . S
C365 C15 1.703 . S
C379 C265 1.703 . S
C392 C82 1.711 . S
C406 C309 1.704 . S
C420 C98 1.710 . S
C434 C281 1.704 . S
C337 C13 2.260 . S
C14 C127 2.268 1_445 S
C377 C40 2.269 . S
C54 C154 2.260 1_564 S
C404 C68 2.260 . S
C83 C194 2.253 1_545 S
C432 C84 2.260 . S
C99 C210 2.252 1_466 S
C113 C237 2.260 . S
C152 C264 2.261 . S
C180 C280 2.260 . S
C209 C308 2.269 . S
C238 C362 2.260 1_554 S
C391 C278 2.268 1_455 S
C418 C307 2.253 1_454 S
C335 C446 2.252 . S
C0 C57 1.972 1_545 S
C27 C70 1.972 . S
C97 C29 1.975 1_545 S
C43 C110 1.972 1_554 S
C169 C124 1.972 1_545 S
C183 C138 1.972 . S
C141 C196 1.972 1_545 S
C167 C223 1.969 1_556 S
C293 C224 1.972 . S
C294 C251 1.972 1_556 S
C253 C321 1.975 . S
C322 C267 1.972 . S
C393 C348 1.972 . S
C351 C407 1.969 1_556 S
C421 C364 1.972 . S
C378 C435 1.972 . S
