# Generated by pormake.
# Topology ske, (6)-cn, num edge types: 1
# Building blocks:
#     Node 0, Type 0, BuildingBlock: KUMJIN_clean_sbu_1, # of connection points: 6
#     Node 1, Type 0, BuildingBlock: KUMJIN_clean_sbu_1, # of connection points: 6
#     Node 2, Type 0, BuildingBlock: KUMJIN_clean_sbu_1, # of connection points: 6
#     Node 3, Type 0, BuildingBlock: KUMJIN_clean_sbu_1, # of connection points: 6
#     Node 4, Type 0, BuildingBlock: KUMJIN_clean_sbu_1, # of connection points: 6
#     Node 5, Type 0, BuildingBlock: KUMJIN_clean_sbu_1, # of connection points: 6
#     Node 6, Type 0, BuildingBlock: KUMJIN_clean_sbu_1, # of connection points: 6
#     Node 7, Type 0, BuildingBlock: KUMJIN_clean_sbu_1, # of connection points: 6
#     Edge 8, Type (0, 0), BuildingBlock: AJUNOK_clean_linker_0, # of connection points: 2
#     Edge 9, Type (0, 0), BuildingBlock: AJUNOK_clean_linker_0, # of connection points: 2
#     Edge 10, Type (0, 0), BuildingBlock: AJUNOK_clean_linker_0, # of connection points: 2
#     Edge 11, Type (0, 0), BuildingBlock: AJUNOK_clean_linker_0, # of connection points: 2
#     Edge 12, Type (0, 0), BuildingBlock: AJUNOK_clean_linker_0, # of connection points: 2
#     Edge 13, Type (0, 0), BuildingBlock: AJUNOK_clean_linker_0, # of connection points: 2
#     Edge 14, Type (0, 0), BuildingBlock: AJUNOK_clean_linker_0, # of connection points: 2
#     Edge 15, Type (0, 0), BuildingBlock: AJUNOK_clean_linker_0, # of connection points: 2
#     Edge 16, Type (0, 0), BuildingBlock: AJUNOK_clean_linker_0, # of connection points: 2
#     Edge 17, Type (0, 0), BuildingBlock: AJUNOK_clean_linker_0, # of connection points: 2
#     Edge 18, Type (0, 0), BuildingBlock: AJUNOK_clean_linker_0, # of connection points: 2
#     Edge 19, Type (0, 0), BuildingBlock: AJUNOK_clean_linker_0, # of connection points: 2
#     Edge 20, Type (0, 0), BuildingBlock: AJUNOK_clean_linker_0, # of connection points: 2
#     Edge 21, Type (0, 0), BuildingBlock: AJUNOK_clean_linker_0, # of connection points: 2
#     Edge 22, Type (0, 0), BuildingBlock: AJUNOK_clean_linker_0, # of connection points: 2
#     Edge 23, Type (0, 0), BuildingBlock: AJUNOK_clean_linker_0, # of connection points: 2
#     Edge 24, Type (0, 0), BuildingBlock: AJUNOK_clean_linker_0, # of connection points: 2
#     Edge 25, Type (0, 0), BuildingBlock: AJUNOK_clean_linker_0, # of connection points: 2
#     Edge 26, Type (0, 0), BuildingBlock: AJUNOK_clean_linker_0, # of connection points: 2
#     Edge 27, Type (0, 0), BuildingBlock: AJUNOK_clean_linker_0, # of connection points: 2
#     Edge 28, Type (0, 0), BuildingBlock: AJUNOK_clean_linker_0, # of connection points: 2
#     Edge 29, Type (0, 0), BuildingBlock: AJUNOK_clean_linker_0, # of connection points: 2
#     Edge 30, Type (0, 0), BuildingBlock: AJUNOK_clean_linker_0, # of connection points: 2
#     Edge 31, Type (0, 0), BuildingBlock: AJUNOK_clean_linker_0, # of connection points: 2
# Relax obj value: 0.213
# Max RMSD: 0.239
# Mean RMSD: 0.235
data_MOF--net-ske--node1-KUMJIN_clean_sbu_1--edge1-AJUNOK_clean_linker_0
_symmetry_space_group_name_H-M    P1
_symmetry_Int_Tables_number       1
_symmetry_cell_setting            triclinic
loop_
_symmetry_equiv_pos_as_xyz
'x, y, z'
_cell_length_a     84.17325
_cell_length_b     21.892356
_cell_length_c     11.280656
_cell_angle_alpha  98.866102
_cell_angle_beta   90.056014
_cell_angle_gamma 89.989325
loop_
_atom_site_label
_atom_site_type_symbol
_atom_site_fract_x
_atom_site_fract_y
_atom_site_fract_z
_atom_type_partial_charge
Eu0 Eu 0.15508 0.26342 0.51939 0.0
C1 C 0.09378 0.26451 0.79839 0.0
N2 N 0.09915 0.21945 0.71118 0.0
C3 C 0.09414 0.14258 0.83691 0.0
C4 C 0.08909 0.25048 0.91115 0.0
C5 C 0.09864 0.15867 0.72656 0.0
C6 C 0.08958 0.18879 0.93028 0.0
C7 C 0.08646 0.37172 0.86047 0.0
C8 C 0.09269 0.32452 0.77358 0.0
C9 C 0.08244 0.35854 0.97474 0.0
C10 C 0.08381 0.29811 1.00016 0.0
Eu11 Eu 0.1078 0.25175 0.53055 0.0
N12 N 0.0967 0.33595 0.66224 0.0
C13 C 0.08393 0.43023 0.82861 0.0
C14 C 0.09297 0.39139 0.62789 0.0
C15 C 0.08681 0.43962 0.7109 0.0
H16 H 0.10256 0.12319 0.65536 0.0
H17 H 0.0843 0.484 0.684 0.0
H18 H 0.16281 0.41714 0.5316 0.0
H19 H 0.17331 0.07383 0.1737 0.0
H20 H 0.09468 0.39871 0.53622 0.0
H21 H 0.07919 0.46773 0.89279 0.0
H22 H 0.16454 0.12213 0.37642 0.0
H23 H 0.09429 0.09466 0.85012 0.0
H24 H 0.07791 0.39449 0.04319 0.0
H25 H 0.08039 0.2884 0.08795 0.0
H26 H 0.16877 0.48905 0.38874 0.0
H27 H 0.08614 0.17622 1.01587 0.0
H28 H 0.17791 0.13903 1.01608 0.0
N29 N 0.1621 0.33768 0.39664 0.0
C30 C 0.16618 0.314 0.28182 0.0
C31 C 0.16774 0.44003 0.35725 0.0
C32 C 0.16963 0.35335 0.19753 0.0
C33 C 0.16408 0.39923 0.43739 0.0
C34 C 0.16991 0.41722 0.23593 0.0
N35 N 0.16405 0.21285 0.33174 0.0
C36 C 0.16665 0.15063 0.30789 0.0
C37 C 0.17242 0.22462 0.13249 0.0
C38 C 0.16767 0.25016 0.24944 0.0
C39 C 0.1743 0.1604 0.10503 0.0
C40 C 0.17164 0.12337 0.19365 0.0
H41 H 0.17258 0.449 0.17391 0.0
H42 H 0.17493 0.35759 1.01211 0.0
H43 H 0.17794 0.24495 0.95497 0.0
O44 O 0.17301 0.22174 0.62593 0.0
O45 O 0.14009 0.22545 0.34771 0.0
O46 O 0.11763 0.28334 0.35806 0.0
O47 O 0.17979 0.29319 0.52634 0.0
O48 O 0.14605 0.17026 0.55681 0.0
O49 O 0.12079 0.16063 0.47107 0.0
O50 O 0.08233 0.26477 0.49901 0.0
O51 O 0.12281 0.23004 0.69278 0.0
O52 O 0.14446 0.29378 0.70966 0.0
O53 O 0.09417 0.18427 0.40767 0.0
O54 O 0.11895 0.34023 0.4855 0.0
O55 O 0.14197 0.35185 0.59638 0.0
C56 C 0.12949 0.25648 0.29327 0.0
C57 C 0.19495 0.28708 0.69743 0.0
C58 C 0.22182 0.30575 0.78036 0.0
C59 C 0.21581 0.35515 0.86235 0.0
C60 C 0.18934 0.33722 0.77905 0.0
C61 C 0.19975 0.37098 0.86082 0.0
C62 C 0.21121 0.27143 0.69838 0.0
C63 C 0.13357 0.13723 0.51512 0.0
C64 C 0.18452 0.25717 0.59998 0.0
C65 C 0.17318 0.32784 0.07879 0.0
C66 C 0.1748 0.26374 0.04648 0.0
C67 C 0.13328 0.26412 0.76076 0.0
C68 C 0.06703 0.17307 0.4592 0.0
C69 C 0.03832 0.15309 0.46644 0.0
C70 C 0.04167 0.09945 0.51655 0.0
C71 C 0.06986 0.11903 0.50857 0.0
C72 C 0.05117 0.18987 0.43765 0.0
C73 C 0.05727 0.08324 0.5388 0.0
C74 C 0.12956 0.37536 0.5487 0.0
C75 C 0.08055 0.2118 0.43079 0.0
H76 H 0.22365 0.3829 0.9252 0.0
H77 H 0.177 0.3512 0.77738 0.0
H78 H 0.19542 0.41041 0.92205 0.0
H79 H 0.21564 0.23355 0.63358 0.0
H80 H 0.03222 0.06905 0.53653 0.0
H81 H 0.08182 0.10392 0.52286 0.0
H82 H 0.04886 0.23137 0.39905 0.0
H83 H 0.05966 0.0423 0.57865 0.0
Eu84 Eu 0.90139 0.23741 0.53189 0.0
C85 C 0.83561 0.25469 0.27986 0.0
N86 N 0.84541 0.29197 0.35533 0.0
C87 C 0.84282 0.37209 0.23373 0.0
C88 C 0.82954 0.27419 0.17525 0.0
C89 C 0.84855 0.35079 0.33634 0.0
C90 C 0.83339 0.33345 0.15219 0.0
C91 C 0.82233 0.15575 0.22733 0.0
C92 C 0.83208 0.196 0.30564 0.0
C93 C 0.81622 0.17518 0.1233 0.0
C94 C 0.81984 0.23414 0.0972 0.0
Eu95 Eu 0.85416 0.25201 0.52734 0.0
N96 N 0.83829 0.17806 0.40641 0.0
C97 C 0.81906 0.09697 0.25555 0.0
C98 C 0.83483 0.12137 0.4358 0.0
C99 C 0.8253 0.07982 0.36038 0.0
H100 H 0.85528 0.38175 0.40069 0.0
H101 H 0.82266 0.03476 0.38365 0.0
H102 H 0.901 0.09484 0.61296 0.0
H103 H 0.92657 0.45327 0.76342 0.0
H104 H 0.83916 0.10834 0.51847 0.0
H105 H 0.81166 0.06467 0.19747 0.0
H106 H 0.91322 0.3861 0.59764 0.0
H107 H 0.84554 0.41853 0.21821 0.0
H108 H 0.80874 0.14479 0.06205 0.0
H109 H 0.81508 0.24831 0.01633 0.0
H110 H 0.90797 0.04611 0.78836 0.0
H111 H 0.82897 0.3501 0.07272 0.0
H112 H 0.93517 0.41058 0.94365 0.0
N113 N 0.90726 0.18535 0.69514 0.0
C114 C 0.91523 0.21967 0.78763 0.0
C115 C 0.90975 0.09525 0.79055 0.0
C116 C 0.92002 0.19326 0.88837 0.0
C117 C 0.90529 0.12336 0.69243 0.0
C118 C 0.91693 0.13055 0.88981 0.0
N119 N 0.9134 0.30702 0.68598 0.0
C120 C 0.91644 0.36735 0.67727 0.0
C121 C 0.92637 0.31856 0.87861 0.0
C122 C 0.91849 0.28186 0.78257 0.0
C123 C 0.92916 0.38094 0.87161 0.0
C124 C 0.92424 0.40533 0.77033 0.0
H125 H 0.92044 0.1086 0.96556 0.0
H126 H 0.93145 0.21063 0.06208 0.0
H127 H 0.937 0.3198 0.05394 0.0
O128 O 0.92532 0.26461 0.47914 0.0
O129 O 0.88767 0.27409 0.7078 0.0
O130 O 0.86444 0.22001 0.69539 0.0
O131 O 0.91937 0.16796 0.47222 0.0
O132 O 0.89287 0.32553 0.47045 0.0
O133 O 0.86933 0.33922 0.57579 0.0
O134 O 0.82962 0.24166 0.59178 0.0
O135 O 0.86575 0.22922 0.34009 0.0
O136 O 0.89269 0.25324 0.34568 0.0
O137 O 0.842 0.33026 0.63267 0.0
O138 O 0.8642 0.16289 0.57425 0.0
O139 O 0.88695 0.15036 0.46041 0.0
C140 C 0.8763 0.24639 0.76033 0.0
C141 C 0.94308 0.18942 0.37113 0.0
C142 C 0.97159 0.17329 0.33135 0.0
C143 C 0.9677 0.14013 0.21791 0.0
C144 C 0.93956 0.1553 0.25874 0.0
C145 C 0.95185 0.13167 0.18189 0.0
C146 C 0.95907 0.1994 0.40592 0.0
C147 C 0.88136 0.36118 0.52022 0.0
C148 C 0.93047 0.20791 0.46016 0.0
C149 C 0.92781 0.22996 0.98391 0.0
C150 C 0.931 0.29226 0.9791 0.0
C151 C 0.87922 0.23992 0.28648 0.0
C152 C 0.81499 0.32741 0.71052 0.0
C153 C 0.7867 0.32763 0.76534 0.0
C154 C 0.78907 0.38419 0.8411 0.0
C155 C 0.81685 0.38415 0.78651 0.0
C156 C 0.79981 0.29916 0.70008 0.0
C157 C 0.804 0.4121 0.8513 0.0
C158 C 0.8745 0.12731 0.5091 0.0
C159 C 0.829 0.29908 0.64307 0.0
H160 H 0.9769 0.11888 0.15829 0.0
H161 H 0.92734 0.14618 0.23122 0.0
H162 H 0.94906 0.10524 0.09516 0.0
H163 H 0.96168 0.22604 0.49286 0.0
H164 H 0.77927 0.40742 0.89149 0.0
H165 H 0.8283 0.40702 0.79642 0.0
H166 H 0.79822 0.25531 0.64206 0.0
H167 H 0.80561 0.45584 0.9095 0.0
Eu168 Eu 0.15496 0.74776 0.52645 0.0
C169 C 0.09205 0.76137 0.27343 0.0
N170 N 0.0984 0.80317 0.36258 0.0
C171 C 0.0914 0.88641 0.25706 0.0
C172 C 0.08572 0.78067 0.16941 0.0
C173 C 0.09797 0.86502 0.35688 0.0
C174 C 0.08538 0.84402 0.16236 0.0
C175 C 0.08562 0.65489 0.19401 0.0
C176 C 0.09195 0.69915 0.28634 0.0
C177 C 0.07994 0.67369 0.08815 0.0
C178 C 0.0799 0.73642 0.07622 0.0
Eu179 Eu 0.10751 0.76411 0.53409 0.0
N180 N 0.09726 0.68229 0.39088 0.0
C181 C 0.08467 0.59323 0.21225 0.0
C182 C 0.09482 0.62331 0.413 0.0
C183 C 0.08901 0.57764 0.32309 0.0
H184 H 0.10277 0.89764 0.42974 0.0
H185 H 0.08754 0.53068 0.34037 0.0
H186 H 0.16171 0.59329 0.4959 0.0
H187 H 0.17659 0.93561 0.86261 0.0
H188 H 0.09691 0.61105 0.50063 0.0
H189 H 0.07996 0.55786 0.14334 0.0
H190 H 0.16189 0.88958 0.6809 0.0
H191 H 0.09115 0.93544 0.25267 0.0
H192 H 0.07517 0.64019 0.01615 0.0
H193 H 0.07518 0.75029 0.995 0.0
H194 H 0.17595 0.5208 0.6046 0.0
H195 H 0.08051 0.86063 0.0843 0.0
H196 H 0.19105 0.8681 0.98264 0.0
N197 N 0.16629 0.67189 0.62786 0.0
C198 C 0.17468 0.6949 0.72854 0.0
C199 C 0.17553 0.56947 0.64076 0.0
C200 C 0.18402 0.65536 0.78763 0.0
C201 C 0.16703 0.61051 0.58145 0.0
C202 C 0.1841 0.59196 0.74403 0.0
N203 N 0.16661 0.79696 0.70577 0.0
C204 C 0.16764 0.85976 0.73554 0.0
C205 C 0.18399 0.7834 0.86942 0.0
C206 C 0.17487 0.75876 0.76826 0.0
C207 C 0.18423 0.84757 0.90512 0.0
C208 C 0.17608 0.88589 0.83758 0.0
H209 H 0.19102 0.56017 0.78791 0.0
H210 H 0.20118 0.65051 0.92735 0.0
H211 H 0.2005 0.76197 1.00464 0.0
O212 O 0.17041 0.79305 0.40647 0.0
O213 O 0.14335 0.77668 0.71408 0.0
O214 O 0.11773 0.73854 0.71041 0.0
O215 O 0.17948 0.72012 0.49403 0.0
O216 O 0.14535 0.84092 0.49618 0.0
O217 O 0.12172 0.8512 0.60244 0.0
O218 O 0.0825 0.74481 0.57187 0.0
O219 O 0.12191 0.78248 0.36635 0.0
O220 O 0.14231 0.71303 0.34825 0.0
O221 O 0.09253 0.83277 0.64344 0.0
O222 O 0.11783 0.67561 0.58533 0.0
O223 O 0.14013 0.66156 0.46666 0.0
C224 C 0.13112 0.75505 0.76865 0.0
C225 C 0.19303 0.73449 0.32178 0.0
C226 C 0.22011 0.72306 0.24131 0.0
C227 C 0.21515 0.67046 0.16262 0.0
C228 C 0.18839 0.68177 0.24276 0.0
C229 C 0.19943 0.64976 0.16445 0.0
C230 C 0.20889 0.75514 0.32047 0.0
C231 C 0.13357 0.8746 0.54768 0.0
C232 C 0.18274 0.75935 0.42314 0.0
C233 C 0.19338 0.68021 0.88601 0.0
C234 C 0.19315 0.74373 0.92843 0.0
C235 C 0.13201 0.74657 0.29771 0.0
C236 C 0.06513 0.83133 0.58715 0.0
C237 C 0.03623 0.83654 0.55715 0.0
C238 C 0.03856 0.88698 0.49583 0.0
C239 C 0.06678 0.88448 0.53251 0.0
C240 C 0.04963 0.80821 0.60202 0.0
C241 C 0.0537 0.91061 0.48374 0.0
C242 C 0.12912 0.64003 0.53182 0.0
C243 C 0.07953 0.80022 0.6269 0.0
H244 H 0.22355 0.64425 0.10226 0.0
H245 H 0.17645 0.66365 0.24611 0.0
H246 H 0.19585 0.60798 0.10637 0.0
H247 H 0.21264 0.79459 0.38456 0.0
H248 H 0.02854 0.90977 0.46102 0.0
H249 H 0.07817 0.90642 0.52796 0.0
H250 H 0.04801 0.76879 0.64822 0.0
H251 H 0.05528 0.95006 0.43785 0.0
Eu252 Eu 0.90016 0.76469 0.5219 0.0
C253 C 0.82872 0.6872 0.68213 0.0
N254 N 0.83841 0.66165 0.59119 0.0
C255 C 0.82881 0.56031 0.61092 0.0
C256 C 0.81878 0.64967 0.74165 0.0
C257 C 0.83825 0.59918 0.5531 0.0
C258 C 0.81907 0.58559 0.70575 0.0
C259 C 0.81892 0.77852 0.81179 0.0
C260 C 0.8287 0.75117 0.71658 0.0
C261 C 0.8091 0.74113 0.87107 0.0
C262 C 0.80897 0.677 0.83571 0.0
Eu263 Eu 0.85247 0.73345 0.4935 0.0
N264 N 0.83827 0.78666 0.65776 0.0
C265 C 0.81918 0.84287 0.84411 0.0
C266 C 0.83809 0.84955 0.68588 0.0
C267 C 0.82875 0.87852 0.78051 0.0
H268 H 0.8449 0.57891 0.47505 0.0
H269 H 0.82879 0.92839 0.8033 0.0
H270 H 0.90389 0.919 0.56881 0.0
H271 H 0.92429 0.59193 0.16244 0.0
H272 H 0.84496 0.87762 0.63469 0.0
H273 H 0.81186 0.86553 0.91688 0.0
H274 H 0.90993 0.62708 0.34918 0.0
H275 H 0.82885 0.5109 0.58079 0.0
H276 H 0.80151 0.76141 0.94425 0.0
H277 H 0.80131 0.64882 0.88242 0.0
H278 H 0.91558 1.0004 0.4669 0.0
H279 H 0.81169 0.5553 0.74982 0.0
H280 H 0.93675 0.66788 0.05069 0.0
N281 N 0.91044 0.84585 0.43132 0.0
C282 C 0.91903 0.8285 0.32957 0.0
C283 C 0.91648 0.95234 0.42659 0.0
C284 C 0.92613 0.87341 0.26935 0.0
C285 C 0.90963 0.90628 0.48302 0.0
C286 C 0.9246 0.93592 0.31854 0.0
N287 N 0.91358 0.72282 0.34353 0.0
C288 C 0.91499 0.66118 0.30156 0.0
C289 C 0.92914 0.74703 0.17719 0.0
C290 C 0.92064 0.76558 0.28453 0.0
C291 C 0.93035 0.6839 0.13293 0.0
C292 C 0.92329 0.64088 0.19555 0.0
H293 H 0.92989 0.97174 0.27494 0.0
H294 H 0.94003 0.88861 0.11502 0.0
H295 H 0.94257 0.77828 0.03403 0.0
O296 O 0.92526 0.74482 0.55851 0.0
O297 O 0.88826 0.77736 0.34135 0.0
O298 O 0.86834 0.70594 0.32795 0.0
O299 O 0.91265 0.81651 0.67371 0.0
O300 O 0.89443 0.66241 0.51895 0.0
O301 O 0.86704 0.64629 0.49055 0.0
O302 O 0.8314 0.77766 0.42593 0.0
O303 O 0.86211 0.75411 0.68928 0.0
O304 O 0.88899 0.72912 0.68435 0.0
O305 O 0.8368 0.68269 0.35934 0.0
O306 O 0.86171 0.82579 0.45369 0.0
O307 O 0.8821 0.83936 0.58902 0.0
C308 C 0.87769 0.74233 0.27605 0.0
C309 C 0.94052 0.83178 0.65404 0.0
C310 C 0.96941 0.84761 0.64923 0.0
C311 C 0.96703 0.91106 0.68734 0.0
C312 C 0.93865 0.89572 0.69283 0.0
C313 C 0.95178 0.93485 0.70826 0.0
C314 C 0.95607 0.8079 0.63139 0.0
C315 C 0.88166 0.62677 0.50358 0.0
C316 C 0.92638 0.79031 0.64743 0.0
C317 C 0.93457 0.85472 0.16268 0.0
C318 C 0.93605 0.79183 0.11669 0.0
C319 C 0.8755 0.74163 0.74346 0.0
C320 C 0.80937 0.70902 0.3745 0.0
C321 C 0.78079 0.73095 0.36438 0.0
C322 C 0.77754 0.67231 0.39453 0.0
C323 C 0.80555 0.64999 0.40094 0.0
C324 C 0.79682 0.74927 0.35433 0.0
C325 C 0.78982 0.6323 0.41253 0.0
C326 C 0.87212 0.86168 0.51707 0.0
C327 C 0.82635 0.72668 0.36219 0.0
H328 H 0.97705 0.94247 0.7003 0.0
H329 H 0.92704 0.91583 0.71319 0.0
H330 H 0.95013 0.98387 0.73785 0.0
H331 H 0.95781 0.7588 0.60283 0.0
H332 H 0.76541 0.65654 0.40056 0.0
H333 H 0.81465 0.61651 0.41034 0.0
H334 H 0.79948 0.79422 0.33035 0.0
H335 H 0.78714 0.58674 0.43324 0.0
Eu336 Eu 0.65468 0.76847 0.07544 0.0
C337 C 0.59251 0.75817 0.33403 0.0
N338 N 0.60035 0.72002 0.24604 0.0
C339 C 0.59819 0.63616 0.35859 0.0
C340 C 0.5877 0.73668 0.44008 0.0
C341 C 0.60253 0.65919 0.25445 0.0
C342 C 0.59092 0.67524 0.45237 0.0
C343 C 0.58239 0.86068 0.41274 0.0
C344 C 0.58991 0.81992 0.32068 0.0
C345 C 0.57744 0.8389 0.5175 0.0
C346 C 0.58012 0.77725 0.53125 0.0
Eu347 Eu 0.60677 0.76489 0.07502 0.0
N348 N 0.59544 0.84079 0.22062 0.0
C349 C 0.58034 0.92253 0.39784 0.0
C350 C 0.59304 0.90045 0.20391 0.0
C351 C 0.58563 0.9424 0.29279 0.0
H352 H 0.6072 0.62789 0.18017 0.0
H353 H 0.58389 0.98993 0.27986 0.0
H354 H 0.66178 0.89491 0.95558 0.0
H355 H 0.68131 0.53808 0.97046 0.0
H356 H 0.59654 0.91557 0.12119 0.0
H357 H 0.57467 0.95526 0.4667 0.0
H358 H 0.66597 0.62103 0.09068 0.0
H359 H 0.60027 0.58808 0.36584 0.0
H360 H 0.57169 0.86964 0.58924 0.0
H361 H 0.57641 0.76158 0.61339 0.0
H362 H 0.67631 0.92577 0.78339 0.0
H363 H 0.58774 0.65735 0.53332 0.0
H364 H 0.69516 0.55776 0.78678 0.0
N365 N 0.66785 0.80028 0.91155 0.0
C366 C 0.67689 0.75732 0.84267 0.0
C367 C 0.67638 0.87803 0.79788 0.0
C368 C 0.68557 0.77272 0.7446 0.0
C369 C 0.66799 0.86045 0.89411 0.0
C370 C 0.68503 0.83377 0.72163 0.0
N371 N 0.66959 0.68559 0.96992 0.0
C372 C 0.67125 0.62957 1.0077 0.0
C373 C 0.68709 0.65261 0.80302 0.0
C374 C 0.67763 0.69809 0.87186 0.0
C375 C 0.68807 0.59401 0.83754 0.0
C376 C 0.68024 0.58266 0.94096 0.0
H377 H 0.69157 0.8475 0.64732 0.0
H378 H 0.70136 0.73798 0.59799 0.0
H379 H 0.70275 0.63288 0.64932 0.0
O380 O 0.67803 0.75593 0.15407 0.0
O381 O 0.6442 0.76211 0.88519 0.0
O382 O 0.6164 0.76484 0.8838 0.0
O383 O 0.666 0.84367 0.19649 0.0
O384 O 0.6421 0.6819 0.11506 0.0
O385 O 0.61926 0.67398 1.00258 0.0
O386 O 0.5841 0.79643 1.0073 0.0
O387 O 0.62111 0.80009 0.25047 0.0
O388 O 0.64261 0.73686 0.23528 0.0
O389 O 0.58685 0.70164 0.03476 0.0
O390 O 0.61657 0.84831 1.00402 0.0
O391 O 0.6405 0.85927 0.10509 0.0
C392 C 0.63038 0.76204 0.82874 0.0
C393 C 0.69443 0.8447 0.19274 0.0
C394 C 0.72337 0.84985 0.22134 0.0
C395 C 0.72368 0.90348 0.16715 0.0
C396 C 0.6951 0.89886 0.1404 0.0
C397 C 0.70964 0.9278 0.12746 0.0
C398 C 0.70863 0.82051 0.23323 0.0
C399 C 0.63165 0.6485 0.04672 0.0
C400 C 0.67912 0.81299 0.20648 0.0
C401 C 0.69472 0.72721 0.67438 0.0
C402 C 0.69549 0.66732 0.70355 0.0
C403 C 0.63209 0.76992 0.30275 0.0
C404 C 0.56666 0.72129 0.89915 0.0
C405 C 0.53963 0.71237 0.81676 0.0
C406 C 0.5453 0.67026 0.71933 0.0
C407 C 0.57204 0.67962 0.8003 0.0
C408 C 0.55046 0.73791 0.90657 0.0
C409 C 0.56137 0.65418 0.71125 0.0
C410 C 0.62962 0.8795 0.03603 0.0
C411 C 0.57732 0.7426 1.00123 0.0
H412 H 0.73479 0.9271 0.1569 0.0
H413 H 0.68441 0.91895 0.10951 0.0
H414 H 0.71002 0.96945 0.08678 0.0
H415 H 0.70821 0.77843 0.27276 0.0
H416 H 0.53729 0.64995 0.64891 0.0
H417 H 0.58441 0.66579 0.79329 0.0
H418 H 0.54619 0.76906 0.98408 0.0
H419 H 0.56551 0.62127 0.63617 0.0
Eu420 Eu 0.40178 0.75496 1.00639 0.0
C421 C 0.34141 0.75765 0.71527 0.0
N422 N 0.34535 0.79988 0.81282 0.0
C423 C 0.33924 0.88295 0.70456 0.0
C424 C 0.33689 0.77706 0.60654 0.0
C425 C 0.34379 0.86188 0.81042 0.0
C426 C 0.33596 0.84046 0.60209 0.0
C427 C 0.33906 0.65056 0.62174 0.0
C428 C 0.34283 0.69493 0.72262 0.0
C429 C 0.33492 0.66985 0.51265 0.0
C430 C 0.33386 0.7329 0.50505 0.0
Eu431 Eu 0.35425 0.75963 0.98483 0.0
N432 N 0.34725 0.67725 0.8288 0.0
C433 C 0.33909 0.58802 0.63422 0.0
C434 C 0.34526 0.61694 0.84431 0.0
C435 C 0.34175 0.57133 0.74688 0.0
H436 H 0.34656 0.89483 0.88934 0.0
H437 H 0.34078 0.52343 0.7594 0.0
H438 H 0.41247 0.61482 0.06015 0.0
H439 H 0.40868 0.98121 0.29314 0.0
H440 H 0.34599 0.60334 0.93191 0.0
H441 H 0.33627 0.55261 0.55898 0.0
H442 H 0.40551 0.91174 0.10266 0.0
H443 H 0.33857 0.93185 0.70076 0.0
H444 H 0.33226 0.63631 0.43407 0.0
H445 H 0.33059 0.74702 0.42038 0.0
H446 H 0.42269 0.56625 0.22937 0.0
H447 H 0.33296 0.85711 0.51957 0.0
H448 H 0.41437 0.93824 0.47887 0.0
N449 N 0.41143 0.70472 0.16198 0.0
C450 C 0.41475 0.74154 0.26791 0.0
C451 C 0.4204 0.61547 0.24148 0.0
C452 C 0.42012 0.71557 0.36745 0.0
C453 C 0.41453 0.64288 0.14623 0.0
C454 C 0.42306 0.65185 0.35286 0.0
N455 N 0.40651 0.82909 0.18084 0.0
C456 C 0.40662 0.89175 0.18355 0.0
C457 C 0.41434 0.84333 0.38917 0.0
C458 C 0.41176 0.80494 0.27845 0.0
C459 C 0.41246 0.90723 0.39546 0.0
C460 C 0.40908 0.93163 0.29123 0.0
H461 H 0.42727 0.63024 0.42719 0.0
H462 H 0.42563 0.73393 0.5569 0.0
H463 H 0.42035 0.846 0.57569 0.0
O464 O 0.42422 0.80296 0.99626 0.0
O465 O 0.38701 0.72633 0.162 0.0
O466 O 0.36429 0.78479 0.17842 0.0
O467 O 0.4231 0.70651 0.92422 0.0
O468 O 0.39035 0.84329 0.95859 0.0
O469 O 0.36646 0.84973 0.0608 0.0
O470 O 0.33312 0.72104 0.06272 0.0
O471 O 0.36872 0.78406 0.82395 0.0
O472 O 0.39275 0.73358 0.80986 0.0
O473 O 0.33249 0.81317 0.02005 0.0
O474 O 0.36574 0.66988 0.02425 0.0
O475 O 0.39051 0.66197 0.93366 0.0
C476 C 0.37587 0.75682 0.22896 0.0
C477 C 0.44407 0.76702 0.85645 0.0
C478 C 0.47205 0.77054 0.79772 0.0
C479 C 0.46766 0.80526 0.70805 0.0
C480 C 0.44006 0.80257 0.76772 0.0
C481 C 0.4518 0.82109 0.69332 0.0
C482 C 0.4601 0.75055 0.87066 0.0
C483 C 0.37801 0.87537 1.00707 0.0
C484 C 0.43214 0.75514 0.94585 0.0
C485 C 0.42196 0.7535 0.47872 0.0
C486 C 0.41895 0.81707 0.4896 0.0
C487 C 0.38025 0.75543 0.75852 0.0
C488 C 0.31402 0.79129 0.16515 0.0
C489 C 0.28732 0.79432 0.2539 0.0
C490 C 0.29256 0.84153 0.34448 0.0
C491 C 0.31895 0.83758 0.2579 0.0
C492 C 0.29821 0.76963 0.16369 0.0
C493 C 0.30822 0.86272 0.34639 0.0
C494 C 0.37809 0.63672 0.97874 0.0
C495 C 0.32458 0.7705 0.06223 0.0
H496 H 0.47655 0.82055 0.64974 0.0
H497 H 0.4279 0.8172 0.75852 0.0
H498 H 0.44868 0.84892 0.62543 0.0
H499 H 0.46336 0.72477 0.94172 0.0
H500 H 0.28444 0.86334 0.41252 0.0
H501 H 0.33097 0.85551 0.2599 0.0
H502 H 0.29433 0.73431 0.09136 0.0
H503 H 0.31194 0.89981 0.4156 0.0
Eu504 Eu 0.6537 0.25237 0.99843 0.0
C505 C 0.59549 0.2649 0.70814 0.0
N506 N 0.59861 0.30496 0.81005 0.0
C507 C 0.59208 0.39107 0.7117 0.0
C508 C 0.59153 0.28712 0.60122 0.0
C509 C 0.59628 0.36699 0.81519 0.0
C510 C 0.58993 0.35104 0.60377 0.0
C511 C 0.59393 0.15936 0.60485 0.0
C512 C 0.59684 0.20167 0.71028 0.0
C513 C 0.59075 0.18147 0.49675 0.0
C514 C 0.58959 0.2452 0.49513 0.0
Eu515 Eu 0.60641 0.26123 0.97873 0.0
N516 N 0.60042 0.18158 0.81578 0.0
C517 C 0.59402 0.0961 0.61162 0.0
C518 C 0.59865 0.12043 0.82509 0.0
C519 C 0.59596 0.07668 0.72288 0.0
H520 H 0.59799 0.39776 0.89878 0.0
H521 H 0.59514 0.02807 0.73035 0.0
H522 H 0.66375 0.10052 0.93052 0.0
H523 H 0.67245 0.41404 0.39142 0.0
H524 H 0.59896 0.1049 0.9112 0.0
H525 H 0.5919 0.06214 0.53262 0.0
H526 H 0.66406 0.3826 0.17978 0.0
H527 H 0.59062 0.44042 0.715 0.0
H528 H 0.58897 0.14963 0.41426 0.0
H529 H 0.5872 0.26192 0.41167 0.0
H530 H 0.6709 0.01481 0.03941 0.0
H531 H 0.58692 0.36985 0.52323 0.0
H532 H 0.67676 0.33434 0.5219 0.0
N533 N 0.66214 0.1671 0.08882 0.0
C534 C 0.66593 0.18056 0.20729 0.0
C535 C 0.6693 0.06099 0.08814 0.0
C536 C 0.67057 0.13347 0.27256 0.0
C537 C 0.66499 0.10944 0.02703 0.0
C538 C 0.67171 0.07276 0.21208 0.0
N539 N 0.663 0.2871 0.19443 0.0
C540 C 0.66599 0.34793 0.23693 0.0
C541 C 0.67142 0.25789 0.38147 0.0
C542 C 0.66656 0.24221 0.26116 0.0
C543 C 0.67311 0.32051 0.42952 0.0
C544 C 0.6707 0.36566 0.35616 0.0
H545 H 0.67517 0.03525 0.25908 0.0
H546 H 0.67767 0.11304 0.44695 0.0
H547 H 0.67813 0.22224 0.54221 0.0
O548 O 0.6697 0.29708 0.88228 0.0
O549 O 0.63901 0.28974 0.1701 0.0
O550 O 0.6156 0.2368 0.16148 0.0
O551 O 0.67927 0.23684 0.99658 0.0
O552 O 0.6443 0.34928 0.98669 0.0
O553 O 0.6177 0.35446 0.04928 0.0
O554 O 0.58132 0.23635 0.96912 0.0
O555 O 0.62275 0.29154 0.8304 0.0
O556 O 0.64325 0.2232 0.80804 0.0
O557 O 0.58856 0.31619 0.09198 0.0
O558 O 0.61686 0.17411 0.03328 0.0
O559 O 0.63989 0.16495 0.92353 0.0
C560 C 0.62809 0.26042 0.2244 0.0
C561 C 0.69384 0.24283 0.8228 0.0
C562 C 0.72105 0.23605 0.74269 0.0
C563 C 0.71675 0.18133 0.66696 0.0
C564 C 0.68996 0.18797 0.74702 0.0
C565 C 0.70134 0.1577 0.66916 0.0
C566 C 0.7094 0.26662 0.8207 0.0
C567 C 0.63119 0.38016 0.02229 0.0
C568 C 0.68248 0.27068 0.91539 0.0
C569 C 0.67449 0.14875 0.39464 0.0
C570 C 0.67482 0.2108 0.44893 0.0
C571 C 0.6327 0.25649 0.75889 0.0
C572 C 0.56472 0.26438 0.1353 0.0
C573 C 0.53701 0.26485 0.20413 0.0
C574 C 0.54152 0.22559 0.28609 0.0
C575 C 0.56865 0.22307 0.21384 0.0
C576 C 0.54886 0.285 0.13011 0.0
C577 C 0.55715 0.20451 0.28989 0.0
C578 C 0.6286 0.14044 0.98182 0.0
C579 C 0.57666 0.28123 0.05018 0.0
H580 H 0.72543 0.15563 0.60847 0.0
H581 H 0.67819 0.16808 0.74947 0.0
H582 H 0.6983 0.11504 0.61172 0.0
H583 H 0.71253 0.3082 0.88149 0.0
H584 H 0.53297 0.21107 0.34772 0.0
H585 H 0.58062 0.20499 0.21577 0.0
H586 H 0.54568 0.31516 0.06613 0.0
H587 H 0.56031 0.17326 0.35164 0.0
Eu588 Eu 0.4048 0.25076 1.00157 0.0
C589 C 0.34105 0.13993 0.11756 0.0
N590 N 0.34583 0.15406 1.00999 0.0
C591 C 0.33723 0.05414 0.91275 0.0
C592 C 0.33503 0.08073 0.1276 0.0
C593 C 0.34301 0.11342 0.9071 0.0
C594 C 0.3336 0.03708 0.02372 0.0
C595 C 0.33438 0.17521 0.32585 0.0
C596 C 0.34071 0.18651 0.21564 0.0
C597 C 0.32964 0.1151 0.33883 0.0
C598 C 0.32992 0.06794 0.23969 0.0
Eu599 Eu 0.3564 0.25559 1.01339 0.0
N600 N 0.3449 0.24446 0.19962 0.0
C601 C 0.33206 0.22542 0.41714 0.0
C602 C 0.34114 0.29414 0.28378 0.0
C603 C 0.33495 0.28533 0.39474 0.0
H604 H 0.34607 0.12553 0.82075 0.0
H605 H 0.33254 0.32462 0.46311 0.0
H606 H 0.4165 0.33861 0.80139 0.0
H607 H 0.42651 0.02056 0.05712 0.0
H608 H 0.34344 0.34053 0.26609 0.0
H609 H 0.32732 0.21887 0.50295 0.0
H610 H 0.41491 0.12362 0.12337 0.0
H611 H 0.33554 0.02182 0.83137 0.0
H612 H 0.32503 0.10524 0.42341 0.0
H613 H 0.32556 0.0224 0.24954 0.0
H614 H 0.43049 0.327 0.60577 0.0
H615 H 0.32908 0.9911 0.02763 0.0
H616 H 0.43734 0.99422 0.85174 0.0
N617 N 0.41879 0.24375 0.81846 0.0
C618 C 0.42526 0.18821 0.77424 0.0
C619 C 0.42904 0.28753 0.65193 0.0
C620 C 0.43346 0.17948 0.66398 0.0
C621 C 0.42116 0.29402 0.7623 0.0
C622 C 0.43504 0.22979 0.60172 0.0
N623 N 0.4177 0.15337 0.95333 0.0
C624 C 0.41916 0.11209 0.03222 0.0
C625 C 0.43175 0.08368 0.80288 0.0
C626 C 0.42448 0.14121 0.84309 0.0
C627 C 0.43196 0.03911 0.8795 0.0
C628 C 0.42588 0.05383 0.99552 0.0
H629 H 0.44117 0.22489 0.51638 0.0
H630 H 0.44618 0.1134 0.53536 0.0
H631 H 0.44461 0.0293 0.6568 0.0
O632 O 0.42989 0.25684 0.05171 0.0
O633 O 0.39307 0.24483 0.81583 0.0
O634 O 0.36547 0.25784 0.82194 0.0
O635 O 0.41389 0.33265 0.12159 0.0
O636 O 0.39093 0.17277 0.0628 0.0
O637 O 0.37055 0.16984 0.93169 0.0
O638 O 0.34349 0.30965 0.89516 0.0
O639 O 0.37055 0.29237 0.18749 0.0
O640 O 0.39307 0.23248 0.17603 0.0
O641 O 0.33074 0.27174 0.02991 0.0
O642 O 0.36965 0.34539 0.07507 0.0
O643 O 0.39217 0.33736 0.95801 0.0
C644 C 0.37918 0.25121 0.76373 0.0
C645 C 0.44212 0.34356 0.18055 0.0
C646 C 0.47082 0.35105 0.22381 0.0
C647 C 0.46787 0.40534 0.30519 0.0
C648 C 0.43966 0.39791 0.26209 0.0
C649 C 0.45246 0.42852 0.32363 0.0
C650 C 0.45778 0.32063 0.16091 0.0
C651 C 0.38033 0.14111 0.99496 0.0
C652 C 0.42838 0.31085 0.1169 0.0
C653 C 0.44005 0.12135 0.62078 0.0
C654 C 0.43912 0.07343 0.68983 0.0
C655 C 0.38161 0.26269 0.24021 0.0
C656 C 0.31765 0.26942 0.84654 0.0
C657 C 0.29014 0.2543 0.77491 0.0
C658 C 0.29519 0.20277 0.69362 0.0
C659 C 0.32233 0.21949 0.76051 0.0
C660 C 0.30144 0.28678 0.85396 0.0
C661 C 0.31111 0.18545 0.68717 0.0
C662 C 0.38053 0.37049 1.01377 0.0
C663 C 0.32949 0.2981 0.93537 0.0
H664 H 0.47749 0.42958 0.35622 0.0
H665 H 0.42782 0.41667 0.27883 0.0
H666 H 0.45042 0.47027 0.38678 0.0
H667 H 0.45982 0.27961 0.09578 0.0
H668 H 0.28675 0.17545 0.63522 0.0
H669 H 0.33468 0.20619 0.75134 0.0
H670 H 0.29768 0.32517 0.92035 0.0
H671 H 0.31481 0.14563 0.62429 0.0
C672 C 0.24768 0.28902 0.88443 0.0
C673 C 0.23928 0.29291 0.77747 0.0
C674 C 0.2642 0.27862 0.88408 0.0
C675 C 0.27298 0.27186 0.77677 0.0
H676 H 0.24138 0.29317 0.96898 0.0
H677 H 0.27005 0.27422 0.96789 0.0
S678 S 0.25706 0.28543 0.47476 0.0
N679 N 0.24133 0.29405 0.56303 0.0
N680 N 0.27222 0.27464 0.56222 0.0
C681 C 0.2648 0.27757 0.66993 0.0
C682 C 0.24802 0.28794 0.67026 0.0
C683 C 0.74573 0.27585 0.85565 0.0
C684 C 0.73788 0.25871 0.74525 0.0
C685 C 0.7616 0.29608 0.86083 0.0
C686 C 0.77039 0.30004 0.75589 0.0
H687 H 0.7396 0.27309 0.93907 0.0
H688 H 0.76705 0.30902 0.94814 0.0
S689 S 0.75526 0.2634 0.44411 0.0
N690 N 0.74007 0.24888 0.52807 0.0
N691 N 0.76987 0.28652 0.53822 0.0
C692 C 0.76274 0.28276 0.64486 0.0
C693 C 0.74653 0.26231 0.63947 0.0
C694 C 0.26148 0.76724 0.14396 0.0
C695 C 0.27034 0.77355 0.25132 0.0
C696 C 0.24526 0.75117 0.14134 0.0
C697 C 0.23721 0.74132 0.24614 0.0
H698 H 0.26702 0.77597 0.06161 0.0
H699 H 0.23891 0.74721 0.05691 0.0
S700 S 0.2552 0.74541 0.54749 0.0
N701 N 0.26997 0.76357 0.46317 0.0
N702 N 0.23956 0.73476 0.45829 0.0
C703 C 0.24597 0.74622 0.35337 0.0
C704 C 0.26248 0.76196 0.35595 0.0
C705 C 0.75188 0.81615 0.18819 0.0
C706 C 0.73845 0.8244 0.26377 0.0
C707 C 0.76595 0.78932 0.22396 0.0
C708 C 0.76714 0.76988 0.33682 0.0
H709 H 0.75133 0.82856 0.09895 0.0
H710 H 0.77568 0.78113 0.16073 0.0
S711 S 0.73629 0.78907 0.57463 0.0
N712 N 0.72792 0.8166 0.46138 0.0
N713 N 0.75425 0.76626 0.52831 0.0
C714 C 0.7541 0.78075 0.41541 0.0
C715 C 0.7398 0.80785 0.37898 0.0
C716 C 0.13152 0.98612 0.64114 0.0
C717 C 0.13348 0.94139 0.53852 0.0
C718 C 0.1319 0.04964 0.6331 0.0
C719 C 0.13367 0.07034 0.52173 0.0
H720 H 0.13 0.97193 0.72829 0.0
H721 H 0.13057 0.0828 0.71426 0.0
S722 S 0.13854 0.97194 0.22625 0.0
N723 N 0.13729 0.92235 0.32244 0.0
N724 N 0.13696 0.0414 0.30687 0.0
C725 C 0.13531 0.02616 0.41848 0.0
C726 C 0.13548 0.96172 0.42705 0.0
C727 C 0.89022 0.45365 0.42778 0.0
C728 C 0.88251 0.42945 0.52147 0.0
C729 C 0.89047 0.5178 0.42372 0.0
C730 C 0.88322 0.56013 0.51414 0.0
H731 H 0.89563 0.42266 0.35483 0.0
H732 H 0.89587 0.53393 0.34724 0.0
S733 S 0.86303 0.52179 0.78519 0.0
N734 N 0.86839 0.45407 0.71074 0.0
N735 N 0.86918 0.57379 0.7039 0.0
C736 C 0.87604 0.53675 0.61019 0.0
C737 C 0.87561 0.47173 0.61378 0.0
C738 C 0.87043 0.97182 0.61755 0.0
C739 C 0.87196 0.929 0.51178 0.0
C740 C 0.87076 0.03579 0.61482 0.0
C741 C 0.87336 0.05936 0.50708 0.0
H742 H 0.86888 0.95574 0.70297 0.0
H743 H 0.86952 0.06708 0.69845 0.0
S744 S 0.87851 0.96643 0.20601 0.0
N745 N 0.87591 0.91443 0.29602 0.0
N746 N 0.87758 0.03464 0.29218 0.0
C747 C 0.87507 0.017 0.40091 0.0
C748 C 0.87408 0.95184 0.40294 0.0
C749 C 0.13132 0.52965 0.43446 0.0
C750 C 0.12859 0.57281 0.53811 0.0
C751 C 0.13109 0.46593 0.43865 0.0
C752 C 0.12904 0.44292 0.54719 0.0
H753 H 0.1335 0.54521 0.34929 0.0
H754 H 0.13328 0.43443 0.35716 0.0
S755 S 0.12027 0.53592 0.84231 0.0
N756 N 0.12206 0.58755 0.75057 0.0
N757 N 0.12361 0.46795 0.76007 0.0
C758 C 0.12626 0.48539 0.65137 0.0
C759 C 0.12554 0.55025 0.64624 0.0
C760 C 0.62825 0.54072 0.93368 0.0
C761 C 0.6319 0.57996 0.04125 0.0
C762 C 0.62829 0.47591 0.92758 0.0
C763 C 0.63154 0.44822 0.02963 0.0
H764 H 0.62554 0.56023 0.85338 0.0
H765 H 0.62566 0.44729 0.8427 0.0
S766 S 0.64071 0.5295 0.33407 0.0
N767 N 0.6385 0.58555 0.2527 0.0
N768 N 0.63788 0.46433 0.24142 0.0
C769 C 0.63495 0.48664 0.13766 0.0
C770 C 0.63531 0.55236 0.14343 0.0
C771 C 0.38088 0.96639 0.89672 0.0
C772 C 0.37756 0.94314 1.00385 0.0
C773 C 0.38118 0.03052 0.89322 0.0
C774 C 0.37877 0.07365 0.99768 0.0
H775 H 0.38321 0.93472 0.81495 0.0
H776 H 0.38379 0.04648 0.80909 0.0
S777 S 0.37005 0.03682 0.30107 0.0
N778 N 0.37148 0.96857 0.21595 0.0
N779 N 0.37322 0.08849 0.2113 0.0
C780 C 0.37563 0.05095 0.10533 0.0
C781 C 0.37467 0.98588 0.10786 0.0
C782 C 0.38953 0.4648 0.92675 0.0
C783 C 0.37983 0.43869 1.00799 0.0
C784 C 0.38893 0.52838 0.91792 0.0
C785 C 0.37858 0.56909 0.98969 0.0
H786 H 0.39761 0.43583 0.86824 0.0
H787 H 0.39657 0.5456 0.85331 0.0
S788 S 0.35132 0.52567 0.22262 0.0
N789 N 0.35995 0.46005 0.1654 0.0
N790 N 0.35884 0.5785 0.14913 0.0
C791 C 0.36896 0.54379 0.07256 0.0
C792 C 0.36958 0.4791 0.08156 0.0
C793 C 0.62369 0.05327 0.09728 0.0
C794 C 0.6288 0.07321 0.99084 0.0
C795 C 0.62477 0.99107 0.11335 0.0
C796 C 0.62977 0.94541 0.01965 0.0
H797 H 0.61872 0.08598 0.16873 0.0
H798 H 0.62123 0.97843 0.19859 0.0
S799 S 0.64076 0.97073 0.71254 0.0
N800 N 0.63749 0.04102 0.78546 0.0
N801 N 0.63755 0.92301 0.81013 0.0
C802 C 0.63363 0.96377 0.90899 0.0
C803 C 0.63354 0.0278 0.89544 0.0
C804 C 0.13462 0.20647 0.07246 0.0
C805 C 0.13038 0.25877 0.15702 0.0
C806 C 0.13566 0.20849 0.94639 0.0
C807 C 0.1331 0.2635 0.89698 0.0
H808 H 0.13699 0.16303 0.1038 0.0
H809 H 0.13863 0.1664 0.88695 0.0
S810 S 0.12123 0.41338 0.07529 0.0
N811 N 0.12268 0.36662 0.17659 0.0
N812 N 0.12586 0.37144 0.94542 0.0
C813 C 0.12894 0.31597 0.98022 0.0
C814 C 0.12725 0.31331 0.10762 0.0
C815 C 0.88735 0.28367 0.09798 0.0
C816 C 0.87881 0.23967 0.15187 0.0
C817 C 0.88628 0.28627 0.97315 0.0
C818 C 0.87692 0.24416 0.89464 0.0
H819 H 0.89465 0.31755 0.15324 0.0
H820 H 0.89274 0.32231 0.93823 0.0
S821 S 0.85295 0.11712 0.98852 0.0
N822 N 0.86102 0.1516 0.11475 0.0
N823 N 0.8592 0.15574 0.88284 0.0
C824 C 0.86843 0.19963 0.94771 0.0
C825 C 0.86937 0.19745 0.07481 0.0
C826 C 0.12503 0.79663 0.11235 0.0
C827 C 0.13248 0.74838 0.16222 0.0
C828 C 0.12457 0.79838 0.98686 0.0
C829 C 0.132 0.75285 0.90308 0.0
H830 H 0.11958 0.83422 0.17102 0.0
H831 H 0.11842 0.83629 0.95533 0.0
S832 S 0.15427 0.61814 0.98292 0.0
N833 N 0.14799 0.6544 0.11363 0.0
N834 N 0.14773 0.65892 0.8812 0.0
C835 C 0.13999 0.70538 0.95133 0.0
C836 C 0.14016 0.70296 0.07914 0.0
C837 C 0.88755 0.77356 0.9527 0.0
C838 C 0.87562 0.74178 0.87913 0.0
C839 C 0.88798 0.77454 0.07922 0.0
C840 C 0.87685 0.74187 0.13991 0.0
H841 H 0.89657 0.79902 0.91234 0.0
H842 H 0.89718 0.80142 0.12957 0.0
S843 S 0.84344 0.64907 0.98991 0.0
N844 N 0.8524 0.67645 0.87895 0.0
N845 N 0.8535 0.67603 0.11231 0.0
C846 C 0.86495 0.70946 0.06688 0.0
C847 C 0.86428 0.7099 0.93858 0.0
C848 C 0.62195 0.80764 0.51666 0.0
C849 C 0.63202 0.76879 0.43781 0.0
C850 C 0.62104 0.80388 0.6411 0.0
C851 C 0.63073 0.76305 0.69477 0.0
H852 H 0.6147 0.84171 0.4824 0.0
H853 H 0.61297 0.83456 0.69635 0.0
S854 S 0.66009 0.65421 0.53374 0.0
N855 N 0.6525 0.68959 0.42773 0.0
N856 N 0.65103 0.68402 0.65898 0.0
C857 C 0.64122 0.72552 0.61835 0.0
C858 C 0.6419 0.72828 0.49147 0.0
C859 C 0.37543 0.8092 0.57468 0.0
C860 C 0.37978 0.75552 0.62315 0.0
C861 C 0.37367 0.80918 0.44892 0.0
C862 C 0.37622 0.75545 0.36413 0.0
H863 H 0.37337 0.85197 0.63482 0.0
H864 H 0.37062 0.85209 0.41784 0.0
S865 S 0.38611 0.60091 0.4426 0.0
N866 N 0.38548 0.64613 0.57403 0.0
N867 N 0.38234 0.64586 0.34098 0.0
C868 C 0.3803 0.70132 0.41176 0.0
C869 C 0.38207 0.70142 0.53954 0.0
C870 C 0.62901 0.3136 0.44666 0.0
C871 C 0.62928 0.25893 0.36091 0.0
C872 C 0.63021 0.31269 0.57317 0.0
C873 C 0.63233 0.25724 0.62225 0.0
H874 H 0.62759 0.35776 0.4159 0.0
H875 H 0.62949 0.35619 0.63338 0.0
S876 S 0.63471 0.10121 0.43955 0.0
N877 N 0.6323 0.1477 0.33865 0.0
N878 N 0.635 0.1462 0.57123 0.0
C879 C 0.63309 0.20268 0.53748 0.0
C880 C 0.63144 0.20347 0.4093 0.0
C881 C 0.37254 0.30355 0.4554 0.0
C882 C 0.38098 0.25959 0.37416 0.0
C883 C 0.3715 0.29953 0.57973 0.0
C884 C 0.37928 0.25238 0.63003 0.0
H885 H 0.36683 0.34212 0.42319 0.0
H886 H 0.36492 0.33477 0.63753 0.0
S887 S 0.40317 0.12577 0.46013 0.0
N888 N 0.39747 0.1672 0.35725 0.0
N889 N 0.3956 0.16047 0.58789 0.0
C890 C 0.38793 0.20874 0.55068 0.0
C891 C 0.38883 0.2123 0.42432 0.0
C892 C 0.01705 0.18097 0.32628 0.0
C893 C 0.02142 0.1679 0.44022 0.0
C894 C 1.00098 0.18516 0.29361 0.0
C895 C 0.98855 0.17641 0.37335 0.0
H896 H 0.02609 0.18526 0.2598 0.0
H897 H 0.99827 0.1939 0.20385 0.0
S898 S 0.99373 0.1467 0.68685 0.0
N899 N 0.01202 0.15224 0.63703 0.0
N900 N 0.98199 0.15668 0.57419 0.0
C901 C 0.99282 0.16602 0.48952 0.0
C902 C 0.00916 0.16256 0.52312 0.0
C903 C 0.99719 0.83456 0.72152 0.0
C904 C 0.98604 0.82548 0.62706 0.0
C905 C 0.01364 0.83099 0.69908 0.0
C906 C 0.01954 0.81916 0.58117 0.0
H907 H 0.99316 0.84866 0.81285 0.0
H908 H 0.02175 0.84288 0.77368 0.0
S909 S 0.99535 0.78591 0.3036 0.0
N910 N 0.98207 0.79866 0.41243 0.0
N911 N 0.01292 0.79275 0.36981 0.0
C912 C 0.0085 0.80554 0.48682 0.0
C913 C 0.99177 0.8085 0.50984 0.0
C914 C 0.51079 0.68148 0.80977 0.0
C915 C 0.52239 0.72853 0.82379 0.0
C916 C 0.49448 0.69538 0.80662 0.0
C917 C 0.48917 0.75682 0.81532 0.0
H918 H 0.51436 0.63342 0.7997 0.0
H919 H 0.486 0.6577 0.79299 0.0
S920 S 0.51458 0.89703 0.85811 0.0
N921 N 0.5273 0.83911 0.85071 0.0
N922 N 0.49676 0.86521 0.84407 0.0
C923 C 0.50061 0.8043 0.83243 0.0
C924 C 0.51718 0.79019 0.837 0.0
C925 C 0.50031 0.3677 0.20078 0.0
C926 C 0.4875 0.32673 0.20754 0.0
C927 C 0.51618 0.34719 0.19589 0.0
C928 C 0.52 0.28474 0.19772 0.0
H929 H 0.49807 0.41642 0.20075 0.0
H930 H 0.52555 0.38098 0.19445 0.0
S931 S 0.49098 0.15747 0.20584 0.0
N932 N 0.47986 0.21997 0.21167 0.0
N933 N 0.5095 0.18115 0.1974 0.0
C934 C 0.50729 0.24282 0.19965 0.0
C935 C 0.49114 0.26378 0.2055 0.0
loop_
_geom_bond_atom_site_label_1
_geom_bond_atom_site_label_2
_geom_bond_distance
_geom_bond_site_symmetry_2
_ccdc_geom_bond_type
Eu0 N29 2.600 . S
Eu0 N35 2.562 . S
Eu0 O44 2.462 . S
Eu0 O45 2.373 . S
Eu0 O47 2.432 . S
Eu0 O48 2.291 . S
Eu0 O52 2.335 . S
Eu0 O55 2.372 . S
Eu0 C64 2.787 . S
C1 N2 1.365 . S
C1 C4 1.405 . S
C1 C8 1.448 . S
N2 C1 1.365 . S
N2 C5 1.319 . S
N2 Eu11 2.600 . S
C3 C5 1.397 . S
C3 C6 1.367 . S
C3 H23 0.931 . S
C4 C1 1.405 . S
C4 C6 1.403 . S
C4 C10 1.439 . S
C5 N2 1.319 . S
C5 C3 1.397 . S
C5 H16 0.930 . S
C6 C3 1.367 . S
C6 C4 1.403 . S
C6 H27 0.929 . S
C7 C8 1.430 . S
C7 C9 1.387 . S
C7 C13 1.404 . S
C8 C1 1.448 . S
C8 C7 1.430 . S
C8 N12 1.351 . S
C9 C7 1.387 . S
C9 C10 1.374 . S
C9 H24 0.931 1_556 S
C10 C4 1.439 . S
C10 C9 1.374 . S
C10 H25 0.931 . S
Eu11 N2 2.600 . S
Eu11 N12 2.562 . S
Eu11 O46 2.335 . S
Eu11 O49 2.372 . S
Eu11 O50 2.462 . S
Eu11 O51 2.373 . S
Eu11 O53 2.432 . S
Eu11 O54 2.291 . S
Eu11 C75 2.787 . S
N12 C8 1.351 . S
N12 Eu11 2.562 . S
N12 C14 1.325 . S
C13 C7 1.404 . S
C13 C15 1.366 . S
C13 H21 0.930 . S
C14 N12 1.325 . S
C14 C15 1.416 . S
C14 H20 0.929 . S
C15 C13 1.366 . S
C15 C14 1.416 . S
C15 H17 0.930 . S
H16 C5 0.930 . S
H17 C15 0.930 . S
H18 C33 0.930 . S
H19 C40 0.930 . S
H20 C14 0.929 . S
H21 C13 0.930 . S
H22 C36 0.929 . S
H23 C3 0.931 . S
H24 C9 0.931 1_554 S
H25 C10 0.931 . S
H26 C31 0.931 . S
H27 C6 0.929 . S
H28 C39 0.930 1_556 S
N29 Eu0 2.600 . S
N29 C30 1.365 . S
N29 C33 1.319 . S
C30 N29 1.365 . S
C30 C32 1.405 . S
C30 C38 1.448 . S
C31 H26 0.931 . S
C31 C33 1.397 . S
C31 C34 1.367 . S
C32 C30 1.405 . S
C32 C34 1.403 . S
C32 C65 1.439 . S
C33 H18 0.930 . S
C33 N29 1.319 . S
C33 C31 1.397 . S
C34 C31 1.367 . S
C34 C32 1.403 . S
C34 H41 0.929 . S
N35 Eu0 2.562 . S
N35 C36 1.325 . S
N35 C38 1.351 . S
C36 H22 0.929 . S
C36 N35 1.325 . S
C36 C40 1.416 . S
C37 C38 1.430 . S
C37 C39 1.404 . S
C37 C66 1.393 . S
C38 C30 1.448 . S
C38 N35 1.351 . S
C38 C37 1.430 . S
C39 H28 0.930 1_554 S
C39 C37 1.404 . S
C39 C40 1.366 . S
C40 H19 0.930 . S
C40 C36 1.416 . S
C40 C39 1.366 . S
H41 C34 0.929 . S
H42 C65 0.931 1_556 S
H43 C66 0.924 1_556 S
O44 Eu0 2.462 . S
O44 C64 1.252 . S
O45 Eu0 2.373 . S
O45 C56 1.249 . S
O46 Eu11 2.335 . S
O46 C56 1.264 . S
O47 Eu0 2.432 . S
O47 C64 1.268 . S
O48 Eu0 2.291 . S
O48 C63 1.255 . S
O49 Eu11 2.372 . S
O49 C63 1.257 . S
O50 Eu11 2.462 . S
O50 C75 1.252 . S
O51 Eu11 2.373 . S
O51 C67 1.249 . S
O52 Eu0 2.335 . S
O52 C67 1.264 . S
O53 Eu11 2.432 . S
O53 C75 1.268 . S
O54 Eu11 2.291 . S
O54 C74 1.255 . S
O55 Eu0 2.372 . S
O55 C74 1.257 . S
C56 O45 1.249 . S
C56 O46 1.264 . S
C57 C60 1.382 . S
C57 C62 1.390 . S
C57 C64 1.506 . S
C58 C59 1.398 . S
C58 C62 1.392 . S
C59 C58 1.398 . S
C59 C61 1.372 . S
C59 H76 0.931 . S
C60 C57 1.382 . S
C60 C61 1.390 . S
C60 H77 0.931 . S
C61 C59 1.372 . S
C61 C60 1.390 . S
C61 H78 0.929 . S
C62 C57 1.390 . S
C62 C58 1.392 . S
C62 H79 0.930 . S
C63 O48 1.255 . S
C63 O49 1.257 . S
C64 Eu0 2.787 . S
C64 O44 1.252 . S
C64 O47 1.268 . S
C64 C57 1.506 . S
C65 C32 1.439 . S
C65 H42 0.931 1_554 S
C65 C66 1.375 . S
C66 C37 1.393 . S
C66 H43 0.924 1_554 S
C66 C65 1.375 . S
C67 O51 1.249 . S
C67 O52 1.264 . S
C68 C71 1.382 . S
C68 C72 1.390 . S
C68 C75 1.506 . S
C69 C70 1.398 . S
C69 C72 1.392 . S
C70 C69 1.398 . S
C70 C73 1.372 . S
C70 H80 0.931 . S
C71 C68 1.382 . S
C71 C73 1.390 . S
C71 H81 0.931 . S
C72 C68 1.390 . S
C72 C69 1.392 . S
C72 H82 0.930 . S
C73 C70 1.372 . S
C73 C71 1.390 . S
C73 H83 0.929 . S
C74 O54 1.255 . S
C74 O55 1.257 . S
C75 Eu11 2.787 . S
C75 O50 1.252 . S
C75 O53 1.268 . S
C75 C68 1.506 . S
H76 C59 0.931 . S
H77 C60 0.931 . S
H78 C61 0.929 . S
H79 C62 0.930 . S
H80 C70 0.931 . S
H81 C71 0.931 . S
H82 C72 0.930 . S
H83 C73 0.929 . S
Eu84 N113 2.600 . S
Eu84 N119 2.562 . S
Eu84 O128 2.462 . S
Eu84 O129 2.373 . S
Eu84 O131 2.432 . S
Eu84 O132 2.291 . S
Eu84 O136 2.335 . S
Eu84 O139 2.372 . S
Eu84 C148 2.787 . S
C85 N86 1.365 . S
C85 C88 1.405 . S
C85 C92 1.448 . S
N86 C85 1.365 . S
N86 C89 1.319 . S
N86 Eu95 2.600 . S
C87 C89 1.397 . S
C87 C90 1.367 . S
C87 H107 0.931 . S
C88 C85 1.405 . S
C88 C90 1.403 . S
C88 C94 1.439 . S
C89 N86 1.319 . S
C89 C87 1.397 . S
C89 H100 0.930 . S
C90 C87 1.367 . S
C90 C88 1.403 . S
C90 H111 0.929 . S
C91 C92 1.430 . S
C91 C93 1.393 . S
C91 C97 1.404 . S
C92 C85 1.448 . S
C92 C91 1.430 . S
C92 N96 1.351 . S
C93 C91 1.393 . S
C93 C94 1.375 . S
C93 H108 0.924 1_554 S
C94 C88 1.439 . S
C94 C93 1.375 . S
C94 H109 0.931 1_554 S
Eu95 N86 2.600 . S
Eu95 N96 2.562 . S
Eu95 O130 2.335 . S
Eu95 O133 2.372 . S
Eu95 O134 2.462 . S
Eu95 O135 2.373 . S
Eu95 O137 2.432 . S
Eu95 O138 2.291 . S
Eu95 C159 2.787 . S
N96 C92 1.351 . S
N96 Eu95 2.562 . S
N96 C98 1.325 . S
C97 C91 1.404 . S
C97 C99 1.366 . S
C97 H105 0.930 1_554 S
C98 N96 1.325 . S
C98 C99 1.416 . S
C98 H104 0.929 . S
C99 C97 1.366 . S
C99 C98 1.416 . S
C99 H101 0.930 . S
H100 C89 0.930 . S
H101 C99 0.930 . S
H102 C117 0.930 . S
H103 C124 0.930 . S
H104 C98 0.929 . S
H105 C97 0.930 1_556 S
H106 C120 0.929 . S
H107 C87 0.931 . S
H108 C93 0.924 1_556 S
H109 C94 0.931 1_556 S
H110 C115 0.931 . S
H111 C90 0.929 . S
H112 C123 0.930 . S
N113 Eu84 2.600 . S
N113 C114 1.365 . S
N113 C117 1.319 . S
C114 N113 1.365 . S
C114 C116 1.405 . S
C114 C122 1.448 . S
C115 H110 0.931 . S
C115 C117 1.397 . S
C115 C118 1.367 . S
C116 C114 1.405 . S
C116 C118 1.403 . S
C116 C149 1.439 . S
C117 H102 0.930 . S
C117 N113 1.319 . S
C117 C115 1.397 . S
C118 C115 1.367 . S
C118 C116 1.403 . S
C118 H125 0.929 . S
N119 Eu84 2.562 . S
N119 C120 1.325 . S
N119 C122 1.351 . S
C120 H106 0.929 . S
C120 N119 1.325 . S
C120 C124 1.416 . S
C121 C122 1.430 . S
C121 C123 1.404 . S
C121 C150 1.387 . S
C122 C114 1.448 . S
C122 N119 1.351 . S
C122 C121 1.430 . S
C123 H112 0.930 . S
C123 C121 1.404 . S
C123 C124 1.366 . S
C124 H103 0.930 . S
C124 C120 1.416 . S
C124 C123 1.366 . S
H125 C118 0.929 . S
H126 C149 0.931 . S
H127 C150 0.931 1_554 S
O128 Eu84 2.462 . S
O128 C148 1.252 . S
O129 Eu84 2.373 . S
O129 C140 1.249 . S
O130 Eu95 2.335 . S
O130 C140 1.264 . S
O131 Eu84 2.432 . S
O131 C148 1.268 . S
O132 Eu84 2.291 . S
O132 C147 1.255 . S
O133 Eu95 2.372 . S
O133 C147 1.257 . S
O134 Eu95 2.462 . S
O134 C159 1.252 . S
O135 Eu95 2.373 . S
O135 C151 1.249 . S
O136 Eu84 2.335 . S
O136 C151 1.264 . S
O137 Eu95 2.432 . S
O137 C159 1.268 . S
O138 Eu95 2.291 . S
O138 C158 1.255 . S
O139 Eu84 2.372 . S
O139 C158 1.257 . S
C140 O129 1.249 . S
C140 O130 1.264 . S
C141 C144 1.382 . S
C141 C146 1.390 . S
C141 C148 1.506 . S
C142 C143 1.398 . S
C142 C146 1.392 . S
C143 C142 1.398 . S
C143 C145 1.372 . S
C143 H160 0.931 . S
C144 C141 1.382 . S
C144 C145 1.390 . S
C144 H161 0.931 . S
C145 C143 1.372 . S
C145 C144 1.390 . S
C145 H162 0.929 . S
C146 C141 1.390 . S
C146 C142 1.392 . S
C146 H163 0.930 . S
C147 O132 1.255 . S
C147 O133 1.257 . S
C148 Eu84 2.787 . S
C148 O128 1.252 . S
C148 O131 1.268 . S
C148 C141 1.506 . S
C149 C116 1.439 . S
C149 H126 0.931 . S
C149 C150 1.374 . S
C150 C121 1.387 . S
C150 H127 0.931 1_556 S
C150 C149 1.374 . S
C151 O135 1.249 . S
C151 O136 1.264 . S
C152 C155 1.382 . S
C152 C156 1.390 . S
C152 C159 1.506 . S
C153 C154 1.398 . S
C153 C156 1.392 . S
C154 C153 1.398 . S
C154 C157 1.372 . S
C154 H164 0.931 . S
C155 C152 1.382 . S
C155 C157 1.390 . S
C155 H165 0.931 . S
C156 C152 1.390 . S
C156 C153 1.392 . S
C156 H166 0.930 . S
C157 C154 1.372 . S
C157 C155 1.390 . S
C157 H167 0.929 . S
C158 O138 1.255 . S
C158 O139 1.257 . S
C159 Eu95 2.787 . S
C159 O134 1.252 . S
C159 O137 1.268 . S
C159 C152 1.506 . S
H160 C143 0.931 . S
H161 C144 0.931 . S
H162 C145 0.929 . S
H163 C146 0.930 . S
H164 C154 0.931 . S
H165 C155 0.931 . S
H166 C156 0.930 . S
H167 C157 0.929 . S
Eu168 N197 2.600 . S
Eu168 N203 2.562 . S
Eu168 O212 2.462 . S
Eu168 O213 2.373 . S
Eu168 O215 2.432 . S
Eu168 O216 2.291 . S
Eu168 O220 2.335 . S
Eu168 O223 2.372 . S
Eu168 C232 2.787 . S
C169 N170 1.365 . S
C169 C172 1.405 . S
C169 C176 1.448 . S
N170 C169 1.365 . S
N170 C173 1.319 . S
N170 Eu179 2.600 . S
C171 C173 1.397 . S
C171 C174 1.367 . S
C171 H191 0.931 . S
C172 C169 1.405 . S
C172 C174 1.403 . S
C172 C178 1.439 . S
C173 N170 1.319 . S
C173 C171 1.397 . S
C173 H184 0.930 . S
C174 C171 1.367 . S
C174 C172 1.403 . S
C174 H195 0.929 . S
C175 C176 1.430 . S
C175 C177 1.387 . S
C175 C181 1.404 . S
C176 C169 1.448 . S
C176 C175 1.430 . S
C176 N180 1.351 . S
C177 C175 1.387 . S
C177 C178 1.374 . S
C177 H192 0.931 1_554 S
C178 C172 1.439 . S
C178 C177 1.374 . S
C178 H193 0.931 . S
Eu179 N170 2.600 . S
Eu179 N180 2.562 . S
Eu179 O214 2.335 . S
Eu179 O217 2.372 . S
Eu179 O218 2.462 . S
Eu179 O219 2.373 . S
Eu179 O221 2.432 . S
Eu179 O222 2.291 . S
Eu179 C243 2.787 . S
N180 C176 1.351 . S
N180 Eu179 2.562 . S
N180 C182 1.325 . S
C181 C175 1.404 . S
C181 C183 1.366 . S
C181 H189 0.930 . S
C182 N180 1.325 . S
C182 C183 1.416 . S
C182 H188 0.929 . S
C183 C181 1.366 . S
C183 C182 1.416 . S
C183 H185 0.930 . S
H184 C173 0.930 . S
H185 C183 0.930 . S
H186 C201 0.930 . S
H187 C208 0.930 . S
H188 C182 0.929 . S
H189 C181 0.930 . S
H190 C204 0.929 . S
H191 C171 0.931 . S
H192 C177 0.931 1_556 S
H193 C178 0.931 . S
H194 C199 0.931 . S
H195 C174 0.929 . S
H196 C207 0.930 1_554 S
N197 Eu168 2.600 . S
N197 C198 1.365 . S
N197 C201 1.319 . S
C198 N197 1.365 . S
C198 C200 1.405 . S
C198 C206 1.448 . S
C199 H194 0.931 . S
C199 C201 1.397 . S
C199 C202 1.367 . S
C200 C198 1.405 . S
C200 C202 1.403 . S
C200 C233 1.439 . S
C201 H186 0.930 . S
C201 N197 1.319 . S
C201 C199 1.397 . S
C202 C199 1.367 . S
C202 C200 1.403 . S
C202 H209 0.929 . S
N203 Eu168 2.562 . S
N203 C204 1.325 . S
N203 C206 1.351 . S
C204 H190 0.929 . S
C204 N203 1.325 . S
C204 C208 1.416 . S
C205 C206 1.430 . S
C205 C207 1.404 . S
C205 C234 1.393 . S
C206 C198 1.448 . S
C206 N203 1.351 . S
C206 C205 1.430 . S
C207 H196 0.930 1_556 S
C207 C205 1.404 . S
C207 C208 1.366 . S
C208 H187 0.930 . S
C208 C204 1.416 . S
C208 C207 1.366 . S
H209 C202 0.929 . S
H210 C233 0.931 1_554 S
H211 C234 0.924 1_554 S
O212 Eu168 2.462 . S
O212 C232 1.252 . S
O213 Eu168 2.373 . S
O213 C224 1.249 . S
O214 Eu179 2.335 . S
O214 C224 1.264 . S
O215 Eu168 2.432 . S
O215 C232 1.268 . S
O216 Eu168 2.291 . S
O216 C231 1.255 . S
O217 Eu179 2.372 . S
O217 C231 1.257 . S
O218 Eu179 2.462 . S
O218 C243 1.252 . S
O219 Eu179 2.373 . S
O219 C235 1.249 . S
O220 Eu168 2.335 . S
O220 C235 1.264 . S
O221 Eu179 2.432 . S
O221 C243 1.268 . S
O222 Eu179 2.291 . S
O222 C242 1.255 . S
O223 Eu168 2.372 . S
O223 C242 1.257 . S
C224 O213 1.249 . S
C224 O214 1.264 . S
C225 C228 1.382 . S
C225 C230 1.390 . S
C225 C232 1.506 . S
C226 C227 1.398 . S
C226 C230 1.392 . S
C227 C226 1.398 . S
C227 C229 1.372 . S
C227 H244 0.931 . S
C228 C225 1.382 . S
C228 C229 1.390 . S
C228 H245 0.931 . S
C229 C227 1.372 . S
C229 C228 1.390 . S
C229 H246 0.929 . S
C230 C225 1.390 . S
C230 C226 1.392 . S
C230 H247 0.930 . S
C231 O216 1.255 . S
C231 O217 1.257 . S
C232 Eu168 2.787 . S
C232 O212 1.252 . S
C232 O215 1.268 . S
C232 C225 1.506 . S
C233 C200 1.439 . S
C233 H210 0.931 1_556 S
C233 C234 1.375 . S
C234 C205 1.393 . S
C234 H211 0.924 1_556 S
C234 C233 1.375 . S
C235 O219 1.249 . S
C235 O220 1.264 . S
C236 C239 1.382 . S
C236 C240 1.390 . S
C236 C243 1.506 . S
C237 C238 1.398 . S
C237 C240 1.392 . S
C238 C237 1.398 . S
C238 C241 1.372 . S
C238 H248 0.931 . S
C239 C236 1.382 . S
C239 C241 1.390 . S
C239 H249 0.931 . S
C240 C236 1.390 . S
C240 C237 1.392 . S
C240 H250 0.930 . S
C241 C238 1.372 . S
C241 C239 1.390 . S
C241 H251 0.929 . S
C242 O222 1.255 . S
C242 O223 1.257 . S
C243 Eu179 2.787 . S
C243 O218 1.252 . S
C243 O221 1.268 . S
C243 C236 1.506 . S
H244 C227 0.931 . S
H245 C228 0.931 . S
H246 C229 0.929 . S
H247 C230 0.930 . S
H248 C238 0.931 . S
H249 C239 0.931 . S
H250 C240 0.930 . S
H251 C241 0.929 . S
Eu252 N281 2.600 . S
Eu252 N287 2.562 . S
Eu252 O296 2.462 . S
Eu252 O297 2.373 . S
Eu252 O299 2.432 . S
Eu252 O300 2.291 . S
Eu252 O304 2.335 . S
Eu252 O307 2.372 . S
Eu252 C316 2.787 . S
C253 N254 1.365 . S
C253 C256 1.405 . S
C253 C260 1.448 . S
N254 C253 1.365 . S
N254 C257 1.319 . S
N254 Eu263 2.600 . S
C255 C257 1.397 . S
C255 C258 1.367 . S
C255 H275 0.931 . S
C256 C253 1.405 . S
C256 C258 1.403 . S
C256 C262 1.439 . S
C257 N254 1.319 . S
C257 C255 1.397 . S
C257 H268 0.930 . S
C258 C255 1.367 . S
C258 C256 1.403 . S
C258 H279 0.929 . S
C259 C260 1.430 . S
C259 C261 1.392 . S
C259 C265 1.404 . S
C260 C253 1.448 . S
C260 C259 1.430 . S
C260 N264 1.351 . S
C261 C259 1.392 . S
C261 C262 1.375 . S
C261 H276 0.924 1_556 S
C262 C256 1.439 . S
C262 C261 1.375 . S
C262 H277 0.931 1_556 S
Eu263 N254 2.600 . S
Eu263 N264 2.562 . S
Eu263 O298 2.335 . S
Eu263 O301 2.372 . S
Eu263 O302 2.462 . S
Eu263 O303 2.373 . S
Eu263 O305 2.432 . S
Eu263 O306 2.291 . S
Eu263 C327 2.787 . S
N264 C260 1.351 . S
N264 Eu263 2.562 . S
N264 C266 1.325 . S
C265 C259 1.404 . S
C265 C267 1.366 . S
C265 H273 0.930 1_556 S
C266 N264 1.325 . S
C266 C267 1.416 . S
C266 H272 0.929 . S
C267 C265 1.366 . S
C267 C266 1.416 . S
C267 H269 0.930 . S
H268 C257 0.930 . S
H269 C267 0.930 . S
H270 C285 0.930 . S
H271 C292 0.930 . S
H272 C266 0.929 . S
H273 C265 0.930 1_554 S
H274 C288 0.929 . S
H275 C255 0.931 . S
H276 C261 0.924 1_554 S
H277 C262 0.931 1_554 S
H278 C283 0.931 . S
H279 C258 0.929 . S
H280 C291 0.930 . S
N281 Eu252 2.600 . S
N281 C282 1.365 . S
N281 C285 1.319 . S
C282 N281 1.365 . S
C282 C284 1.405 . S
C282 C290 1.448 . S
C283 H278 0.931 . S
C283 C285 1.397 . S
C283 C286 1.367 . S
C284 C282 1.405 . S
C284 C286 1.403 . S
C284 C317 1.439 . S
C285 H270 0.930 . S
C285 N281 1.319 . S
C285 C283 1.397 . S
C286 C283 1.367 . S
C286 C284 1.403 . S
C286 H293 0.929 . S
N287 Eu252 2.562 . S
N287 C288 1.325 . S
N287 C290 1.351 . S
C288 H274 0.929 . S
C288 N287 1.325 . S
C288 C292 1.416 . S
C289 C290 1.430 . S
C289 C291 1.404 . S
C289 C318 1.387 . S
C290 C282 1.448 . S
C290 N287 1.351 . S
C290 C289 1.430 . S
C291 H280 0.930 . S
C291 C289 1.404 . S
C291 C292 1.366 . S
C292 H271 0.930 . S
C292 C288 1.416 . S
C292 C291 1.366 . S
H293 C286 0.929 . S
H294 C317 0.931 . S
H295 C318 0.931 1_556 S
O296 Eu252 2.462 . S
O296 C316 1.252 . S
O297 Eu252 2.373 . S
O297 C308 1.249 . S
O298 Eu263 2.335 . S
O298 C308 1.264 . S
O299 Eu252 2.432 . S
O299 C316 1.268 . S
O300 Eu252 2.291 . S
O300 C315 1.255 . S
O301 Eu263 2.372 . S
O301 C315 1.257 . S
O302 Eu263 2.462 . S
O302 C327 1.252 . S
O303 Eu263 2.373 . S
O303 C319 1.249 . S
O304 Eu252 2.335 . S
O304 C319 1.264 . S
O305 Eu263 2.432 . S
O305 C327 1.268 . S
O306 Eu263 2.291 . S
O306 C326 1.255 . S
O307 Eu252 2.372 . S
O307 C326 1.257 . S
C308 O297 1.249 . S
C308 O298 1.264 . S
C309 C312 1.382 . S
C309 C314 1.390 . S
C309 C316 1.506 . S
C310 C311 1.398 . S
C310 C314 1.392 . S
C311 C310 1.398 . S
C311 C313 1.372 . S
C311 H328 0.931 . S
C312 C309 1.382 . S
C312 C313 1.390 . S
C312 H329 0.931 . S
C313 C311 1.372 . S
C313 C312 1.390 . S
C313 H330 0.929 . S
C314 C309 1.390 . S
C314 C310 1.392 . S
C314 H331 0.930 . S
C315 O300 1.255 . S
C315 O301 1.257 . S
C316 Eu252 2.787 . S
C316 O296 1.252 . S
C316 O299 1.268 . S
C316 C309 1.506 . S
C317 C284 1.439 . S
C317 H294 0.931 . S
C317 C318 1.374 . S
C318 C289 1.387 . S
C318 H295 0.931 1_554 S
C318 C317 1.374 . S
C319 O303 1.249 . S
C319 O304 1.264 . S
C320 C323 1.382 . S
C320 C324 1.390 . S
C320 C327 1.506 . S
C321 C322 1.398 . S
C321 C324 1.392 . S
C322 C321 1.398 . S
C322 C325 1.372 . S
C322 H332 0.931 . S
C323 C320 1.382 . S
C323 C325 1.390 . S
C323 H333 0.931 . S
C324 C320 1.390 . S
C324 C321 1.392 . S
C324 H334 0.930 . S
C325 C322 1.372 . S
C325 C323 1.390 . S
C325 H335 0.929 . S
C326 O306 1.255 . S
C326 O307 1.257 . S
C327 Eu263 2.787 . S
C327 O302 1.252 . S
C327 O305 1.268 . S
C327 C320 1.506 . S
H328 C311 0.931 . S
H329 C312 0.931 . S
H330 C313 0.929 . S
H331 C314 0.930 . S
H332 C322 0.931 . S
H333 C323 0.931 . S
H334 C324 0.930 . S
H335 C325 0.929 . S
Eu336 N365 2.600 . S
Eu336 N371 2.562 . S
Eu336 O380 2.462 1_556 S
Eu336 O381 2.373 . S
Eu336 O383 2.432 1_556 S
Eu336 O384 2.291 . S
Eu336 O388 2.335 1_556 S
Eu336 O391 2.372 1_556 S
Eu336 C400 2.787 1_556 S
C337 N338 1.365 . S
C337 C340 1.405 . S
C337 C344 1.448 . S
N338 C337 1.365 . S
N338 C341 1.319 . S
N338 Eu347 2.600 . S
C339 C341 1.397 . S
C339 C342 1.367 . S
C339 H359 0.931 . S
C340 C337 1.405 . S
C340 C342 1.403 . S
C340 C346 1.439 . S
C341 N338 1.319 . S
C341 C339 1.397 . S
C341 H352 0.930 . S
C342 C339 1.367 . S
C342 C340 1.403 . S
C342 H363 0.929 . S
C343 C344 1.430 . S
C343 C345 1.387 . S
C343 C349 1.404 . S
C344 C337 1.448 . S
C344 C343 1.430 . S
C344 N348 1.351 . S
C345 C343 1.387 . S
C345 C346 1.374 . S
C345 H360 0.931 . S
C346 C340 1.439 . S
C346 C345 1.374 . S
C346 H361 0.931 . S
Eu347 N338 2.600 . S
Eu347 N348 2.562 . S
Eu347 O382 2.335 1_554 S
Eu347 O385 2.372 1_554 S
Eu347 O386 2.462 1_554 S
Eu347 O387 2.373 . S
Eu347 O389 2.432 1_554 S
Eu347 O390 2.291 . S
Eu347 C411 2.787 1_554 S
N348 C344 1.351 . S
N348 Eu347 2.562 . S
N348 C350 1.325 . S
C349 C343 1.404 . S
C349 C351 1.366 . S
C349 H357 0.930 . S
C350 N348 1.325 . S
C350 C351 1.416 . S
C350 H356 0.929 . S
C351 C349 1.366 . S
C351 C350 1.416 . S
C351 H353 0.930 . S
H352 C341 0.930 . S
H353 C351 0.930 . S
H354 C369 0.930 . S
H355 C376 0.930 . S
H356 C350 0.929 . S
H357 C349 0.930 . S
H358 C372 0.929 . S
H359 C339 0.931 . S
H360 C345 0.931 . S
H361 C346 0.931 . S
H362 C367 0.931 1_545 S
H363 C342 0.929 . S
H364 C375 0.930 . S
N365 Eu336 2.600 . S
N365 C366 1.365 . S
N365 C369 1.319 . S
C366 N365 1.365 . S
C366 C368 1.405 . S
C366 C374 1.448 . S
C367 H362 0.931 1_565 S
C367 C369 1.397 . S
C367 C370 1.367 . S
C368 C366 1.405 . S
C368 C370 1.403 . S
C368 C401 1.439 . S
C369 H354 0.930 . S
C369 N365 1.319 . S
C369 C367 1.397 . S
C370 C367 1.367 . S
C370 C368 1.403 . S
C370 H377 0.929 . S
N371 Eu336 2.562 . S
N371 C372 1.325 . S
N371 C374 1.351 . S
C372 H358 0.929 . S
C372 N371 1.325 . S
C372 C376 1.416 . S
C373 C374 1.430 . S
C373 C375 1.404 . S
C373 C402 1.387 . S
C374 C366 1.448 . S
C374 N371 1.351 . S
C374 C373 1.430 . S
C375 H364 0.930 . S
C375 C373 1.404 . S
C375 C376 1.366 . S
C376 H355 0.930 . S
C376 C372 1.416 . S
C376 C375 1.366 . S
H377 C370 0.929 . S
H378 C401 0.931 . S
H379 C402 0.931 . S
O380 Eu336 2.462 1_554 S
O380 C400 1.252 . S
O381 Eu336 2.373 . S
O381 C392 1.249 . S
O382 Eu347 2.335 1_556 S
O382 C392 1.264 . S
O383 Eu336 2.432 1_554 S
O383 C400 1.268 . S
O384 Eu336 2.291 . S
O384 C399 1.255 . S
O385 Eu347 2.372 1_556 S
O385 C399 1.257 . S
O386 Eu347 2.462 1_556 S
O386 C411 1.252 . S
O387 Eu347 2.373 . S
O387 C403 1.249 . S
O388 Eu336 2.335 1_554 S
O388 C403 1.264 . S
O389 Eu347 2.432 1_556 S
O389 C411 1.268 . S
O390 Eu347 2.291 . S
O390 C410 1.255 . S
O391 Eu336 2.372 1_554 S
O391 C410 1.257 . S
C392 O381 1.249 . S
C392 O382 1.264 . S
C393 C396 1.382 . S
C393 C398 1.390 . S
C393 C400 1.506 . S
C394 C395 1.398 . S
C394 C398 1.392 . S
C395 C394 1.398 . S
C395 C397 1.372 . S
C395 H412 0.931 . S
C396 C393 1.382 . S
C396 C397 1.390 . S
C396 H413 0.931 . S
C397 C395 1.372 . S
C397 C396 1.390 . S
C397 H414 0.929 . S
C398 C393 1.390 . S
C398 C394 1.392 . S
C398 H415 0.930 . S
C399 O384 1.255 . S
C399 O385 1.257 . S
C400 Eu336 2.787 1_554 S
C400 O380 1.252 . S
C400 O383 1.268 . S
C400 C393 1.506 . S
C401 C368 1.439 . S
C401 H378 0.931 . S
C401 C402 1.374 . S
C402 C373 1.387 . S
C402 H379 0.931 . S
C402 C401 1.374 . S
C403 O387 1.249 . S
C403 O388 1.264 . S
C404 C407 1.382 . S
C404 C408 1.390 . S
C404 C411 1.506 . S
C405 C406 1.398 . S
C405 C408 1.392 . S
C406 C405 1.398 . S
C406 C409 1.372 . S
C406 H416 0.931 . S
C407 C404 1.382 . S
C407 C409 1.390 . S
C407 H417 0.931 . S
C408 C404 1.390 . S
C408 C405 1.392 . S
C408 H418 0.930 . S
C409 C406 1.372 . S
C409 C407 1.390 . S
C409 H419 0.929 . S
C410 O390 1.255 . S
C410 O391 1.257 . S
C411 Eu347 2.787 1_556 S
C411 O386 1.252 . S
C411 O389 1.268 . S
C411 C404 1.506 . S
H412 C395 0.931 . S
H413 C396 0.931 . S
H414 C397 0.929 . S
H415 C398 0.930 . S
H416 C406 0.931 . S
H417 C407 0.931 . S
H418 C408 0.930 . S
H419 C409 0.929 . S
Eu420 N449 2.600 . S
Eu420 N455 2.562 . S
Eu420 O464 2.462 1_554 S
Eu420 O465 2.373 . S
Eu420 O467 2.432 1_554 S
Eu420 O468 2.291 . S
Eu420 O472 2.335 1_554 S
Eu420 O475 2.372 1_554 S
Eu420 C484 2.787 1_554 S
C421 N422 1.365 . S
C421 C424 1.405 . S
C421 C428 1.448 . S
N422 C421 1.365 . S
N422 C425 1.319 . S
N422 Eu431 2.600 . S
C423 C425 1.397 . S
C423 C426 1.367 . S
C423 H443 0.931 1_565 S
C424 C421 1.405 . S
C424 C426 1.403 . S
C424 C430 1.439 . S
C425 N422 1.319 . S
C425 C423 1.397 . S
C425 H436 0.930 . S
C426 C423 1.367 . S
C426 C424 1.403 . S
C426 H447 0.929 . S
C427 C428 1.430 . S
C427 C429 1.387 . S
C427 C433 1.404 . S
C428 C421 1.448 . S
C428 C427 1.430 . S
C428 N432 1.351 . S
C429 C427 1.387 . S
C429 C430 1.374 . S
C429 H444 0.931 . S
C430 C424 1.439 . S
C430 C429 1.374 . S
C430 H445 0.931 . S
Eu431 N422 2.600 . S
Eu431 N432 2.562 . S
Eu431 O466 2.335 1_556 S
Eu431 O469 2.372 1_556 S
Eu431 O470 2.462 1_556 S
Eu431 O471 2.373 . S
Eu431 O473 2.432 1_556 S
Eu431 O474 2.291 . S
Eu431 C495 2.787 1_556 S
N432 C428 1.351 . S
N432 Eu431 2.562 . S
N432 C434 1.325 . S
C433 C427 1.404 . S
C433 C435 1.366 . S
C433 H441 0.930 . S
C434 N432 1.325 . S
C434 C435 1.416 . S
C434 H440 0.929 . S
C435 C433 1.366 . S
C435 C434 1.416 . S
C435 H437 0.930 . S
H436 C425 0.930 . S
H437 C435 0.930 . S
H438 C453 0.930 . S
H439 C460 0.930 . S
H440 C434 0.929 . S
H441 C433 0.930 . S
H442 C456 0.929 . S
H443 C423 0.931 1_545 S
H444 C429 0.931 . S
H445 C430 0.931 . S
H446 C451 0.931 . S
H447 C426 0.929 . S
H448 C459 0.930 . S
N449 Eu420 2.600 . S
N449 C450 1.365 . S
N449 C453 1.319 . S
C450 N449 1.365 . S
C450 C452 1.405 . S
C450 C458 1.448 . S
C451 H446 0.931 . S
C451 C453 1.397 . S
C451 C454 1.367 . S
C452 C450 1.405 . S
C452 C454 1.403 . S
C452 C485 1.439 . S
C453 H438 0.930 . S
C453 N449 1.319 . S
C453 C451 1.397 . S
C454 C451 1.367 . S
C454 C452 1.403 . S
C454 H461 0.929 . S
N455 Eu420 2.562 . S
N455 C456 1.325 . S
N455 C458 1.351 . S
C456 H442 0.929 . S
C456 N455 1.325 . S
C456 C460 1.416 . S
C457 C458 1.430 . S
C457 C459 1.404 . S
C457 C486 1.387 . S
C458 C450 1.448 . S
C458 N455 1.351 . S
C458 C457 1.430 . S
C459 H448 0.930 . S
C459 C457 1.404 . S
C459 C460 1.366 . S
C460 H439 0.930 . S
C460 C456 1.416 . S
C460 C459 1.366 . S
H461 C454 0.929 . S
H462 C485 0.931 . S
H463 C486 0.931 . S
O464 Eu420 2.462 1_556 S
O464 C484 1.252 . S
O465 Eu420 2.373 . S
O465 C476 1.249 . S
O466 Eu431 2.335 1_554 S
O466 C476 1.264 . S
O467 Eu420 2.432 1_556 S
O467 C484 1.268 . S
O468 Eu420 2.291 . S
O468 C483 1.255 . S
O469 Eu431 2.372 1_554 S
O469 C483 1.257 . S
O470 Eu431 2.462 1_554 S
O470 C495 1.252 . S
O471 Eu431 2.373 . S
O471 C487 1.249 . S
O472 Eu420 2.335 1_556 S
O472 C487 1.264 . S
O473 Eu431 2.432 1_554 S
O473 C495 1.268 . S
O474 Eu431 2.291 . S
O474 C494 1.255 . S
O475 Eu420 2.372 1_556 S
O475 C494 1.257 . S
C476 O465 1.249 . S
C476 O466 1.264 . S
C477 C480 1.382 . S
C477 C482 1.390 . S
C477 C484 1.506 . S
C478 C479 1.398 . S
C478 C482 1.392 . S
C479 C478 1.398 . S
C479 C481 1.372 . S
C479 H496 0.931 . S
C480 C477 1.382 . S
C480 C481 1.390 . S
C480 H497 0.931 . S
C481 C479 1.372 . S
C481 C480 1.390 . S
C481 H498 0.929 . S
C482 C477 1.390 . S
C482 C478 1.392 . S
C482 H499 0.930 . S
C483 O468 1.255 . S
C483 O469 1.257 . S
C484 Eu420 2.787 1_556 S
C484 O464 1.252 . S
C484 O467 1.268 . S
C484 C477 1.506 . S
C485 C452 1.439 . S
C485 H462 0.931 . S
C485 C486 1.374 . S
C486 C457 1.387 . S
C486 H463 0.931 . S
C486 C485 1.374 . S
C487 O471 1.249 . S
C487 O472 1.264 . S
C488 C491 1.382 . S
C488 C492 1.390 . S
C488 C495 1.506 . S
C489 C490 1.398 . S
C489 C492 1.392 . S
C490 C489 1.398 . S
C490 C493 1.372 . S
C490 H500 0.931 . S
C491 C488 1.382 . S
C491 C493 1.390 . S
C491 H501 0.931 . S
C492 C488 1.390 . S
C492 C489 1.392 . S
C492 H502 0.930 . S
C493 C490 1.372 . S
C493 C491 1.390 . S
C493 H503 0.929 . S
C494 O474 1.255 . S
C494 O475 1.257 . S
C495 Eu431 2.787 1_554 S
C495 O470 1.252 . S
C495 O473 1.268 . S
C495 C488 1.506 . S
H496 C479 0.931 . S
H497 C480 0.931 . S
H498 C481 0.929 . S
H499 C482 0.930 . S
H500 C490 0.931 . S
H501 C491 0.931 . S
H502 C492 0.930 . S
H503 C493 0.929 . S
Eu504 N533 2.600 . S
Eu504 N539 2.562 . S
Eu504 O548 2.462 1_554 S
Eu504 O549 2.373 . S
Eu504 O551 2.432 1_554 S
Eu504 O552 2.291 . S
Eu504 O556 2.335 1_554 S
Eu504 O559 2.372 1_554 S
Eu504 C568 2.787 1_554 S
C505 N506 1.365 . S
C505 C508 1.405 . S
C505 C512 1.448 . S
N506 C505 1.365 . S
N506 C509 1.319 . S
N506 Eu515 2.600 . S
C507 C509 1.397 . S
C507 C510 1.367 . S
C507 H527 0.931 . S
C508 C505 1.405 . S
C508 C510 1.403 . S
C508 C514 1.439 . S
C509 N506 1.319 . S
C509 C507 1.397 . S
C509 H520 0.930 . S
C510 C507 1.367 . S
C510 C508 1.403 . S
C510 H531 0.929 . S
C511 C512 1.430 . S
C511 C513 1.387 . S
C511 C517 1.404 . S
C512 C505 1.448 . S
C512 C511 1.430 . S
C512 N516 1.351 . S
C513 C511 1.387 . S
C513 C514 1.374 . S
C513 H528 0.931 . S
C514 C508 1.439 . S
C514 C513 1.374 . S
C514 H529 0.931 . S
Eu515 N506 2.600 . S
Eu515 N516 2.562 . S
Eu515 O550 2.335 1_556 S
Eu515 O553 2.372 1_556 S
Eu515 O554 2.462 1_556 S
Eu515 O555 2.373 . S
Eu515 O557 2.432 1_556 S
Eu515 O558 2.291 . S
Eu515 C579 2.787 1_556 S
N516 C512 1.351 . S
N516 Eu515 2.562 . S
N516 C518 1.325 . S
C517 C511 1.404 . S
C517 C519 1.366 . S
C517 H525 0.930 . S
C518 N516 1.325 . S
C518 C519 1.416 . S
C518 H524 0.929 . S
C519 C517 1.366 . S
C519 C518 1.416 . S
C519 H521 0.930 . S
H520 C509 0.930 . S
H521 C519 0.930 . S
H522 C537 0.930 . S
H523 C544 0.930 . S
H524 C518 0.929 . S
H525 C517 0.930 . S
H526 C540 0.929 . S
H527 C507 0.931 . S
H528 C513 0.931 . S
H529 C514 0.931 . S
H530 C535 0.931 1_565 S
H531 C510 0.929 . S
H532 C543 0.930 . S
N533 Eu504 2.600 . S
N533 C534 1.365 . S
N533 C537 1.319 . S
C534 N533 1.365 . S
C534 C536 1.405 . S
C534 C542 1.448 . S
C535 H530 0.931 1_545 S
C535 C537 1.397 . S
C535 C538 1.367 . S
C536 C534 1.405 . S
C536 C538 1.403 . S
C536 C569 1.439 . S
C537 H522 0.930 . S
C537 N533 1.319 . S
C537 C535 1.397 . S
C538 C535 1.367 . S
C538 C536 1.403 . S
C538 H545 0.929 . S
N539 Eu504 2.562 . S
N539 C540 1.325 . S
N539 C542 1.351 . S
C540 H526 0.929 . S
C540 N539 1.325 . S
C540 C544 1.416 . S
C541 C542 1.430 . S
C541 C543 1.404 . S
C541 C570 1.387 . S
C542 C534 1.448 . S
C542 N539 1.351 . S
C542 C541 1.430 . S
C543 H532 0.930 . S
C543 C541 1.404 . S
C543 C544 1.366 . S
C544 H523 0.930 . S
C544 C540 1.416 . S
C544 C543 1.366 . S
H545 C538 0.929 . S
H546 C569 0.931 . S
H547 C570 0.931 . S
O548 Eu504 2.462 1_556 S
O548 C568 1.252 . S
O549 Eu504 2.373 . S
O549 C560 1.249 . S
O550 Eu515 2.335 1_554 S
O550 C560 1.264 . S
O551 Eu504 2.432 1_556 S
O551 C568 1.268 . S
O552 Eu504 2.291 . S
O552 C567 1.255 . S
O553 Eu515 2.372 1_554 S
O553 C567 1.257 . S
O554 Eu515 2.462 1_554 S
O554 C579 1.252 . S
O555 Eu515 2.373 . S
O555 C571 1.249 . S
O556 Eu504 2.335 1_556 S
O556 C571 1.264 . S
O557 Eu515 2.432 1_554 S
O557 C579 1.268 . S
O558 Eu515 2.291 . S
O558 C578 1.255 . S
O559 Eu504 2.372 1_556 S
O559 C578 1.257 . S
C560 O549 1.249 . S
C560 O550 1.264 . S
C561 C564 1.382 . S
C561 C566 1.390 . S
C561 C568 1.506 . S
C562 C563 1.398 . S
C562 C566 1.392 . S
C563 C562 1.398 . S
C563 C565 1.372 . S
C563 H580 0.931 . S
C564 C561 1.382 . S
C564 C565 1.390 . S
C564 H581 0.931 . S
C565 C563 1.372 . S
C565 C564 1.390 . S
C565 H582 0.929 . S
C566 C561 1.390 . S
C566 C562 1.392 . S
C566 H583 0.930 . S
C567 O552 1.255 . S
C567 O553 1.257 . S
C568 Eu504 2.787 1_556 S
C568 O548 1.252 . S
C568 O551 1.268 . S
C568 C561 1.506 . S
C569 C536 1.439 . S
C569 H546 0.931 . S
C569 C570 1.374 . S
C570 C541 1.387 . S
C570 H547 0.931 . S
C570 C569 1.374 . S
C571 O555 1.249 . S
C571 O556 1.264 . S
C572 C575 1.382 . S
C572 C576 1.390 . S
C572 C579 1.506 . S
C573 C574 1.398 . S
C573 C576 1.392 . S
C574 C573 1.398 . S
C574 C577 1.372 . S
C574 H584 0.931 . S
C575 C572 1.382 . S
C575 C577 1.390 . S
C575 H585 0.931 . S
C576 C572 1.390 . S
C576 C573 1.392 . S
C576 H586 0.930 . S
C577 C574 1.372 . S
C577 C575 1.390 . S
C577 H587 0.929 . S
C578 O558 1.255 . S
C578 O559 1.257 . S
C579 Eu515 2.787 1_554 S
C579 O554 1.252 . S
C579 O557 1.268 . S
C579 C572 1.506 . S
H580 C563 0.931 . S
H581 C564 0.931 . S
H582 C565 0.929 . S
H583 C566 0.930 . S
H584 C574 0.931 . S
H585 C575 0.931 . S
H586 C576 0.930 . S
H587 C577 0.929 . S
Eu588 N617 2.600 . S
Eu588 N623 2.562 . S
Eu588 O632 2.462 1_556 S
Eu588 O633 2.373 . S
Eu588 O635 2.432 1_556 S
Eu588 O636 2.291 . S
Eu588 O640 2.335 1_556 S
Eu588 O643 2.372 1_556 S
Eu588 C652 2.787 1_556 S
C589 N590 1.365 . S
C589 C592 1.405 . S
C589 C596 1.448 . S
N590 C589 1.365 . S
N590 C593 1.319 . S
N590 Eu599 2.600 . S
C591 C593 1.397 . S
C591 C594 1.367 . S
C591 H611 0.931 1_545 S
C592 C589 1.405 . S
C592 C594 1.403 . S
C592 C598 1.439 . S
C593 N590 1.319 . S
C593 C591 1.397 . S
C593 H604 0.930 . S
C594 C591 1.367 . S
C594 C592 1.403 . S
C594 H615 0.929 . S
C595 C596 1.430 . S
C595 C597 1.387 . S
C595 C601 1.404 . S
C596 C589 1.448 . S
C596 C595 1.430 . S
C596 N600 1.351 . S
C597 C595 1.387 . S
C597 C598 1.374 . S
C597 H612 0.931 . S
C598 C592 1.439 . S
C598 C597 1.374 . S
C598 H613 0.931 . S
Eu599 N590 2.600 . S
Eu599 N600 2.562 . S
Eu599 O634 2.335 1_554 S
Eu599 O637 2.372 1_554 S
Eu599 O638 2.462 1_554 S
Eu599 O639 2.373 . S
Eu599 O641 2.432 1_554 S
Eu599 O642 2.291 . S
Eu599 C663 2.787 1_554 S
N600 C596 1.351 . S
N600 Eu599 2.562 . S
N600 C602 1.325 . S
C601 C595 1.404 . S
C601 C603 1.366 . S
C601 H609 0.930 . S
C602 N600 1.325 . S
C602 C603 1.416 . S
C602 H608 0.929 . S
C603 C601 1.366 . S
C603 C602 1.416 . S
C603 H605 0.930 . S
H604 C593 0.930 . S
H605 C603 0.930 . S
H606 C621 0.930 . S
H607 C628 0.930 . S
H608 C602 0.929 . S
H609 C601 0.930 . S
H610 C624 0.929 . S
H611 C591 0.931 1_565 S
H612 C597 0.931 . S
H613 C598 0.931 . S
H614 C619 0.931 . S
H615 C594 0.929 . S
H616 C627 0.930 . S
N617 Eu588 2.600 . S
N617 C618 1.365 . S
N617 C621 1.319 . S
C618 N617 1.365 . S
C618 C620 1.405 . S
C618 C626 1.448 . S
C619 H614 0.931 . S
C619 C621 1.397 . S
C619 C622 1.367 . S
C620 C618 1.405 . S
C620 C622 1.403 . S
C620 C653 1.439 . S
C621 H606 0.930 . S
C621 N617 1.319 . S
C621 C619 1.397 . S
C622 C619 1.367 . S
C622 C620 1.403 . S
C622 H629 0.929 . S
N623 Eu588 2.562 . S
N623 C624 1.325 . S
N623 C626 1.351 . S
C624 H610 0.929 . S
C624 N623 1.325 . S
C624 C628 1.416 . S
C625 C626 1.430 . S
C625 C627 1.404 . S
C625 C654 1.387 . S
C626 C618 1.448 . S
C626 N623 1.351 . S
C626 C625 1.430 . S
C627 H616 0.930 . S
C627 C625 1.404 . S
C627 C628 1.366 . S
C628 H607 0.930 . S
C628 C624 1.416 . S
C628 C627 1.366 . S
H629 C622 0.929 . S
H630 C653 0.931 . S
H631 C654 0.931 . S
O632 Eu588 2.462 1_554 S
O632 C652 1.252 . S
O633 Eu588 2.373 . S
O633 C644 1.249 . S
O634 Eu599 2.335 1_556 S
O634 C644 1.264 . S
O635 Eu588 2.432 1_554 S
O635 C652 1.268 . S
O636 Eu588 2.291 . S
O636 C651 1.255 . S
O637 Eu599 2.372 1_556 S
O637 C651 1.257 . S
O638 Eu599 2.462 1_556 S
O638 C663 1.252 . S
O639 Eu599 2.373 . S
O639 C655 1.249 . S
O640 Eu588 2.335 1_554 S
O640 C655 1.264 . S
O641 Eu599 2.432 1_556 S
O641 C663 1.268 . S
O642 Eu599 2.291 . S
O642 C662 1.255 . S
O643 Eu588 2.372 1_554 S
O643 C662 1.257 . S
C644 O633 1.249 . S
C644 O634 1.264 . S
C645 C648 1.382 . S
C645 C650 1.390 . S
C645 C652 1.506 . S
C646 C647 1.398 . S
C646 C650 1.392 . S
C647 C646 1.398 . S
C647 C649 1.372 . S
C647 H664 0.931 . S
C648 C645 1.382 . S
C648 C649 1.390 . S
C648 H665 0.931 . S
C649 C647 1.372 . S
C649 C648 1.390 . S
C649 H666 0.929 . S
C650 C645 1.390 . S
C650 C646 1.392 . S
C650 H667 0.930 . S
C651 O636 1.255 . S
C651 O637 1.257 . S
C652 Eu588 2.787 1_554 S
C652 O632 1.252 . S
C652 O635 1.268 . S
C652 C645 1.506 . S
C653 C620 1.439 . S
C653 H630 0.931 . S
C653 C654 1.374 . S
C654 C625 1.387 . S
C654 H631 0.931 . S
C654 C653 1.374 . S
C655 O639 1.249 . S
C655 O640 1.264 . S
C656 C659 1.382 . S
C656 C660 1.390 . S
C656 C663 1.506 . S
C657 C658 1.398 . S
C657 C660 1.392 . S
C658 C657 1.398 . S
C658 C661 1.372 . S
C658 H668 0.931 . S
C659 C656 1.382 . S
C659 C661 1.390 . S
C659 H669 0.931 . S
C660 C656 1.390 . S
C660 C657 1.392 . S
C660 H670 0.930 . S
C661 C658 1.372 . S
C661 C659 1.390 . S
C661 H671 0.929 . S
C662 O642 1.255 . S
C662 O643 1.257 . S
C663 Eu599 2.787 1_556 S
C663 O638 1.252 . S
C663 O641 1.268 . S
C663 C656 1.506 . S
H664 C647 0.931 . S
H665 C648 0.931 . S
H666 C649 0.929 . S
H667 C650 0.930 . S
H668 C658 0.931 . S
H669 C659 0.931 . S
H670 C660 0.930 . S
H671 C661 0.929 . S
C672 C673 1.369 . S
C672 C674 1.419 . S
C672 H676 0.930 . S
C673 C672 1.369 . S
C673 C682 1.429 . S
C674 C672 1.419 . S
C674 C675 1.363 . S
C674 H677 0.929 . S
C675 C674 1.363 . S
C675 C681 1.428 . S
H676 C672 0.930 . S
H677 C674 0.929 . S
S678 N679 1.613 . S
S678 N680 1.610 . S
N679 S678 1.613 . S
N679 C682 1.350 . S
N680 S678 1.610 . S
N680 C681 1.351 . S
C681 C675 1.428 . S
C681 N680 1.351 . S
C681 C682 1.434 . S
C682 C673 1.429 . S
C682 N679 1.350 . S
C682 C681 1.434 . S
C683 C684 1.369 . S
C683 C685 1.419 . S
C683 H687 0.930 . S
C684 C683 1.369 . S
C684 C693 1.429 . S
C685 C683 1.419 . S
C685 C686 1.363 . S
C685 H688 0.929 . S
C686 C685 1.363 . S
C686 C692 1.428 . S
H687 C683 0.930 . S
H688 C685 0.929 . S
S689 N690 1.613 . S
S689 N691 1.610 . S
N690 S689 1.613 . S
N690 C693 1.350 . S
N691 S689 1.610 . S
N691 C692 1.351 . S
C692 C686 1.428 . S
C692 N691 1.351 . S
C692 C693 1.434 . S
C693 C684 1.429 . S
C693 N690 1.350 . S
C693 C692 1.434 . S
C694 C695 1.369 . S
C694 C696 1.419 . S
C694 H698 0.930 . S
C695 C694 1.369 . S
C695 C704 1.429 . S
C696 C694 1.419 . S
C696 C697 1.363 . S
C696 H699 0.929 . S
C697 C696 1.363 . S
C697 C703 1.428 . S
H698 C694 0.930 . S
H699 C696 0.929 . S
S700 N701 1.613 . S
S700 N702 1.610 . S
N701 S700 1.613 . S
N701 C704 1.350 . S
N702 S700 1.610 . S
N702 C703 1.351 . S
C703 C697 1.428 . S
C703 N702 1.351 . S
C703 C704 1.434 . S
C704 C695 1.429 . S
C704 N701 1.350 . S
C704 C703 1.434 . S
C705 C706 1.369 . S
C705 C707 1.419 . S
C705 H709 0.930 . S
C706 C705 1.369 . S
C706 C715 1.429 . S
C707 C705 1.419 . S
C707 C708 1.363 . S
C707 H710 0.929 . S
C708 C707 1.363 . S
C708 C714 1.428 . S
H709 C705 0.930 . S
H710 C707 0.929 . S
S711 N712 1.613 . S
S711 N713 1.610 . S
N712 S711 1.613 . S
N712 C715 1.350 . S
N713 S711 1.610 . S
N713 C714 1.351 . S
C714 C708 1.428 . S
C714 N713 1.351 . S
C714 C715 1.434 . S
C715 C706 1.429 . S
C715 N712 1.350 . S
C715 C714 1.434 . S
C716 C717 1.369 . S
C716 C718 1.419 1_565 S
C716 H720 0.930 . S
C717 C716 1.369 . S
C717 C726 1.429 . S
C718 C716 1.419 1_545 S
C718 C719 1.363 . S
C718 H721 0.929 . S
C719 C718 1.363 . S
C719 C725 1.428 . S
H720 C716 0.930 . S
H721 C718 0.929 . S
S722 N723 1.613 . S
S722 N724 1.610 1_565 S
N723 S722 1.613 . S
N723 C726 1.350 . S
N724 S722 1.610 1_545 S
N724 C725 1.351 . S
C725 C719 1.428 . S
C725 N724 1.351 . S
C725 C726 1.434 1_545 S
C726 C717 1.429 . S
C726 N723 1.350 . S
C726 C725 1.434 1_565 S
C727 C728 1.369 . S
C727 C729 1.419 . S
C727 H731 0.930 . S
C728 C727 1.369 . S
C728 C737 1.429 . S
C729 C727 1.419 . S
C729 C730 1.363 . S
C729 H732 0.929 . S
C730 C729 1.363 . S
C730 C736 1.428 . S
H731 C727 0.930 . S
H732 C729 0.929 . S
S733 N734 1.613 . S
S733 N735 1.610 . S
N734 S733 1.613 . S
N734 C737 1.350 . S
N735 S733 1.610 . S
N735 C736 1.351 . S
C736 C730 1.428 . S
C736 N735 1.351 . S
C736 C737 1.434 . S
C737 C728 1.429 . S
C737 N734 1.350 . S
C737 C736 1.434 . S
C738 C739 1.369 . S
C738 C740 1.419 1_565 S
C738 H742 0.930 . S
C739 C738 1.369 . S
C739 C748 1.429 . S
C740 C738 1.419 1_545 S
C740 C741 1.363 . S
C740 H743 0.929 . S
C741 C740 1.363 . S
C741 C747 1.428 . S
H742 C738 0.930 . S
H743 C740 0.929 . S
S744 N745 1.613 . S
S744 N746 1.610 1_565 S
N745 S744 1.613 . S
N745 C748 1.350 . S
N746 S744 1.610 1_545 S
N746 C747 1.351 . S
C747 C741 1.428 . S
C747 N746 1.351 . S
C747 C748 1.434 1_545 S
C748 C739 1.429 . S
C748 N745 1.350 . S
C748 C747 1.434 1_565 S
C749 C750 1.369 . S
C749 C751 1.419 . S
C749 H753 0.930 . S
C750 C749 1.369 . S
C750 C759 1.429 . S
C751 C749 1.419 . S
C751 C752 1.363 . S
C751 H754 0.929 . S
C752 C751 1.363 . S
C752 C758 1.428 . S
H753 C749 0.930 . S
H754 C751 0.929 . S
S755 N756 1.613 . S
S755 N757 1.610 . S
N756 S755 1.613 . S
N756 C759 1.350 . S
N757 S755 1.610 . S
N757 C758 1.351 . S
C758 C752 1.428 . S
C758 N757 1.351 . S
C758 C759 1.434 . S
C759 C750 1.429 . S
C759 N756 1.350 . S
C759 C758 1.434 . S
C760 C761 1.369 . S
C760 C762 1.419 . S
C760 H764 0.930 . S
C761 C760 1.369 . S
C761 C770 1.429 1_556 S
C762 C760 1.419 . S
C762 C763 1.363 1_556 S
C762 H765 0.929 . S
C763 C762 1.363 1_554 S
C763 C769 1.428 . S
H764 C760 0.930 . S
H765 C762 0.929 . S
S766 N767 1.613 . S
S766 N768 1.610 . S
N767 S766 1.613 . S
N767 C770 1.350 . S
N768 S766 1.610 . S
N768 C769 1.351 . S
C769 C763 1.428 . S
C769 N768 1.351 . S
C769 C770 1.434 . S
C770 C761 1.429 1_554 S
C770 N767 1.350 . S
C770 C769 1.434 . S
C771 C772 1.369 1_556 S
C771 C773 1.419 1_565 S
C771 H775 0.930 . S
C772 C771 1.369 1_554 S
C772 C781 1.429 . S
C773 C771 1.419 1_545 S
C773 C774 1.363 . S
C773 H776 0.929 . S
C774 C773 1.363 . S
C774 C780 1.428 1_556 S
H775 C771 0.930 . S
H776 C773 0.929 . S
S777 N778 1.613 1_545 S
S777 N779 1.610 . S
N778 S777 1.613 1_565 S
N778 C781 1.350 . S
N779 S777 1.610 . S
N779 C780 1.351 . S
C780 C774 1.428 1_554 S
C780 N779 1.351 . S
C780 C781 1.434 1_545 S
C781 C772 1.429 . S
C781 N778 1.350 . S
C781 C780 1.434 1_565 S
C782 C783 1.369 1_556 S
C782 C784 1.419 . S
C782 H786 0.930 . S
C783 C782 1.369 1_554 S
C783 C792 1.429 . S
C784 C782 1.419 . S
C784 C785 1.363 . S
C784 H787 0.929 . S
C785 C784 1.363 . S
C785 C791 1.428 1_556 S
H786 C782 0.930 . S
H787 C784 0.929 . S
S788 N789 1.613 . S
S788 N790 1.610 . S
N789 S788 1.613 . S
N789 C792 1.350 . S
N790 S788 1.610 . S
N790 C791 1.351 . S
C791 C785 1.428 1_554 S
C791 N790 1.351 . S
C791 C792 1.434 . S
C792 C783 1.429 . S
C792 N789 1.350 . S
C792 C791 1.434 . S
C793 C794 1.369 1_554 S
C793 C795 1.419 1_545 S
C793 H797 0.930 . S
C794 C793 1.369 1_556 S
C794 C803 1.429 . S
C795 C793 1.419 1_565 S
C795 C796 1.363 . S
C795 H798 0.929 . S
C796 C795 1.363 . S
C796 C802 1.428 1_554 S
H797 C793 0.930 . S
H798 C795 0.929 . S
S799 N800 1.613 1_565 S
S799 N801 1.610 . S
N800 S799 1.613 1_545 S
N800 C803 1.350 . S
N801 S799 1.610 . S
N801 C802 1.351 . S
C802 C796 1.428 1_556 S
C802 N801 1.351 . S
C802 C803 1.434 1_565 S
C803 C794 1.429 . S
C803 N800 1.350 . S
C803 C802 1.434 1_545 S
C804 C805 1.369 1_556 S
C804 C806 1.419 . S
C804 H808 0.930 1_556 S
C805 C804 1.369 1_554 S
C805 C814 1.429 . S
C806 C804 1.419 . S
C806 C807 1.363 . S
C806 H809 0.929 . S
C807 C806 1.363 . S
C807 C813 1.428 . S
H808 C804 0.930 1_554 S
H809 C806 0.929 . S
S810 N811 1.613 . S
S810 N812 1.610 1_554 S
N811 S810 1.613 . S
N811 C814 1.350 . S
N812 S810 1.610 1_556 S
N812 C813 1.351 . S
C813 C807 1.428 . S
C813 N812 1.351 . S
C813 C814 1.434 1_556 S
C814 C805 1.429 . S
C814 N811 1.350 . S
C814 C813 1.434 1_554 S
C815 C816 1.369 . S
C815 C817 1.419 1_554 S
C815 H819 0.930 . S
C816 C815 1.369 . S
C816 C825 1.429 . S
C817 C815 1.419 1_556 S
C817 C818 1.363 . S
C817 H820 0.929 . S
C818 C817 1.363 . S
C818 C824 1.428 . S
H819 C815 0.930 . S
H820 C817 0.929 . S
S821 N822 1.613 1_556 S
S821 N823 1.610 . S
N822 S821 1.613 1_554 S
N822 C825 1.350 . S
N823 S821 1.610 . S
N823 C824 1.351 . S
C824 C818 1.428 . S
C824 N823 1.351 . S
C824 C825 1.434 1_556 S
C825 C816 1.429 . S
C825 N822 1.350 . S
C825 C824 1.434 1_554 S
C826 C827 1.369 . S
C826 C828 1.419 . S
C826 H830 0.930 . S
C827 C826 1.369 . S
C827 C836 1.429 . S
C828 C826 1.419 . S
C828 C829 1.363 1_554 S
C828 H831 0.929 1_554 S
C829 C828 1.363 1_556 S
C829 C835 1.428 . S
H830 C826 0.930 . S
H831 C828 0.929 1_556 S
S832 N833 1.613 1_556 S
S832 N834 1.610 . S
N833 S832 1.613 1_554 S
N833 C836 1.350 . S
N834 S832 1.610 . S
N834 C835 1.351 . S
C835 C829 1.428 . S
C835 N834 1.351 . S
C835 C836 1.434 1_556 S
C836 C827 1.429 . S
C836 N833 1.350 . S
C836 C835 1.434 1_554 S
C837 C838 1.369 1_554 S
C837 C839 1.419 . S
C837 H841 0.930 1_554 S
C838 C837 1.369 1_556 S
C838 C847 1.429 . S
C839 C837 1.419 . S
C839 C840 1.363 . S
C839 H842 0.929 . S
C840 C839 1.363 . S
C840 C846 1.428 . S
H841 C837 0.930 1_556 S
H842 C839 0.929 . S
S843 N844 1.613 . S
S843 N845 1.610 1_556 S
N844 S843 1.613 . S
N844 C847 1.350 . S
N845 S843 1.610 1_554 S
N845 C846 1.351 . S
C846 C840 1.428 . S
C846 N845 1.351 . S
C846 C847 1.434 1_554 S
C847 C838 1.429 . S
C847 N844 1.350 . S
C847 C846 1.434 1_556 S
C848 C849 1.369 . S
C848 C850 1.419 . S
C848 H852 0.930 . S
C849 C848 1.369 . S
C849 C858 1.429 . S
C850 C848 1.419 . S
C850 C851 1.363 . S
C850 H853 0.929 . S
C851 C850 1.363 . S
C851 C857 1.428 . S
H852 C848 0.930 . S
H853 C850 0.929 . S
S854 N855 1.613 . S
S854 N856 1.610 . S
N855 S854 1.613 . S
N855 C858 1.350 . S
N856 S854 1.610 . S
N856 C857 1.351 . S
C857 C851 1.428 . S
C857 N856 1.351 . S
C857 C858 1.434 . S
C858 C849 1.429 . S
C858 N855 1.350 . S
C858 C857 1.434 . S
C859 C860 1.369 . S
C859 C861 1.419 . S
C859 H863 0.930 . S
C860 C859 1.369 . S
C860 C869 1.429 . S
C861 C859 1.419 . S
C861 C862 1.363 . S
C861 H864 0.929 . S
C862 C861 1.363 . S
C862 C868 1.428 . S
H863 C859 0.930 . S
H864 C861 0.929 . S
S865 N866 1.613 . S
S865 N867 1.610 . S
N866 S865 1.613 . S
N866 C869 1.350 . S
N867 S865 1.610 . S
N867 C868 1.351 . S
C868 C862 1.428 . S
C868 N867 1.351 . S
C868 C869 1.434 . S
C869 C860 1.429 . S
C869 N866 1.350 . S
C869 C868 1.434 . S
C870 C871 1.369 . S
C870 C872 1.419 . S
C870 H874 0.930 . S
C871 C870 1.369 . S
C871 C880 1.429 . S
C872 C870 1.419 . S
C872 C873 1.363 . S
C872 H875 0.929 . S
C873 C872 1.363 . S
C873 C879 1.428 . S
H874 C870 0.930 . S
H875 C872 0.929 . S
S876 N877 1.613 . S
S876 N878 1.610 . S
N877 S876 1.613 . S
N877 C880 1.350 . S
N878 S876 1.610 . S
N878 C879 1.351 . S
C879 C873 1.428 . S
C879 N878 1.351 . S
C879 C880 1.434 . S
C880 C871 1.429 . S
C880 N877 1.350 . S
C880 C879 1.434 . S
C881 C882 1.369 . S
C881 C883 1.419 . S
C881 H885 0.930 . S
C882 C881 1.369 . S
C882 C891 1.429 . S
C883 C881 1.419 . S
C883 C884 1.363 . S
C883 H886 0.929 . S
C884 C883 1.363 . S
C884 C890 1.428 . S
H885 C881 0.930 . S
H886 C883 0.929 . S
S887 N888 1.613 . S
S887 N889 1.610 . S
N888 S887 1.613 . S
N888 C891 1.350 . S
N889 S887 1.610 . S
N889 C890 1.351 . S
C890 C884 1.428 . S
C890 N889 1.351 . S
C890 C891 1.434 . S
C891 C882 1.429 . S
C891 N888 1.350 . S
C891 C890 1.434 . S
C892 C893 1.369 . S
C892 C894 1.419 1_455 S
C892 H896 0.930 . S
C893 C892 1.369 . S
C893 C902 1.429 . S
C894 C892 1.419 1_655 S
C894 C895 1.363 . S
C894 H897 0.929 . S
C895 C894 1.363 . S
C895 C901 1.428 . S
H896 C892 0.930 . S
H897 C894 0.929 . S
S898 N899 1.619 1_655 S
S898 N900 1.605 . S
N899 S898 1.619 1_455 S
N899 C902 1.350 . S
N900 S898 1.605 . S
N900 C901 1.351 . S
C901 C895 1.428 . S
C901 N900 1.351 . S
C901 C902 1.434 1_655 S
C902 C893 1.429 . S
C902 N899 1.350 . S
C902 C901 1.434 1_455 S
C903 C904 1.369 . S
C903 C905 1.419 1_655 S
C903 H907 0.930 . S
C904 C903 1.369 . S
C904 C913 1.429 . S
C905 C903 1.419 1_455 S
C905 C906 1.363 . S
C905 H908 0.929 . S
C906 C905 1.363 . S
C906 C912 1.428 . S
H907 C903 0.930 . S
H908 C905 0.929 . S
S909 N910 1.619 1_455 S
S909 N911 1.605 . S
N910 S909 1.619 1_655 S
N910 C913 1.350 . S
N911 S909 1.605 . S
N911 C912 1.351 . S
C912 C906 1.428 . S
C912 N911 1.351 . S
C912 C913 1.434 1_455 S
C913 C904 1.429 . S
C913 N910 1.350 . S
C913 C912 1.434 1_655 S
C914 C915 1.369 . S
C914 C916 1.419 . S
C914 H918 0.930 . S
C915 C914 1.369 . S
C915 C924 1.429 . S
C916 C914 1.419 . S
C916 C917 1.363 . S
C916 H919 0.929 . S
C917 C916 1.363 . S
C917 C923 1.428 . S
H918 C914 0.930 . S
H919 C916 0.929 . S
S920 N921 1.613 . S
S920 N922 1.610 . S
N921 S920 1.613 . S
N921 C924 1.350 . S
N922 S920 1.610 . S
N922 C923 1.351 . S
C923 C917 1.428 . S
C923 N922 1.351 . S
C923 C924 1.434 . S
C924 C915 1.429 . S
C924 N921 1.350 . S
C924 C923 1.434 . S
C925 C926 1.369 . S
C925 C927 1.419 . S
C925 H929 0.930 . S
C926 C925 1.369 . S
C926 C935 1.429 . S
C927 C925 1.419 . S
C927 C928 1.363 . S
C927 H930 0.929 . S
C928 C927 1.363 . S
C928 C934 1.428 . S
H929 C925 0.930 . S
H930 C927 0.929 . S
S931 N932 1.613 1_565 S
S931 N933 1.610 1_565 S
N932 S931 1.613 1_545 S
N932 C935 1.350 . S
N933 S931 1.610 1_545 S
N933 C934 1.351 . S
C934 C928 1.428 . S
C934 N933 1.351 . S
C934 C935 1.434 . S
C935 C926 1.429 . S
C935 N932 1.350 . S
C935 C934 1.434 . S
C673 C58 1.524 . S
C675 C657 1.529 . S
C684 C562 1.531 . S
C686 C153 1.522 . S
C695 C489 1.535 . S
C697 C226 1.519 . S
C706 C394 1.522 . S
C708 C321 1.529 . S
C717 C231 2.331 . S
C719 C63 2.332 . S
C728 C147 0.771 . S
C730 C315 0.778 . S
C739 C326 2.331 . S
C741 C158 2.332 . S
C750 C242 0.777 . S
C752 C74 0.771 . S
C761 C399 2.326 . S
C763 C567 2.326 . S
C772 C483 0.740 . S
C774 C651 0.742 . S
C783 C662 2.330 . S
C785 C494 2.329 . S
C794 C578 0.747 . S
C796 C410 0.746 . S
C805 C56 1.796 . S
C807 C67 1.801 . S
C816 C151 1.801 . S
C818 C140 1.798 . S
C827 C235 1.801 . S
C829 C224 1.797 . S
C838 C319 1.795 . S
C840 C308 1.802 . S
C849 C403 1.800 . S
C851 C392 1.798 . S
C860 C487 1.801 . S
C862 C476 1.798 . S
C871 C560 1.797 . S
C873 C571 1.801 . S
C882 C655 1.799 . S
C884 C644 1.799 . S
C893 C69 1.954 . S
C895 C142 1.954 . S
C904 C310 1.960 . S
C906 C237 1.958 . S
C915 C405 1.960 . S
C917 C478 1.958 . S
C926 C646 1.960 . S
C928 C573 1.959 . S
