# Generated by pormake.
# Topology soh, (5)-cn, num edge types: 1
# Building blocks:
#     Node 0, Type 0, BuildingBlock: XOMCOT_clean_sbu_1, # of connection points: 5
#     Node 1, Type 0, BuildingBlock: XOMCOT_clean_sbu_1, # of connection points: 5
#     Node 2, Type 0, BuildingBlock: XOMCOT_clean_sbu_1, # of connection points: 5
#     Node 3, Type 0, BuildingBlock: XOMCOT_clean_sbu_1, # of connection points: 5
#     Node 4, Type 0, BuildingBlock: XOMCOT_clean_sbu_1, # of connection points: 5
#     Node 5, Type 0, BuildingBlock: XOMCOT_clean_sbu_1, # of connection points: 5
#     Node 6, Type 0, BuildingBlock: XOMCOT_clean_sbu_1, # of connection points: 5
#     Node 7, Type 0, BuildingBlock: XOMCOT_clean_sbu_1, # of connection points: 5
#     Node 8, Type 0, BuildingBlock: XOMCOT_clean_sbu_1, # of connection points: 5
#     Node 9, Type 0, BuildingBlock: XOMCOT_clean_sbu_1, # of connection points: 5
#     Node 10, Type 0, BuildingBlock: XOMCOT_clean_sbu_1, # of connection points: 5
#     Node 11, Type 0, BuildingBlock: XOMCOT_clean_sbu_1, # of connection points: 5
#     Node 12, Type 0, BuildingBlock: XOMCOT_clean_sbu_1, # of connection points: 5
#     Node 13, Type 0, BuildingBlock: XOMCOT_clean_sbu_1, # of connection points: 5
#     Node 14, Type 0, BuildingBlock: XOMCOT_clean_sbu_1, # of connection points: 5
#     Node 15, Type 0, BuildingBlock: XOMCOT_clean_sbu_1, # of connection points: 5
#     Node 16, Type 0, BuildingBlock: XOMCOT_clean_sbu_1, # of connection points: 5
#     Node 17, Type 0, BuildingBlock: XOMCOT_clean_sbu_1, # of connection points: 5
#     Node 18, Type 0, BuildingBlock: XOMCOT_clean_sbu_1, # of connection points: 5
#     Node 19, Type 0, BuildingBlock: XOMCOT_clean_sbu_1, # of connection points: 5
#     Node 20, Type 0, BuildingBlock: XOMCOT_clean_sbu_1, # of connection points: 5
#     Node 21, Type 0, BuildingBlock: XOMCOT_clean_sbu_1, # of connection points: 5
#     Node 22, Type 0, BuildingBlock: XOMCOT_clean_sbu_1, # of connection points: 5
#     Node 23, Type 0, BuildingBlock: XOMCOT_clean_sbu_1, # of connection points: 5
#     Node 24, Type 0, BuildingBlock: XOMCOT_clean_sbu_1, # of connection points: 5
#     Node 25, Type 0, BuildingBlock: XOMCOT_clean_sbu_1, # of connection points: 5
#     Node 26, Type 0, BuildingBlock: XOMCOT_clean_sbu_1, # of connection points: 5
#     Node 27, Type 0, BuildingBlock: XOMCOT_clean_sbu_1, # of connection points: 5
#     Node 28, Type 0, BuildingBlock: XOMCOT_clean_sbu_1, # of connection points: 5
#     Node 29, Type 0, BuildingBlock: XOMCOT_clean_sbu_1, # of connection points: 5
#     Node 30, Type 0, BuildingBlock: XOMCOT_clean_sbu_1, # of connection points: 5
#     Node 31, Type 0, BuildingBlock: XOMCOT_clean_sbu_1, # of connection points: 5
#     Edge 32, Type (0, 0), BuildingBlock: AJUNOK_clean_linker_0, # of connection points: 2
#     Edge 33, Type (0, 0), BuildingBlock: AJUNOK_clean_linker_0, # of connection points: 2
#     Edge 34, Type (0, 0), BuildingBlock: AJUNOK_clean_linker_0, # of connection points: 2
#     Edge 35, Type (0, 0), BuildingBlock: AJUNOK_clean_linker_0, # of connection points: 2
#     Edge 36, Type (0, 0), BuildingBlock: AJUNOK_clean_linker_0, # of connection points: 2
#     Edge 37, Type (0, 0), BuildingBlock: AJUNOK_clean_linker_0, # of connection points: 2
#     Edge 38, Type (0, 0), BuildingBlock: AJUNOK_clean_linker_0, # of connection points: 2
#     Edge 39, Type (0, 0), BuildingBlock: AJUNOK_clean_linker_0, # of connection points: 2
#     Edge 40, Type (0, 0), BuildingBlock: AJUNOK_clean_linker_0, # of connection points: 2
#     Edge 41, Type (0, 0), BuildingBlock: AJUNOK_clean_linker_0, # of connection points: 2
#     Edge 42, Type (0, 0), BuildingBlock: AJUNOK_clean_linker_0, # of connection points: 2
#     Edge 43, Type (0, 0), BuildingBlock: AJUNOK_clean_linker_0, # of connection points: 2
#     Edge 44, Type (0, 0), BuildingBlock: AJUNOK_clean_linker_0, # of connection points: 2
#     Edge 45, Type (0, 0), BuildingBlock: AJUNOK_clean_linker_0, # of connection points: 2
#     Edge 46, Type (0, 0), BuildingBlock: AJUNOK_clean_linker_0, # of connection points: 2
#     Edge 47, Type (0, 0), BuildingBlock: AJUNOK_clean_linker_0, # of connection points: 2
#     Edge 48, Type (0, 0), BuildingBlock: AJUNOK_clean_linker_0, # of connection points: 2
#     Edge 49, Type (0, 0), BuildingBlock: AJUNOK_clean_linker_0, # of connection points: 2
#     Edge 50, Type (0, 0), BuildingBlock: AJUNOK_clean_linker_0, # of connection points: 2
#     Edge 51, Type (0, 0), BuildingBlock: AJUNOK_clean_linker_0, # of connection points: 2
#     Edge 52, Type (0, 0), BuildingBlock: AJUNOK_clean_linker_0, # of connection points: 2
#     Edge 53, Type (0, 0), BuildingBlock: AJUNOK_clean_linker_0, # of connection points: 2
#     Edge 54, Type (0, 0), BuildingBlock: AJUNOK_clean_linker_0, # of connection points: 2
#     Edge 55, Type (0, 0), BuildingBlock: AJUNOK_clean_linker_0, # of connection points: 2
#     Edge 56, Type (0, 0), BuildingBlock: AJUNOK_clean_linker_0, # of connection points: 2
#     Edge 57, Type (0, 0), BuildingBlock: AJUNOK_clean_linker_0, # of connection points: 2
#     Edge 58, Type (0, 0), BuildingBlock: AJUNOK_clean_linker_0, # of connection points: 2
#     Edge 59, Type (0, 0), BuildingBlock: AJUNOK_clean_linker_0, # of connection points: 2
#     Edge 60, Type (0, 0), BuildingBlock: AJUNOK_clean_linker_0, # of connection points: 2
#     Edge 61, Type (0, 0), BuildingBlock: AJUNOK_clean_linker_0, # of connection points: 2
#     Edge 62, Type (0, 0), BuildingBlock: AJUNOK_clean_linker_0, # of connection points: 2
#     Edge 63, Type (0, 0), BuildingBlock: AJUNOK_clean_linker_0, # of connection points: 2
#     Edge 64, Type (0, 0), BuildingBlock: AJUNOK_clean_linker_0, # of connection points: 2
#     Edge 65, Type (0, 0), BuildingBlock: AJUNOK_clean_linker_0, # of connection points: 2
#     Edge 66, Type (0, 0), BuildingBlock: AJUNOK_clean_linker_0, # of connection points: 2
#     Edge 67, Type (0, 0), BuildingBlock: AJUNOK_clean_linker_0, # of connection points: 2
#     Edge 68, Type (0, 0), BuildingBlock: AJUNOK_clean_linker_0, # of connection points: 2
#     Edge 69, Type (0, 0), BuildingBlock: AJUNOK_clean_linker_0, # of connection points: 2
#     Edge 70, Type (0, 0), BuildingBlock: AJUNOK_clean_linker_0, # of connection points: 2
#     Edge 71, Type (0, 0), BuildingBlock: AJUNOK_clean_linker_0, # of connection points: 2
#     Edge 72, Type (0, 0), BuildingBlock: AJUNOK_clean_linker_0, # of connection points: 2
#     Edge 73, Type (0, 0), BuildingBlock: AJUNOK_clean_linker_0, # of connection points: 2
#     Edge 74, Type (0, 0), BuildingBlock: AJUNOK_clean_linker_0, # of connection points: 2
#     Edge 75, Type (0, 0), BuildingBlock: AJUNOK_clean_linker_0, # of connection points: 2
#     Edge 76, Type (0, 0), BuildingBlock: AJUNOK_clean_linker_0, # of connection points: 2
#     Edge 77, Type (0, 0), BuildingBlock: AJUNOK_clean_linker_0, # of connection points: 2
#     Edge 78, Type (0, 0), BuildingBlock: AJUNOK_clean_linker_0, # of connection points: 2
#     Edge 79, Type (0, 0), BuildingBlock: AJUNOK_clean_linker_0, # of connection points: 2
#     Edge 80, Type (0, 0), BuildingBlock: AJUNOK_clean_linker_0, # of connection points: 2
#     Edge 81, Type (0, 0), BuildingBlock: AJUNOK_clean_linker_0, # of connection points: 2
#     Edge 82, Type (0, 0), BuildingBlock: AJUNOK_clean_linker_0, # of connection points: 2
#     Edge 83, Type (0, 0), BuildingBlock: AJUNOK_clean_linker_0, # of connection points: 2
#     Edge 84, Type (0, 0), BuildingBlock: AJUNOK_clean_linker_0, # of connection points: 2
#     Edge 85, Type (0, 0), BuildingBlock: AJUNOK_clean_linker_0, # of connection points: 2
#     Edge 86, Type (0, 0), BuildingBlock: AJUNOK_clean_linker_0, # of connection points: 2
#     Edge 87, Type (0, 0), BuildingBlock: AJUNOK_clean_linker_0, # of connection points: 2
#     Edge 88, Type (0, 0), BuildingBlock: AJUNOK_clean_linker_0, # of connection points: 2
#     Edge 89, Type (0, 0), BuildingBlock: AJUNOK_clean_linker_0, # of connection points: 2
#     Edge 90, Type (0, 0), BuildingBlock: AJUNOK_clean_linker_0, # of connection points: 2
#     Edge 91, Type (0, 0), BuildingBlock: AJUNOK_clean_linker_0, # of connection points: 2
#     Edge 92, Type (0, 0), BuildingBlock: AJUNOK_clean_linker_0, # of connection points: 2
#     Edge 93, Type (0, 0), BuildingBlock: AJUNOK_clean_linker_0, # of connection points: 2
#     Edge 94, Type (0, 0), BuildingBlock: AJUNOK_clean_linker_0, # of connection points: 2
#     Edge 95, Type (0, 0), BuildingBlock: AJUNOK_clean_linker_0, # of connection points: 2
#     Edge 96, Type (0, 0), BuildingBlock: AJUNOK_clean_linker_0, # of connection points: 2
#     Edge 97, Type (0, 0), BuildingBlock: AJUNOK_clean_linker_0, # of connection points: 2
#     Edge 98, Type (0, 0), BuildingBlock: AJUNOK_clean_linker_0, # of connection points: 2
#     Edge 99, Type (0, 0), BuildingBlock: AJUNOK_clean_linker_0, # of connection points: 2
#     Edge 100, Type (0, 0), BuildingBlock: AJUNOK_clean_linker_0, # of connection points: 2
#     Edge 101, Type (0, 0), BuildingBlock: AJUNOK_clean_linker_0, # of connection points: 2
#     Edge 102, Type (0, 0), BuildingBlock: AJUNOK_clean_linker_0, # of connection points: 2
#     Edge 103, Type (0, 0), BuildingBlock: AJUNOK_clean_linker_0, # of connection points: 2
#     Edge 104, Type (0, 0), BuildingBlock: AJUNOK_clean_linker_0, # of connection points: 2
#     Edge 105, Type (0, 0), BuildingBlock: AJUNOK_clean_linker_0, # of connection points: 2
#     Edge 106, Type (0, 0), BuildingBlock: AJUNOK_clean_linker_0, # of connection points: 2
#     Edge 107, Type (0, 0), BuildingBlock: AJUNOK_clean_linker_0, # of connection points: 2
#     Edge 108, Type (0, 0), BuildingBlock: AJUNOK_clean_linker_0, # of connection points: 2
#     Edge 109, Type (0, 0), BuildingBlock: AJUNOK_clean_linker_0, # of connection points: 2
#     Edge 110, Type (0, 0), BuildingBlock: AJUNOK_clean_linker_0, # of connection points: 2
#     Edge 111, Type (0, 0), BuildingBlock: AJUNOK_clean_linker_0, # of connection points: 2
# Relax obj value: 0.225
# Max RMSD: 0.179
# Mean RMSD: 0.179
data_MOF--net-soh--node1-XOMCOT_clean_sbu_1--edge1-AJUNOK_clean_linker_0
_symmetry_space_group_name_H-M    P1
_symmetry_Int_Tables_number       1
_symmetry_cell_setting            triclinic
loop_
_symmetry_equiv_pos_as_xyz
'x, y, z'
_cell_length_a     60.976757
_cell_length_b     33.610355
_cell_length_c     34.884331
_cell_angle_alpha  89.980145
_cell_angle_beta   89.992478
_cell_angle_gamma 89.908969
loop_
_atom_site_label
_atom_site_type_symbol
_atom_site_fract_x
_atom_site_fract_y
_atom_site_fract_z
_atom_type_partial_charge
C0 C 0.30233 0.36823 0.24042 0.0
C1 C 0.29772 0.38238 0.27654 0.0
N2 N 0.31632 0.38114 0.29725 0.0
N3 N 0.3237 0.35792 0.23869 0.0
C4 C 0.33183 0.36634 0.27374 0.0
H5 H 0.29053 0.36272 0.21789 0.0
Co6 Co 0.3361 0.32519 0.20154 0.0
C7 C 0.37841 0.37259 0.19429 0.0
O8 O 0.37264 0.38701 0.16086 0.0
N9 N 0.3483 0.2894 0.16491 0.0
C10 C 0.36858 0.25762 0.12128 0.0
C11 C 0.36437 0.29377 0.13856 0.0
C12 C 0.34284 0.25038 0.1623 0.0
N13 N 0.35494 0.23031 0.1363 0.0
O14 O 0.33996 0.28597 0.24068 0.0
H15 H 0.37289 0.32101 0.13233 0.0
H16 H 0.33081 0.2362 0.18026 0.0
O17 O 0.36597 0.34786 0.21208 0.0
C18 C 0.3213 0.26945 0.24502 0.0
O19 O 0.3053 0.27921 0.22154 0.0
N20 N 0.32921 0.36342 0.16325 0.0
C21 C 0.31092 0.41771 0.11152 0.0
C22 C 0.3209 0.43089 0.14534 0.0
C23 C 0.32976 0.40337 0.17089 0.0
C24 C 0.31868 0.35006 0.13116 0.0
C25 C 0.30967 0.37673 0.10466 0.0
H26 H 0.33704 0.41429 0.19712 0.0
H27 H 0.31657 0.31853 0.12644 0.0
H28 H 0.34813 0.35796 0.28306 0.0
H29 H 0.28173 0.39053 0.28752 0.0
H30 H 0.38093 0.25179 0.09971 0.0
H31 H 0.32161 0.46228 0.15227 0.0
H32 H 0.30177 0.36539 0.07909 0.0
C33 C 1.04489 0.91993 0.23909 0.0
C34 C 1.04974 0.90534 0.27494 0.0
N35 N 1.03178 0.90938 0.29698 0.0
N36 N 1.02398 0.93319 0.23879 0.0
C37 C 1.01639 0.92618 0.27451 0.0
H38 H 0.05636 0.92367 0.2157 0.0
Co39 Co 1.01179 0.96716 0.20214 0.0
C40 C 0.96883 0.92174 0.19556 0.0
O41 O 0.97415 0.90787 0.16169 0.0
N42 N 0.99981 1.00381 0.16618 0.0
C43 C 0.97926 0.03716 0.12405 0.0
C44 C 0.98304 1.00073 0.141 0.0
C45 C 1.00612 0.04236 0.1632 0.0
N46 N 0.99387 0.06333 0.13807 0.0
O47 O 1.00911 1.00657 0.24154 0.0
H48 H 0.97368 0.97429 0.13544 0.0
H49 H 1.01889 0.05554 0.18036 0.0
O50 O 0.98169 0.94568 0.21346 0.0
C51 C 1.02863 1.01978 0.2455 0.0
O52 O 1.04366 1.00783 0.22099 0.0
N53 N 1.01785 0.92914 0.16348 0.0
C54 C 1.03768 0.87524 0.11322 0.0
C55 C 1.0262 0.86176 0.14544 0.0
C56 C 1.01672 0.8891 0.17047 0.0
C57 C 1.02913 0.94271 0.13227 0.0
C58 C 1.03891 0.91626 0.10649 0.0
H59 H 1.00889 0.87805 0.19617 0.0
H60 H 1.03152 0.97426 0.12808 0.0
H61 H 1.00073 0.93688 0.28495 0.0
H62 H 0.06561 0.8952 0.28489 0.0
H63 H 0.96654 0.04403 0.10344 0.0
H64 H 1.02507 0.83028 0.15183 0.0
H65 H 1.04753 0.92785 0.08175 0.0
C66 C 0.30486 0.91865 0.0144 0.0
C67 C 0.29995 0.90299 0.97897 0.0
N68 N 0.31791 0.90607 0.95685 0.0
N69 N 0.32582 0.93154 0.01434 0.0
C70 C 0.3333 0.92363 0.97872 0.0
H71 H 0.29348 0.92292 0.03785 0.0
Co72 Co 0.3387 0.96457 0.05092 0.0
C73 C 0.38088 0.91671 0.05776 0.0
O74 O 0.37557 0.90445 0.09222 0.0
N75 N 0.3514 1.00052 0.08687 0.0
C76 C 0.37401 0.03581 0.12387 0.0
C77 C 0.37021 0.99923 0.10736 0.0
C78 C 0.34396 0.03814 0.09238 0.0
N79 N 0.35749 0.06039 0.11424 0.0
O80 O 0.34222 1.00384 0.01167 0.0
H81 H 0.38128 0.9744 0.10911 0.0
H82 H 0.32949 0.0499 0.0788 0.0
O83 O 0.36837 0.94106 0.03951 0.0
C84 C 0.32354 1.02073 0.00843 0.0
O85 O 0.30754 1.00963 0.03127 0.0
N86 N 0.33207 0.92688 0.08967 0.0
C87 C 0.31314 0.87399 0.14184 0.0
C88 C 0.32399 0.85984 0.10922 0.0
C89 C 0.33292 0.88673 0.0831 0.0
C90 C 0.32124 0.94106 0.12112 0.0
C91 C 0.31183 0.91512 0.14777 0.0
H92 H 0.34036 0.87523 0.05722 0.0
H93 H 0.31902 0.9727 0.125 0.0
H94 H 0.34903 0.93358 0.96802 0.0
H95 H 0.28408 0.89262 0.96936 0.0
H96 H 0.38826 0.04408 0.14055 0.0
H97 H 0.32512 0.82822 0.10351 0.0
H98 H 0.30354 0.92712 0.17268 0.0
C99 C 1.04873 0.37123 0.01407 0.0
C100 C 0.05315 0.38704 0.97855 0.0
N101 N 1.03453 0.38658 0.95769 0.0
N102 N 1.02736 0.36131 0.01577 0.0
C103 C 1.01908 0.37143 0.98127 0.0
H104 H 0.06061 0.36474 0.03625 0.0
Co105 Co 1.01443 0.32829 0.05203 0.0
C106 C 0.97352 0.37973 0.06122 0.0
O107 O 0.97988 0.39262 0.0949 0.0
N108 N 1.00156 0.29257 0.08756 0.0
C109 C 0.97944 0.25914 0.12688 0.0
C110 C 0.98376 0.29561 0.11044 0.0
C111 C 1.00792 0.25414 0.0914 0.0
N112 N 0.99467 0.233 0.11476 0.0
O113 O 1.00917 0.29046 0.01184 0.0
H114 H 0.97392 0.3219 0.11428 0.0
H115 H 1.02149 0.24134 0.07594 0.0
O116 O 0.98515 0.35414 0.04285 0.0
C117 C 1.02728 0.27246 0.00557 0.0
O118 O 1.04437 0.28095 0.02695 0.0
N119 N 1.02283 0.36413 0.09152 0.0
C120 C 1.04539 0.41208 0.14402 0.0
C121 C 1.03441 0.42905 0.11272 0.0
C122 C 1.02355 0.40455 0.08648 0.0
C123 C 1.03373 0.34728 0.12164 0.0
C124 C 1.04479 0.37066 0.14842 0.0
H125 H 1.01601 0.41808 0.06161 0.0
H126 H 1.03489 0.31533 0.12417 0.0
H127 H 1.00228 0.36567 0.97313 0.0
H128 H 0.06917 0.39545 0.96797 0.0
H129 H 0.96581 0.25219 0.1456 0.0
H130 H 1.03423 0.46095 0.10844 0.0
H131 H 0.05336 0.35629 0.17186 0.0
C132 C 0.79542 0.66864 0.76943 0.0
C133 C 0.80036 0.65406 0.73361 0.0
N134 N 0.78254 0.6585 0.71121 0.0
N135 N 0.77457 0.68216 0.76944 0.0
C136 C 0.76713 0.67539 0.73363 0.0
H137 H 0.80675 0.67203 0.79304 0.0
Co138 Co 0.76205 0.71603 0.80565 0.0
C139 C 0.71886 0.67136 0.81158 0.0
O140 O 0.7238 0.65804 0.84582 0.0
N141 N 0.74972 0.75255 0.84124 0.0
C142 C 0.73016 0.78527 0.88528 0.0
C143 C 0.73456 0.74855 0.86928 0.0
C144 C 0.75449 0.79189 0.84156 0.0
N145 N 0.74255 0.81256 0.86727 0.0
O146 O 0.75966 0.75544 0.76582 0.0
H147 H 0.72704 0.72105 0.87794 0.0
H148 H 0.76668 0.80547 0.82344 0.0
O149 O 0.73205 0.69464 0.79357 0.0
C150 C 0.77918 0.76851 0.76154 0.0
O151 O 0.79419 0.75757 0.78649 0.0
N152 N 0.76768 0.67785 0.84448 0.0
C153 C 0.7862 0.62319 0.89563 0.0
C154 C 0.77543 0.61019 0.86248 0.0
C155 C 0.7664 0.63787 0.83725 0.0
C156 C 0.77865 0.69101 0.87616 0.0
C157 C 0.78776 0.66418 0.90238 0.0
H158 H 0.75886 0.62713 0.81119 0.0
H159 H 0.78124 0.72249 0.88049 0.0
H160 H 0.75155 0.68639 0.72315 0.0
H161 H 0.81618 0.64325 0.7241 0.0
H162 H 0.71842 0.79154 0.90776 0.0
H163 H 0.7745 0.57885 0.85544 0.0
H164 H 0.7962 0.67544 0.92744 0.0
C165 C 0.06356 0.14492 0.76972 0.0
C166 C 0.05866 0.16112 0.73444 0.0
N167 N 0.06846 0.13873 0.70758 0.0
N168 N 0.07682 0.11288 0.7651 0.0
C169 C 0.07933 0.11006 0.72661 0.0
H170 H 0.05732 0.1557 0.79676 0.0
Co171 Co 0.08771 0.07627 0.80197 0.0
C172 C 0.12784 0.12562 0.77894 0.0
O173 O 0.11613 0.15027 0.75814 0.0
N174 N 0.09796 0.03906 0.83814 0.0
C175 C 0.1172 1.00745 0.88315 0.0
C176 C 0.1131 0.04378 0.866 0.0
C177 C 0.09269 1.00005 0.83979 0.0
N178 N 0.10453 0.97989 0.86605 0.0
O179 O 0.09168 0.03724 0.76214 0.0
H180 H 0.12101 0.07165 0.87285 0.0
H181 H 0.0804 0.98633 0.82207 0.0
O182 O 0.11834 0.09666 0.79637 0.0
C183 C 0.07279 0.02158 0.7574 0.0
O184 O 0.05637 0.03484 0.77825 0.0
N185 N 0.08113 0.11164 0.84159 0.0
C186 C 0.06114 0.16146 0.89511 0.0
C187 C 0.08151 0.17154 0.87887 0.0
C188 C 0.09136 0.14605 0.85209 0.0
C189 C 0.06176 0.10087 0.85802 0.0
C190 C 0.05142 0.12537 0.88467 0.0
H191 H 0.10663 0.1548 0.83911 0.0
H192 H 0.05381 0.0737 0.84901 0.0
H193 H 0.08924 0.08777 0.71245 0.0
H194 H 1.04823 0.18656 0.72885 0.0
H195 H 0.12912 1.00154 0.90543 0.0
H196 H 0.0896 0.19909 0.88648 0.0
H197 H 1.03559 0.11672 0.89599 0.0
C198 C 0.79373 0.13148 0.99019 0.0
C199 C 0.79771 0.14822 0.02553 0.0
N200 N 0.78047 0.14024 0.04829 0.0
N201 N 0.77389 0.11366 0.99072 0.0
C202 C 0.76629 0.11943 0.0266 0.0
H203 H 0.80514 0.1301 0.96648 0.0
Co204 Co 0.76215 0.07832 0.95483 0.0
C205 C 0.71926 0.12356 0.94469 0.0
O206 O 0.72477 0.13566 0.91032 0.0
N207 N 0.75029 0.04096 0.91952 0.0
C208 C 0.73327 1.01049 0.87115 0.0
C209 C 0.7378 0.04662 0.88795 0.0
C210 C 0.75318 1.00097 0.92089 0.0
N211 N 0.74304 0.9818 0.89194 0.0
O212 O 0.75862 0.04029 0.99538 0.0
H213 H 0.73271 0.07503 0.87684 0.0
H214 H 0.76291 0.98583 0.94223 0.0
O215 O 0.73212 0.10085 0.96408 0.0
C216 C 0.77804 0.02698 1.00064 0.0
O217 O 0.79363 0.0387 0.97718 0.0
N218 N 0.76923 0.11431 0.91509 0.0
C219 C 0.79019 0.16288 0.86156 0.0
C220 C 0.77776 0.17966 0.89122 0.0
C221 C 0.76763 0.15484 0.91806 0.0
C222 C 0.78201 0.09785 0.88713 0.0
C223 C 0.79232 0.12149 0.85977 0.0
H224 H 0.75902 0.1682 0.94194 0.0
H225 H 0.78506 0.06617 0.88687 0.0
H226 H 0.75139 0.10607 0.03751 0.0
H227 H 0.81278 0.16228 0.03473 0.0
H228 H 0.72341 1.0058 0.84577 0.0
H229 H 0.77601 0.21163 0.89376 0.0
H230 H 0.80238 0.10755 0.83796 0.0
C231 C 0.0538 0.66425 0.98884 0.0
C232 C 1.04922 0.64678 0.02355 0.0
N233 N 0.06718 0.64942 0.04595 0.0
N234 N 0.07458 0.67781 0.98924 0.0
C235 C 0.08234 0.66823 0.02428 0.0
H236 H 1.04222 0.66952 0.96589 0.0
Co237 Co 0.08681 0.71358 0.9543 0.0
C238 C 0.12956 0.66786 0.94474 0.0
O239 O 0.12416 0.65567 0.91034 0.0
N240 N 0.09902 0.75149 0.91986 0.0
C241 C 0.11623 0.78262 0.87205 0.0
C242 C 0.11204 0.74633 0.88886 0.0
C243 C 0.09558 0.79136 0.921 0.0
N244 N 0.10579 0.81089 0.89236 0.0
O245 O 0.09011 0.7507 0.99552 0.0
H246 H 0.11767 0.71811 0.8781 0.0
H247 H 0.08533 0.80613 0.94183 0.0
O248 O 0.11671 0.69079 0.96385 0.0
C249 C 0.07074 0.76453 0.99993 0.0
O250 O 0.05549 0.75384 0.97535 0.0
N251 N 0.07995 0.67832 0.91384 0.0
C252 C 0.05843 0.63045 0.86033 0.0
C253 C 0.0707 0.61328 0.89002 0.0
C254 C 0.08102 0.63774 0.91692 0.0
C255 C 0.0677 0.69524 0.88541 0.0
C256 C 0.05718 0.67195 0.85801 0.0
H257 H 0.08933 0.62406 0.94095 0.0
H258 H 0.06507 0.72704 0.8849 0.0
H259 H 0.09825 0.67755 0.0346 0.0
H260 H 1.03327 0.63626 0.0326 0.0
H261 H 0.12624 0.78776 0.84691 0.0
H262 H 0.07214 0.58128 0.8927 0.0
H263 H 1.04749 0.68629 0.83592 0.0
C264 C 0.30551 0.87758 0.73599 0.0
C265 C 0.3009 0.89322 0.77159 0.0
N266 N 0.31857 0.88774 0.7941 0.0
N267 N 0.32616 0.86305 0.73599 0.0
C268 C 0.33373 0.87005 0.7717 0.0
H269 H 0.294 0.87417 0.71262 0.0
Co270 Co 0.33865 0.82769 0.70071 0.0
C271 C 0.38068 0.87577 0.69154 0.0
O272 O 0.37478 0.88908 0.65775 0.0
N273 N 0.35119 0.79012 0.66638 0.0
C274 C 0.37123 0.75797 0.62276 0.0
C275 C 0.36671 0.79442 0.63906 0.0
C276 C 0.34646 0.75072 0.66566 0.0
N277 N 0.35841 0.73045 0.63956 0.0
O278 O 0.34251 0.79071 0.74203 0.0
H279 H 0.37448 0.82196 0.63126 0.0
H280 H 0.33439 0.7368 0.6839 0.0
O281 O 0.36833 0.85149 0.71007 0.0
C282 C 0.32319 0.77689 0.7467 0.0
O283 O 0.30804 0.78619 0.72138 0.0
N284 N 0.3313 0.86277 0.66006 0.0
C285 C 0.30923 0.91004 0.60641 0.0
C286 C 0.3207 0.9275 0.63684 0.0
C287 C 0.33138 0.90336 0.66364 0.0
C288 C 0.31976 0.84549 0.63094 0.0
C289 C 0.30887 0.86851 0.6036 0.0
H290 H 0.33917 0.9173 0.68802 0.0
H291 H 0.31787 0.81356 0.62985 0.0
H292 H 0.34945 0.85944 0.78193 0.0
H293 H 0.28519 0.90454 0.78115 0.0
H294 H 0.3835 0.75214 0.60105 0.0
H295 H 0.32119 0.95952 0.64017 0.0
H296 H 0.29959 0.85385 0.58123 0.0
C297 C 1.04602 0.43025 0.73856 0.0
C298 C 0.05185 0.41619 0.77415 0.0
N299 N 1.03369 0.415 0.79599 0.0
N300 N 1.02431 0.43803 0.73826 0.0
C301 C 1.01721 0.4283 0.77367 0.0
H302 H 0.05711 0.43712 0.71528 0.0
Co303 Co 1.01011 0.46879 0.70155 0.0
C304 C 0.96899 0.41768 0.69809 0.0
O305 O 0.9748 0.40236 0.66506 0.0
N306 N 0.9961 0.50266 0.66541 0.0
C307 C 0.97292 0.53325 0.62554 0.0
C308 C 0.97832 0.49759 0.64278 0.0
C309 C 1.0014 0.54147 0.66045 0.0
N310 N 0.98741 0.56091 0.63711 0.0
O311 O 1.00616 0.50844 0.74023 0.0
H312 H 0.96935 0.47029 0.63932 0.0
H313 H 1.01482 0.55604 0.67481 0.0
O314 O 0.98106 0.44401 0.71451 0.0
C315 C 1.02436 0.52694 0.7429 0.0
O316 O 1.04012 0.51826 0.71854 0.0
N317 N 1.01704 0.43035 0.6635 0.0
C318 C 1.03594 0.37654 0.612 0.0
C319 C 1.02737 0.36341 0.64699 0.0
C320 C 1.01813 0.39067 0.67233 0.0
C321 C 1.02603 0.44377 0.63004 0.0
C322 C 1.03528 0.41731 0.60365 0.0
H323 H 1.01194 0.37977 0.69941 0.0
H324 H 1.02683 0.47528 0.62411 0.0
H325 H 1.0008 0.43437 0.784 0.0
H326 H 0.06829 0.40945 0.78395 0.0
H327 H 0.9593 0.53838 0.60629 0.0
H328 H 1.02817 0.33233 0.65513 0.0
H329 H 1.04202 0.42868 0.57709 0.0
C330 C 0.30458 0.41583 0.51727 0.0
C331 C 0.30029 0.40016 0.48168 0.0
N332 N 0.31856 0.40316 0.45999 0.0
N333 N 0.32552 0.42838 0.51825 0.0
C334 C 0.33373 0.41973 0.48331 0.0
H335 H 0.29275 0.4207 0.5399 0.0
Co336 Co 0.33717 0.46314 0.55423 0.0
C337 C 0.3812 0.42356 0.5659 0.0
O338 O 0.37652 0.41626 0.60187 0.0
N339 N 0.3488 0.50067 0.59045 0.0
C340 C 0.36262 0.53202 0.64156 0.0
C341 C 0.35754 0.49555 0.62578 0.0
C342 C 0.34869 0.54079 0.58603 0.0
N343 N 0.35712 0.56056 0.61627 0.0
O344 O 0.34022 0.50127 0.5138 0.0
H345 H 0.35923 0.46742 0.64038 0.0
H346 H 0.34169 0.55578 0.56178 0.0
O347 O 0.36735 0.44181 0.54441 0.0
C348 C 0.32134 0.51731 0.50989 0.0
O349 O 0.30577 0.50812 0.53438 0.0
N350 N 0.33071 0.42608 0.59306 0.0
C351 C 0.31084 0.37291 0.64375 0.0
C352 C 0.32524 0.35919 0.6153 0.0
C353 C 0.33464 0.38617 0.58967 0.0
C354 C 0.31631 0.43971 0.62001 0.0
C355 C 0.30646 0.41373 0.64603 0.0
H356 H 0.34447 0.37491 0.56626 0.0
H357 H 0.31188 0.47087 0.62058 0.0
H358 H 0.35018 0.42765 0.47481 0.0
H359 H 0.28441 0.39026 0.47168 0.0
H360 H 0.36947 0.5371 0.66976 0.0
H361 H 0.3287 0.32772 0.61224 0.0
H362 H 0.29545 0.42548 0.66762 0.0
C363 C 1.04659 0.8705 0.51552 0.0
C364 C 0.05108 0.88806 0.48078 0.0
N365 N 1.03265 0.88763 0.4594 0.0
N366 N 1.0254 0.85924 0.51615 0.0
C367 C 1.01735 0.87002 0.48164 0.0
H368 H 0.05834 0.86389 0.53788 0.0
Co369 Co 1.01226 0.82537 0.55164 0.0
C370 C 0.97087 0.876 0.55907 0.0
O371 O 0.97717 0.89103 0.59192 0.0
N372 N 0.99888 0.7891 0.58637 0.0
C373 C 0.97689 0.75885 0.62837 0.0
C374 C 0.9828 0.79485 0.61248 0.0
C375 C 1.00268 0.74938 0.58775 0.0
N376 N 0.98934 0.73022 0.61241 0.0
O377 O 1.0081 0.78781 0.51088 0.0
H378 H 0.9756 0.82315 0.61967 0.0
H379 H 1.01464 0.73415 0.57031 0.0
O380 O 0.98285 0.85021 0.54162 0.0
C381 C 1.02662 0.77018 0.50804 0.0
O382 O 1.04214 0.77954 0.5326 0.0
N383 N 1.01988 0.8609 0.59192 0.0
C384 C 1.04135 0.90818 0.64626 0.0
C385 C 1.03121 0.9255 0.61431 0.0
C386 C 1.02082 0.90134 0.58725 0.0
C387 C 1.03031 0.84368 0.62239 0.0
C388 C 1.04083 0.86674 0.65011 0.0
H389 H 1.01384 0.91519 0.56204 0.0
H390 H 1.0315 0.81169 0.62453 0.0
H391 H 1.00097 0.86261 0.4721 0.0
H392 H 0.06712 0.89727 0.47096 0.0
H393 H 0.96449 0.75423 0.65011 0.0
H394 H 1.03138 0.95744 0.6102 0.0
H395 H 1.04908 0.85215 0.67376 0.0
C396 C 0.79334 0.16024 0.26972 0.0
C397 C 0.79707 0.14368 0.23417 0.0
N398 N 0.78033 0.15407 0.21116 0.0
N399 N 0.77422 0.18056 0.26892 0.0
C400 C 0.76673 0.1762 0.23279 0.0
H401 H 0.80453 0.15972 0.29377 0.0
Co402 Co 0.7632 0.21637 0.30498 0.0
C403 C 0.71867 0.1789 0.31615 0.0
O404 O 0.7228 0.17185 0.35235 0.0
N405 N 0.75196 0.25406 0.34115 0.0
C406 C 0.73882 0.28377 0.39362 0.0
C407 C 0.7436 0.24794 0.37662 0.0
C408 C 0.7521 0.29429 0.33769 0.0
N409 N 0.74439 0.31297 0.36918 0.0
O410 O 0.76089 0.25511 0.26479 0.0
H411 H 0.74206 0.21948 0.39061 0.0
H412 H 0.75847 0.31012 0.31317 0.0
O413 O 0.73293 0.19623 0.29491 0.0
C414 C 0.78065 0.2675 0.26216 0.0
O415 O 0.79483 0.25573 0.28823 0.0
N416 N 0.76941 0.17959 0.34394 0.0
C417 C 0.78993 0.12982 0.39688 0.0
C418 C 0.77484 0.11432 0.37041 0.0
C419 C 0.76495 0.13974 0.34362 0.0
C420 C 0.78477 0.19448 0.36843 0.0
C421 C 0.79497 0.17033 0.39541 0.0
H422 H 0.75446 0.12726 0.32174 0.0
H423 H 0.7897 0.22529 0.36616 0.0
H424 H 0.75243 0.19149 0.22169 0.0
H425 H 0.81168 0.12795 0.22508 0.0
H426 H 0.73201 0.28788 0.42199 0.0
H427 H 0.77094 0.0829 0.37018 0.0
H428 H 0.80716 0.1831 0.41434 0.0
C429 C 0.05473 0.61488 0.26657 0.0
C430 C 1.04885 0.62823 0.23073 0.0
N431 N 0.06695 0.62864 0.2087 0.0
N432 N 0.07643 0.60693 0.26689 0.0
C433 C 0.08345 0.61585 0.23122 0.0
H434 H 1.04364 0.60825 0.28992 0.0
Co435 Co 0.09091 0.57592 0.30319 0.0
C436 C 0.13011 0.62966 0.31321 0.0
O437 O 0.12368 0.63784 0.34824 0.0
N438 N 0.10538 0.54184 0.33882 0.0
C439 C 0.13002 0.50784 0.37312 0.0
C440 C 0.12522 0.54377 0.35616 0.0
C441 C 0.09847 0.50434 0.34644 0.0
N442 N 0.11325 0.48294 0.36651 0.0
O443 O 0.09653 0.5377 0.26344 0.0
H444 H 0.13647 0.56828 0.3551 0.0
H445 H 0.08339 0.49188 0.33559 0.0
O446 O 0.11919 0.60488 0.29261 0.0
C447 C 0.07865 0.51809 0.26061 0.0
O448 O 0.06257 0.52652 0.2844 0.0
N449 N 0.08203 0.61181 0.34229 0.0
C450 C 0.05963 0.66009 0.39461 0.0
C451 C 0.06955 0.67665 0.36213 0.0
C452 C 0.08043 0.65199 0.33609 0.0
C453 C 0.07217 0.59532 0.37362 0.0
C454 C 0.06122 0.61896 0.40042 0.0
H455 H 0.08738 0.66516 0.31055 0.0
H456 H 0.07184 0.56344 0.37729 0.0
H457 H 0.09977 0.60912 0.22083 0.0
H458 H 1.03238 0.63447 0.22081 0.0
H459 H 0.14507 0.50019 0.38784 0.0
H460 H 0.06894 0.70839 0.35687 0.0
H461 H 0.05354 0.60502 0.42499 0.0
C462 C 0.79591 0.62199 0.49056 0.0
C463 C 0.80049 0.63712 0.52622 0.0
N464 N 0.78193 0.63714 0.54756 0.0
N465 N 0.77454 0.61256 0.48899 0.0
C466 C 0.76638 0.62265 0.52357 0.0
H467 H 0.80773 0.61512 0.46839 0.0
Co468 Co 0.76154 0.57863 0.45365 0.0
C469 C 0.72009 0.62866 0.44517 0.0
O470 O 0.72599 0.64149 0.41122 0.0
N471 N 0.74849 0.54221 0.419 0.0
C472 C 0.72621 0.50756 0.38084 0.0
C473 C 0.73039 0.5444 0.39668 0.0
C474 C 0.75517 0.50401 0.41534 0.0
N475 N 0.74168 0.48209 0.39326 0.0
O476 O 0.75729 0.54098 0.49451 0.0
H477 H 0.72026 0.57033 0.39287 0.0
H478 H 0.76962 0.49205 0.42892 0.0
O479 O 0.73214 0.60363 0.46343 0.0
C480 C 0.77578 0.52338 0.49814 0.0
O481 O 0.79177 0.53313 0.47466 0.0
N482 N 0.76923 0.61376 0.41348 0.0
C483 C 0.79078 0.66017 0.3586 0.0
C484 C 0.77991 0.67808 0.38956 0.0
C485 C 0.76961 0.65432 0.41711 0.0
C486 C 0.78042 0.59605 0.38416 0.0
C487 C 0.79111 0.6186 0.35637 0.0
H488 H 0.76223 0.66851 0.44178 0.0
H489 H 0.78217 0.5641 0.38319 0.0
H490 H 0.74957 0.6168 0.53099 0.0
H491 H 0.81676 0.64439 0.53624 0.0
H492 H 0.71232 0.4997 0.36309 0.0
H493 H 0.77953 0.71014 0.39265 0.0
H494 H 0.80017 0.60348 0.33397 0.0
C495 C 0.0546 0.16558 0.48577 0.0
C496 C 1.04978 0.14946 0.52105 0.0
N497 N 0.06656 0.15754 0.54487 0.0
N498 N 0.07444 0.18327 0.48738 0.0
C499 C 0.08128 0.17786 0.52378 0.0
H500 H 1.04373 0.16668 0.46129 0.0
Co501 Co 0.08652 0.21811 0.45152 0.0
C502 C 0.1308 0.17918 0.44226 0.0
O503 O 0.12679 0.17162 0.40611 0.0
N504 N 0.09852 0.25521 0.41568 0.0
C505 C 0.11378 0.28552 0.36525 0.0
C506 C 0.10796 0.24945 0.38096 0.0
C507 C 0.09849 0.29536 0.41972 0.0
N508 N 0.10779 0.31428 0.38983 0.0
O509 O 0.08889 0.25678 0.49154 0.0
H510 H 0.10965 0.22119 0.36665 0.0
H511 H 0.09172 0.31106 0.44397 0.0
O512 O 0.11654 0.19725 0.46301 0.0
C513 C 0.0694 0.27013 0.49536 0.0
O514 O 0.05446 0.25916 0.47036 0.0
N515 N 0.08087 0.18065 0.41281 0.0
C516 C 0.06154 0.12678 0.36236 0.0
C517 C 0.07579 0.11349 0.39123 0.0
C518 C 0.08499 0.14085 0.41663 0.0
C519 C 0.06672 0.19388 0.38531 0.0
C520 C 0.05718 0.16756 0.35933 0.0
H521 H 0.09463 0.12992 0.44043 0.0
H522 H 0.06219 0.22499 0.38429 0.0
H523 H 0.09609 0.19094 0.5353 0.0
H524 H 1.03448 0.1356 0.52931 0.0
H525 H 0.12103 0.29031 0.3373 0.0
H526 H 0.07923 0.08208 0.39487 0.0
H527 H 1.04639 0.17902 0.33728 0.0
C528 C 0.80342 0.37249 0.74047 0.0
C529 C 0.79868 0.38768 0.77617 0.0
N530 N 0.81696 0.38548 0.79764 0.0
N531 N 0.82458 0.36067 0.73974 0.0
C532 C 0.8324 0.36906 0.77502 0.0
H533 H 0.79178 0.36732 0.71761 0.0
Co534 Co 0.83734 0.32688 0.70367 0.0
C535 C 0.87903 0.37587 0.69612 0.0
O536 O 0.87322 0.38934 0.66233 0.0
N537 N 0.8501 0.29037 0.66833 0.0
C538 C 0.87178 0.25715 0.62789 0.0
C539 C 0.86743 0.29363 0.64436 0.0
C540 C 0.84407 0.2517 0.66509 0.0
N541 N 0.85701 0.23075 0.64103 0.0
O542 O 0.84127 0.28858 0.74379 0.0
H543 H 0.87683 0.32022 0.63954 0.0
H544 H 0.83099 0.23844 0.68137 0.0
O545 O 0.86687 0.35082 0.71404 0.0
C546 C 0.82257 0.2719 0.74726 0.0
O547 O 0.80668 0.28277 0.72402 0.0
N548 N 0.83008 0.36337 0.664 0.0
C549 C 0.80868 0.41288 0.61131 0.0
C550 C 0.81953 0.429 0.6431 0.0
C551 C 0.82983 0.40376 0.66939 0.0
C552 C 0.81941 0.34736 0.63323 0.0
C553 C 0.80896 0.37155 0.60628 0.0
H554 H 0.83724 0.41668 0.69464 0.0
H555 H 0.8179 0.3155 0.63033 0.0
H556 H 0.84833 0.3595 0.78518 0.0
H557 H 0.78269 0.39675 0.78651 0.0
H558 H 0.88504 0.25042 0.6083 0.0
H559 H 0.81995 0.46084 0.64779 0.0
H560 H 0.80049 0.35792 0.58237 0.0
C561 C 0.54554 0.91368 0.73902 0.0
C562 C 0.54985 0.89656 0.77411 0.0
N563 N 0.53241 0.90289 0.79687 0.0
N564 N 0.52532 0.93014 0.73972 0.0
C565 C 0.51783 0.92329 0.77553 0.0
H566 H 0.55694 0.91626 0.71538 0.0
Co567 Co 0.51302 0.96556 0.70425 0.0
C568 C 0.47052 0.91884 0.6955 0.0
O569 O 0.47626 0.90511 0.66181 0.0
N570 N 0.5006 1.0031 0.66971 0.0
C571 C 0.48044 0.03444 0.62566 0.0
C572 C 0.48573 0.99807 0.64138 0.0
C573 C 0.50433 0.04286 0.66993 0.0
N574 N 0.49208 0.0626 0.64392 0.0
O575 O 0.5096 1.00309 0.74529 0.0
H576 H 0.47916 0.96998 0.63215 0.0
H577 H 0.51548 0.05755 0.68935 0.0
O578 O 0.4831 0.94278 0.71396 0.0
C579 C 0.52897 1.01666 0.75009 0.0
O580 O 0.54424 1.00649 0.72532 0.0
N581 N 0.51988 0.92981 0.66381 0.0
C582 C 0.54079 0.88138 0.6098 0.0
C583 C 0.52949 0.86452 0.64074 0.0
C584 C 0.51938 0.88925 0.6677 0.0
C585 C 0.53119 0.94646 0.63407 0.0
C586 C 0.54135 0.92284 0.60639 0.0
H587 H 0.51162 0.87577 0.69238 0.0
H588 H 0.53334 0.97832 0.63254 0.0
H589 H 0.50273 0.93567 0.78669 0.0
H590 H 0.5652 0.88333 0.78318 0.0
H591 H 0.46909 0.03969 0.60234 0.0
H592 H 0.5286 0.83254 0.64423 0.0
H593 H 0.55023 0.93693 0.58317 0.0
C594 C 0.80431 0.92414 0.51627 0.0
C595 C 0.79956 0.90872 0.48077 0.0
N596 N 0.81798 0.90926 0.45933 0.0
N597 N 0.82569 0.93402 0.51744 0.0
C598 C 0.83366 0.92428 0.4826 0.0
H599 H 0.79266 0.93022 0.53892 0.0
Co600 Co 0.83869 0.96621 0.55437 0.0
C601 C 0.88054 0.91731 0.56061 0.0
O602 O 0.87481 0.90347 0.5943 0.0
N603 N 0.85147 1.00148 0.59068 0.0
C604 C 0.87355 0.03495 0.63015 0.0
C605 C 0.86949 0.99867 0.61308 0.0
C606 C 0.84474 0.03961 0.59552 0.0
N607 N 0.85792 0.06076 0.61894 0.0
O608 O 0.84247 1.00569 0.51532 0.0
H609 H 0.87971 0.97276 0.61611 0.0
H610 H 0.83103 0.05246 0.58055 0.0
O611 O 0.86829 0.94257 0.543 0.0
C612 C 0.82393 0.023 0.51159 0.0
O613 O 0.80779 1.01289 0.53457 0.0
N614 N 0.83185 0.92803 0.59276 0.0
C615 C 0.81283 0.87427 0.64424 0.0
C616 C 0.82241 0.8609 0.6101 0.0
C617 C 0.83174 0.88813 0.58479 0.0
C618 C 0.82191 0.94163 0.62535 0.0
C619 C 0.81258 0.91523 0.65171 0.0
H620 H 0.83867 0.87704 0.55833 0.0
H621 H 0.82038 0.97319 0.63052 0.0
H622 H 0.85042 0.92989 0.4742 0.0
H623 H 0.78343 0.90033 0.47073 0.0
H624 H 0.88729 0.04205 0.64855 0.0
H625 H 0.82235 0.82965 0.60254 0.0
H626 H 0.80509 0.92682 0.67756 0.0
C627 C 0.5464 0.36734 0.51548 0.0
C628 C 0.5514 0.38285 0.48003 0.0
N629 N 0.53299 0.38293 0.45885 0.0
N630 N 0.52495 0.35754 0.51632 0.0
C631 C 0.51722 0.36736 0.48131 0.0
H632 H 0.55796 0.36081 0.53816 0.0
Co633 Co 0.51172 0.32486 0.55268 0.0
C634 C 0.47042 0.37583 0.55973 0.0
O635 O 0.47667 0.39054 0.59274 0.0
N636 N 0.49849 0.28956 0.58851 0.0
C637 C 0.4765 0.25922 0.63047 0.0
C638 C 0.4815 0.29483 0.61294 0.0
C639 C 0.50374 0.25057 0.59264 0.0
N640 N 0.49046 0.23137 0.61736 0.0
O641 O 0.50725 0.2864 0.51295 0.0
H642 H 0.47294 0.32238 0.61775 0.0
H643 H 0.51668 0.23581 0.57704 0.0
O644 O 0.48231 0.3499 0.54228 0.0
C645 C 0.52558 0.2682 0.50999 0.0
O646 O 0.54142 0.27747 0.53394 0.0
N647 N 0.51951 0.36132 0.59188 0.0
C648 C 0.54043 0.41 0.64564 0.0
C649 C 0.53025 0.42656 0.61335 0.0
C650 C 0.52021 0.40168 0.58648 0.0
C651 C 0.53013 0.34483 0.62248 0.0
C652 C 0.54046 0.36856 0.64983 0.0
H653 H 0.51315 0.41488 0.56102 0.0
H654 H 0.53159 0.31292 0.62505 0.0
H655 H 0.50095 0.35979 0.47126 0.0
H656 H 0.56754 0.39095 0.4697 0.0
H657 H 0.46355 0.25422 0.65113 0.0
H658 H 0.53009 0.45845 0.60885 0.0
H659 H 0.5489 0.35448 0.67355 0.0
C660 C 0.29131 0.65339 0.27097 0.0
C661 C 0.29462 0.63585 0.23575 0.0
N662 N 0.27894 0.64912 0.21179 0.0
N663 N 0.27349 0.67723 0.26909 0.0
C664 C 0.26632 0.67381 0.23267 0.0
H665 H 0.30205 0.65094 0.29552 0.0
Co666 Co 0.2638 0.715 0.30443 0.0
C667 C 0.21755 0.6878 0.31801 0.0
O668 O 0.22067 0.68849 0.35513 0.0
N669 N 0.25412 0.75479 0.34015 0.0
C670 C 0.24449 0.788 0.39305 0.0
C671 C 0.24873 0.75118 0.37768 0.0
C672 C 0.25314 0.79465 0.33391 0.0
N673 N 0.24726 0.81538 0.36544 0.0
O674 O 0.26206 0.75294 0.26354 0.0
H675 H 0.24854 0.72373 0.39379 0.0
H676 H 0.25768 0.80877 0.30731 0.0
O677 O 0.2331 0.69733 0.29512 0.0
C678 C 0.28178 0.76443 0.2581 0.0
O679 O 0.29712 0.75066 0.28105 0.0
N680 N 0.26893 0.67858 0.34391 0.0
C681 C 0.28769 0.62688 0.397 0.0
C682 C 0.2704 0.61412 0.37341 0.0
C683 C 0.2613 0.64049 0.34661 0.0
C684 C 0.28622 0.69072 0.36574 0.0
C685 C 0.29559 0.66565 0.39287 0.0
H686 H 0.24899 0.62979 0.3269 0.0
H687 H 0.29314 0.71998 0.36128 0.0
H688 H 0.25298 0.69125 0.22089 0.0
H689 H 0.30842 0.61741 0.22756 0.0
H690 H 0.24012 0.79419 0.42253 0.0
H691 H 0.26423 0.58399 0.37536 0.0
H692 H 0.30933 0.67614 0.40973 0.0
C693 C 0.55516 0.12331 0.26794 0.0
C694 C 0.55052 0.14178 0.23373 0.0
N695 N 0.5688 0.14154 0.21196 0.0
N696 N 0.5763 0.11159 0.26786 0.0
C697 C 0.58418 0.12304 0.23345 0.0
H698 H 0.54353 0.11644 0.29039 0.0
Co699 Co 0.58926 0.0768 0.30279 0.0
C700 C 0.63063 0.12569 0.3135 0.0
O701 O 0.62454 0.13624 0.3481 0.0
N702 N 0.60212 0.03925 0.33708 0.0
C703 C 0.624 1.00399 0.37559 0.0
C704 C 0.61991 0.04103 0.36017 0.0
C705 C 0.59562 1.00079 0.33975 0.0
N706 N 0.60866 0.97864 0.36262 0.0
O707 O 0.59344 0.03984 0.26147 0.0
H708 H 0.62993 0.06681 0.365 0.0
H709 H 0.5821 0.98853 0.32381 0.0
O710 O 0.61871 0.10194 0.29351 0.0
C711 C 0.57481 0.02292 0.25764 0.0
O712 O 0.5589 0.03292 0.28124 0.0
N713 N 0.5817 0.11185 0.3434 0.0
C714 C 0.55941 0.15981 0.39619 0.0
C715 C 0.57075 0.17684 0.36539 0.0
C716 C 0.5815 0.15238 0.33904 0.0
C717 C 0.5707 0.09493 0.37333 0.0
C718 C 0.55975 0.11835 0.40032 0.0
H719 H 0.58925 0.16603 0.31445 0.0
H720 H 0.56928 0.06298 0.37541 0.0
H721 H 0.60046 0.11554 0.22342 0.0
H722 H 0.53444 0.15148 0.22449 0.0
H723 H 0.6375 0.99617 0.3943 0.0
H724 H 0.57119 0.2088 0.36148 0.0
H725 H 0.55096 0.10404 0.42352 0.0
C726 C 0.29316 0.12689 0.49265 0.0
C727 C 0.29703 0.14298 0.52832 0.0
N728 N 0.27917 0.13673 0.55018 0.0
N729 N 0.2728 0.11119 0.49203 0.0
C730 C 0.26478 0.11746 0.52755 0.0
H731 H 0.30483 0.12479 0.46938 0.0
Co732 Co 0.26029 0.07842 0.45485 0.0
C733 C 0.21895 0.12772 0.44615 0.0
O734 O 0.22474 0.13896 0.4116 0.0
N735 N 0.24767 0.04321 0.41835 0.0
C736 C 0.22552 1.00835 0.38012 0.0
C737 C 0.22868 0.04426 0.3983 0.0
C738 C 0.25573 1.0064 0.41122 0.0
N739 N 0.24256 0.98448 0.38852 0.0
O740 O 0.25594 0.03878 0.49373 0.0
H741 H 0.21699 0.06821 0.39818 0.0
H742 H 0.27079 0.99516 0.42332 0.0
O743 O 0.23089 0.10308 0.46512 0.0
C744 C 0.27458 0.02153 0.49639 0.0
O745 O 0.29069 0.03401 0.47442 0.0
N746 N 0.26803 0.11549 0.41628 0.0
C747 C 0.28903 0.16465 0.36318 0.0
C748 C 0.27784 0.18109 0.39451 0.0
C749 C 0.26773 0.15594 0.42112 0.0
C750 C 0.27939 0.09931 0.38636 0.0
C751 C 0.28965 0.12327 0.35923 0.0
H752 H 0.25994 0.16893 0.44602 0.0
H753 H 0.2815 0.06752 0.38419 0.0
H754 H 0.2492 0.10591 0.53738 0.0
H755 H 0.31234 0.15559 0.53826 0.0
H756 H 0.21105 0.99967 0.36423 0.0
H757 H 0.27692 0.213 0.39845 0.0
H758 H 0.29854 0.10945 0.33585 0.0
C759 C 0.55278 0.67618 0.48971 0.0
C760 C 0.54754 0.66247 0.52568 0.0
N761 N 0.56581 0.66358 0.54722 0.0
N762 N 0.57425 0.68583 0.48886 0.0
C763 C 0.58178 0.67771 0.52437 0.0
H764 H 0.5414 0.68152 0.46648 0.0
Co765 Co 0.58744 0.71663 0.45117 0.0
C766 C 0.62931 0.66734 0.44673 0.0
O767 O 0.62326 0.65111 0.41425 0.0
N768 N 0.60037 0.7505 0.41397 0.0
C769 C 0.62238 0.78181 0.37277 0.0
C770 C 0.6179 0.74608 0.39063 0.0
C771 C 0.59431 0.78894 0.4089 0.0
N772 N 0.60744 0.80876 0.38438 0.0
O773 O 0.59133 0.75718 0.48919 0.0
H774 H 0.62743 0.71932 0.38738 0.0
H775 H 0.58116 0.80302 0.42444 0.0
O776 O 0.61704 0.69338 0.46324 0.0
C777 C 0.57288 0.7748 0.49287 0.0
O778 O 0.55675 0.7648 0.46981 0.0
N779 N 0.58053 0.67726 0.41391 0.0
C780 C 0.56021 0.62216 0.36526 0.0
C781 C 0.56991 0.6099 0.39969 0.0
C782 C 0.58 0.63772 0.42343 0.0
C783 C 0.57063 0.68984 0.38092 0.0
C784 C 0.56072 0.66274 0.35592 0.0
H785 H 0.58696 0.62745 0.45017 0.0
H786 H 0.56949 0.7212 0.37445 0.0
H787 H 0.59803 0.68556 0.5343 0.0
H788 H 0.53135 0.65469 0.53596 0.0
H789 H 0.6359 0.78774 0.3535 0.0
H790 H 0.56926 0.57914 0.40885 0.0
H791 H 0.55325 0.67358 0.32974 0.0
C792 C 0.8036 0.8654 0.24066 0.0
C793 C 0.79841 0.87992 0.27638 0.0
N794 N 0.8168 0.87987 0.29769 0.0
N795 N 0.82513 0.85611 0.23974 0.0
C796 C 0.83276 0.86537 0.27492 0.0
H797 H 0.79217 0.8594 0.21767 0.0
Co798 Co 0.83867 0.82497 0.20255 0.0
C799 C 0.87975 0.8756 0.19671 0.0
O800 O 0.87408 0.88824 0.16253 0.0
N801 N 0.85202 0.79076 0.16584 0.0
C802 C 0.87514 0.75725 0.12815 0.0
C803 C 0.8709 0.79323 0.14563 0.0
C804 C 0.84503 0.75311 0.15928 0.0
N805 N 0.85883 0.73193 0.13693 0.0
O806 O 0.84298 0.785 0.24099 0.0
H807 H 0.88172 0.81843 0.14479 0.0
H808 H 0.8307 0.74043 0.17255 0.0
O809 O 0.86783 0.84999 0.21448 0.0
C810 C 0.82462 0.76699 0.24363 0.0
O811 O 0.80854 0.77782 0.22076 0.0
N812 N 0.83127 0.86329 0.16474 0.0
C813 C 0.81076 0.91675 0.11474 0.0
C814 C 0.82114 0.9303 0.14805 0.0
C815 C 0.83099 0.90315 0.17289 0.0
C816 C 0.82097 0.8496 0.13257 0.0
C817 C 0.81088 0.87586 0.10692 0.0
H818 H 0.83817 0.91421 0.19914 0.0
H819 H 0.81973 0.81803 0.12728 0.0
H820 H 0.84915 0.85829 0.28474 0.0
H821 H 0.78223 0.8879 0.28661 0.0
H822 H 0.88955 0.74986 0.11147 0.0
H823 H 0.82126 0.96164 0.1553 0.0
H824 H 0.80317 0.86422 0.08132 0.0
C825 C 0.54363 0.41688 0.23835 0.0
C826 C 0.54857 0.40102 0.27369 0.0
N827 N 0.5309 0.40532 0.29649 0.0
N828 N 0.52278 0.43039 0.23871 0.0
C829 C 0.5154 0.42253 0.27439 0.0
H830 H 0.555 0.4211 0.21489 0.0
Co831 Co 0.50985 0.46545 0.20369 0.0
C832 C 0.4682 0.41615 0.19479 0.0
O833 O 0.47418 0.40296 0.16101 0.0
N834 N 0.49693 0.50276 0.16959 0.0
C835 C 0.47555 0.53524 0.12815 0.0
C836 C 0.48038 0.49875 0.14409 0.0
C837 C 0.50208 0.54195 0.16787 0.0
N838 N 0.48916 0.5624 0.1434 0.0
O839 O 0.5058 0.50232 0.24512 0.0
H840 H 0.47211 0.47141 0.1373 0.0
H841 H 0.51471 0.55576 0.18497 0.0
O842 O 0.48035 0.44085 0.21323 0.0
C843 C 0.52493 0.51698 0.24985 0.0
O844 O 0.54032 0.5079 0.22491 0.0
N845 N 0.51732 0.43065 0.16294 0.0
C846 C 0.53891 0.38408 0.10817 0.0
C847 C 0.52793 0.36624 0.13896 0.0
C848 C 0.51755 0.39005 0.16637 0.0
C849 C 0.52851 0.44832 0.13362 0.0
C850 C 0.53921 0.42566 0.10582 0.0
H851 H 0.5101 0.37582 0.19094 0.0
H852 H 0.53025 0.48028 0.13267 0.0
H853 H 0.49948 0.43194 0.28469 0.0
H854 H 0.56447 0.39027 0.28289 0.0
H855 H 0.46304 0.54127 0.10691 0.0
H856 H 0.52752 0.33418 0.14205 0.0
H857 H 0.54824 0.44067 0.08334 0.0
C858 C 0.80675 0.41419 0.01901 0.0
C859 C 0.80179 0.39792 0.98394 0.0
N860 N 0.81929 0.40238 0.96072 0.0
N861 N 0.82734 0.42871 0.01806 0.0
C862 C 0.83457 0.42105 0.98224 0.0
H863 H 0.7955 0.41804 0.04272 0.0
Co864 Co 0.83939 0.4641 0.05361 0.0
C865 C 0.88323 0.42107 0.06046 0.0
O866 O 0.87819 0.40707 0.09439 0.0
N867 N 0.85121 0.50201 0.08846 0.0
C868 C 0.87077 0.53532 0.13194 0.0
C869 C 0.86664 0.4985 0.1161 0.0
C870 C 0.84604 0.54127 0.08879 0.0
N871 N 0.85769 0.56217 0.11473 0.0
O872 O 0.84115 0.50269 0.0131 0.0
H873 H 0.87454 0.47126 0.12457 0.0
H874 H 0.83444 0.55487 0.06948 0.0
O875 O 0.86981 0.44384 0.04225 0.0
C876 C 0.82138 0.5149 0.00967 0.0
O877 O 0.80695 0.50348 0.03542 0.0
N878 N 0.83415 0.42675 0.09339 0.0
C879 C 0.81578 0.37348 0.14596 0.0
C880 C 0.82685 0.35956 0.11342 0.0
C881 C 0.83575 0.38658 0.08741 0.0
C882 C 0.82288 0.44071 0.12446 0.0
C883 C 0.81382 0.41462 0.15135 0.0
H884 H 0.84344 0.37515 0.06173 0.0
H885 H 0.81994 0.47225 0.12774 0.0
H886 H 0.85011 0.43169 0.97133 0.0
H887 H 0.78586 0.38695 0.97531 0.0
H888 H 0.88251 0.54185 0.15433 0.0
H889 H 0.82811 0.328 0.10751 0.0
H890 H 0.80512 0.42653 0.17587 0.0
C891 C 0.54585 0.87592 0.01753 0.0
C892 C 0.55017 0.8919 0.98194 0.0
N893 N 0.53263 0.88533 0.95948 0.0
N894 N 0.52552 0.86002 0.01746 0.0
C895 C 0.51796 0.86611 0.98156 0.0
H896 H 0.55729 0.87375 0.04115 0.0
Co897 Co 0.51297 0.82597 0.05386 0.0
C898 C 0.47065 0.87389 0.06031 0.0
O899 O 0.47635 0.88879 0.09354 0.0
N900 N 0.50024 0.78974 0.08934 0.0
C901 C 0.47954 0.75999 0.13359 0.0
C902 C 0.48498 0.79579 0.11687 0.0
C903 C 0.50403 0.74999 0.09062 0.0
N904 N 0.49147 0.73119 0.11678 0.0
O905 O 0.50974 0.78722 0.01395 0.0
H906 H 0.47817 0.82418 0.12474 0.0
H907 H 0.51539 0.73457 0.0721 0.0
O908 O 0.4832 0.84895 0.04293 0.0
C909 C 0.52915 0.77325 0.01071 0.0
O910 O 0.54389 0.78376 0.0363 0.0
N911 N 0.5198 0.86286 0.09331 0.0
C912 C 0.5414 0.91246 0.14541 0.0
C913 C 0.53009 0.92858 0.11408 0.0
C914 C 0.51965 0.90327 0.08809 0.0
C915 C 0.53099 0.84691 0.12358 0.0
C916 C 0.54151 0.87114 0.1503 0.0
H917 H 0.512 0.91613 0.06299 0.0
H918 H 0.53286 0.81506 0.12617 0.0
H919 H 0.50269 0.85398 0.97093 0.0
H920 H 0.56556 0.90451 0.97241 0.0
H921 H 0.46782 0.75556 0.1565 0.0
H922 H 0.5295 0.96043 0.10948 0.0
H923 H 0.55035 0.85756 0.17386 0.0
C924 C 0.29037 0.16003 0.77107 0.0
C925 C 0.29409 0.14309 0.73572 0.0
N926 N 0.27698 0.15202 0.71299 0.0
N927 N 0.27095 0.1794 0.77039 0.0
C928 C 0.26324 0.17398 0.73451 0.0
H929 H 0.30182 0.16074 0.79474 0.0
Co930 Co 0.26038 0.21608 0.80608 0.0
C931 C 0.21603 0.17855 0.82026 0.0
O932 O 0.22063 0.17421 0.8567 0.0
N933 N 0.24979 0.2549 0.84187 0.0
C934 C 0.2383 0.28665 0.89444 0.0
C935 C 0.24211 0.25014 0.87801 0.0
C936 C 0.25053 0.29504 0.83749 0.0
N937 N 0.24384 0.31494 0.869 0.0
O938 O 0.25756 0.25388 0.76512 0.0
H939 H 0.24059 0.22218 0.89291 0.0
H940 H 0.25673 0.30993 0.81233 0.0
O941 O 0.22994 0.19532 0.79779 0.0
C942 C 0.27726 0.26621 0.76089 0.0
O943 O 0.2921 0.25397 0.78561 0.0
N944 N 0.267 0.18008 0.84556 0.0
C945 C 0.28821 0.13006 0.89744 0.0
C946 C 0.27272 0.11472 0.87166 0.0
C947 C 0.26244 0.14025 0.84548 0.0
C948 C 0.28262 0.19492 0.86959 0.0
C949 C 0.29314 0.17064 0.89614 0.0
H950 H 0.25165 0.12781 0.82403 0.0
H951 H 0.28756 0.22571 0.86717 0.0
H952 H 0.2488 0.18878 0.72335 0.0
H953 H 0.30894 0.12822 0.72647 0.0
H954 H 0.23227 0.29182 0.92319 0.0
H955 H 0.26884 0.08329 0.87142 0.0
H956 H 0.30554 0.18329 0.91473 0.0
C957 C 0.55356 0.62237 0.76594 0.0
C958 C 0.54859 0.63982 0.7314 0.0
N959 N 0.56665 0.63875 0.7091 0.0
N960 N 0.57468 0.61049 0.7655 0.0
C961 C 0.58222 0.62075 0.73054 0.0
H962 H 0.5422 0.61648 0.78907 0.0
Co963 Co 0.58788 0.57731 0.80146 0.0
C964 C 0.62996 0.62532 0.80769 0.0
O965 O 0.62455 0.63817 0.84189 0.0
N966 N 0.60083 0.54122 0.83696 0.0
C967 C 0.6228 0.50735 0.87641 0.0
C968 C 0.61864 0.54387 0.8599 0.0
C969 C 0.59434 0.50287 0.84091 0.0
N970 N 0.60747 0.48151 0.86431 0.0
O971 O 0.59112 0.53814 0.76176 0.0
H972 H 0.62859 0.5699 0.86385 0.0
H973 H 0.58082 0.49007 0.82542 0.0
O974 O 0.61751 0.60076 0.78966 0.0
C975 C 0.57238 0.52151 0.75868 0.0
O976 O 0.55656 0.53297 0.78181 0.0
N977 N 0.58151 0.61496 0.84052 0.0
C978 C 0.56278 0.66811 0.89284 0.0
C979 C 0.57258 0.68199 0.85912 0.0
C980 C 0.58173 0.65504 0.83333 0.0
C981 C 0.57139 0.60094 0.87275 0.0
C982 C 0.56217 0.62703 0.89952 0.0
H983 H 0.58873 0.66647 0.80706 0.0
H984 H 0.56961 0.56931 0.87724 0.0
H985 H 0.59841 0.613 0.72024 0.0
H986 H 0.53247 0.64957 0.72245 0.0
H987 H 0.63639 0.50016 0.89515 0.0
H988 H 0.57281 0.71343 0.85229 0.0
H989 H 0.55447 0.61514 0.92505 0.0
C990 C 0.29467 0.63034 0.99081 0.0
C991 C 0.29868 0.64516 0.02695 0.0
N992 N 0.28101 0.63756 0.04878 0.0
N993 N 0.27442 0.61409 0.99004 0.0
C994 C 0.26659 0.61881 0.02591 0.0
H995 H 0.30626 0.62912 0.96736 0.0
Co996 Co 0.26246 0.58086 0.95255 0.0
C997 C 0.21954 0.62638 0.94661 0.0
O998 O 0.22507 0.6411 0.91318 0.0
N999 N 0.25054 0.54506 0.91606 0.0
C1000 C 0.22879 0.51015 0.87722 0.0
C1001 C 0.23267 0.54702 0.89316 0.0
C1002 C 0.25744 0.50696 0.91247 0.0
N1003 N 0.24421 0.48479 0.89005 0.0
O1004 O 0.25993 0.5403 0.99122 0.0
H1005 H 0.22237 0.57269 0.88925 0.0
H1006 H 0.27172 0.49523 0.92679 0.0
O1007 O 0.23229 0.60187 0.96412 0.0
C1008 C 0.27954 0.52746 0.99516 0.0
O1009 O 0.29454 0.5402 0.97101 0.0
N1010 N 0.26838 0.61982 0.91449 0.0
C1011 C 0.28801 0.67447 0.86462 0.0
C1012 C 0.27741 0.68737 0.89802 0.0
C1013 C 0.26767 0.65971 0.92243 0.0
C1014 C 0.27908 0.60677 0.88246 0.0
C1015 C 0.28866 0.63358 0.85687 0.0
H1016 H 0.26014 0.67037 0.94856 0.0
H1017 H 0.2812 0.5753 0.87735 0.0
H1018 H 0.25137 0.60591 0.03591 0.0
H1019 H 0.31394 0.65767 0.0372 0.0
H1020 H 0.21498 0.50212 0.85934 0.0
H1021 H 0.27715 0.71851 0.90595 0.0
H1022 H 0.29682 0.62229 0.83152 0.0
C1023 C 0.554 0.17686 0.99252 0.0
C1024 C 0.54916 0.1635 0.02881 0.0
N1025 N 0.56754 0.16574 0.05 0.0
N1026 N 0.57532 0.18747 0.99114 0.0
C1027 C 0.58317 0.18019 0.02662 0.0
H1028 H 0.5424 0.1814 0.96946 0.0
Co1029 Co 0.58813 0.21863 0.95322 0.0
C1030 C 0.62996 0.16977 0.94768 0.0
O1031 O 0.62407 0.15526 0.91436 0.0
N1032 N 0.60075 0.25291 0.91584 0.0
C1033 C 0.62263 0.28528 0.87516 0.0
C1034 C 0.61852 0.24937 0.8929 0.0
C1035 C 0.59421 0.29109 0.91061 0.0
N1036 N 0.60728 0.31158 0.88646 0.0
O1037 O 0.59185 0.25943 0.99113 0.0
H1038 H 0.62856 0.22321 0.88997 0.0
H1039 H 0.58077 0.30453 0.92585 0.0
O1040 O 0.61781 0.19543 0.96499 0.0
C1041 C 0.57316 0.27634 0.9942 0.0
O1042 O 0.55717 0.26469 0.97157 0.0
N1043 N 0.58127 0.17922 0.91597 0.0
C1044 C 0.56224 0.12385 0.86613 0.0
C1045 C 0.57182 0.11156 0.90065 0.0
C1046 C 0.58118 0.13957 0.9251 0.0
C1047 C 0.57135 0.19178 0.88299 0.0
C1048 C 0.56204 0.16457 0.85743 0.0
H1049 H 0.58815 0.1293 0.95184 0.0
H1050 H 0.56983 0.22317 0.87687 0.0
H1051 H 0.59936 0.18891 0.03614 0.0
H1052 H 0.53315 0.15517 0.03952 0.0
H1053 H 0.63625 0.29182 0.85628 0.0
H1054 H 0.5717 0.08059 0.9092 0.0
H1055 H 0.55458 0.17538 0.83123 0.0
C1056 C 0.30463 0.36311 0.36234 0.0
C1057 C 0.31802 0.38566 0.33797 0.0
C1058 C 0.30566 0.36787 0.40217 0.0
C1059 C 0.31981 0.39595 0.41913 0.0
H1060 H 0.29337 0.34154 0.3504 0.0
H1061 H 0.29507 0.34965 0.4198 0.0
S1062 S 0.35806 0.46261 0.36628 0.0
N1063 N 0.34604 0.43613 0.33246 0.0
N1064 N 0.34756 0.44687 0.40718 0.0
C1065 C 0.33355 0.41835 0.39464 0.0
C1066 C 0.33271 0.41279 0.35407 0.0
C1067 C 1.01782 0.87209 0.39508 0.0
C1068 C 1.03106 0.89598 0.41891 0.0
C1069 C 1.01777 0.87707 0.35517 0.0
C1070 C 1.03101 0.90595 0.33785 0.0
H1071 H 1.00794 0.84856 0.40716 0.0
H1072 H 1.00782 0.85762 0.33761 0.0
S1073 S 0.06591 0.98012 0.38687 0.0
N1074 N 0.05577 0.95271 0.42197 0.0
N1075 N 0.05588 0.96131 0.3468 0.0
C1076 C 1.04352 0.93117 0.36111 0.0
C1077 C 1.0435 0.92637 0.40171 0.0
C1078 C 0.31102 0.92724 0.85213 0.0
C1079 C 0.31923 0.89237 0.83507 0.0
C1080 C 0.31079 0.9317 0.89211 0.0
C1081 C 0.31865 0.90133 0.91612 0.0
H1082 H 0.30479 0.95114 0.83436 0.0
H1083 H 0.30434 0.95885 0.90447 0.0
S1084 S 0.3399 0.80307 0.88631 0.0
N1085 N 0.33412 0.82602 0.84565 0.0
N1086 N 0.33379 0.83492 0.92081 0.0
C1087 C 0.3266 0.86625 0.89967 0.0
C1088 C 0.32688 0.86162 0.85905 0.0
C1089 C 1.0465 0.42398 0.9006 0.0
C1090 C 1.03284 0.39496 0.91721 0.0
C1091 C 1.04664 0.43051 0.86096 0.0
C1092 C 1.0329 0.40865 0.83657 0.0
H1093 H 0.0573 0.44161 0.9184 0.0
H1094 H 0.05747 0.45292 0.8492 0.0
S1095 S 0.99457 0.32861 0.86435 0.0
N1096 N 1.00567 0.3432 0.90517 0.0
N1097 N 1.00549 0.35707 0.83082 0.0
C1098 C 1.01889 0.38019 0.85247 0.0
C1099 C 1.01894 0.37295 0.89278 0.0
C1100 C 0.79904 0.66709 0.64742 0.0
C1101 C 0.78161 0.65396 0.6703 0.0
C1102 C 0.79845 0.66306 0.60753 0.0
C1103 C 0.78061 0.64477 0.5886 0.0
H1104 H 0.81317 0.68107 0.66049 0.0
H1105 H 0.8123 0.6744 0.59167 0.0
S1106 S 0.72991 0.60802 0.63713 0.0
N1107 N 0.74548 0.62449 0.67232 0.0
N1108 N 0.74415 0.6156 0.59759 0.0
C1109 C 0.76264 0.6326 0.61164 0.0
C1110 C 0.76324 0.63742 0.65237 0.0
C1111 C 0.07295 0.17982 0.64975 0.0
C1112 C 0.06725 0.14345 0.6668 0.0
C1113 C 0.07293 0.18414 0.60977 0.0
C1114 C 0.06681 0.1524 0.58573 0.0
H1115 H 0.07784 0.20472 0.66748 0.0
H1116 H 0.07745 0.21259 0.59753 0.0
S1117 S 1.04922 0.05204 0.61673 0.0
N1118 N 0.0546 0.07578 0.65711 0.0
N1119 N 0.05427 0.08403 0.58187 0.0
C1120 C 0.06059 0.11624 0.60257 0.0
C1121 C 0.06093 0.1117 0.64317 0.0
C1122 C 0.77719 0.11387 0.1526 0.0
C1123 C 0.77993 0.15101 0.17026 0.0
C1124 C 0.77688 0.11063 0.11252 0.0
C1125 C 0.77982 0.14436 0.08915 0.0
H1126 H 0.77519 0.0874 0.16996 0.0
H1127 H 0.77483 0.08156 0.09962 0.0
S1128 S 0.78809 0.24794 0.12187 0.0
N1129 N 0.78561 0.22191 0.16184 0.0
N1130 N 0.78574 0.21562 0.0864 0.0
C1131 C 0.7828 0.18148 0.10657 0.0
C1132 C 0.78266 0.18487 0.14723 0.0
C1133 C 0.08044 0.66209 0.15069 0.0
C1134 C 0.06761 0.63247 0.16783 0.0
C1135 C 0.08063 0.66696 0.11076 0.0
C1136 C 0.06825 0.64185 0.08664 0.0
H1137 H 0.08989 0.68219 0.16842 0.0
H1138 H 0.09001 0.69132 0.09889 0.0
S1139 S 1.03434 0.55624 0.11822 0.0
N1140 N 1.04363 0.57587 0.15844 0.0
N1141 N 1.04453 0.58376 0.08326 0.0
C1142 C 0.05613 0.61092 0.1037 0.0
C1143 C 0.05569 0.60651 0.14433 0.0
C1144 C 0.83077 0.42338 0.89569 0.0
C1145 C 0.81973 0.39627 0.91979 0.0
C1146 C 0.83003 0.4195 0.85565 0.0
C1147 C 0.81802 0.38878 0.83851 0.0
H1148 H 0.83954 0.44839 0.90774 0.0
H1149 H 0.83848 0.44102 0.8379 0.0
S1150 S 0.78803 0.30809 0.88793 0.0
N1151 N 0.7979 0.3358 0.92301 0.0
N1152 N 0.79603 0.32959 0.84772 0.0
C1153 C 0.80737 0.36105 0.86196 0.0
C1154 C 0.80831 0.36457 0.90264 0.0
C1155 C 0.53273 0.92734 0.90171 0.0
C1156 C 0.53192 0.88946 0.91861 0.0
C1157 C 0.53242 0.93162 0.86168 0.0
C1158 C 0.53186 0.89807 0.83763 0.0
H1159 H 0.5335 0.95362 0.9196 0.0
H1160 H 0.53303 0.96117 0.84934 0.0
S1161 S 0.53049 0.79267 0.86795 0.0
N1162 N 0.5307 0.81805 0.90852 0.0
N1163 N 0.53098 0.82615 0.83322 0.0
C1164 C 0.53136 0.86017 0.85419 0.0
C1165 C 0.53116 0.85584 0.8948 0.0
C1166 C 0.80465 0.87266 0.40265 0.0
C1167 C 0.81928 0.9004 0.41884 0.0
C1168 C 0.80398 0.866 0.36307 0.0
C1169 C 0.81814 0.88634 0.33821 0.0
H1170 H 0.79347 0.85613 0.42071 0.0
H1171 H 0.79236 0.8447 0.35171 0.0
S1172 S 0.85942 0.96191 0.36463 0.0
N1173 N 0.84817 0.94879 0.40579 0.0
N1174 N 0.84722 0.9347 0.33154 0.0
C1175 C 0.8332 0.91327 0.35364 0.0
C1176 C 0.83373 0.92067 0.39393 0.0
C1177 C 0.54064 0.3659 0.35361 0.0
C1178 C 0.53041 0.39945 0.33737 0.0
C1179 C 0.54135 0.36056 0.39346 0.0
C1180 C 0.53178 0.38853 0.41824 0.0
H1181 H 0.54815 0.3437 0.33531 0.0
H1182 H 0.54937 0.33444 0.40512 0.0
S1183 S 0.50472 0.48282 0.39098 0.0
N1184 N 0.5118 0.46234 0.34974 0.0
N1185 N 0.51267 0.45131 0.42461 0.0
C1186 C 0.52163 0.42215 0.40266 0.0
C1187 C 0.52104 0.42788 0.36216 0.0
C1188 C 0.2783 0.68001 0.14782 0.0
C1189 C 0.27889 0.6456 0.17084 0.0
C1190 C 0.2791 0.67726 0.10775 0.0
C1191 C 0.28 0.64005 0.08968 0.0
H1192 H 0.27769 0.70917 0.16099 0.0
H1193 H 0.27892 0.7042 0.09071 0.0
S1194 S 0.28182 0.54143 0.13689 0.0
N1195 N 0.2807 0.57351 0.17274 0.0
N1196 N 0.2815 0.56835 0.09723 0.0
C1197 C 0.28041 0.60554 0.11228 0.0
C1198 C 0.28006 0.60832 0.15299 0.0
C1199 C 0.58265 0.13306 0.10716 0.0
C1200 C 0.56896 0.16191 0.09077 0.0
C1201 C 0.58317 0.12752 0.14699 0.0
C1202 C 0.57007 0.15084 0.17164 0.0
H1203 H 0.59247 0.11398 0.08894 0.0
H1204 H 0.59334 0.10395 0.15832 0.0
S1205 S 0.53451 0.2352 0.1422 0.0
N1206 N 0.54402 0.21698 0.10148 0.0
N1207 N 0.54525 0.2074 0.17649 0.0
C1208 C 0.55731 0.18141 0.15538 0.0
C1209 C 0.55668 0.18674 0.11487 0.0
C1210 C 0.2702 0.11036 0.61426 0.0
C1211 C 0.27764 0.14183 0.59098 0.0
C1212 C 0.26991 0.11384 0.65432 0.0
C1213 C 0.27669 0.14909 0.6721 0.0
H1214 H 0.26513 0.08257 0.60142 0.0
H1215 H 0.26452 0.08891 0.67155 0.0
S1216 S 0.29631 0.24072 0.62439 0.0
N1217 N 0.29123 0.20966 0.58876 0.0
N1218 N 0.29029 0.21633 0.66417 0.0
C1219 C 0.28366 0.18101 0.64931 0.0
C1220 C 0.28425 0.17733 0.60865 0.0
C1221 C 0.58013 0.62958 0.60425 0.0
C1222 C 0.56688 0.65915 0.58795 0.0
C1223 C 0.58042 0.62365 0.64402 0.0
C1224 C 0.5677 0.64759 0.66871 0.0
H1225 H 0.58977 0.61025 0.58597 0.0
H1226 H 0.59011 0.59932 0.65531 0.0
S1227 S 0.53268 0.73278 0.63946 0.0
N1228 N 0.54218 0.71457 0.59873 0.0
N1229 N 0.54326 0.7047 0.67369 0.0
C1230 C 0.5552 0.67856 0.65253 0.0
C1231 C 0.55467 0.68406 0.61206 0.0
C1232 C 0.41728 0.3538 0.20706 0.0
C1233 C 0.40066 0.38276 0.20807 0.0
C1234 C 0.43953 0.36487 0.20659 0.0
C1235 C 0.44592 0.40515 0.20798 0.0
H1236 H 0.41308 0.32278 0.20295 0.0
H1237 H 0.45179 0.3419 0.20241 0.0
S1238 S 0.40865 0.49187 0.21496 0.0
N1239 N 0.39205 0.45309 0.21329 0.0
N1240 N 0.43383 0.47366 0.2137 0.0
C1241 C 0.4295 0.43405 0.21238 0.0
C1242 C 0.40686 0.42287 0.21204 0.0
C1243 C 0.94075 0.87078 0.21169 0.0
C1244 C 0.94676 0.91124 0.21004 0.0
C1245 C 0.9186 0.85907 0.2124 0.0
C1246 C 0.90172 0.88749 0.2106 0.0
H1247 H 0.95325 0.84794 0.20946 0.0
H1248 H 0.91473 0.82768 0.21052 0.0
S1249 S 0.90869 0.99708 0.20944 0.0
N1250 N 0.93403 0.9796 0.21019 0.0
N1251 N 0.89244 0.95777 0.21032 0.0
C1252 C 0.90753 0.928 0.21175 0.0
C1253 C 0.93005 0.93988 0.21181 0.0
C1254 C 0.41964 0.9353 0.04446 0.0
C1255 C 0.40313 0.90622 0.04415 0.0
C1256 C 0.44192 0.92442 0.04582 0.0
C1257 C 0.44846 0.88416 0.04609 0.0
H1258 H 0.41531 0.96643 0.04745 0.0
H1259 H 0.45405 0.94762 0.04948 0.0
S1260 S 0.41156 0.79697 0.04139 0.0
N1261 N 0.39481 0.83568 0.04127 0.0
N1262 N 0.43666 0.81539 0.04254 0.0
C1263 C 0.43218 0.855 0.04231 0.0
C1264 C 0.4095 0.86602 0.04172 0.0
C1265 C 0.935 0.36259 0.04266 0.0
C1266 C 0.95126 0.39159 0.04828 0.0
C1267 C 0.91261 0.37303 0.04242 0.0
C1268 C 0.90576 0.41288 0.0467 0.0
H1269 H 0.93944 0.33137 0.04204 0.0
H1270 H 0.90051 0.34945 0.04172 0.0
S1271 S 0.94205 0.50027 0.05777 0.0
N1272 N 0.95907 0.46207 0.0551 0.0
N1273 N 0.91713 0.48157 0.05343 0.0
C1274 C 0.92194 0.44237 0.04895 0.0
C1275 C 0.94466 0.43173 0.05005 0.0
C1276 C 0.69106 0.61969 0.79604 0.0
C1277 C 0.69707 0.6602 0.79624 0.0
C1278 C 0.66893 0.60795 0.79444 0.0
C1279 C 0.65205 0.6364 0.79375 0.0
H1280 H 0.70348 0.59699 0.80015 0.0
H1281 H 0.665 0.5767 0.79767 0.0
S1282 S 0.65907 0.74592 0.79037 0.0
N1283 N 0.6844 0.72845 0.79205 0.0
N1284 N 0.64283 0.7066 0.7902 0.0
C1285 C 0.65791 0.67681 0.79105 0.0
C1286 C 0.68044 0.68869 0.79196 0.0
C1287 C 0.16096 0.16955 0.76914 0.0
C1288 C 0.15145 0.13552 0.7863 0.0
C1289 C 0.18229 0.18236 0.77859 0.0
C1290 C 0.1949 0.162 0.80598 0.0
H1291 H 0.15166 0.18726 0.74892 0.0
H1292 H 0.18853 0.20938 0.76564 0.0
S1293 S 0.17934 0.06823 0.85534 0.0
N1294 N 0.15776 0.07934 0.82883 0.0
N1295 N 0.19734 0.1039 0.8473 0.0
C1296 C 0.18612 0.1269 0.8219 0.0
C1297 C 0.16458 0.11354 0.81189 0.0
C1298 C 0.66907 0.18783 0.95809 0.0
C1299 C 0.65227 0.15948 0.9611 0.0
C1300 C 0.69121 0.17604 0.95659 0.0
C1301 C 0.69733 0.13563 0.95883 0.0
H1302 H 0.66503 0.21882 0.95315 0.0
H1303 H 0.70354 0.19847 0.9509 0.0
S1304 S 0.6596 0.05041 0.97099 0.0
N1305 N 0.64326 0.08964 0.96912 0.0
N1306 N 0.68487 0.06776 0.96757 0.0
C1307 C 0.6808 0.10743 0.96524 0.0
C1308 C 0.65825 0.11932 0.96599 0.0
C1309 C 0.16794 0.68587 0.96237 0.0
C1310 C 0.15163 0.65665 0.9588 0.0
C1311 C 0.19029 0.67536 0.96256 0.0
C1312 C 0.19706 0.63531 0.96012 0.0
H1313 H 0.16352 0.71709 0.96131 0.0
H1314 H 0.20241 0.6989 0.96172 0.0
S1315 S 0.1606 0.54758 0.95472 0.0
N1316 N 0.14364 0.58597 0.95585 0.0
N1317 N 0.18558 0.56634 0.95747 0.0
C1318 C 0.18085 0.60577 0.96004 0.0
C1319 C 0.15814 0.61645 0.95902 0.0
C1320 C 0.43151 0.93834 0.70442 0.0
C1321 C 0.44802 0.90947 0.70845 0.0
C1322 C 0.40929 0.92734 0.70255 0.0
C1323 C 0.40277 0.88721 0.70536 0.0
H1324 H 0.43589 0.96909 0.69908 0.0
H1325 H 0.39722 0.95013 0.69626 0.0
S1326 S 0.43961 0.8009 0.72001 0.0
N1327 N 0.45633 0.8395 0.71785 0.0
N1328 N 0.41454 0.81907 0.71564 0.0
C1329 C 0.41898 0.85854 0.71269 0.0
C1330 C 0.44163 0.86964 0.71383 0.0
C1331 C 0.93988 0.36825 0.71328 0.0
C1332 C 0.94654 0.40837 0.71149 0.0
C1333 C 0.91755 0.35768 0.71302 0.0
C1334 C 0.90116 0.38691 0.70996 0.0
H1335 H 0.95206 0.34476 0.71204 0.0
H1336 H 0.91322 0.32646 0.7115 0.0
S1337 S 0.90982 0.49608 0.7077 0.0
N1338 N 0.93485 0.47734 0.71006 0.0
N1339 N 0.89298 0.45762 0.70823 0.0
C1340 C 0.90756 0.42712 0.71082 0.0
C1341 C 0.93025 0.43786 0.71198 0.0
C1342 C 0.40895 0.36981 0.55728 0.0
C1343 C 0.40282 0.40983 0.5516 0.0
C1344 C 0.43101 0.35763 0.55489 0.0
C1345 C 0.44776 0.38525 0.54749 0.0
H1346 H 0.39677 0.34826 0.56619 0.0
H1347 H 0.43514 0.32725 0.56241 0.0
S1348 S 0.44028 0.49284 0.52794 0.0
N1349 N 0.41512 0.47629 0.53529 0.0
N1350 N 0.45661 0.45379 0.53212 0.0
C1351 C 0.44169 0.42479 0.53943 0.0
C1352 C 0.41919 0.437 0.54109 0.0
C1353 C 0.91914 0.93623 0.54546 0.0
C1354 C 0.90281 0.90684 0.54695 0.0
C1355 C 0.94151 0.92579 0.54566 0.0
C1356 C 0.9483 0.88567 0.54638 0.0
H1357 H 0.91468 0.96736 0.5478 0.0
H1358 H 0.95358 0.9493 0.54789 0.0
S1359 S 0.91186 0.79769 0.54641 0.0
N1360 N 0.89488 0.83607 0.54643 0.0
N1361 N 0.93684 0.81662 0.54542 0.0
C1362 C 0.93212 0.85613 0.54451 0.0
C1363 C 0.90938 0.86671 0.54519 0.0
C1364 C 0.65753 0.18029 0.30414 0.0
C1365 C 0.65247 0.13956 0.3006 0.0
C1366 C 0.67935 0.19372 0.3044 0.0
C1367 C 0.69692 0.16683 0.30153 0.0
H1368 H 0.64455 0.20162 0.30959 0.0
H1369 H 0.6825 0.22486 0.31025 0.0
S1370 S 0.69258 0.05759 0.28935 0.0
N1371 N 0.66683 0.07289 0.29151 0.0
N1372 N 0.70787 0.09799 0.29283 0.0
C1373 C 0.69208 0.12641 0.29549 0.0
C1374 C 0.66983 0.11279 0.2947 0.0
C1375 C 0.17772 0.70055 0.31126 0.0
C1376 C 0.19568 0.67548 0.30404 0.0
C1377 C 0.15615 0.68612 0.30991 0.0
C1378 C 0.15167 0.64599 0.30142 0.0
H1379 H 0.18044 0.73084 0.32075 0.0
H1380 H 0.14294 0.70587 0.31836 0.0
S1381 S 0.19295 0.56863 0.27831 0.0
N1382 N 0.20764 0.60914 0.28605 0.0
N1383 N 0.16701 0.58193 0.28352 0.0
C1384 C 0.16939 0.62123 0.2915 0.0
C1385 C 0.19145 0.63599 0.29293 0.0
C1386 C 0.6817 0.60959 0.46212 0.0
C1387 C 0.69772 0.63933 0.45832 0.0
C1388 C 0.65923 0.61933 0.4622 0.0
C1389 C 0.65204 0.65913 0.45953 0.0
H1390 H 0.68644 0.57851 0.46146 0.0
H1391 H 0.64736 0.59537 0.46169 0.0
S1392 S 0.68761 0.74805 0.45335 0.0
N1393 N 0.70496 0.71024 0.45471 0.0
N1394 N 0.66283 0.72846 0.4563 0.0
C1395 C 0.66795 0.68921 0.45911 0.0
C1396 C 0.69078 0.67929 0.4581 0.0
C1397 C 0.1796 0.11261 0.45858 0.0
C1398 C 0.19693 0.1401 0.45935 0.0
C1399 C 0.15765 0.1256 0.45722 0.0
C1400 C 0.15233 0.16641 0.45741 0.0
H1401 H 0.18305 0.08115 0.45528 0.0
H1402 H 0.14486 0.10369 0.45303 0.0
S1403 S 0.19166 0.24991 0.46308 0.0
N1404 N 0.20729 0.20968 0.46297 0.0
N1405 N 0.16607 0.23389 0.46156 0.0
C1406 C 0.16942 0.19392 0.46145 0.0
C1407 C 0.19174 0.18078 0.46213 0.0
C1408 C 0.37567 0.12605 0.11909 0.0
C1409 C 0.35642 0.10295 0.12032 0.0
C1410 C 0.37499 0.16758 0.12352 0.0
C1411 C 0.35507 0.18778 0.12973 0.0
H1412 H 0.39139 0.11197 0.11411 0.0
H1413 H 0.39027 0.18392 0.12278 0.0
S1414 S 0.29997 0.14124 0.13537 0.0
N1415 N 0.31686 0.10345 0.12851 0.0
N1416 N 0.31551 0.18143 0.13609 0.0
C1417 C 0.33567 0.16507 0.13088 0.0
C1418 C 0.33637 0.12276 0.12629 0.0
C1419 C 0.9749 0.12762 0.12805 0.0
C1420 C 0.99451 0.10576 0.13135 0.0
C1421 C 0.9751 0.1691 0.1232 0.0
C1422 C 0.99492 0.19043 0.12102 0.0
H1423 H 0.95924 0.11259 0.12989 0.0
H1424 H 0.95958 0.18453 0.12058 0.0
S1425 S 0.05083 0.14708 0.12722 0.0
N1426 N 1.03432 0.10842 0.13124 0.0
N1427 N 1.03472 0.18634 0.12264 0.0
C1428 C 1.01467 0.16887 0.124 0.0
C1429 C 1.01445 0.12662 0.12911 0.0
C1430 C 0.74114 0.91261 0.91607 0.0
C1431 C 0.7428 0.93941 0.88514 0.0
C1432 C 0.7408 0.87126 0.91005 0.0
C1433 C 0.74246 0.85514 0.87295 0.0
H1434 H 0.73986 0.92375 0.9451 0.0
H1435 H 0.73956 0.85171 0.93463 0.0
S1436 S 0.74724 0.91245 0.78231 0.0
N1437 N 0.74636 0.94676 0.81614 0.0
N1438 N 0.74538 0.86935 0.80477 0.0
C1439 C 0.74411 0.88164 0.8418 0.0
C1440 C 0.74433 0.92367 0.84791 0.0
C1441 C 0.10702 0.92164 0.90939 0.0
C1442 C 0.10477 0.93735 0.87219 0.0
C1443 C 0.10712 0.88034 0.91582 0.0
C1444 C 0.10539 0.8532 0.88522 0.0
H1445 H 0.10843 0.94148 0.93371 0.0
H1446 H 0.10886 0.86948 0.94489 0.0
S1447 S 0.09919 0.87884 0.78237 0.0
N1448 N 0.10098 0.92224 0.80427 0.0
N1449 N 0.10091 0.84495 0.81652 0.0
C1450 C 0.10317 0.86848 0.84793 0.0
C1451 C 0.1029 0.91044 0.84138 0.0
C1452 C 0.35526 0.66142 0.66384 0.0
C1453 C 0.35828 0.68793 0.63302 0.0
C1454 C 0.35525 0.62001 0.65827 0.0
C1455 C 0.35813 0.6033 0.62158 0.0
H1456 H 0.35309 0.67277 0.69264 0.0
H1457 H 0.35258 0.60098 0.68285 0.0
S1458 S 0.3666 0.65983 0.53119 0.0
N1459 N 0.36382 0.69449 0.56436 0.0
N1460 N 0.36462 0.61695 0.55397 0.0
C1461 C 0.3613 0.62955 0.59051 0.0
C1462 C 0.36122 0.67172 0.59621 0.0
C1463 C 1.0073 0.62365 0.62474 0.0
C1464 C 0.98736 0.60319 0.62946 0.0
C1465 C 1.0078 0.66502 0.61917 0.0
C1466 C 0.98839 0.68774 0.61871 0.0
H1467 H 1.02267 0.60746 0.62521 0.0
H1468 H 1.02354 0.67946 0.61571 0.0
S1469 S 0.93186 0.64866 0.62974 0.0
N1470 N 0.94768 0.60893 0.6335 0.0
N1471 N 0.94861 0.68652 0.62264 0.0
C1472 C 0.96832 0.66768 0.62332 0.0
C1473 C 0.9678 0.62548 0.62869 0.0
C1474 C 0.7372 0.42293 0.35181 0.0
C1475 C 0.74237 0.43957 0.38768 0.0
C1476 C 0.73799 0.38159 0.34591 0.0
C1477 C 0.74364 0.35535 0.37582 0.0
H1478 H 0.73279 0.4421 0.32807 0.0
H1479 H 0.73392 0.37 0.31785 0.0
S1480 S 0.75817 0.38389 0.47541 0.0
N1481 N 0.75274 0.42647 0.45382 0.0
N1482 N 0.75478 0.34918 0.44249 0.0
C1483 C 0.74874 0.37166 0.41186 0.0
C1484 C 0.74799 0.41364 0.41783 0.0
C1485 C 0.09171 0.38172 0.39281 0.0
C1486 C 0.10961 0.35665 0.38457 0.0
C1487 C 0.09304 0.423 0.38702 0.0
C1488 C 0.11247 0.44073 0.3737 0.0
H1489 H 0.07646 0.36916 0.40304 0.0
H1490 H 0.07882 0.44128 0.3931 0.0
S1491 S 0.16406 0.38812 0.34864 0.0
N1492 N 0.14734 0.35243 0.36286 0.0
N1493 N 0.14996 0.42995 0.35224 0.0
C1494 C 0.13056 0.416 0.36584 0.0
C1495 C 0.12909 0.37396 0.37117 0.0
C1496 C 0.87688 0.12533 0.62732 0.0
C1497 C 0.85728 0.10328 0.62555 0.0
C1498 C 0.87664 0.16689 0.63171 0.0
C1499 C 0.85681 0.18816 0.63482 0.0
H1500 H 0.89255 0.11044 0.62462 0.0
H1501 H 0.89215 0.18243 0.63325 0.0
S1502 S 0.80093 0.14463 0.63205 0.0
N1503 N 0.81747 0.10594 0.62792 0.0
N1504 N 0.81702 0.18396 0.63513 0.0
C1505 C 0.83709 0.1665 0.6331 0.0
C1506 C 0.83732 0.12417 0.62866 0.0
C1507 C 0.5108 0.12746 0.63721 0.0
C1508 C 0.49133 0.10505 0.63781 0.0
C1509 C 0.5104 0.16873 0.63067 0.0
C1510 C 0.49048 0.18923 0.6254 0.0
H1511 H 0.52647 0.1128 0.64112 0.0
H1512 H 0.52576 0.18482 0.62993 0.0
S1513 S 0.43493 0.14444 0.62542 0.0
N1514 N 0.45159 0.10652 0.6333 0.0
N1515 N 0.45082 0.18394 0.62122 0.0
C1516 C 0.47089 0.16724 0.62649 0.0
C1517 C 0.47132 0.12519 0.63259 0.0
C1518 C 0.25317 0.87554 0.40468 0.0
C1519 C 0.24633 0.85806 0.37004 0.0
C1520 C 0.25224 0.91679 0.41016 0.0
C1521 C 0.24434 0.94232 0.38131 0.0
H1522 H 0.25942 0.8572 0.42774 0.0
H1523 H 0.25726 0.92868 0.43761 0.0
S1524 S 0.2246 0.91186 0.2852 0.0
N1525 N 0.23132 0.86962 0.3064 0.0
N1526 N 0.22998 0.94733 0.31656 0.0
C1527 C 0.2376 0.92538 0.34642 0.0
C1528 C 0.23857 0.88326 0.34077 0.0
C1529 C 0.62753 0.91381 0.37045 0.0
C1530 C 0.60795 0.93598 0.36809 0.0
C1531 C 0.62725 0.87225 0.37473 0.0
C1532 C 0.60737 0.85114 0.37714 0.0
H1533 H 0.64323 0.92866 0.36856 0.0
H1534 H 0.64272 0.85662 0.37702 0.0
S1535 S 0.55152 0.8949 0.37212 0.0
N1536 N 0.5681 0.93352 0.3687 0.0
N1537 N 0.56759 0.8555 0.37576 0.0
C1538 C 0.58768 0.87288 0.3745 0.0
C1539 C 0.58796 0.9152 0.37016 0.0
C1540 C 0.87733 0.62537 0.1264 0.0
C1541 C 0.85756 0.60478 0.12036 0.0
C1542 C 0.87767 0.6669 0.13089 0.0
C1543 C 0.8582 0.68952 0.12995 0.0
H1544 H 0.89272 0.60927 0.1272 0.0
H1545 H 0.89326 0.6813 0.13592 0.0
S1546 S 0.80205 0.64989 0.11537 0.0
N1547 N 0.81797 0.61011 0.11423 0.0
N1548 N 0.81861 0.68809 0.1221 0.0
C1549 C 0.83831 0.66927 0.12395 0.0
C1550 C 0.83799 0.62699 0.11922 0.0
C1551 C 0.50944 0.62502 0.13214 0.0
C1552 C 0.48942 0.60476 0.13654 0.0
C1553 C 0.51 0.66627 0.12548 0.0
C1554 C 0.49058 0.6889 0.12389 0.0
H1555 H 0.52475 0.60871 0.13337 0.0
H1556 H 0.52574 0.6807 0.12201 0.0
S1557 S 0.43396 0.65018 0.13425 0.0
N1558 N 0.44973 0.61052 0.13921 0.0
N1559 N 0.45079 0.6879 0.12694 0.0
C1560 C 0.47048 0.66903 0.12855 0.0
C1561 C 0.4699 0.62701 0.13475 0.0
C1562 C 0.23851 0.3835 0.84468 0.0
C1563 C 0.24417 0.35751 0.87478 0.0
C1564 C 0.2386 0.42499 0.84981 0.0
C1565 C 0.24466 0.4421 0.88506 0.0
H1566 H 0.23369 0.37161 0.8171 0.0
H1567 H 0.23404 0.44387 0.82595 0.0
S1568 S 0.26126 0.3871 0.97283 0.0
N1569 N 0.25657 0.35202 0.94079 0.0
N1570 N 0.25614 0.42956 0.95079 0.0
C1571 C 0.25045 0.4164 0.91534 0.0
C1572 C 0.25033 0.37424 0.91013 0.0
C1573 C 0.62665 0.37557 0.87708 0.0
C1574 C 0.60691 0.35405 0.87957 0.0
C1575 C 0.62669 0.41712 0.87274 0.0
C1576 C 0.60699 0.43893 0.87045 0.0
H1577 H 0.64224 0.36027 0.87923 0.0
H1578 H 0.64231 0.43224 0.87063 0.0
S1579 S 0.55081 0.39685 0.87513 0.0
N1580 N 0.56709 0.35773 0.87857 0.0
N1581 N 0.56717 0.43577 0.87158 0.0
C1582 C 0.58713 0.41778 0.87283 0.0
C1583 C 0.58708 0.37545 0.87716 0.0
C1584 C 0.29461 0.18321 0.29485 0.0
C1585 C 0.29941 0.19015 0.33367 0.0
C1586 C 0.30297 0.20789 0.26617 0.0
C1587 C 0.31671 0.24008 0.27513 0.0
H1588 H 0.28364 0.15936 0.28663 0.0
H1589 H 0.29811 0.20243 0.23675 0.0
S1590 S 0.33551 0.26953 0.37197 0.0
N1591 N 0.31973 0.23036 0.3795 0.0
N1592 N 0.33555 0.27687 0.32512 0.0
C1593 C 0.32246 0.2465 0.31356 0.0
C1594 C 0.3137 0.22157 0.34299 0.0
C1595 C 0.06583 0.07104 0.31621 0.0
C1596 C 0.05196 0.09825 0.33469 0.0
C1597 C 0.0578 0.04539 0.28812 0.0
C1598 C 1.03552 0.04564 0.27747 0.0
H1599 H 0.0832 0.07026 0.32274 0.0
H1600 H 0.06931 0.02535 0.2744 0.0
S1601 S 0.99199 0.10907 0.31944 0.0
N1602 N 1.01456 0.1225 0.34221 0.0
N1603 N 0.99943 0.0739 0.28898 0.0
C1604 C 1.02123 0.07163 0.29665 0.0
C1605 C 1.02948 0.09814 0.32526 0.0
C1606 C 0.32011 0.04366 0.94081 0.0
C1607 C 0.3189 0.05199 0.9802 0.0
C1608 C 0.31031 0.06926 0.9139 0.0
C1609 C 0.29933 0.10408 0.9257 0.0
H1610 H 0.32756 1.01621 0.93097 0.0
H1611 H 0.31099 0.06147 0.88379 0.0
S1612 S 0.29287 0.13983 0.02561 0.0
N1613 N 0.30672 0.0978 0.02962 0.0
N1614 N 0.28869 0.14616 0.97924 0.0
C1615 C 0.29892 0.1134 0.96492 0.0
C1616 C 0.30862 0.08724 0.99215 0.0
C1617 C 1.04757 0.22948 0.91307 0.0
C1618 C 1.04979 0.18882 0.92212 0.0
C1619 C 1.03805 0.25627 0.93909 0.0
C1620 C 1.03026 0.24323 0.97482 0.0
H1621 H 0.05374 0.24084 0.88608 0.0
H1622 H 1.03796 0.28769 0.93215 0.0
S1623 S 1.03188 0.14025 0.01245 0.0
N1624 N 1.04304 0.13698 0.96941 0.0
N1625 N 1.02506 0.18747 0.01795 0.0
C1626 C 1.03167 0.20265 0.98374 0.0
C1627 C 1.0414 0.17535 0.95741 0.0
C1628 C 0.77393 0.82567 0.71605 0.0
C1629 C 0.78611 0.79259 0.7284 0.0
C1630 C 0.78255 0.85194 0.68848 0.0
C1631 C 0.80343 0.8455 0.6721 0.0
H1632 H 0.75814 0.83215 0.72884 0.0
H1633 H 0.7729 0.87761 0.68015 0.0
S1634 S 0.8409 0.76117 0.69321 0.0
N1635 N 0.81932 0.75332 0.72072 0.0
N1636 N 0.83556 0.80262 0.66959 0.0
C1637 C 0.81529 0.81159 0.68338 0.0
C1638 C 0.8066 0.78515 0.71135 0.0
C1639 C 0.07554 0.98993 0.69255 0.0
C1640 C 0.06861 0.98828 0.7309 0.0
C1641 C 0.06717 0.96308 0.6653 0.0
C1642 C 0.05197 0.93342 0.6758 0.0
H1643 H 0.08636 1.01351 0.68311 0.0
H1644 H 0.07216 0.96618 0.63565 0.0
S1645 S 1.03094 0.91392 0.77373 0.0
N1646 N 1.04728 0.95267 0.77871 0.0
N1647 N 1.03185 0.90218 0.72782 0.0
C1648 C 1.04615 0.92998 0.71458 0.0
C1649 C 0.0544 0.95745 0.74205 0.0
C1650 C 0.81316 0.97887 0.07621 0.0
C1651 C 0.80084 0.94566 0.08764 0.0
C1652 C 0.80503 1.00575 0.04921 0.0
C1653 C 0.78417 1.00079 0.03275 0.0
H1654 H 0.82955 0.9835 0.08734 0.0
H1655 H 0.81541 0.03033 0.04059 0.0
S1656 S 0.74467 0.92041 0.05467 0.0
N1657 N 0.76615 0.91037 0.08195 0.0
N1658 N 0.75087 0.96137 0.0308 0.0
C1659 C 0.77124 0.9687 0.04484 0.0
C1660 C 0.77963 0.9409 0.07226 0.0
C1661 C 1.04283 0.78754 0.04611 0.0
C1662 C 0.06431 0.79082 0.03177 0.0
C1663 C 1.03464 0.81456 0.07289 0.0
C1664 C 1.04752 0.84623 0.08621 0.0
H1665 H 1.03205 0.76416 0.03604 0.0
H1666 H 1.01782 0.81124 0.08241 0.0
S1667 S 0.10528 0.86684 0.05913 0.0
N1668 N 0.09869 0.82708 0.03379 0.0
N1669 N 0.08329 0.87831 0.08457 0.0
C1670 C 0.06929 0.84934 0.07293 0.0
C1671 C 0.07773 0.8214 0.04572 0.0
C1672 C 0.32812 0.72141 0.79394 0.0
C1673 C 0.31639 0.75475 0.78106 0.0
C1674 C 0.31911 0.69602 0.82184 0.0
C1675 C 0.29821 0.70343 0.83779 0.0
H1676 H 0.34374 0.71382 0.78106 0.0
H1677 H 0.32836 0.66996 0.83041 0.0
S1678 S 0.26219 0.78963 0.81581 0.0
N1679 N 0.28393 0.79603 0.78837 0.0
N1680 N 0.26678 0.74813 0.83981 0.0
C1681 C 0.28695 0.73797 0.82633 0.0
C1682 C 0.29612 0.76365 0.79818 0.0
C1683 C 0.05069 0.61389 0.79211 0.0
C1684 C 1.04734 0.60554 0.83114 0.0
C1685 C 1.04185 0.58946 0.76366 0.0
C1686 C 1.02905 0.55616 0.7731 0.0
H1687 H 0.06097 0.63858 0.78348 0.0
H1688 H 1.04571 0.59592 0.73397 0.0
S1689 S 1.014 0.52292 0.87083 0.0
N1690 N 1.02924 0.56288 0.87781 0.0
N1691 N 1.01255 0.51688 0.82389 0.0
C1692 C 1.02465 0.5484 0.81185 0.0
C1693 C 1.0339 0.57306 0.84101 0.0
C1694 C 0.31557 0.53686 0.44183 0.0
C1695 C 0.31658 0.54754 0.4807 0.0
C1696 C 0.30622 0.5627 0.41467 0.0
C1697 C 0.29781 0.60004 0.42566 0.0
H1698 H 0.32097 0.50766 0.43275 0.0
H1699 H 0.30534 0.55328 0.38501 0.0
S1700 S 0.29722 0.64193 0.52399 0.0
N1701 N 0.30875 0.59773 0.52882 0.0
N1702 N 0.29165 0.64662 0.47788 0.0
C1703 C 0.29939 0.61137 0.46432 0.0
C1704 C 0.30862 0.58497 0.49185 0.0
C1705 C 1.04633 0.70876 0.4895 0.0
C1706 C 1.03138 0.73897 0.47949 0.0
C1707 C 0.05466 0.68251 0.46206 0.0
C1708 C 1.04859 0.68573 0.42337 0.0
H1709 H 0.05221 0.70611 0.51871 0.0
H1710 H 0.0667 0.66062 0.47096 0.0
S1711 S 1.00839 0.75729 0.38283 0.0
N1712 N 1.00954 0.76878 0.42885 0.0
N1713 N 1.02539 0.71947 0.37678 0.0
C1714 C 1.03288 0.71464 0.41316 0.0
C1715 C 1.02415 0.74116 0.44138 0.0
C1716 C 0.78458 0.34915 0.18704 0.0
C1717 C 0.80641 0.34513 0.17417 0.0
C1718 C 0.77575 0.32292 0.21444 0.0
C1719 C 0.78864 0.29234 0.23018 0.0
H1720 H 0.77428 0.37277 0.1759 0.0
H1721 H 0.75908 0.32741 0.22426 0.0
S1722 S 0.84622 0.26783 0.20458 0.0
N1723 N 0.8403 0.3073 0.17841 0.0
N1724 N 0.82381 0.25803 0.22931 0.0
C1725 C 0.81026 0.2875 0.21681 0.0
C1726 C 0.81913 0.31387 0.18894 0.0
C1727 C 0.06091 0.45558 0.24034 0.0
C1728 C 0.07443 0.48797 0.2308 0.0
C1729 C 0.05226 0.43063 0.21213 0.0
C1730 C 0.05659 0.43724 0.17309 0.0
H1731 H 0.05626 0.45035 0.26991 0.0
H1732 H 1.04131 0.40697 0.22094 0.0
S1733 S 0.09255 0.51615 0.13318 0.0
N1734 N 0.09287 0.52412 0.17992 0.0
N1735 N 0.07671 0.4769 0.12645 0.0
C1736 C 0.07089 0.46854 0.16317 0.0
C1737 C 0.07987 0.49389 0.19215 0.0
C1738 C 0.80245 0.43415 0.5437 0.0
C1739 C 0.79767 0.43895 0.5828 0.0
C1740 C 0.79404 0.46046 0.51633 0.0
C1741 C 0.78021 0.49218 0.52683 0.0
H1742 H 0.81355 0.41092 0.5343 0.0
H1743 H 0.79899 0.45665 0.48671 0.0
S1744 S 0.76107 0.51559 0.62497 0.0
N1745 N 0.77699 0.4762 0.63048 0.0
N1746 N 0.76107 0.5257 0.57859 0.0
C1747 C 0.77431 0.49617 0.56548 0.0
C1748 C 0.78313 0.4696 0.5936 0.0
C1749 C 0.06583 0.35465 0.56691 0.0
C1750 C 1.04529 0.34768 0.58424 0.0
C1751 C 0.07441 0.32825 0.53945 0.0
C1752 C 0.06252 0.29448 0.52825 0.0
H1753 H 0.07522 0.38085 0.57439 0.0
H1754 H 0.08991 0.33513 0.52582 0.0
S1755 S 1.00874 0.26151 0.56626 0.0
N1756 N 1.0138 0.30358 0.58895 0.0
N1757 N 1.03001 0.25402 0.53791 0.0
C1758 C 1.04239 0.28652 0.54622 0.0
C1759 C 1.03373 0.31312 0.57409 0.0
C1760 C 0.81426 0.22021 0.84235 0.0
C1761 C 0.80053 0.18827 0.83199 0.0
C1762 C 0.82301 0.24583 0.81439 0.0
C1763 C 0.81797 0.24047 0.77545 0.0
H1764 H 0.81789 0.22581 0.87226 0.0
H1765 H 0.83269 0.27115 0.82344 0.0
S1766 S 0.7837 0.16046 0.73353 0.0
N1767 N 0.78314 0.15194 0.7801 0.0
N1768 N 0.79936 0.20003 0.72779 0.0
C1769 C 0.80493 0.20787 0.76476 0.0
C1770 C 0.79625 0.18175 0.79299 0.0
C1771 C 0.52348 0.07428 0.79477 0.0
C1772 C 0.53547 0.04057 0.78354 0.0
C1773 C 0.53204 0.10088 0.82207 0.0
C1774 C 0.55272 0.09429 0.83915 0.0
H1775 H 0.50796 0.08108 0.78115 0.0
H1776 H 0.52256 0.12706 0.82945 0.0
S1777 S 0.58954 1.00824 0.82112 0.0
N1778 N 0.56817 1.00041 0.79315 0.0
N1779 N 0.58439 0.0504 0.84365 0.0
C1780 C 0.56434 0.05967 0.8291 0.0
C1781 C 0.55566 0.03283 0.80148 0.0
C1782 C 0.82068 0.04368 0.44328 0.0
C1783 C 0.81954 0.0534 0.48237 0.0
C1784 C 0.8112 0.06866 0.41549 0.0
C1785 C 0.80052 0.10418 0.42609 0.0
H1786 H 0.82779 1.01565 0.43437 0.0
H1787 H 0.81194 0.05987 0.38564 0.0
S1788 S 0.79402 0.14324 0.52488 0.0
N1789 N 0.80758 0.10106 0.53027 0.0
N1790 N 0.78999 0.14813 0.47832 0.0
C1791 C 0.80003 0.11472 0.46506 0.0
C1792 C 0.80949 0.08925 0.49315 0.0
C1793 C 0.54344 0.20505 0.49149 0.0
C1794 C 0.53005 0.23738 0.48104 0.0
C1795 C 0.55209 0.17925 0.46393 0.0
C1796 C 0.54794 0.18515 0.42473 0.0
H1797 H 0.54795 0.20048 0.52123 0.0
H1798 H 0.56295 0.15562 0.47328 0.0
S1799 S 0.51241 0.26367 0.38268 0.0
N1800 N 0.51186 0.27262 0.42925 0.0
N1801 N 0.52815 0.22403 0.37699 0.0
C1802 C 0.53374 0.21636 0.41396 0.0
C1803 C 0.52471 0.24245 0.44225 0.0
C1804 C 0.31004 0.78961 0.2132 0.0
C1805 C 0.28826 0.7913 0.22655 0.0
C1806 C 0.31771 0.81607 0.18542 0.0
C1807 C 0.30402 0.84564 0.17014 0.0
H1808 H 0.3214 0.76773 0.22449 0.0
H1809 H 0.33469 0.81391 0.17642 0.0
S1810 S 0.24534 0.86164 0.19369 0.0
N1811 N 0.25279 0.8239 0.22117 0.0
N1812 N 0.26736 0.87423 0.16889 0.0
C1813 C 0.28207 0.84734 0.18255 0.0
C1814 C 0.27412 0.81992 0.21067 0.0
C1815 C 0.55635 0.96019 0.23999 0.0
C1816 C 0.57029 0.99159 0.22923 0.0
C1817 C 0.54777 0.93397 0.21279 0.0
C1818 C 0.55252 0.93851 0.17365 0.0
H1819 H 0.55142 0.95664 0.26965 0.0
H1820 H 0.53656 0.91102 0.22232 0.0
S1821 S 0.58972 1.01375 0.13099 0.0
N1822 N 0.58978 0.02409 0.17731 0.0
N1823 N 0.57343 0.97487 0.1257 0.0
C1824 C 0.56724 0.96869 0.16262 0.0
C1825 C 0.57625 0.99514 0.19057 0.0
C1826 C 0.28362 0.96606 0.58921 0.0
C1827 C 0.29781 0.93513 0.5776 0.0
C1828 C 0.27428 0.99225 0.5623 0.0
C1829 C 0.27919 0.98867 0.52314 0.0
H1830 H 0.28015 0.97059 0.61935 0.0
H1831 H 0.26428 1.01675 0.57238 0.0
S1832 S 0.31394 0.91122 0.47773 0.0
N1833 N 0.31505 0.9011 0.524 0.0
N1834 N 0.29782 0.95049 0.47375 0.0
C1835 C 0.29246 0.95681 0.5111 0.0
C1836 C 0.30171 0.92998 0.53825 0.0
C1837 C 0.54619 0.86204 0.54159 0.0
C1838 C 0.55139 0.85604 0.58038 0.0
C1839 C 0.55444 0.83678 0.51321 0.0
C1840 C 0.5685 0.805 0.52243 0.0
H1841 H 0.53493 0.88547 0.53326 0.0
H1842 H 0.5492 0.84142 0.48385 0.0
S1843 S 0.58878 0.77871 0.61927 0.0
N1844 N 0.57264 0.81757 0.62641 0.0
N1845 N 0.58833 0.77012 0.57263 0.0
C1846 C 0.57478 0.79978 0.56079 0.0
C1847 C 0.5661 0.82524 0.58992 0.0
C1848 C 0.81529 0.71688 0.33903 0.0
C1849 C 0.80171 0.68465 0.32873 0.0
C1850 C 0.82445 0.74196 0.31103 0.0
C1851 C 0.82016 0.73565 0.27197 0.0
H1852 H 0.81845 0.72326 0.36896 0.0
H1853 H 0.8338 0.76768 0.32009 0.0
S1854 S 0.78689 0.65454 0.22969 0.0
N1855 N 0.78532 0.64719 0.2764 0.0
N1856 N 0.80269 0.69393 0.22412 0.0
C1857 C 0.80748 0.70264 0.26125 0.0
C1858 C 0.79821 0.6772 0.28954 0.0
C1859 C 0.52024 0.5747 0.29457 0.0
C1860 C 0.53134 0.53981 0.28401 0.0
C1861 C 0.52939 0.60087 0.32166 0.0
C1862 C 0.54983 0.59275 0.33907 0.0
H1863 H 0.50507 0.58284 0.28039 0.0
H1864 H 0.52064 0.62804 0.32843 0.0
S1865 S 0.5842 0.503 0.32287 0.0
N1866 N 0.56273 0.49674 0.29476 0.0
N1867 N 0.58017 0.54594 0.34471 0.0
C1868 C 0.56044 0.55682 0.32984 0.0
C1869 C 0.55112 0.53036 0.30254 0.0
C1870 C 0.81729 0.59869 0.93699 0.0
C1871 C 0.79573 0.59402 0.92297 0.0
C1872 C 0.82621 0.5718 0.96374 0.0
C1873 C 0.81372 0.53979 0.97752 0.0
H1874 H 0.82726 0.62341 0.9274 0.0
H1875 H 0.84257 0.57697 0.97473 0.0
S1876 S 0.75701 0.51325 0.94863 0.0
N1877 N 0.76251 0.55414 0.9243 0.0
N1878 N 0.77932 0.5035 0.9737 0.0
C1879 C 0.79247 0.53416 0.96284 0.0
C1880 C 0.78345 0.56131 0.93579 0.0
C1881 C 0.53229 0.69115 0.93623 0.0
C1882 C 0.55354 0.69653 0.92112 0.0
C1883 C 0.52374 0.71725 0.96402 0.0
C1884 C 0.53638 0.74903 0.97787 0.0
H1885 H 0.52228 0.66648 0.92666 0.0
H1886 H 0.50759 0.71167 0.97574 0.0
S1887 S 0.59227 0.77749 0.94601 0.0
N1888 N 0.58651 0.73709 0.92113 0.0
N1889 N 0.57049 0.78603 0.97285 0.0
C1890 C 0.55733 0.75532 0.96218 0.0
C1891 C 0.56592 0.72911 0.93391 0.0
C1892 C 0.30695 0.29346 0.72006 0.0
C1893 C 0.28443 0.29237 0.72915 0.0
C1894 C 0.31513 0.31899 0.69193 0.0
C1895 C 0.3012 0.34483 0.67184 0.0
H1896 H 0.31853 0.27446 0.73491 0.0
H1897 H 0.33262 0.31909 0.68646 0.0
S1898 S 0.24081 0.35249 0.68305 0.0
N1899 N 0.24816 0.31835 0.71466 0.0
N1900 N 0.26362 0.36681 0.66154 0.0
C1901 C 0.27856 0.34366 0.67993 0.0
C1902 C 0.27015 0.31722 0.70854 0.0
C1903 C 0.57357 0.49307 0.69235 0.0
C1904 C 0.56767 0.48943 0.73111 0.0
C1905 C 0.56505 0.46677 0.66474 0.0
C1906 C 0.55063 0.43583 0.6752 0.0
H1907 H 0.58382 0.51755 0.68305 0.0
H1908 H 0.56945 0.4711 0.63494 0.0
S1909 S 0.53139 0.41261 0.77356 0.0
N1910 N 0.54757 0.45153 0.7789 0.0
N1911 N 0.53159 0.40248 0.72728 0.0
C1912 C 0.54544 0.43107 0.71416 0.0
C1913 C 0.55396 0.4578 0.74204 0.0
C1914 C 0.28098 0.44359 0.06836 0.0
C1915 C 0.30243 0.4468 0.08315 0.0
C1916 C 0.27305 0.47082 0.04097 0.0
C1917 C 0.28652 0.50145 0.02704 0.0
H1918 H 0.2703 0.4199 0.07801 0.0
H1919 H 0.25661 0.46711 0.02979 0.0
S1920 S 0.34344 0.52391 0.05813 0.0
N1921 N 0.33658 0.48391 0.08276 0.0
N1922 N 0.3218 0.53488 0.03176 0.0
C1923 C 0.30777 0.5054 0.04232 0.0
C1924 C 0.31571 0.47811 0.07024 0.0
C1925 C 0.57298 0.30227 0.06129 0.0
C1926 C 0.56841 0.30789 0.02221 0.0
C1927 C 0.56377 0.32757 0.08908 0.0
C1928 C 0.54992 0.35942 0.07853 0.0
H1929 H 0.5826 0.27689 0.07056 0.0
H1930 H 0.5671 0.32166 0.11905 0.0
S1931 S 0.53409 0.38752 0.97948 0.0
N1932 N 0.55017 0.34836 0.97413 0.0
N1933 N 0.53285 0.39568 0.02607 0.0
C1934 C 0.54609 0.36615 0.03935 0.0
C1935 C 0.55534 0.34041 0.01127 0.0
loop_
_geom_bond_atom_site_label_1
_geom_bond_atom_site_label_2
_geom_bond_distance
_geom_bond_site_symmetry_2
_ccdc_geom_bond_type
C0 C1 1.351 . S
C0 N3 1.368 . S
C0 H5 0.931 . S
C1 C0 1.351 . S
C1 N2 1.373 . S
C1 H29 0.930 . S
N2 C1 1.373 . S
N2 C4 1.340 . S
N3 C0 1.368 . S
N3 C4 1.321 . S
N3 Co6 2.135 . S
C4 N2 1.340 . S
C4 N3 1.321 . S
C4 H28 0.930 . S
H5 C0 0.931 . S
Co6 N3 2.135 . S
Co6 N9 2.121 . S
Co6 O14 2.055 . S
Co6 O17 2.039 . S
Co6 N20 2.140 . S
C7 O8 1.227 . S
C7 O17 1.265 . S
O8 C7 1.227 . S
N9 Co6 2.121 . S
N9 C11 1.375 . S
N9 C12 1.313 . S
C10 C11 1.338 . S
C10 N13 1.377 . S
C10 H30 0.930 . S
C11 N9 1.375 . S
C11 C10 1.338 . S
C11 H15 0.931 . S
C12 N9 1.313 . S
C12 N13 1.344 . S
C12 H16 0.930 . S
N13 C10 1.377 . S
N13 C12 1.344 . S
O14 Co6 2.055 . S
O14 C18 1.253 . S
H15 C11 0.931 . S
H16 C12 0.930 . S
O17 Co6 2.039 . S
O17 C7 1.265 . S
C18 O14 1.253 . S
C18 O19 1.227 . S
O19 C18 1.227 . S
N20 Co6 2.140 . S
N20 C23 1.346 . S
N20 C24 1.345 . S
C21 C22 1.387 . S
C21 C25 1.391 . S
C22 C21 1.387 . S
C22 C23 1.369 . S
C22 H31 0.929 . S
C23 N20 1.346 . S
C23 C22 1.369 . S
C23 H26 0.928 . S
C24 N20 1.345 . S
C24 C25 1.371 . S
C24 H27 0.931 . S
C25 C21 1.391 . S
C25 C24 1.371 . S
C25 H32 0.930 . S
H26 C23 0.928 . S
H27 C24 0.931 . S
H28 C4 0.930 . S
H29 C1 0.930 . S
H30 C10 0.930 . S
H31 C22 0.929 . S
H32 C25 0.930 . S
C33 C34 1.351 . S
C33 N36 1.368 . S
C33 H38 0.931 . S
C34 C33 1.351 . S
C34 N35 1.373 . S
C34 H62 0.930 . S
N35 C34 1.373 . S
N35 C37 1.340 . S
N36 C33 1.368 . S
N36 C37 1.321 . S
N36 Co39 2.135 . S
C37 N35 1.340 . S
C37 N36 1.321 . S
C37 H61 0.930 . S
H38 C33 0.931 . S
Co39 N36 2.135 . S
Co39 N42 2.121 1_565 S
Co39 O47 2.055 1_565 S
Co39 O50 2.039 . S
Co39 N53 2.140 . S
C40 O41 1.227 . S
C40 O50 1.265 . S
O41 C40 1.227 . S
N42 Co39 2.121 1_545 S
N42 C44 1.372 1_545 S
N42 C45 1.313 . S
C43 C44 1.327 1_545 S
C43 N46 1.377 . S
C43 H63 0.930 . S
C44 N42 1.372 1_565 S
C44 C43 1.327 1_565 S
C44 H48 0.944 . S
C45 N42 1.313 . S
C45 N46 1.344 . S
C45 H49 0.930 . S
N46 C43 1.377 . S
N46 C45 1.344 . S
O47 Co39 2.055 1_545 S
O47 C51 1.253 . S
H48 C44 0.944 . S
H49 C45 0.930 . S
O50 Co39 2.039 . S
O50 C40 1.265 . S
C51 O47 1.253 . S
C51 O52 1.227 . S
O52 C51 1.227 . S
N53 Co39 2.140 . S
N53 C56 1.346 . S
N53 C57 1.345 . S
C54 C55 1.387 . S
C54 C58 1.391 . S
C55 C54 1.387 . S
C55 C56 1.369 . S
C55 H64 0.929 . S
C56 N53 1.346 . S
C56 C55 1.369 . S
C56 H59 0.928 . S
C57 N53 1.345 . S
C57 C58 1.371 . S
C57 H60 0.931 . S
C58 C54 1.391 . S
C58 C57 1.371 . S
C58 H65 0.930 . S
H59 C56 0.928 . S
H60 C57 0.931 . S
H61 C37 0.930 . S
H62 C34 0.930 . S
H63 C43 0.930 . S
H64 C55 0.929 . S
H65 C58 0.930 . S
C66 C67 1.351 . S
C66 N69 1.368 . S
C66 H71 0.931 . S
C67 C66 1.351 . S
C67 N68 1.373 . S
C67 H95 0.930 . S
N68 C67 1.373 . S
N68 C70 1.340 . S
N69 C66 1.368 . S
N69 C70 1.321 . S
N69 Co72 2.135 1_556 S
C70 N68 1.340 . S
C70 N69 1.321 . S
C70 H94 0.930 . S
H71 C66 0.931 . S
Co72 N69 2.135 1_554 S
Co72 N75 2.121 1_565 S
Co72 O80 2.055 1_564 S
Co72 O83 2.039 . S
Co72 N86 2.140 . S
C73 O74 1.227 . S
C73 O83 1.265 . S
O74 C73 1.227 . S
N75 Co72 2.121 1_545 S
N75 C77 1.372 1_545 S
N75 C78 1.313 . S
C76 C77 1.327 1_545 S
C76 N79 1.377 . S
C76 H96 0.930 . S
C77 N75 1.372 1_565 S
C77 C76 1.327 1_565 S
C77 H81 0.944 . S
C78 N75 1.313 . S
C78 N79 1.344 . S
C78 H82 0.930 . S
N79 C76 1.377 . S
N79 C78 1.344 . S
O80 Co72 2.055 1_546 S
O80 C84 1.253 . S
H81 C77 0.944 . S
H82 C78 0.930 . S
O83 Co72 2.039 . S
O83 C73 1.265 . S
C84 O80 1.253 . S
C84 O85 1.227 1_556 S
O85 C84 1.227 1_554 S
N86 Co72 2.140 . S
N86 C89 1.346 . S
N86 C90 1.345 . S
C87 C88 1.387 . S
C87 C91 1.391 . S
C88 C87 1.387 . S
C88 C89 1.369 . S
C88 H97 0.929 . S
C89 N86 1.346 . S
C89 C88 1.369 . S
C89 H92 0.928 . S
C90 N86 1.345 . S
C90 C91 1.371 . S
C90 H93 0.931 . S
C91 C87 1.391 . S
C91 C90 1.371 . S
C91 H98 0.930 . S
H92 C89 0.928 . S
H93 C90 0.931 . S
H94 C70 0.930 . S
H95 C67 0.930 . S
H96 C76 0.930 . S
H97 C88 0.929 . S
H98 C91 0.930 . S
C99 C100 1.351 . S
C99 N102 1.368 . S
C99 H104 0.931 . S
C100 C99 1.351 . S
C100 N101 1.373 . S
C100 H128 0.930 . S
N101 C100 1.373 . S
N101 C103 1.340 . S
N102 C99 1.368 . S
N102 C103 1.321 . S
N102 Co105 2.135 1_556 S
C103 N101 1.340 . S
C103 N102 1.321 . S
C103 H127 0.930 . S
H104 C99 0.931 . S
Co105 N102 2.135 1_554 S
Co105 N108 2.121 . S
Co105 O113 2.055 1_554 S
Co105 O116 2.039 . S
Co105 N119 2.140 . S
C106 O107 1.227 . S
C106 O116 1.265 . S
O107 C106 1.227 . S
N108 Co105 2.121 . S
N108 C110 1.375 . S
N108 C111 1.313 . S
C109 C110 1.338 . S
C109 N112 1.377 . S
C109 H129 0.930 . S
C110 N108 1.375 . S
C110 C109 1.338 . S
C110 H114 0.931 . S
C111 N108 1.313 . S
C111 N112 1.344 . S
C111 H115 0.930 . S
N112 C109 1.377 . S
N112 C111 1.344 . S
O113 Co105 2.055 1_556 S
O113 C117 1.253 . S
H114 C110 0.931 . S
H115 C111 0.930 . S
O116 Co105 2.039 . S
O116 C106 1.265 . S
C117 O113 1.253 . S
C117 O118 1.227 1_556 S
O118 C117 1.227 1_554 S
N119 Co105 2.140 . S
N119 C122 1.346 . S
N119 C123 1.345 . S
C120 C121 1.387 . S
C120 C124 1.391 . S
C121 C120 1.387 . S
C121 C122 1.369 . S
C121 H130 0.929 . S
C122 N119 1.346 . S
C122 C121 1.369 . S
C122 H125 0.928 . S
C123 N119 1.345 . S
C123 C124 1.371 . S
C123 H126 0.931 . S
C124 C120 1.391 . S
C124 C123 1.371 . S
C124 H131 0.930 . S
H125 C122 0.928 . S
H126 C123 0.931 . S
H127 C103 0.930 . S
H128 C100 0.930 . S
H129 C109 0.930 . S
H130 C121 0.929 . S
H131 C124 0.930 . S
C132 C133 1.351 . S
C132 N135 1.368 . S
C132 H137 0.931 . S
C133 C132 1.351 . S
C133 N134 1.373 . S
C133 H161 0.930 . S
N134 C133 1.373 . S
N134 C136 1.340 . S
N135 C132 1.368 . S
N135 C136 1.321 . S
N135 Co138 2.135 . S
C136 N134 1.340 . S
C136 N135 1.321 . S
C136 H160 0.930 . S
H137 C132 0.931 . S
Co138 N135 2.135 . S
Co138 N141 2.121 . S
Co138 O146 2.055 . S
Co138 O149 2.039 . S
Co138 N152 2.140 . S
C139 O140 1.227 . S
C139 O149 1.265 . S
O140 C139 1.227 . S
N141 Co138 2.121 . S
N141 C143 1.375 . S
N141 C144 1.313 . S
C142 C143 1.338 . S
C142 N145 1.377 . S
C142 H162 0.930 . S
C143 N141 1.375 . S
C143 C142 1.338 . S
C143 H147 0.931 . S
C144 N141 1.313 . S
C144 N145 1.344 . S
C144 H148 0.930 . S
N145 C142 1.377 . S
N145 C144 1.344 . S
O146 Co138 2.055 . S
O146 C150 1.253 . S
H147 C143 0.931 . S
H148 C144 0.930 . S
O149 Co138 2.039 . S
O149 C139 1.265 . S
C150 O146 1.253 . S
C150 O151 1.227 . S
O151 C150 1.227 . S
N152 Co138 2.140 . S
N152 C155 1.346 . S
N152 C156 1.345 . S
C153 C154 1.387 . S
C153 C157 1.391 . S
C154 C153 1.387 . S
C154 C155 1.369 . S
C154 H163 0.929 . S
C155 N152 1.346 . S
C155 C154 1.369 . S
C155 H158 0.928 . S
C156 N152 1.345 . S
C156 C157 1.371 . S
C156 H159 0.931 . S
C157 C153 1.391 . S
C157 C156 1.371 . S
C157 H164 0.930 . S
H158 C155 0.928 . S
H159 C156 0.931 . S
H160 C136 0.930 . S
H161 C133 0.930 . S
H162 C142 0.930 . S
H163 C154 0.929 . S
H164 C157 0.930 . S
C165 C166 1.351 . S
C165 N168 1.368 . S
C165 H170 0.931 . S
C166 C165 1.351 . S
C166 N167 1.373 . S
C166 H194 0.930 . S
N167 C166 1.373 . S
N167 C169 1.340 . S
N168 C165 1.368 . S
N168 C169 1.321 . S
N168 Co171 2.135 . S
C169 N167 1.340 . S
C169 N168 1.321 . S
C169 H193 0.930 . S
H170 C165 0.931 . S
Co171 N168 2.135 . S
Co171 N174 2.121 1_545 S
Co171 O179 2.055 1_545 S
Co171 O182 2.039 . S
Co171 N185 2.140 . S
C172 O173 1.227 . S
C172 O182 1.265 . S
O173 C172 1.227 . S
N174 Co171 2.121 1_565 S
N174 C176 1.372 1_565 S
N174 C177 1.313 . S
C175 C176 1.327 1_565 S
C175 N178 1.377 . S
C175 H195 0.930 . S
C176 N174 1.372 1_545 S
C176 C175 1.327 1_545 S
C176 H180 0.944 . S
C177 N174 1.313 . S
C177 N178 1.344 . S
C177 H181 0.930 . S
N178 C175 1.377 . S
N178 C177 1.344 . S
O179 Co171 2.055 1_565 S
O179 C183 1.253 . S
H180 C176 0.944 . S
H181 C177 0.930 . S
O182 Co171 2.039 . S
O182 C172 1.265 . S
C183 O179 1.253 . S
C183 O184 1.227 . S
O184 C183 1.227 . S
N185 Co171 2.140 . S
N185 C188 1.346 . S
N185 C189 1.345 . S
C186 C187 1.387 . S
C186 C190 1.391 . S
C187 C186 1.387 . S
C187 C188 1.369 . S
C187 H196 0.929 . S
C188 N185 1.346 . S
C188 C187 1.369 . S
C188 H191 0.928 . S
C189 N185 1.345 . S
C189 C190 1.371 . S
C189 H192 0.931 . S
C190 C186 1.391 . S
C190 C189 1.371 . S
C190 H197 0.930 . S
H191 C188 0.928 . S
H192 C189 0.931 . S
H193 C169 0.930 . S
H194 C166 0.930 . S
H195 C175 0.930 . S
H196 C187 0.929 . S
H197 C190 0.930 . S
C198 C199 1.351 . S
C198 N201 1.368 . S
C198 H203 0.931 . S
C199 C198 1.351 . S
C199 N200 1.373 . S
C199 H227 0.930 . S
N200 C199 1.373 . S
N200 C202 1.340 . S
N201 C198 1.368 . S
N201 C202 1.321 . S
N201 Co204 2.135 1_554 S
C202 N200 1.340 . S
C202 N201 1.321 . S
C202 H226 0.930 . S
H203 C198 0.931 . S
Co204 N201 2.135 1_556 S
Co204 N207 2.121 1_545 S
Co204 O212 2.055 1_546 S
Co204 O215 2.039 . S
Co204 N218 2.140 . S
C205 O206 1.227 . S
C205 O215 1.265 . S
O206 C205 1.227 . S
N207 Co204 2.121 1_565 S
N207 C209 1.372 1_565 S
N207 C210 1.313 . S
C208 C209 1.327 1_565 S
C208 N211 1.377 . S
C208 H228 0.930 . S
C209 N207 1.372 1_545 S
C209 C208 1.327 1_545 S
C209 H213 0.944 . S
C210 N207 1.313 . S
C210 N211 1.344 . S
C210 H214 0.930 . S
N211 C208 1.377 . S
N211 C210 1.344 . S
O212 Co204 2.055 1_564 S
O212 C216 1.253 . S
H213 C209 0.944 . S
H214 C210 0.930 . S
O215 Co204 2.039 . S
O215 C205 1.265 . S
C216 O212 1.253 . S
C216 O217 1.227 1_554 S
O217 C216 1.227 1_556 S
N218 Co204 2.140 . S
N218 C221 1.346 . S
N218 C222 1.345 . S
C219 C220 1.387 . S
C219 C223 1.391 . S
C220 C219 1.387 . S
C220 C221 1.369 . S
C220 H229 0.929 . S
C221 N218 1.346 . S
C221 C220 1.369 . S
C221 H224 0.928 . S
C222 N218 1.345 . S
C222 C223 1.371 . S
C222 H225 0.931 . S
C223 C219 1.391 . S
C223 C222 1.371 . S
C223 H230 0.930 . S
H224 C221 0.928 . S
H225 C222 0.931 . S
H226 C202 0.930 . S
H227 C199 0.930 . S
H228 C208 0.930 . S
H229 C220 0.929 . S
H230 C223 0.930 . S
C231 C232 1.351 . S
C231 N234 1.368 . S
C231 H236 0.931 . S
C232 C231 1.351 . S
C232 N233 1.373 . S
C232 H260 0.930 . S
N233 C232 1.373 . S
N233 C235 1.340 . S
N234 C231 1.368 . S
N234 C235 1.321 . S
N234 Co237 2.135 1_554 S
C235 N233 1.340 . S
C235 N234 1.321 . S
C235 H259 0.930 . S
H236 C231 0.931 . S
Co237 N234 2.135 1_556 S
Co237 N240 2.121 . S
Co237 O245 2.055 1_556 S
Co237 O248 2.039 . S
Co237 N251 2.140 . S
C238 O239 1.227 . S
C238 O248 1.265 . S
O239 C238 1.227 . S
N240 Co237 2.121 . S
N240 C242 1.375 . S
N240 C243 1.313 . S
C241 C242 1.338 . S
C241 N244 1.377 . S
C241 H261 0.930 . S
C242 N240 1.375 . S
C242 C241 1.338 . S
C242 H246 0.931 . S
C243 N240 1.313 . S
C243 N244 1.344 . S
C243 H247 0.930 . S
N244 C241 1.377 . S
N244 C243 1.344 . S
O245 Co237 2.055 1_554 S
O245 C249 1.253 . S
H246 C242 0.931 . S
H247 C243 0.930 . S
O248 Co237 2.039 . S
O248 C238 1.265 . S
C249 O245 1.253 . S
C249 O250 1.227 1_554 S
O250 C249 1.227 1_556 S
N251 Co237 2.140 . S
N251 C254 1.346 . S
N251 C255 1.345 . S
C252 C253 1.387 . S
C252 C256 1.391 . S
C253 C252 1.387 . S
C253 C254 1.369 . S
C253 H262 0.929 . S
C254 N251 1.346 . S
C254 C253 1.369 . S
C254 H257 0.928 . S
C255 N251 1.345 . S
C255 C256 1.371 . S
C255 H258 0.931 . S
C256 C252 1.391 . S
C256 C255 1.371 . S
C256 H263 0.930 . S
H257 C254 0.928 . S
H258 C255 0.931 . S
H259 C235 0.930 . S
H260 C232 0.930 . S
H261 C241 0.930 . S
H262 C253 0.929 . S
H263 C256 0.930 . S
C264 C265 1.351 . S
C264 N267 1.368 . S
C264 H269 0.931 . S
C265 C264 1.351 . S
C265 N266 1.373 . S
C265 H293 0.930 . S
N266 C265 1.373 . S
N266 C268 1.340 . S
N267 C264 1.368 . S
N267 C268 1.321 . S
N267 Co270 2.135 . S
C268 N266 1.340 . S
C268 N267 1.321 . S
C268 H292 0.930 . S
H269 C264 0.931 . S
Co270 N267 2.135 . S
Co270 N273 2.121 . S
Co270 O278 2.055 . S
Co270 O281 2.039 . S
Co270 N284 2.140 . S
C271 O272 1.227 . S
C271 O281 1.265 . S
O272 C271 1.227 . S
N273 Co270 2.121 . S
N273 C275 1.375 . S
N273 C276 1.313 . S
C274 C275 1.338 . S
C274 N277 1.377 . S
C274 H294 0.930 . S
C275 N273 1.375 . S
C275 C274 1.338 . S
C275 H279 0.931 . S
C276 N273 1.313 . S
C276 N277 1.344 . S
C276 H280 0.930 . S
N277 C274 1.377 . S
N277 C276 1.344 . S
O278 Co270 2.055 . S
O278 C282 1.253 . S
H279 C275 0.931 . S
H280 C276 0.930 . S
O281 Co270 2.039 . S
O281 C271 1.265 . S
C282 O278 1.253 . S
C282 O283 1.227 . S
O283 C282 1.227 . S
N284 Co270 2.140 . S
N284 C287 1.346 . S
N284 C288 1.345 . S
C285 C286 1.387 . S
C285 C289 1.391 . S
C286 C285 1.387 . S
C286 C287 1.369 . S
C286 H295 0.929 . S
C287 N284 1.346 . S
C287 C286 1.369 . S
C287 H290 0.928 . S
C288 N284 1.345 . S
C288 C289 1.371 . S
C288 H291 0.931 . S
C289 C285 1.391 . S
C289 C288 1.371 . S
C289 H296 0.930 . S
H290 C287 0.928 . S
H291 C288 0.931 . S
H292 C268 0.930 . S
H293 C265 0.930 . S
H294 C274 0.930 . S
H295 C286 0.929 . S
H296 C289 0.930 . S
C297 C298 1.351 . S
C297 N300 1.368 . S
C297 H302 0.931 . S
C298 C297 1.351 . S
C298 N299 1.373 . S
C298 H326 0.930 . S
N299 C298 1.373 . S
N299 C301 1.340 . S
N300 C297 1.368 . S
N300 C301 1.321 . S
N300 Co303 2.135 . S
C301 N299 1.340 . S
C301 N300 1.321 . S
C301 H325 0.930 . S
H302 C297 0.931 . S
Co303 N300 2.135 . S
Co303 N306 2.121 . S
Co303 O311 2.055 . S
Co303 O314 2.039 . S
Co303 N317 2.140 . S
C304 O305 1.227 . S
C304 O314 1.265 . S
O305 C304 1.227 . S
N306 Co303 2.121 . S
N306 C308 1.375 . S
N306 C309 1.313 . S
C307 C308 1.338 . S
C307 N310 1.377 . S
C307 H327 0.930 . S
C308 N306 1.375 . S
C308 C307 1.338 . S
C308 H312 0.931 . S
C309 N306 1.313 . S
C309 N310 1.344 . S
C309 H313 0.930 . S
N310 C307 1.377 . S
N310 C309 1.344 . S
O311 Co303 2.055 . S
O311 C315 1.253 . S
H312 C308 0.931 . S
H313 C309 0.930 . S
O314 Co303 2.039 . S
O314 C304 1.265 . S
C315 O311 1.253 . S
C315 O316 1.227 . S
O316 C315 1.227 . S
N317 Co303 2.140 . S
N317 C320 1.346 . S
N317 C321 1.345 . S
C318 C319 1.387 . S
C318 C322 1.391 . S
C319 C318 1.387 . S
C319 C320 1.369 . S
C319 H328 0.929 . S
C320 N317 1.346 . S
C320 C319 1.369 . S
C320 H323 0.928 . S
C321 N317 1.345 . S
C321 C322 1.371 . S
C321 H324 0.931 . S
C322 C318 1.391 . S
C322 C321 1.371 . S
C322 H329 0.930 . S
H323 C320 0.928 . S
H324 C321 0.931 . S
H325 C301 0.930 . S
H326 C298 0.930 . S
H327 C307 0.930 . S
H328 C319 0.929 . S
H329 C322 0.930 . S
C330 C331 1.351 . S
C330 N333 1.368 . S
C330 H335 0.931 . S
C331 C330 1.351 . S
C331 N332 1.373 . S
C331 H359 0.930 . S
N332 C331 1.373 . S
N332 C334 1.340 . S
N333 C330 1.368 . S
N333 C334 1.321 . S
N333 Co336 2.135 . S
C334 N332 1.340 . S
C334 N333 1.321 . S
C334 H358 0.930 . S
H335 C330 0.931 . S
Co336 N333 2.135 . S
Co336 N339 2.121 . S
Co336 O344 2.055 . S
Co336 O347 2.039 . S
Co336 N350 2.140 . S
C337 O338 1.227 . S
C337 O347 1.265 . S
O338 C337 1.227 . S
N339 Co336 2.121 . S
N339 C341 1.375 . S
N339 C342 1.313 . S
C340 C341 1.338 . S
C340 N343 1.377 . S
C340 H360 0.930 . S
C341 N339 1.375 . S
C341 C340 1.338 . S
C341 H345 0.931 . S
C342 N339 1.313 . S
C342 N343 1.344 . S
C342 H346 0.930 . S
N343 C340 1.377 . S
N343 C342 1.344 . S
O344 Co336 2.055 . S
O344 C348 1.253 . S
H345 C341 0.931 . S
H346 C342 0.930 . S
O347 Co336 2.039 . S
O347 C337 1.265 . S
C348 O344 1.253 . S
C348 O349 1.227 . S
O349 C348 1.227 . S
N350 Co336 2.140 . S
N350 C353 1.346 . S
N350 C354 1.345 . S
C351 C352 1.387 . S
C351 C355 1.391 . S
C352 C351 1.387 . S
C352 C353 1.369 . S
C352 H361 0.929 . S
C353 N350 1.346 . S
C353 C352 1.369 . S
C353 H356 0.928 . S
C354 N350 1.345 . S
C354 C355 1.371 . S
C354 H357 0.931 . S
C355 C351 1.391 . S
C355 C354 1.371 . S
C355 H362 0.930 . S
H356 C353 0.928 . S
H357 C354 0.931 . S
H358 C334 0.930 . S
H359 C331 0.930 . S
H360 C340 0.930 . S
H361 C352 0.929 . S
H362 C355 0.930 . S
C363 C364 1.351 . S
C363 N366 1.368 . S
C363 H368 0.931 . S
C364 C363 1.351 . S
C364 N365 1.373 . S
C364 H392 0.930 . S
N365 C364 1.373 . S
N365 C367 1.340 . S
N366 C363 1.368 . S
N366 C367 1.321 . S
N366 Co369 2.135 . S
C367 N365 1.340 . S
C367 N366 1.321 . S
C367 H391 0.930 . S
H368 C363 0.931 . S
Co369 N366 2.135 . S
Co369 N372 2.121 . S
Co369 O377 2.055 . S
Co369 O380 2.039 . S
Co369 N383 2.140 . S
C370 O371 1.227 . S
C370 O380 1.265 . S
O371 C370 1.227 . S
N372 Co369 2.121 . S
N372 C374 1.375 . S
N372 C375 1.313 . S
C373 C374 1.338 . S
C373 N376 1.377 . S
C373 H393 0.930 . S
C374 N372 1.375 . S
C374 C373 1.338 . S
C374 H378 0.931 . S
C375 N372 1.313 . S
C375 N376 1.344 . S
C375 H379 0.930 . S
N376 C373 1.377 . S
N376 C375 1.344 . S
O377 Co369 2.055 . S
O377 C381 1.253 . S
H378 C374 0.931 . S
H379 C375 0.930 . S
O380 Co369 2.039 . S
O380 C370 1.265 . S
C381 O377 1.253 . S
C381 O382 1.227 . S
O382 C381 1.227 . S
N383 Co369 2.140 . S
N383 C386 1.346 . S
N383 C387 1.345 . S
C384 C385 1.387 . S
C384 C388 1.391 . S
C385 C384 1.387 . S
C385 C386 1.369 . S
C385 H394 0.929 . S
C386 N383 1.346 . S
C386 C385 1.369 . S
C386 H389 0.928 . S
C387 N383 1.345 . S
C387 C388 1.371 . S
C387 H390 0.931 . S
C388 C384 1.391 . S
C388 C387 1.371 . S
C388 H395 0.930 . S
H389 C386 0.928 . S
H390 C387 0.931 . S
H391 C367 0.930 . S
H392 C364 0.930 . S
H393 C373 0.930 . S
H394 C385 0.929 . S
H395 C388 0.930 . S
C396 C397 1.351 . S
C396 N399 1.368 . S
C396 H401 0.931 . S
C397 C396 1.351 . S
C397 N398 1.373 . S
C397 H425 0.930 . S
N398 C397 1.373 . S
N398 C400 1.340 . S
N399 C396 1.368 . S
N399 C400 1.321 . S
N399 Co402 2.135 . S
C400 N398 1.340 . S
C400 N399 1.321 . S
C400 H424 0.930 . S
H401 C396 0.931 . S
Co402 N399 2.135 . S
Co402 N405 2.121 . S
Co402 O410 2.055 . S
Co402 O413 2.039 . S
Co402 N416 2.140 . S
C403 O404 1.227 . S
C403 O413 1.265 . S
O404 C403 1.227 . S
N405 Co402 2.121 . S
N405 C407 1.375 . S
N405 C408 1.313 . S
C406 C407 1.338 . S
C406 N409 1.377 . S
C406 H426 0.930 . S
C407 N405 1.375 . S
C407 C406 1.338 . S
C407 H411 0.931 . S
C408 N405 1.313 . S
C408 N409 1.344 . S
C408 H412 0.930 . S
N409 C406 1.377 . S
N409 C408 1.344 . S
O410 Co402 2.055 . S
O410 C414 1.253 . S
H411 C407 0.931 . S
H412 C408 0.930 . S
O413 Co402 2.039 . S
O413 C403 1.265 . S
C414 O410 1.253 . S
C414 O415 1.227 . S
O415 C414 1.227 . S
N416 Co402 2.140 . S
N416 C419 1.346 . S
N416 C420 1.345 . S
C417 C418 1.387 . S
C417 C421 1.391 . S
C418 C417 1.387 . S
C418 C419 1.369 . S
C418 H427 0.929 . S
C419 N416 1.346 . S
C419 C418 1.369 . S
C419 H422 0.928 . S
C420 N416 1.345 . S
C420 C421 1.371 . S
C420 H423 0.931 . S
C421 C417 1.391 . S
C421 C420 1.371 . S
C421 H428 0.930 . S
H422 C419 0.928 . S
H423 C420 0.931 . S
H424 C400 0.930 . S
H425 C397 0.930 . S
H426 C406 0.930 . S
H427 C418 0.929 . S
H428 C421 0.930 . S
C429 C430 1.351 . S
C429 N432 1.368 . S
C429 H434 0.931 . S
C430 C429 1.351 . S
C430 N431 1.373 . S
C430 H458 0.930 . S
N431 C430 1.373 . S
N431 C433 1.340 . S
N432 C429 1.368 . S
N432 C433 1.321 . S
N432 Co435 2.135 . S
C433 N431 1.340 . S
C433 N432 1.321 . S
C433 H457 0.930 . S
H434 C429 0.931 . S
Co435 N432 2.135 . S
Co435 N438 2.121 . S
Co435 O443 2.055 . S
Co435 O446 2.039 . S
Co435 N449 2.140 . S
C436 O437 1.227 . S
C436 O446 1.265 . S
O437 C436 1.227 . S
N438 Co435 2.121 . S
N438 C440 1.375 . S
N438 C441 1.313 . S
C439 C440 1.338 . S
C439 N442 1.377 . S
C439 H459 0.930 . S
C440 N438 1.375 . S
C440 C439 1.338 . S
C440 H444 0.931 . S
C441 N438 1.313 . S
C441 N442 1.344 . S
C441 H445 0.930 . S
N442 C439 1.377 . S
N442 C441 1.344 . S
O443 Co435 2.055 . S
O443 C447 1.253 . S
H444 C440 0.931 . S
H445 C441 0.930 . S
O446 Co435 2.039 . S
O446 C436 1.265 . S
C447 O443 1.253 . S
C447 O448 1.227 . S
O448 C447 1.227 . S
N449 Co435 2.140 . S
N449 C452 1.346 . S
N449 C453 1.345 . S
C450 C451 1.387 . S
C450 C454 1.391 . S
C451 C450 1.387 . S
C451 C452 1.369 . S
C451 H460 0.929 . S
C452 N449 1.346 . S
C452 C451 1.369 . S
C452 H455 0.928 . S
C453 N449 1.345 . S
C453 C454 1.371 . S
C453 H456 0.931 . S
C454 C450 1.391 . S
C454 C453 1.371 . S
C454 H461 0.930 . S
H455 C452 0.928 . S
H456 C453 0.931 . S
H457 C433 0.930 . S
H458 C430 0.930 . S
H459 C439 0.930 . S
H460 C451 0.929 . S
H461 C454 0.930 . S
C462 C463 1.351 . S
C462 N465 1.368 . S
C462 H467 0.931 . S
C463 C462 1.351 . S
C463 N464 1.373 . S
C463 H491 0.930 . S
N464 C463 1.373 . S
N464 C466 1.340 . S
N465 C462 1.368 . S
N465 C466 1.321 . S
N465 Co468 2.135 . S
C466 N464 1.340 . S
C466 N465 1.321 . S
C466 H490 0.930 . S
H467 C462 0.931 . S
Co468 N465 2.135 . S
Co468 N471 2.121 . S
Co468 O476 2.055 . S
Co468 O479 2.039 . S
Co468 N482 2.140 . S
C469 O470 1.227 . S
C469 O479 1.265 . S
O470 C469 1.227 . S
N471 Co468 2.121 . S
N471 C473 1.375 . S
N471 C474 1.313 . S
C472 C473 1.338 . S
C472 N475 1.377 . S
C472 H492 0.930 . S
C473 N471 1.375 . S
C473 C472 1.338 . S
C473 H477 0.931 . S
C474 N471 1.313 . S
C474 N475 1.344 . S
C474 H478 0.930 . S
N475 C472 1.377 . S
N475 C474 1.344 . S
O476 Co468 2.055 . S
O476 C480 1.253 . S
H477 C473 0.931 . S
H478 C474 0.930 . S
O479 Co468 2.039 . S
O479 C469 1.265 . S
C480 O476 1.253 . S
C480 O481 1.227 . S
O481 C480 1.227 . S
N482 Co468 2.140 . S
N482 C485 1.346 . S
N482 C486 1.345 . S
C483 C484 1.387 . S
C483 C487 1.391 . S
C484 C483 1.387 . S
C484 C485 1.369 . S
C484 H493 0.929 . S
C485 N482 1.346 . S
C485 C484 1.369 . S
C485 H488 0.928 . S
C486 N482 1.345 . S
C486 C487 1.371 . S
C486 H489 0.931 . S
C487 C483 1.391 . S
C487 C486 1.371 . S
C487 H494 0.930 . S
H488 C485 0.928 . S
H489 C486 0.931 . S
H490 C466 0.930 . S
H491 C463 0.930 . S
H492 C472 0.930 . S
H493 C484 0.929 . S
H494 C487 0.930 . S
C495 C496 1.351 . S
C495 N498 1.368 . S
C495 H500 0.931 . S
C496 C495 1.351 . S
C496 N497 1.373 . S
C496 H524 0.930 . S
N497 C496 1.373 . S
N497 C499 1.340 . S
N498 C495 1.368 . S
N498 C499 1.321 . S
N498 Co501 2.135 . S
C499 N497 1.340 . S
C499 N498 1.321 . S
C499 H523 0.930 . S
H500 C495 0.931 . S
Co501 N498 2.135 . S
Co501 N504 2.121 . S
Co501 O509 2.055 . S
Co501 O512 2.039 . S
Co501 N515 2.140 . S
C502 O503 1.227 . S
C502 O512 1.265 . S
O503 C502 1.227 . S
N504 Co501 2.121 . S
N504 C506 1.375 . S
N504 C507 1.313 . S
C505 C506 1.338 . S
C505 N508 1.377 . S
C505 H525 0.930 . S
C506 N504 1.375 . S
C506 C505 1.338 . S
C506 H510 0.931 . S
C507 N504 1.313 . S
C507 N508 1.344 . S
C507 H511 0.930 . S
N508 C505 1.377 . S
N508 C507 1.344 . S
O509 Co501 2.055 . S
O509 C513 1.253 . S
H510 C506 0.931 . S
H511 C507 0.930 . S
O512 Co501 2.039 . S
O512 C502 1.265 . S
C513 O509 1.253 . S
C513 O514 1.227 . S
O514 C513 1.227 . S
N515 Co501 2.140 . S
N515 C518 1.346 . S
N515 C519 1.345 . S
C516 C517 1.387 . S
C516 C520 1.391 . S
C517 C516 1.387 . S
C517 C518 1.369 . S
C517 H526 0.929 . S
C518 N515 1.346 . S
C518 C517 1.369 . S
C518 H521 0.928 . S
C519 N515 1.345 . S
C519 C520 1.371 . S
C519 H522 0.931 . S
C520 C516 1.391 . S
C520 C519 1.371 . S
C520 H527 0.930 . S
H521 C518 0.928 . S
H522 C519 0.931 . S
H523 C499 0.930 . S
H524 C496 0.930 . S
H525 C505 0.930 . S
H526 C517 0.929 . S
H527 C520 0.930 . S
C528 C529 1.351 . S
C528 N531 1.368 . S
C528 H533 0.931 . S
C529 C528 1.351 . S
C529 N530 1.373 . S
C529 H557 0.930 . S
N530 C529 1.373 . S
N530 C532 1.340 . S
N531 C528 1.368 . S
N531 C532 1.321 . S
N531 Co534 2.135 . S
C532 N530 1.340 . S
C532 N531 1.321 . S
C532 H556 0.930 . S
H533 C528 0.931 . S
Co534 N531 2.135 . S
Co534 N537 2.121 . S
Co534 O542 2.055 . S
Co534 O545 2.039 . S
Co534 N548 2.140 . S
C535 O536 1.227 . S
C535 O545 1.265 . S
O536 C535 1.227 . S
N537 Co534 2.121 . S
N537 C539 1.375 . S
N537 C540 1.313 . S
C538 C539 1.338 . S
C538 N541 1.377 . S
C538 H558 0.930 . S
C539 N537 1.375 . S
C539 C538 1.338 . S
C539 H543 0.931 . S
C540 N537 1.313 . S
C540 N541 1.344 . S
C540 H544 0.930 . S
N541 C538 1.377 . S
N541 C540 1.344 . S
O542 Co534 2.055 . S
O542 C546 1.253 . S
H543 C539 0.931 . S
H544 C540 0.930 . S
O545 Co534 2.039 . S
O545 C535 1.265 . S
C546 O542 1.253 . S
C546 O547 1.227 . S
O547 C546 1.227 . S
N548 Co534 2.140 . S
N548 C551 1.346 . S
N548 C552 1.345 . S
C549 C550 1.387 . S
C549 C553 1.391 . S
C550 C549 1.387 . S
C550 C551 1.369 . S
C550 H559 0.929 . S
C551 N548 1.346 . S
C551 C550 1.369 . S
C551 H554 0.928 . S
C552 N548 1.345 . S
C552 C553 1.371 . S
C552 H555 0.931 . S
C553 C549 1.391 . S
C553 C552 1.371 . S
C553 H560 0.930 . S
H554 C551 0.928 . S
H555 C552 0.931 . S
H556 C532 0.930 . S
H557 C529 0.930 . S
H558 C538 0.930 . S
H559 C550 0.929 . S
H560 C553 0.930 . S
C561 C562 1.351 . S
C561 N564 1.368 . S
C561 H566 0.931 . S
C562 C561 1.351 . S
C562 N563 1.373 . S
C562 H590 0.930 . S
N563 C562 1.373 . S
N563 C565 1.340 . S
N564 C561 1.368 . S
N564 C565 1.321 . S
N564 Co567 2.135 . S
C565 N563 1.340 . S
C565 N564 1.321 . S
C565 H589 0.930 . S
H566 C561 0.931 . S
Co567 N564 2.135 . S
Co567 N570 2.121 1_565 S
Co567 O575 2.055 1_565 S
Co567 O578 2.039 . S
Co567 N581 2.140 . S
C568 O569 1.227 . S
C568 O578 1.265 . S
O569 C568 1.227 . S
N570 Co567 2.121 1_545 S
N570 C572 1.372 1_545 S
N570 C573 1.313 . S
C571 C572 1.327 1_545 S
C571 N574 1.377 . S
C571 H591 0.930 . S
C572 N570 1.372 1_565 S
C572 C571 1.327 1_565 S
C572 H576 0.944 . S
C573 N570 1.313 . S
C573 N574 1.344 . S
C573 H577 0.930 . S
N574 C571 1.377 . S
N574 C573 1.344 . S
O575 Co567 2.055 1_545 S
O575 C579 1.253 . S
H576 C572 0.944 . S
H577 C573 0.930 . S
O578 Co567 2.039 . S
O578 C568 1.265 . S
C579 O575 1.253 . S
C579 O580 1.227 . S
O580 C579 1.227 . S
N581 Co567 2.140 . S
N581 C584 1.346 . S
N581 C585 1.345 . S
C582 C583 1.387 . S
C582 C586 1.391 . S
C583 C582 1.387 . S
C583 C584 1.369 . S
C583 H592 0.929 . S
C584 N581 1.346 . S
C584 C583 1.369 . S
C584 H587 0.928 . S
C585 N581 1.345 . S
C585 C586 1.371 . S
C585 H588 0.931 . S
C586 C582 1.391 . S
C586 C585 1.371 . S
C586 H593 0.930 . S
H587 C584 0.928 . S
H588 C585 0.931 . S
H589 C565 0.930 . S
H590 C562 0.930 . S
H591 C571 0.930 . S
H592 C583 0.929 . S
H593 C586 0.930 . S
C594 C595 1.351 . S
C594 N597 1.368 . S
C594 H599 0.931 . S
C595 C594 1.351 . S
C595 N596 1.373 . S
C595 H623 0.930 . S
N596 C595 1.373 . S
N596 C598 1.340 . S
N597 C594 1.368 . S
N597 C598 1.321 . S
N597 Co600 2.135 . S
C598 N596 1.340 . S
C598 N597 1.321 . S
C598 H622 0.930 . S
H599 C594 0.931 . S
Co600 N597 2.135 . S
Co600 N603 2.121 1_565 S
Co600 O608 2.055 1_565 S
Co600 O611 2.039 . S
Co600 N614 2.140 . S
C601 O602 1.227 . S
C601 O611 1.265 . S
O602 C601 1.227 . S
N603 Co600 2.121 1_545 S
N603 C605 1.372 1_545 S
N603 C606 1.313 . S
C604 C605 1.327 1_545 S
C604 N607 1.377 . S
C604 H624 0.930 . S
C605 N603 1.372 1_565 S
C605 C604 1.327 1_565 S
C605 H609 0.944 . S
C606 N603 1.313 . S
C606 N607 1.344 . S
C606 H610 0.930 . S
N607 C604 1.377 . S
N607 C606 1.344 . S
O608 Co600 2.055 1_545 S
O608 C612 1.253 . S
H609 C605 0.944 . S
H610 C606 0.930 . S
O611 Co600 2.039 . S
O611 C601 1.265 . S
C612 O608 1.253 . S
C612 O613 1.227 . S
O613 C612 1.227 . S
N614 Co600 2.140 . S
N614 C617 1.346 . S
N614 C618 1.345 . S
C615 C616 1.387 . S
C615 C619 1.391 . S
C616 C615 1.387 . S
C616 C617 1.369 . S
C616 H625 0.929 . S
C617 N614 1.346 . S
C617 C616 1.369 . S
C617 H620 0.928 . S
C618 N614 1.345 . S
C618 C619 1.371 . S
C618 H621 0.931 . S
C619 C615 1.391 . S
C619 C618 1.371 . S
C619 H626 0.930 . S
H620 C617 0.928 . S
H621 C618 0.931 . S
H622 C598 0.930 . S
H623 C595 0.930 . S
H624 C604 0.930 . S
H625 C616 0.929 . S
H626 C619 0.930 . S
C627 C628 1.351 . S
C627 N630 1.368 . S
C627 H632 0.931 . S
C628 C627 1.351 . S
C628 N629 1.373 . S
C628 H656 0.930 . S
N629 C628 1.373 . S
N629 C631 1.340 . S
N630 C627 1.368 . S
N630 C631 1.321 . S
N630 Co633 2.135 . S
C631 N629 1.340 . S
C631 N630 1.321 . S
C631 H655 0.930 . S
H632 C627 0.931 . S
Co633 N630 2.135 . S
Co633 N636 2.121 . S
Co633 O641 2.055 . S
Co633 O644 2.039 . S
Co633 N647 2.140 . S
C634 O635 1.227 . S
C634 O644 1.265 . S
O635 C634 1.227 . S
N636 Co633 2.121 . S
N636 C638 1.375 . S
N636 C639 1.313 . S
C637 C638 1.338 . S
C637 N640 1.377 . S
C637 H657 0.930 . S
C638 N636 1.375 . S
C638 C637 1.338 . S
C638 H642 0.931 . S
C639 N636 1.313 . S
C639 N640 1.344 . S
C639 H643 0.930 . S
N640 C637 1.377 . S
N640 C639 1.344 . S
O641 Co633 2.055 . S
O641 C645 1.253 . S
H642 C638 0.931 . S
H643 C639 0.930 . S
O644 Co633 2.039 . S
O644 C634 1.265 . S
C645 O641 1.253 . S
C645 O646 1.227 . S
O646 C645 1.227 . S
N647 Co633 2.140 . S
N647 C650 1.346 . S
N647 C651 1.345 . S
C648 C649 1.387 . S
C648 C652 1.391 . S
C649 C648 1.387 . S
C649 C650 1.369 . S
C649 H658 0.929 . S
C650 N647 1.346 . S
C650 C649 1.369 . S
C650 H653 0.928 . S
C651 N647 1.345 . S
C651 C652 1.371 . S
C651 H654 0.931 . S
C652 C648 1.391 . S
C652 C651 1.371 . S
C652 H659 0.930 . S
H653 C650 0.928 . S
H654 C651 0.931 . S
H655 C631 0.930 . S
H656 C628 0.930 . S
H657 C637 0.930 . S
H658 C649 0.929 . S
H659 C652 0.930 . S
C660 C661 1.351 . S
C660 N663 1.368 . S
C660 H665 0.931 . S
C661 C660 1.351 . S
C661 N662 1.373 . S
C661 H689 0.930 . S
N662 C661 1.373 . S
N662 C664 1.340 . S
N663 C660 1.368 . S
N663 C664 1.321 . S
N663 Co666 2.135 . S
C664 N662 1.340 . S
C664 N663 1.321 . S
C664 H688 0.930 . S
H665 C660 0.931 . S
Co666 N663 2.135 . S
Co666 N669 2.121 . S
Co666 O674 2.055 . S
Co666 O677 2.039 . S
Co666 N680 2.140 . S
C667 O668 1.227 . S
C667 O677 1.265 . S
O668 C667 1.227 . S
N669 Co666 2.121 . S
N669 C671 1.375 . S
N669 C672 1.313 . S
C670 C671 1.338 . S
C670 N673 1.377 . S
C670 H690 0.930 . S
C671 N669 1.375 . S
C671 C670 1.338 . S
C671 H675 0.931 . S
C672 N669 1.313 . S
C672 N673 1.344 . S
C672 H676 0.930 . S
N673 C670 1.377 . S
N673 C672 1.344 . S
O674 Co666 2.055 . S
O674 C678 1.253 . S
H675 C671 0.931 . S
H676 C672 0.930 . S
O677 Co666 2.039 . S
O677 C667 1.265 . S
C678 O674 1.253 . S
C678 O679 1.227 . S
O679 C678 1.227 . S
N680 Co666 2.140 . S
N680 C683 1.346 . S
N680 C684 1.345 . S
C681 C682 1.387 . S
C681 C685 1.391 . S
C682 C681 1.387 . S
C682 C683 1.369 . S
C682 H691 0.929 . S
C683 N680 1.346 . S
C683 C682 1.369 . S
C683 H686 0.928 . S
C684 N680 1.345 . S
C684 C685 1.371 . S
C684 H687 0.931 . S
C685 C681 1.391 . S
C685 C684 1.371 . S
C685 H692 0.930 . S
H686 C683 0.928 . S
H687 C684 0.931 . S
H688 C664 0.930 . S
H689 C661 0.930 . S
H690 C670 0.930 . S
H691 C682 0.929 . S
H692 C685 0.930 . S
C693 C694 1.351 . S
C693 N696 1.368 . S
C693 H698 0.931 . S
C694 C693 1.351 . S
C694 N695 1.373 . S
C694 H722 0.930 . S
N695 C694 1.373 . S
N695 C697 1.340 . S
N696 C693 1.368 . S
N696 C697 1.321 . S
N696 Co699 2.135 . S
C697 N695 1.340 . S
C697 N696 1.321 . S
C697 H721 0.930 . S
H698 C693 0.931 . S
Co699 N696 2.135 . S
Co699 N702 2.121 1_545 S
Co699 O707 2.055 1_545 S
Co699 O710 2.039 . S
Co699 N713 2.140 . S
C700 O701 1.227 . S
C700 O710 1.265 . S
O701 C700 1.227 . S
N702 Co699 2.121 1_565 S
N702 C704 1.372 1_565 S
N702 C705 1.313 . S
C703 C704 1.327 1_565 S
C703 N706 1.377 . S
C703 H723 0.930 . S
C704 N702 1.372 1_545 S
C704 C703 1.327 1_545 S
C704 H708 0.944 . S
C705 N702 1.313 . S
C705 N706 1.344 . S
C705 H709 0.930 . S
N706 C703 1.377 . S
N706 C705 1.344 . S
O707 Co699 2.055 1_565 S
O707 C711 1.253 . S
H708 C704 0.944 . S
H709 C705 0.930 . S
O710 Co699 2.039 . S
O710 C700 1.265 . S
C711 O707 1.253 . S
C711 O712 1.227 . S
O712 C711 1.227 . S
N713 Co699 2.140 . S
N713 C716 1.346 . S
N713 C717 1.345 . S
C714 C715 1.387 . S
C714 C718 1.391 . S
C715 C714 1.387 . S
C715 C716 1.369 . S
C715 H724 0.929 . S
C716 N713 1.346 . S
C716 C715 1.369 . S
C716 H719 0.928 . S
C717 N713 1.345 . S
C717 C718 1.371 . S
C717 H720 0.931 . S
C718 C714 1.391 . S
C718 C717 1.371 . S
C718 H725 0.930 . S
H719 C716 0.928 . S
H720 C717 0.931 . S
H721 C697 0.930 . S
H722 C694 0.930 . S
H723 C703 0.930 . S
H724 C715 0.929 . S
H725 C718 0.930 . S
C726 C727 1.351 . S
C726 N729 1.368 . S
C726 H731 0.931 . S
C727 C726 1.351 . S
C727 N728 1.373 . S
C727 H755 0.930 . S
N728 C727 1.373 . S
N728 C730 1.340 . S
N729 C726 1.368 . S
N729 C730 1.321 . S
N729 Co732 2.135 . S
C730 N728 1.340 . S
C730 N729 1.321 . S
C730 H754 0.930 . S
H731 C726 0.931 . S
Co732 N729 2.135 . S
Co732 N735 2.121 1_545 S
Co732 O740 2.055 1_545 S
Co732 O743 2.039 . S
Co732 N746 2.140 . S
C733 O734 1.227 . S
C733 O743 1.265 . S
O734 C733 1.227 . S
N735 Co732 2.121 1_565 S
N735 C737 1.372 1_565 S
N735 C738 1.313 . S
C736 C737 1.327 1_565 S
C736 N739 1.377 . S
C736 H756 0.930 . S
C737 N735 1.372 1_545 S
C737 C736 1.327 1_545 S
C737 H741 0.944 . S
C738 N735 1.313 . S
C738 N739 1.344 . S
C738 H742 0.930 . S
N739 C736 1.377 . S
N739 C738 1.344 . S
O740 Co732 2.055 1_565 S
O740 C744 1.253 . S
H741 C737 0.944 . S
H742 C738 0.930 . S
O743 Co732 2.039 . S
O743 C733 1.265 . S
C744 O740 1.253 . S
C744 O745 1.227 . S
O745 C744 1.227 . S
N746 Co732 2.140 . S
N746 C749 1.346 . S
N746 C750 1.345 . S
C747 C748 1.387 . S
C747 C751 1.391 . S
C748 C747 1.387 . S
C748 C749 1.369 . S
C748 H757 0.929 . S
C749 N746 1.346 . S
C749 C748 1.369 . S
C749 H752 0.928 . S
C750 N746 1.345 . S
C750 C751 1.371 . S
C750 H753 0.931 . S
C751 C747 1.391 . S
C751 C750 1.371 . S
C751 H758 0.930 . S
H752 C749 0.928 . S
H753 C750 0.931 . S
H754 C730 0.930 . S
H755 C727 0.930 . S
H756 C736 0.930 . S
H757 C748 0.929 . S
H758 C751 0.930 . S
C759 C760 1.351 . S
C759 N762 1.368 . S
C759 H764 0.931 . S
C760 C759 1.351 . S
C760 N761 1.373 . S
C760 H788 0.930 . S
N761 C760 1.373 . S
N761 C763 1.340 . S
N762 C759 1.368 . S
N762 C763 1.321 . S
N762 Co765 2.135 . S
C763 N761 1.340 . S
C763 N762 1.321 . S
C763 H787 0.930 . S
H764 C759 0.931 . S
Co765 N762 2.135 . S
Co765 N768 2.121 . S
Co765 O773 2.055 . S
Co765 O776 2.039 . S
Co765 N779 2.140 . S
C766 O767 1.227 . S
C766 O776 1.265 . S
O767 C766 1.227 . S
N768 Co765 2.121 . S
N768 C770 1.375 . S
N768 C771 1.313 . S
C769 C770 1.338 . S
C769 N772 1.377 . S
C769 H789 0.930 . S
C770 N768 1.375 . S
C770 C769 1.338 . S
C770 H774 0.931 . S
C771 N768 1.313 . S
C771 N772 1.344 . S
C771 H775 0.930 . S
N772 C769 1.377 . S
N772 C771 1.344 . S
O773 Co765 2.055 . S
O773 C777 1.253 . S
H774 C770 0.931 . S
H775 C771 0.930 . S
O776 Co765 2.039 . S
O776 C766 1.265 . S
C777 O773 1.253 . S
C777 O778 1.227 . S
O778 C777 1.227 . S
N779 Co765 2.140 . S
N779 C782 1.346 . S
N779 C783 1.345 . S
C780 C781 1.387 . S
C780 C784 1.391 . S
C781 C780 1.387 . S
C781 C782 1.369 . S
C781 H790 0.929 . S
C782 N779 1.346 . S
C782 C781 1.369 . S
C782 H785 0.928 . S
C783 N779 1.345 . S
C783 C784 1.371 . S
C783 H786 0.931 . S
C784 C780 1.391 . S
C784 C783 1.371 . S
C784 H791 0.930 . S
H785 C782 0.928 . S
H786 C783 0.931 . S
H787 C763 0.930 . S
H788 C760 0.930 . S
H789 C769 0.930 . S
H790 C781 0.929 . S
H791 C784 0.930 . S
C792 C793 1.351 . S
C792 N795 1.368 . S
C792 H797 0.931 . S
C793 C792 1.351 . S
C793 N794 1.373 . S
C793 H821 0.930 . S
N794 C793 1.373 . S
N794 C796 1.340 . S
N795 C792 1.368 . S
N795 C796 1.321 . S
N795 Co798 2.135 . S
C796 N794 1.340 . S
C796 N795 1.321 . S
C796 H820 0.930 . S
H797 C792 0.931 . S
Co798 N795 2.135 . S
Co798 N801 2.121 . S
Co798 O806 2.055 . S
Co798 O809 2.039 . S
Co798 N812 2.140 . S
C799 O800 1.227 . S
C799 O809 1.265 . S
O800 C799 1.227 . S
N801 Co798 2.121 . S
N801 C803 1.375 . S
N801 C804 1.313 . S
C802 C803 1.338 . S
C802 N805 1.377 . S
C802 H822 0.930 . S
C803 N801 1.375 . S
C803 C802 1.338 . S
C803 H807 0.931 . S
C804 N801 1.313 . S
C804 N805 1.344 . S
C804 H808 0.930 . S
N805 C802 1.377 . S
N805 C804 1.344 . S
O806 Co798 2.055 . S
O806 C810 1.253 . S
H807 C803 0.931 . S
H808 C804 0.930 . S
O809 Co798 2.039 . S
O809 C799 1.265 . S
C810 O806 1.253 . S
C810 O811 1.227 . S
O811 C810 1.227 . S
N812 Co798 2.140 . S
N812 C815 1.346 . S
N812 C816 1.345 . S
C813 C814 1.387 . S
C813 C817 1.391 . S
C814 C813 1.387 . S
C814 C815 1.369 . S
C814 H823 0.929 . S
C815 N812 1.346 . S
C815 C814 1.369 . S
C815 H818 0.928 . S
C816 N812 1.345 . S
C816 C817 1.371 . S
C816 H819 0.931 . S
C817 C813 1.391 . S
C817 C816 1.371 . S
C817 H824 0.930 . S
H818 C815 0.928 . S
H819 C816 0.931 . S
H820 C796 0.930 . S
H821 C793 0.930 . S
H822 C802 0.930 . S
H823 C814 0.929 . S
H824 C817 0.930 . S
C825 C826 1.351 . S
C825 N828 1.368 . S
C825 H830 0.931 . S
C826 C825 1.351 . S
C826 N827 1.373 . S
C826 H854 0.930 . S
N827 C826 1.373 . S
N827 C829 1.340 . S
N828 C825 1.368 . S
N828 C829 1.321 . S
N828 Co831 2.135 . S
C829 N827 1.340 . S
C829 N828 1.321 . S
C829 H853 0.930 . S
H830 C825 0.931 . S
Co831 N828 2.135 . S
Co831 N834 2.121 . S
Co831 O839 2.055 . S
Co831 O842 2.039 . S
Co831 N845 2.140 . S
C832 O833 1.227 . S
C832 O842 1.265 . S
O833 C832 1.227 . S
N834 Co831 2.121 . S
N834 C836 1.375 . S
N834 C837 1.313 . S
C835 C836 1.338 . S
C835 N838 1.377 . S
C835 H855 0.930 . S
C836 N834 1.375 . S
C836 C835 1.338 . S
C836 H840 0.931 . S
C837 N834 1.313 . S
C837 N838 1.344 . S
C837 H841 0.930 . S
N838 C835 1.377 . S
N838 C837 1.344 . S
O839 Co831 2.055 . S
O839 C843 1.253 . S
H840 C836 0.931 . S
H841 C837 0.930 . S
O842 Co831 2.039 . S
O842 C832 1.265 . S
C843 O839 1.253 . S
C843 O844 1.227 . S
O844 C843 1.227 . S
N845 Co831 2.140 . S
N845 C848 1.346 . S
N845 C849 1.345 . S
C846 C847 1.387 . S
C846 C850 1.391 . S
C847 C846 1.387 . S
C847 C848 1.369 . S
C847 H856 0.929 . S
C848 N845 1.346 . S
C848 C847 1.369 . S
C848 H851 0.928 . S
C849 N845 1.345 . S
C849 C850 1.371 . S
C849 H852 0.931 . S
C850 C846 1.391 . S
C850 C849 1.371 . S
C850 H857 0.930 . S
H851 C848 0.928 . S
H852 C849 0.931 . S
H853 C829 0.930 . S
H854 C826 0.930 . S
H855 C835 0.930 . S
H856 C847 0.929 . S
H857 C850 0.930 . S
C858 C859 1.351 . S
C858 N861 1.368 . S
C858 H863 0.931 . S
C859 C858 1.351 . S
C859 N860 1.373 . S
C859 H887 0.930 . S
N860 C859 1.373 . S
N860 C862 1.340 . S
N861 C858 1.368 . S
N861 C862 1.321 . S
N861 Co864 2.135 1_556 S
C862 N860 1.340 . S
C862 N861 1.321 . S
C862 H886 0.930 . S
H863 C858 0.931 . S
Co864 N861 2.135 1_554 S
Co864 N867 2.121 . S
Co864 O872 2.055 1_554 S
Co864 O875 2.039 . S
Co864 N878 2.140 . S
C865 O866 1.227 . S
C865 O875 1.265 . S
O866 C865 1.227 . S
N867 Co864 2.121 . S
N867 C869 1.375 . S
N867 C870 1.313 . S
C868 C869 1.338 . S
C868 N871 1.377 . S
C868 H888 0.930 . S
C869 N867 1.375 . S
C869 C868 1.338 . S
C869 H873 0.931 . S
C870 N867 1.313 . S
C870 N871 1.344 . S
C870 H874 0.930 . S
N871 C868 1.377 . S
N871 C870 1.344 . S
O872 Co864 2.055 1_556 S
O872 C876 1.253 . S
H873 C869 0.931 . S
H874 C870 0.930 . S
O875 Co864 2.039 . S
O875 C865 1.265 . S
C876 O872 1.253 . S
C876 O877 1.227 1_556 S
O877 C876 1.227 1_554 S
N878 Co864 2.140 . S
N878 C881 1.346 . S
N878 C882 1.345 . S
C879 C880 1.387 . S
C879 C883 1.391 . S
C880 C879 1.387 . S
C880 C881 1.369 . S
C880 H889 0.929 . S
C881 N878 1.346 . S
C881 C880 1.369 . S
C881 H884 0.928 . S
C882 N878 1.345 . S
C882 C883 1.371 . S
C882 H885 0.931 . S
C883 C879 1.391 . S
C883 C882 1.371 . S
C883 H890 0.930 . S
H884 C881 0.928 . S
H885 C882 0.931 . S
H886 C862 0.930 . S
H887 C859 0.930 . S
H888 C868 0.930 . S
H889 C880 0.929 . S
H890 C883 0.930 . S
C891 C892 1.351 . S
C891 N894 1.368 . S
C891 H896 0.931 . S
C892 C891 1.351 . S
C892 N893 1.373 . S
C892 H920 0.930 . S
N893 C892 1.373 . S
N893 C895 1.340 . S
N894 C891 1.368 . S
N894 C895 1.321 . S
N894 Co897 2.135 1_556 S
C895 N893 1.340 . S
C895 N894 1.321 . S
C895 H919 0.930 . S
H896 C891 0.931 . S
Co897 N894 2.135 1_554 S
Co897 N900 2.121 . S
Co897 O905 2.055 1_554 S
Co897 O908 2.039 . S
Co897 N911 2.140 . S
C898 O899 1.227 . S
C898 O908 1.265 . S
O899 C898 1.227 . S
N900 Co897 2.121 . S
N900 C902 1.375 . S
N900 C903 1.313 . S
C901 C902 1.338 . S
C901 N904 1.377 . S
C901 H921 0.930 . S
C902 N900 1.375 . S
C902 C901 1.338 . S
C902 H906 0.931 . S
C903 N900 1.313 . S
C903 N904 1.344 . S
C903 H907 0.930 . S
N904 C901 1.377 . S
N904 C903 1.344 . S
O905 Co897 2.055 1_556 S
O905 C909 1.253 . S
H906 C902 0.931 . S
H907 C903 0.930 . S
O908 Co897 2.039 . S
O908 C898 1.265 . S
C909 O905 1.253 . S
C909 O910 1.227 1_556 S
O910 C909 1.227 1_554 S
N911 Co897 2.140 . S
N911 C914 1.346 . S
N911 C915 1.345 . S
C912 C913 1.387 . S
C912 C916 1.391 . S
C913 C912 1.387 . S
C913 C914 1.369 . S
C913 H922 0.929 . S
C914 N911 1.346 . S
C914 C913 1.369 . S
C914 H917 0.928 . S
C915 N911 1.345 . S
C915 C916 1.371 . S
C915 H918 0.931 . S
C916 C912 1.391 . S
C916 C915 1.371 . S
C916 H923 0.930 . S
H917 C914 0.928 . S
H918 C915 0.931 . S
H919 C895 0.930 . S
H920 C892 0.930 . S
H921 C901 0.930 . S
H922 C913 0.929 . S
H923 C916 0.930 . S
C924 C925 1.351 . S
C924 N927 1.368 . S
C924 H929 0.931 . S
C925 C924 1.351 . S
C925 N926 1.373 . S
C925 H953 0.930 . S
N926 C925 1.373 . S
N926 C928 1.340 . S
N927 C924 1.368 . S
N927 C928 1.321 . S
N927 Co930 2.135 . S
C928 N926 1.340 . S
C928 N927 1.321 . S
C928 H952 0.930 . S
H929 C924 0.931 . S
Co930 N927 2.135 . S
Co930 N933 2.121 . S
Co930 O938 2.055 . S
Co930 O941 2.039 . S
Co930 N944 2.140 . S
C931 O932 1.227 . S
C931 O941 1.265 . S
O932 C931 1.227 . S
N933 Co930 2.121 . S
N933 C935 1.375 . S
N933 C936 1.313 . S
C934 C935 1.338 . S
C934 N937 1.377 . S
C934 H954 0.930 . S
C935 N933 1.375 . S
C935 C934 1.338 . S
C935 H939 0.931 . S
C936 N933 1.313 . S
C936 N937 1.344 . S
C936 H940 0.930 . S
N937 C934 1.377 . S
N937 C936 1.344 . S
O938 Co930 2.055 . S
O938 C942 1.253 . S
H939 C935 0.931 . S
H940 C936 0.930 . S
O941 Co930 2.039 . S
O941 C931 1.265 . S
C942 O938 1.253 . S
C942 O943 1.227 . S
O943 C942 1.227 . S
N944 Co930 2.140 . S
N944 C947 1.346 . S
N944 C948 1.345 . S
C945 C946 1.387 . S
C945 C949 1.391 . S
C946 C945 1.387 . S
C946 C947 1.369 . S
C946 H955 0.929 . S
C947 N944 1.346 . S
C947 C946 1.369 . S
C947 H950 0.928 . S
C948 N944 1.345 . S
C948 C949 1.371 . S
C948 H951 0.931 . S
C949 C945 1.391 . S
C949 C948 1.371 . S
C949 H956 0.930 . S
H950 C947 0.928 . S
H951 C948 0.931 . S
H952 C928 0.930 . S
H953 C925 0.930 . S
H954 C934 0.930 . S
H955 C946 0.929 . S
H956 C949 0.930 . S
C957 C958 1.351 . S
C957 N960 1.368 . S
C957 H962 0.931 . S
C958 C957 1.351 . S
C958 N959 1.373 . S
C958 H986 0.930 . S
N959 C958 1.373 . S
N959 C961 1.340 . S
N960 C957 1.368 . S
N960 C961 1.321 . S
N960 Co963 2.135 . S
C961 N959 1.340 . S
C961 N960 1.321 . S
C961 H985 0.930 . S
H962 C957 0.931 . S
Co963 N960 2.135 . S
Co963 N966 2.121 . S
Co963 O971 2.055 . S
Co963 O974 2.039 . S
Co963 N977 2.140 . S
C964 O965 1.227 . S
C964 O974 1.265 . S
O965 C964 1.227 . S
N966 Co963 2.121 . S
N966 C968 1.375 . S
N966 C969 1.313 . S
C967 C968 1.338 . S
C967 N970 1.377 . S
C967 H987 0.930 . S
C968 N966 1.375 . S
C968 C967 1.338 . S
C968 H972 0.931 . S
C969 N966 1.313 . S
C969 N970 1.344 . S
C969 H973 0.930 . S
N970 C967 1.377 . S
N970 C969 1.344 . S
O971 Co963 2.055 . S
O971 C975 1.253 . S
H972 C968 0.931 . S
H973 C969 0.930 . S
O974 Co963 2.039 . S
O974 C964 1.265 . S
C975 O971 1.253 . S
C975 O976 1.227 . S
O976 C975 1.227 . S
N977 Co963 2.140 . S
N977 C980 1.346 . S
N977 C981 1.345 . S
C978 C979 1.387 . S
C978 C982 1.391 . S
C979 C978 1.387 . S
C979 C980 1.369 . S
C979 H988 0.929 . S
C980 N977 1.346 . S
C980 C979 1.369 . S
C980 H983 0.928 . S
C981 N977 1.345 . S
C981 C982 1.371 . S
C981 H984 0.931 . S
C982 C978 1.391 . S
C982 C981 1.371 . S
C982 H989 0.930 . S
H983 C980 0.928 . S
H984 C981 0.931 . S
H985 C961 0.930 . S
H986 C958 0.930 . S
H987 C967 0.930 . S
H988 C979 0.929 . S
H989 C982 0.930 . S
C990 C991 1.351 . S
C990 N993 1.368 . S
C990 H995 0.931 . S
C991 C990 1.351 . S
C991 N992 1.373 . S
C991 H1019 0.930 . S
N992 C991 1.373 . S
N992 C994 1.340 . S
N993 C990 1.368 . S
N993 C994 1.321 . S
N993 Co996 2.135 1_554 S
C994 N992 1.340 . S
C994 N993 1.321 . S
C994 H1018 0.930 . S
H995 C990 0.931 . S
Co996 N993 2.135 1_556 S
Co996 N999 2.121 . S
Co996 O1004 2.055 1_556 S
Co996 O1007 2.039 . S
Co996 N1010 2.140 . S
C997 O998 1.227 . S
C997 O1007 1.265 . S
O998 C997 1.227 . S
N999 Co996 2.121 . S
N999 C1001 1.375 . S
N999 C1002 1.313 . S
C1000 C1001 1.338 . S
C1000 N1003 1.377 . S
C1000 H1020 0.930 . S
C1001 N999 1.375 . S
C1001 C1000 1.338 . S
C1001 H1005 0.931 . S
C1002 N999 1.313 . S
C1002 N1003 1.344 . S
C1002 H1006 0.930 . S
N1003 C1000 1.377 . S
N1003 C1002 1.344 . S
O1004 Co996 2.055 1_554 S
O1004 C1008 1.253 . S
H1005 C1001 0.931 . S
H1006 C1002 0.930 . S
O1007 Co996 2.039 . S
O1007 C997 1.265 . S
C1008 O1004 1.253 . S
C1008 O1009 1.227 1_554 S
O1009 C1008 1.227 1_556 S
N1010 Co996 2.140 . S
N1010 C1013 1.346 . S
N1010 C1014 1.345 . S
C1011 C1012 1.387 . S
C1011 C1015 1.391 . S
C1012 C1011 1.387 . S
C1012 C1013 1.369 . S
C1012 H1021 0.929 . S
C1013 N1010 1.346 . S
C1013 C1012 1.369 . S
C1013 H1016 0.928 . S
C1014 N1010 1.345 . S
C1014 C1015 1.371 . S
C1014 H1017 0.931 . S
C1015 C1011 1.391 . S
C1015 C1014 1.371 . S
C1015 H1022 0.930 . S
H1016 C1013 0.928 . S
H1017 C1014 0.931 . S
H1018 C994 0.930 . S
H1019 C991 0.930 . S
H1020 C1000 0.930 . S
H1021 C1012 0.929 . S
H1022 C1015 0.930 . S
C1023 C1024 1.351 . S
C1023 N1026 1.368 . S
C1023 H1028 0.931 . S
C1024 C1023 1.351 . S
C1024 N1025 1.373 . S
C1024 H1052 0.930 . S
N1025 C1024 1.373 . S
N1025 C1027 1.340 . S
N1026 C1023 1.368 . S
N1026 C1027 1.321 . S
N1026 Co1029 2.135 1_554 S
C1027 N1025 1.340 . S
C1027 N1026 1.321 . S
C1027 H1051 0.930 . S
H1028 C1023 0.931 . S
Co1029 N1026 2.135 1_556 S
Co1029 N1032 2.121 . S
Co1029 O1037 2.055 1_556 S
Co1029 O1040 2.039 . S
Co1029 N1043 2.140 . S
C1030 O1031 1.227 . S
C1030 O1040 1.265 . S
O1031 C1030 1.227 . S
N1032 Co1029 2.121 . S
N1032 C1034 1.375 . S
N1032 C1035 1.313 . S
C1033 C1034 1.338 . S
C1033 N1036 1.377 . S
C1033 H1053 0.930 . S
C1034 N1032 1.375 . S
C1034 C1033 1.338 . S
C1034 H1038 0.931 . S
C1035 N1032 1.313 . S
C1035 N1036 1.344 . S
C1035 H1039 0.930 . S
N1036 C1033 1.377 . S
N1036 C1035 1.344 . S
O1037 Co1029 2.055 1_554 S
O1037 C1041 1.253 . S
H1038 C1034 0.931 . S
H1039 C1035 0.930 . S
O1040 Co1029 2.039 . S
O1040 C1030 1.265 . S
C1041 O1037 1.253 . S
C1041 O1042 1.227 1_554 S
O1042 C1041 1.227 1_556 S
N1043 Co1029 2.140 . S
N1043 C1046 1.346 . S
N1043 C1047 1.345 . S
C1044 C1045 1.387 . S
C1044 C1048 1.391 . S
C1045 C1044 1.387 . S
C1045 C1046 1.369 . S
C1045 H1054 0.929 . S
C1046 N1043 1.346 . S
C1046 C1045 1.369 . S
C1046 H1049 0.928 . S
C1047 N1043 1.345 . S
C1047 C1048 1.371 . S
C1047 H1050 0.931 . S
C1048 C1044 1.391 . S
C1048 C1047 1.371 . S
C1048 H1055 0.930 . S
H1049 C1046 0.928 . S
H1050 C1047 0.931 . S
H1051 C1027 0.930 . S
H1052 C1024 0.930 . S
H1053 C1033 0.930 . S
H1054 C1045 0.929 . S
H1055 C1048 0.930 . S
C1056 C1057 1.369 . S
C1056 C1058 1.419 . S
C1056 H1060 0.930 . S
C1057 C1056 1.369 . S
C1057 C1066 1.429 . S
C1058 C1056 1.419 . S
C1058 C1059 1.363 . S
C1058 H1061 0.929 . S
C1059 C1058 1.363 . S
C1059 C1065 1.428 . S
H1060 C1056 0.930 . S
H1061 C1058 0.929 . S
S1062 N1063 1.613 . S
S1062 N1064 1.610 . S
N1063 S1062 1.613 . S
N1063 C1066 1.350 . S
N1064 S1062 1.610 . S
N1064 C1065 1.351 . S
C1065 C1059 1.428 . S
C1065 N1064 1.351 . S
C1065 C1066 1.434 . S
C1066 C1057 1.429 . S
C1066 N1063 1.350 . S
C1066 C1065 1.434 . S
C1067 C1068 1.369 . S
C1067 C1069 1.419 . S
C1067 H1071 0.930 . S
C1068 C1067 1.369 . S
C1068 C1077 1.429 . S
C1069 C1067 1.419 . S
C1069 C1070 1.363 . S
C1069 H1072 0.929 . S
C1070 C1069 1.363 . S
C1070 C1076 1.428 . S
H1071 C1067 0.930 . S
H1072 C1069 0.929 . S
S1073 N1074 1.613 . S
S1073 N1075 1.610 . S
N1074 S1073 1.613 . S
N1074 C1077 1.350 . S
N1075 S1073 1.610 . S
N1075 C1076 1.351 . S
C1076 C1070 1.428 . S
C1076 N1075 1.351 . S
C1076 C1077 1.434 . S
C1077 C1068 1.429 . S
C1077 N1074 1.350 . S
C1077 C1076 1.434 . S
C1078 C1079 1.369 . S
C1078 C1080 1.419 . S
C1078 H1082 0.930 . S
C1079 C1078 1.369 . S
C1079 C1088 1.429 . S
C1080 C1078 1.419 . S
C1080 C1081 1.363 . S
C1080 H1083 0.929 . S
C1081 C1080 1.363 . S
C1081 C1087 1.428 . S
H1082 C1078 0.930 . S
H1083 C1080 0.929 . S
S1084 N1085 1.613 . S
S1084 N1086 1.610 . S
N1085 S1084 1.613 . S
N1085 C1088 1.350 . S
N1086 S1084 1.610 . S
N1086 C1087 1.351 . S
C1087 C1081 1.428 . S
C1087 N1086 1.351 . S
C1087 C1088 1.434 . S
C1088 C1079 1.429 . S
C1088 N1085 1.350 . S
C1088 C1087 1.434 . S
C1089 C1090 1.369 . S
C1089 C1091 1.419 . S
C1089 H1093 0.930 . S
C1090 C1089 1.369 . S
C1090 C1099 1.429 . S
C1091 C1089 1.419 . S
C1091 C1092 1.363 . S
C1091 H1094 0.929 . S
C1092 C1091 1.363 . S
C1092 C1098 1.428 . S
H1093 C1089 0.930 . S
H1094 C1091 0.929 . S
S1095 N1096 1.613 . S
S1095 N1097 1.610 . S
N1096 S1095 1.613 . S
N1096 C1099 1.350 . S
N1097 S1095 1.610 . S
N1097 C1098 1.351 . S
C1098 C1092 1.428 . S
C1098 N1097 1.351 . S
C1098 C1099 1.434 . S
C1099 C1090 1.429 . S
C1099 N1096 1.350 . S
C1099 C1098 1.434 . S
C1100 C1101 1.369 . S
C1100 C1102 1.419 . S
C1100 H1104 0.930 . S
C1101 C1100 1.369 . S
C1101 C1110 1.429 . S
C1102 C1100 1.419 . S
C1102 C1103 1.363 . S
C1102 H1105 0.929 . S
C1103 C1102 1.363 . S
C1103 C1109 1.428 . S
H1104 C1100 0.930 . S
H1105 C1102 0.929 . S
S1106 N1107 1.613 . S
S1106 N1108 1.610 . S
N1107 S1106 1.613 . S
N1107 C1110 1.350 . S
N1108 S1106 1.610 . S
N1108 C1109 1.351 . S
C1109 C1103 1.428 . S
C1109 N1108 1.351 . S
C1109 C1110 1.434 . S
C1110 C1101 1.429 . S
C1110 N1107 1.350 . S
C1110 C1109 1.434 . S
C1111 C1112 1.369 . S
C1111 C1113 1.419 . S
C1111 H1115 0.930 . S
C1112 C1111 1.369 . S
C1112 C1121 1.429 . S
C1113 C1111 1.419 . S
C1113 C1114 1.363 . S
C1113 H1116 0.929 . S
C1114 C1113 1.363 . S
C1114 C1120 1.428 . S
H1115 C1111 0.930 . S
H1116 C1113 0.929 . S
S1117 N1118 1.613 . S
S1117 N1119 1.610 . S
N1118 S1117 1.613 . S
N1118 C1121 1.350 . S
N1119 S1117 1.610 . S
N1119 C1120 1.351 . S
C1120 C1114 1.428 . S
C1120 N1119 1.351 . S
C1120 C1121 1.434 . S
C1121 C1112 1.429 . S
C1121 N1118 1.350 . S
C1121 C1120 1.434 . S
C1122 C1123 1.369 . S
C1122 C1124 1.419 . S
C1122 H1126 0.930 . S
C1123 C1122 1.369 . S
C1123 C1132 1.429 . S
C1124 C1122 1.419 . S
C1124 C1125 1.363 . S
C1124 H1127 0.929 . S
C1125 C1124 1.363 . S
C1125 C1131 1.428 . S
H1126 C1122 0.930 . S
H1127 C1124 0.929 . S
S1128 N1129 1.613 . S
S1128 N1130 1.610 . S
N1129 S1128 1.613 . S
N1129 C1132 1.350 . S
N1130 S1128 1.610 . S
N1130 C1131 1.351 . S
C1131 C1125 1.428 . S
C1131 N1130 1.351 . S
C1131 C1132 1.434 . S
C1132 C1123 1.429 . S
C1132 N1129 1.350 . S
C1132 C1131 1.434 . S
C1133 C1134 1.369 . S
C1133 C1135 1.419 . S
C1133 H1137 0.930 . S
C1134 C1133 1.369 . S
C1134 C1143 1.429 . S
C1135 C1133 1.419 . S
C1135 C1136 1.363 . S
C1135 H1138 0.929 . S
C1136 C1135 1.363 . S
C1136 C1142 1.428 . S
H1137 C1133 0.930 . S
H1138 C1135 0.929 . S
S1139 N1140 1.613 . S
S1139 N1141 1.610 . S
N1140 S1139 1.613 . S
N1140 C1143 1.350 . S
N1141 S1139 1.610 . S
N1141 C1142 1.351 . S
C1142 C1136 1.428 . S
C1142 N1141 1.351 . S
C1142 C1143 1.434 . S
C1143 C1134 1.429 . S
C1143 N1140 1.350 . S
C1143 C1142 1.434 . S
C1144 C1145 1.369 . S
C1144 C1146 1.419 . S
C1144 H1148 0.930 . S
C1145 C1144 1.369 . S
C1145 C1154 1.429 . S
C1146 C1144 1.419 . S
C1146 C1147 1.363 . S
C1146 H1149 0.929 . S
C1147 C1146 1.363 . S
C1147 C1153 1.428 . S
H1148 C1144 0.930 . S
H1149 C1146 0.929 . S
S1150 N1151 1.613 . S
S1150 N1152 1.610 . S
N1151 S1150 1.613 . S
N1151 C1154 1.350 . S
N1152 S1150 1.610 . S
N1152 C1153 1.351 . S
C1153 C1147 1.428 . S
C1153 N1152 1.351 . S
C1153 C1154 1.434 . S
C1154 C1145 1.429 . S
C1154 N1151 1.350 . S
C1154 C1153 1.434 . S
C1155 C1156 1.369 . S
C1155 C1157 1.419 . S
C1155 H1159 0.930 . S
C1156 C1155 1.369 . S
C1156 C1165 1.429 . S
C1157 C1155 1.419 . S
C1157 C1158 1.363 . S
C1157 H1160 0.929 . S
C1158 C1157 1.363 . S
C1158 C1164 1.428 . S
H1159 C1155 0.930 . S
H1160 C1157 0.929 . S
S1161 N1162 1.613 . S
S1161 N1163 1.610 . S
N1162 S1161 1.613 . S
N1162 C1165 1.350 . S
N1163 S1161 1.610 . S
N1163 C1164 1.351 . S
C1164 C1158 1.428 . S
C1164 N1163 1.351 . S
C1164 C1165 1.434 . S
C1165 C1156 1.429 . S
C1165 N1162 1.350 . S
C1165 C1164 1.434 . S
C1166 C1167 1.369 . S
C1166 C1168 1.419 . S
C1166 H1170 0.930 . S
C1167 C1166 1.369 . S
C1167 C1176 1.429 . S
C1168 C1166 1.419 . S
C1168 C1169 1.363 . S
C1168 H1171 0.929 . S
C1169 C1168 1.363 . S
C1169 C1175 1.428 . S
H1170 C1166 0.930 . S
H1171 C1168 0.929 . S
S1172 N1173 1.613 . S
S1172 N1174 1.610 . S
N1173 S1172 1.613 . S
N1173 C1176 1.350 . S
N1174 S1172 1.610 . S
N1174 C1175 1.351 . S
C1175 C1169 1.428 . S
C1175 N1174 1.351 . S
C1175 C1176 1.434 . S
C1176 C1167 1.429 . S
C1176 N1173 1.350 . S
C1176 C1175 1.434 . S
C1177 C1178 1.369 . S
C1177 C1179 1.419 . S
C1177 H1181 0.930 . S
C1178 C1177 1.369 . S
C1178 C1187 1.429 . S
C1179 C1177 1.419 . S
C1179 C1180 1.363 . S
C1179 H1182 0.929 . S
C1180 C1179 1.363 . S
C1180 C1186 1.428 . S
H1181 C1177 0.930 . S
H1182 C1179 0.929 . S
S1183 N1184 1.613 . S
S1183 N1185 1.610 . S
N1184 S1183 1.613 . S
N1184 C1187 1.350 . S
N1185 S1183 1.610 . S
N1185 C1186 1.351 . S
C1186 C1180 1.428 . S
C1186 N1185 1.351 . S
C1186 C1187 1.434 . S
C1187 C1178 1.429 . S
C1187 N1184 1.350 . S
C1187 C1186 1.434 . S
C1188 C1189 1.369 . S
C1188 C1190 1.419 . S
C1188 H1192 0.930 . S
C1189 C1188 1.369 . S
C1189 C1198 1.429 . S
C1190 C1188 1.419 . S
C1190 C1191 1.363 . S
C1190 H1193 0.929 . S
C1191 C1190 1.363 . S
C1191 C1197 1.428 . S
H1192 C1188 0.930 . S
H1193 C1190 0.929 . S
S1194 N1195 1.613 . S
S1194 N1196 1.610 . S
N1195 S1194 1.613 . S
N1195 C1198 1.350 . S
N1196 S1194 1.610 . S
N1196 C1197 1.351 . S
C1197 C1191 1.428 . S
C1197 N1196 1.351 . S
C1197 C1198 1.434 . S
C1198 C1189 1.429 . S
C1198 N1195 1.350 . S
C1198 C1197 1.434 . S
C1199 C1200 1.369 . S
C1199 C1201 1.419 . S
C1199 H1203 0.930 . S
C1200 C1199 1.369 . S
C1200 C1209 1.429 . S
C1201 C1199 1.419 . S
C1201 C1202 1.363 . S
C1201 H1204 0.929 . S
C1202 C1201 1.363 . S
C1202 C1208 1.428 . S
H1203 C1199 0.930 . S
H1204 C1201 0.929 . S
S1205 N1206 1.613 . S
S1205 N1207 1.610 . S
N1206 S1205 1.613 . S
N1206 C1209 1.350 . S
N1207 S1205 1.610 . S
N1207 C1208 1.351 . S
C1208 C1202 1.428 . S
C1208 N1207 1.351 . S
C1208 C1209 1.434 . S
C1209 C1200 1.429 . S
C1209 N1206 1.350 . S
C1209 C1208 1.434 . S
C1210 C1211 1.369 . S
C1210 C1212 1.419 . S
C1210 H1214 0.930 . S
C1211 C1210 1.369 . S
C1211 C1220 1.429 . S
C1212 C1210 1.419 . S
C1212 C1213 1.363 . S
C1212 H1215 0.929 . S
C1213 C1212 1.363 . S
C1213 C1219 1.428 . S
H1214 C1210 0.930 . S
H1215 C1212 0.929 . S
S1216 N1217 1.613 . S
S1216 N1218 1.610 . S
N1217 S1216 1.613 . S
N1217 C1220 1.350 . S
N1218 S1216 1.610 . S
N1218 C1219 1.351 . S
C1219 C1213 1.428 . S
C1219 N1218 1.351 . S
C1219 C1220 1.434 . S
C1220 C1211 1.429 . S
C1220 N1217 1.350 . S
C1220 C1219 1.434 . S
C1221 C1222 1.369 . S
C1221 C1223 1.419 . S
C1221 H1225 0.930 . S
C1222 C1221 1.369 . S
C1222 C1231 1.429 . S
C1223 C1221 1.419 . S
C1223 C1224 1.363 . S
C1223 H1226 0.929 . S
C1224 C1223 1.363 . S
C1224 C1230 1.428 . S
H1225 C1221 0.930 . S
H1226 C1223 0.929 . S
S1227 N1228 1.613 . S
S1227 N1229 1.610 . S
N1228 S1227 1.613 . S
N1228 C1231 1.350 . S
N1229 S1227 1.610 . S
N1229 C1230 1.351 . S
C1230 C1224 1.428 . S
C1230 N1229 1.351 . S
C1230 C1231 1.434 . S
C1231 C1222 1.429 . S
C1231 N1228 1.350 . S
C1231 C1230 1.434 . S
C1232 C1233 1.369 . S
C1232 C1234 1.419 . S
C1232 H1236 0.930 . S
C1233 C1232 1.369 . S
C1233 C1242 1.429 . S
C1234 C1232 1.419 . S
C1234 C1235 1.363 . S
C1234 H1237 0.929 . S
C1235 C1234 1.363 . S
C1235 C1241 1.428 . S
H1236 C1232 0.930 . S
H1237 C1234 0.929 . S
S1238 N1239 1.613 . S
S1238 N1240 1.610 . S
N1239 S1238 1.613 . S
N1239 C1242 1.350 . S
N1240 S1238 1.610 . S
N1240 C1241 1.351 . S
C1241 C1235 1.428 . S
C1241 N1240 1.351 . S
C1241 C1242 1.434 . S
C1242 C1233 1.429 . S
C1242 N1239 1.350 . S
C1242 C1241 1.434 . S
C1243 C1244 1.369 . S
C1243 C1245 1.419 . S
C1243 H1247 0.930 . S
C1244 C1243 1.369 . S
C1244 C1253 1.429 . S
C1245 C1243 1.419 . S
C1245 C1246 1.363 . S
C1245 H1248 0.929 . S
C1246 C1245 1.363 . S
C1246 C1252 1.428 . S
H1247 C1243 0.930 . S
H1248 C1245 0.929 . S
S1249 N1250 1.613 . S
S1249 N1251 1.610 . S
N1250 S1249 1.613 . S
N1250 C1253 1.350 . S
N1251 S1249 1.610 . S
N1251 C1252 1.351 . S
C1252 C1246 1.428 . S
C1252 N1251 1.351 . S
C1252 C1253 1.434 . S
C1253 C1244 1.429 . S
C1253 N1250 1.350 . S
C1253 C1252 1.434 . S
C1254 C1255 1.369 . S
C1254 C1256 1.419 . S
C1254 H1258 0.930 . S
C1255 C1254 1.369 . S
C1255 C1264 1.429 1_554 S
C1256 C1254 1.419 . S
C1256 C1257 1.363 . S
C1256 H1259 0.929 . S
C1257 C1256 1.363 . S
C1257 C1263 1.428 1_554 S
H1258 C1254 0.930 . S
H1259 C1256 0.929 . S
S1260 N1261 1.613 . S
S1260 N1262 1.610 . S
N1261 S1260 1.613 . S
N1261 C1264 1.350 . S
N1262 S1260 1.610 . S
N1262 C1263 1.351 . S
C1263 C1257 1.428 1_556 S
C1263 N1262 1.351 . S
C1263 C1264 1.434 . S
C1264 C1255 1.429 1_556 S
C1264 N1261 1.350 . S
C1264 C1263 1.434 . S
C1265 C1266 1.369 1_556 S
C1265 C1267 1.419 . S
C1265 H1269 0.930 . S
C1266 C1265 1.369 1_554 S
C1266 C1275 1.429 . S
C1267 C1265 1.419 . S
C1267 C1268 1.363 1_556 S
C1267 H1270 0.929 . S
C1268 C1267 1.363 1_554 S
C1268 C1274 1.428 . S
H1269 C1265 0.930 . S
H1270 C1267 0.929 . S
S1271 N1272 1.613 . S
S1271 N1273 1.610 . S
N1272 S1271 1.613 . S
N1272 C1275 1.350 . S
N1273 S1271 1.610 . S
N1273 C1274 1.351 . S
C1274 C1268 1.428 . S
C1274 N1273 1.351 . S
C1274 C1275 1.434 . S
C1275 C1266 1.429 . S
C1275 N1272 1.350 . S
C1275 C1274 1.434 . S
C1276 C1277 1.369 . S
C1276 C1278 1.419 . S
C1276 H1280 0.930 . S
C1277 C1276 1.369 . S
C1277 C1286 1.429 . S
C1278 C1276 1.419 . S
C1278 C1279 1.363 . S
C1278 H1281 0.929 . S
C1279 C1278 1.363 . S
C1279 C1285 1.428 . S
H1280 C1276 0.930 . S
H1281 C1278 0.929 . S
S1282 N1283 1.613 . S
S1282 N1284 1.610 . S
N1283 S1282 1.613 . S
N1283 C1286 1.350 . S
N1284 S1282 1.610 . S
N1284 C1285 1.351 . S
C1285 C1279 1.428 . S
C1285 N1284 1.351 . S
C1285 C1286 1.434 . S
C1286 C1277 1.429 . S
C1286 N1283 1.350 . S
C1286 C1285 1.434 . S
C1287 C1288 1.369 . S
C1287 C1289 1.419 . S
C1287 H1291 0.930 . S
C1288 C1287 1.369 . S
C1288 C1297 1.429 . S
C1289 C1287 1.419 . S
C1289 C1290 1.363 . S
C1289 H1292 0.929 . S
C1290 C1289 1.363 . S
C1290 C1296 1.428 . S
H1291 C1287 0.930 . S
H1292 C1289 0.929 . S
S1293 N1294 1.613 . S
S1293 N1295 1.610 . S
N1294 S1293 1.613 . S
N1294 C1297 1.350 . S
N1295 S1293 1.610 . S
N1295 C1296 1.351 . S
C1296 C1290 1.428 . S
C1296 N1295 1.351 . S
C1296 C1297 1.434 . S
C1297 C1288 1.429 . S
C1297 N1294 1.350 . S
C1297 C1296 1.434 . S
C1298 C1299 1.355 1_554 S
C1298 C1300 1.419 . S
C1298 H1302 0.945 . S
C1299 C1298 1.355 1_556 S
C1299 C1308 1.429 . S
C1300 C1298 1.419 . S
C1300 C1301 1.346 1_554 S
C1300 H1303 0.948 . S
C1301 C1300 1.346 1_556 S
C1301 C1307 1.428 . S
H1302 C1298 0.945 . S
H1303 C1300 0.948 . S
S1304 N1305 1.613 . S
S1304 N1306 1.610 . S
N1305 S1304 1.613 . S
N1305 C1308 1.350 . S
N1306 S1304 1.610 . S
N1306 C1307 1.351 . S
C1307 C1301 1.428 . S
C1307 N1306 1.351 . S
C1307 C1308 1.434 . S
C1308 C1299 1.429 . S
C1308 N1305 1.350 . S
C1308 C1307 1.434 . S
C1309 C1310 1.369 . S
C1309 C1311 1.419 . S
C1309 H1313 0.930 1_556 S
C1310 C1309 1.369 . S
C1310 C1319 1.429 . S
C1311 C1309 1.419 . S
C1311 C1312 1.363 . S
C1311 H1314 0.929 1_556 S
C1312 C1311 1.363 . S
C1312 C1318 1.428 . S
H1313 C1309 0.930 1_554 S
H1314 C1311 0.929 1_554 S
S1315 N1316 1.613 . S
S1315 N1317 1.610 . S
N1316 S1315 1.613 . S
N1316 C1319 1.350 . S
N1317 S1315 1.610 . S
N1317 C1318 1.351 . S
C1318 C1312 1.428 . S
C1318 N1317 1.351 . S
C1318 C1319 1.434 . S
C1319 C1310 1.429 . S
C1319 N1316 1.350 . S
C1319 C1318 1.434 . S
C1320 C1321 1.369 . S
C1320 C1322 1.419 . S
C1320 H1324 0.930 . S
C1321 C1320 1.369 . S
C1321 C1330 1.429 . S
C1322 C1320 1.419 . S
C1322 C1323 1.363 . S
C1322 H1325 0.929 . S
C1323 C1322 1.363 . S
C1323 C1329 1.428 . S
H1324 C1320 0.930 . S
H1325 C1322 0.929 . S
S1326 N1327 1.613 . S
S1326 N1328 1.610 . S
N1327 S1326 1.613 . S
N1327 C1330 1.350 . S
N1328 S1326 1.610 . S
N1328 C1329 1.351 . S
C1329 C1323 1.428 . S
C1329 N1328 1.351 . S
C1329 C1330 1.434 . S
C1330 C1321 1.429 . S
C1330 N1327 1.350 . S
C1330 C1329 1.434 . S
C1331 C1332 1.369 . S
C1331 C1333 1.419 . S
C1331 H1335 0.930 . S
C1332 C1331 1.369 . S
C1332 C1341 1.429 . S
C1333 C1331 1.419 . S
C1333 C1334 1.363 . S
C1333 H1336 0.929 . S
C1334 C1333 1.363 . S
C1334 C1340 1.428 . S
H1335 C1331 0.930 . S
H1336 C1333 0.929 . S
S1337 N1338 1.613 . S
S1337 N1339 1.610 . S
N1338 S1337 1.613 . S
N1338 C1341 1.350 . S
N1339 S1337 1.610 . S
N1339 C1340 1.351 . S
C1340 C1334 1.428 . S
C1340 N1339 1.351 . S
C1340 C1341 1.434 . S
C1341 C1332 1.429 . S
C1341 N1338 1.350 . S
C1341 C1340 1.434 . S
C1342 C1343 1.369 . S
C1342 C1344 1.419 . S
C1342 H1346 0.930 . S
C1343 C1342 1.369 . S
C1343 C1352 1.429 . S
C1344 C1342 1.419 . S
C1344 C1345 1.363 . S
C1344 H1347 0.929 . S
C1345 C1344 1.363 . S
C1345 C1351 1.428 . S
H1346 C1342 0.930 . S
H1347 C1344 0.929 . S
S1348 N1349 1.613 . S
S1348 N1350 1.610 . S
N1349 S1348 1.613 . S
N1349 C1352 1.350 . S
N1350 S1348 1.610 . S
N1350 C1351 1.351 . S
C1351 C1345 1.428 . S
C1351 N1350 1.351 . S
C1351 C1352 1.434 . S
C1352 C1343 1.429 . S
C1352 N1349 1.350 . S
C1352 C1351 1.434 . S
C1353 C1354 1.369 . S
C1353 C1355 1.419 . S
C1353 H1357 0.930 . S
C1354 C1353 1.369 . S
C1354 C1363 1.429 . S
C1355 C1353 1.419 . S
C1355 C1356 1.363 . S
C1355 H1358 0.929 . S
C1356 C1355 1.363 . S
C1356 C1362 1.428 . S
H1357 C1353 0.930 . S
H1358 C1355 0.929 . S
S1359 N1360 1.613 . S
S1359 N1361 1.610 . S
N1360 S1359 1.613 . S
N1360 C1363 1.350 . S
N1361 S1359 1.610 . S
N1361 C1362 1.351 . S
C1362 C1356 1.428 . S
C1362 N1361 1.351 . S
C1362 C1363 1.434 . S
C1363 C1354 1.429 . S
C1363 N1360 1.350 . S
C1363 C1362 1.434 . S
C1364 C1365 1.369 . S
C1364 C1366 1.419 . S
C1364 H1368 0.930 . S
C1365 C1364 1.369 . S
C1365 C1374 1.429 . S
C1366 C1364 1.419 . S
C1366 C1367 1.363 . S
C1366 H1369 0.929 . S
C1367 C1366 1.363 . S
C1367 C1373 1.428 . S
H1368 C1364 0.930 . S
H1369 C1366 0.929 . S
S1370 N1371 1.613 . S
S1370 N1372 1.610 . S
N1371 S1370 1.613 . S
N1371 C1374 1.350 . S
N1372 S1370 1.610 . S
N1372 C1373 1.351 . S
C1373 C1367 1.428 . S
C1373 N1372 1.351 . S
C1373 C1374 1.434 . S
C1374 C1365 1.429 . S
C1374 N1371 1.350 . S
C1374 C1373 1.434 . S
C1375 C1376 1.369 . S
C1375 C1377 1.419 . S
C1375 H1379 0.930 . S
C1376 C1375 1.369 . S
C1376 C1385 1.429 . S
C1377 C1375 1.419 . S
C1377 C1378 1.363 . S
C1377 H1380 0.929 . S
C1378 C1377 1.363 . S
C1378 C1384 1.428 . S
H1379 C1375 0.930 . S
H1380 C1377 0.929 . S
S1381 N1382 1.613 . S
S1381 N1383 1.610 . S
N1382 S1381 1.613 . S
N1382 C1385 1.350 . S
N1383 S1381 1.610 . S
N1383 C1384 1.351 . S
C1384 C1378 1.428 . S
C1384 N1383 1.351 . S
C1384 C1385 1.434 . S
C1385 C1376 1.429 . S
C1385 N1382 1.350 . S
C1385 C1384 1.434 . S
C1386 C1387 1.369 . S
C1386 C1388 1.419 . S
C1386 H1390 0.930 . S
C1387 C1386 1.369 . S
C1387 C1396 1.429 . S
C1388 C1386 1.419 . S
C1388 C1389 1.363 . S
C1388 H1391 0.929 . S
C1389 C1388 1.363 . S
C1389 C1395 1.428 . S
H1390 C1386 0.930 . S
H1391 C1388 0.929 . S
S1392 N1393 1.613 . S
S1392 N1394 1.610 . S
N1393 S1392 1.613 . S
N1393 C1396 1.350 . S
N1394 S1392 1.610 . S
N1394 C1395 1.351 . S
C1395 C1389 1.428 . S
C1395 N1394 1.351 . S
C1395 C1396 1.434 . S
C1396 C1387 1.429 . S
C1396 N1393 1.350 . S
C1396 C1395 1.434 . S
C1397 C1398 1.369 . S
C1397 C1399 1.419 . S
C1397 H1401 0.930 . S
C1398 C1397 1.369 . S
C1398 C1407 1.429 . S
C1399 C1397 1.419 . S
C1399 C1400 1.363 . S
C1399 H1402 0.929 . S
C1400 C1399 1.363 . S
C1400 C1406 1.428 . S
H1401 C1397 0.930 . S
H1402 C1399 0.929 . S
S1403 N1404 1.613 . S
S1403 N1405 1.610 . S
N1404 S1403 1.613 . S
N1404 C1407 1.350 . S
N1405 S1403 1.610 . S
N1405 C1406 1.351 . S
C1406 C1400 1.428 . S
C1406 N1405 1.351 . S
C1406 C1407 1.434 . S
C1407 C1398 1.429 . S
C1407 N1404 1.350 . S
C1407 C1406 1.434 . S
C1408 C1409 1.369 . S
C1408 C1410 1.419 . S
C1408 H1412 0.930 . S
C1409 C1408 1.369 . S
C1409 C1418 1.429 . S
C1410 C1408 1.419 . S
C1410 C1411 1.363 . S
C1410 H1413 0.929 . S
C1411 C1410 1.363 . S
C1411 C1417 1.428 . S
H1412 C1408 0.930 . S
H1413 C1410 0.929 . S
S1414 N1415 1.613 . S
S1414 N1416 1.610 . S
N1415 S1414 1.613 . S
N1415 C1418 1.350 . S
N1416 S1414 1.610 . S
N1416 C1417 1.351 . S
C1417 C1411 1.428 . S
C1417 N1416 1.351 . S
C1417 C1418 1.434 . S
C1418 C1409 1.429 . S
C1418 N1415 1.350 . S
C1418 C1417 1.434 . S
C1419 C1420 1.369 . S
C1419 C1421 1.419 . S
C1419 H1423 0.930 . S
C1420 C1419 1.369 . S
C1420 C1429 1.429 . S
C1421 C1419 1.419 . S
C1421 C1422 1.363 . S
C1421 H1424 0.929 . S
C1422 C1421 1.363 . S
C1422 C1428 1.428 . S
H1423 C1419 0.930 . S
H1424 C1421 0.929 . S
S1425 N1426 1.613 . S
S1425 N1427 1.610 . S
N1426 S1425 1.613 . S
N1426 C1429 1.350 . S
N1427 S1425 1.610 . S
N1427 C1428 1.351 . S
C1428 C1422 1.428 . S
C1428 N1427 1.351 . S
C1428 C1429 1.434 . S
C1429 C1420 1.429 . S
C1429 N1426 1.350 . S
C1429 C1428 1.434 . S
C1430 C1431 1.369 . S
C1430 C1432 1.419 . S
C1430 H1434 0.930 . S
C1431 C1430 1.369 . S
C1431 C1440 1.429 . S
C1432 C1430 1.419 . S
C1432 C1433 1.363 . S
C1432 H1435 0.929 . S
C1433 C1432 1.363 . S
C1433 C1439 1.428 . S
H1434 C1430 0.930 . S
H1435 C1432 0.929 . S
S1436 N1437 1.613 . S
S1436 N1438 1.610 . S
N1437 S1436 1.613 . S
N1437 C1440 1.350 . S
N1438 S1436 1.610 . S
N1438 C1439 1.351 . S
C1439 C1433 1.428 . S
C1439 N1438 1.351 . S
C1439 C1440 1.434 . S
C1440 C1431 1.429 . S
C1440 N1437 1.350 . S
C1440 C1439 1.434 . S
C1441 C1442 1.369 . S
C1441 C1443 1.419 . S
C1441 H1445 0.930 . S
C1442 C1441 1.369 . S
C1442 C1451 1.429 . S
C1443 C1441 1.419 . S
C1443 C1444 1.363 . S
C1443 H1446 0.929 . S
C1444 C1443 1.363 . S
C1444 C1450 1.428 . S
H1445 C1441 0.930 . S
H1446 C1443 0.929 . S
S1447 N1448 1.613 . S
S1447 N1449 1.610 . S
N1448 S1447 1.613 . S
N1448 C1451 1.350 . S
N1449 S1447 1.610 . S
N1449 C1450 1.351 . S
C1450 C1444 1.428 . S
C1450 N1449 1.351 . S
C1450 C1451 1.434 . S
C1451 C1442 1.429 . S
C1451 N1448 1.350 . S
C1451 C1450 1.434 . S
C1452 C1453 1.369 . S
C1452 C1454 1.419 . S
C1452 H1456 0.930 . S
C1453 C1452 1.369 . S
C1453 C1462 1.429 . S
C1454 C1452 1.419 . S
C1454 C1455 1.363 . S
C1454 H1457 0.929 . S
C1455 C1454 1.363 . S
C1455 C1461 1.428 . S
H1456 C1452 0.930 . S
H1457 C1454 0.929 . S
S1458 N1459 1.613 . S
S1458 N1460 1.610 . S
N1459 S1458 1.613 . S
N1459 C1462 1.350 . S
N1460 S1458 1.610 . S
N1460 C1461 1.351 . S
C1461 C1455 1.428 . S
C1461 N1460 1.351 . S
C1461 C1462 1.434 . S
C1462 C1453 1.429 . S
C1462 N1459 1.350 . S
C1462 C1461 1.434 . S
C1463 C1464 1.369 . S
C1463 C1465 1.419 . S
C1463 H1467 0.930 . S
C1464 C1463 1.369 . S
C1464 C1473 1.429 . S
C1465 C1463 1.419 . S
C1465 C1466 1.363 . S
C1465 H1468 0.929 . S
C1466 C1465 1.363 . S
C1466 C1472 1.428 . S
H1467 C1463 0.930 . S
H1468 C1465 0.929 . S
S1469 N1470 1.613 . S
S1469 N1471 1.610 . S
N1470 S1469 1.613 . S
N1470 C1473 1.350 . S
N1471 S1469 1.610 . S
N1471 C1472 1.351 . S
C1472 C1466 1.428 . S
C1472 N1471 1.351 . S
C1472 C1473 1.434 . S
C1473 C1464 1.429 . S
C1473 N1470 1.350 . S
C1473 C1472 1.434 . S
C1474 C1475 1.369 . S
C1474 C1476 1.419 . S
C1474 H1478 0.930 . S
C1475 C1474 1.369 . S
C1475 C1484 1.429 . S
C1476 C1474 1.419 . S
C1476 C1477 1.363 . S
C1476 H1479 0.929 . S
C1477 C1476 1.363 . S
C1477 C1483 1.428 . S
H1478 C1474 0.930 . S
H1479 C1476 0.929 . S
S1480 N1481 1.613 . S
S1480 N1482 1.610 . S
N1481 S1480 1.613 . S
N1481 C1484 1.350 . S
N1482 S1480 1.610 . S
N1482 C1483 1.351 . S
C1483 C1477 1.428 . S
C1483 N1482 1.351 . S
C1483 C1484 1.434 . S
C1484 C1475 1.429 . S
C1484 N1481 1.350 . S
C1484 C1483 1.434 . S
C1485 C1486 1.369 . S
C1485 C1487 1.419 . S
C1485 H1489 0.930 . S
C1486 C1485 1.369 . S
C1486 C1495 1.429 . S
C1487 C1485 1.419 . S
C1487 C1488 1.363 . S
C1487 H1490 0.929 . S
C1488 C1487 1.363 . S
C1488 C1494 1.428 . S
H1489 C1485 0.930 . S
H1490 C1487 0.929 . S
S1491 N1492 1.613 . S
S1491 N1493 1.610 . S
N1492 S1491 1.613 . S
N1492 C1495 1.350 . S
N1493 S1491 1.610 . S
N1493 C1494 1.351 . S
C1494 C1488 1.428 . S
C1494 N1493 1.351 . S
C1494 C1495 1.434 . S
C1495 C1486 1.429 . S
C1495 N1492 1.350 . S
C1495 C1494 1.434 . S
C1496 C1497 1.369 . S
C1496 C1498 1.419 . S
C1496 H1500 0.930 . S
C1497 C1496 1.369 . S
C1497 C1506 1.429 . S
C1498 C1496 1.419 . S
C1498 C1499 1.363 . S
C1498 H1501 0.929 . S
C1499 C1498 1.363 . S
C1499 C1505 1.428 . S
H1500 C1496 0.930 . S
H1501 C1498 0.929 . S
S1502 N1503 1.613 . S
S1502 N1504 1.610 . S
N1503 S1502 1.613 . S
N1503 C1506 1.350 . S
N1504 S1502 1.610 . S
N1504 C1505 1.351 . S
C1505 C1499 1.428 . S
C1505 N1504 1.351 . S
C1505 C1506 1.434 . S
C1506 C1497 1.429 . S
C1506 N1503 1.350 . S
C1506 C1505 1.434 . S
C1507 C1508 1.369 . S
C1507 C1509 1.419 . S
C1507 H1511 0.930 . S
C1508 C1507 1.369 . S
C1508 C1517 1.429 . S
C1509 C1507 1.419 . S
C1509 C1510 1.363 . S
C1509 H1512 0.929 . S
C1510 C1509 1.363 . S
C1510 C1516 1.428 . S
H1511 C1507 0.930 . S
H1512 C1509 0.929 . S
S1513 N1514 1.613 . S
S1513 N1515 1.610 . S
N1514 S1513 1.613 . S
N1514 C1517 1.350 . S
N1515 S1513 1.610 . S
N1515 C1516 1.351 . S
C1516 C1510 1.428 . S
C1516 N1515 1.351 . S
C1516 C1517 1.434 . S
C1517 C1508 1.429 . S
C1517 N1514 1.350 . S
C1517 C1516 1.434 . S
C1518 C1519 1.369 . S
C1518 C1520 1.419 . S
C1518 H1522 0.930 . S
C1519 C1518 1.369 . S
C1519 C1528 1.429 . S
C1520 C1518 1.419 . S
C1520 C1521 1.363 . S
C1520 H1523 0.929 . S
C1521 C1520 1.363 . S
C1521 C1527 1.428 . S
H1522 C1518 0.930 . S
H1523 C1520 0.929 . S
S1524 N1525 1.613 . S
S1524 N1526 1.610 . S
N1525 S1524 1.613 . S
N1525 C1528 1.350 . S
N1526 S1524 1.610 . S
N1526 C1527 1.351 . S
C1527 C1521 1.428 . S
C1527 N1526 1.351 . S
C1527 C1528 1.434 . S
C1528 C1519 1.429 . S
C1528 N1525 1.350 . S
C1528 C1527 1.434 . S
C1529 C1530 1.369 . S
C1529 C1531 1.419 . S
C1529 H1533 0.930 . S
C1530 C1529 1.369 . S
C1530 C1539 1.429 . S
C1531 C1529 1.419 . S
C1531 C1532 1.363 . S
C1531 H1534 0.929 . S
C1532 C1531 1.363 . S
C1532 C1538 1.428 . S
H1533 C1529 0.930 . S
H1534 C1531 0.929 . S
S1535 N1536 1.613 . S
S1535 N1537 1.610 . S
N1536 S1535 1.613 . S
N1536 C1539 1.350 . S
N1537 S1535 1.610 . S
N1537 C1538 1.351 . S
C1538 C1532 1.428 . S
C1538 N1537 1.351 . S
C1538 C1539 1.434 . S
C1539 C1530 1.429 . S
C1539 N1536 1.350 . S
C1539 C1538 1.434 . S
C1540 C1541 1.369 . S
C1540 C1542 1.419 . S
C1540 H1544 0.930 . S
C1541 C1540 1.369 . S
C1541 C1550 1.429 . S
C1542 C1540 1.419 . S
C1542 C1543 1.363 . S
C1542 H1545 0.929 . S
C1543 C1542 1.363 . S
C1543 C1549 1.428 . S
H1544 C1540 0.930 . S
H1545 C1542 0.929 . S
S1546 N1547 1.613 . S
S1546 N1548 1.610 . S
N1547 S1546 1.613 . S
N1547 C1550 1.350 . S
N1548 S1546 1.610 . S
N1548 C1549 1.351 . S
C1549 C1543 1.428 . S
C1549 N1548 1.351 . S
C1549 C1550 1.434 . S
C1550 C1541 1.429 . S
C1550 N1547 1.350 . S
C1550 C1549 1.434 . S
C1551 C1552 1.369 . S
C1551 C1553 1.419 . S
C1551 H1555 0.930 . S
C1552 C1551 1.369 . S
C1552 C1561 1.429 . S
C1553 C1551 1.419 . S
C1553 C1554 1.363 . S
C1553 H1556 0.929 . S
C1554 C1553 1.363 . S
C1554 C1560 1.428 . S
H1555 C1551 0.930 . S
H1556 C1553 0.929 . S
S1557 N1558 1.613 . S
S1557 N1559 1.610 . S
N1558 S1557 1.613 . S
N1558 C1561 1.350 . S
N1559 S1557 1.610 . S
N1559 C1560 1.351 . S
C1560 C1554 1.428 . S
C1560 N1559 1.351 . S
C1560 C1561 1.434 . S
C1561 C1552 1.429 . S
C1561 N1558 1.350 . S
C1561 C1560 1.434 . S
C1562 C1563 1.369 . S
C1562 C1564 1.419 . S
C1562 H1566 0.930 . S
C1563 C1562 1.369 . S
C1563 C1572 1.429 . S
C1564 C1562 1.419 . S
C1564 C1565 1.363 . S
C1564 H1567 0.929 . S
C1565 C1564 1.363 . S
C1565 C1571 1.428 . S
H1566 C1562 0.930 . S
H1567 C1564 0.929 . S
S1568 N1569 1.613 . S
S1568 N1570 1.610 . S
N1569 S1568 1.613 . S
N1569 C1572 1.350 . S
N1570 S1568 1.610 . S
N1570 C1571 1.351 . S
C1571 C1565 1.428 . S
C1571 N1570 1.351 . S
C1571 C1572 1.434 . S
C1572 C1563 1.429 . S
C1572 N1569 1.350 . S
C1572 C1571 1.434 . S
C1573 C1574 1.369 . S
C1573 C1575 1.419 . S
C1573 H1577 0.930 . S
C1574 C1573 1.369 . S
C1574 C1583 1.429 . S
C1575 C1573 1.419 . S
C1575 C1576 1.363 . S
C1575 H1578 0.929 . S
C1576 C1575 1.363 . S
C1576 C1582 1.428 . S
H1577 C1573 0.930 . S
H1578 C1575 0.929 . S
S1579 N1580 1.613 . S
S1579 N1581 1.610 . S
N1580 S1579 1.613 . S
N1580 C1583 1.350 . S
N1581 S1579 1.610 . S
N1581 C1582 1.351 . S
C1582 C1576 1.428 . S
C1582 N1581 1.351 . S
C1582 C1583 1.434 . S
C1583 C1574 1.429 . S
C1583 N1580 1.350 . S
C1583 C1582 1.434 . S
C1584 C1585 1.369 . S
C1584 C1586 1.419 . S
C1584 H1588 0.930 . S
C1585 C1584 1.369 . S
C1585 C1594 1.429 . S
C1586 C1584 1.419 . S
C1586 C1587 1.363 . S
C1586 H1589 0.929 . S
C1587 C1586 1.363 . S
C1587 C1593 1.428 . S
H1588 C1584 0.930 . S
H1589 C1586 0.929 . S
S1590 N1591 1.613 . S
S1590 N1592 1.610 . S
N1591 S1590 1.613 . S
N1591 C1594 1.350 . S
N1592 S1590 1.610 . S
N1592 C1593 1.351 . S
C1593 C1587 1.428 . S
C1593 N1592 1.351 . S
C1593 C1594 1.434 . S
C1594 C1585 1.429 . S
C1594 N1591 1.350 . S
C1594 C1593 1.434 . S
C1595 C1596 1.369 1_455 S
C1595 C1597 1.419 . S
C1595 H1599 0.930 . S
C1596 C1595 1.369 1_655 S
C1596 C1605 1.429 . S
C1597 C1595 1.419 . S
C1597 C1598 1.363 1_455 S
C1597 H1600 0.929 . S
C1598 C1597 1.363 1_655 S
C1598 C1604 1.428 . S
H1599 C1595 0.930 . S
H1600 C1597 0.929 . S
S1601 N1602 1.613 . S
S1601 N1603 1.610 . S
N1602 S1601 1.613 . S
N1602 C1605 1.350 . S
N1603 S1601 1.610 . S
N1603 C1604 1.351 . S
C1604 C1598 1.428 . S
C1604 N1603 1.351 . S
C1604 C1605 1.434 . S
C1605 C1596 1.429 . S
C1605 N1602 1.350 . S
C1605 C1604 1.434 . S
C1606 C1607 1.369 . S
C1606 C1608 1.419 . S
C1606 H1610 0.930 . S
C1607 C1606 1.369 . S
C1607 C1616 1.429 . S
C1608 C1606 1.419 . S
C1608 C1609 1.363 . S
C1608 H1611 0.929 . S
C1609 C1608 1.363 . S
C1609 C1615 1.428 . S
H1610 C1606 0.930 . S
H1611 C1608 0.929 . S
S1612 N1613 1.613 . S
S1612 N1614 1.610 . S
N1613 S1612 1.613 . S
N1613 C1616 1.350 . S
N1614 S1612 1.610 . S
N1614 C1615 1.351 . S
C1615 C1609 1.428 . S
C1615 N1614 1.351 . S
C1615 C1616 1.434 . S
C1616 C1607 1.429 . S
C1616 N1613 1.350 . S
C1616 C1615 1.434 . S
C1617 C1618 1.369 . S
C1617 C1619 1.419 . S
C1617 H1621 0.930 . S
C1618 C1617 1.369 . S
C1618 C1627 1.429 1_655 S
C1619 C1617 1.419 . S
C1619 C1620 1.363 . S
C1619 H1622 0.929 . S
C1620 C1619 1.363 . S
C1620 C1626 1.428 . S
H1621 C1617 0.930 . S
H1622 C1619 0.929 . S
S1623 N1624 1.613 . S
S1623 N1625 1.610 . S
N1624 S1623 1.613 . S
N1624 C1627 1.350 . S
N1625 S1623 1.610 . S
N1625 C1626 1.351 1_455 S
C1626 C1620 1.428 . S
C1626 N1625 1.351 1_655 S
C1626 C1627 1.434 1_655 S
C1627 C1618 1.429 1_455 S
C1627 N1624 1.350 . S
C1627 C1626 1.434 1_455 S
C1628 C1629 1.369 . S
C1628 C1630 1.419 . S
C1628 H1632 0.930 . S
C1629 C1628 1.369 . S
C1629 C1638 1.429 . S
C1630 C1628 1.419 . S
C1630 C1631 1.363 . S
C1630 H1633 0.929 . S
C1631 C1630 1.363 . S
C1631 C1637 1.428 . S
H1632 C1628 0.930 . S
H1633 C1630 0.929 . S
S1634 N1635 1.613 . S
S1634 N1636 1.610 . S
N1635 S1634 1.613 . S
N1635 C1638 1.350 . S
N1636 S1634 1.610 . S
N1636 C1637 1.351 . S
C1637 C1631 1.428 . S
C1637 N1636 1.351 . S
C1637 C1638 1.434 . S
C1638 C1629 1.429 . S
C1638 N1635 1.350 . S
C1638 C1637 1.434 . S
C1639 C1640 1.369 . S
C1639 C1641 1.419 . S
C1639 H1643 0.930 . S
C1640 C1639 1.369 . S
C1640 C1649 1.429 . S
C1641 C1639 1.419 . S
C1641 C1642 1.363 . S
C1641 H1644 0.929 . S
C1642 C1641 1.363 . S
C1642 C1648 1.428 1_455 S
H1643 C1639 0.930 . S
H1644 C1641 0.929 . S
S1645 N1646 1.610 1_655 S
S1645 N1647 1.610 . S
N1646 S1645 1.610 1_455 S
N1646 C1649 1.351 . S
N1647 S1645 1.610 . S
N1647 C1648 1.351 . S
C1648 C1642 1.428 1_655 S
C1648 N1647 1.351 . S
C1648 C1649 1.434 1_655 S
C1649 C1640 1.429 . S
C1649 N1646 1.351 . S
C1649 C1648 1.434 1_455 S
C1650 C1651 1.369 . S
C1650 C1652 1.419 . S
C1650 H1654 0.930 . S
C1651 C1650 1.369 . S
C1651 C1660 1.429 . S
C1652 C1650 1.419 . S
C1652 C1653 1.363 . S
C1652 H1655 0.929 . S
C1653 C1652 1.363 . S
C1653 C1659 1.428 . S
H1654 C1650 0.930 . S
H1655 C1652 0.929 . S
S1656 N1657 1.613 . S
S1656 N1658 1.610 . S
N1657 S1656 1.613 . S
N1657 C1660 1.350 . S
N1658 S1656 1.610 . S
N1658 C1659 1.351 . S
C1659 C1653 1.428 . S
C1659 N1658 1.351 . S
C1659 C1660 1.434 . S
C1660 C1651 1.429 . S
C1660 N1657 1.350 . S
C1660 C1659 1.434 . S
C1661 C1662 1.369 . S
C1661 C1663 1.419 1_455 S
C1661 H1665 0.930 1_455 S
C1662 C1661 1.369 . S
C1662 C1671 1.429 . S
C1663 C1661 1.419 1_655 S
C1663 C1664 1.363 1_655 S
C1663 H1666 0.929 . S
C1664 C1663 1.363 1_455 S
C1664 C1670 1.428 . S
H1665 C1661 0.930 1_655 S
H1666 C1663 0.929 . S
S1667 N1668 1.613 . S
S1667 N1669 1.610 . S
N1668 S1667 1.613 . S
N1668 C1671 1.350 . S
N1669 S1667 1.610 . S
N1669 C1670 1.351 . S
C1670 C1664 1.428 . S
C1670 N1669 1.351 . S
C1670 C1671 1.434 . S
C1671 C1662 1.429 . S
C1671 N1668 1.350 . S
C1671 C1670 1.434 . S
C1672 C1673 1.369 . S
C1672 C1674 1.419 . S
C1672 H1676 0.930 . S
C1673 C1672 1.369 . S
C1673 C1682 1.429 . S
C1674 C1672 1.419 . S
C1674 C1675 1.363 . S
C1674 H1677 0.929 . S
C1675 C1674 1.363 . S
C1675 C1681 1.428 . S
H1676 C1672 0.930 . S
H1677 C1674 0.929 . S
S1678 N1679 1.613 . S
S1678 N1680 1.610 . S
N1679 S1678 1.613 . S
N1679 C1682 1.350 . S
N1680 S1678 1.610 . S
N1680 C1681 1.351 . S
C1681 C1675 1.428 . S
C1681 N1680 1.351 . S
C1681 C1682 1.434 . S
C1682 C1673 1.429 . S
C1682 N1679 1.350 . S
C1682 C1681 1.434 . S
C1683 C1684 1.369 1_455 S
C1683 C1685 1.433 . S
C1683 H1687 0.930 . S
C1684 C1683 1.369 1_655 S
C1684 C1693 1.429 . S
C1685 C1683 1.433 . S
C1685 C1686 1.329 1_455 S
C1685 H1688 0.951 . S
C1686 C1685 1.329 1_655 S
C1686 C1692 1.428 . S
H1687 C1683 0.930 . S
H1688 C1685 0.951 . S
S1689 N1690 1.613 . S
S1689 N1691 1.610 . S
N1690 S1689 1.613 . S
N1690 C1693 1.350 . S
N1691 S1689 1.610 . S
N1691 C1692 1.351 . S
C1692 C1686 1.428 . S
C1692 N1691 1.351 . S
C1692 C1693 1.434 . S
C1693 C1684 1.429 . S
C1693 N1690 1.350 . S
C1693 C1692 1.434 . S
C1694 C1695 1.369 . S
C1694 C1696 1.419 . S
C1694 H1698 0.930 . S
C1695 C1694 1.369 . S
C1695 C1704 1.429 . S
C1696 C1694 1.419 . S
C1696 C1697 1.363 . S
C1696 H1699 0.929 . S
C1697 C1696 1.363 . S
C1697 C1703 1.428 . S
H1698 C1694 0.930 . S
H1699 C1696 0.929 . S
S1700 N1701 1.613 . S
S1700 N1702 1.610 . S
N1701 S1700 1.613 . S
N1701 C1704 1.350 . S
N1702 S1700 1.610 . S
N1702 C1703 1.351 . S
C1703 C1697 1.428 . S
C1703 N1702 1.351 . S
C1703 C1704 1.434 . S
C1704 C1695 1.429 . S
C1704 N1701 1.350 . S
C1704 C1703 1.434 . S
C1705 C1706 1.369 . S
C1705 C1707 1.419 . S
C1705 H1709 0.930 . S
C1706 C1705 1.369 . S
C1706 C1715 1.429 . S
C1707 C1705 1.419 . S
C1707 C1708 1.363 . S
C1707 H1710 0.945 . S
C1708 C1707 1.363 . S
C1708 C1714 1.428 . S
H1709 C1705 0.930 . S
H1710 C1707 0.945 . S
S1711 N1712 1.613 . S
S1711 N1713 1.610 . S
N1712 S1711 1.613 . S
N1712 C1715 1.350 . S
N1713 S1711 1.610 . S
N1713 C1714 1.351 . S
C1714 C1708 1.428 . S
C1714 N1713 1.351 . S
C1714 C1715 1.434 . S
C1715 C1706 1.429 . S
C1715 N1712 1.350 . S
C1715 C1714 1.434 . S
C1716 C1717 1.369 . S
C1716 C1718 1.419 . S
C1716 H1720 0.930 . S
C1717 C1716 1.369 . S
C1717 C1726 1.429 . S
C1718 C1716 1.419 . S
C1718 C1719 1.363 . S
C1718 H1721 0.929 . S
C1719 C1718 1.363 . S
C1719 C1725 1.428 . S
H1720 C1716 0.930 . S
H1721 C1718 0.929 . S
S1722 N1723 1.613 . S
S1722 N1724 1.610 . S
N1723 S1722 1.613 . S
N1723 C1726 1.350 . S
N1724 S1722 1.610 . S
N1724 C1725 1.351 . S
C1725 C1719 1.428 . S
C1725 N1724 1.351 . S
C1725 C1726 1.434 . S
C1726 C1717 1.429 . S
C1726 N1723 1.350 . S
C1726 C1725 1.434 . S
C1727 C1728 1.369 . S
C1727 C1729 1.419 1_455 S
C1727 H1731 0.930 1_455 S
C1728 C1727 1.369 . S
C1728 C1737 1.429 . S
C1729 C1727 1.419 1_655 S
C1729 C1730 1.363 1_655 S
C1729 H1732 0.929 . S
C1730 C1729 1.363 1_455 S
C1730 C1736 1.428 . S
H1731 C1727 0.930 1_655 S
H1732 C1729 0.929 . S
S1733 N1734 1.613 . S
S1733 N1735 1.610 . S
N1734 S1733 1.613 . S
N1734 C1737 1.350 . S
N1735 S1733 1.610 . S
N1735 C1736 1.351 . S
C1736 C1730 1.428 . S
C1736 N1735 1.351 . S
C1736 C1737 1.434 . S
C1737 C1728 1.429 . S
C1737 N1734 1.350 . S
C1737 C1736 1.434 . S
C1738 C1739 1.369 . S
C1738 C1740 1.419 . S
C1738 H1742 0.930 . S
C1739 C1738 1.369 . S
C1739 C1748 1.429 . S
C1740 C1738 1.419 . S
C1740 C1741 1.363 . S
C1740 H1743 0.929 . S
C1741 C1740 1.363 . S
C1741 C1747 1.428 . S
H1742 C1738 0.930 . S
H1743 C1740 0.929 . S
S1744 N1745 1.613 . S
S1744 N1746 1.610 . S
N1745 S1744 1.613 . S
N1745 C1748 1.350 . S
N1746 S1744 1.610 . S
N1746 C1747 1.351 . S
C1747 C1741 1.428 . S
C1747 N1746 1.351 . S
C1747 C1748 1.434 . S
C1748 C1739 1.429 . S
C1748 N1745 1.350 . S
C1748 C1747 1.434 . S
C1749 C1750 1.369 . S
C1749 C1751 1.419 . S
C1749 H1753 0.930 . S
C1750 C1749 1.369 . S
C1750 C1759 1.429 1_455 S
C1751 C1749 1.419 . S
C1751 C1752 1.363 . S
C1751 H1754 0.929 . S
C1752 C1751 1.363 . S
C1752 C1758 1.416 1_455 S
H1753 C1749 0.930 . S
H1754 C1751 0.929 . S
S1755 N1756 1.613 . S
S1755 N1757 1.610 . S
N1756 S1755 1.613 . S
N1756 C1759 1.350 . S
N1757 S1755 1.610 . S
N1757 C1758 1.359 . S
C1758 C1752 1.416 1_655 S
C1758 N1757 1.359 . S
C1758 C1759 1.440 . S
C1759 C1750 1.429 1_655 S
C1759 N1756 1.350 . S
C1759 C1758 1.440 . S
C1760 C1761 1.369 . S
C1760 C1762 1.419 . S
C1760 H1764 0.930 . S
C1761 C1760 1.369 . S
C1761 C1770 1.429 . S
C1762 C1760 1.419 . S
C1762 C1763 1.363 . S
C1762 H1765 0.929 . S
C1763 C1762 1.363 . S
C1763 C1769 1.428 . S
H1764 C1760 0.930 . S
H1765 C1762 0.929 . S
S1766 N1767 1.613 . S
S1766 N1768 1.610 . S
N1767 S1766 1.613 . S
N1767 C1770 1.350 . S
N1768 S1766 1.610 . S
N1768 C1769 1.351 . S
C1769 C1763 1.428 . S
C1769 N1768 1.351 . S
C1769 C1770 1.434 . S
C1770 C1761 1.429 . S
C1770 N1767 1.350 . S
C1770 C1769 1.434 . S
C1771 C1772 1.369 . S
C1771 C1773 1.419 . S
C1771 H1775 0.930 . S
C1772 C1771 1.369 . S
C1772 C1781 1.429 . S
C1773 C1771 1.419 . S
C1773 C1774 1.363 . S
C1773 H1776 0.929 . S
C1774 C1773 1.363 . S
C1774 C1780 1.428 . S
H1775 C1771 0.930 . S
H1776 C1773 0.929 . S
S1777 N1778 1.613 . S
S1777 N1779 1.610 . S
N1778 S1777 1.613 . S
N1778 C1781 1.350 . S
N1779 S1777 1.610 . S
N1779 C1780 1.351 . S
C1780 C1774 1.428 . S
C1780 N1779 1.351 . S
C1780 C1781 1.434 . S
C1781 C1772 1.429 . S
C1781 N1778 1.350 . S
C1781 C1780 1.434 . S
C1782 C1783 1.369 . S
C1782 C1784 1.419 . S
C1782 H1786 0.930 . S
C1783 C1782 1.369 . S
C1783 C1792 1.429 . S
C1784 C1782 1.419 . S
C1784 C1785 1.363 . S
C1784 H1787 0.929 . S
C1785 C1784 1.363 . S
C1785 C1791 1.428 . S
H1786 C1782 0.930 . S
H1787 C1784 0.929 . S
S1788 N1789 1.613 . S
S1788 N1790 1.610 . S
N1789 S1788 1.613 . S
N1789 C1792 1.350 . S
N1790 S1788 1.610 . S
N1790 C1791 1.351 . S
C1791 C1785 1.428 . S
C1791 N1790 1.351 . S
C1791 C1792 1.434 . S
C1792 C1783 1.429 . S
C1792 N1789 1.350 . S
C1792 C1791 1.434 . S
C1793 C1794 1.369 . S
C1793 C1795 1.419 . S
C1793 H1797 0.930 . S
C1794 C1793 1.369 . S
C1794 C1803 1.429 . S
C1795 C1793 1.419 . S
C1795 C1796 1.363 . S
C1795 H1798 0.929 . S
C1796 C1795 1.363 . S
C1796 C1802 1.428 . S
H1797 C1793 0.930 . S
H1798 C1795 0.929 . S
S1799 N1800 1.613 . S
S1799 N1801 1.610 . S
N1800 S1799 1.613 . S
N1800 C1803 1.350 . S
N1801 S1799 1.610 . S
N1801 C1802 1.351 . S
C1802 C1796 1.428 . S
C1802 N1801 1.351 . S
C1802 C1803 1.434 . S
C1803 C1794 1.429 . S
C1803 N1800 1.350 . S
C1803 C1802 1.434 . S
C1804 C1805 1.369 . S
C1804 C1806 1.419 . S
C1804 H1808 0.930 . S
C1805 C1804 1.369 . S
C1805 C1814 1.429 . S
C1806 C1804 1.419 . S
C1806 C1807 1.363 . S
C1806 H1809 0.929 . S
C1807 C1806 1.363 . S
C1807 C1813 1.428 . S
H1808 C1804 0.930 . S
H1809 C1806 0.929 . S
S1810 N1811 1.613 . S
S1810 N1812 1.610 . S
N1811 S1810 1.613 . S
N1811 C1814 1.350 . S
N1812 S1810 1.610 . S
N1812 C1813 1.351 . S
C1813 C1807 1.428 . S
C1813 N1812 1.351 . S
C1813 C1814 1.434 . S
C1814 C1805 1.429 . S
C1814 N1811 1.350 . S
C1814 C1813 1.434 . S
C1815 C1816 1.369 . S
C1815 C1817 1.419 . S
C1815 H1819 0.930 . S
C1816 C1815 1.369 . S
C1816 C1825 1.429 . S
C1817 C1815 1.419 . S
C1817 C1818 1.363 . S
C1817 H1820 0.929 . S
C1818 C1817 1.363 . S
C1818 C1824 1.428 . S
H1819 C1815 0.930 . S
H1820 C1817 0.929 . S
S1821 N1822 1.613 . S
S1821 N1823 1.610 . S
N1822 S1821 1.613 . S
N1822 C1825 1.350 . S
N1823 S1821 1.610 . S
N1823 C1824 1.351 . S
C1824 C1818 1.428 . S
C1824 N1823 1.351 . S
C1824 C1825 1.434 . S
C1825 C1816 1.429 . S
C1825 N1822 1.350 . S
C1825 C1824 1.434 . S
C1826 C1827 1.369 . S
C1826 C1828 1.419 . S
C1826 H1830 0.930 . S
C1827 C1826 1.369 . S
C1827 C1836 1.429 . S
C1828 C1826 1.419 . S
C1828 C1829 1.363 . S
C1828 H1831 0.929 . S
C1829 C1828 1.363 . S
C1829 C1835 1.428 . S
H1830 C1826 0.930 . S
H1831 C1828 0.929 . S
S1832 N1833 1.613 . S
S1832 N1834 1.610 . S
N1833 S1832 1.613 . S
N1833 C1836 1.350 . S
N1834 S1832 1.610 . S
N1834 C1835 1.351 . S
C1835 C1829 1.428 . S
C1835 N1834 1.351 . S
C1835 C1836 1.434 . S
C1836 C1827 1.429 . S
C1836 N1833 1.350 . S
C1836 C1835 1.434 . S
C1837 C1838 1.369 . S
C1837 C1839 1.419 . S
C1837 H1841 0.930 . S
C1838 C1837 1.369 . S
C1838 C1847 1.429 . S
C1839 C1837 1.419 . S
C1839 C1840 1.363 . S
C1839 H1842 0.929 . S
C1840 C1839 1.363 . S
C1840 C1846 1.428 . S
H1841 C1837 0.930 . S
H1842 C1839 0.929 . S
S1843 N1844 1.613 . S
S1843 N1845 1.610 . S
N1844 S1843 1.613 . S
N1844 C1847 1.350 . S
N1845 S1843 1.610 . S
N1845 C1846 1.351 . S
C1846 C1840 1.428 . S
C1846 N1845 1.351 . S
C1846 C1847 1.434 . S
C1847 C1838 1.429 . S
C1847 N1844 1.350 . S
C1847 C1846 1.434 . S
C1848 C1849 1.369 . S
C1848 C1850 1.419 . S
C1848 H1852 0.930 . S
C1849 C1848 1.369 . S
C1849 C1858 1.429 . S
C1850 C1848 1.419 . S
C1850 C1851 1.363 . S
C1850 H1853 0.929 . S
C1851 C1850 1.363 . S
C1851 C1857 1.428 . S
H1852 C1848 0.930 . S
H1853 C1850 0.929 . S
S1854 N1855 1.613 . S
S1854 N1856 1.610 . S
N1855 S1854 1.613 . S
N1855 C1858 1.350 . S
N1856 S1854 1.610 . S
N1856 C1857 1.351 . S
C1857 C1851 1.428 . S
C1857 N1856 1.351 . S
C1857 C1858 1.434 . S
C1858 C1849 1.429 . S
C1858 N1855 1.350 . S
C1858 C1857 1.434 . S
C1859 C1860 1.369 . S
C1859 C1861 1.419 . S
C1859 H1863 0.930 . S
C1860 C1859 1.369 . S
C1860 C1869 1.429 . S
C1861 C1859 1.419 . S
C1861 C1862 1.363 . S
C1861 H1864 0.929 . S
C1862 C1861 1.363 . S
C1862 C1868 1.428 . S
H1863 C1859 0.930 . S
H1864 C1861 0.929 . S
S1865 N1866 1.613 . S
S1865 N1867 1.610 . S
N1866 S1865 1.613 . S
N1866 C1869 1.350 . S
N1867 S1865 1.610 . S
N1867 C1868 1.351 . S
C1868 C1862 1.428 . S
C1868 N1867 1.351 . S
C1868 C1869 1.434 . S
C1869 C1860 1.429 . S
C1869 N1866 1.350 . S
C1869 C1868 1.434 . S
C1870 C1871 1.369 . S
C1870 C1872 1.419 . S
C1870 H1874 0.930 . S
C1871 C1870 1.369 . S
C1871 C1880 1.429 . S
C1872 C1870 1.419 . S
C1872 C1873 1.363 . S
C1872 H1875 0.929 . S
C1873 C1872 1.363 . S
C1873 C1879 1.428 . S
H1874 C1870 0.930 . S
H1875 C1872 0.929 . S
S1876 N1877 1.613 . S
S1876 N1878 1.610 . S
N1877 S1876 1.613 . S
N1877 C1880 1.350 . S
N1878 S1876 1.610 . S
N1878 C1879 1.351 . S
C1879 C1873 1.428 . S
C1879 N1878 1.351 . S
C1879 C1880 1.434 . S
C1880 C1871 1.429 . S
C1880 N1877 1.350 . S
C1880 C1879 1.434 . S
C1881 C1882 1.369 . S
C1881 C1883 1.419 . S
C1881 H1885 0.930 . S
C1882 C1881 1.369 . S
C1882 C1891 1.429 . S
C1883 C1881 1.419 . S
C1883 C1884 1.363 . S
C1883 H1886 0.929 . S
C1884 C1883 1.363 . S
C1884 C1890 1.428 . S
H1885 C1881 0.930 . S
H1886 C1883 0.929 . S
S1887 N1888 1.613 . S
S1887 N1889 1.610 . S
N1888 S1887 1.613 . S
N1888 C1891 1.350 . S
N1889 S1887 1.610 . S
N1889 C1890 1.351 . S
C1890 C1884 1.428 . S
C1890 N1889 1.351 . S
C1890 C1891 1.434 . S
C1891 C1882 1.429 . S
C1891 N1888 1.350 . S
C1891 C1890 1.434 . S
C1892 C1893 1.369 . S
C1892 C1894 1.419 . S
C1892 H1896 0.930 . S
C1893 C1892 1.369 . S
C1893 C1902 1.429 . S
C1894 C1892 1.419 . S
C1894 C1895 1.363 . S
C1894 H1897 0.929 . S
C1895 C1894 1.363 . S
C1895 C1901 1.428 . S
H1896 C1892 0.930 . S
H1897 C1894 0.929 . S
S1898 N1899 1.613 . S
S1898 N1900 1.610 . S
N1899 S1898 1.613 . S
N1899 C1902 1.350 . S
N1900 S1898 1.610 . S
N1900 C1901 1.351 . S
C1901 C1895 1.428 . S
C1901 N1900 1.351 . S
C1901 C1902 1.434 . S
C1902 C1893 1.429 . S
C1902 N1899 1.350 . S
C1902 C1901 1.434 . S
C1903 C1904 1.369 . S
C1903 C1905 1.419 . S
C1903 H1907 0.930 . S
C1904 C1903 1.369 . S
C1904 C1913 1.429 . S
C1905 C1903 1.419 . S
C1905 C1906 1.363 . S
C1905 H1908 0.929 . S
C1906 C1905 1.363 . S
C1906 C1912 1.428 . S
H1907 C1903 0.930 . S
H1908 C1905 0.929 . S
S1909 N1910 1.613 . S
S1909 N1911 1.610 . S
N1910 S1909 1.613 . S
N1910 C1913 1.350 . S
N1911 S1909 1.610 . S
N1911 C1912 1.351 . S
C1912 C1906 1.428 . S
C1912 N1911 1.351 . S
C1912 C1913 1.434 . S
C1913 C1904 1.429 . S
C1913 N1910 1.350 . S
C1913 C1912 1.434 . S
C1914 C1915 1.369 . S
C1914 C1916 1.419 . S
C1914 H1918 0.930 . S
C1915 C1914 1.369 . S
C1915 C1924 1.429 . S
C1916 C1914 1.419 . S
C1916 C1917 1.363 . S
C1916 H1919 0.929 . S
C1917 C1916 1.363 . S
C1917 C1923 1.428 . S
H1918 C1914 0.930 . S
H1919 C1916 0.929 . S
S1920 N1921 1.613 . S
S1920 N1922 1.610 . S
N1921 S1920 1.613 . S
N1921 C1924 1.350 . S
N1922 S1920 1.610 . S
N1922 C1923 1.351 . S
C1923 C1917 1.428 . S
C1923 N1922 1.351 . S
C1923 C1924 1.434 . S
C1924 C1915 1.429 . S
C1924 N1921 1.350 . S
C1924 C1923 1.434 . S
C1925 C1926 1.369 . S
C1925 C1927 1.419 . S
C1925 H1929 0.930 . S
C1926 C1925 1.369 . S
C1926 C1935 1.429 . S
C1927 C1925 1.419 . S
C1927 C1928 1.363 . S
C1927 H1930 0.929 . S
C1928 C1927 1.363 . S
C1928 C1934 1.428 . S
H1929 C1925 0.930 . S
H1930 C1927 0.929 . S
S1931 N1932 1.613 . S
S1931 N1933 1.610 . S
N1932 S1931 1.613 . S
N1932 C1935 1.350 . S
N1933 S1931 1.610 . S
N1933 C1934 1.351 . S
C1934 C1928 1.428 . S
C1934 N1933 1.351 . S
C1934 C1935 1.434 . S
C1935 C1926 1.429 . S
C1935 N1932 1.350 . S
C1935 C1934 1.434 . S
C1057 N2 0.772 . S
C1059 N332 0.776 . S
C1068 N365 0.783 . S
C1070 N35 0.759 . S
C1079 N266 0.761 . S
C1081 N68 0.782 . S
C1090 N101 0.756 . S
C1092 N299 0.784 . S
C1101 N134 0.787 . S
C1103 N464 0.759 . S
C1112 N167 0.755 . S
C1114 N497 0.783 . S
C1123 N398 0.756 . S
C1125 N200 0.783 . S
C1134 N431 0.756 . S
C1136 N233 0.777 . S
C1145 N860 0.781 . S
C1147 N530 0.760 . S
C1156 N893 0.756 . S
C1158 N563 0.784 . S
C1167 N596 0.755 . S
C1169 N794 0.783 . S
C1178 N827 0.756 . S
C1180 N629 0.784 . S
C1189 N662 0.781 . S
C1191 N992 0.759 . S
C1200 N1025 0.755 . S
C1202 N695 0.783 . S
C1211 N728 0.763 . S
C1213 N926 0.770 . S
C1222 N761 0.757 . S
C1224 N959 0.776 . S
C1233 C7 1.812 . S
C1235 C832 1.821 . S
C1244 C40 1.823 . S
C1246 C799 1.813 . S
C1255 C73 1.813 . S
C1257 C898 1.820 . S
C1266 C106 1.817 . S
C1268 C865 1.818 . S
C1277 C139 1.823 . S
C1279 C964 1.813 . S
C1288 C172 1.819 . S
C1290 C931 1.816 . S
C1299 C1030 1.813 . S
C1301 C205 1.821 . S
C1310 C238 1.812 . S
C1312 C997 1.821 . S
C1321 C568 1.813 . S
C1323 C271 1.821 . S
C1332 C304 1.821 . S
C1334 C535 1.814 . S
C1343 C337 1.823 . S
C1345 C634 1.813 . S
C1354 C601 1.814 . S
C1356 C370 1.820 . S
C1365 C700 1.820 . S
C1367 C403 1.816 . S
C1376 C667 1.812 . S
C1378 C436 1.822 . S
C1387 C469 1.814 . S
C1389 C766 1.820 . S
C1398 C733 1.813 . S
C1400 C502 1.821 . S
C1409 N79 1.139 . S
C1411 N13 1.141 . S
C1420 N46 1.142 . S
C1422 N112 1.140 . S
C1431 N211 1.139 . S
C1433 N145 1.137 . S
C1442 N178 1.137 . S
C1444 N244 1.140 . S
C1453 N277 1.142 . S
C1455 N343 1.140 . S
C1464 N310 1.140 . S
C1466 N376 1.137 . S
C1475 N475 1.141 . S
C1477 N409 1.142 . S
C1486 N508 1.136 . S
C1488 N442 1.137 . S
C1497 N607 1.142 . S
C1499 N541 1.141 . S
C1508 N574 1.138 . S
C1510 N640 1.137 . S
C1519 N673 1.140 . S
C1521 N739 1.141 . S
C1530 N706 1.142 . S
C1532 N772 1.141 . S
C1541 N871 1.142 . S
C1543 N805 1.141 . S
C1552 N838 1.139 . S
C1554 N904 1.137 . S
C1563 N937 1.139 . S
C1565 N1003 1.137 . S
C1574 N1036 1.142 . S
C1576 N970 1.139 . S
C1585 C747 1.924 . S
C1587 C18 1.926 . S
C1596 C516 1.925 1_655 S
C1598 C51 1.926 . S
C1607 C84 1.928 . S
C1609 C945 1.923 . S
C1618 C186 1.923 1_655 S
C1620 C117 1.927 . S
C1629 C150 1.926 . S
C1631 C615 1.923 . S
C1640 C183 1.928 . S
C1642 C384 1.923 1_455 S
C1651 C813 1.924 . S
C1653 C216 1.927 . S
C1662 C249 1.927 . S
C1664 C54 1.925 1_455 S
C1673 C282 1.925 . S
C1675 C1011 1.924 . S
C1684 C252 1.925 1_655 S
C1686 C315 1.926 . S
C1695 C348 1.927 . S
C1697 C681 1.923 . S
C1706 C381 1.925 . S
C1708 C450 1.924 1_655 S
C1717 C879 1.923 . S
C1719 C414 1.926 . S
C1728 C447 1.925 . S
C1730 C120 1.925 1_455 S
C1739 C549 1.925 . S
C1741 C480 1.926 . S
C1750 C318 1.923 1_455 S
C1752 C513 1.926 . S
C1761 C219 1.924 . S
C1763 C546 1.928 . S
C1772 C579 1.926 . S
C1774 C1044 1.923 . S
C1783 C612 1.927 . S
C1785 C417 1.923 . S
C1794 C645 1.926 . S
C1796 C714 1.925 . S
C1805 C678 1.926 . S
C1807 C87 1.925 . S
C1816 C711 1.926 . S
C1818 C912 1.923 . S
C1827 C285 1.924 . S
C1829 C744 1.928 . S
C1838 C582 1.925 . S
C1840 C777 1.926 . S
C1849 C483 1.923 . S
C1851 C810 1.928 . S
C1860 C843 1.926 . S
C1862 C780 1.923 . S
C1871 C153 1.922 . S
C1873 C876 1.926 . S
C1882 C978 1.922 . S
C1884 C909 1.927 . S
C1893 C942 1.926 . S
C1895 C351 1.925 . S
C1904 C975 1.928 . S
C1906 C648 1.923 . S
C1915 C21 1.924 . S
C1917 C1008 1.926 . S
C1926 C1041 1.928 . S
C1928 C846 1.923 . S
