# Generated by pormake.
# Topology mer, (4)-cn, num edge types: 1
# Building blocks:
#     Node 0, Type 0, BuildingBlock: ICAMEG_clean_sbu_1, # of connection points: 4
#     Node 1, Type 0, BuildingBlock: ICAMEG_clean_sbu_1, # of connection points: 4
#     Node 2, Type 0, BuildingBlock: ICAMEG_clean_sbu_1, # of connection points: 4
#     Node 3, Type 0, BuildingBlock: ICAMEG_clean_sbu_1, # of connection points: 4
#     Node 4, Type 0, BuildingBlock: ICAMEG_clean_sbu_1, # of connection points: 4
#     Node 5, Type 0, BuildingBlock: ICAMEG_clean_sbu_1, # of connection points: 4
#     Node 6, Type 0, BuildingBlock: ICAMEG_clean_sbu_1, # of connection points: 4
#     Node 7, Type 0, BuildingBlock: ICAMEG_clean_sbu_1, # of connection points: 4
#     Node 8, Type 0, BuildingBlock: ICAMEG_clean_sbu_1, # of connection points: 4
#     Node 9, Type 0, BuildingBlock: ICAMEG_clean_sbu_1, # of connection points: 4
#     Node 10, Type 0, BuildingBlock: ICAMEG_clean_sbu_1, # of connection points: 4
#     Node 11, Type 0, BuildingBlock: ICAMEG_clean_sbu_1, # of connection points: 4
#     Node 12, Type 0, BuildingBlock: ICAMEG_clean_sbu_1, # of connection points: 4
#     Node 13, Type 0, BuildingBlock: ICAMEG_clean_sbu_1, # of connection points: 4
#     Node 14, Type 0, BuildingBlock: ICAMEG_clean_sbu_1, # of connection points: 4
#     Node 15, Type 0, BuildingBlock: ICAMEG_clean_sbu_1, # of connection points: 4
#     Node 16, Type 0, BuildingBlock: ICAMEG_clean_sbu_1, # of connection points: 4
#     Node 17, Type 0, BuildingBlock: ICAMEG_clean_sbu_1, # of connection points: 4
#     Node 18, Type 0, BuildingBlock: ICAMEG_clean_sbu_1, # of connection points: 4
#     Node 19, Type 0, BuildingBlock: ICAMEG_clean_sbu_1, # of connection points: 4
#     Node 20, Type 0, BuildingBlock: ICAMEG_clean_sbu_1, # of connection points: 4
#     Node 21, Type 0, BuildingBlock: ICAMEG_clean_sbu_1, # of connection points: 4
#     Node 22, Type 0, BuildingBlock: ICAMEG_clean_sbu_1, # of connection points: 4
#     Node 23, Type 0, BuildingBlock: ICAMEG_clean_sbu_1, # of connection points: 4
#     Node 24, Type 0, BuildingBlock: ICAMEG_clean_sbu_1, # of connection points: 4
#     Node 25, Type 0, BuildingBlock: ICAMEG_clean_sbu_1, # of connection points: 4
#     Node 26, Type 0, BuildingBlock: ICAMEG_clean_sbu_1, # of connection points: 4
#     Node 27, Type 0, BuildingBlock: ICAMEG_clean_sbu_1, # of connection points: 4
#     Node 28, Type 0, BuildingBlock: ICAMEG_clean_sbu_1, # of connection points: 4
#     Node 29, Type 0, BuildingBlock: ICAMEG_clean_sbu_1, # of connection points: 4
#     Node 30, Type 0, BuildingBlock: ICAMEG_clean_sbu_1, # of connection points: 4
#     Node 31, Type 0, BuildingBlock: ICAMEG_clean_sbu_1, # of connection points: 4
#     Edge 32, Type (0, 0), BuildingBlock: XUDNAN_clean_linker_2, # of connection points: 2
#     Edge 33, Type (0, 0), BuildingBlock: XUDNAN_clean_linker_2, # of connection points: 2
#     Edge 34, Type (0, 0), BuildingBlock: XUDNAN_clean_linker_2, # of connection points: 2
#     Edge 35, Type (0, 0), BuildingBlock: XUDNAN_clean_linker_2, # of connection points: 2
#     Edge 36, Type (0, 0), BuildingBlock: XUDNAN_clean_linker_2, # of connection points: 2
#     Edge 37, Type (0, 0), BuildingBlock: XUDNAN_clean_linker_2, # of connection points: 2
#     Edge 38, Type (0, 0), BuildingBlock: XUDNAN_clean_linker_2, # of connection points: 2
#     Edge 39, Type (0, 0), BuildingBlock: XUDNAN_clean_linker_2, # of connection points: 2
#     Edge 40, Type (0, 0), BuildingBlock: XUDNAN_clean_linker_2, # of connection points: 2
#     Edge 41, Type (0, 0), BuildingBlock: XUDNAN_clean_linker_2, # of connection points: 2
#     Edge 42, Type (0, 0), BuildingBlock: XUDNAN_clean_linker_2, # of connection points: 2
#     Edge 43, Type (0, 0), BuildingBlock: XUDNAN_clean_linker_2, # of connection points: 2
#     Edge 44, Type (0, 0), BuildingBlock: XUDNAN_clean_linker_2, # of connection points: 2
#     Edge 45, Type (0, 0), BuildingBlock: XUDNAN_clean_linker_2, # of connection points: 2
#     Edge 46, Type (0, 0), BuildingBlock: XUDNAN_clean_linker_2, # of connection points: 2
#     Edge 47, Type (0, 0), BuildingBlock: XUDNAN_clean_linker_2, # of connection points: 2
#     Edge 48, Type (0, 0), BuildingBlock: XUDNAN_clean_linker_2, # of connection points: 2
#     Edge 49, Type (0, 0), BuildingBlock: XUDNAN_clean_linker_2, # of connection points: 2
#     Edge 50, Type (0, 0), BuildingBlock: XUDNAN_clean_linker_2, # of connection points: 2
#     Edge 51, Type (0, 0), BuildingBlock: XUDNAN_clean_linker_2, # of connection points: 2
#     Edge 52, Type (0, 0), BuildingBlock: XUDNAN_clean_linker_2, # of connection points: 2
#     Edge 53, Type (0, 0), BuildingBlock: XUDNAN_clean_linker_2, # of connection points: 2
#     Edge 54, Type (0, 0), BuildingBlock: XUDNAN_clean_linker_2, # of connection points: 2
#     Edge 55, Type (0, 0), BuildingBlock: XUDNAN_clean_linker_2, # of connection points: 2
#     Edge 56, Type (0, 0), BuildingBlock: XUDNAN_clean_linker_2, # of connection points: 2
#     Edge 57, Type (0, 0), BuildingBlock: XUDNAN_clean_linker_2, # of connection points: 2
#     Edge 58, Type (0, 0), BuildingBlock: XUDNAN_clean_linker_2, # of connection points: 2
#     Edge 59, Type (0, 0), BuildingBlock: XUDNAN_clean_linker_2, # of connection points: 2
#     Edge 60, Type (0, 0), BuildingBlock: XUDNAN_clean_linker_2, # of connection points: 2
#     Edge 61, Type (0, 0), BuildingBlock: XUDNAN_clean_linker_2, # of connection points: 2
#     Edge 62, Type (0, 0), BuildingBlock: XUDNAN_clean_linker_2, # of connection points: 2
#     Edge 63, Type (0, 0), BuildingBlock: XUDNAN_clean_linker_2, # of connection points: 2
#     Edge 64, Type (0, 0), BuildingBlock: XUDNAN_clean_linker_2, # of connection points: 2
#     Edge 65, Type (0, 0), BuildingBlock: XUDNAN_clean_linker_2, # of connection points: 2
#     Edge 66, Type (0, 0), BuildingBlock: XUDNAN_clean_linker_2, # of connection points: 2
#     Edge 67, Type (0, 0), BuildingBlock: XUDNAN_clean_linker_2, # of connection points: 2
#     Edge 68, Type (0, 0), BuildingBlock: XUDNAN_clean_linker_2, # of connection points: 2
#     Edge 69, Type (0, 0), BuildingBlock: XUDNAN_clean_linker_2, # of connection points: 2
#     Edge 70, Type (0, 0), BuildingBlock: XUDNAN_clean_linker_2, # of connection points: 2
#     Edge 71, Type (0, 0), BuildingBlock: XUDNAN_clean_linker_2, # of connection points: 2
#     Edge 72, Type (0, 0), BuildingBlock: XUDNAN_clean_linker_2, # of connection points: 2
#     Edge 73, Type (0, 0), BuildingBlock: XUDNAN_clean_linker_2, # of connection points: 2
#     Edge 74, Type (0, 0), BuildingBlock: XUDNAN_clean_linker_2, # of connection points: 2
#     Edge 75, Type (0, 0), BuildingBlock: XUDNAN_clean_linker_2, # of connection points: 2
#     Edge 76, Type (0, 0), BuildingBlock: XUDNAN_clean_linker_2, # of connection points: 2
#     Edge 77, Type (0, 0), BuildingBlock: XUDNAN_clean_linker_2, # of connection points: 2
#     Edge 78, Type (0, 0), BuildingBlock: XUDNAN_clean_linker_2, # of connection points: 2
#     Edge 79, Type (0, 0), BuildingBlock: XUDNAN_clean_linker_2, # of connection points: 2
#     Edge 80, Type (0, 0), BuildingBlock: XUDNAN_clean_linker_2, # of connection points: 2
#     Edge 81, Type (0, 0), BuildingBlock: XUDNAN_clean_linker_2, # of connection points: 2
#     Edge 82, Type (0, 0), BuildingBlock: XUDNAN_clean_linker_2, # of connection points: 2
#     Edge 83, Type (0, 0), BuildingBlock: XUDNAN_clean_linker_2, # of connection points: 2
#     Edge 84, Type (0, 0), BuildingBlock: XUDNAN_clean_linker_2, # of connection points: 2
#     Edge 85, Type (0, 0), BuildingBlock: XUDNAN_clean_linker_2, # of connection points: 2
#     Edge 86, Type (0, 0), BuildingBlock: XUDNAN_clean_linker_2, # of connection points: 2
#     Edge 87, Type (0, 0), BuildingBlock: XUDNAN_clean_linker_2, # of connection points: 2
#     Edge 88, Type (0, 0), BuildingBlock: XUDNAN_clean_linker_2, # of connection points: 2
#     Edge 89, Type (0, 0), BuildingBlock: XUDNAN_clean_linker_2, # of connection points: 2
#     Edge 90, Type (0, 0), BuildingBlock: XUDNAN_clean_linker_2, # of connection points: 2
#     Edge 91, Type (0, 0), BuildingBlock: XUDNAN_clean_linker_2, # of connection points: 2
#     Edge 92, Type (0, 0), BuildingBlock: XUDNAN_clean_linker_2, # of connection points: 2
#     Edge 93, Type (0, 0), BuildingBlock: XUDNAN_clean_linker_2, # of connection points: 2
#     Edge 94, Type (0, 0), BuildingBlock: XUDNAN_clean_linker_2, # of connection points: 2
#     Edge 95, Type (0, 0), BuildingBlock: XUDNAN_clean_linker_2, # of connection points: 2
# Relax obj value: 0.031
# Max RMSD: 0.078
# Mean RMSD: 0.078
data_MOF--net-mer--node1-ICAMEG_clean_sbu_1--edge1-XUDNAN_clean_linker_2
_symmetry_space_group_name_H-M    P1
_symmetry_Int_Tables_number       1
_symmetry_cell_setting            triclinic
loop_
_symmetry_equiv_pos_as_xyz
'x, y, z'
_cell_length_a     65.076158
_cell_length_b     65.077019
_cell_length_c     59.324962
_cell_angle_alpha  89.985638
_cell_angle_beta   90.002722
_cell_angle_gamma 90.017892
loop_
_atom_site_label
_atom_site_type_symbol
_atom_site_fract_x
_atom_site_fract_y
_atom_site_fract_z
_atom_type_partial_charge
Co0 Co 0.14715 0.31067 0.37431 0.0
Co1 Co 0.11636 0.26798 0.37913 0.0
O2 O 0.12305 0.29469 0.36587 0.0
C3 C 0.15067 0.30949 0.3241 0.0
O4 O 0.14572 0.28993 0.32434 0.0
C5 C 0.0774 0.29073 0.38814 0.0
O6 O 0.08752 0.30313 0.40158 0.0
O7 O 0.11913 0.27901 0.41049 0.0
O8 O 0.14415 0.30238 0.40643 0.0
H9 H 0.12518 0.20834 0.43205 0.0
H10 H 0.11346 0.33042 0.34878 0.0
O11 O 0.15112 0.31977 0.34237 0.0
H12 H 0.11904 0.36987 0.41948 0.0
H13 H 0.19372 0.37248 0.37234 0.0
H14 H 0.18329 0.30301 0.40354 0.0
H15 H 0.14237 0.34083 0.41193 0.0
H16 H 0.16289 0.35237 0.3624 0.0
O17 O 0.08649 0.27589 0.37827 0.0
H18 H 0.13406 0.24182 0.41518 0.0
H19 H 0.08281 0.23766 0.37108 0.0
H20 H 0.21426 0.32264 0.41408 0.0
H21 H 0.08989 0.35947 0.35557 0.0
H22 H 0.21963 0.35765 0.39843 0.0
H23 H 0.09259 0.37939 0.39115 0.0
O24 O 0.16523 0.28662 0.36874 0.0
H25 H 0.09287 0.26853 0.2984 0.0
H26 H 0.1323 0.23058 0.3559 0.0
H27 H 0.13012 0.21687 0.31724 0.0
H28 H 0.11026 0.23587 0.28818 0.0
H29 H 0.09564 0.28182 0.3372 0.0
H30 H 0.07325 0.20421 0.38762 0.0
H31 H 0.09456 0.1893 0.41827 0.0
O32 O 0.14611 0.25961 0.37964 0.0
C33 C 0.13228 0.29151 0.41866 0.0
C34 C 0.1158 0.21464 0.41866 0.0
C35 C 0.08664 0.21234 0.39375 0.0
N36 N 0.10905 0.2416 0.39206 0.0
C37 C 0.12079 0.23357 0.409 0.0
C38 C 0.0921 0.23131 0.38448 0.0
C39 C 0.09861 0.20398 0.41094 0.0
C40 C 0.11482 0.33913 0.36422 0.0
N41 N 0.12934 0.33402 0.37987 0.0
C42 C 0.10139 0.35551 0.36801 0.0
C43 C 0.1029 0.36666 0.38799 0.0
C44 C 0.11773 0.36133 0.40389 0.0
C45 C 0.13087 0.34484 0.39954 0.0
C46 C 0.19154 0.35726 0.3793 0.0
C47 C 0.18547 0.31827 0.39676 0.0
C48 C 0.17413 0.34579 0.3737 0.0
N49 N 0.17123 0.32659 0.3825 0.0
C50 C 0.20306 0.3293 0.40275 0.0
C51 C 0.20607 0.34893 0.39395 0.0
C52 C 0.1632 0.26763 0.37364 0.0
C53 C 0.10151 0.26008 0.31093 0.0
C54 C 0.12367 0.23898 0.34335 0.0
C55 C 0.12246 0.23111 0.32149 0.0
C56 C 0.1113 0.24177 0.3052 0.0
N57 N 0.11401 0.25694 0.34885 0.0
C58 C 0.10305 0.26748 0.33296 0.0
Co59 Co 0.6938 0.14713 0.3713 0.0
Co60 Co 0.72798 0.10791 0.3845 0.0
O61 O 0.70486 0.11916 0.36721 0.0
C62 C 0.70619 0.14599 0.32337 0.0
O63 O 0.72313 0.13686 0.33 0.0
C64 C 0.69636 0.07327 0.38407 0.0
O65 O 0.68274 0.08393 0.37272 0.0
O66 O 0.71547 0.11727 0.41326 0.0
O67 O 0.69479 0.14386 0.40483 0.0
H68 H 0.78299 0.11072 0.44385 0.0
H69 H 0.67177 0.11831 0.34104 0.0
O70 O 0.69258 0.15107 0.33776 0.0
H71 H 0.62224 0.13557 0.40102 0.0
H72 H 0.64685 0.20627 0.35286 0.0
H73 H 0.70297 0.18193 0.40194 0.0
H74 H 0.65697 0.15073 0.40099 0.0
H75 H 0.66078 0.17124 0.34858 0.0
O76 O 0.71392 0.08074 0.38885 0.0
H77 H 0.75429 0.12426 0.42112 0.0
H78 H 0.75051 0.06791 0.38523 0.0
H79 H 0.68939 0.21703 0.40691 0.0
H80 H 0.63708 0.10303 0.34022 0.0
H81 H 0.66113 0.2294 0.38225 0.0
H82 H 0.61208 0.11158 0.37043 0.0
O83 O 0.72183 0.15976 0.37152 0.0
H84 H 0.72766 0.07501 0.30768 0.0
H85 H 0.76991 0.11059 0.36453 0.0
H86 H 0.78565 0.09999 0.3286 0.0
H87 H 0.7645 0.08199 0.29988 0.0
H88 H 0.71252 0.08609 0.34367 0.0
H89 H 0.7791 0.05373 0.40766 0.0
H90 H 0.79558 0.07521 0.43717 0.0
O91 O 0.74306 0.13429 0.38158 0.0
C92 C 0.70327 0.1317 0.41893 0.0
C93 C 0.776 0.10124 0.43097 0.0
C94 C 0.77379 0.06924 0.41068 0.0
N95 N 0.75086 0.09697 0.40172 0.0
C96 C 0.75978 0.10884 0.418 0.0
C97 C 0.75759 0.07735 0.39806 0.0
C98 C 0.78303 0.08131 0.42724 0.0
C99 C 0.66091 0.12224 0.35414 0.0
N100 N 0.66641 0.13536 0.37106 0.0
C101 C 0.64132 0.11348 0.35363 0.0
C102 C 0.62731 0.11826 0.3706 0.0
C103 C 0.63301 0.13169 0.38779 0.0
C104 C 0.65274 0.14015 0.38775 0.0
C105 C 0.65913 0.20104 0.36374 0.0
C106 C 0.69057 0.18716 0.39125 0.0
C107 C 0.66711 0.18123 0.36137 0.0
N108 N 0.68258 0.17451 0.3751 0.0
C109 C 0.68299 0.20707 0.3941 0.0
C110 C 0.66715 0.21401 0.38024 0.0
C111 C 0.73963 0.15296 0.3765 0.0
C112 C 0.73708 0.0827 0.32013 0.0
C113 C 0.76059 0.10275 0.35216 0.0
C114 C 0.7696 0.09677 0.33184 0.0
C115 C 0.75773 0.08667 0.31574 0.0
N116 N 0.74034 0.09869 0.35644 0.0
C117 C 0.7286 0.08888 0.34066 0.0
Co118 Co 0.85194 0.69604 0.37175 0.0
Co119 Co 0.89185 0.72999 0.38179 0.0
O120 O 0.87991 0.70617 0.36664 0.0
C121 C 0.85372 0.70498 0.32301 0.0
O122 O 0.86228 0.72243 0.32889 0.0
C123 C 0.9235 0.69765 0.39167 0.0
O124 O 0.90927 0.68512 0.39928 0.0
O125 O 0.88318 0.71923 0.41181 0.0
O126 O 0.85517 0.69982 0.4052 0.0
H127 H 0.89267 0.78814 0.43744 0.0
H128 H 0.88126 0.67148 0.34461 0.0
O129 O 0.84829 0.69217 0.33819 0.0
H130 H 0.86217 0.62716 0.40872 0.0
H131 H 0.79202 0.64886 0.35758 0.0
H132 H 0.81725 0.70821 0.40124 0.0
H133 H 0.84717 0.66177 0.40472 0.0
H134 H 0.8273 0.66183 0.35211 0.0
O135 O 0.91874 0.71542 0.38441 0.0
H136 H 0.87754 0.75868 0.41721 0.0
H137 H 0.93241 0.75143 0.37926 0.0
H138 H 0.78191 0.69567 0.40736 0.0
H139 H 0.89652 0.6369 0.34786 0.0
H140 H 0.76909 0.66578 0.38543 0.0
H141 H 0.88701 0.61451 0.38013 0.0
O142 O 0.83998 0.72419 0.36916 0.0
H143 H 0.92235 0.72381 0.3043 0.0
H144 H 0.89014 0.77088 0.3589 0.0
H145 H 0.89982 0.78383 0.3213 0.0
H146 H 0.91609 0.76019 0.2937 0.0
H147 H 0.91212 0.71148 0.34197 0.0
H148 H 0.94818 0.78069 0.39919 0.0
H149 H 0.92824 0.79932 0.42846 0.0
O150 O 0.86555 0.74554 0.37901 0.0
C151 C 0.868 0.70841 0.41858 0.0
C152 C 0.90148 0.7802 0.42466 0.0
C153 C 0.93265 0.776 0.40321 0.0
N154 N 0.90401 0.75344 0.39695 0.0
C155 C 0.89297 0.76355 0.4131 0.0
C156 C 0.92365 0.75941 0.39202 0.0
C157 C 0.92145 0.78645 0.41963 0.0
C158 C 0.87693 0.66176 0.3586 0.0
N159 N 0.86327 0.66859 0.37439 0.0
C160 C 0.88567 0.64222 0.36039 0.0
C161 C 0.88035 0.62968 0.37852 0.0
C162 C 0.86642 0.63677 0.39458 0.0
C163 C 0.85802 0.6564 0.39225 0.0
C164 C 0.79744 0.66186 0.36727 0.0
C165 C 0.81182 0.69511 0.39175 0.0
C166 C 0.81739 0.6693 0.36422 0.0
N167 N 0.82435 0.68566 0.37647 0.0
C168 C 0.79178 0.68812 0.39524 0.0
C169 C 0.78459 0.67136 0.38291 0.0
C170 C 0.84694 0.74208 0.37342 0.0
C171 C 0.91524 0.73425 0.31616 0.0
C172 C 0.89693 0.76048 0.34689 0.0
C173 C 0.90253 0.76791 0.32568 0.0
C174 C 0.9117 0.75465 0.31021 0.0
N175 N 0.90033 0.74042 0.35256 0.0
C176 C 0.90946 0.72737 0.33754 0.0
Co177 Co 0.30399 0.85434 0.38257 0.0
Co178 Co 0.27123 0.8958 0.37578 0.0
O179 O 0.29672 0.88103 0.36928 0.0
C180 C 0.30549 0.84715 0.33318 0.0
O181 O 0.28842 0.85778 0.33166 0.0
C182 C 0.30191 0.928 0.38774 0.0
O183 O 0.31216 0.91427 0.39945 0.0
O184 O 0.27567 0.89262 0.40881 0.0
O185 O 0.29429 0.86374 0.41302 0.0
H186 H 0.20402 0.90741 0.41547 0.0
H187 H 0.33484 0.87764 0.35612 0.0
O188 O 0.31392 0.84433 0.35235 0.0
H189 H 0.3649 0.87008 0.43198 0.0
H190 H 0.34925 0.7924 0.39351 0.0
H191 H 0.28438 0.82612 0.41537 0.0
H192 H 0.331 0.85517 0.4232 0.0
H193 H 0.33969 0.82601 0.37737 0.0
O194 O 0.28615 0.92269 0.37645 0.0
H195 H 0.23594 0.88872 0.40643 0.0
H196 H 0.25252 0.93483 0.35913 0.0
H197 H 0.29341 0.79259 0.43207 0.0
H198 H 0.3689 0.89264 0.36411 0.0
H199 H 0.32605 0.77551 0.42114 0.0
H200 H 0.38412 0.88894 0.40229 0.0
O201 O 0.27627 0.84251 0.37598 0.0
H202 H 0.29285 0.9125 0.29661 0.0
H203 H 0.23595 0.88818 0.34462 0.0
H204 H 0.23087 0.89074 0.30351 0.0
H205 H 0.25946 0.90296 0.27921 0.0
H206 H 0.2973 0.90955 0.33779 0.0
H207 H 0.22093 0.95416 0.36787 0.0
H208 H 0.19636 0.9404 0.39615 0.0
O209 O 0.2553 0.86979 0.37535 0.0
C210 C 0.28419 0.8789 0.42106 0.0
C211 C 0.21457 0.91353 0.40307 0.0
C212 C 0.22407 0.93978 0.37637 0.0
N213 N 0.24603 0.91061 0.38219 0.0
C214 C 0.23264 0.90299 0.39784 0.0
C215 C 0.24196 0.9288 0.37154 0.0
C216 C 0.21029 0.93205 0.39224 0.0
C217 C 0.34144 0.87584 0.37273 0.0
N218 N 0.33098 0.86549 0.38915 0.0
C219 C 0.3607 0.88442 0.37717 0.0
C220 C 0.36922 0.88236 0.39861 0.0
C221 C 0.35844 0.87179 0.41528 0.0
C222 C 0.33922 0.86343 0.41022 0.0
C223 C 0.335 0.7997 0.39844 0.0
C224 C 0.29867 0.81883 0.41064 0.0
C225 C 0.32949 0.81871 0.38931 0.0
N226 N 0.31157 0.82806 0.39554 0.0
C227 C 0.30367 0.79983 0.42011 0.0
C228 C 0.32198 0.79024 0.41395 0.0
C229 C 0.25842 0.8505 0.37481 0.0
C230 C 0.28026 0.90722 0.30703 0.0
C231 C 0.24847 0.89348 0.33416 0.0
C232 C 0.24549 0.89495 0.3109 0.0
C233 C 0.26153 0.90183 0.29727 0.0
N234 N 0.26689 0.89877 0.34359 0.0
C235 C 0.28266 0.9056 0.33036 0.0
Co236 Co 0.14692 0.68286 0.62739 0.0
Co237 Co 0.11781 0.72741 0.62329 0.0
O238 O 0.12372 0.70029 0.63646 0.0
C239 C 0.1541 0.68869 0.67638 0.0
O240 O 0.14677 0.70742 0.6749 0.0
C241 C 0.07926 0.70323 0.61616 0.0
O242 O 0.08997 0.68618 0.61554 0.0
O243 O 0.12239 0.71719 0.59195 0.0
O244 O 0.14099 0.68837 0.59523 0.0
H245 H 0.13179 0.78815 0.5733 0.0
H246 H 0.11623 0.66596 0.65921 0.0
O247 O 0.15402 0.67678 0.65939 0.0
H248 H 0.11318 0.62089 0.59248 0.0
H249 H 0.19221 0.62021 0.63125 0.0
H250 H 0.18007 0.68657 0.59338 0.0
H251 H 0.13742 0.65 0.59381 0.0
H252 H 0.16298 0.6421 0.64234 0.0
O253 O 0.08793 0.72048 0.61979 0.0
H254 H 0.13865 0.75405 0.58983 0.0
H255 H 0.08436 0.7583 0.62929 0.0
H256 H 0.20939 0.66508 0.58164 0.0
H257 H 0.09191 0.63686 0.6587 0.0
H258 H 0.21562 0.63163 0.60064 0.0
H259 H 0.09023 0.61414 0.62511 0.0
O260 O 0.16633 0.70654 0.62836 0.0
H261 H 0.08748 0.72476 0.70109 0.0
H262 H 0.13232 0.76378 0.6495 0.0
H263 H 0.12709 0.77625 0.68833 0.0
H264 H 0.1045 0.7567 0.71441 0.0
H265 H 0.0933 0.71274 0.66217 0.0
H266 H 0.07679 0.79235 0.61301 0.0
H267 H 0.10065 0.80753 0.58488 0.0
O268 O 0.14733 0.73524 0.62599 0.0
C269 C 0.13172 0.70182 0.58348 0.0
C270 C 0.12131 0.78172 0.58559 0.0
C271 C 0.09042 0.78407 0.60786 0.0
N272 N 0.11201 0.75427 0.61063 0.0
C273 C 0.12514 0.76245 0.59506 0.0
C274 C 0.09477 0.76477 0.61698 0.0
C275 C 0.10382 0.79258 0.59208 0.0
C276 C 0.11572 0.656 0.64464 0.0
N277 N 0.12826 0.65963 0.6266 0.0
C278 C 0.10186 0.63961 0.6444 0.0
C279 C 0.1009 0.62689 0.62553 0.0
C280 C 0.11376 0.63068 0.60721 0.0
C281 C 0.12741 0.64723 0.60803 0.0
C282 C 0.18963 0.63472 0.62281 0.0
C283 C 0.1826 0.67197 0.60162 0.0
C284 C 0.17312 0.6472 0.62903 0.0
N285 N 0.16971 0.66551 0.61837 0.0
C286 C 0.19926 0.6599 0.59495 0.0
C287 C 0.20275 0.64114 0.60563 0.0
C288 C 0.16455 0.72604 0.62771 0.0
C289 C 0.09731 0.73344 0.68987 0.0
C290 C 0.12252 0.75515 0.66077 0.0
C291 C 0.11958 0.76232 0.68272 0.0
C292 C 0.10689 0.75135 0.69734 0.0
N293 N 0.11305 0.73759 0.65356 0.0
C294 C 0.10059 0.72676 0.66779 0.0
Co295 Co 0.31088 0.14912 0.63616 0.0
Co296 Co 0.27938 0.1078 0.62493 0.0
O297 O 0.30131 0.12111 0.64197 0.0
C298 C 0.30039 0.14855 0.6846 0.0
O299 O 0.28305 0.13987 0.67854 0.0
C300 C 0.2985 0.06797 0.61251 0.0
O301 O 0.29499 0.07255 0.59129 0.0
O302 O 0.29384 0.11405 0.59616 0.0
O303 O 0.30864 0.14476 0.60263 0.0
H304 H 0.22906 0.10122 0.5611 0.0
H305 H 0.33523 0.12134 0.66542 0.0
O306 O 0.31343 0.15385 0.66963 0.0
H307 H 0.38179 0.14089 0.60343 0.0
H308 H 0.35531 0.21115 0.65019 0.0
H309 H 0.29868 0.18242 0.60481 0.0
H310 H 0.34642 0.15442 0.60495 0.0
H311 H 0.3434 0.1756 0.65642 0.0
O312 O 0.29447 0.08104 0.6279 0.0
H313 H 0.25607 0.11814 0.58356 0.0
H314 H 0.25621 0.06829 0.6298 0.0
H315 H 0.31019 0.21799 0.59791 0.0
H316 H 0.37055 0.10759 0.66469 0.0
H317 H 0.3387 0.23257 0.6207 0.0
H318 H 0.39408 0.11735 0.63351 0.0
O319 O 0.28221 0.15997 0.63689 0.0
H320 H 0.27494 0.08345 0.70519 0.0
H321 H 0.2364 0.11343 0.64164 0.0
H322 H 0.2187 0.10711 0.67771 0.0
H323 H 0.23798 0.09195 0.70979 0.0
H324 H 0.29214 0.09034 0.66895 0.0
H325 H 0.22915 0.05084 0.60786 0.0
H326 H 0.21541 0.06732 0.57322 0.0
O327 O 0.26384 0.13409 0.62214 0.0
C328 C 0.30307 0.13024 0.5894 0.0
C329 C 0.2349 0.09389 0.57617 0.0
C330 C 0.23496 0.06562 0.60241 0.0
N331 N 0.25773 0.09422 0.60796 0.0
C332 C 0.25021 0.1034 0.58896 0.0
C333 C 0.25028 0.07557 0.61477 0.0
C334 C 0.22726 0.07487 0.58298 0.0
C335 C 0.34542 0.12574 0.65186 0.0
N336 N 0.3388 0.13871 0.63529 0.0
C337 C 0.36538 0.11787 0.65151 0.0
C338 C 0.37857 0.12333 0.634 0.0
C339 C 0.37168 0.13652 0.61711 0.0
C340 C 0.35162 0.14409 0.61801 0.0
C341 C 0.3429 0.20496 0.64012 0.0
C342 C 0.31119 0.18862 0.61468 0.0
C343 C 0.33607 0.18486 0.6436 0.0
N344 N 0.32047 0.17691 0.63086 0.0
C345 C 0.3176 0.20878 0.61075 0.0
C346 C 0.33358 0.21696 0.62356 0.0
C347 C 0.2656 0.15263 0.62879 0.0
C348 C 0.26635 0.08998 0.69131 0.0
C349 C 0.24494 0.10695 0.65554 0.0
C350 C 0.23481 0.10333 0.67591 0.0
C351 C 0.24562 0.0948 0.69389 0.0
N352 N 0.26528 0.10217 0.65312 0.0
C353 C 0.27598 0.09381 0.67069 0.0
Co354 Co 0.8539 0.3114 0.63201 0.0
Co355 Co 0.88196 0.26713 0.62283 0.0
O356 O 0.87666 0.29288 0.63862 0.0
C357 C 0.84878 0.30068 0.67962 0.0
O358 O 0.85261 0.28169 0.67352 0.0
C359 C 0.92159 0.28907 0.61535 0.0
O360 O 0.91176 0.30308 0.60366 0.0
O361 O 0.87914 0.28078 0.59288 0.0
O362 O 0.85842 0.30786 0.59906 0.0
H363 H 0.86973 0.21255 0.56446 0.0
H364 H 0.88704 0.32466 0.66301 0.0
O365 O 0.84878 0.31505 0.66506 0.0
H366 H 0.88791 0.37471 0.60059 0.0
H367 H 0.81065 0.37452 0.64424 0.0
H368 H 0.81954 0.31147 0.59918 0.0
H369 H 0.86264 0.34646 0.60107 0.0
H370 H 0.83958 0.351 0.65173 0.0
O371 O 0.91211 0.2737 0.62371 0.0
H372 H 0.86256 0.24482 0.5848 0.0
H373 H 0.91426 0.23489 0.62711 0.0
H374 H 0.79049 0.33466 0.59098 0.0
H375 H 0.91251 0.35276 0.66328 0.0
H376 H 0.78591 0.36644 0.61361 0.0
H377 H 0.91306 0.37801 0.63188 0.0
O378 O 0.83395 0.2883 0.63177 0.0
H379 H 0.90675 0.26025 0.70274 0.0
H380 H 0.86487 0.22866 0.64276 0.0
H381 H 0.86704 0.21184 0.67992 0.0
H382 H 0.88813 0.22763 0.71022 0.0
H383 H 0.90394 0.27669 0.66541 0.0
H384 H 0.92209 0.20259 0.60712 0.0
H385 H 0.89968 0.19119 0.5756 0.0
O386 O 0.85196 0.26014 0.62229 0.0
C387 C 0.86864 0.29612 0.58599 0.0
C388 C 0.87956 0.21732 0.57821 0.0
C389 C 0.90897 0.21174 0.60213 0.0
N390 N 0.88788 0.24163 0.60723 0.0
C391 C 0.87555 0.23554 0.58983 0.0
C392 C 0.90449 0.23006 0.61336 0.0
C393 C 0.89639 0.20535 0.58446 0.0
C394 C 0.8871 0.33569 0.64939 0.0
N395 N 0.8733 0.33401 0.63213 0.0
C396 C 0.90159 0.35152 0.64959 0.0
C397 C 0.9019 0.36567 0.63195 0.0
C398 C 0.8878 0.36383 0.61438 0.0
C399 C 0.87355 0.34778 0.61473 0.0
C400 C 0.81251 0.36075 0.63423 0.0
C401 C 0.81772 0.32535 0.60898 0.0
C402 C 0.82884 0.34736 0.63841 0.0
N403 N 0.83133 0.32999 0.62576 0.0
C404 C 0.80121 0.33839 0.60431 0.0
C405 C 0.79864 0.35621 0.61703 0.0
C406 C 0.83509 0.26928 0.62682 0.0
C407 C 0.89758 0.25317 0.68964 0.0
C408 C 0.87404 0.23565 0.65586 0.0
C409 C 0.87525 0.22603 0.67686 0.0
C410 C 0.8871 0.23489 0.69385 0.0
N411 N 0.88438 0.25357 0.65185 0.0
C412 C 0.89603 0.26235 0.66843 0.0
Co413 Co 0.69541 0.84893 0.6258 0.0
Co414 Co 0.7291 0.89015 0.62889 0.0
O415 O 0.70305 0.8767 0.63563 0.0
C416 C 0.69636 0.84788 0.67521 0.0
O417 O 0.71408 0.85725 0.67309 0.0
C418 C 0.71581 0.92774 0.60508 0.0
O419 O 0.72737 0.92164 0.58822 0.0
O420 O 0.72665 0.88183 0.59684 0.0
O421 O 0.70444 0.85536 0.59409 0.0
H422 H 0.79901 0.89541 0.59338 0.0
H423 H 0.66524 0.87479 0.65038 0.0
O424 O 0.68639 0.84244 0.65767 0.0
H425 H 0.6331 0.85967 0.57694 0.0
H426 H 0.64982 0.78645 0.62464 0.0
H427 H 0.71373 0.81752 0.59571 0.0
H428 H 0.66741 0.84595 0.58621 0.0
H429 H 0.65997 0.82148 0.63605 0.0
O430 O 0.71378 0.91632 0.62243 0.0
H431 H 0.76614 0.87859 0.60279 0.0
H432 H 0.74755 0.93101 0.64024 0.0
H433 H 0.70412 0.78251 0.58374 0.0
H434 H 0.63081 0.88865 0.64191 0.0
H435 H 0.67195 0.76676 0.59824 0.0
H436 H 0.61453 0.88112 0.60495 0.0
O437 O 0.72328 0.83755 0.63263 0.0
H438 H 0.7034 0.92085 0.70131 0.0
H439 H 0.76208 0.88733 0.66381 0.0
H440 H 0.76502 0.89743 0.70373 0.0
H441 H 0.73559 0.91451 0.72268 0.0
H442 H 0.70088 0.90985 0.66163 0.0
H443 H 0.78019 0.94842 0.63116 0.0
H444 H 0.80619 0.93059 0.60758 0.0
O445 O 0.74466 0.86451 0.63524 0.0
C446 C 0.71681 0.86844 0.58539 0.0
C447 C 0.78781 0.90333 0.60369 0.0
C448 C 0.77725 0.93308 0.62489 0.0
N449 N 0.75495 0.90378 0.62207 0.0
C450 C 0.76918 0.89387 0.60909 0.0
C451 C 0.7588 0.92314 0.62997 0.0
C452 C 0.79183 0.92307 0.61165 0.0
C453 C 0.6582 0.87134 0.63432 0.0
N454 N 0.66827 0.8595 0.61885 0.0
C455 C 0.63873 0.87928 0.62959 0.0
C456 C 0.62961 0.87506 0.60884 0.0
C457 C 0.64002 0.86304 0.59311 0.0
C458 C 0.65947 0.85537 0.59843 0.0
C459 C 0.66386 0.79317 0.61817 0.0
C460 C 0.69964 0.81081 0.60196 0.0
C461 C 0.66969 0.81297 0.62461 0.0
N462 N 0.68734 0.82157 0.61642 0.0
C463 C 0.69431 0.79096 0.59519 0.0
C464 C 0.67627 0.78213 0.60335 0.0
C465 C 0.74107 0.84527 0.63574 0.0
C466 C 0.71636 0.9135 0.69321 0.0
C467 C 0.7491 0.89444 0.67202 0.0
C468 C 0.7509 0.90027 0.6946 0.0
C469 C 0.73441 0.90989 0.70521 0.0
N470 N 0.73136 0.89805 0.66035 0.0
C471 C 0.71504 0.90729 0.67072 0.0
Co472 Co 0.85652 0.69459 0.6323 0.0
Co473 Co 0.89379 0.73156 0.62113 0.0
O474 O 0.88437 0.70619 0.63582 0.0
C475 C 0.86048 0.70206 0.68144 0.0
O476 O 0.86948 0.71946 0.67617 0.0
C477 C 0.92968 0.7018 0.6146 0.0
O478 O 0.92044 0.68628 0.62443 0.0
O479 O 0.88266 0.72218 0.59154 0.0
O480 O 0.85794 0.69897 0.59886 0.0
H481 H 0.88508 0.79305 0.57082 0.0
H482 H 0.8877 0.67085 0.65776 0.0
O483 O 0.85439 0.68996 0.66589 0.0
H484 H 0.8685 0.62687 0.59343 0.0
H485 H 0.79984 0.64405 0.64865 0.0
H486 H 0.81989 0.70541 0.60508 0.0
H487 H 0.85232 0.66081 0.59862 0.0
H488 H 0.83462 0.65874 0.65246 0.0
O489 O 0.92087 0.71918 0.61266 0.0
H490 H 0.87401 0.76153 0.59048 0.0
H491 H 0.93326 0.75517 0.61972 0.0
H492 H 0.78501 0.69113 0.60062 0.0
H493 H 0.90408 0.63691 0.65338 0.0
H494 H 0.77479 0.66023 0.62252 0.0
H495 H 0.89453 0.61469 0.62098 0.0
O496 O 0.84309 0.72196 0.63631 0.0
H497 H 0.9313 0.72264 0.69475 0.0
H498 H 0.8935 0.7712 0.64635 0.0
H499 H 0.90646 0.78282 0.68323 0.0
H500 H 0.92559 0.75847 0.7077 0.0
H501 H 0.9178 0.71162 0.65798 0.0
H502 H 0.94501 0.7865 0.60022 0.0
H503 H 0.92082 0.80572 0.57563 0.0
O504 O 0.86746 0.74536 0.6288 0.0
C505 C 0.86872 0.70966 0.58518 0.0
C506 C 0.89574 0.78486 0.58156 0.0
C507 C 0.92938 0.78116 0.59803 0.0
N508 N 0.90289 0.75662 0.6064 0.0
C509 C 0.88953 0.76705 0.5928 0.0
C510 C 0.92264 0.7634 0.60899 0.0
C511 C 0.9158 0.79194 0.58424 0.0
C512 C 0.88334 0.6612 0.64373 0.0
N513 N 0.86906 0.66779 0.62849 0.0
C514 C 0.89273 0.64202 0.64129 0.0
C515 C 0.88739 0.62958 0.62309 0.0
C516 C 0.8728 0.63642 0.60761 0.0
C517 C 0.86375 0.65569 0.61058 0.0
C518 C 0.80413 0.65749 0.63898 0.0
C519 C 0.8156 0.69188 0.61454 0.0
C520 C 0.82378 0.6659 0.6411 0.0
N521 N 0.82931 0.68283 0.62888 0.0
C522 C 0.79581 0.6839 0.612 0.0
C523 C 0.79008 0.66658 0.62431 0.0
C524 C 0.84921 0.74046 0.63434 0.0
C525 C 0.92307 0.73343 0.6842 0.0
C526 C 0.90168 0.76047 0.65693 0.0
C527 C 0.90907 0.76716 0.67777 0.0
C528 C 0.91982 0.75351 0.69148 0.0
N529 N 0.90494 0.74075 0.64984 0.0
C530 C 0.91548 0.72729 0.66323 0.0
Co531 Co 0.31443 0.84983 0.62301 0.0
Co532 Co 0.27177 0.87972 0.6343 0.0
O533 O 0.30037 0.87201 0.63887 0.0
C534 C 0.31708 0.83949 0.67135 0.0
O535 O 0.29761 0.84458 0.67234 0.0
C536 C 0.29382 0.91852 0.62406 0.0
O537 O 0.30452 0.90838 0.60899 0.0
O538 O 0.27552 0.87983 0.60104 0.0
O539 O 0.30221 0.85892 0.59344 0.0
H540 H 0.20187 0.8753 0.59865 0.0
H541 H 0.33806 0.87808 0.65245 0.0
O542 O 0.32665 0.84036 0.65256 0.0
H543 H 0.36824 0.88593 0.57669 0.0
H544 H 0.37473 0.80371 0.60698 0.0
H545 H 0.30314 0.82049 0.58685 0.0
H546 H 0.33974 0.86166 0.58319 0.0
H547 H 0.35637 0.8318 0.62636 0.0
O548 O 0.28009 0.90944 0.63575 0.0
H549 H 0.23802 0.86531 0.60466 0.0
H550 H 0.24482 0.91207 0.65403 0.0
H551 H 0.32097 0.79243 0.56687 0.0
H552 H 0.36666 0.90243 0.64673 0.0
H553 H 0.35703 0.78388 0.57693 0.0
H554 H 0.38191 0.9065 0.60861 0.0
O555 O 0.29103 0.83067 0.62773 0.0
H556 H 0.29133 0.89595 0.71429 0.0
H557 H 0.24078 0.86128 0.6654 0.0
H558 H 0.23674 0.85955 0.70669 0.0
H559 H 0.26218 0.87692 0.73144 0.0
H560 H 0.29489 0.89717 0.67292 0.0
H561 H 0.2088 0.92274 0.64837 0.0
H562 H 0.18704 0.90422 0.6206 0.0
O563 O 0.263 0.85024 0.63285 0.0
C564 C 0.28752 0.87072 0.58724 0.0
C565 C 0.21118 0.88345 0.61085 0.0
C566 C 0.21507 0.91009 0.63874 0.0
N567 N 0.24344 0.88797 0.62983 0.0
C568 C 0.23163 0.87782 0.61438 0.0
C569 C 0.23546 0.90401 0.64184 0.0
C570 C 0.20287 0.89969 0.62316 0.0
C571 C 0.34475 0.87964 0.63586 0.0
N572 N 0.33734 0.86837 0.61822 0.0
C573 C 0.36088 0.89351 0.63271 0.0
C574 C 0.36941 0.8958 0.6113 0.0
C575 C 0.36175 0.88427 0.59338 0.0
C576 C 0.34558 0.87058 0.59716 0.0
C577 C 0.35903 0.80732 0.60242 0.0
C578 C 0.31888 0.81694 0.5912 0.0
C579 C 0.34856 0.82316 0.61337 0.0
N580 N 0.32878 0.82786 0.6076 0.0
C581 C 0.32887 0.801 0.57989 0.0
C582 C 0.34909 0.7962 0.58555 0.0
C583 C 0.27174 0.8328 0.63066 0.0
C584 C 0.28011 0.88839 0.70368 0.0
C585 C 0.25189 0.86891 0.67605 0.0
C586 C 0.24951 0.8679 0.69942 0.0
C587 C 0.26377 0.87767 0.71329 0.0
N588 N 0.268 0.8794 0.66675 0.0
C589 C 0.28199 0.88911 0.68024 0.0
Co590 Co 0.15227 0.30341 0.62993 0.0
Co591 Co 0.11141 0.27025 0.62336 0.0
O592 O 0.12479 0.29364 0.63822 0.0
C593 C 0.15471 0.30017 0.6805 0.0
O594 O 0.1427 0.28397 0.68049 0.0
C595 C 0.07126 0.28814 0.61024 0.0
O596 O 0.07592 0.28381 0.58923 0.0
O597 O 0.11623 0.28263 0.59305 0.0
O598 O 0.14668 0.29818 0.59735 0.0
H599 H 0.1042 0.21525 0.56445 0.0
H600 H 0.12503 0.3294 0.6579 0.0
O601 O 0.15915 0.30934 0.66218 0.0
H602 H 0.14048 0.371 0.59051 0.0
H603 H 0.2135 0.35065 0.63433 0.0
H604 H 0.18455 0.28862 0.59868 0.0
H605 H 0.15527 0.33637 0.59495 0.0
H606 H 0.17865 0.33873 0.64409 0.0
O607 O 0.0843 0.28484 0.6259 0.0
H608 H 0.12111 0.24421 0.58379 0.0
H609 H 0.07258 0.2468 0.63159 0.0
H610 H 0.21942 0.30008 0.58832 0.0
H611 H 0.11008 0.36408 0.65428 0.0
H612 H 0.23412 0.33132 0.60621 0.0
H613 H 0.11776 0.38512 0.62037 0.0
O614 O 0.16379 0.27522 0.63337 0.0
H615 H 0.08896 0.27064 0.70443 0.0
H616 H 0.11898 0.22882 0.64346 0.0
H617 H 0.11398 0.21346 0.68104 0.0
H618 H 0.09879 0.23438 0.71183 0.0
H619 H 0.09454 0.28551 0.66669 0.0
H620 H 0.05515 0.21785 0.61276 0.0
H621 H 0.07097 0.20188 0.57893 0.0
O622 O 0.13807 0.25523 0.62091 0.0
C623 C 0.13201 0.29162 0.58506 0.0
C624 C 0.09717 0.22206 0.5792 0.0
C625 C 0.06963 0.22352 0.6063 0.0
N626 N 0.09787 0.24717 0.60883 0.0
C627 C 0.10668 0.23846 0.59023 0.0
C628 C 0.07958 0.2399 0.6169 0.0
C629 C 0.07852 0.21457 0.58732 0.0
C630 C 0.12852 0.33851 0.64314 0.0
N631 N 0.14102 0.33087 0.62666 0.0
C632 C 0.11997 0.35811 0.64117 0.0
C633 C 0.12427 0.3699 0.62212 0.0
C634 C 0.137 0.36198 0.60536 0.0
C635 C 0.14526 0.34232 0.60791 0.0
C636 C 0.20725 0.33705 0.62639 0.0
C637 C 0.19079 0.30229 0.60644 0.0
C638 C 0.18754 0.33019 0.63188 0.0
N639 N 0.17951 0.31307 0.62185 0.0
C640 C 0.21057 0.30868 0.60055 0.0
C641 C 0.21881 0.32619 0.6106 0.0
C642 C 0.15671 0.25791 0.62691 0.0
C643 C 0.09554 0.26134 0.69114 0.0
C644 C 0.11252 0.2381 0.6568 0.0
C645 C 0.10964 0.22927 0.67803 0.0
C646 C 0.10109 0.24101 0.69529 0.0
N647 N 0.10701 0.25805 0.65284 0.0
C648 C 0.09864 0.26965 0.66969 0.0
Co649 Co 0.68225 0.14821 0.63088 0.0
Co650 Co 0.72545 0.11862 0.62194 0.0
O651 O 0.69957 0.12449 0.637 0.0
C652 C 0.69063 0.15396 0.67975 0.0
O653 O 0.71022 0.15567 0.67493 0.0
C654 C 0.71716 0.07722 0.60356 0.0
O655 O 0.72379 0.08418 0.58409 0.0
O656 O 0.71266 0.12325 0.5919 0.0
O657 O 0.6867 0.14541 0.59766 0.0
H658 H 0.78183 0.13034 0.56552 0.0
H659 H 0.6666 0.11378 0.65886 0.0
O660 O 0.67738 0.15106 0.66424 0.0
H661 H 0.61847 0.11916 0.59492 0.0
H662 H 0.62048 0.19329 0.64354 0.0
H663 H 0.68459 0.18423 0.60035 0.0
H664 H 0.64791 0.14286 0.59812 0.0
H665 H 0.64262 0.16309 0.65004 0.0
O666 O 0.71694 0.08896 0.62078 0.0
H667 H 0.74918 0.1379 0.58494 0.0
H668 H 0.75705 0.08562 0.62691 0.0
H669 H 0.66284 0.21457 0.59318 0.0
H670 H 0.63726 0.08988 0.65641 0.0
H671 H 0.63052 0.21924 0.61487 0.0
H672 H 0.61296 0.09247 0.62425 0.0
O673 O 0.70626 0.1672 0.63253 0.0
H674 H 0.72839 0.09027 0.70068 0.0
H675 H 0.76373 0.13344 0.64442 0.0
H676 H 0.77898 0.12912 0.68216 0.0
H677 H 0.76131 0.10736 0.71058 0.0
H678 H 0.71358 0.09514 0.66279 0.0
H679 H 0.78979 0.07745 0.60793 0.0
H680 H 0.80237 0.09992 0.577 0.0
O681 O 0.73375 0.14813 0.62302 0.0
C682 C 0.69829 0.13486 0.58471 0.0
C683 C 0.77653 0.12045 0.579 0.0
C684 C 0.78099 0.09077 0.6028 0.0
N685 N 0.75128 0.11227 0.60709 0.0
C686 C 0.75807 0.12467 0.59007 0.0
C687 C 0.76246 0.09547 0.61349 0.0
C688 C 0.78804 0.10338 0.58544 0.0
C689 C 0.65601 0.1151 0.6449 0.0
N690 N 0.65888 0.12979 0.62875 0.0
C691 C 0.63946 0.10148 0.64357 0.0
C692 C 0.62585 0.10293 0.6255 0.0
C693 C 0.62894 0.11789 0.60903 0.0
C694 C 0.64566 0.13124 0.61091 0.0
C695 C 0.63451 0.1914 0.63395 0.0
C696 C 0.67049 0.18609 0.60975 0.0
C697 C 0.64712 0.17436 0.63759 0.0
N698 N 0.66479 0.17183 0.62546 0.0
C699 C 0.65826 0.20333 0.60567 0.0
C700 C 0.64015 0.20596 0.61786 0.0
C701 C 0.72534 0.16528 0.62791 0.0
C702 C 0.73628 0.09972 0.68841 0.0
C703 C 0.75591 0.12399 0.6567 0.0
C704 C 0.76465 0.12156 0.67803 0.0
C705 C 0.75473 0.10934 0.69397 0.0
N706 N 0.73785 0.11443 0.65134 0.0
C707 C 0.72801 0.10247 0.6669 0.0
Co708 Co 0.84568 0.31014 0.37674 0.0
Co709 Co 0.88778 0.27786 0.38092 0.0
O710 O 0.87307 0.30102 0.36707 0.0
C711 C 0.84001 0.30511 0.32692 0.0
O712 O 0.85175 0.28871 0.32675 0.0
C713 C 0.92774 0.2963 0.39371 0.0
O714 O 0.92333 0.29145 0.41465 0.0
O715 O 0.8832 0.28932 0.41175 0.0
O716 O 0.85313 0.30594 0.40889 0.0
H717 H 0.89823 0.22176 0.43799 0.0
H718 H 0.87119 0.33586 0.34661 0.0
O719 O 0.83702 0.31513 0.345 0.0
H720 H 0.85685 0.37944 0.41275 0.0
H721 H 0.78282 0.35534 0.37483 0.0
H722 H 0.81558 0.29522 0.41044 0.0
H723 H 0.84272 0.34437 0.41026 0.0
H724 H 0.81747 0.34427 0.36323 0.0
O725 O 0.91444 0.2934 0.37819 0.0
H726 H 0.87994 0.2506 0.41999 0.0
H727 H 0.92711 0.25586 0.37084 0.0
H728 H 0.78097 0.30586 0.42268 0.0
H729 H 0.88543 0.37097 0.3482 0.0
H730 H 0.76435 0.33613 0.40482 0.0
H731 H 0.87834 0.39299 0.38149 0.0
O732 O 0.83468 0.28152 0.37474 0.0
H733 H 0.9077 0.28151 0.29919 0.0
H734 H 0.88149 0.23666 0.35971 0.0
H735 H 0.88597 0.22261 0.32145 0.0
H736 H 0.89923 0.24508 0.29087 0.0
H737 H 0.90273 0.29501 0.33765 0.0
H738 H 0.94592 0.22708 0.38831 0.0
H739 H 0.93148 0.20982 0.42214 0.0
O740 O 0.86182 0.26184 0.38354 0.0
C741 C 0.86809 0.29895 0.4204 0.0
C742 C 0.90467 0.22914 0.42324 0.0
C743 C 0.93144 0.23213 0.39536 0.0
N744 N 0.90243 0.25491 0.39438 0.0
C745 C 0.89438 0.24548 0.41297 0.0
C746 C 0.92072 0.24842 0.38554 0.0
C747 C 0.92333 0.22245 0.41434 0.0
C748 C 0.86801 0.34537 0.36114 0.0
N749 N 0.85628 0.33799 0.37844 0.0
C750 C 0.87613 0.36523 0.36195 0.0
C751 C 0.87216 0.37757 0.38064 0.0
C752 C 0.86013 0.36996 0.39819 0.0
C753 C 0.85229 0.35003 0.39679 0.0
C754 C 0.78991 0.34215 0.38277 0.0
C755 C 0.80851 0.30848 0.40269 0.0
C756 C 0.80951 0.33578 0.37624 0.0
N757 N 0.81861 0.31918 0.38625 0.0
C758 C 0.78888 0.3144 0.40964 0.0
C759 C 0.77956 0.33137 0.3996 0.0
C760 C 0.84274 0.26417 0.37943 0.0
C761 C 0.90197 0.27155 0.31239 0.0
C762 C 0.88714 0.24658 0.34649 0.0
C763 C 0.88972 0.23851 0.32486 0.0
C764 C 0.89718 0.25112 0.30772 0.0
N765 N 0.89192 0.26663 0.35095 0.0
C766 C 0.89921 0.27908 0.33422 0.0
Co767 Co 0.69306 0.85076 0.37913 0.0
Co768 Co 0.72639 0.89239 0.37576 0.0
O769 O 0.70039 0.87867 0.36892 0.0
C770 C 0.69381 0.84899 0.32967 0.0
O771 O 0.7111 0.85921 0.33135 0.0
C772 C 0.69361 0.92502 0.38404 0.0
O773 O 0.67839 0.9131 0.37782 0.0
O774 O 0.72399 0.88427 0.40783 0.0
O775 O 0.70205 0.85761 0.41074 0.0
H776 H 0.79662 0.89685 0.41067 0.0
H777 H 0.6622 0.87516 0.35375 0.0
O778 O 0.68416 0.84361 0.34743 0.0
H779 H 0.63081 0.86183 0.42799 0.0
H780 H 0.64808 0.78787 0.38144 0.0
H781 H 0.7118 0.81988 0.40961 0.0
H782 H 0.66533 0.84851 0.41902 0.0
H783 H 0.65785 0.82284 0.36945 0.0
O784 O 0.71219 0.91887 0.3835 0.0
H785 H 0.76374 0.88016 0.40108 0.0
H786 H 0.74436 0.9337 0.36606 0.0
H787 H 0.70256 0.78493 0.42215 0.0
H788 H 0.62753 0.88851 0.36189 0.0
H789 H 0.67049 0.7687 0.40803 0.0
H790 H 0.61164 0.88193 0.39927 0.0
O791 O 0.72104 0.83953 0.37249 0.0
H792 H 0.70103 0.92048 0.30158 0.0
H793 H 0.7601 0.89062 0.34194 0.0
H794 H 0.76373 0.90008 0.30193 0.0
H795 H 0.73409 0.91527 0.2815 0.0
H796 H 0.69794 0.91037 0.34134 0.0
H797 H 0.77696 0.95104 0.37546 0.0
H798 H 0.8034 0.93255 0.39783 0.0
O799 O 0.74182 0.8668 0.36918 0.0
C800 C 0.71434 0.87081 0.41935 0.0
C801 C 0.78525 0.90504 0.40084 0.0
C802 C 0.7742 0.93546 0.38111 0.0
N803 N 0.75221 0.90587 0.38287 0.0
C804 C 0.76663 0.89565 0.3953 0.0
C805 C 0.75575 0.92558 0.37589 0.0
C806 C 0.78903 0.92508 0.39366 0.0
C807 C 0.65532 0.87206 0.36998 0.0
N808 N 0.66577 0.86105 0.38588 0.0
C809 C 0.63571 0.87974 0.37452 0.0
C810 C 0.62682 0.87607 0.39551 0.0
C811 C 0.63758 0.86482 0.41164 0.0
C812 C 0.65716 0.85739 0.4065 0.0
C813 C 0.66207 0.79479 0.38774 0.0
C814 C 0.69775 0.81297 0.40352 0.0
C815 C 0.6677 0.81457 0.38098 0.0
N816 N 0.68529 0.82343 0.38896 0.0
C817 C 0.69263 0.79315 0.41062 0.0
C818 C 0.67465 0.78405 0.40267 0.0
C819 C 0.73866 0.84752 0.36912 0.0
C820 C 0.71412 0.91407 0.31036 0.0
C821 C 0.7471 0.89719 0.33321 0.0
C822 C 0.74927 0.90255 0.31053 0.0
C823 C 0.73265 0.91108 0.29908 0.0
N824 N 0.72893 0.90034 0.34426 0.0
C825 C 0.7125 0.90846 0.33302 0.0
Co826 Co 0.14576 0.6983 0.37156 0.0
Co827 Co 0.10522 0.73153 0.38139 0.0
O828 O 0.11794 0.70846 0.36559 0.0
C829 C 0.14614 0.70879 0.32337 0.0
O830 O 0.13689 0.72597 0.32894 0.0
C831 C 0.07395 0.69858 0.38946 0.0
O832 O 0.08837 0.68633 0.39716 0.0
O833 O 0.11298 0.71982 0.41126 0.0
O834 O 0.14109 0.7006 0.40464 0.0
H835 H 0.10189 0.78777 0.43926 0.0
H836 H 0.11735 0.67499 0.34205 0.0
O837 O 0.15091 0.69574 0.33846 0.0
H838 H 0.13504 0.62752 0.40388 0.0
H839 H 0.20673 0.65226 0.35825 0.0
H840 H 0.17904 0.70957 0.40335 0.0
H841 H 0.15002 0.66231 0.4024 0.0
H842 H 0.17157 0.66507 0.35163 0.0
O843 O 0.07843 0.71651 0.38241 0.0
H844 H 0.118 0.75913 0.41856 0.0
H845 H 0.06457 0.75259 0.37807 0.0
H846 H 0.21423 0.69715 0.41065 0.0
H847 H 0.10215 0.64026 0.34271 0.0
H848 H 0.22829 0.66829 0.388 0.0
H849 H 0.11094 0.61628 0.37384 0.0
O850 O 0.15757 0.72664 0.37094 0.0
H851 H 0.0769 0.72822 0.3027 0.0
H852 H 0.10822 0.77308 0.36016 0.0
H853 H 0.09963 0.78737 0.32284 0.0
H854 H 0.08383 0.76486 0.2938 0.0
H855 H 0.08596 0.71453 0.34018 0.0
H856 H 0.04782 0.78104 0.39844 0.0
H857 H 0.06654 0.7989 0.42923 0.0
O858 O 0.13141 0.74736 0.38046 0.0
C859 C 0.12789 0.7086 0.41791 0.0
C860 C 0.0936 0.78017 0.42582 0.0
C861 C 0.06324 0.77637 0.40294 0.0
N862 N 0.0923 0.7543 0.39702 0.0
C863 C 0.10267 0.76398 0.414 0.0
C864 C 0.07279 0.76024 0.39149 0.0
C865 C 0.07376 0.78639 0.4202 0.0
C866 C 0.12133 0.6646 0.35558 0.0
N867 N 0.13454 0.67068 0.3722 0.0
C868 C 0.11264 0.64497 0.35589 0.0
C869 C 0.11756 0.63154 0.37338 0.0
C870 C 0.13107 0.63784 0.39025 0.0
C871 C 0.13944 0.65758 0.38939 0.0
C872 C 0.20076 0.66482 0.36826 0.0
C873 C 0.18501 0.69691 0.39354 0.0
C874 C 0.18088 0.67216 0.36456 0.0
N875 N 0.17322 0.68795 0.37721 0.0
C876 C 0.20496 0.68999 0.3977 0.0
C877 C 0.21285 0.67381 0.38496 0.0
C878 C 0.15026 0.7443 0.37568 0.0
C879 C 0.08377 0.73818 0.31522 0.0
C880 C 0.1015 0.76317 0.34758 0.0
C881 C 0.09658 0.77136 0.3265 0.0
C882 C 0.08768 0.75874 0.31022 0.0
N883 N 0.09767 0.74299 0.35233 0.0
C884 C 0.08887 0.73054 0.33649 0.0
Co885 Co 0.31422 0.14496 0.37571 0.0
Co886 Co 0.27219 0.11425 0.38762 0.0
O887 O 0.29753 0.12036 0.37132 0.0
C888 C 0.30319 0.14506 0.32743 0.0
O889 O 0.28469 0.13967 0.33394 0.0
C890 C 0.29923 0.07873 0.397 0.0
O891 O 0.31342 0.09212 0.40265 0.0
O892 O 0.28524 0.12102 0.41708 0.0
O893 O 0.31128 0.14264 0.40934 0.0
H894 H 0.21607 0.12715 0.44402 0.0
H895 H 0.33004 0.1109 0.34749 0.0
O896 O 0.31733 0.1479 0.34201 0.0
H897 H 0.38013 0.11848 0.40932 0.0
H898 H 0.37353 0.19216 0.35882 0.0
H899 H 0.31165 0.18151 0.40537 0.0
H900 H 0.34998 0.14135 0.40691 0.0
H901 H 0.35242 0.16094 0.35425 0.0
O902 O 0.2815 0.08491 0.39082 0.0
H903 H 0.2478 0.13518 0.42302 0.0
H904 H 0.24305 0.07891 0.38715 0.0
H905 H 0.33241 0.21288 0.41065 0.0
H906 H 0.36005 0.08778 0.34917 0.0
H907 H 0.3636 0.21835 0.38725 0.0
H908 H 0.38531 0.09147 0.3803 0.0
O909 O 0.28959 0.16286 0.37443 0.0
H910 H 0.26831 0.0804 0.31161 0.0
H911 H 0.23278 0.12596 0.36537 0.0
H912 H 0.21667 0.11837 0.32868 0.0
H913 H 0.23446 0.09542 0.30151 0.0
H914 H 0.28398 0.08857 0.34838 0.0
H915 H 0.21136 0.07018 0.40788 0.0
H916 H 0.19763 0.09443 0.43648 0.0
O917 O 0.2625 0.14348 0.38451 0.0
C918 C 0.29993 0.13275 0.42321 0.0
C919 C 0.22186 0.11649 0.43154 0.0
C920 C 0.21923 0.0845 0.41128 0.0
N921 N 0.24715 0.10762 0.40375 0.0
C922 C 0.23978 0.12098 0.41955 0.0
C923 C 0.2372 0.08951 0.39962 0.0
C924 C 0.21153 0.09812 0.42732 0.0
C925 C 0.34108 0.11272 0.36096 0.0
N926 N 0.33834 0.12753 0.37699 0.0
C927 C 0.35799 0.09953 0.36187 0.0
C928 C 0.37214 0.10159 0.37936 0.0
C929 C 0.36924 0.11674 0.39566 0.0
C930 C 0.35213 0.12963 0.39422 0.0
C931 C 0.36001 0.18992 0.36915 0.0
C932 C 0.32529 0.18373 0.39526 0.0
C933 C 0.34798 0.1723 0.36661 0.0
N934 N 0.33094 0.16934 0.37968 0.0
C935 C 0.33695 0.20154 0.39826 0.0
C936 C 0.35443 0.20461 0.38511 0.0
C937 C 0.27054 0.16065 0.37883 0.0
C938 C 0.26039 0.09037 0.32333 0.0
C939 C 0.24065 0.11601 0.35362 0.0
C940 C 0.23143 0.11173 0.33288 0.0
C941 C 0.24141 0.09883 0.31766 0.0
N942 N 0.25927 0.10766 0.35905 0.0
C943 C 0.26914 0.09498 0.34422 0.0
Co944 Co 0.64325 0.8137 0.87591 0.0
Co945 Co 0.61371 0.76977 0.88026 0.0
O946 O 0.61939 0.7971 0.86803 0.0
C947 C 0.64587 0.81147 0.82589 0.0
O948 O 0.64215 0.79168 0.82725 0.0
C949 C 0.57762 0.79449 0.89239 0.0
O950 O 0.59089 0.80817 0.89963 0.0
O951 O 0.61926 0.77891 0.91179 0.0
O952 O 0.64111 0.8054 0.9082 0.0
H953 H 0.62746 0.70712 0.92741 0.0
H954 H 0.6089 0.83273 0.85067 0.0
O955 O 0.64625 0.82246 0.84368 0.0
H956 H 0.61401 0.87202 0.92152 0.0
H957 H 0.688 0.87674 0.87206 0.0
H958 H 0.6801 0.8074 0.90449 0.0
H959 H 0.63807 0.84365 0.91358 0.0
H960 H 0.65762 0.85561 0.86301 0.0
O961 O 0.58401 0.77762 0.884 0.0
H962 H 0.63476 0.74158 0.91205 0.0
H963 H 0.57945 0.73993 0.87409 0.0
H964 H 0.71065 0.82806 0.91414 0.0
H965 H 0.58461 0.86109 0.85785 0.0
H966 H 0.71474 0.863 0.89787 0.0
H967 H 0.58704 0.8809 0.89353 0.0
O968 O 0.662 0.79022 0.87024 0.0
H969 H 0.58234 0.77487 0.80306 0.0
H970 H 0.6275 0.7341 0.85261 0.0
H971 H 0.62166 0.72276 0.81347 0.0
H972 H 0.59891 0.7432 0.7884 0.0
H973 H 0.58875 0.78575 0.84226 0.0
H974 H 0.57142 0.70553 0.88923 0.0
H975 H 0.59557 0.68887 0.91602 0.0
O976 O 0.64332 0.76174 0.87686 0.0
C977 C 0.63122 0.79243 0.92013 0.0
C978 C 0.61684 0.71419 0.9157 0.0
C979 C 0.58537 0.71331 0.8943 0.0
N980 N 0.60762 0.74267 0.89206 0.0
C981 C 0.62093 0.73367 0.9069 0.0
C982 C 0.58997 0.7328 0.88582 0.0
C983 C 0.59894 0.70397 0.90932 0.0
C984 C 0.61018 0.84144 0.86612 0.0
N985 N 0.62494 0.83662 0.88162 0.0
C986 C 0.59633 0.85741 0.87014 0.0
C987 C 0.59769 0.8685 0.89018 0.0
C988 C 0.61281 0.86352 0.9059 0.0
C989 C 0.62636 0.84741 0.90133 0.0
C990 C 0.68637 0.86156 0.8793 0.0
C991 C 0.68171 0.82265 0.89747 0.0
C992 C 0.66922 0.84951 0.87421 0.0
N993 N 0.66701 0.83037 0.88338 0.0
C994 C 0.69907 0.83425 0.90293 0.0
C995 C 0.70136 0.85384 0.89378 0.0
C996 C 0.66029 0.7708 0.87245 0.0
C997 C 0.59224 0.76581 0.81383 0.0
C998 C 0.61762 0.7431 0.8418 0.0
C999 C 0.61434 0.73658 0.81966 0.0
C1000 C 0.60156 0.74805 0.80561 0.0
N1001 N 0.6084 0.76052 0.84973 0.0
C1002 C 0.59586 0.77185 0.83607 0.0
Co1003 Co 0.19562 0.64506 0.87229 0.0
Co1004 Co 0.23949 0.61647 0.88223 0.0
O1005 O 0.21444 0.62258 0.86539 0.0
C1006 C 0.20809 0.65223 0.82537 0.0
O1007 O 0.22694 0.64832 0.83194 0.0
C1008 C 0.2299 0.57304 0.89449 0.0
O1009 O 0.23123 0.57805 0.91588 0.0
O1010 O 0.22436 0.61798 0.91135 0.0
O1011 O 0.19757 0.63901 0.90512 0.0
H1012 H 0.29086 0.62537 0.94467 0.0
H1013 H 0.18375 0.61332 0.83893 0.0
O1014 O 0.19333 0.65161 0.83943 0.0
H1015 H 0.13033 0.61061 0.89782 0.0
H1016 H 0.13334 0.68933 0.85903 0.0
H1017 H 0.19416 0.67778 0.907 0.0
H1018 H 0.15889 0.63541 0.9005 0.0
H1019 H 0.15702 0.6606 0.85122 0.0
O1020 O 0.2326 0.58656 0.87921 0.0
H1021 H 0.25968 0.63363 0.92282 0.0
H1022 H 0.27232 0.58473 0.87751 0.0
H1023 H 0.17077 0.70658 0.91556 0.0
H1024 H 0.15535 0.58839 0.83545 0.0
H1025 H 0.14011 0.7125 0.89147 0.0
H1026 H 0.1284 0.58692 0.86506 0.0
O1027 O 0.21879 0.66481 0.87477 0.0
H1028 H 0.24992 0.59527 0.80154 0.0
H1029 H 0.27881 0.63436 0.8653 0.0
H1030 H 0.29719 0.63391 0.82898 0.0
H1031 H 0.28277 0.61423 0.79678 0.0
H1032 H 0.2319 0.59633 0.83808 0.0
H1033 H 0.30361 0.57588 0.8989 0.0
H1034 H 0.31307 0.5963 0.93272 0.0
O1035 O 0.24653 0.64633 0.88475 0.0
C1036 C 0.20873 0.62806 0.91809 0.0
C1037 C 0.28693 0.61639 0.92993 0.0
C1038 C 0.29408 0.5886 0.90425 0.0
N1039 N 0.26427 0.60975 0.89885 0.0
C1040 C 0.26932 0.62102 0.91747 0.0
C1041 C 0.27634 0.59367 0.89222 0.0
C1042 C 0.29938 0.60007 0.92323 0.0
C1043 C 0.17202 0.61284 0.85181 0.0
N1044 N 0.17294 0.62584 0.86986 0.0
C1045 C 0.156 0.59866 0.84978 0.0
C1046 C 0.1409 0.59783 0.86641 0.0
C1047 C 0.14198 0.6111 0.8848 0.0
C1048 C 0.15823 0.62507 0.88628 0.0
C1049 C 0.14662 0.68688 0.86969 0.0
C1050 C 0.18076 0.68018 0.89655 0.0
C1051 C 0.1601 0.67067 0.86532 0.0
N1052 N 0.17685 0.66743 0.87877 0.0
C1053 C 0.16761 0.69654 0.90143 0.0
C1054 C 0.15043 0.69987 0.88789 0.0
C1055 C 0.23762 0.66339 0.88051 0.0
C1056 C 0.2564 0.60384 0.81547 0.0
C1057 C 0.27239 0.62581 0.85137 0.0
C1058 C 0.2829 0.62557 0.83085 0.0
C1059 C 0.27481 0.61451 0.8128 0.0
N1060 N 0.25433 0.61531 0.85387 0.0
C1061 C 0.24632 0.60441 0.83624 0.0
Co1062 Co 0.35958 0.18521 0.88515 0.0
Co1063 Co 0.38983 0.22839 0.87698 0.0
O1064 O 0.3819 0.20008 0.87029 0.0
C1065 C 0.3488 0.1853 0.83668 0.0
O1066 O 0.35486 0.20452 0.83643 0.0
C1067 C 0.42714 0.20407 0.88559 0.0
O1068 O 0.41502 0.19098 0.89591 0.0
O1069 O 0.38895 0.22307 0.90999 0.0
O1070 O 0.3687 0.1955 0.91552 0.0
H1071 H 0.38439 0.29646 0.91647 0.0
H1072 H 0.38728 0.16305 0.85384 0.0
O1073 O 0.34975 0.1749 0.85492 0.0
H1074 H 0.39544 0.12844 0.92726 0.0
H1075 H 0.31294 0.12446 0.89704 0.0
H1076 H 0.3303 0.19462 0.92204 0.0
H1077 H 0.37136 0.15746 0.923 0.0
H1078 H 0.34118 0.14366 0.87894 0.0
O1079 O 0.41961 0.22018 0.87659 0.0
H1080 H 0.37445 0.26073 0.90787 0.0
H1081 H 0.42298 0.2561 0.86027 0.0
H1082 H 0.3021 0.17589 0.94077 0.0
H1083 H 0.41142 0.13398 0.85731 0.0
H1084 H 0.29326 0.14055 0.92826 0.0
H1085 H 0.41566 0.11653 0.89425 0.0
O1086 O 0.3407 0.20901 0.88222 0.0
H1087 H 0.40867 0.21269 0.79669 0.0
H1088 H 0.37258 0.26096 0.84707 0.0
H1089 H 0.37229 0.26704 0.80603 0.0
H1090 H 0.39039 0.24278 0.78054 0.0
H1091 H 0.40847 0.20711 0.83783 0.0
H1092 H 0.43362 0.2917 0.86857 0.0
H1093 H 0.41419 0.31216 0.89676 0.0
O1094 O 0.36038 0.2371 0.87776 0.0
C1095 C 0.37995 0.21017 0.92285 0.0
C1096 C 0.39294 0.28772 0.9041 0.0
C1097 C 0.42058 0.28504 0.87723 0.0
N1098 N 0.39801 0.25642 0.88345 0.0
C1099 C 0.38734 0.26751 0.89911 0.0
C1100 C 0.41452 0.26488 0.87265 0.0
C1101 C 0.40967 0.29652 0.89305 0.0
C1102 C 0.3889 0.15538 0.86991 0.0
N1103 N 0.37786 0.16185 0.88815 0.0
C1104 C 0.40265 0.139 0.87179 0.0
C1105 C 0.40504 0.12923 0.89254 0.0
C1106 C 0.39371 0.13591 0.91107 0.0
C1107 C 0.38013 0.15237 0.90856 0.0
C1108 C 0.31668 0.13983 0.90267 0.0
C1109 C 0.32663 0.17918 0.91662 0.0
C1110 C 0.33262 0.15079 0.89246 0.0
N1111 N 0.33748 0.17016 0.89957 0.0
C1112 C 0.31061 0.16869 0.92723 0.0
C1113 C 0.30564 0.14887 0.92019 0.0
C1114 C 0.34293 0.22835 0.87985 0.0
C1115 C 0.40078 0.2234 0.80763 0.0
C1116 C 0.38052 0.25034 0.83609 0.0
C1117 C 0.38032 0.25388 0.81287 0.0
C1118 C 0.3905 0.24027 0.79858 0.0
N1119 N 0.39062 0.23374 0.84483 0.0
C1120 C 0.4007 0.22038 0.83094 0.0
Co1121 Co 0.81061 0.35915 0.87712 0.0
Co1122 Co 0.76579 0.38715 0.88171 0.0
O1123 O 0.7923 0.38125 0.8674 0.0
C1124 C 0.80598 0.35088 0.82819 0.0
O1125 O 0.78653 0.35607 0.82944 0.0
C1126 C 0.7865 0.428 0.88481 0.0
O1127 O 0.80159 0.41959 0.89625 0.0
O1128 O 0.77838 0.38732 0.9125 0.0
O1129 O 0.80439 0.36498 0.90915 0.0
H1130 H 0.70946 0.37767 0.93868 0.0
H1131 H 0.82574 0.39119 0.8459 0.0
O1132 O 0.81764 0.35228 0.84531 0.0
H1133 H 0.8707 0.39572 0.91263 0.0
H1134 H 0.87527 0.31667 0.87484 0.0
H1135 H 0.80788 0.32613 0.91141 0.0
H1136 H 0.84313 0.36977 0.91075 0.0
H1137 H 0.85227 0.34482 0.86309 0.0
O1138 O 0.77126 0.41725 0.87832 0.0
H1139 H 0.7427 0.37012 0.92053 0.0
H1140 H 0.73268 0.41784 0.87293 0.0
H1141 H 0.83046 0.29787 0.92381 0.0
H1142 H 0.85324 0.4173 0.84698 0.0
H1143 H 0.86443 0.293 0.90548 0.0
H1144 H 0.87591 0.41971 0.88056 0.0
O1145 O 0.78771 0.33889 0.8759 0.0
H1146 H 0.7612 0.40561 0.79957 0.0
H1147 H 0.72847 0.36754 0.86181 0.0
H1148 H 0.71301 0.36637 0.82391 0.0
H1149 H 0.72937 0.38555 0.79246 0.0
H1150 H 0.77631 0.40611 0.83769 0.0
H1151 H 0.69939 0.42603 0.89068 0.0
H1152 H 0.68755 0.40581 0.92374 0.0
O1153 O 0.75957 0.35718 0.88476 0.0
C1154 C 0.7928 0.37647 0.92092 0.0
C1155 C 0.71442 0.38655 0.92424 0.0
C1156 C 0.70879 0.41371 0.89732 0.0
N1157 N 0.73955 0.39343 0.8956 0.0
C1158 C 0.73321 0.38231 0.91386 0.0
C1159 C 0.72767 0.40904 0.88737 0.0
C1160 C 0.70215 0.40235 0.91586 0.0
C1161 C 0.83565 0.39206 0.86049 0.0
N1162 N 0.83288 0.37894 0.87821 0.0
C1163 C 0.85115 0.40691 0.86104 0.0
C1164 C 0.86385 0.40827 0.8799 0.0
C1165 C 0.86092 0.39482 0.89791 0.0
C1166 C 0.84525 0.3802 0.89678 0.0
C1167 C 0.86053 0.31866 0.883 0.0
C1168 C 0.82269 0.32418 0.90344 0.0
C1169 C 0.84743 0.33456 0.87639 0.0
N1170 N 0.82882 0.33721 0.88668 0.0
C1171 C 0.83539 0.30813 0.9105 0.0
C1172 C 0.85444 0.30539 0.90019 0.0
C1173 C 0.76864 0.3402 0.88064 0.0
C1174 C 0.75391 0.39722 0.81314 0.0
C1175 C 0.73577 0.37579 0.84821 0.0
C1176 C 0.72689 0.37515 0.82679 0.0
C1177 C 0.73607 0.38593 0.80916 0.0
N1178 N 0.75329 0.38686 0.85199 0.0
C1179 C 0.76235 0.39751 0.83479 0.0
Co1180 Co 0.65392 0.19484 0.12453 0.0
Co1181 Co 0.61108 0.22513 0.13454 0.0
O1182 O 0.62764 0.20051 0.13958 0.0
C1183 C 0.66371 0.19402 0.17317 0.0
O1184 O 0.65295 0.21099 0.17498 0.0
C1185 C 0.57117 0.20729 0.12084 0.0
O1186 O 0.57399 0.21624 0.10125 0.0
O1187 O 0.61303 0.22112 0.10141 0.0
O1188 O 0.64242 0.20398 0.09484 0.0
H1189 H 0.59302 0.29164 0.09632 0.0
H1190 H 0.63395 0.16256 0.15224 0.0
O1191 O 0.6659 0.18546 0.15399 0.0
H1192 H 0.63976 0.13298 0.07598 0.0
H1193 H 0.71782 0.1534 0.10964 0.0
H1194 H 0.67919 0.21611 0.09011 0.0
H1195 H 0.65265 0.16787 0.0839 0.0
H1196 H 0.68458 0.16091 0.12787 0.0
O1197 O 0.58525 0.20802 0.13584 0.0
H1198 H 0.61392 0.26072 0.10351 0.0
H1199 H 0.57239 0.24178 0.15469 0.0
H1200 H 0.71228 0.20912 0.07134 0.0
H1201 H 0.62104 0.12751 0.14512 0.0
H1202 H 0.73183 0.17756 0.0811 0.0
H1203 H 0.62388 0.11251 0.10675 0.0
O1204 O 0.66434 0.22323 0.13045 0.0
H1205 H 0.60075 0.20191 0.21451 0.0
H1206 H 0.61846 0.26056 0.16555 0.0
H1207 H 0.61826 0.26513 0.20682 0.0
H1208 H 0.60938 0.23566 0.23159 0.0
H1209 H 0.60128 0.19797 0.17315 0.0
H1210 H 0.55099 0.27244 0.14798 0.0
H1211 H 0.56129 0.29765 0.11863 0.0
O1212 O 0.63604 0.24269 0.13332 0.0
C1213 C 0.62633 0.21338 0.0881 0.0
C1214 C 0.58839 0.28079 0.10918 0.0
C1215 C 0.56479 0.27001 0.13817 0.0
N1216 N 0.59443 0.24949 0.12955 0.0
C1217 C 0.60017 0.26326 0.11334 0.0
C1218 C 0.57697 0.25267 0.14188 0.0
C1219 C 0.57058 0.28414 0.1217 0.0
C1220 C 0.63535 0.15609 0.13553 0.0
N1221 N 0.6441 0.16722 0.11853 0.0
C1222 C 0.62796 0.13626 0.13159 0.0
C1223 C 0.62954 0.12786 0.11005 0.0
C1224 C 0.63844 0.13934 0.09277 0.0
C1225 C 0.64565 0.15912 0.09734 0.0
C1226 C 0.70942 0.16718 0.10523 0.0
C1227 C 0.68755 0.20229 0.09433 0.0
C1228 C 0.69062 0.17154 0.11552 0.0
N1229 N 0.6799 0.18886 0.10993 0.0
C1230 C 0.7063 0.19844 0.0837 0.0
C1231 C 0.71727 0.18074 0.0892 0.0
C1232 C 0.65547 0.24061 0.13236 0.0
C1233 C 0.60456 0.21489 0.20388 0.0
C1234 C 0.61456 0.24766 0.17621 0.0
C1235 C 0.61444 0.25036 0.19957 0.0
C1236 C 0.60944 0.23382 0.21346 0.0
N1237 N 0.60976 0.22904 0.16694 0.0
C1238 C 0.60478 0.21278 0.18046 0.0
Co1239 Co 0.80902 0.65284 0.12194 0.0
Co1240 Co 0.77711 0.61122 0.13156 0.0
O1241 O 0.80267 0.62635 0.13606 0.0
C1242 C 0.81128 0.66073 0.17101 0.0
O1243 O 0.79393 0.65056 0.17257 0.0
C1244 C 0.80785 0.57917 0.11856 0.0
O1245 O 0.81735 0.59253 0.10564 0.0
O1246 O 0.77968 0.61415 0.09823 0.0
O1247 O 0.79848 0.64267 0.09205 0.0
H1248 H 0.7079 0.5984 0.09676 0.0
H1249 H 0.84108 0.63052 0.14769 0.0
O1250 O 0.81967 0.66334 0.15175 0.0
H1251 H 0.86851 0.63707 0.07053 0.0
H1252 H 0.85299 0.71526 0.10828 0.0
H1253 H 0.78812 0.68014 0.08918 0.0
H1254 H 0.83469 0.65163 0.08031 0.0
H1255 H 0.84435 0.68181 0.12545 0.0
O1256 O 0.79241 0.58463 0.13028 0.0
H1257 H 0.74 0.61764 0.10349 0.0
H1258 H 0.75999 0.57198 0.14971 0.0
H1259 H 0.7962 0.71349 0.07147 0.0
H1260 H 0.87508 0.61589 0.1387 0.0
H1261 H 0.82885 0.73127 0.08101 0.0
H1262 H 0.88898 0.61909 0.09986 0.0
O1263 O 0.78137 0.66445 0.12934 0.0
H1264 H 0.80402 0.59658 0.20927 0.0
H1265 H 0.74339 0.61758 0.16511 0.0
H1266 H 0.74091 0.61563 0.20652 0.0
H1267 H 0.77142 0.60511 0.2289 0.0
H1268 H 0.80583 0.59892 0.1678 0.0
H1269 H 0.72828 0.55211 0.14325 0.0
H1270 H 0.70191 0.56536 0.11669 0.0
O1271 O 0.76083 0.63702 0.13302 0.0
C1272 C 0.78787 0.62737 0.08506 0.0
C1273 C 0.71925 0.59249 0.10842 0.0
C1274 C 0.73069 0.5665 0.13449 0.0
N1275 N 0.75181 0.59599 0.12704 0.0
C1276 C 0.73742 0.60334 0.11234 0.0
C1277 C 0.74866 0.57778 0.13801 0.0
C1278 C 0.7159 0.57394 0.11959 0.0
C1279 C 0.8471 0.63211 0.1308 0.0
N1280 N 0.83595 0.64198 0.11457 0.0
C1281 C 0.86633 0.62374 0.12579 0.0
C1282 C 0.87411 0.62551 0.10399 0.0
C1283 C 0.86263 0.63559 0.08752 0.0
C1284 C 0.84346 0.64376 0.09314 0.0
C1285 C 0.83873 0.70765 0.10396 0.0
C1286 C 0.80241 0.68774 0.09329 0.0
C1287 C 0.83375 0.68873 0.11367 0.0
N1288 N 0.81582 0.67899 0.10819 0.0
C1289 C 0.80688 0.70664 0.08327 0.0
C1290 C 0.82518 0.71662 0.08865 0.0
C1291 C 0.76377 0.65635 0.13256 0.0
C1292 C 0.79062 0.60117 0.1997 0.0
C1293 C 0.75672 0.61308 0.17471 0.0
C1294 C 0.75522 0.61192 0.19817 0.0
C1295 C 0.77233 0.60599 0.21071 0.0
N1296 N 0.77474 0.60844 0.16404 0.0
C1297 C 0.79153 0.60245 0.17622 0.0
Co1298 Co 0.35193 0.81324 0.13398 0.0
Co1299 Co 0.37986 0.76902 0.1226 0.0
O1300 O 0.37525 0.79466 0.13917 0.0
C1301 C 0.34862 0.8015 0.18202 0.0
O1302 O 0.35307 0.78275 0.17553 0.0
C1303 C 0.41941 0.79219 0.11752 0.0
O1304 O 0.4095 0.80971 0.11858 0.0
O1305 O 0.37506 0.78302 0.0933 0.0
O1306 O 0.3557 0.81088 0.10045 0.0
H1307 H 0.3631 0.71529 0.06465 0.0
H1308 H 0.38522 0.82624 0.16496 0.0
O1309 O 0.34755 0.81594 0.16752 0.0
H1310 H 0.38469 0.87782 0.10405 0.0
H1311 H 0.30847 0.87555 0.14989 0.0
H1312 H 0.31688 0.81414 0.10207 0.0
H1313 H 0.3599 0.84915 0.10394 0.0
H1314 H 0.33773 0.85205 0.15567 0.0
O1315 O 0.40992 0.77516 0.1195 0.0
H1316 H 0.35768 0.74733 0.08604 0.0
H1317 H 0.41212 0.73642 0.12368 0.0
H1318 H 0.28748 0.83733 0.09557 0.0
H1319 H 0.41014 0.8548 0.16587 0.0
H1320 H 0.28313 0.86828 0.11959 0.0
H1321 H 0.41002 0.8808 0.13521 0.0
O1322 O 0.33192 0.79 0.13352 0.0
H1323 H 0.4112 0.76197 0.19957 0.0
H1324 H 0.36455 0.73038 0.14398 0.0
H1325 H 0.36979 0.71354 0.18077 0.0
H1326 H 0.39328 0.72934 0.20886 0.0
H1327 H 0.40536 0.77838 0.16263 0.0
H1328 H 0.41824 0.70435 0.10255 0.0
H1329 H 0.39358 0.69356 0.07286 0.0
O1330 O 0.35015 0.76186 0.12483 0.0
C1331 C 0.36511 0.79885 0.08688 0.0
C1332 C 0.37392 0.71979 0.0776 0.0
C1333 C 0.40488 0.71366 0.09886 0.0
N1334 N 0.38446 0.74364 0.10622 0.0
C1335 C 0.3709 0.73788 0.08982 0.0
C1336 C 0.40135 0.73185 0.11074 0.0
C1337 C 0.39103 0.70762 0.0822 0.0
C1338 C 0.38494 0.83762 0.15169 0.0
N1339 N 0.37109 0.83606 0.13446 0.0
C1340 C 0.39914 0.8537 0.15224 0.0
C1341 C 0.39909 0.86826 0.13501 0.0
C1342 C 0.3849 0.86659 0.11751 0.0
C1343 C 0.37094 0.85028 0.1175 0.0
C1344 C 0.31022 0.86213 0.13928 0.0
C1345 C 0.31516 0.82766 0.11248 0.0
C1346 C 0.32673 0.84875 0.1425 0.0
N1347 N 0.32908 0.83183 0.1291 0.0
C1348 C 0.29845 0.8407 0.10877 0.0
C1349 C 0.29601 0.85805 0.12227 0.0
C1350 C 0.33325 0.77085 0.12925 0.0
C1351 C 0.40098 0.7549 0.18744 0.0
C1352 C 0.37475 0.73738 0.15612 0.0
C1353 C 0.3777 0.72774 0.17691 0.0
C1354 C 0.39089 0.73661 0.19266 0.0
N1355 N 0.38471 0.75531 0.15114 0.0
C1356 C 0.39769 0.76408 0.16647 0.0
Co1357 Co 0.19135 0.36082 0.12552 0.0
Co1358 Co 0.23506 0.39124 0.12679 0.0
O1359 O 0.20763 0.38374 0.1372 0.0
C1360 C 0.19735 0.35283 0.17378 0.0
O1361 O 0.2166 0.35771 0.17003 0.0
C1362 C 0.20932 0.42771 0.11851 0.0
O1363 O 0.19574 0.41469 0.11054 0.0
O1364 O 0.22648 0.3885 0.0949 0.0
O1365 O 0.19818 0.3686 0.09348 0.0
H1366 H 0.29893 0.38367 0.07996 0.0
H1367 H 0.17271 0.39015 0.15786 0.0
O1368 O 0.18448 0.3527 0.15754 0.0
H1369 H 0.13015 0.39464 0.08925 0.0
H1370 H 0.13008 0.31364 0.12463 0.0
H1371 H 0.19676 0.32986 0.08934 0.0
H1372 H 0.15951 0.37072 0.09106 0.0
H1373 H 0.15096 0.34274 0.13832 0.0
O1374 O 0.22646 0.42106 0.12602 0.0
H1375 H 0.26439 0.37408 0.09352 0.0
H1376 H 0.2638 0.42552 0.13756 0.0
H1377 H 0.17631 0.30075 0.07496 0.0
H1378 H 0.14341 0.41417 0.15683 0.0
H1379 H 0.14272 0.29247 0.09266 0.0
H1380 H 0.12195 0.41657 0.12231 0.0
O1381 O 0.21544 0.34215 0.12628 0.0
H1382 H 0.22813 0.41627 0.20653 0.0
H1383 H 0.27048 0.37579 0.15383 0.0
H1384 H 0.28117 0.37887 0.19357 0.0
H1385 H 0.25996 0.3993 0.2202 0.0
H1386 H 0.21779 0.41245 0.16674 0.0
H1387 H 0.29823 0.43582 0.12429 0.0
H1388 H 0.31607 0.41476 0.09537 0.0
O1389 O 0.24397 0.36163 0.12712 0.0
C1390 C 0.21215 0.37946 0.08408 0.0
C1391 C 0.29135 0.39293 0.09263 0.0
C1392 C 0.29095 0.42221 0.11749 0.0
N1393 N 0.2622 0.39911 0.11646 0.0
C1394 C 0.27183 0.38753 0.10043 0.0
C1395 C 0.27144 0.41633 0.1249 0.0
C1396 C 0.30095 0.41039 0.10126 0.0
C1397 C 0.16331 0.39095 0.14287 0.0
N1398 N 0.16773 0.37896 0.1246 0.0
C1399 C 0.14679 0.40464 0.14235 0.0
C1400 C 0.13477 0.40601 0.12296 0.0
C1401 C 0.13938 0.39371 0.1044 0.0
C1402 C 0.15603 0.38022 0.10551 0.0
C1403 C 0.14468 0.31712 0.11675 0.0
C1404 C 0.18208 0.32644 0.097 0.0
C1405 C 0.15657 0.33354 0.12445 0.0
N1406 N 0.17495 0.33808 0.11449 0.0
C1407 C 0.17061 0.3099 0.08885 0.0
C1408 C 0.15177 0.30525 0.0988 0.0
C1409 C 0.23492 0.34419 0.12669 0.0
C1410 C 0.23754 0.40739 0.19507 0.0
C1411 C 0.2611 0.38459 0.16535 0.0
C1412 C 0.26727 0.38634 0.18781 0.0
C1413 C 0.25538 0.39783 0.20274 0.0
N1414 N 0.24358 0.39402 0.15796 0.0
C1415 C 0.2318 0.40524 0.17251 0.0
Co1416 Co 0.35269 0.18914 0.12589 0.0
Co1417 Co 0.38442 0.2308 0.1355 0.0
O1418 O 0.37529 0.2028 0.14145 0.0
C1419 C 0.34179 0.18806 0.17422 0.0
O1420 O 0.34756 0.20736 0.1749 0.0
C1421 C 0.42251 0.20674 0.1278 0.0
O1422 O 0.41247 0.19595 0.1127 0.0
O1423 O 0.38509 0.22548 0.10243 0.0
O1424 O 0.36244 0.19998 0.09603 0.0
H1425 H 0.38407 0.29901 0.09582 0.0
H1426 H 0.3798 0.16535 0.15643 0.0
O1427 O 0.34252 0.17814 0.15566 0.0
H1428 H 0.3867 0.13239 0.08197 0.0
H1429 H 0.30421 0.13032 0.11147 0.0
H1430 H 0.32407 0.20056 0.08908 0.0
H1431 H 0.36362 0.16206 0.08717 0.0
H1432 H 0.33289 0.14806 0.1305 0.0
O1433 O 0.41366 0.22128 0.13843 0.0
H1434 H 0.37225 0.2637 0.10358 0.0
H1435 H 0.41752 0.25721 0.15466 0.0
H1436 H 0.29545 0.18332 0.06943 0.0
H1437 H 0.40294 0.1356 0.15203 0.0
H1438 H 0.28534 0.14795 0.08063 0.0
H1439 H 0.40653 0.11894 0.11457 0.0
O1440 O 0.33455 0.2135 0.12956 0.0
H1441 H 0.39782 0.21437 0.21697 0.0
H1442 H 0.36679 0.26406 0.16423 0.0
H1443 H 0.36432 0.27017 0.20516 0.0
H1444 H 0.37987 0.24518 0.23184 0.0
H1445 H 0.3998 0.20877 0.17591 0.0
H1446 H 0.42999 0.29238 0.14728 0.0
H1447 H 0.41315 0.31357 0.11775 0.0
O1448 O 0.35544 0.24082 0.13269 0.0
C1449 C 0.3752 0.21356 0.08917 0.0
C1450 C 0.39149 0.28996 0.10877 0.0
C1451 C 0.41728 0.28623 0.13765 0.0
N1452 N 0.39407 0.25849 0.12969 0.0
C1453 C 0.38483 0.26998 0.1133 0.0
C1454 C 0.41019 0.26631 0.14171 0.0
C1455 C 0.40782 0.29811 0.12107 0.0
C1456 C 0.38115 0.15807 0.14013 0.0
N1457 N 0.37028 0.16534 0.12212 0.0
C1458 C 0.39433 0.14128 0.13772 0.0
C1459 C 0.39636 0.13195 0.11669 0.0
C1460 C 0.38524 0.13949 0.09839 0.0
C1461 C 0.37223 0.15633 0.10142 0.0
C1462 C 0.30849 0.14572 0.10642 0.0
C1463 C 0.31985 0.18511 0.09393 0.0
C1464 C 0.32468 0.15585 0.11716 0.0
N1465 N 0.33023 0.17525 0.11077 0.0
C1466 C 0.30359 0.17546 0.0828 0.0
C1467 C 0.29792 0.15562 0.0891 0.0
C1468 C 0.33761 0.23281 0.13109 0.0
C1469 C 0.39105 0.2254 0.20551 0.0
C1470 C 0.37361 0.25313 0.17572 0.0
C1471 C 0.37219 0.25669 0.19889 0.0
C1472 C 0.38094 0.24268 0.21385 0.0
N1473 N 0.38351 0.23612 0.16767 0.0
C1474 C 0.39222 0.22237 0.18224 0.0
Co1475 Co 0.80345 0.35785 0.13175 0.0
Co1476 Co 0.76929 0.39814 0.12482 0.0
O1477 O 0.79276 0.38505 0.13948 0.0
C1478 C 0.79214 0.35422 0.17947 0.0
O1479 O 0.7749 0.36337 0.17391 0.0
C1480 C 0.80232 0.42912 0.11739 0.0
O1481 O 0.81409 0.4145 0.10928 0.0
O1482 O 0.78028 0.39156 0.09429 0.0
O1483 O 0.80125 0.36439 0.09902 0.0
H1484 H 0.71156 0.40321 0.06886 0.0
H1485 H 0.82608 0.38477 0.16347 0.0
O1486 O 0.80578 0.35084 0.16454 0.0
H1487 H 0.87421 0.37169 0.1009 0.0
H1488 H 0.85045 0.29705 0.14139 0.0
H1489 H 0.79303 0.32626 0.09762 0.0
H1490 H 0.83966 0.3561 0.10097 0.0
H1491 H 0.83695 0.33153 0.15026 0.0
O1492 O 0.78431 0.425 0.12449 0.0
H1493 H 0.74079 0.38652 0.08797 0.0
H1494 H 0.74826 0.43856 0.13039 0.0
H1495 H 0.80614 0.29178 0.08807 0.0
H1496 H 0.86056 0.40053 0.16423 0.0
H1497 H 0.83506 0.27696 0.11004 0.0
H1498 H 0.88487 0.39407 0.13274 0.0
O1499 O 0.77533 0.34555 0.13125 0.0
H1500 H 0.77402 0.4237 0.20454 0.0
H1501 H 0.72835 0.39366 0.14701 0.0
H1502 H 0.7148 0.40069 0.18505 0.0
H1503 H 0.73771 0.41584 0.21413 0.0
H1504 H 0.78698 0.41622 0.16634 0.0
H1505 H 0.71921 0.45587 0.11164 0.0
H1506 H 0.70059 0.43814 0.08068 0.0
O1507 O 0.75368 0.37179 0.12501 0.0
C1508 C 0.79222 0.37766 0.08664 0.0
C1509 C 0.71949 0.41106 0.08238 0.0
C1510 C 0.72381 0.44063 0.10637 0.0
N1511 N 0.74611 0.41148 0.11039 0.0
C1512 C 0.73602 0.40166 0.09331 0.0
C1513 C 0.74027 0.43077 0.1169 0.0
C1514 C 0.71337 0.43067 0.08901 0.0
C1515 C 0.83662 0.3818 0.14978 0.0
N1516 N 0.83087 0.36954 0.13218 0.0
C1517 C 0.8561 0.3908 0.15027 0.0
C1518 C 0.86972 0.38719 0.13258 0.0
C1519 C 0.86375 0.37465 0.1147 0.0
C1520 C 0.84414 0.36592 0.11478 0.0
C1521 C 0.83788 0.30336 0.13166 0.0
C1522 C 0.80571 0.31997 0.10715 0.0
C1523 C 0.83015 0.32286 0.13663 0.0
N1524 N 0.81433 0.33095 0.12435 0.0
C1525 C 0.81303 0.30042 0.10171 0.0
C1526 C 0.82924 0.2921 0.11407 0.0
C1527 C 0.75735 0.35273 0.12794 0.0
C1528 C 0.76388 0.41713 0.19201 0.0
C1529 C 0.73842 0.40016 0.15959 0.0
C1530 C 0.73065 0.40417 0.18108 0.0
C1531 C 0.74351 0.41269 0.19738 0.0
N1532 N 0.75843 0.40453 0.15445 0.0
C1533 C 0.77111 0.41293 0.17033 0.0
Co1534 Co 0.64364 0.80333 0.13136 0.0
Co1535 Co 0.60723 0.76496 0.12406 0.0
O1536 O 0.6163 0.79133 0.13688 0.0
C1537 C 0.64367 0.80269 0.18199 0.0
O1538 O 0.63863 0.78314 0.18193 0.0
C1539 C 0.56963 0.79282 0.11855 0.0
O1540 O 0.5786 0.80913 0.12704 0.0
O1541 O 0.61617 0.77349 0.0932 0.0
O1542 O 0.64251 0.79501 0.09914 0.0
H1543 H 0.61598 0.70163 0.07662 0.0
H1544 H 0.61175 0.829 0.15323 0.0
O1545 O 0.6456 0.81247 0.16351 0.0
H1546 H 0.62942 0.86528 0.08286 0.0
H1547 H 0.69856 0.85749 0.13878 0.0
H1548 H 0.68069 0.79014 0.10614 0.0
H1549 H 0.64673 0.83288 0.09293 0.0
H1550 H 0.6643 0.84236 0.1451 0.0
O1551 O 0.57914 0.77579 0.11693 0.0
H1552 H 0.62665 0.73447 0.09375 0.0
H1553 H 0.56883 0.73971 0.12649 0.0
H1554 H 0.71509 0.80475 0.09928 0.0
H1555 H 0.59427 0.86155 0.14396 0.0
H1556 H 0.72422 0.83867 0.11566 0.0
H1557 H 0.60302 0.87988 0.10851 0.0
O1558 O 0.65781 0.77702 0.13911 0.0
H1559 H 0.57435 0.77579 0.19998 0.0
H1560 H 0.61016 0.72631 0.15095 0.0
H1561 H 0.59996 0.71582 0.18924 0.0
H1562 H 0.58183 0.74063 0.21405 0.0
H1563 H 0.58511 0.78569 0.16175 0.0
H1564 H 0.55747 0.70706 0.10951 0.0
H1565 H 0.58115 0.68773 0.08445 0.0
O1566 O 0.63466 0.75267 0.13047 0.0
C1567 C 0.63095 0.78462 0.08611 0.0
C1568 C 0.60555 0.70987 0.08758 0.0
C1569 C 0.5727 0.71293 0.10601 0.0
N1570 N 0.59846 0.73892 0.11127 0.0
C1571 C 0.61153 0.72843 0.0974 0.0
C1572 C 0.5792 0.73145 0.11552 0.0
C1573 C 0.586 0.70209 0.09196 0.0
C1574 C 0.61576 0.83697 0.13785 0.0
N1575 N 0.63022 0.82901 0.12363 0.0
C1576 C 0.60575 0.85536 0.13266 0.0
C1577 C 0.61065 0.86562 0.11275 0.0
C1578 C 0.62544 0.85742 0.09834 0.0
C1579 C 0.63512 0.839 0.10408 0.0
C1580 C 0.69477 0.8427 0.13155 0.0
C1581 C 0.68452 0.80494 0.11327 0.0
C1582 C 0.67541 0.83403 0.13513 0.0
N1583 N 0.67047 0.8154 0.12597 0.0
C1584 C 0.70404 0.81312 0.10935 0.0
C1585 C 0.70915 0.83214 0.11857 0.0
C1586 C 0.65255 0.75828 0.13671 0.0
C1587 C 0.5822 0.76481 0.18931 0.0
C1588 C 0.60246 0.73725 0.16166 0.0
C1589 C 0.59661 0.73119 0.18332 0.0
C1590 C 0.58643 0.7451 0.19722 0.0
N1591 N 0.59824 0.7566 0.15397 0.0
C1592 C 0.58826 0.77031 0.16755 0.0
Co1593 Co 0.18337 0.6459 0.12689 0.0
Co1594 Co 0.22787 0.61674 0.1239 0.0
O1595 O 0.20096 0.62334 0.13708 0.0
C1596 C 0.18794 0.65502 0.17575 0.0
O1597 O 0.20726 0.64928 0.17486 0.0
C1598 C 0.20355 0.579 0.11748 0.0
O1599 O 0.18884 0.59115 0.11032 0.0
O1600 O 0.21722 0.61913 0.09235 0.0
O1601 O 0.1895 0.6394 0.09498 0.0
H1602 H 0.2879 0.62694 0.07185 0.0
H1603 H 0.16706 0.61492 0.15869 0.0
O1604 O 0.1764 0.65346 0.15854 0.0
H1605 H 0.12235 0.61057 0.09175 0.0
H1606 H 0.12001 0.69033 0.12797 0.0
H1607 H 0.18729 0.67832 0.09208 0.0
H1608 H 0.15062 0.63576 0.09332 0.0
H1609 H 0.14206 0.66167 0.14037 0.0
O1610 O 0.22061 0.58667 0.12386 0.0
H1611 H 0.25408 0.63512 0.08834 0.0
H1612 H 0.25872 0.58373 0.1322 0.0
H1613 H 0.16565 0.70707 0.07902 0.0
H1614 H 0.13883 0.5896 0.15795 0.0
H1615 H 0.13174 0.71323 0.09702 0.0
H1616 H 0.1163 0.58726 0.12425 0.0
O1617 O 0.20687 0.66549 0.12791 0.0
H1618 H 0.22683 0.59248 0.20431 0.0
H1619 H 0.26455 0.63342 0.14788 0.0
H1620 H 0.27779 0.63125 0.18676 0.0
H1621 H 0.25889 0.61063 0.21528 0.0
H1622 H 0.21404 0.59522 0.16527 0.0
H1623 H 0.2925 0.57486 0.11602 0.0
H1624 H 0.30734 0.59661 0.08569 0.0
O1625 O 0.23553 0.64654 0.12374 0.0
C1626 C 0.20234 0.62901 0.08354 0.0
C1627 C 0.28163 0.61738 0.0851 0.0
C1628 C 0.28419 0.58814 0.10988 0.0
N1629 N 0.25452 0.61 0.11132 0.0
C1630 C 0.26252 0.62197 0.09455 0.0
C1631 C 0.26504 0.5932 0.11893 0.0
C1632 C 0.29251 0.60035 0.09286 0.0
C1633 C 0.1572 0.6141 0.14406 0.0
N1634 N 0.16048 0.62681 0.12607 0.0
C1635 C 0.14129 0.59969 0.1437 0.0
C1636 C 0.12868 0.59837 0.12477 0.0
C1637 C 0.13207 0.61143 0.10652 0.0
C1638 C 0.14815 0.62562 0.10747 0.0
C1639 C 0.13473 0.68778 0.11996 0.0
C1640 C 0.1725 0.68083 0.09989 0.0
C1641 C 0.14731 0.6716 0.12693 0.0
N1642 N 0.16589 0.66824 0.11684 0.0
C1643 C 0.16034 0.69716 0.09247 0.0
C1644 C 0.14132 0.70062 0.10259 0.0
C1645 C 0.22633 0.66376 0.12596 0.0
C1646 C 0.23523 0.60147 0.19202 0.0
C1647 C 0.25621 0.62447 0.16021 0.0
C1648 C 0.26381 0.62326 0.18218 0.0
C1649 C 0.2532 0.61168 0.19817 0.0
N1650 N 0.23858 0.61439 0.1543 0.0
C1651 C 0.2281 0.60301 0.16988 0.0
Co1652 Co 0.36053 0.81409 0.87302 0.0
Co1653 Co 0.39001 0.77139 0.88601 0.0
O1654 O 0.38463 0.79654 0.86899 0.0
C1655 C 0.36003 0.80221 0.82491 0.0
O1656 O 0.36499 0.78368 0.83171 0.0
C1657 C 0.42645 0.79727 0.89429 0.0
O1658 O 0.41357 0.81226 0.89872 0.0
O1659 O 0.38371 0.78531 0.91506 0.0
O1660 O 0.36285 0.8118 0.90672 0.0
H1661 H 0.37528 0.71726 0.94421 0.0
H1662 H 0.39496 0.82821 0.84422 0.0
O1663 O 0.35754 0.8166 0.83926 0.0
H1664 H 0.38925 0.87985 0.90472 0.0
H1665 H 0.3152 0.8745 0.85477 0.0
H1666 H 0.32408 0.8134 0.903 0.0
H1667 H 0.36541 0.85041 0.90321 0.0
H1668 H 0.34568 0.85228 0.85059 0.0
O1669 O 0.41962 0.77957 0.88897 0.0
H1670 H 0.36834 0.74868 0.92224 0.0
H1671 H 0.42419 0.74089 0.88621 0.0
H1672 H 0.29346 0.8353 0.90789 0.0
H1673 H 0.41903 0.85751 0.84499 0.0
H1674 H 0.28887 0.86609 0.88365 0.0
H1675 H 0.41629 0.88354 0.87545 0.0
O1676 O 0.34176 0.79001 0.87257 0.0
H1677 H 0.42336 0.76464 0.80998 0.0
H1678 H 0.37683 0.73192 0.86492 0.0
H1679 H 0.38367 0.71475 0.82863 0.0
H1680 H 0.40711 0.73112 0.80088 0.0
H1681 H 0.41594 0.78138 0.84637 0.0
H1682 H 0.43182 0.70945 0.9079 0.0
H1683 H 0.40723 0.69741 0.93708 0.0
O1684 O 0.36061 0.76279 0.88336 0.0
C1685 C 0.37233 0.80038 0.92086 0.0
C1686 C 0.38608 0.7223 0.93148 0.0
C1687 C 0.41783 0.71794 0.91112 0.0
N1688 N 0.39576 0.7465 0.90283 0.0
C1689 C 0.3822 0.74005 0.91894 0.0
C1690 C 0.41345 0.73576 0.89892 0.0
C1691 C 0.40402 0.71119 0.92749 0.0
C1692 C 0.39355 0.8396 0.85739 0.0
N1693 N 0.37874 0.83768 0.87357 0.0
C1694 C 0.40728 0.8561 0.8578 0.0
C1695 C 0.40575 0.87069 0.87491 0.0
C1696 C 0.39059 0.86862 0.89135 0.0
C1697 C 0.37715 0.8519 0.89043 0.0
C1698 C 0.31705 0.86115 0.86546 0.0
C1699 C 0.32226 0.82686 0.8925 0.0
C1700 C 0.33425 0.8485 0.86314 0.0
N1701 N 0.33672 0.83167 0.87667 0.0
C1702 C 0.30486 0.83916 0.8953 0.0
C1703 C 0.30228 0.85642 0.88168 0.0
C1704 C 0.34359 0.77108 0.87775 0.0
C1705 C 0.41318 0.75733 0.82196 0.0
C1706 C 0.387 0.73917 0.8529 0.0
C1707 C 0.39086 0.72935 0.83241 0.0
C1708 C 0.40402 0.73853 0.81685 0.0
N1709 N 0.39604 0.7576 0.85779 0.0
C1710 C 0.40899 0.76669 0.84264 0.0
Co1711 Co 0.1947 0.35455 0.87772 0.0
Co1712 Co 0.23957 0.38309 0.87646 0.0
O1713 O 0.21226 0.37626 0.86542 0.0
C1714 C 0.20292 0.3431 0.83088 0.0
O1715 O 0.2221 0.34679 0.83627 0.0
C1716 C 0.21864 0.42349 0.88203 0.0
O1717 O 0.20501 0.41469 0.89517 0.0
O1718 O 0.22928 0.38352 0.9079 0.0
O1719 O 0.20068 0.36393 0.90946 0.0
H1720 H 0.30053 0.37651 0.92793 0.0
H1721 H 0.17858 0.38266 0.84252 0.0
O1722 O 0.18892 0.34493 0.84585 0.0
H1723 H 0.13341 0.39249 0.90839 0.0
H1724 H 0.13155 0.30993 0.87836 0.0
H1725 H 0.19711 0.32568 0.91633 0.0
H1726 H 0.16203 0.36767 0.9098 0.0
H1727 H 0.15426 0.33729 0.86387 0.0
O1728 O 0.23303 0.41305 0.87304 0.0
H1729 H 0.26612 0.36771 0.9134 0.0
H1730 H 0.27098 0.41438 0.86362 0.0
H1731 H 0.17479 0.29834 0.93154 0.0
H1732 H 0.15005 0.40753 0.84032 0.0
H1733 H 0.14175 0.29031 0.9125 0.0
H1734 H 0.12725 0.41259 0.87344 0.0
O1735 O 0.21792 0.3347 0.8796 0.0
H1736 H 0.23721 0.40018 0.7939 0.0
H1737 H 0.27549 0.36372 0.85346 0.0
H1738 H 0.28795 0.36231 0.81424 0.0
H1739 H 0.2688 0.38071 0.78415 0.0
H1740 H 0.22511 0.40091 0.8333 0.0
H1741 H 0.30535 0.42384 0.87777 0.0
H1742 H 0.32039 0.40477 0.91008 0.0
O1743 O 0.24683 0.3535 0.87986 0.0
C1744 C 0.21438 0.37531 0.91865 0.0
C1745 C 0.29418 0.38489 0.91379 0.0
C1746 C 0.29687 0.41147 0.88566 0.0
N1747 N 0.26664 0.39039 0.88756 0.0
C1748 C 0.27473 0.37993 0.90545 0.0
C1749 C 0.27738 0.40608 0.87776 0.0
C1750 C 0.3053 0.40076 0.90378 0.0
C1751 C 0.16863 0.38467 0.85694 0.0
N1752 N 0.17188 0.37364 0.87621 0.0
C1753 C 0.15254 0.39882 0.85562 0.0
C1754 C 0.13977 0.40167 0.87422 0.0
C1755 C 0.14323 0.3904 0.89384 0.0
C1756 C 0.15947 0.3764 0.89455 0.0
C1757 C 0.14589 0.31331 0.88683 0.0
C1758 C 0.18268 0.32237 0.90806 0.0
C1759 C 0.15882 0.32875 0.87867 0.0
N1760 N 0.17689 0.33317 0.88936 0.0
C1761 C 0.17014 0.30683 0.9167 0.0
C1762 C 0.15162 0.30231 0.90599 0.0
C1763 C 0.23741 0.33635 0.88075 0.0
C1764 C 0.24573 0.39218 0.80688 0.0
C1765 C 0.26701 0.37167 0.84045 0.0
C1766 C 0.27418 0.37088 0.81828 0.0
C1767 C 0.26345 0.38122 0.80141 0.0
N1768 N 0.24964 0.38247 0.84568 0.0
C1769 C 0.239 0.3926 0.82922 0.0
Co1770 Co 0.64488 0.18997 0.88378 0.0
Co1771 Co 0.61489 0.2333 0.87668 0.0
O1772 O 0.62277 0.20524 0.86936 0.0
C1773 C 0.65658 0.19038 0.83566 0.0
O1774 O 0.65543 0.21048 0.8367 0.0
C1775 C 0.5781 0.20841 0.88525 0.0
O1776 O 0.59069 0.19589 0.8957 0.0
O1777 O 0.61578 0.22743 0.90947 0.0
O1778 O 0.6367 0.20029 0.91443 0.0
H1779 H 0.62015 0.30072 0.91752 0.0
H1780 H 0.61573 0.16852 0.85331 0.0
O1781 O 0.65315 0.17948 0.85315 0.0
H1782 H 0.60903 0.13374 0.9268 0.0
H1783 H 0.69049 0.12823 0.89396 0.0
H1784 H 0.67522 0.19859 0.91989 0.0
H1785 H 0.6336 0.16225 0.92184 0.0
H1786 H 0.66227 0.14813 0.87677 0.0
O1787 O 0.58509 0.22477 0.87616 0.0
H1788 H 0.63024 0.26519 0.90817 0.0
H1789 H 0.58158 0.26108 0.86068 0.0
H1790 H 0.70343 0.17918 0.93771 0.0
H1791 H 0.5911 0.13996 0.85749 0.0
H1792 H 0.71122 0.14373 0.92474 0.0
H1793 H 0.58757 0.12242 0.89448 0.0
O1794 O 0.66408 0.21361 0.88063 0.0
H1795 H 0.5961 0.21908 0.79604 0.0
H1796 H 0.63204 0.26647 0.84757 0.0
H1797 H 0.63216 0.27348 0.80671 0.0
H1798 H 0.61409 0.24968 0.78064 0.0
H1799 H 0.59648 0.21259 0.83702 0.0
H1800 H 0.57078 0.29648 0.86972 0.0
H1801 H 0.59021 0.31658 0.89824 0.0
O1802 O 0.64444 0.24198 0.8777 0.0
C1803 C 0.62519 0.21461 0.92204 0.0
C1804 C 0.61161 0.29214 0.90501 0.0
C1805 C 0.58389 0.28976 0.8782 0.0
N1806 N 0.60663 0.26117 0.88375 0.0
C1807 C 0.6173 0.27205 0.89959 0.0
C1808 C 0.59004 0.26971 0.87319 0.0
C1809 C 0.59479 0.30103 0.8942 0.0
C1810 C 0.61447 0.1608 0.86938 0.0
N1811 N 0.62619 0.16695 0.88726 0.0
C1812 C 0.60042 0.1447 0.87168 0.0
C1813 C 0.59843 0.13489 0.89245 0.0
C1814 C 0.61045 0.14124 0.9106 0.0
C1815 C 0.62432 0.15741 0.90769 0.0
C1816 C 0.68722 0.14365 0.89979 0.0
C1817 C 0.67843 0.18312 0.91426 0.0
C1818 C 0.6713 0.155 0.89008 0.0
N1819 N 0.66701 0.17442 0.89746 0.0
C1820 C 0.69446 0.17223 0.92437 0.0
C1821 C 0.69884 0.15235 0.91706 0.0
C1822 C 0.6619 0.23306 0.8791 0.0
C1823 C 0.60398 0.22959 0.80724 0.0
C1824 C 0.62414 0.25605 0.83633 0.0
C1825 C 0.62424 0.26011 0.81322 0.0
C1826 C 0.61409 0.24675 0.7986 0.0
N1827 N 0.61414 0.23921 0.84466 0.0
C1828 C 0.60417 0.22604 0.83045 0.0
Co1829 Co 0.81152 0.64821 0.88084 0.0
Co1830 Co 0.7677 0.61926 0.87265 0.0
O1831 O 0.79622 0.62621 0.86586 0.0
C1832 C 0.81405 0.65827 0.83215 0.0
O1833 O 0.79438 0.65394 0.83112 0.0
C1834 C 0.78809 0.57855 0.87874 0.0
O1835 O 0.80108 0.58695 0.89296 0.0
O1836 O 0.77395 0.61777 0.90542 0.0
O1837 O 0.79973 0.64023 0.91104 0.0
H1838 H 0.701 0.62505 0.91482 0.0
H1839 H 0.83341 0.61853 0.85156 0.0
O1840 O 0.82361 0.65673 0.85089 0.0
H1841 H 0.86502 0.6111 0.92667 0.0
H1842 H 0.87388 0.69226 0.89449 0.0
H1843 H 0.80202 0.67877 0.91638 0.0
H1844 H 0.8373 0.63627 0.92032 0.0
H1845 H 0.85412 0.66452 0.87621 0.0
O1846 O 0.77428 0.5894 0.86925 0.0
H1847 H 0.73698 0.63378 0.90593 0.0
H1848 H 0.73786 0.58886 0.85401 0.0
H1849 H 0.82128 0.70651 0.93528 0.0
H1850 H 0.86121 0.59326 0.85713 0.0
H1851 H 0.85747 0.71341 0.92434 0.0
H1852 H 0.87717 0.58939 0.89492 0.0
O1853 O 0.78872 0.66814 0.87607 0.0
H1854 H 0.78055 0.60501 0.79061 0.0
H1855 H 0.73521 0.63985 0.84514 0.0
H1856 H 0.72814 0.64303 0.80446 0.0
H1857 H 0.75092 0.62555 0.77688 0.0
H1858 H 0.78717 0.60238 0.83145 0.0
H1859 H 0.70196 0.57947 0.86251 0.0
H1860 H 0.68325 0.59771 0.89303 0.0
O1861 O 0.7602 0.6488 0.87587 0.0
C1862 C 0.78607 0.62774 0.91835 0.0
C1863 C 0.70897 0.61703 0.90144 0.0
C1864 C 0.70952 0.59144 0.87209 0.0
N1865 N 0.73945 0.61196 0.87935 0.0
C1866 C 0.72933 0.62195 0.89628 0.0
C1867 C 0.72986 0.59678 0.8674 0.0
C1868 C 0.69903 0.60168 0.88922 0.0
C1869 C 0.84041 0.61705 0.86801 0.0
N1870 N 0.83383 0.62893 0.88555 0.0
C1871 C 0.85609 0.60266 0.87108 0.0
C1872 C 0.86502 0.60049 0.8923 0.0
C1873 C 0.8582 0.61265 0.91012 0.0
C1874 C 0.84247 0.62686 0.90643 0.0
C1875 C 0.85813 0.68938 0.89943 0.0
C1876 C 0.81781 0.6816 0.91164 0.0
C1877 C 0.84685 0.67373 0.88911 0.0
N1878 N 0.827 0.66995 0.89536 0.0
C1879 C 0.82861 0.69737 0.92235 0.0
C1880 C 0.84892 0.70124 0.91619 0.0
C1881 C 0.76924 0.66616 0.87574 0.0
C1882 C 0.77048 0.61265 0.80246 0.0
C1883 C 0.74521 0.63221 0.83326 0.0
C1884 C 0.7411 0.63403 0.81024 0.0
C1885 C 0.75387 0.6242 0.79477 0.0
N1886 N 0.76157 0.62089 0.84068 0.0
C1887 C 0.7741 0.61113 0.82561 0.0
H1888 H 0.22855 0.16366 0.38594 0.0
H1889 H 0.28224 0.19965 0.3673 0.0
H1890 H 0.26058 0.23039 0.36367 0.0
H1891 H 0.19305 0.18879 0.3481 0.0
H1892 H 0.17184 0.18806 0.36763 0.0
H1893 H 0.19148 0.16858 0.36882 0.0
H1894 H 0.19796 0.17707 0.41088 0.0
H1895 H 0.17832 0.19656 0.40982 0.0
H1896 H 0.20392 0.20311 0.41894 0.0
H1897 H 0.2335 0.25736 0.36202 0.0
H1898 H 0.20253 0.27904 0.36286 0.0
H1899 H 0.16603 0.22602 0.38257 0.0
C1900 C 0.23577 0.17799 0.38109 0.0
C1901 C 0.25718 0.1791 0.37689 0.0
C1902 C 0.26593 0.19825 0.37061 0.0
C1903 C 0.25374 0.21587 0.36848 0.0
C1904 C 0.23278 0.21423 0.37267 0.0
C1905 C 0.22381 0.19583 0.37887 0.0
C1906 C 0.20086 0.19842 0.38248 0.0
C1907 C 0.18859 0.18517 0.36576 0.0
C1908 C 0.19492 0.1935 0.40699 0.0
C1909 C 0.19842 0.22115 0.37739 0.0
C1910 C 0.21704 0.22992 0.37173 0.0
C1911 C 0.2188 0.25068 0.3664 0.0
C1912 C 0.20107 0.26287 0.36691 0.0
C1913 C 0.18173 0.25432 0.37273 0.0
C1914 C 0.1805 0.2331 0.378 0.0
H1915 H 0.74038 0.19516 0.36891 0.0
H1916 H 0.77952 0.14309 0.38545 0.0
H1917 H 0.80927 0.16596 0.38772 0.0
H1918 H 0.7781 0.22212 0.33446 0.0
H1919 H 0.77077 0.24728 0.34427 0.0
H1920 H 0.75207 0.22687 0.34344 0.0
H1921 H 0.74443 0.23238 0.38585 0.0
H1922 H 0.76316 0.25276 0.38683 0.0
H1923 H 0.76522 0.23129 0.4059 0.0
H1924 H 0.83465 0.19361 0.38929 0.0
H1925 H 0.85516 0.22512 0.38902 0.0
H1926 H 0.8008 0.26049 0.37118 0.0
C1927 C 0.75523 0.18856 0.37286 0.0
C1928 C 0.75747 0.1672 0.37692 0.0
C1929 C 0.77722 0.15929 0.38217 0.0
C1930 C 0.79432 0.17218 0.38355 0.0
C1931 C 0.79158 0.19305 0.37964 0.0
C1932 C 0.77264 0.20129 0.37432 0.0
C1933 C 0.77425 0.22443 0.37109 0.0
C1934 C 0.76846 0.23053 0.34687 0.0
C1935 C 0.76097 0.23589 0.38845 0.0
C1936 C 0.79702 0.22774 0.37551 0.0
C1937 C 0.80658 0.20934 0.38043 0.0
C1938 C 0.82741 0.20815 0.38535 0.0
C1939 C 0.83894 0.22624 0.38514 0.0
C1940 C 0.82971 0.24542 0.37994 0.0
C1941 C 0.80837 0.24612 0.37514 0.0
H1942 H 0.80433 0.74298 0.37319 0.0
H1943 H 0.85823 0.7822 0.36877 0.0
H1944 H 0.83615 0.81233 0.36408 0.0
H1945 H 0.77196 0.7713 0.33358 0.0
H1946 H 0.7489 0.7683 0.35009 0.0
H1947 H 0.7688 0.74907 0.35138 0.0
H1948 H 0.77069 0.75323 0.39474 0.0
H1949 H 0.75075 0.7724 0.39359 0.0
H1950 H 0.77505 0.77836 0.40662 0.0
H1951 H 0.80912 0.83825 0.36024 0.0
H1952 H 0.77817 0.85959 0.36131 0.0
H1953 H 0.74064 0.80488 0.37055 0.0
C1954 C 0.81146 0.75789 0.371 0.0
C1955 C 0.83313 0.76008 0.37094 0.0
C1956 C 0.84179 0.77994 0.36857 0.0
C1957 C 0.82935 0.79724 0.36585 0.0
C1958 C 0.80816 0.79458 0.36587 0.0
C1959 C 0.79917 0.77552 0.36869 0.0
C1960 C 0.77591 0.77742 0.36967 0.0
C1961 C 0.7658 0.76583 0.35001 0.0
C1962 C 0.76762 0.76991 0.39252 0.0
C1963 C 0.77338 0.80052 0.36709 0.0
C1964 C 0.79225 0.80995 0.36459 0.0
C1965 C 0.79421 0.8311 0.36219 0.0
C1966 C 0.77644 0.8431 0.36281 0.0
C1967 C 0.75683 0.83401 0.36606 0.0
C1968 C 0.75533 0.81234 0.36792 0.0
H1969 H 0.19287 0.74553 0.37317 0.0
H1970 H 0.13879 0.78458 0.37745 0.0
H1971 H 0.16067 0.81513 0.37596 0.0
H1972 H 0.22443 0.77726 0.40912 0.0
H1973 H 0.24778 0.77295 0.39349 0.0
H1974 H 0.22794 0.75363 0.39375 0.0
H1975 H 0.22687 0.75416 0.35012 0.0
H1976 H 0.24667 0.77352 0.34972 0.0
H1977 H 0.22257 0.77814 0.33564 0.0
H1978 H 0.18744 0.84145 0.37388 0.0
H1979 H 0.21838 0.86278 0.37398 0.0
H1980 H 0.25642 0.80781 0.37288 0.0
C1981 C 0.18564 0.76051 0.37365 0.0
C1982 C 0.16398 0.76252 0.37508 0.0
C1983 C 0.15523 0.78246 0.37606 0.0
C1984 C 0.16755 0.80001 0.37524 0.0
C1985 C 0.1887 0.79751 0.37371 0.0
C1986 C 0.1978 0.77835 0.37316 0.0
C1987 C 0.22109 0.7803 0.37249 0.0
C1988 C 0.23088 0.77045 0.39346 0.0
C1989 C 0.22981 0.77098 0.35069 0.0
C1990 C 0.22349 0.80354 0.37273 0.0
C1991 C 0.20452 0.81302 0.37324 0.0
C1992 C 0.20243 0.83425 0.37353 0.0
C1993 C 0.22021 0.84625 0.37357 0.0
C1994 C 0.24 0.83707 0.37348 0.0
C1995 C 0.24159 0.81534 0.37292 0.0
H1996 H 0.16736 0.76823 0.6287 0.0
H1997 H 0.20462 0.71282 0.62948 0.0
H1998 H 0.23598 0.73409 0.63108 0.0
H1999 H 0.20053 0.79812 0.59377 0.0
H2000 H 0.19595 0.82177 0.60875 0.0
H2001 H 0.17642 0.80217 0.60806 0.0
H2002 H 0.1754 0.80178 0.65173 0.0
H2003 H 0.19494 0.82139 0.65254 0.0
H2004 H 0.1988 0.79748 0.66729 0.0
H2005 H 0.26335 0.76141 0.63162 0.0
H2006 H 0.28471 0.7927 0.63153 0.0
H2007 H 0.22949 0.83024 0.63107 0.0
C2008 C 0.18207 0.76049 0.62929 0.0
C2009 C 0.18344 0.73877 0.62898 0.0
C2010 C 0.2031 0.72939 0.62973 0.0
C2011 C 0.22103 0.74134 0.63064 0.0
C2012 C 0.21908 0.76267 0.63089 0.0
C2013 C 0.20011 0.77216 0.6303 0.0
C2014 C 0.20224 0.79535 0.63058 0.0
C2015 C 0.19325 0.80491 0.609 0.0
C2016 C 0.19225 0.80454 0.6518 0.0
C2017 C 0.22541 0.79743 0.63127 0.0
C2018 C 0.23483 0.7784 0.63143 0.0
C2019 C 0.25614 0.77639 0.6316 0.0
C2020 C 0.26815 0.79429 0.63152 0.0
C2021 C 0.25884 0.81401 0.63135 0.0
C2022 C 0.23714 0.81546 0.63134 0.0
H2023 H 0.2617 0.19392 0.63964 0.0
H2024 H 0.2276 0.14159 0.61352 0.0
H2025 H 0.19669 0.1629 0.61057 0.0
H2026 H 0.22038 0.21526 0.67269 0.0
H2027 H 0.22667 0.24161 0.66637 0.0
H2028 H 0.24657 0.22237 0.66658 0.0
H2029 H 0.25665 0.23229 0.62576 0.0
H2030 H 0.23679 0.25158 0.62543 0.0
H2031 H 0.23735 0.232 0.60396 0.0
H2032 H 0.16942 0.18903 0.61053 0.0
H2033 H 0.14697 0.21919 0.61279 0.0
H2034 H 0.19794 0.25556 0.6385 0.0
C2035 C 0.24773 0.18695 0.63332 0.0
C2036 C 0.24718 0.16597 0.62696 0.0
C2037 C 0.22855 0.15752 0.61865 0.0
C2038 C 0.21083 0.16952 0.61686 0.0
C2039 C 0.21187 0.19001 0.62333 0.0
C2040 C 0.22978 0.19877 0.63132 0.0
C2041 C 0.2265 0.2213 0.63695 0.0
C2042 C 0.23025 0.22537 0.66215 0.0
C2043 C 0.24014 0.23511 0.62214 0.0
C2044 C 0.20394 0.2237 0.63094 0.0
C2045 C 0.19591 0.20539 0.62314 0.0
C2046 C 0.17549 0.20349 0.61659 0.0
C2047 C 0.16285 0.22079 0.61799 0.0
C2048 C 0.1706 0.23986 0.62588 0.0
C2049 C 0.1915 0.24126 0.63243 0.0
H2050 H 0.76694 0.16748 0.62038 0.0
H2051 H 0.71382 0.20515 0.63659 0.0
H2052 H 0.73602 0.2359 0.63738 0.0
H2053 H 0.80272 0.19398 0.65585 0.0
H2054 H 0.82383 0.19142 0.63638 0.0
H2055 H 0.80369 0.17243 0.63679 0.0
H2056 H 0.79732 0.17832 0.59416 0.0
H2057 H 0.81742 0.19736 0.59362 0.0
H2058 H 0.79196 0.2039 0.58406 0.0
H2059 H 0.76409 0.26253 0.63666 0.0
H2060 H 0.79592 0.283 0.63502 0.0
H2061 H 0.8306 0.22776 0.61927 0.0
C2062 C 0.75989 0.18216 0.6241 0.0
C2063 C 0.73857 0.18383 0.62845 0.0
C2064 C 0.73008 0.20341 0.63323 0.0
C2065 C 0.74257 0.221 0.63369 0.0
C2066 C 0.76349 0.21876 0.62933 0.0
C2067 C 0.77209 0.19983 0.62466 0.0
C2068 C 0.79504 0.20154 0.6208 0.0
C2069 C 0.80702 0.18911 0.63851 0.0
C2070 C 0.80076 0.19489 0.59672 0.0
C2071 C 0.79802 0.22441 0.62406 0.0
C2072 C 0.77964 0.23407 0.62894 0.0
C2073 C 0.77857 0.25514 0.63284 0.0
C2074 C 0.79677 0.26663 0.63186 0.0
C2075 C 0.81586 0.25704 0.62705 0.0
C2076 C 0.81634 0.23563 0.62298 0.0
H2077 H 0.80703 0.74138 0.62851 0.0
H2078 H 0.85887 0.77816 0.6507 0.0
H2079 H 0.83613 0.80778 0.65618 0.0
H2080 H 0.78314 0.78057 0.59693 0.0
H2081 H 0.75713 0.77367 0.60412 0.0
H2082 H 0.77694 0.75436 0.60406 0.0
H2083 H 0.76826 0.74511 0.64543 0.0
H2084 H 0.74836 0.76438 0.6456 0.0
H2085 H 0.76838 0.765 0.66659 0.0
H2086 H 0.80918 0.83402 0.65646 0.0
H2087 H 0.77894 0.85603 0.65153 0.0
H2088 H 0.74344 0.80322 0.62919 0.0
C2089 C 0.81345 0.75557 0.63493 0.0
C2090 C 0.83478 0.75745 0.63916 0.0
C2091 C 0.84269 0.77637 0.64716 0.0
C2092 C 0.82985 0.79328 0.65048 0.0
C2093 C 0.80905 0.79111 0.64574 0.0
C2094 C 0.80079 0.7728 0.63819 0.0
C2095 C 0.77805 0.77526 0.63301 0.0
C2096 C 0.77356 0.7707 0.60805 0.0
C2097 C 0.76499 0.76163 0.64859 0.0
C2098 C 0.77507 0.79789 0.63839 0.0
C2099 C 0.79318 0.80658 0.6459 0.0
C2100 C 0.7948 0.82739 0.65088 0.0
C2101 C 0.77748 0.83979 0.64796 0.0
C2102 C 0.75869 0.8314 0.64011 0.0
C2103 C 0.75747 0.81007 0.63552 0.0
H2104 H 0.66384 0.72872 0.87533 0.0
H2105 H 0.69982 0.78439 0.86621 0.0
H2106 H 0.73156 0.76375 0.86584 0.0
H2107 H 0.69852 0.70358 0.9124 0.0
H2108 H 0.69425 0.67835 0.90077 0.0
H2109 H 0.67421 0.69739 0.8995 0.0
H2110 H 0.67216 0.69306 0.85613 0.0
H2111 H 0.69212 0.67391 0.8573 0.0
H2112 H 0.69509 0.6961 0.8394 0.0
H2113 H 0.75964 0.73714 0.86795 0.0
H2114 H 0.78168 0.70633 0.87076 0.0
H2115 H 0.72718 0.66829 0.87815 0.0
C2116 C 0.67835 0.73661 0.87305 0.0
C2117 C 0.67924 0.75822 0.87077 0.0
C2118 C 0.69864 0.76786 0.86792 0.0
C2119 C 0.7168 0.75628 0.86773 0.0
C2120 C 0.71536 0.73506 0.87031 0.0
C2121 C 0.69663 0.7253 0.87276 0.0
C2122 C 0.69932 0.70233 0.87545 0.0
C2123 C 0.69109 0.69499 0.8984 0.0
C2124 C 0.68907 0.69067 0.8559 0.0
C2125 C 0.7225 0.70073 0.87431 0.0
C2126 C 0.7315 0.71976 0.87136 0.0
C2127 C 0.75276 0.72213 0.87014 0.0
C2128 C 0.76516 0.70454 0.87182 0.0
C2129 C 0.75623 0.68483 0.87461 0.0
C2130 C 0.73458 0.68306 0.87592 0.0
H2131 H 0.27907 0.66718 0.88889 0.0
H2132 H 0.2245 0.70287 0.87303 0.0
H2133 H 0.24559 0.73428 0.87124 0.0
H2134 H 0.30411 0.70585 0.92357 0.0
H2135 H 0.32942 0.69964 0.91329 0.0
H2136 H 0.30985 0.68007 0.91441 0.0
H2137 H 0.31512 0.67277 0.87186 0.0
H2138 H 0.33462 0.69238 0.87058 0.0
H2139 H 0.3128 0.69354 0.8519 0.0
H2140 H 0.27274 0.76159 0.86953 0.0
H2141 H 0.30392 0.7831 0.8692 0.0
H2142 H 0.34078 0.72955 0.88604 0.0
C2143 C 0.27147 0.68159 0.88523 0.0
C2144 C 0.25007 0.68247 0.88106 0.0
C2145 C 0.24084 0.70172 0.87628 0.0
C2146 C 0.25269 0.71969 0.87521 0.0
C2147 C 0.27375 0.71819 0.879 0.0
C2148 C 0.28305 0.69967 0.88404 0.0
C2149 C 0.30605 0.70219 0.88687 0.0
C2150 C 0.31275 0.69661 0.91097 0.0
C2151 C 0.31784 0.68947 0.86925 0.0
C2152 C 0.30822 0.72501 0.88249 0.0
C2153 C 0.28941 0.73395 0.878 0.0
C2154 C 0.28756 0.75479 0.87311 0.0
C2155 C 0.3054 0.76687 0.87291 0.0
C2156 C 0.32488 0.75807 0.87757 0.0
C2157 C 0.32618 0.73682 0.88241 0.0
H2158 H 0.3407 0.27052 0.87821 0.0
H2159 H 0.30276 0.21563 0.88183 0.0
H2160 H 0.27169 0.23726 0.88299 0.0
H2161 H 0.31064 0.30102 0.91613 0.0
H2162 H 0.31432 0.32452 0.90057 0.0
H2163 H 0.33364 0.30473 0.89968 0.0
H2164 H 0.33141 0.30399 0.85607 0.0
H2165 H 0.31213 0.32383 0.85681 0.0
H2166 H 0.30687 0.29988 0.8427 0.0
H2167 H 0.24467 0.26487 0.88379 0.0
H2168 H 0.22372 0.29648 0.88365 0.0
H2169 H 0.27949 0.33312 0.88012 0.0
C2170 C 0.32588 0.26298 0.87916 0.0
C2171 C 0.32424 0.24133 0.87989 0.0
C2172 C 0.30448 0.23217 0.88123 0.0
C2173 C 0.28671 0.24432 0.88192 0.0
C2174 C 0.28892 0.2656 0.88132 0.0
C2175 C 0.308 0.27485 0.87994 0.0
C2176 C 0.30615 0.29803 0.87962 0.0
C2177 C 0.31682 0.30763 0.90023 0.0
C2178 C 0.31464 0.30695 0.85748 0.0
C2179 C 0.28305 0.30035 0.881 0.0
C2180 C 0.27338 0.28148 0.88196 0.0
C2181 C 0.25206 0.27975 0.88306 0.0
C2182 C 0.2403 0.29781 0.88298 0.0
C2183 C 0.2499 0.31734 0.88184 0.0
C2184 C 0.2716 0.31849 0.88101 0.0
H2185 H 0.66468 0.27511 0.88285 0.0
H2186 H 0.70183 0.22015 0.87468 0.0
H2187 H 0.7332 0.24144 0.87459 0.0
H2188 H 0.69499 0.30815 0.84748 0.0
H2189 H 0.69172 0.33038 0.86523 0.0
H2190 H 0.67214 0.31082 0.86441 0.0
H2191 H 0.67463 0.30669 0.90776 0.0
H2192 H 0.69423 0.32622 0.90873 0.0
H2193 H 0.69917 0.30116 0.92049 0.0
H2194 H 0.76062 0.26886 0.87488 0.0
H2195 H 0.7819 0.30028 0.87604 0.0
H2196 H 0.72675 0.33694 0.8854 0.0
C2197 C 0.67938 0.26751 0.88096 0.0
C2198 C 0.68073 0.24592 0.87872 0.0
C2199 C 0.70035 0.23664 0.87645 0.0
C2200 C 0.71828 0.24861 0.87636 0.0
C2201 C 0.71639 0.26981 0.8787 0.0
C2202 C 0.69745 0.27918 0.88102 0.0
C2203 C 0.69965 0.30223 0.88353 0.0
C2204 C 0.689 0.31356 0.86399 0.0
C2205 C 0.69144 0.30949 0.9065 0.0
C2206 C 0.72279 0.30436 0.88217 0.0
C2207 C 0.73218 0.28552 0.87931 0.0
C2208 C 0.75344 0.2837 0.87719 0.0
C2209 C 0.7654 0.30165 0.87787 0.0
C2210 C 0.75607 0.32117 0.88076 0.0
C2211 C 0.73446 0.32236 0.88313 0.0
H2212 H 0.69796 0.2445 0.1324 0.0
H2213 H 0.64141 0.28012 0.13296 0.0
H2214 H 0.66144 0.31199 0.13171 0.0
H2215 H 0.72708 0.2796 0.16803 0.0
H2216 H 0.75079 0.276 0.15284 0.0
H2217 H 0.73212 0.25557 0.15395 0.0
H2218 H 0.73151 0.25415 0.11032 0.0
H2219 H 0.75011 0.27462 0.10909 0.0
H2220 H 0.72592 0.27717 0.09456 0.0
H2221 H 0.68682 0.33996 0.1288 0.0
H2222 H 0.71663 0.36296 0.1269 0.0
H2223 H 0.75752 0.31017 0.12965 0.0
C2224 C 0.6898 0.259 0.13239 0.0
C2225 C 0.66803 0.25966 0.13274 0.0
C2226 C 0.65801 0.27903 0.1327 0.0
C2227 C 0.66925 0.29732 0.13195 0.0
C2228 C 0.69057 0.29612 0.13141 0.0
C2229 C 0.70083 0.27754 0.13182 0.0
C2230 C 0.72393 0.28083 0.13125 0.0
C2231 C 0.73407 0.27251 0.15281 0.0
C2232 C 0.73342 0.27112 0.11004 0.0
C2233 C 0.72493 0.30414 0.13031 0.0
C2234 C 0.70545 0.31254 0.1303 0.0
C2235 C 0.70219 0.33362 0.12901 0.0
C2236 C 0.7193 0.34657 0.12793 0.0
C2237 C 0.73953 0.33848 0.12835 0.0
C2238 C 0.7423 0.3169 0.12948 0.0
H2239 H 0.76027 0.69873 0.12737 0.0
H2240 H 0.72569 0.64414 0.14614 0.0
H2241 H 0.69516 0.66516 0.15253 0.0
H2242 H 0.73483 0.73432 0.16692 0.0
H2243 H 0.7343 0.75532 0.1471 0.0
H2244 H 0.75454 0.73644 0.14569 0.0
H2245 H 0.74548 0.72916 0.10395 0.0
H2246 H 0.72529 0.74805 0.10522 0.0
H2247 H 0.71953 0.72212 0.09661 0.0
H2248 H 0.66796 0.69068 0.15509 0.0
H2249 H 0.64441 0.71984 0.15183 0.0
H2250 H 0.69486 0.75909 0.13089 0.0
C2251 C 0.74635 0.69127 0.13311 0.0
C2252 C 0.74562 0.6697 0.13654 0.0
C2253 C 0.72692 0.66055 0.14363 0.0
C2254 C 0.70938 0.67239 0.14737 0.0
C2255 C 0.71058 0.69346 0.14385 0.0
C2256 C 0.72845 0.70292 0.13676 0.0
C2257 C 0.72484 0.72576 0.1329 0.0
C2258 C 0.73791 0.73873 0.14913 0.0
C2259 C 0.72903 0.73161 0.1082 0.0
C2260 C 0.70209 0.72741 0.13855 0.0
C2261 C 0.6944 0.70853 0.14505 0.0
C2262 C 0.67378 0.7056 0.15018 0.0
C2263 C 0.66047 0.7223 0.14819 0.0
C2264 C 0.6677 0.74178 0.14111 0.0
C2265 C 0.68892 0.74446 0.13665 0.0
H2266 H 0.26822 0.66714 0.12086 0.0
H2267 H 0.21326 0.70345 0.13285 0.0
H2268 H 0.23449 0.73482 0.1349 0.0
H2269 H 0.30121 0.69484 0.1583 0.0
H2270 H 0.32342 0.69282 0.14028 0.0
H2271 H 0.30385 0.67325 0.13947 0.0
H2272 H 0.29963 0.6788 0.09646 0.0
H2273 H 0.31922 0.69836 0.09713 0.0
H2274 H 0.29416 0.70418 0.08587 0.0
H2275 H 0.26199 0.76234 0.13624 0.0
H2276 H 0.2934 0.78368 0.13606 0.0
H2277 H 0.33001 0.72916 0.12287 0.0
C2278 C 0.26057 0.68166 0.12388 0.0
C2279 C 0.239 0.68273 0.12671 0.0
C2280 C 0.22972 0.70214 0.1306 0.0
C2281 C 0.24166 0.72008 0.13182 0.0
C2282 C 0.26286 0.71842 0.12906 0.0
C2283 C 0.27221 0.6997 0.1251 0.0
C2284 C 0.29526 0.70204 0.12276 0.0
C2285 C 0.3066 0.69003 0.14131 0.0
C2286 C 0.30248 0.69546 0.09915 0.0
C2287 C 0.29743 0.72501 0.12606 0.0
C2288 C 0.2786 0.7342 0.12971 0.0
C2289 C 0.27682 0.7553 0.13336 0.0
C2290 C 0.29477 0.7673 0.13326 0.0
C2291 C 0.31426 0.75818 0.12949 0.0
C2292 C 0.31544 0.73671 0.12583 0.0
H2293 H 0.27728 0.34031 0.12933 0.0
H2294 H 0.22092 0.30459 0.1251 0.0
H2295 H 0.24104 0.2727 0.12614 0.0
H2296 H 0.30791 0.30696 0.09424 0.0
H2297 H 0.33096 0.31006 0.11075 0.0
H2298 H 0.3122 0.3304 0.10975 0.0
H2299 H 0.30976 0.32997 0.15334 0.0
H2300 H 0.32849 0.30961 0.15445 0.0
H2301 H 0.30376 0.30627 0.16763 0.0
H2302 H 0.26683 0.24456 0.1275 0.0
H2303 H 0.29701 0.22181 0.12886 0.0
H2304 H 0.337 0.27525 0.13237 0.0
C2305 C 0.26915 0.32579 0.12862 0.0
C2306 C 0.24744 0.32509 0.12717 0.0
C2307 C 0.23749 0.30569 0.12626 0.0
C2308 C 0.24879 0.2874 0.12684 0.0
C2309 C 0.27007 0.28864 0.12834 0.0
C2310 C 0.28022 0.30728 0.1292 0.0
C2311 C 0.30329 0.30415 0.13074 0.0
C2312 C 0.31423 0.31344 0.11014 0.0
C2313 C 0.31182 0.31303 0.15286 0.0
C2314 C 0.30444 0.28085 0.13056 0.0
C2315 C 0.28508 0.27226 0.12918 0.0
C2316 C 0.2821 0.25108 0.12861 0.0
C2317 C 0.29938 0.23827 0.12941 0.0
C2318 C 0.31946 0.24665 0.13077 0.0
C2319 C 0.32191 0.26829 0.13141 0.0
H2320 H 0.95994 0.30594 0.42179 0.0
H2321 H 0.94485 0.29451 0.3516 0.0
H2322 H 0.98171 0.29454 0.34212 0.0
H2323 H 0.00555 0.33953 0.41028 0.0
H2324 H 0.01943 0.32935 0.43409 0.0
H2325 H 0.99178 0.33091 0.43489 0.0
H2326 H 0.98991 0.29199 0.44382 0.0
H2327 H 0.01748 0.29023 0.44276 0.0
H2328 H 0.00201 0.27393 0.42499 0.0
H2329 H 0.01988 0.29 0.34134 0.0
H2330 H 0.05705 0.28568 0.3485 0.0
H2331 H 0.04791 0.30254 0.41847 0.0
C2332 C 0.96436 0.30402 0.40432 0.0
C2333 C 0.94945 0.30027 0.38745 0.0
C2334 C 0.95591 0.2976 0.36482 0.0
C2335 C 0.97686 0.29751 0.35926 0.0
C2336 C 0.99117 0.3005 0.37642 0.0
C2337 C 0.98522 0.30418 0.39841 0.0
C2338 C 0.00374 0.30603 0.41381 0.0
C2339 C 0.00521 0.32775 0.42386 0.0
C2340 C 0.00325 0.28956 0.43244 0.0
C2341 C 0.02099 0.30208 0.39719 0.0
C2342 C 0.01337 0.29887 0.37572 0.0
C2343 C 0.02608 0.29301 0.35794 0.0
C2344 C 0.04713 0.29047 0.36218 0.0
C2345 C 0.0553 0.29408 0.38392 0.0
C2346 C 0.04208 0.30017 0.40157 0.0
H2347 H 0.67455 0.04356 0.36104 0.0
H2348 H 0.7101 0.0544 0.42172 0.0
H2349 H 0.70816 0.01762 0.43115 0.0
H2350 H 0.64191 1.0002 0.38401 0.0
H2351 H 0.64305 0.98627 0.35778 0.0
H2352 H 0.64375 0.01398 0.35772 0.0
H2353 H 0.6778 0.0131 0.33514 0.0
H2354 H 0.67723 0.98547 0.33518 0.0
H2355 H 0.69935 0.99885 0.34613 0.0
H2356 H 0.70755 0.97995 0.43115 0.0
H2357 H 0.70805 0.94304 0.42169 0.0
H2358 H 0.6725 0.95517 0.3614 0.0
C2359 C 0.68124 0.03822 0.37669 0.0
C2360 C 0.69225 0.05181 0.39083 0.0
C2361 C 0.70149 0.04423 0.41076 0.0
C2362 C 0.70039 0.02338 0.41631 0.0
C2363 C 0.69 0.01022 0.40176 0.0
C2364 C 0.68048 0.01725 0.38239 0.0
C2365 C 0.67245 0.9994 0.36842 0.0
C2366 C 0.64889 1.0 0.3669 0.0
C2367 C 0.6823 0.9992 0.34483 0.0
C2368 C 0.67966 0.9813 0.38254 0.0
C2369 C 0.68949 0.988 0.40186 0.0
C2370 C 0.69941 0.97445 0.41643 0.0
C2371 C 0.69964 0.95355 0.41094 0.0
C2372 C 0.68988 0.94634 0.39119 0.0
C2373 C 0.67939 0.9603 0.37703 0.0
H2374 H 0.04167 0.71963 0.37166 0.0
H2375 H 0.05638 0.66404 0.40871 0.0
H2376 H 0.01917 0.65611 0.41172 0.0
H2377 H 0.99897 0.73379 0.40388 0.0
H2378 H 0.98468 0.74387 0.38033 0.0
H2379 H 0.01232 0.74394 0.37969 0.0
H2380 H 0.01179 0.72354 0.34213 0.0
H2381 H 0.98411 0.72347 0.34262 0.0
H2382 H 0.99797 0.69956 0.34062 0.0
H2383 H 0.97936 0.6559 0.41246 0.0
H2384 H 0.94197 0.66342 0.41071 0.0
H2385 H 0.95512 0.71915 0.37316 0.0
C2386 C 0.03721 0.70564 0.38023 0.0
C2387 C 0.05199 0.69246 0.38997 0.0
C2388 C 0.04534 0.67434 0.40104 0.0
C2389 C 0.02423 0.66973 0.40284 0.0
C2390 C 0.01005 0.68334 0.39336 0.0
C2391 C 0.0164 0.70087 0.38218 0.0
C2392 C 0.99842 0.71361 0.37424 0.0
C2393 C 0.99861 0.73506 0.38519 0.0
C2394 C 0.99805 0.71512 0.34837 0.0
C2395 C 0.98084 0.70072 0.38292 0.0
C2396 C 0.98767 0.68324 0.39383 0.0
C2397 C 0.97391 0.66948 0.4038 0.0
C2398 C 0.9527 0.67385 0.40272 0.0
C2399 C 0.94556 0.69189 0.39186 0.0
C2400 C 0.95995 0.70523 0.38166 0.0
H2401 H 0.27958 0.96026 0.37125 0.0
H2402 H 0.33496 0.94613 0.40899 0.0
H2403 H 0.34108 0.98337 0.4145 0.0
H2404 H 0.29818 0.00667 0.34379 0.0
H2405 H 0.27369 0.01942 0.3461 0.0
H2406 H 0.27478 0.99183 0.34376 0.0
H2407 H 0.25371 0.98838 0.38062 0.0
H2408 H 0.25266 0.01592 0.38319 0.0
H2409 H 0.26283 1.00067 0.40596 0.0
H2410 H 0.34029 0.02248 0.41678 0.0
H2411 H 0.3325 0.05967 0.41621 0.0
H2412 H 0.27679 0.0474 0.37829 0.0
C2413 C 0.29319 0.96489 0.38042 0.0
C2414 C 0.30687 0.9502 0.38958 0.0
C2415 C 0.32432 0.95707 0.40171 0.0
C2416 C 0.32791 0.97819 0.40493 0.0
C2417 C 0.31386 0.99221 0.39598 0.0
C2418 C 0.29686 0.98579 0.38396 0.0
C2419 C 0.28353 0.00375 0.37694 0.0
C2420 C 0.28249 0.00552 0.35111 0.0
C2421 C 0.26191 0.00207 0.3873 0.0
C2422 C 0.29552 0.02136 0.38712 0.0
C2423 C 0.31308 0.01446 0.39784 0.0
C2424 C 0.32659 0.02801 0.40842 0.0
C2425 C 0.32202 0.04912 0.40801 0.0
C2426 C 0.30398 0.05645 0.39731 0.0
C2427 C 0.29062 0.0423 0.38675 0.0
H2428 H 0.04899 0.67737 0.63193 0.0
H2429 H 0.0601 0.72931 0.58779 0.0
H2430 H 0.02316 0.73088 0.57865 0.0
H2431 H 0.00578 0.65393 0.59982 0.0
H2432 H 0.9916 0.64748 0.62494 0.0
H2433 H 0.01929 0.6482 0.62559 0.0
H2434 H 0.0181 0.67418 0.65865 0.0
H2435 H 0.99046 0.67345 0.65815 0.0
H2436 H 0.0037 0.69767 0.65547 0.0
H2437 H 0.98558 0.72879 0.57623 0.0
H2438 H 0.94856 0.72562 0.58345 0.0
H2439 H 0.96027 0.67615 0.63088 0.0
C2440 C 0.04358 0.68873 0.61998 0.0
C2441 C 0.05728 0.70307 0.61028 0.0
C2442 C 0.04976 0.71816 0.59526 0.0
C2443 C 0.02886 0.71907 0.58986 0.0
C2444 C 0.01563 0.70493 0.59985 0.0
C2445 C 0.02256 0.69017 0.6148 0.0
C2446 C 0.00463 0.67848 0.62509 0.0
C2447 C 0.00537 0.65566 0.61846 0.0
C2448 C 0.0042 0.68111 0.65087 0.0
C2449 C 0.98661 0.68931 0.61396 0.0
C2450 C 0.99346 0.7042 0.59912 0.0
C2451 C 0.97999 0.71707 0.58765 0.0
C2452 C 0.95897 0.71516 0.59191 0.0
C2453 C 0.95151 0.70061 0.6077 0.0
C2454 C 0.9655 0.68714 0.61843 0.0
H2455 H 0.30356 0.94703 0.59191 0.0
H2456 H 0.2912 0.94002 0.66331 0.0
H2457 H 0.29561 0.97745 0.66865 0.0
H2458 H 0.34069 0.9898 0.59568 0.0
H2459 H 0.33048 0.00254 0.57113 0.0
H2460 H 0.32919 0.97495 0.57334 0.0
H2461 H 0.28975 0.97627 0.56743 0.0
H2462 H 0.29095 0.0038 0.5651 0.0
H2463 H 0.2743 0.9921 0.58572 0.0
H2464 H 0.29968 0.01553 0.66599 0.0
H2465 H 0.29897 0.052 0.65517 0.0
H2466 H 0.30634 0.03483 0.58488 0.0
C2467 C 0.30223 0.95338 0.60872 0.0
C2468 C 0.29736 0.94071 0.62729 0.0
C2469 C 0.29506 0.94953 0.64893 0.0
C2470 C 0.29766 0.97072 0.65213 0.0
C2471 C 0.30229 0.98288 0.63345 0.0
C2472 C 0.3043 0.97459 0.61211 0.0
C2473 C 0.30704 0.99131 0.59454 0.0
C2474 C 0.32811 0.98954 0.58299 0.0
C2475 C 0.28946 0.99084 0.57718 0.0
C2476 C 0.30591 0.0103 0.60929 0.0
C2477 C 0.30362 0.00504 0.63172 0.0
C2478 C 0.30156 0.01985 0.64849 0.0
C2479 C 0.30123 0.04058 0.64214 0.0
C2480 C 0.30259 0.04637 0.61913 0.0
C2481 C 0.30541 0.03096 0.6026 0.0
H2482 H 0.03959 0.2993 0.58208 0.0
H2483 H 0.05385 0.28601 0.6521 0.0
H2484 H 0.01704 0.28751 0.66145 0.0
H2485 H 0.99568 0.33479 0.59423 0.0
H2486 H 0.98134 0.32576 0.5702 0.0
H2487 H 0.00903 0.32595 0.56944 0.0
H2488 H 0.00896 0.28715 0.55968 0.0
H2489 H 0.98133 0.28676 0.56067 0.0
H2490 H 0.99591 0.26938 0.5781 0.0
H2491 H 0.97885 0.28472 0.66208 0.0
H2492 H 0.94153 0.28229 0.65482 0.0
H2493 H 0.9515 0.30009 0.58526 0.0
C2494 C 0.03501 0.29723 0.59948 0.0
C2495 C 0.04965 0.29255 0.61634 0.0
C2496 C 0.043 0.28977 0.63889 0.0
C2497 C 0.02208 0.29052 0.64439 0.0
C2498 C 0.008 0.29449 0.62725 0.0
C2499 C 0.01417 0.29825 0.60534 0.0
C2500 C 0.9958 0.30131 0.58997 0.0
C2501 C 0.99544 0.32326 0.5804 0.0
C2502 C 0.99549 0.28519 0.57099 0.0
C2503 C 0.97837 0.29792 0.60651 0.0
C2504 C 0.98579 0.29394 0.62791 0.0
C2505 C 0.97281 0.28835 0.64556 0.0
C2506 C 0.95169 0.28689 0.64126 0.0
C2507 C 0.94375 0.29132 0.61961 0.0
C2508 C 0.95723 0.29712 0.60209 0.0
H2509 H 0.72494 0.0458 0.57405 0.0
H2510 H 0.69694 0.05908 0.63883 0.0
H2511 H 0.68945 0.02216 0.64398 0.0
H2512 H 0.69055 0.00299 0.55774 0.0
H2513 H 0.71126 0.98861 0.54517 0.0
H2514 H 0.71202 0.0163 0.54526 0.0
H2515 H 0.74751 0.01538 0.56509 0.0
H2516 H 0.74688 0.98776 0.56499 0.0
H2517 H 0.75027 0.00141 0.59116 0.0
H2518 H 0.68784 0.98362 0.64364 0.0
H2519 H 0.69387 0.94645 0.63881 0.0
H2520 H 0.72327 0.95836 0.5744 0.0
C2521 C 0.71684 0.04102 0.5891 0.0
C2522 C 0.7114 0.05534 0.60597 0.0
C2523 C 0.70121 0.04838 0.62565 0.0
C2524 C 0.69679 0.02746 0.62868 0.0
C2525 C 0.70263 0.01369 0.61186 0.0
C2526 C 0.71245 0.02019 0.59246 0.0
C2527 C 0.71878 0.00215 0.57792 0.0
C2528 C 0.70747 0.00254 0.55518 0.0
C2529 C 0.74225 0.00165 0.57461 0.0
C2530 C 0.7115 0.98446 0.59245 0.0
C2531 C 0.70193 0.99144 0.61178 0.0
C2532 C 0.69507 0.97797 0.62843 0.0
C2533 C 0.69856 0.95686 0.62551 0.0
C2534 C 0.70898 0.94943 0.60618 0.0
C2535 C 0.71503 0.96346 0.58923 0.0
H2536 H 0.54543 0.76838 0.88312 0.0
H2537 H 0.55936 0.83057 0.90489 0.0
H2538 H 0.5223 0.83807 0.90752 0.0
H2539 H 0.50123 0.78117 0.84923 0.0
H2540 H 0.48709 0.75844 0.85707 0.0
H2541 H 0.51476 0.75797 0.85669 0.0
H2542 H 0.5151 0.74592 0.89833 0.0
H2543 H 0.48743 0.74637 0.89884 0.0
H2544 H 0.50182 0.76089 0.91933 0.0
H2545 H 0.4837 0.8389 0.90778 0.0
H2546 H 0.44629 0.83282 0.90608 0.0
H2547 H 0.45745 0.77001 0.88454 0.0
C2548 C 0.54069 0.78359 0.8884 0.0
C2549 C 0.55533 0.79888 0.89383 0.0
C2550 C 0.54847 0.81857 0.90073 0.0
C2551 C 0.52743 0.82301 0.90224 0.0
C2552 C 0.51342 0.80759 0.89684 0.0
C2553 C 0.51974 0.78828 0.89009 0.0
C2554 C 0.50151 0.77441 0.88546 0.0
C2555 C 0.50113 0.7676 0.86063 0.0
C2556 C 0.50147 0.7558 0.90145 0.0
C2557 C 0.48397 0.78895 0.89068 0.0
C2558 C 0.49117 0.80803 0.89716 0.0
C2559 C 0.47787 0.82402 0.90276 0.0
C2560 C 0.45664 0.8204 0.90175 0.0
C2561 C 0.4489 0.80093 0.89525 0.0
C2562 C 0.46284 0.78506 0.88964 0.0
H2563 H 0.20819 0.45316 0.91263 0.0
H2564 H 0.22948 0.44417 0.84408 0.0
H2565 H 0.23199 0.4818 0.83903 0.0
H2566 H 0.17926 0.50122 0.9033 0.0
H2567 H 0.18746 0.51224 0.92968 0.0
H2568 H 0.18478 0.48479 0.927 0.0
H2569 H 0.22247 0.48006 0.94006 0.0
H2570 H 0.22531 0.50747 0.94266 0.0
H2571 H 0.24277 0.49311 0.92511 0.0
H2572 H 0.23373 0.51995 0.84189 0.0
H2573 H 0.23676 0.55627 0.85303 0.0
H2574 H 0.21659 0.54071 0.92071 0.0
C2575 C 0.21287 0.4592 0.89641 0.0
C2576 C 0.21832 0.4459 0.87858 0.0
C2577 C 0.22508 0.4542 0.85783 0.0
C2578 C 0.2265 0.47551 0.85481 0.0
C2579 C 0.22136 0.48825 0.87282 0.0
C2580 C 0.21481 0.48045 0.89328 0.0
C2581 C 0.2121 0.49745 0.91051 0.0
C2582 C 0.18955 0.49901 0.91806 0.0
C2583 C 0.22652 0.49433 0.93077 0.0
C2584 C 0.21838 0.51597 0.89661 0.0
C2585 C 0.22333 0.51031 0.87482 0.0
C2586 C 0.22982 0.52459 0.85888 0.0
C2587 C 0.23147 0.54521 0.86538 0.0
C2588 C 0.22693 0.55135 0.88776 0.0
C2589 C 0.22019 0.53649 0.90351 0.0
H2590 H 0.45771 0.23072 0.87227 0.0
H2591 H 0.44735 0.16906 0.89795 0.0
H2592 H 0.48475 0.16311 0.89875 0.0
H2593 H 0.50206 0.21828 0.83693 0.0
H2594 H 0.51519 0.24197 0.84329 0.0
H2595 H 0.48751 0.24109 0.84345 0.0
H2596 H 0.4872 0.25495 0.88438 0.0
H2597 H 0.51486 0.25586 0.88436 0.0
H2598 H 0.5015 0.24157 0.90588 0.0
H2599 H 0.52302 0.16422 0.89849 0.0
H2600 H 0.55995 0.17234 0.89742 0.0
H2601 H 0.54598 0.23337 0.872 0.0
C2602 C 0.4633 0.21588 0.87782 0.0
C2603 C 0.44958 0.20033 0.88502 0.0
C2604 C 0.45753 0.18122 0.89239 0.0
C2605 C 0.47877 0.17766 0.89285 0.0
C2606 C 0.49187 0.19335 0.88588 0.0
C2607 C 0.48449 0.21208 0.87847 0.0
C2608 C 0.50199 0.2266 0.87276 0.0
C2609 C 0.50166 0.23231 0.84761 0.0
C2610 C 0.50134 0.24588 0.88774 0.0
C2611 C 0.52033 0.21317 0.87837 0.0
C2612 C 0.51409 0.19402 0.88579 0.0
C2613 C 0.52811 0.17912 0.89259 0.0
C2614 C 0.54907 0.18392 0.89197 0.0
C2615 C 0.55589 0.2035 0.88463 0.0
C2616 C 0.54127 0.21823 0.87754 0.0
H2617 H 0.8077 0.45948 0.90578 0.0
H2618 H 0.76578 0.44644 0.85065 0.0
H2619 H 0.76431 0.48325 0.84141 0.0
H2620 H 0.78261 0.50467 0.92388 0.0
H2621 H 0.80568 0.51848 0.93118 0.0
H2622 H 0.80537 0.49084 0.93223 0.0
H2623 H 0.83658 0.48954 0.90516 0.0
H2624 H 0.83699 0.51722 0.90404 0.0
H2625 H 0.83521 0.50253 0.87836 0.0
H2626 H 0.76532 0.52104 0.83936 0.0
H2627 H 0.76783 0.55831 0.84533 0.0
H2628 H 0.80859 0.54806 0.90224 0.0
C2629 C 0.79852 0.46439 0.89153 0.0
C2630 C 0.78692 0.45007 0.87887 0.0
C2631 C 0.77477 0.4571 0.86061 0.0
C2632 C 0.77391 0.47798 0.85514 0.0
C2633 C 0.78523 0.49173 0.86811 0.0
C2634 C 0.79729 0.48533 0.88596 0.0
C2635 C 0.80672 0.50362 0.89806 0.0
C2636 C 0.79967 0.50445 0.9228 0.0
C2637 C 0.83028 0.5032 0.89629 0.0
C2638 C 0.79772 0.52123 0.88446 0.0
C2639 C 0.78558 0.51391 0.86712 0.0
C2640 C 0.7749 0.52699 0.85276 0.0
C2641 C 0.7764 0.54818 0.85635 0.0
C2642 C 0.78841 0.55616 0.87426 0.0
C2643 C 0.79946 0.54245 0.88828 0.0
H2644 H 0.4519 0.19716 0.09675 0.0
H2645 H 0.4426 0.2083 0.16803 0.0
H2646 H 0.47988 0.20389 0.17475 0.0
H2647 H 0.49558 0.16054 0.10122 0.0
H2648 H 0.50861 0.17166 0.07734 0.0
H2649 H 0.48094 0.172 0.0787 0.0
H2650 H 0.48111 0.21157 0.07372 0.0
H2651 H 0.5087 0.21132 0.07224 0.0
H2652 H 0.49595 0.22716 0.09286 0.0
H2653 H 0.51833 0.20078 0.17328 0.0
H2654 H 0.55502 0.20392 0.16331 0.0
H2655 H 0.53947 0.19749 0.09253 0.0
C2656 C 0.4577 0.19808 0.11383 0.0
C2657 C 0.44446 0.20267 0.13197 0.0
C2658 C 0.45257 0.20459 0.15399 0.0
C2659 C 0.47367 0.20198 0.15796 0.0
C2660 C 0.48644 0.19773 0.13967 0.0
C2661 C 0.47879 0.19605 0.11799 0.0
C2662 C 0.49601 0.19424 0.10092 0.0
C2663 C 0.49523 0.17336 0.08884 0.0
C2664 C 0.4954 0.21214 0.08395 0.0
C2665 C 0.51454 0.19568 0.1163 0.0
C2666 C 0.5087 0.19711 0.13864 0.0
C2667 C 0.52309 0.19949 0.15586 0.0
C2668 C 0.54393 0.20116 0.15004 0.0
C2669 C 0.55011 0.20091 0.12714 0.0
C2670 C 0.53522 0.19758 0.11018 0.0
H2671 H 0.78838 0.548 0.14056 0.0
H2672 H 0.83919 0.56005 0.09504 0.0
H2673 H 0.8455 0.52255 0.09206 0.0
H2674 H 0.81005 0.50339 0.16924 0.0
H2675 H 0.78549 0.49065 0.17066 0.0
H2676 H 0.78677 0.51831 0.171 0.0
H2677 H 0.76221 0.51982 0.13662 0.0
H2678 H 0.76091 0.49221 0.1361 0.0
H2679 H 0.76883 0.50606 0.11127 0.0
H2680 H 0.84439 0.48302 0.09239 0.0
H2681 H 0.83533 0.44608 0.09495 0.0
H2682 H 0.78453 0.46134 0.13926 0.0
C2683 C 0.80109 0.54292 0.13021 0.0
C2684 C 0.81334 0.55705 0.11809 0.0
C2685 C 0.82965 0.54954 0.10458 0.0
C2686 C 0.83335 0.52827 0.10281 0.0
C2687 C 0.8206 0.51477 0.11465 0.0
C2688 C 0.80481 0.52191 0.1281 0.0
C2689 C 0.79225 0.50452 0.13786 0.0
C2690 C 0.79374 0.5042 0.16372 0.0
C2691 C 0.76973 0.50573 0.12998 0.0
C2692 C 0.80319 0.48635 0.12756 0.0
C2693 C 0.81967 0.49243 0.11443 0.0
C2694 C 0.83161 0.47814 0.10275 0.0
C2695 C 0.82637 0.45719 0.10433 0.0
C2696 C 0.8092 0.45082 0.11726 0.0
C2697 C 0.79774 0.46566 0.1292 0.0
H2698 H 0.44982 0.81854 0.1324 0.0
H2699 H 0.439 0.76425 0.09164 0.0
H2700 H 0.47611 0.76145 0.0841 0.0
H2701 H 0.49397 0.83923 0.09977 0.0
H2702 H 0.50773 0.84718 0.12466 0.0
H2703 H 0.48002 0.84678 0.12468 0.0
H2704 H 0.48029 0.82307 0.15975 0.0
H2705 H 0.50795 0.82344 0.15985 0.0
H2706 H 0.49444 0.79927 0.1588 0.0
H2707 H 0.51374 0.76273 0.08285 0.0
H2708 H 0.55069 0.76638 0.09008 0.0
H2709 H 0.5387 0.81909 0.13302 0.0
C2710 C 0.45533 0.80636 0.12152 0.0
C2711 C 0.4416 0.79171 0.11239 0.0
C2712 C 0.4493 0.77563 0.09875 0.0
C2713 C 0.47032 0.77399 0.09425 0.0
C2714 C 0.48353 0.78844 0.1037 0.0
C2715 C 0.47647 0.80425 0.11719 0.0
C2716 C 0.49434 0.81641 0.12696 0.0
C2717 C 0.49399 0.83873 0.1185 0.0
C2718 C 0.49424 0.81548 0.15288 0.0
C2719 C 0.51245 0.80467 0.11717 0.0
C2720 C 0.50571 0.78884 0.10351 0.0
C2721 C 0.51924 0.77516 0.09335 0.0
C2722 C 0.54024 0.77735 0.09763 0.0
C2723 C 0.54763 0.79303 0.1121 0.0
C2724 C 0.53355 0.80716 0.12162 0.0
H2725 H 0.2352 0.46026 0.12808 0.0
H2726 H 0.17248 0.4456 0.10882 0.0
H2727 H 0.16417 0.48248 0.10757 0.0
H2728 H 0.22273 0.50425 0.16351 0.0
H2729 H 0.24487 0.51888 0.15477 0.0
H2730 H 0.24589 0.49121 0.15494 0.0
H2731 H 0.25642 0.49132 0.11283 0.0
H2732 H 0.25541 0.51898 0.11252 0.0
H2733 H 0.24043 0.5044 0.09258 0.0
H2734 H 0.16264 0.52077 0.10733 0.0
H2735 H 0.16808 0.55824 0.10805 0.0
H2736 H 0.23176 0.54863 0.12735 0.0
C2737 C 0.21969 0.46482 0.12376 0.0
C2738 C 0.2045 0.44998 0.11854 0.0
C2739 C 0.18442 0.45661 0.11282 0.0
C2740 C 0.1795 0.47756 0.11211 0.0
C2741 C 0.19482 0.49177 0.11715 0.0
C2742 C 0.2145 0.48574 0.12289 0.0
C2743 C 0.22816 0.50428 0.12702 0.0
C2744 C 0.23586 0.50467 0.15152 0.0
C2745 C 0.24617 0.50477 0.11024 0.0
C2746 C 0.21309 0.52161 0.12255 0.0
C2747 C 0.19394 0.514 0.11696 0.0
C2748 C 0.17755 0.52693 0.11175 0.0
C2749 C 0.18082 0.54822 0.11217 0.0
C2750 C 0.20034 0.55644 0.11774 0.0
C2751 C 0.21663 0.54287 0.12311 0.0
H2752 H 0.10893 0.27381 0.453 0.0
H2753 H 0.16063 0.31474 0.44078 0.0
H2754 H 0.16511 0.31931 0.48134 0.0
H2755 H 0.08871 0.30188 0.50127 0.0
H2756 H 0.08144 0.27915 0.51669 0.0
H2757 H 0.08175 0.27879 0.48632 0.0
H2758 H 0.10639 0.24755 0.48696 0.0
H2759 H 0.10614 0.2478 0.51734 0.0
H2760 H 0.1302 0.24927 0.50238 0.0
H2761 H 0.16532 0.3191 0.52244 0.0
H2762 H 0.16074 0.31459 0.56307 0.0
H2763 H 0.10828 0.2747 0.55076 0.0
C2764 C 0.12115 0.28374 0.45888 0.0
C2765 C 0.13438 0.29389 0.44348 0.0
C2766 C 0.1502 0.30676 0.45198 0.0
C2767 C 0.15293 0.30951 0.47511 0.0
C2768 C 0.13972 0.29938 0.48974 0.0
C2769 C 0.1241 0.28679 0.48215 0.0
C2770 C 0.11224 0.27777 0.50192 0.0
C2771 C 0.0897 0.28482 0.50152 0.0
C2772 C 0.11384 0.2542 0.50216 0.0
C2773 C 0.1238 0.28724 0.52165 0.0
C2774 C 0.13959 0.2996 0.51404 0.0
C2775 C 0.1529 0.30962 0.52869 0.0
C2776 C 0.1501 0.30696 0.55183 0.0
C2777 C 0.13397 0.29449 0.56031 0.0
C2778 C 0.12059 0.28454 0.5449 0.0
H2779 H 0.71942 0.11485 0.55104 0.0
H2780 H 0.67034 0.15897 0.56223 0.0
H2781 H 0.66601 0.16264 0.52113 0.0
H2782 H 0.74159 0.13954 0.50329 0.0
H2783 H 0.74756 0.11592 0.48885 0.0
H2784 H 0.74656 0.11646 0.51918 0.0
H2785 H 0.71971 0.08703 0.51888 0.0
H2786 H 0.72067 0.08638 0.48854 0.0
H2787 H 0.69644 0.08996 0.50271 0.0
H2788 H 0.66778 0.1624 0.47873 0.0
H2789 H 0.67479 0.15743 0.43824 0.0
H2790 H 0.72213 0.11284 0.45491 0.0
C2791 C 0.70764 0.12519 0.54494 0.0
C2792 C 0.6952 0.13657 0.55999 0.0
C2793 C 0.68006 0.15002 0.55113 0.0
C2794 C 0.67748 0.15224 0.52778 0.0
C2795 C 0.69006 0.14085 0.51348 0.0
C2796 C 0.70478 0.12752 0.52171 0.0
C2797 C 0.71639 0.11714 0.50274 0.0
C2798 C 0.73938 0.1226 0.50357 0.0
C2799 C 0.71309 0.09374 0.50325 0.0
C2800 C 0.70597 0.12682 0.48253 0.0
C2801 C 0.69087 0.14048 0.48908 0.0
C2802 C 0.67948 0.15163 0.4734 0.0
C2803 C 0.68359 0.14869 0.45041 0.0
C2804 C 0.69891 0.13462 0.44327 0.0
C2805 C 0.71018 0.12358 0.45969 0.0
H2806 H 0.88997 0.72624 0.45329 0.0
H2807 H 0.83891 0.6849 0.44015 0.0
H2808 H 0.83347 0.68094 0.48105 0.0
H2809 H 0.90958 0.69973 0.50206 0.0
H2810 H 0.91638 0.72298 0.51679 0.0
H2811 H 0.91634 0.72252 0.48643 0.0
H2812 H 0.89125 0.75341 0.48582 0.0
H2813 H 0.89118 0.75395 0.51618 0.0
H2814 H 0.8673 0.75174 0.50098 0.0
H2815 H 0.83358 0.68134 0.52359 0.0
H2816 H 0.83923 0.68609 0.56437 0.0
H2817 H 0.88998 0.72745 0.54991 0.0
C2818 C 0.87767 0.71628 0.45894 0.0
C2819 C 0.86493 0.70583 0.44332 0.0
C2820 C 0.84895 0.69306 0.45162 0.0
C2821 C 0.84571 0.69071 0.47489 0.0
C2822 C 0.85851 0.70126 0.48976 0.0
C2823 C 0.87416 0.7138 0.48212 0.0
C2824 C 0.88568 0.72349 0.50167 0.0
C2825 C 0.90833 0.71677 0.50174 0.0
C2826 C 0.88373 0.74704 0.50112 0.0
C2827 C 0.87408 0.71439 0.52148 0.0
C2828 C 0.85847 0.70161 0.51424 0.0
C2829 C 0.84575 0.69134 0.52944 0.0
C2830 C 0.84911 0.69414 0.55263 0.0
C2831 C 0.86506 0.70715 0.56052 0.0
C2832 C 0.87762 0.71743 0.54457 0.0
H2833 H 0.30597 0.8514 0.55087 0.0
H2834 H 0.26204 0.8992 0.56805 0.0
H2835 H 0.25675 0.90637 0.52777 0.0
H2836 H 0.32863 0.8774 0.50322 0.0
H2837 H 0.3314 0.85439 0.48659 0.0
H2838 H 0.33202 0.8529 0.51692 0.0
H2839 H 0.30239 0.82634 0.51619 0.0
H2840 H 0.30168 0.82773 0.48587 0.0
H2841 H 0.27872 0.83265 0.50198 0.0
H2842 H 0.2563 0.90888 0.48583 0.0
H2843 H 0.26006 0.90587 0.44467 0.0
H2844 H 0.30361 0.85595 0.45403 0.0
C2845 C 0.29525 0.86339 0.54618 0.0
C2846 C 0.28445 0.87472 0.56278 0.0
C2847 C 0.2705 0.89023 0.5558 0.0
C2848 C 0.26739 0.89447 0.5329 0.0
C2849 C 0.27823 0.88306 0.51704 0.0
C2850 C 0.29183 0.86778 0.5233 0.0
C2851 C 0.30131 0.85767 0.50271 0.0
C2852 C 0.32473 0.86078 0.50234 0.0
C2853 C 0.29568 0.83474 0.50163 0.0
C2854 C 0.29091 0.8697 0.48397 0.0
C2855 C 0.27774 0.88432 0.49267 0.0
C2856 C 0.26655 0.89747 0.4788 0.0
C2857 C 0.26883 0.89564 0.45538 0.0
C2858 C 0.28214 0.88068 0.44595 0.0
C2859 C 0.29328 0.86754 0.46059 0.0
H2860 H 0.1089 0.7281 0.4537 0.0
H2861 H 0.15245 0.67966 0.43745 0.0
H2862 H 0.15678 0.67225 0.47767 0.0
H2863 H 0.13622 0.74645 0.50222 0.0
H2864 H 0.11346 0.75213 0.51837 0.0
H2865 H 0.11266 0.75318 0.48803 0.0
H2866 H 0.0824 0.72732 0.48781 0.0
H2867 H 0.0831 0.72618 0.51815 0.0
H2868 H 0.08524 0.70291 0.50185 0.0
H2869 H 0.15681 0.66981 0.51892 0.0
H2870 H 0.15399 0.67359 0.55987 0.0
H2871 H 0.11156 0.72458 0.55077 0.0
C2872 C 0.1192 0.71582 0.4586 0.0
C2873 C 0.13013 0.7043 0.44228 0.0
C2874 C 0.14373 0.6886 0.44947 0.0
C2875 C 0.14632 0.68424 0.47234 0.0
C2876 C 0.13537 0.69582 0.48792 0.0
C2877 C 0.1222 0.71138 0.4815 0.0
C2878 C 0.11303 0.72198 0.50196 0.0
C2879 C 0.11922 0.74479 0.50268 0.0
C2880 C 0.08955 0.71944 0.50247 0.0
C2881 C 0.12321 0.70991 0.52078 0.0
C2882 C 0.13587 0.69481 0.51216 0.0
C2883 C 0.14696 0.68158 0.52594 0.0
C2884 C 0.14521 0.68389 0.54925 0.0
C2885 C 0.13257 0.69943 0.55867 0.0
C2886 C 0.12137 0.71257 0.54415 0.0
H2887 H 0.28323 0.11036 0.45814 0.0
H2888 H 0.32595 0.16006 0.44409 0.0
H2889 H 0.33214 0.16416 0.48489 0.0
H2890 H 0.26101 0.13199 0.50776 0.0
H2891 H 0.25883 0.10777 0.52231 0.0
H2892 H 0.25801 0.10851 0.49198 0.0
H2893 H 0.2882 0.08262 0.49015 0.0
H2894 H 0.28912 0.08182 0.5205 0.0
H2895 H 0.31185 0.08838 0.50468 0.0
H2896 H 0.33246 0.16394 0.52748 0.0
H2897 H 0.32779 0.15861 0.56834 0.0
H2898 H 0.286 0.1081 0.55451 0.0
C2899 C 0.29394 0.12209 0.46357 0.0
C2900 C 0.30406 0.13492 0.44778 0.0
C2901 C 0.318 0.15001 0.45575 0.0
C2902 C 0.32162 0.15248 0.47894 0.0
C2903 C 0.31134 0.13964 0.494 0.0
C2904 C 0.29787 0.12466 0.48663 0.0
C2905 C 0.28875 0.11288 0.50631 0.0
C2906 C 0.26526 0.11545 0.50713 0.0
C2907 C 0.29485 0.09007 0.50535 0.0
C2908 C 0.29905 0.12371 0.52591 0.0
C2909 C 0.31196 0.13914 0.51846 0.0
C2910 C 0.32254 0.15176 0.53349 0.0
C2911 C 0.31979 0.14859 0.55672 0.0
C2912 C 0.30668 0.1328 0.56479 0.0
C2913 C 0.29634 0.12014 0.54902 0.0
H2914 H 0.89003 0.27903 0.45401 0.0
H2915 H 0.84382 0.32616 0.4429 0.0
H2916 H 0.84128 0.33187 0.48349 0.0
H2917 H 0.86525 0.25741 0.50194 0.0
H2918 H 0.88856 0.25163 0.51707 0.0
H2919 H 0.8887 0.2524 0.48673 0.0
H2920 H 0.91798 0.27936 0.48756 0.0
H2921 H 0.91796 0.27865 0.51794 0.0
H2922 H 0.91461 0.30275 0.50341 0.0
H2923 H 0.84239 0.33215 0.52461 0.0
H2924 H 0.84557 0.32548 0.56511 0.0
H2925 H 0.88959 0.27677 0.55131 0.0
C2926 C 0.87965 0.29077 0.46013 0.0
C2927 C 0.86745 0.30244 0.44507 0.0
C2928 C 0.85364 0.31727 0.45385 0.0
C2929 C 0.85203 0.32065 0.47699 0.0
C2930 C 0.86412 0.3089 0.49133 0.0
C2931 C 0.87754 0.29413 0.4834 0.0
C2932 C 0.88754 0.28269 0.50285 0.0
C2933 C 0.88218 0.25967 0.5021 0.0
C2934 C 0.91091 0.28607 0.50294 0.0
C2935 C 0.87738 0.29326 0.52277 0.0
C2936 C 0.86416 0.30849 0.51559 0.0
C2937 C 0.85273 0.3203 0.53054 0.0
C2938 C 0.85467 0.31635 0.55357 0.0
C2939 C 0.86782 0.30056 0.56152 0.0
C2940 C 0.87943 0.28896 0.54583 0.0
H2941 H 0.69282 0.85127 0.5514 0.0
H2942 H 0.7489 0.88596 0.56325 0.0
H2943 H 0.75462 0.88845 0.52257 0.0
H2944 H 0.71164 0.82305 0.50149 0.0
H2945 H 0.68738 0.82449 0.4869 0.0
H2946 H 0.68799 0.82398 0.51728 0.0
H2947 H 0.66707 0.8578 0.5185 0.0
H2948 H 0.66646 0.85845 0.48815 0.0
H2949 H 0.67649 0.88007 0.50365 0.0
H2950 H 0.75378 0.88941 0.4815 0.0
H2951 H 0.74669 0.88833 0.441 0.0
H2952 H 0.69125 0.85283 0.45364 0.0
C2953 C 0.70643 0.85912 0.5454 0.0
C2954 C 0.72038 0.86844 0.56067 0.0
C2955 C 0.73789 0.87878 0.55207 0.0
C2956 C 0.74136 0.88024 0.52891 0.0
C2957 C 0.72724 0.87127 0.51437 0.0
C2958 C 0.71015 0.86084 0.52211 0.0
C2959 C 0.69708 0.85342 0.50244 0.0
C2960 C 0.69596 0.82983 0.50201 0.0
C2961 C 0.6755 0.86301 0.50324 0.0
C2962 C 0.70943 0.86163 0.4826 0.0
C2963 C 0.72678 0.87178 0.49007 0.0
C2964 C 0.74033 0.88138 0.47536 0.0
C2965 C 0.73608 0.88073 0.45232 0.0
C2966 C 0.71839 0.8705 0.44399 0.0
C2967 C 0.70497 0.86064 0.45941 0.0
H2968 H 0.60892 0.76753 0.05062 0.0
H2969 H 0.66173 0.80617 0.06565 0.0
H2970 H 0.66729 0.81173 0.02528 0.0
H2971 H 0.63109 0.74381 1.00009 0.0
H2972 H 0.60702 0.74338 0.98506 0.0
H2973 H 0.60724 0.74171 0.01539 0.0
H2974 H 0.58297 0.77318 0.01767 0.0
H2975 H 0.58276 0.77502 0.98738 0.0
H2976 H 0.59031 0.79687 0.00411 0.0
H2977 H 0.66642 0.81502 0.98395 0.0
H2978 H 0.66044 0.81402 0.94312 0.0
H2979 H 0.60898 0.77243 0.9534 0.0
C2980 C 0.62176 0.77701 0.04541 0.0
C2981 C 0.63477 0.7865 0.0615 0.0
C2982 C 0.65139 0.7988 0.05386 0.0
C2983 C 0.65475 0.80207 0.03088 0.0
C2984 C 0.6415 0.79284 0.01556 0.0
C2985 C 0.62546 0.78039 0.02237 0.0
C2986 C 0.61351 0.7725 1.00213 0.0
C2987 C 0.6148 0.74895 1.00058 0.0
C2988 C 0.59106 0.77984 0.00288 0.0
C2989 C 0.62525 0.7827 0.98302 0.0
C2990 C 0.64128 0.79439 0.99128 0.0
C2991 C 0.65403 0.80578 0.97721 0.0
C2992 C 0.65043 0.80515 0.95399 0.0
C2993 C 0.63427 0.79308 0.94491 0.0
C2994 C 0.62153 0.7817 0.95974 0.0
H2995 H 0.23161 0.61251 0.95345 0.0
H2996 H 0.17405 0.64332 0.93785 0.0
H2997 H 0.16581 0.64486 0.97816 0.0
H2998 H 0.21226 0.58243 1.00152 0.0
H2999 H 0.23558 0.58548 0.01757 0.0
H3000 H 0.23653 0.58525 0.9872 0.0
H3001 H 0.25498 0.62052 0.98754 0.0
H3002 H 0.25402 0.6209 0.01788 0.0
H3003 H 0.24323 0.64188 1.00196 0.0
H3004 H 0.16449 0.64539 0.01941 0.0
H3005 H 0.16978 0.64457 0.06019 0.0
H3006 H 0.22814 0.61321 0.05055 0.0
C3007 C 0.21713 0.61929 0.95849 0.0
C3008 C 0.20343 0.62768 0.94236 0.0
C3009 C 0.18478 0.6367 0.94974 0.0
C3010 C 0.17992 0.63764 0.97265 0.0
C3011 C 0.19382 0.6295 0.98805 0.0
C3012 C 0.21202 0.62045 0.98141 0.0
C3013 C 0.22459 0.61379 1.00171 0.0
C3014 C 0.2274 0.59034 1.00201 0.0
C3015 C 0.24544 0.62494 1.0023 0.0
C3016 C 0.2107 0.62086 0.02074 0.0
C3017 C 0.19302 0.62977 0.01232 0.0
C3018 C 0.17814 0.63824 0.02627 0.0
C3019 C 0.18134 0.63767 0.04951 0.0
C3020 C 0.19931 0.62862 0.05877 0.0
C3021 C 0.21414 0.62 0.04408 0.0
H3022 H 0.35725 0.19165 0.05435 0.0
H3023 H 0.40179 0.23989 0.06797 0.0
H3024 H 0.4082 0.24343 0.02728 0.0
H3025 H 0.38475 0.16839 0.00777 0.0
H3026 H 0.36182 0.16287 0.99183 0.0
H3027 H 0.36079 0.16375 0.02217 0.0
H3028 H 0.33187 0.19102 0.02013 0.0
H3029 H 0.3328 0.19021 0.98979 0.0
H3030 H 0.33604 0.21432 0.00432 0.0
H3031 H 0.40954 0.24239 0.98532 0.0
H3032 H 0.40562 0.23698 0.94453 0.0
H3033 H 0.36034 0.18928 0.95743 0.0
C3034 C 0.36841 0.20293 0.04882 0.0
C3035 C 0.37902 0.21547 0.06453 0.0
C3036 C 0.39344 0.23006 0.05642 0.0
C3037 C 0.39723 0.2322 0.03329 0.0
C3038 C 0.38652 0.21965 0.01834 0.0
C3039 C 0.3724 0.2053 0.02571 0.0
C3040 C 0.36284 0.19394 0.00595 0.0
C3041 C 0.36785 0.17087 0.007 0.0
C3042 C 0.3395 0.1976 0.005 0.0
C3043 C 0.37373 0.20425 0.98635 0.0
C3044 C 0.38734 0.21901 0.99395 0.0
C3045 C 0.39898 0.23084 0.97915 0.0
C3046 C 0.39661 0.22763 0.95595 0.0
C3047 C 0.38269 0.21266 0.9476 0.0
C3048 C 0.3712 0.20076 0.96315 0.0
H3049 H 0.77019 0.39618 0.05231 0.0
H3050 H 0.82282 0.35676 0.06524 0.0
H3051 H 0.8293 0.3543 0.02465 0.0
H3052 H 0.75268 0.36884 0.00387 0.0
H3053 H 0.74451 0.39132 0.98855 0.0
H3054 H 0.74454 0.39149 0.01892 0.0
H3055 H 0.76777 0.4238 0.01881 0.0
H3056 H 0.76782 0.42375 0.98842 0.0
H3057 H 0.79178 0.42329 0.00365 0.0
H3058 H 0.8298 0.35473 0.98359 0.0
H3059 H 0.82377 0.3569 0.94308 0.0
H3060 H 0.77025 0.39553 0.95487 0.0
C3061 C 0.78322 0.38724 0.04659 0.0
C3062 C 0.79612 0.37682 0.06208 0.0
C3063 C 0.81278 0.36498 0.05386 0.0
C3064 C 0.81664 0.36351 0.03077 0.0
C3065 C 0.80365 0.37383 0.01603 0.0
C3066 C 0.78721 0.3854 0.02345 0.0
C3067 C 0.77511 0.394 0.00366 0.0
C3068 C 0.7529 0.38593 0.00376 0.0
C3069 C 0.77566 0.41762 0.00364 0.0
C3070 C 0.78728 0.38524 0.98405 0.0
C3071 C 0.80374 0.37383 0.99176 0.0
C3072 C 0.81706 0.36372 0.97727 0.0
C3073 C 0.81343 0.36511 0.95416 0.0
C3074 C 0.79655 0.37651 0.94558 0.0
C3075 C 0.78337 0.38685 0.96082 0.0
H3076 H 0.64774 0.19519 0.05317 0.0
H3077 H 0.59729 0.23707 0.06717 0.0
H3078 H 0.5915 0.24134 0.02648 0.0
H3079 H 0.66721 0.22178 0.00466 0.0
H3080 H 0.67353 0.1987 0.98938 0.0
H3081 H 0.67375 0.19864 0.01975 0.0
H3082 H 0.64816 0.16813 0.01999 0.0
H3083 H 0.64788 0.1681 0.98962 0.0
H3084 H 0.62414 0.1704 0.00507 0.0
H3085 H 0.59145 0.24186 0.98465 0.0
H3086 H 0.59666 0.23811 0.94383 0.0
H3087 H 0.64672 0.19536 0.95625 0.0
C3088 C 0.63544 0.20522 0.04772 0.0
C3089 C 0.62292 0.21571 0.0635 0.0
C3090 C 0.60702 0.22872 0.05554 0.0
C3091 C 0.60361 0.23131 0.03241 0.0
C3092 C 0.61617 0.22074 0.01738 0.0
C3093 C 0.63172 0.20791 0.02463 0.0
C3094 C 0.64295 0.19837 0.0048 0.0
C3095 C 0.66571 0.20476 0.00464 0.0
C3096 C 0.64064 0.17486 0.00488 0.0
C3097 C 0.63132 0.20798 0.9853 0.0
C3098 C 0.61598 0.22085 0.99302 0.0
C3099 C 0.60336 0.23178 0.97837 0.0
C3100 C 0.6065 0.22955 0.95517 0.0
C3101 C 0.6221 0.21642 0.94673 0.0
C3102 C 0.6346 0.20543 0.9621 0.0
H3103 H 0.80604 0.64901 0.05006 0.0
H3104 H 0.76312 0.59937 0.06379 0.0
H3105 H 0.75832 0.59423 0.02304 0.0
H3106 H 0.77957 0.66961 1.00162 0.0
H3107 H 0.80279 0.67548 0.98634 0.0
H3108 H 0.80289 0.6755 0.01671 0.0
H3109 H 0.83278 0.64923 0.01669 0.0
H3110 H 0.83274 0.64913 0.98632 0.0
H3111 H 0.8299 0.62536 1.00161 0.0
H3112 H 0.75778 0.59441 0.98094 0.0
H3113 H 0.76181 0.59964 0.94011 0.0
H3114 H 0.80557 0.64874 0.95295 0.0
C3115 C 0.79561 0.63707 0.04454 0.0
C3116 C 0.78498 0.6246 0.06032 0.0
C3117 C 0.77151 0.60913 0.05221 0.0
C3118 C 0.76864 0.60607 0.02902 0.0
C3119 C 0.77938 0.61853 0.014 0.0
C3120 C 0.79263 0.6337 0.02137 0.0
C3121 C 0.80239 0.64481 1.00153 0.0
C3122 C 0.79655 0.66771 1.00156 0.0
C3123 C 0.82584 0.64195 1.00154 0.0
C3124 C 0.79248 0.63354 0.98191 0.0
C3125 C 0.77924 0.61848 0.98955 0.0
C3126 C 0.76813 0.60614 0.97475 0.0
C3127 C 0.77054 0.60926 0.95152 0.0
C3128 C 0.78404 0.6246 0.94313 0.0
C3129 C 0.79518 0.63683 0.95869 0.0
H3130 H 0.3872 0.77775 0.95647 0.0
H3131 H 0.3512 0.83215 0.94094 0.0
H3132 H 0.34594 0.83815 0.98164 0.0
H3133 H 0.35646 0.76059 1.00245 0.0
H3134 H 0.37794 0.75143 0.01879 0.0
H3135 H 0.37946 0.75188 0.98848 0.0
H3136 H 0.41252 0.77398 0.99072 0.0
H3137 H 0.41114 0.77358 0.02104 0.0
H3138 H 0.41216 0.79777 0.00628 0.0
H3139 H 0.34403 0.83774 0.02442 0.0
H3140 H 0.34563 0.83093 0.06536 0.0
H3141 H 0.38272 0.77668 0.05246 0.0
C3142 C 0.37833 0.79104 0.96154 0.0
C3143 C 0.3697 0.80452 0.94536 0.0
C3144 C 0.35805 0.82161 0.9529 0.0
C3145 C 0.35496 0.82515 0.97602 0.0
C3146 C 0.36359 0.81149 0.99146 0.0
C3147 C 0.37505 0.79478 0.9845 0.0
C3148 C 0.38234 0.78214 0.00441 0.0
C3149 C 0.37352 0.76022 0.00347 0.0
C3150 C 0.40594 0.78186 0.00568 0.0
C3151 C 0.37314 0.7943 0.02369 0.0
C3152 C 0.36242 0.8112 0.01592 0.0
C3153 C 0.35244 0.82458 0.03067 0.0
C3154 C 0.35344 0.82057 0.05393 0.0
C3155 C 0.36433 0.80328 0.06228 0.0
C3156 C 0.3743 0.79007 0.04679 0.0
H3157 H 0.19666 0.35231 0.95296 0.0
H3158 H 0.22907 0.40938 0.93938 0.0
H3159 H 0.22936 0.41731 0.97981 0.0
H3160 H 0.16551 0.37186 1.00084 0.0
H3161 H 0.16778 0.34832 0.01667 0.0
H3162 H 0.16815 0.34769 0.98629 0.0
H3163 H 0.20301 0.32856 0.98726 0.0
H3164 H 0.20278 0.32919 0.0176 0.0
H3165 H 0.22431 0.33973 1.00236 0.0
H3166 H 0.22893 0.41826 0.02095 0.0
H3167 H 0.22763 0.41231 0.06176 0.0
H3168 H 0.19546 0.35467 0.05062 0.0
C3169 C 0.20346 0.36663 0.95853 0.0
C3170 C 0.21286 0.38022 0.94297 0.0
C3171 C 0.2219 0.39865 0.95093 0.0
C3172 C 0.22206 0.40338 0.97389 0.0
C3173 C 0.21312 0.38955 0.98881 0.0
C3174 C 0.20393 0.37156 0.98161 0.0
C3175 C 0.19661 0.35892 1.00164 0.0
C3176 C 0.17311 0.35656 1.00134 0.0
C3177 C 0.20732 0.33786 1.00225 0.0
C3178 C 0.20355 0.37246 0.0211 0.0
C3179 C 0.21288 0.3901 0.01312 0.0
C3180 C 0.2215 0.40462 0.02747 0.0
C3181 C 0.22077 0.40101 0.05065 0.0
C3182 C 0.21148 0.383 0.05943 0.0
C3183 C 0.20247 0.36866 0.04442 0.0
H3184 H 0.17042 0.32395 0.19103 0.0
H3185 H 0.20944 0.37528 0.20952 0.0
H3186 H 0.1999 0.37079 0.24939 0.0
H3187 H 0.13004 0.33224 0.23341 0.0
H3188 H 0.1268 0.30525 0.23924 0.0
H3189 H 0.13502 0.31352 0.21168 0.0
H3190 H 0.16713 0.29018 0.21473 0.0
H3191 H 0.15902 0.28187 0.24229 0.0
H3192 H 0.18416 0.29299 0.23851 0.0
H3193 H 0.1869 0.36093 0.2868 0.0
H3194 H 0.17332 0.34443 0.32088 0.0
H3195 H 0.14434 0.29735 0.2798 0.0
C3196 C 0.17664 0.33437 0.20352 0.0
C3197 C 0.1905 0.35012 0.19728 0.0
C3198 C 0.19878 0.36318 0.21402 0.0
C3199 C 0.19339 0.36081 0.23667 0.0
C3200 C 0.17991 0.34504 0.24241 0.0
C3201 C 0.17177 0.33187 0.22646 0.0
C3202 C 0.15888 0.31526 0.23765 0.0
C3203 C 0.13634 0.31666 0.23004 0.0
C3204 C 0.16784 0.2938 0.23302 0.0
C3205 C 0.1612 0.32116 0.26231 0.0
C3206 C 0.17314 0.33861 0.26449 0.0
C3207 C 0.17752 0.34725 0.28537 0.0
C3208 C 0.16966 0.33775 0.30466 0.0
C3209 C 0.15775 0.31957 0.30308 0.0
C3210 C 0.15344 0.3112 0.28155 0.0
H3211 H 0.65407 0.2013 0.2175 0.0
H3212 H 0.69419 0.1651 0.17461 0.0
H3213 H 0.70961 0.14905 0.20834 0.0
H3214 H 0.69024 0.21028 0.26238 0.0
H3215 H 0.67132 0.20777 0.2844 0.0
H3216 H 0.66377 0.21675 0.2569 0.0
H3217 H 0.63662 0.18772 0.25435 0.0
H3218 H 0.64408 0.17865 0.28185 0.0
H3219 H 0.64452 0.16139 0.25809 0.0
H3220 H 0.72116 0.1374 0.24686 0.0
H3221 H 0.72679 0.12983 0.28723 0.0
H3222 H 0.67812 0.17253 0.30485 0.0
C3223 C 0.66619 0.19009 0.21521 0.0
C3224 C 0.67303 0.18455 0.19343 0.0
C3225 C 0.68871 0.16959 0.19113 0.0
C3226 C 0.6976 0.16042 0.21019 0.0
C3227 C 0.69049 0.16619 0.23142 0.0
C3228 C 0.67505 0.18058 0.23404 0.0
C3229 C 0.66982 0.18366 0.2587 0.0
C3230 C 0.67405 0.20594 0.26602 0.0
C3231 C 0.64743 0.17748 0.26352 0.0
C3232 C 0.68482 0.16885 0.26955 0.0
C3233 C 0.69669 0.15902 0.25354 0.0
C3234 C 0.71189 0.14494 0.25954 0.0
C3235 C 0.71501 0.14078 0.28251 0.0
C3236 C 0.70286 0.15052 0.29918 0.0
C3237 C 0.68755 0.1647 0.29251 0.0
H3238 H 0.8023 0.65145 0.21516 0.0
H3239 H 0.84219 0.68924 0.17362 0.0
H3240 H 0.85769 0.70411 0.20797 0.0
H3241 H 0.793 0.68847 0.25845 0.0
H3242 H 0.79352 0.67003 0.28112 0.0
H3243 H 0.78573 0.66215 0.25331 0.0
H3244 H 0.81367 0.63384 0.25338 0.0
H3245 H 0.82155 0.6416 0.28123 0.0
H3246 H 0.84007 0.64076 0.25865 0.0
H3247 H 0.86772 0.71606 0.24676 0.0
H3248 H 0.87288 0.72304 0.28724 0.0
H3249 H 0.82756 0.67648 0.30387 0.0
C3250 C 0.81431 0.66285 0.21327 0.0
C3251 C 0.82096 0.66926 0.19165 0.0
C3252 C 0.83684 0.68407 0.18996 0.0
C3253 C 0.84572 0.69264 0.20938 0.0
C3254 C 0.83873 0.68607 0.23041 0.0
C3255 C 0.82351 0.67139 0.23249 0.0
C3256 C 0.81889 0.66693 0.25709 0.0
C3257 C 0.79645 0.67222 0.26282 0.0
C3258 C 0.82385 0.64445 0.26293 0.0
C3259 C 0.83372 0.68159 0.26854 0.0
C3260 C 0.84495 0.69253 0.25281 0.0
C3261 C 0.85913 0.70748 0.25922 0.0
C3262 C 0.8619 0.71137 0.28228 0.0
C3263 C 0.85069 0.70027 0.29876 0.0
C3264 C 0.83651 0.68508 0.29171 0.0
H3265 H 0.32587 0.8328 0.20078 0.0
H3266 H 0.36304 0.7797 0.21795 0.0
H3267 H 0.35692 0.78629 0.25841 0.0
H3268 H 0.34073 0.86511 0.24788 0.0
H3269 H 0.31531 0.87551 0.25183 0.0
H3270 H 0.32347 0.86732 0.22423 0.0
H3271 H 0.29196 0.84311 0.22159 0.0
H3272 H 0.28372 0.85123 0.24917 0.0
H3273 H 0.28767 0.82432 0.24344 0.0
H3274 H 0.34719 0.79887 0.29703 0.0
H3275 H 0.3324 0.81498 0.33105 0.0
H3276 H 0.29962 0.8586 0.28896 0.0
C3277 C 0.33285 0.82268 0.21309 0.0
C3278 C 0.34506 0.8058 0.20624 0.0
C3279 C 0.35364 0.7927 0.22282 0.0
C3280 C 0.3503 0.79636 0.24584 0.0
C3281 C 0.33813 0.81304 0.25205 0.0
C3282 C 0.32936 0.82588 0.23617 0.0
C3283 C 0.31608 0.84212 0.24736 0.0
C3284 C 0.3244 0.8638 0.24254 0.0
C3285 C 0.29352 0.84006 0.23995 0.0
C3286 C 0.31877 0.8364 0.27198 0.0
C3287 C 0.33176 0.81974 0.27431 0.0
C3288 C 0.33692 0.81186 0.29541 0.0
C3289 C 0.32847 0.82115 0.31465 0.0
C3290 C 0.31476 0.83796 0.31268 0.0
C3291 C 0.30991 0.84565 0.29101 0.0
H3292 H 0.17625 0.67466 0.80802 0.0
H3293 H 0.23023 0.63957 0.78898 0.0
H3294 H 0.22223 0.64546 0.74877 0.0
H3295 H 0.14326 0.65811 0.76371 0.0
H3296 H 0.13142 0.68285 0.75953 0.0
H3297 H 0.14136 0.67598 0.78684 0.0
H3298 H 0.16414 0.70863 0.78692 0.0
H3299 H 0.15423 0.71565 0.75962 0.0
H3300 H 0.18155 0.71316 0.7638 0.0
H3301 H 0.20715 0.65295 0.71111 0.0
H3302 H 0.18791 0.66458 0.67768 0.0
H3303 H 0.14512 0.69737 0.72073 0.0
C3304 C 0.18639 0.66828 0.79535 0.0
C3305 C 0.20379 0.65657 0.80149 0.0
C3306 C 0.21686 0.64862 0.78455 0.0
C3307 C 0.2124 0.65183 0.76172 0.0
C3308 C 0.19505 0.66333 0.75621 0.0
C3309 C 0.18241 0.67171 0.77249 0.0
C3310 C 0.16499 0.68384 0.76195 0.0
C3311 C 0.14402 0.67464 0.76839 0.0
C3312 C 0.16632 0.70668 0.76846 0.0
C3313 C 0.16963 0.68068 0.73717 0.0
C3314 C 0.18693 0.66861 0.73432 0.0
C3315 C 0.19374 0.66261 0.7131 0.0
C3316 C 0.18266 0.66921 0.69425 0.0
C3317 C 0.16514 0.68193 0.69672 0.0
C3318 C 0.15862 0.68786 0.71844 0.0
H3319 H 0.3274 0.17581 0.70414 0.0
H3320 H 0.28436 0.12692 0.71987 0.0
H3321 H 0.29294 0.13016 0.76027 0.0
H3322 H 0.36577 0.16328 0.74581 0.0
H3323 H 0.37134 0.18968 0.75268 0.0
H3324 H 0.3624 0.18307 0.72486 0.0
H3325 H 0.33236 0.20891 0.72892 0.0
H3326 H 0.34126 0.21565 0.7567 0.0
H3327 H 0.31524 0.20687 0.75271 0.0
H3328 H 0.30701 0.13801 0.79896 0.0
H3329 H 0.32295 0.15222 0.83345 0.0
H3330 H 0.35508 0.19755 0.79296 0.0
C3331 C 0.31984 0.16576 0.7161 0.0
C3332 C 0.30528 0.15103 0.70885 0.0
C3333 C 0.29552 0.13834 0.72504 0.0
C3334 C 0.30036 0.14 0.74802 0.0
C3335 C 0.3148 0.15463 0.75463 0.0
C3336 C 0.3242 0.16749 0.73919 0.0
C3337 C 0.33849 0.18253 0.75087 0.0
C3338 C 0.36082 0.17944 0.74309 0.0
C3339 C 0.33141 0.20481 0.74707 0.0
C3340 C 0.3357 0.17607 0.77525 0.0
C3341 C 0.32218 0.15978 0.77702 0.0
C3342 C 0.31752 0.15086 0.79779 0.0
C3343 C 0.3267 0.15898 0.81728 0.0
C3344 C 0.34014 0.17605 0.81592 0.0
C3345 C 0.34472 0.1846 0.79456 0.0
H3346 H 0.82408 0.331 0.69659 0.0
H3347 H 0.864 0.28067 0.71619 0.0
H3348 H 0.8574 0.28841 0.75631 0.0
H3349 H 0.83689 0.36579 0.74152 0.0
H3350 H 0.81097 0.37494 0.74522 0.0
H3351 H 0.81932 0.36593 0.71802 0.0
H3352 H 0.78922 0.33989 0.71716 0.0
H3353 H 0.78077 0.3488 0.74438 0.0
H3354 H 0.7862 0.32193 0.74007 0.0
H3355 H 0.84791 0.30243 0.79381 0.0
H3356 H 0.83354 0.31986 0.82713 0.0
H3357 H 0.79716 0.35933 0.78372 0.0
C3358 C 0.83148 0.32171 0.70939 0.0
C3359 C 0.84468 0.30535 0.70344 0.0
C3360 C 0.85385 0.29326 0.7205 0.0
C3361 C 0.85024 0.29758 0.74328 0.0
C3362 C 0.83713 0.31378 0.74862 0.0
C3363 C 0.82764 0.32549 0.73222 0.0
C3364 C 0.81357 0.34147 0.74261 0.0
C3365 C 0.82062 0.36333 0.73648 0.0
C3366 C 0.79111 0.33779 0.73564 0.0
C3367 C 0.81681 0.33703 0.76744 0.0
C3368 C 0.83067 0.32115 0.77043 0.0
C3369 C 0.8369 0.31474 0.79172 0.0
C3370 C 0.82871 0.32478 0.8105 0.0
C3371 C 0.8142 0.34082 0.8079 0.0
C3372 C 0.80805 0.34693 0.7861 0.0
H3373 H 0.67462 0.81559 0.69414 0.0
H3374 H 0.69797 0.87676 0.70757 0.0
H3375 H 0.68475 0.87496 0.74635 0.0
H3376 H 0.62835 0.81861 0.73037 0.0
H3377 H 0.63092 0.79258 0.74037 0.0
H3378 H 0.63999 0.79937 0.71263 0.0
H3379 H 0.6761 0.78535 0.72264 0.0
H3380 H 0.66715 0.77854 0.75037 0.0
H3381 H 0.6892 0.79507 0.74721 0.0
H3382 H 0.67068 0.86648 0.78366 0.0
H3383 H 0.6587 0.85083 0.81893 0.0
H3384 H 0.64592 0.79386 0.78335 0.0
C3385 C 0.67654 0.82868 0.70521 0.0
C3386 C 0.68711 0.84645 0.69787 0.0
C3387 C 0.68987 0.86309 0.71289 0.0
C3388 C 0.68232 0.86224 0.73491 0.0
C3389 C 0.67225 0.84448 0.74183 0.0
C3390 C 0.66945 0.82789 0.7276 0.0
C3391 C 0.65968 0.81003 0.74018 0.0
C3392 C 0.63847 0.80484 0.7303 0.0
C3393 C 0.67388 0.79113 0.74009 0.0
C3394 C 0.65777 0.81915 0.76368 0.0
C3395 C 0.6648 0.83917 0.76402 0.0
C3396 C 0.66505 0.85084 0.78365 0.0
C3397 C 0.65819 0.84176 0.80365 0.0
C3398 C 0.65138 0.82106 0.80402 0.0
C3399 C 0.65098 0.80971 0.78364 0.0
H3400 H 0.8304 0.67751 0.69984 0.0
H3401 H 0.8834 0.71466 0.71738 0.0
H3402 H 0.87818 0.70629 0.75763 0.0
H3403 H 0.79974 0.69328 0.74693 0.0
H3404 H 0.78772 0.66856 0.75075 0.0
H3405 H 0.79643 0.67628 0.72321 0.0
H3406 H 0.8186 0.64333 0.72045 0.0
H3407 H 0.80995 0.63552 0.748 0.0
H3408 H 0.83706 0.63777 0.74227 0.0
H3409 H 0.86734 0.69362 0.79607 0.0
H3410 H 0.85003 0.68002 0.83005 0.0
H3411 H 0.80265 0.65307 0.78789 0.0
C3412 C 0.84102 0.68369 0.71216 0.0
C3413 C 0.85743 0.6966 0.70548 0.0
C3414 C 0.87075 0.70473 0.72212 0.0
C3415 C 0.86794 0.7 0.74502 0.0
C3416 C 0.85156 0.68734 0.75108 0.0
C3417 C 0.83818 0.67947 0.73517 0.0
C3418 C 0.82111 0.66722 0.74631 0.0
C3419 C 0.8 0.67692 0.74151 0.0
C3420 C 0.82172 0.64462 0.73881 0.0
C3421 C 0.82699 0.66944 0.77094 0.0
C3422 C 0.84476 0.68086 0.7733 0.0
C3423 C 0.85337 0.68473 0.79442 0.0
C3424 C 0.84345 0.67689 0.81363 0.0
C3425 C 0.82493 0.66558 0.81167 0.0
C3426 C 0.8167 0.66179 0.78997 0.0
H3427 H 0.33345 0.82919 0.80451 0.0
H3428 H 0.38065 0.78398 0.79033 0.0
H3429 H 0.37622 0.78998 0.74944 0.0
H3430 H 0.3004 0.81386 0.75944 0.0
H3431 H 0.29155 0.83951 0.75329 0.0
H3432 H 0.29968 0.83298 0.78141 0.0
H3433 H 0.32589 0.86296 0.78072 0.0
H3434 H 0.31782 0.86953 0.75257 0.0
H3435 H 0.34453 0.86434 0.75829 0.0
H3436 H 0.36676 0.8012 0.70991 0.0
H3437 H 0.35051 0.81407 0.67487 0.0
H3438 H 0.30749 0.84962 0.71483 0.0
C3439 C 0.34301 0.82077 0.79276 0.0
C3440 C 0.35756 0.80629 0.80052 0.0
C3441 C 0.36946 0.79518 0.78469 0.0
C3442 C 0.36711 0.79855 0.76145 0.0
C3443 C 0.35253 0.81283 0.75429 0.0
C3444 C 0.34049 0.82357 0.76947 0.0
C3445 C 0.32492 0.83693 0.75733 0.0
C3446 C 0.30283 0.83042 0.76322 0.0
C3447 C 0.32852 0.85979 0.76254 0.0
C3448 C 0.33007 0.83199 0.733 0.0
C3449 C 0.34628 0.81835 0.73158 0.0
C3450 C 0.35399 0.81181 0.71083 0.0
C3451 C 0.34472 0.81923 0.69102 0.0
C3452 C 0.32767 0.83269 0.69215 0.0
C3453 C 0.32038 0.83918 0.71345 0.0
H3454 H 0.14106 0.29648 0.72472 0.0
H3455 H 0.19077 0.32062 0.68362 0.0
H3456 H 0.20778 0.33392 0.71754 0.0
H3457 H 0.13964 0.33952 0.76352 0.0
H3458 H 0.13427 0.32409 0.78807 0.0
H3459 H 0.12586 0.31562 0.76066 0.0
H3460 H 0.14524 0.28123 0.76613 0.0
H3461 H 0.15366 0.28957 0.79358 0.0
H3462 H 0.17226 0.28161 0.77283 0.0
H3463 H 0.22003 0.34398 0.75491 0.0
H3464 H 0.22654 0.35184 0.79468 0.0
H3465 H 0.16853 0.3234 0.81317 0.0
C3466 C 0.15558 0.30446 0.72297 0.0
C3467 C 0.1646 0.30749 0.70149 0.0
C3468 C 0.18349 0.31821 0.69983 0.0
C3469 C 0.19333 0.32579 0.71901 0.0
C3470 C 0.18404 0.32276 0.73985 0.0
C3471 C 0.16556 0.3125 0.74209 0.0
C3472 C 0.15888 0.31201 0.76667 0.0
C3473 C 0.13845 0.3235 0.76991 0.0
C3474 C 0.15743 0.28978 0.77531 0.0
C3475 C 0.17658 0.32347 0.77775 0.0
C3476 C 0.19091 0.32934 0.76181 0.0
C3477 C 0.20889 0.33959 0.76757 0.0
C3478 C 0.21245 0.34395 0.79027 0.0
C3479 C 0.19803 0.33833 0.80707 0.0
C3480 C 0.17974 0.32805 0.80068 0.0
H3481 H 0.70227 0.1823 0.7111 0.0
H3482 H 0.66325 0.12909 0.7012 0.0
H3483 H 0.65179 0.13129 0.74098 0.0
H3484 H 0.71697 0.17294 0.76903 0.0
H3485 H 0.71524 0.1996 0.77706 0.0
H3486 H 0.72159 0.19281 0.74846 0.0
H3487 H 0.69106 0.21468 0.7339 0.0
H3488 H 0.68468 0.22159 0.76244 0.0
H3489 H 0.66559 0.20982 0.74462 0.0
H3490 H 0.64547 0.1389 0.78226 0.0
H3491 H 0.64094 0.15407 0.82023 0.0
H3492 H 0.68112 0.20448 0.8017 0.0
C3493 C 0.69148 0.17102 0.71746 0.0
C3494 C 0.68382 0.15534 0.70337 0.0
C3495 C 0.66932 0.14113 0.71191 0.0
C3496 C 0.66283 0.14222 0.73444 0.0
C3497 C 0.67065 0.1579 0.74799 0.0
C3498 C 0.68436 0.17228 0.73969 0.0
C3499 C 0.68914 0.18857 0.75716 0.0
C3500 C 0.7121 0.18846 0.76329 0.0
C3501 C 0.6822 0.20992 0.74904 0.0
C3502 C 0.67608 0.18106 0.77661 0.0
C3503 C 0.66584 0.16313 0.77115 0.0
C3504 C 0.65328 0.15302 0.78666 0.0
C3505 C 0.65087 0.16168 0.80818 0.0
C3506 C 0.66059 0.18046 0.81375 0.0
C3507 C 0.6734 0.19018 0.79777 0.0
H3508 H 0.82382 0.33064 0.19611 0.0
H3509 H 0.76847 0.36322 0.21614 0.0
H3510 H 0.77419 0.35266 0.25553 0.0
H3511 H 0.8176 0.28757 0.23457 0.0
H3512 H 0.8447 0.28544 0.24044 0.0
H3513 H 0.83615 0.29511 0.21356 0.0
H3514 H 0.85757 0.32822 0.21953 0.0
H3515 H 0.86623 0.31864 0.24638 0.0
H3516 H 0.85372 0.3433 0.24466 0.0
H3517 H 0.78628 0.34005 0.2925 0.0
H3518 H 0.80403 0.32588 0.32558 0.0
H3519 H 0.85143 0.30047 0.28226 0.0
C3520 C 0.81288 0.33552 0.20878 0.0
C3521 C 0.79567 0.34775 0.20304 0.0
C3522 C 0.78171 0.35379 0.2201 0.0
C3523 C 0.78482 0.34786 0.24252 0.0
C3524 C 0.80188 0.3358 0.24759 0.0
C3525 C 0.81567 0.32963 0.23127 0.0
C3526 C 0.83292 0.31694 0.24144 0.0
C3527 C 0.83283 0.29496 0.23194 0.0
C3528 C 0.85385 0.32741 0.23779 0.0
C3529 C 0.82676 0.31719 0.2661 0.0
C3530 C 0.80878 0.32816 0.26914 0.0
C3531 C 0.8003 0.33132 0.29035 0.0
C3532 C 0.81056 0.32326 0.30904 0.0
C3533 C 0.82911 0.31207 0.30648 0.0
C3534 C 0.83716 0.30875 0.28466 0.0
H3535 H 0.64459 0.7873 0.22573 0.0
H3536 H 0.65484 0.84279 0.1865 0.0
H3537 H 0.66674 0.86063 0.22043 0.0
H3538 H 0.62677 0.81428 0.27735 0.0
H3539 H 0.63923 0.79635 0.29604 0.0
H3540 H 0.63012 0.78789 0.26889 0.0
H3541 H 0.66656 0.77457 0.25919 0.0
H3542 H 0.67579 0.78307 0.28624 0.0
H3543 H 0.68811 0.79192 0.26081 0.0
H3544 H 0.68105 0.87159 0.25681 0.0
H3545 H 0.69447 0.87607 0.2953 0.0
H3546 H 0.67332 0.81496 0.31304 0.0
C3547 C 0.64903 0.80328 0.22438 0.0
C3548 C 0.64885 0.81353 0.20329 0.0
C3549 C 0.65489 0.83446 0.20229 0.0
C3550 C 0.66167 0.84482 0.22154 0.0
C3551 C 0.6621 0.83422 0.24187 0.0
C3552 C 0.65569 0.81404 0.24362 0.0
C3553 C 0.65828 0.80629 0.26765 0.0
C3554 C 0.63735 0.80089 0.2781 0.0
C3555 C 0.67307 0.78787 0.26851 0.0
C3556 C 0.66761 0.82513 0.27885 0.0
C3557 C 0.66967 0.84099 0.26351 0.0
C3558 C 0.67919 0.85945 0.26911 0.0
C3559 C 0.68685 0.86182 0.29097 0.0
C3560 C 0.68472 0.84598 0.30712 0.0
C3561 C 0.67476 0.82745 0.30108 0.0
H3562 H 0.17424 0.68145 0.30659 0.0
H3563 H 0.12764 0.7255 0.28637 0.0
H3564 H 0.13369 0.71658 0.24644 0.0
H3565 H 0.20905 0.69174 0.25997 0.0
H3566 H 0.21698 0.66531 0.25737 0.0
H3567 H 0.20907 0.67521 0.28437 0.0
H3568 H 0.18184 0.64631 0.28759 0.0
H3569 H 0.18961 0.63635 0.26058 0.0
H3570 H 0.16313 0.64314 0.26545 0.0
H3571 H 0.1432 0.70156 0.20932 0.0
H3572 H 0.15749 0.68343 0.1765 0.0
H3573 H 0.19957 0.65037 0.22021 0.0
C3574 C 0.16535 0.68925 0.29373 0.0
C3575 C 0.15041 0.70412 0.29951 0.0
C3576 C 0.1392 0.71413 0.28227 0.0
C3577 C 0.14249 0.70912 0.25958 0.0
C3578 C 0.15723 0.6943 0.25447 0.0
C3579 C 0.16867 0.68468 0.27099 0.0
C3580 C 0.18374 0.66949 0.26086 0.0
C3581 C 0.20603 0.67582 0.26594 0.0
C3582 C 0.17931 0.64752 0.26911 0.0
C3583 C 0.17878 0.67188 0.23604 0.0
C3584 C 0.16332 0.68617 0.23283 0.0
C3585 C 0.15543 0.69049 0.21158 0.0
C3586 C 0.16359 0.68001 0.19306 0.0
C3587 C 0.17966 0.66552 0.19584 0.0
C3588 C 0.18743 0.66151 0.21762 0.0
H3589 H 0.33018 0.17192 0.30739 0.0
H3590 H 0.28538 0.12444 0.29263 0.0
H3591 H 0.29152 0.12916 0.25182 0.0
H3592 H 0.31495 0.2051 0.26233 0.0
H3593 H 0.34058 0.2141 0.25637 0.0
H3594 H 0.33396 0.20585 0.28443 0.0
H3595 H 0.36402 0.17978 0.28386 0.0
H3596 H 0.37073 0.18797 0.25579 0.0
H3597 H 0.36561 0.16123 0.26136 0.0
H3598 H 0.30278 0.13886 0.21255 0.0
H3599 H 0.31598 0.155 0.17765 0.0
H3600 H 0.35124 0.19813 0.21785 0.0
C3601 C 0.32188 0.16237 0.29553 0.0
C3602 C 0.30747 0.14765 0.30311 0.0
C3603 C 0.29653 0.13575 0.28714 0.0
C3604 C 0.29996 0.13828 0.26395 0.0
C3605 C 0.31415 0.15301 0.25697 0.0
C3606 C 0.32477 0.16504 0.27227 0.0
C3607 C 0.33813 0.18071 0.26028 0.0
C3608 C 0.3315 0.20274 0.26621 0.0
C3609 C 0.36098 0.1772 0.26564 0.0
C3610 C 0.33335 0.17562 0.2359 0.0
C3611 C 0.31974 0.15939 0.23435 0.0
C3612 C 0.31336 0.15166 0.21356 0.0
C3613 C 0.32096 0.16088 0.19384 0.0
C3614 C 0.33447 0.1779 0.19505 0.0
C3615 C 0.34074 0.18527 0.2164 0.0
loop_
_geom_bond_atom_site_label_1
_geom_bond_atom_site_label_2
_geom_bond_distance
_geom_bond_site_symmetry_2
_ccdc_geom_bond_type
Co0 O2 2.143 . S
Co0 O8 2.074 . S
Co0 O11 2.093 . S
Co0 O24 2.097 . S
Co0 N41 2.151 . S
Co0 N49 2.214 . S
Co1 O2 2.160 . S
Co1 O7 2.058 . S
Co1 O17 2.057 . S
Co1 O32 2.037 . S
Co1 N36 2.145 . S
Co1 N57 2.257 . S
O2 Co0 2.143 . S
O2 Co1 2.160 . S
C3 O4 1.278 . S
C3 O11 1.224 . S
O4 C3 1.278 . S
C5 O6 1.245 . S
C5 O17 1.232 . S
O6 C5 1.245 . S
O7 Co1 2.058 . S
O7 C33 1.269 . S
O8 Co0 2.074 . S
O8 C33 1.257 . S
H9 C34 0.930 . S
H10 C40 0.930 . S
O11 Co0 2.093 . S
O11 C3 1.224 . S
H12 C44 0.929 . S
H13 C46 0.930 . S
H14 C47 0.930 . S
H15 C45 0.929 . S
H16 C48 0.928 . S
O17 Co1 2.057 . S
O17 C5 1.232 . S
H18 C37 0.929 . S
H19 C38 0.929 . S
H20 C50 0.931 . S
H21 C42 0.929 . S
H22 C51 0.930 . S
H23 C43 0.931 . S
O24 Co0 2.097 . S
O24 C52 1.214 . S
H25 C53 0.929 . S
H26 C54 0.929 . S
H27 C55 0.930 . S
H28 C56 0.929 . S
H29 C58 0.930 . S
H30 C35 0.930 . S
H31 C39 0.930 . S
O32 Co1 2.037 . S
O32 C52 1.234 . S
C33 O7 1.269 . S
C33 O8 1.257 . S
C34 H9 0.930 . S
C34 C37 1.388 . S
C34 C39 1.418 . S
C35 H30 0.930 . S
C35 C38 1.404 . S
C35 C39 1.353 . S
N36 Co1 2.145 . S
N36 C37 1.397 . S
N36 C38 1.334 . S
C37 H18 0.929 . S
C37 C34 1.388 . S
C37 N36 1.397 . S
C38 H19 0.929 . S
C38 C35 1.404 . S
C38 N36 1.334 . S
C39 H31 0.930 . S
C39 C34 1.418 . S
C39 C35 1.353 . S
C40 H10 0.930 . S
C40 N41 1.330 . S
C40 C42 1.446 . S
N41 Co0 2.151 . S
N41 C40 1.330 . S
N41 C45 1.418 . S
C42 H21 0.929 . S
C42 C40 1.446 . S
C42 C43 1.332 . S
C43 H23 0.931 . S
C43 C42 1.332 . S
C43 C44 1.267 . S
C44 H12 0.929 . S
C44 C43 1.267 . S
C44 C45 1.251 . S
C45 H15 0.929 . S
C45 N41 1.418 . S
C45 C44 1.251 . S
C46 H13 0.930 . S
C46 C48 1.406 . S
C46 C51 1.261 . S
C47 H14 0.930 . S
C47 N49 1.325 . S
C47 C50 1.357 . S
C48 H16 0.928 . S
C48 C46 1.406 . S
C48 N49 1.261 . S
N49 Co0 2.214 . S
N49 C47 1.325 . S
N49 C48 1.261 . S
C50 H20 0.931 . S
C50 C47 1.357 . S
C50 C51 1.312 . S
C51 H22 0.930 . S
C51 C46 1.261 . S
C51 C50 1.312 . S
C52 O24 1.214 . S
C52 O32 1.234 . S
C53 H25 0.929 . S
C53 C56 1.391 . S
C53 C58 1.391 . S
C54 H26 0.929 . S
C54 C55 1.390 . S
C54 N57 1.391 . S
C55 H27 0.930 . S
C55 C54 1.390 . S
C55 C56 1.392 . S
C56 H28 0.929 . S
C56 C53 1.391 . S
C56 C55 1.392 . S
N57 Co1 2.257 . S
N57 C54 1.391 . S
N57 C58 1.388 . S
C58 H29 0.930 . S
C58 C53 1.391 . S
C58 N57 1.388 . S
Co59 O61 2.143 . S
Co59 O67 2.074 . S
Co59 O70 2.093 . S
Co59 O83 2.097 . S
Co59 N100 2.151 . S
Co59 N108 2.214 . S
Co60 O61 2.160 . S
Co60 O66 2.058 . S
Co60 O76 2.057 . S
Co60 O91 2.037 . S
Co60 N95 2.145 . S
Co60 N116 2.257 . S
O61 Co59 2.143 . S
O61 Co60 2.160 . S
C62 O63 1.278 . S
C62 O70 1.224 . S
O63 C62 1.278 . S
C64 O65 1.245 . S
C64 O76 1.232 . S
O65 C64 1.245 . S
O66 Co60 2.058 . S
O66 C92 1.269 . S
O67 Co59 2.074 . S
O67 C92 1.257 . S
H68 C93 0.930 . S
H69 C99 0.930 . S
O70 Co59 2.093 . S
O70 C62 1.224 . S
H71 C103 0.929 . S
H72 C105 0.930 . S
H73 C106 0.930 . S
H74 C104 0.929 . S
H75 C107 0.928 . S
O76 Co60 2.057 . S
O76 C64 1.232 . S
H77 C96 0.929 . S
H78 C97 0.929 . S
H79 C109 0.931 . S
H80 C101 0.929 . S
H81 C110 0.930 . S
H82 C102 0.931 . S
O83 Co59 2.097 . S
O83 C111 1.214 . S
H84 C112 0.929 . S
H85 C113 0.929 . S
H86 C114 0.930 . S
H87 C115 0.929 . S
H88 C117 0.930 . S
H89 C94 0.930 . S
H90 C98 0.930 . S
O91 Co60 2.037 . S
O91 C111 1.234 . S
C92 O66 1.269 . S
C92 O67 1.257 . S
C93 H68 0.930 . S
C93 C96 1.388 . S
C93 C98 1.418 . S
C94 H89 0.930 . S
C94 C97 1.404 . S
C94 C98 1.353 . S
N95 Co60 2.145 . S
N95 C96 1.397 . S
N95 C97 1.334 . S
C96 H77 0.929 . S
C96 C93 1.388 . S
C96 N95 1.397 . S
C97 H78 0.929 . S
C97 C94 1.404 . S
C97 N95 1.334 . S
C98 H90 0.930 . S
C98 C93 1.418 . S
C98 C94 1.353 . S
C99 H69 0.930 . S
C99 N100 1.330 . S
C99 C101 1.446 . S
N100 Co59 2.151 . S
N100 C99 1.330 . S
N100 C104 1.418 . S
C101 H80 0.929 . S
C101 C99 1.446 . S
C101 C102 1.332 . S
C102 H82 0.931 . S
C102 C101 1.332 . S
C102 C103 1.267 . S
C103 H71 0.929 . S
C103 C102 1.267 . S
C103 C104 1.251 . S
C104 H74 0.929 . S
C104 N100 1.418 . S
C104 C103 1.251 . S
C105 H72 0.930 . S
C105 C107 1.406 . S
C105 C110 1.261 . S
C106 H73 0.930 . S
C106 N108 1.325 . S
C106 C109 1.357 . S
C107 H75 0.928 . S
C107 C105 1.406 . S
C107 N108 1.261 . S
N108 Co59 2.214 . S
N108 C106 1.325 . S
N108 C107 1.261 . S
C109 H79 0.931 . S
C109 C106 1.357 . S
C109 C110 1.312 . S
C110 H81 0.930 . S
C110 C105 1.261 . S
C110 C109 1.312 . S
C111 O83 1.214 . S
C111 O91 1.234 . S
C112 H84 0.929 . S
C112 C115 1.391 . S
C112 C117 1.391 . S
C113 H85 0.929 . S
C113 C114 1.390 . S
C113 N116 1.391 . S
C114 H86 0.930 . S
C114 C113 1.390 . S
C114 C115 1.392 . S
C115 H87 0.929 . S
C115 C112 1.391 . S
C115 C114 1.392 . S
N116 Co60 2.257 . S
N116 C113 1.391 . S
N116 C117 1.388 . S
C117 H88 0.930 . S
C117 C112 1.391 . S
C117 N116 1.388 . S
Co118 O120 2.143 . S
Co118 O126 2.074 . S
Co118 O129 2.093 . S
Co118 O142 2.097 . S
Co118 N159 2.151 . S
Co118 N167 2.214 . S
Co119 O120 2.160 . S
Co119 O125 2.058 . S
Co119 O135 2.057 . S
Co119 O150 2.037 . S
Co119 N154 2.145 . S
Co119 N175 2.257 . S
O120 Co118 2.143 . S
O120 Co119 2.160 . S
C121 O122 1.278 . S
C121 O129 1.224 . S
O122 C121 1.278 . S
C123 O124 1.245 . S
C123 O135 1.232 . S
O124 C123 1.245 . S
O125 Co119 2.058 . S
O125 C151 1.269 . S
O126 Co118 2.074 . S
O126 C151 1.257 . S
H127 C152 0.930 . S
H128 C158 0.930 . S
O129 Co118 2.093 . S
O129 C121 1.224 . S
H130 C162 0.929 . S
H131 C164 0.930 . S
H132 C165 0.930 . S
H133 C163 0.929 . S
H134 C166 0.928 . S
O135 Co119 2.057 . S
O135 C123 1.232 . S
H136 C155 0.929 . S
H137 C156 0.929 . S
H138 C168 0.931 . S
H139 C160 0.929 . S
H140 C169 0.930 . S
H141 C161 0.931 . S
O142 Co118 2.097 . S
O142 C170 1.214 . S
H143 C171 0.929 . S
H144 C172 0.929 . S
H145 C173 0.930 . S
H146 C174 0.929 . S
H147 C176 0.930 . S
H148 C153 0.930 . S
H149 C157 0.930 . S
O150 Co119 2.037 . S
O150 C170 1.234 . S
C151 O125 1.269 . S
C151 O126 1.257 . S
C152 H127 0.930 . S
C152 C155 1.388 . S
C152 C157 1.418 . S
C153 H148 0.930 . S
C153 C156 1.404 . S
C153 C157 1.353 . S
N154 Co119 2.145 . S
N154 C155 1.397 . S
N154 C156 1.334 . S
C155 H136 0.929 . S
C155 C152 1.388 . S
C155 N154 1.397 . S
C156 H137 0.929 . S
C156 C153 1.404 . S
C156 N154 1.334 . S
C157 H149 0.930 . S
C157 C152 1.418 . S
C157 C153 1.353 . S
C158 H128 0.930 . S
C158 N159 1.330 . S
C158 C160 1.446 . S
N159 Co118 2.151 . S
N159 C158 1.330 . S
N159 C163 1.418 . S
C160 H139 0.929 . S
C160 C158 1.446 . S
C160 C161 1.332 . S
C161 H141 0.931 . S
C161 C160 1.332 . S
C161 C162 1.267 . S
C162 H130 0.929 . S
C162 C161 1.267 . S
C162 C163 1.251 . S
C163 H133 0.929 . S
C163 N159 1.418 . S
C163 C162 1.251 . S
C164 H131 0.930 . S
C164 C166 1.406 . S
C164 C169 1.261 . S
C165 H132 0.930 . S
C165 N167 1.325 . S
C165 C168 1.357 . S
C166 H134 0.928 . S
C166 C164 1.406 . S
C166 N167 1.261 . S
N167 Co118 2.214 . S
N167 C165 1.325 . S
N167 C166 1.261 . S
C168 H138 0.931 . S
C168 C165 1.357 . S
C168 C169 1.312 . S
C169 H140 0.930 . S
C169 C164 1.261 . S
C169 C168 1.312 . S
C170 O142 1.214 . S
C170 O150 1.234 . S
C171 H143 0.929 . S
C171 C174 1.391 . S
C171 C176 1.391 . S
C172 H144 0.929 . S
C172 C173 1.390 . S
C172 N175 1.391 . S
C173 H145 0.930 . S
C173 C172 1.390 . S
C173 C174 1.392 . S
C174 H146 0.929 . S
C174 C171 1.391 . S
C174 C173 1.392 . S
N175 Co119 2.257 . S
N175 C172 1.391 . S
N175 C176 1.388 . S
C176 H147 0.930 . S
C176 C171 1.391 . S
C176 N175 1.388 . S
Co177 O179 2.143 . S
Co177 O185 2.074 . S
Co177 O188 2.093 . S
Co177 O201 2.097 . S
Co177 N218 2.151 . S
Co177 N226 2.214 . S
Co178 O179 2.160 . S
Co178 O184 2.058 . S
Co178 O194 2.057 . S
Co178 O209 2.037 . S
Co178 N213 2.145 . S
Co178 N234 2.257 . S
O179 Co177 2.143 . S
O179 Co178 2.160 . S
C180 O181 1.278 . S
C180 O188 1.224 . S
O181 C180 1.278 . S
C182 O183 1.245 . S
C182 O194 1.232 . S
O183 C182 1.245 . S
O184 Co178 2.058 . S
O184 C210 1.269 . S
O185 Co177 2.074 . S
O185 C210 1.257 . S
H186 C211 0.930 . S
H187 C217 0.930 . S
O188 Co177 2.093 . S
O188 C180 1.224 . S
H189 C221 0.929 . S
H190 C223 0.930 . S
H191 C224 0.930 . S
H192 C222 0.929 . S
H193 C225 0.928 . S
O194 Co178 2.057 . S
O194 C182 1.232 . S
H195 C214 0.929 . S
H196 C215 0.929 . S
H197 C227 0.931 . S
H198 C219 0.929 . S
H199 C228 0.930 . S
H200 C220 0.931 . S
O201 Co177 2.097 . S
O201 C229 1.214 . S
H202 C230 0.929 . S
H203 C231 0.929 . S
H204 C232 0.930 . S
H205 C233 0.929 . S
H206 C235 0.930 . S
H207 C212 0.930 . S
H208 C216 0.930 . S
O209 Co178 2.037 . S
O209 C229 1.234 . S
C210 O184 1.269 . S
C210 O185 1.257 . S
C211 H186 0.930 . S
C211 C214 1.388 . S
C211 C216 1.418 . S
C212 H207 0.930 . S
C212 C215 1.404 . S
C212 C216 1.353 . S
N213 Co178 2.145 . S
N213 C214 1.397 . S
N213 C215 1.334 . S
C214 H195 0.929 . S
C214 C211 1.388 . S
C214 N213 1.397 . S
C215 H196 0.929 . S
C215 C212 1.404 . S
C215 N213 1.334 . S
C216 H208 0.930 . S
C216 C211 1.418 . S
C216 C212 1.353 . S
C217 H187 0.930 . S
C217 N218 1.330 . S
C217 C219 1.446 . S
N218 Co177 2.151 . S
N218 C217 1.330 . S
N218 C222 1.418 . S
C219 H198 0.929 . S
C219 C217 1.446 . S
C219 C220 1.332 . S
C220 H200 0.931 . S
C220 C219 1.332 . S
C220 C221 1.267 . S
C221 H189 0.929 . S
C221 C220 1.267 . S
C221 C222 1.251 . S
C222 H192 0.929 . S
C222 N218 1.418 . S
C222 C221 1.251 . S
C223 H190 0.930 . S
C223 C225 1.406 . S
C223 C228 1.261 . S
C224 H191 0.930 . S
C224 N226 1.325 . S
C224 C227 1.357 . S
C225 H193 0.928 . S
C225 C223 1.406 . S
C225 N226 1.261 . S
N226 Co177 2.214 . S
N226 C224 1.325 . S
N226 C225 1.261 . S
C227 H197 0.931 . S
C227 C224 1.357 . S
C227 C228 1.312 . S
C228 H199 0.930 . S
C228 C223 1.261 . S
C228 C227 1.312 . S
C229 O201 1.214 . S
C229 O209 1.234 . S
C230 H202 0.929 . S
C230 C233 1.391 . S
C230 C235 1.391 . S
C231 H203 0.929 . S
C231 C232 1.390 . S
C231 N234 1.391 . S
C232 H204 0.930 . S
C232 C231 1.390 . S
C232 C233 1.392 . S
C233 H205 0.929 . S
C233 C230 1.391 . S
C233 C232 1.392 . S
N234 Co178 2.257 . S
N234 C231 1.391 . S
N234 C235 1.388 . S
C235 H206 0.930 . S
C235 C230 1.391 . S
C235 N234 1.388 . S
Co236 O238 2.143 . S
Co236 O244 2.074 . S
Co236 O247 2.093 . S
Co236 O260 2.097 . S
Co236 N277 2.151 . S
Co236 N285 2.214 . S
Co237 O238 2.160 . S
Co237 O243 2.058 . S
Co237 O253 2.057 . S
Co237 O268 2.037 . S
Co237 N272 2.145 . S
Co237 N293 2.257 . S
O238 Co236 2.143 . S
O238 Co237 2.160 . S
C239 O240 1.278 . S
C239 O247 1.224 . S
O240 C239 1.278 . S
C241 O242 1.245 . S
C241 O253 1.232 . S
O242 C241 1.245 . S
O243 Co237 2.058 . S
O243 C269 1.269 . S
O244 Co236 2.074 . S
O244 C269 1.257 . S
H245 C270 0.930 . S
H246 C276 0.930 . S
O247 Co236 2.093 . S
O247 C239 1.224 . S
H248 C280 0.929 . S
H249 C282 0.930 . S
H250 C283 0.930 . S
H251 C281 0.929 . S
H252 C284 0.928 . S
O253 Co237 2.057 . S
O253 C241 1.232 . S
H254 C273 0.929 . S
H255 C274 0.929 . S
H256 C286 0.931 . S
H257 C278 0.929 . S
H258 C287 0.930 . S
H259 C279 0.931 . S
O260 Co236 2.097 . S
O260 C288 1.214 . S
H261 C289 0.929 . S
H262 C290 0.929 . S
H263 C291 0.930 . S
H264 C292 0.929 . S
H265 C294 0.930 . S
H266 C271 0.930 . S
H267 C275 0.930 . S
O268 Co237 2.037 . S
O268 C288 1.234 . S
C269 O243 1.269 . S
C269 O244 1.257 . S
C270 H245 0.930 . S
C270 C273 1.388 . S
C270 C275 1.418 . S
C271 H266 0.930 . S
C271 C274 1.404 . S
C271 C275 1.353 . S
N272 Co237 2.145 . S
N272 C273 1.397 . S
N272 C274 1.334 . S
C273 H254 0.929 . S
C273 C270 1.388 . S
C273 N272 1.397 . S
C274 H255 0.929 . S
C274 C271 1.404 . S
C274 N272 1.334 . S
C275 H267 0.930 . S
C275 C270 1.418 . S
C275 C271 1.353 . S
C276 H246 0.930 . S
C276 N277 1.330 . S
C276 C278 1.446 . S
N277 Co236 2.151 . S
N277 C276 1.330 . S
N277 C281 1.418 . S
C278 H257 0.929 . S
C278 C276 1.446 . S
C278 C279 1.332 . S
C279 H259 0.931 . S
C279 C278 1.332 . S
C279 C280 1.267 . S
C280 H248 0.929 . S
C280 C279 1.267 . S
C280 C281 1.251 . S
C281 H251 0.929 . S
C281 N277 1.418 . S
C281 C280 1.251 . S
C282 H249 0.930 . S
C282 C284 1.406 . S
C282 C287 1.261 . S
C283 H250 0.930 . S
C283 N285 1.325 . S
C283 C286 1.357 . S
C284 H252 0.928 . S
C284 C282 1.406 . S
C284 N285 1.261 . S
N285 Co236 2.214 . S
N285 C283 1.325 . S
N285 C284 1.261 . S
C286 H256 0.931 . S
C286 C283 1.357 . S
C286 C287 1.312 . S
C287 H258 0.930 . S
C287 C282 1.261 . S
C287 C286 1.312 . S
C288 O260 1.214 . S
C288 O268 1.234 . S
C289 H261 0.929 . S
C289 C292 1.391 . S
C289 C294 1.391 . S
C290 H262 0.929 . S
C290 C291 1.390 . S
C290 N293 1.391 . S
C291 H263 0.930 . S
C291 C290 1.390 . S
C291 C292 1.392 . S
C292 H264 0.929 . S
C292 C289 1.391 . S
C292 C291 1.392 . S
N293 Co237 2.257 . S
N293 C290 1.391 . S
N293 C294 1.388 . S
C294 H265 0.930 . S
C294 C289 1.391 . S
C294 N293 1.388 . S
Co295 O297 2.143 . S
Co295 O303 2.074 . S
Co295 O306 2.093 . S
Co295 O319 2.097 . S
Co295 N336 2.151 . S
Co295 N344 2.214 . S
Co296 O297 2.160 . S
Co296 O302 2.058 . S
Co296 O312 2.057 . S
Co296 O327 2.037 . S
Co296 N331 2.145 . S
Co296 N352 2.257 . S
O297 Co295 2.143 . S
O297 Co296 2.160 . S
C298 O299 1.278 . S
C298 O306 1.224 . S
O299 C298 1.278 . S
C300 O301 1.245 . S
C300 O312 1.232 . S
O301 C300 1.245 . S
O302 Co296 2.058 . S
O302 C328 1.269 . S
O303 Co295 2.074 . S
O303 C328 1.257 . S
H304 C329 0.930 . S
H305 C335 0.930 . S
O306 Co295 2.093 . S
O306 C298 1.224 . S
H307 C339 0.929 . S
H308 C341 0.930 . S
H309 C342 0.930 . S
H310 C340 0.929 . S
H311 C343 0.928 . S
O312 Co296 2.057 . S
O312 C300 1.232 . S
H313 C332 0.929 . S
H314 C333 0.929 . S
H315 C345 0.931 . S
H316 C337 0.929 . S
H317 C346 0.930 . S
H318 C338 0.931 . S
O319 Co295 2.097 . S
O319 C347 1.214 . S
H320 C348 0.929 . S
H321 C349 0.929 . S
H322 C350 0.930 . S
H323 C351 0.929 . S
H324 C353 0.930 . S
H325 C330 0.930 . S
H326 C334 0.930 . S
O327 Co296 2.037 . S
O327 C347 1.234 . S
C328 O302 1.269 . S
C328 O303 1.257 . S
C329 H304 0.930 . S
C329 C332 1.388 . S
C329 C334 1.418 . S
C330 H325 0.930 . S
C330 C333 1.404 . S
C330 C334 1.353 . S
N331 Co296 2.145 . S
N331 C332 1.397 . S
N331 C333 1.334 . S
C332 H313 0.929 . S
C332 C329 1.388 . S
C332 N331 1.397 . S
C333 H314 0.929 . S
C333 C330 1.404 . S
C333 N331 1.334 . S
C334 H326 0.930 . S
C334 C329 1.418 . S
C334 C330 1.353 . S
C335 H305 0.930 . S
C335 N336 1.330 . S
C335 C337 1.446 . S
N336 Co295 2.151 . S
N336 C335 1.330 . S
N336 C340 1.418 . S
C337 H316 0.929 . S
C337 C335 1.446 . S
C337 C338 1.332 . S
C338 H318 0.931 . S
C338 C337 1.332 . S
C338 C339 1.267 . S
C339 H307 0.929 . S
C339 C338 1.267 . S
C339 C340 1.251 . S
C340 H310 0.929 . S
C340 N336 1.418 . S
C340 C339 1.251 . S
C341 H308 0.930 . S
C341 C343 1.406 . S
C341 C346 1.261 . S
C342 H309 0.930 . S
C342 N344 1.325 . S
C342 C345 1.357 . S
C343 H311 0.928 . S
C343 C341 1.406 . S
C343 N344 1.261 . S
N344 Co295 2.214 . S
N344 C342 1.325 . S
N344 C343 1.261 . S
C345 H315 0.931 . S
C345 C342 1.357 . S
C345 C346 1.312 . S
C346 H317 0.930 . S
C346 C341 1.261 . S
C346 C345 1.312 . S
C347 O319 1.214 . S
C347 O327 1.234 . S
C348 H320 0.929 . S
C348 C351 1.391 . S
C348 C353 1.391 . S
C349 H321 0.929 . S
C349 C350 1.390 . S
C349 N352 1.391 . S
C350 H322 0.930 . S
C350 C349 1.390 . S
C350 C351 1.392 . S
C351 H323 0.929 . S
C351 C348 1.391 . S
C351 C350 1.392 . S
N352 Co296 2.257 . S
N352 C349 1.391 . S
N352 C353 1.388 . S
C353 H324 0.930 . S
C353 C348 1.391 . S
C353 N352 1.388 . S
Co354 O356 2.143 . S
Co354 O362 2.074 . S
Co354 O365 2.093 . S
Co354 O378 2.097 . S
Co354 N395 2.151 . S
Co354 N403 2.214 . S
Co355 O356 2.160 . S
Co355 O361 2.058 . S
Co355 O371 2.057 . S
Co355 O386 2.037 . S
Co355 N390 2.145 . S
Co355 N411 2.257 . S
O356 Co354 2.143 . S
O356 Co355 2.160 . S
C357 O358 1.278 . S
C357 O365 1.224 . S
O358 C357 1.278 . S
C359 O360 1.245 . S
C359 O371 1.232 . S
O360 C359 1.245 . S
O361 Co355 2.058 . S
O361 C387 1.269 . S
O362 Co354 2.074 . S
O362 C387 1.257 . S
H363 C388 0.930 . S
H364 C394 0.930 . S
O365 Co354 2.093 . S
O365 C357 1.224 . S
H366 C398 0.929 . S
H367 C400 0.930 . S
H368 C401 0.930 . S
H369 C399 0.929 . S
H370 C402 0.928 . S
O371 Co355 2.057 . S
O371 C359 1.232 . S
H372 C391 0.929 . S
H373 C392 0.929 . S
H374 C404 0.931 . S
H375 C396 0.929 . S
H376 C405 0.930 . S
H377 C397 0.931 . S
O378 Co354 2.097 . S
O378 C406 1.214 . S
H379 C407 0.929 . S
H380 C408 0.929 . S
H381 C409 0.930 . S
H382 C410 0.929 . S
H383 C412 0.930 . S
H384 C389 0.930 . S
H385 C393 0.930 . S
O386 Co355 2.037 . S
O386 C406 1.234 . S
C387 O361 1.269 . S
C387 O362 1.257 . S
C388 H363 0.930 . S
C388 C391 1.388 . S
C388 C393 1.418 . S
C389 H384 0.930 . S
C389 C392 1.404 . S
C389 C393 1.353 . S
N390 Co355 2.145 . S
N390 C391 1.397 . S
N390 C392 1.334 . S
C391 H372 0.929 . S
C391 C388 1.388 . S
C391 N390 1.397 . S
C392 H373 0.929 . S
C392 C389 1.404 . S
C392 N390 1.334 . S
C393 H385 0.930 . S
C393 C388 1.418 . S
C393 C389 1.353 . S
C394 H364 0.930 . S
C394 N395 1.330 . S
C394 C396 1.446 . S
N395 Co354 2.151 . S
N395 C394 1.330 . S
N395 C399 1.418 . S
C396 H375 0.929 . S
C396 C394 1.446 . S
C396 C397 1.332 . S
C397 H377 0.931 . S
C397 C396 1.332 . S
C397 C398 1.267 . S
C398 H366 0.929 . S
C398 C397 1.267 . S
C398 C399 1.251 . S
C399 H369 0.929 . S
C399 N395 1.418 . S
C399 C398 1.251 . S
C400 H367 0.930 . S
C400 C402 1.406 . S
C400 C405 1.261 . S
C401 H368 0.930 . S
C401 N403 1.325 . S
C401 C404 1.357 . S
C402 H370 0.928 . S
C402 C400 1.406 . S
C402 N403 1.261 . S
N403 Co354 2.214 . S
N403 C401 1.325 . S
N403 C402 1.261 . S
C404 H374 0.931 . S
C404 C401 1.357 . S
C404 C405 1.312 . S
C405 H376 0.930 . S
C405 C400 1.261 . S
C405 C404 1.312 . S
C406 O378 1.214 . S
C406 O386 1.234 . S
C407 H379 0.929 . S
C407 C410 1.391 . S
C407 C412 1.391 . S
C408 H380 0.929 . S
C408 C409 1.390 . S
C408 N411 1.391 . S
C409 H381 0.930 . S
C409 C408 1.390 . S
C409 C410 1.392 . S
C410 H382 0.929 . S
C410 C407 1.391 . S
C410 C409 1.392 . S
N411 Co355 2.257 . S
N411 C408 1.391 . S
N411 C412 1.388 . S
C412 H383 0.930 . S
C412 C407 1.391 . S
C412 N411 1.388 . S
Co413 O415 2.143 . S
Co413 O421 2.074 . S
Co413 O424 2.093 . S
Co413 O437 2.097 . S
Co413 N454 2.151 . S
Co413 N462 2.214 . S
Co414 O415 2.160 . S
Co414 O420 2.058 . S
Co414 O430 2.057 . S
Co414 O445 2.037 . S
Co414 N449 2.145 . S
Co414 N470 2.257 . S
O415 Co413 2.143 . S
O415 Co414 2.160 . S
C416 O417 1.278 . S
C416 O424 1.224 . S
O417 C416 1.278 . S
C418 O419 1.245 . S
C418 O430 1.232 . S
O419 C418 1.245 . S
O420 Co414 2.058 . S
O420 C446 1.269 . S
O421 Co413 2.074 . S
O421 C446 1.257 . S
H422 C447 0.930 . S
H423 C453 0.930 . S
O424 Co413 2.093 . S
O424 C416 1.224 . S
H425 C457 0.929 . S
H426 C459 0.930 . S
H427 C460 0.930 . S
H428 C458 0.929 . S
H429 C461 0.928 . S
O430 Co414 2.057 . S
O430 C418 1.232 . S
H431 C450 0.929 . S
H432 C451 0.929 . S
H433 C463 0.931 . S
H434 C455 0.929 . S
H435 C464 0.930 . S
H436 C456 0.931 . S
O437 Co413 2.097 . S
O437 C465 1.214 . S
H438 C466 0.929 . S
H439 C467 0.929 . S
H440 C468 0.930 . S
H441 C469 0.929 . S
H442 C471 0.930 . S
H443 C448 0.930 . S
H444 C452 0.930 . S
O445 Co414 2.037 . S
O445 C465 1.234 . S
C446 O420 1.269 . S
C446 O421 1.257 . S
C447 H422 0.930 . S
C447 C450 1.388 . S
C447 C452 1.418 . S
C448 H443 0.930 . S
C448 C451 1.404 . S
C448 C452 1.353 . S
N449 Co414 2.145 . S
N449 C450 1.397 . S
N449 C451 1.334 . S
C450 H431 0.929 . S
C450 C447 1.388 . S
C450 N449 1.397 . S
C451 H432 0.929 . S
C451 C448 1.404 . S
C451 N449 1.334 . S
C452 H444 0.930 . S
C452 C447 1.418 . S
C452 C448 1.353 . S
C453 H423 0.930 . S
C453 N454 1.330 . S
C453 C455 1.446 . S
N454 Co413 2.151 . S
N454 C453 1.330 . S
N454 C458 1.418 . S
C455 H434 0.929 . S
C455 C453 1.446 . S
C455 C456 1.332 . S
C456 H436 0.931 . S
C456 C455 1.332 . S
C456 C457 1.267 . S
C457 H425 0.929 . S
C457 C456 1.267 . S
C457 C458 1.251 . S
C458 H428 0.929 . S
C458 N454 1.418 . S
C458 C457 1.251 . S
C459 H426 0.930 . S
C459 C461 1.406 . S
C459 C464 1.261 . S
C460 H427 0.930 . S
C460 N462 1.325 . S
C460 C463 1.357 . S
C461 H429 0.928 . S
C461 C459 1.406 . S
C461 N462 1.261 . S
N462 Co413 2.214 . S
N462 C460 1.325 . S
N462 C461 1.261 . S
C463 H433 0.931 . S
C463 C460 1.357 . S
C463 C464 1.312 . S
C464 H435 0.930 . S
C464 C459 1.261 . S
C464 C463 1.312 . S
C465 O437 1.214 . S
C465 O445 1.234 . S
C466 H438 0.929 . S
C466 C469 1.391 . S
C466 C471 1.391 . S
C467 H439 0.929 . S
C467 C468 1.390 . S
C467 N470 1.391 . S
C468 H440 0.930 . S
C468 C467 1.390 . S
C468 C469 1.392 . S
C469 H441 0.929 . S
C469 C466 1.391 . S
C469 C468 1.392 . S
N470 Co414 2.257 . S
N470 C467 1.391 . S
N470 C471 1.388 . S
C471 H442 0.930 . S
C471 C466 1.391 . S
C471 N470 1.388 . S
Co472 O474 2.143 . S
Co472 O480 2.074 . S
Co472 O483 2.093 . S
Co472 O496 2.097 . S
Co472 N513 2.151 . S
Co472 N521 2.214 . S
Co473 O474 2.160 . S
Co473 O479 2.058 . S
Co473 O489 2.057 . S
Co473 O504 2.037 . S
Co473 N508 2.145 . S
Co473 N529 2.257 . S
O474 Co472 2.143 . S
O474 Co473 2.160 . S
C475 O476 1.278 . S
C475 O483 1.224 . S
O476 C475 1.278 . S
C477 O478 1.245 . S
C477 O489 1.232 . S
O478 C477 1.245 . S
O479 Co473 2.058 . S
O479 C505 1.269 . S
O480 Co472 2.074 . S
O480 C505 1.257 . S
H481 C506 0.930 . S
H482 C512 0.930 . S
O483 Co472 2.093 . S
O483 C475 1.224 . S
H484 C516 0.929 . S
H485 C518 0.930 . S
H486 C519 0.930 . S
H487 C517 0.929 . S
H488 C520 0.928 . S
O489 Co473 2.057 . S
O489 C477 1.232 . S
H490 C509 0.929 . S
H491 C510 0.929 . S
H492 C522 0.931 . S
H493 C514 0.929 . S
H494 C523 0.930 . S
H495 C515 0.931 . S
O496 Co472 2.097 . S
O496 C524 1.214 . S
H497 C525 0.929 . S
H498 C526 0.929 . S
H499 C527 0.930 . S
H500 C528 0.929 . S
H501 C530 0.930 . S
H502 C507 0.930 . S
H503 C511 0.930 . S
O504 Co473 2.037 . S
O504 C524 1.234 . S
C505 O479 1.269 . S
C505 O480 1.257 . S
C506 H481 0.930 . S
C506 C509 1.388 . S
C506 C511 1.418 . S
C507 H502 0.930 . S
C507 C510 1.404 . S
C507 C511 1.353 . S
N508 Co473 2.145 . S
N508 C509 1.397 . S
N508 C510 1.334 . S
C509 H490 0.929 . S
C509 C506 1.388 . S
C509 N508 1.397 . S
C510 H491 0.929 . S
C510 C507 1.404 . S
C510 N508 1.334 . S
C511 H503 0.930 . S
C511 C506 1.418 . S
C511 C507 1.353 . S
C512 H482 0.930 . S
C512 N513 1.330 . S
C512 C514 1.446 . S
N513 Co472 2.151 . S
N513 C512 1.330 . S
N513 C517 1.418 . S
C514 H493 0.929 . S
C514 C512 1.446 . S
C514 C515 1.332 . S
C515 H495 0.931 . S
C515 C514 1.332 . S
C515 C516 1.267 . S
C516 H484 0.929 . S
C516 C515 1.267 . S
C516 C517 1.251 . S
C517 H487 0.929 . S
C517 N513 1.418 . S
C517 C516 1.251 . S
C518 H485 0.930 . S
C518 C520 1.406 . S
C518 C523 1.261 . S
C519 H486 0.930 . S
C519 N521 1.325 . S
C519 C522 1.357 . S
C520 H488 0.928 . S
C520 C518 1.406 . S
C520 N521 1.261 . S
N521 Co472 2.214 . S
N521 C519 1.325 . S
N521 C520 1.261 . S
C522 H492 0.931 . S
C522 C519 1.357 . S
C522 C523 1.312 . S
C523 H494 0.930 . S
C523 C518 1.261 . S
C523 C522 1.312 . S
C524 O496 1.214 . S
C524 O504 1.234 . S
C525 H497 0.929 . S
C525 C528 1.391 . S
C525 C530 1.391 . S
C526 H498 0.929 . S
C526 C527 1.390 . S
C526 N529 1.391 . S
C527 H499 0.930 . S
C527 C526 1.390 . S
C527 C528 1.392 . S
C528 H500 0.929 . S
C528 C525 1.391 . S
C528 C527 1.392 . S
N529 Co473 2.257 . S
N529 C526 1.391 . S
N529 C530 1.388 . S
C530 H501 0.930 . S
C530 C525 1.391 . S
C530 N529 1.388 . S
Co531 O533 2.143 . S
Co531 O539 2.074 . S
Co531 O542 2.093 . S
Co531 O555 2.097 . S
Co531 N572 2.151 . S
Co531 N580 2.214 . S
Co532 O533 2.160 . S
Co532 O538 2.058 . S
Co532 O548 2.057 . S
Co532 O563 2.037 . S
Co532 N567 2.145 . S
Co532 N588 2.257 . S
O533 Co531 2.143 . S
O533 Co532 2.160 . S
C534 O535 1.278 . S
C534 O542 1.224 . S
O535 C534 1.278 . S
C536 O537 1.245 . S
C536 O548 1.232 . S
O537 C536 1.245 . S
O538 Co532 2.058 . S
O538 C564 1.269 . S
O539 Co531 2.074 . S
O539 C564 1.257 . S
H540 C565 0.930 . S
H541 C571 0.930 . S
O542 Co531 2.093 . S
O542 C534 1.224 . S
H543 C575 0.929 . S
H544 C577 0.930 . S
H545 C578 0.930 . S
H546 C576 0.929 . S
H547 C579 0.928 . S
O548 Co532 2.057 . S
O548 C536 1.232 . S
H549 C568 0.929 . S
H550 C569 0.929 . S
H551 C581 0.931 . S
H552 C573 0.929 . S
H553 C582 0.930 . S
H554 C574 0.931 . S
O555 Co531 2.097 . S
O555 C583 1.214 . S
H556 C584 0.929 . S
H557 C585 0.929 . S
H558 C586 0.930 . S
H559 C587 0.929 . S
H560 C589 0.930 . S
H561 C566 0.930 . S
H562 C570 0.930 . S
O563 Co532 2.037 . S
O563 C583 1.234 . S
C564 O538 1.269 . S
C564 O539 1.257 . S
C565 H540 0.930 . S
C565 C568 1.388 . S
C565 C570 1.418 . S
C566 H561 0.930 . S
C566 C569 1.404 . S
C566 C570 1.353 . S
N567 Co532 2.145 . S
N567 C568 1.397 . S
N567 C569 1.334 . S
C568 H549 0.929 . S
C568 C565 1.388 . S
C568 N567 1.397 . S
C569 H550 0.929 . S
C569 C566 1.404 . S
C569 N567 1.334 . S
C570 H562 0.930 . S
C570 C565 1.418 . S
C570 C566 1.353 . S
C571 H541 0.930 . S
C571 N572 1.330 . S
C571 C573 1.446 . S
N572 Co531 2.151 . S
N572 C571 1.330 . S
N572 C576 1.418 . S
C573 H552 0.929 . S
C573 C571 1.446 . S
C573 C574 1.332 . S
C574 H554 0.931 . S
C574 C573 1.332 . S
C574 C575 1.267 . S
C575 H543 0.929 . S
C575 C574 1.267 . S
C575 C576 1.251 . S
C576 H546 0.929 . S
C576 N572 1.418 . S
C576 C575 1.251 . S
C577 H544 0.930 . S
C577 C579 1.406 . S
C577 C582 1.261 . S
C578 H545 0.930 . S
C578 N580 1.325 . S
C578 C581 1.357 . S
C579 H547 0.928 . S
C579 C577 1.406 . S
C579 N580 1.261 . S
N580 Co531 2.214 . S
N580 C578 1.325 . S
N580 C579 1.261 . S
C581 H551 0.931 . S
C581 C578 1.357 . S
C581 C582 1.312 . S
C582 H553 0.930 . S
C582 C577 1.261 . S
C582 C581 1.312 . S
C583 O555 1.214 . S
C583 O563 1.234 . S
C584 H556 0.929 . S
C584 C587 1.391 . S
C584 C589 1.391 . S
C585 H557 0.929 . S
C585 C586 1.390 . S
C585 N588 1.391 . S
C586 H558 0.930 . S
C586 C585 1.390 . S
C586 C587 1.392 . S
C587 H559 0.929 . S
C587 C584 1.391 . S
C587 C586 1.392 . S
N588 Co532 2.257 . S
N588 C585 1.391 . S
N588 C589 1.388 . S
C589 H560 0.930 . S
C589 C584 1.391 . S
C589 N588 1.388 . S
Co590 O592 2.143 . S
Co590 O598 2.074 . S
Co590 O601 2.093 . S
Co590 O614 2.097 . S
Co590 N631 2.151 . S
Co590 N639 2.214 . S
Co591 O592 2.160 . S
Co591 O597 2.058 . S
Co591 O607 2.057 . S
Co591 O622 2.037 . S
Co591 N626 2.145 . S
Co591 N647 2.257 . S
O592 Co590 2.143 . S
O592 Co591 2.160 . S
C593 O594 1.278 . S
C593 O601 1.224 . S
O594 C593 1.278 . S
C595 O596 1.245 . S
C595 O607 1.232 . S
O596 C595 1.245 . S
O597 Co591 2.058 . S
O597 C623 1.269 . S
O598 Co590 2.074 . S
O598 C623 1.257 . S
H599 C624 0.930 . S
H600 C630 0.930 . S
O601 Co590 2.093 . S
O601 C593 1.224 . S
H602 C634 0.929 . S
H603 C636 0.930 . S
H604 C637 0.930 . S
H605 C635 0.929 . S
H606 C638 0.928 . S
O607 Co591 2.057 . S
O607 C595 1.232 . S
H608 C627 0.929 . S
H609 C628 0.929 . S
H610 C640 0.931 . S
H611 C632 0.929 . S
H612 C641 0.930 . S
H613 C633 0.931 . S
O614 Co590 2.097 . S
O614 C642 1.214 . S
H615 C643 0.929 . S
H616 C644 0.929 . S
H617 C645 0.930 . S
H618 C646 0.929 . S
H619 C648 0.930 . S
H620 C625 0.930 . S
H621 C629 0.930 . S
O622 Co591 2.037 . S
O622 C642 1.234 . S
C623 O597 1.269 . S
C623 O598 1.257 . S
C624 H599 0.930 . S
C624 C627 1.388 . S
C624 C629 1.418 . S
C625 H620 0.930 . S
C625 C628 1.404 . S
C625 C629 1.353 . S
N626 Co591 2.145 . S
N626 C627 1.397 . S
N626 C628 1.334 . S
C627 H608 0.929 . S
C627 C624 1.388 . S
C627 N626 1.397 . S
C628 H609 0.929 . S
C628 C625 1.404 . S
C628 N626 1.334 . S
C629 H621 0.930 . S
C629 C624 1.418 . S
C629 C625 1.353 . S
C630 H600 0.930 . S
C630 N631 1.330 . S
C630 C632 1.446 . S
N631 Co590 2.151 . S
N631 C630 1.330 . S
N631 C635 1.418 . S
C632 H611 0.929 . S
C632 C630 1.446 . S
C632 C633 1.332 . S
C633 H613 0.931 . S
C633 C632 1.332 . S
C633 C634 1.267 . S
C634 H602 0.929 . S
C634 C633 1.267 . S
C634 C635 1.251 . S
C635 H605 0.929 . S
C635 N631 1.418 . S
C635 C634 1.251 . S
C636 H603 0.930 . S
C636 C638 1.406 . S
C636 C641 1.261 . S
C637 H604 0.930 . S
C637 N639 1.325 . S
C637 C640 1.357 . S
C638 H606 0.928 . S
C638 C636 1.406 . S
C638 N639 1.261 . S
N639 Co590 2.214 . S
N639 C637 1.325 . S
N639 C638 1.261 . S
C640 H610 0.931 . S
C640 C637 1.357 . S
C640 C641 1.312 . S
C641 H612 0.930 . S
C641 C636 1.261 . S
C641 C640 1.312 . S
C642 O614 1.214 . S
C642 O622 1.234 . S
C643 H615 0.929 . S
C643 C646 1.391 . S
C643 C648 1.391 . S
C644 H616 0.929 . S
C644 C645 1.390 . S
C644 N647 1.391 . S
C645 H617 0.930 . S
C645 C644 1.390 . S
C645 C646 1.392 . S
C646 H618 0.929 . S
C646 C643 1.391 . S
C646 C645 1.392 . S
N647 Co591 2.257 . S
N647 C644 1.391 . S
N647 C648 1.388 . S
C648 H619 0.930 . S
C648 C643 1.391 . S
C648 N647 1.388 . S
Co649 O651 2.143 . S
Co649 O657 2.074 . S
Co649 O660 2.093 . S
Co649 O673 2.097 . S
Co649 N690 2.151 . S
Co649 N698 2.214 . S
Co650 O651 2.160 . S
Co650 O656 2.058 . S
Co650 O666 2.057 . S
Co650 O681 2.037 . S
Co650 N685 2.145 . S
Co650 N706 2.257 . S
O651 Co649 2.143 . S
O651 Co650 2.160 . S
C652 O653 1.278 . S
C652 O660 1.224 . S
O653 C652 1.278 . S
C654 O655 1.245 . S
C654 O666 1.232 . S
O655 C654 1.245 . S
O656 Co650 2.058 . S
O656 C682 1.269 . S
O657 Co649 2.074 . S
O657 C682 1.257 . S
H658 C683 0.930 . S
H659 C689 0.930 . S
O660 Co649 2.093 . S
O660 C652 1.224 . S
H661 C693 0.929 . S
H662 C695 0.930 . S
H663 C696 0.930 . S
H664 C694 0.929 . S
H665 C697 0.928 . S
O666 Co650 2.057 . S
O666 C654 1.232 . S
H667 C686 0.929 . S
H668 C687 0.929 . S
H669 C699 0.931 . S
H670 C691 0.929 . S
H671 C700 0.930 . S
H672 C692 0.931 . S
O673 Co649 2.097 . S
O673 C701 1.214 . S
H674 C702 0.929 . S
H675 C703 0.929 . S
H676 C704 0.930 . S
H677 C705 0.929 . S
H678 C707 0.930 . S
H679 C684 0.930 . S
H680 C688 0.930 . S
O681 Co650 2.037 . S
O681 C701 1.234 . S
C682 O656 1.269 . S
C682 O657 1.257 . S
C683 H658 0.930 . S
C683 C686 1.388 . S
C683 C688 1.418 . S
C684 H679 0.930 . S
C684 C687 1.404 . S
C684 C688 1.353 . S
N685 Co650 2.145 . S
N685 C686 1.397 . S
N685 C687 1.334 . S
C686 H667 0.929 . S
C686 C683 1.388 . S
C686 N685 1.397 . S
C687 H668 0.929 . S
C687 C684 1.404 . S
C687 N685 1.334 . S
C688 H680 0.930 . S
C688 C683 1.418 . S
C688 C684 1.353 . S
C689 H659 0.930 . S
C689 N690 1.330 . S
C689 C691 1.446 . S
N690 Co649 2.151 . S
N690 C689 1.330 . S
N690 C694 1.418 . S
C691 H670 0.929 . S
C691 C689 1.446 . S
C691 C692 1.332 . S
C692 H672 0.931 . S
C692 C691 1.332 . S
C692 C693 1.267 . S
C693 H661 0.929 . S
C693 C692 1.267 . S
C693 C694 1.251 . S
C694 H664 0.929 . S
C694 N690 1.418 . S
C694 C693 1.251 . S
C695 H662 0.930 . S
C695 C697 1.406 . S
C695 C700 1.261 . S
C696 H663 0.930 . S
C696 N698 1.325 . S
C696 C699 1.357 . S
C697 H665 0.928 . S
C697 C695 1.406 . S
C697 N698 1.261 . S
N698 Co649 2.214 . S
N698 C696 1.325 . S
N698 C697 1.261 . S
C699 H669 0.931 . S
C699 C696 1.357 . S
C699 C700 1.312 . S
C700 H671 0.930 . S
C700 C695 1.261 . S
C700 C699 1.312 . S
C701 O673 1.214 . S
C701 O681 1.234 . S
C702 H674 0.929 . S
C702 C705 1.391 . S
C702 C707 1.391 . S
C703 H675 0.929 . S
C703 C704 1.390 . S
C703 N706 1.391 . S
C704 H676 0.930 . S
C704 C703 1.390 . S
C704 C705 1.392 . S
C705 H677 0.929 . S
C705 C702 1.391 . S
C705 C704 1.392 . S
N706 Co650 2.257 . S
N706 C703 1.391 . S
N706 C707 1.388 . S
C707 H678 0.930 . S
C707 C702 1.391 . S
C707 N706 1.388 . S
Co708 O710 2.143 . S
Co708 O716 2.074 . S
Co708 O719 2.093 . S
Co708 O732 2.097 . S
Co708 N749 2.151 . S
Co708 N757 2.214 . S
Co709 O710 2.160 . S
Co709 O715 2.058 . S
Co709 O725 2.057 . S
Co709 O740 2.037 . S
Co709 N744 2.145 . S
Co709 N765 2.257 . S
O710 Co708 2.143 . S
O710 Co709 2.160 . S
C711 O712 1.278 . S
C711 O719 1.224 . S
O712 C711 1.278 . S
C713 O714 1.245 . S
C713 O725 1.232 . S
O714 C713 1.245 . S
O715 Co709 2.058 . S
O715 C741 1.269 . S
O716 Co708 2.074 . S
O716 C741 1.257 . S
H717 C742 0.930 . S
H718 C748 0.930 . S
O719 Co708 2.093 . S
O719 C711 1.224 . S
H720 C752 0.929 . S
H721 C754 0.930 . S
H722 C755 0.930 . S
H723 C753 0.929 . S
H724 C756 0.928 . S
O725 Co709 2.057 . S
O725 C713 1.232 . S
H726 C745 0.929 . S
H727 C746 0.929 . S
H728 C758 0.931 . S
H729 C750 0.929 . S
H730 C759 0.930 . S
H731 C751 0.931 . S
O732 Co708 2.097 . S
O732 C760 1.214 . S
H733 C761 0.929 . S
H734 C762 0.929 . S
H735 C763 0.930 . S
H736 C764 0.929 . S
H737 C766 0.930 . S
H738 C743 0.930 . S
H739 C747 0.930 . S
O740 Co709 2.037 . S
O740 C760 1.234 . S
C741 O715 1.269 . S
C741 O716 1.257 . S
C742 H717 0.930 . S
C742 C745 1.388 . S
C742 C747 1.418 . S
C743 H738 0.930 . S
C743 C746 1.404 . S
C743 C747 1.353 . S
N744 Co709 2.145 . S
N744 C745 1.397 . S
N744 C746 1.334 . S
C745 H726 0.929 . S
C745 C742 1.388 . S
C745 N744 1.397 . S
C746 H727 0.929 . S
C746 C743 1.404 . S
C746 N744 1.334 . S
C747 H739 0.930 . S
C747 C742 1.418 . S
C747 C743 1.353 . S
C748 H718 0.930 . S
C748 N749 1.330 . S
C748 C750 1.446 . S
N749 Co708 2.151 . S
N749 C748 1.330 . S
N749 C753 1.418 . S
C750 H729 0.929 . S
C750 C748 1.446 . S
C750 C751 1.332 . S
C751 H731 0.931 . S
C751 C750 1.332 . S
C751 C752 1.267 . S
C752 H720 0.929 . S
C752 C751 1.267 . S
C752 C753 1.251 . S
C753 H723 0.929 . S
C753 N749 1.418 . S
C753 C752 1.251 . S
C754 H721 0.930 . S
C754 C756 1.406 . S
C754 C759 1.261 . S
C755 H722 0.930 . S
C755 N757 1.325 . S
C755 C758 1.357 . S
C756 H724 0.928 . S
C756 C754 1.406 . S
C756 N757 1.261 . S
N757 Co708 2.214 . S
N757 C755 1.325 . S
N757 C756 1.261 . S
C758 H728 0.931 . S
C758 C755 1.357 . S
C758 C759 1.312 . S
C759 H730 0.930 . S
C759 C754 1.261 . S
C759 C758 1.312 . S
C760 O732 1.214 . S
C760 O740 1.234 . S
C761 H733 0.929 . S
C761 C764 1.391 . S
C761 C766 1.391 . S
C762 H734 0.929 . S
C762 C763 1.390 . S
C762 N765 1.391 . S
C763 H735 0.930 . S
C763 C762 1.390 . S
C763 C764 1.392 . S
C764 H736 0.929 . S
C764 C761 1.391 . S
C764 C763 1.392 . S
N765 Co709 2.257 . S
N765 C762 1.391 . S
N765 C766 1.388 . S
C766 H737 0.930 . S
C766 C761 1.391 . S
C766 N765 1.388 . S
Co767 O769 2.143 . S
Co767 O775 2.074 . S
Co767 O778 2.093 . S
Co767 O791 2.097 . S
Co767 N808 2.151 . S
Co767 N816 2.214 . S
Co768 O769 2.160 . S
Co768 O774 2.058 . S
Co768 O784 2.057 . S
Co768 O799 2.037 . S
Co768 N803 2.145 . S
Co768 N824 2.257 . S
O769 Co767 2.143 . S
O769 Co768 2.160 . S
C770 O771 1.278 . S
C770 O778 1.224 . S
O771 C770 1.278 . S
C772 O773 1.245 . S
C772 O784 1.232 . S
O773 C772 1.245 . S
O774 Co768 2.058 . S
O774 C800 1.269 . S
O775 Co767 2.074 . S
O775 C800 1.257 . S
H776 C801 0.930 . S
H777 C807 0.930 . S
O778 Co767 2.093 . S
O778 C770 1.224 . S
H779 C811 0.929 . S
H780 C813 0.930 . S
H781 C814 0.930 . S
H782 C812 0.929 . S
H783 C815 0.928 . S
O784 Co768 2.057 . S
O784 C772 1.232 . S
H785 C804 0.929 . S
H786 C805 0.929 . S
H787 C817 0.931 . S
H788 C809 0.929 . S
H789 C818 0.930 . S
H790 C810 0.931 . S
O791 Co767 2.097 . S
O791 C819 1.214 . S
H792 C820 0.929 . S
H793 C821 0.929 . S
H794 C822 0.930 . S
H795 C823 0.929 . S
H796 C825 0.930 . S
H797 C802 0.930 . S
H798 C806 0.930 . S
O799 Co768 2.037 . S
O799 C819 1.234 . S
C800 O774 1.269 . S
C800 O775 1.257 . S
C801 H776 0.930 . S
C801 C804 1.388 . S
C801 C806 1.418 . S
C802 H797 0.930 . S
C802 C805 1.404 . S
C802 C806 1.353 . S
N803 Co768 2.145 . S
N803 C804 1.397 . S
N803 C805 1.334 . S
C804 H785 0.929 . S
C804 C801 1.388 . S
C804 N803 1.397 . S
C805 H786 0.929 . S
C805 C802 1.404 . S
C805 N803 1.334 . S
C806 H798 0.930 . S
C806 C801 1.418 . S
C806 C802 1.353 . S
C807 H777 0.930 . S
C807 N808 1.330 . S
C807 C809 1.446 . S
N808 Co767 2.151 . S
N808 C807 1.330 . S
N808 C812 1.418 . S
C809 H788 0.929 . S
C809 C807 1.446 . S
C809 C810 1.332 . S
C810 H790 0.931 . S
C810 C809 1.332 . S
C810 C811 1.267 . S
C811 H779 0.929 . S
C811 C810 1.267 . S
C811 C812 1.251 . S
C812 H782 0.929 . S
C812 N808 1.418 . S
C812 C811 1.251 . S
C813 H780 0.930 . S
C813 C815 1.406 . S
C813 C818 1.261 . S
C814 H781 0.930 . S
C814 N816 1.325 . S
C814 C817 1.357 . S
C815 H783 0.928 . S
C815 C813 1.406 . S
C815 N816 1.261 . S
N816 Co767 2.214 . S
N816 C814 1.325 . S
N816 C815 1.261 . S
C817 H787 0.931 . S
C817 C814 1.357 . S
C817 C818 1.312 . S
C818 H789 0.930 . S
C818 C813 1.261 . S
C818 C817 1.312 . S
C819 O791 1.214 . S
C819 O799 1.234 . S
C820 H792 0.929 . S
C820 C823 1.391 . S
C820 C825 1.391 . S
C821 H793 0.929 . S
C821 C822 1.390 . S
C821 N824 1.391 . S
C822 H794 0.930 . S
C822 C821 1.390 . S
C822 C823 1.392 . S
C823 H795 0.929 . S
C823 C820 1.391 . S
C823 C822 1.392 . S
N824 Co768 2.257 . S
N824 C821 1.391 . S
N824 C825 1.388 . S
C825 H796 0.930 . S
C825 C820 1.391 . S
C825 N824 1.388 . S
Co826 O828 2.143 . S
Co826 O834 2.074 . S
Co826 O837 2.093 . S
Co826 O850 2.097 . S
Co826 N867 2.151 . S
Co826 N875 2.214 . S
Co827 O828 2.160 . S
Co827 O833 2.058 . S
Co827 O843 2.057 . S
Co827 O858 2.037 . S
Co827 N862 2.145 . S
Co827 N883 2.257 . S
O828 Co826 2.143 . S
O828 Co827 2.160 . S
C829 O830 1.278 . S
C829 O837 1.224 . S
O830 C829 1.278 . S
C831 O832 1.245 . S
C831 O843 1.232 . S
O832 C831 1.245 . S
O833 Co827 2.058 . S
O833 C859 1.269 . S
O834 Co826 2.074 . S
O834 C859 1.257 . S
H835 C860 0.930 . S
H836 C866 0.930 . S
O837 Co826 2.093 . S
O837 C829 1.224 . S
H838 C870 0.929 . S
H839 C872 0.930 . S
H840 C873 0.930 . S
H841 C871 0.929 . S
H842 C874 0.928 . S
O843 Co827 2.057 . S
O843 C831 1.232 . S
H844 C863 0.929 . S
H845 C864 0.929 . S
H846 C876 0.931 . S
H847 C868 0.929 . S
H848 C877 0.930 . S
H849 C869 0.931 . S
O850 Co826 2.097 . S
O850 C878 1.214 . S
H851 C879 0.929 . S
H852 C880 0.929 . S
H853 C881 0.930 . S
H854 C882 0.929 . S
H855 C884 0.930 . S
H856 C861 0.930 . S
H857 C865 0.930 . S
O858 Co827 2.037 . S
O858 C878 1.234 . S
C859 O833 1.269 . S
C859 O834 1.257 . S
C860 H835 0.930 . S
C860 C863 1.388 . S
C860 C865 1.418 . S
C861 H856 0.930 . S
C861 C864 1.404 . S
C861 C865 1.353 . S
N862 Co827 2.145 . S
N862 C863 1.397 . S
N862 C864 1.334 . S
C863 H844 0.929 . S
C863 C860 1.388 . S
C863 N862 1.397 . S
C864 H845 0.929 . S
C864 C861 1.404 . S
C864 N862 1.334 . S
C865 H857 0.930 . S
C865 C860 1.418 . S
C865 C861 1.353 . S
C866 H836 0.930 . S
C866 N867 1.330 . S
C866 C868 1.446 . S
N867 Co826 2.151 . S
N867 C866 1.330 . S
N867 C871 1.418 . S
C868 H847 0.929 . S
C868 C866 1.446 . S
C868 C869 1.332 . S
C869 H849 0.931 . S
C869 C868 1.332 . S
C869 C870 1.267 . S
C870 H838 0.929 . S
C870 C869 1.267 . S
C870 C871 1.251 . S
C871 H841 0.929 . S
C871 N867 1.418 . S
C871 C870 1.251 . S
C872 H839 0.930 . S
C872 C874 1.406 . S
C872 C877 1.261 . S
C873 H840 0.930 . S
C873 N875 1.325 . S
C873 C876 1.357 . S
C874 H842 0.928 . S
C874 C872 1.406 . S
C874 N875 1.261 . S
N875 Co826 2.214 . S
N875 C873 1.325 . S
N875 C874 1.261 . S
C876 H846 0.931 . S
C876 C873 1.357 . S
C876 C877 1.312 . S
C877 H848 0.930 . S
C877 C872 1.261 . S
C877 C876 1.312 . S
C878 O850 1.214 . S
C878 O858 1.234 . S
C879 H851 0.929 . S
C879 C882 1.391 . S
C879 C884 1.391 . S
C880 H852 0.929 . S
C880 C881 1.390 . S
C880 N883 1.391 . S
C881 H853 0.930 . S
C881 C880 1.390 . S
C881 C882 1.392 . S
C882 H854 0.929 . S
C882 C879 1.391 . S
C882 C881 1.392 . S
N883 Co827 2.257 . S
N883 C880 1.391 . S
N883 C884 1.388 . S
C884 H855 0.930 . S
C884 C879 1.391 . S
C884 N883 1.388 . S
Co885 O887 2.143 . S
Co885 O893 2.074 . S
Co885 O896 2.093 . S
Co885 O909 2.097 . S
Co885 N926 2.151 . S
Co885 N934 2.214 . S
Co886 O887 2.160 . S
Co886 O892 2.058 . S
Co886 O902 2.057 . S
Co886 O917 2.037 . S
Co886 N921 2.145 . S
Co886 N942 2.257 . S
O887 Co885 2.143 . S
O887 Co886 2.160 . S
C888 O889 1.278 . S
C888 O896 1.224 . S
O889 C888 1.278 . S
C890 O891 1.245 . S
C890 O902 1.232 . S
O891 C890 1.245 . S
O892 Co886 2.058 . S
O892 C918 1.269 . S
O893 Co885 2.074 . S
O893 C918 1.257 . S
H894 C919 0.930 . S
H895 C925 0.930 . S
O896 Co885 2.093 . S
O896 C888 1.224 . S
H897 C929 0.929 . S
H898 C931 0.930 . S
H899 C932 0.930 . S
H900 C930 0.929 . S
H901 C933 0.928 . S
O902 Co886 2.057 . S
O902 C890 1.232 . S
H903 C922 0.929 . S
H904 C923 0.929 . S
H905 C935 0.931 . S
H906 C927 0.929 . S
H907 C936 0.930 . S
H908 C928 0.931 . S
O909 Co885 2.097 . S
O909 C937 1.214 . S
H910 C938 0.929 . S
H911 C939 0.929 . S
H912 C940 0.930 . S
H913 C941 0.929 . S
H914 C943 0.930 . S
H915 C920 0.930 . S
H916 C924 0.930 . S
O917 Co886 2.037 . S
O917 C937 1.234 . S
C918 O892 1.269 . S
C918 O893 1.257 . S
C919 H894 0.930 . S
C919 C922 1.388 . S
C919 C924 1.418 . S
C920 H915 0.930 . S
C920 C923 1.404 . S
C920 C924 1.353 . S
N921 Co886 2.145 . S
N921 C922 1.397 . S
N921 C923 1.334 . S
C922 H903 0.929 . S
C922 C919 1.388 . S
C922 N921 1.397 . S
C923 H904 0.929 . S
C923 C920 1.404 . S
C923 N921 1.334 . S
C924 H916 0.930 . S
C924 C919 1.418 . S
C924 C920 1.353 . S
C925 H895 0.930 . S
C925 N926 1.330 . S
C925 C927 1.446 . S
N926 Co885 2.151 . S
N926 C925 1.330 . S
N926 C930 1.418 . S
C927 H906 0.929 . S
C927 C925 1.446 . S
C927 C928 1.332 . S
C928 H908 0.931 . S
C928 C927 1.332 . S
C928 C929 1.267 . S
C929 H897 0.929 . S
C929 C928 1.267 . S
C929 C930 1.251 . S
C930 H900 0.929 . S
C930 N926 1.418 . S
C930 C929 1.251 . S
C931 H898 0.930 . S
C931 C933 1.406 . S
C931 C936 1.261 . S
C932 H899 0.930 . S
C932 N934 1.325 . S
C932 C935 1.357 . S
C933 H901 0.928 . S
C933 C931 1.406 . S
C933 N934 1.261 . S
N934 Co885 2.214 . S
N934 C932 1.325 . S
N934 C933 1.261 . S
C935 H905 0.931 . S
C935 C932 1.357 . S
C935 C936 1.312 . S
C936 H907 0.930 . S
C936 C931 1.261 . S
C936 C935 1.312 . S
C937 O909 1.214 . S
C937 O917 1.234 . S
C938 H910 0.929 . S
C938 C941 1.391 . S
C938 C943 1.391 . S
C939 H911 0.929 . S
C939 C940 1.390 . S
C939 N942 1.391 . S
C940 H912 0.930 . S
C940 C939 1.390 . S
C940 C941 1.392 . S
C941 H913 0.929 . S
C941 C938 1.391 . S
C941 C940 1.392 . S
N942 Co886 2.257 . S
N942 C939 1.391 . S
N942 C943 1.388 . S
C943 H914 0.930 . S
C943 C938 1.391 . S
C943 N942 1.388 . S
Co944 O946 2.143 . S
Co944 O952 2.074 . S
Co944 O955 2.093 . S
Co944 O968 2.097 . S
Co944 N985 2.151 . S
Co944 N993 2.214 . S
Co945 O946 2.160 . S
Co945 O951 2.058 . S
Co945 O961 2.057 . S
Co945 O976 2.037 . S
Co945 N980 2.145 . S
Co945 N1001 2.257 . S
O946 Co944 2.143 . S
O946 Co945 2.160 . S
C947 O948 1.278 . S
C947 O955 1.224 . S
O948 C947 1.278 . S
C949 O950 1.245 . S
C949 O961 1.232 . S
O950 C949 1.245 . S
O951 Co945 2.058 . S
O951 C977 1.269 . S
O952 Co944 2.074 . S
O952 C977 1.257 . S
H953 C978 0.930 . S
H954 C984 0.930 . S
O955 Co944 2.093 . S
O955 C947 1.224 . S
H956 C988 0.929 . S
H957 C990 0.930 . S
H958 C991 0.930 . S
H959 C989 0.929 . S
H960 C992 0.928 . S
O961 Co945 2.057 . S
O961 C949 1.232 . S
H962 C981 0.929 . S
H963 C982 0.929 . S
H964 C994 0.931 . S
H965 C986 0.929 . S
H966 C995 0.930 . S
H967 C987 0.931 . S
O968 Co944 2.097 . S
O968 C996 1.214 . S
H969 C997 0.929 . S
H970 C998 0.929 . S
H971 C999 0.930 . S
H972 C1000 0.929 . S
H973 C1002 0.930 . S
H974 C979 0.930 . S
H975 C983 0.930 . S
O976 Co945 2.037 . S
O976 C996 1.234 . S
C977 O951 1.269 . S
C977 O952 1.257 . S
C978 H953 0.930 . S
C978 C981 1.388 . S
C978 C983 1.418 . S
C979 H974 0.930 . S
C979 C982 1.404 . S
C979 C983 1.353 . S
N980 Co945 2.145 . S
N980 C981 1.397 . S
N980 C982 1.334 . S
C981 H962 0.929 . S
C981 C978 1.388 . S
C981 N980 1.397 . S
C982 H963 0.929 . S
C982 C979 1.404 . S
C982 N980 1.334 . S
C983 H975 0.930 . S
C983 C978 1.418 . S
C983 C979 1.353 . S
C984 H954 0.930 . S
C984 N985 1.330 . S
C984 C986 1.446 . S
N985 Co944 2.151 . S
N985 C984 1.330 . S
N985 C989 1.418 . S
C986 H965 0.929 . S
C986 C984 1.446 . S
C986 C987 1.332 . S
C987 H967 0.931 . S
C987 C986 1.332 . S
C987 C988 1.267 . S
C988 H956 0.929 . S
C988 C987 1.267 . S
C988 C989 1.251 . S
C989 H959 0.929 . S
C989 N985 1.418 . S
C989 C988 1.251 . S
C990 H957 0.930 . S
C990 C992 1.406 . S
C990 C995 1.261 . S
C991 H958 0.930 . S
C991 N993 1.325 . S
C991 C994 1.357 . S
C992 H960 0.928 . S
C992 C990 1.406 . S
C992 N993 1.261 . S
N993 Co944 2.214 . S
N993 C991 1.325 . S
N993 C992 1.261 . S
C994 H964 0.931 . S
C994 C991 1.357 . S
C994 C995 1.312 . S
C995 H966 0.930 . S
C995 C990 1.261 . S
C995 C994 1.312 . S
C996 O968 1.214 . S
C996 O976 1.234 . S
C997 H969 0.929 . S
C997 C1000 1.391 . S
C997 C1002 1.391 . S
C998 H970 0.929 . S
C998 C999 1.390 . S
C998 N1001 1.391 . S
C999 H971 0.930 . S
C999 C998 1.390 . S
C999 C1000 1.392 . S
C1000 H972 0.929 . S
C1000 C997 1.391 . S
C1000 C999 1.392 . S
N1001 Co945 2.257 . S
N1001 C998 1.391 . S
N1001 C1002 1.388 . S
C1002 H973 0.930 . S
C1002 C997 1.391 . S
C1002 N1001 1.388 . S
Co1003 O1005 2.143 . S
Co1003 O1011 2.074 . S
Co1003 O1014 2.093 . S
Co1003 O1027 2.097 . S
Co1003 N1044 2.151 . S
Co1003 N1052 2.214 . S
Co1004 O1005 2.160 . S
Co1004 O1010 2.058 . S
Co1004 O1020 2.057 . S
Co1004 O1035 2.037 . S
Co1004 N1039 2.145 . S
Co1004 N1060 2.257 . S
O1005 Co1003 2.143 . S
O1005 Co1004 2.160 . S
C1006 O1007 1.278 . S
C1006 O1014 1.224 . S
O1007 C1006 1.278 . S
C1008 O1009 1.245 . S
C1008 O1020 1.232 . S
O1009 C1008 1.245 . S
O1010 Co1004 2.058 . S
O1010 C1036 1.269 . S
O1011 Co1003 2.074 . S
O1011 C1036 1.257 . S
H1012 C1037 0.930 . S
H1013 C1043 0.930 . S
O1014 Co1003 2.093 . S
O1014 C1006 1.224 . S
H1015 C1047 0.929 . S
H1016 C1049 0.930 . S
H1017 C1050 0.930 . S
H1018 C1048 0.929 . S
H1019 C1051 0.928 . S
O1020 Co1004 2.057 . S
O1020 C1008 1.232 . S
H1021 C1040 0.929 . S
H1022 C1041 0.929 . S
H1023 C1053 0.931 . S
H1024 C1045 0.929 . S
H1025 C1054 0.930 . S
H1026 C1046 0.931 . S
O1027 Co1003 2.097 . S
O1027 C1055 1.214 . S
H1028 C1056 0.929 . S
H1029 C1057 0.929 . S
H1030 C1058 0.930 . S
H1031 C1059 0.929 . S
H1032 C1061 0.930 . S
H1033 C1038 0.930 . S
H1034 C1042 0.930 . S
O1035 Co1004 2.037 . S
O1035 C1055 1.234 . S
C1036 O1010 1.269 . S
C1036 O1011 1.257 . S
C1037 H1012 0.930 . S
C1037 C1040 1.388 . S
C1037 C1042 1.418 . S
C1038 H1033 0.930 . S
C1038 C1041 1.404 . S
C1038 C1042 1.353 . S
N1039 Co1004 2.145 . S
N1039 C1040 1.397 . S
N1039 C1041 1.334 . S
C1040 H1021 0.929 . S
C1040 C1037 1.388 . S
C1040 N1039 1.397 . S
C1041 H1022 0.929 . S
C1041 C1038 1.404 . S
C1041 N1039 1.334 . S
C1042 H1034 0.930 . S
C1042 C1037 1.418 . S
C1042 C1038 1.353 . S
C1043 H1013 0.930 . S
C1043 N1044 1.330 . S
C1043 C1045 1.446 . S
N1044 Co1003 2.151 . S
N1044 C1043 1.330 . S
N1044 C1048 1.418 . S
C1045 H1024 0.929 . S
C1045 C1043 1.446 . S
C1045 C1046 1.332 . S
C1046 H1026 0.931 . S
C1046 C1045 1.332 . S
C1046 C1047 1.267 . S
C1047 H1015 0.929 . S
C1047 C1046 1.267 . S
C1047 C1048 1.251 . S
C1048 H1018 0.929 . S
C1048 N1044 1.418 . S
C1048 C1047 1.251 . S
C1049 H1016 0.930 . S
C1049 C1051 1.406 . S
C1049 C1054 1.261 . S
C1050 H1017 0.930 . S
C1050 N1052 1.325 . S
C1050 C1053 1.357 . S
C1051 H1019 0.928 . S
C1051 C1049 1.406 . S
C1051 N1052 1.261 . S
N1052 Co1003 2.214 . S
N1052 C1050 1.325 . S
N1052 C1051 1.261 . S
C1053 H1023 0.931 . S
C1053 C1050 1.357 . S
C1053 C1054 1.312 . S
C1054 H1025 0.930 . S
C1054 C1049 1.261 . S
C1054 C1053 1.312 . S
C1055 O1027 1.214 . S
C1055 O1035 1.234 . S
C1056 H1028 0.929 . S
C1056 C1059 1.391 . S
C1056 C1061 1.391 . S
C1057 H1029 0.929 . S
C1057 C1058 1.390 . S
C1057 N1060 1.391 . S
C1058 H1030 0.930 . S
C1058 C1057 1.390 . S
C1058 C1059 1.392 . S
C1059 H1031 0.929 . S
C1059 C1056 1.391 . S
C1059 C1058 1.392 . S
N1060 Co1004 2.257 . S
N1060 C1057 1.391 . S
N1060 C1061 1.388 . S
C1061 H1032 0.930 . S
C1061 C1056 1.391 . S
C1061 N1060 1.388 . S
Co1062 O1064 2.143 . S
Co1062 O1070 2.074 . S
Co1062 O1073 2.093 . S
Co1062 O1086 2.097 . S
Co1062 N1103 2.151 . S
Co1062 N1111 2.214 . S
Co1063 O1064 2.160 . S
Co1063 O1069 2.058 . S
Co1063 O1079 2.057 . S
Co1063 O1094 2.037 . S
Co1063 N1098 2.145 . S
Co1063 N1119 2.257 . S
O1064 Co1062 2.143 . S
O1064 Co1063 2.160 . S
C1065 O1066 1.278 . S
C1065 O1073 1.224 . S
O1066 C1065 1.278 . S
C1067 O1068 1.245 . S
C1067 O1079 1.232 . S
O1068 C1067 1.245 . S
O1069 Co1063 2.058 . S
O1069 C1095 1.269 . S
O1070 Co1062 2.074 . S
O1070 C1095 1.257 . S
H1071 C1096 0.930 . S
H1072 C1102 0.930 . S
O1073 Co1062 2.093 . S
O1073 C1065 1.224 . S
H1074 C1106 0.929 . S
H1075 C1108 0.930 . S
H1076 C1109 0.930 . S
H1077 C1107 0.929 . S
H1078 C1110 0.928 . S
O1079 Co1063 2.057 . S
O1079 C1067 1.232 . S
H1080 C1099 0.929 . S
H1081 C1100 0.929 . S
H1082 C1112 0.931 . S
H1083 C1104 0.929 . S
H1084 C1113 0.930 . S
H1085 C1105 0.931 . S
O1086 Co1062 2.097 . S
O1086 C1114 1.214 . S
H1087 C1115 0.929 . S
H1088 C1116 0.929 . S
H1089 C1117 0.930 . S
H1090 C1118 0.929 . S
H1091 C1120 0.930 . S
H1092 C1097 0.930 . S
H1093 C1101 0.930 . S
O1094 Co1063 2.037 . S
O1094 C1114 1.234 . S
C1095 O1069 1.269 . S
C1095 O1070 1.257 . S
C1096 H1071 0.930 . S
C1096 C1099 1.388 . S
C1096 C1101 1.418 . S
C1097 H1092 0.930 . S
C1097 C1100 1.404 . S
C1097 C1101 1.353 . S
N1098 Co1063 2.145 . S
N1098 C1099 1.397 . S
N1098 C1100 1.334 . S
C1099 H1080 0.929 . S
C1099 C1096 1.388 . S
C1099 N1098 1.397 . S
C1100 H1081 0.929 . S
C1100 C1097 1.404 . S
C1100 N1098 1.334 . S
C1101 H1093 0.930 . S
C1101 C1096 1.418 . S
C1101 C1097 1.353 . S
C1102 H1072 0.930 . S
C1102 N1103 1.330 . S
C1102 C1104 1.446 . S
N1103 Co1062 2.151 . S
N1103 C1102 1.330 . S
N1103 C1107 1.418 . S
C1104 H1083 0.929 . S
C1104 C1102 1.446 . S
C1104 C1105 1.332 . S
C1105 H1085 0.931 . S
C1105 C1104 1.332 . S
C1105 C1106 1.267 . S
C1106 H1074 0.929 . S
C1106 C1105 1.267 . S
C1106 C1107 1.251 . S
C1107 H1077 0.929 . S
C1107 N1103 1.418 . S
C1107 C1106 1.251 . S
C1108 H1075 0.930 . S
C1108 C1110 1.406 . S
C1108 C1113 1.261 . S
C1109 H1076 0.930 . S
C1109 N1111 1.325 . S
C1109 C1112 1.357 . S
C1110 H1078 0.928 . S
C1110 C1108 1.406 . S
C1110 N1111 1.261 . S
N1111 Co1062 2.214 . S
N1111 C1109 1.325 . S
N1111 C1110 1.261 . S
C1112 H1082 0.931 . S
C1112 C1109 1.357 . S
C1112 C1113 1.312 . S
C1113 H1084 0.930 . S
C1113 C1108 1.261 . S
C1113 C1112 1.312 . S
C1114 O1086 1.214 . S
C1114 O1094 1.234 . S
C1115 H1087 0.929 . S
C1115 C1118 1.391 . S
C1115 C1120 1.391 . S
C1116 H1088 0.929 . S
C1116 C1117 1.390 . S
C1116 N1119 1.391 . S
C1117 H1089 0.930 . S
C1117 C1116 1.390 . S
C1117 C1118 1.392 . S
C1118 H1090 0.929 . S
C1118 C1115 1.391 . S
C1118 C1117 1.392 . S
N1119 Co1063 2.257 . S
N1119 C1116 1.391 . S
N1119 C1120 1.388 . S
C1120 H1091 0.930 . S
C1120 C1115 1.391 . S
C1120 N1119 1.388 . S
Co1121 O1123 2.143 . S
Co1121 O1129 2.074 . S
Co1121 O1132 2.093 . S
Co1121 O1145 2.097 . S
Co1121 N1162 2.151 . S
Co1121 N1170 2.214 . S
Co1122 O1123 2.160 . S
Co1122 O1128 2.058 . S
Co1122 O1138 2.057 . S
Co1122 O1153 2.037 . S
Co1122 N1157 2.145 . S
Co1122 N1178 2.257 . S
O1123 Co1121 2.143 . S
O1123 Co1122 2.160 . S
C1124 O1125 1.278 . S
C1124 O1132 1.224 . S
O1125 C1124 1.278 . S
C1126 O1127 1.245 . S
C1126 O1138 1.232 . S
O1127 C1126 1.245 . S
O1128 Co1122 2.058 . S
O1128 C1154 1.269 . S
O1129 Co1121 2.074 . S
O1129 C1154 1.257 . S
H1130 C1155 0.930 . S
H1131 C1161 0.930 . S
O1132 Co1121 2.093 . S
O1132 C1124 1.224 . S
H1133 C1165 0.929 . S
H1134 C1167 0.930 . S
H1135 C1168 0.930 . S
H1136 C1166 0.929 . S
H1137 C1169 0.928 . S
O1138 Co1122 2.057 . S
O1138 C1126 1.232 . S
H1139 C1158 0.929 . S
H1140 C1159 0.929 . S
H1141 C1171 0.931 . S
H1142 C1163 0.929 . S
H1143 C1172 0.930 . S
H1144 C1164 0.931 . S
O1145 Co1121 2.097 . S
O1145 C1173 1.214 . S
H1146 C1174 0.929 . S
H1147 C1175 0.929 . S
H1148 C1176 0.930 . S
H1149 C1177 0.929 . S
H1150 C1179 0.930 . S
H1151 C1156 0.930 . S
H1152 C1160 0.930 . S
O1153 Co1122 2.037 . S
O1153 C1173 1.234 . S
C1154 O1128 1.269 . S
C1154 O1129 1.257 . S
C1155 H1130 0.930 . S
C1155 C1158 1.388 . S
C1155 C1160 1.418 . S
C1156 H1151 0.930 . S
C1156 C1159 1.404 . S
C1156 C1160 1.353 . S
N1157 Co1122 2.145 . S
N1157 C1158 1.397 . S
N1157 C1159 1.334 . S
C1158 H1139 0.929 . S
C1158 C1155 1.388 . S
C1158 N1157 1.397 . S
C1159 H1140 0.929 . S
C1159 C1156 1.404 . S
C1159 N1157 1.334 . S
C1160 H1152 0.930 . S
C1160 C1155 1.418 . S
C1160 C1156 1.353 . S
C1161 H1131 0.930 . S
C1161 N1162 1.330 . S
C1161 C1163 1.446 . S
N1162 Co1121 2.151 . S
N1162 C1161 1.330 . S
N1162 C1166 1.418 . S
C1163 H1142 0.929 . S
C1163 C1161 1.446 . S
C1163 C1164 1.332 . S
C1164 H1144 0.931 . S
C1164 C1163 1.332 . S
C1164 C1165 1.267 . S
C1165 H1133 0.929 . S
C1165 C1164 1.267 . S
C1165 C1166 1.251 . S
C1166 H1136 0.929 . S
C1166 N1162 1.418 . S
C1166 C1165 1.251 . S
C1167 H1134 0.930 . S
C1167 C1169 1.406 . S
C1167 C1172 1.261 . S
C1168 H1135 0.930 . S
C1168 N1170 1.325 . S
C1168 C1171 1.357 . S
C1169 H1137 0.928 . S
C1169 C1167 1.406 . S
C1169 N1170 1.261 . S
N1170 Co1121 2.214 . S
N1170 C1168 1.325 . S
N1170 C1169 1.261 . S
C1171 H1141 0.931 . S
C1171 C1168 1.357 . S
C1171 C1172 1.312 . S
C1172 H1143 0.930 . S
C1172 C1167 1.261 . S
C1172 C1171 1.312 . S
C1173 O1145 1.214 . S
C1173 O1153 1.234 . S
C1174 H1146 0.929 . S
C1174 C1177 1.391 . S
C1174 C1179 1.391 . S
C1175 H1147 0.929 . S
C1175 C1176 1.390 . S
C1175 N1178 1.391 . S
C1176 H1148 0.930 . S
C1176 C1175 1.390 . S
C1176 C1177 1.392 . S
C1177 H1149 0.929 . S
C1177 C1174 1.391 . S
C1177 C1176 1.392 . S
N1178 Co1122 2.257 . S
N1178 C1175 1.391 . S
N1178 C1179 1.388 . S
C1179 H1150 0.930 . S
C1179 C1174 1.391 . S
C1179 N1178 1.388 . S
Co1180 O1182 2.143 . S
Co1180 O1188 2.074 . S
Co1180 O1191 2.093 . S
Co1180 O1204 2.097 . S
Co1180 N1221 2.151 . S
Co1180 N1229 2.214 . S
Co1181 O1182 2.160 . S
Co1181 O1187 2.058 . S
Co1181 O1197 2.057 . S
Co1181 O1212 2.037 . S
Co1181 N1216 2.145 . S
Co1181 N1237 2.257 . S
O1182 Co1180 2.143 . S
O1182 Co1181 2.160 . S
C1183 O1184 1.278 . S
C1183 O1191 1.224 . S
O1184 C1183 1.278 . S
C1185 O1186 1.245 . S
C1185 O1197 1.232 . S
O1186 C1185 1.245 . S
O1187 Co1181 2.058 . S
O1187 C1213 1.269 . S
O1188 Co1180 2.074 . S
O1188 C1213 1.257 . S
H1189 C1214 0.930 . S
H1190 C1220 0.930 . S
O1191 Co1180 2.093 . S
O1191 C1183 1.224 . S
H1192 C1224 0.929 . S
H1193 C1226 0.930 . S
H1194 C1227 0.930 . S
H1195 C1225 0.929 . S
H1196 C1228 0.928 . S
O1197 Co1181 2.057 . S
O1197 C1185 1.232 . S
H1198 C1217 0.929 . S
H1199 C1218 0.929 . S
H1200 C1230 0.931 . S
H1201 C1222 0.929 . S
H1202 C1231 0.930 . S
H1203 C1223 0.931 . S
O1204 Co1180 2.097 . S
O1204 C1232 1.214 . S
H1205 C1233 0.929 . S
H1206 C1234 0.929 . S
H1207 C1235 0.930 . S
H1208 C1236 0.929 . S
H1209 C1238 0.930 . S
H1210 C1215 0.930 . S
H1211 C1219 0.930 . S
O1212 Co1181 2.037 . S
O1212 C1232 1.234 . S
C1213 O1187 1.269 . S
C1213 O1188 1.257 . S
C1214 H1189 0.930 . S
C1214 C1217 1.388 . S
C1214 C1219 1.418 . S
C1215 H1210 0.930 . S
C1215 C1218 1.404 . S
C1215 C1219 1.353 . S
N1216 Co1181 2.145 . S
N1216 C1217 1.397 . S
N1216 C1218 1.334 . S
C1217 H1198 0.929 . S
C1217 C1214 1.388 . S
C1217 N1216 1.397 . S
C1218 H1199 0.929 . S
C1218 C1215 1.404 . S
C1218 N1216 1.334 . S
C1219 H1211 0.930 . S
C1219 C1214 1.418 . S
C1219 C1215 1.353 . S
C1220 H1190 0.930 . S
C1220 N1221 1.330 . S
C1220 C1222 1.446 . S
N1221 Co1180 2.151 . S
N1221 C1220 1.330 . S
N1221 C1225 1.418 . S
C1222 H1201 0.929 . S
C1222 C1220 1.446 . S
C1222 C1223 1.332 . S
C1223 H1203 0.931 . S
C1223 C1222 1.332 . S
C1223 C1224 1.267 . S
C1224 H1192 0.929 . S
C1224 C1223 1.267 . S
C1224 C1225 1.251 . S
C1225 H1195 0.929 . S
C1225 N1221 1.418 . S
C1225 C1224 1.251 . S
C1226 H1193 0.930 . S
C1226 C1228 1.406 . S
C1226 C1231 1.261 . S
C1227 H1194 0.930 . S
C1227 N1229 1.325 . S
C1227 C1230 1.357 . S
C1228 H1196 0.928 . S
C1228 C1226 1.406 . S
C1228 N1229 1.261 . S
N1229 Co1180 2.214 . S
N1229 C1227 1.325 . S
N1229 C1228 1.261 . S
C1230 H1200 0.931 . S
C1230 C1227 1.357 . S
C1230 C1231 1.312 . S
C1231 H1202 0.930 . S
C1231 C1226 1.261 . S
C1231 C1230 1.312 . S
C1232 O1204 1.214 . S
C1232 O1212 1.234 . S
C1233 H1205 0.929 . S
C1233 C1236 1.391 . S
C1233 C1238 1.391 . S
C1234 H1206 0.929 . S
C1234 C1235 1.390 . S
C1234 N1237 1.391 . S
C1235 H1207 0.930 . S
C1235 C1234 1.390 . S
C1235 C1236 1.392 . S
C1236 H1208 0.929 . S
C1236 C1233 1.391 . S
C1236 C1235 1.392 . S
N1237 Co1181 2.257 . S
N1237 C1234 1.391 . S
N1237 C1238 1.388 . S
C1238 H1209 0.930 . S
C1238 C1233 1.391 . S
C1238 N1237 1.388 . S
Co1239 O1241 2.143 . S
Co1239 O1247 2.074 . S
Co1239 O1250 2.093 . S
Co1239 O1263 2.097 . S
Co1239 N1280 2.151 . S
Co1239 N1288 2.214 . S
Co1240 O1241 2.160 . S
Co1240 O1246 2.058 . S
Co1240 O1256 2.057 . S
Co1240 O1271 2.037 . S
Co1240 N1275 2.145 . S
Co1240 N1296 2.257 . S
O1241 Co1239 2.143 . S
O1241 Co1240 2.160 . S
C1242 O1243 1.278 . S
C1242 O1250 1.224 . S
O1243 C1242 1.278 . S
C1244 O1245 1.245 . S
C1244 O1256 1.232 . S
O1245 C1244 1.245 . S
O1246 Co1240 2.058 . S
O1246 C1272 1.269 . S
O1247 Co1239 2.074 . S
O1247 C1272 1.257 . S
H1248 C1273 0.930 . S
H1249 C1279 0.930 . S
O1250 Co1239 2.093 . S
O1250 C1242 1.224 . S
H1251 C1283 0.929 . S
H1252 C1285 0.930 . S
H1253 C1286 0.930 . S
H1254 C1284 0.929 . S
H1255 C1287 0.928 . S
O1256 Co1240 2.057 . S
O1256 C1244 1.232 . S
H1257 C1276 0.929 . S
H1258 C1277 0.929 . S
H1259 C1289 0.931 . S
H1260 C1281 0.929 . S
H1261 C1290 0.930 . S
H1262 C1282 0.931 . S
O1263 Co1239 2.097 . S
O1263 C1291 1.214 . S
H1264 C1292 0.929 . S
H1265 C1293 0.929 . S
H1266 C1294 0.930 . S
H1267 C1295 0.929 . S
H1268 C1297 0.930 . S
H1269 C1274 0.930 . S
H1270 C1278 0.930 . S
O1271 Co1240 2.037 . S
O1271 C1291 1.234 . S
C1272 O1246 1.269 . S
C1272 O1247 1.257 . S
C1273 H1248 0.930 . S
C1273 C1276 1.388 . S
C1273 C1278 1.418 . S
C1274 H1269 0.930 . S
C1274 C1277 1.404 . S
C1274 C1278 1.353 . S
N1275 Co1240 2.145 . S
N1275 C1276 1.397 . S
N1275 C1277 1.334 . S
C1276 H1257 0.929 . S
C1276 C1273 1.388 . S
C1276 N1275 1.397 . S
C1277 H1258 0.929 . S
C1277 C1274 1.404 . S
C1277 N1275 1.334 . S
C1278 H1270 0.930 . S
C1278 C1273 1.418 . S
C1278 C1274 1.353 . S
C1279 H1249 0.930 . S
C1279 N1280 1.330 . S
C1279 C1281 1.446 . S
N1280 Co1239 2.151 . S
N1280 C1279 1.330 . S
N1280 C1284 1.418 . S
C1281 H1260 0.929 . S
C1281 C1279 1.446 . S
C1281 C1282 1.332 . S
C1282 H1262 0.931 . S
C1282 C1281 1.332 . S
C1282 C1283 1.267 . S
C1283 H1251 0.929 . S
C1283 C1282 1.267 . S
C1283 C1284 1.251 . S
C1284 H1254 0.929 . S
C1284 N1280 1.418 . S
C1284 C1283 1.251 . S
C1285 H1252 0.930 . S
C1285 C1287 1.406 . S
C1285 C1290 1.261 . S
C1286 H1253 0.930 . S
C1286 N1288 1.325 . S
C1286 C1289 1.357 . S
C1287 H1255 0.928 . S
C1287 C1285 1.406 . S
C1287 N1288 1.261 . S
N1288 Co1239 2.214 . S
N1288 C1286 1.325 . S
N1288 C1287 1.261 . S
C1289 H1259 0.931 . S
C1289 C1286 1.357 . S
C1289 C1290 1.312 . S
C1290 H1261 0.930 . S
C1290 C1285 1.261 . S
C1290 C1289 1.312 . S
C1291 O1263 1.214 . S
C1291 O1271 1.234 . S
C1292 H1264 0.929 . S
C1292 C1295 1.391 . S
C1292 C1297 1.391 . S
C1293 H1265 0.929 . S
C1293 C1294 1.390 . S
C1293 N1296 1.391 . S
C1294 H1266 0.930 . S
C1294 C1293 1.390 . S
C1294 C1295 1.392 . S
C1295 H1267 0.929 . S
C1295 C1292 1.391 . S
C1295 C1294 1.392 . S
N1296 Co1240 2.257 . S
N1296 C1293 1.391 . S
N1296 C1297 1.388 . S
C1297 H1268 0.930 . S
C1297 C1292 1.391 . S
C1297 N1296 1.388 . S
Co1298 O1300 2.143 . S
Co1298 O1306 2.074 . S
Co1298 O1309 2.093 . S
Co1298 O1322 2.097 . S
Co1298 N1339 2.151 . S
Co1298 N1347 2.214 . S
Co1299 O1300 2.160 . S
Co1299 O1305 2.058 . S
Co1299 O1315 2.057 . S
Co1299 O1330 2.037 . S
Co1299 N1334 2.145 . S
Co1299 N1355 2.257 . S
O1300 Co1298 2.143 . S
O1300 Co1299 2.160 . S
C1301 O1302 1.278 . S
C1301 O1309 1.224 . S
O1302 C1301 1.278 . S
C1303 O1304 1.245 . S
C1303 O1315 1.232 . S
O1304 C1303 1.245 . S
O1305 Co1299 2.058 . S
O1305 C1331 1.269 . S
O1306 Co1298 2.074 . S
O1306 C1331 1.257 . S
H1307 C1332 0.930 . S
H1308 C1338 0.930 . S
O1309 Co1298 2.093 . S
O1309 C1301 1.224 . S
H1310 C1342 0.929 . S
H1311 C1344 0.930 . S
H1312 C1345 0.930 . S
H1313 C1343 0.929 . S
H1314 C1346 0.928 . S
O1315 Co1299 2.057 . S
O1315 C1303 1.232 . S
H1316 C1335 0.929 . S
H1317 C1336 0.929 . S
H1318 C1348 0.931 . S
H1319 C1340 0.929 . S
H1320 C1349 0.930 . S
H1321 C1341 0.931 . S
O1322 Co1298 2.097 . S
O1322 C1350 1.214 . S
H1323 C1351 0.929 . S
H1324 C1352 0.929 . S
H1325 C1353 0.930 . S
H1326 C1354 0.929 . S
H1327 C1356 0.930 . S
H1328 C1333 0.930 . S
H1329 C1337 0.930 . S
O1330 Co1299 2.037 . S
O1330 C1350 1.234 . S
C1331 O1305 1.269 . S
C1331 O1306 1.257 . S
C1332 H1307 0.930 . S
C1332 C1335 1.388 . S
C1332 C1337 1.418 . S
C1333 H1328 0.930 . S
C1333 C1336 1.404 . S
C1333 C1337 1.353 . S
N1334 Co1299 2.145 . S
N1334 C1335 1.397 . S
N1334 C1336 1.334 . S
C1335 H1316 0.929 . S
C1335 C1332 1.388 . S
C1335 N1334 1.397 . S
C1336 H1317 0.929 . S
C1336 C1333 1.404 . S
C1336 N1334 1.334 . S
C1337 H1329 0.930 . S
C1337 C1332 1.418 . S
C1337 C1333 1.353 . S
C1338 H1308 0.930 . S
C1338 N1339 1.330 . S
C1338 C1340 1.446 . S
N1339 Co1298 2.151 . S
N1339 C1338 1.330 . S
N1339 C1343 1.418 . S
C1340 H1319 0.929 . S
C1340 C1338 1.446 . S
C1340 C1341 1.332 . S
C1341 H1321 0.931 . S
C1341 C1340 1.332 . S
C1341 C1342 1.267 . S
C1342 H1310 0.929 . S
C1342 C1341 1.267 . S
C1342 C1343 1.251 . S
C1343 H1313 0.929 . S
C1343 N1339 1.418 . S
C1343 C1342 1.251 . S
C1344 H1311 0.930 . S
C1344 C1346 1.406 . S
C1344 C1349 1.261 . S
C1345 H1312 0.930 . S
C1345 N1347 1.325 . S
C1345 C1348 1.357 . S
C1346 H1314 0.928 . S
C1346 C1344 1.406 . S
C1346 N1347 1.261 . S
N1347 Co1298 2.214 . S
N1347 C1345 1.325 . S
N1347 C1346 1.261 . S
C1348 H1318 0.931 . S
C1348 C1345 1.357 . S
C1348 C1349 1.312 . S
C1349 H1320 0.930 . S
C1349 C1344 1.261 . S
C1349 C1348 1.312 . S
C1350 O1322 1.214 . S
C1350 O1330 1.234 . S
C1351 H1323 0.929 . S
C1351 C1354 1.391 . S
C1351 C1356 1.391 . S
C1352 H1324 0.929 . S
C1352 C1353 1.390 . S
C1352 N1355 1.391 . S
C1353 H1325 0.930 . S
C1353 C1352 1.390 . S
C1353 C1354 1.392 . S
C1354 H1326 0.929 . S
C1354 C1351 1.391 . S
C1354 C1353 1.392 . S
N1355 Co1299 2.257 . S
N1355 C1352 1.391 . S
N1355 C1356 1.388 . S
C1356 H1327 0.930 . S
C1356 C1351 1.391 . S
C1356 N1355 1.388 . S
Co1357 O1359 2.143 . S
Co1357 O1365 2.074 . S
Co1357 O1368 2.093 . S
Co1357 O1381 2.097 . S
Co1357 N1398 2.151 . S
Co1357 N1406 2.214 . S
Co1358 O1359 2.160 . S
Co1358 O1364 2.058 . S
Co1358 O1374 2.057 . S
Co1358 O1389 2.037 . S
Co1358 N1393 2.145 . S
Co1358 N1414 2.257 . S
O1359 Co1357 2.143 . S
O1359 Co1358 2.160 . S
C1360 O1361 1.278 . S
C1360 O1368 1.224 . S
O1361 C1360 1.278 . S
C1362 O1363 1.245 . S
C1362 O1374 1.232 . S
O1363 C1362 1.245 . S
O1364 Co1358 2.058 . S
O1364 C1390 1.269 . S
O1365 Co1357 2.074 . S
O1365 C1390 1.257 . S
H1366 C1391 0.930 . S
H1367 C1397 0.930 . S
O1368 Co1357 2.093 . S
O1368 C1360 1.224 . S
H1369 C1401 0.929 . S
H1370 C1403 0.930 . S
H1371 C1404 0.930 . S
H1372 C1402 0.929 . S
H1373 C1405 0.928 . S
O1374 Co1358 2.057 . S
O1374 C1362 1.232 . S
H1375 C1394 0.929 . S
H1376 C1395 0.929 . S
H1377 C1407 0.931 . S
H1378 C1399 0.929 . S
H1379 C1408 0.930 . S
H1380 C1400 0.931 . S
O1381 Co1357 2.097 . S
O1381 C1409 1.214 . S
H1382 C1410 0.929 . S
H1383 C1411 0.929 . S
H1384 C1412 0.930 . S
H1385 C1413 0.929 . S
H1386 C1415 0.930 . S
H1387 C1392 0.930 . S
H1388 C1396 0.930 . S
O1389 Co1358 2.037 . S
O1389 C1409 1.234 . S
C1390 O1364 1.269 . S
C1390 O1365 1.257 . S
C1391 H1366 0.930 . S
C1391 C1394 1.388 . S
C1391 C1396 1.418 . S
C1392 H1387 0.930 . S
C1392 C1395 1.404 . S
C1392 C1396 1.353 . S
N1393 Co1358 2.145 . S
N1393 C1394 1.397 . S
N1393 C1395 1.334 . S
C1394 H1375 0.929 . S
C1394 C1391 1.388 . S
C1394 N1393 1.397 . S
C1395 H1376 0.929 . S
C1395 C1392 1.404 . S
C1395 N1393 1.334 . S
C1396 H1388 0.930 . S
C1396 C1391 1.418 . S
C1396 C1392 1.353 . S
C1397 H1367 0.930 . S
C1397 N1398 1.330 . S
C1397 C1399 1.446 . S
N1398 Co1357 2.151 . S
N1398 C1397 1.330 . S
N1398 C1402 1.418 . S
C1399 H1378 0.929 . S
C1399 C1397 1.446 . S
C1399 C1400 1.332 . S
C1400 H1380 0.931 . S
C1400 C1399 1.332 . S
C1400 C1401 1.267 . S
C1401 H1369 0.929 . S
C1401 C1400 1.267 . S
C1401 C1402 1.251 . S
C1402 H1372 0.929 . S
C1402 N1398 1.418 . S
C1402 C1401 1.251 . S
C1403 H1370 0.930 . S
C1403 C1405 1.406 . S
C1403 C1408 1.261 . S
C1404 H1371 0.930 . S
C1404 N1406 1.325 . S
C1404 C1407 1.357 . S
C1405 H1373 0.928 . S
C1405 C1403 1.406 . S
C1405 N1406 1.261 . S
N1406 Co1357 2.214 . S
N1406 C1404 1.325 . S
N1406 C1405 1.261 . S
C1407 H1377 0.931 . S
C1407 C1404 1.357 . S
C1407 C1408 1.312 . S
C1408 H1379 0.930 . S
C1408 C1403 1.261 . S
C1408 C1407 1.312 . S
C1409 O1381 1.214 . S
C1409 O1389 1.234 . S
C1410 H1382 0.929 . S
C1410 C1413 1.391 . S
C1410 C1415 1.391 . S
C1411 H1383 0.929 . S
C1411 C1412 1.390 . S
C1411 N1414 1.391 . S
C1412 H1384 0.930 . S
C1412 C1411 1.390 . S
C1412 C1413 1.392 . S
C1413 H1385 0.929 . S
C1413 C1410 1.391 . S
C1413 C1412 1.392 . S
N1414 Co1358 2.257 . S
N1414 C1411 1.391 . S
N1414 C1415 1.388 . S
C1415 H1386 0.930 . S
C1415 C1410 1.391 . S
C1415 N1414 1.388 . S
Co1416 O1418 2.143 . S
Co1416 O1424 2.074 . S
Co1416 O1427 2.093 . S
Co1416 O1440 2.097 . S
Co1416 N1457 2.151 . S
Co1416 N1465 2.214 . S
Co1417 O1418 2.160 . S
Co1417 O1423 2.058 . S
Co1417 O1433 2.057 . S
Co1417 O1448 2.037 . S
Co1417 N1452 2.145 . S
Co1417 N1473 2.257 . S
O1418 Co1416 2.143 . S
O1418 Co1417 2.160 . S
C1419 O1420 1.278 . S
C1419 O1427 1.224 . S
O1420 C1419 1.278 . S
C1421 O1422 1.245 . S
C1421 O1433 1.232 . S
O1422 C1421 1.245 . S
O1423 Co1417 2.058 . S
O1423 C1449 1.269 . S
O1424 Co1416 2.074 . S
O1424 C1449 1.257 . S
H1425 C1450 0.930 . S
H1426 C1456 0.930 . S
O1427 Co1416 2.093 . S
O1427 C1419 1.224 . S
H1428 C1460 0.929 . S
H1429 C1462 0.930 . S
H1430 C1463 0.930 . S
H1431 C1461 0.929 . S
H1432 C1464 0.928 . S
O1433 Co1417 2.057 . S
O1433 C1421 1.232 . S
H1434 C1453 0.929 . S
H1435 C1454 0.929 . S
H1436 C1466 0.931 . S
H1437 C1458 0.929 . S
H1438 C1467 0.930 . S
H1439 C1459 0.931 . S
O1440 Co1416 2.097 . S
O1440 C1468 1.214 . S
H1441 C1469 0.929 . S
H1442 C1470 0.929 . S
H1443 C1471 0.930 . S
H1444 C1472 0.929 . S
H1445 C1474 0.930 . S
H1446 C1451 0.930 . S
H1447 C1455 0.930 . S
O1448 Co1417 2.037 . S
O1448 C1468 1.234 . S
C1449 O1423 1.269 . S
C1449 O1424 1.257 . S
C1450 H1425 0.930 . S
C1450 C1453 1.388 . S
C1450 C1455 1.418 . S
C1451 H1446 0.930 . S
C1451 C1454 1.404 . S
C1451 C1455 1.353 . S
N1452 Co1417 2.145 . S
N1452 C1453 1.397 . S
N1452 C1454 1.334 . S
C1453 H1434 0.929 . S
C1453 C1450 1.388 . S
C1453 N1452 1.397 . S
C1454 H1435 0.929 . S
C1454 C1451 1.404 . S
C1454 N1452 1.334 . S
C1455 H1447 0.930 . S
C1455 C1450 1.418 . S
C1455 C1451 1.353 . S
C1456 H1426 0.930 . S
C1456 N1457 1.330 . S
C1456 C1458 1.446 . S
N1457 Co1416 2.151 . S
N1457 C1456 1.330 . S
N1457 C1461 1.418 . S
C1458 H1437 0.929 . S
C1458 C1456 1.446 . S
C1458 C1459 1.332 . S
C1459 H1439 0.931 . S
C1459 C1458 1.332 . S
C1459 C1460 1.267 . S
C1460 H1428 0.929 . S
C1460 C1459 1.267 . S
C1460 C1461 1.251 . S
C1461 H1431 0.929 . S
C1461 N1457 1.418 . S
C1461 C1460 1.251 . S
C1462 H1429 0.930 . S
C1462 C1464 1.406 . S
C1462 C1467 1.261 . S
C1463 H1430 0.930 . S
C1463 N1465 1.325 . S
C1463 C1466 1.357 . S
C1464 H1432 0.928 . S
C1464 C1462 1.406 . S
C1464 N1465 1.261 . S
N1465 Co1416 2.214 . S
N1465 C1463 1.325 . S
N1465 C1464 1.261 . S
C1466 H1436 0.931 . S
C1466 C1463 1.357 . S
C1466 C1467 1.312 . S
C1467 H1438 0.930 . S
C1467 C1462 1.261 . S
C1467 C1466 1.312 . S
C1468 O1440 1.214 . S
C1468 O1448 1.234 . S
C1469 H1441 0.929 . S
C1469 C1472 1.391 . S
C1469 C1474 1.391 . S
C1470 H1442 0.929 . S
C1470 C1471 1.390 . S
C1470 N1473 1.391 . S
C1471 H1443 0.930 . S
C1471 C1470 1.390 . S
C1471 C1472 1.392 . S
C1472 H1444 0.929 . S
C1472 C1469 1.391 . S
C1472 C1471 1.392 . S
N1473 Co1417 2.257 . S
N1473 C1470 1.391 . S
N1473 C1474 1.388 . S
C1474 H1445 0.930 . S
C1474 C1469 1.391 . S
C1474 N1473 1.388 . S
Co1475 O1477 2.143 . S
Co1475 O1483 2.074 . S
Co1475 O1486 2.093 . S
Co1475 O1499 2.097 . S
Co1475 N1516 2.151 . S
Co1475 N1524 2.214 . S
Co1476 O1477 2.160 . S
Co1476 O1482 2.058 . S
Co1476 O1492 2.057 . S
Co1476 O1507 2.037 . S
Co1476 N1511 2.145 . S
Co1476 N1532 2.257 . S
O1477 Co1475 2.143 . S
O1477 Co1476 2.160 . S
C1478 O1479 1.278 . S
C1478 O1486 1.224 . S
O1479 C1478 1.278 . S
C1480 O1481 1.245 . S
C1480 O1492 1.232 . S
O1481 C1480 1.245 . S
O1482 Co1476 2.058 . S
O1482 C1508 1.269 . S
O1483 Co1475 2.074 . S
O1483 C1508 1.257 . S
H1484 C1509 0.930 . S
H1485 C1515 0.930 . S
O1486 Co1475 2.093 . S
O1486 C1478 1.224 . S
H1487 C1519 0.929 . S
H1488 C1521 0.930 . S
H1489 C1522 0.930 . S
H1490 C1520 0.929 . S
H1491 C1523 0.928 . S
O1492 Co1476 2.057 . S
O1492 C1480 1.232 . S
H1493 C1512 0.929 . S
H1494 C1513 0.929 . S
H1495 C1525 0.931 . S
H1496 C1517 0.929 . S
H1497 C1526 0.930 . S
H1498 C1518 0.931 . S
O1499 Co1475 2.097 . S
O1499 C1527 1.214 . S
H1500 C1528 0.929 . S
H1501 C1529 0.929 . S
H1502 C1530 0.930 . S
H1503 C1531 0.929 . S
H1504 C1533 0.930 . S
H1505 C1510 0.930 . S
H1506 C1514 0.930 . S
O1507 Co1476 2.037 . S
O1507 C1527 1.234 . S
C1508 O1482 1.269 . S
C1508 O1483 1.257 . S
C1509 H1484 0.930 . S
C1509 C1512 1.388 . S
C1509 C1514 1.418 . S
C1510 H1505 0.930 . S
C1510 C1513 1.404 . S
C1510 C1514 1.353 . S
N1511 Co1476 2.145 . S
N1511 C1512 1.397 . S
N1511 C1513 1.334 . S
C1512 H1493 0.929 . S
C1512 C1509 1.388 . S
C1512 N1511 1.397 . S
C1513 H1494 0.929 . S
C1513 C1510 1.404 . S
C1513 N1511 1.334 . S
C1514 H1506 0.930 . S
C1514 C1509 1.418 . S
C1514 C1510 1.353 . S
C1515 H1485 0.930 . S
C1515 N1516 1.330 . S
C1515 C1517 1.446 . S
N1516 Co1475 2.151 . S
N1516 C1515 1.330 . S
N1516 C1520 1.418 . S
C1517 H1496 0.929 . S
C1517 C1515 1.446 . S
C1517 C1518 1.332 . S
C1518 H1498 0.931 . S
C1518 C1517 1.332 . S
C1518 C1519 1.267 . S
C1519 H1487 0.929 . S
C1519 C1518 1.267 . S
C1519 C1520 1.251 . S
C1520 H1490 0.929 . S
C1520 N1516 1.418 . S
C1520 C1519 1.251 . S
C1521 H1488 0.930 . S
C1521 C1523 1.406 . S
C1521 C1526 1.261 . S
C1522 H1489 0.930 . S
C1522 N1524 1.325 . S
C1522 C1525 1.357 . S
C1523 H1491 0.928 . S
C1523 C1521 1.406 . S
C1523 N1524 1.261 . S
N1524 Co1475 2.214 . S
N1524 C1522 1.325 . S
N1524 C1523 1.261 . S
C1525 H1495 0.931 . S
C1525 C1522 1.357 . S
C1525 C1526 1.312 . S
C1526 H1497 0.930 . S
C1526 C1521 1.261 . S
C1526 C1525 1.312 . S
C1527 O1499 1.214 . S
C1527 O1507 1.234 . S
C1528 H1500 0.929 . S
C1528 C1531 1.391 . S
C1528 C1533 1.391 . S
C1529 H1501 0.929 . S
C1529 C1530 1.390 . S
C1529 N1532 1.391 . S
C1530 H1502 0.930 . S
C1530 C1529 1.390 . S
C1530 C1531 1.392 . S
C1531 H1503 0.929 . S
C1531 C1528 1.391 . S
C1531 C1530 1.392 . S
N1532 Co1476 2.257 . S
N1532 C1529 1.391 . S
N1532 C1533 1.388 . S
C1533 H1504 0.930 . S
C1533 C1528 1.391 . S
C1533 N1532 1.388 . S
Co1534 O1536 2.143 . S
Co1534 O1542 2.074 . S
Co1534 O1545 2.093 . S
Co1534 O1558 2.097 . S
Co1534 N1575 2.151 . S
Co1534 N1583 2.214 . S
Co1535 O1536 2.160 . S
Co1535 O1541 2.058 . S
Co1535 O1551 2.057 . S
Co1535 O1566 2.037 . S
Co1535 N1570 2.145 . S
Co1535 N1591 2.257 . S
O1536 Co1534 2.143 . S
O1536 Co1535 2.160 . S
C1537 O1538 1.278 . S
C1537 O1545 1.224 . S
O1538 C1537 1.278 . S
C1539 O1540 1.245 . S
C1539 O1551 1.232 . S
O1540 C1539 1.245 . S
O1541 Co1535 2.058 . S
O1541 C1567 1.269 . S
O1542 Co1534 2.074 . S
O1542 C1567 1.257 . S
H1543 C1568 0.930 . S
H1544 C1574 0.930 . S
O1545 Co1534 2.093 . S
O1545 C1537 1.224 . S
H1546 C1578 0.929 . S
H1547 C1580 0.930 . S
H1548 C1581 0.930 . S
H1549 C1579 0.929 . S
H1550 C1582 0.928 . S
O1551 Co1535 2.057 . S
O1551 C1539 1.232 . S
H1552 C1571 0.929 . S
H1553 C1572 0.929 . S
H1554 C1584 0.931 . S
H1555 C1576 0.929 . S
H1556 C1585 0.930 . S
H1557 C1577 0.931 . S
O1558 Co1534 2.097 . S
O1558 C1586 1.214 . S
H1559 C1587 0.929 . S
H1560 C1588 0.929 . S
H1561 C1589 0.930 . S
H1562 C1590 0.929 . S
H1563 C1592 0.930 . S
H1564 C1569 0.930 . S
H1565 C1573 0.930 . S
O1566 Co1535 2.037 . S
O1566 C1586 1.234 . S
C1567 O1541 1.269 . S
C1567 O1542 1.257 . S
C1568 H1543 0.930 . S
C1568 C1571 1.388 . S
C1568 C1573 1.418 . S
C1569 H1564 0.930 . S
C1569 C1572 1.404 . S
C1569 C1573 1.353 . S
N1570 Co1535 2.145 . S
N1570 C1571 1.397 . S
N1570 C1572 1.334 . S
C1571 H1552 0.929 . S
C1571 C1568 1.388 . S
C1571 N1570 1.397 . S
C1572 H1553 0.929 . S
C1572 C1569 1.404 . S
C1572 N1570 1.334 . S
C1573 H1565 0.930 . S
C1573 C1568 1.418 . S
C1573 C1569 1.353 . S
C1574 H1544 0.930 . S
C1574 N1575 1.330 . S
C1574 C1576 1.446 . S
N1575 Co1534 2.151 . S
N1575 C1574 1.330 . S
N1575 C1579 1.418 . S
C1576 H1555 0.929 . S
C1576 C1574 1.446 . S
C1576 C1577 1.332 . S
C1577 H1557 0.931 . S
C1577 C1576 1.332 . S
C1577 C1578 1.267 . S
C1578 H1546 0.929 . S
C1578 C1577 1.267 . S
C1578 C1579 1.251 . S
C1579 H1549 0.929 . S
C1579 N1575 1.418 . S
C1579 C1578 1.251 . S
C1580 H1547 0.930 . S
C1580 C1582 1.406 . S
C1580 C1585 1.261 . S
C1581 H1548 0.930 . S
C1581 N1583 1.325 . S
C1581 C1584 1.357 . S
C1582 H1550 0.928 . S
C1582 C1580 1.406 . S
C1582 N1583 1.261 . S
N1583 Co1534 2.214 . S
N1583 C1581 1.325 . S
N1583 C1582 1.261 . S
C1584 H1554 0.931 . S
C1584 C1581 1.357 . S
C1584 C1585 1.312 . S
C1585 H1556 0.930 . S
C1585 C1580 1.261 . S
C1585 C1584 1.312 . S
C1586 O1558 1.214 . S
C1586 O1566 1.234 . S
C1587 H1559 0.929 . S
C1587 C1590 1.391 . S
C1587 C1592 1.391 . S
C1588 H1560 0.929 . S
C1588 C1589 1.390 . S
C1588 N1591 1.391 . S
C1589 H1561 0.930 . S
C1589 C1588 1.390 . S
C1589 C1590 1.392 . S
C1590 H1562 0.929 . S
C1590 C1587 1.391 . S
C1590 C1589 1.392 . S
N1591 Co1535 2.257 . S
N1591 C1588 1.391 . S
N1591 C1592 1.388 . S
C1592 H1563 0.930 . S
C1592 C1587 1.391 . S
C1592 N1591 1.388 . S
Co1593 O1595 2.143 . S
Co1593 O1601 2.074 . S
Co1593 O1604 2.093 . S
Co1593 O1617 2.097 . S
Co1593 N1634 2.151 . S
Co1593 N1642 2.214 . S
Co1594 O1595 2.160 . S
Co1594 O1600 2.058 . S
Co1594 O1610 2.057 . S
Co1594 O1625 2.037 . S
Co1594 N1629 2.145 . S
Co1594 N1650 2.257 . S
O1595 Co1593 2.143 . S
O1595 Co1594 2.160 . S
C1596 O1597 1.278 . S
C1596 O1604 1.224 . S
O1597 C1596 1.278 . S
C1598 O1599 1.245 . S
C1598 O1610 1.232 . S
O1599 C1598 1.245 . S
O1600 Co1594 2.058 . S
O1600 C1626 1.269 . S
O1601 Co1593 2.074 . S
O1601 C1626 1.257 . S
H1602 C1627 0.930 . S
H1603 C1633 0.930 . S
O1604 Co1593 2.093 . S
O1604 C1596 1.224 . S
H1605 C1637 0.929 . S
H1606 C1639 0.930 . S
H1607 C1640 0.930 . S
H1608 C1638 0.929 . S
H1609 C1641 0.928 . S
O1610 Co1594 2.057 . S
O1610 C1598 1.232 . S
H1611 C1630 0.929 . S
H1612 C1631 0.929 . S
H1613 C1643 0.931 . S
H1614 C1635 0.929 . S
H1615 C1644 0.930 . S
H1616 C1636 0.931 . S
O1617 Co1593 2.097 . S
O1617 C1645 1.214 . S
H1618 C1646 0.929 . S
H1619 C1647 0.929 . S
H1620 C1648 0.930 . S
H1621 C1649 0.929 . S
H1622 C1651 0.930 . S
H1623 C1628 0.930 . S
H1624 C1632 0.930 . S
O1625 Co1594 2.037 . S
O1625 C1645 1.234 . S
C1626 O1600 1.269 . S
C1626 O1601 1.257 . S
C1627 H1602 0.930 . S
C1627 C1630 1.388 . S
C1627 C1632 1.418 . S
C1628 H1623 0.930 . S
C1628 C1631 1.404 . S
C1628 C1632 1.353 . S
N1629 Co1594 2.145 . S
N1629 C1630 1.397 . S
N1629 C1631 1.334 . S
C1630 H1611 0.929 . S
C1630 C1627 1.388 . S
C1630 N1629 1.397 . S
C1631 H1612 0.929 . S
C1631 C1628 1.404 . S
C1631 N1629 1.334 . S
C1632 H1624 0.930 . S
C1632 C1627 1.418 . S
C1632 C1628 1.353 . S
C1633 H1603 0.930 . S
C1633 N1634 1.330 . S
C1633 C1635 1.446 . S
N1634 Co1593 2.151 . S
N1634 C1633 1.330 . S
N1634 C1638 1.418 . S
C1635 H1614 0.929 . S
C1635 C1633 1.446 . S
C1635 C1636 1.332 . S
C1636 H1616 0.931 . S
C1636 C1635 1.332 . S
C1636 C1637 1.267 . S
C1637 H1605 0.929 . S
C1637 C1636 1.267 . S
C1637 C1638 1.251 . S
C1638 H1608 0.929 . S
C1638 N1634 1.418 . S
C1638 C1637 1.251 . S
C1639 H1606 0.930 . S
C1639 C1641 1.406 . S
C1639 C1644 1.261 . S
C1640 H1607 0.930 . S
C1640 N1642 1.325 . S
C1640 C1643 1.357 . S
C1641 H1609 0.928 . S
C1641 C1639 1.406 . S
C1641 N1642 1.261 . S
N1642 Co1593 2.214 . S
N1642 C1640 1.325 . S
N1642 C1641 1.261 . S
C1643 H1613 0.931 . S
C1643 C1640 1.357 . S
C1643 C1644 1.312 . S
C1644 H1615 0.930 . S
C1644 C1639 1.261 . S
C1644 C1643 1.312 . S
C1645 O1617 1.214 . S
C1645 O1625 1.234 . S
C1646 H1618 0.929 . S
C1646 C1649 1.391 . S
C1646 C1651 1.391 . S
C1647 H1619 0.929 . S
C1647 C1648 1.390 . S
C1647 N1650 1.391 . S
C1648 H1620 0.930 . S
C1648 C1647 1.390 . S
C1648 C1649 1.392 . S
C1649 H1621 0.929 . S
C1649 C1646 1.391 . S
C1649 C1648 1.392 . S
N1650 Co1594 2.257 . S
N1650 C1647 1.391 . S
N1650 C1651 1.388 . S
C1651 H1622 0.930 . S
C1651 C1646 1.391 . S
C1651 N1650 1.388 . S
Co1652 O1654 2.143 . S
Co1652 O1660 2.074 . S
Co1652 O1663 2.093 . S
Co1652 O1676 2.097 . S
Co1652 N1693 2.151 . S
Co1652 N1701 2.214 . S
Co1653 O1654 2.160 . S
Co1653 O1659 2.058 . S
Co1653 O1669 2.057 . S
Co1653 O1684 2.037 . S
Co1653 N1688 2.145 . S
Co1653 N1709 2.257 . S
O1654 Co1652 2.143 . S
O1654 Co1653 2.160 . S
C1655 O1656 1.278 . S
C1655 O1663 1.224 . S
O1656 C1655 1.278 . S
C1657 O1658 1.245 . S
C1657 O1669 1.232 . S
O1658 C1657 1.245 . S
O1659 Co1653 2.058 . S
O1659 C1685 1.269 . S
O1660 Co1652 2.074 . S
O1660 C1685 1.257 . S
H1661 C1686 0.930 . S
H1662 C1692 0.930 . S
O1663 Co1652 2.093 . S
O1663 C1655 1.224 . S
H1664 C1696 0.929 . S
H1665 C1698 0.930 . S
H1666 C1699 0.930 . S
H1667 C1697 0.929 . S
H1668 C1700 0.928 . S
O1669 Co1653 2.057 . S
O1669 C1657 1.232 . S
H1670 C1689 0.929 . S
H1671 C1690 0.929 . S
H1672 C1702 0.931 . S
H1673 C1694 0.929 . S
H1674 C1703 0.930 . S
H1675 C1695 0.931 . S
O1676 Co1652 2.097 . S
O1676 C1704 1.214 . S
H1677 C1705 0.929 . S
H1678 C1706 0.929 . S
H1679 C1707 0.930 . S
H1680 C1708 0.929 . S
H1681 C1710 0.930 . S
H1682 C1687 0.930 . S
H1683 C1691 0.930 . S
O1684 Co1653 2.037 . S
O1684 C1704 1.234 . S
C1685 O1659 1.269 . S
C1685 O1660 1.257 . S
C1686 H1661 0.930 . S
C1686 C1689 1.388 . S
C1686 C1691 1.418 . S
C1687 H1682 0.930 . S
C1687 C1690 1.404 . S
C1687 C1691 1.353 . S
N1688 Co1653 2.145 . S
N1688 C1689 1.397 . S
N1688 C1690 1.334 . S
C1689 H1670 0.929 . S
C1689 C1686 1.388 . S
C1689 N1688 1.397 . S
C1690 H1671 0.929 . S
C1690 C1687 1.404 . S
C1690 N1688 1.334 . S
C1691 H1683 0.930 . S
C1691 C1686 1.418 . S
C1691 C1687 1.353 . S
C1692 H1662 0.930 . S
C1692 N1693 1.330 . S
C1692 C1694 1.446 . S
N1693 Co1652 2.151 . S
N1693 C1692 1.330 . S
N1693 C1697 1.418 . S
C1694 H1673 0.929 . S
C1694 C1692 1.446 . S
C1694 C1695 1.332 . S
C1695 H1675 0.931 . S
C1695 C1694 1.332 . S
C1695 C1696 1.267 . S
C1696 H1664 0.929 . S
C1696 C1695 1.267 . S
C1696 C1697 1.251 . S
C1697 H1667 0.929 . S
C1697 N1693 1.418 . S
C1697 C1696 1.251 . S
C1698 H1665 0.930 . S
C1698 C1700 1.406 . S
C1698 C1703 1.261 . S
C1699 H1666 0.930 . S
C1699 N1701 1.325 . S
C1699 C1702 1.357 . S
C1700 H1668 0.928 . S
C1700 C1698 1.406 . S
C1700 N1701 1.261 . S
N1701 Co1652 2.214 . S
N1701 C1699 1.325 . S
N1701 C1700 1.261 . S
C1702 H1672 0.931 . S
C1702 C1699 1.357 . S
C1702 C1703 1.312 . S
C1703 H1674 0.930 . S
C1703 C1698 1.261 . S
C1703 C1702 1.312 . S
C1704 O1676 1.214 . S
C1704 O1684 1.234 . S
C1705 H1677 0.929 . S
C1705 C1708 1.391 . S
C1705 C1710 1.391 . S
C1706 H1678 0.929 . S
C1706 C1707 1.390 . S
C1706 N1709 1.391 . S
C1707 H1679 0.930 . S
C1707 C1706 1.390 . S
C1707 C1708 1.392 . S
C1708 H1680 0.929 . S
C1708 C1705 1.391 . S
C1708 C1707 1.392 . S
N1709 Co1653 2.257 . S
N1709 C1706 1.391 . S
N1709 C1710 1.388 . S
C1710 H1681 0.930 . S
C1710 C1705 1.391 . S
C1710 N1709 1.388 . S
Co1711 O1713 2.143 . S
Co1711 O1719 2.074 . S
Co1711 O1722 2.093 . S
Co1711 O1735 2.097 . S
Co1711 N1752 2.151 . S
Co1711 N1760 2.214 . S
Co1712 O1713 2.160 . S
Co1712 O1718 2.058 . S
Co1712 O1728 2.057 . S
Co1712 O1743 2.037 . S
Co1712 N1747 2.145 . S
Co1712 N1768 2.257 . S
O1713 Co1711 2.143 . S
O1713 Co1712 2.160 . S
C1714 O1715 1.278 . S
C1714 O1722 1.224 . S
O1715 C1714 1.278 . S
C1716 O1717 1.245 . S
C1716 O1728 1.232 . S
O1717 C1716 1.245 . S
O1718 Co1712 2.058 . S
O1718 C1744 1.269 . S
O1719 Co1711 2.074 . S
O1719 C1744 1.257 . S
H1720 C1745 0.930 . S
H1721 C1751 0.930 . S
O1722 Co1711 2.093 . S
O1722 C1714 1.224 . S
H1723 C1755 0.929 . S
H1724 C1757 0.930 . S
H1725 C1758 0.930 . S
H1726 C1756 0.929 . S
H1727 C1759 0.928 . S
O1728 Co1712 2.057 . S
O1728 C1716 1.232 . S
H1729 C1748 0.929 . S
H1730 C1749 0.929 . S
H1731 C1761 0.931 . S
H1732 C1753 0.929 . S
H1733 C1762 0.930 . S
H1734 C1754 0.931 . S
O1735 Co1711 2.097 . S
O1735 C1763 1.214 . S
H1736 C1764 0.929 . S
H1737 C1765 0.929 . S
H1738 C1766 0.930 . S
H1739 C1767 0.929 . S
H1740 C1769 0.930 . S
H1741 C1746 0.930 . S
H1742 C1750 0.930 . S
O1743 Co1712 2.037 . S
O1743 C1763 1.234 . S
C1744 O1718 1.269 . S
C1744 O1719 1.257 . S
C1745 H1720 0.930 . S
C1745 C1748 1.388 . S
C1745 C1750 1.418 . S
C1746 H1741 0.930 . S
C1746 C1749 1.404 . S
C1746 C1750 1.353 . S
N1747 Co1712 2.145 . S
N1747 C1748 1.397 . S
N1747 C1749 1.334 . S
C1748 H1729 0.929 . S
C1748 C1745 1.388 . S
C1748 N1747 1.397 . S
C1749 H1730 0.929 . S
C1749 C1746 1.404 . S
C1749 N1747 1.334 . S
C1750 H1742 0.930 . S
C1750 C1745 1.418 . S
C1750 C1746 1.353 . S
C1751 H1721 0.930 . S
C1751 N1752 1.330 . S
C1751 C1753 1.446 . S
N1752 Co1711 2.151 . S
N1752 C1751 1.330 . S
N1752 C1756 1.418 . S
C1753 H1732 0.929 . S
C1753 C1751 1.446 . S
C1753 C1754 1.332 . S
C1754 H1734 0.931 . S
C1754 C1753 1.332 . S
C1754 C1755 1.267 . S
C1755 H1723 0.929 . S
C1755 C1754 1.267 . S
C1755 C1756 1.251 . S
C1756 H1726 0.929 . S
C1756 N1752 1.418 . S
C1756 C1755 1.251 . S
C1757 H1724 0.930 . S
C1757 C1759 1.406 . S
C1757 C1762 1.261 . S
C1758 H1725 0.930 . S
C1758 N1760 1.325 . S
C1758 C1761 1.357 . S
C1759 H1727 0.928 . S
C1759 C1757 1.406 . S
C1759 N1760 1.261 . S
N1760 Co1711 2.214 . S
N1760 C1758 1.325 . S
N1760 C1759 1.261 . S
C1761 H1731 0.931 . S
C1761 C1758 1.357 . S
C1761 C1762 1.312 . S
C1762 H1733 0.930 . S
C1762 C1757 1.261 . S
C1762 C1761 1.312 . S
C1763 O1735 1.214 . S
C1763 O1743 1.234 . S
C1764 H1736 0.929 . S
C1764 C1767 1.391 . S
C1764 C1769 1.391 . S
C1765 H1737 0.929 . S
C1765 C1766 1.390 . S
C1765 N1768 1.391 . S
C1766 H1738 0.930 . S
C1766 C1765 1.390 . S
C1766 C1767 1.392 . S
C1767 H1739 0.929 . S
C1767 C1764 1.391 . S
C1767 C1766 1.392 . S
N1768 Co1712 2.257 . S
N1768 C1765 1.391 . S
N1768 C1769 1.388 . S
C1769 H1740 0.930 . S
C1769 C1764 1.391 . S
C1769 N1768 1.388 . S
Co1770 O1772 2.143 . S
Co1770 O1778 2.074 . S
Co1770 O1781 2.093 . S
Co1770 O1794 2.097 . S
Co1770 N1811 2.151 . S
Co1770 N1819 2.214 . S
Co1771 O1772 2.160 . S
Co1771 O1777 2.058 . S
Co1771 O1787 2.057 . S
Co1771 O1802 2.037 . S
Co1771 N1806 2.145 . S
Co1771 N1827 2.257 . S
O1772 Co1770 2.143 . S
O1772 Co1771 2.160 . S
C1773 O1774 1.278 . S
C1773 O1781 1.224 . S
O1774 C1773 1.278 . S
C1775 O1776 1.245 . S
C1775 O1787 1.232 . S
O1776 C1775 1.245 . S
O1777 Co1771 2.058 . S
O1777 C1803 1.269 . S
O1778 Co1770 2.074 . S
O1778 C1803 1.257 . S
H1779 C1804 0.930 . S
H1780 C1810 0.930 . S
O1781 Co1770 2.093 . S
O1781 C1773 1.224 . S
H1782 C1814 0.929 . S
H1783 C1816 0.930 . S
H1784 C1817 0.930 . S
H1785 C1815 0.929 . S
H1786 C1818 0.928 . S
O1787 Co1771 2.057 . S
O1787 C1775 1.232 . S
H1788 C1807 0.929 . S
H1789 C1808 0.929 . S
H1790 C1820 0.931 . S
H1791 C1812 0.929 . S
H1792 C1821 0.930 . S
H1793 C1813 0.931 . S
O1794 Co1770 2.097 . S
O1794 C1822 1.214 . S
H1795 C1823 0.929 . S
H1796 C1824 0.929 . S
H1797 C1825 0.930 . S
H1798 C1826 0.929 . S
H1799 C1828 0.930 . S
H1800 C1805 0.930 . S
H1801 C1809 0.930 . S
O1802 Co1771 2.037 . S
O1802 C1822 1.234 . S
C1803 O1777 1.269 . S
C1803 O1778 1.257 . S
C1804 H1779 0.930 . S
C1804 C1807 1.388 . S
C1804 C1809 1.418 . S
C1805 H1800 0.930 . S
C1805 C1808 1.404 . S
C1805 C1809 1.353 . S
N1806 Co1771 2.145 . S
N1806 C1807 1.397 . S
N1806 C1808 1.334 . S
C1807 H1788 0.929 . S
C1807 C1804 1.388 . S
C1807 N1806 1.397 . S
C1808 H1789 0.929 . S
C1808 C1805 1.404 . S
C1808 N1806 1.334 . S
C1809 H1801 0.930 . S
C1809 C1804 1.418 . S
C1809 C1805 1.353 . S
C1810 H1780 0.930 . S
C1810 N1811 1.330 . S
C1810 C1812 1.446 . S
N1811 Co1770 2.151 . S
N1811 C1810 1.330 . S
N1811 C1815 1.418 . S
C1812 H1791 0.929 . S
C1812 C1810 1.446 . S
C1812 C1813 1.332 . S
C1813 H1793 0.931 . S
C1813 C1812 1.332 . S
C1813 C1814 1.267 . S
C1814 H1782 0.929 . S
C1814 C1813 1.267 . S
C1814 C1815 1.251 . S
C1815 H1785 0.929 . S
C1815 N1811 1.418 . S
C1815 C1814 1.251 . S
C1816 H1783 0.930 . S
C1816 C1818 1.406 . S
C1816 C1821 1.261 . S
C1817 H1784 0.930 . S
C1817 N1819 1.325 . S
C1817 C1820 1.357 . S
C1818 H1786 0.928 . S
C1818 C1816 1.406 . S
C1818 N1819 1.261 . S
N1819 Co1770 2.214 . S
N1819 C1817 1.325 . S
N1819 C1818 1.261 . S
C1820 H1790 0.931 . S
C1820 C1817 1.357 . S
C1820 C1821 1.312 . S
C1821 H1792 0.930 . S
C1821 C1816 1.261 . S
C1821 C1820 1.312 . S
C1822 O1794 1.214 . S
C1822 O1802 1.234 . S
C1823 H1795 0.929 . S
C1823 C1826 1.391 . S
C1823 C1828 1.391 . S
C1824 H1796 0.929 . S
C1824 C1825 1.390 . S
C1824 N1827 1.391 . S
C1825 H1797 0.930 . S
C1825 C1824 1.390 . S
C1825 C1826 1.392 . S
C1826 H1798 0.929 . S
C1826 C1823 1.391 . S
C1826 C1825 1.392 . S
N1827 Co1771 2.257 . S
N1827 C1824 1.391 . S
N1827 C1828 1.388 . S
C1828 H1799 0.930 . S
C1828 C1823 1.391 . S
C1828 N1827 1.388 . S
Co1829 O1831 2.143 . S
Co1829 O1837 2.074 . S
Co1829 O1840 2.093 . S
Co1829 O1853 2.097 . S
Co1829 N1870 2.151 . S
Co1829 N1878 2.214 . S
Co1830 O1831 2.160 . S
Co1830 O1836 2.058 . S
Co1830 O1846 2.057 . S
Co1830 O1861 2.037 . S
Co1830 N1865 2.145 . S
Co1830 N1886 2.257 . S
O1831 Co1829 2.143 . S
O1831 Co1830 2.160 . S
C1832 O1833 1.278 . S
C1832 O1840 1.224 . S
O1833 C1832 1.278 . S
C1834 O1835 1.245 . S
C1834 O1846 1.232 . S
O1835 C1834 1.245 . S
O1836 Co1830 2.058 . S
O1836 C1862 1.269 . S
O1837 Co1829 2.074 . S
O1837 C1862 1.257 . S
H1838 C1863 0.930 . S
H1839 C1869 0.930 . S
O1840 Co1829 2.093 . S
O1840 C1832 1.224 . S
H1841 C1873 0.929 . S
H1842 C1875 0.930 . S
H1843 C1876 0.930 . S
H1844 C1874 0.929 . S
H1845 C1877 0.928 . S
O1846 Co1830 2.057 . S
O1846 C1834 1.232 . S
H1847 C1866 0.929 . S
H1848 C1867 0.929 . S
H1849 C1879 0.931 . S
H1850 C1871 0.929 . S
H1851 C1880 0.930 . S
H1852 C1872 0.931 . S
O1853 Co1829 2.097 . S
O1853 C1881 1.214 . S
H1854 C1882 0.929 . S
H1855 C1883 0.929 . S
H1856 C1884 0.930 . S
H1857 C1885 0.929 . S
H1858 C1887 0.930 . S
H1859 C1864 0.930 . S
H1860 C1868 0.930 . S
O1861 Co1830 2.037 . S
O1861 C1881 1.234 . S
C1862 O1836 1.269 . S
C1862 O1837 1.257 . S
C1863 H1838 0.930 . S
C1863 C1866 1.388 . S
C1863 C1868 1.418 . S
C1864 H1859 0.930 . S
C1864 C1867 1.404 . S
C1864 C1868 1.353 . S
N1865 Co1830 2.145 . S
N1865 C1866 1.397 . S
N1865 C1867 1.334 . S
C1866 H1847 0.929 . S
C1866 C1863 1.388 . S
C1866 N1865 1.397 . S
C1867 H1848 0.929 . S
C1867 C1864 1.404 . S
C1867 N1865 1.334 . S
C1868 H1860 0.930 . S
C1868 C1863 1.418 . S
C1868 C1864 1.353 . S
C1869 H1839 0.930 . S
C1869 N1870 1.330 . S
C1869 C1871 1.446 . S
N1870 Co1829 2.151 . S
N1870 C1869 1.330 . S
N1870 C1874 1.418 . S
C1871 H1850 0.929 . S
C1871 C1869 1.446 . S
C1871 C1872 1.332 . S
C1872 H1852 0.931 . S
C1872 C1871 1.332 . S
C1872 C1873 1.267 . S
C1873 H1841 0.929 . S
C1873 C1872 1.267 . S
C1873 C1874 1.251 . S
C1874 H1844 0.929 . S
C1874 N1870 1.418 . S
C1874 C1873 1.251 . S
C1875 H1842 0.930 . S
C1875 C1877 1.406 . S
C1875 C1880 1.261 . S
C1876 H1843 0.930 . S
C1876 N1878 1.325 . S
C1876 C1879 1.357 . S
C1877 H1845 0.928 . S
C1877 C1875 1.406 . S
C1877 N1878 1.261 . S
N1878 Co1829 2.214 . S
N1878 C1876 1.325 . S
N1878 C1877 1.261 . S
C1879 H1849 0.931 . S
C1879 C1876 1.357 . S
C1879 C1880 1.312 . S
C1880 H1851 0.930 . S
C1880 C1875 1.261 . S
C1880 C1879 1.312 . S
C1881 O1853 1.214 . S
C1881 O1861 1.234 . S
C1882 H1854 0.929 . S
C1882 C1885 1.391 . S
C1882 C1887 1.391 . S
C1883 H1855 0.929 . S
C1883 C1884 1.390 . S
C1883 N1886 1.391 . S
C1884 H1856 0.930 . S
C1884 C1883 1.390 . S
C1884 C1885 1.392 . S
C1885 H1857 0.929 . S
C1885 C1882 1.391 . S
C1885 C1884 1.392 . S
N1886 Co1830 2.257 . S
N1886 C1883 1.391 . S
N1886 C1887 1.388 . S
C1887 H1858 0.930 . S
C1887 C1882 1.391 . S
C1887 N1886 1.388 . S
H1888 C1900 0.930 . S
H1889 C1902 0.930 . S
H1890 C1903 0.930 . S
H1891 C1907 0.959 . S
H1892 C1907 0.959 . S
H1893 C1907 0.961 . S
H1894 C1908 0.960 . S
H1895 C1908 0.961 . S
H1896 C1908 0.959 . S
H1897 C1911 0.929 . S
H1898 C1912 0.931 . S
H1899 C1914 0.930 . S
C1900 H1888 0.930 . S
C1900 C1901 1.399 . S
C1900 C1905 1.399 . S
C1901 C1900 1.399 . S
C1901 C1902 1.376 . S
C1902 H1889 0.930 . S
C1902 C1901 1.376 . S
C1902 C1903 1.388 . S
C1903 H1890 0.930 . S
C1903 C1902 1.388 . S
C1903 C1904 1.390 . S
C1904 C1903 1.390 . S
C1904 C1905 1.394 . S
C1904 C1910 1.465 . S
C1905 C1900 1.399 . S
C1905 C1904 1.394 . S
C1905 C1906 1.516 . S
C1906 C1905 1.516 . S
C1906 C1907 1.502 . S
C1906 C1908 1.561 . S
C1906 C1909 1.526 . S
C1907 H1891 0.959 . S
C1907 H1892 0.959 . S
C1907 H1893 0.961 . S
C1907 C1906 1.502 . S
C1908 H1894 0.960 . S
C1908 H1895 0.961 . S
C1908 H1896 0.959 . S
C1908 C1906 1.561 . S
C1909 C1906 1.526 . S
C1909 C1910 1.396 . S
C1909 C1914 1.390 . S
C1910 C1904 1.465 . S
C1910 C1909 1.396 . S
C1910 C1911 1.399 . S
C1911 H1897 0.929 . S
C1911 C1910 1.399 . S
C1911 C1912 1.385 . S
C1912 H1898 0.931 . S
C1912 C1911 1.385 . S
C1912 C1913 1.389 . S
C1913 C1912 1.389 . S
C1913 C1914 1.387 . S
C1914 H1899 0.930 . S
C1914 C1909 1.390 . S
C1914 C1913 1.387 . S
H1915 C1927 0.930 . S
H1916 C1929 0.930 . S
H1917 C1930 0.930 . S
H1918 C1934 0.959 . S
H1919 C1934 0.959 . S
H1920 C1934 0.961 . S
H1921 C1935 0.960 . S
H1922 C1935 0.961 . S
H1923 C1935 0.959 . S
H1924 C1938 0.929 . S
H1925 C1939 0.931 . S
H1926 C1941 0.930 . S
C1927 H1915 0.930 . S
C1927 C1928 1.399 . S
C1927 C1932 1.399 . S
C1928 C1927 1.399 . S
C1928 C1929 1.376 . S
C1929 H1916 0.930 . S
C1929 C1928 1.376 . S
C1929 C1930 1.388 . S
C1930 H1917 0.930 . S
C1930 C1929 1.388 . S
C1930 C1931 1.390 . S
C1931 C1930 1.390 . S
C1931 C1932 1.394 . S
C1931 C1937 1.465 . S
C1932 C1927 1.399 . S
C1932 C1931 1.394 . S
C1932 C1933 1.516 . S
C1933 C1932 1.516 . S
C1933 C1934 1.502 . S
C1933 C1935 1.561 . S
C1933 C1936 1.526 . S
C1934 H1918 0.959 . S
C1934 H1919 0.959 . S
C1934 H1920 0.961 . S
C1934 C1933 1.502 . S
C1935 H1921 0.960 . S
C1935 H1922 0.961 . S
C1935 H1923 0.959 . S
C1935 C1933 1.561 . S
C1936 C1933 1.526 . S
C1936 C1937 1.396 . S
C1936 C1941 1.390 . S
C1937 C1931 1.465 . S
C1937 C1936 1.396 . S
C1937 C1938 1.399 . S
C1938 H1924 0.929 . S
C1938 C1937 1.399 . S
C1938 C1939 1.385 . S
C1939 H1925 0.931 . S
C1939 C1938 1.385 . S
C1939 C1940 1.389 . S
C1940 C1939 1.389 . S
C1940 C1941 1.387 . S
C1941 H1926 0.930 . S
C1941 C1936 1.390 . S
C1941 C1940 1.387 . S
H1942 C1954 0.930 . S
H1943 C1956 0.930 . S
H1944 C1957 0.930 . S
H1945 C1961 0.959 . S
H1946 C1961 0.959 . S
H1947 C1961 0.961 . S
H1948 C1962 0.960 . S
H1949 C1962 0.961 . S
H1950 C1962 0.959 . S
H1951 C1965 0.929 . S
H1952 C1966 0.931 . S
H1953 C1968 0.930 . S
C1954 H1942 0.930 . S
C1954 C1955 1.399 . S
C1954 C1959 1.399 . S
C1955 C1954 1.399 . S
C1955 C1956 1.376 . S
C1956 H1943 0.930 . S
C1956 C1955 1.376 . S
C1956 C1957 1.388 . S
C1957 H1944 0.930 . S
C1957 C1956 1.388 . S
C1957 C1958 1.390 . S
C1958 C1957 1.390 . S
C1958 C1959 1.394 . S
C1958 C1964 1.465 . S
C1959 C1954 1.399 . S
C1959 C1958 1.394 . S
C1959 C1960 1.516 . S
C1960 C1959 1.516 . S
C1960 C1961 1.502 . S
C1960 C1962 1.561 . S
C1960 C1963 1.526 . S
C1961 H1945 0.959 . S
C1961 H1946 0.959 . S
C1961 H1947 0.961 . S
C1961 C1960 1.502 . S
C1962 H1948 0.960 . S
C1962 H1949 0.961 . S
C1962 H1950 0.959 . S
C1962 C1960 1.561 . S
C1963 C1960 1.526 . S
C1963 C1964 1.396 . S
C1963 C1968 1.390 . S
C1964 C1958 1.465 . S
C1964 C1963 1.396 . S
C1964 C1965 1.399 . S
C1965 H1951 0.929 . S
C1965 C1964 1.399 . S
C1965 C1966 1.385 . S
C1966 H1952 0.931 . S
C1966 C1965 1.385 . S
C1966 C1967 1.389 . S
C1967 C1966 1.389 . S
C1967 C1968 1.387 . S
C1968 H1953 0.930 . S
C1968 C1963 1.390 . S
C1968 C1967 1.387 . S
H1969 C1981 0.930 . S
H1970 C1983 0.930 . S
H1971 C1984 0.930 . S
H1972 C1988 0.959 . S
H1973 C1988 0.959 . S
H1974 C1988 0.961 . S
H1975 C1989 0.960 . S
H1976 C1989 0.961 . S
H1977 C1989 0.959 . S
H1978 C1992 0.929 . S
H1979 C1993 0.931 . S
H1980 C1995 0.930 . S
C1981 H1969 0.930 . S
C1981 C1982 1.399 . S
C1981 C1986 1.399 . S
C1982 C1981 1.399 . S
C1982 C1983 1.376 . S
C1983 H1970 0.930 . S
C1983 C1982 1.376 . S
C1983 C1984 1.388 . S
C1984 H1971 0.930 . S
C1984 C1983 1.388 . S
C1984 C1985 1.390 . S
C1985 C1984 1.390 . S
C1985 C1986 1.394 . S
C1985 C1991 1.465 . S
C1986 C1981 1.399 . S
C1986 C1985 1.394 . S
C1986 C1987 1.516 . S
C1987 C1986 1.516 . S
C1987 C1988 1.502 . S
C1987 C1989 1.561 . S
C1987 C1990 1.526 . S
C1988 H1972 0.959 . S
C1988 H1973 0.959 . S
C1988 H1974 0.961 . S
C1988 C1987 1.502 . S
C1989 H1975 0.960 . S
C1989 H1976 0.961 . S
C1989 H1977 0.959 . S
C1989 C1987 1.561 . S
C1990 C1987 1.526 . S
C1990 C1991 1.396 . S
C1990 C1995 1.390 . S
C1991 C1985 1.465 . S
C1991 C1990 1.396 . S
C1991 C1992 1.399 . S
C1992 H1978 0.929 . S
C1992 C1991 1.399 . S
C1992 C1993 1.385 . S
C1993 H1979 0.931 . S
C1993 C1992 1.385 . S
C1993 C1994 1.389 . S
C1994 C1993 1.389 . S
C1994 C1995 1.387 . S
C1995 H1980 0.930 . S
C1995 C1990 1.390 . S
C1995 C1994 1.387 . S
H1996 C2008 0.930 . S
H1997 C2010 0.930 . S
H1998 C2011 0.930 . S
H1999 C2015 0.959 . S
H2000 C2015 0.959 . S
H2001 C2015 0.961 . S
H2002 C2016 0.960 . S
H2003 C2016 0.961 . S
H2004 C2016 0.959 . S
H2005 C2019 0.929 . S
H2006 C2020 0.931 . S
H2007 C2022 0.930 . S
C2008 H1996 0.930 . S
C2008 C2009 1.399 . S
C2008 C2013 1.399 . S
C2009 C2008 1.399 . S
C2009 C2010 1.376 . S
C2010 H1997 0.930 . S
C2010 C2009 1.376 . S
C2010 C2011 1.388 . S
C2011 H1998 0.930 . S
C2011 C2010 1.388 . S
C2011 C2012 1.390 . S
C2012 C2011 1.390 . S
C2012 C2013 1.394 . S
C2012 C2018 1.465 . S
C2013 C2008 1.399 . S
C2013 C2012 1.394 . S
C2013 C2014 1.516 . S
C2014 C2013 1.516 . S
C2014 C2015 1.502 . S
C2014 C2016 1.561 . S
C2014 C2017 1.526 . S
C2015 H1999 0.959 . S
C2015 H2000 0.959 . S
C2015 H2001 0.961 . S
C2015 C2014 1.502 . S
C2016 H2002 0.960 . S
C2016 H2003 0.961 . S
C2016 H2004 0.959 . S
C2016 C2014 1.561 . S
C2017 C2014 1.526 . S
C2017 C2018 1.396 . S
C2017 C2022 1.390 . S
C2018 C2012 1.465 . S
C2018 C2017 1.396 . S
C2018 C2019 1.399 . S
C2019 H2005 0.929 . S
C2019 C2018 1.399 . S
C2019 C2020 1.385 . S
C2020 H2006 0.931 . S
C2020 C2019 1.385 . S
C2020 C2021 1.389 . S
C2021 C2020 1.389 . S
C2021 C2022 1.387 . S
C2022 H2007 0.930 . S
C2022 C2017 1.390 . S
C2022 C2021 1.387 . S
H2023 C2035 0.930 . S
H2024 C2037 0.930 . S
H2025 C2038 0.930 . S
H2026 C2042 0.959 . S
H2027 C2042 0.959 . S
H2028 C2042 0.961 . S
H2029 C2043 0.960 . S
H2030 C2043 0.961 . S
H2031 C2043 0.959 . S
H2032 C2046 0.929 . S
H2033 C2047 0.931 . S
H2034 C2049 0.930 . S
C2035 H2023 0.930 . S
C2035 C2036 1.399 . S
C2035 C2040 1.399 . S
C2036 C2035 1.399 . S
C2036 C2037 1.376 . S
C2037 H2024 0.930 . S
C2037 C2036 1.376 . S
C2037 C2038 1.388 . S
C2038 H2025 0.930 . S
C2038 C2037 1.388 . S
C2038 C2039 1.390 . S
C2039 C2038 1.390 . S
C2039 C2040 1.394 . S
C2039 C2045 1.465 . S
C2040 C2035 1.399 . S
C2040 C2039 1.394 . S
C2040 C2041 1.516 . S
C2041 C2040 1.516 . S
C2041 C2042 1.502 . S
C2041 C2043 1.561 . S
C2041 C2044 1.526 . S
C2042 H2026 0.959 . S
C2042 H2027 0.959 . S
C2042 H2028 0.961 . S
C2042 C2041 1.502 . S
C2043 H2029 0.960 . S
C2043 H2030 0.961 . S
C2043 H2031 0.959 . S
C2043 C2041 1.561 . S
C2044 C2041 1.526 . S
C2044 C2045 1.396 . S
C2044 C2049 1.390 . S
C2045 C2039 1.465 . S
C2045 C2044 1.396 . S
C2045 C2046 1.399 . S
C2046 H2032 0.929 . S
C2046 C2045 1.399 . S
C2046 C2047 1.385 . S
C2047 H2033 0.931 . S
C2047 C2046 1.385 . S
C2047 C2048 1.389 . S
C2048 C2047 1.389 . S
C2048 C2049 1.387 . S
C2049 H2034 0.930 . S
C2049 C2044 1.390 . S
C2049 C2048 1.387 . S
H2050 C2062 0.930 . S
H2051 C2064 0.930 . S
H2052 C2065 0.930 . S
H2053 C2069 0.959 . S
H2054 C2069 0.959 . S
H2055 C2069 0.961 . S
H2056 C2070 0.960 . S
H2057 C2070 0.961 . S
H2058 C2070 0.959 . S
H2059 C2073 0.929 . S
H2060 C2074 0.931 . S
H2061 C2076 0.930 . S
C2062 H2050 0.930 . S
C2062 C2063 1.399 . S
C2062 C2067 1.399 . S
C2063 C2062 1.399 . S
C2063 C2064 1.376 . S
C2064 H2051 0.930 . S
C2064 C2063 1.376 . S
C2064 C2065 1.388 . S
C2065 H2052 0.930 . S
C2065 C2064 1.388 . S
C2065 C2066 1.390 . S
C2066 C2065 1.390 . S
C2066 C2067 1.394 . S
C2066 C2072 1.465 . S
C2067 C2062 1.399 . S
C2067 C2066 1.394 . S
C2067 C2068 1.516 . S
C2068 C2067 1.516 . S
C2068 C2069 1.502 . S
C2068 C2070 1.561 . S
C2068 C2071 1.526 . S
C2069 H2053 0.959 . S
C2069 H2054 0.959 . S
C2069 H2055 0.961 . S
C2069 C2068 1.502 . S
C2070 H2056 0.960 . S
C2070 H2057 0.961 . S
C2070 H2058 0.959 . S
C2070 C2068 1.561 . S
C2071 C2068 1.526 . S
C2071 C2072 1.396 . S
C2071 C2076 1.390 . S
C2072 C2066 1.465 . S
C2072 C2071 1.396 . S
C2072 C2073 1.399 . S
C2073 H2059 0.929 . S
C2073 C2072 1.399 . S
C2073 C2074 1.385 . S
C2074 H2060 0.931 . S
C2074 C2073 1.385 . S
C2074 C2075 1.389 . S
C2075 C2074 1.389 . S
C2075 C2076 1.387 . S
C2076 H2061 0.930 . S
C2076 C2071 1.390 . S
C2076 C2075 1.387 . S
H2077 C2089 0.930 . S
H2078 C2091 0.930 . S
H2079 C2092 0.930 . S
H2080 C2096 0.959 . S
H2081 C2096 0.959 . S
H2082 C2096 0.961 . S
H2083 C2097 0.960 . S
H2084 C2097 0.961 . S
H2085 C2097 0.959 . S
H2086 C2100 0.929 . S
H2087 C2101 0.931 . S
H2088 C2103 0.930 . S
C2089 H2077 0.930 . S
C2089 C2090 1.399 . S
C2089 C2094 1.399 . S
C2090 C2089 1.399 . S
C2090 C2091 1.376 . S
C2091 H2078 0.930 . S
C2091 C2090 1.376 . S
C2091 C2092 1.388 . S
C2092 H2079 0.930 . S
C2092 C2091 1.388 . S
C2092 C2093 1.390 . S
C2093 C2092 1.390 . S
C2093 C2094 1.394 . S
C2093 C2099 1.465 . S
C2094 C2089 1.399 . S
C2094 C2093 1.394 . S
C2094 C2095 1.516 . S
C2095 C2094 1.516 . S
C2095 C2096 1.502 . S
C2095 C2097 1.561 . S
C2095 C2098 1.526 . S
C2096 H2080 0.959 . S
C2096 H2081 0.959 . S
C2096 H2082 0.961 . S
C2096 C2095 1.502 . S
C2097 H2083 0.960 . S
C2097 H2084 0.961 . S
C2097 H2085 0.959 . S
C2097 C2095 1.561 . S
C2098 C2095 1.526 . S
C2098 C2099 1.396 . S
C2098 C2103 1.390 . S
C2099 C2093 1.465 . S
C2099 C2098 1.396 . S
C2099 C2100 1.399 . S
C2100 H2086 0.929 . S
C2100 C2099 1.399 . S
C2100 C2101 1.385 . S
C2101 H2087 0.931 . S
C2101 C2100 1.385 . S
C2101 C2102 1.389 . S
C2102 C2101 1.389 . S
C2102 C2103 1.387 . S
C2103 H2088 0.930 . S
C2103 C2098 1.390 . S
C2103 C2102 1.387 . S
H2104 C2116 0.930 . S
H2105 C2118 0.930 . S
H2106 C2119 0.930 . S
H2107 C2123 0.959 . S
H2108 C2123 0.959 . S
H2109 C2123 0.961 . S
H2110 C2124 0.960 . S
H2111 C2124 0.961 . S
H2112 C2124 0.959 . S
H2113 C2127 0.929 . S
H2114 C2128 0.931 . S
H2115 C2130 0.930 . S
C2116 H2104 0.930 . S
C2116 C2117 1.399 . S
C2116 C2121 1.399 . S
C2117 C2116 1.399 . S
C2117 C2118 1.376 . S
C2118 H2105 0.930 . S
C2118 C2117 1.376 . S
C2118 C2119 1.388 . S
C2119 H2106 0.930 . S
C2119 C2118 1.388 . S
C2119 C2120 1.390 . S
C2120 C2119 1.390 . S
C2120 C2121 1.394 . S
C2120 C2126 1.465 . S
C2121 C2116 1.399 . S
C2121 C2120 1.394 . S
C2121 C2122 1.516 . S
C2122 C2121 1.516 . S
C2122 C2123 1.502 . S
C2122 C2124 1.561 . S
C2122 C2125 1.526 . S
C2123 H2107 0.959 . S
C2123 H2108 0.959 . S
C2123 H2109 0.961 . S
C2123 C2122 1.502 . S
C2124 H2110 0.960 . S
C2124 H2111 0.961 . S
C2124 H2112 0.959 . S
C2124 C2122 1.561 . S
C2125 C2122 1.526 . S
C2125 C2126 1.396 . S
C2125 C2130 1.390 . S
C2126 C2120 1.465 . S
C2126 C2125 1.396 . S
C2126 C2127 1.399 . S
C2127 H2113 0.929 . S
C2127 C2126 1.399 . S
C2127 C2128 1.385 . S
C2128 H2114 0.931 . S
C2128 C2127 1.385 . S
C2128 C2129 1.389 . S
C2129 C2128 1.389 . S
C2129 C2130 1.387 . S
C2130 H2115 0.930 . S
C2130 C2125 1.390 . S
C2130 C2129 1.387 . S
H2131 C2143 0.930 . S
H2132 C2145 0.930 . S
H2133 C2146 0.930 . S
H2134 C2150 0.959 . S
H2135 C2150 0.959 . S
H2136 C2150 0.961 . S
H2137 C2151 0.960 . S
H2138 C2151 0.961 . S
H2139 C2151 0.959 . S
H2140 C2154 0.929 . S
H2141 C2155 0.931 . S
H2142 C2157 0.930 . S
C2143 H2131 0.930 . S
C2143 C2144 1.399 . S
C2143 C2148 1.399 . S
C2144 C2143 1.399 . S
C2144 C2145 1.376 . S
C2145 H2132 0.930 . S
C2145 C2144 1.376 . S
C2145 C2146 1.388 . S
C2146 H2133 0.930 . S
C2146 C2145 1.388 . S
C2146 C2147 1.390 . S
C2147 C2146 1.390 . S
C2147 C2148 1.394 . S
C2147 C2153 1.465 . S
C2148 C2143 1.399 . S
C2148 C2147 1.394 . S
C2148 C2149 1.516 . S
C2149 C2148 1.516 . S
C2149 C2150 1.502 . S
C2149 C2151 1.561 . S
C2149 C2152 1.526 . S
C2150 H2134 0.959 . S
C2150 H2135 0.959 . S
C2150 H2136 0.961 . S
C2150 C2149 1.502 . S
C2151 H2137 0.960 . S
C2151 H2138 0.961 . S
C2151 H2139 0.959 . S
C2151 C2149 1.561 . S
C2152 C2149 1.526 . S
C2152 C2153 1.396 . S
C2152 C2157 1.390 . S
C2153 C2147 1.465 . S
C2153 C2152 1.396 . S
C2153 C2154 1.399 . S
C2154 H2140 0.929 . S
C2154 C2153 1.399 . S
C2154 C2155 1.385 . S
C2155 H2141 0.931 . S
C2155 C2154 1.385 . S
C2155 C2156 1.389 . S
C2156 C2155 1.389 . S
C2156 C2157 1.387 . S
C2157 H2142 0.930 . S
C2157 C2152 1.390 . S
C2157 C2156 1.387 . S
H2158 C2170 0.930 . S
H2159 C2172 0.930 . S
H2160 C2173 0.930 . S
H2161 C2177 0.959 . S
H2162 C2177 0.959 . S
H2163 C2177 0.961 . S
H2164 C2178 0.960 . S
H2165 C2178 0.961 . S
H2166 C2178 0.959 . S
H2167 C2181 0.929 . S
H2168 C2182 0.931 . S
H2169 C2184 0.930 . S
C2170 H2158 0.930 . S
C2170 C2171 1.399 . S
C2170 C2175 1.399 . S
C2171 C2170 1.399 . S
C2171 C2172 1.376 . S
C2172 H2159 0.930 . S
C2172 C2171 1.376 . S
C2172 C2173 1.388 . S
C2173 H2160 0.930 . S
C2173 C2172 1.388 . S
C2173 C2174 1.390 . S
C2174 C2173 1.390 . S
C2174 C2175 1.394 . S
C2174 C2180 1.465 . S
C2175 C2170 1.399 . S
C2175 C2174 1.394 . S
C2175 C2176 1.516 . S
C2176 C2175 1.516 . S
C2176 C2177 1.502 . S
C2176 C2178 1.561 . S
C2176 C2179 1.526 . S
C2177 H2161 0.959 . S
C2177 H2162 0.959 . S
C2177 H2163 0.961 . S
C2177 C2176 1.502 . S
C2178 H2164 0.960 . S
C2178 H2165 0.961 . S
C2178 H2166 0.959 . S
C2178 C2176 1.561 . S
C2179 C2176 1.526 . S
C2179 C2180 1.396 . S
C2179 C2184 1.390 . S
C2180 C2174 1.465 . S
C2180 C2179 1.396 . S
C2180 C2181 1.399 . S
C2181 H2167 0.929 . S
C2181 C2180 1.399 . S
C2181 C2182 1.385 . S
C2182 H2168 0.931 . S
C2182 C2181 1.385 . S
C2182 C2183 1.389 . S
C2183 C2182 1.389 . S
C2183 C2184 1.387 . S
C2184 H2169 0.930 . S
C2184 C2179 1.390 . S
C2184 C2183 1.387 . S
H2185 C2197 0.930 . S
H2186 C2199 0.930 . S
H2187 C2200 0.930 . S
H2188 C2204 0.959 . S
H2189 C2204 0.959 . S
H2190 C2204 0.961 . S
H2191 C2205 0.960 . S
H2192 C2205 0.961 . S
H2193 C2205 0.959 . S
H2194 C2208 0.929 . S
H2195 C2209 0.931 . S
H2196 C2211 0.930 . S
C2197 H2185 0.930 . S
C2197 C2198 1.399 . S
C2197 C2202 1.399 . S
C2198 C2197 1.399 . S
C2198 C2199 1.376 . S
C2199 H2186 0.930 . S
C2199 C2198 1.376 . S
C2199 C2200 1.388 . S
C2200 H2187 0.930 . S
C2200 C2199 1.388 . S
C2200 C2201 1.390 . S
C2201 C2200 1.390 . S
C2201 C2202 1.394 . S
C2201 C2207 1.465 . S
C2202 C2197 1.399 . S
C2202 C2201 1.394 . S
C2202 C2203 1.516 . S
C2203 C2202 1.516 . S
C2203 C2204 1.502 . S
C2203 C2205 1.561 . S
C2203 C2206 1.526 . S
C2204 H2188 0.959 . S
C2204 H2189 0.959 . S
C2204 H2190 0.961 . S
C2204 C2203 1.502 . S
C2205 H2191 0.960 . S
C2205 H2192 0.961 . S
C2205 H2193 0.959 . S
C2205 C2203 1.561 . S
C2206 C2203 1.526 . S
C2206 C2207 1.396 . S
C2206 C2211 1.390 . S
C2207 C2201 1.465 . S
C2207 C2206 1.396 . S
C2207 C2208 1.399 . S
C2208 H2194 0.929 . S
C2208 C2207 1.399 . S
C2208 C2209 1.385 . S
C2209 H2195 0.931 . S
C2209 C2208 1.385 . S
C2209 C2210 1.389 . S
C2210 C2209 1.389 . S
C2210 C2211 1.387 . S
C2211 H2196 0.930 . S
C2211 C2206 1.390 . S
C2211 C2210 1.387 . S
H2212 C2224 0.930 . S
H2213 C2226 0.930 . S
H2214 C2227 0.930 . S
H2215 C2231 0.959 . S
H2216 C2231 0.959 . S
H2217 C2231 0.961 . S
H2218 C2232 0.960 . S
H2219 C2232 0.961 . S
H2220 C2232 0.959 . S
H2221 C2235 0.929 . S
H2222 C2236 0.931 . S
H2223 C2238 0.930 . S
C2224 H2212 0.930 . S
C2224 C2225 1.399 . S
C2224 C2229 1.399 . S
C2225 C2224 1.399 . S
C2225 C2226 1.376 . S
C2226 H2213 0.930 . S
C2226 C2225 1.376 . S
C2226 C2227 1.388 . S
C2227 H2214 0.930 . S
C2227 C2226 1.388 . S
C2227 C2228 1.390 . S
C2228 C2227 1.390 . S
C2228 C2229 1.394 . S
C2228 C2234 1.465 . S
C2229 C2224 1.399 . S
C2229 C2228 1.394 . S
C2229 C2230 1.516 . S
C2230 C2229 1.516 . S
C2230 C2231 1.502 . S
C2230 C2232 1.561 . S
C2230 C2233 1.526 . S
C2231 H2215 0.959 . S
C2231 H2216 0.959 . S
C2231 H2217 0.961 . S
C2231 C2230 1.502 . S
C2232 H2218 0.960 . S
C2232 H2219 0.961 . S
C2232 H2220 0.959 . S
C2232 C2230 1.561 . S
C2233 C2230 1.526 . S
C2233 C2234 1.396 . S
C2233 C2238 1.390 . S
C2234 C2228 1.465 . S
C2234 C2233 1.396 . S
C2234 C2235 1.399 . S
C2235 H2221 0.929 . S
C2235 C2234 1.399 . S
C2235 C2236 1.385 . S
C2236 H2222 0.931 . S
C2236 C2235 1.385 . S
C2236 C2237 1.389 . S
C2237 C2236 1.389 . S
C2237 C2238 1.387 . S
C2238 H2223 0.930 . S
C2238 C2233 1.390 . S
C2238 C2237 1.387 . S
H2239 C2251 0.930 . S
H2240 C2253 0.930 . S
H2241 C2254 0.930 . S
H2242 C2258 0.959 . S
H2243 C2258 0.959 . S
H2244 C2258 0.961 . S
H2245 C2259 0.960 . S
H2246 C2259 0.961 . S
H2247 C2259 0.959 . S
H2248 C2262 0.929 . S
H2249 C2263 0.931 . S
H2250 C2265 0.930 . S
C2251 H2239 0.930 . S
C2251 C2252 1.399 . S
C2251 C2256 1.399 . S
C2252 C2251 1.399 . S
C2252 C2253 1.376 . S
C2253 H2240 0.930 . S
C2253 C2252 1.376 . S
C2253 C2254 1.388 . S
C2254 H2241 0.930 . S
C2254 C2253 1.388 . S
C2254 C2255 1.390 . S
C2255 C2254 1.390 . S
C2255 C2256 1.394 . S
C2255 C2261 1.465 . S
C2256 C2251 1.399 . S
C2256 C2255 1.394 . S
C2256 C2257 1.516 . S
C2257 C2256 1.516 . S
C2257 C2258 1.502 . S
C2257 C2259 1.561 . S
C2257 C2260 1.526 . S
C2258 H2242 0.959 . S
C2258 H2243 0.959 . S
C2258 H2244 0.961 . S
C2258 C2257 1.502 . S
C2259 H2245 0.960 . S
C2259 H2246 0.961 . S
C2259 H2247 0.959 . S
C2259 C2257 1.561 . S
C2260 C2257 1.526 . S
C2260 C2261 1.396 . S
C2260 C2265 1.390 . S
C2261 C2255 1.465 . S
C2261 C2260 1.396 . S
C2261 C2262 1.399 . S
C2262 H2248 0.929 . S
C2262 C2261 1.399 . S
C2262 C2263 1.385 . S
C2263 H2249 0.931 . S
C2263 C2262 1.385 . S
C2263 C2264 1.389 . S
C2264 C2263 1.389 . S
C2264 C2265 1.387 . S
C2265 H2250 0.930 . S
C2265 C2260 1.390 . S
C2265 C2264 1.387 . S
H2266 C2278 0.930 . S
H2267 C2280 0.930 . S
H2268 C2281 0.930 . S
H2269 C2285 0.959 . S
H2270 C2285 0.959 . S
H2271 C2285 0.961 . S
H2272 C2286 0.960 . S
H2273 C2286 0.961 . S
H2274 C2286 0.959 . S
H2275 C2289 0.929 . S
H2276 C2290 0.931 . S
H2277 C2292 0.930 . S
C2278 H2266 0.930 . S
C2278 C2279 1.399 . S
C2278 C2283 1.399 . S
C2279 C2278 1.399 . S
C2279 C2280 1.376 . S
C2280 H2267 0.930 . S
C2280 C2279 1.376 . S
C2280 C2281 1.388 . S
C2281 H2268 0.930 . S
C2281 C2280 1.388 . S
C2281 C2282 1.390 . S
C2282 C2281 1.390 . S
C2282 C2283 1.394 . S
C2282 C2288 1.465 . S
C2283 C2278 1.399 . S
C2283 C2282 1.394 . S
C2283 C2284 1.516 . S
C2284 C2283 1.516 . S
C2284 C2285 1.502 . S
C2284 C2286 1.561 . S
C2284 C2287 1.526 . S
C2285 H2269 0.959 . S
C2285 H2270 0.959 . S
C2285 H2271 0.961 . S
C2285 C2284 1.502 . S
C2286 H2272 0.960 . S
C2286 H2273 0.961 . S
C2286 H2274 0.959 . S
C2286 C2284 1.561 . S
C2287 C2284 1.526 . S
C2287 C2288 1.396 . S
C2287 C2292 1.390 . S
C2288 C2282 1.465 . S
C2288 C2287 1.396 . S
C2288 C2289 1.399 . S
C2289 H2275 0.929 . S
C2289 C2288 1.399 . S
C2289 C2290 1.385 . S
C2290 H2276 0.931 . S
C2290 C2289 1.385 . S
C2290 C2291 1.389 . S
C2291 C2290 1.389 . S
C2291 C2292 1.387 . S
C2292 H2277 0.930 . S
C2292 C2287 1.390 . S
C2292 C2291 1.387 . S
H2293 C2305 0.930 . S
H2294 C2307 0.930 . S
H2295 C2308 0.930 . S
H2296 C2312 0.959 . S
H2297 C2312 0.959 . S
H2298 C2312 0.961 . S
H2299 C2313 0.960 . S
H2300 C2313 0.961 . S
H2301 C2313 0.959 . S
H2302 C2316 0.929 . S
H2303 C2317 0.931 . S
H2304 C2319 0.930 . S
C2305 H2293 0.930 . S
C2305 C2306 1.399 . S
C2305 C2310 1.399 . S
C2306 C2305 1.399 . S
C2306 C2307 1.376 . S
C2307 H2294 0.930 . S
C2307 C2306 1.376 . S
C2307 C2308 1.388 . S
C2308 H2295 0.930 . S
C2308 C2307 1.388 . S
C2308 C2309 1.390 . S
C2309 C2308 1.390 . S
C2309 C2310 1.394 . S
C2309 C2315 1.465 . S
C2310 C2305 1.399 . S
C2310 C2309 1.394 . S
C2310 C2311 1.516 . S
C2311 C2310 1.516 . S
C2311 C2312 1.502 . S
C2311 C2313 1.561 . S
C2311 C2314 1.526 . S
C2312 H2296 0.959 . S
C2312 H2297 0.959 . S
C2312 H2298 0.961 . S
C2312 C2311 1.502 . S
C2313 H2299 0.960 . S
C2313 H2300 0.961 . S
C2313 H2301 0.959 . S
C2313 C2311 1.561 . S
C2314 C2311 1.526 . S
C2314 C2315 1.396 . S
C2314 C2319 1.390 . S
C2315 C2309 1.465 . S
C2315 C2314 1.396 . S
C2315 C2316 1.399 . S
C2316 H2302 0.929 . S
C2316 C2315 1.399 . S
C2316 C2317 1.385 . S
C2317 H2303 0.931 . S
C2317 C2316 1.385 . S
C2317 C2318 1.389 . S
C2318 C2317 1.389 . S
C2318 C2319 1.387 . S
C2319 H2304 0.930 . S
C2319 C2314 1.390 . S
C2319 C2318 1.387 . S
H2320 C2332 0.930 . S
H2321 C2334 0.930 . S
H2322 C2335 0.930 . S
H2323 C2339 0.962 . S
H2324 C2339 0.978 . S
H2325 C2339 0.940 1_655 S
H2326 C2340 0.958 1_655 S
H2327 C2340 0.962 . S
H2328 C2340 0.959 . S
H2329 C2343 0.929 . S
H2330 C2344 0.931 . S
H2331 C2346 0.930 . S
C2332 H2320 0.930 . S
C2332 C2333 1.399 . S
C2332 C2337 1.399 . S
C2333 C2332 1.399 . S
C2333 C2334 1.376 . S
C2334 H2321 0.930 . S
C2334 C2333 1.376 . S
C2334 C2335 1.388 . S
C2335 H2322 0.930 . S
C2335 C2334 1.388 . S
C2335 C2336 1.390 . S
C2336 C2335 1.390 . S
C2336 C2337 1.394 . S
C2336 C2342 1.465 1_655 S
C2337 C2332 1.399 . S
C2337 C2336 1.394 . S
C2337 C2338 1.518 1_655 S
C2338 C2337 1.518 1_455 S
C2338 C2339 1.502 . S
C2338 C2340 1.561 . S
C2338 C2341 1.524 . S
C2339 H2323 0.962 . S
C2339 H2324 0.978 . S
C2339 H2325 0.940 1_455 S
C2339 C2338 1.502 . S
C2340 H2326 0.958 1_455 S
C2340 H2327 0.962 . S
C2340 H2328 0.959 . S
C2340 C2338 1.561 . S
C2341 C2338 1.524 . S
C2341 C2342 1.396 . S
C2341 C2346 1.390 . S
C2342 C2336 1.465 1_455 S
C2342 C2341 1.396 . S
C2342 C2343 1.399 . S
C2343 H2329 0.929 . S
C2343 C2342 1.399 . S
C2343 C2344 1.385 . S
C2344 H2330 0.931 . S
C2344 C2343 1.385 . S
C2344 C2345 1.389 . S
C2345 C2344 1.389 . S
C2345 C2346 1.387 . S
C2346 H2331 0.930 . S
C2346 C2341 1.390 . S
C2346 C2345 1.387 . S
H2347 C2359 0.930 . S
H2348 C2361 0.930 . S
H2349 C2362 0.930 . S
H2350 C2366 0.962 . S
H2351 C2366 0.978 . S
H2352 C2366 0.940 1_545 S
H2353 C2367 0.958 1_545 S
H2354 C2367 0.962 . S
H2355 C2367 0.959 . S
H2356 C2370 0.929 . S
H2357 C2371 0.931 . S
H2358 C2373 0.930 . S
C2359 H2347 0.930 . S
C2359 C2360 1.399 . S
C2359 C2364 1.399 . S
C2360 C2359 1.399 . S
C2360 C2361 1.376 . S
C2361 H2348 0.930 . S
C2361 C2360 1.376 . S
C2361 C2362 1.388 . S
C2362 H2349 0.930 . S
C2362 C2361 1.388 . S
C2362 C2363 1.390 . S
C2363 C2362 1.390 . S
C2363 C2364 1.394 . S
C2363 C2369 1.465 1_545 S
C2364 C2359 1.399 . S
C2364 C2363 1.394 . S
C2364 C2365 1.518 1_545 S
C2365 C2364 1.518 1_565 S
C2365 C2366 1.502 . S
C2365 C2367 1.561 . S
C2365 C2368 1.524 . S
C2366 H2350 0.962 . S
C2366 H2351 0.978 . S
C2366 H2352 0.940 1_565 S
C2366 C2365 1.502 . S
C2367 H2353 0.958 1_565 S
C2367 H2354 0.962 . S
C2367 H2355 0.959 . S
C2367 C2365 1.561 . S
C2368 C2365 1.524 . S
C2368 C2369 1.396 . S
C2368 C2373 1.390 . S
C2369 C2363 1.465 1_565 S
C2369 C2368 1.396 . S
C2369 C2370 1.399 . S
C2370 H2356 0.929 . S
C2370 C2369 1.399 . S
C2370 C2371 1.385 . S
C2371 H2357 0.931 . S
C2371 C2370 1.385 . S
C2371 C2372 1.389 . S
C2372 C2371 1.389 . S
C2372 C2373 1.387 . S
C2373 H2358 0.930 . S
C2373 C2368 1.390 . S
C2373 C2372 1.387 . S
H2374 C2386 0.930 . S
H2375 C2388 0.930 . S
H2376 C2389 0.930 . S
H2377 C2393 0.962 . S
H2378 C2393 0.978 . S
H2379 C2393 0.940 1_455 S
H2380 C2394 0.958 1_455 S
H2381 C2394 0.962 . S
H2382 C2394 0.959 . S
H2383 C2397 0.929 . S
H2384 C2398 0.931 . S
H2385 C2400 0.930 . S
C2386 H2374 0.930 . S
C2386 C2387 1.399 . S
C2386 C2391 1.399 . S
C2387 C2386 1.399 . S
C2387 C2388 1.376 . S
C2388 H2375 0.930 . S
C2388 C2387 1.376 . S
C2388 C2389 1.388 . S
C2389 H2376 0.930 . S
C2389 C2388 1.388 . S
C2389 C2390 1.390 . S
C2390 C2389 1.390 . S
C2390 C2391 1.394 . S
C2390 C2396 1.465 1_455 S
C2391 C2386 1.399 . S
C2391 C2390 1.394 . S
C2391 C2392 1.518 1_455 S
C2392 C2391 1.518 1_655 S
C2392 C2393 1.502 . S
C2392 C2394 1.561 . S
C2392 C2395 1.524 . S
C2393 H2377 0.962 . S
C2393 H2378 0.978 . S
C2393 H2379 0.940 1_655 S
C2393 C2392 1.502 . S
C2394 H2380 0.958 1_655 S
C2394 H2381 0.962 . S
C2394 H2382 0.959 . S
C2394 C2392 1.561 . S
C2395 C2392 1.524 . S
C2395 C2396 1.396 . S
C2395 C2400 1.390 . S
C2396 C2390 1.465 1_655 S
C2396 C2395 1.396 . S
C2396 C2397 1.399 . S
C2397 H2383 0.929 . S
C2397 C2396 1.399 . S
C2397 C2398 1.385 . S
C2398 H2384 0.931 . S
C2398 C2397 1.385 . S
C2398 C2399 1.389 . S
C2399 C2398 1.389 . S
C2399 C2400 1.387 . S
C2400 H2385 0.930 . S
C2400 C2395 1.390 . S
C2400 C2399 1.387 . S
H2401 C2413 0.930 . S
H2402 C2415 0.930 . S
H2403 C2416 0.930 . S
H2404 C2420 0.962 . S
H2405 C2420 0.978 . S
H2406 C2420 0.940 1_565 S
H2407 C2421 0.958 1_565 S
H2408 C2421 0.962 . S
H2409 C2421 0.959 . S
H2410 C2424 0.929 . S
H2411 C2425 0.931 . S
H2412 C2427 0.930 . S
C2413 H2401 0.930 . S
C2413 C2414 1.399 . S
C2413 C2418 1.399 . S
C2414 C2413 1.399 . S
C2414 C2415 1.376 . S
C2415 H2402 0.930 . S
C2415 C2414 1.376 . S
C2415 C2416 1.388 . S
C2416 H2403 0.930 . S
C2416 C2415 1.388 . S
C2416 C2417 1.390 . S
C2417 C2416 1.390 . S
C2417 C2418 1.394 . S
C2417 C2423 1.465 1_565 S
C2418 C2413 1.399 . S
C2418 C2417 1.394 . S
C2418 C2419 1.518 1_565 S
C2419 C2418 1.518 1_545 S
C2419 C2420 1.502 . S
C2419 C2421 1.561 . S
C2419 C2422 1.524 . S
C2420 H2404 0.962 . S
C2420 H2405 0.978 . S
C2420 H2406 0.940 1_545 S
C2420 C2419 1.502 . S
C2421 H2407 0.958 1_545 S
C2421 H2408 0.962 . S
C2421 H2409 0.959 . S
C2421 C2419 1.561 . S
C2422 C2419 1.524 . S
C2422 C2423 1.396 . S
C2422 C2427 1.390 . S
C2423 C2417 1.465 1_545 S
C2423 C2422 1.396 . S
C2423 C2424 1.399 . S
C2424 H2410 0.929 . S
C2424 C2423 1.399 . S
C2424 C2425 1.385 . S
C2425 H2411 0.931 . S
C2425 C2424 1.385 . S
C2425 C2426 1.389 . S
C2426 C2425 1.389 . S
C2426 C2427 1.387 . S
C2427 H2412 0.930 . S
C2427 C2422 1.390 . S
C2427 C2426 1.387 . S
H2428 C2440 0.930 . S
H2429 C2442 0.930 . S
H2430 C2443 0.930 . S
H2431 C2447 0.962 . S
H2432 C2447 0.978 . S
H2433 C2447 0.940 1_455 S
H2434 C2448 0.958 1_455 S
H2435 C2448 0.962 . S
H2436 C2448 0.959 . S
H2437 C2451 0.929 . S
H2438 C2452 0.931 . S
H2439 C2454 0.930 . S
C2440 H2428 0.930 . S
C2440 C2441 1.399 . S
C2440 C2445 1.399 . S
C2441 C2440 1.399 . S
C2441 C2442 1.376 . S
C2442 H2429 0.930 . S
C2442 C2441 1.376 . S
C2442 C2443 1.388 . S
C2443 H2430 0.930 . S
C2443 C2442 1.388 . S
C2443 C2444 1.390 . S
C2444 C2443 1.390 . S
C2444 C2445 1.394 . S
C2444 C2450 1.465 1_455 S
C2445 C2440 1.399 . S
C2445 C2444 1.394 . S
C2445 C2446 1.518 1_455 S
C2446 C2445 1.518 1_655 S
C2446 C2447 1.502 . S
C2446 C2448 1.561 . S
C2446 C2449 1.524 . S
C2447 H2431 0.962 . S
C2447 H2432 0.978 . S
C2447 H2433 0.940 1_655 S
C2447 C2446 1.502 . S
C2448 H2434 0.958 1_655 S
C2448 H2435 0.962 . S
C2448 H2436 0.959 . S
C2448 C2446 1.561 . S
C2449 C2446 1.524 . S
C2449 C2450 1.396 . S
C2449 C2454 1.390 . S
C2450 C2444 1.465 1_655 S
C2450 C2449 1.396 . S
C2450 C2451 1.399 . S
C2451 H2437 0.929 . S
C2451 C2450 1.399 . S
C2451 C2452 1.385 . S
C2452 H2438 0.931 . S
C2452 C2451 1.385 . S
C2452 C2453 1.389 . S
C2453 C2452 1.389 . S
C2453 C2454 1.387 . S
C2454 H2439 0.930 . S
C2454 C2449 1.390 . S
C2454 C2453 1.387 . S
H2455 C2467 0.930 . S
H2456 C2469 0.930 . S
H2457 C2470 0.930 . S
H2458 C2474 0.962 . S
H2459 C2474 0.978 . S
H2460 C2474 0.940 1_565 S
H2461 C2475 0.958 1_565 S
H2462 C2475 0.962 . S
H2463 C2475 0.959 . S
H2464 C2478 0.929 . S
H2465 C2479 0.931 . S
H2466 C2481 0.930 . S
C2467 H2455 0.930 . S
C2467 C2468 1.399 . S
C2467 C2472 1.399 . S
C2468 C2467 1.399 . S
C2468 C2469 1.376 . S
C2469 H2456 0.930 . S
C2469 C2468 1.376 . S
C2469 C2470 1.388 . S
C2470 H2457 0.930 . S
C2470 C2469 1.388 . S
C2470 C2471 1.390 . S
C2471 C2470 1.390 . S
C2471 C2472 1.394 . S
C2471 C2477 1.465 1_565 S
C2472 C2467 1.399 . S
C2472 C2471 1.394 . S
C2472 C2473 1.518 1_565 S
C2473 C2472 1.518 1_545 S
C2473 C2474 1.502 . S
C2473 C2475 1.561 . S
C2473 C2476 1.524 . S
C2474 H2458 0.962 . S
C2474 H2459 0.978 . S
C2474 H2460 0.940 1_545 S
C2474 C2473 1.502 . S
C2475 H2461 0.958 1_545 S
C2475 H2462 0.962 . S
C2475 H2463 0.959 . S
C2475 C2473 1.561 . S
C2476 C2473 1.524 . S
C2476 C2477 1.396 . S
C2476 C2481 1.390 . S
C2477 C2471 1.465 1_545 S
C2477 C2476 1.396 . S
C2477 C2478 1.399 . S
C2478 H2464 0.929 . S
C2478 C2477 1.399 . S
C2478 C2479 1.385 . S
C2479 H2465 0.931 . S
C2479 C2478 1.385 . S
C2479 C2480 1.389 . S
C2480 C2479 1.389 . S
C2480 C2481 1.387 . S
C2481 H2466 0.930 . S
C2481 C2476 1.390 . S
C2481 C2480 1.387 . S
H2482 C2494 0.930 . S
H2483 C2496 0.930 . S
H2484 C2497 0.930 . S
H2485 C2501 0.962 . S
H2486 C2501 0.978 . S
H2487 C2501 0.940 1_455 S
H2488 C2502 0.958 1_455 S
H2489 C2502 0.962 . S
H2490 C2502 0.959 . S
H2491 C2505 0.929 . S
H2492 C2506 0.931 . S
H2493 C2508 0.930 . S
C2494 H2482 0.930 . S
C2494 C2495 1.399 . S
C2494 C2499 1.399 . S
C2495 C2494 1.399 . S
C2495 C2496 1.376 . S
C2496 H2483 0.930 . S
C2496 C2495 1.376 . S
C2496 C2497 1.388 . S
C2497 H2484 0.930 . S
C2497 C2496 1.388 . S
C2497 C2498 1.390 . S
C2498 C2497 1.390 . S
C2498 C2499 1.394 . S
C2498 C2504 1.465 1_455 S
C2499 C2494 1.399 . S
C2499 C2498 1.394 . S
C2499 C2500 1.518 1_455 S
C2500 C2499 1.518 1_655 S
C2500 C2501 1.502 . S
C2500 C2502 1.561 . S
C2500 C2503 1.524 . S
C2501 H2485 0.962 . S
C2501 H2486 0.978 . S
C2501 H2487 0.940 1_655 S
C2501 C2500 1.502 . S
C2502 H2488 0.958 1_655 S
C2502 H2489 0.962 . S
C2502 H2490 0.959 . S
C2502 C2500 1.561 . S
C2503 C2500 1.524 . S
C2503 C2504 1.396 . S
C2503 C2508 1.390 . S
C2504 C2498 1.465 1_655 S
C2504 C2503 1.396 . S
C2504 C2505 1.399 . S
C2505 H2491 0.929 . S
C2505 C2504 1.399 . S
C2505 C2506 1.385 . S
C2506 H2492 0.931 . S
C2506 C2505 1.385 . S
C2506 C2507 1.389 . S
C2507 C2506 1.389 . S
C2507 C2508 1.387 . S
C2508 H2493 0.930 . S
C2508 C2503 1.390 . S
C2508 C2507 1.387 . S
H2509 C2521 0.930 . S
H2510 C2523 0.930 . S
H2511 C2524 0.930 . S
H2512 C2528 0.962 . S
H2513 C2528 0.978 . S
H2514 C2528 0.940 1_545 S
H2515 C2529 0.958 1_545 S
H2516 C2529 0.962 . S
H2517 C2529 0.959 . S
H2518 C2532 0.929 . S
H2519 C2533 0.931 . S
H2520 C2535 0.930 . S
C2521 H2509 0.930 . S
C2521 C2522 1.399 . S
C2521 C2526 1.399 . S
C2522 C2521 1.399 . S
C2522 C2523 1.376 . S
C2523 H2510 0.930 . S
C2523 C2522 1.376 . S
C2523 C2524 1.388 . S
C2524 H2511 0.930 . S
C2524 C2523 1.388 . S
C2524 C2525 1.390 . S
C2525 C2524 1.390 . S
C2525 C2526 1.394 . S
C2525 C2531 1.465 1_545 S
C2526 C2521 1.399 . S
C2526 C2525 1.394 . S
C2526 C2527 1.518 1_545 S
C2527 C2526 1.518 1_565 S
C2527 C2528 1.502 . S
C2527 C2529 1.561 . S
C2527 C2530 1.524 . S
C2528 H2512 0.962 . S
C2528 H2513 0.978 . S
C2528 H2514 0.940 1_565 S
C2528 C2527 1.502 . S
C2529 H2515 0.958 1_565 S
C2529 H2516 0.962 . S
C2529 H2517 0.959 . S
C2529 C2527 1.561 . S
C2530 C2527 1.524 . S
C2530 C2531 1.396 . S
C2530 C2535 1.390 . S
C2531 C2525 1.465 1_565 S
C2531 C2530 1.396 . S
C2531 C2532 1.399 . S
C2532 H2518 0.929 . S
C2532 C2531 1.399 . S
C2532 C2533 1.385 . S
C2533 H2519 0.931 . S
C2533 C2532 1.385 . S
C2533 C2534 1.389 . S
C2534 C2533 1.389 . S
C2534 C2535 1.387 . S
C2535 H2520 0.930 . S
C2535 C2530 1.390 . S
C2535 C2534 1.387 . S
H2536 C2548 0.930 . S
H2537 C2550 0.930 . S
H2538 C2551 0.930 . S
H2539 C2555 0.959 . S
H2540 C2555 0.959 . S
H2541 C2555 0.961 . S
H2542 C2556 0.960 . S
H2543 C2556 0.961 . S
H2544 C2556 0.959 . S
H2545 C2559 0.929 . S
H2546 C2560 0.931 . S
H2547 C2562 0.930 . S
C2548 H2536 0.930 . S
C2548 C2549 1.399 . S
C2548 C2553 1.399 . S
C2549 C2548 1.399 . S
C2549 C2550 1.376 . S
C2550 H2537 0.930 . S
C2550 C2549 1.376 . S
C2550 C2551 1.388 . S
C2551 H2538 0.930 . S
C2551 C2550 1.388 . S
C2551 C2552 1.390 . S
C2552 C2551 1.390 . S
C2552 C2553 1.394 . S
C2552 C2558 1.465 . S
C2553 C2548 1.399 . S
C2553 C2552 1.394 . S
C2553 C2554 1.516 . S
C2554 C2553 1.516 . S
C2554 C2555 1.502 . S
C2554 C2556 1.561 . S
C2554 C2557 1.526 . S
C2555 H2539 0.959 . S
C2555 H2540 0.959 . S
C2555 H2541 0.961 . S
C2555 C2554 1.502 . S
C2556 H2542 0.960 . S
C2556 H2543 0.961 . S
C2556 H2544 0.959 . S
C2556 C2554 1.561 . S
C2557 C2554 1.526 . S
C2557 C2558 1.396 . S
C2557 C2562 1.390 . S
C2558 C2552 1.465 . S
C2558 C2557 1.396 . S
C2558 C2559 1.399 . S
C2559 H2545 0.929 . S
C2559 C2558 1.399 . S
C2559 C2560 1.385 . S
C2560 H2546 0.931 . S
C2560 C2559 1.385 . S
C2560 C2561 1.389 . S
C2561 C2560 1.389 . S
C2561 C2562 1.387 . S
C2562 H2547 0.930 . S
C2562 C2557 1.390 . S
C2562 C2561 1.387 . S
H2563 C2575 0.930 . S
H2564 C2577 0.930 . S
H2565 C2578 0.930 . S
H2566 C2582 0.959 . S
H2567 C2582 0.959 . S
H2568 C2582 0.961 . S
H2569 C2583 0.960 . S
H2570 C2583 0.961 . S
H2571 C2583 0.959 . S
H2572 C2586 0.929 . S
H2573 C2587 0.931 . S
H2574 C2589 0.930 . S
C2575 H2563 0.930 . S
C2575 C2576 1.399 . S
C2575 C2580 1.399 . S
C2576 C2575 1.399 . S
C2576 C2577 1.376 . S
C2577 H2564 0.930 . S
C2577 C2576 1.376 . S
C2577 C2578 1.388 . S
C2578 H2565 0.930 . S
C2578 C2577 1.388 . S
C2578 C2579 1.390 . S
C2579 C2578 1.390 . S
C2579 C2580 1.394 . S
C2579 C2585 1.465 . S
C2580 C2575 1.399 . S
C2580 C2579 1.394 . S
C2580 C2581 1.516 . S
C2581 C2580 1.516 . S
C2581 C2582 1.502 . S
C2581 C2583 1.561 . S
C2581 C2584 1.526 . S
C2582 H2566 0.959 . S
C2582 H2567 0.959 . S
C2582 H2568 0.961 . S
C2582 C2581 1.502 . S
C2583 H2569 0.960 . S
C2583 H2570 0.961 . S
C2583 H2571 0.959 . S
C2583 C2581 1.561 . S
C2584 C2581 1.526 . S
C2584 C2585 1.396 . S
C2584 C2589 1.390 . S
C2585 C2579 1.465 . S
C2585 C2584 1.396 . S
C2585 C2586 1.399 . S
C2586 H2572 0.929 . S
C2586 C2585 1.399 . S
C2586 C2587 1.385 . S
C2587 H2573 0.931 . S
C2587 C2586 1.385 . S
C2587 C2588 1.389 . S
C2588 C2587 1.389 . S
C2588 C2589 1.387 . S
C2589 H2574 0.930 . S
C2589 C2584 1.390 . S
C2589 C2588 1.387 . S
H2590 C2602 0.930 . S
H2591 C2604 0.930 . S
H2592 C2605 0.930 . S
H2593 C2609 0.959 . S
H2594 C2609 0.959 . S
H2595 C2609 0.961 . S
H2596 C2610 0.960 . S
H2597 C2610 0.961 . S
H2598 C2610 0.959 . S
H2599 C2613 0.929 . S
H2600 C2614 0.931 . S
H2601 C2616 0.930 . S
C2602 H2590 0.930 . S
C2602 C2603 1.399 . S
C2602 C2607 1.399 . S
C2603 C2602 1.399 . S
C2603 C2604 1.376 . S
C2604 H2591 0.930 . S
C2604 C2603 1.376 . S
C2604 C2605 1.388 . S
C2605 H2592 0.930 . S
C2605 C2604 1.388 . S
C2605 C2606 1.390 . S
C2606 C2605 1.390 . S
C2606 C2607 1.394 . S
C2606 C2612 1.465 . S
C2607 C2602 1.399 . S
C2607 C2606 1.394 . S
C2607 C2608 1.516 . S
C2608 C2607 1.516 . S
C2608 C2609 1.502 . S
C2608 C2610 1.561 . S
C2608 C2611 1.526 . S
C2609 H2593 0.959 . S
C2609 H2594 0.959 . S
C2609 H2595 0.961 . S
C2609 C2608 1.502 . S
C2610 H2596 0.960 . S
C2610 H2597 0.961 . S
C2610 H2598 0.959 . S
C2610 C2608 1.561 . S
C2611 C2608 1.526 . S
C2611 C2612 1.396 . S
C2611 C2616 1.390 . S
C2612 C2606 1.465 . S
C2612 C2611 1.396 . S
C2612 C2613 1.399 . S
C2613 H2599 0.929 . S
C2613 C2612 1.399 . S
C2613 C2614 1.385 . S
C2614 H2600 0.931 . S
C2614 C2613 1.385 . S
C2614 C2615 1.389 . S
C2615 C2614 1.389 . S
C2615 C2616 1.387 . S
C2616 H2601 0.930 . S
C2616 C2611 1.390 . S
C2616 C2615 1.387 . S
H2617 C2629 0.930 . S
H2618 C2631 0.930 . S
H2619 C2632 0.930 . S
H2620 C2636 0.959 . S
H2621 C2636 0.959 . S
H2622 C2636 0.961 . S
H2623 C2637 0.960 . S
H2624 C2637 0.961 . S
H2625 C2637 0.959 . S
H2626 C2640 0.929 . S
H2627 C2641 0.931 . S
H2628 C2643 0.930 . S
C2629 H2617 0.930 . S
C2629 C2630 1.399 . S
C2629 C2634 1.399 . S
C2630 C2629 1.399 . S
C2630 C2631 1.376 . S
C2631 H2618 0.930 . S
C2631 C2630 1.376 . S
C2631 C2632 1.388 . S
C2632 H2619 0.930 . S
C2632 C2631 1.388 . S
C2632 C2633 1.390 . S
C2633 C2632 1.390 . S
C2633 C2634 1.394 . S
C2633 C2639 1.465 . S
C2634 C2629 1.399 . S
C2634 C2633 1.394 . S
C2634 C2635 1.516 . S
C2635 C2634 1.516 . S
C2635 C2636 1.502 . S
C2635 C2637 1.561 . S
C2635 C2638 1.526 . S
C2636 H2620 0.959 . S
C2636 H2621 0.959 . S
C2636 H2622 0.961 . S
C2636 C2635 1.502 . S
C2637 H2623 0.960 . S
C2637 H2624 0.961 . S
C2637 H2625 0.959 . S
C2637 C2635 1.561 . S
C2638 C2635 1.526 . S
C2638 C2639 1.396 . S
C2638 C2643 1.390 . S
C2639 C2633 1.465 . S
C2639 C2638 1.396 . S
C2639 C2640 1.399 . S
C2640 H2626 0.929 . S
C2640 C2639 1.399 . S
C2640 C2641 1.385 . S
C2641 H2627 0.931 . S
C2641 C2640 1.385 . S
C2641 C2642 1.389 . S
C2642 C2641 1.389 . S
C2642 C2643 1.387 . S
C2643 H2628 0.930 . S
C2643 C2638 1.390 . S
C2643 C2642 1.387 . S
H2644 C2656 0.930 . S
H2645 C2658 0.930 . S
H2646 C2659 0.930 . S
H2647 C2663 0.959 . S
H2648 C2663 0.959 . S
H2649 C2663 0.961 . S
H2650 C2664 0.960 . S
H2651 C2664 0.961 . S
H2652 C2664 0.959 . S
H2653 C2667 0.929 . S
H2654 C2668 0.931 . S
H2655 C2670 0.930 . S
C2656 H2644 0.930 . S
C2656 C2657 1.399 . S
C2656 C2661 1.399 . S
C2657 C2656 1.399 . S
C2657 C2658 1.376 . S
C2658 H2645 0.930 . S
C2658 C2657 1.376 . S
C2658 C2659 1.388 . S
C2659 H2646 0.930 . S
C2659 C2658 1.388 . S
C2659 C2660 1.390 . S
C2660 C2659 1.390 . S
C2660 C2661 1.394 . S
C2660 C2666 1.465 . S
C2661 C2656 1.399 . S
C2661 C2660 1.394 . S
C2661 C2662 1.516 . S
C2662 C2661 1.516 . S
C2662 C2663 1.502 . S
C2662 C2664 1.561 . S
C2662 C2665 1.526 . S
C2663 H2647 0.959 . S
C2663 H2648 0.959 . S
C2663 H2649 0.961 . S
C2663 C2662 1.502 . S
C2664 H2650 0.960 . S
C2664 H2651 0.961 . S
C2664 H2652 0.959 . S
C2664 C2662 1.561 . S
C2665 C2662 1.526 . S
C2665 C2666 1.396 . S
C2665 C2670 1.390 . S
C2666 C2660 1.465 . S
C2666 C2665 1.396 . S
C2666 C2667 1.399 . S
C2667 H2653 0.929 . S
C2667 C2666 1.399 . S
C2667 C2668 1.385 . S
C2668 H2654 0.931 . S
C2668 C2667 1.385 . S
C2668 C2669 1.389 . S
C2669 C2668 1.389 . S
C2669 C2670 1.387 . S
C2670 H2655 0.930 . S
C2670 C2665 1.390 . S
C2670 C2669 1.387 . S
H2671 C2683 0.930 . S
H2672 C2685 0.930 . S
H2673 C2686 0.930 . S
H2674 C2690 0.959 . S
H2675 C2690 0.959 . S
H2676 C2690 0.961 . S
H2677 C2691 0.960 . S
H2678 C2691 0.961 . S
H2679 C2691 0.959 . S
H2680 C2694 0.929 . S
H2681 C2695 0.931 . S
H2682 C2697 0.930 . S
C2683 H2671 0.930 . S
C2683 C2684 1.399 . S
C2683 C2688 1.399 . S
C2684 C2683 1.399 . S
C2684 C2685 1.376 . S
C2685 H2672 0.930 . S
C2685 C2684 1.376 . S
C2685 C2686 1.388 . S
C2686 H2673 0.930 . S
C2686 C2685 1.388 . S
C2686 C2687 1.390 . S
C2687 C2686 1.390 . S
C2687 C2688 1.394 . S
C2687 C2693 1.465 . S
C2688 C2683 1.399 . S
C2688 C2687 1.394 . S
C2688 C2689 1.516 . S
C2689 C2688 1.516 . S
C2689 C2690 1.502 . S
C2689 C2691 1.561 . S
C2689 C2692 1.526 . S
C2690 H2674 0.959 . S
C2690 H2675 0.959 . S
C2690 H2676 0.961 . S
C2690 C2689 1.502 . S
C2691 H2677 0.960 . S
C2691 H2678 0.961 . S
C2691 H2679 0.959 . S
C2691 C2689 1.561 . S
C2692 C2689 1.526 . S
C2692 C2693 1.396 . S
C2692 C2697 1.390 . S
C2693 C2687 1.465 . S
C2693 C2692 1.396 . S
C2693 C2694 1.399 . S
C2694 H2680 0.929 . S
C2694 C2693 1.399 . S
C2694 C2695 1.385 . S
C2695 H2681 0.931 . S
C2695 C2694 1.385 . S
C2695 C2696 1.389 . S
C2696 C2695 1.389 . S
C2696 C2697 1.387 . S
C2697 H2682 0.930 . S
C2697 C2692 1.390 . S
C2697 C2696 1.387 . S
H2698 C2710 0.930 . S
H2699 C2712 0.930 . S
H2700 C2713 0.930 . S
H2701 C2717 0.959 . S
H2702 C2717 0.959 . S
H2703 C2717 0.961 . S
H2704 C2718 0.960 . S
H2705 C2718 0.961 . S
H2706 C2718 0.959 . S
H2707 C2721 0.929 . S
H2708 C2722 0.931 . S
H2709 C2724 0.930 . S
C2710 H2698 0.930 . S
C2710 C2711 1.399 . S
C2710 C2715 1.399 . S
C2711 C2710 1.399 . S
C2711 C2712 1.376 . S
C2712 H2699 0.930 . S
C2712 C2711 1.376 . S
C2712 C2713 1.388 . S
C2713 H2700 0.930 . S
C2713 C2712 1.388 . S
C2713 C2714 1.390 . S
C2714 C2713 1.390 . S
C2714 C2715 1.394 . S
C2714 C2720 1.465 . S
C2715 C2710 1.399 . S
C2715 C2714 1.394 . S
C2715 C2716 1.516 . S
C2716 C2715 1.516 . S
C2716 C2717 1.502 . S
C2716 C2718 1.561 . S
C2716 C2719 1.526 . S
C2717 H2701 0.959 . S
C2717 H2702 0.959 . S
C2717 H2703 0.961 . S
C2717 C2716 1.502 . S
C2718 H2704 0.960 . S
C2718 H2705 0.961 . S
C2718 H2706 0.959 . S
C2718 C2716 1.561 . S
C2719 C2716 1.526 . S
C2719 C2720 1.396 . S
C2719 C2724 1.390 . S
C2720 C2714 1.465 . S
C2720 C2719 1.396 . S
C2720 C2721 1.399 . S
C2721 H2707 0.929 . S
C2721 C2720 1.399 . S
C2721 C2722 1.385 . S
C2722 H2708 0.931 . S
C2722 C2721 1.385 . S
C2722 C2723 1.389 . S
C2723 C2722 1.389 . S
C2723 C2724 1.387 . S
C2724 H2709 0.930 . S
C2724 C2719 1.390 . S
C2724 C2723 1.387 . S
H2725 C2737 0.930 . S
H2726 C2739 0.930 . S
H2727 C2740 0.930 . S
H2728 C2744 0.959 . S
H2729 C2744 0.959 . S
H2730 C2744 0.961 . S
H2731 C2745 0.960 . S
H2732 C2745 0.961 . S
H2733 C2745 0.959 . S
H2734 C2748 0.929 . S
H2735 C2749 0.931 . S
H2736 C2751 0.930 . S
C2737 H2725 0.930 . S
C2737 C2738 1.399 . S
C2737 C2742 1.399 . S
C2738 C2737 1.399 . S
C2738 C2739 1.376 . S
C2739 H2726 0.930 . S
C2739 C2738 1.376 . S
C2739 C2740 1.388 . S
C2740 H2727 0.930 . S
C2740 C2739 1.388 . S
C2740 C2741 1.390 . S
C2741 C2740 1.390 . S
C2741 C2742 1.394 . S
C2741 C2747 1.465 . S
C2742 C2737 1.399 . S
C2742 C2741 1.394 . S
C2742 C2743 1.516 . S
C2743 C2742 1.516 . S
C2743 C2744 1.502 . S
C2743 C2745 1.561 . S
C2743 C2746 1.526 . S
C2744 H2728 0.959 . S
C2744 H2729 0.959 . S
C2744 H2730 0.961 . S
C2744 C2743 1.502 . S
C2745 H2731 0.960 . S
C2745 H2732 0.961 . S
C2745 H2733 0.959 . S
C2745 C2743 1.561 . S
C2746 C2743 1.526 . S
C2746 C2747 1.396 . S
C2746 C2751 1.390 . S
C2747 C2741 1.465 . S
C2747 C2746 1.396 . S
C2747 C2748 1.399 . S
C2748 H2734 0.929 . S
C2748 C2747 1.399 . S
C2748 C2749 1.385 . S
C2749 H2735 0.931 . S
C2749 C2748 1.385 . S
C2749 C2750 1.389 . S
C2750 C2749 1.389 . S
C2750 C2751 1.387 . S
C2751 H2736 0.930 . S
C2751 C2746 1.390 . S
C2751 C2750 1.387 . S
H2752 C2764 0.930 . S
H2753 C2766 0.930 . S
H2754 C2767 0.930 . S
H2755 C2771 0.959 . S
H2756 C2771 0.959 . S
H2757 C2771 0.961 . S
H2758 C2772 0.960 . S
H2759 C2772 0.961 . S
H2760 C2772 0.959 . S
H2761 C2775 0.929 . S
H2762 C2776 0.931 . S
H2763 C2778 0.930 . S
C2764 H2752 0.930 . S
C2764 C2765 1.399 . S
C2764 C2769 1.399 . S
C2765 C2764 1.399 . S
C2765 C2766 1.376 . S
C2766 H2753 0.930 . S
C2766 C2765 1.376 . S
C2766 C2767 1.388 . S
C2767 H2754 0.930 . S
C2767 C2766 1.388 . S
C2767 C2768 1.390 . S
C2768 C2767 1.390 . S
C2768 C2769 1.394 . S
C2768 C2774 1.465 . S
C2769 C2764 1.399 . S
C2769 C2768 1.394 . S
C2769 C2770 1.516 . S
C2770 C2769 1.516 . S
C2770 C2771 1.502 . S
C2770 C2772 1.561 . S
C2770 C2773 1.526 . S
C2771 H2755 0.959 . S
C2771 H2756 0.959 . S
C2771 H2757 0.961 . S
C2771 C2770 1.502 . S
C2772 H2758 0.960 . S
C2772 H2759 0.961 . S
C2772 H2760 0.959 . S
C2772 C2770 1.561 . S
C2773 C2770 1.526 . S
C2773 C2774 1.396 . S
C2773 C2778 1.390 . S
C2774 C2768 1.465 . S
C2774 C2773 1.396 . S
C2774 C2775 1.399 . S
C2775 H2761 0.929 . S
C2775 C2774 1.399 . S
C2775 C2776 1.385 . S
C2776 H2762 0.931 . S
C2776 C2775 1.385 . S
C2776 C2777 1.389 . S
C2777 C2776 1.389 . S
C2777 C2778 1.387 . S
C2778 H2763 0.930 . S
C2778 C2773 1.390 . S
C2778 C2777 1.387 . S
H2779 C2791 0.930 . S
H2780 C2793 0.930 . S
H2781 C2794 0.930 . S
H2782 C2798 0.959 . S
H2783 C2798 0.959 . S
H2784 C2798 0.961 . S
H2785 C2799 0.960 . S
H2786 C2799 0.961 . S
H2787 C2799 0.959 . S
H2788 C2802 0.929 . S
H2789 C2803 0.931 . S
H2790 C2805 0.930 . S
C2791 H2779 0.930 . S
C2791 C2792 1.399 . S
C2791 C2796 1.399 . S
C2792 C2791 1.399 . S
C2792 C2793 1.376 . S
C2793 H2780 0.930 . S
C2793 C2792 1.376 . S
C2793 C2794 1.388 . S
C2794 H2781 0.930 . S
C2794 C2793 1.388 . S
C2794 C2795 1.390 . S
C2795 C2794 1.390 . S
C2795 C2796 1.394 . S
C2795 C2801 1.465 . S
C2796 C2791 1.399 . S
C2796 C2795 1.394 . S
C2796 C2797 1.516 . S
C2797 C2796 1.516 . S
C2797 C2798 1.502 . S
C2797 C2799 1.561 . S
C2797 C2800 1.526 . S
C2798 H2782 0.959 . S
C2798 H2783 0.959 . S
C2798 H2784 0.961 . S
C2798 C2797 1.502 . S
C2799 H2785 0.960 . S
C2799 H2786 0.961 . S
C2799 H2787 0.959 . S
C2799 C2797 1.561 . S
C2800 C2797 1.526 . S
C2800 C2801 1.396 . S
C2800 C2805 1.390 . S
C2801 C2795 1.465 . S
C2801 C2800 1.396 . S
C2801 C2802 1.399 . S
C2802 H2788 0.929 . S
C2802 C2801 1.399 . S
C2802 C2803 1.385 . S
C2803 H2789 0.931 . S
C2803 C2802 1.385 . S
C2803 C2804 1.389 . S
C2804 C2803 1.389 . S
C2804 C2805 1.387 . S
C2805 H2790 0.930 . S
C2805 C2800 1.390 . S
C2805 C2804 1.387 . S
H2806 C2818 0.930 . S
H2807 C2820 0.930 . S
H2808 C2821 0.930 . S
H2809 C2825 0.959 . S
H2810 C2825 0.959 . S
H2811 C2825 0.961 . S
H2812 C2826 0.960 . S
H2813 C2826 0.961 . S
H2814 C2826 0.959 . S
H2815 C2829 0.929 . S
H2816 C2830 0.931 . S
H2817 C2832 0.930 . S
C2818 H2806 0.930 . S
C2818 C2819 1.399 . S
C2818 C2823 1.399 . S
C2819 C2818 1.399 . S
C2819 C2820 1.376 . S
C2820 H2807 0.930 . S
C2820 C2819 1.376 . S
C2820 C2821 1.388 . S
C2821 H2808 0.930 . S
C2821 C2820 1.388 . S
C2821 C2822 1.390 . S
C2822 C2821 1.390 . S
C2822 C2823 1.394 . S
C2822 C2828 1.465 . S
C2823 C2818 1.399 . S
C2823 C2822 1.394 . S
C2823 C2824 1.516 . S
C2824 C2823 1.516 . S
C2824 C2825 1.502 . S
C2824 C2826 1.561 . S
C2824 C2827 1.526 . S
C2825 H2809 0.959 . S
C2825 H2810 0.959 . S
C2825 H2811 0.961 . S
C2825 C2824 1.502 . S
C2826 H2812 0.960 . S
C2826 H2813 0.961 . S
C2826 H2814 0.959 . S
C2826 C2824 1.561 . S
C2827 C2824 1.526 . S
C2827 C2828 1.396 . S
C2827 C2832 1.390 . S
C2828 C2822 1.465 . S
C2828 C2827 1.396 . S
C2828 C2829 1.399 . S
C2829 H2815 0.929 . S
C2829 C2828 1.399 . S
C2829 C2830 1.385 . S
C2830 H2816 0.931 . S
C2830 C2829 1.385 . S
C2830 C2831 1.389 . S
C2831 C2830 1.389 . S
C2831 C2832 1.387 . S
C2832 H2817 0.930 . S
C2832 C2827 1.390 . S
C2832 C2831 1.387 . S
H2833 C2845 0.930 . S
H2834 C2847 0.930 . S
H2835 C2848 0.930 . S
H2836 C2852 0.959 . S
H2837 C2852 0.959 . S
H2838 C2852 0.961 . S
H2839 C2853 0.960 . S
H2840 C2853 0.961 . S
H2841 C2853 0.959 . S
H2842 C2856 0.929 . S
H2843 C2857 0.931 . S
H2844 C2859 0.930 . S
C2845 H2833 0.930 . S
C2845 C2846 1.399 . S
C2845 C2850 1.399 . S
C2846 C2845 1.399 . S
C2846 C2847 1.376 . S
C2847 H2834 0.930 . S
C2847 C2846 1.376 . S
C2847 C2848 1.388 . S
C2848 H2835 0.930 . S
C2848 C2847 1.388 . S
C2848 C2849 1.390 . S
C2849 C2848 1.390 . S
C2849 C2850 1.394 . S
C2849 C2855 1.465 . S
C2850 C2845 1.399 . S
C2850 C2849 1.394 . S
C2850 C2851 1.516 . S
C2851 C2850 1.516 . S
C2851 C2852 1.502 . S
C2851 C2853 1.561 . S
C2851 C2854 1.526 . S
C2852 H2836 0.959 . S
C2852 H2837 0.959 . S
C2852 H2838 0.961 . S
C2852 C2851 1.502 . S
C2853 H2839 0.960 . S
C2853 H2840 0.961 . S
C2853 H2841 0.959 . S
C2853 C2851 1.561 . S
C2854 C2851 1.526 . S
C2854 C2855 1.396 . S
C2854 C2859 1.390 . S
C2855 C2849 1.465 . S
C2855 C2854 1.396 . S
C2855 C2856 1.399 . S
C2856 H2842 0.929 . S
C2856 C2855 1.399 . S
C2856 C2857 1.385 . S
C2857 H2843 0.931 . S
C2857 C2856 1.385 . S
C2857 C2858 1.389 . S
C2858 C2857 1.389 . S
C2858 C2859 1.387 . S
C2859 H2844 0.930 . S
C2859 C2854 1.390 . S
C2859 C2858 1.387 . S
H2860 C2872 0.930 . S
H2861 C2874 0.930 . S
H2862 C2875 0.930 . S
H2863 C2879 0.959 . S
H2864 C2879 0.959 . S
H2865 C2879 0.961 . S
H2866 C2880 0.960 . S
H2867 C2880 0.961 . S
H2868 C2880 0.959 . S
H2869 C2883 0.929 . S
H2870 C2884 0.931 . S
H2871 C2886 0.930 . S
C2872 H2860 0.930 . S
C2872 C2873 1.399 . S
C2872 C2877 1.399 . S
C2873 C2872 1.399 . S
C2873 C2874 1.376 . S
C2874 H2861 0.930 . S
C2874 C2873 1.376 . S
C2874 C2875 1.388 . S
C2875 H2862 0.930 . S
C2875 C2874 1.388 . S
C2875 C2876 1.390 . S
C2876 C2875 1.390 . S
C2876 C2877 1.394 . S
C2876 C2882 1.465 . S
C2877 C2872 1.399 . S
C2877 C2876 1.394 . S
C2877 C2878 1.516 . S
C2878 C2877 1.516 . S
C2878 C2879 1.502 . S
C2878 C2880 1.561 . S
C2878 C2881 1.526 . S
C2879 H2863 0.959 . S
C2879 H2864 0.959 . S
C2879 H2865 0.961 . S
C2879 C2878 1.502 . S
C2880 H2866 0.960 . S
C2880 H2867 0.961 . S
C2880 H2868 0.959 . S
C2880 C2878 1.561 . S
C2881 C2878 1.526 . S
C2881 C2882 1.396 . S
C2881 C2886 1.390 . S
C2882 C2876 1.465 . S
C2882 C2881 1.396 . S
C2882 C2883 1.399 . S
C2883 H2869 0.929 . S
C2883 C2882 1.399 . S
C2883 C2884 1.385 . S
C2884 H2870 0.931 . S
C2884 C2883 1.385 . S
C2884 C2885 1.389 . S
C2885 C2884 1.389 . S
C2885 C2886 1.387 . S
C2886 H2871 0.930 . S
C2886 C2881 1.390 . S
C2886 C2885 1.387 . S
H2887 C2899 0.930 . S
H2888 C2901 0.930 . S
H2889 C2902 0.930 . S
H2890 C2906 0.959 . S
H2891 C2906 0.959 . S
H2892 C2906 0.961 . S
H2893 C2907 0.960 . S
H2894 C2907 0.961 . S
H2895 C2907 0.959 . S
H2896 C2910 0.929 . S
H2897 C2911 0.931 . S
H2898 C2913 0.930 . S
C2899 H2887 0.930 . S
C2899 C2900 1.399 . S
C2899 C2904 1.399 . S
C2900 C2899 1.399 . S
C2900 C2901 1.376 . S
C2901 H2888 0.930 . S
C2901 C2900 1.376 . S
C2901 C2902 1.388 . S
C2902 H2889 0.930 . S
C2902 C2901 1.388 . S
C2902 C2903 1.390 . S
C2903 C2902 1.390 . S
C2903 C2904 1.394 . S
C2903 C2909 1.465 . S
C2904 C2899 1.399 . S
C2904 C2903 1.394 . S
C2904 C2905 1.516 . S
C2905 C2904 1.516 . S
C2905 C2906 1.502 . S
C2905 C2907 1.561 . S
C2905 C2908 1.526 . S
C2906 H2890 0.959 . S
C2906 H2891 0.959 . S
C2906 H2892 0.961 . S
C2906 C2905 1.502 . S
C2907 H2893 0.960 . S
C2907 H2894 0.961 . S
C2907 H2895 0.959 . S
C2907 C2905 1.561 . S
C2908 C2905 1.526 . S
C2908 C2909 1.396 . S
C2908 C2913 1.390 . S
C2909 C2903 1.465 . S
C2909 C2908 1.396 . S
C2909 C2910 1.399 . S
C2910 H2896 0.929 . S
C2910 C2909 1.399 . S
C2910 C2911 1.385 . S
C2911 H2897 0.931 . S
C2911 C2910 1.385 . S
C2911 C2912 1.389 . S
C2912 C2911 1.389 . S
C2912 C2913 1.387 . S
C2913 H2898 0.930 . S
C2913 C2908 1.390 . S
C2913 C2912 1.387 . S
H2914 C2926 0.930 . S
H2915 C2928 0.930 . S
H2916 C2929 0.930 . S
H2917 C2933 0.959 . S
H2918 C2933 0.959 . S
H2919 C2933 0.961 . S
H2920 C2934 0.960 . S
H2921 C2934 0.961 . S
H2922 C2934 0.959 . S
H2923 C2937 0.929 . S
H2924 C2938 0.931 . S
H2925 C2940 0.930 . S
C2926 H2914 0.930 . S
C2926 C2927 1.399 . S
C2926 C2931 1.399 . S
C2927 C2926 1.399 . S
C2927 C2928 1.376 . S
C2928 H2915 0.930 . S
C2928 C2927 1.376 . S
C2928 C2929 1.388 . S
C2929 H2916 0.930 . S
C2929 C2928 1.388 . S
C2929 C2930 1.390 . S
C2930 C2929 1.390 . S
C2930 C2931 1.394 . S
C2930 C2936 1.465 . S
C2931 C2926 1.399 . S
C2931 C2930 1.394 . S
C2931 C2932 1.516 . S
C2932 C2931 1.516 . S
C2932 C2933 1.502 . S
C2932 C2934 1.561 . S
C2932 C2935 1.526 . S
C2933 H2917 0.959 . S
C2933 H2918 0.959 . S
C2933 H2919 0.961 . S
C2933 C2932 1.502 . S
C2934 H2920 0.960 . S
C2934 H2921 0.961 . S
C2934 H2922 0.959 . S
C2934 C2932 1.561 . S
C2935 C2932 1.526 . S
C2935 C2936 1.396 . S
C2935 C2940 1.390 . S
C2936 C2930 1.465 . S
C2936 C2935 1.396 . S
C2936 C2937 1.399 . S
C2937 H2923 0.929 . S
C2937 C2936 1.399 . S
C2937 C2938 1.385 . S
C2938 H2924 0.931 . S
C2938 C2937 1.385 . S
C2938 C2939 1.389 . S
C2939 C2938 1.389 . S
C2939 C2940 1.387 . S
C2940 H2925 0.930 . S
C2940 C2935 1.390 . S
C2940 C2939 1.387 . S
H2941 C2953 0.930 . S
H2942 C2955 0.930 . S
H2943 C2956 0.930 . S
H2944 C2960 0.959 . S
H2945 C2960 0.959 . S
H2946 C2960 0.961 . S
H2947 C2961 0.960 . S
H2948 C2961 0.961 . S
H2949 C2961 0.959 . S
H2950 C2964 0.929 . S
H2951 C2965 0.931 . S
H2952 C2967 0.930 . S
C2953 H2941 0.930 . S
C2953 C2954 1.399 . S
C2953 C2958 1.399 . S
C2954 C2953 1.399 . S
C2954 C2955 1.376 . S
C2955 H2942 0.930 . S
C2955 C2954 1.376 . S
C2955 C2956 1.388 . S
C2956 H2943 0.930 . S
C2956 C2955 1.388 . S
C2956 C2957 1.390 . S
C2957 C2956 1.390 . S
C2957 C2958 1.394 . S
C2957 C2963 1.465 . S
C2958 C2953 1.399 . S
C2958 C2957 1.394 . S
C2958 C2959 1.516 . S
C2959 C2958 1.516 . S
C2959 C2960 1.502 . S
C2959 C2961 1.561 . S
C2959 C2962 1.526 . S
C2960 H2944 0.959 . S
C2960 H2945 0.959 . S
C2960 H2946 0.961 . S
C2960 C2959 1.502 . S
C2961 H2947 0.960 . S
C2961 H2948 0.961 . S
C2961 H2949 0.959 . S
C2961 C2959 1.561 . S
C2962 C2959 1.526 . S
C2962 C2963 1.396 . S
C2962 C2967 1.390 . S
C2963 C2957 1.465 . S
C2963 C2962 1.396 . S
C2963 C2964 1.399 . S
C2964 H2950 0.929 . S
C2964 C2963 1.399 . S
C2964 C2965 1.385 . S
C2965 H2951 0.931 . S
C2965 C2964 1.385 . S
C2965 C2966 1.389 . S
C2966 C2965 1.389 . S
C2966 C2967 1.387 . S
C2967 H2952 0.930 . S
C2967 C2962 1.390 . S
C2967 C2966 1.387 . S
H2968 C2980 0.930 . S
H2969 C2982 0.930 . S
H2970 C2983 0.930 . S
H2971 C2987 0.962 . S
H2972 C2987 0.979 . S
H2973 C2987 0.940 1_554 S
H2974 C2988 0.958 1_554 S
H2975 C2988 0.963 . S
H2976 C2988 0.959 . S
H2977 C2991 0.929 . S
H2978 C2992 0.931 . S
H2979 C2994 0.930 . S
C2980 H2968 0.930 . S
C2980 C2981 1.399 . S
C2980 C2985 1.399 . S
C2981 C2980 1.399 . S
C2981 C2982 1.376 . S
C2982 H2969 0.930 . S
C2982 C2981 1.376 . S
C2982 C2983 1.388 . S
C2983 H2970 0.930 . S
C2983 C2982 1.388 . S
C2983 C2984 1.390 . S
C2984 C2983 1.390 . S
C2984 C2985 1.394 . S
C2984 C2990 1.465 1_554 S
C2985 C2980 1.399 . S
C2985 C2984 1.394 . S
C2985 C2986 1.517 1_554 S
C2986 C2985 1.517 1_556 S
C2986 C2987 1.502 . S
C2986 C2988 1.561 . S
C2986 C2989 1.525 . S
C2987 H2971 0.962 . S
C2987 H2972 0.979 . S
C2987 H2973 0.940 1_556 S
C2987 C2986 1.502 . S
C2988 H2974 0.958 1_556 S
C2988 H2975 0.963 . S
C2988 H2976 0.959 . S
C2988 C2986 1.561 . S
C2989 C2986 1.525 . S
C2989 C2990 1.396 . S
C2989 C2994 1.390 . S
C2990 C2984 1.465 1_556 S
C2990 C2989 1.396 . S
C2990 C2991 1.399 . S
C2991 H2977 0.929 . S
C2991 C2990 1.399 . S
C2991 C2992 1.385 . S
C2992 H2978 0.931 . S
C2992 C2991 1.385 . S
C2992 C2993 1.389 . S
C2993 C2992 1.389 . S
C2993 C2994 1.387 . S
C2994 H2979 0.930 . S
C2994 C2989 1.390 . S
C2994 C2993 1.387 . S
H2995 C3007 0.930 . S
H2996 C3009 0.930 . S
H2997 C3010 0.930 . S
H2998 C3014 0.962 . S
H2999 C3014 0.979 . S
H3000 C3014 0.940 1_556 S
H3001 C3015 0.958 1_556 S
H3002 C3015 0.963 . S
H3003 C3015 0.959 . S
H3004 C3018 0.929 . S
H3005 C3019 0.931 . S
H3006 C3021 0.930 . S
C3007 H2995 0.930 . S
C3007 C3008 1.399 . S
C3007 C3012 1.399 . S
C3008 C3007 1.399 . S
C3008 C3009 1.376 . S
C3009 H2996 0.930 . S
C3009 C3008 1.376 . S
C3009 C3010 1.388 . S
C3010 H2997 0.930 . S
C3010 C3009 1.388 . S
C3010 C3011 1.390 . S
C3011 C3010 1.390 . S
C3011 C3012 1.394 . S
C3011 C3017 1.465 1_556 S
C3012 C3007 1.399 . S
C3012 C3011 1.394 . S
C3012 C3013 1.517 1_556 S
C3013 C3012 1.517 1_554 S
C3013 C3014 1.502 . S
C3013 C3015 1.561 . S
C3013 C3016 1.525 . S
C3014 H2998 0.962 . S
C3014 H2999 0.979 . S
C3014 H3000 0.940 1_554 S
C3014 C3013 1.502 . S
C3015 H3001 0.958 1_554 S
C3015 H3002 0.963 . S
C3015 H3003 0.959 . S
C3015 C3013 1.561 . S
C3016 C3013 1.525 . S
C3016 C3017 1.396 . S
C3016 C3021 1.390 . S
C3017 C3011 1.465 1_554 S
C3017 C3016 1.396 . S
C3017 C3018 1.399 . S
C3018 H3004 0.929 . S
C3018 C3017 1.399 . S
C3018 C3019 1.385 . S
C3019 H3005 0.931 . S
C3019 C3018 1.385 . S
C3019 C3020 1.389 . S
C3020 C3019 1.389 . S
C3020 C3021 1.387 . S
C3021 H3006 0.930 . S
C3021 C3016 1.390 . S
C3021 C3020 1.387 . S
H3022 C3034 0.930 . S
H3023 C3036 0.930 . S
H3024 C3037 0.930 . S
H3025 C3041 0.962 . S
H3026 C3041 0.979 . S
H3027 C3041 0.940 1_554 S
H3028 C3042 0.958 1_554 S
H3029 C3042 0.963 . S
H3030 C3042 0.959 . S
H3031 C3045 0.929 . S
H3032 C3046 0.931 . S
H3033 C3048 0.930 . S
C3034 H3022 0.930 . S
C3034 C3035 1.399 . S
C3034 C3039 1.399 . S
C3035 C3034 1.399 . S
C3035 C3036 1.376 . S
C3036 H3023 0.930 . S
C3036 C3035 1.376 . S
C3036 C3037 1.388 . S
C3037 H3024 0.930 . S
C3037 C3036 1.388 . S
C3037 C3038 1.390 . S
C3038 C3037 1.390 . S
C3038 C3039 1.394 . S
C3038 C3044 1.465 1_554 S
C3039 C3034 1.399 . S
C3039 C3038 1.394 . S
C3039 C3040 1.517 1_554 S
C3040 C3039 1.517 1_556 S
C3040 C3041 1.502 . S
C3040 C3042 1.561 . S
C3040 C3043 1.525 . S
C3041 H3025 0.962 . S
C3041 H3026 0.979 . S
C3041 H3027 0.940 1_556 S
C3041 C3040 1.502 . S
C3042 H3028 0.958 1_556 S
C3042 H3029 0.963 . S
C3042 H3030 0.959 . S
C3042 C3040 1.561 . S
C3043 C3040 1.525 . S
C3043 C3044 1.396 . S
C3043 C3048 1.390 . S
C3044 C3038 1.465 1_556 S
C3044 C3043 1.396 . S
C3044 C3045 1.399 . S
C3045 H3031 0.929 . S
C3045 C3044 1.399 . S
C3045 C3046 1.385 . S
C3046 H3032 0.931 . S
C3046 C3045 1.385 . S
C3046 C3047 1.389 . S
C3047 C3046 1.389 . S
C3047 C3048 1.387 . S
C3048 H3033 0.930 . S
C3048 C3043 1.390 . S
C3048 C3047 1.387 . S
H3049 C3061 0.930 . S
H3050 C3063 0.930 . S
H3051 C3064 0.930 . S
H3052 C3068 0.962 . S
H3053 C3068 0.979 . S
H3054 C3068 0.940 1_554 S
H3055 C3069 0.958 1_554 S
H3056 C3069 0.963 . S
H3057 C3069 0.959 . S
H3058 C3072 0.929 . S
H3059 C3073 0.931 . S
H3060 C3075 0.930 . S
C3061 H3049 0.930 . S
C3061 C3062 1.399 . S
C3061 C3066 1.399 . S
C3062 C3061 1.399 . S
C3062 C3063 1.376 . S
C3063 H3050 0.930 . S
C3063 C3062 1.376 . S
C3063 C3064 1.388 . S
C3064 H3051 0.930 . S
C3064 C3063 1.388 . S
C3064 C3065 1.390 . S
C3065 C3064 1.390 . S
C3065 C3066 1.394 . S
C3065 C3071 1.465 1_554 S
C3066 C3061 1.399 . S
C3066 C3065 1.394 . S
C3066 C3067 1.517 1_554 S
C3067 C3066 1.517 1_556 S
C3067 C3068 1.502 . S
C3067 C3069 1.561 . S
C3067 C3070 1.525 . S
C3068 H3052 0.962 . S
C3068 H3053 0.979 . S
C3068 H3054 0.940 1_556 S
C3068 C3067 1.502 . S
C3069 H3055 0.958 1_556 S
C3069 H3056 0.963 . S
C3069 H3057 0.959 . S
C3069 C3067 1.561 . S
C3070 C3067 1.525 . S
C3070 C3071 1.396 . S
C3070 C3075 1.390 . S
C3071 C3065 1.465 1_556 S
C3071 C3070 1.396 . S
C3071 C3072 1.399 . S
C3072 H3058 0.929 . S
C3072 C3071 1.399 . S
C3072 C3073 1.385 . S
C3073 H3059 0.931 . S
C3073 C3072 1.385 . S
C3073 C3074 1.389 . S
C3074 C3073 1.389 . S
C3074 C3075 1.387 . S
C3075 H3060 0.930 . S
C3075 C3070 1.390 . S
C3075 C3074 1.387 . S
H3076 C3088 0.930 . S
H3077 C3090 0.930 . S
H3078 C3091 0.930 . S
H3079 C3095 0.962 . S
H3080 C3095 0.979 . S
H3081 C3095 0.940 1_554 S
H3082 C3096 0.958 1_554 S
H3083 C3096 0.963 . S
H3084 C3096 0.959 . S
H3085 C3099 0.929 . S
H3086 C3100 0.931 . S
H3087 C3102 0.930 . S
C3088 H3076 0.930 . S
C3088 C3089 1.399 . S
C3088 C3093 1.399 . S
C3089 C3088 1.399 . S
C3089 C3090 1.376 . S
C3090 H3077 0.930 . S
C3090 C3089 1.376 . S
C3090 C3091 1.388 . S
C3091 H3078 0.930 . S
C3091 C3090 1.388 . S
C3091 C3092 1.390 . S
C3092 C3091 1.390 . S
C3092 C3093 1.394 . S
C3092 C3098 1.465 1_554 S
C3093 C3088 1.399 . S
C3093 C3092 1.394 . S
C3093 C3094 1.517 1_554 S
C3094 C3093 1.517 1_556 S
C3094 C3095 1.502 . S
C3094 C3096 1.561 . S
C3094 C3097 1.525 . S
C3095 H3079 0.962 . S
C3095 H3080 0.979 . S
C3095 H3081 0.940 1_556 S
C3095 C3094 1.502 . S
C3096 H3082 0.958 1_556 S
C3096 H3083 0.963 . S
C3096 H3084 0.959 . S
C3096 C3094 1.561 . S
C3097 C3094 1.525 . S
C3097 C3098 1.396 . S
C3097 C3102 1.390 . S
C3098 C3092 1.465 1_556 S
C3098 C3097 1.396 . S
C3098 C3099 1.399 . S
C3099 H3085 0.929 . S
C3099 C3098 1.399 . S
C3099 C3100 1.385 . S
C3100 H3086 0.931 . S
C3100 C3099 1.385 . S
C3100 C3101 1.389 . S
C3101 C3100 1.389 . S
C3101 C3102 1.387 . S
C3102 H3087 0.930 . S
C3102 C3097 1.390 . S
C3102 C3101 1.387 . S
H3103 C3115 0.930 . S
H3104 C3117 0.930 . S
H3105 C3118 0.930 . S
H3106 C3122 0.962 . S
H3107 C3122 0.979 . S
H3108 C3122 0.940 1_554 S
H3109 C3123 0.958 1_554 S
H3110 C3123 0.963 . S
H3111 C3123 0.959 . S
H3112 C3126 0.929 . S
H3113 C3127 0.931 . S
H3114 C3129 0.930 . S
C3115 H3103 0.930 . S
C3115 C3116 1.399 . S
C3115 C3120 1.399 . S
C3116 C3115 1.399 . S
C3116 C3117 1.376 . S
C3117 H3104 0.930 . S
C3117 C3116 1.376 . S
C3117 C3118 1.388 . S
C3118 H3105 0.930 . S
C3118 C3117 1.388 . S
C3118 C3119 1.390 . S
C3119 C3118 1.390 . S
C3119 C3120 1.394 . S
C3119 C3125 1.465 1_554 S
C3120 C3115 1.399 . S
C3120 C3119 1.394 . S
C3120 C3121 1.517 1_554 S
C3121 C3120 1.517 1_556 S
C3121 C3122 1.502 . S
C3121 C3123 1.561 . S
C3121 C3124 1.525 . S
C3122 H3106 0.962 . S
C3122 H3107 0.979 . S
C3122 H3108 0.940 1_556 S
C3122 C3121 1.502 . S
C3123 H3109 0.958 1_556 S
C3123 H3110 0.963 . S
C3123 H3111 0.959 . S
C3123 C3121 1.561 . S
C3124 C3121 1.525 . S
C3124 C3125 1.396 . S
C3124 C3129 1.390 . S
C3125 C3119 1.465 1_556 S
C3125 C3124 1.396 . S
C3125 C3126 1.399 . S
C3126 H3112 0.929 . S
C3126 C3125 1.399 . S
C3126 C3127 1.385 . S
C3127 H3113 0.931 . S
C3127 C3126 1.385 . S
C3127 C3128 1.389 . S
C3128 C3127 1.389 . S
C3128 C3129 1.387 . S
C3129 H3114 0.930 . S
C3129 C3124 1.390 . S
C3129 C3128 1.387 . S
H3130 C3142 0.930 . S
H3131 C3144 0.930 . S
H3132 C3145 0.930 . S
H3133 C3149 0.962 . S
H3134 C3149 0.979 . S
H3135 C3149 0.940 1_556 S
H3136 C3150 0.958 1_556 S
H3137 C3150 0.963 . S
H3138 C3150 0.959 . S
H3139 C3153 0.929 . S
H3140 C3154 0.931 . S
H3141 C3156 0.930 . S
C3142 H3130 0.930 . S
C3142 C3143 1.399 . S
C3142 C3147 1.399 . S
C3143 C3142 1.399 . S
C3143 C3144 1.376 . S
C3144 H3131 0.930 . S
C3144 C3143 1.376 . S
C3144 C3145 1.388 . S
C3145 H3132 0.930 . S
C3145 C3144 1.388 . S
C3145 C3146 1.390 . S
C3146 C3145 1.390 . S
C3146 C3147 1.394 . S
C3146 C3152 1.465 1_556 S
C3147 C3142 1.399 . S
C3147 C3146 1.394 . S
C3147 C3148 1.517 1_556 S
C3148 C3147 1.517 1_554 S
C3148 C3149 1.502 . S
C3148 C3150 1.561 . S
C3148 C3151 1.525 . S
C3149 H3133 0.962 . S
C3149 H3134 0.979 . S
C3149 H3135 0.940 1_554 S
C3149 C3148 1.502 . S
C3150 H3136 0.958 1_554 S
C3150 H3137 0.963 . S
C3150 H3138 0.959 . S
C3150 C3148 1.561 . S
C3151 C3148 1.525 . S
C3151 C3152 1.396 . S
C3151 C3156 1.390 . S
C3152 C3146 1.465 1_554 S
C3152 C3151 1.396 . S
C3152 C3153 1.399 . S
C3153 H3139 0.929 . S
C3153 C3152 1.399 . S
C3153 C3154 1.385 . S
C3154 H3140 0.931 . S
C3154 C3153 1.385 . S
C3154 C3155 1.389 . S
C3155 C3154 1.389 . S
C3155 C3156 1.387 . S
C3156 H3141 0.930 . S
C3156 C3151 1.390 . S
C3156 C3155 1.387 . S
H3157 C3169 0.930 . S
H3158 C3171 0.930 . S
H3159 C3172 0.930 . S
H3160 C3176 0.962 . S
H3161 C3176 0.979 . S
H3162 C3176 0.940 1_556 S
H3163 C3177 0.958 1_556 S
H3164 C3177 0.963 . S
H3165 C3177 0.959 . S
H3166 C3180 0.929 . S
H3167 C3181 0.931 . S
H3168 C3183 0.930 . S
C3169 H3157 0.930 . S
C3169 C3170 1.399 . S
C3169 C3174 1.399 . S
C3170 C3169 1.399 . S
C3170 C3171 1.376 . S
C3171 H3158 0.930 . S
C3171 C3170 1.376 . S
C3171 C3172 1.388 . S
C3172 H3159 0.930 . S
C3172 C3171 1.388 . S
C3172 C3173 1.390 . S
C3173 C3172 1.390 . S
C3173 C3174 1.394 . S
C3173 C3179 1.465 1_556 S
C3174 C3169 1.399 . S
C3174 C3173 1.394 . S
C3174 C3175 1.517 1_556 S
C3175 C3174 1.517 1_554 S
C3175 C3176 1.502 . S
C3175 C3177 1.561 . S
C3175 C3178 1.525 . S
C3176 H3160 0.962 . S
C3176 H3161 0.979 . S
C3176 H3162 0.940 1_554 S
C3176 C3175 1.502 . S
C3177 H3163 0.958 1_554 S
C3177 H3164 0.963 . S
C3177 H3165 0.959 . S
C3177 C3175 1.561 . S
C3178 C3175 1.525 . S
C3178 C3179 1.396 . S
C3178 C3183 1.390 . S
C3179 C3173 1.465 1_554 S
C3179 C3178 1.396 . S
C3179 C3180 1.399 . S
C3180 H3166 0.929 . S
C3180 C3179 1.399 . S
C3180 C3181 1.385 . S
C3181 H3167 0.931 . S
C3181 C3180 1.385 . S
C3181 C3182 1.389 . S
C3182 C3181 1.389 . S
C3182 C3183 1.387 . S
C3183 H3168 0.930 . S
C3183 C3178 1.390 . S
C3183 C3182 1.387 . S
H3184 C3196 0.930 . S
H3185 C3198 0.930 . S
H3186 C3199 0.930 . S
H3187 C3203 0.959 . S
H3188 C3203 0.959 . S
H3189 C3203 0.961 . S
H3190 C3204 0.960 . S
H3191 C3204 0.961 . S
H3192 C3204 0.959 . S
H3193 C3207 0.929 . S
H3194 C3208 0.931 . S
H3195 C3210 0.930 . S
C3196 H3184 0.930 . S
C3196 C3197 1.399 . S
C3196 C3201 1.399 . S
C3197 C3196 1.399 . S
C3197 C3198 1.376 . S
C3198 H3185 0.930 . S
C3198 C3197 1.376 . S
C3198 C3199 1.388 . S
C3199 H3186 0.930 . S
C3199 C3198 1.388 . S
C3199 C3200 1.390 . S
C3200 C3199 1.390 . S
C3200 C3201 1.394 . S
C3200 C3206 1.465 . S
C3201 C3196 1.399 . S
C3201 C3200 1.394 . S
C3201 C3202 1.516 . S
C3202 C3201 1.516 . S
C3202 C3203 1.502 . S
C3202 C3204 1.561 . S
C3202 C3205 1.526 . S
C3203 H3187 0.959 . S
C3203 H3188 0.959 . S
C3203 H3189 0.961 . S
C3203 C3202 1.502 . S
C3204 H3190 0.960 . S
C3204 H3191 0.961 . S
C3204 H3192 0.959 . S
C3204 C3202 1.561 . S
C3205 C3202 1.526 . S
C3205 C3206 1.396 . S
C3205 C3210 1.390 . S
C3206 C3200 1.465 . S
C3206 C3205 1.396 . S
C3206 C3207 1.399 . S
C3207 H3193 0.929 . S
C3207 C3206 1.399 . S
C3207 C3208 1.385 . S
C3208 H3194 0.931 . S
C3208 C3207 1.385 . S
C3208 C3209 1.389 . S
C3209 C3208 1.389 . S
C3209 C3210 1.387 . S
C3210 H3195 0.930 . S
C3210 C3205 1.390 . S
C3210 C3209 1.387 . S
H3211 C3223 0.930 . S
H3212 C3225 0.930 . S
H3213 C3226 0.930 . S
H3214 C3230 0.959 . S
H3215 C3230 0.959 . S
H3216 C3230 0.961 . S
H3217 C3231 0.960 . S
H3218 C3231 0.961 . S
H3219 C3231 0.959 . S
H3220 C3234 0.929 . S
H3221 C3235 0.931 . S
H3222 C3237 0.930 . S
C3223 H3211 0.930 . S
C3223 C3224 1.399 . S
C3223 C3228 1.399 . S
C3224 C3223 1.399 . S
C3224 C3225 1.376 . S
C3225 H3212 0.930 . S
C3225 C3224 1.376 . S
C3225 C3226 1.388 . S
C3226 H3213 0.930 . S
C3226 C3225 1.388 . S
C3226 C3227 1.390 . S
C3227 C3226 1.390 . S
C3227 C3228 1.394 . S
C3227 C3233 1.465 . S
C3228 C3223 1.399 . S
C3228 C3227 1.394 . S
C3228 C3229 1.516 . S
C3229 C3228 1.516 . S
C3229 C3230 1.502 . S
C3229 C3231 1.561 . S
C3229 C3232 1.526 . S
C3230 H3214 0.959 . S
C3230 H3215 0.959 . S
C3230 H3216 0.961 . S
C3230 C3229 1.502 . S
C3231 H3217 0.960 . S
C3231 H3218 0.961 . S
C3231 H3219 0.959 . S
C3231 C3229 1.561 . S
C3232 C3229 1.526 . S
C3232 C3233 1.396 . S
C3232 C3237 1.390 . S
C3233 C3227 1.465 . S
C3233 C3232 1.396 . S
C3233 C3234 1.399 . S
C3234 H3220 0.929 . S
C3234 C3233 1.399 . S
C3234 C3235 1.385 . S
C3235 H3221 0.931 . S
C3235 C3234 1.385 . S
C3235 C3236 1.389 . S
C3236 C3235 1.389 . S
C3236 C3237 1.387 . S
C3237 H3222 0.930 . S
C3237 C3232 1.390 . S
C3237 C3236 1.387 . S
H3238 C3250 0.930 . S
H3239 C3252 0.930 . S
H3240 C3253 0.930 . S
H3241 C3257 0.959 . S
H3242 C3257 0.959 . S
H3243 C3257 0.961 . S
H3244 C3258 0.960 . S
H3245 C3258 0.961 . S
H3246 C3258 0.959 . S
H3247 C3261 0.929 . S
H3248 C3262 0.931 . S
H3249 C3264 0.930 . S
C3250 H3238 0.930 . S
C3250 C3251 1.399 . S
C3250 C3255 1.399 . S
C3251 C3250 1.399 . S
C3251 C3252 1.376 . S
C3252 H3239 0.930 . S
C3252 C3251 1.376 . S
C3252 C3253 1.388 . S
C3253 H3240 0.930 . S
C3253 C3252 1.388 . S
C3253 C3254 1.390 . S
C3254 C3253 1.390 . S
C3254 C3255 1.394 . S
C3254 C3260 1.465 . S
C3255 C3250 1.399 . S
C3255 C3254 1.394 . S
C3255 C3256 1.516 . S
C3256 C3255 1.516 . S
C3256 C3257 1.502 . S
C3256 C3258 1.561 . S
C3256 C3259 1.526 . S
C3257 H3241 0.959 . S
C3257 H3242 0.959 . S
C3257 H3243 0.961 . S
C3257 C3256 1.502 . S
C3258 H3244 0.960 . S
C3258 H3245 0.961 . S
C3258 H3246 0.959 . S
C3258 C3256 1.561 . S
C3259 C3256 1.526 . S
C3259 C3260 1.396 . S
C3259 C3264 1.390 . S
C3260 C3254 1.465 . S
C3260 C3259 1.396 . S
C3260 C3261 1.399 . S
C3261 H3247 0.929 . S
C3261 C3260 1.399 . S
C3261 C3262 1.385 . S
C3262 H3248 0.931 . S
C3262 C3261 1.385 . S
C3262 C3263 1.389 . S
C3263 C3262 1.389 . S
C3263 C3264 1.387 . S
C3264 H3249 0.930 . S
C3264 C3259 1.390 . S
C3264 C3263 1.387 . S
H3265 C3277 0.930 . S
H3266 C3279 0.930 . S
H3267 C3280 0.930 . S
H3268 C3284 0.959 . S
H3269 C3284 0.959 . S
H3270 C3284 0.961 . S
H3271 C3285 0.960 . S
H3272 C3285 0.961 . S
H3273 C3285 0.959 . S
H3274 C3288 0.929 . S
H3275 C3289 0.931 . S
H3276 C3291 0.930 . S
C3277 H3265 0.930 . S
C3277 C3278 1.399 . S
C3277 C3282 1.399 . S
C3278 C3277 1.399 . S
C3278 C3279 1.376 . S
C3279 H3266 0.930 . S
C3279 C3278 1.376 . S
C3279 C3280 1.388 . S
C3280 H3267 0.930 . S
C3280 C3279 1.388 . S
C3280 C3281 1.390 . S
C3281 C3280 1.390 . S
C3281 C3282 1.394 . S
C3281 C3287 1.465 . S
C3282 C3277 1.399 . S
C3282 C3281 1.394 . S
C3282 C3283 1.516 . S
C3283 C3282 1.516 . S
C3283 C3284 1.502 . S
C3283 C3285 1.561 . S
C3283 C3286 1.526 . S
C3284 H3268 0.959 . S
C3284 H3269 0.959 . S
C3284 H3270 0.961 . S
C3284 C3283 1.502 . S
C3285 H3271 0.960 . S
C3285 H3272 0.961 . S
C3285 H3273 0.959 . S
C3285 C3283 1.561 . S
C3286 C3283 1.526 . S
C3286 C3287 1.396 . S
C3286 C3291 1.390 . S
C3287 C3281 1.465 . S
C3287 C3286 1.396 . S
C3287 C3288 1.399 . S
C3288 H3274 0.929 . S
C3288 C3287 1.399 . S
C3288 C3289 1.385 . S
C3289 H3275 0.931 . S
C3289 C3288 1.385 . S
C3289 C3290 1.389 . S
C3290 C3289 1.389 . S
C3290 C3291 1.387 . S
C3291 H3276 0.930 . S
C3291 C3286 1.390 . S
C3291 C3290 1.387 . S
H3292 C3304 0.930 . S
H3293 C3306 0.930 . S
H3294 C3307 0.930 . S
H3295 C3311 0.959 . S
H3296 C3311 0.959 . S
H3297 C3311 0.961 . S
H3298 C3312 0.960 . S
H3299 C3312 0.961 . S
H3300 C3312 0.959 . S
H3301 C3315 0.929 . S
H3302 C3316 0.931 . S
H3303 C3318 0.930 . S
C3304 H3292 0.930 . S
C3304 C3305 1.399 . S
C3304 C3309 1.399 . S
C3305 C3304 1.399 . S
C3305 C3306 1.376 . S
C3306 H3293 0.930 . S
C3306 C3305 1.376 . S
C3306 C3307 1.388 . S
C3307 H3294 0.930 . S
C3307 C3306 1.388 . S
C3307 C3308 1.390 . S
C3308 C3307 1.390 . S
C3308 C3309 1.394 . S
C3308 C3314 1.465 . S
C3309 C3304 1.399 . S
C3309 C3308 1.394 . S
C3309 C3310 1.516 . S
C3310 C3309 1.516 . S
C3310 C3311 1.502 . S
C3310 C3312 1.561 . S
C3310 C3313 1.526 . S
C3311 H3295 0.959 . S
C3311 H3296 0.959 . S
C3311 H3297 0.961 . S
C3311 C3310 1.502 . S
C3312 H3298 0.960 . S
C3312 H3299 0.961 . S
C3312 H3300 0.959 . S
C3312 C3310 1.561 . S
C3313 C3310 1.526 . S
C3313 C3314 1.396 . S
C3313 C3318 1.390 . S
C3314 C3308 1.465 . S
C3314 C3313 1.396 . S
C3314 C3315 1.399 . S
C3315 H3301 0.929 . S
C3315 C3314 1.399 . S
C3315 C3316 1.385 . S
C3316 H3302 0.931 . S
C3316 C3315 1.385 . S
C3316 C3317 1.389 . S
C3317 C3316 1.389 . S
C3317 C3318 1.387 . S
C3318 H3303 0.930 . S
C3318 C3313 1.390 . S
C3318 C3317 1.387 . S
H3319 C3331 0.930 . S
H3320 C3333 0.930 . S
H3321 C3334 0.930 . S
H3322 C3338 0.959 . S
H3323 C3338 0.959 . S
H3324 C3338 0.961 . S
H3325 C3339 0.960 . S
H3326 C3339 0.961 . S
H3327 C3339 0.959 . S
H3328 C3342 0.929 . S
H3329 C3343 0.931 . S
H3330 C3345 0.930 . S
C3331 H3319 0.930 . S
C3331 C3332 1.399 . S
C3331 C3336 1.399 . S
C3332 C3331 1.399 . S
C3332 C3333 1.376 . S
C3333 H3320 0.930 . S
C3333 C3332 1.376 . S
C3333 C3334 1.388 . S
C3334 H3321 0.930 . S
C3334 C3333 1.388 . S
C3334 C3335 1.390 . S
C3335 C3334 1.390 . S
C3335 C3336 1.394 . S
C3335 C3341 1.465 . S
C3336 C3331 1.399 . S
C3336 C3335 1.394 . S
C3336 C3337 1.516 . S
C3337 C3336 1.516 . S
C3337 C3338 1.502 . S
C3337 C3339 1.561 . S
C3337 C3340 1.526 . S
C3338 H3322 0.959 . S
C3338 H3323 0.959 . S
C3338 H3324 0.961 . S
C3338 C3337 1.502 . S
C3339 H3325 0.960 . S
C3339 H3326 0.961 . S
C3339 H3327 0.959 . S
C3339 C3337 1.561 . S
C3340 C3337 1.526 . S
C3340 C3341 1.396 . S
C3340 C3345 1.390 . S
C3341 C3335 1.465 . S
C3341 C3340 1.396 . S
C3341 C3342 1.399 . S
C3342 H3328 0.929 . S
C3342 C3341 1.399 . S
C3342 C3343 1.385 . S
C3343 H3329 0.931 . S
C3343 C3342 1.385 . S
C3343 C3344 1.389 . S
C3344 C3343 1.389 . S
C3344 C3345 1.387 . S
C3345 H3330 0.930 . S
C3345 C3340 1.390 . S
C3345 C3344 1.387 . S
H3346 C3358 0.930 . S
H3347 C3360 0.930 . S
H3348 C3361 0.930 . S
H3349 C3365 0.959 . S
H3350 C3365 0.959 . S
H3351 C3365 0.961 . S
H3352 C3366 0.960 . S
H3353 C3366 0.961 . S
H3354 C3366 0.959 . S
H3355 C3369 0.929 . S
H3356 C3370 0.931 . S
H3357 C3372 0.930 . S
C3358 H3346 0.930 . S
C3358 C3359 1.399 . S
C3358 C3363 1.399 . S
C3359 C3358 1.399 . S
C3359 C3360 1.376 . S
C3360 H3347 0.930 . S
C3360 C3359 1.376 . S
C3360 C3361 1.388 . S
C3361 H3348 0.930 . S
C3361 C3360 1.388 . S
C3361 C3362 1.390 . S
C3362 C3361 1.390 . S
C3362 C3363 1.394 . S
C3362 C3368 1.465 . S
C3363 C3358 1.399 . S
C3363 C3362 1.394 . S
C3363 C3364 1.516 . S
C3364 C3363 1.516 . S
C3364 C3365 1.502 . S
C3364 C3366 1.561 . S
C3364 C3367 1.526 . S
C3365 H3349 0.959 . S
C3365 H3350 0.959 . S
C3365 H3351 0.961 . S
C3365 C3364 1.502 . S
C3366 H3352 0.960 . S
C3366 H3353 0.961 . S
C3366 H3354 0.959 . S
C3366 C3364 1.561 . S
C3367 C3364 1.526 . S
C3367 C3368 1.396 . S
C3367 C3372 1.390 . S
C3368 C3362 1.465 . S
C3368 C3367 1.396 . S
C3368 C3369 1.399 . S
C3369 H3355 0.929 . S
C3369 C3368 1.399 . S
C3369 C3370 1.385 . S
C3370 H3356 0.931 . S
C3370 C3369 1.385 . S
C3370 C3371 1.389 . S
C3371 C3370 1.389 . S
C3371 C3372 1.387 . S
C3372 H3357 0.930 . S
C3372 C3367 1.390 . S
C3372 C3371 1.387 . S
H3373 C3385 0.930 . S
H3374 C3387 0.930 . S
H3375 C3388 0.930 . S
H3376 C3392 0.959 . S
H3377 C3392 0.959 . S
H3378 C3392 0.961 . S
H3379 C3393 0.960 . S
H3380 C3393 0.961 . S
H3381 C3393 0.959 . S
H3382 C3396 0.929 . S
H3383 C3397 0.931 . S
H3384 C3399 0.930 . S
C3385 H3373 0.930 . S
C3385 C3386 1.399 . S
C3385 C3390 1.399 . S
C3386 C3385 1.399 . S
C3386 C3387 1.376 . S
C3387 H3374 0.930 . S
C3387 C3386 1.376 . S
C3387 C3388 1.388 . S
C3388 H3375 0.930 . S
C3388 C3387 1.388 . S
C3388 C3389 1.390 . S
C3389 C3388 1.390 . S
C3389 C3390 1.394 . S
C3389 C3395 1.465 . S
C3390 C3385 1.399 . S
C3390 C3389 1.394 . S
C3390 C3391 1.516 . S
C3391 C3390 1.516 . S
C3391 C3392 1.502 . S
C3391 C3393 1.561 . S
C3391 C3394 1.526 . S
C3392 H3376 0.959 . S
C3392 H3377 0.959 . S
C3392 H3378 0.961 . S
C3392 C3391 1.502 . S
C3393 H3379 0.960 . S
C3393 H3380 0.961 . S
C3393 H3381 0.959 . S
C3393 C3391 1.561 . S
C3394 C3391 1.526 . S
C3394 C3395 1.396 . S
C3394 C3399 1.390 . S
C3395 C3389 1.465 . S
C3395 C3394 1.396 . S
C3395 C3396 1.399 . S
C3396 H3382 0.929 . S
C3396 C3395 1.399 . S
C3396 C3397 1.385 . S
C3397 H3383 0.931 . S
C3397 C3396 1.385 . S
C3397 C3398 1.389 . S
C3398 C3397 1.389 . S
C3398 C3399 1.387 . S
C3399 H3384 0.930 . S
C3399 C3394 1.390 . S
C3399 C3398 1.387 . S
H3400 C3412 0.930 . S
H3401 C3414 0.930 . S
H3402 C3415 0.930 . S
H3403 C3419 0.959 . S
H3404 C3419 0.959 . S
H3405 C3419 0.961 . S
H3406 C3420 0.960 . S
H3407 C3420 0.961 . S
H3408 C3420 0.959 . S
H3409 C3423 0.929 . S
H3410 C3424 0.931 . S
H3411 C3426 0.930 . S
C3412 H3400 0.930 . S
C3412 C3413 1.399 . S
C3412 C3417 1.399 . S
C3413 C3412 1.399 . S
C3413 C3414 1.376 . S
C3414 H3401 0.930 . S
C3414 C3413 1.376 . S
C3414 C3415 1.388 . S
C3415 H3402 0.930 . S
C3415 C3414 1.388 . S
C3415 C3416 1.390 . S
C3416 C3415 1.390 . S
C3416 C3417 1.394 . S
C3416 C3422 1.465 . S
C3417 C3412 1.399 . S
C3417 C3416 1.394 . S
C3417 C3418 1.516 . S
C3418 C3417 1.516 . S
C3418 C3419 1.502 . S
C3418 C3420 1.561 . S
C3418 C3421 1.526 . S
C3419 H3403 0.959 . S
C3419 H3404 0.959 . S
C3419 H3405 0.961 . S
C3419 C3418 1.502 . S
C3420 H3406 0.960 . S
C3420 H3407 0.961 . S
C3420 H3408 0.959 . S
C3420 C3418 1.561 . S
C3421 C3418 1.526 . S
C3421 C3422 1.396 . S
C3421 C3426 1.390 . S
C3422 C3416 1.465 . S
C3422 C3421 1.396 . S
C3422 C3423 1.399 . S
C3423 H3409 0.929 . S
C3423 C3422 1.399 . S
C3423 C3424 1.385 . S
C3424 H3410 0.931 . S
C3424 C3423 1.385 . S
C3424 C3425 1.389 . S
C3425 C3424 1.389 . S
C3425 C3426 1.387 . S
C3426 H3411 0.930 . S
C3426 C3421 1.390 . S
C3426 C3425 1.387 . S
H3427 C3439 0.930 . S
H3428 C3441 0.930 . S
H3429 C3442 0.930 . S
H3430 C3446 0.959 . S
H3431 C3446 0.959 . S
H3432 C3446 0.961 . S
H3433 C3447 0.960 . S
H3434 C3447 0.961 . S
H3435 C3447 0.959 . S
H3436 C3450 0.929 . S
H3437 C3451 0.931 . S
H3438 C3453 0.930 . S
C3439 H3427 0.930 . S
C3439 C3440 1.399 . S
C3439 C3444 1.399 . S
C3440 C3439 1.399 . S
C3440 C3441 1.376 . S
C3441 H3428 0.930 . S
C3441 C3440 1.376 . S
C3441 C3442 1.388 . S
C3442 H3429 0.930 . S
C3442 C3441 1.388 . S
C3442 C3443 1.390 . S
C3443 C3442 1.390 . S
C3443 C3444 1.394 . S
C3443 C3449 1.465 . S
C3444 C3439 1.399 . S
C3444 C3443 1.394 . S
C3444 C3445 1.516 . S
C3445 C3444 1.516 . S
C3445 C3446 1.502 . S
C3445 C3447 1.561 . S
C3445 C3448 1.526 . S
C3446 H3430 0.959 . S
C3446 H3431 0.959 . S
C3446 H3432 0.961 . S
C3446 C3445 1.502 . S
C3447 H3433 0.960 . S
C3447 H3434 0.961 . S
C3447 H3435 0.959 . S
C3447 C3445 1.561 . S
C3448 C3445 1.526 . S
C3448 C3449 1.396 . S
C3448 C3453 1.390 . S
C3449 C3443 1.465 . S
C3449 C3448 1.396 . S
C3449 C3450 1.399 . S
C3450 H3436 0.929 . S
C3450 C3449 1.399 . S
C3450 C3451 1.385 . S
C3451 H3437 0.931 . S
C3451 C3450 1.385 . S
C3451 C3452 1.389 . S
C3452 C3451 1.389 . S
C3452 C3453 1.387 . S
C3453 H3438 0.930 . S
C3453 C3448 1.390 . S
C3453 C3452 1.387 . S
H3454 C3466 0.930 . S
H3455 C3468 0.930 . S
H3456 C3469 0.930 . S
H3457 C3473 0.959 . S
H3458 C3473 0.959 . S
H3459 C3473 0.961 . S
H3460 C3474 0.960 . S
H3461 C3474 0.961 . S
H3462 C3474 0.959 . S
H3463 C3477 0.929 . S
H3464 C3478 0.931 . S
H3465 C3480 0.930 . S
C3466 H3454 0.930 . S
C3466 C3467 1.399 . S
C3466 C3471 1.399 . S
C3467 C3466 1.399 . S
C3467 C3468 1.376 . S
C3468 H3455 0.930 . S
C3468 C3467 1.376 . S
C3468 C3469 1.388 . S
C3469 H3456 0.930 . S
C3469 C3468 1.388 . S
C3469 C3470 1.390 . S
C3470 C3469 1.390 . S
C3470 C3471 1.394 . S
C3470 C3476 1.465 . S
C3471 C3466 1.399 . S
C3471 C3470 1.394 . S
C3471 C3472 1.516 . S
C3472 C3471 1.516 . S
C3472 C3473 1.502 . S
C3472 C3474 1.561 . S
C3472 C3475 1.526 . S
C3473 H3457 0.959 . S
C3473 H3458 0.959 . S
C3473 H3459 0.961 . S
C3473 C3472 1.502 . S
C3474 H3460 0.960 . S
C3474 H3461 0.961 . S
C3474 H3462 0.959 . S
C3474 C3472 1.561 . S
C3475 C3472 1.526 . S
C3475 C3476 1.396 . S
C3475 C3480 1.390 . S
C3476 C3470 1.465 . S
C3476 C3475 1.396 . S
C3476 C3477 1.399 . S
C3477 H3463 0.929 . S
C3477 C3476 1.399 . S
C3477 C3478 1.385 . S
C3478 H3464 0.931 . S
C3478 C3477 1.385 . S
C3478 C3479 1.389 . S
C3479 C3478 1.389 . S
C3479 C3480 1.387 . S
C3480 H3465 0.930 . S
C3480 C3475 1.390 . S
C3480 C3479 1.387 . S
H3481 C3493 0.930 . S
H3482 C3495 0.930 . S
H3483 C3496 0.930 . S
H3484 C3500 0.959 . S
H3485 C3500 0.959 . S
H3486 C3500 0.961 . S
H3487 C3501 0.960 . S
H3488 C3501 0.961 . S
H3489 C3501 0.959 . S
H3490 C3504 0.929 . S
H3491 C3505 0.931 . S
H3492 C3507 0.930 . S
C3493 H3481 0.930 . S
C3493 C3494 1.399 . S
C3493 C3498 1.399 . S
C3494 C3493 1.399 . S
C3494 C3495 1.376 . S
C3495 H3482 0.930 . S
C3495 C3494 1.376 . S
C3495 C3496 1.388 . S
C3496 H3483 0.930 . S
C3496 C3495 1.388 . S
C3496 C3497 1.390 . S
C3497 C3496 1.390 . S
C3497 C3498 1.394 . S
C3497 C3503 1.465 . S
C3498 C3493 1.399 . S
C3498 C3497 1.394 . S
C3498 C3499 1.516 . S
C3499 C3498 1.516 . S
C3499 C3500 1.502 . S
C3499 C3501 1.561 . S
C3499 C3502 1.526 . S
C3500 H3484 0.959 . S
C3500 H3485 0.959 . S
C3500 H3486 0.961 . S
C3500 C3499 1.502 . S
C3501 H3487 0.960 . S
C3501 H3488 0.961 . S
C3501 H3489 0.959 . S
C3501 C3499 1.561 . S
C3502 C3499 1.526 . S
C3502 C3503 1.396 . S
C3502 C3507 1.390 . S
C3503 C3497 1.465 . S
C3503 C3502 1.396 . S
C3503 C3504 1.399 . S
C3504 H3490 0.929 . S
C3504 C3503 1.399 . S
C3504 C3505 1.385 . S
C3505 H3491 0.931 . S
C3505 C3504 1.385 . S
C3505 C3506 1.389 . S
C3506 C3505 1.389 . S
C3506 C3507 1.387 . S
C3507 H3492 0.930 . S
C3507 C3502 1.390 . S
C3507 C3506 1.387 . S
H3508 C3520 0.930 . S
H3509 C3522 0.930 . S
H3510 C3523 0.930 . S
H3511 C3527 0.959 . S
H3512 C3527 0.959 . S
H3513 C3527 0.961 . S
H3514 C3528 0.960 . S
H3515 C3528 0.961 . S
H3516 C3528 0.959 . S
H3517 C3531 0.929 . S
H3518 C3532 0.931 . S
H3519 C3534 0.930 . S
C3520 H3508 0.930 . S
C3520 C3521 1.399 . S
C3520 C3525 1.399 . S
C3521 C3520 1.399 . S
C3521 C3522 1.376 . S
C3522 H3509 0.930 . S
C3522 C3521 1.376 . S
C3522 C3523 1.388 . S
C3523 H3510 0.930 . S
C3523 C3522 1.388 . S
C3523 C3524 1.390 . S
C3524 C3523 1.390 . S
C3524 C3525 1.394 . S
C3524 C3530 1.465 . S
C3525 C3520 1.399 . S
C3525 C3524 1.394 . S
C3525 C3526 1.516 . S
C3526 C3525 1.516 . S
C3526 C3527 1.502 . S
C3526 C3528 1.561 . S
C3526 C3529 1.526 . S
C3527 H3511 0.959 . S
C3527 H3512 0.959 . S
C3527 H3513 0.961 . S
C3527 C3526 1.502 . S
C3528 H3514 0.960 . S
C3528 H3515 0.961 . S
C3528 H3516 0.959 . S
C3528 C3526 1.561 . S
C3529 C3526 1.526 . S
C3529 C3530 1.396 . S
C3529 C3534 1.390 . S
C3530 C3524 1.465 . S
C3530 C3529 1.396 . S
C3530 C3531 1.399 . S
C3531 H3517 0.929 . S
C3531 C3530 1.399 . S
C3531 C3532 1.385 . S
C3532 H3518 0.931 . S
C3532 C3531 1.385 . S
C3532 C3533 1.389 . S
C3533 C3532 1.389 . S
C3533 C3534 1.387 . S
C3534 H3519 0.930 . S
C3534 C3529 1.390 . S
C3534 C3533 1.387 . S
H3535 C3547 0.930 . S
H3536 C3549 0.930 . S
H3537 C3550 0.930 . S
H3538 C3554 0.959 . S
H3539 C3554 0.959 . S
H3540 C3554 0.961 . S
H3541 C3555 0.960 . S
H3542 C3555 0.961 . S
H3543 C3555 0.959 . S
H3544 C3558 0.929 . S
H3545 C3559 0.931 . S
H3546 C3561 0.930 . S
C3547 H3535 0.930 . S
C3547 C3548 1.399 . S
C3547 C3552 1.399 . S
C3548 C3547 1.399 . S
C3548 C3549 1.376 . S
C3549 H3536 0.930 . S
C3549 C3548 1.376 . S
C3549 C3550 1.388 . S
C3550 H3537 0.930 . S
C3550 C3549 1.388 . S
C3550 C3551 1.390 . S
C3551 C3550 1.390 . S
C3551 C3552 1.394 . S
C3551 C3557 1.465 . S
C3552 C3547 1.399 . S
C3552 C3551 1.394 . S
C3552 C3553 1.516 . S
C3553 C3552 1.516 . S
C3553 C3554 1.502 . S
C3553 C3555 1.561 . S
C3553 C3556 1.526 . S
C3554 H3538 0.959 . S
C3554 H3539 0.959 . S
C3554 H3540 0.961 . S
C3554 C3553 1.502 . S
C3555 H3541 0.960 . S
C3555 H3542 0.961 . S
C3555 H3543 0.959 . S
C3555 C3553 1.561 . S
C3556 C3553 1.526 . S
C3556 C3557 1.396 . S
C3556 C3561 1.390 . S
C3557 C3551 1.465 . S
C3557 C3556 1.396 . S
C3557 C3558 1.399 . S
C3558 H3544 0.929 . S
C3558 C3557 1.399 . S
C3558 C3559 1.385 . S
C3559 H3545 0.931 . S
C3559 C3558 1.385 . S
C3559 C3560 1.389 . S
C3560 C3559 1.389 . S
C3560 C3561 1.387 . S
C3561 H3546 0.930 . S
C3561 C3556 1.390 . S
C3561 C3560 1.387 . S
H3562 C3574 0.930 . S
H3563 C3576 0.930 . S
H3564 C3577 0.930 . S
H3565 C3581 0.959 . S
H3566 C3581 0.959 . S
H3567 C3581 0.961 . S
H3568 C3582 0.960 . S
H3569 C3582 0.961 . S
H3570 C3582 0.959 . S
H3571 C3585 0.929 . S
H3572 C3586 0.931 . S
H3573 C3588 0.930 . S
C3574 H3562 0.930 . S
C3574 C3575 1.399 . S
C3574 C3579 1.399 . S
C3575 C3574 1.399 . S
C3575 C3576 1.376 . S
C3576 H3563 0.930 . S
C3576 C3575 1.376 . S
C3576 C3577 1.388 . S
C3577 H3564 0.930 . S
C3577 C3576 1.388 . S
C3577 C3578 1.390 . S
C3578 C3577 1.390 . S
C3578 C3579 1.394 . S
C3578 C3584 1.465 . S
C3579 C3574 1.399 . S
C3579 C3578 1.394 . S
C3579 C3580 1.516 . S
C3580 C3579 1.516 . S
C3580 C3581 1.502 . S
C3580 C3582 1.561 . S
C3580 C3583 1.526 . S
C3581 H3565 0.959 . S
C3581 H3566 0.959 . S
C3581 H3567 0.961 . S
C3581 C3580 1.502 . S
C3582 H3568 0.960 . S
C3582 H3569 0.961 . S
C3582 H3570 0.959 . S
C3582 C3580 1.561 . S
C3583 C3580 1.526 . S
C3583 C3584 1.396 . S
C3583 C3588 1.390 . S
C3584 C3578 1.465 . S
C3584 C3583 1.396 . S
C3584 C3585 1.399 . S
C3585 H3571 0.929 . S
C3585 C3584 1.399 . S
C3585 C3586 1.385 . S
C3586 H3572 0.931 . S
C3586 C3585 1.385 . S
C3586 C3587 1.389 . S
C3587 C3586 1.389 . S
C3587 C3588 1.387 . S
C3588 H3573 0.930 . S
C3588 C3583 1.390 . S
C3588 C3587 1.387 . S
H3589 C3601 0.930 . S
H3590 C3603 0.930 . S
H3591 C3604 0.930 . S
H3592 C3608 0.959 . S
H3593 C3608 0.959 . S
H3594 C3608 0.961 . S
H3595 C3609 0.960 . S
H3596 C3609 0.961 . S
H3597 C3609 0.959 . S
H3598 C3612 0.929 . S
H3599 C3613 0.931 . S
H3600 C3615 0.930 . S
C3601 H3589 0.930 . S
C3601 C3602 1.399 . S
C3601 C3606 1.399 . S
C3602 C3601 1.399 . S
C3602 C3603 1.376 . S
C3603 H3590 0.930 . S
C3603 C3602 1.376 . S
C3603 C3604 1.388 . S
C3604 H3591 0.930 . S
C3604 C3603 1.388 . S
C3604 C3605 1.390 . S
C3605 C3604 1.390 . S
C3605 C3606 1.394 . S
C3605 C3611 1.465 . S
C3606 C3601 1.399 . S
C3606 C3605 1.394 . S
C3606 C3607 1.516 . S
C3607 C3606 1.516 . S
C3607 C3608 1.502 . S
C3607 C3609 1.561 . S
C3607 C3610 1.526 . S
C3608 H3592 0.959 . S
C3608 H3593 0.959 . S
C3608 H3594 0.961 . S
C3608 C3607 1.502 . S
C3609 H3595 0.960 . S
C3609 H3596 0.961 . S
C3609 H3597 0.959 . S
C3609 C3607 1.561 . S
C3610 C3607 1.526 . S
C3610 C3611 1.396 . S
C3610 C3615 1.390 . S
C3611 C3605 1.465 . S
C3611 C3610 1.396 . S
C3611 C3612 1.399 . S
C3612 H3598 0.929 . S
C3612 C3611 1.399 . S
C3612 C3613 1.385 . S
C3613 H3599 0.931 . S
C3613 C3612 1.385 . S
C3613 C3614 1.389 . S
C3614 C3613 1.389 . S
C3614 C3615 1.387 . S
C3615 H3600 0.930 . S
C3615 C3610 1.390 . S
C3615 C3614 1.387 . S
C1901 C937 1.594 . S
C1913 C52 1.593 . S
C1928 C111 1.593 . S
C1940 C760 1.593 . S
C1955 C170 1.578 . S
C1967 C819 1.577 . S
C1982 C878 1.589 . S
C1994 C229 1.592 . S
C2009 C288 1.592 . S
C2021 C583 1.593 . S
C2036 C347 1.580 . S
C2048 C642 1.579 . S
C2063 C701 1.578 . S
C2075 C406 1.577 . S
C2090 C524 1.591 . S
C2102 C465 1.593 . S
C2117 C996 1.577 . S
C2129 C1881 1.577 . S
C2144 C1055 1.577 . S
C2156 C1704 1.577 . S
C2171 C1114 1.592 . S
C2183 C1763 1.593 . S
C2198 C1822 1.585 . S
C2210 C1173 1.583 . S
C2225 C1232 1.593 . S
C2237 C1527 1.592 . S
C2252 C1291 1.593 . S
C2264 C1586 1.594 . S
C2279 C1645 1.589 . S
C2291 C1350 1.587 . S
C2306 C1409 1.578 . S
C2318 C1468 1.580 . S
C2333 C713 1.536 . S
C2345 C5 1.539 . S
C2360 C64 1.527 . S
C2372 C772 1.526 . S
C2387 C831 1.528 . S
C2399 C123 1.526 . S
C2414 C182 1.526 . S
C2426 C890 1.525 . S
C2441 C241 1.526 . S
C2453 C477 1.525 . S
C2468 C536 1.539 . S
C2480 C300 1.541 . S
C2495 C595 1.538 . S
C2507 C359 1.540 . S
C2522 C654 1.537 . S
C2534 C418 1.540 . S
C2549 C949 1.540 . S
C2561 C1657 1.542 . S
C2576 C1716 1.540 . S
C2588 C1008 1.542 . S
C2603 C1067 1.542 . S
C2615 C1775 1.542 . S
C2630 C1126 1.524 . S
C2642 C1834 1.525 . S
C2657 C1421 1.539 . S
C2669 C1185 1.541 . S
C2684 C1244 1.525 . S
C2696 C1480 1.525 . S
C2711 C1303 1.524 . S
C2723 C1539 1.525 . S
C2738 C1362 1.536 . S
C2750 C1598 1.539 . S
C2765 C33 1.340 . S
C2777 C623 1.340 . S
C2792 C682 1.340 . S
C2804 C92 1.338 . S
C2819 C151 1.306 . S
C2831 C505 1.307 . S
C2846 C564 1.306 . S
C2858 C210 1.309 . S
C2873 C859 1.328 . S
C2885 C269 1.332 . S
C2900 C918 1.339 . S
C2912 C328 1.337 . S
C2927 C741 1.320 . S
C2939 C387 1.316 . S
C2954 C446 1.306 . S
C2966 C800 1.308 . S
C2981 C1567 1.317 . S
C2993 C977 1.313 . S
C3008 C1036 1.313 . S
C3020 C1626 1.318 . S
C3035 C1449 1.319 . S
C3047 C1095 1.314 . S
C3062 C1508 1.339 . S
C3074 C1154 1.337 . S
C3089 C1213 1.306 . S
C3101 C1803 1.306 . S
C3116 C1272 1.328 . S
C3128 C1862 1.323 . S
C3143 C1685 1.324 . S
C3155 C1331 1.330 . S
C3170 C1744 1.306 . S
C3182 C1390 1.309 . S
C3197 C1360 1.326 . S
C3209 C3 1.323 . S
C3224 C1183 1.377 . S
C3236 C62 1.362 . S
C3251 C1242 1.357 . S
C3263 C121 1.326 . S
C3278 C1301 1.322 . S
C3290 C180 1.327 . S
C3305 C1006 1.333 . S
C3317 C239 1.365 . S
C3332 C298 1.339 . S
C3344 C1065 1.370 . S
C3359 C357 1.326 . S
C3371 C1124 1.323 . S
C3386 C416 1.330 . S
C3398 C947 1.363 . S
C3413 C475 1.331 . S
C3425 C1832 1.346 . S
C3440 C1655 1.336 . S
C3452 C534 1.352 . S
C3467 C593 1.319 . S
C3479 C1714 1.322 . S
C3494 C652 1.377 . S
C3506 C1773 1.371 . S
C3521 C1478 1.375 . S
C3533 C711 1.377 . S
C3548 C1537 1.368 . S
C3560 C770 1.354 . S
C3575 C829 1.337 . S
C3587 C1596 1.353 . S
C3602 C888 1.319 . S
C3614 C1419 1.324 . S
