# Generated by pormake.
# Topology neb, (4)-cn, num edge types: 1
# Building blocks:
#     Node 0, Type 0, BuildingBlock: TATPOV_clean_sbu_0, # of connection points: 4
#     Node 1, Type 0, BuildingBlock: TATPOV_clean_sbu_0, # of connection points: 4
#     Node 2, Type 0, BuildingBlock: TATPOV_clean_sbu_0, # of connection points: 4
#     Node 3, Type 0, BuildingBlock: TATPOV_clean_sbu_0, # of connection points: 4
#     Node 4, Type 0, BuildingBlock: TATPOV_clean_sbu_0, # of connection points: 4
#     Node 5, Type 0, BuildingBlock: TATPOV_clean_sbu_0, # of connection points: 4
#     Node 6, Type 0, BuildingBlock: TATPOV_clean_sbu_0, # of connection points: 4
#     Node 7, Type 0, BuildingBlock: TATPOV_clean_sbu_0, # of connection points: 4
#     Node 8, Type 0, BuildingBlock: TATPOV_clean_sbu_0, # of connection points: 4
#     Node 9, Type 0, BuildingBlock: TATPOV_clean_sbu_0, # of connection points: 4
#     Node 10, Type 0, BuildingBlock: TATPOV_clean_sbu_0, # of connection points: 4
#     Node 11, Type 0, BuildingBlock: TATPOV_clean_sbu_0, # of connection points: 4
#     Node 12, Type 0, BuildingBlock: TATPOV_clean_sbu_0, # of connection points: 4
#     Node 13, Type 0, BuildingBlock: TATPOV_clean_sbu_0, # of connection points: 4
#     Node 14, Type 0, BuildingBlock: TATPOV_clean_sbu_0, # of connection points: 4
#     Node 15, Type 0, BuildingBlock: TATPOV_clean_sbu_0, # of connection points: 4
#     Edge 16, Type (0, 0), BuildingBlock: TEMPAE_clean_linker_10, # of connection points: 2
#     Edge 17, Type (0, 0), BuildingBlock: TEMPAE_clean_linker_10, # of connection points: 2
#     Edge 18, Type (0, 0), BuildingBlock: TEMPAE_clean_linker_10, # of connection points: 2
#     Edge 19, Type (0, 0), BuildingBlock: TEMPAE_clean_linker_10, # of connection points: 2
#     Edge 20, Type (0, 0), BuildingBlock: TEMPAE_clean_linker_10, # of connection points: 2
#     Edge 21, Type (0, 0), BuildingBlock: TEMPAE_clean_linker_10, # of connection points: 2
#     Edge 22, Type (0, 0), BuildingBlock: TEMPAE_clean_linker_10, # of connection points: 2
#     Edge 23, Type (0, 0), BuildingBlock: TEMPAE_clean_linker_10, # of connection points: 2
#     Edge 24, Type (0, 0), BuildingBlock: TEMPAE_clean_linker_10, # of connection points: 2
#     Edge 25, Type (0, 0), BuildingBlock: TEMPAE_clean_linker_10, # of connection points: 2
#     Edge 26, Type (0, 0), BuildingBlock: TEMPAE_clean_linker_10, # of connection points: 2
#     Edge 27, Type (0, 0), BuildingBlock: TEMPAE_clean_linker_10, # of connection points: 2
#     Edge 28, Type (0, 0), BuildingBlock: TEMPAE_clean_linker_10, # of connection points: 2
#     Edge 29, Type (0, 0), BuildingBlock: TEMPAE_clean_linker_10, # of connection points: 2
#     Edge 30, Type (0, 0), BuildingBlock: TEMPAE_clean_linker_10, # of connection points: 2
#     Edge 31, Type (0, 0), BuildingBlock: TEMPAE_clean_linker_10, # of connection points: 2
#     Edge 32, Type (0, 0), BuildingBlock: TEMPAE_clean_linker_10, # of connection points: 2
#     Edge 33, Type (0, 0), BuildingBlock: TEMPAE_clean_linker_10, # of connection points: 2
#     Edge 34, Type (0, 0), BuildingBlock: TEMPAE_clean_linker_10, # of connection points: 2
#     Edge 35, Type (0, 0), BuildingBlock: TEMPAE_clean_linker_10, # of connection points: 2
#     Edge 36, Type (0, 0), BuildingBlock: TEMPAE_clean_linker_10, # of connection points: 2
#     Edge 37, Type (0, 0), BuildingBlock: TEMPAE_clean_linker_10, # of connection points: 2
#     Edge 38, Type (0, 0), BuildingBlock: TEMPAE_clean_linker_10, # of connection points: 2
#     Edge 39, Type (0, 0), BuildingBlock: TEMPAE_clean_linker_10, # of connection points: 2
#     Edge 40, Type (0, 0), BuildingBlock: TEMPAE_clean_linker_10, # of connection points: 2
#     Edge 41, Type (0, 0), BuildingBlock: TEMPAE_clean_linker_10, # of connection points: 2
#     Edge 42, Type (0, 0), BuildingBlock: TEMPAE_clean_linker_10, # of connection points: 2
#     Edge 43, Type (0, 0), BuildingBlock: TEMPAE_clean_linker_10, # of connection points: 2
#     Edge 44, Type (0, 0), BuildingBlock: TEMPAE_clean_linker_10, # of connection points: 2
#     Edge 45, Type (0, 0), BuildingBlock: TEMPAE_clean_linker_10, # of connection points: 2
#     Edge 46, Type (0, 0), BuildingBlock: TEMPAE_clean_linker_10, # of connection points: 2
#     Edge 47, Type (0, 0), BuildingBlock: TEMPAE_clean_linker_10, # of connection points: 2
# Relax obj value: 0.060
# Max RMSD: 0.117
# Mean RMSD: 0.117
data_MOF--net-neb--node1-TATPOV_clean_sbu_0--edge1-TEMPAE_clean_linker_10
_symmetry_space_group_name_H-M    P1
_symmetry_Int_Tables_number       1
_symmetry_cell_setting            triclinic
loop_
_symmetry_equiv_pos_as_xyz
'x, y, z'
_cell_length_a     46.458403
_cell_length_b     22.01684
_cell_length_c     71.491344
_cell_angle_alpha  90.016193
_cell_angle_beta   94.531011
_cell_angle_gamma 90.042013
loop_
_atom_site_label
_atom_site_type_symbol
_atom_site_fract_x
_atom_site_fract_y
_atom_site_fract_z
_atom_type_partial_charge
Zn0 Zn 0.19724 0.01585 0.43104 0.0
Zn1 Zn 0.1487 0.02694 0.4489 0.0
O2 O 0.17986 0.07339 0.46554 0.0
O3 O 0.21985 0.064 0.45112 0.0
O4 O 0.11366 0.02542 0.46425 0.0
O5 O 0.1968 0.92506 0.43178 0.0
O6 O 0.15387 0.93635 0.44226 0.0
C7 C 0.20665 0.08465 0.46457 0.0
C8 C 0.14964 0.08098 0.41035 0.0
O9 O 0.13675 0.07548 0.42534 0.0
O10 O 0.17453 0.05835 0.40916 0.0
C11 C 0.09009 0.00148 0.45759 0.0
O12 O 0.08855 0.97973 0.44042 0.0
C13 C 0.17327 0.90228 0.43616 0.0
Zn14 Zn 0.07469 0.02229 0.81984 0.0
Zn15 Zn 0.12449 0.03033 0.80374 0.0
O16 O 0.09507 0.07977 0.78642 0.0
O17 O 0.05382 0.07162 0.79949 0.0
O18 O 0.16018 0.02272 0.78895 0.0
O19 O 0.07278 0.93183 0.81931 0.0
O20 O 0.11694 0.94038 0.8106 0.0
C21 C 0.06826 0.09225 0.78663 0.0
C22 C 0.12187 0.08476 0.84202 0.0
O23 O 0.13599 0.07864 0.82755 0.0
O24 O 0.09653 0.06344 0.84227 0.0
C25 C 0.1807 0.06101 0.78865 0.0
O26 O 0.17955 0.11126 0.79848 0.0
C27 C 0.09647 0.90757 0.81596 0.0
Zn28 Zn 0.81952 0.9823 0.57265 0.0
Zn29 Zn 0.86766 0.97509 0.55422 0.0
O30 O 0.83696 0.92696 0.53772 0.0
O31 O 0.79729 0.93327 0.55263 0.0
O32 O 0.90216 0.98158 0.53848 0.0
O33 O 0.81826 0.07306 0.57224 0.0
O34 O 0.86104 0.06479 0.56135 0.0
C35 C 0.81041 0.91392 0.53897 0.0
C36 C 0.86865 0.91974 0.59264 0.0
O37 O 0.88104 0.92642 0.57751 0.0
O38 O 0.84352 0.94074 0.59416 0.0
C39 C 0.92107 0.9404 0.53704 0.0
O40 O 0.91853 0.88894 0.54607 0.0
C41 C 0.84135 0.09744 0.56773 0.0
Zn42 Zn 0.94524 0.97733 0.18209 0.0
Zn43 Zn 0.8951 0.97143 0.19807 0.0
O44 O 0.9239 0.92143 0.2155 0.0
O45 O 0.96544 0.92771 0.2027 0.0
O46 O 0.85936 0.97934 0.2127 0.0
O47 O 0.94751 0.06783 0.18254 0.0
O48 O 0.90331 0.06108 0.1913 0.0
C49 C 0.9506 0.90795 0.21549 0.0
C50 C 0.89761 0.91624 0.15989 0.0
O51 O 0.88344 0.92331 0.17429 0.0
O52 O 0.92317 0.93642 0.15967 0.0
C53 C 0.84034 0.93835 0.21419 0.0
O54 O 0.84325 0.886 0.20571 0.0
C55 C 0.92405 0.09303 0.18591 0.0
Zn56 Zn 0.19198 0.51963 0.92617 0.0
Zn57 Zn 0.1473 0.53205 0.94571 0.0
O58 O 0.17998 0.57837 0.96154 0.0
O59 O 0.21521 0.57795 0.94265 0.0
O60 O 0.11309 0.53091 0.962 0.0
O61 O 0.19529 0.42948 0.92936 0.0
O62 O 0.15202 0.44108 0.93917 0.0
C63 C 0.20508 0.59562 0.95762 0.0
C64 C 0.14408 0.57988 0.906 0.0
O65 O 0.13377 0.58034 0.92202 0.0
O66 O 0.16759 0.55272 0.90378 0.0
C67 C 0.09028 0.50174 0.95648 0.0
O68 O 0.08905 0.47484 0.94003 0.0
C69 C 0.17172 0.40664 0.93363 0.0
Zn70 Zn 0.067 0.51426 0.32819 0.0
Zn71 Zn 0.11161 0.52657 0.30783 0.0
O72 O 0.07876 0.57193 0.2922 0.0
O73 O 0.04358 0.57108 0.31115 0.0
O74 O 0.14493 0.52239 0.29097 0.0
O75 O 0.06467 0.42349 0.3256 0.0
O76 O 0.10712 0.43633 0.31468 0.0
C77 C 0.0536 0.58854 0.2961 0.0
C78 C 0.11585 0.57625 0.34731 0.0
O79 O 0.12585 0.57548 0.3312 0.0
O80 O 0.09226 0.54977 0.34989 0.0
C81 C 0.16637 0.55851 0.2913 0.0
O82 O 0.16753 0.60466 0.30299 0.0
C83 C 0.08809 0.40139 0.32079 0.0
Zn84 Zn 0.82765 0.48034 0.07697 0.0
Zn85 Zn 0.87128 0.46836 0.0566 0.0
O86 O 0.83827 0.42061 0.04149 0.0
O87 O 0.80406 0.42104 0.06114 0.0
O88 O 0.90442 0.47248 0.03944 0.0
O89 O 0.82332 0.57021 0.07365 0.0
O90 O 0.86624 0.55915 0.06329 0.0
C91 C 0.81354 0.40296 0.046 0.0
C92 C 0.87664 0.42155 0.0964 0.0
O93 O 0.88616 0.42074 0.08015 0.0
O94 O 0.85321 0.44849 0.09901 0.0
C95 C 0.92649 0.43802 0.04035 0.0
O96 O 0.92844 0.39407 0.05281 0.0
C97 C 0.84661 0.59336 0.06904 0.0
Zn98 Zn 0.94883 0.48414 0.67464 0.0
Zn99 Zn 0.90471 0.47512 0.69536 0.0
O100 O 0.93692 0.42832 0.71126 0.0
O101 O 0.97138 0.42624 0.69176 0.0
O102 O 0.87065 0.48298 0.71143 0.0
O103 O 0.95298 0.57466 0.67691 0.0
O104 O 0.91059 0.5647 0.68813 0.0
C105 C 0.96166 0.4099 0.70702 0.0
C106 C 0.89918 0.42432 0.65602 0.0
O107 O 0.88972 0.42569 0.67228 0.0
O108 O 0.92282 0.44997 0.65308 0.0
C109 C 0.85459 0.44015 0.71648 0.0
O110 O 0.86035 0.38407 0.71173 0.0
C111 C 0.92996 0.59832 0.68181 0.0
Zn112 Zn 0.69632 0.01374 0.93562 0.0
Zn113 Zn 0.6453 0.03488 0.94941 0.0
O114 O 0.67524 0.07866 0.96778 0.0
O115 O 0.71736 0.05954 0.95684 0.0
O116 O 0.60743 0.03759 0.96192 0.0
O117 O 0.69258 0.92316 0.93623 0.0
O118 O 0.64833 0.94362 0.94305 0.0
C119 C 0.70264 0.08491 0.96878 0.0
C120 C 0.65508 0.08623 0.91155 0.0
O121 O 0.63915 0.08367 0.92525 0.0
O122 O 0.67927 0.05921 0.91238 0.0
C123 C 0.60498 0.00334 0.97607 0.0
O124 O 0.62734 0.97062 0.98234 0.0
C125 C 0.66724 0.90544 0.93858 0.0
Zn126 Zn 0.57492 0.02378 0.32885 0.0
Zn127 Zn 0.61773 0.02982 0.30753 0.0
O128 O 0.58534 0.07903 0.29254 0.0
O129 O 0.55259 0.08554 0.31311 0.0
O130 O 0.65072 0.02571 0.29038 0.0
O131 O 0.56846 0.93449 0.32529 0.0
O132 O 0.61089 0.93934 0.31381 0.0
C133 C 0.56154 0.10037 0.29749 0.0
C134 C 0.62566 0.07716 0.34739 0.0
O135 O 0.63417 0.07674 0.33086 0.0
O136 O 0.60192 0.05252 0.35062 0.0
C137 C 0.67454 0.00122 0.29632 0.0
O138 O 0.67731 0.98039 0.3136 0.0
C139 C 0.5905 0.90804 0.31993 0.0
Zn140 Zn 0.31687 0.97866 0.07231 0.0
Zn141 Zn 0.36844 0.9631 0.0582 0.0
O142 O 0.33938 0.91872 0.03939 0.0
O143 O 0.29701 0.93296 0.05058 0.0
O144 O 0.40677 0.96636 0.04617 0.0
O145 O 0.3189 0.06953 0.07244 0.0
O146 O 0.36333 0.05328 0.06517 0.0
C147 C 0.31212 0.91026 0.03837 0.0
C148 C 0.35972 0.90795 0.09574 0.0
O149 O 0.37544 0.91277 0.08199 0.0
O150 O 0.33506 0.93296 0.09517 0.0
C151 C 0.41393 0.93519 0.03227 0.0
O152 O 0.39585 0.89437 0.0248 0.0
C153 C 0.34386 0.0895 0.07006 0.0
Zn154 Zn 0.44776 0.97044 0.67598 0.0
Zn155 Zn 0.40449 0.96189 0.69694 0.0
O156 O 0.43715 0.9135 0.71205 0.0
O157 O 0.47062 0.91013 0.6919 0.0
O158 O 0.37101 0.96507 0.7138 0.0
O159 O 0.45315 0.05999 0.67945 0.0
O160 O 0.41069 0.05272 0.69077 0.0
C161 C 0.46144 0.89397 0.70733 0.0
C162 C 0.39789 0.91466 0.65701 0.0
O163 O 0.38889 0.9148 0.67341 0.0
O164 O 0.42154 0.94012 0.65404 0.0
C165 C 0.34769 0.99154 0.70783 0.0
O166 O 0.34579 0.01436 0.69079 0.0
C167 C 0.43075 0.08518 0.68474 0.0
Zn168 Zn 0.69182 0.52496 0.42589 0.0
Zn169 Zn 0.64778 0.52863 0.44648 0.0
O170 O 0.67913 0.57863 0.46213 0.0
O171 O 0.71293 0.58682 0.44232 0.0
O172 O 0.61434 0.52079 0.46322 0.0
O173 O 0.69874 0.43566 0.42911 0.0
O174 O 0.65585 0.43891 0.43998 0.0
C175 C 0.70308 0.60085 0.45774 0.0
C176 C 0.64122 0.57716 0.4067 0.0
O177 O 0.63186 0.57556 0.423 0.0
O178 O 0.6654 0.55384 0.40388 0.0
C179 C 0.59371 0.55865 0.4637 0.0
O180 O 0.5937 0.60736 0.45308 0.0
C181 C 0.67662 0.4084 0.43405 0.0
Zn182 Zn 0.57869 0.51337 0.82064 0.0
Zn183 Zn 0.62994 0.53435 0.80693 0.0
O184 O 0.60016 0.57748 0.7883 0.0
O185 O 0.55798 0.55847 0.79917 0.0
O186 O 0.66821 0.53693 0.79487 0.0
O187 O 0.58261 0.42286 0.82016 0.0
O188 O 0.62684 0.44309 0.81319 0.0
C189 C 0.57275 0.58343 0.78718 0.0
C190 C 0.61963 0.58633 0.84473 0.0
O191 O 0.63568 0.58343 0.8311 0.0
O192 O 0.59542 0.55934 0.84386 0.0
C193 C 0.66922 0.52299 0.77765 0.0
O194 O 0.64499 0.51067 0.76762 0.0
C195 C 0.60789 0.40502 0.81772 0.0
Zn196 Zn 0.32818 0.46929 0.57803 0.0
Zn197 Zn 0.3724 0.46246 0.55765 0.0
O198 O 0.34042 0.41435 0.54195 0.0
O199 O 0.30624 0.40864 0.56157 0.0
O200 O 0.40622 0.46589 0.54115 0.0
O201 O 0.32289 0.55903 0.57465 0.0
O202 O 0.3658 0.55295 0.56388 0.0
C203 C 0.31608 0.39377 0.54622 0.0
C204 C 0.37785 0.41427 0.59748 0.0
O205 O 0.38742 0.4151 0.58124 0.0
O206 O 0.35393 0.43898 0.60017 0.0
C207 C 0.42939 0.49333 0.54694 0.0
O208 O 0.43115 0.51764 0.56378 0.0
C209 C 0.34541 0.58483 0.56973 0.0
Zn210 Zn 0.44009 0.48123 0.18507 0.0
Zn211 Zn 0.39074 0.46264 0.20131 0.0
O212 O 0.42226 0.419 0.21846 0.0
O213 O 0.46304 0.43544 0.2055 0.0
O214 O 0.35502 0.4611 0.21606 0.0
O215 O 0.43717 0.57194 0.18564 0.0
O216 O 0.39383 0.55358 0.19458 0.0
C217 C 0.44948 0.41157 0.21829 0.0
C218 C 0.39564 0.40987 0.16305 0.0
O219 O 0.38137 0.41325 0.17753 0.0
O220 O 0.41998 0.43589 0.16273 0.0
C221 C 0.33218 0.48874 0.2098 0.0
O222 O 0.33169 0.51499 0.19328 0.0
C223 C 0.41246 0.59078 0.18912 0.0
C224 C 0.28473 0.30246 0.54257 0.0
C225 C 0.30008 0.3486 0.53418 0.0
C226 C 0.26969 0.25796 0.53172 0.0
C227 C 0.26919 0.2608 0.51194 0.0
C228 C 0.28436 0.3078 0.50334 0.0
C229 C 0.3001 0.35063 0.51461 0.0
C230 C 0.25465 0.20749 0.54145 0.0
C231 C 0.28366 0.31321 0.48226 0.0
C232 C 0.25152 0.11895 0.483 0.0
C233 C 0.22196 0.12662 0.47803 0.0
C234 C 0.26703 0.16165 0.49436 0.0
C235 C 0.25284 0.21432 0.5003 0.0
C236 C 0.22295 0.22219 0.49533 0.0
C237 C 0.20775 0.17766 0.4845 0.0
C238 C 0.29862 0.15052 0.49993 0.0
C239 C 0.20722 0.27843 0.50101 0.0
H240 H 0.28501 0.30035 0.55774 0.0
H241 H 0.31188 0.38644 0.50814 0.0
H242 H 0.23112 0.20878 0.5374 0.0
H243 H 0.26272 0.16278 0.53697 0.0
H244 H 0.25803 0.21065 0.55698 0.0
H245 H 0.29568 0.35364 0.47779 0.0
H246 H 0.29318 0.27204 0.47629 0.0
H247 H 0.26096 0.31632 0.4762 0.0
H248 H 0.2625 0.07942 0.47798 0.0
H249 H 0.18498 0.18408 0.4804 0.0
H250 H 0.30267 0.15237 0.51543 0.0
H251 H 0.31189 0.18665 0.49405 0.0
H252 H 0.30604 0.10581 0.49494 0.0
H253 H 0.20847 0.28235 0.51652 0.0
H254 H 0.18411 0.27826 0.49565 0.0
H255 H 0.2177 0.31944 0.49559 0.0
C256 C 0.94873 0.00581 0.51589 0.0
C257 C 0.94585 0.95067 0.52544 0.0
C258 C 0.97208 0.01611 0.50491 0.0
C259 C 0.99313 0.97024 0.5034 0.0
C260 C 0.9904 0.91458 0.51305 0.0
C261 C 0.96684 0.90547 0.52392 0.0
C262 C 0.97415 0.07605 0.49484 0.0
C263 C 0.01236 0.86449 0.51182 0.0
C264 C 0.03888 0.97089 0.46148 0.0
C265 C 0.06504 0.99564 0.46921 0.0
C266 C 0.01527 0.96302 0.47238 0.0
C267 C 0.0178 0.98007 0.49154 0.0
C268 C 0.04403 0.00564 0.4994 0.0
C269 C 0.06729 0.01322 0.48815 0.0
C270 C 0.98767 0.93587 0.46342 0.0
C271 C 0.04763 0.02433 0.51977 0.0
H272 H 0.93269 0.04109 0.51696 0.0
H273 H 0.96488 0.86274 0.53124 0.0
H274 H 0.9949 0.09869 0.49931 0.0
H275 H 0.97386 0.06825 0.47949 0.0
H276 H 0.95618 0.10727 0.49757 0.0
H277 H 1.00735 0.82417 0.52033 0.0
H278 H 0.01323 0.85006 0.49701 0.0
H279 H 0.03417 0.88139 0.51673 0.0
H280 H 0.03684 0.95726 0.44687 0.0
H281 H 0.08738 0.03231 0.49428 0.0
H282 H 0.96936 0.96729 0.465 0.0
H283 H 0.98274 0.89291 0.47063 0.0
H284 H 0.98895 0.9262 0.44826 0.0
H285 H 0.03081 0.05791 0.52278 0.0
H286 H 0.0692 0.04451 0.52368 0.0
H287 H 0.04472 0.98429 0.52886 0.0
C288 C 0.29761 0.02707 0.71289 0.0
C289 C 0.32326 -0.00131 0.71996 0.0
C290 C 0.27452 0.03597 0.72417 0.0
C291 C 0.27702 0.01616 0.74307 0.0
C292 C 0.30275 0.98701 0.75029 0.0
C293 C 0.32553 0.97857 0.73865 0.0
C294 C 0.24749 0.06707 0.71588 0.0
C295 C 0.3063 0.96521 0.77035 0.0
C296 C 0.22793 0.09176 0.77652 0.0
C297 C 0.20563 0.04896 0.77728 0.0
C298 C 0.25143 0.08132 0.76566 0.0
C299 C 0.25279 0.02668 0.75529 0.0
C300 C 0.23051 0.98303 0.75614 0.0
C301 C 0.20724 0.99467 0.76709 0.0
C302 C 0.27466 0.12912 0.76514 0.0
C303 C 0.23109 0.92421 0.74531 0.0
H304 H 0.29553 0.04276 0.69848 0.0
H305 H 0.34523 0.95665 0.74428 0.0
H306 H 0.2285 0.03719 0.71709 0.0
H307 H 0.24371 0.10926 0.72381 0.0
H308 H 0.24876 0.07899 0.70087 0.0
H309 H 0.32742 0.94255 0.77376 0.0
H310 H 0.3045 0.00416 0.78004 0.0
H311 H 0.28879 0.93282 0.77303 0.0
H312 H 0.22698 0.1338 0.78433 0.0
H313 H 0.19022 0.96117 0.76758 0.0
H314 H 0.27567 0.14592 0.75057 0.0
H315 H 0.29605 0.10917 0.76956 0.0
H316 H 0.27087 0.16842 0.77438 0.0
H317 H 0.23057 0.9339 0.73006 0.0
H318 H 0.21258 0.89418 0.74786 0.0
H319 H 0.25144 0.89937 0.74925 0.0
C320 C 0.06887 0.18825 0.76818 0.0
C321 C 0.05425 0.13571 0.77312 0.0
C322 C 0.05437 0.23449 0.75768 0.0
C323 C 0.02485 0.22689 0.75149 0.0
C324 C 0.01037 0.17265 0.7558 0.0
C325 C 0.02512 0.1282 0.76686 0.0
C326 C 0.07036 0.29226 0.75375 0.0
C327 C 0.97923 0.16179 0.74888 0.0
C328 C 0.97695 0.36313 0.73828 0.0
C329 C 0.97818 0.36472 0.71878 0.0
C330 C 0.9927 0.31947 0.74921 0.0
C331 C 0.00914 0.27527 0.7403 0.0
C332 C 0.01007 0.27637 0.72058 0.0
C333 C 0.99496 0.3216 0.71012 0.0
C334 C 0.99182 0.32067 0.77026 0.0
C335 C 0.02649 0.22894 0.71047 0.0
H336 H 0.09127 0.1945 0.77331 0.0
H337 H 0.01382 0.08753 0.77073 0.0
H338 H 0.07011 0.29988 0.73841 0.0
H339 H 0.05935 0.3316 0.75977 0.0
H340 H 0.09316 0.29131 0.75974 0.0
H341 H 0.97166 0.11576 0.75256 0.0
H342 H 0.96522 0.19594 0.75506 0.0
H343 H 0.97644 0.16723 0.73341 0.0
H344 H 0.96406 0.39652 0.74499 0.0
H345 H 0.99564 0.32216 0.695 0.0
H346 H 0.0141 0.32272 0.77709 0.0
H347 H 0.9818 0.27831 0.77508 0.0
H348 H 0.97941 0.36002 0.77509 0.0
H349 H 0.04967 0.22995 0.71554 0.0
H350 H 0.02467 0.23571 0.69503 0.0
H351 H 0.0182 0.18301 0.71354 0.0
C352 C 0.80997 0.82148 0.51881 0.0
C353 C 0.79531 0.8715 0.52556 0.0
C354 C 0.79505 0.77639 0.50804 0.0
C355 C 0.76498 0.78269 0.50343 0.0
C356 C 0.75032 0.83437 0.50965 0.0
C357 C 0.76559 0.87763 0.52093 0.0
C358 C 0.8113 0.72122 0.50206 0.0
C359 C 0.7185 0.84385 0.50445 0.0
C360 C 0.73312 0.69407 0.46126 0.0
C361 C 0.71862 0.64678 0.46972 0.0
C362 C 0.74784 0.73909 0.47206 0.0
C363 C 0.74892 0.73566 0.49186 0.0
C364 C 0.73459 0.68756 0.50052 0.0
C365 C 0.71912 0.64417 0.48931 0.0
C366 C 0.76197 0.79068 0.46227 0.0
C367 C 0.73592 0.68156 0.5216 0.0
H368 H 0.83288 0.81625 0.52265 0.0
H369 H 0.75427 0.91638 0.52616 0.0
H370 H 0.8015 0.67949 0.50752 0.0
H371 H 0.80967 0.71767 0.48654 0.0
H372 H 0.83451 0.72257 0.50717 0.0
H373 H 0.71067 0.88797 0.50963 0.0
H374 H 0.71406 0.84223 0.48898 0.0
H375 H 0.70587 0.80681 0.51041 0.0
H376 H 0.73243 0.69659 0.44608 0.0
H377 H 0.708 0.60746 0.49583 0.0
H378 H 0.78559 0.79055 0.46604 0.0
H379 H 0.75351 0.83479 0.46697 0.0
H380 H 0.7582 0.78784 0.44676 0.0
H381 H 0.75877 0.67946 0.5274 0.0
H382 H 0.7245 0.64038 0.52612 0.0
H383 H 0.7261 0.72203 0.52779 0.0
C384 C 0.7251 0.96958 0.29101 0.0
C385 C 0.69865 0.99456 0.28393 0.0
C386 C 0.74798 0.96155 0.27951 0.0
C387 C 0.74442 0.97868 0.26038 0.0
C388 C 0.71785 0.00426 0.25314 0.0
C389 C 0.69532 0.01199 0.265 0.0
C390 C 0.77596 0.93435 0.28784 0.0
C391 C 0.71315 0.02303 0.23282 0.0
C392 C 0.81261 0.00468 0.23506 0.0
C393 C 0.81538 0.94931 0.22561 0.0
C394 C 0.78946 0.01515 0.2462 0.0
C395 C 0.76847 0.96923 0.24796 0.0
C396 C 0.77095 0.91353 0.23829 0.0
C397 C 0.79434 0.90424 0.22726 0.0
C398 C 0.78767 0.07512 0.25629 0.0
C399 C 0.74905 0.8634 0.23977 0.0
H400 H 0.72799 0.95603 0.30561 0.0
H401 H 0.67499 0.03125 0.25936 0.0
H402 H 0.78057 0.89167 0.28038 0.0
H403 H 0.7941 0.96601 0.28598 0.0
H404 H 0.77543 0.92419 0.30302 0.0
H405 H 0.69138 0.04281 0.22939 0.0
H406 H 0.72964 0.05697 0.22948 0.0
H407 H 0.71574 0.98314 0.22362 0.0
H408 H 0.82868 0.03989 0.23388 0.0
H409 H 0.79619 0.86135 0.22001 0.0
H410 H 0.78892 0.06741 0.27167 0.0
H411 H 0.76661 0.09722 0.25233 0.0
H412 H 0.80525 0.10677 0.25308 0.0
H413 H 0.74897 0.84829 0.25457 0.0
H414 H 0.75355 0.82348 0.23095 0.0
H415 H 0.72708 0.88048 0.23542 0.0
C416 C 0.99287 0.87108 0.23591 0.0
C417 C 0.96393 0.86417 0.22914 0.0
C418 C 1.00691 0.82633 0.24723 0.0
C419 C 0.99195 0.77239 0.25122 0.0
C420 C 0.96262 0.76541 0.24449 0.0
C421 C 0.9488 0.81197 0.23378 0.0
C422 C 0.03785 0.83653 0.25473 0.0
C423 C 0.94618 0.7079 0.24802 0.0
C424 C 0.039 0.6354 0.26481 0.0
C425 C 0.03706 0.63336 0.28424 0.0
C426 C 0.02368 0.67935 0.25377 0.0
C427 C 1.007 0.72346 0.26251 0.0
C428 C 1.00527 0.72178 0.28217 0.0
C429 C 0.01992 0.67616 0.29273 0.0
C430 C 0.02537 0.67867 0.23277 0.0
C431 C 0.98857 0.76916 0.29212 0.0
H432 H 1.00455 0.91151 0.23228 0.0
H433 H 0.92655 0.80622 0.22824 0.0
H434 H 0.03996 0.83053 0.27019 0.0
H435 H 0.05204 0.80241 0.2487 0.0
H436 H 0.04574 0.88258 0.25136 0.0
H437 H 0.92357 0.70945 0.24169 0.0
H438 H 0.95723 0.66846 0.2421 0.0
H439 H 0.94581 0.69992 0.26332 0.0
H440 H 0.05219 0.60223 0.25824 0.0
H441 H 0.01872 0.67522 0.30782 0.0
H442 H 0.03595 0.72078 0.22826 0.0
H443 H 1.00331 0.67758 0.22558 0.0
H444 H 0.03767 0.63902 0.22804 0.0
H445 H 0.99728 0.815 0.28941 0.0
H446 H 0.98964 0.76173 0.30752 0.0
H447 H 0.96559 0.76888 0.2866 0.0
C448 C 0.26948 0.87713 0.01751 0.0
C449 C 0.29821 0.86792 0.02442 0.0
C450 C 0.25464 0.83334 0.00619 0.0
C451 C 0.26858 0.77812 0.00227 0.0
C452 C 0.29774 0.76893 0.00904 0.0
C453 C 0.31237 0.81446 0.0198 0.0
C454 C 0.22393 0.84584 0.99865 0.0
C455 C 0.31313 0.71013 0.00553 0.0
C456 C 0.21953 0.64366 0.98883 0.0
C457 C 0.22159 0.64081 0.96942 0.0
C458 C 0.2353 0.68724 0.99981 0.0
C459 C 0.25263 0.73011 0.99102 0.0
C460 C 0.25438 0.72781 0.97138 0.0
C461 C 0.23921 0.68264 0.96088 0.0
C462 C 0.23351 0.68731 0.0208 0.0
C463 C 0.2718 0.77381 0.96138 0.0
H464 H 0.25852 0.91849 0.02111 0.0
H465 H 0.33444 0.80686 0.02541 0.0
H466 H 0.22171 0.83961 0.9832 0.0
H467 H 0.20911 0.81306 0.00472 0.0
H468 H 0.21691 0.89259 0.00196 0.0
H469 H 0.33578 0.7101 0.01181 0.0
H470 H 0.30143 0.6717 0.01154 0.0
H471 H 0.31326 0.70176 0.99024 0.0
H472 H 0.20599 0.61125 0.99545 0.0
H473 H 0.24054 0.68112 0.94581 0.0
H474 H 0.22389 0.73055 0.02524 0.0
H475 H 0.25551 0.68426 0.02801 0.0
H476 H 0.22032 0.64903 0.02556 0.0
H477 H 0.26397 0.82032 0.96413 0.0
H478 H 0.27047 0.76634 0.94596 0.0
H479 H 0.2948 0.77178 0.96681 0.0
C480 C 0.04134 0.46138 0.96252 0.0
C481 C 0.06583 0.49559 0.96865 0.0
C482 C 0.01843 0.45304 0.97398 0.0
C483 C 0.01987 0.47957 0.99208 0.0
C484 C 0.04434 0.51481 0.99828 0.0
C485 C 0.06701 0.52236 0.98652 0.0
C486 C 0.99279 0.41513 0.96679 0.0
C487 C 0.0467 0.54401 0.01745 0.0
C488 C 0.94949 0.49846 0.01562 0.0
C489 C 0.95024 0.44853 0.02788 0.0
C490 C 0.97206 0.5094 0.00403 0.0
C491 C 0.99599 0.46939 0.0046 0.0
C492 C 0.99686 0.4189 0.01691 0.0
C493 C 0.97405 0.40916 0.0284 0.0
C494 C 0.97029 0.56381 0.99114 0.0
C495 C 0.02186 0.37493 0.01791 0.0
H496 H 0.04013 0.44047 0.94875 0.0
H497 H 0.08578 0.54888 0.99141 0.0
H498 H 0.99059 0.37535 0.97609 0.0
H499 H 0.97265 0.44209 0.96702 0.0
H500 H 0.9947 0.39853 0.95227 0.0
H501 H 0.06676 0.57124 0.02003 0.0
H502 H 0.02786 0.57402 0.01899 0.0
H503 H 0.04642 0.5085 0.02844 0.0
H504 H 0.93128 0.52932 0.01512 0.0
H505 H 0.97491 0.37046 0.03779 0.0
H506 H 0.97055 0.54872 0.97634 0.0
H507 H 0.9894 0.59346 0.99422 0.0
H508 H 0.95047 0.59109 0.99254 0.0
H509 H 0.02376 0.35396 0.00395 0.0
H510 H 0.01943 0.33819 0.02831 0.0
H511 H 0.04235 0.39947 0.02174 0.0
C512 C 0.3082 0.47145 0.23971 0.0
C513 C 0.30715 0.49508 0.22143 0.0
C514 C 0.28521 0.48016 0.25112 0.0
C515 C 0.26053 0.51326 0.2441 0.0
C516 C 0.25915 0.53635 0.22557 0.0
C517 C 0.28242 0.52701 0.21448 0.0
C518 C 0.28752 0.45469 0.27078 0.0
C519 C 0.23323 0.57176 0.21753 0.0
C520 C 0.1902 0.49532 0.26765 0.0
C521 C 0.19027 0.5473 0.27905 0.0
C522 C 0.21294 0.48353 0.25629 0.0
C523 C 0.23635 0.52476 0.25624 0.0
C524 C 0.23652 0.57739 0.26766 0.0
C525 C 0.21354 0.58797 0.27892 0.0
C526 C 0.21193 0.42686 0.24436 0.0
C527 C 0.26099 0.62263 0.26796 0.0
H528 H 0.32719 0.44676 0.24523 0.0
H529 H 0.28132 0.54545 0.20039 0.0
H530 H 0.28676 0.49221 0.28109 0.0
H531 H 0.2689 0.42442 0.27275 0.0
H532 H 0.30778 0.42865 0.27397 0.0
H533 H 0.23518 0.58546 0.20273 0.0
H534 H 0.21334 0.54416 0.21817 0.0
H535 H 0.23051 0.61325 0.22602 0.0
H536 H 0.1724 0.46348 0.26765 0.0
H537 H 0.21386 0.62825 0.28766 0.0
H538 H 0.23126 0.39849 0.2481 0.0
H539 H 0.21238 0.43928 0.22934 0.0
H540 H 0.19231 0.39916 0.24606 0.0
H541 H 0.28171 0.59983 0.27238 0.0
H542 H 0.25796 0.66122 0.27763 0.0
H543 H 0.26289 0.64091 0.25365 0.0
C544 C 0.70373 0.18253 0.9865 0.0
C545 C 0.71724 0.1279 0.98226 0.0
C546 C 0.719 0.22838 0.99673 0.0
C547 C 0.74818 0.21848 0.00333 0.0
C548 C 0.76148 0.16223 0.99979 0.0
C549 C 0.74599 0.11801 0.98902 0.0
C550 C 0.70425 0.2882 0.99987 0.0
C551 C 0.7922 0.14906 0.00716 0.0
C552 C 0.79834 0.35237 0.01528 0.0
C553 C 0.79666 0.35706 0.03469 0.0
C554 C 0.78217 0.30823 0.00478 0.0
C555 C 0.76475 0.26676 0.01407 0.0
C556 C 0.7634 0.27086 0.03371 0.0
C557 C 0.77902 0.31646 0.04372 0.0
C558 C 0.78358 0.30614 0.98377 0.0
C559 C 0.74585 0.22644 0.04423 0.0
H560 H 0.68164 0.19066 0.981 0.0
H561 H 0.75646 0.07578 0.98571 0.0
H562 H 0.70445 0.29791 0.0151 0.0
H563 H 0.7162 0.32553 0.99348 0.0
H564 H 0.68152 0.28876 0.99374 0.0
H565 H 0.79876 0.10176 0.00415 0.0
H566 H 0.80715 0.18071 1.00072 0.0
H567 H 0.79479 0.15647 0.02256 0.0
H568 H 0.81191 0.38378 0.00828 0.0
H569 H 0.77796 0.31935 0.05879 0.0
H570 H 0.76151 0.30969 0.9767 0.0
H571 H 0.79264 0.26202 0.97961 0.0
H572 H 0.79708 0.34327 0.9786 0.0
H573 H 0.72277 0.22903 0.039 0.0
H574 H 0.74759 0.23511 0.05959 0.0
H575 H 0.7532 0.17938 0.04175 0.0
C576 C 0.69805 0.50917 0.74977 0.0
C577 C 0.69733 0.51606 0.76925 0.0
C578 C 0.72416 0.49883 0.74161 0.0
C579 C 0.75026 0.49455 0.75319 0.0
C580 C 0.74976 0.50233 0.77284 0.0
C581 C 0.72335 0.51333 0.78062 0.0
C582 C 0.72373 0.49163 0.72058 0.0
C583 C 0.77706 0.4977 0.78569 0.0
C584 C 0.81146 0.407 0.73303 0.0
C585 C 0.82871 0.454 0.72675 0.0
C586 C 0.78625 0.41958 0.74201 0.0
C587 C 0.7779 0.48066 0.7447 0.0
C588 C 0.79544 0.52831 0.73866 0.0
C589 C 0.82063 0.51445 0.72983 0.0
C590 C 0.76828 0.36742 0.74834 0.0
C591 C 0.78727 0.59401 0.74117 0.0
H592 H 0.67811 0.51149 0.74085 0.0
H593 H 0.72301 0.51831 0.79569 0.0
H594 H 0.73875 0.52466 0.7148 0.0
H595 H 0.7313 0.4455 0.71712 0.0
H596 H 0.70184 0.49852 0.71348 0.0
H597 H 0.77318 0.5064 0.8006 0.0
H598 H 0.7865 0.45167 0.78461 0.0
H599 H 0.79333 0.53067 0.78137 0.0
H600 H 0.81751 0.36018 0.73079 0.0
H601 H 0.83374 0.55118 0.72504 0.0
H602 H 0.74662 0.36831 0.74062 0.0
H603 H 0.76506 0.37206 0.76349 0.0
H604 H 0.77837 0.32261 0.74599 0.0
H605 H 0.76627 0.6034 0.7332 0.0
H606 H 0.80369 0.62577 0.73628 0.0
H607 H 0.7845 0.60351 0.75615 0.0
C608 C 0.55215 0.02734 0.97724 0.0
C609 C 0.57705 -0.00279 0.98476 0.0
C610 C 0.52541 0.01915 0.9849 0.0
C611 C 0.52349 0.97996 1.00049 0.0
C612 C 0.54863 0.95021 0.0083 0.0
C613 C 0.57503 0.95916 1.00037 0.0
C614 C 0.49913 0.05182 0.97618 0.0
C615 C 0.54759 0.90818 0.02493 0.0
C616 C 0.46007 0.99417 0.03095 0.0
C617 C 0.44202 0.94647 0.0242 0.0
C618 C 0.48644 0.006 0.02324 0.0
C619 C 0.49514 0.96913 0.00846 0.0
C620 C 0.47705 0.92091 0.00159 0.0
C621 C 0.45072 0.91026 0.0095 0.0
C622 C 0.50504 0.05792 0.03095 0.0
C623 C 0.48558 0.8803 0.98593 0.0
H624 H 0.55344 0.05677 0.96518 0.0
H625 H 0.59409 0.93571 0.00634 0.0
H626 H 0.48268 0.01826 0.97078 0.0
H627 H 0.48924 0.0796 0.98692 0.0
H628 H 0.50433 0.08192 0.96444 0.0
H629 H 0.56917 0.88946 0.02961 0.0
H630 H 0.53903 0.93269 0.03687 0.0
H631 H 0.53271 0.8698 0.02128 0.0
H632 H 0.45355 0.02261 0.04224 0.0
H633 H 0.43699 0.87333 0.00416 0.0
H634 H 0.5091 0.09019 0.01953 0.0
H635 H 0.52632 0.04046 0.03669 0.0
H636 H 0.49496 0.08308 0.04221 0.0
H637 H 0.48911 0.90791 0.97333 0.0
H638 H 0.46897 0.84525 0.98201 0.0
H639 H 0.50625 0.85713 0.99022 0.0
C640 C 0.45126 0.31734 0.2377 0.0
C641 C 0.46501 0.36967 0.23168 0.0
C642 C 0.46683 0.27268 0.24824 0.0
C643 C 0.49662 0.28157 0.25333 0.0
C644 C 0.51032 0.33553 0.24791 0.0
C645 C 0.49444 0.37848 0.23687 0.0
C646 C 0.4516 0.21518 0.25341 0.0
C647 C 0.54179 0.34764 0.25361 0.0
C648 C 0.52945 0.19072 0.29473 0.0
C649 C 0.54509 0.14603 0.2859 0.0
C650 C 0.51398 0.23557 0.28431 0.0
C651 C 0.5134 0.23469 0.26451 0.0
C652 C 0.52889 0.18923 0.25546 0.0
C653 C 0.54499 0.14592 0.26631 0.0
C654 C 0.49853 0.28429 0.29453 0.0
C655 C 0.5282 0.18601 0.23434 0.0
H656 H 0.42861 0.30999 0.23343 0.0
H657 H 0.5051 0.41897 0.23222 0.0
H658 H 0.46234 0.17526 0.24753 0.0
H659 H 0.45306 0.20962 0.26888 0.0
H660 H 0.42846 0.21492 0.24815 0.0
H661 H 0.54878 0.39324 0.24908 0.0
H662 H 0.54587 0.34427 0.26908 0.0
H663 H 0.55539 0.31287 0.24736 0.0
H664 H 0.5298 0.19142 0.30991 0.0
H665 H 0.557 0.11129 0.25947 0.0
H666 H 0.47502 0.28242 0.29045 0.0
H667 H 0.50625 0.32981 0.29051 0.0
H668 H 0.50192 0.27962 0.31002 0.0
H669 H 0.50553 0.18241 0.22826 0.0
H670 H 0.54057 0.14667 0.22947 0.0
H671 H 0.53732 0.22825 0.22877 0.0
C672 C 0.49572 0.80713 0.71019 0.0
C673 C 0.47829 0.84883 0.71894 0.0
C674 C 0.51148 0.76259 0.72056 0.0
C675 C 0.51046 0.76065 0.74026 0.0
C676 C 0.49324 0.8032 0.74925 0.0
C677 C 0.47695 0.84629 0.73842 0.0
C678 C 0.52884 0.71698 0.71037 0.0
C679 C 0.49215 0.80338 0.77029 0.0
C680 C 0.52932 0.61468 0.76675 0.0
C681 C 0.55811 0.62517 0.77334 0.0
C682 C 0.5138 0.65774 0.75556 0.0
C683 C 0.52712 0.71345 0.75138 0.0
C684 C 0.55635 0.72389 0.75779 0.0
C685 C 0.57165 0.67916 0.76847 0.0
C686 C 0.483 0.64398 0.74846 0.0
C687 C 0.57113 0.78318 0.75394 0.0
H688 H 0.49653 0.8084 0.69508 0.0
H689 H 0.46358 0.87858 0.74521 0.0
H690 H 0.55198 0.71997 0.71546 0.0
H691 H 0.5215 0.67025 0.71336 0.0
H692 H 0.5269 0.72405 0.69494 0.0
H693 H 0.47873 0.84107 0.77518 0.0
H694 H 0.48316 0.75974 0.77496 0.0
H695 H 0.51431 0.80764 0.7772 0.0
H696 H 0.51884 0.57291 0.77052 0.0
H697 H 0.59377 0.68775 0.77381 0.0
H698 H 0.48026 0.64971 0.733 0.0
H699 H 0.46816 0.67644 0.75463 0.0
H700 H 0.47643 0.5971 0.75199 0.0
H701 H 0.57069 0.79123 0.73861 0.0
H702 H 0.59394 0.78417 0.75991 0.0
H703 H 0.55935 0.82129 0.76004 0.0
C704 C 0.45167 0.47704 0.51634 0.0
C705 C 0.45375 0.49985 0.53474 0.0
C706 C 0.47433 0.4848 0.50458 0.0
C707 C 0.49972 0.51607 0.51135 0.0
C708 C 0.50207 0.53856 0.52997 0.0
C709 C 0.47911 0.53023 0.5414 0.0
C710 C 0.47095 0.46011 0.48483 0.0
C711 C 0.52875 0.57206 0.53778 0.0
C712 C 0.56911 0.49482 0.48691 0.0
C713 C 0.56966 0.54752 0.47587 0.0
C714 C 0.54642 0.48376 0.49839 0.0
C715 C 0.52366 0.52637 0.4989 0.0
C716 C 0.52404 0.57953 0.48776 0.0
C717 C 0.54697 0.58943 0.4764 0.0
C718 C 0.54686 0.42654 0.51004 0.0
C719 C 0.50025 0.62619 0.4879 0.0
H720 H 0.43221 0.45352 0.51103 0.0
H721 H 0.48103 0.548 0.55558 0.0
H722 H 0.47211 0.49782 0.47462 0.0
H723 H 0.4889 0.42847 0.48251 0.0
H724 H 0.45016 0.43575 0.4818 0.0
H725 H 0.52747 0.58564 0.55266 0.0
H726 H 0.54811 0.54311 0.53681 0.0
H727 H 0.53189 0.61348 0.52934 0.0
H728 H 0.58646 0.46204 0.4866 0.0
H729 H 0.54711 0.63025 0.46794 0.0
H730 H 0.52693 0.39978 0.50649 0.0
H731 H 0.54725 0.43838 0.52514 0.0
H732 H 0.56585 0.39749 0.50787 0.0
H733 H 0.47909 0.60469 0.48375 0.0
H734 H 0.50348 0.66469 0.47824 0.0
H735 H 0.49914 0.64441 0.50229 0.0
C736 C 0.14322 0.66757 0.35903 0.0
C737 C 0.13005 0.61223 0.36279 0.0
C738 C 0.15213 0.70743 0.37367 0.0
C739 C 0.14859 0.69046 0.39249 0.0
C740 C 0.1374 0.63249 0.39639 0.0
C741 C 0.12773 0.59444 0.38145 0.0
C742 C 0.1636 0.76927 0.36888 0.0
C743 C 0.13438 0.61176 0.41627 0.0
C744 C 0.18808 0.79841 0.42676 0.0
C745 C 0.16605 0.83981 0.42993 0.0
C746 C 0.18224 0.74596 0.41595 0.0
C747 C 0.15394 0.73602 0.4077 0.0
C748 C 0.13123 0.77498 0.41219 0.0
C749 C 0.13751 0.82596 0.42353 0.0
C750 C 0.20676 0.70389 0.4122 0.0
C751 C 0.10076 0.76639 0.40354 0.0
H752 H 0.14487 0.68139 0.3446 0.0
H753 H 0.11779 0.55123 0.38435 0.0
H754 H 0.14874 0.805 0.37335 0.0
H755 H 0.18495 0.7772 0.37656 0.0
H756 H 0.16589 0.77458 0.35362 0.0
H757 H 0.13049 0.56205 0.41704 0.0
H758 H 0.15404 0.6232 0.42542 0.0
H759 H 0.11593 0.6355 0.42196 0.0
H760 H 0.21015 0.80872 0.43185 0.0
H761 H 0.12041 0.85789 0.42589 0.0
H762 H 0.21377 0.7129 0.39799 0.0
H763 H 0.19976 0.65574 0.41261 0.0
H764 H 0.22564 0.71047 0.42254 0.0
H765 H 0.10017 0.77503 0.38822 0.0
H766 H 0.08523 0.79757 0.40967 0.0
H767 H 0.09347 0.71901 0.40545 0.0
C768 C 0.13929 0.09815 0.37602 0.0
C769 C 0.13644 0.11668 0.39454 0.0
C770 C 0.12898 0.13461 0.36084 0.0
C771 C 0.11684 0.19199 0.36439 0.0
C772 C 0.11326 0.21002 0.38312 0.0
C773 C 0.12261 0.17148 0.39797 0.0
C774 C 0.13196 0.11258 0.3411 0.0
C775 C 0.10105 0.27148 0.38756 0.0
C776 C 0.12502 0.32668 0.33266 0.0
C777 C 0.0961 0.33914 0.32684 0.0
C778 C 0.1324 0.27622 0.34395 0.0
C779 C 0.11043 0.23611 0.34891 0.0
C780 C 0.08173 0.24437 0.34113 0.0
C781 C 0.07476 0.29658 0.33044 0.0
C782 C 0.16322 0.26977 0.35219 0.0
C783 C 0.05799 0.20077 0.34529 0.0
H784 H 0.14974 0.05528 0.37343 0.0
H785 H 0.12057 0.18574 0.41232 0.0
H786 H 0.11209 0.12256 0.33196 0.0
H787 H 0.15011 0.13659 0.33512 0.0
H788 H 0.13629 0.063 0.34067 0.0
H789 H 0.09953 0.27825 0.40285 0.0
H790 H 0.11493 0.30783 0.38235 0.0
H791 H 0.0792 0.27697 0.38033 0.0
H792 H 0.14162 0.35945 0.32995 0.0
H793 H 0.05241 0.30575 0.32579 0.0
H794 H 0.17106 0.22277 0.35041 0.0
H795 H 0.16423 0.27925 0.36748 0.0
H796 H 0.17809 0.30152 0.34566 0.0
H797 H 0.06572 0.15311 0.34503 0.0
H798 H 0.03884 0.20563 0.33506 0.0
H799 H 0.05111 0.20991 0.35952 0.0
C800 C 0.12884 0.10197 0.87651 0.0
C801 C 0.13392 0.12013 0.85826 0.0
C802 C 0.13714 0.13893 0.892 0.0
C803 C 0.14956 0.19645 0.889 0.0
C804 C 0.15558 0.21397 0.87062 0.0
C805 C 0.14817 0.17494 0.85549 0.0
C806 C 0.13159 0.11742 0.91144 0.0
C807 C 0.16825 0.27549 0.86674 0.0
C808 C 0.13648 0.33133 0.91985 0.0
C809 C 0.16461 0.34417 0.92735 0.0
C810 C 0.13085 0.28083 0.9082 0.0
C811 C 0.15373 0.2411 0.90458 0.0
C812 C 0.18138 0.24981 0.914 0.0
C813 C 0.18666 0.30202 0.92503 0.0
C814 C 0.10112 0.27383 0.89824 0.0
C815 C 0.20593 0.20668 0.91129 0.0
H816 H 0.11802 0.05913 0.87862 0.0
H817 H 0.1519 0.18898 0.84134 0.0
H818 H 0.1503 0.12784 0.92156 0.0
H819 H 0.11256 0.14142 0.91627 0.0
H820 H 0.12726 0.0678 0.91175 0.0
H821 H 0.172 0.28167 0.85171 0.0
H822 H 0.1534 0.31172 0.87088 0.0
H823 H 0.18906 0.28177 0.87523 0.0
H824 H 0.11938 0.36389 0.92154 0.0
H825 H 0.2084 0.31159 0.93095 0.0
H826 H 0.09313 0.22673 0.8996 0.0
H827 H 0.10223 0.28305 0.88304 0.0
H828 H 0.0852 0.30546 0.90376 0.0
H829 H 0.19833 0.15887 0.91115 0.0
H830 H 0.22374 0.21201 0.92248 0.0
H831 H 0.21471 0.21585 0.89758 0.0
C832 C 0.13356 0.59761 0.87173 0.0
C833 C 0.13061 0.61584 0.89028 0.0
C834 C 0.12517 0.636 0.85661 0.0
C835 C 0.11459 0.69468 0.86026 0.0
C836 C 0.11022 0.71202 0.87893 0.0
C837 C 0.1179 0.67189 0.89372 0.0
C838 C 0.12904 0.6149 0.83688 0.0
C839 C 0.09933 0.77455 0.88344 0.0
C840 C 0.13011 0.82908 0.82976 0.0
C841 C 0.10222 0.84481 0.8225 0.0
C842 C 0.13475 0.77784 0.84123 0.0
C843 C 0.11102 0.74057 0.84501 0.0
C844 C 0.08342 0.75243 0.83596 0.0
C845 C 0.07923 0.80505 0.82501 0.0
C846 C 0.16453 0.76711 0.85072 0.0
C847 C 0.05787 0.71222 0.83896 0.0
H848 H 0.14316 0.55388 0.86906 0.0
H849 H 0.11576 0.68608 0.90807 0.0
H850 H 0.11014 0.62783 0.82725 0.0
H851 H 0.14833 0.63711 0.83172 0.0
H852 H 0.13205 0.56492 0.83617 0.0
H853 H 0.09598 0.77993 0.89857 0.0
H854 H 0.11512 0.80928 0.87954 0.0
H855 H 0.07864 0.78394 0.87514 0.0
H856 H 0.14795 0.85971 0.82793 0.0
H857 H 0.05766 0.81679 0.81926 0.0
H858 H 0.1712 0.71928 0.84891 0.0
H859 H 0.16419 0.77553 0.86602 0.0
H860 H 0.18103 0.79727 0.84517 0.0
H861 H 0.06408 0.66358 0.83875 0.0
H862 H 0.03977 0.72002 0.82812 0.0
H863 H 0.05002 0.72191 0.85291 0.0
C864 C 0.88544 0.40662 0.62207 0.0
C865 C 0.8843 0.38841 0.64079 0.0
C866 C 0.87525 0.36852 0.60727 0.0
C867 C 0.86478 0.31007 0.61136 0.0
C868 C 0.86235 0.29271 0.63028 0.0
C869 C 0.87173 0.33265 0.64479 0.0
C870 C 0.87701 0.38969 0.58731 0.0
C871 C 0.85174 0.23035 0.63526 0.0
C872 C 0.82545 0.20003 0.57767 0.0
C873 C 0.84788 0.16013 0.57405 0.0
C874 C 0.83098 0.25269 0.58844 0.0
C875 C 0.85941 0.2643 0.59622 0.0
C876 C 0.88241 0.22682 0.59131 0.0
C877 C 0.87639 0.17567 0.58001 0.0
C878 C 0.80611 0.29321 0.59262 0.0
C879 C 0.91302 0.23718 0.59947 0.0
H880 H 0.89493 0.45016 0.61901 0.0
H881 H 0.871 0.31853 0.65927 0.0
H882 H 0.89548 0.36723 0.58122 0.0
H883 H 0.85714 0.37713 0.57852 0.0
H884 H 0.88014 0.43963 0.58651 0.0
H885 H 0.85013 0.22488 0.65059 0.0
H886 H 0.83022 0.22146 0.62794 0.0
H887 H 0.86675 0.19534 0.63054 0.0
H888 H 0.80339 0.18844 0.57293 0.0
H889 H 0.8938 0.14491 0.57731 0.0
H890 H 0.81244 0.34177 0.59219 0.0
H891 H 0.79972 0.28347 0.60694 0.0
H892 H 0.78699 0.28574 0.58253 0.0
H893 H 0.91964 0.28488 0.59731 0.0
H894 H 0.92867 0.2067 0.59316 0.0
H895 H 0.9143 0.22892 0.61483 0.0
C896 C 0.89381 0.67478 0.67005 0.0
C897 C 0.92265 0.6608 0.67564 0.0
C898 C 0.88684 0.72536 0.65873 0.0
C899 C 0.90918 0.76413 0.65351 0.0
C900 C 0.9379 0.75435 0.66103 0.0
C901 C 0.94443 0.70198 0.67174 0.0
C902 C 0.85597 0.73343 0.65077 0.0
C903 C 0.96205 0.79655 0.65662 0.0
C904 C 0.89602 0.82918 0.60458 0.0
C905 C 0.88263 0.88428 0.60823 0.0
C906 C 0.90569 0.79044 0.61931 0.0
C907 C 0.90291 0.80863 0.63812 0.0
C908 C 0.89138 0.86644 0.64186 0.0
C909 C 0.8807 0.90306 0.62682 0.0
C910 C 0.9172 0.72853 0.61467 0.0
C911 C 0.88933 0.88867 0.66168 0.0
H912 H 0.87687 0.64308 0.67298 0.0
H913 H 0.96673 0.69163 0.67621 0.0
H914 H 0.84868 0.78072 0.65278 0.0
H915 H 0.85453 0.7245 0.63544 0.0
H916 H 0.8409 0.70218 0.65732 0.0
H917 H 0.98132 0.79082 0.6667 0.0
H918 H 0.96854 0.78675 0.64233 0.0
H919 H 0.95492 0.84462 0.65688 0.0
H920 H 0.89734 0.81476 0.59016 0.0
H921 H 0.87058 0.94618 0.62957 0.0
H922 H 0.90309 0.69274 0.61996 0.0
H923 H 0.93911 0.72202 0.62171 0.0
H924 H 0.91833 0.72186 0.59934 0.0
H925 H 0.87107 0.86579 0.66789 0.0
H926 H 0.88568 0.9385 0.66217 0.0
H927 H 0.9093 0.87756 0.67057 0.0
C928 C 0.88187 0.66924 0.08242 0.0
C929 C 0.85367 0.65602 0.07514 0.0
C930 C 0.8876 0.72004 0.09392 0.0
C931 C 0.86473 0.75972 0.0976 0.0
C932 C 0.83697 0.75061 0.08838 0.0
C933 C 0.8316 0.69806 0.07752 0.0
C934 C 0.91744 0.72742 0.10369 0.0
C935 C 0.81242 0.79369 0.09114 0.0
C936 C 0.87102 0.82625 0.14661 0.0
C937 C 0.88531 0.88092 0.14371 0.0
C938 C 0.86331 0.78718 0.13155 0.0
C939 C 0.86905 0.80457 0.1131 0.0
C940 C 0.88148 0.86201 0.10999 0.0
C941 C 0.89011 0.89897 0.12542 0.0
C942 C 0.85069 0.72572 0.13556 0.0
C943 C 0.88669 0.88343 0.09049 0.0
H944 H 0.89899 0.63674 0.0807 0.0
H945 H 0.8098 0.68819 0.07177 0.0
H946 H 0.92536 0.77448 0.10213 0.0
H947 H 0.91655 0.71871 0.11893 0.0
H948 H 0.9333 0.69564 0.09818 0.0
H949 H 0.79453 0.78816 0.08 0.0
H950 H 0.80376 0.78463 0.10488 0.0
H951 H 0.81997 0.84153 0.0912 0.0
H952 H 0.8675 0.81232 0.16081 0.0
H953 H 0.90096 0.94172 0.12322 0.0
H954 H 0.86543 0.68942 0.13134 0.0
H955 H 0.82975 0.71945 0.12722 0.0
H956 H 0.84719 0.71966 0.15064 0.0
H957 H 0.90577 0.85976 0.08558 0.0
H958 H 0.8908 0.93312 0.0901 0.0
H959 H 0.86792 0.87258 0.08046 0.0
C960 C 0.89102 0.17294 0.17232 0.0
C961 C 0.91883 0.156 0.1794 0.0
C962 C 0.88671 0.22437 0.1609 0.0
C963 C 0.91071 0.26063 0.15698 0.0
C964 C 0.93832 0.24756 0.16585 0.0
C965 C 0.94216 0.19475 0.17675 0.0
C966 C 0.85691 0.23642 0.15162 0.0
C967 C 0.96417 0.2867 0.16271 0.0
C968 C 0.90316 0.32959 0.10835 0.0
C969 C 0.89076 0.38583 0.11195 0.0
C970 C 0.91109 0.28934 0.12306 0.0
C971 C 0.90731 0.30677 0.14181 0.0
C972 C 0.89721 0.36573 0.14559 0.0
C973 C 0.88854 0.40424 0.13057 0.0
C974 C 0.92147 0.22653 0.1184 0.0
C975 C 0.89401 0.38694 0.1654 0.0
H976 H 0.87292 0.14311 0.17428 0.0
H977 H 0.96368 0.18209 0.18236 0.0
H978 H 0.85069 0.28444 0.15361 0.0
H979 H 0.85695 0.22838 0.13629 0.0
H980 H 0.84024 0.20673 0.15721 0.0
H981 H 0.98231 0.27821 0.17347 0.0
H982 H 0.97176 0.27659 0.14872 0.0
H983 H 0.95842 0.33559 0.16295 0.0
H984 H 0.90475 0.31527 0.09395 0.0
H985 H 0.8792 0.44813 0.13336 0.0
H986 H 0.90548 0.19227 0.12234 0.0
H987 H 0.94218 0.21637 0.12658 0.0
H988 H 0.92459 0.22123 0.10324 0.0
H989 H 0.8746 0.36568 0.17072 0.0
H990 H 0.89156 0.43705 0.16616 0.0
H991 H 0.91294 0.37308 0.17487 0.0
C992 C 0.64395 0.67724 0.85938 0.0
C993 C 0.62845 0.62344 0.86137 0.0
C994 C 0.64998 0.71621 0.8747 0.0
C995 C 0.64113 0.69983 0.89255 0.0
C996 C 0.62681 0.6439 0.89483 0.0
C997 C 0.62013 0.60684 0.8791 0.0
C998 C 0.66478 0.77608 0.87158 0.0
C999 C 0.61803 0.62386 0.91375 0.0
C1000 C 0.6787 0.79853 0.93022 0.0
C1001 C 0.65819 0.84464 0.93166 0.0
C1002 C 0.67241 0.74737 0.91891 0.0
C1003 C 0.64537 0.74355 0.90837 0.0
C1004 C 0.62378 0.78734 0.91107 0.0
C1005 C 0.63032 0.8369 0.92296 0.0
C1006 C 0.69554 0.70013 0.91706 0.0
C1007 C 0.5948 0.78555 0.8999 0.0
H1008 H 0.65024 0.69019 0.84565 0.0
H1009 H 0.60838 0.56481 0.88065 0.0
H1010 H 0.65061 0.81413 0.87526 0.0
H1011 H 0.68501 0.77947 0.88085 0.0
H1012 H 0.67014 0.78198 0.85682 0.0
H1013 H 0.61069 0.57582 0.91363 0.0
H1014 H 0.63634 0.62914 0.92458 0.0
H1015 H 0.60017 0.65289 0.918 0.0
H1016 H 0.7002 0.8041 0.93709 0.0
H1017 H 0.6144 0.87249 0.92396 0.0
H1018 H 0.7058 0.70739 0.90375 0.0
H1019 H 0.68612 0.65377 0.91661 0.0
H1020 H 0.71261 0.70268 0.92883 0.0
H1021 H 0.59774 0.79615 0.88499 0.0
H1022 H 0.57937 0.81888 0.90513 0.0
H1023 H 0.58511 0.73961 0.90032 0.0
C1024 C 0.63072 0.17691 0.89685 0.0
C1025 C 0.64619 0.12312 0.89489 0.0
C1026 C 0.62471 0.21578 0.88152 0.0
C1027 C 0.63358 0.19931 0.86367 0.0
C1028 C 0.64784 0.14335 0.86142 0.0
C1029 C 0.65449 0.10638 0.87716 0.0
C1030 C 0.60996 0.27569 0.88461 0.0
C1031 C 0.65662 0.12321 0.8425 0.0
C1032 C 0.59626 0.29812 0.82599 0.0
C1033 C 0.61684 0.34417 0.8246 0.0
C1034 C 0.60244 0.24693 0.83729 0.0
C1035 C 0.62945 0.24302 0.84786 0.0
C1036 C 0.65112 0.28674 0.84521 0.0
C1037 C 0.64468 0.33634 0.83333 0.0
C1038 C 0.57924 0.19976 0.83909 0.0
C1039 C 0.68007 0.28485 0.85641 0.0
H1040 H 0.62445 0.18997 0.91058 0.0
H1041 H 0.66622 0.06435 0.87562 0.0
H1042 H 0.62419 0.31371 0.88097 0.0
H1043 H 0.58977 0.27911 0.87531 0.0
H1044 H 0.60455 0.28162 0.89936 0.0
H1045 H 0.66383 0.0751 0.84263 0.0
H1046 H 0.63837 0.12866 0.83165 0.0
H1047 H 0.67459 0.15206 0.83829 0.0
H1048 H 0.57478 0.30377 0.8191 0.0
H1049 H 0.66065 0.3719 0.83236 0.0
H1050 H 0.56893 0.20709 0.85238 0.0
H1051 H 0.58859 0.15336 0.83956 0.0
H1052 H 0.56222 0.20234 0.8273 0.0
H1053 H 0.67709 0.29541 0.87132 0.0
H1054 H 0.69556 0.31814 0.85122 0.0
H1055 H 0.6897 0.23888 0.85597 0.0
C1056 C 0.64109 0.09331 0.38119 0.0
C1057 C 0.64125 0.11239 0.36248 0.0
C1058 C 0.65104 0.13166 0.39599 0.0
C1059 C 0.6601 0.19123 0.39193 0.0
C1060 C 0.66185 0.2093 0.37301 0.0
C1061 C 0.65285 0.16911 0.35849 0.0
C1062 C 0.65017 0.10963 0.41593 0.0
C1063 C 0.67098 0.27278 0.36804 0.0
C1064 C 0.64424 0.32423 0.42277 0.0
C1065 C 0.6722 0.3443 0.42845 0.0
C1066 C 0.63986 0.27176 0.41183 0.0
C1067 C 0.66402 0.2375 0.40705 0.0
C1068 C 0.69201 0.25344 0.41472 0.0
C1069 C 0.69586 0.30741 0.42509 0.0
C1070 C 0.60962 0.25674 0.40382 0.0
C1071 C 0.71812 0.21626 0.41078 0.0
H1072 H 0.63236 0.04904 0.38425 0.0
H1073 H 0.65281 0.1839 0.34402 0.0
H1074 H 0.66929 0.12593 0.42482 0.0
H1075 H 0.63064 0.12776 0.42195 0.0
H1076 H 0.64938 0.05925 0.41664 0.0
H1077 H 0.67243 0.27864 0.35271 0.0
H1078 H 0.65515 0.30607 0.37277 0.0
H1079 H 0.69227 0.28384 0.37535 0.0
H1080 H 0.62586 0.35255 0.42531 0.0
H1081 H 0.71751 0.32245 0.42965 0.0
H1082 H 0.60455 0.20838 0.40633 0.0
H1083 H 0.60802 0.26394 0.3884 0.0
H1084 H 0.59305 0.28532 0.40994 0.0
H1085 H 0.7132 0.16696 0.41113 0.0
H1086 H 0.73675 0.226 0.42107 0.0
H1087 H 0.72459 0.2272 0.39656 0.0
C1088 C 0.6139 0.66852 0.39532 0.0
C1089 C 0.626 0.61223 0.39144 0.0
C1090 C 0.60524 0.70873 0.38075 0.0
C1091 C 0.60786 0.69108 0.36187 0.0
C1092 C 0.61751 0.63191 0.35788 0.0
C1093 C 0.62708 0.59357 0.37276 0.0
C1094 C 0.59549 0.77181 0.38565 0.0
C1095 C 0.61932 0.61029 0.33797 0.0
C1096 C 0.57199 0.80601 0.3284 0.0
C1097 C 0.59542 0.844 0.32536 0.0
C1098 C 0.57605 0.75209 0.33875 0.0
C1099 C 0.60399 0.73737 0.34676 0.0
C1100 C 0.62799 0.7728 0.34231 0.0
C1101 C 0.62343 0.82518 0.33136 0.0
C1102 C 0.55014 0.71367 0.34232 0.0
C1103 C 0.65816 0.75911 0.3507 0.0
H1104 H 0.61324 0.683 0.40978 0.0
H1105 H 0.63624 0.54964 0.36978 0.0
H1106 H 0.61124 0.80574 0.38116 0.0
H1107 H 0.57432 0.78219 0.37808 0.0
H1108 H 0.59351 0.77742 0.40094 0.0
H1109 H 0.62062 0.55998 0.3372 0.0
H1110 H 0.60034 0.62587 0.32882 0.0
H1111 H 0.63891 0.62945 0.33229 0.0
H1112 H 0.5503 0.82015 0.3236 0.0
H1113 H 0.64161 0.85446 0.32909 0.0
H1114 H 0.54321 0.72393 0.35648 0.0
H1115 H 0.55553 0.6646 0.34193 0.0
H1116 H 0.53167 0.72283 0.33187 0.0
H1117 H 0.65923 0.76642 0.36611 0.0
H1118 H 0.67467 0.7884 0.34477 0.0
H1119 H 0.66376 0.71097 0.3483 0.0
C1120 C 0.39059 0.39025 0.12859 0.0
C1121 C 0.38473 0.37308 0.14679 0.0
C1122 C 0.38248 0.35298 0.11314 0.0
C1123 C 0.36927 0.29627 0.11613 0.0
C1124 C 0.36266 0.27953 0.13446 0.0
C1125 C 0.37004 0.31873 0.14954 0.0
C1126 C 0.3888 0.37346 0.09373 0.0
C1127 C 0.34912 0.21885 0.13831 0.0
C1128 C 0.33072 0.19448 0.07958 0.0
C1129 C 0.35198 0.15055 0.07725 0.0
C1130 C 0.33678 0.24574 0.09091 0.0
C1131 C 0.36443 0.25185 0.10054 0.0
C1132 C 0.38657 0.21017 0.09703 0.0
C1133 C 0.38017 0.16052 0.08515 0.0
C1134 C 0.31299 0.29075 0.09363 0.0
C1135 C 0.41625 0.21446 0.10723 0.0
H1136 H 0.40169 0.43274 0.12647 0.0
H1137 H 0.36565 0.30539 0.16364 0.0
H1138 H 0.4068 0.34626 0.0888 0.0
H1139 H 0.3697 0.36604 0.08365 0.0
H1140 H 0.39494 0.42221 0.09344 0.0
H1141 H 0.34509 0.21314 0.15332 0.0
H1142 H 0.32833 0.21373 0.12972 0.0
H1143 H 0.36353 0.18165 0.13429 0.0
H1144 H 0.30894 0.18721 0.07335 0.0
H1145 H 0.39669 0.12664 0.08346 0.0
H1146 H 0.32142 0.33794 0.09375 0.0
H1147 H 0.30414 0.28249 0.10737 0.0
H1148 H 0.29505 0.2867 0.08247 0.0
H1149 H 0.42513 0.26094 0.10613 0.0
H1150 H 0.43168 0.18176 0.10169 0.0
H1151 H 0.41469 0.20481 0.12236 0.0
C1152 C 0.37496 0.65972 0.17449 0.0
C1153 C 0.4033 0.65161 0.18234 0.0
C1154 C 0.36783 0.70898 0.16262 0.0
C1155 C 0.38935 0.75215 0.15909 0.0
C1156 C 0.41704 0.74803 0.16881 0.0
C1157 C 0.42387 0.69711 0.1801 0.0
C1158 C 0.33818 0.711 0.15231 0.0
C1159 C 0.44015 0.79469 0.1661 0.0
C1160 C 0.38465 0.81713 0.10986 0.0
C1161 C 0.36954 0.87114 0.11221 0.0
C1162 C 0.3916 0.77846 0.12512 0.0
C1163 C 0.38416 0.79548 0.14326 0.0
C1164 C 0.37028 0.85168 0.14585 0.0
C1165 C 0.36257 0.88835 0.13019 0.0
C1166 C 0.40584 0.71824 0.12168 0.0
C1167 C 0.36307 0.87247 0.16505 0.0
H1168 H 0.359 0.62455 0.17611 0.0
H1169 H 0.44575 0.6912 0.18629 0.0
H1170 H 0.32877 0.75713 0.15293 0.0
H1171 H 0.33996 0.69993 0.1373 0.0
H1172 H 0.32306 0.67812 0.15812 0.0
H1173 H 0.45798 0.79218 0.17738 0.0
H1174 H 0.44937 0.78671 0.15246 0.0
H1175 H 0.43098 0.84124 0.16579 0.0
H1176 H 0.38987 0.80378 0.09593 0.0
H1177 H 0.35112 0.93058 0.132 0.0
H1178 H 0.39189 0.68055 0.12594 0.0
H1179 H 0.42668 0.71481 0.13031 0.0
H1180 H 0.40998 0.71176 0.10671 0.0
H1181 H 0.34552 0.84387 0.16997 0.0
H1182 H 0.35594 0.92063 0.16503 0.0
H1183 H 0.3821 0.86723 0.17533 0.0
C1184 C 0.38368 0.8982 0.62305 0.0
C1185 C 0.38284 0.87925 0.64173 0.0
C1186 C 0.37397 0.86001 0.60814 0.0
C1187 C 0.36438 0.80074 0.61209 0.0
C1188 C 0.36208 0.78271 0.63096 0.0
C1189 C 0.3709 0.82272 0.64557 0.0
C1190 C 0.3755 0.88196 0.58825 0.0
C1191 C 0.35237 0.71953 0.6358 0.0
C1192 C 0.32749 0.68696 0.5786 0.0
C1193 C 0.35068 0.64868 0.57532 0.0
C1194 C 0.33194 0.74059 0.58907 0.0
C1195 C 0.36006 0.75482 0.59689 0.0
C1196 C 0.38382 0.7192 0.59216 0.0
C1197 C 0.37886 0.66705 0.58114 0.0
C1198 C 0.30627 0.7792 0.59297 0.0
C1199 C 0.41417 0.73241 0.60033 0.0
H1200 H 0.39269 0.94231 0.62009 0.0
H1201 H 0.37042 0.808 0.66002 0.0
H1202 H 0.39486 0.86253 0.58236 0.0
H1203 H 0.35629 0.86686 0.57922 0.0
H1204 H 0.37703 0.93226 0.58756 0.0
H1205 H 0.3507 0.71356 0.65111 0.0
H1206 H 0.33104 0.70935 0.62839 0.0
H1207 H 0.36795 0.68568 0.63108 0.0
H1208 H 0.30567 0.67323 0.57393 0.0
H1209 H 0.39688 0.63764 0.57866 0.0
H1210 H 0.31178 0.82821 0.59259 0.0
H1211 H 0.29968 0.76883 0.6072 0.0
H1212 H 0.28753 0.77032 0.58269 0.0
H1213 H 0.41982 0.78062 0.59806 0.0
H1214 H 0.43045 0.70327 0.59412 0.0
H1215 H 0.41556 0.72448 0.61571 0.0
C1216 C 0.40491 0.32279 0.60912 0.0
C1217 C 0.39265 0.37903 0.61288 0.0
C1218 C 0.41362 0.28293 0.62378 0.0
C1219 C 0.41087 0.30086 0.64262 0.0
C1220 C 0.40088 0.35986 0.64649 0.0
C1221 C 0.39129 0.39787 0.63153 0.0
C1222 C 0.42374 0.22001 0.61902 0.0
C1223 C 0.39886 0.38172 0.66635 0.0
C1224 C 0.39686 0.16653 0.67341 0.0
C1225 C 0.4251 0.14901 0.67933 0.0
C1226 C 0.39168 0.21865 0.66242 0.0
C1227 C 0.41527 0.25508 0.65784 0.0
C1228 C 0.44341 0.2417 0.66579 0.0
C1229 C 0.4481 0.18809 0.67621 0.0
C1230 C 0.36133 0.23092 0.6541 0.0
C1231 C 0.46888 0.28119 0.66205 0.0
H1232 H 0.40577 0.30817 0.59469 0.0
H1233 H 0.38202 0.44175 0.63441 0.0
H1234 H 0.44505 0.21047 0.62652 0.0
H1235 H 0.4083 0.18574 0.62367 0.0
H1236 H 0.42561 0.21404 0.60373 0.0
H1237 H 0.39703 0.43197 0.66704 0.0
H1238 H 0.37948 0.36173 0.67209 0.0
H1239 H 0.418 0.36714 0.67552 0.0
H1240 H 0.37901 0.13644 0.67575 0.0
H1241 H 0.46996 0.17496 0.68095 0.0
H1242 H 0.36016 0.22283 0.63873 0.0
H1243 H 0.35535 0.27896 0.6563 0.0
H1244 H 0.34515 0.20133 0.66026 0.0
H1245 H 0.47571 0.27121 0.64785 0.0
H1246 H 0.48756 0.27281 0.67241 0.0
H1247 H 0.46304 0.33002 0.66245 0.0
loop_
_geom_bond_atom_site_label_1
_geom_bond_atom_site_label_2
_geom_bond_distance
_geom_bond_site_symmetry_2
_ccdc_geom_bond_type
Zn0 O3 2.031 . S
Zn0 O5 2.049 . S
Zn0 O10 2.067 . S
Zn1 O2 1.962 . S
Zn1 O4 1.986 . S
Zn1 O6 1.996 . S
Zn1 O9 1.943 . S
O2 Zn1 1.962 . S
O2 C7 1.254 . S
O3 Zn0 2.031 . S
O3 C7 1.269 . S
O4 Zn1 1.986 . S
O4 C11 1.262 . S
O5 Zn0 2.049 . S
O5 C13 1.260 . S
O6 Zn1 1.996 . S
O6 C13 1.257 . S
C7 O2 1.254 . S
C7 O3 1.269 . S
C8 O9 1.249 . S
C8 O10 1.270 . S
O9 Zn1 1.943 . S
O9 C8 1.249 . S
O10 Zn0 2.067 . S
O10 C8 1.270 . S
C11 O4 1.262 . S
C11 O12 1.232 . S
O12 C11 1.232 . S
C13 O5 1.260 . S
C13 O6 1.257 . S
Zn14 O17 2.031 . S
Zn14 O19 2.049 . S
Zn14 O24 2.067 . S
Zn15 O16 1.962 . S
Zn15 O18 1.986 . S
Zn15 O20 1.996 . S
Zn15 O23 1.943 . S
O16 Zn15 1.962 . S
O16 C21 1.254 . S
O17 Zn14 2.031 . S
O17 C21 1.269 . S
O18 Zn15 1.986 . S
O18 C25 1.262 . S
O19 Zn14 2.049 . S
O19 C27 1.260 . S
O20 Zn15 1.996 . S
O20 C27 1.257 . S
C21 O16 1.254 . S
C21 O17 1.269 . S
C22 O23 1.249 . S
C22 O24 1.270 . S
O23 Zn15 1.943 . S
O23 C22 1.249 . S
O24 Zn14 2.067 . S
O24 C22 1.270 . S
C25 O18 1.262 . S
C25 O26 1.232 . S
O26 C25 1.232 . S
C27 O19 1.260 . S
C27 O20 1.257 . S
Zn28 O31 2.031 . S
Zn28 O33 2.049 . S
Zn28 O38 2.067 . S
Zn29 O30 1.962 . S
Zn29 O32 1.986 . S
Zn29 O34 1.996 . S
Zn29 O37 1.943 . S
O30 Zn29 1.962 . S
O30 C35 1.254 . S
O31 Zn28 2.031 . S
O31 C35 1.269 . S
O32 Zn29 1.986 . S
O32 C39 1.262 . S
O33 Zn28 2.049 . S
O33 C41 1.260 . S
O34 Zn29 1.996 . S
O34 C41 1.257 . S
C35 O30 1.254 . S
C35 O31 1.269 . S
C36 O37 1.249 . S
C36 O38 1.270 . S
O37 Zn29 1.943 . S
O37 C36 1.249 . S
O38 Zn28 2.067 . S
O38 C36 1.270 . S
C39 O32 1.262 . S
C39 O40 1.232 . S
O40 C39 1.232 . S
C41 O33 1.260 . S
C41 O34 1.257 . S
Zn42 O45 2.031 . S
Zn42 O47 2.049 . S
Zn42 O52 2.067 . S
Zn43 O44 1.962 . S
Zn43 O46 1.986 . S
Zn43 O48 1.996 . S
Zn43 O51 1.943 . S
O44 Zn43 1.962 . S
O44 C49 1.254 . S
O45 Zn42 2.031 . S
O45 C49 1.269 . S
O46 Zn43 1.986 . S
O46 C53 1.262 . S
O47 Zn42 2.049 . S
O47 C55 1.260 . S
O48 Zn43 1.996 . S
O48 C55 1.257 . S
C49 O44 1.254 . S
C49 O45 1.269 . S
C50 O51 1.249 . S
C50 O52 1.270 . S
O51 Zn43 1.943 . S
O51 C50 1.249 . S
O52 Zn42 2.067 . S
O52 C50 1.270 . S
C53 O46 1.262 . S
C53 O54 1.232 . S
O54 C53 1.232 . S
C55 O47 1.260 . S
C55 O48 1.257 . S
Zn56 O59 2.031 . S
Zn56 O61 2.049 . S
Zn56 O66 2.067 . S
Zn57 O58 1.962 . S
Zn57 O60 1.986 . S
Zn57 O62 1.996 . S
Zn57 O65 1.943 . S
O58 Zn57 1.962 . S
O58 C63 1.254 . S
O59 Zn56 2.031 . S
O59 C63 1.269 . S
O60 Zn57 1.986 . S
O60 C67 1.262 . S
O61 Zn56 2.049 . S
O61 C69 1.260 . S
O62 Zn57 1.996 . S
O62 C69 1.257 . S
C63 O58 1.254 . S
C63 O59 1.269 . S
C64 O65 1.249 . S
C64 O66 1.270 . S
O65 Zn57 1.943 . S
O65 C64 1.249 . S
O66 Zn56 2.067 . S
O66 C64 1.270 . S
C67 O60 1.262 . S
C67 O68 1.232 . S
O68 C67 1.232 . S
C69 O61 1.260 . S
C69 O62 1.257 . S
Zn70 O73 2.031 . S
Zn70 O75 2.049 . S
Zn70 O80 2.067 . S
Zn71 O72 1.962 . S
Zn71 O74 1.986 . S
Zn71 O76 1.996 . S
Zn71 O79 1.943 . S
O72 Zn71 1.962 . S
O72 C77 1.254 . S
O73 Zn70 2.031 . S
O73 C77 1.269 . S
O74 Zn71 1.986 . S
O74 C81 1.262 . S
O75 Zn70 2.049 . S
O75 C83 1.260 . S
O76 Zn71 1.996 . S
O76 C83 1.257 . S
C77 O72 1.254 . S
C77 O73 1.269 . S
C78 O79 1.249 . S
C78 O80 1.270 . S
O79 Zn71 1.943 . S
O79 C78 1.249 . S
O80 Zn70 2.067 . S
O80 C78 1.270 . S
C81 O74 1.262 . S
C81 O82 1.232 . S
O82 C81 1.232 . S
C83 O75 1.260 . S
C83 O76 1.257 . S
Zn84 O87 2.031 . S
Zn84 O89 2.049 . S
Zn84 O94 2.067 . S
Zn85 O86 1.962 . S
Zn85 O88 1.986 . S
Zn85 O90 1.996 . S
Zn85 O93 1.943 . S
O86 Zn85 1.962 . S
O86 C91 1.254 . S
O87 Zn84 2.031 . S
O87 C91 1.269 . S
O88 Zn85 1.986 . S
O88 C95 1.262 . S
O89 Zn84 2.049 . S
O89 C97 1.260 . S
O90 Zn85 1.996 . S
O90 C97 1.257 . S
C91 O86 1.254 . S
C91 O87 1.269 . S
C92 O93 1.249 . S
C92 O94 1.270 . S
O93 Zn85 1.943 . S
O93 C92 1.249 . S
O94 Zn84 2.067 . S
O94 C92 1.270 . S
C95 O88 1.262 . S
C95 O96 1.232 . S
O96 C95 1.232 . S
C97 O89 1.260 . S
C97 O90 1.257 . S
Zn98 O101 2.031 . S
Zn98 O103 2.049 . S
Zn98 O108 2.067 . S
Zn99 O100 1.962 . S
Zn99 O102 1.986 . S
Zn99 O104 1.996 . S
Zn99 O107 1.943 . S
O100 Zn99 1.962 . S
O100 C105 1.254 . S
O101 Zn98 2.031 . S
O101 C105 1.269 . S
O102 Zn99 1.986 . S
O102 C109 1.262 . S
O103 Zn98 2.049 . S
O103 C111 1.260 . S
O104 Zn99 1.996 . S
O104 C111 1.257 . S
C105 O100 1.254 . S
C105 O101 1.269 . S
C106 O107 1.249 . S
C106 O108 1.270 . S
O107 Zn99 1.943 . S
O107 C106 1.249 . S
O108 Zn98 2.067 . S
O108 C106 1.270 . S
C109 O102 1.262 . S
C109 O110 1.232 . S
O110 C109 1.232 . S
C111 O103 1.260 . S
C111 O104 1.257 . S
Zn112 O115 2.031 . S
Zn112 O117 2.049 . S
Zn112 O122 2.067 . S
Zn113 O114 1.962 . S
Zn113 O116 1.986 . S
Zn113 O118 1.996 . S
Zn113 O121 1.943 . S
O114 Zn113 1.962 . S
O114 C119 1.254 . S
O115 Zn112 2.031 . S
O115 C119 1.269 . S
O116 Zn113 1.986 . S
O116 C123 1.262 . S
O117 Zn112 2.049 . S
O117 C125 1.260 . S
O118 Zn113 1.996 . S
O118 C125 1.257 . S
C119 O114 1.254 . S
C119 O115 1.269 . S
C120 O121 1.249 . S
C120 O122 1.270 . S
O121 Zn113 1.943 . S
O121 C120 1.249 . S
O122 Zn112 2.067 . S
O122 C120 1.270 . S
C123 O116 1.262 . S
C123 O124 1.232 . S
O124 C123 1.232 . S
C125 O117 1.260 . S
C125 O118 1.257 . S
Zn126 O129 2.031 . S
Zn126 O131 2.049 . S
Zn126 O136 2.067 . S
Zn127 O128 1.962 . S
Zn127 O130 1.986 . S
Zn127 O132 1.996 . S
Zn127 O135 1.943 . S
O128 Zn127 1.962 . S
O128 C133 1.254 . S
O129 Zn126 2.031 . S
O129 C133 1.269 . S
O130 Zn127 1.986 . S
O130 C137 1.262 . S
O131 Zn126 2.049 . S
O131 C139 1.260 . S
O132 Zn127 1.996 . S
O132 C139 1.257 . S
C133 O128 1.254 . S
C133 O129 1.269 . S
C134 O135 1.249 . S
C134 O136 1.270 . S
O135 Zn127 1.943 . S
O135 C134 1.249 . S
O136 Zn126 2.067 . S
O136 C134 1.270 . S
C137 O130 1.262 . S
C137 O138 1.232 . S
O138 C137 1.232 . S
C139 O131 1.260 . S
C139 O132 1.257 . S
Zn140 O143 2.031 . S
Zn140 O145 2.049 . S
Zn140 O150 2.067 . S
Zn141 O142 1.962 . S
Zn141 O144 1.986 . S
Zn141 O146 1.996 . S
Zn141 O149 1.943 . S
O142 Zn141 1.962 . S
O142 C147 1.254 . S
O143 Zn140 2.031 . S
O143 C147 1.269 . S
O144 Zn141 1.986 . S
O144 C151 1.262 . S
O145 Zn140 2.049 . S
O145 C153 1.260 . S
O146 Zn141 1.996 . S
O146 C153 1.257 . S
C147 O142 1.254 . S
C147 O143 1.269 . S
C148 O149 1.249 . S
C148 O150 1.270 . S
O149 Zn141 1.943 . S
O149 C148 1.249 . S
O150 Zn140 2.067 . S
O150 C148 1.270 . S
C151 O144 1.262 . S
C151 O152 1.232 . S
O152 C151 1.232 . S
C153 O145 1.260 . S
C153 O146 1.257 . S
Zn154 O157 2.031 . S
Zn154 O159 2.049 . S
Zn154 O164 2.067 . S
Zn155 O156 1.962 . S
Zn155 O158 1.986 . S
Zn155 O160 1.996 . S
Zn155 O163 1.943 . S
O156 Zn155 1.962 . S
O156 C161 1.254 . S
O157 Zn154 2.031 . S
O157 C161 1.269 . S
O158 Zn155 1.986 . S
O158 C165 1.262 . S
O159 Zn154 2.049 . S
O159 C167 1.260 . S
O160 Zn155 1.996 . S
O160 C167 1.257 . S
C161 O156 1.254 . S
C161 O157 1.269 . S
C162 O163 1.249 . S
C162 O164 1.270 . S
O163 Zn155 1.943 . S
O163 C162 1.249 . S
O164 Zn154 2.067 . S
O164 C162 1.270 . S
C165 O158 1.262 . S
C165 O166 1.232 . S
O166 C165 1.232 . S
C167 O159 1.260 . S
C167 O160 1.257 . S
Zn168 O171 2.031 . S
Zn168 O173 2.049 . S
Zn168 O178 2.067 . S
Zn169 O170 1.962 . S
Zn169 O172 1.986 . S
Zn169 O174 1.996 . S
Zn169 O177 1.943 . S
O170 Zn169 1.962 . S
O170 C175 1.254 . S
O171 Zn168 2.031 . S
O171 C175 1.269 . S
O172 Zn169 1.986 . S
O172 C179 1.262 . S
O173 Zn168 2.049 . S
O173 C181 1.260 . S
O174 Zn169 1.996 . S
O174 C181 1.257 . S
C175 O170 1.254 . S
C175 O171 1.269 . S
C176 O177 1.249 . S
C176 O178 1.270 . S
O177 Zn169 1.943 . S
O177 C176 1.249 . S
O178 Zn168 2.067 . S
O178 C176 1.270 . S
C179 O172 1.262 . S
C179 O180 1.232 . S
O180 C179 1.232 . S
C181 O173 1.260 . S
C181 O174 1.257 . S
Zn182 O185 2.031 . S
Zn182 O187 2.049 . S
Zn182 O192 2.067 . S
Zn183 O184 1.962 . S
Zn183 O186 1.986 . S
Zn183 O188 1.996 . S
Zn183 O191 1.943 . S
O184 Zn183 1.962 . S
O184 C189 1.254 . S
O185 Zn182 2.031 . S
O185 C189 1.269 . S
O186 Zn183 1.986 . S
O186 C193 1.262 . S
O187 Zn182 2.049 . S
O187 C195 1.260 . S
O188 Zn183 1.996 . S
O188 C195 1.257 . S
C189 O184 1.254 . S
C189 O185 1.269 . S
C190 O191 1.249 . S
C190 O192 1.270 . S
O191 Zn183 1.943 . S
O191 C190 1.249 . S
O192 Zn182 2.067 . S
O192 C190 1.270 . S
C193 O186 1.262 . S
C193 O194 1.232 . S
O194 C193 1.232 . S
C195 O187 1.260 . S
C195 O188 1.257 . S
Zn196 O199 2.031 . S
Zn196 O201 2.049 . S
Zn196 O206 2.067 . S
Zn197 O198 1.962 . S
Zn197 O200 1.986 . S
Zn197 O202 1.996 . S
Zn197 O205 1.943 . S
O198 Zn197 1.962 . S
O198 C203 1.254 . S
O199 Zn196 2.031 . S
O199 C203 1.269 . S
O200 Zn197 1.986 . S
O200 C207 1.262 . S
O201 Zn196 2.049 . S
O201 C209 1.260 . S
O202 Zn197 1.996 . S
O202 C209 1.257 . S
C203 O198 1.254 . S
C203 O199 1.269 . S
C204 O205 1.249 . S
C204 O206 1.270 . S
O205 Zn197 1.943 . S
O205 C204 1.249 . S
O206 Zn196 2.067 . S
O206 C204 1.270 . S
C207 O200 1.262 . S
C207 O208 1.232 . S
O208 C207 1.232 . S
C209 O201 1.260 . S
C209 O202 1.257 . S
Zn210 O213 2.031 . S
Zn210 O215 2.049 . S
Zn210 O220 2.067 . S
Zn211 O212 1.962 . S
Zn211 O214 1.986 . S
Zn211 O216 1.996 . S
Zn211 O219 1.943 . S
O212 Zn211 1.962 . S
O212 C217 1.254 . S
O213 Zn210 2.031 . S
O213 C217 1.269 . S
O214 Zn211 1.986 . S
O214 C221 1.262 . S
O215 Zn210 2.049 . S
O215 C223 1.260 . S
O216 Zn211 1.996 . S
O216 C223 1.257 . S
C217 O212 1.254 . S
C217 O213 1.269 . S
C218 O219 1.249 . S
C218 O220 1.270 . S
O219 Zn211 1.943 . S
O219 C218 1.249 . S
O220 Zn210 2.067 . S
O220 C218 1.270 . S
C221 O214 1.262 . S
C221 O222 1.232 . S
O222 C221 1.232 . S
C223 O215 1.260 . S
C223 O216 1.257 . S
C224 C225 1.391 . S
C224 C226 1.394 . S
C224 H240 0.931 . S
C225 C224 1.391 . S
C225 C229 1.376 . S
C226 C224 1.394 . S
C226 C227 1.369 . S
C226 C230 1.531 . S
C227 C226 1.369 . S
C227 C228 1.410 . S
C227 C235 1.503 . S
C228 C227 1.410 . S
C228 C229 1.392 . S
C228 C231 1.511 . S
C229 C225 1.376 . S
C229 C228 1.392 . S
C229 H241 0.929 . S
C230 C226 1.531 . S
C230 H242 0.960 . S
C230 H243 0.962 . S
C230 H244 0.960 . S
C231 C228 1.511 . S
C231 H245 0.961 . S
C231 H246 0.961 . S
C231 H247 0.961 . S
C232 C233 1.370 . S
C232 C234 1.363 . S
C232 H248 0.931 . S
C233 C232 1.370 . S
C233 C237 1.408 . S
C234 C232 1.363 . S
C234 C235 1.370 . S
C234 C238 1.524 . S
C235 C227 1.503 . S
C235 C234 1.370 . S
C235 C236 1.403 . S
C236 C235 1.403 . S
C236 C237 1.404 . S
C236 C239 1.539 . S
C237 C233 1.408 . S
C237 C236 1.404 . S
C237 H249 0.930 . S
C238 C234 1.524 . S
C238 H250 0.956 . S
C238 H251 0.961 . S
C238 H252 0.961 . S
C239 C236 1.539 . S
C239 H253 0.958 . S
C239 H254 0.961 . S
C239 H255 0.960 . S
H240 C224 0.931 . S
H241 C229 0.929 . S
H242 C230 0.960 . S
H243 C230 0.962 . S
H244 C230 0.960 . S
H245 C231 0.961 . S
H246 C231 0.961 . S
H247 C231 0.961 . S
H248 C232 0.931 . S
H249 C237 0.930 . S
H250 C238 0.956 . S
H251 C238 0.961 . S
H252 C238 0.961 . S
H253 C239 0.958 . S
H254 C239 0.961 . S
H255 C239 0.960 . S
C256 C257 1.391 1_545 S
C256 C258 1.394 . S
C256 H272 0.931 . S
C257 C256 1.391 1_565 S
C257 C261 1.376 . S
C258 C256 1.394 . S
C258 C259 1.369 1_545 S
C258 C262 1.531 . S
C259 C258 1.369 1_565 S
C259 C260 1.410 . S
C259 C267 1.503 1_665 S
C260 C259 1.410 . S
C260 C261 1.392 . S
C260 C263 1.511 1_655 S
C261 C257 1.376 . S
C261 C260 1.392 . S
C261 H273 0.929 . S
C262 C258 1.531 . S
C262 H274 0.960 1_655 S
C262 H275 0.962 . S
C262 H276 0.960 . S
C263 C260 1.511 1_455 S
C263 H277 0.961 1_455 S
C263 H278 0.961 . S
C263 H279 0.961 . S
C264 C265 1.370 . S
C264 C266 1.363 . S
C264 H280 0.931 . S
C265 C264 1.370 . S
C265 C269 1.408 . S
C266 C264 1.363 . S
C266 C267 1.370 . S
C266 C270 1.524 1_455 S
C267 C259 1.503 1_445 S
C267 C266 1.370 . S
C267 C268 1.403 . S
C268 C267 1.403 . S
C268 C269 1.404 . S
C268 C271 1.539 1_545 S
C269 C265 1.408 . S
C269 C268 1.404 . S
C269 H281 0.930 . S
C270 C266 1.524 1_655 S
C270 H282 0.956 . S
C270 H283 0.961 1_545 S
C270 H284 0.961 . S
C271 C268 1.539 1_565 S
C271 H285 0.958 1_565 S
C271 H286 0.961 . S
C271 H287 0.960 . S
H272 C256 0.931 . S
H273 C261 0.929 . S
H274 C262 0.960 1_455 S
H275 C262 0.962 . S
H276 C262 0.960 . S
H277 C263 0.961 1_655 S
H278 C263 0.961 . S
H279 C263 0.961 . S
H280 C264 0.931 . S
H281 C269 0.930 . S
H282 C270 0.956 . S
H283 C270 0.961 1_565 S
H284 C270 0.961 . S
H285 C271 0.958 1_545 S
H286 C271 0.961 . S
H287 C271 0.960 . S
C288 C289 1.391 . S
C288 C290 1.394 . S
C288 H304 0.931 . S
C289 C288 1.391 . S
C289 C293 1.376 . S
C290 C288 1.394 . S
C290 C291 1.369 . S
C290 C294 1.531 . S
C291 C290 1.369 . S
C291 C292 1.410 . S
C291 C299 1.503 1_565 S
C292 C291 1.410 . S
C292 C293 1.392 . S
C292 C295 1.511 . S
C293 C289 1.376 . S
C293 C292 1.392 . S
C293 H305 0.929 . S
C294 C290 1.531 . S
C294 H306 0.960 . S
C294 H307 0.962 1_565 S
C294 H308 0.960 . S
C295 C292 1.511 . S
C295 H309 0.961 . S
C295 H310 0.961 1_565 S
C295 H311 0.961 . S
C296 C297 1.370 . S
C296 C298 1.363 . S
C296 H312 0.931 . S
C297 C296 1.370 . S
C297 C301 1.408 1_545 S
C298 C296 1.363 . S
C298 C299 1.370 . S
C298 C302 1.524 . S
C299 C291 1.503 1_545 S
C299 C298 1.370 . S
C299 C300 1.403 1_545 S
C300 C299 1.403 1_565 S
C300 C301 1.404 . S
C300 C303 1.539 . S
C301 C297 1.408 1_565 S
C301 C300 1.404 . S
C301 H313 0.930 . S
C302 C298 1.524 . S
C302 H314 0.956 . S
C302 H315 0.961 . S
C302 H316 0.961 . S
C303 C300 1.539 . S
C303 H317 0.958 . S
C303 H318 0.961 . S
C303 H319 0.960 . S
H304 C288 0.931 . S
H305 C293 0.929 . S
H306 C294 0.960 . S
H307 C294 0.962 1_545 S
H308 C294 0.960 . S
H309 C295 0.961 . S
H310 C295 0.961 1_545 S
H311 C295 0.961 . S
H312 C296 0.931 . S
H313 C301 0.930 . S
H314 C302 0.956 . S
H315 C302 0.961 . S
H316 C302 0.961 . S
H317 C303 0.958 . S
H318 C303 0.961 . S
H319 C303 0.960 . S
C320 C321 1.391 . S
C320 C322 1.394 . S
C320 H336 0.931 . S
C321 C320 1.391 . S
C321 C325 1.376 . S
C322 C320 1.394 . S
C322 C323 1.369 . S
C322 C326 1.531 . S
C323 C322 1.369 . S
C323 C324 1.410 . S
C323 C331 1.503 1_455 S
C324 C323 1.410 . S
C324 C325 1.392 . S
C324 C327 1.511 1_455 S
C325 C321 1.376 . S
C325 C324 1.392 . S
C325 H337 0.929 . S
C326 C322 1.531 . S
C326 H338 0.960 . S
C326 H339 0.962 . S
C326 H340 0.960 . S
C327 C324 1.511 1_655 S
C327 H341 0.961 . S
C327 H342 0.961 . S
C327 H343 0.961 . S
C328 C329 1.370 . S
C328 C330 1.363 . S
C328 H344 0.931 . S
C329 C328 1.370 . S
C329 C333 1.408 . S
C330 C328 1.363 . S
C330 C331 1.370 . S
C330 C334 1.524 . S
C331 C323 1.503 1_655 S
C331 C330 1.370 . S
C331 C332 1.403 . S
C332 C331 1.403 . S
C332 C333 1.404 . S
C332 C335 1.539 1_655 S
C333 C329 1.408 . S
C333 C332 1.404 . S
C333 H345 0.930 . S
C334 C330 1.524 . S
C334 H346 0.956 . S
C334 H347 0.961 . S
C334 H348 0.961 . S
C335 C332 1.539 1_455 S
C335 H349 0.958 . S
C335 H350 0.961 . S
C335 H351 0.960 . S
H336 C320 0.931 . S
H337 C325 0.929 . S
H338 C326 0.960 . S
H339 C326 0.962 . S
H340 C326 0.960 . S
H341 C327 0.961 . S
H342 C327 0.961 . S
H343 C327 0.961 . S
H344 C328 0.931 . S
H345 C333 0.930 . S
H346 C334 0.956 . S
H347 C334 0.961 . S
H348 C334 0.961 . S
H349 C335 0.958 . S
H350 C335 0.961 . S
H351 C335 0.960 . S
C352 C353 1.391 . S
C352 C354 1.394 . S
C352 H368 0.931 . S
C353 C352 1.391 . S
C353 C357 1.376 . S
C354 C352 1.394 . S
C354 C355 1.369 . S
C354 C358 1.531 . S
C355 C354 1.369 . S
C355 C356 1.410 . S
C355 C363 1.503 . S
C356 C355 1.410 . S
C356 C357 1.392 . S
C356 C359 1.511 . S
C357 C353 1.376 . S
C357 C356 1.392 . S
C357 H369 0.929 . S
C358 C354 1.531 . S
C358 H370 0.960 . S
C358 H371 0.962 . S
C358 H372 0.960 . S
C359 C356 1.511 . S
C359 H373 0.961 . S
C359 H374 0.961 . S
C359 H375 0.961 . S
C360 C361 1.370 . S
C360 C362 1.363 . S
C360 H376 0.931 . S
C361 C360 1.370 . S
C361 C365 1.408 . S
C362 C360 1.363 . S
C362 C363 1.370 . S
C362 C366 1.524 . S
C363 C355 1.503 . S
C363 C362 1.370 . S
C363 C364 1.403 . S
C364 C363 1.403 . S
C364 C365 1.404 . S
C364 C367 1.539 . S
C365 C361 1.408 . S
C365 C364 1.404 . S
C365 H377 0.930 . S
C366 C362 1.524 . S
C366 H378 0.956 . S
C366 H379 0.961 . S
C366 H380 0.961 . S
C367 C364 1.539 . S
C367 H381 0.958 . S
C367 H382 0.961 . S
C367 H383 0.960 . S
H368 C352 0.931 . S
H369 C357 0.929 . S
H370 C358 0.960 . S
H371 C358 0.962 . S
H372 C358 0.960 . S
H373 C359 0.961 . S
H374 C359 0.961 . S
H375 C359 0.961 . S
H376 C360 0.931 . S
H377 C365 0.930 . S
H378 C366 0.956 . S
H379 C366 0.961 . S
H380 C366 0.961 . S
H381 C367 0.958 . S
H382 C367 0.961 . S
H383 C367 0.960 . S
C384 C385 1.391 . S
C384 C386 1.394 . S
C384 H400 0.931 . S
C385 C384 1.391 . S
C385 C389 1.376 . S
C386 C384 1.394 . S
C386 C387 1.366 1_545 S
C386 C390 1.531 . S
C387 C386 1.366 1_565 S
C387 C388 1.408 1_565 S
C387 C395 1.507 . S
C388 C387 1.408 1_545 S
C388 C389 1.392 . S
C388 C391 1.511 1_545 S
C389 C385 1.376 . S
C389 C388 1.392 . S
C389 H401 0.929 . S
C390 C386 1.531 . S
C390 H402 0.960 1_545 S
C390 H403 0.962 . S
C390 H404 0.961 . S
C391 C388 1.511 1_565 S
C391 H405 0.961 1_565 S
C391 H406 0.961 . S
C391 H407 0.961 . S
C392 C393 1.372 . S
C392 C394 1.362 1_565 S
C392 H408 0.929 1_565 S
C393 C392 1.372 . S
C393 C397 1.408 . S
C394 C392 1.362 1_545 S
C394 C395 1.370 1_545 S
C394 C398 1.524 . S
C395 C387 1.507 . S
C395 C394 1.370 1_565 S
C395 C396 1.403 . S
C396 C395 1.403 . S
C396 C397 1.404 . S
C396 C399 1.539 . S
C397 C393 1.408 . S
C397 C396 1.404 . S
C397 H409 0.930 . S
C398 C394 1.524 . S
C398 H410 0.956 . S
C398 H411 0.961 . S
C398 H412 0.961 . S
C399 C396 1.539 . S
C399 H413 0.958 . S
C399 H414 0.961 . S
C399 H415 0.960 . S
H400 C384 0.931 . S
H401 C389 0.929 . S
H402 C390 0.960 1_565 S
H403 C390 0.962 . S
H404 C390 0.961 . S
H405 C391 0.961 1_545 S
H406 C391 0.961 . S
H407 C391 0.961 . S
H408 C392 0.929 1_545 S
H409 C397 0.930 . S
H410 C398 0.956 . S
H411 C398 0.961 . S
H412 C398 0.961 . S
H413 C399 0.958 . S
H414 C399 0.961 . S
H415 C399 0.960 . S
C416 C417 1.391 . S
C416 C418 1.394 . S
C416 H432 0.931 . S
C417 C416 1.391 . S
C417 C421 1.376 . S
C418 C416 1.394 . S
C418 C419 1.369 . S
C418 C422 1.531 1_655 S
C419 C418 1.369 . S
C419 C420 1.410 . S
C419 C427 1.503 1_655 S
C420 C419 1.410 . S
C420 C421 1.392 . S
C420 C423 1.511 . S
C421 C417 1.376 . S
C421 C420 1.392 . S
C421 H433 0.929 . S
C422 C418 1.531 1_455 S
C422 H434 0.960 . S
C422 H435 0.962 . S
C422 H436 0.960 . S
C423 C420 1.511 . S
C423 H437 0.961 . S
C423 H438 0.961 . S
C423 H439 0.961 . S
C424 C425 1.370 . S
C424 C426 1.363 . S
C424 H440 0.931 . S
C425 C424 1.370 . S
C425 C429 1.408 . S
C426 C424 1.363 . S
C426 C427 1.370 . S
C426 C430 1.524 . S
C427 C419 1.503 1_455 S
C427 C426 1.370 . S
C427 C428 1.403 . S
C428 C427 1.403 . S
C428 C429 1.404 . S
C428 C431 1.539 1_455 S
C429 C425 1.408 . S
C429 C428 1.404 . S
C429 H441 0.930 . S
C430 C426 1.524 . S
C430 H442 0.956 . S
C430 H443 0.961 . S
C430 H444 0.961 . S
C431 C428 1.539 1_655 S
C431 H445 0.958 1_655 S
C431 H446 0.961 . S
C431 H447 0.960 . S
H432 C416 0.931 . S
H433 C421 0.929 . S
H434 C422 0.960 . S
H435 C422 0.962 . S
H436 C422 0.960 . S
H437 C423 0.961 . S
H438 C423 0.961 . S
H439 C423 0.961 . S
H440 C424 0.931 . S
H441 C429 0.930 . S
H442 C430 0.956 . S
H443 C430 0.961 . S
H444 C430 0.961 . S
H445 C431 0.958 1_455 S
H446 C431 0.961 . S
H447 C431 0.960 . S
C448 C449 1.391 . S
C448 C450 1.394 . S
C448 H464 0.931 . S
C449 C448 1.391 . S
C449 C453 1.376 . S
C450 C448 1.394 . S
C450 C451 1.369 . S
C450 C454 1.531 . S
C451 C450 1.369 . S
C451 C452 1.410 . S
C451 C459 1.503 1_554 S
C452 C451 1.410 . S
C452 C453 1.392 . S
C452 C455 1.511 1_554 S
C453 C449 1.376 . S
C453 C452 1.392 . S
C453 H465 0.929 . S
C454 C450 1.531 . S
C454 H466 0.960 1_554 S
C454 H467 0.962 . S
C454 H468 0.960 . S
C455 C452 1.511 1_556 S
C455 H469 0.971 . S
C455 H470 0.961 . S
C455 H471 0.961 . S
C456 C457 1.370 . S
C456 C458 1.338 1_556 S
C456 H472 0.931 . S
C457 C456 1.370 . S
C457 C461 1.408 . S
C458 C456 1.338 1_554 S
C458 C459 1.337 1_554 S
C458 C462 1.585 . S
C459 C451 1.503 1_556 S
C459 C458 1.337 1_556 S
C459 C460 1.403 . S
C460 C459 1.403 . S
C460 C461 1.404 . S
C460 C463 1.539 . S
C461 C457 1.408 . S
C461 C460 1.404 . S
C461 H473 0.930 . S
C462 C458 1.585 . S
C462 H474 0.956 . S
C462 H475 0.961 . S
C462 H476 0.961 . S
C463 C460 1.539 . S
C463 H477 0.958 . S
C463 H478 0.961 . S
C463 H479 0.960 . S
H464 C448 0.931 . S
H465 C453 0.929 . S
H466 C454 0.960 1_556 S
H467 C454 0.962 . S
H468 C454 0.960 . S
H469 C455 0.971 . S
H470 C455 0.961 . S
H471 C455 0.961 . S
H472 C456 0.931 . S
H473 C461 0.930 . S
H474 C462 0.956 . S
H475 C462 0.961 . S
H476 C462 0.961 . S
H477 C463 0.958 . S
H478 C463 0.961 . S
H479 C463 0.960 . S
C480 C481 1.391 . S
C480 C482 1.394 . S
C480 H496 0.931 . S
C481 C480 1.391 . S
C481 C485 1.376 . S
C482 C480 1.394 . S
C482 C483 1.369 . S
C482 C486 1.531 1_455 S
C483 C482 1.369 . S
C483 C484 1.410 . S
C483 C491 1.503 1_456 S
C484 C483 1.410 . S
C484 C485 1.392 . S
C484 C487 1.511 1_556 S
C485 C481 1.376 . S
C485 C484 1.392 . S
C485 H497 0.929 . S
C486 C482 1.531 1_655 S
C486 H498 0.960 . S
C486 H499 0.962 . S
C486 H500 0.960 . S
C487 C484 1.511 1_554 S
C487 H501 0.961 . S
C487 H502 0.961 . S
C487 H503 0.961 . S
C488 C489 1.370 . S
C488 C490 1.363 . S
C488 H504 0.931 . S
C489 C488 1.370 . S
C489 C493 1.408 . S
C490 C488 1.363 . S
C490 C491 1.370 . S
C490 C494 1.524 . S
C491 C483 1.503 1_654 S
C491 C490 1.370 . S
C491 C492 1.409 . S
C492 C491 1.409 . S
C492 C493 1.435 . S
C492 C495 1.506 1_554 S
C493 C489 1.408 . S
C493 C492 1.435 . S
C493 H505 0.930 . S
C494 C490 1.524 . S
C494 H506 0.956 . S
C494 H507 0.961 1_655 S
C494 H508 0.961 . S
C495 C492 1.506 1_556 S
C495 H509 0.958 . S
C495 H510 0.961 . S
C495 H511 0.960 1_655 S
H496 C480 0.931 . S
H497 C485 0.929 . S
H498 C486 0.960 . S
H499 C486 0.962 . S
H500 C486 0.960 . S
H501 C487 0.961 . S
H502 C487 0.961 . S
H503 C487 0.961 . S
H504 C488 0.931 . S
H505 C493 0.930 . S
H506 C494 0.956 . S
H507 C494 0.961 1_455 S
H508 C494 0.961 . S
H509 C495 0.958 . S
H510 C495 0.961 . S
H511 C495 0.960 1_455 S
C512 C513 1.391 . S
C512 C514 1.394 . S
C512 H528 0.931 . S
C513 C512 1.391 . S
C513 C517 1.376 . S
C514 C512 1.394 . S
C514 C515 1.369 . S
C514 C518 1.531 . S
C515 C514 1.369 . S
C515 C516 1.410 . S
C515 C523 1.503 . S
C516 C515 1.410 . S
C516 C517 1.392 . S
C516 C519 1.511 . S
C517 C513 1.376 . S
C517 C516 1.392 . S
C517 H529 0.929 . S
C518 C514 1.531 . S
C518 H530 0.960 . S
C518 H531 0.962 . S
C518 H532 0.960 . S
C519 C516 1.511 . S
C519 H533 0.961 . S
C519 H534 0.961 . S
C519 H535 0.961 . S
C520 C521 1.370 . S
C520 C522 1.363 . S
C520 H536 0.931 . S
C521 C520 1.370 . S
C521 C525 1.408 . S
C522 C520 1.363 . S
C522 C523 1.370 . S
C522 C526 1.524 . S
C523 C515 1.503 . S
C523 C522 1.370 . S
C523 C524 1.403 . S
C524 C523 1.403 . S
C524 C525 1.404 . S
C524 C527 1.539 . S
C525 C521 1.408 . S
C525 C524 1.404 . S
C525 H537 0.930 . S
C526 C522 1.524 . S
C526 H538 0.956 . S
C526 H539 0.961 . S
C526 H540 0.961 . S
C527 C524 1.539 . S
C527 H541 0.958 . S
C527 H542 0.961 . S
C527 H543 0.960 . S
H528 C512 0.931 . S
H529 C517 0.929 . S
H530 C518 0.960 . S
H531 C518 0.962 . S
H532 C518 0.960 . S
H533 C519 0.961 . S
H534 C519 0.961 . S
H535 C519 0.961 . S
H536 C520 0.931 . S
H537 C525 0.930 . S
H538 C526 0.956 . S
H539 C526 0.961 . S
H540 C526 0.961 . S
H541 C527 0.958 . S
H542 C527 0.961 . S
H543 C527 0.960 . S
C544 C545 1.391 . S
C544 C546 1.394 . S
C544 H560 0.931 . S
C545 C544 1.391 . S
C545 C549 1.376 . S
C546 C544 1.394 . S
C546 C547 1.369 . S
C546 C550 1.531 1_556 S
C547 C546 1.369 . S
C547 C548 1.410 . S
C547 C555 1.503 1_556 S
C548 C547 1.410 . S
C548 C549 1.392 . S
C548 C551 1.511 . S
C549 C545 1.376 . S
C549 C548 1.392 . S
C549 H561 0.929 . S
C550 C546 1.531 1_554 S
C550 H562 0.960 . S
C550 H563 0.970 . S
C550 H564 0.960 . S
C551 C548 1.511 . S
C551 H565 0.961 . S
C551 H566 0.961 . S
C551 H567 0.961 1_556 S
C552 C553 1.370 . S
C552 C554 1.341 1_554 S
C552 H568 0.931 . S
C553 C552 1.370 . S
C553 C557 1.408 . S
C554 C552 1.341 1_556 S
C554 C555 1.343 1_556 S
C554 C558 1.575 . S
C555 C547 1.503 1_554 S
C555 C554 1.343 1_554 S
C555 C556 1.403 . S
C556 C555 1.403 . S
C556 C557 1.404 . S
C556 C559 1.539 . S
C557 C553 1.408 . S
C557 C556 1.404 . S
C557 H569 0.930 . S
C558 C554 1.575 . S
C558 H570 0.956 . S
C558 H571 0.961 . S
C558 H572 0.961 . S
C559 C556 1.539 . S
C559 H573 0.958 . S
C559 H574 0.961 . S
C559 H575 0.960 . S
H560 C544 0.931 . S
H561 C549 0.929 . S
H562 C550 0.960 . S
H563 C550 0.970 . S
H564 C550 0.960 . S
H565 C551 0.961 . S
H566 C551 0.961 . S
H567 C551 0.961 1_554 S
H568 C552 0.931 . S
H569 C557 0.930 . S
H570 C558 0.956 . S
H571 C558 0.961 . S
H572 C558 0.961 . S
H573 C559 0.958 . S
H574 C559 0.961 . S
H575 C559 0.960 . S
C576 C577 1.391 . S
C576 C578 1.394 . S
C576 H592 0.931 . S
C577 C576 1.391 . S
C577 C581 1.376 . S
C578 C576 1.394 . S
C578 C579 1.369 . S
C578 C582 1.531 . S
C579 C578 1.369 . S
C579 C580 1.410 . S
C579 C587 1.503 . S
C580 C579 1.410 . S
C580 C581 1.392 . S
C580 C583 1.511 . S
C581 C577 1.376 . S
C581 C580 1.392 . S
C581 H593 0.929 . S
C582 C578 1.531 . S
C582 H594 0.960 . S
C582 H595 0.962 . S
C582 H596 0.960 . S
C583 C580 1.511 . S
C583 H597 0.961 . S
C583 H598 0.961 . S
C583 H599 0.961 . S
C584 C585 1.370 . S
C584 C586 1.363 . S
C584 H600 0.931 . S
C585 C584 1.370 . S
C585 C589 1.408 . S
C586 C584 1.363 . S
C586 C587 1.370 . S
C586 C590 1.524 . S
C587 C579 1.503 . S
C587 C586 1.370 . S
C587 C588 1.403 . S
C588 C587 1.403 . S
C588 C589 1.404 . S
C588 C591 1.539 . S
C589 C585 1.408 . S
C589 C588 1.404 . S
C589 H601 0.930 . S
C590 C586 1.524 . S
C590 H602 0.956 . S
C590 H603 0.961 . S
C590 H604 0.961 . S
C591 C588 1.539 . S
C591 H605 0.958 . S
C591 H606 0.961 . S
C591 H607 0.960 . S
H592 C576 0.931 . S
H593 C581 0.929 . S
H594 C582 0.960 . S
H595 C582 0.962 . S
H596 C582 0.960 . S
H597 C583 0.961 . S
H598 C583 0.961 . S
H599 C583 0.961 . S
H600 C584 0.931 . S
H601 C589 0.930 . S
H602 C590 0.956 . S
H603 C590 0.961 . S
H604 C590 0.961 . S
H605 C591 0.958 . S
H606 C591 0.961 . S
H607 C591 0.960 . S
C608 C609 1.391 . S
C608 C610 1.394 . S
C608 H624 0.931 . S
C609 C608 1.391 . S
C609 C613 1.376 . S
C610 C608 1.394 . S
C610 C611 1.367 1_545 S
C610 C614 1.531 1_545 S
C611 C610 1.367 1_565 S
C611 C612 1.406 1_566 S
C611 C619 1.508 1_556 S
C612 C611 1.406 1_544 S
C612 C613 1.392 1_554 S
C612 C615 1.511 . S
C613 C609 1.376 . S
C613 C612 1.392 1_556 S
C613 H625 0.929 . S
C614 C610 1.531 1_565 S
C614 H626 0.960 . S
C614 H627 0.962 1_565 S
C614 H628 0.960 . S
C615 C612 1.511 . S
C615 H629 0.961 . S
C615 H630 0.961 . S
C615 H631 0.961 1_545 S
C616 C617 1.376 . S
C616 C618 1.361 1_565 S
C616 H632 0.927 1_565 S
C617 C616 1.376 . S
C617 C621 1.408 . S
C618 C616 1.361 1_545 S
C618 C619 1.370 1_545 S
C618 C622 1.524 . S
C619 C611 1.508 1_554 S
C619 C618 1.370 1_565 S
C619 C620 1.403 . S
C620 C619 1.403 . S
C620 C621 1.404 . S
C620 C623 1.539 . S
C621 C617 1.408 . S
C621 C620 1.404 . S
C621 H633 0.930 . S
C622 C618 1.524 . S
C622 H634 0.956 1_554 S
C622 H635 0.961 . S
C622 H636 0.961 . S
C623 C620 1.539 . S
C623 H637 0.958 1_554 S
C623 H638 0.961 . S
C623 H639 0.961 . S
H624 C608 0.931 . S
H625 C613 0.929 . S
H626 C614 0.960 . S
H627 C614 0.962 1_545 S
H628 C614 0.960 . S
H629 C615 0.961 . S
H630 C615 0.961 . S
H631 C615 0.961 1_565 S
H632 C616 0.927 1_545 S
H633 C621 0.930 . S
H634 C622 0.956 1_556 S
H635 C622 0.961 . S
H636 C622 0.961 . S
H637 C623 0.958 1_556 S
H638 C623 0.961 . S
H639 C623 0.961 . S
C640 C641 1.391 . S
C640 C642 1.394 . S
C640 H656 0.931 . S
C641 C640 1.391 . S
C641 C645 1.376 . S
C642 C640 1.394 . S
C642 C643 1.369 . S
C642 C646 1.531 . S
C643 C642 1.369 . S
C643 C644 1.410 . S
C643 C651 1.503 . S
C644 C643 1.410 . S
C644 C645 1.392 . S
C644 C647 1.511 . S
C645 C641 1.376 . S
C645 C644 1.392 . S
C645 H657 0.929 . S
C646 C642 1.531 . S
C646 H658 0.960 . S
C646 H659 0.962 . S
C646 H660 0.960 . S
C647 C644 1.511 . S
C647 H661 0.961 . S
C647 H662 0.961 . S
C647 H663 0.961 . S
C648 C649 1.370 . S
C648 C650 1.363 . S
C648 H664 0.931 . S
C649 C648 1.370 . S
C649 C653 1.408 . S
C650 C648 1.363 . S
C650 C651 1.370 . S
C650 C654 1.524 . S
C651 C643 1.503 . S
C651 C650 1.370 . S
C651 C652 1.403 . S
C652 C651 1.403 . S
C652 C653 1.404 . S
C652 C655 1.539 . S
C653 C649 1.408 . S
C653 C652 1.404 . S
C653 H665 0.930 . S
C654 C650 1.524 . S
C654 H666 0.956 . S
C654 H667 0.961 . S
C654 H668 0.961 . S
C655 C652 1.539 . S
C655 H669 0.958 . S
C655 H670 0.961 . S
C655 H671 0.960 . S
H656 C640 0.931 . S
H657 C645 0.929 . S
H658 C646 0.960 . S
H659 C646 0.962 . S
H660 C646 0.960 . S
H661 C647 0.961 . S
H662 C647 0.961 . S
H663 C647 0.961 . S
H664 C648 0.931 . S
H665 C653 0.930 . S
H666 C654 0.956 . S
H667 C654 0.961 . S
H668 C654 0.961 . S
H669 C655 0.958 . S
H670 C655 0.961 . S
H671 C655 0.960 . S
C672 C673 1.391 . S
C672 C674 1.394 . S
C672 H688 0.931 . S
C673 C672 1.391 . S
C673 C677 1.376 . S
C674 C672 1.394 . S
C674 C675 1.369 . S
C674 C678 1.531 . S
C675 C674 1.369 . S
C675 C676 1.410 . S
C675 C683 1.503 . S
C676 C675 1.410 . S
C676 C677 1.392 . S
C676 C679 1.511 . S
C677 C673 1.376 . S
C677 C676 1.392 . S
C677 H689 0.929 . S
C678 C674 1.531 . S
C678 H690 0.960 . S
C678 H691 0.962 . S
C678 H692 0.960 . S
C679 C676 1.511 . S
C679 H693 0.961 . S
C679 H694 0.961 . S
C679 H695 0.961 . S
C680 C681 1.370 . S
C680 C682 1.363 . S
C680 H696 0.931 . S
C681 C680 1.370 . S
C681 C685 1.408 . S
C682 C680 1.363 . S
C682 C683 1.370 . S
C682 C686 1.524 . S
C683 C675 1.503 . S
C683 C682 1.370 . S
C683 C684 1.403 . S
C684 C683 1.403 . S
C684 C685 1.404 . S
C684 C687 1.539 . S
C685 C681 1.408 . S
C685 C684 1.404 . S
C685 H697 0.930 . S
C686 C682 1.524 . S
C686 H698 0.956 . S
C686 H699 0.961 . S
C686 H700 0.961 . S
C687 C684 1.539 . S
C687 H701 0.958 . S
C687 H702 0.961 . S
C687 H703 0.960 . S
H688 C672 0.931 . S
H689 C677 0.929 . S
H690 C678 0.960 . S
H691 C678 0.962 . S
H692 C678 0.960 . S
H693 C679 0.961 . S
H694 C679 0.961 . S
H695 C679 0.961 . S
H696 C680 0.931 . S
H697 C685 0.930 . S
H698 C686 0.956 . S
H699 C686 0.961 . S
H700 C686 0.961 . S
H701 C687 0.958 . S
H702 C687 0.961 . S
H703 C687 0.960 . S
C704 C705 1.391 . S
C704 C706 1.394 . S
C704 H720 0.931 . S
C705 C704 1.391 . S
C705 C709 1.376 . S
C706 C704 1.394 . S
C706 C707 1.369 . S
C706 C710 1.531 . S
C707 C706 1.369 . S
C707 C708 1.410 . S
C707 C715 1.503 . S
C708 C707 1.410 . S
C708 C709 1.392 . S
C708 C711 1.511 . S
C709 C705 1.376 . S
C709 C708 1.392 . S
C709 H721 0.929 . S
C710 C706 1.531 . S
C710 H722 0.960 . S
C710 H723 0.962 . S
C710 H724 0.960 . S
C711 C708 1.511 . S
C711 H725 0.961 . S
C711 H726 0.961 . S
C711 H727 0.961 . S
C712 C713 1.370 . S
C712 C714 1.363 . S
C712 H728 0.931 . S
C713 C712 1.370 . S
C713 C717 1.408 . S
C714 C712 1.363 . S
C714 C715 1.370 . S
C714 C718 1.524 . S
C715 C707 1.503 . S
C715 C714 1.370 . S
C715 C716 1.403 . S
C716 C715 1.403 . S
C716 C717 1.404 . S
C716 C719 1.539 . S
C717 C713 1.408 . S
C717 C716 1.404 . S
C717 H729 0.930 . S
C718 C714 1.524 . S
C718 H730 0.956 . S
C718 H731 0.961 . S
C718 H732 0.961 . S
C719 C716 1.539 . S
C719 H733 0.958 . S
C719 H734 0.961 . S
C719 H735 0.960 . S
H720 C704 0.931 . S
H721 C709 0.929 . S
H722 C710 0.960 . S
H723 C710 0.962 . S
H724 C710 0.960 . S
H725 C711 0.961 . S
H726 C711 0.961 . S
H727 C711 0.961 . S
H728 C712 0.931 . S
H729 C717 0.930 . S
H730 C718 0.956 . S
H731 C718 0.961 . S
H732 C718 0.961 . S
H733 C719 0.958 . S
H734 C719 0.961 . S
H735 C719 0.960 . S
C736 C737 1.391 . S
C736 C738 1.394 . S
C736 H752 0.931 . S
C737 C736 1.391 . S
C737 C741 1.376 . S
C738 C736 1.394 . S
C738 C739 1.369 . S
C738 C742 1.531 . S
C739 C738 1.369 . S
C739 C740 1.410 . S
C739 C747 1.503 . S
C740 C739 1.410 . S
C740 C741 1.392 . S
C740 C743 1.511 . S
C741 C737 1.376 . S
C741 C740 1.392 . S
C741 H753 0.929 . S
C742 C738 1.531 . S
C742 H754 0.960 . S
C742 H755 0.962 . S
C742 H756 0.960 . S
C743 C740 1.511 . S
C743 H757 0.961 . S
C743 H758 0.961 . S
C743 H759 0.961 . S
C744 C745 1.370 . S
C744 C746 1.363 . S
C744 H760 0.931 . S
C745 C744 1.370 . S
C745 C749 1.408 . S
C746 C744 1.363 . S
C746 C747 1.370 . S
C746 C750 1.524 . S
C747 C739 1.503 . S
C747 C746 1.370 . S
C747 C748 1.403 . S
C748 C747 1.403 . S
C748 C749 1.404 . S
C748 C751 1.539 . S
C749 C745 1.408 . S
C749 C748 1.404 . S
C749 H761 0.930 1_565 S
C750 C746 1.524 . S
C750 H762 0.956 . S
C750 H763 0.961 . S
C750 H764 0.961 . S
C751 C748 1.539 . S
C751 H765 0.958 . S
C751 H766 0.961 . S
C751 H767 0.960 . S
H752 C736 0.931 . S
H753 C741 0.929 . S
H754 C742 0.960 . S
H755 C742 0.962 . S
H756 C742 0.960 . S
H757 C743 0.961 . S
H758 C743 0.961 . S
H759 C743 0.961 . S
H760 C744 0.931 . S
H761 C749 0.930 1_545 S
H762 C750 0.956 . S
H763 C750 0.961 . S
H764 C750 0.961 . S
H765 C751 0.958 . S
H766 C751 0.961 . S
H767 C751 0.960 . S
C768 C769 1.391 . S
C768 C770 1.394 . S
C768 H784 0.931 . S
C769 C768 1.391 . S
C769 C773 1.376 . S
C770 C768 1.394 . S
C770 C771 1.369 . S
C770 C774 1.531 . S
C771 C770 1.369 . S
C771 C772 1.410 . S
C771 C779 1.503 . S
C772 C771 1.410 . S
C772 C773 1.392 . S
C772 C775 1.511 . S
C773 C769 1.376 . S
C773 C772 1.392 . S
C773 H785 0.929 . S
C774 C770 1.531 . S
C774 H786 0.960 . S
C774 H787 0.962 . S
C774 H788 0.960 . S
C775 C772 1.511 . S
C775 H789 0.961 . S
C775 H790 0.961 . S
C775 H791 0.961 . S
C776 C777 1.370 . S
C776 C778 1.363 . S
C776 H792 0.931 . S
C777 C776 1.370 . S
C777 C781 1.408 . S
C778 C776 1.363 . S
C778 C779 1.370 . S
C778 C782 1.524 . S
C779 C771 1.503 . S
C779 C778 1.370 . S
C779 C780 1.403 . S
C780 C779 1.403 . S
C780 C781 1.404 . S
C780 C783 1.539 . S
C781 C777 1.408 . S
C781 C780 1.404 . S
C781 H793 0.930 . S
C782 C778 1.524 . S
C782 H794 0.956 . S
C782 H795 0.961 . S
C782 H796 0.961 . S
C783 C780 1.539 . S
C783 H797 0.958 . S
C783 H798 0.961 . S
C783 H799 0.960 . S
H784 C768 0.931 . S
H785 C773 0.929 . S
H786 C774 0.960 . S
H787 C774 0.962 . S
H788 C774 0.960 . S
H789 C775 0.961 . S
H790 C775 0.961 . S
H791 C775 0.961 . S
H792 C776 0.931 . S
H793 C781 0.930 . S
H794 C782 0.956 . S
H795 C782 0.961 . S
H796 C782 0.961 . S
H797 C783 0.958 . S
H798 C783 0.961 . S
H799 C783 0.960 . S
C800 C801 1.391 . S
C800 C802 1.394 . S
C800 H816 0.931 . S
C801 C800 1.391 . S
C801 C805 1.376 . S
C802 C800 1.394 . S
C802 C803 1.369 . S
C802 C806 1.531 . S
C803 C802 1.369 . S
C803 C804 1.410 . S
C803 C811 1.503 . S
C804 C803 1.410 . S
C804 C805 1.392 . S
C804 C807 1.511 . S
C805 C801 1.376 . S
C805 C804 1.392 . S
C805 H817 0.929 . S
C806 C802 1.531 . S
C806 H818 0.960 . S
C806 H819 0.962 . S
C806 H820 0.960 . S
C807 C804 1.511 . S
C807 H821 0.961 . S
C807 H822 0.961 . S
C807 H823 0.961 . S
C808 C809 1.370 . S
C808 C810 1.363 . S
C808 H824 0.931 . S
C809 C808 1.370 . S
C809 C813 1.408 . S
C810 C808 1.363 . S
C810 C811 1.370 . S
C810 C814 1.524 . S
C811 C803 1.503 . S
C811 C810 1.370 . S
C811 C812 1.403 . S
C812 C811 1.403 . S
C812 C813 1.404 . S
C812 C815 1.539 . S
C813 C809 1.408 . S
C813 C812 1.404 . S
C813 H825 0.930 . S
C814 C810 1.524 . S
C814 H826 0.956 . S
C814 H827 0.961 . S
C814 H828 0.961 . S
C815 C812 1.539 . S
C815 H829 0.958 . S
C815 H830 0.961 . S
C815 H831 0.960 . S
H816 C800 0.931 . S
H817 C805 0.929 . S
H818 C806 0.960 . S
H819 C806 0.962 . S
H820 C806 0.960 . S
H821 C807 0.961 . S
H822 C807 0.961 . S
H823 C807 0.961 . S
H824 C808 0.931 . S
H825 C813 0.930 . S
H826 C814 0.956 . S
H827 C814 0.961 . S
H828 C814 0.961 . S
H829 C815 0.958 . S
H830 C815 0.961 . S
H831 C815 0.960 . S
C832 C833 1.391 . S
C832 C834 1.394 . S
C832 H848 0.931 . S
C833 C832 1.391 . S
C833 C837 1.376 . S
C834 C832 1.394 . S
C834 C835 1.369 . S
C834 C838 1.531 . S
C835 C834 1.369 . S
C835 C836 1.410 . S
C835 C843 1.503 . S
C836 C835 1.410 . S
C836 C837 1.392 . S
C836 C839 1.511 . S
C837 C833 1.376 . S
C837 C836 1.392 . S
C837 H849 0.929 . S
C838 C834 1.531 . S
C838 H850 0.960 . S
C838 H851 0.962 . S
C838 H852 0.960 . S
C839 C836 1.511 . S
C839 H853 0.961 . S
C839 H854 0.961 . S
C839 H855 0.961 . S
C840 C841 1.370 . S
C840 C842 1.363 . S
C840 H856 0.931 . S
C841 C840 1.370 . S
C841 C845 1.408 . S
C842 C840 1.363 . S
C842 C843 1.370 . S
C842 C846 1.524 . S
C843 C835 1.503 . S
C843 C842 1.370 . S
C843 C844 1.403 . S
C844 C843 1.403 . S
C844 C845 1.404 . S
C844 C847 1.539 . S
C845 C841 1.408 . S
C845 C844 1.404 . S
C845 H857 0.930 . S
C846 C842 1.524 . S
C846 H858 0.956 . S
C846 H859 0.961 . S
C846 H860 0.961 . S
C847 C844 1.539 . S
C847 H861 0.958 . S
C847 H862 0.961 . S
C847 H863 0.960 . S
H848 C832 0.931 . S
H849 C837 0.929 . S
H850 C838 0.960 . S
H851 C838 0.962 . S
H852 C838 0.960 . S
H853 C839 0.961 . S
H854 C839 0.961 . S
H855 C839 0.961 . S
H856 C840 0.931 . S
H857 C845 0.930 . S
H858 C846 0.956 . S
H859 C846 0.961 . S
H860 C846 0.961 . S
H861 C847 0.958 . S
H862 C847 0.961 . S
H863 C847 0.960 . S
C864 C865 1.391 . S
C864 C866 1.394 . S
C864 H880 0.931 . S
C865 C864 1.391 . S
C865 C869 1.376 . S
C866 C864 1.394 . S
C866 C867 1.369 . S
C866 C870 1.531 . S
C867 C866 1.369 . S
C867 C868 1.410 . S
C867 C875 1.503 . S
C868 C867 1.410 . S
C868 C869 1.392 . S
C868 C871 1.511 . S
C869 C865 1.376 . S
C869 C868 1.392 . S
C869 H881 0.929 . S
C870 C866 1.531 . S
C870 H882 0.960 . S
C870 H883 0.962 . S
C870 H884 0.960 . S
C871 C868 1.511 . S
C871 H885 0.961 . S
C871 H886 0.961 . S
C871 H887 0.961 . S
C872 C873 1.370 . S
C872 C874 1.363 . S
C872 H888 0.931 . S
C873 C872 1.370 . S
C873 C877 1.408 . S
C874 C872 1.363 . S
C874 C875 1.370 . S
C874 C878 1.524 . S
C875 C867 1.503 . S
C875 C874 1.370 . S
C875 C876 1.403 . S
C876 C875 1.403 . S
C876 C877 1.404 . S
C876 C879 1.539 . S
C877 C873 1.408 . S
C877 C876 1.404 . S
C877 H889 0.930 . S
C878 C874 1.524 . S
C878 H890 0.956 . S
C878 H891 0.961 . S
C878 H892 0.961 . S
C879 C876 1.539 . S
C879 H893 0.958 . S
C879 H894 0.961 . S
C879 H895 0.960 . S
H880 C864 0.931 . S
H881 C869 0.929 . S
H882 C870 0.960 . S
H883 C870 0.962 . S
H884 C870 0.960 . S
H885 C871 0.961 . S
H886 C871 0.961 . S
H887 C871 0.961 . S
H888 C872 0.931 . S
H889 C877 0.930 . S
H890 C878 0.956 . S
H891 C878 0.961 . S
H892 C878 0.961 . S
H893 C879 0.958 . S
H894 C879 0.961 . S
H895 C879 0.960 . S
C896 C897 1.391 . S
C896 C898 1.394 . S
C896 H912 0.931 . S
C897 C896 1.391 . S
C897 C901 1.376 . S
C898 C896 1.394 . S
C898 C899 1.369 . S
C898 C902 1.531 . S
C899 C898 1.369 . S
C899 C900 1.410 . S
C899 C907 1.503 . S
C900 C899 1.410 . S
C900 C901 1.392 . S
C900 C903 1.511 . S
C901 C897 1.376 . S
C901 C900 1.392 . S
C901 H913 0.929 . S
C902 C898 1.531 . S
C902 H914 0.960 . S
C902 H915 0.962 . S
C902 H916 0.960 . S
C903 C900 1.511 . S
C903 H917 0.961 . S
C903 H918 0.961 . S
C903 H919 0.961 . S
C904 C905 1.370 . S
C904 C906 1.363 . S
C904 H920 0.931 . S
C905 C904 1.370 . S
C905 C909 1.408 . S
C906 C904 1.363 . S
C906 C907 1.370 . S
C906 C910 1.524 . S
C907 C899 1.503 . S
C907 C906 1.370 . S
C907 C908 1.403 . S
C908 C907 1.403 . S
C908 C909 1.404 . S
C908 C911 1.539 . S
C909 C905 1.408 . S
C909 C908 1.404 . S
C909 H921 0.930 . S
C910 C906 1.524 . S
C910 H922 0.956 . S
C910 H923 0.961 . S
C910 H924 0.961 . S
C911 C908 1.539 . S
C911 H925 0.958 . S
C911 H926 0.961 . S
C911 H927 0.960 . S
H912 C896 0.931 . S
H913 C901 0.929 . S
H914 C902 0.960 . S
H915 C902 0.962 . S
H916 C902 0.960 . S
H917 C903 0.961 . S
H918 C903 0.961 . S
H919 C903 0.961 . S
H920 C904 0.931 . S
H921 C909 0.930 . S
H922 C910 0.956 . S
H923 C910 0.961 . S
H924 C910 0.961 . S
H925 C911 0.958 . S
H926 C911 0.961 . S
H927 C911 0.960 . S
C928 C929 1.391 . S
C928 C930 1.394 . S
C928 H944 0.931 . S
C929 C928 1.391 . S
C929 C933 1.376 . S
C930 C928 1.394 . S
C930 C931 1.369 . S
C930 C934 1.531 . S
C931 C930 1.369 . S
C931 C932 1.410 . S
C931 C939 1.503 . S
C932 C931 1.410 . S
C932 C933 1.392 . S
C932 C935 1.511 . S
C933 C929 1.376 . S
C933 C932 1.392 . S
C933 H945 0.929 . S
C934 C930 1.531 . S
C934 H946 0.960 . S
C934 H947 0.962 . S
C934 H948 0.960 . S
C935 C932 1.511 . S
C935 H949 0.961 . S
C935 H950 0.961 . S
C935 H951 0.961 . S
C936 C937 1.370 . S
C936 C938 1.363 . S
C936 H952 0.931 . S
C937 C936 1.370 . S
C937 C941 1.408 . S
C938 C936 1.363 . S
C938 C939 1.370 . S
C938 C942 1.524 . S
C939 C931 1.503 . S
C939 C938 1.370 . S
C939 C940 1.403 . S
C940 C939 1.403 . S
C940 C941 1.404 . S
C940 C943 1.539 . S
C941 C937 1.408 . S
C941 C940 1.404 . S
C941 H953 0.930 . S
C942 C938 1.524 . S
C942 H954 0.956 . S
C942 H955 0.961 . S
C942 H956 0.961 . S
C943 C940 1.539 . S
C943 H957 0.958 . S
C943 H958 0.961 . S
C943 H959 0.960 . S
H944 C928 0.931 . S
H945 C933 0.929 . S
H946 C934 0.960 . S
H947 C934 0.962 . S
H948 C934 0.960 . S
H949 C935 0.961 . S
H950 C935 0.961 . S
H951 C935 0.961 . S
H952 C936 0.931 . S
H953 C941 0.930 . S
H954 C942 0.956 . S
H955 C942 0.961 . S
H956 C942 0.961 . S
H957 C943 0.958 . S
H958 C943 0.961 . S
H959 C943 0.960 . S
C960 C961 1.391 . S
C960 C962 1.394 . S
C960 H976 0.931 . S
C961 C960 1.391 . S
C961 C965 1.376 . S
C962 C960 1.394 . S
C962 C963 1.369 . S
C962 C966 1.531 . S
C963 C962 1.369 . S
C963 C964 1.410 . S
C963 C971 1.503 . S
C964 C963 1.410 . S
C964 C965 1.392 . S
C964 C967 1.511 . S
C965 C961 1.376 . S
C965 C964 1.392 . S
C965 H977 0.929 . S
C966 C962 1.531 . S
C966 H978 0.960 . S
C966 H979 0.962 . S
C966 H980 0.960 . S
C967 C964 1.511 . S
C967 H981 0.961 . S
C967 H982 0.961 . S
C967 H983 0.961 . S
C968 C969 1.370 . S
C968 C970 1.363 . S
C968 H984 0.931 . S
C969 C968 1.370 . S
C969 C973 1.408 . S
C970 C968 1.363 . S
C970 C971 1.370 . S
C970 C974 1.524 . S
C971 C963 1.503 . S
C971 C970 1.370 . S
C971 C972 1.403 . S
C972 C971 1.403 . S
C972 C973 1.404 . S
C972 C975 1.539 . S
C973 C969 1.408 . S
C973 C972 1.404 . S
C973 H985 0.930 . S
C974 C970 1.524 . S
C974 H986 0.956 . S
C974 H987 0.961 . S
C974 H988 0.961 . S
C975 C972 1.539 . S
C975 H989 0.958 . S
C975 H990 0.961 . S
C975 H991 0.960 . S
H976 C960 0.931 . S
H977 C965 0.929 . S
H978 C966 0.960 . S
H979 C966 0.962 . S
H980 C966 0.960 . S
H981 C967 0.961 . S
H982 C967 0.961 . S
H983 C967 0.961 . S
H984 C968 0.931 . S
H985 C973 0.930 . S
H986 C974 0.956 . S
H987 C974 0.961 . S
H988 C974 0.961 . S
H989 C975 0.958 . S
H990 C975 0.961 . S
H991 C975 0.960 . S
C992 C993 1.391 . S
C992 C994 1.394 . S
C992 H1008 0.931 . S
C993 C992 1.391 . S
C993 C997 1.376 . S
C994 C992 1.394 . S
C994 C995 1.369 . S
C994 C998 1.531 . S
C995 C994 1.369 . S
C995 C996 1.410 . S
C995 C1003 1.503 . S
C996 C995 1.410 . S
C996 C997 1.392 . S
C996 C999 1.511 . S
C997 C993 1.376 . S
C997 C996 1.392 . S
C997 H1009 0.929 . S
C998 C994 1.531 . S
C998 H1010 0.960 . S
C998 H1011 0.962 . S
C998 H1012 0.960 . S
C999 C996 1.511 . S
C999 H1013 0.961 . S
C999 H1014 0.961 . S
C999 H1015 0.961 . S
C1000 C1001 1.370 . S
C1000 C1002 1.363 . S
C1000 H1016 0.931 . S
C1001 C1000 1.370 . S
C1001 C1005 1.408 . S
C1002 C1000 1.363 . S
C1002 C1003 1.370 . S
C1002 C1006 1.524 . S
C1003 C995 1.503 . S
C1003 C1002 1.370 . S
C1003 C1004 1.403 . S
C1004 C1003 1.403 . S
C1004 C1005 1.404 . S
C1004 C1007 1.539 . S
C1005 C1001 1.408 . S
C1005 C1004 1.404 . S
C1005 H1017 0.930 1_565 S
C1006 C1002 1.524 . S
C1006 H1018 0.956 . S
C1006 H1019 0.961 . S
C1006 H1020 0.961 . S
C1007 C1004 1.539 . S
C1007 H1021 0.958 . S
C1007 H1022 0.961 . S
C1007 H1023 0.960 . S
H1008 C992 0.931 . S
H1009 C997 0.929 . S
H1010 C998 0.960 . S
H1011 C998 0.962 . S
H1012 C998 0.960 . S
H1013 C999 0.961 . S
H1014 C999 0.961 . S
H1015 C999 0.961 . S
H1016 C1000 0.931 . S
H1017 C1005 0.930 1_545 S
H1018 C1006 0.956 . S
H1019 C1006 0.961 . S
H1020 C1006 0.961 . S
H1021 C1007 0.958 . S
H1022 C1007 0.961 . S
H1023 C1007 0.960 . S
C1024 C1025 1.391 . S
C1024 C1026 1.394 . S
C1024 H1040 0.931 . S
C1025 C1024 1.391 . S
C1025 C1029 1.376 . S
C1026 C1024 1.394 . S
C1026 C1027 1.369 . S
C1026 C1030 1.531 . S
C1027 C1026 1.369 . S
C1027 C1028 1.410 . S
C1027 C1035 1.503 . S
C1028 C1027 1.410 . S
C1028 C1029 1.392 . S
C1028 C1031 1.511 . S
C1029 C1025 1.376 . S
C1029 C1028 1.392 . S
C1029 H1041 0.929 . S
C1030 C1026 1.531 . S
C1030 H1042 0.960 . S
C1030 H1043 0.962 . S
C1030 H1044 0.960 . S
C1031 C1028 1.511 . S
C1031 H1045 0.961 . S
C1031 H1046 0.961 . S
C1031 H1047 0.961 . S
C1032 C1033 1.370 . S
C1032 C1034 1.363 . S
C1032 H1048 0.931 . S
C1033 C1032 1.370 . S
C1033 C1037 1.408 . S
C1034 C1032 1.363 . S
C1034 C1035 1.370 . S
C1034 C1038 1.524 . S
C1035 C1027 1.503 . S
C1035 C1034 1.370 . S
C1035 C1036 1.403 . S
C1036 C1035 1.403 . S
C1036 C1037 1.404 . S
C1036 C1039 1.539 . S
C1037 C1033 1.408 . S
C1037 C1036 1.404 . S
C1037 H1049 0.930 . S
C1038 C1034 1.524 . S
C1038 H1050 0.956 . S
C1038 H1051 0.961 . S
C1038 H1052 0.961 . S
C1039 C1036 1.539 . S
C1039 H1053 0.958 . S
C1039 H1054 0.961 . S
C1039 H1055 0.960 . S
H1040 C1024 0.931 . S
H1041 C1029 0.929 . S
H1042 C1030 0.960 . S
H1043 C1030 0.962 . S
H1044 C1030 0.960 . S
H1045 C1031 0.961 . S
H1046 C1031 0.961 . S
H1047 C1031 0.961 . S
H1048 C1032 0.931 . S
H1049 C1037 0.930 . S
H1050 C1038 0.956 . S
H1051 C1038 0.961 . S
H1052 C1038 0.961 . S
H1053 C1039 0.958 . S
H1054 C1039 0.961 . S
H1055 C1039 0.960 . S
C1056 C1057 1.391 . S
C1056 C1058 1.394 . S
C1056 H1072 0.931 . S
C1057 C1056 1.391 . S
C1057 C1061 1.376 . S
C1058 C1056 1.394 . S
C1058 C1059 1.369 . S
C1058 C1062 1.531 . S
C1059 C1058 1.369 . S
C1059 C1060 1.410 . S
C1059 C1067 1.503 . S
C1060 C1059 1.410 . S
C1060 C1061 1.392 . S
C1060 C1063 1.511 . S
C1061 C1057 1.376 . S
C1061 C1060 1.392 . S
C1061 H1073 0.929 . S
C1062 C1058 1.531 . S
C1062 H1074 0.960 . S
C1062 H1075 0.962 . S
C1062 H1076 0.960 . S
C1063 C1060 1.511 . S
C1063 H1077 0.961 . S
C1063 H1078 0.961 . S
C1063 H1079 0.961 . S
C1064 C1065 1.370 . S
C1064 C1066 1.363 . S
C1064 H1080 0.931 . S
C1065 C1064 1.370 . S
C1065 C1069 1.408 . S
C1066 C1064 1.363 . S
C1066 C1067 1.370 . S
C1066 C1070 1.524 . S
C1067 C1059 1.503 . S
C1067 C1066 1.370 . S
C1067 C1068 1.403 . S
C1068 C1067 1.403 . S
C1068 C1069 1.404 . S
C1068 C1071 1.539 . S
C1069 C1065 1.408 . S
C1069 C1068 1.404 . S
C1069 H1081 0.930 . S
C1070 C1066 1.524 . S
C1070 H1082 0.956 . S
C1070 H1083 0.961 . S
C1070 H1084 0.961 . S
C1071 C1068 1.539 . S
C1071 H1085 0.958 . S
C1071 H1086 0.961 . S
C1071 H1087 0.960 . S
H1072 C1056 0.931 . S
H1073 C1061 0.929 . S
H1074 C1062 0.960 . S
H1075 C1062 0.962 . S
H1076 C1062 0.960 . S
H1077 C1063 0.961 . S
H1078 C1063 0.961 . S
H1079 C1063 0.961 . S
H1080 C1064 0.931 . S
H1081 C1069 0.930 . S
H1082 C1070 0.956 . S
H1083 C1070 0.961 . S
H1084 C1070 0.961 . S
H1085 C1071 0.958 . S
H1086 C1071 0.961 . S
H1087 C1071 0.960 . S
C1088 C1089 1.391 . S
C1088 C1090 1.394 . S
C1088 H1104 0.931 . S
C1089 C1088 1.391 . S
C1089 C1093 1.376 . S
C1090 C1088 1.394 . S
C1090 C1091 1.369 . S
C1090 C1094 1.531 . S
C1091 C1090 1.369 . S
C1091 C1092 1.410 . S
C1091 C1099 1.503 . S
C1092 C1091 1.410 . S
C1092 C1093 1.392 . S
C1092 C1095 1.511 . S
C1093 C1089 1.376 . S
C1093 C1092 1.392 . S
C1093 H1105 0.929 . S
C1094 C1090 1.531 . S
C1094 H1106 0.960 . S
C1094 H1107 0.962 . S
C1094 H1108 0.960 . S
C1095 C1092 1.511 . S
C1095 H1109 0.961 . S
C1095 H1110 0.961 . S
C1095 H1111 0.961 . S
C1096 C1097 1.370 . S
C1096 C1098 1.363 . S
C1096 H1112 0.931 . S
C1097 C1096 1.370 . S
C1097 C1101 1.408 . S
C1098 C1096 1.363 . S
C1098 C1099 1.370 . S
C1098 C1102 1.524 . S
C1099 C1091 1.503 . S
C1099 C1098 1.370 . S
C1099 C1100 1.403 . S
C1100 C1099 1.403 . S
C1100 C1101 1.404 . S
C1100 C1103 1.539 . S
C1101 C1097 1.408 . S
C1101 C1100 1.404 . S
C1101 H1113 0.930 1_565 S
C1102 C1098 1.524 . S
C1102 H1114 0.956 . S
C1102 H1115 0.961 . S
C1102 H1116 0.961 . S
C1103 C1100 1.539 . S
C1103 H1117 0.958 . S
C1103 H1118 0.961 . S
C1103 H1119 0.960 . S
H1104 C1088 0.931 . S
H1105 C1093 0.929 . S
H1106 C1094 0.960 . S
H1107 C1094 0.962 . S
H1108 C1094 0.960 . S
H1109 C1095 0.961 . S
H1110 C1095 0.961 . S
H1111 C1095 0.961 . S
H1112 C1096 0.931 . S
H1113 C1101 0.930 1_545 S
H1114 C1102 0.956 . S
H1115 C1102 0.961 . S
H1116 C1102 0.961 . S
H1117 C1103 0.958 . S
H1118 C1103 0.961 . S
H1119 C1103 0.960 . S
C1120 C1121 1.391 . S
C1120 C1122 1.394 . S
C1120 H1136 0.931 . S
C1121 C1120 1.391 . S
C1121 C1125 1.376 . S
C1122 C1120 1.394 . S
C1122 C1123 1.369 . S
C1122 C1126 1.531 . S
C1123 C1122 1.369 . S
C1123 C1124 1.410 . S
C1123 C1131 1.503 . S
C1124 C1123 1.410 . S
C1124 C1125 1.392 . S
C1124 C1127 1.511 . S
C1125 C1121 1.376 . S
C1125 C1124 1.392 . S
C1125 H1137 0.929 . S
C1126 C1122 1.531 . S
C1126 H1138 0.960 . S
C1126 H1139 0.962 . S
C1126 H1140 0.960 . S
C1127 C1124 1.511 . S
C1127 H1141 0.961 . S
C1127 H1142 0.961 . S
C1127 H1143 0.961 . S
C1128 C1129 1.370 . S
C1128 C1130 1.363 . S
C1128 H1144 0.931 . S
C1129 C1128 1.370 . S
C1129 C1133 1.408 . S
C1130 C1128 1.363 . S
C1130 C1131 1.370 . S
C1130 C1134 1.524 . S
C1131 C1123 1.503 . S
C1131 C1130 1.370 . S
C1131 C1132 1.403 . S
C1132 C1131 1.403 . S
C1132 C1133 1.404 . S
C1132 C1135 1.539 . S
C1133 C1129 1.408 . S
C1133 C1132 1.404 . S
C1133 H1145 0.930 . S
C1134 C1130 1.524 . S
C1134 H1146 0.956 . S
C1134 H1147 0.961 . S
C1134 H1148 0.961 . S
C1135 C1132 1.539 . S
C1135 H1149 0.958 . S
C1135 H1150 0.961 . S
C1135 H1151 0.960 . S
H1136 C1120 0.931 . S
H1137 C1125 0.929 . S
H1138 C1126 0.960 . S
H1139 C1126 0.962 . S
H1140 C1126 0.960 . S
H1141 C1127 0.961 . S
H1142 C1127 0.961 . S
H1143 C1127 0.961 . S
H1144 C1128 0.931 . S
H1145 C1133 0.930 . S
H1146 C1134 0.956 . S
H1147 C1134 0.961 . S
H1148 C1134 0.961 . S
H1149 C1135 0.958 . S
H1150 C1135 0.961 . S
H1151 C1135 0.960 . S
C1152 C1153 1.391 . S
C1152 C1154 1.394 . S
C1152 H1168 0.931 . S
C1153 C1152 1.391 . S
C1153 C1157 1.376 . S
C1154 C1152 1.394 . S
C1154 C1155 1.369 . S
C1154 C1158 1.531 . S
C1155 C1154 1.369 . S
C1155 C1156 1.410 . S
C1155 C1163 1.503 . S
C1156 C1155 1.410 . S
C1156 C1157 1.392 . S
C1156 C1159 1.511 . S
C1157 C1153 1.376 . S
C1157 C1156 1.392 . S
C1157 H1169 0.929 . S
C1158 C1154 1.531 . S
C1158 H1170 0.960 . S
C1158 H1171 0.962 . S
C1158 H1172 0.960 . S
C1159 C1156 1.511 . S
C1159 H1173 0.961 . S
C1159 H1174 0.961 . S
C1159 H1175 0.961 . S
C1160 C1161 1.370 . S
C1160 C1162 1.363 . S
C1160 H1176 0.931 . S
C1161 C1160 1.370 . S
C1161 C1165 1.408 . S
C1162 C1160 1.363 . S
C1162 C1163 1.370 . S
C1162 C1166 1.524 . S
C1163 C1155 1.503 . S
C1163 C1162 1.370 . S
C1163 C1164 1.403 . S
C1164 C1163 1.403 . S
C1164 C1165 1.404 . S
C1164 C1167 1.539 . S
C1165 C1161 1.408 . S
C1165 C1164 1.404 . S
C1165 H1177 0.930 . S
C1166 C1162 1.524 . S
C1166 H1178 0.956 . S
C1166 H1179 0.961 . S
C1166 H1180 0.961 . S
C1167 C1164 1.539 . S
C1167 H1181 0.958 . S
C1167 H1182 0.961 . S
C1167 H1183 0.960 . S
H1168 C1152 0.931 . S
H1169 C1157 0.929 . S
H1170 C1158 0.960 . S
H1171 C1158 0.962 . S
H1172 C1158 0.960 . S
H1173 C1159 0.961 . S
H1174 C1159 0.961 . S
H1175 C1159 0.961 . S
H1176 C1160 0.931 . S
H1177 C1165 0.930 . S
H1178 C1166 0.956 . S
H1179 C1166 0.961 . S
H1180 C1166 0.961 . S
H1181 C1167 0.958 . S
H1182 C1167 0.961 . S
H1183 C1167 0.960 . S
C1184 C1185 1.391 . S
C1184 C1186 1.394 . S
C1184 H1200 0.931 . S
C1185 C1184 1.391 . S
C1185 C1189 1.376 . S
C1186 C1184 1.394 . S
C1186 C1187 1.369 . S
C1186 C1190 1.531 . S
C1187 C1186 1.369 . S
C1187 C1188 1.410 . S
C1187 C1195 1.503 . S
C1188 C1187 1.410 . S
C1188 C1189 1.392 . S
C1188 C1191 1.511 . S
C1189 C1185 1.376 . S
C1189 C1188 1.392 . S
C1189 H1201 0.929 . S
C1190 C1186 1.531 . S
C1190 H1202 0.960 . S
C1190 H1203 0.962 . S
C1190 H1204 0.960 . S
C1191 C1188 1.511 . S
C1191 H1205 0.961 . S
C1191 H1206 0.961 . S
C1191 H1207 0.961 . S
C1192 C1193 1.370 . S
C1192 C1194 1.363 . S
C1192 H1208 0.931 . S
C1193 C1192 1.370 . S
C1193 C1197 1.408 . S
C1194 C1192 1.363 . S
C1194 C1195 1.370 . S
C1194 C1198 1.524 . S
C1195 C1187 1.503 . S
C1195 C1194 1.370 . S
C1195 C1196 1.403 . S
C1196 C1195 1.403 . S
C1196 C1197 1.404 . S
C1196 C1199 1.539 . S
C1197 C1193 1.408 . S
C1197 C1196 1.404 . S
C1197 H1209 0.930 . S
C1198 C1194 1.524 . S
C1198 H1210 0.956 . S
C1198 H1211 0.961 . S
C1198 H1212 0.961 . S
C1199 C1196 1.539 . S
C1199 H1213 0.958 . S
C1199 H1214 0.961 . S
C1199 H1215 0.960 . S
H1200 C1184 0.931 . S
H1201 C1189 0.929 . S
H1202 C1190 0.960 . S
H1203 C1190 0.962 . S
H1204 C1190 0.960 . S
H1205 C1191 0.961 . S
H1206 C1191 0.961 . S
H1207 C1191 0.961 . S
H1208 C1192 0.931 . S
H1209 C1197 0.930 . S
H1210 C1198 0.956 . S
H1211 C1198 0.961 . S
H1212 C1198 0.961 . S
H1213 C1199 0.958 . S
H1214 C1199 0.961 . S
H1215 C1199 0.960 . S
C1216 C1217 1.391 . S
C1216 C1218 1.394 . S
C1216 H1232 0.931 . S
C1217 C1216 1.391 . S
C1217 C1221 1.376 . S
C1218 C1216 1.394 . S
C1218 C1219 1.369 . S
C1218 C1222 1.531 . S
C1219 C1218 1.369 . S
C1219 C1220 1.410 . S
C1219 C1227 1.503 . S
C1220 C1219 1.410 . S
C1220 C1221 1.392 . S
C1220 C1223 1.511 . S
C1221 C1217 1.376 . S
C1221 C1220 1.392 . S
C1221 H1233 0.929 . S
C1222 C1218 1.531 . S
C1222 H1234 0.960 . S
C1222 H1235 0.962 . S
C1222 H1236 0.960 . S
C1223 C1220 1.511 . S
C1223 H1237 0.961 . S
C1223 H1238 0.961 . S
C1223 H1239 0.961 . S
C1224 C1225 1.370 . S
C1224 C1226 1.363 . S
C1224 H1240 0.931 . S
C1225 C1224 1.370 . S
C1225 C1229 1.408 . S
C1226 C1224 1.363 . S
C1226 C1227 1.370 . S
C1226 C1230 1.524 . S
C1227 C1219 1.503 . S
C1227 C1226 1.370 . S
C1227 C1228 1.403 . S
C1228 C1227 1.403 . S
C1228 C1229 1.404 . S
C1228 C1231 1.539 . S
C1229 C1225 1.408 . S
C1229 C1228 1.404 . S
C1229 H1241 0.930 . S
C1230 C1226 1.524 . S
C1230 H1242 0.956 . S
C1230 H1243 0.961 . S
C1230 H1244 0.961 . S
C1231 C1228 1.539 . S
C1231 H1245 0.958 . S
C1231 H1246 0.961 . S
C1231 H1247 0.960 . S
H1232 C1216 0.931 . S
H1233 C1221 0.929 . S
H1234 C1222 0.960 . S
H1235 C1222 0.962 . S
H1236 C1222 0.960 . S
H1237 C1223 0.961 . S
H1238 C1223 0.961 . S
H1239 C1223 0.961 . S
H1240 C1224 0.931 . S
H1241 C1229 0.930 . S
H1242 C1230 0.956 . S
H1243 C1230 0.961 . S
H1244 C1230 0.961 . S
H1245 C1231 0.958 . S
H1246 C1231 0.961 . S
H1247 C1231 0.960 . S
C225 C203 1.501 . S
C233 C7 1.512 . S
C257 C39 1.513 . S
C265 C11 1.499 . S
C289 C165 1.508 . S
C297 C25 1.502 . S
C321 C21 1.518 . S
C329 C105 1.506 . S
C353 C35 1.495 . S
C361 C175 1.515 . S
C385 C137 1.494 . S
C393 C53 1.508 . S
C417 C49 1.520 . S
C425 C77 1.505 . S
C449 C147 1.520 . S
C457 C63 1.505 . S
C481 C67 1.498 . S
C489 C95 1.506 . S
C513 C221 1.497 . S
C521 C81 1.505 . S
C545 C119 1.520 . S
C553 C91 1.505 . S
C577 C193 1.514 . S
C585 C109 1.499 . S
C609 C123 1.492 . S
C617 C151 1.509 . S
C641 C217 1.494 . S
C649 C133 1.516 . S
C673 C161 1.514 . S
C681 C189 1.507 . S
C705 C207 1.495 . S
C713 C179 1.506 . S
C737 C78 1.188 . S
C745 C13 1.154 1_565 S
C769 C8 1.150 . S
C777 C83 1.153 . S
C801 C22 1.140 . S
C809 C69 1.158 . S
C833 C64 1.204 . S
C841 C27 1.133 1_565 S
C865 C106 1.135 . S
C873 C41 1.171 1_545 S
C897 C111 1.160 . S
C905 C36 1.165 . S
C929 C97 1.194 . S
C937 C50 1.154 . S
C961 C55 1.198 1_545 S
C969 C92 1.153 . S
C993 C190 1.182 . S
C1001 C125 1.157 1_565 S
C1025 C120 1.188 . S
C1033 C195 1.154 . S
C1057 C134 1.153 . S
C1065 C181 1.150 . S
C1089 C176 1.190 . S
C1097 C139 1.153 1_565 S
C1121 C218 1.161 . S
C1129 C153 1.161 1_545 S
C1153 C223 1.155 . S
C1161 C148 1.166 . S
C1185 C162 1.125 . S
C1193 C209 1.173 . S
C1217 C204 1.183 . S
C1225 C167 1.143 1_545 S
