# Generated by pormake.
# Topology qtz-a, (4)-cn, num edge types: 1
# Building blocks:
#     Node 0, Type 0, BuildingBlock: TATPOV_clean_sbu_0, # of connection points: 4
#     Node 1, Type 0, BuildingBlock: TATPOV_clean_sbu_0, # of connection points: 4
#     Node 2, Type 0, BuildingBlock: TATPOV_clean_sbu_0, # of connection points: 4
#     Node 3, Type 0, BuildingBlock: TATPOV_clean_sbu_0, # of connection points: 4
#     Node 4, Type 0, BuildingBlock: TATPOV_clean_sbu_0, # of connection points: 4
#     Node 5, Type 0, BuildingBlock: TATPOV_clean_sbu_0, # of connection points: 4
#     Node 6, Type 0, BuildingBlock: TATPOV_clean_sbu_0, # of connection points: 4
#     Node 7, Type 0, BuildingBlock: TATPOV_clean_sbu_0, # of connection points: 4
#     Node 8, Type 0, BuildingBlock: TATPOV_clean_sbu_0, # of connection points: 4
#     Node 9, Type 0, BuildingBlock: TATPOV_clean_sbu_0, # of connection points: 4
#     Node 10, Type 0, BuildingBlock: TATPOV_clean_sbu_0, # of connection points: 4
#     Node 11, Type 0, BuildingBlock: TATPOV_clean_sbu_0, # of connection points: 4
#     Edge 12, Type (0, 0), BuildingBlock: EZIPEK_clean_linker_0, # of connection points: 2
#     Edge 13, Type (0, 0), BuildingBlock: EZIPEK_clean_linker_0, # of connection points: 2
#     Edge 14, Type (0, 0), BuildingBlock: EZIPEK_clean_linker_0, # of connection points: 2
#     Edge 15, Type (0, 0), BuildingBlock: EZIPEK_clean_linker_0, # of connection points: 2
#     Edge 16, Type (0, 0), BuildingBlock: EZIPEK_clean_linker_0, # of connection points: 2
#     Edge 17, Type (0, 0), BuildingBlock: EZIPEK_clean_linker_0, # of connection points: 2
#     Edge 18, Type (0, 0), BuildingBlock: EZIPEK_clean_linker_0, # of connection points: 2
#     Edge 19, Type (0, 0), BuildingBlock: EZIPEK_clean_linker_0, # of connection points: 2
#     Edge 20, Type (0, 0), BuildingBlock: EZIPEK_clean_linker_0, # of connection points: 2
#     Edge 21, Type (0, 0), BuildingBlock: EZIPEK_clean_linker_0, # of connection points: 2
#     Edge 22, Type (0, 0), BuildingBlock: EZIPEK_clean_linker_0, # of connection points: 2
#     Edge 23, Type (0, 0), BuildingBlock: EZIPEK_clean_linker_0, # of connection points: 2
#     Edge 24, Type (0, 0), BuildingBlock: EZIPEK_clean_linker_0, # of connection points: 2
#     Edge 25, Type (0, 0), BuildingBlock: EZIPEK_clean_linker_0, # of connection points: 2
#     Edge 26, Type (0, 0), BuildingBlock: EZIPEK_clean_linker_0, # of connection points: 2
#     Edge 27, Type (0, 0), BuildingBlock: EZIPEK_clean_linker_0, # of connection points: 2
#     Edge 28, Type (0, 0), BuildingBlock: EZIPEK_clean_linker_0, # of connection points: 2
#     Edge 29, Type (0, 0), BuildingBlock: EZIPEK_clean_linker_0, # of connection points: 2
#     Edge 30, Type (0, 0), BuildingBlock: EZIPEK_clean_linker_0, # of connection points: 2
#     Edge 31, Type (0, 0), BuildingBlock: EZIPEK_clean_linker_0, # of connection points: 2
#     Edge 32, Type (0, 0), BuildingBlock: EZIPEK_clean_linker_0, # of connection points: 2
#     Edge 33, Type (0, 0), BuildingBlock: EZIPEK_clean_linker_0, # of connection points: 2
#     Edge 34, Type (0, 0), BuildingBlock: EZIPEK_clean_linker_0, # of connection points: 2
#     Edge 35, Type (0, 0), BuildingBlock: EZIPEK_clean_linker_0, # of connection points: 2
# Relax obj value: 0.794
# Max RMSD: 0.288
# Mean RMSD: 0.286
data_MOF--net-qtz-a--node1-TATPOV_clean_sbu_0--edge1-EZIPEK_clean_linker_0
_symmetry_space_group_name_H-M    P1
_symmetry_Int_Tables_number       1
_symmetry_cell_setting            triclinic
loop_
_symmetry_equiv_pos_as_xyz
'x, y, z'
_cell_length_a     36.987118
_cell_length_b     37.729892
_cell_length_c     23.727008
_cell_angle_alpha  89.954949
_cell_angle_beta   89.943468
_cell_angle_gamma 119.19079
loop_
_atom_site_label
_atom_site_type_symbol
_atom_site_fract_x
_atom_site_fract_y
_atom_site_fract_z
_atom_type_partial_charge
Zn0 Zn 0.3987 0.99365 0.15366 0.0
Zn1 Zn 0.43084 0.06876 0.18193 0.0
O2 O 0.44864 0.04142 0.24519 0.0
O3 O 0.41608 0.9767 0.22394 0.0
O4 O 0.44147 0.12506 0.2039 0.0
O5 O 0.44119 0.01556 0.08989 0.0
O6 O 0.47087 0.07883 0.11984 0.0
C7 C 0.44135 0.00515 0.25527 0.0
C8 C 0.34177 0.01446 0.12678 0.0
O9 O 0.37395 0.04671 0.1425 0.0
O10 O 0.34058 0.98079 0.13501 0.0
C11 C 0.47202 0.15673 0.18345 0.0
O12 O 0.50131 0.15367 0.15633 0.0
C13 C 0.4689 0.0524 0.08542 0.0
Zn14 Zn 0.43811 0.55012 0.44568 0.0
Zn15 Zn 0.3696 0.48721 0.46412 0.0
O16 O 0.40672 0.49548 0.53466 0.0
O17 O 0.46233 0.5543 0.52261 0.0
O18 O 0.31038 0.44848 0.48258 0.0
O19 O 0.41946 0.58814 0.41411 0.0
O20 O 0.36276 0.52985 0.41679 0.0
C21 C 0.44234 0.52252 0.55195 0.0
C22 C 0.41939 0.47516 0.38195 0.0
O23 O 0.38557 0.45749 0.40902 0.0
O24 O 0.44482 0.51243 0.38972 0.0
C25 C 0.29123 0.45449 0.52251 0.0
O26 O 0.31187 0.48376 0.55883 0.0
C27 C 0.38189 0.56666 0.40022 0.0
Zn28 Zn 0.99829 0.40352 0.84269 0.0
Zn29 Zn 0.92187 0.36238 0.86196 0.0
O30 O 0.94819 0.40469 0.92805 0.0
O31 O 0.01526 0.4331 0.9159 0.0
O32 O 0.86282 0.32 0.87843 0.0
O33 O 0.97964 0.42976 0.78234 0.0
O34 O 0.91309 0.39426 0.80224 0.0
C35 C 0.98487 0.43084 0.94342 0.0
C36 C 0.97873 0.32993 0.80495 0.0
O37 O 0.94504 0.32906 0.8193 0.0
O38 O 0.01253 0.36101 0.81752 0.0
C39 C 0.85519 0.2835 0.88391 0.0
O40 O 0.88567 0.27618 0.89505 0.0
C41 C 0.9425 0.42125 0.77357 0.0
Zn42 Zn 0.60096 0.00318 0.12998 0.0
Zn43 Zn 0.57643 0.92895 0.13954 0.0
O44 O 0.56018 0.94907 0.21365 0.0
O45 O 0.59145 0.01533 0.20846 0.0
O46 O 0.56648 0.87166 0.15008 0.0
O47 O 0.55219 0.98465 0.07604 0.0
O48 O 0.53095 0.91939 0.08622 0.0
C49 C 0.56762 0.98317 0.23496 0.0
C50 C 0.65908 0.99329 0.07698 0.0
O51 O 0.63081 0.95776 0.0912 0.0
O52 O 0.65682 0.02351 0.09563 0.0
C53 C 0.59306 0.86164 0.16596 0.0
O54 O 0.62955 0.88963 0.18367 0.0
C55 C 0.52701 0.94797 0.06452 0.0
Zn56 Zn 0.55858 0.4495 0.45088 0.0
Zn57 Zn 0.62578 0.51278 0.47439 0.0
O58 O 0.58614 0.50313 0.54234 0.0
O59 O 0.5313 0.44449 0.52595 0.0
O60 O 0.68457 0.54983 0.4959 0.0
O61 O 0.57905 0.41217 0.42152 0.0
O62 O 0.63428 0.47134 0.42736 0.0
C63 C 0.54985 0.47566 0.55676 0.0
C64 C 0.5797 0.52596 0.38831 0.0
O65 O 0.61198 0.5436 0.41845 0.0
O66 O 0.55461 0.48833 0.39388 0.0
C67 C 0.70198 0.5409 0.53512 0.0
O68 O 0.67921 0.5124 0.57152 0.0
C69 C 0.6169 0.43486 0.4098 0.0
Zn70 Zn 0.00696 0.60231 0.82423 0.0
Zn71 Zn 0.08259 0.64294 0.8424 0.0
O72 O 0.05513 0.60504 0.9129 0.0
O73 O 0.98826 0.57735 0.90041 0.0
O74 O 0.13899 0.68944 0.86043 0.0
O75 O 0.02685 0.5727 0.77081 0.0
O76 O 0.09352 0.60792 0.79026 0.0
C77 C 0.01826 0.58073 0.92988 0.0
C78 C 0.02718 0.67132 0.77259 0.0
O79 O 0.06012 0.67203 0.78998 0.0
O80 O 0.99284 0.64255 0.78911 0.0
C81 C 0.14355 0.72034 0.88759 0.0
O82 O 0.11186 0.71886 0.91467 0.0
C83 C 0.06369 0.57957 0.76383 0.0
Zn84 Zn 0.01791 0.59252 0.52911 0.0
Zn85 Zn 0.94302 0.57566 0.51377 0.0
O86 O 0.95845 0.55132 0.44433 0.0
O87 O 0.02455 0.57165 0.45466 0.0
O88 O 0.88578 0.56766 0.50484 0.0
O89 O 0.99538 0.55165 0.59361 0.0
O90 O 0.9309 0.53588 0.57562 0.0
C91 C 0.99131 0.55129 0.42738 0.0
C92 C 0.01323 0.65923 0.56085 0.0
O93 O 0.97593 0.63301 0.54925 0.0
O94 O 0.04176 0.65124 0.54851 0.0
C95 C 0.87423 0.59279 0.48928 0.0
O96 O 0.90136 0.62809 0.46822 0.0
C97 C 0.95703 0.53094 0.60391 0.0
Zn98 Zn 0.40331 0.02548 0.86687 0.0
Zn99 Zn 0.34864 0.95295 0.84663 0.0
O100 O 0.38484 0.97409 0.77301 0.0
O101 O 0.42552 0.03894 0.78841 0.0
O102 O 0.29686 0.89982 0.83467 0.0
O103 O 0.42801 0.99875 0.9171 0.0
O104 O 0.38047 0.93614 0.89718 0.0
C105 C 0.41432 0.00846 0.7566 0.0
C106 C 0.33446 0.0173 0.91625 0.0
O107 O 0.32559 0.98248 0.89685 0.0
O108 O 0.36925 0.04715 0.90376 0.0
C109 C 0.29657 0.86602 0.83274 0.0
O110 O 0.33155 0.86552 0.82562 0.0
C111 C 0.41313 0.9608 0.92272 0.0
Zn112 Zn 0.57985 0.47098 0.157 0.0
Zn113 Zn 0.53052 0.39616 0.13593 0.0
O114 O 0.52845 0.42839 0.06472 0.0
O115 O 0.57589 0.49131 0.081 0.0
O116 O 0.5064 0.33604 0.12015 0.0
O117 O 0.62971 0.46868 0.185 0.0
O118 O 0.58195 0.40513 0.18167 0.0
C119 C 0.54745 0.46577 0.04968 0.0
C120 C 0.50133 0.4318 0.22069 0.0
O121 O 0.49231 0.40048 0.19154 0.0
O122 O 0.53579 0.46389 0.21474 0.0
C123 C 0.47487 0.3094 0.14673 0.0
O124 O 0.4516 0.3203 0.17555 0.0
C125 C 0.61777 0.43209 0.19778 0.0
Zn126 Zn 0.97224 0.38701 0.55361 0.0
Zn127 Zn 0.04601 0.40326 0.52792 0.0
O128 O 0.02371 0.41891 0.45647 0.0
O129 O 0.95902 0.39981 0.47682 0.0
O130 O 0.10256 0.41131 0.51197 0.0
O131 O 0.99991 0.43409 0.6091 0.0
O132 O 0.06262 0.44901 0.58183 0.0
C133 C 0.98919 0.41666 0.4429 0.0
C134 C 0.98208 0.32465 0.59383 0.0
O135 O 0.0177 0.34995 0.57454 0.0
O136 O 0.95199 0.33081 0.58391 0.0
C137 C 0.11452 0.38644 0.49679 0.0
O138 O 0.08724 0.34936 0.48187 0.0
C139 C 0.03881 0.45622 0.61206 0.0
Zn140 Zn 0.5825 1.00014 0.83442 0.0
Zn141 Zn 0.63005 0.07498 0.81749 0.0
O142 O 0.58684 0.05439 0.7511 0.0
O143 O 0.55083 0.98853 0.76249 0.0
O144 O 0.67501 0.13273 0.80463 0.0
O145 O 0.56093 0.01937 0.90019 0.0
O146 O 0.60015 0.08424 0.88028 0.0
C147 C 0.55705 0.01998 0.73558 0.0
C148 C 0.6568 0.01213 0.86607 0.0
O149 O 0.66115 0.04715 0.85506 0.0
O150 O 0.62312 0.98121 0.85262 0.0
C151 C 0.71236 0.14058 0.79929 0.0
O152 O 0.72036 0.11101 0.78852 0.0
C153 C 0.57254 0.05635 0.91006 0.0
Zn154 Zn 0.42758 0.53293 0.15162 0.0
Zn155 Zn 0.47822 0.60789 0.13227 0.0
O156 O 0.48216 0.57574 0.06231 0.0
O157 O 0.43342 0.51297 0.07614 0.0
O158 O 0.50664 0.66825 0.11668 0.0
O159 O 0.37782 0.53662 0.17657 0.0
O160 O 0.42552 0.60029 0.1736 0.0
C161 C 0.46313 0.53859 0.04641 0.0
C162 C 0.50328 0.5705 0.22037 0.0
O163 O 0.51329 0.6023 0.19175 0.0
O164 O 0.46927 0.53841 0.212 0.0
C165 C 0.54365 0.6921 0.13216 0.0
O166 O 0.56693 0.67721 0.15067 0.0
C167 C 0.38929 0.57325 0.18842 0.0
C168 C 0.49242 0.07206 0.98651 0.0
C169 C 0.5005 0.06387 0.04173 0.0
C170 C 0.56457 0.06608 0.01158 0.0
C171 C 0.55236 0.06655 0.9552 0.0
N172 N 0.50913 0.07529 0.88687 0.0
N173 N 0.54402 0.0593 0.11099 0.0
C174 C 0.51801 0.07201 0.94198 0.0
C175 C 0.53729 0.06348 0.05551 0.0
N176 N 0.4603 0.07961 0.97728 0.0
N177 N 0.60171 0.06768 0.02213 0.0
H178 H 0.56944 0.05768 0.12686 0.0
H179 H 0.56944 0.05768 0.12686 0.0
H180 H 0.62197 0.06984 0.98995 0.0
H181 H 0.61386 0.06913 0.06204 0.0
H182 H 0.454 0.08847 0.93869 0.0
H183 H 0.44117 0.07948 0.00975 0.0
H184 H 0.48303 0.07657 0.87363 0.0
H185 H 0.52784 0.07602 0.85346 0.0
C186 C 0.38986 0.61921 0.26489 0.0
C187 C 0.36755 0.58249 0.23464 0.0
C188 C 0.33079 0.54946 0.32105 0.0
C189 C 0.36498 0.57956 0.35157 0.0
N190 N 0.41514 0.65047 0.35664 0.0
N191 N 0.30373 0.51974 0.22891 0.0
C192 C 0.39017 0.61742 0.32482 0.0
C193 C 0.3329 0.55011 0.26114 0.0
N194 N 0.4105 0.65483 0.23599 0.0
N195 N 0.29731 0.52075 0.3496 0.0
H196 H 0.30426 0.52207 0.185 0.0
H197 H 0.27943 0.49312 0.2451 0.0
H198 H 0.29526 0.52234 0.3932 0.0
H199 H 0.27071 0.49822 0.33048 0.0
H200 H 0.42579 0.68317 0.2552 0.0
H201 H 0.4086 0.65565 0.19212 0.0
H202 H 0.43748 0.67806 0.33991 0.0
H203 H 0.41268 0.64974 0.40054 0.0
C204 C 0.94274 0.51083 0.70434 0.0
C205 C 0.94267 0.4996 0.6475 0.0
C206 C 0.92613 0.43106 0.67553 0.0
C207 C 0.93429 0.44492 0.73186 0.0
N208 N 0.94445 0.49434 0.80302 0.0
N209 N 0.92847 0.44886 0.5765 0.0
C210 C 0.94012 0.48358 0.74736 0.0
C211 C 0.93179 0.45931 0.63225 0.0
N212 N 0.94523 0.54739 0.71654 0.0
N213 N 0.91391 0.39126 0.66399 0.0
H214 H 0.93191 0.46892 0.544 0.0
H215 H 0.92286 0.42072 0.56178 0.0
H216 H 0.90974 0.37024 0.69545 0.0
H217 H 0.90567 0.3782 0.62424 0.0
H218 H 0.94237 0.55651 0.75686 0.0
H219 H 0.94744 0.56788 0.68535 0.0
H220 H 0.95163 0.52299 0.81753 0.0
H221 H 0.94126 0.4743 0.83545 0.0
C222 C 0.45602 0.93758 0.05162 0.0
C223 C 0.49187 0.93906 0.02782 0.0
C224 C 0.46899 0.94286 0.93278 0.0
C225 C 0.43548 0.94566 0.95709 0.0
N226 N 0.38958 0.93431 0.03516 0.0
N227 N 0.5287 0.93319 0.94799 0.0
C228 C 0.42636 0.93896 0.01524 0.0
C229 C 0.49688 0.93804 0.96883 0.0
N230 N 0.45157 0.93675 0.10895 0.0
N231 N 0.47451 0.94615 0.87558 0.0
H232 H 0.54947 0.9297 0.97407 0.0
H233 H 0.5335 0.93031 0.90546 0.0
H234 H 0.45366 0.94848 0.84827 0.0
H235 H 0.49962 0.94699 0.8547 0.0
H236 H 0.42826 0.93951 0.12958 0.0
H237 H 0.47222 0.93432 0.13653 0.0
H238 H 0.37942 0.92652 0.07652 0.0
H239 H 0.36757 0.93555 0.00895 0.0
C240 C 0.61341 0.38614 0.33442 0.0
C241 C 0.63645 0.42381 0.36237 0.0
C242 C 0.67145 0.45514 0.27396 0.0
C243 C 0.63819 0.42273 0.24555 0.0
N244 N 0.59634 0.35026 0.24441 0.0
N245 N 0.70282 0.48445 0.36439 0.0
C246 C 0.61558 0.3854 0.27452 0.0
C247 C 0.67118 0.45515 0.33393 0.0
N248 N 0.58882 0.35222 0.36512 0.0
N249 N 0.7016 0.48601 0.2433 0.0
H250 H 0.70331 0.48266 0.40812 0.0
H251 H 0.72952 0.50809 0.34696 0.0
H252 H 0.70281 0.48407 0.19947 0.0
H253 H 0.72522 0.51252 0.26061 0.0
H254 H 0.5685 0.32421 0.34756 0.0
H255 H 0.58988 0.35256 0.40912 0.0
H256 H 0.58063 0.32153 0.26254 0.0
H257 H 0.59966 0.35029 0.20067 0.0
C258 C 0.06055 0.48524 0.70775 0.0
C259 C 0.05631 0.49131 0.64983 0.0
C260 C 0.07396 0.56173 0.66703 0.0
C261 C 0.07075 0.5532 0.72549 0.0
N262 N 0.06541 0.51005 0.80346 0.0
N263 N 0.06579 0.53555 0.57135 0.0
C264 C 0.06624 0.51612 0.7465 0.0
C265 C 0.06581 0.52996 0.62838 0.0
N266 N 0.05919 0.45002 0.72509 0.0
N267 N 0.08354 0.59985 0.64926 0.0
H268 H 0.06013 0.5127 0.54227 0.0
H269 H 0.0714 0.5625 0.55209 0.0
H270 H 0.09011 0.62351 0.67735 0.0
H271 H 0.08663 0.60894 0.60738 0.0
H272 H 0.0651 0.44458 0.76613 0.0
H273 H 0.05482 0.42689 0.69718 0.0
H274 H 0.05846 0.48254 0.8222 0.0
H275 H 0.07095 0.53283 0.83264 0.0
C276 C 0.32727 0.05553 0.05649 0.0
C277 C 0.31425 0.01749 0.08287 0.0
C278 C 0.28284 0.98386 0.99418 0.0
C279 C 0.3111 0.02013 0.9662 0.0
N280 N 0.34375 0.09289 0.96771 0.0
N281 N 0.26298 0.94697 0.08343 0.0
C282 C 0.32723 0.05708 0.99652 0.0
C283 C 0.28559 0.98202 0.05389 0.0
N284 N 0.34017 0.08936 0.08897 0.0
N285 N 0.2546 0.95183 0.96335 0.0
H286 H 0.26329 0.94679 0.12746 0.0
H287 H 0.244 0.9189 0.06496 0.0
H288 H 0.25155 0.95454 0.92001 0.0
H289 H 0.23243 0.92443 0.9807 0.0
H290 H 0.34949 0.11823 0.07299 0.0
H291 H 0.33808 0.08729 0.13288 0.0
H292 H 0.35953 0.12132 0.98658 0.0
H293 H 0.34075 0.09346 0.92399 0.0
C294 C 0.44287 0.44423 0.24263 0.0
C295 C 0.47132 0.4317 0.26097 0.0
C296 C 0.45466 0.4354 0.35953 0.0
C297 C 0.43014 0.45261 0.34135 0.0
N298 N 0.39265 0.46551 0.26886 0.0
N299 N 0.49763 0.40557 0.33307 0.0
C300 C 0.42119 0.45401 0.28368 0.0
C301 C 0.47477 0.42376 0.31844 0.0
N302 N 0.43796 0.44796 0.18614 0.0
N303 N 0.45969 0.43179 0.41599 0.0
H304 H 0.5125 0.39677 0.30329 0.0
H305 H 0.50024 0.397 0.37384 0.0
H306 H 0.44427 0.43915 0.44675 0.0
H307 H 0.47906 0.42183 0.43295 0.0
H308 H 0.41934 0.45878 0.16909 0.0
H309 H 0.45297 0.44013 0.15535 0.0
H310 H 0.38336 0.46635 0.22779 0.0
H311 H 0.37637 0.47258 0.29864 0.0
C312 C 0.01524 0.30658 0.67265 0.0
C313 C 0.97878 0.29776 0.64239 0.0
C314 C 0.94036 0.27691 0.73114 0.0
C315 C 0.97807 0.30202 0.75946 0.0
N316 N 0.05074 0.32233 0.76196 0.0
N317 N 0.90464 0.2576 0.64078 0.0
C318 C 0.01532 0.31032 0.73191 0.0
C319 C 0.9404 0.27627 0.6711 0.0
N320 N 0.05023 0.31266 0.64576 0.0
N321 N 0.90548 0.25395 0.76186 0.0
H322 H 0.90523 0.25524 0.59695 0.0
H323 H 0.87521 0.24495 0.6586 0.0
H324 H 0.90675 0.25285 0.8057 0.0
H325 H 0.87716 0.23334 0.74427 0.0
H326 H 0.05117 0.30821 0.60246 0.0
H327 H 0.05117 0.30821 0.60246 0.0
H328 H 0.07898 0.32988 0.74266 0.0
H329 H 0.05073 0.32267 0.80598 0.0
C330 C 0.7094 0.03796 0.0023 0.0
C331 C 0.68533 0.99872 0.02591 0.0
C332 C 0.67262 0.96897 0.93181 0.0
C333 C 0.68373 0.00791 0.90986 0.0
N334 N 0.73549 0.07801 0.91631 0.0
N335 N 0.66844 0.92924 0.01518 0.0
C336 C 0.71015 0.04223 0.94262 0.0
C337 C 0.67528 0.96474 0.99107 0.0
N338 N 0.72986 0.07054 0.03702 0.0
N339 N 0.65837 0.9366 0.8962 0.0
H340 H 0.67366 0.92802 0.05816 0.0
H341 H 0.66175 0.90307 0.99273 0.0
H342 H 0.65961 0.94056 0.85252 0.0
H343 H 0.64607 0.90663 0.90951 0.0
H344 H 0.74451 0.10056 0.02326 0.0
H345 H 0.73209 0.06677 0.08026 0.0
H346 H 0.75677 0.10419 0.93714 0.0
H347 H 0.73768 0.07963 0.87246 0.0
C348 C 0.56081 0.55771 0.24672 0.0
C349 C 0.53176 0.57009 0.26277 0.0
C350 C 0.54537 0.56602 0.36246 0.0
C351 C 0.5704 0.54885 0.34646 0.0
N352 N 0.60995 0.53605 0.27695 0.0
N353 N 0.50328 0.59595 0.33227 0.0
C354 C 0.58109 0.54764 0.28948 0.0
C355 C 0.52655 0.57781 0.31971 0.0
N356 N 0.56772 0.55455 0.19072 0.0
N357 N 0.53851 0.56931 0.41841 0.0
H358 H 0.48922 0.60475 0.3013 0.0
H359 H 0.49957 0.6045 0.37256 0.0
H360 H 0.55292 0.56178 0.45042 0.0
H361 H 0.51855 0.57909 0.43373 0.0
H362 H 0.58719 0.54423 0.17521 0.0
H363 H 0.55371 0.56256 0.15874 0.0
H364 H 0.62028 0.53504 0.23657 0.0
H365 H 0.62533 0.52893 0.30805 0.0
C366 C 0.99111 0.68933 0.6968 0.0
C367 C 0.02869 0.69565 0.72152 0.0
C368 C 0.06156 0.71182 0.62855 0.0
C369 C 0.02148 0.69066 0.60496 0.0
N370 N 0.95339 0.68294 0.60955 0.0
N371 N 0.10297 0.73433 0.71411 0.0
C372 C 0.98784 0.68775 0.63692 0.0
C373 C 0.06536 0.71465 0.68832 0.0
N374 N 0.95898 0.68373 0.73076 0.0
N375 N 0.09507 0.72732 0.59351 0.0
H376 H 0.10523 0.73891 0.75746 0.0
H377 H 0.13126 0.74819 0.69316 0.0
H378 H 0.09139 0.72672 0.54979 0.0
H379 H 0.1257 0.74158 0.60693 0.0
H380 H 0.92953 0.67605 0.71627 0.0
H381 H 0.96284 0.68811 0.77428 0.0
H382 H 0.92732 0.68069 0.62956 0.0
H383 H 0.95284 0.68428 0.5656 0.0
C384 C 0.50004 0.95131 0.28893 0.0
C385 C 0.53939 0.9855 0.27888 0.0
C386 C 0.51067 0.03006 0.30285 0.0
C387 C 0.47091 0.99745 0.29004 0.0
N388 N 0.42567 0.92569 0.29927 0.0
N389 N 0.58525 0.05499 0.30345 0.0
C390 C 0.46491 0.95734 0.29343 0.0
C391 C 0.54576 0.02422 0.2959 0.0
N392 N 0.49685 0.91388 0.294 0.0
N393 N 0.51427 0.06585 0.32135 0.0
H394 H 0.61039 0.04959 0.30243 0.0
H395 H 0.59306 0.08495 0.31169 0.0
H396 H 0.48814 0.06856 0.33084 0.0
H397 H 0.54218 0.09128 0.3317 0.0
H398 H 0.46924 0.88722 0.30116 0.0
H399 H 0.52315 0.91039 0.29566 0.0
H400 H 0.41795 0.89526 0.29797 0.0
H401 H 0.40068 0.93069 0.30683 0.0
C402 C 0.48204 0.45662 0.60498 0.0
C403 C 0.52438 0.4855 0.59668 0.0
C404 C 0.5077 0.5404 0.60586 0.0
C405 C 0.46585 0.51174 0.59399 0.0
N406 N 0.41144 0.44486 0.61699 0.0
N407 N 0.57756 0.55181 0.62408 0.0
C408 C 0.45227 0.47031 0.60571 0.0
C409 C 0.53737 0.52665 0.60934 0.0
N410 N 0.47086 0.41655 0.60979 0.0
N411 N 0.51865 0.58036 0.61137 0.0
H412 H 0.59812 0.54063 0.63028 0.0
H413 H 0.58937 0.58217 0.63494 0.0
H414 H 0.49624 0.58961 0.61276 0.0
H415 H 0.54903 0.60375 0.61506 0.0
H416 H 0.44037 0.3931 0.61094 0.0
H417 H 0.49316 0.40726 0.61322 0.0
H418 H 0.39912 0.41427 0.62691 0.0
H419 H 0.39061 0.45592 0.62132 0.0
C420 C 0.04244 0.53929 0.9863 0.0
C421 C 0.01015 0.54757 0.97176 0.0
C422 C 0.95973 0.47581 0.9878 0.0
C423 C 0.99221 0.46666 0.97938 0.0
N424 N 0.06357 0.48771 -0.0016 0.0
N425 N 0.93853 0.52779 0.9863 0.0
C426 C 0.03348 0.49797 0.98881 0.0
C427 C 0.9687 0.51703 0.98254 0.0
N428 N 0.08087 0.5708 0.99768 0.0
N429 N 0.9211 0.44522 0.00086 0.0
H430 H 0.94589 0.55826 0.98738 0.0
H431 H 0.90705 0.50728 0.98959 0.0
H432 H 0.9158 0.41593 0.00953 0.0
H433 H 0.89556 0.44921 0.00783 0.0
H434 H 0.10621 0.56746 0.0089 0.0
H435 H 0.08611 0.60056 0.00054 0.0
H436 H 0.095 0.50846 0.00124 0.0
H437 H 0.05615 0.45749 0.00463 0.0
C438 C 0.95028 0.48225 0.38328 0.0
C439 C 0.98868 0.5183 0.38928 0.0
C440 C 0.02437 0.47834 0.38029 0.0
C441 C 0.98728 0.44403 0.39824 0.0
N442 N 0.91325 0.40827 0.38987 0.0
N443 N 0.06096 0.55177 0.36598 0.0
C444 C 0.9494 0.44423 0.38959 0.0
C445 C 0.02541 0.5166 0.37734 0.0
N446 N 0.9155 0.48489 0.37231 0.0
N447 N 0.05783 0.47395 0.36691 0.0
H448 H 0.06067 0.57913 0.36072 0.0
H449 H 0.0899 0.55386 0.36123 0.0
H450 H 0.05562 0.4453 0.36528 0.0
H451 H 0.08603 0.49749 0.35297 0.0
H452 H 0.8862 0.45996 0.36691 0.0
H453 H 0.91717 0.51282 0.36385 0.0
H454 H 0.88398 0.40574 0.3884 0.0
H455 H 0.91328 0.3806 0.39083 0.0
C456 C 0.47862 0.04963 0.69882 0.0
C457 C 0.44413 0.01113 0.71136 0.0
C458 C 0.48645 0.97909 0.69175 0.0
C459 C 0.52216 0.01751 0.70005 0.0
N460 N 0.55262 0.08832 0.6777 0.0
N461 N 0.41087 0.94043 0.68743 0.0
C462 C 0.51838 0.05272 0.69177 0.0
C463 C 0.44651 0.97599 0.69646 0.0
N464 N 0.473 0.08273 0.6961 0.0
N465 N 0.49134 0.94615 0.68121 0.0
H466 H 0.38217 0.93943 0.68621 0.0
H467 H 0.40978 0.91318 0.67688 0.0
H468 H 0.52066 0.94939 0.67383 0.0
H469 H 0.46713 0.9165 0.67836 0.0
H470 H 0.49682 0.11243 0.69131 0.0
H471 H 0.44336 0.07962 0.69783 0.0
H472 H 0.55259 0.11552 0.67074 0.0
H473 H 0.58073 0.08936 0.66843 0.0
C474 C 0.54952 0.52445 0.9967 0.0
C475 C 0.52883 0.48198 0.00752 0.0
C476 C 0.46262 0.4802 0.99488 0.0
C477 C 0.48271 0.52257 0.00546 0.0
N478 N 0.54348 0.58572 0.98432 0.0
N479 N 0.46723 0.41881 0.98701 0.0
C480 C 0.52586 0.54515 0.995 0.0
C481 C 0.48595 0.45962 0.99575 0.0
N482 N 0.59152 0.54436 0.99056 0.0
N483 N 0.42112 0.45885 0.98586 0.0
H484 H 0.4843 0.40363 0.98283 0.0
H485 H 0.43539 0.4013 0.98029 0.0
H486 H 0.40261 0.47264 0.98302 0.0
H487 H 0.40261 0.47264 0.98302 0.0
H488 H 0.60959 0.57561 0.98571 0.0
H489 H 0.60802 0.52844 0.98898 0.0
H490 H 0.57492 0.60468 0.97713 0.0
H491 H 0.52533 0.59968 0.97865 0.0
C492 C 0.46071 0.241 0.11197 0.0
C493 C 0.47098 0.26892 0.15705 0.0
C494 C 0.47726 0.22105 0.22164 0.0
C495 C 0.4689 0.19408 0.17594 0.0
N496 N 0.4443 0.17336 0.08111 0.0
N497 N 0.49338 0.28837 0.25325 0.0
C498 C 0.45837 0.20271 0.12194 0.0
C499 C 0.47986 0.25949 0.21178 0.0
N500 N 0.45409 0.25164 0.05939 0.0
N501 N 0.48241 0.20958 0.27444 0.0
H502 H 0.49769 0.31755 0.24735 0.0
H503 H 0.5033 0.28491 0.29279 0.0
H504 H 0.48188 0.18214 0.28245 0.0
H505 H 0.48451 0.22558 0.31105 0.0
H506 H 0.45116 0.23509 0.02302 0.0
H507 H 0.45336 0.27847 0.05136 0.0
H508 H 0.43239 0.17577 0.04251 0.0
H509 H 0.44144 0.14471 0.08723 0.0
C510 C 0.18699 0.43966 0.47678 0.0
C511 C 0.15967 0.40041 0.49812 0.0
C512 C 0.21958 0.39496 0.53196 0.0
C513 C 0.2458 0.43627 0.51781 0.0
N514 N 0.25309 0.50037 0.48614 0.0
N515 N 0.14994 0.34285 0.55465 0.0
C516 C 0.22908 0.4594 0.49324 0.0
C517 C 0.17586 0.37832 0.52765 0.0
N518 N 0.17305 0.45752 0.43881 0.0
N519 N 0.23635 0.37168 0.5498 0.0
H520 H 0.11787 0.32963 0.55372 0.0
H521 H 0.16037 0.32821 0.58208 0.0
H522 H 0.26808 0.38342 0.55612 0.0
H523 H 0.21911 0.34028 0.55455 0.0
H524 H 0.19261 0.48447 0.41783 0.0
H525 H 0.1428 0.44303 0.42337 0.0
H526 H 0.24096 0.51909 0.4744 0.0
H527 H 0.28452 0.51626 0.49593 0.0
C528 C 0.75171 0.18564 0.88004 0.0
C529 C 0.74607 0.17959 0.8208 0.0
C530 C 0.80767 0.24557 0.80383 0.0
C531 C 0.81554 0.2498 0.86291 0.0
N532 N 0.79742 0.22343 0.95723 0.0
N533 N 0.76948 0.20127 0.72597 0.0
C534 C 0.78805 0.21979 0.90104 0.0
C535 C 0.77413 0.20902 0.78259 0.0
N536 N 0.7223 0.15869 0.91627 0.0
N537 N 0.83244 0.27632 0.76788 0.0
H538 H 0.74428 0.17564 0.70895 0.0
H539 H 0.79159 0.21875 0.69596 0.0
H540 H 0.85912 0.30235 0.78053 0.0
H541 H 0.82555 0.27726 0.72558 0.0
H542 H 0.72207 0.1636 0.95938 0.0
H543 H 0.69639 0.1321 0.90309 0.0
H544 H 0.78185 0.20038 0.98658 0.0
H545 H 0.82253 0.24907 0.97439 0.0
C546 C 0.58888 0.76552 0.1078 0.0
C547 C 0.55714 0.73556 0.14159 0.0
C548 C 0.55009 0.78826 0.19321 0.0
C549 C 0.5831 0.81851 0.16098 0.0
N550 N 0.63894 0.83646 0.09444 0.0
N551 N 0.51379 0.71815 0.22436 0.0
C552 C 0.60417 0.80729 0.12053 0.0
C553 C 0.53939 0.74682 0.18647 0.0
N554 N 0.60333 0.75398 0.06221 0.0
N555 N 0.52881 0.79909 0.23023 0.0
H556 H 0.50514 0.68746 0.2211 0.0
H557 H 0.50401 0.72518 0.2618 0.0
H558 H 0.53769 0.8292 0.23986 0.0
H559 H 0.50111 0.77826 0.24927 0.0
H560 H 0.62293 0.77414 0.03185 0.0
H561 H 0.59311 0.72365 0.05213 0.0
H562 H 0.6582 0.83017 0.06932 0.0
H563 H 0.6507 0.8673 0.10148 0.0
C564 C 0.79913 0.54175 0.48466 0.0
C565 C 0.83014 0.58176 0.49812 0.0
C566 C 0.7764 0.5957 0.53583 0.0
C567 C 0.74659 0.55427 0.5286 0.0
N568 N 0.73183 0.48575 0.50693 0.0
N569 N 0.84883 0.64466 0.54729 0.0
C570 C 0.7587 0.52658 0.50682 0.0
C571 C 0.81902 0.60839 0.52636 0.0
N572 N 0.80767 0.5188 0.44806 0.0
N573 N 0.7641 0.62295 0.55197 0.0
H574 H 0.88036 0.65497 0.54297 0.0
H575 H 0.84231 0.66292 0.5736 0.0
H576 H 0.73355 0.61436 0.56267 0.0
H577 H 0.78374 0.65426 0.55133 0.0
H578 H 0.78502 0.49093 0.43246 0.0
H579 H 0.83628 0.5297 0.42804 0.0
H580 H 0.74111 0.46437 0.49771 0.0
H581 H 0.70101 0.47282 0.51945 0.0
C582 C 0.22049 0.76411 0.89963 0.0
C583 C 0.18233 0.75943 0.87954 0.0
C584 C 0.21974 0.82141 0.82331 0.0
C585 C 0.2577 0.82827 0.84726 0.0
N586 N 0.29184 0.81163 0.92162 0.0
N587 N 0.14574 0.79042 0.83482 0.0
C588 C 0.25761 0.80109 0.88906 0.0
C589 C 0.18192 0.79028 0.84562 0.0
N590 N 0.22135 0.73355 0.9295 0.0
N591 N 0.21964 0.84323 0.77734 0.0
H592 H 0.117 0.76818 0.84938 0.0
H593 H 0.14478 0.8147 0.81528 0.0
H594 H 0.24672 0.86491 0.75774 0.0
H595 H 0.19284 0.83651 0.7549 0.0
H596 H 0.24875 0.73345 0.93938 0.0
H597 H 0.19457 0.7072 0.94149 0.0
H598 H 0.2919 0.79449 0.95604 0.0
H599 H 0.31869 0.83967 0.9189 0.0
loop_
_geom_bond_atom_site_label_1
_geom_bond_atom_site_label_2
_geom_bond_distance
_geom_bond_site_symmetry_2
_ccdc_geom_bond_type
Zn0 O3 2.031 . S
Zn0 O5 2.049 . S
Zn0 O10 2.067 . S
Zn1 O2 1.962 . S
Zn1 O4 1.986 . S
Zn1 O6 1.996 . S
Zn1 O9 1.943 . S
O2 Zn1 1.962 . S
O2 C7 1.254 . S
O3 Zn0 2.031 . S
O3 C7 1.269 . S
O4 Zn1 1.986 . S
O4 C11 1.262 . S
O5 Zn0 2.049 . S
O5 C13 1.260 . S
O6 Zn1 1.996 . S
O6 C13 1.257 . S
C7 O2 1.254 . S
C7 O3 1.269 . S
C8 O9 1.249 . S
C8 O10 1.270 . S
O9 Zn1 1.943 . S
O9 C8 1.249 . S
O10 Zn0 2.067 . S
O10 C8 1.270 . S
C11 O4 1.262 . S
C11 O12 1.232 . S
O12 C11 1.232 . S
C13 O5 1.260 . S
C13 O6 1.257 . S
Zn14 O17 2.031 . S
Zn14 O19 2.049 . S
Zn14 O24 2.067 . S
Zn15 O16 1.962 . S
Zn15 O18 1.986 . S
Zn15 O20 1.996 . S
Zn15 O23 1.943 . S
O16 Zn15 1.962 . S
O16 C21 1.254 . S
O17 Zn14 2.031 . S
O17 C21 1.269 . S
O18 Zn15 1.986 . S
O18 C25 1.262 . S
O19 Zn14 2.049 . S
O19 C27 1.260 . S
O20 Zn15 1.996 . S
O20 C27 1.257 . S
C21 O16 1.254 . S
C21 O17 1.269 . S
C22 O23 1.249 . S
C22 O24 1.270 . S
O23 Zn15 1.943 . S
O23 C22 1.249 . S
O24 Zn14 2.067 . S
O24 C22 1.270 . S
C25 O18 1.262 . S
C25 O26 1.232 . S
O26 C25 1.232 . S
C27 O19 1.260 . S
C27 O20 1.257 . S
Zn28 O31 2.031 . S
Zn28 O33 2.049 . S
Zn28 O38 2.067 . S
Zn29 O30 1.962 . S
Zn29 O32 1.986 . S
Zn29 O34 1.996 . S
Zn29 O37 1.943 . S
O30 Zn29 1.962 . S
O30 C35 1.254 . S
O31 Zn28 2.031 . S
O31 C35 1.269 . S
O32 Zn29 1.986 . S
O32 C39 1.262 . S
O33 Zn28 2.049 . S
O33 C41 1.260 . S
O34 Zn29 1.996 . S
O34 C41 1.257 . S
C35 O30 1.254 . S
C35 O31 1.269 . S
C36 O37 1.249 . S
C36 O38 1.270 . S
O37 Zn29 1.943 . S
O37 C36 1.249 . S
O38 Zn28 2.067 . S
O38 C36 1.270 . S
C39 O32 1.262 . S
C39 O40 1.232 . S
O40 C39 1.232 . S
C41 O33 1.260 . S
C41 O34 1.257 . S
Zn42 O45 2.031 . S
Zn42 O47 2.049 . S
Zn42 O52 2.067 . S
Zn43 O44 1.962 . S
Zn43 O46 1.986 . S
Zn43 O48 1.996 . S
Zn43 O51 1.943 . S
O44 Zn43 1.962 . S
O44 C49 1.254 . S
O45 Zn42 2.031 . S
O45 C49 1.269 . S
O46 Zn43 1.986 . S
O46 C53 1.262 . S
O47 Zn42 2.049 . S
O47 C55 1.260 . S
O48 Zn43 1.996 . S
O48 C55 1.257 . S
C49 O44 1.254 . S
C49 O45 1.269 . S
C50 O51 1.249 . S
C50 O52 1.270 . S
O51 Zn43 1.943 . S
O51 C50 1.249 . S
O52 Zn42 2.067 . S
O52 C50 1.270 . S
C53 O46 1.262 . S
C53 O54 1.232 . S
O54 C53 1.232 . S
C55 O47 1.260 . S
C55 O48 1.257 . S
Zn56 O59 2.031 . S
Zn56 O61 2.049 . S
Zn56 O66 2.067 . S
Zn57 O58 1.962 . S
Zn57 O60 1.986 . S
Zn57 O62 1.996 . S
Zn57 O65 1.943 . S
O58 Zn57 1.962 . S
O58 C63 1.254 . S
O59 Zn56 2.031 . S
O59 C63 1.269 . S
O60 Zn57 1.986 . S
O60 C67 1.262 . S
O61 Zn56 2.049 . S
O61 C69 1.260 . S
O62 Zn57 1.996 . S
O62 C69 1.257 . S
C63 O58 1.254 . S
C63 O59 1.269 . S
C64 O65 1.249 . S
C64 O66 1.270 . S
O65 Zn57 1.943 . S
O65 C64 1.249 . S
O66 Zn56 2.067 . S
O66 C64 1.270 . S
C67 O60 1.262 . S
C67 O68 1.232 . S
O68 C67 1.232 . S
C69 O61 1.260 . S
C69 O62 1.257 . S
Zn70 O73 2.031 . S
Zn70 O75 2.049 . S
Zn70 O80 2.067 . S
Zn71 O72 1.962 . S
Zn71 O74 1.986 . S
Zn71 O76 1.996 . S
Zn71 O79 1.943 . S
O72 Zn71 1.962 . S
O72 C77 1.254 . S
O73 Zn70 2.031 . S
O73 C77 1.269 . S
O74 Zn71 1.986 . S
O74 C81 1.262 . S
O75 Zn70 2.049 . S
O75 C83 1.260 . S
O76 Zn71 1.996 . S
O76 C83 1.257 . S
C77 O72 1.254 . S
C77 O73 1.269 . S
C78 O79 1.249 . S
C78 O80 1.270 . S
O79 Zn71 1.943 . S
O79 C78 1.249 . S
O80 Zn70 2.067 . S
O80 C78 1.270 . S
C81 O74 1.262 . S
C81 O82 1.232 . S
O82 C81 1.232 . S
C83 O75 1.260 . S
C83 O76 1.257 . S
Zn84 O87 2.031 . S
Zn84 O89 2.049 . S
Zn84 O94 2.067 . S
Zn85 O86 1.962 . S
Zn85 O88 1.986 . S
Zn85 O90 1.996 . S
Zn85 O93 1.943 . S
O86 Zn85 1.962 . S
O86 C91 1.254 . S
O87 Zn84 2.031 . S
O87 C91 1.269 . S
O88 Zn85 1.986 . S
O88 C95 1.262 . S
O89 Zn84 2.049 . S
O89 C97 1.260 . S
O90 Zn85 1.996 . S
O90 C97 1.257 . S
C91 O86 1.254 . S
C91 O87 1.269 . S
C92 O93 1.249 . S
C92 O94 1.270 . S
O93 Zn85 1.943 . S
O93 C92 1.249 . S
O94 Zn84 2.067 . S
O94 C92 1.270 . S
C95 O88 1.262 . S
C95 O96 1.232 . S
O96 C95 1.232 . S
C97 O89 1.260 . S
C97 O90 1.257 . S
Zn98 O101 2.031 . S
Zn98 O103 2.049 . S
Zn98 O108 2.067 . S
Zn99 O100 1.962 . S
Zn99 O102 1.986 . S
Zn99 O104 1.996 . S
Zn99 O107 1.943 . S
O100 Zn99 1.962 . S
O100 C105 1.254 . S
O101 Zn98 2.031 . S
O101 C105 1.269 . S
O102 Zn99 1.986 . S
O102 C109 1.262 . S
O103 Zn98 2.049 . S
O103 C111 1.260 . S
O104 Zn99 1.996 . S
O104 C111 1.257 . S
C105 O100 1.254 . S
C105 O101 1.269 . S
C106 O107 1.249 . S
C106 O108 1.270 . S
O107 Zn99 1.943 . S
O107 C106 1.249 . S
O108 Zn98 2.067 . S
O108 C106 1.270 . S
C109 O102 1.262 . S
C109 O110 1.232 . S
O110 C109 1.232 . S
C111 O103 1.260 . S
C111 O104 1.257 . S
Zn112 O115 2.031 . S
Zn112 O117 2.049 . S
Zn112 O122 2.067 . S
Zn113 O114 1.962 . S
Zn113 O116 1.986 . S
Zn113 O118 1.996 . S
Zn113 O121 1.943 . S
O114 Zn113 1.962 . S
O114 C119 1.254 . S
O115 Zn112 2.031 . S
O115 C119 1.269 . S
O116 Zn113 1.986 . S
O116 C123 1.262 . S
O117 Zn112 2.049 . S
O117 C125 1.260 . S
O118 Zn113 1.996 . S
O118 C125 1.257 . S
C119 O114 1.254 . S
C119 O115 1.269 . S
C120 O121 1.249 . S
C120 O122 1.270 . S
O121 Zn113 1.943 . S
O121 C120 1.249 . S
O122 Zn112 2.067 . S
O122 C120 1.270 . S
C123 O116 1.262 . S
C123 O124 1.232 . S
O124 C123 1.232 . S
C125 O117 1.260 . S
C125 O118 1.257 . S
Zn126 O129 2.031 . S
Zn126 O131 2.049 . S
Zn126 O136 2.067 . S
Zn127 O128 1.962 . S
Zn127 O130 1.986 . S
Zn127 O132 1.996 . S
Zn127 O135 1.943 . S
O128 Zn127 1.962 . S
O128 C133 1.254 . S
O129 Zn126 2.031 . S
O129 C133 1.269 . S
O130 Zn127 1.986 . S
O130 C137 1.262 . S
O131 Zn126 2.049 . S
O131 C139 1.260 . S
O132 Zn127 1.996 . S
O132 C139 1.257 . S
C133 O128 1.254 . S
C133 O129 1.269 . S
C134 O135 1.249 . S
C134 O136 1.270 . S
O135 Zn127 1.943 . S
O135 C134 1.249 . S
O136 Zn126 2.067 . S
O136 C134 1.270 . S
C137 O130 1.262 . S
C137 O138 1.232 . S
O138 C137 1.232 . S
C139 O131 1.260 . S
C139 O132 1.257 . S
Zn140 O143 2.031 . S
Zn140 O145 2.049 . S
Zn140 O150 2.067 . S
Zn141 O142 1.962 . S
Zn141 O144 1.986 . S
Zn141 O146 1.996 . S
Zn141 O149 1.943 . S
O142 Zn141 1.962 . S
O142 C147 1.254 . S
O143 Zn140 2.031 . S
O143 C147 1.269 . S
O144 Zn141 1.986 . S
O144 C151 1.262 . S
O145 Zn140 2.049 . S
O145 C153 1.260 . S
O146 Zn141 1.996 . S
O146 C153 1.257 . S
C147 O142 1.254 . S
C147 O143 1.269 . S
C148 O149 1.249 . S
C148 O150 1.270 . S
O149 Zn141 1.943 . S
O149 C148 1.249 . S
O150 Zn140 2.067 . S
O150 C148 1.270 . S
C151 O144 1.262 . S
C151 O152 1.232 . S
O152 C151 1.232 . S
C153 O145 1.260 . S
C153 O146 1.257 . S
Zn154 O157 2.031 . S
Zn154 O159 2.049 . S
Zn154 O164 2.067 . S
Zn155 O156 1.962 . S
Zn155 O158 1.986 . S
Zn155 O160 1.996 . S
Zn155 O163 1.943 . S
O156 Zn155 1.962 . S
O156 C161 1.254 . S
O157 Zn154 2.031 . S
O157 C161 1.269 . S
O158 Zn155 1.986 . S
O158 C165 1.262 . S
O159 Zn154 2.049 . S
O159 C167 1.260 . S
O160 Zn155 1.996 . S
O160 C167 1.257 . S
C161 O156 1.254 . S
C161 O157 1.269 . S
C162 O163 1.249 . S
C162 O164 1.270 . S
O163 Zn155 1.943 . S
O163 C162 1.249 . S
O164 Zn154 2.067 . S
O164 C162 1.270 . S
C165 O158 1.262 . S
C165 O166 1.232 . S
O166 C165 1.232 . S
C167 O159 1.260 . S
C167 O160 1.257 . S
C168 C169 1.363 . S
C168 C174 1.379 1_554 S
C168 N176 1.356 . S
C169 C168 1.363 . S
C169 C175 1.363 . S
C170 C171 1.363 . S
C170 C175 1.379 1_556 S
C170 N177 1.356 . S
C171 C170 1.363 . S
C171 C174 1.363 . S
N172 C174 1.356 . S
N172 H184 0.984 . S
N172 H185 0.985 . S
N173 C175 1.356 . S
N173 H178 0.984 . S
N173 H179 0.985 . S
C174 C168 1.379 1_556 S
C174 C171 1.363 . S
C174 N172 1.356 . S
C175 C169 1.363 . S
C175 C170 1.379 1_554 S
C175 N173 1.356 . S
N176 C168 1.356 . S
N176 H182 0.984 . S
N176 H183 0.984 . S
N177 C170 1.356 . S
N177 H180 0.984 . S
N177 H181 0.985 . S
H178 N173 0.984 . S
H179 N173 0.985 . S
H180 N177 0.984 . S
H181 N177 0.985 . S
H182 N176 0.984 . S
H183 N176 0.984 . S
H184 N172 0.984 . S
H185 N172 0.985 . S
C186 C187 1.363 . S
C186 C192 1.379 . S
C186 N194 1.356 . S
C187 C186 1.363 . S
C187 C193 1.363 . S
C188 C189 1.363 . S
C188 C193 1.379 . S
C188 N195 1.356 . S
C189 C188 1.363 . S
C189 C192 1.363 . S
N190 C192 1.356 . S
N190 H202 0.984 . S
N190 H203 0.985 . S
N191 C193 1.356 . S
N191 H196 0.984 . S
N191 H197 0.985 . S
C192 C186 1.379 . S
C192 C189 1.363 . S
C192 N190 1.356 . S
C193 C187 1.363 . S
C193 C188 1.379 . S
C193 N191 1.356 . S
N194 C186 1.356 . S
N194 H200 0.984 . S
N194 H201 0.984 . S
N195 C188 1.356 . S
N195 H198 0.984 . S
N195 H199 0.985 . S
H196 N191 0.984 . S
H197 N191 0.985 . S
H198 N195 0.984 . S
H199 N195 0.985 . S
H200 N194 0.984 . S
H201 N194 0.984 . S
H202 N190 0.984 . S
H203 N190 0.985 . S
C204 C205 1.363 . S
C204 C210 1.379 . S
C204 N212 1.356 . S
C205 C204 1.363 . S
C205 C211 1.363 . S
C206 C207 1.363 . S
C206 C211 1.379 . S
C206 N213 1.356 . S
C207 C206 1.363 . S
C207 C210 1.363 . S
N208 C210 1.356 . S
N208 H220 0.984 . S
N208 H221 0.985 . S
N209 C211 1.356 . S
N209 H214 0.984 . S
N209 H215 0.985 . S
C210 C204 1.379 . S
C210 C207 1.363 . S
C210 N208 1.356 . S
C211 C205 1.363 . S
C211 C206 1.379 . S
C211 N209 1.356 . S
N212 C204 1.356 . S
N212 H218 0.984 . S
N212 H219 0.984 . S
N213 C206 1.356 . S
N213 H216 0.984 . S
N213 H217 0.985 . S
H214 N209 0.984 . S
H215 N209 0.985 . S
H216 N213 0.984 . S
H217 N213 0.985 . S
H218 N212 0.984 . S
H219 N212 0.984 . S
H220 N208 0.984 . S
H221 N208 0.985 . S
C222 C223 1.363 . S
C222 C228 1.379 1_554 S
C222 N230 1.356 . S
C223 C222 1.363 . S
C223 C229 1.363 . S
C224 C225 1.363 . S
C224 C229 1.379 1_556 S
C224 N231 1.356 . S
C225 C224 1.363 . S
C225 C228 1.363 . S
N226 C228 1.356 . S
N226 H238 0.984 . S
N226 H239 0.985 . S
N227 C229 1.356 . S
N227 H232 0.984 . S
N227 H233 0.985 . S
C228 C222 1.379 1_556 S
C228 C225 1.363 . S
C228 N226 1.356 . S
C229 C223 1.363 . S
C229 C224 1.379 1_554 S
C229 N227 1.356 . S
N230 C222 1.356 . S
N230 H236 0.984 . S
N230 H237 0.984 . S
N231 C224 1.356 . S
N231 H234 0.984 . S
N231 H235 0.985 . S
H232 N227 0.984 . S
H233 N227 0.985 . S
H234 N231 0.984 . S
H235 N231 0.985 . S
H236 N230 0.984 . S
H237 N230 0.984 . S
H238 N226 0.984 . S
H239 N226 0.985 . S
C240 C241 1.363 . S
C240 C246 1.379 . S
C240 N248 1.356 . S
C241 C240 1.363 . S
C241 C247 1.363 . S
C242 C243 1.363 . S
C242 C247 1.379 . S
C242 N249 1.356 . S
C243 C242 1.363 . S
C243 C246 1.363 . S
N244 C246 1.356 . S
N244 H256 0.984 . S
N244 H257 0.985 . S
N245 C247 1.356 . S
N245 H250 0.984 . S
N245 H251 0.985 . S
C246 C240 1.379 . S
C246 C243 1.363 . S
C246 N244 1.356 . S
C247 C241 1.363 . S
C247 C242 1.379 . S
C247 N245 1.356 . S
N248 C240 1.356 . S
N248 H254 0.984 . S
N248 H255 0.984 . S
N249 C242 1.356 . S
N249 H252 0.984 . S
N249 H253 0.985 . S
H250 N245 0.984 . S
H251 N245 0.985 . S
H252 N249 0.984 . S
H253 N249 0.985 . S
H254 N248 0.984 . S
H255 N248 0.984 . S
H256 N244 0.984 . S
H257 N244 0.985 . S
C258 C259 1.363 . S
C258 C264 1.379 . S
C258 N266 1.356 . S
C259 C258 1.363 . S
C259 C265 1.363 . S
C260 C261 1.363 . S
C260 C265 1.379 . S
C260 N267 1.356 . S
C261 C260 1.363 . S
C261 C264 1.363 . S
N262 C264 1.356 . S
N262 H274 0.984 . S
N262 H275 0.985 . S
N263 C265 1.356 . S
N263 H268 0.984 . S
N263 H269 0.985 . S
C264 C258 1.379 . S
C264 C261 1.363 . S
C264 N262 1.356 . S
C265 C259 1.363 . S
C265 C260 1.379 . S
C265 N263 1.356 . S
N266 C258 1.356 . S
N266 H272 0.984 . S
N266 H273 0.984 . S
N267 C260 1.356 . S
N267 H270 0.984 . S
N267 H271 0.985 . S
H268 N263 0.984 . S
H269 N263 0.985 . S
H270 N267 0.984 . S
H271 N267 0.985 . S
H272 N266 0.984 . S
H273 N266 0.984 . S
H274 N262 0.984 . S
H275 N262 0.985 . S
C276 C277 1.363 . S
C276 C282 1.379 1_554 S
C276 N284 1.356 . S
C277 C276 1.363 . S
C277 C283 1.363 1_545 S
C278 C279 1.363 . S
C278 C283 1.379 1_556 S
C278 N285 1.356 . S
C279 C278 1.363 . S
C279 C282 1.363 1_565 S
N280 C282 1.356 . S
N280 H292 0.984 . S
N280 H293 0.985 . S
N281 C283 1.356 . S
N281 H286 0.984 . S
N281 H287 0.985 . S
C282 C276 1.379 1_556 S
C282 C279 1.363 1_545 S
C282 N280 1.356 . S
C283 C277 1.363 1_565 S
C283 C278 1.379 1_554 S
C283 N281 1.356 . S
N284 C276 1.356 . S
N284 H290 0.984 . S
N284 H291 0.984 . S
N285 C278 1.356 . S
N285 H288 0.984 . S
N285 H289 0.985 . S
H286 N281 0.984 . S
H287 N281 0.985 . S
H288 N285 0.984 . S
H289 N285 0.985 . S
H290 N284 0.984 . S
H291 N284 0.984 . S
H292 N280 0.984 . S
H293 N280 0.985 . S
C294 C295 1.363 . S
C294 C300 1.379 . S
C294 N302 1.356 . S
C295 C294 1.363 . S
C295 C301 1.363 . S
C296 C297 1.363 . S
C296 C301 1.379 . S
C296 N303 1.356 . S
C297 C296 1.363 . S
C297 C300 1.363 . S
N298 C300 1.356 . S
N298 H310 0.984 . S
N298 H311 0.985 . S
N299 C301 1.356 . S
N299 H304 0.984 . S
N299 H305 0.985 . S
C300 C294 1.379 . S
C300 C297 1.363 . S
C300 N298 1.356 . S
C301 C295 1.363 . S
C301 C296 1.379 . S
C301 N299 1.356 . S
N302 C294 1.356 . S
N302 H308 0.984 . S
N302 H309 0.984 . S
N303 C296 1.356 . S
N303 H306 0.984 . S
N303 H307 0.985 . S
H304 N299 0.984 . S
H305 N299 0.985 . S
H306 N303 0.984 . S
H307 N303 0.985 . S
H308 N302 0.984 . S
H309 N302 0.984 . S
H310 N298 0.984 . S
H311 N298 0.985 . S
C312 C313 1.363 1_455 S
C312 C318 1.379 . S
C312 N320 1.356 . S
C313 C312 1.363 1_655 S
C313 C319 1.363 . S
C314 C315 1.363 . S
C314 C319 1.379 . S
C314 N321 1.356 . S
C315 C314 1.363 . S
C315 C318 1.363 1_655 S
N316 C318 1.356 . S
N316 H328 0.984 . S
N316 H329 0.985 1_455 S
N317 C319 1.356 . S
N317 H322 0.984 . S
N317 H323 0.985 . S
C318 C312 1.379 . S
C318 C315 1.363 1_455 S
C318 N316 1.356 . S
C319 C313 1.363 . S
C319 C314 1.379 . S
C319 N317 1.356 . S
N320 C312 1.356 . S
N320 H326 0.984 . S
N320 H327 0.984 . S
N321 C314 1.356 . S
N321 H324 0.984 . S
N321 H325 0.985 . S
H322 N317 0.984 . S
H323 N317 0.985 . S
H324 N321 0.984 . S
H325 N321 0.985 . S
H326 N320 0.984 . S
H327 N320 0.984 . S
H328 N316 0.984 . S
H329 N316 0.985 1_655 S
C330 C331 1.363 1_545 S
C330 C336 1.379 1_554 S
C330 N338 1.356 . S
C331 C330 1.363 1_565 S
C331 C337 1.363 . S
C332 C333 1.363 1_565 S
C332 C337 1.379 1_556 S
C332 N339 1.356 . S
C333 C332 1.363 1_545 S
C333 C336 1.363 . S
N334 C336 1.356 . S
N334 H346 0.984 . S
N334 H347 0.985 . S
N335 C337 1.356 . S
N335 H340 0.984 . S
N335 H341 0.985 . S
C336 C330 1.379 1_556 S
C336 C333 1.363 . S
C336 N334 1.356 . S
C337 C331 1.363 . S
C337 C332 1.379 1_554 S
C337 N335 1.356 . S
N338 C330 1.356 . S
N338 H344 0.984 . S
N338 H345 0.984 . S
N339 C332 1.356 . S
N339 H342 0.984 . S
N339 H343 0.985 . S
H340 N335 0.984 . S
H341 N335 0.985 . S
H342 N339 0.984 . S
H343 N339 0.985 . S
H344 N338 0.984 . S
H345 N338 0.984 . S
H346 N334 0.984 . S
H347 N334 0.985 . S
C348 C349 1.363 . S
C348 C354 1.379 . S
C348 N356 1.356 . S
C349 C348 1.363 . S
C349 C355 1.363 . S
C350 C351 1.363 . S
C350 C355 1.379 . S
C350 N357 1.356 . S
C351 C350 1.363 . S
C351 C354 1.363 . S
N352 C354 1.356 . S
N352 H364 0.984 . S
N352 H365 0.985 . S
N353 C355 1.356 . S
N353 H358 0.984 . S
N353 H359 0.985 . S
C354 C348 1.379 . S
C354 C351 1.363 . S
C354 N352 1.356 . S
C355 C349 1.363 . S
C355 C350 1.379 . S
C355 N353 1.356 . S
N356 C348 1.356 . S
N356 H362 0.984 . S
N356 H363 0.984 . S
N357 C350 1.356 . S
N357 H360 0.984 . S
N357 H361 0.985 . S
H358 N353 0.984 . S
H359 N353 0.985 . S
H360 N357 0.984 . S
H361 N357 0.985 . S
H362 N356 0.984 . S
H363 N356 0.984 . S
H364 N352 0.984 . S
H365 N352 0.985 . S
C366 C367 1.363 . S
C366 C372 1.379 . S
C366 N374 1.356 . S
C367 C366 1.363 . S
C367 C373 1.363 . S
C368 C369 1.363 . S
C368 C373 1.379 . S
C368 N375 1.356 . S
C369 C368 1.363 . S
C369 C372 1.363 . S
N370 C372 1.356 . S
N370 H382 0.984 . S
N370 H383 0.985 1_455 S
N371 C373 1.356 . S
N371 H376 0.984 . S
N371 H377 0.985 . S
C372 C366 1.379 . S
C372 C369 1.363 . S
C372 N370 1.356 . S
C373 C367 1.363 . S
C373 C368 1.379 . S
C373 N371 1.356 . S
N374 C366 1.356 . S
N374 H380 0.984 . S
N374 H381 0.984 . S
N375 C368 1.356 . S
N375 H378 0.984 1_455 S
N375 H379 0.985 . S
H376 N371 0.984 . S
H377 N371 0.985 . S
H378 N375 0.984 1_655 S
H379 N375 0.985 . S
H380 N374 0.984 . S
H381 N374 0.984 . S
H382 N370 0.984 . S
H383 N370 0.985 1_655 S
C384 C385 1.363 . S
C384 C390 1.379 . S
C384 N392 1.356 . S
C385 C384 1.363 . S
C385 C391 1.363 1_565 S
C386 C387 1.363 . S
C386 C391 1.379 . S
C386 N393 1.356 . S
C387 C386 1.363 . S
C387 C390 1.363 1_545 S
N388 C390 1.356 . S
N388 H400 0.984 . S
N388 H401 0.985 1_565 S
N389 C391 1.356 . S
N389 H394 0.984 1_545 S
N389 H395 0.985 . S
C390 C384 1.379 . S
C390 C387 1.363 1_565 S
C390 N388 1.356 . S
C391 C385 1.363 1_545 S
C391 C386 1.379 . S
C391 N389 1.356 . S
N392 C384 1.356 . S
N392 H398 0.984 . S
N392 H399 0.984 . S
N393 C386 1.356 . S
N393 H396 0.984 . S
N393 H397 0.985 . S
H394 N389 0.984 1_565 S
H395 N389 0.985 . S
H396 N393 0.984 . S
H397 N393 0.985 . S
H398 N392 0.984 . S
H399 N392 0.984 . S
H400 N388 0.984 . S
H401 N388 0.985 1_545 S
C402 C403 1.363 . S
C402 C408 1.379 . S
C402 N410 1.356 . S
C403 C402 1.363 . S
C403 C409 1.363 . S
C404 C405 1.363 . S
C404 C409 1.379 . S
C404 N411 1.356 . S
C405 C404 1.363 . S
C405 C408 1.363 . S
N406 C408 1.356 . S
N406 H418 0.984 . S
N406 H419 0.985 . S
N407 C409 1.356 . S
N407 H412 0.984 . S
N407 H413 0.985 . S
C408 C402 1.379 . S
C408 C405 1.363 . S
C408 N406 1.356 . S
C409 C403 1.363 . S
C409 C404 1.379 . S
C409 N407 1.356 . S
N410 C402 1.356 . S
N410 H416 0.984 . S
N410 H417 0.984 . S
N411 C404 1.356 . S
N411 H414 0.984 . S
N411 H415 0.985 . S
H412 N407 0.984 . S
H413 N407 0.985 . S
H414 N411 0.984 . S
H415 N411 0.985 . S
H416 N410 0.984 . S
H417 N410 0.984 . S
H418 N406 0.984 . S
H419 N406 0.985 . S
C420 C421 1.363 . S
C420 C426 1.379 1_455 S
C420 N428 1.356 . S
C421 C420 1.363 . S
C421 C427 1.363 . S
C422 C423 1.363 . S
C422 C427 1.379 1_655 S
C422 N429 1.356 . S
C423 C422 1.363 . S
C423 C426 1.363 . S
N424 C426 1.356 . S
N424 H436 0.984 1_556 S
N424 H437 0.985 . S
N425 C427 1.356 . S
N425 H430 0.984 . S
N425 H431 0.985 . S
C426 C420 1.379 1_655 S
C426 C423 1.363 . S
C426 N424 1.356 . S
C427 C421 1.363 . S
C427 C422 1.379 1_455 S
C427 N425 1.356 . S
N428 C420 1.356 . S
N428 H434 0.984 1_556 S
N428 H435 0.984 . S
N429 C422 1.356 . S
N429 H432 0.984 . S
N429 H433 0.985 . S
H430 N425 0.984 . S
H431 N425 0.985 . S
H432 N429 0.984 . S
H433 N429 0.985 . S
H434 N428 0.984 1_554 S
H435 N428 0.984 . S
H436 N424 0.984 1_554 S
H437 N424 0.985 . S
C438 C439 1.363 . S
C438 C444 1.379 . S
C438 N446 1.356 . S
C439 C438 1.363 . S
C439 C445 1.363 1_655 S
C440 C441 1.363 . S
C440 C445 1.379 . S
C440 N447 1.356 . S
C441 C440 1.363 . S
C441 C444 1.363 1_455 S
N442 C444 1.356 . S
N442 H454 0.984 . S
N442 H455 0.977 1_655 S
N443 C445 1.356 . S
N443 H448 0.984 1_455 S
N443 H449 0.985 . S
C444 C438 1.379 . S
C444 C441 1.363 1_655 S
C444 N442 1.356 . S
C445 C439 1.363 1_455 S
C445 C440 1.379 . S
C445 N443 1.356 . S
N446 C438 1.356 . S
N446 H452 0.984 . S
N446 H453 0.984 . S
N447 C440 1.356 . S
N447 H450 0.984 . S
N447 H451 0.985 . S
H448 N443 0.984 1_655 S
H449 N443 0.985 . S
H450 N447 0.984 . S
H451 N447 0.985 . S
H452 N446 0.984 . S
H453 N446 0.984 . S
H454 N442 0.984 . S
H455 N442 0.977 1_455 S
C456 C457 1.363 1_545 S
C456 C462 1.379 . S
C456 N464 1.356 . S
C457 C456 1.363 1_565 S
C457 C463 1.363 . S
C458 C459 1.363 1_565 S
C458 C463 1.379 . S
C458 N465 1.356 . S
C459 C458 1.363 1_545 S
C459 C462 1.363 . S
N460 C462 1.356 . S
N460 H472 0.984 . S
N460 H473 0.985 . S
N461 C463 1.356 . S
N461 H466 0.984 . S
N461 H467 0.985 . S
C462 C456 1.379 . S
C462 C459 1.363 . S
C462 N460 1.356 . S
C463 C457 1.363 . S
C463 C458 1.379 . S
C463 N461 1.356 . S
N464 C456 1.356 . S
N464 H470 0.984 . S
N464 H471 0.984 1_545 S
N465 C458 1.356 . S
N465 H468 0.984 1_565 S
N465 H469 0.985 . S
H466 N461 0.984 . S
H467 N461 0.985 . S
H468 N465 0.984 1_545 S
H469 N465 0.985 . S
H470 N464 0.984 . S
H471 N464 0.984 1_565 S
H472 N460 0.984 . S
H473 N460 0.985 . S
C474 C475 1.363 . S
C474 C480 1.379 . S
C474 N482 1.356 . S
C475 C474 1.363 . S
C475 C481 1.363 . S
C476 C477 1.363 . S
C476 C481 1.379 . S
C476 N483 1.356 . S
C477 C476 1.363 . S
C477 C480 1.363 . S
N478 C480 1.356 . S
N478 H490 0.984 1_554 S
N478 H491 0.985 . S
N479 C481 1.356 . S
N479 H484 0.984 . S
N479 H485 0.985 . S
C480 C474 1.379 . S
C480 C477 1.363 . S
C480 N478 1.356 . S
C481 C475 1.363 . S
C481 C476 1.379 . S
C481 N479 1.356 . S
N482 C474 1.356 . S
N482 H488 0.984 1_554 S
N482 H489 0.984 . S
N483 C476 1.356 . S
N483 H486 0.984 . S
N483 H487 0.985 . S
H484 N479 0.984 . S
H485 N479 0.985 . S
H486 N483 0.984 . S
H487 N483 0.985 . S
H488 N482 0.984 1_556 S
H489 N482 0.984 . S
H490 N478 0.984 1_556 S
H491 N478 0.985 . S
C492 C493 1.363 . S
C492 C498 1.379 . S
C492 N500 1.356 . S
C493 C492 1.363 . S
C493 C499 1.363 . S
C494 C495 1.363 . S
C494 C499 1.379 . S
C494 N501 1.356 . S
C495 C494 1.363 . S
C495 C498 1.363 . S
N496 C498 1.356 . S
N496 H508 0.984 . S
N496 H509 0.985 . S
N497 C499 1.356 . S
N497 H502 0.984 . S
N497 H503 0.985 . S
C498 C492 1.379 . S
C498 C495 1.363 . S
C498 N496 1.356 . S
C499 C493 1.363 . S
C499 C494 1.379 . S
C499 N497 1.356 . S
N500 C492 1.356 . S
N500 H506 0.984 . S
N500 H507 0.984 . S
N501 C494 1.356 . S
N501 H504 0.984 . S
N501 H505 0.985 . S
H502 N497 0.984 . S
H503 N497 0.985 . S
H504 N501 0.984 . S
H505 N501 0.985 . S
H506 N500 0.984 . S
H507 N500 0.984 . S
H508 N496 0.984 . S
H509 N496 0.985 . S
C510 C511 1.363 . S
C510 C516 1.379 . S
C510 N518 1.356 . S
C511 C510 1.363 . S
C511 C517 1.363 . S
C512 C513 1.363 . S
C512 C517 1.379 . S
C512 N519 1.356 . S
C513 C512 1.363 . S
C513 C516 1.363 . S
N514 C516 1.356 . S
N514 H526 0.984 . S
N514 H527 0.985 . S
N515 C517 1.356 . S
N515 H520 0.984 . S
N515 H521 0.985 . S
C516 C510 1.379 . S
C516 C513 1.363 . S
C516 N514 1.356 . S
C517 C511 1.363 . S
C517 C512 1.379 . S
C517 N515 1.356 . S
N518 C510 1.356 . S
N518 H524 0.984 . S
N518 H525 0.984 . S
N519 C512 1.356 . S
N519 H522 0.984 . S
N519 H523 0.985 . S
H520 N515 0.984 . S
H521 N515 0.985 . S
H522 N519 0.984 . S
H523 N519 0.985 . S
H524 N518 0.984 . S
H525 N518 0.984 . S
H526 N514 0.984 . S
H527 N514 0.985 . S
C528 C529 1.363 . S
C528 C534 1.379 . S
C528 N536 1.356 . S
C529 C528 1.363 . S
C529 C535 1.363 . S
C530 C531 1.363 . S
C530 C535 1.379 . S
C530 N537 1.356 . S
C531 C530 1.363 . S
C531 C534 1.363 . S
N532 C534 1.356 . S
N532 H544 0.984 . S
N532 H545 0.985 . S
N533 C535 1.356 . S
N533 H538 0.984 . S
N533 H539 0.985 . S
C534 C528 1.379 . S
C534 C531 1.363 . S
C534 N532 1.356 . S
C535 C529 1.363 . S
C535 C530 1.379 . S
C535 N533 1.356 . S
N536 C528 1.356 . S
N536 H542 0.984 . S
N536 H543 0.984 . S
N537 C530 1.356 . S
N537 H540 0.984 . S
N537 H541 0.985 . S
H538 N533 0.984 . S
H539 N533 0.985 . S
H540 N537 0.984 . S
H541 N537 0.985 . S
H542 N536 0.984 . S
H543 N536 0.984 . S
H544 N532 0.984 . S
H545 N532 0.985 . S
C546 C547 1.363 . S
C546 C552 1.379 . S
C546 N554 1.356 . S
C547 C546 1.363 . S
C547 C553 1.363 . S
C548 C549 1.363 . S
C548 C553 1.379 . S
C548 N555 1.356 . S
C549 C548 1.363 . S
C549 C552 1.363 . S
N550 C552 1.356 . S
N550 H562 0.984 . S
N550 H563 0.985 . S
N551 C553 1.356 . S
N551 H556 0.984 . S
N551 H557 0.985 . S
C552 C546 1.379 . S
C552 C549 1.363 . S
C552 N550 1.356 . S
C553 C547 1.363 . S
C553 C548 1.379 . S
C553 N551 1.356 . S
N554 C546 1.356 . S
N554 H560 0.984 . S
N554 H561 0.984 . S
N555 C548 1.356 . S
N555 H558 0.984 . S
N555 H559 0.985 . S
H556 N551 0.984 . S
H557 N551 0.985 . S
H558 N555 0.984 . S
H559 N555 0.985 . S
H560 N554 0.984 . S
H561 N554 0.984 . S
H562 N550 0.984 . S
H563 N550 0.985 . S
C564 C565 1.363 . S
C564 C570 1.379 . S
C564 N572 1.356 . S
C565 C564 1.363 . S
C565 C571 1.363 . S
C566 C567 1.363 . S
C566 C571 1.379 . S
C566 N573 1.356 . S
C567 C566 1.363 . S
C567 C570 1.363 . S
N568 C570 1.356 . S
N568 H580 0.984 . S
N568 H581 0.985 . S
N569 C571 1.356 . S
N569 H574 0.984 . S
N569 H575 0.985 . S
C570 C564 1.379 . S
C570 C567 1.363 . S
C570 N568 1.356 . S
C571 C565 1.363 . S
C571 C566 1.379 . S
C571 N569 1.356 . S
N572 C564 1.356 . S
N572 H578 0.984 . S
N572 H579 0.984 . S
N573 C566 1.356 . S
N573 H576 0.984 . S
N573 H577 0.985 . S
H574 N569 0.984 . S
H575 N569 0.985 . S
H576 N573 0.984 . S
H577 N573 0.985 . S
H578 N572 0.984 . S
H579 N572 0.984 . S
H580 N568 0.984 . S
H581 N568 0.985 . S
C582 C583 1.363 . S
C582 C588 1.379 . S
C582 N590 1.356 . S
C583 C582 1.363 . S
C583 C589 1.363 . S
C584 C585 1.363 . S
C584 C589 1.379 . S
C584 N591 1.356 . S
C585 C584 1.363 . S
C585 C588 1.363 . S
N586 C588 1.356 . S
N586 H598 0.984 . S
N586 H599 0.985 . S
N587 C589 1.356 . S
N587 H592 0.984 . S
N587 H593 0.985 . S
C588 C582 1.379 . S
C588 C585 1.363 . S
C588 N586 1.356 . S
C589 C583 1.363 . S
C589 C584 1.379 . S
C589 N587 1.356 . S
N590 C582 1.356 . S
N590 H596 0.984 . S
N590 H597 0.984 . S
N591 C584 1.356 . S
N591 H594 0.984 . S
N591 H595 0.985 . S
H592 N587 0.984 . S
H593 N587 0.985 . S
H594 N591 0.984 . S
H595 N591 0.985 . S
H596 N590 0.984 . S
H597 N590 0.984 . S
H598 N586 0.984 . S
H599 N586 0.985 . S
C169 C13 0.693 . S
C171 C153 0.693 . S
C187 C167 0.736 . S
C189 C27 0.690 . S
C205 C97 0.690 . S
C207 C41 0.736 . S
C223 C55 0.694 . S
C225 C111 0.694 . S
C241 C69 0.690 . S
C243 C125 0.736 . S
C259 C139 0.690 . S
C261 C83 0.736 . S
C277 C8 1.109 . S
C279 C106 1.110 . S
C295 C120 1.240 . S
C297 C22 1.044 . S
C313 C134 1.044 1_655 S
C315 C36 1.240 . S
C331 C50 1.110 . S
C333 C148 1.109 . S
C349 C162 1.240 . S
C351 C64 1.044 . S
C367 C78 1.240 . S
C369 C92 1.044 1_455 S
C385 C49 1.083 . S
C387 C7 1.083 . S
C403 C63 1.023 . S
C405 C21 1.023 . S
C421 C77 0.877 . S
C423 C35 0.877 . S
C439 C91 1.023 . S
C441 C133 1.023 . S
C457 C105 1.083 . S
C459 C147 1.083 . S
C475 C119 0.877 . S
C477 C161 0.877 . S
C493 C123 1.600 . S
C495 C11 1.587 . S
C511 C137 1.582 . S
C513 C25 1.581 . S
C529 C151 1.587 . S
C531 C39 1.600 . S
C547 C165 1.600 . S
C549 C53 1.587 . S
C565 C95 1.581 . S
C567 C67 1.581 . S
C583 C81 1.600 . S
C585 C109 1.587 . S
