# Generated by pormake.
# Topology sxe, (6)-cn, num edge types: 1
# Building blocks:
#     Node 0, Type 0, BuildingBlock: OJICUG_clean_sbu_0, # of connection points: 6
#     Node 1, Type 0, BuildingBlock: OJICUG_clean_sbu_0, # of connection points: 6
#     Node 2, Type 0, BuildingBlock: OJICUG_clean_sbu_0, # of connection points: 6
#     Node 3, Type 0, BuildingBlock: OJICUG_clean_sbu_0, # of connection points: 6
#     Node 4, Type 0, BuildingBlock: OJICUG_clean_sbu_0, # of connection points: 6
#     Node 5, Type 0, BuildingBlock: OJICUG_clean_sbu_0, # of connection points: 6
#     Node 6, Type 0, BuildingBlock: OJICUG_clean_sbu_0, # of connection points: 6
#     Node 7, Type 0, BuildingBlock: OJICUG_clean_sbu_0, # of connection points: 6
#     Node 8, Type 0, BuildingBlock: OJICUG_clean_sbu_0, # of connection points: 6
#     Node 9, Type 0, BuildingBlock: OJICUG_clean_sbu_0, # of connection points: 6
#     Node 10, Type 0, BuildingBlock: OJICUG_clean_sbu_0, # of connection points: 6
#     Node 11, Type 0, BuildingBlock: OJICUG_clean_sbu_0, # of connection points: 6
#     Node 12, Type 0, BuildingBlock: OJICUG_clean_sbu_0, # of connection points: 6
#     Node 13, Type 0, BuildingBlock: OJICUG_clean_sbu_0, # of connection points: 6
#     Node 14, Type 0, BuildingBlock: OJICUG_clean_sbu_0, # of connection points: 6
#     Node 15, Type 0, BuildingBlock: OJICUG_clean_sbu_0, # of connection points: 6
#     Node 16, Type 0, BuildingBlock: OJICUG_clean_sbu_0, # of connection points: 6
#     Node 17, Type 0, BuildingBlock: OJICUG_clean_sbu_0, # of connection points: 6
#     Node 18, Type 0, BuildingBlock: OJICUG_clean_sbu_0, # of connection points: 6
#     Node 19, Type 0, BuildingBlock: OJICUG_clean_sbu_0, # of connection points: 6
#     Node 20, Type 0, BuildingBlock: OJICUG_clean_sbu_0, # of connection points: 6
#     Node 21, Type 0, BuildingBlock: OJICUG_clean_sbu_0, # of connection points: 6
#     Node 22, Type 0, BuildingBlock: OJICUG_clean_sbu_0, # of connection points: 6
#     Node 23, Type 0, BuildingBlock: OJICUG_clean_sbu_0, # of connection points: 6
#     Edge 24, Type (0, 0), BuildingBlock: KIFKEQ_clean_linker_1, # of connection points: 2
#     Edge 25, Type (0, 0), BuildingBlock: KIFKEQ_clean_linker_1, # of connection points: 2
#     Edge 26, Type (0, 0), BuildingBlock: KIFKEQ_clean_linker_1, # of connection points: 2
#     Edge 27, Type (0, 0), BuildingBlock: KIFKEQ_clean_linker_1, # of connection points: 2
#     Edge 28, Type (0, 0), BuildingBlock: KIFKEQ_clean_linker_1, # of connection points: 2
#     Edge 29, Type (0, 0), BuildingBlock: KIFKEQ_clean_linker_1, # of connection points: 2
#     Edge 30, Type (0, 0), BuildingBlock: KIFKEQ_clean_linker_1, # of connection points: 2
#     Edge 31, Type (0, 0), BuildingBlock: KIFKEQ_clean_linker_1, # of connection points: 2
#     Edge 32, Type (0, 0), BuildingBlock: KIFKEQ_clean_linker_1, # of connection points: 2
#     Edge 33, Type (0, 0), BuildingBlock: KIFKEQ_clean_linker_1, # of connection points: 2
#     Edge 34, Type (0, 0), BuildingBlock: KIFKEQ_clean_linker_1, # of connection points: 2
#     Edge 35, Type (0, 0), BuildingBlock: KIFKEQ_clean_linker_1, # of connection points: 2
#     Edge 36, Type (0, 0), BuildingBlock: KIFKEQ_clean_linker_1, # of connection points: 2
#     Edge 37, Type (0, 0), BuildingBlock: KIFKEQ_clean_linker_1, # of connection points: 2
#     Edge 38, Type (0, 0), BuildingBlock: KIFKEQ_clean_linker_1, # of connection points: 2
#     Edge 39, Type (0, 0), BuildingBlock: KIFKEQ_clean_linker_1, # of connection points: 2
#     Edge 40, Type (0, 0), BuildingBlock: KIFKEQ_clean_linker_1, # of connection points: 2
#     Edge 41, Type (0, 0), BuildingBlock: KIFKEQ_clean_linker_1, # of connection points: 2
#     Edge 42, Type (0, 0), BuildingBlock: KIFKEQ_clean_linker_1, # of connection points: 2
#     Edge 43, Type (0, 0), BuildingBlock: KIFKEQ_clean_linker_1, # of connection points: 2
#     Edge 44, Type (0, 0), BuildingBlock: KIFKEQ_clean_linker_1, # of connection points: 2
#     Edge 45, Type (0, 0), BuildingBlock: KIFKEQ_clean_linker_1, # of connection points: 2
#     Edge 46, Type (0, 0), BuildingBlock: KIFKEQ_clean_linker_1, # of connection points: 2
#     Edge 47, Type (0, 0), BuildingBlock: KIFKEQ_clean_linker_1, # of connection points: 2
#     Edge 48, Type (0, 0), BuildingBlock: KIFKEQ_clean_linker_1, # of connection points: 2
#     Edge 49, Type (0, 0), BuildingBlock: KIFKEQ_clean_linker_1, # of connection points: 2
#     Edge 50, Type (0, 0), BuildingBlock: KIFKEQ_clean_linker_1, # of connection points: 2
#     Edge 51, Type (0, 0), BuildingBlock: KIFKEQ_clean_linker_1, # of connection points: 2
#     Edge 52, Type (0, 0), BuildingBlock: KIFKEQ_clean_linker_1, # of connection points: 2
#     Edge 53, Type (0, 0), BuildingBlock: KIFKEQ_clean_linker_1, # of connection points: 2
#     Edge 54, Type (0, 0), BuildingBlock: KIFKEQ_clean_linker_1, # of connection points: 2
#     Edge 55, Type (0, 0), BuildingBlock: KIFKEQ_clean_linker_1, # of connection points: 2
#     Edge 56, Type (0, 0), BuildingBlock: KIFKEQ_clean_linker_1, # of connection points: 2
#     Edge 57, Type (0, 0), BuildingBlock: KIFKEQ_clean_linker_1, # of connection points: 2
#     Edge 58, Type (0, 0), BuildingBlock: KIFKEQ_clean_linker_1, # of connection points: 2
#     Edge 59, Type (0, 0), BuildingBlock: KIFKEQ_clean_linker_1, # of connection points: 2
#     Edge 60, Type (0, 0), BuildingBlock: KIFKEQ_clean_linker_1, # of connection points: 2
#     Edge 61, Type (0, 0), BuildingBlock: KIFKEQ_clean_linker_1, # of connection points: 2
#     Edge 62, Type (0, 0), BuildingBlock: KIFKEQ_clean_linker_1, # of connection points: 2
#     Edge 63, Type (0, 0), BuildingBlock: KIFKEQ_clean_linker_1, # of connection points: 2
#     Edge 64, Type (0, 0), BuildingBlock: KIFKEQ_clean_linker_1, # of connection points: 2
#     Edge 65, Type (0, 0), BuildingBlock: KIFKEQ_clean_linker_1, # of connection points: 2
#     Edge 66, Type (0, 0), BuildingBlock: KIFKEQ_clean_linker_1, # of connection points: 2
#     Edge 67, Type (0, 0), BuildingBlock: KIFKEQ_clean_linker_1, # of connection points: 2
#     Edge 68, Type (0, 0), BuildingBlock: KIFKEQ_clean_linker_1, # of connection points: 2
#     Edge 69, Type (0, 0), BuildingBlock: KIFKEQ_clean_linker_1, # of connection points: 2
#     Edge 70, Type (0, 0), BuildingBlock: KIFKEQ_clean_linker_1, # of connection points: 2
#     Edge 71, Type (0, 0), BuildingBlock: KIFKEQ_clean_linker_1, # of connection points: 2
#     Edge 72, Type (0, 0), BuildingBlock: KIFKEQ_clean_linker_1, # of connection points: 2
#     Edge 73, Type (0, 0), BuildingBlock: KIFKEQ_clean_linker_1, # of connection points: 2
#     Edge 74, Type (0, 0), BuildingBlock: KIFKEQ_clean_linker_1, # of connection points: 2
#     Edge 75, Type (0, 0), BuildingBlock: KIFKEQ_clean_linker_1, # of connection points: 2
#     Edge 76, Type (0, 0), BuildingBlock: KIFKEQ_clean_linker_1, # of connection points: 2
#     Edge 77, Type (0, 0), BuildingBlock: KIFKEQ_clean_linker_1, # of connection points: 2
#     Edge 78, Type (0, 0), BuildingBlock: KIFKEQ_clean_linker_1, # of connection points: 2
#     Edge 79, Type (0, 0), BuildingBlock: KIFKEQ_clean_linker_1, # of connection points: 2
#     Edge 80, Type (0, 0), BuildingBlock: KIFKEQ_clean_linker_1, # of connection points: 2
#     Edge 81, Type (0, 0), BuildingBlock: KIFKEQ_clean_linker_1, # of connection points: 2
#     Edge 82, Type (0, 0), BuildingBlock: KIFKEQ_clean_linker_1, # of connection points: 2
#     Edge 83, Type (0, 0), BuildingBlock: KIFKEQ_clean_linker_1, # of connection points: 2
#     Edge 84, Type (0, 0), BuildingBlock: KIFKEQ_clean_linker_1, # of connection points: 2
#     Edge 85, Type (0, 0), BuildingBlock: KIFKEQ_clean_linker_1, # of connection points: 2
#     Edge 86, Type (0, 0), BuildingBlock: KIFKEQ_clean_linker_1, # of connection points: 2
#     Edge 87, Type (0, 0), BuildingBlock: KIFKEQ_clean_linker_1, # of connection points: 2
#     Edge 88, Type (0, 0), BuildingBlock: KIFKEQ_clean_linker_1, # of connection points: 2
#     Edge 89, Type (0, 0), BuildingBlock: KIFKEQ_clean_linker_1, # of connection points: 2
#     Edge 90, Type (0, 0), BuildingBlock: KIFKEQ_clean_linker_1, # of connection points: 2
#     Edge 91, Type (0, 0), BuildingBlock: KIFKEQ_clean_linker_1, # of connection points: 2
#     Edge 92, Type (0, 0), BuildingBlock: KIFKEQ_clean_linker_1, # of connection points: 2
#     Edge 93, Type (0, 0), BuildingBlock: KIFKEQ_clean_linker_1, # of connection points: 2
#     Edge 94, Type (0, 0), BuildingBlock: KIFKEQ_clean_linker_1, # of connection points: 2
#     Edge 95, Type (0, 0), BuildingBlock: KIFKEQ_clean_linker_1, # of connection points: 2
# Relax obj value: 0.419
# Max RMSD: 0.272
# Mean RMSD: 0.272
data_MOF--net-sxe--node1-OJICUG_clean_sbu_0--edge1-KIFKEQ_clean_linker_1
_symmetry_space_group_name_H-M    P1
_symmetry_Int_Tables_number       1
_symmetry_cell_setting            triclinic
loop_
_symmetry_equiv_pos_as_xyz
'x, y, z'
_cell_length_a     49.067845
_cell_length_b     49.131267
_cell_length_c     49.130926
_cell_angle_alpha  89.922477
_cell_angle_beta   90.013389
_cell_angle_gamma 89.978483
loop_
_atom_site_label
_atom_site_type_symbol
_atom_site_fract_x
_atom_site_fract_y
_atom_site_fract_z
_atom_type_partial_charge
Sc0 Sc 0.14675 0.38149 0.21208 0.0
Sc1 Sc 0.18272 0.4431 0.21534 0.0
Sc2 Sc 0.12998 0.42941 0.26224 0.0
O3 O 0.15324 0.41798 0.2299 0.0
C4 C 0.08615 0.39817 0.22579 0.0
C5 C 0.15954 0.41796 0.16031 0.0
C6 C 0.13117 0.48173 0.22459 0.0
C7 C 0.21189 0.38584 0.2118 0.0
C8 C 0.14334 0.3679 0.27574 0.0
C9 C 0.18748 0.45416 0.27888 0.0
O10 O 0.10337 0.3863 0.21068 0.0
O11 O 0.17288 0.43573 0.17345 0.0
O12 O 0.11962 0.46722 0.24268 0.0
O13 O 0.18964 0.37257 0.21095 0.0
O14 O 0.13899 0.39217 0.28363 0.0
O15 O 0.19758 0.45341 0.25515 0.0
O16 O 0.14499 0.36121 0.25079 0.0
O17 O 0.21296 0.41159 0.21401 0.0
O18 O 0.16314 0.4473 0.28392 0.0
O19 O 0.14815 0.39772 0.17164 0.0
O20 O 0.09308 0.41296 0.24574 0.0
O21 O 0.15424 0.47617 0.21418 0.0
Sc22 Sc 0.32565 0.5982 0.71103 0.0
Sc23 Sc 0.29051 0.53602 0.71121 0.0
Sc24 Sc 0.34272 0.5484 0.75927 0.0
O25 O 0.31956 0.56088 0.72721 0.0
C26 C 0.38647 0.58194 0.72452 0.0
C27 C 0.31391 0.56382 0.65766 0.0
C28 C 0.34216 0.49765 0.71951 0.0
C29 C 0.26069 0.59307 0.71056 0.0
C30 C 0.32956 0.60915 0.77504 0.0
C31 C 0.28493 0.52289 0.77423 0.0
O32 O 0.36901 0.59418 0.70993 0.0
O33 O 0.30077 0.54529 0.6699 0.0
O34 O 0.35309 0.51134 0.73855 0.0
O35 O 0.28279 0.60655 0.71038 0.0
O36 O 0.33414 0.58468 0.78204 0.0
O37 O 0.27557 0.52341 0.7502 0.0
O38 O 0.32723 0.61674 0.75041 0.0
O39 O 0.2598 0.56722 0.71114 0.0
O40 O 0.3089 0.5304 0.78017 0.0
O41 O 0.32463 0.58383 0.66994 0.0
O42 O 0.37985 0.56561 0.74345 0.0
O43 O 0.3193 0.50347 0.7088 0.0
Sc44 Sc 0.65763 0.09555 0.7679 0.0
Sc45 Sc 0.68732 0.03055 0.76723 0.0
Sc46 Sc 0.63896 0.04931 0.71702 0.0
O47 O 0.66137 0.05845 0.75069 0.0
C48 C 0.59635 0.08441 0.75142 0.0
C49 C 0.66394 0.05883 0.82065 0.0
C50 C 0.63321 -0.00315 0.75463 0.0
C51 C 0.72198 0.08458 0.77075 0.0
C52 C 0.65772 0.10973 0.70445 0.0
C53 C 0.6949 0.01958 0.70373 0.0
O54 O 0.614 0.0952 0.76686 0.0
O55 O 0.6764 0.03964 0.80866 0.0
O56 O 0.62487 0.01179 0.73515 0.0
O57 O 0.70103 0.09983 0.77071 0.0
O58 O 0.65118 0.08609 0.69621 0.0
O59 O 0.7027 0.01763 0.72828 0.0
O60 O 0.65972 0.11586 0.72946 0.0
O61 O 0.72081 0.05877 0.76933 0.0
O62 O 0.6723 0.03003 0.69695 0.0
O63 O 0.65523 0.07973 0.80825 0.0
O64 O 0.60261 0.06825 0.73227 0.0
O65 O 0.65538 0.00087 0.76743 0.0
Sc66 Sc 0.84481 0.93495 0.2228 0.0
Sc67 Sc 0.79778 0.94656 0.27604 0.0
Sc68 Sc 0.83215 0.88409 0.27131 0.0
O69 O 0.82483 0.92183 0.25668 0.0
C70 C 0.83018 0.8744 0.20701 0.0
C71 C 0.7862 0.96104 0.21398 0.0
C72 C 0.76737 0.88991 0.27811 0.0
C73 C 0.84869 0.98471 0.26383 0.0
C74 C 0.89159 0.9011 0.25266 0.0
C75 C 0.82524 0.91639 0.32656 0.0
O76 O 0.83483 0.89891 0.2002 0.0
O77 O 0.7797 0.96128 0.23894 0.0
O78 O 0.78934 0.87623 0.27642 0.0
O79 O 0.85675 0.97198 0.2428 0.0
O80 O 0.87554 0.88788 0.268 0.0
O81 O 0.81093 0.93517 0.31608 0.0
O82 O 0.88326 0.91813 0.23508 0.0
O83 O 0.82755 0.97831 0.27735 0.0
O84 O 0.83552 0.89727 0.31261 0.0
O85 O 0.80898 0.95247 0.20545 0.0
O86 O 0.8294 0.8664 0.2316 0.0
O87 O 0.76666 0.91578 0.27738 0.0
Sc88 Sc 0.25974 0.13138 0.43235 0.0
Sc89 Sc 0.21262 0.18288 0.44902 0.0
Sc90 Sc 0.20841 0.14882 0.38622 0.0
O91 O 0.22685 0.15446 0.42253 0.0
C92 C 0.27198 0.14711 0.3715 0.0
C93 C 0.27627 0.18829 0.45838 0.0
C94 C 0.20683 0.21357 0.39241 0.0
C95 C 0.22405 0.13015 0.48571 0.0
C96 C 0.22348 0.0881 0.40019 0.0
C97 C 0.15733 0.15962 0.4247 0.0
O98 O 0.28032 0.14262 0.39557 0.0
O99 O 0.25259 0.1986 0.45759 0.0
O100 O 0.207 0.19177 0.37848 0.0
O101 O 0.24067 0.11896 0.46936 0.0
O102 O 0.20724 0.10531 0.38985 0.0
O103 O 0.1707 0.17184 0.44313 0.0
O104 O 0.24393 0.09507 0.4143 0.0
O105 O 0.2141 0.15384 0.48199 0.0
O106 O 0.16832 0.14985 0.40345 0.0
O107 O 0.28107 0.16389 0.4517 0.0
O108 O 0.24685 0.14784 0.36506 0.0
O109 O 0.20873 0.21389 0.41823 0.0
Sc110 Sc 0.27346 0.82721 0.88543 0.0
Sc111 Sc 0.2694 0.79529 0.94918 0.0
Sc112 Sc 0.22297 0.84747 0.93135 0.0
O113 O 0.25531 0.82331 0.92202 0.0
C114 C 0.26024 0.88887 0.8978 0.0
C115 C 0.32457 0.81829 0.92441 0.0
C116 C 0.25811 0.84815 0.98527 0.0
C117 C 0.27439 0.7629 0.89382 0.0
C118 C 0.21009 0.8301 0.8707 0.0
C119 C 0.20557 0.79062 0.95754 0.0
O120 O 0.27499 0.87065 0.88706 0.0
O121 O 0.31144 0.80661 0.94342 0.0
O122 O 0.24207 0.85984 0.96864 0.0
O123 O 0.27418 0.78419 0.87918 0.0
O124 O 0.20182 0.83681 0.89431 0.0
O125 O 0.22921 0.78018 0.95729 0.0
O126 O 0.23516 0.82756 0.86473 0.0
O127 O 0.27333 0.76341 0.9196 0.0
O128 O 0.20094 0.81509 0.95068 0.0
O129 O 0.31337 0.82667 0.90266 0.0
O130 O 0.24019 0.88334 0.91315 0.0
O131 O 0.26761 0.82435 0.98161 0.0
Sc132 Sc 0.76499 0.35095 0.54857 0.0
Sc133 Sc 0.71694 0.29957 0.53339 0.0
Sc134 Sc 0.71676 0.33125 0.59734 0.0
O135 O 0.73286 0.32721 0.55974 0.0
C136 C 0.78094 0.33409 0.60856 0.0
C137 C 0.78016 0.29471 0.52036 0.0
C138 C 0.71571 0.26674 0.58902 0.0
C139 C 0.72605 0.35308 0.49725 0.0
C140 C 0.72991 0.39267 0.58411 0.0
C141 C 0.66327 0.32171 0.56195 0.0
O142 O 0.78798 0.33944 0.58422 0.0
O143 O 0.75644 0.28454 0.52174 0.0
O144 O 0.71662 0.288 0.60373 0.0
O145 O 0.74422 0.3639 0.5122 0.0
O146 O 0.7149 0.37476 0.5951 0.0
O147 O 0.67539 0.31028 0.5422 0.0
O148 O 0.74942 0.38669 0.56825 0.0
O149 O 0.71579 0.32971 0.50171 0.0
O150 O 0.6757 0.33034 0.58287 0.0
O151 O 0.7855 0.31881 0.52775 0.0
O152 O 0.75621 0.33231 0.61606 0.0
O153 O 0.71549 0.26744 0.56316 0.0
Sc154 Sc 0.72224 0.63927 0.04923 0.0
Sc155 Sc 0.76848 0.69082 0.02943 0.0
Sc156 Sc 0.77512 0.65866 0.09286 0.0
O157 O 0.75531 0.66292 0.05714 0.0
C158 C 0.71227 0.6591 0.10963 0.0
C159 C 0.70459 0.69567 0.02218 0.0
C160 C 0.7764 0.72319 0.0841 0.0
C161 C 0.75633 0.63714 -0.00526 0.0
C162 C 0.75877 0.5973 0.08299 0.0
C163 C 0.82432 0.66642 0.05182 0.0
O164 O 0.70291 0.65145 0.0867 0.0
O165 O 0.72828 0.70589 0.02169 0.0
O166 O 0.77819 0.70167 0.09826 0.0
O167 O 0.74032 0.62596 0.01177 0.0
O168 O 0.77451 0.61515 0.09284 0.0
O169 O 0.81062 0.67989 0.03448 0.0
O170 O 0.73881 0.60325 0.06773 0.0
O171 O 0.76609 0.66096 -0.00228 0.0
O172 O 0.81409 0.65664 0.07347 0.0
O173 O 0.69997 0.67143 0.02975 0.0
O174 O 0.73759 0.66101 0.11483 0.0
O175 O 0.77268 0.72311 0.05856 0.0
Sc176 Sc 0.38438 0.20755 0.15458 0.0
Sc177 Sc 0.44713 0.21453 0.18804 0.0
Sc178 Sc 0.42933 0.25917 0.13439 0.0
O179 O 0.42028 0.22712 0.15908 0.0
C180 C 0.39746 0.22019 0.09309 0.0
C181 C 0.42408 0.15804 0.16678 0.0
C182 C 0.48313 0.22383 0.13458 0.0
C183 C 0.39119 0.20948 0.21934 0.0
C184 C 0.36786 0.27031 0.15012 0.0
C185 C 0.45563 0.27859 0.19037 0.0
O186 O 0.38691 0.20533 0.1113 0.0
O187 O 0.44142 0.1721 0.17971 0.0
O188 O 0.46741 0.24092 0.12311 0.0
O189 O 0.37741 0.20722 0.19758 0.0
O190 O 0.39156 0.2791 0.14436 0.0
O191 O 0.45612 0.25516 0.20116 0.0
O192 O 0.36226 0.24518 0.15286 0.0
O193 O 0.41689 0.21269 0.21969 0.0
O194 O 0.44777 0.28268 0.16614 0.0
O195 O 0.40291 0.16815 0.15591 0.0
O196 O 0.41206 0.24077 0.0986 0.0
O197 O 0.47905 0.21393 0.15819 0.0
Sc198 Sc 0.93462 0.21953 0.84752 0.0
Sc199 Sc 0.95147 0.26691 0.79585 0.0
Sc200 Sc 0.88636 0.26724 0.82516 0.0
O201 O 0.92417 0.25122 0.82281 0.0
C202 C 0.87514 0.20325 0.8289 0.0
C203 C 0.96437 0.2037 0.7921 0.0
C204 C 0.89708 0.26842 0.76102 0.0
C205 C 0.98598 0.25831 0.85049 0.0
C206 C 0.89701 0.25477 0.88732 0.0
C207 C 0.92234 0.32049 0.81693 0.0
O208 O 0.89918 0.19638 0.83574 0.0
O209 O 0.96337 0.22733 0.78172 0.0
O210 O 0.8817 0.26753 0.7818 0.0
O211 O 0.97069 0.24033 0.86112 0.0
O212 O 0.88633 0.26898 0.86861 0.0
O213 O 0.94239 0.30838 0.80603 0.0
O214 O 0.9139 0.23578 0.88255 0.0
O215 O 0.98223 0.26827 0.82688 0.0
O216 O 0.90105 0.30818 0.82491 0.0
O217 O 0.9563 0.19852 0.81607 0.0
O218 O 0.86779 0.22785 0.82562 0.0
O219 O 0.92293 0.26843 0.76255 0.0
Sc220 Sc 0.54823 0.76136 0.34721 0.0
Sc221 Sc 0.53509 0.71554 0.29343 0.0
Sc222 Sc 0.59481 0.70945 0.33197 0.0
O223 O 0.55939 0.72889 0.32412 0.0
C224 C 0.61075 0.77251 0.33572 0.0
C225 C 0.52473 0.77952 0.28973 0.0
C226 C 0.59286 0.71075 0.26657 0.0
C227 C 0.49529 0.72445 0.34394 0.0
C228 C 0.57695 0.72397 0.39204 0.0
C229 C 0.55819 0.65923 0.31662 0.0
O230 O 0.58674 0.7812 0.34027 0.0
O231 O 0.52416 0.75573 0.2798 0.0
O232 O 0.60441 0.70705 0.28946 0.0
O233 O 0.50927 0.74309 0.35529 0.0
O234 O 0.58942 0.70902 0.37516 0.0
O235 O 0.54275 0.67313 0.30123 0.0
O236 O 0.56227 0.74391 0.38472 0.0
O237 O 0.50169 0.71314 0.32152 0.0
O238 O 0.57668 0.66987 0.33117 0.0
O239 O 0.53265 0.78432 0.31374 0.0
O240 O 0.61657 0.74737 0.33336 0.0
O241 O 0.5676 0.71605 0.26414 0.0
Sc242 Sc 0.092 0.77743 0.64888 0.0
Sc243 Sc 0.03148 0.77418 0.68585 0.0
Sc244 Sc 0.04621 0.72412 0.63658 0.0
O245 O 0.0566 0.75838 0.65713 0.0
C246 C 0.07725 0.75608 0.58959 0.0
C247 C 0.05526 0.82813 0.65791 0.0
C248 C -0.00675 0.76137 0.63524 0.0
C249 C 0.08733 0.78337 0.71403 0.0
C250 C 0.10835 0.71473 0.65233 0.0
C251 C 0.0214 0.71078 0.69476 0.0
O252 O 0.09015 0.77142 0.60579 0.0
O253 O 0.04079 0.81559 0.67528 0.0
O254 O 0.00689 0.74107 0.62659 0.0
O255 O 0.09891 0.78652 0.69109 0.0
O256 O 0.085 0.70574 0.64546 0.0
O257 O 0.01878 0.73544 0.70182 0.0
O258 O 0.11393 0.73998 0.65437 0.0
O259 O 0.06287 0.77516 0.71641 0.0
O260 O 0.03134 0.70382 0.67206 0.0
O261 O 0.07258 0.81606 0.643 0.0
O262 O 0.06031 0.73841 0.59777 0.0
O263 O -0.00049 0.77508 0.6563 0.0
Sc264 Sc 0.84697 0.54888 0.72492 0.0
Sc265 Sc 0.79845 0.53173 0.77527 0.0
Sc266 Sc 0.83134 0.59509 0.77698 0.0
O267 O 0.82554 0.55857 0.75902 0.0
C268 C 0.89174 0.58236 0.75821 0.0
C269 C 0.85115 0.49617 0.76202 0.0
C270 C 0.82437 0.55744 0.82879 0.0
C271 C 0.7896 0.52161 0.71204 0.0
C272 C 0.8293 0.60981 0.71367 0.0
C273 C 0.76651 0.58707 0.78114 0.0
O274 O 0.88443 0.5664 0.73928 0.0
O275 O 0.8291 0.50077 0.77481 0.0
O276 O 0.83479 0.57793 0.81695 0.0
O277 O 0.81258 0.53099 0.70504 0.0
O278 O 0.82816 0.61603 0.73876 0.0
O279 O 0.76629 0.56138 0.77804 0.0
O280 O 0.83543 0.58616 0.70519 0.0
O281 O 0.78203 0.51992 0.73662 0.0
O282 O 0.78827 0.6011 0.78179 0.0
O283 O 0.85998 0.51092 0.74262 0.0
O284 O 0.87486 0.59353 0.77423 0.0
O285 O 0.81015 0.53986 0.81639 0.0
Sc286 Sc 0.65413 0.38364 0.26646 0.0
Sc287 Sc 0.68638 0.44741 0.26557 0.0
Sc288 Sc 0.63423 0.43226 0.21846 0.0
O289 O 0.65829 0.42115 0.25023 0.0
C290 C 0.6497 0.37211 0.20252 0.0
C291 C 0.71851 0.39119 0.26684 0.0
C292 C 0.69084 0.45995 0.20248 0.0
C293 C 0.66501 0.41936 0.31962 0.0
C294 C 0.59269 0.39726 0.25451 0.0
C295 C 0.63335 0.48436 0.25619 0.0
O296 O 0.65124 0.36471 0.22727 0.0
O297 O 0.71796 0.41703 0.26801 0.0
O298 O 0.66633 0.45332 0.19767 0.0
O299 O 0.65692 0.39811 0.30739 0.0
O300 O 0.59851 0.41257 0.2345 0.0
O301 O 0.65724 0.4802 0.26545 0.0
O302 O 0.61073 0.38663 0.26965 0.0
O303 O 0.6753 0.43962 0.30726 0.0
O304 O 0.62162 0.46841 0.23952 0.0
O305 O 0.69719 0.37663 0.26509 0.0
O306 O 0.64537 0.39662 0.19534 0.0
O307 O 0.70158 0.45784 0.22588 0.0
Sc308 Sc 0.32322 0.88588 0.21007 0.0
Sc309 Sc 0.29314 0.95062 0.21106 0.0
Sc310 Sc 0.34339 0.93286 0.25974 0.0
O311 O 0.31993 0.92315 0.22696 0.0
C312 C 0.32361 0.87281 0.27343 0.0
C313 C 0.25903 0.8966 0.2059 0.0
C314 C 0.28633 0.96015 0.27461 0.0
C315 C 0.31791 0.92321 0.15778 0.0
C316 C 0.38524 0.89734 0.22559 0.0
C317 C 0.34602 0.98623 0.22325 0.0
O318 O 0.31847 0.86652 0.24889 0.0
O319 O 0.25986 0.92224 0.20874 0.0
O320 O 0.30943 0.95043 0.28104 0.0
O321 O 0.32745 0.90238 0.16985 0.0
O322 O 0.38004 0.91584 0.24283 0.0
O323 O 0.32368 0.98164 0.21102 0.0
O324 O 0.36674 0.88467 0.21281 0.0
O325 O 0.3044 0.94162 0.16989 0.0
O326 O 0.35549 0.97088 0.24181 0.0
O327 O 0.28016 0.88175 0.20525 0.0
O328 O 0.3338 0.8955 0.2805 0.0
O329 O 0.27818 0.96229 0.25022 0.0
Sc330 Sc 0.16096 0.09255 0.70529 0.0
Sc331 Sc 0.19344 0.02995 0.71386 0.0
Sc332 Sc 0.14079 0.04954 0.75852 0.0
O333 O 0.16508 0.05735 0.72606 0.0
C334 C 0.1611 0.11069 0.7673 0.0
C335 C 0.22558 0.08312 0.70236 0.0
C336 C 0.19678 0.02328 0.77808 0.0
C337 C 0.16844 0.05158 0.65757 0.0
C338 C 0.09915 0.08309 0.72241 0.0
C339 C 0.14012 -0.00559 0.72485 0.0
O340 O 0.16638 0.11514 0.74227 0.0
O341 O 0.22568 0.05938 0.71248 0.0
O342 O 0.17317 0.03272 0.7824 0.0
O343 O 0.15521 0.07126 0.66788 0.0
O344 O 0.10438 0.06523 0.74024 0.0
O345 O 0.16327 -0.00159 0.71386 0.0
O346 O 0.11765 0.0951 0.7091 0.0
O347 O 0.1846 0.03665 0.67132 0.0
O348 O 0.12946 0.01061 0.74203 0.0
O349 O 0.20386 0.09613 0.69707 0.0
O350 O 0.15089 0.08849 0.77616 0.0
O351 O 0.20667 0.02064 0.75442 0.0
Sc352 Sc 0.71471 0.84006 0.54564 0.0
Sc353 Sc 0.76394 0.78861 0.53455 0.0
Sc354 Sc 0.76262 0.82457 0.59617 0.0
O355 O 0.74707 0.81766 0.55879 0.0
C356 C 0.74865 0.88477 0.57847 0.0
C357 C 0.755 0.83939 0.49514 0.0
C358 C 0.81665 0.81377 0.56224 0.0
C359 C 0.70105 0.78138 0.52169 0.0
C360 C 0.69832 0.82726 0.60638 0.0
C361 C 0.76494 0.75975 0.59222 0.0
O362 O 0.72953 0.87763 0.56259 0.0
O363 O 0.76548 0.81652 0.50121 0.0
O364 O 0.80382 0.82379 0.58227 0.0
O365 O 0.69481 0.80561 0.52793 0.0
O366 O 0.72296 0.82595 0.61426 0.0
O367 O 0.76511 0.75865 0.56639 0.0
O368 O 0.6915 0.83118 0.58173 0.0
O369 O 0.72518 0.77227 0.52279 0.0
O370 O 0.76378 0.78193 0.60546 0.0
O371 O 0.73599 0.85058 0.50874 0.0
O372 O 0.76349 0.86775 0.59098 0.0
O373 O 0.80503 0.80048 0.54343 0.0
Sc374 Sc 0.75716 0.13027 0.04918 0.0
Sc375 Sc 0.70909 0.18141 0.03267 0.0
Sc376 Sc 0.70914 0.15137 0.09748 0.0
O377 O 0.72513 0.15441 0.05975 0.0
C378 C 0.7221 0.08957 0.08609 0.0
C379 C 0.71823 0.12707 -0.00203 0.0
C380 C 0.65561 0.16 0.06195 0.0
C381 C 0.77233 0.18589 0.01946 0.0
C382 C 0.77324 0.148 0.10873 0.0
C383 C 0.7079 0.21566 0.0874 0.0
O384 O 0.74142 0.095 0.06978 0.0
O385 O 0.70782 0.15048 0.00181 0.0
O386 O 0.66814 0.15194 0.08305 0.0
O387 O 0.77774 0.16203 0.02765 0.0
O388 O 0.74856 0.15054 0.11614 0.0
O389 O 0.70763 0.21437 0.06155 0.0
O390 O 0.78023 0.14209 0.08454 0.0
O391 O 0.74857 0.19603 0.02047 0.0
O392 O 0.70899 0.19473 0.10261 0.0
O393 O 0.73646 0.11671 0.01317 0.0
O394 O 0.70725 0.10786 0.09663 0.0
O395 O 0.66759 0.17097 0.04185 0.0
Sc396 Sc 0.27197 0.65504 0.38349 0.0
Sc397 Sc 0.26829 0.6855 0.44682 0.0
Sc398 Sc 0.22007 0.63593 0.42836 0.0
O399 O 0.25311 0.65886 0.41953 0.0
C400 C 0.20967 0.65698 0.36753 0.0
C401 C 0.27599 0.71919 0.39483 0.0
C402 C 0.20441 0.6909 0.45768 0.0
C403 C 0.32244 0.66114 0.41994 0.0
C404 C 0.2538 0.59367 0.39369 0.0
C405 C 0.25794 0.63197 0.48089 0.0
O406 O 0.23449 0.66286 0.36281 0.0
O407 O 0.26593 0.71871 0.41861 0.0
O408 O 0.19794 0.66978 0.44444 0.0
O409 O 0.30995 0.64661 0.40268 0.0
O410 O 0.23769 0.59897 0.41313 0.0
O411 O 0.27186 0.6531 0.47541 0.0
O412 O 0.26585 0.61208 0.38024 0.0
O413 O 0.31017 0.67816 0.4351 0.0
O414 O 0.23678 0.62473 0.46767 0.0
O415 O 0.28172 0.69782 0.38142 0.0
O416 O 0.20153 0.64566 0.38948 0.0
O417 O 0.22899 0.69758 0.46214 0.0
Sc418 Sc 0.26327 0.34588 0.93542 0.0
Sc419 Sc 0.21531 0.29371 0.94784 0.0
Sc420 Sc 0.21631 0.32773 0.88503 0.0
O421 O 0.23153 0.32244 0.9228 0.0
C422 C 0.22978 0.38877 0.89996 0.0
C423 C 0.22414 0.34551 0.98639 0.0
C424 C 0.16225 0.318 0.91966 0.0
C425 C 0.27806 0.28815 0.96124 0.0
C426 C 0.28084 0.32909 0.87606 0.0
C427 C 0.21387 0.26325 0.89097 0.0
O428 O 0.24871 0.38231 0.91629 0.0
O429 O 0.21515 0.32171 0.9815 0.0
O430 O 0.17499 0.32702 0.89901 0.0
O431 O 0.28298 0.31295 0.95606 0.0
O432 O 0.25638 0.32759 0.86766 0.0
O433 O 0.21301 0.26291 0.9168 0.0
O434 O 0.28732 0.33521 0.90034 0.0
O435 O 0.25467 0.2776 0.95824 0.0
O436 O 0.21554 0.28498 0.87713 0.0
O437 O 0.24108 0.35776 0.97109 0.0
O438 O 0.21509 0.37122 0.88807 0.0
O439 O 0.17404 0.30595 0.93933 0.0
Sc440 Sc 0.59631 0.76949 0.82569 0.0
Sc441 Sc 0.53083 0.7672 0.79713 0.0
Sc442 Sc 0.54941 0.72114 0.84947 0.0
O443 O 0.55883 0.75259 0.82403 0.0
C444 C 0.60963 0.70613 0.83218 0.0
C445 C 0.58468 0.7671 0.76168 0.0
C446 C 0.51926 0.7033 0.79516 0.0
C447 C 0.56009 0.82211 0.81467 0.0
C448 C 0.58502 0.7595 0.88819 0.0
C449 C 0.49735 0.75926 0.85231 0.0
O450 O 0.61616 0.73077 0.82791 0.0
O451 O 0.55884 0.7668 0.76348 0.0
O452 O 0.52899 0.69835 0.81854 0.0
O453 O 0.58123 0.81021 0.82357 0.0
O454 O 0.56886 0.73977 0.88393 0.0
O455 O 0.50107 0.77005 0.82905 0.0
O456 O 0.59597 0.77303 0.8691 0.0
O457 O 0.54004 0.80937 0.80452 0.0
O458 O 0.51245 0.74072 0.8622 0.0
O459 O 0.6004 0.76777 0.78226 0.0
O460 O 0.58576 0.69878 0.83899 0.0
O461 O 0.5184 0.72702 0.78496 0.0
Sc462 Sc 0.0491 0.75878 0.12901 0.0
Sc463 Sc 0.03337 0.71104 0.18061 0.0
Sc464 Sc 0.09829 0.71195 0.15048 0.0
O465 O 0.06021 0.72722 0.15341 0.0
C466 C 0.08501 0.72249 0.08858 0.0
C467 C -0.00244 0.71996 0.12705 0.0
C468 C 0.0636 0.65788 0.16048 0.0
C469 C 0.02071 0.77422 0.18527 0.0
C470 C 0.10885 0.7759 0.14499 0.0
C471 C 0.08861 0.71193 0.21447 0.0
O472 O 0.06871 0.74194 0.09365 0.0
O473 O 0.00163 0.70982 0.15054 0.0
O474 O 0.08479 0.67068 0.15304 0.0
O475 O 0.0288 0.77985 0.16139 0.0
O476 O 0.11664 0.75142 0.14789 0.0
O477 O 0.06282 0.70982 0.21315 0.0
O478 O 0.08443 0.78238 0.13944 0.0
O479 O 0.02114 0.75034 0.19508 0.0
O480 O 0.10385 0.71387 0.19365 0.0
O481 O 0.01298 0.7378 0.11643 0.0
O482 O 0.09641 0.70856 0.10712 0.0
O483 O 0.04272 0.66967 0.17011 0.0
Sc484 Sc 0.43553 0.22513 0.63379 0.0
Sc485 Sc 0.44978 0.27522 0.68352 0.0
Sc486 Sc 0.38497 0.27061 0.65472 0.0
O487 O 0.42351 0.25693 0.65736 0.0
C488 C 0.39696 0.25573 0.5926 0.0
C489 C 0.48549 0.26632 0.63037 0.0
C490 C 0.41704 0.32559 0.6584 0.0
C491 C 0.46474 0.21241 0.69002 0.0
C492 C 0.37695 0.20688 0.6551 0.0
C493 C 0.39654 0.27679 0.71862 0.0
O494 O 0.41818 0.24168 0.59716 0.0
O495 O 0.47912 0.27947 0.65167 0.0
O496 O 0.39818 0.31142 0.6478 0.0
O497 O 0.45363 0.205 0.66793 0.0
O498 O 0.36949 0.23062 0.66207 0.0
O499 O 0.4222 0.27356 0.71763 0.0
O500 O 0.39909 0.20196 0.64254 0.0
O501 O 0.46661 0.23714 0.69731 0.0
O502 O 0.38173 0.27771 0.69748 0.0
O503 O 0.47305 0.24504 0.62248 0.0
O504 O 0.38254 0.26564 0.61155 0.0
O505 O 0.43568 0.31541 0.67324 0.0
Sc506 Sc 0.88592 0.20863 0.3255 0.0
Sc507 Sc 0.94988 0.20985 0.29337 0.0
Sc508 Sc 0.93296 0.25912 0.34306 0.0
O509 O 0.92295 0.22584 0.32063 0.0
C510 C 0.87199 0.27209 0.32647 0.0
C511 C 0.89403 0.20478 0.26125 0.0
C512 C 0.95845 0.27319 0.28496 0.0
C513 C 0.92404 0.15653 0.31893 0.0
C514 C 0.89938 0.2241 0.38644 0.0
C515 C 0.98683 0.22345 0.34515 0.0
O516 O 0.86547 0.24714 0.32462 0.0
O517 O 0.9199 0.20517 0.26172 0.0
O518 O 0.95102 0.2795 0.30887 0.0
O519 O 0.90241 0.16843 0.32663 0.0
O520 O 0.91533 0.24343 0.38002 0.0
O521 O 0.98252 0.21219 0.32227 0.0
O522 O 0.888 0.20902 0.36891 0.0
O523 O 0.94329 0.16875 0.30674 0.0
O524 O 0.97068 0.24071 0.3557 0.0
O525 O 0.87945 0.20633 0.28253 0.0
O526 O 0.89593 0.28003 0.3323 0.0
O527 O 0.95914 0.24889 0.27635 0.0
H528 H 0.24273 0.46241 0.28014 0.0
H529 H 0.16979 0.47002 0.32888 0.0
H530 H 0.26846 0.48676 0.3149 0.0
H531 H 0.19485 0.49527 0.36264 0.0
H532 H 0.23493 0.54718 0.41831 0.0
H533 H 0.22754 0.50342 0.39624 0.0
H534 H 0.26861 0.53328 0.32424 0.0
H535 H 0.27718 0.576 0.34663 0.0
C536 C 0.23226 0.46905 0.29837 0.0
C537 C 0.20408 0.46503 0.30142 0.0
C538 C 0.247 0.48295 0.31831 0.0
C539 C 0.23369 0.49352 0.34136 0.0
C540 C 0.206 0.48732 0.34538 0.0
C541 C 0.19142 0.4731 0.32572 0.0
C542 C 0.2431 0.54402 0.39808 0.0
C543 C 0.2557 0.56538 0.38381 0.0
C544 C 0.23881 0.51897 0.38539 0.0
C545 C 0.24656 0.51513 0.35809 0.0
C546 C 0.2622 0.53536 0.34521 0.0
C547 C 0.26689 0.56015 0.35803 0.0
H548 H 0.26578 0.42975 0.90998 0.0
H549 H 0.18937 0.4127 0.86963 0.0
H550 H 0.2707 0.47078 0.88362 0.0
H551 H 0.19355 0.45497 0.84401 0.0
H552 H 0.24448 0.4854 0.76972 0.0
H553 H 0.22197 0.46146 0.80647 0.0
H554 H 0.26238 0.51334 0.86508 0.0
H555 H 0.28619 0.53623 0.82801 0.0
C556 C 0.24943 0.43532 0.89623 0.0
C557 C 0.22777 0.41739 0.89102 0.0
C558 C 0.25212 0.45917 0.88116 0.0
C559 C 0.23297 0.46577 0.86088 0.0
C560 C 0.20921 0.44991 0.85871 0.0
C561 C 0.20674 0.42575 0.87349 0.0
C562 C 0.24816 0.49199 0.79044 0.0
C563 C 0.26767 0.512 0.79614 0.0
C564 C 0.23496 0.47849 0.81162 0.0
C565 C 0.24069 0.48509 0.83893 0.0
C566 C 0.25809 0.50718 0.84437 0.0
C567 C 0.27175 0.52027 0.82317 0.0
H568 H 0.78974 0.90945 0.60694 0.0
H569 H 0.71192 0.92535 0.5688 0.0
H570 H 0.78552 0.95143 0.63288 0.0
H571 H 0.70728 0.96651 0.59522 0.0
H572 H 0.73407 0.98041 0.70819 0.0
H573 H 0.75605 0.9562 0.67121 0.0
H574 H 0.71771 0.01008 0.61295 0.0
H575 H 0.69486 0.03365 0.65008 0.0
C576 C 0.77209 0.92227 0.60351 0.0
C577 C 0.75066 0.9136 0.58661 0.0
C578 C 0.76965 0.94627 0.61846 0.0
C579 C 0.74565 0.9618 0.61688 0.0
C580 C 0.72603 0.95504 0.59712 0.0
C581 C 0.72861 0.93122 0.58199 0.0
C582 C 0.73079 0.98743 0.68753 0.0
C583 C 0.71214 0.00832 0.68194 0.0
C584 C 0.74365 0.97376 0.66625 0.0
C585 C 0.73832 0.98095 0.639 0.0
C586 C 0.72175 0.00365 0.63365 0.0
C587 C 0.70861 0.01708 0.65491 0.0
H588 H 0.74883 0.00147 0.2207 0.0
H589 H 0.77979 0.94417 0.16177 0.0
H590 H 0.72324 0.0244 0.18509 0.0
H591 H 0.75302 0.96612 0.12619 0.0
H592 H 0.75544 0.04647 0.07529 0.0
H593 H 0.76195 0.00733 0.10417 0.0
H594 H 0.69016 0.02908 0.15036 0.0
H595 H 0.68426 0.06925 0.12189 0.0
C596 C 0.74945 -0.00669 0.20023 0.0
C597 C 0.76686 0.97167 0.19374 0.0
C598 C 0.73452 0.00623 0.17978 0.0
C599 C 0.73642 -0.00261 0.15257 0.0
C600 C 0.75168 0.9739 0.14676 0.0
C601 C 0.76703 0.96136 0.1671 0.0
C602 C 0.74051 0.04257 0.09106 0.0
C603 C 0.72003 0.06161 0.09701 0.0
C604 C 0.74412 0.01984 0.10762 0.0
C605 C 0.72708 0.01552 0.13025 0.0
C606 C 0.70419 0.03239 0.13367 0.0
C607 C 0.70074 0.05534 0.11724 0.0
H608 H 0.34992 0.28006 0.57587 0.0
H609 H 0.41973 0.23571 0.54559 0.0
H610 H 0.32569 0.27087 0.5343 0.0
H611 H 0.39581 0.22773 0.5029 0.0
H612 H 0.32636 0.17027 0.47378 0.0
H613 H 0.36133 0.19541 0.49723 0.0
H614 H 0.31424 0.26939 0.48831 0.0
H615 H 0.27827 0.24359 0.46578 0.0
C616 C 0.36051 0.26912 0.55993 0.0
C617 C 0.38628 0.2575 0.56454 0.0
C618 C 0.34664 0.26411 0.53576 0.0
C619 C 0.35842 0.24769 0.51553 0.0
C620 C 0.38578 0.23958 0.51853 0.0
C621 C 0.39954 0.24424 0.54297 0.0
C622 C 0.32356 0.19198 0.47641 0.0
C623 C 0.29916 0.20478 0.4687 0.0
C624 C 0.34392 0.20659 0.48957 0.0
C625 C 0.34054 0.23448 0.49506 0.0
C626 C 0.31722 0.24781 0.485 0.0
C627 C 0.29658 0.23304 0.47216 0.0
H628 H 0.13081 0.69612 0.07162 0.0
H629 H 0.06157 0.74161 0.04168 0.0
H630 H 0.15506 0.70529 0.02997 0.0
H631 H 0.08545 0.74963 -0.00103 0.0
H632 H 0.20333 0.73517 0.96296 0.0
H633 H 0.1671 0.70857 0.98409 0.0
H634 H 0.12006 0.78225 -0.00479 0.0
H635 H 0.15541 0.80829 0.97317 0.0
C636 C 0.12025 0.70708 0.05563 0.0
C637 C 0.09479 0.71925 0.06039 0.0
C638 C 0.13416 0.7122 0.03147 0.0
C639 C 0.12264 0.72922 0.0115 0.0
C640 C 0.09532 0.7374 0.01446 0.0
C641 C 0.08158 0.73272 0.03888 0.0
C642 C 0.18499 0.74552 0.96954 0.0
C643 C 0.18251 0.77392 0.96712 0.0
C644 C 0.16419 0.73027 0.98155 0.0
C645 C 0.14078 0.74323 -0.00822 0.0
C646 C 0.13754 0.77135 0.98735 0.0
C647 C 0.15809 0.78647 0.97502 0.0
H648 H 0.92252 0.24641 0.43205 0.0
H649 H 0.85428 0.19777 0.40516 0.0
H650 H 0.89885 0.25573 0.47461 0.0
H651 H 0.8301 0.20836 0.44647 0.0
H652 H 0.78242 0.23928 0.51425 0.0
H653 H 0.81824 0.21301 0.49197 0.0
H654 H 0.86372 0.28729 0.47842 0.0
H655 H 0.82894 0.31291 0.50164 0.0
C656 C 0.90277 0.23719 0.43549 0.0
C657 C 0.8898 0.22229 0.41485 0.0
C658 C 0.88911 0.24264 0.45979 0.0
C659 C 0.86204 0.23388 0.46346 0.0
C660 C 0.85078 0.21574 0.44443 0.0
C661 C 0.86466 0.2098 0.42045 0.0
C662 C 0.80032 0.24982 0.5068 0.0
C663 C 0.80259 0.27822 0.50911 0.0
C664 C 0.82089 0.23478 0.49412 0.0
C665 C 0.84383 0.24796 0.48307 0.0
C666 C 0.84671 0.27618 0.48699 0.0
C667 C 0.82645 0.29106 0.5 0.0
H668 H 0.56129 0.74297 0.93583 0.0
H669 H 0.63149 0.78541 0.90387 0.0
H670 H 0.58491 0.73655 0.97897 0.0
H671 H 0.65547 0.77784 0.94606 0.0
H672 H 0.70287 0.75088 0.0147 0.0
H673 H 0.66701 0.77696 -0.00771 0.0
H674 H 0.61899 0.70351 0.98458 0.0
H675 H 0.65401 0.67802 0.00786 0.0
C676 C 0.58148 0.75155 0.93826 0.0
C677 C 0.59498 0.76371 0.91617 0.0
C678 C 0.59506 0.74779 0.96293 0.0
C679 C 0.62251 0.75559 0.9656 0.0
C680 C 0.63444 0.7713 0.94482 0.0
C681 C 0.62069 0.7755 0.92037 0.0
C682 C 0.68437 0.74049 0.00864 0.0
C683 C 0.68156 0.71225 0.01231 0.0
C684 C 0.6638 0.75544 -0.00412 0.0
C685 C 0.64027 0.74233 0.98616 0.0
C686 C 0.6366 0.71451 -0.00803 0.0
C687 C 0.65695 0.69969 0.00504 0.0
H688 H 0.46257 0.28225 0.24552 0.0
H689 H 0.47213 0.32774 0.17079 0.0
H690 H 0.48614 0.31816 0.27034 0.0
H691 H 0.49668 0.36272 0.19503 0.0
H692 H 0.54646 0.42084 0.23405 0.0
H693 H 0.50316 0.39785 0.22637 0.0
H694 H 0.5325 0.3284 0.27202 0.0
H695 H 0.57476 0.35185 0.28083 0.0
C696 C 0.4695 0.30003 0.23445 0.0
C697 C 0.46616 0.30187 0.20611 0.0
C698 C 0.48297 0.32062 0.24867 0.0
C699 C 0.49382 0.34317 0.2347 0.0
C700 C 0.48844 0.34591 0.20668 0.0
C701 C 0.47461 0.32559 0.1926 0.0
C702 C 0.54318 0.40105 0.24324 0.0
C703 C 0.56431 0.38773 0.25722 0.0
C704 C 0.51844 0.38781 0.23873 0.0
C705 C 0.51471 0.36083 0.2476 0.0
C706 C 0.53452 0.34909 0.26469 0.0
C707 C 0.55902 0.36253 0.26962 0.0
H708 H 0.98249 0.1547 0.81058 0.0
H709 H 0.97193 0.20176 0.73694 0.0
H710 H 0.00653 0.12011 0.78525 0.0
H711 H -0.00491 0.1663 0.71106 0.0
H712 H 0.05242 0.06072 0.74327 0.0
H713 H 0.01036 0.08527 0.75275 0.0
H714 H 0.04128 0.15473 0.70826 0.0
H715 H 0.0823 0.12987 0.6977 0.0
C716 C 0.98476 0.15735 0.78881 0.0
C717 C 0.97597 0.18128 0.77589 0.0
C718 C -0.00174 0.13725 0.77411 0.0
C719 C 0.00298 0.14043 0.74603 0.0
C720 C -0.00772 0.16345 0.73274 0.0
C721 C 0.97909 0.18379 0.74756 0.0
C722 C 0.04976 0.08088 0.73472 0.0
C723 C 0.07108 0.09376 0.72064 0.0
C724 C 0.02572 0.09501 0.74027 0.0
C725 C 0.02289 0.12236 0.73224 0.0
C726 C 0.04269 0.13378 0.71499 0.0
C727 C 0.06647 0.11951 0.70906 0.0
H728 H 0.5154 0.7815 0.23471 0.0
H729 H 0.50966 0.8295 0.30813 0.0
H730 H 0.49084 0.8168 0.20981 0.0
H731 H 0.48409 0.86375 0.28397 0.0
H732 H 0.4321 0.92083 0.24509 0.0
H733 H 0.47552 0.89785 0.25231 0.0
H734 H 0.44477 0.82729 0.20958 0.0
H735 H 0.40247 0.85067 0.20111 0.0
C736 C 0.50912 0.79969 0.24546 0.0
C737 C 0.51382 0.8024 0.27353 0.0
C738 C 0.49503 0.81992 0.23121 0.0
C739 C 0.48489 0.84295 0.24491 0.0
C740 C 0.49169 0.84656 0.27249 0.0
C741 C 0.50614 0.82663 0.28656 0.0
C742 C 0.43502 0.90074 0.2365 0.0
C743 C 0.41351 0.88719 0.22339 0.0
C744 C 0.45986 0.8875 0.24075 0.0
C745 C 0.46337 0.86029 0.23248 0.0
C746 C 0.44301 0.84816 0.21641 0.0
C747 C 0.41844 0.86156 0.21173 0.0
H748 H 0.93129 0.57306 0.72029 0.0
H749 H 0.9167 0.61421 0.79665 0.0
H750 H 0.97107 0.60094 0.71273 0.0
H751 H 0.95746 0.64157 0.78956 0.0
H752 H 0.98359 0.71548 0.73514 0.0
H753 H 0.96078 0.67873 0.75893 0.0
H754 H 0.01423 0.62038 0.72027 0.0
H755 H 0.0363 0.65729 0.69552 0.0
C756 C 0.93717 0.58732 0.73603 0.0
C757 C 0.92022 0.59216 0.75855 0.0
C758 C 0.96024 0.60329 0.73178 0.0
C759 C 0.967 0.62417 0.75015 0.0
C760 C 0.95225 0.62628 0.77458 0.0
C761 C 0.92896 0.61049 0.7787 0.0
C762 C 0.99082 0.69487 0.73213 0.0
C763 C 0.01115 0.68917 0.71291 0.0
C764 C 0.97794 0.67372 0.74603 0.0
C765 C 0.98538 0.64645 0.74122 0.0
C766 C 0.00756 0.64107 0.72395 0.0
C767 C 0.02017 0.6622 0.70974 0.0
H768 H 0.76451 0.43481 0.57358 0.0
H769 H 0.69037 0.41488 0.61676 0.0
H770 H 0.7701 0.47478 0.60132 0.0
H771 H 0.69527 0.45601 0.64391 0.0
H772 H 0.75041 0.48275 0.71683 0.0
H773 H 0.72612 0.46044 0.68022 0.0
H774 H 0.76181 0.51647 0.62226 0.0
H775 H 0.7873 0.53786 0.65905 0.0
C776 C 0.74876 0.43952 0.58829 0.0
C777 C 0.72768 0.42101 0.59383 0.0
C778 C 0.75184 0.46276 0.60416 0.0
C779 C 0.73364 0.46813 0.62562 0.0
C780 C 0.7102 0.45187 0.62823 0.0
C781 C 0.70733 0.42835 0.61258 0.0
C782 C 0.75267 0.49059 0.69634 0.0
C783 C 0.77135 0.5114 0.69061 0.0
C784 C 0.73844 0.47804 0.67527 0.0
C785 C 0.74232 0.48635 0.64809 0.0
C786 C 0.75891 0.50908 0.64284 0.0
C787 C 0.77356 0.52129 0.66387 0.0
H788 H 0.74607 0.46849 0.20054 0.0
H789 H 0.67221 0.47791 0.15347 0.0
H790 H 0.77146 0.49281 0.16545 0.0
H791 H 0.697 0.50305 0.11934 0.0
H792 H 0.73791 0.55084 0.0605 0.0
H793 H 0.72908 0.50839 0.08463 0.0
H794 H 0.77356 0.53901 0.15418 0.0
H795 H 0.78359 0.5804 0.12959 0.0
C796 C 0.7353 0.47558 0.18264 0.0
C797 C 0.70702 0.4718 0.18007 0.0
C798 C 0.74984 0.48949 0.16251 0.0
C799 C 0.73631 0.50023 0.13964 0.0
C800 C 0.70835 0.49481 0.13635 0.0
C801 C 0.69395 0.48064 0.15622 0.0
C802 C 0.7466 0.548 0.08058 0.0
C803 C 0.76069 0.56923 0.0935 0.0
C804 C 0.74141 0.52377 0.09449 0.0
C805 C 0.74966 0.52068 0.12176 0.0
C806 C 0.76673 0.54056 0.13328 0.0
C807 C 0.77238 0.56453 0.11917 0.0
H808 H 0.25829 0.04667 0.41269 0.0
H809 H 0.18406 0.06411 0.36854 0.0
H810 H 0.26485 0.00615 0.38612 0.0
H811 H 0.18979 0.02223 0.34274 0.0
H812 H 0.24577 -0.00247 0.27025 0.0
H813 H 0.22057 0.01863 0.30677 0.0
H814 H 0.2592 0.96457 0.36479 0.0
H815 H 0.28569 0.94442 0.32796 0.0
C816 C 0.24273 0.04129 0.39801 0.0
C817 C 0.22145 0.05936 0.39168 0.0
C818 C 0.24634 0.01768 0.38284 0.0
C819 C 0.22847 0.0115 0.36134 0.0
C820 C 0.20459 0.02709 0.35835 0.0
C821 C 0.20122 0.05104 0.37324 0.0
C822 C 0.2486 0.98988 0.29075 0.0
C823 C 0.26831 0.97 0.29642 0.0
C824 C 0.23378 0.00171 0.31179 0.0
C825 C 0.23806 -0.00638 0.33896 0.0
C826 C 0.2559 0.9718 0.34422 0.0
C827 C 0.27115 0.96033 0.32317 0.0
H828 H 0.28733 0.90645 0.85277 0.0
H829 H 0.24056 0.93537 0.92141 0.0
H830 H 0.2793 0.9487 0.82923 0.0
H831 H 0.23379 0.97879 0.89837 0.0
H832 H 0.17781 0.00877 0.82799 0.0
H833 H 0.20246 0.98547 0.86356 0.0
H834 H 0.27735 -0.00562 0.81785 0.0
H835 H 0.25201 0.01652 0.78131 0.0
C836 C 0.2763 0.92233 0.86336 0.0
C837 C 0.26355 0.91719 0.88842 0.0
C838 C 0.27184 0.94686 0.84987 0.0
C839 C 0.25491 0.96688 0.86143 0.0
C840 C 0.24595 0.96334 0.88841 0.0
C841 C 0.24993 0.93852 0.90169 0.0
C842 C 0.19962 0.00618 0.82572 0.0
C843 C 0.21283 0.01363 0.80153 0.0
C844 C 0.21396 -0.00691 0.84638 0.0
C845 C 0.24196 0.98753 0.84349 0.0
C846 C 0.25568 -0.00238 0.82044 0.0
C847 C 0.24118 0.01026 0.79948 0.0
H848 H 0.70504 0.73965 0.48562 0.0
H849 H 0.64788 0.782 0.53722 0.0
H850 H 0.66777 0.71558 0.46407 0.0
H851 H 0.61037 0.75672 0.5168 0.0
H852 H 0.60495 0.68257 0.41705 0.0
H853 H 0.63 0.68672 0.45961 0.0
H854 H 0.59063 0.76409 0.47451 0.0
H855 H 0.56491 0.75927 0.43309 0.0
C856 C 0.6845 0.74315 0.49289 0.0
C857 C 0.67916 0.76329 0.51231 0.0
C858 C 0.66303 0.72905 0.48082 0.0
C859 C 0.63585 0.73456 0.48831 0.0
C860 C 0.63094 0.75256 0.50998 0.0
C861 C 0.65237 0.76709 0.52161 0.0
C862 C 0.60091 0.69993 0.43 0.0
C863 C 0.58395 0.72124 0.42113 0.0
C864 C 0.61536 0.70237 0.45434 0.0
C865 C 0.61336 0.72633 0.46984 0.0
C866 C 0.59309 0.74544 0.46306 0.0
C867 C 0.57836 0.7428 0.439 0.0
H868 H 0.84985 0.27993 0.9023 0.0
H869 H 0.91772 0.23424 0.93493 0.0
H870 H 0.82342 0.26966 0.94237 0.0
H871 H 0.89164 0.22521 0.97614 0.0
H872 H 0.82183 0.16766 0.00259 0.0
H873 H 0.85684 0.19287 0.97911 0.0
H874 H 0.80969 0.26681 0.98779 0.0
H875 H 0.77375 0.24097 0.01042 0.0
C876 C 0.8596 0.26865 0.91857 0.0
C877 C 0.88548 0.25693 0.91498 0.0
C878 C 0.8444 0.26288 0.94181 0.0
C879 C 0.85501 0.24568 0.9621 0.0
C880 C 0.88248 0.23759 0.96035 0.0
C881 C 0.89751 0.24291 0.93682 0.0
C882 C 0.819 0.18936 -0.00019 0.0
C883 C 0.79472 0.20219 0.00778 0.0
C884 C 0.83936 0.204 0.98664 0.0
C885 C 0.83615 0.23198 0.98138 0.0
C886 C 0.81263 0.24521 -0.00894 0.0
C887 C 0.79201 0.23041 0.00395 0.0
H888 H 0.06716 0.71644 0.55205 0.0
H889 H 0.10813 0.79364 0.56228 0.0
H890 H 0.09447 0.70723 0.51217 0.0
H891 H 0.13489 0.78484 0.52149 0.0
H892 H 0.20883 0.73067 0.49614 0.0
H893 H 0.17214 0.7538 0.5196 0.0
H894 H 0.11321 0.71351 0.46807 0.0
H895 H 0.15009 0.68953 0.44511 0.0
C896 C 0.08119 0.732 0.54514 0.0
C897 C 0.08621 0.75531 0.5609 0.0
C898 C 0.09685 0.72677 0.52207 0.0
C899 C 0.11755 0.74492 0.51415 0.0
C900 C 0.11973 0.77004 0.52764 0.0
C901 C 0.10429 0.77514 0.55093 0.0
C902 C 0.1881 0.72703 0.4895 0.0
C903 C 0.18235 0.70775 0.46925 0.0
C904 C 0.16698 0.74059 0.50274 0.0
C905 C 0.13963 0.73538 0.49586 0.0
C906 C 0.13401 0.71762 0.47418 0.0
C907 C 0.15515 0.70384 0.46109 0.0
H908 H 0.27975 0.23256 0.96705 0.0
H909 H 0.32784 0.30542 0.97821 0.0
H910 H 0.31584 0.20571 0.98828 0.0
H911 H 0.36291 0.27923 0.00022 0.0
H912 H 0.42117 0.23946 0.04643 0.0
H913 H 0.39756 0.24692 0.00343 0.0
H914 H 0.32845 0.20151 0.03389 0.0
H915 H 0.35258 0.19269 0.0757 0.0
C916 C 0.29806 0.24282 0.97389 0.0
C917 C 0.30063 0.27122 0.97163 0.0
C918 C 0.31878 0.22742 0.98594 0.0
C919 C 0.34225 0.24023 -0.00372 0.0
C920 C 0.34546 0.26839 -0.0078 0.0
C921 C 0.32501 0.28364 0.97993 0.0
C922 C 0.40138 0.23017 0.04341 0.0
C923 C 0.38821 0.21652 0.06479 0.0
C924 C 0.38777 0.23454 0.01884 0.0
C925 C 0.36056 0.22603 0.01574 0.0
C926 C 0.34922 0.20873 0.03554 0.0
C927 C 0.36307 0.20381 0.05979 0.0
H928 H 0.5139 0.69934 0.73994 0.0
H929 H 0.49994 0.65533 0.81481 0.0
H930 H 0.49204 0.66283 0.71442 0.0
H931 H 0.47685 0.6198 0.78986 0.0
H932 H 0.43149 0.55952 0.749 0.0
H933 H 0.47348 0.58374 0.75943 0.0
H934 H 0.44693 0.6507 0.70865 0.0
H935 H 0.40623 0.62598 0.69705 0.0
C936 C 0.50616 0.68183 0.75091 0.0
C937 C 0.50805 0.68041 0.77939 0.0
C938 C 0.49369 0.66088 0.73631 0.0
C939 C 0.4823 0.63841 0.74999 0.0
C940 C 0.48569 0.63642 0.77839 0.0
C941 C 0.49862 0.65706 0.79286 0.0
C942 C 0.43519 0.57896 0.73926 0.0
C943 C 0.41504 0.59132 0.7231 0.0
C944 C 0.45916 0.59297 0.74541 0.0
C945 C 0.46305 0.61975 0.73595 0.0
C946 C 0.4447 0.63028 0.71662 0.0
C947 C 0.42106 0.61607 0.71006 0.0
H948 H 0.985 0.77032 0.22743 0.0
H949 H 0.03289 0.82825 0.18171 0.0
H950 H 0.9629 0.8073 0.25137 0.0
H951 H 0.01176 0.86552 0.20671 0.0
H952 H 0.92863 0.91168 0.21271 0.0
H953 H 0.96851 0.88476 0.20296 0.0
H954 H 0.96089 0.84464 0.28102 0.0
H955 H 0.91976 0.87083 0.29019 0.0
C956 C -0.00873 0.791 0.22301 0.0
C957 C 0.01004 0.79649 0.20221 0.0
C958 C 0.97887 0.8123 0.23702 0.0
C959 C 0.98532 0.83955 0.23082 0.0
C960 C 0.00585 0.84484 0.21156 0.0
C961 C 0.01788 0.82352 0.19719 0.0
C962 C 0.93587 0.89776 0.22824 0.0
C963 C 0.92041 0.89255 0.25172 0.0
C964 C 0.95902 0.88233 0.2227 0.0
C965 C 0.96737 0.86173 0.24079 0.0
C966 C 0.95433 0.8596 0.26619 0.0
C967 C 0.93086 0.87473 0.27153 0.0
H968 H 0.44991 0.15909 0.69294 0.0
H969 H 0.50545 0.21795 0.72732 0.0
H970 H 0.4728 0.12283 0.71793 0.0
H971 H 0.52911 0.18177 0.75126 0.0
H972 H 0.55481 0.07413 0.71596 0.0
H973 H 0.51515 0.10232 0.70916 0.0
H974 H 0.53315 0.14593 0.78342 0.0
H975 H 0.57382 0.11823 0.78968 0.0
C976 C 0.46693 0.16426 0.70599 0.0
C977 C 0.47641 0.19119 0.70768 0.0
C978 C 0.47997 0.14352 0.72036 0.0
C979 C 0.50306 0.14925 0.73627 0.0
C980 C 0.51122 0.17654 0.73948 0.0
C981 C 0.49788 0.19733 0.72547 0.0
C982 C 0.54997 0.08916 0.73133 0.0
C983 C 0.5681 0.0947 0.75273 0.0
C984 C 0.52695 0.10529 0.72754 0.0
C985 C 0.52145 0.12704 0.7453 0.0
C986 C 0.53739 0.12993 0.76888 0.0
C987 C 0.56063 0.11396 0.77253 0.0
H988 H 0.06172 0.36907 0.18483 0.0
H989 H 0.04467 0.41022 0.26066 0.0
H990 H 0.01922 0.34388 0.18911 0.0
H991 H 0.00344 0.38428 0.26571 0.0
H992 H 0.94196 0.32616 0.28505 0.0
H993 H 0.96159 0.36363 0.25905 0.0
H994 H 0.01514 0.30665 0.21837 0.0
H995 H -0.00556 0.26946 0.24312 0.0
C996 C 0.04859 0.37327 0.20204 0.0
C997 C 0.05716 0.3906 0.2231 0.0
C998 C 0.02428 0.35876 0.20456 0.0
C999 C 0.00857 0.36099 0.2284 0.0
C1000 C 0.01504 0.3816 0.24717 0.0
C1001 C 0.03904 0.39642 0.24443 0.0
C1002 C 0.95759 0.32175 0.27011 0.0
C1003 C 0.96737 0.29512 0.26664 0.0
C1004 C 0.96876 0.34316 0.25515 0.0
C1005 C 0.99044 0.33838 0.23705 0.0
C1006 C -0.00163 0.31131 0.2319 0.0
C1007 C 0.98678 0.28988 0.24641 0.0
H1008 H 0.22698 0.40009 -0.00262 0.0
H1009 H 0.19501 0.32412 0.02843 0.0
H1010 H 0.20549 0.42437 0.03502 0.0
H1011 H 0.17431 0.34815 0.06613 0.0
H1012 H 0.12623 0.39229 0.12402 0.0
H1013 H 0.13853 0.3795 0.07774 0.0
H1014 H 0.21144 0.4285 0.08353 0.0
H1015 H 0.19864 0.44211 0.12922 0.0
C1016 C 0.21558 0.38856 0.01233 0.0
C1017 C 0.21278 0.36016 0.00999 0.0
C1018 C 0.20317 0.40249 0.03377 0.0
C1019 C 0.18784 0.38826 0.0533 0.0
C1020 C 0.18527 0.35986 0.051 0.0
C1021 C 0.19749 0.34601 0.02956 0.0
C1022 C 0.14437 0.40108 0.11501 0.0
C1023 C 0.16183 0.41762 0.13043 0.0
C1024 C 0.15153 0.39359 0.08863 0.0
C1025 C 0.17644 0.40222 0.07742 0.0
C1026 C 0.19219 0.42138 0.09162 0.0
C1027 C 0.18482 0.42919 0.11789 0.0
H1028 H 0.22892 0.60183 0.51769 0.0
H1029 H 0.3107 0.62167 0.49198 0.0
H1030 H 0.2474 0.57703 0.55674 0.0
H1031 H 0.32923 0.59596 0.53002 0.0
H1032 H 0.34102 0.5985 0.62388 0.0
H1033 H 0.33004 0.60794 0.57688 0.0
H1034 H 0.27409 0.53997 0.57594 0.0
H1035 H 0.28457 0.53086 0.62356 0.0
C1036 C 0.25081 0.60034 0.52013 0.0
C1037 C 0.2684 0.61424 0.5025 0.0
C1038 C 0.26145 0.58592 0.54224 0.0
C1039 C 0.28981 0.58486 0.54661 0.0
C1040 C 0.30732 0.59695 0.52754 0.0
C1041 C 0.29671 0.61173 0.50587 0.0
C1042 C 0.32688 0.58511 0.61354 0.0
C1043 C 0.31311 0.56444 0.62768 0.0
C1044 C 0.3207 0.59039 0.58643 0.0
C1045 C 0.30077 0.57498 0.57285 0.0
C1046 C 0.28909 0.55252 0.58612 0.0
C1047 C 0.29526 0.54723 0.61334 0.0
H1048 H 0.74567 0.09358 0.96329 0.0
H1049 H 0.66527 0.12255 0.98392 0.0
H1050 H 0.72687 0.06926 0.92433 0.0
H1051 H 0.646 0.09681 0.94628 0.0
H1052 H 0.69102 0.02533 0.85635 0.0
H1053 H 0.69992 0.03491 0.9042 0.0
H1054 H 0.64566 0.10423 0.89984 0.0
H1055 H 0.63583 0.09388 0.85297 0.0
C1056 C 0.7239 0.09424 0.9597 0.0
C1057 C 0.70697 0.11046 0.97591 0.0
C1058 C 0.71299 0.08002 0.93765 0.0
C1059 C 0.68487 0.08129 0.93193 0.0
C1060 C 0.6678 0.09597 0.94959 0.0
C1061 C 0.6788 0.11074 0.9711 0.0
C1062 C 0.68028 0.04201 0.86595 0.0
C1063 C 0.66333 0.05933 0.85068 0.0
C1064 C 0.68561 0.04769 0.89329 0.0
C1065 C 0.67417 0.0708 0.90571 0.0
C1066 C 0.65491 0.08622 0.89115 0.0
C1067 C 0.6494 0.08042 0.86402 0.0
H1068 H 0.73208 0.87573 0.45956 0.0
H1069 H 0.80865 0.83948 0.48344 0.0
H1070 H 0.75539 0.90077 0.42341 0.0
H1071 H 0.83219 0.86552 0.44867 0.0
H1072 H 0.80008 0.94905 0.36418 0.0
H1073 H 0.7869 0.93524 0.40991 0.0
H1074 H 0.83534 0.86216 0.40151 0.0
H1075 H 0.84934 0.8764 0.35668 0.0
C1076 C 0.7539 0.87339 0.45719 0.0
C1077 C 0.76845 0.85513 0.47359 0.0
C1078 C 0.76738 0.88801 0.43683 0.0
C1079 C 0.79571 0.88504 0.43305 0.0
C1080 C 0.81032 0.86782 0.45058 0.0
C1081 C 0.7968 0.8528 0.4704 0.0
C1082 C 0.8087 0.93052 0.37251 0.0
C1083 C 0.82503 0.91335 0.35644 0.0
C1084 C 0.80087 0.92247 0.3986 0.0
C1085 C 0.80927 0.89717 0.40899 0.0
C1086 C 0.82833 0.88175 0.39421 0.0
C1087 C 0.83633 0.88989 0.36829 0.0
H1088 H 0.12063 0.12599 0.40025 0.0
H1089 H 0.12678 0.19946 0.4481 0.0
H1090 H 0.07497 0.13921 0.38595 0.0
H1091 H 0.08168 0.21318 0.43297 0.0
H1092 H -0.00405 0.22925 0.39992 0.0
H1093 H 0.03254 0.20851 0.42666 0.0
H1094 H 0.06708 0.17509 0.35299 0.0
H1095 H 0.0306 0.19516 0.32655 0.0
C1096 C 0.11186 0.1445 0.40842 0.0
C1097 C 0.12744 0.16201 0.42471 0.0
C1098 C 0.08586 0.15222 0.40004 0.0
C1099 C 0.07527 0.17773 0.40749 0.0
C1100 C 0.08937 0.1935 0.4267 0.0
C1101 C 0.11526 0.18558 0.43542 0.0
C1102 C 0.01152 0.21764 0.38947 0.0
C1103 C 0.01039 0.21381 0.36112 0.0
C1104 C 0.03231 0.20562 0.40481 0.0
C1105 C 0.05228 0.18962 0.39202 0.0
C1106 C 0.05147 0.18648 0.36361 0.0
C1107 C 0.03075 0.19835 0.34837 0.0
H1108 H 0.35869 0.84842 0.89304 0.0
H1109 H 0.35837 0.78772 0.9568 0.0
H1110 H 0.40516 0.83712 0.88224 0.0
H1111 H 0.40594 0.77727 0.94697 0.0
H1112 H 0.48694 0.8125 0.86023 0.0
H1113 H 0.45134 0.83257 0.88824 0.0
H1114 H 0.42402 0.75182 0.91077 0.0
H1115 H 0.46114 0.73209 0.88433 0.0
C1116 C 0.36894 0.83333 0.90548 0.0
C1117 C 0.35459 0.81827 0.92508 0.0
C1118 C 0.39585 0.82694 0.89943 0.0
C1119 C 0.40915 0.80562 0.91319 0.0
C1120 C 0.39595 0.79315 0.93536 0.0
C1121 C 0.36879 0.79938 0.94124 0.0
C1122 C 0.47335 0.79917 0.8714 0.0
C1123 C 0.4761 0.77083 0.8697 0.0
C1124 C 0.45302 0.81061 0.8875 0.0
C1125 C 0.43443 0.79388 0.90147 0.0
C1126 C 0.4381 0.76543 0.90065 0.0
C1127 C 0.45904 0.75403 0.88517 0.0
H1128 H 0.4984 0.31935 0.62315 0.0
H1129 H 0.52169 0.23815 0.59893 0.0
H1130 H 0.53658 0.33809 0.59775 0.0
H1131 H 0.56088 0.25669 0.57463 0.0
H1132 H 0.63035 0.34895 0.59715 0.0
H1133 H 0.58342 0.33845 0.60738 0.0
H1134 H 0.58046 0.28346 0.53878 0.0
H1135 H 0.6282 0.29327 0.5291 0.0
C1136 C 0.51181 0.30552 0.61241 0.0
C1137 C 0.5076 0.27729 0.61346 0.0
C1138 C 0.53361 0.31625 0.5978 0.0
C1139 C 0.55203 0.29891 0.58448 0.0
C1140 C 0.54693 0.27069 0.58438 0.0
C1141 C 0.52471 0.25999 0.59856 0.0
C1142 C 0.61958 0.33509 0.58382 0.0
C1143 C 0.63323 0.32137 0.5628 0.0
C1144 C 0.59248 0.3292 0.58955 0.0
C1145 C 0.57831 0.30965 0.57421 0.0
C1146 C 0.59107 0.2981 0.55136 0.0
C1147 C 0.61834 0.30394 0.54567 0.0
H1148 H 0.98825 0.72697 0.07251 0.0
H1149 H 0.95594 0.68774 0.14448 0.0
H1150 H 0.95149 0.70736 0.04544 0.0
H1151 H 0.91913 0.66888 0.11774 0.0
H1152 H 0.85969 0.62829 0.07105 0.0
H1153 H 0.90717 0.63686 0.08278 0.0
H1154 H 0.90303 0.71463 0.04171 0.0
H1155 H 0.85614 0.70547 0.02899 0.0
C1156 C 0.97325 0.7143 0.08259 0.0
C1157 C 0.97485 0.70909 0.11071 0.0
C1158 C 0.95234 0.70294 0.06703 0.0
C1159 C 0.93264 0.68626 0.07934 0.0
C1160 C 0.93442 0.68097 0.10741 0.0
C1161 C 0.95532 0.69216 0.12288 0.0
C1162 C 0.86937 0.64665 0.06356 0.0
C1163 C 0.85417 0.66656 0.0498 0.0
C1164 C 0.89643 0.65167 0.07043 0.0
C1165 C 0.9084 0.67688 0.06411 0.0
C1166 C 0.89434 0.69508 0.04706 0.0
C1167 C 0.8674 0.68984 0.03976 0.0
H1168 H 0.3295 0.02814 0.19114 0.0
H1169 H 0.4001 -0.00383 0.23319 0.0
H1170 H 0.35691 0.06466 0.17278 0.0
H1171 H 0.4279 0.03283 0.21415 0.0
H1172 H 0.44491 0.12825 0.20846 0.0
H1173 H 0.43147 0.08199 0.21967 0.0
H1174 H 0.39317 0.07411 0.14084 0.0
H1175 H 0.40557 0.12095 0.13014 0.0
C1176 C 0.35095 0.02882 0.19636 0.0
C1177 C 0.36259 0.00933 0.21372 0.0
C1178 C 0.36679 0.04955 0.18547 0.0
C1179 C 0.39473 0.05124 0.19151 0.0
C1180 C 0.40644 0.03191 0.20905 0.0
C1181 C 0.39048 0.0111 0.22009 0.0
C1182 C 0.43458 0.11627 0.1931 0.0
C1183 C 0.42551 0.12828 0.16877 0.0
C1184 C 0.42689 0.08971 0.19953 0.0
C1185 C 0.41043 0.07487 0.18149 0.0
C1186 C 0.40508 0.08553 0.15547 0.0
C1187 C 0.41231 0.11221 0.14925 0.0
H1188 H 0.88792 0.35338 0.84505 0.0
H1189 H 0.95481 0.35528 0.78779 0.0
H1190 H 0.87738 0.40017 0.83443 0.0
H1191 H 0.9448 0.40288 0.77779 0.0
H1192 H 0.86015 0.48422 0.81468 0.0
H1193 H 0.88696 0.44695 0.83325 0.0
H1194 H 0.90784 0.42164 0.75155 0.0
H1195 H 0.88218 0.46016 0.73313 0.0
C1196 C 0.90095 0.3641 0.83083 0.0
C1197 C 0.92167 0.35044 0.81668 0.0
C1198 C 0.89506 0.39111 0.82486 0.0
C1199 C 0.90993 0.40511 0.80479 0.0
C1200 C 0.9326 0.39237 0.79286 0.0
C1201 C 0.93847 0.3652 0.7988 0.0
C1202 C 0.87069 0.47074 0.80075 0.0
C1203 C 0.8686 0.47439 0.7725 0.0
C1204 C 0.88612 0.44952 0.81137 0.0
C1205 C 0.89916 0.43106 0.79391 0.0
C1206 C 0.89827 0.43565 0.7656 0.0
C1207 C 0.88331 0.4574 0.75498 0.0
H1208 H 0.57925 0.49654 0.24874 0.0
H1209 H 0.65269 0.52552 0.28789 0.0
H1210 H 0.55392 0.53464 0.26818 0.0
H1211 H 0.62764 0.56356 0.30664 0.0
H1212 H 0.5798 0.62159 0.35143 0.0
H1213 H 0.59296 0.57531 0.33954 0.0
H1214 H 0.55187 0.58367 0.26217 0.0
H1215 H 0.53793 0.62947 0.27438 0.0
C1216 C 0.59004 0.51108 0.26134 0.0
C1217 C 0.61805 0.50804 0.26668 0.0
C1218 C 0.57547 0.5328 0.27255 0.0
C1219 C 0.58867 0.55186 0.28928 0.0
C1220 C 0.61666 0.54881 0.29448 0.0
C1221 C 0.63116 0.52716 0.28339 0.0
C1222 C 0.57281 0.6132 0.33228 0.0
C1223 C 0.55844 0.62938 0.31356 0.0
C1224 C 0.58051 0.58679 0.32538 0.0
C1225 C 0.57424 0.57625 0.29955 0.0
C1226 C 0.55714 0.59125 0.28218 0.0
C1227 C 0.54916 0.61757 0.28921 0.0
H1228 H 0.08486 0.98774 0.72819 0.0
H1229 H 0.15821 0.94995 0.69734 0.0
H1230 H 0.05746 0.95284 0.70583 0.0
H1231 H 0.13102 0.91495 0.6757 0.0
H1232 H 0.08318 0.86339 0.62488 0.0
H1233 H 0.09938 0.90815 0.63851 0.0
H1234 H 0.04832 0.90477 0.71008 0.0
H1235 H 0.03133 0.86073 0.69604 0.0
C1236 C 0.09515 0.97177 0.717 0.0
C1237 C 0.12371 0.97153 0.71457 0.0
C1238 C 0.07944 0.95196 0.70402 0.0
C1239 C 0.09203 0.93152 0.68849 0.0
C1240 C 0.12061 0.93096 0.68672 0.0
C1241 C 0.13625 0.95077 0.69951 0.0
C1242 C 0.07462 0.87264 0.64297 0.0
C1243 C 0.05679 0.85806 0.65993 0.0
C1244 C 0.08409 0.89817 0.6509 0.0
C1245 C 0.07599 0.90936 0.67595 0.0
C1246 C 0.05521 0.89655 0.69083 0.0
C1247 C 0.0455 0.87118 0.68274 0.0
H1248 H 0.78912 0.52997 0.86176 0.0
H1249 H 0.85741 0.58557 0.86359 0.0
H1250 H 0.77557 0.54491 0.90674 0.0
H1251 H 0.84435 0.59974 0.90923 0.0
H1252 H 0.78131 0.65569 0.94906 0.0
H1253 H 0.80449 0.62911 0.91468 0.0
H1254 H 0.78036 0.55484 0.95533 0.0
H1255 H 0.75656 0.58164 0.98984 0.0
C1256 C 0.80203 0.54444 0.87226 0.0
C1257 C 0.82364 0.55753 0.85873 0.0
C1258 C 0.79424 0.55297 0.89814 0.0
C1259 C 0.80827 0.57431 0.91088 0.0
C1260 C 0.83261 0.58395 0.89929 0.0
C1261 C 0.84019 0.57571 0.87326 0.0
C1262 C 0.7808 0.6337 0.95066 0.0
C1263 C 0.76707 0.62077 0.97211 0.0
C1264 C 0.7945 0.61845 0.93121 0.0
C1265 C 0.79492 0.5899 0.9328 0.0
C1266 C 0.78057 0.57683 0.9538 0.0
C1267 C 0.76672 0.59216 0.97333 0.0
H1268 H 0.7527 0.38609 0.46122 0.0
H1269 H 0.67295 0.35676 0.48378 0.0
H1270 H 0.73297 0.40919 0.42177 0.0
H1271 H 0.65285 0.38117 0.44567 0.0
H1272 H 0.63991 0.38297 0.35294 0.0
H1273 H 0.65209 0.37256 0.39931 0.0
H1274 H 0.70486 0.44305 0.40155 0.0
H1275 H 0.6935 0.4528 0.35418 0.0
C1276 C 0.73089 0.38508 0.45794 0.0
C1277 C 0.71439 0.36912 0.47489 0.0
C1278 C 0.71948 0.39856 0.4356 0.0
C1279 C 0.6913 0.39677 0.43031 0.0
C1280 C 0.67468 0.38237 0.44863 0.0
C1281 C 0.68617 0.36836 0.47044 0.0
C1282 C 0.65367 0.39665 0.36343 0.0
C1283 C 0.66627 0.41829 0.34963 0.0
C1284 C 0.66054 0.3908 0.39025 0.0
C1285 C 0.67992 0.40668 0.4041 0.0
C1286 C 0.6904 0.43001 0.39122 0.0
C1287 C 0.68364 0.43578 0.36417 0.0
H1288 H 0.35233 0.89582 0.12383 0.0
H1289 H 0.28269 0.94977 0.12411 0.0
H1290 H 0.34185 0.88287 0.07715 0.0
H1291 H 0.27162 0.93598 0.07807 0.0
H1292 H 0.25739 0.90337 -0.00713 0.0
H1293 H 0.27903 0.92878 0.02976 0.0
H1294 H 0.30402 0.85298 0.06699 0.0
H1295 H 0.28312 0.82784 0.03021 0.0
C1296 C 0.33529 0.90551 0.11365 0.0
C1297 C 0.31781 0.92307 0.12784 0.0
C1298 C 0.32918 0.89798 0.08703 0.0
C1299 C 0.30529 0.90758 0.07447 0.0
C1300 C 0.29003 0.92804 0.0873 0.0
C1301 C 0.29639 0.9359 0.11378 0.0
C1302 C 0.26738 0.89221 0.00907 0.0
C1303 C 0.26851 0.86361 0.00871 0.0
C1304 C 0.27995 0.90676 0.03001 0.0
C1305 C 0.29376 0.89291 0.05091 0.0
C1306 C 0.29439 0.86432 0.0507 0.0
C1307 C 0.28201 0.84986 0.02982 0.0
H1308 H 0.13087 0.07051 0.62125 0.0
H1309 H 0.20912 0.03037 0.62646 0.0
H1310 H 0.14092 0.08391 0.57457 0.0
H1311 H 0.21948 0.0445 0.58033 0.0
H1312 H 0.23211 0.07586 0.49522 0.0
H1313 H 0.21261 0.04837 0.53162 0.0
H1314 H 0.17336 0.11996 0.5644 0.0
H1315 H 0.19219 0.14728 0.52784 0.0
C1316 C 0.14981 0.06378 0.61212 0.0
C1317 C 0.16959 0.0502 0.6277 0.0
C1318 C 0.15564 0.07161 0.58551 0.0
C1319 C 0.1814 0.06617 0.57429 0.0
C1320 C 0.19954 0.0492 0.58851 0.0
C1321 C 0.19357 0.04109 0.61502 0.0
C1322 C 0.21936 0.08576 0.51025 0.0
C1323 C 0.21386 0.11385 0.50877 0.0
C1324 C 0.20807 0.06993 0.53095 0.0
C1325 C 0.19113 0.0819 0.55058 0.0
C1326 C 0.1857 0.10996 0.5491 0.0
C1327 C 0.19686 0.12575 0.52839 0.0
H1328 H 0.97994 0.81394 0.62685 0.0
H1329 H 0.95689 0.73198 0.60512 0.0
H1330 H 0.94237 0.8319 0.60008 0.0
H1331 H 0.91812 0.74979 0.57949 0.0
H1332 H 0.84871 0.84299 0.59665 0.0
H1333 H 0.89538 0.83297 0.60834 0.0
H1334 H 0.89999 0.77534 0.54201 0.0
H1335 H 0.85248 0.78464 0.5309 0.0
C1336 C 0.96658 0.79977 0.61649 0.0
C1337 C 0.97071 0.77158 0.61855 0.0
C1338 C 0.94518 0.81005 0.60106 0.0
C1339 C 0.92704 0.79231 0.58793 0.0
C1340 C 0.93192 0.76407 0.58905 0.0
C1341 C 0.95381 0.7538 0.60403 0.0
C1342 C 0.8598 0.82865 0.58409 0.0
C1343 C 0.84664 0.81396 0.56344 0.0
C1344 C 0.88675 0.82303 0.59067 0.0
C1345 C 0.90122 0.80283 0.57649 0.0
C1346 C 0.88907 0.79046 0.55376 0.0
C1347 C 0.86194 0.79599 0.54725 0.0
H1348 H 0.51927 0.24961 0.10109 0.0
H1349 H 0.4947 0.17057 0.13056 0.0
H1350 H 0.55662 0.22857 0.07582 0.0
H1351 H 0.53052 0.1492 0.10393 0.0
H1352 H 0.62041 0.18854 0.02924 0.0
H1353 H 0.57349 0.2003 0.04053 0.0
H1354 H 0.57713 0.14609 0.10993 0.0
H1355 H 0.62299 0.13347 0.09793 0.0
C1356 C 0.52175 0.2277 0.10178 0.0
C1357 C 0.50495 0.21171 0.11835 0.0
C1358 C 0.54278 0.21555 0.087 0.0
C1359 C 0.54676 0.18714 0.08804 0.0
C1360 C 0.52855 0.17114 0.10324 0.0
C1361 C 0.50813 0.18335 0.11857 0.0
C1362 C 0.61076 0.17839 0.04629 0.0
C1363 C 0.62562 0.1607 0.0632 0.0
C1364 C 0.58399 0.18538 0.05294 0.0
C1365 C 0.57181 0.17481 0.0766 0.0
C1366 C 0.58571 0.15472 0.09156 0.0
C1367 C 0.61225 0.14759 0.08479 0.0
H1368 H 0.35755 0.69274 0.4497 0.0
H1369 H 0.35519 0.63303 0.38512 0.0
H1370 H 0.40384 0.70488 0.43661 0.0
H1371 H 0.40032 0.64613 0.37117 0.0
H1372 H 0.45758 0.75125 0.37461 0.0
H1373 H 0.41982 0.73109 0.39986 0.0
H1374 H 0.44675 0.65079 0.37551 0.0
H1375 H 0.48304 0.67125 0.3488 0.0
C1376 C 0.36708 0.68178 0.43312 0.0
C1377 C 0.35239 0.66252 0.41792 0.0
C1378 C 0.39349 0.68897 0.42541 0.0
C1379 C 0.40548 0.67718 0.40226 0.0
C1380 C 0.39187 0.65575 0.38908 0.0
C1381 C 0.36573 0.6483 0.39702 0.0
C1382 C 0.45514 0.72933 0.37463 0.0
C1383 C 0.47252 0.71279 0.35925 0.0
C1384 C 0.43386 0.71768 0.38944 0.0
C1385 C 0.43014 0.68924 0.38969 0.0
C1386 C 0.44854 0.67275 0.37527 0.0
C1387 C 0.46926 0.68445 0.35989 0.0
H1388 H 0.12985 0.34378 0.88276 0.0
H1389 H 0.12654 0.29087 0.9531 0.0
H1390 H 0.08339 0.33234 0.87179 0.0
H1391 H 0.07913 0.2803 0.94277 0.0
H1392 H 0.02101 0.23205 0.88485 0.0
H1393 H 0.05979 0.25196 0.90881 0.0
H1394 H 0.03674 0.33172 0.87915 0.0
H1395 H -0.00069 0.31139 0.8539 0.0
C1396 C 0.1189 0.33037 0.89644 0.0
C1397 C 0.13218 0.31762 0.91833 0.0
C1398 C 0.09202 0.32392 0.89026 0.0
C1399 C 0.07762 0.30486 0.90606 0.0
C1400 C 0.08992 0.29446 0.92974 0.0
C1401 C 0.11701 0.30076 0.93583 0.0
C1402 C 0.02432 0.25382 0.88367 0.0
C1403 C 0.00786 0.27014 0.86702 0.0
C1404 C 0.04627 0.26535 0.89765 0.0
C1405 C 0.05162 0.29347 0.89565 0.0
C1406 C 0.03372 0.30993 0.88054 0.0
C1407 C 0.01231 0.29832 0.86605 0.0
H1408 H 0.6035 0.95981 0.72553 0.0
H1409 H 0.62212 0.98622 0.80717 0.0
H1410 H 0.57791 0.92121 0.74396 0.0
H1411 H 0.5953 0.94896 0.82569 0.0
H1412 H 0.59354 0.85656 0.842 0.0
H1413 H 0.60495 0.90257 0.8291 0.0
H1414 H 0.54053 0.90208 0.76898 0.0
H1415 H 0.52974 0.85515 0.78135 0.0
C1416 C 0.60158 0.95759 0.74739 0.0
C1417 C 0.61531 0.97531 0.76499 0.0
C1418 C 0.58669 0.93573 0.758 0.0
C1419 C 0.58488 0.93175 0.78637 0.0
C1420 C 0.5969 0.95095 0.80379 0.0
C1421 C 0.61228 0.97226 0.79322 0.0
C1422 C 0.58134 0.86643 0.82648 0.0
C1423 C 0.56115 0.85202 0.81231 0.0
C1424 C 0.58775 0.89301 0.81915 0.0
C1425 C 0.57394 0.90594 0.79763 0.0
C1426 C 0.55193 0.89245 0.78523 0.0
C1427 C 0.54554 0.86569 0.79255 0.0
H1428 H 0.12913 0.49513 0.17151 0.0
H1429 H 0.09796 0.51825 0.25031 0.0
H1430 H 0.10484 0.53278 0.15051 0.0
H1431 H 0.07487 0.55725 0.22963 0.0
H1432 H 0.03009 0.62268 0.18804 0.0
H1433 H 0.04076 0.57572 0.20018 0.0
H1434 H 0.11286 0.57947 0.14964 0.0
H1435 H 0.10162 0.62547 0.1367 0.0
C1436 C 0.11724 0.50856 0.18435 0.0
C1437 C 0.11589 0.50439 0.21257 0.0
C1438 C 0.10326 0.53006 0.17233 0.0
C1439 C 0.08824 0.5483 0.18839 0.0
C1440 C 0.08599 0.54341 0.21658 0.0
C1441 C 0.09948 0.52138 0.22853 0.0
C1442 C 0.04768 0.6131 0.17881 0.0
C1443 C 0.06538 0.62797 0.16191 0.0
C1444 C 0.05396 0.58631 0.18603 0.0
C1445 C 0.07799 0.57404 0.17643 0.0
C1446 C 0.09412 0.58811 0.15741 0.0
C1447 C 0.08777 0.6147 0.1501 0.0
H1448 H 0.37735 0.35505 0.63305 0.0
H1449 H 0.45028 0.36381 0.68179 0.0
H1450 H 0.36434 0.40105 0.64398 0.0
H1451 H 0.4377 0.41065 0.69185 0.0
H1452 H 0.3781 0.463 0.744 0.0
H1453 H 0.40315 0.42593 0.72247 0.0
H1454 H 0.36893 0.44841 0.64441 0.0
H1455 H 0.34283 0.48428 0.66627 0.0
C1456 C 0.39114 0.3671 0.64533 0.0
C1457 C 0.4143 0.35543 0.65742 0.0
C1458 C 0.38375 0.39369 0.65148 0.0
C1459 C 0.39961 0.40925 0.66949 0.0
C1460 C 0.42463 0.39879 0.67864 0.0
C1461 C 0.43193 0.37203 0.67268 0.0
C1462 C 0.37603 0.45988 0.72227 0.0
C1463 C 0.35801 0.47579 0.7069 0.0
C1464 C 0.39068 0.439 0.70981 0.0
C1465 C 0.38794 0.43415 0.68168 0.0
C1466 C 0.37105 0.45123 0.66617 0.0
C1467 C 0.35599 0.47164 0.67871 0.0
H1468 H 0.95627 0.12138 0.29003 0.0
H1469 H 0.89191 0.12397 0.35005 0.0
H1470 H 0.94544 0.07391 0.28067 0.0
H1471 H 0.88037 0.07736 0.33997 0.0
H1472 H 0.87993 0.02123 0.23594 0.0
H1473 H 0.90739 0.05782 0.25518 0.0
H1474 H 0.88663 0.03048 0.33635 0.0
H1475 H 0.85797 -0.0049 0.31696 0.0
C1476 C 0.94041 0.1116 0.30184 0.0
C1477 C 0.92427 0.1266 0.32009 0.0
C1478 C 0.93402 0.0845 0.29626 0.0
C1479 C 0.91144 0.07215 0.30884 0.0
C1480 C 0.89782 0.08615 0.32974 0.0
C1481 C 0.9043 0.11307 0.33542 0.0
C1482 C 0.88136 0.02316 0.25786 0.0
C1483 C 0.86624 0.00608 0.27499 0.0
C1484 C 0.89743 0.04377 0.26895 0.0
C1485 C 0.89909 0.04719 0.29738 0.0
C1486 C 0.88532 0.0288 0.31441 0.0
C1487 C 0.86878 0.00868 0.30332 0.0
H1488 H 0.1383 0.31325 0.26946 0.0
H1489 H 0.16242 0.37451 0.32774 0.0
H1490 H 0.15491 0.27783 0.29972 0.0
H1491 H 0.17975 0.33884 0.35794 0.0
H1492 H 0.18432 0.26034 0.41266 0.0
H1493 H 0.16752 0.29915 0.38636 0.0
H1494 H 0.20027 0.26337 0.31302 0.0
H1495 H 0.21638 0.22447 0.33904 0.0
C1496 C 0.14698 0.31913 0.28886 0.0
C1497 C 0.14932 0.34665 0.29611 0.0
C1498 C 0.15672 0.29886 0.30609 0.0
C1499 C 0.16928 0.30562 0.33087 0.0
C1500 C 0.17024 0.33305 0.33892 0.0
C1501 C 0.16026 0.35343 0.32167 0.0
C1502 C 0.18836 0.26107 0.391 0.0
C1503 C 0.20134 0.23923 0.37782 0.0
C1504 C 0.17869 0.28325 0.37596 0.0
C1505 C 0.182 0.28394 0.34756 0.0
C1506 C 0.19667 0.26298 0.33477 0.0
C1507 C 0.2061 0.24081 0.3497 0.0
H1508 H 0.29804 0.71664 0.91398 0.0
H1509 H 0.25977 0.75043 0.84221 0.0
H1510 H 0.31241 0.6769 0.88754 0.0
H1511 H 0.27361 0.71076 0.81617 0.0
H1512 H 0.31193 0.60105 0.82735 0.0
H1513 H 0.29638 0.63622 0.85913 0.0
H1514 H 0.32071 0.6984 0.80184 0.0
H1515 H 0.33577 0.66366 0.77018 0.0
C1516 C 0.29212 0.71523 0.89278 0.0
C1517 C 0.27829 0.73676 0.87993 0.0
C1518 C 0.30036 0.69256 0.87771 0.0
C1519 C 0.2947 0.69124 0.84975 0.0
C1520 C 0.2789 0.71173 0.83756 0.0
C1521 C 0.27088 0.73434 0.85247 0.0
C1522 C 0.31437 0.62227 0.82185 0.0
C1523 C 0.32462 0.6297 0.79617 0.0
C1524 C 0.30542 0.6423 0.83996 0.0
C1525 C 0.30672 0.66986 0.83253 0.0
C1526 C 0.31873 0.67721 0.80767 0.0
C1527 C 0.3275 0.65734 0.78963 0.0
H1528 H 0.73073 0.25377 0.64066 0.0
H1529 H 0.69232 0.22038 0.56892 0.0
H1530 H 0.71775 0.21353 0.6664 0.0
H1531 H 0.6786 0.18026 0.59502 0.0
H1532 H 0.67532 0.10351 0.65172 0.0
H1533 H 0.69265 0.13937 0.62155 0.0
H1534 H 0.67303 0.19965 0.68245 0.0
H1535 H 0.6564 0.16422 0.71246 0.0
C1536 C 0.71975 0.23768 0.63033 0.0
C1537 C 0.71216 0.24038 0.60292 0.0
C1538 C 0.71217 0.21471 0.64509 0.0
C1539 C 0.69654 0.1941 0.63288 0.0
C1540 C 0.69059 0.19586 0.60496 0.0
C1541 C 0.69844 0.21882 0.59005 0.0
C1542 C 0.67446 0.12449 0.65842 0.0
C1543 C 0.66482 0.13106 0.68454 0.0
C1544 C 0.68443 0.14495 0.64122 0.0
C1545 C 0.68479 0.1722 0.64994 0.0
C1546 C 0.67385 0.17875 0.6755 0.0
C1547 C 0.6641 0.15844 0.69262 0.0
H1548 H 0.80072 0.76976 0.06547 0.0
H1549 H 0.75989 0.73473 0.13509 0.0
H1550 H 0.81395 0.80917 0.09318 0.0
H1551 H 0.77238 0.77402 0.16233 0.0
H1552 H 0.81288 0.88369 0.15467 0.0
H1553 H 0.79733 0.84943 0.1219 0.0
H1554 H 0.81862 0.78577 0.17882 0.0
H1555 H 0.83364 0.81956 0.21142 0.0
C1556 C 0.794 0.77088 0.08644 0.0
C1557 C 0.77981 0.74912 0.09841 0.0
C1558 C 0.80154 0.79333 0.10223 0.0
C1559 C 0.79474 0.79417 0.13 0.0
C1560 C 0.77854 0.77344 0.14116 0.0
C1561 C 0.77131 0.75105 0.12558 0.0
C1562 C 0.81451 0.86233 0.15996 0.0
C1563 C 0.82405 0.85426 0.18574 0.0
C1564 C 0.80561 0.84282 0.14125 0.0
C1565 C 0.8062 0.8151 0.14817 0.0
C1566 C 0.81719 0.80709 0.17331 0.0
C1567 C 0.82592 0.82644 0.19192 0.0
H1568 H 0.41034 0.1862 0.26605 0.0
H1569 H 0.33882 0.22295 0.2302 0.0
H1570 H 0.3829 0.17052 0.30455 0.0
H1571 H 0.31167 0.20816 0.26889 0.0
H1572 H 0.26478 0.14632 0.3166 0.0
H1573 H 0.29561 0.1636 0.28201 0.0
H1574 H 0.35507 0.18266 0.34405 0.0
H1575 H 0.3244 0.1646 0.37877 0.0
C1576 C 0.38895 0.19161 0.26685 0.0
C1577 C 0.37654 0.20543 0.24509 0.0
C1578 C 0.37324 0.18259 0.28881 0.0
C1579 C 0.34503 0.18753 0.28934 0.0
C1580 C 0.3332 0.20329 0.26859 0.0
C1581 C 0.34876 0.21198 0.24659 0.0
C1582 C 0.28453 0.15394 0.32286 0.0
C1583 C 0.29208 0.1543 0.3504 0.0
C1584 C 0.30209 0.16408 0.30309 0.0
C1585 C 0.32749 0.17508 0.31042 0.0
C1586 C 0.33561 0.17434 0.33782 0.0
C1587 C 0.31806 0.16396 0.35766 0.0
H1588 H 0.1544 0.83809 0.87074 0.0
H1589 H 0.22059 0.80596 0.82222 0.0
H1590 H 0.12236 0.82679 0.83404 0.0
H1591 H 0.1889 0.79446 0.78648 0.0
H1592 H 0.13534 0.81059 0.71543 0.0
H1593 H 0.16242 0.8226 0.75463 0.0
H1594 H 0.10285 0.78563 0.80775 0.0
H1595 H 0.07491 0.77378 0.768 0.0
C1596 C 0.16209 0.82864 0.85239 0.0
C1597 C 0.19011 0.82342 0.84922 0.0
C1598 C 0.14376 0.82201 0.83154 0.0
C1599 C 0.15327 0.8101 0.80735 0.0
C1600 C 0.18109 0.80419 0.80466 0.0
C1601 C 0.19927 0.81084 0.82522 0.0
C1602 C 0.12786 0.80485 0.73536 0.0
C1603 C 0.10313 0.79076 0.73852 0.0
C1604 C 0.14344 0.8118 0.75786 0.0
C1605 C 0.13491 0.80468 0.78415 0.0
C1606 C 0.10981 0.79136 0.78763 0.0
C1607 C 0.09398 0.78444 0.76492 0.0
H1608 H 0.83324 0.31601 0.59988 0.0
H1609 H 0.77578 0.33623 0.66343 0.0
H1610 H 0.86436 0.29719 0.63422 0.0
H1611 H 0.80667 0.31783 0.69729 0.0
H1612 H 0.84578 0.25396 0.74639 0.0
H1613 H 0.82045 0.26994 0.70695 0.0
H1614 H 0.89267 0.30982 0.67637 0.0
H1615 H 0.91837 0.29336 0.71586 0.0
C1616 C 0.82751 0.31694 0.62115 0.0
C1617 C 0.80192 0.32722 0.62896 0.0
C1618 C 0.84524 0.30609 0.64072 0.0
C1619 C 0.83753 0.3054 0.66825 0.0
C1620 C 0.81275 0.31732 0.6761 0.0
C1621 C 0.79514 0.32805 0.6567 0.0
C1622 C 0.85643 0.26566 0.731 0.0
C1623 C 0.88391 0.27281 0.73441 0.0
C1624 C 0.8419 0.27494 0.70852 0.0
C1625 C 0.85447 0.29174 0.68907 0.0
C1626 C 0.88251 0.29701 0.69119 0.0
C1627 C 0.89718 0.28755 0.71373 0.0
H1628 H 0.64731 0.70096 0.26431 0.0
H1629 H 0.57624 0.71106 0.21306 0.0
H1630 H 0.67437 0.68979 0.22491 0.0
H1631 H 0.60402 0.70058 0.17304 0.0
H1632 H 0.65838 0.64549 0.1166 0.0
H1633 H 0.6281 0.66092 0.15316 0.0
H1634 H 0.69299 0.71098 0.18524 0.0
H1635 H 0.72318 0.69499 0.14977 0.0
C1636 C 0.63748 0.70119 0.24457 0.0
C1637 C 0.60954 0.70685 0.24189 0.0
C1638 C 0.65311 0.69492 0.22189 0.0
C1639 C 0.64134 0.69441 0.19587 0.0
C1640 C 0.61353 0.7006 0.19294 0.0
C1641 C 0.59774 0.70682 0.21579 0.0
C1642 C 0.66604 0.65975 0.13154 0.0
C1643 C 0.69327 0.6685 0.13078 0.0
C1644 C 0.6487 0.66877 0.15226 0.0
C1645 C 0.65833 0.68687 0.17222 0.0
C1646 C 0.68519 0.69649 0.17058 0.0
C1647 C 0.7025 0.68726 0.15026 0.0
H1648 H 0.37336 0.32213 0.16947 0.0
H1649 H 0.31332 0.26237 0.14577 0.0
H1650 H 0.33714 0.35136 0.18704 0.0
H1651 H 0.2772 0.29181 0.16234 0.0
H1652 H 0.22146 0.33203 0.22087 0.0
H1653 H 0.26066 0.30571 0.20591 0.0
H1654 H 0.29838 0.37908 0.17515 0.0
H1655 H 0.25954 0.40556 0.19107 0.0
C1656 C 0.35239 0.31555 0.16745 0.0
C1657 C 0.34611 0.28992 0.15648 0.0
C1658 C 0.33167 0.33223 0.17757 0.0
C1659 C 0.30436 0.32362 0.17661 0.0
C1660 C 0.2981 0.29864 0.1642 0.0
C1661 C 0.31875 0.2819 0.15442 0.0
C1662 C 0.23832 0.34257 0.21131 0.0
C1663 C 0.23736 0.37078 0.20691 0.0
C1664 C 0.26066 0.32749 0.20249 0.0
C1665 C 0.28232 0.34024 0.18874 0.0
C1666 C 0.28204 0.36867 0.18571 0.0
C1667 C 0.2598 0.38384 0.19485 0.0
H1668 H 0.88383 0.15028 0.81315 0.0
H1669 H 0.82034 0.20867 0.83089 0.0
H1670 H 0.84926 0.11824 0.79642 0.0
H1671 H 0.78628 0.17689 0.81467 0.0
H1672 H 0.73644 0.13491 0.7538 0.0
H1673 H 0.77628 0.16076 0.76773 0.0
H1674 H 0.80701 0.09073 0.81126 0.0
H1675 H 0.76709 0.06443 0.79671 0.0
C1676 C 0.86253 0.15604 0.81394 0.0
C1677 C 0.85476 0.1821 0.82288 0.0
C1678 C 0.84284 0.13779 0.80432 0.0
C1679 C 0.81527 0.14545 0.8036 0.0
C1680 C 0.8075 0.1708 0.8142 0.0
C1681 C 0.827 0.18894 0.82364 0.0
C1682 C 0.75194 0.12486 0.76592 0.0
C1683 C 0.74853 0.09788 0.7746 0.0
C1684 C 0.77465 0.13966 0.77399 0.0
C1685 C 0.79427 0.1279 0.79118 0.0
C1686 C 0.79206 0.10025 0.7981 0.0
C1687 C 0.7693 0.08525 0.78977 0.0
H1688 H 0.7207 0.90902 0.30182 0.0
H1689 H 0.75692 0.83665 0.26733 0.0
H1690 H 0.68186 0.88216 0.3174 0.0
H1691 H 0.71789 0.81007 0.28213 0.0
H1692 H 0.60582 0.82548 0.31913 0.0
H1693 H 0.6424 0.85547 0.30369 0.0
H1694 H 0.70173 0.79415 0.32551 0.0
H1695 H 0.66531 0.76402 0.3401 0.0
C1696 C 0.72008 0.88751 0.29705 0.0
C1697 C 0.74198 0.87485 0.28363 0.0
C1698 C 0.69786 0.87214 0.306 0.0
C1699 C 0.6971 0.84391 0.30149 0.0
C1700 C 0.71827 0.83164 0.28665 0.0
C1701 C 0.74053 0.8469 0.27796 0.0
C1702 C 0.62672 0.81862 0.32099 0.0
C1703 C 0.63272 0.79231 0.33054 0.0
C1704 C 0.64765 0.83577 0.31212 0.0
C1705 C 0.67489 0.82694 0.31285 0.0
C1706 C 0.68088 0.80123 0.3239 0.0
C1707 C 0.66004 0.78405 0.33249 0.0
H1708 H 0.2137 0.57598 0.68637 0.0
H1709 H 0.25056 0.64494 0.72656 0.0
H1710 H 0.17533 0.60444 0.67265 0.0
H1711 H 0.21183 0.67311 0.71379 0.0
H1712 H 0.16308 0.72325 0.65448 0.0
H1713 H 0.1978 0.69223 0.67119 0.0
H1714 H 0.1362 0.63107 0.68601 0.0
H1715 H 0.10144 0.66192 0.66839 0.0
C1716 C 0.21319 0.59702 0.69293 0.0
C1717 C 0.2352 0.60841 0.70718 0.0
C1718 C 0.19124 0.61332 0.68506 0.0
C1719 C 0.19088 0.64116 0.69162 0.0
C1720 C 0.21196 0.65193 0.7077 0.0
C1721 C 0.234 0.63577 0.71522 0.0
C1722 C 0.15696 0.70313 0.66114 0.0
C1723 C 0.12956 0.69504 0.66019 0.0
C1724 C 0.1768 0.68544 0.67097 0.0
C1725 C 0.16965 0.65938 0.68041 0.0
C1726 C 0.14234 0.65099 0.67881 0.0
C1727 C 0.12246 0.66864 0.66868 0.0
H1728 H 0.82778 0.66461 0.72106 0.0
H1729 H 0.81145 0.60194 0.66155 0.0
H1730 H 0.80956 0.69869 0.69021 0.0
H1731 H 0.79239 0.63611 0.63085 0.0
H1732 H 0.78921 0.71294 0.57481 0.0
H1733 H 0.80455 0.67514 0.60312 0.0
H1734 H 0.76557 0.71177 0.67297 0.0
H1735 H 0.75106 0.74994 0.6449 0.0
C1736 C 0.82032 0.65813 0.70135 0.0
C1737 C 0.82095 0.63062 0.69375 0.0
C1738 C 0.80961 0.67761 0.68378 0.0
C1739 C 0.79903 0.66998 0.65833 0.0
C1740 C 0.80044 0.64258 0.65032 0.0
C1741 C 0.81141 0.62305 0.66787 0.0
C1742 C 0.78346 0.71261 0.5961 0.0
C1743 C 0.7693 0.73453 0.60779 0.0
C1744 C 0.79225 0.69096 0.6123 0.0
C1745 C 0.78677 0.69082 0.64037 0.0
C1746 C 0.77081 0.71175 0.65155 0.0
C1747 C 0.76231 0.73349 0.63546 0.0
H1748 H 0.68495 0.26192 0.06605 0.0
H1749 H 0.72155 0.22928 0.13918 0.0
H1750 H 0.67018 0.30217 0.09147 0.0
H1751 H 0.70723 0.26942 0.16423 0.0
H1752 H 0.64395 0.31758 0.20809 0.0
H1753 H 0.66012 0.28236 0.17757 0.0
H1754 H 0.68515 0.34355 0.11955 0.0
H1755 H 0.66854 0.37926 0.15028 0.0
C1756 C 0.69045 0.26365 0.08733 0.0
C1757 C 0.70398 0.24225 0.10077 0.0
C1758 C 0.68196 0.28665 0.10184 0.0
C1759 C 0.68698 0.28851 0.12991 0.0
C1760 C 0.70243 0.26812 0.14274 0.0
C1761 C 0.71075 0.24521 0.12837 0.0
C1762 C 0.65263 0.32361 0.18872 0.0
C1763 C 0.65534 0.3512 0.18174 0.0
C1764 C 0.66207 0.30343 0.17133 0.0
C1765 C 0.67457 0.3103 0.14656 0.0
C1766 C 0.67576 0.33777 0.13865 0.0
C1767 C 0.66618 0.35814 0.15616 0.0
H1768 H 0.32405 0.73211 0.37202 0.0
H1769 H 0.24423 0.76448 0.38993 0.0
H1770 H 0.33541 0.77357 0.3469 0.0
H1771 H 0.25535 0.80582 0.3638 0.0
H1772 H 0.28116 0.8376 0.27272 0.0
H1773 H 0.26882 0.80428 0.30755 0.0
H1774 H 0.33679 0.83028 0.35682 0.0
H1775 H 0.34884 0.86436 0.32224 0.0
C1776 C 0.30911 0.74833 0.37078 0.0
C1777 C 0.28327 0.74532 0.3826 0.0
C1778 C 0.31566 0.77199 0.35665 0.0
C1779 C 0.29622 0.79264 0.35364 0.0
C1780 C 0.27061 0.79005 0.36613 0.0
C1781 C 0.26429 0.76659 0.38096 0.0
C1782 C 0.29336 0.83633 0.29107 0.0
C1783 C 0.31611 0.85326 0.29477 0.0
C1784 C 0.28609 0.81757 0.31105 0.0
C1785 C 0.30178 0.81511 0.33475 0.0
C1786 C 0.32435 0.83217 0.33869 0.0
C1787 C 0.33125 0.85145 0.31896 0.0
H1788 H 0.18504 0.21828 0.90622 0.0
H1789 H 0.2349 0.25093 0.84151 0.0
H1790 H 0.17266 0.17984 0.8773 0.0
H1791 H 0.22357 0.2121 0.81306 0.0
H1792 H 0.1685 0.16464 0.7574 0.0
H1793 H 0.18342 0.19935 0.78917 0.0
H1794 H 0.18657 0.13934 0.85356 0.0
H1795 H 0.17062 0.10466 0.82182 0.0
C1796 C 0.19393 0.2168 0.88609 0.0
C1797 C 0.2106 0.23766 0.87589 0.0
C1798 C 0.18687 0.19481 0.86953 0.0
C1799 C 0.19667 0.19324 0.84268 0.0
C1800 C 0.21498 0.21316 0.83334 0.0
C1801 C 0.22168 0.23527 0.84969 0.0
C1802 C 0.17227 0.15886 0.77836 0.0
C1803 C 0.16846 0.13194 0.78711 0.0
C1804 C 0.18107 0.1787 0.79653 0.0
C1805 C 0.18665 0.172 0.8238 0.0
C1806 C 0.18233 0.14517 0.83272 0.0
C1807 C 0.17319 0.12532 0.81455 0.0
H1808 H 0.64701 0.80672 0.59801 0.0
H1809 H 0.70227 0.83395 0.66089 0.0
H1810 H 0.61619 0.78878 0.63307 0.0
H1811 H 0.67168 0.81634 0.69547 0.0
H1812 H 0.56209 0.78861 0.71546 0.0
H1813 H 0.58691 0.80355 0.67485 0.0
H1814 H 0.66053 0.76735 0.70672 0.0
H1815 H 0.63606 0.75281 0.74724 0.0
C1816 C 0.65225 0.80942 0.61926 0.0
C1817 C 0.67719 0.82134 0.62679 0.0
C1818 C 0.63472 0.79906 0.63922 0.0
C1819 C 0.64205 0.80053 0.6668 0.0
C1820 C 0.66601 0.81421 0.67426 0.0
C1821 C 0.68341 0.82446 0.65448 0.0
C1822 C 0.5834 0.78321 0.71339 0.0
C1823 C 0.59735 0.77006 0.73469 0.0
C1824 C 0.59755 0.7918 0.69021 0.0
C1825 C 0.62569 0.78721 0.68816 0.0
C1826 C 0.63894 0.77177 0.70826 0.0
C1827 C 0.62493 0.76335 0.73135 0.0
H1828 H 0.84281 0.22066 0.24831 0.0
H1829 H 0.91314 0.17892 0.21573 0.0
H1830 H 0.81619 0.20685 0.209 0.0
H1831 H 0.88609 0.16453 0.17634 0.0
H1832 H 0.82619 0.16406 0.10033 0.0
H1833 H 0.85836 0.18002 0.13507 0.0
H1834 H 0.79975 0.16057 0.19774 0.0
H1835 H 0.76778 0.14515 0.16346 0.0
C1836 C 0.85264 0.20875 0.23257 0.0
C1837 C 0.87986 0.20043 0.23524 0.0
C1838 C 0.83739 0.20075 0.21014 0.0
C1839 C 0.84894 0.18404 0.19006 0.0
C1840 C 0.87672 0.17733 0.19164 0.0
C1841 C 0.89215 0.18556 0.21412 0.0
C1842 C 0.82044 0.16287 0.12158 0.0
C1843 C 0.79436 0.1538 0.12921 0.0
C1844 C 0.83878 0.17203 0.14138 0.0
C1845 C 0.83119 0.17215 0.16894 0.0
C1846 C 0.80578 0.16148 0.17654 0.0
C1847 C 0.78754 0.15251 0.15692 0.0
H1848 H 0.21907 0.66644 0.31398 0.0
H1849 H 0.15479 0.66541 0.37415 0.0
H1850 H 0.18719 0.68281 0.28009 0.0
H1851 H 0.12271 0.68265 0.34004 0.0
H1852 H 0.07197 0.68204 0.25823 0.0
H1853 H 0.09962 0.66972 0.29776 0.0
H1854 H 0.16306 0.72417 0.2701 0.0
H1855 H 0.13593 0.73555 0.23021 0.0
C1856 C 0.19809 0.66982 0.32 0.0
C1857 C 0.18946 0.66481 0.34676 0.0
C1858 C 0.17985 0.67946 0.30062 0.0
C1859 C 0.15257 0.68463 0.30756 0.0
C1860 C 0.14364 0.67889 0.33414 0.0
C1861 C 0.16196 0.66898 0.35361 0.0
C1862 C 0.09156 0.69181 0.26102 0.0
C1863 C 0.1021 0.70937 0.24105 0.0
C1864 C 0.10738 0.68477 0.28363 0.0
C1865 C 0.13377 0.69547 0.28663 0.0
C1866 C 0.14314 0.71494 0.26786 0.0
C1867 C 0.12757 0.72162 0.24515 0.0
H1868 H 0.33014 0.35233 0.86296 0.0
H1869 H 0.27901 0.2824 0.84838 0.0
H1870 H 0.36188 0.33637 0.82759 0.0
H1871 H 0.31092 0.26581 0.8145 0.0
H1872 H 0.34251 0.27245 0.7285 0.0
H1873 H 0.31825 0.28335 0.76965 0.0
H1874 H 0.39434 0.30056 0.8105 0.0
H1875 H 0.4191 0.29026 0.76827 0.0
C1876 C 0.32607 0.33335 0.85253 0.0
C1877 C 0.30194 0.31892 0.85759 0.0
C1878 C 0.34424 0.32409 0.83255 0.0
C1879 C 0.33855 0.30012 0.81793 0.0
C1880 C 0.31546 0.28474 0.82484 0.0
C1881 C 0.29719 0.29422 0.84418 0.0
C1882 C 0.35427 0.27837 0.7462 0.0
C1883 C 0.38277 0.28061 0.74504 0.0
C1884 C 0.3403 0.2844 0.76996 0.0
C1885 C 0.35439 0.29262 0.79342 0.0
C1886 C 0.38299 0.29437 0.79265 0.0
C1887 C 0.39712 0.28826 0.76861 0.0
H1888 H 0.71946 0.5675 0.80399 0.0
H1889 H 0.75541 0.6395 0.76842 0.0
H1890 H 0.67958 0.59426 0.81768 0.0
H1891 H 0.7156 0.66584 0.78128 0.0
H1892 H 0.66394 0.71278 0.83833 0.0
H1893 H 0.69991 0.68155 0.82529 0.0
H1894 H 0.63972 0.62175 0.80199 0.0
H1895 H 0.60335 0.65309 0.81589 0.0
C1896 C 0.71855 0.58887 0.7986 0.0
C1897 C 0.74065 0.60158 0.78556 0.0
C1898 C 0.69578 0.60415 0.80643 0.0
C1899 C 0.69482 0.63225 0.80113 0.0
C1900 C 0.71615 0.6444 0.78642 0.0
C1901 C 0.73888 0.62929 0.7789 0.0
C1902 C 0.65834 0.69288 0.83068 0.0
C1903 C 0.6309 0.68547 0.82776 0.0
C1904 C 0.67893 0.67505 0.82303 0.0
C1905 C 0.67259 0.64951 0.81192 0.0
C1906 C 0.64516 0.64138 0.81039 0.0
C1907 C 0.6244 0.65925 0.81835 0.0
H1908 H 0.24516 0.84582 0.22158 0.0
H1909 H 0.21418 0.91656 0.17935 0.0
H1910 H 0.20627 0.81944 0.20607 0.0
H1911 H 0.17514 0.88976 0.16327 0.0
H1912 H 0.09927 0.82862 0.16069 0.0
H1913 H 0.1332 0.8612 0.17746 0.0
H1914 H 0.19731 0.80405 0.15843 0.0
H1915 H 0.1638 0.77164 0.14213 0.0
C1916 C 0.22976 0.8558 0.20928 0.0
C1917 C 0.23279 0.88303 0.20127 0.0
C1918 C 0.20762 0.84069 0.20029 0.0
C1919 C 0.18821 0.85243 0.18286 0.0
C1920 C 0.18998 0.88027 0.17657 0.0
C1921 C 0.2122 0.89556 0.18581 0.0
C1922 C 0.12067 0.82331 0.15966 0.0
C1923 C 0.12892 0.79745 0.15055 0.0
C1924 C 0.14 0.84189 0.16929 0.0
C1925 C 0.1677 0.83476 0.16986 0.0
C1926 C 0.17597 0.8097 0.15896 0.0
C1927 C 0.1568 0.79121 0.14949 0.0
H1928 H 0.23616 0.11117 0.65642 0.0
H1929 H 0.27307 0.0837 0.7314 0.0
H1930 H 0.27777 0.13586 0.64485 0.0
H1931 H 0.31466 0.10935 0.72011 0.0
H1932 H 0.34775 0.20186 0.70147 0.0
H1933 H 0.31537 0.16598 0.71323 0.0
H1934 H 0.33319 0.12503 0.63763 0.0
H1935 H 0.36642 0.16067 0.6261 0.0
C1936 C 0.25333 0.1103 0.67029 0.0
C1937 C 0.25151 0.09589 0.69489 0.0
C1938 C 0.27712 0.12414 0.66354 0.0
C1939 C 0.29924 0.12426 0.68157 0.0
C1940 C 0.29778 0.10927 0.70589 0.0
C1941 C 0.27413 0.09475 0.71233 0.0
C1942 C 0.34503 0.18498 0.68756 0.0
C1943 C 0.35924 0.18405 0.66277 0.0
C1944 C 0.3268 0.16439 0.69442 0.0
C1945 C 0.32208 0.14287 0.67635 0.0
C1946 C 0.3368 0.14145 0.65189 0.0
C1947 C 0.35563 0.16176 0.64531 0.0
H1948 H 0.76434 0.41002 0.29229 0.0
H1949 H 0.73148 0.34009 0.25029 0.0
H1950 H 0.80355 0.3829 0.30672 0.0
H1951 H 0.77083 0.31333 0.26408 0.0
H1952 H 0.81718 0.2647 0.32598 0.0
H1953 H 0.78268 0.29572 0.30901 0.0
H1954 H 0.84453 0.35627 0.29312 0.0
H1955 H 0.87936 0.32517 0.3107 0.0
C1956 C 0.76587 0.3891 0.28552 0.0
C1957 C 0.74467 0.37698 0.27058 0.0
C1958 C 0.78829 0.3736 0.2938 0.0
C1959 C 0.78985 0.34586 0.28708 0.0
C1960 C 0.76973 0.33447 0.27024 0.0
C1961 C 0.7473 0.34982 0.26219 0.0
C1962 C 0.82348 0.28469 0.31907 0.0
C1963 C 0.85101 0.29241 0.31944 0.0
C1964 C 0.80373 0.30238 0.30912 0.0
C1965 C 0.81103 0.32815 0.29912 0.0
C1966 C 0.83838 0.33646 0.30062 0.0
C1967 C 0.85826 0.31871 0.31074 0.0
loop_
_geom_bond_atom_site_label_1
_geom_bond_atom_site_label_2
_geom_bond_distance
_geom_bond_site_symmetry_2
_ccdc_geom_bond_type
Sc0 O3 2.025 . S
Sc0 O10 2.105 . S
Sc0 O13 2.105 . S
Sc0 O16 2.105 . S
Sc0 O19 2.105 . S
Sc1 O3 2.025 . S
Sc1 O11 2.105 . S
Sc1 O15 2.105 . S
Sc1 O17 2.105 . S
Sc1 O21 2.105 . S
Sc2 O3 2.025 . S
Sc2 O12 2.105 . S
Sc2 O14 2.105 . S
Sc2 O18 2.105 . S
Sc2 O20 2.105 . S
O3 Sc0 2.025 . S
O3 Sc1 2.025 . S
O3 Sc2 2.025 . S
C4 O10 1.268 . S
C4 O20 1.268 . S
C5 O11 1.268 . S
C5 O19 1.268 . S
C6 O12 1.268 . S
C6 O21 1.268 . S
C7 O13 1.268 . S
C7 O17 1.268 . S
C8 O14 1.268 . S
C8 O16 1.268 . S
C9 O15 1.268 . S
C9 O18 1.268 . S
O10 Sc0 2.105 . S
O10 C4 1.268 . S
O11 Sc1 2.105 . S
O11 C5 1.268 . S
O12 Sc2 2.105 . S
O12 C6 1.268 . S
O13 Sc0 2.105 . S
O13 C7 1.268 . S
O14 Sc2 2.105 . S
O14 C8 1.268 . S
O15 Sc1 2.105 . S
O15 C9 1.268 . S
O16 Sc0 2.105 . S
O16 C8 1.268 . S
O17 Sc1 2.105 . S
O17 C7 1.268 . S
O18 Sc2 2.105 . S
O18 C9 1.268 . S
O19 Sc0 2.105 . S
O19 C5 1.268 . S
O20 Sc2 2.105 . S
O20 C4 1.268 . S
O21 Sc1 2.105 . S
O21 C6 1.268 . S
Sc22 O25 2.025 . S
Sc22 O32 2.105 . S
Sc22 O35 2.105 . S
Sc22 O38 2.105 . S
Sc22 O41 2.105 . S
Sc23 O25 2.025 . S
Sc23 O33 2.105 . S
Sc23 O37 2.105 . S
Sc23 O39 2.105 . S
Sc23 O43 2.105 . S
Sc24 O25 2.025 . S
Sc24 O34 2.105 . S
Sc24 O36 2.105 . S
Sc24 O40 2.105 . S
Sc24 O42 2.105 . S
O25 Sc22 2.025 . S
O25 Sc23 2.025 . S
O25 Sc24 2.025 . S
C26 O32 1.268 . S
C26 O42 1.268 . S
C27 O33 1.268 . S
C27 O41 1.268 . S
C28 O34 1.268 . S
C28 O43 1.268 . S
C29 O35 1.268 . S
C29 O39 1.268 . S
C30 O36 1.268 . S
C30 O38 1.268 . S
C31 O37 1.268 . S
C31 O40 1.268 . S
O32 Sc22 2.105 . S
O32 C26 1.268 . S
O33 Sc23 2.105 . S
O33 C27 1.268 . S
O34 Sc24 2.105 . S
O34 C28 1.268 . S
O35 Sc22 2.105 . S
O35 C29 1.268 . S
O36 Sc24 2.105 . S
O36 C30 1.268 . S
O37 Sc23 2.105 . S
O37 C31 1.268 . S
O38 Sc22 2.105 . S
O38 C30 1.268 . S
O39 Sc23 2.105 . S
O39 C29 1.268 . S
O40 Sc24 2.105 . S
O40 C31 1.268 . S
O41 Sc22 2.105 . S
O41 C27 1.268 . S
O42 Sc24 2.105 . S
O42 C26 1.268 . S
O43 Sc23 2.105 . S
O43 C28 1.268 . S
Sc44 O47 2.025 . S
Sc44 O54 2.105 . S
Sc44 O57 2.105 . S
Sc44 O60 2.105 . S
Sc44 O63 2.105 . S
Sc45 O47 2.025 . S
Sc45 O55 2.105 . S
Sc45 O59 2.105 . S
Sc45 O61 2.105 . S
Sc45 O65 2.105 . S
Sc46 O47 2.025 . S
Sc46 O56 2.105 . S
Sc46 O58 2.105 . S
Sc46 O62 2.105 . S
Sc46 O64 2.105 . S
O47 Sc44 2.025 . S
O47 Sc45 2.025 . S
O47 Sc46 2.025 . S
C48 O54 1.268 . S
C48 O64 1.268 . S
C49 O55 1.268 . S
C49 O63 1.268 . S
C50 O56 1.268 . S
C50 O65 1.268 . S
C51 O57 1.268 . S
C51 O61 1.268 . S
C52 O58 1.268 . S
C52 O60 1.268 . S
C53 O59 1.268 . S
C53 O62 1.268 . S
O54 Sc44 2.105 . S
O54 C48 1.268 . S
O55 Sc45 2.105 . S
O55 C49 1.268 . S
O56 Sc46 2.105 . S
O56 C50 1.268 . S
O57 Sc44 2.105 . S
O57 C51 1.268 . S
O58 Sc46 2.105 . S
O58 C52 1.268 . S
O59 Sc45 2.105 . S
O59 C53 1.268 . S
O60 Sc44 2.105 . S
O60 C52 1.268 . S
O61 Sc45 2.105 . S
O61 C51 1.268 . S
O62 Sc46 2.105 . S
O62 C53 1.268 . S
O63 Sc44 2.105 . S
O63 C49 1.268 . S
O64 Sc46 2.105 . S
O64 C48 1.268 . S
O65 Sc45 2.105 . S
O65 C50 1.268 . S
Sc66 O69 2.025 . S
Sc66 O76 2.105 . S
Sc66 O79 2.105 . S
Sc66 O82 2.105 . S
Sc66 O85 2.105 . S
Sc67 O69 2.025 . S
Sc67 O77 2.105 . S
Sc67 O81 2.105 . S
Sc67 O83 2.105 . S
Sc67 O87 2.105 . S
Sc68 O69 2.025 . S
Sc68 O78 2.105 . S
Sc68 O80 2.105 . S
Sc68 O84 2.105 . S
Sc68 O86 2.105 . S
O69 Sc66 2.025 . S
O69 Sc67 2.025 . S
O69 Sc68 2.025 . S
C70 O76 1.268 . S
C70 O86 1.268 . S
C71 O77 1.268 . S
C71 O85 1.268 . S
C72 O78 1.268 . S
C72 O87 1.268 . S
C73 O79 1.268 . S
C73 O83 1.268 . S
C74 O80 1.268 . S
C74 O82 1.268 . S
C75 O81 1.268 . S
C75 O84 1.268 . S
O76 Sc66 2.105 . S
O76 C70 1.268 . S
O77 Sc67 2.105 . S
O77 C71 1.268 . S
O78 Sc68 2.105 . S
O78 C72 1.268 . S
O79 Sc66 2.105 . S
O79 C73 1.268 . S
O80 Sc68 2.105 . S
O80 C74 1.268 . S
O81 Sc67 2.105 . S
O81 C75 1.268 . S
O82 Sc66 2.105 . S
O82 C74 1.268 . S
O83 Sc67 2.105 . S
O83 C73 1.268 . S
O84 Sc68 2.105 . S
O84 C75 1.268 . S
O85 Sc66 2.105 . S
O85 C71 1.268 . S
O86 Sc68 2.105 . S
O86 C70 1.268 . S
O87 Sc67 2.105 . S
O87 C72 1.268 . S
Sc88 O91 2.025 . S
Sc88 O98 2.105 . S
Sc88 O101 2.105 . S
Sc88 O104 2.105 . S
Sc88 O107 2.105 . S
Sc89 O91 2.025 . S
Sc89 O99 2.105 . S
Sc89 O103 2.105 . S
Sc89 O105 2.105 . S
Sc89 O109 2.105 . S
Sc90 O91 2.025 . S
Sc90 O100 2.105 . S
Sc90 O102 2.105 . S
Sc90 O106 2.105 . S
Sc90 O108 2.105 . S
O91 Sc88 2.025 . S
O91 Sc89 2.025 . S
O91 Sc90 2.025 . S
C92 O98 1.268 . S
C92 O108 1.268 . S
C93 O99 1.268 . S
C93 O107 1.268 . S
C94 O100 1.268 . S
C94 O109 1.268 . S
C95 O101 1.268 . S
C95 O105 1.268 . S
C96 O102 1.268 . S
C96 O104 1.268 . S
C97 O103 1.268 . S
C97 O106 1.268 . S
O98 Sc88 2.105 . S
O98 C92 1.268 . S
O99 Sc89 2.105 . S
O99 C93 1.268 . S
O100 Sc90 2.105 . S
O100 C94 1.268 . S
O101 Sc88 2.105 . S
O101 C95 1.268 . S
O102 Sc90 2.105 . S
O102 C96 1.268 . S
O103 Sc89 2.105 . S
O103 C97 1.268 . S
O104 Sc88 2.105 . S
O104 C96 1.268 . S
O105 Sc89 2.105 . S
O105 C95 1.268 . S
O106 Sc90 2.105 . S
O106 C97 1.268 . S
O107 Sc88 2.105 . S
O107 C93 1.268 . S
O108 Sc90 2.105 . S
O108 C92 1.268 . S
O109 Sc89 2.105 . S
O109 C94 1.268 . S
Sc110 O113 2.025 . S
Sc110 O120 2.105 . S
Sc110 O123 2.105 . S
Sc110 O126 2.105 . S
Sc110 O129 2.105 . S
Sc111 O113 2.025 . S
Sc111 O121 2.105 . S
Sc111 O125 2.105 . S
Sc111 O127 2.105 . S
Sc111 O131 2.105 . S
Sc112 O113 2.025 . S
Sc112 O122 2.105 . S
Sc112 O124 2.105 . S
Sc112 O128 2.105 . S
Sc112 O130 2.105 . S
O113 Sc110 2.025 . S
O113 Sc111 2.025 . S
O113 Sc112 2.025 . S
C114 O120 1.268 . S
C114 O130 1.268 . S
C115 O121 1.268 . S
C115 O129 1.268 . S
C116 O122 1.268 . S
C116 O131 1.268 . S
C117 O123 1.268 . S
C117 O127 1.268 . S
C118 O124 1.268 . S
C118 O126 1.268 . S
C119 O125 1.268 . S
C119 O128 1.268 . S
O120 Sc110 2.105 . S
O120 C114 1.268 . S
O121 Sc111 2.105 . S
O121 C115 1.268 . S
O122 Sc112 2.105 . S
O122 C116 1.268 . S
O123 Sc110 2.105 . S
O123 C117 1.268 . S
O124 Sc112 2.105 . S
O124 C118 1.268 . S
O125 Sc111 2.105 . S
O125 C119 1.268 . S
O126 Sc110 2.105 . S
O126 C118 1.268 . S
O127 Sc111 2.105 . S
O127 C117 1.268 . S
O128 Sc112 2.105 . S
O128 C119 1.268 . S
O129 Sc110 2.105 . S
O129 C115 1.268 . S
O130 Sc112 2.105 . S
O130 C114 1.268 . S
O131 Sc111 2.105 . S
O131 C116 1.268 . S
Sc132 O135 2.025 . S
Sc132 O142 2.105 . S
Sc132 O145 2.105 . S
Sc132 O148 2.105 . S
Sc132 O151 2.105 . S
Sc133 O135 2.025 . S
Sc133 O143 2.105 . S
Sc133 O147 2.105 . S
Sc133 O149 2.105 . S
Sc133 O153 2.105 . S
Sc134 O135 2.025 . S
Sc134 O144 2.105 . S
Sc134 O146 2.105 . S
Sc134 O150 2.105 . S
Sc134 O152 2.105 . S
O135 Sc132 2.025 . S
O135 Sc133 2.025 . S
O135 Sc134 2.025 . S
C136 O142 1.268 . S
C136 O152 1.268 . S
C137 O143 1.268 . S
C137 O151 1.268 . S
C138 O144 1.268 . S
C138 O153 1.268 . S
C139 O145 1.268 . S
C139 O149 1.268 . S
C140 O146 1.268 . S
C140 O148 1.268 . S
C141 O147 1.268 . S
C141 O150 1.268 . S
O142 Sc132 2.105 . S
O142 C136 1.268 . S
O143 Sc133 2.105 . S
O143 C137 1.268 . S
O144 Sc134 2.105 . S
O144 C138 1.268 . S
O145 Sc132 2.105 . S
O145 C139 1.268 . S
O146 Sc134 2.105 . S
O146 C140 1.268 . S
O147 Sc133 2.105 . S
O147 C141 1.268 . S
O148 Sc132 2.105 . S
O148 C140 1.268 . S
O149 Sc133 2.105 . S
O149 C139 1.268 . S
O150 Sc134 2.105 . S
O150 C141 1.268 . S
O151 Sc132 2.105 . S
O151 C137 1.268 . S
O152 Sc134 2.105 . S
O152 C136 1.268 . S
O153 Sc133 2.105 . S
O153 C138 1.268 . S
Sc154 O157 2.025 . S
Sc154 O164 2.105 . S
Sc154 O167 2.105 . S
Sc154 O170 2.105 . S
Sc154 O173 2.105 . S
Sc155 O157 2.025 . S
Sc155 O165 2.105 . S
Sc155 O169 2.105 . S
Sc155 O171 2.105 . S
Sc155 O175 2.105 . S
Sc156 O157 2.025 . S
Sc156 O166 2.105 . S
Sc156 O168 2.105 . S
Sc156 O172 2.105 . S
Sc156 O174 2.105 . S
O157 Sc154 2.025 . S
O157 Sc155 2.025 . S
O157 Sc156 2.025 . S
C158 O164 1.268 . S
C158 O174 1.268 . S
C159 O165 1.268 . S
C159 O173 1.268 . S
C160 O166 1.268 . S
C160 O175 1.268 . S
C161 O167 1.268 . S
C161 O171 1.268 . S
C162 O168 1.268 . S
C162 O170 1.268 . S
C163 O169 1.268 . S
C163 O172 1.268 . S
O164 Sc154 2.105 . S
O164 C158 1.268 . S
O165 Sc155 2.105 . S
O165 C159 1.268 . S
O166 Sc156 2.105 . S
O166 C160 1.268 . S
O167 Sc154 2.105 . S
O167 C161 1.268 . S
O168 Sc156 2.105 . S
O168 C162 1.268 . S
O169 Sc155 2.105 . S
O169 C163 1.268 . S
O170 Sc154 2.105 . S
O170 C162 1.268 . S
O171 Sc155 2.105 . S
O171 C161 1.268 . S
O172 Sc156 2.105 . S
O172 C163 1.268 . S
O173 Sc154 2.105 . S
O173 C159 1.268 . S
O174 Sc156 2.105 . S
O174 C158 1.268 . S
O175 Sc155 2.105 . S
O175 C160 1.268 . S
Sc176 O179 2.025 . S
Sc176 O186 2.105 . S
Sc176 O189 2.105 . S
Sc176 O192 2.105 . S
Sc176 O195 2.105 . S
Sc177 O179 2.025 . S
Sc177 O187 2.105 . S
Sc177 O191 2.105 . S
Sc177 O193 2.105 . S
Sc177 O197 2.105 . S
Sc178 O179 2.025 . S
Sc178 O188 2.105 . S
Sc178 O190 2.105 . S
Sc178 O194 2.105 . S
Sc178 O196 2.105 . S
O179 Sc176 2.025 . S
O179 Sc177 2.025 . S
O179 Sc178 2.025 . S
C180 O186 1.268 . S
C180 O196 1.268 . S
C181 O187 1.268 . S
C181 O195 1.268 . S
C182 O188 1.268 . S
C182 O197 1.268 . S
C183 O189 1.268 . S
C183 O193 1.268 . S
C184 O190 1.268 . S
C184 O192 1.268 . S
C185 O191 1.268 . S
C185 O194 1.268 . S
O186 Sc176 2.105 . S
O186 C180 1.268 . S
O187 Sc177 2.105 . S
O187 C181 1.268 . S
O188 Sc178 2.105 . S
O188 C182 1.268 . S
O189 Sc176 2.105 . S
O189 C183 1.268 . S
O190 Sc178 2.105 . S
O190 C184 1.268 . S
O191 Sc177 2.105 . S
O191 C185 1.268 . S
O192 Sc176 2.105 . S
O192 C184 1.268 . S
O193 Sc177 2.105 . S
O193 C183 1.268 . S
O194 Sc178 2.105 . S
O194 C185 1.268 . S
O195 Sc176 2.105 . S
O195 C181 1.268 . S
O196 Sc178 2.105 . S
O196 C180 1.268 . S
O197 Sc177 2.105 . S
O197 C182 1.268 . S
Sc198 O201 2.025 . S
Sc198 O208 2.105 . S
Sc198 O211 2.105 . S
Sc198 O214 2.105 . S
Sc198 O217 2.105 . S
Sc199 O201 2.025 . S
Sc199 O209 2.105 . S
Sc199 O213 2.105 . S
Sc199 O215 2.105 . S
Sc199 O219 2.105 . S
Sc200 O201 2.025 . S
Sc200 O210 2.105 . S
Sc200 O212 2.105 . S
Sc200 O216 2.105 . S
Sc200 O218 2.105 . S
O201 Sc198 2.025 . S
O201 Sc199 2.025 . S
O201 Sc200 2.025 . S
C202 O208 1.268 . S
C202 O218 1.268 . S
C203 O209 1.268 . S
C203 O217 1.268 . S
C204 O210 1.268 . S
C204 O219 1.268 . S
C205 O211 1.268 . S
C205 O215 1.268 . S
C206 O212 1.268 . S
C206 O214 1.268 . S
C207 O213 1.268 . S
C207 O216 1.268 . S
O208 Sc198 2.105 . S
O208 C202 1.268 . S
O209 Sc199 2.105 . S
O209 C203 1.268 . S
O210 Sc200 2.105 . S
O210 C204 1.268 . S
O211 Sc198 2.105 . S
O211 C205 1.268 . S
O212 Sc200 2.105 . S
O212 C206 1.268 . S
O213 Sc199 2.105 . S
O213 C207 1.268 . S
O214 Sc198 2.105 . S
O214 C206 1.268 . S
O215 Sc199 2.105 . S
O215 C205 1.268 . S
O216 Sc200 2.105 . S
O216 C207 1.268 . S
O217 Sc198 2.105 . S
O217 C203 1.268 . S
O218 Sc200 2.105 . S
O218 C202 1.268 . S
O219 Sc199 2.105 . S
O219 C204 1.268 . S
Sc220 O223 2.025 . S
Sc220 O230 2.105 . S
Sc220 O233 2.105 . S
Sc220 O236 2.105 . S
Sc220 O239 2.105 . S
Sc221 O223 2.025 . S
Sc221 O231 2.105 . S
Sc221 O235 2.105 . S
Sc221 O237 2.105 . S
Sc221 O241 2.105 . S
Sc222 O223 2.025 . S
Sc222 O232 2.105 . S
Sc222 O234 2.105 . S
Sc222 O238 2.105 . S
Sc222 O240 2.105 . S
O223 Sc220 2.025 . S
O223 Sc221 2.025 . S
O223 Sc222 2.025 . S
C224 O230 1.268 . S
C224 O240 1.268 . S
C225 O231 1.268 . S
C225 O239 1.268 . S
C226 O232 1.268 . S
C226 O241 1.268 . S
C227 O233 1.268 . S
C227 O237 1.268 . S
C228 O234 1.268 . S
C228 O236 1.268 . S
C229 O235 1.268 . S
C229 O238 1.268 . S
O230 Sc220 2.105 . S
O230 C224 1.268 . S
O231 Sc221 2.105 . S
O231 C225 1.268 . S
O232 Sc222 2.105 . S
O232 C226 1.268 . S
O233 Sc220 2.105 . S
O233 C227 1.268 . S
O234 Sc222 2.105 . S
O234 C228 1.268 . S
O235 Sc221 2.105 . S
O235 C229 1.268 . S
O236 Sc220 2.105 . S
O236 C228 1.268 . S
O237 Sc221 2.105 . S
O237 C227 1.268 . S
O238 Sc222 2.105 . S
O238 C229 1.268 . S
O239 Sc220 2.105 . S
O239 C225 1.268 . S
O240 Sc222 2.105 . S
O240 C224 1.268 . S
O241 Sc221 2.105 . S
O241 C226 1.268 . S
Sc242 O245 2.025 . S
Sc242 O252 2.105 . S
Sc242 O255 2.105 . S
Sc242 O258 2.105 . S
Sc242 O261 2.105 . S
Sc243 O245 2.025 . S
Sc243 O253 2.105 . S
Sc243 O257 2.105 . S
Sc243 O259 2.105 . S
Sc243 O263 2.105 . S
Sc244 O245 2.025 . S
Sc244 O254 2.105 . S
Sc244 O256 2.105 . S
Sc244 O260 2.105 . S
Sc244 O262 2.105 . S
O245 Sc242 2.025 . S
O245 Sc243 2.025 . S
O245 Sc244 2.025 . S
C246 O252 1.268 . S
C246 O262 1.268 . S
C247 O253 1.268 . S
C247 O261 1.268 . S
C248 O254 1.268 . S
C248 O263 1.268 . S
C249 O255 1.268 . S
C249 O259 1.268 . S
C250 O256 1.268 . S
C250 O258 1.268 . S
C251 O257 1.268 . S
C251 O260 1.268 . S
O252 Sc242 2.105 . S
O252 C246 1.268 . S
O253 Sc243 2.105 . S
O253 C247 1.268 . S
O254 Sc244 2.105 . S
O254 C248 1.268 . S
O255 Sc242 2.105 . S
O255 C249 1.268 . S
O256 Sc244 2.105 . S
O256 C250 1.268 . S
O257 Sc243 2.105 . S
O257 C251 1.268 . S
O258 Sc242 2.105 . S
O258 C250 1.268 . S
O259 Sc243 2.105 . S
O259 C249 1.268 . S
O260 Sc244 2.105 . S
O260 C251 1.268 . S
O261 Sc242 2.105 . S
O261 C247 1.268 . S
O262 Sc244 2.105 . S
O262 C246 1.268 . S
O263 Sc243 2.105 . S
O263 C248 1.268 . S
Sc264 O267 2.025 . S
Sc264 O274 2.105 . S
Sc264 O277 2.105 . S
Sc264 O280 2.105 . S
Sc264 O283 2.105 . S
Sc265 O267 2.025 . S
Sc265 O275 2.105 . S
Sc265 O279 2.105 . S
Sc265 O281 2.105 . S
Sc265 O285 2.105 . S
Sc266 O267 2.025 . S
Sc266 O276 2.105 . S
Sc266 O278 2.105 . S
Sc266 O282 2.105 . S
Sc266 O284 2.105 . S
O267 Sc264 2.025 . S
O267 Sc265 2.025 . S
O267 Sc266 2.025 . S
C268 O274 1.268 . S
C268 O284 1.268 . S
C269 O275 1.268 . S
C269 O283 1.268 . S
C270 O276 1.268 . S
C270 O285 1.268 . S
C271 O277 1.268 . S
C271 O281 1.268 . S
C272 O278 1.268 . S
C272 O280 1.268 . S
C273 O279 1.268 . S
C273 O282 1.268 . S
O274 Sc264 2.105 . S
O274 C268 1.268 . S
O275 Sc265 2.105 . S
O275 C269 1.268 . S
O276 Sc266 2.105 . S
O276 C270 1.268 . S
O277 Sc264 2.105 . S
O277 C271 1.268 . S
O278 Sc266 2.105 . S
O278 C272 1.268 . S
O279 Sc265 2.105 . S
O279 C273 1.268 . S
O280 Sc264 2.105 . S
O280 C272 1.268 . S
O281 Sc265 2.105 . S
O281 C271 1.268 . S
O282 Sc266 2.105 . S
O282 C273 1.268 . S
O283 Sc264 2.105 . S
O283 C269 1.268 . S
O284 Sc266 2.105 . S
O284 C268 1.268 . S
O285 Sc265 2.105 . S
O285 C270 1.268 . S
Sc286 O289 2.025 . S
Sc286 O296 2.105 . S
Sc286 O299 2.105 . S
Sc286 O302 2.105 . S
Sc286 O305 2.105 . S
Sc287 O289 2.025 . S
Sc287 O297 2.105 . S
Sc287 O301 2.105 . S
Sc287 O303 2.105 . S
Sc287 O307 2.105 . S
Sc288 O289 2.025 . S
Sc288 O298 2.105 . S
Sc288 O300 2.105 . S
Sc288 O304 2.105 . S
Sc288 O306 2.105 . S
O289 Sc286 2.025 . S
O289 Sc287 2.025 . S
O289 Sc288 2.025 . S
C290 O296 1.268 . S
C290 O306 1.268 . S
C291 O297 1.268 . S
C291 O305 1.268 . S
C292 O298 1.268 . S
C292 O307 1.268 . S
C293 O299 1.268 . S
C293 O303 1.268 . S
C294 O300 1.268 . S
C294 O302 1.268 . S
C295 O301 1.268 . S
C295 O304 1.268 . S
O296 Sc286 2.105 . S
O296 C290 1.268 . S
O297 Sc287 2.105 . S
O297 C291 1.268 . S
O298 Sc288 2.105 . S
O298 C292 1.268 . S
O299 Sc286 2.105 . S
O299 C293 1.268 . S
O300 Sc288 2.105 . S
O300 C294 1.268 . S
O301 Sc287 2.105 . S
O301 C295 1.268 . S
O302 Sc286 2.105 . S
O302 C294 1.268 . S
O303 Sc287 2.105 . S
O303 C293 1.268 . S
O304 Sc288 2.105 . S
O304 C295 1.268 . S
O305 Sc286 2.105 . S
O305 C291 1.268 . S
O306 Sc288 2.105 . S
O306 C290 1.268 . S
O307 Sc287 2.105 . S
O307 C292 1.268 . S
Sc308 O311 2.025 . S
Sc308 O318 2.105 . S
Sc308 O321 2.105 . S
Sc308 O324 2.105 . S
Sc308 O327 2.105 . S
Sc309 O311 2.025 . S
Sc309 O319 2.105 . S
Sc309 O323 2.105 . S
Sc309 O325 2.105 . S
Sc309 O329 2.105 . S
Sc310 O311 2.025 . S
Sc310 O320 2.105 . S
Sc310 O322 2.105 . S
Sc310 O326 2.105 . S
Sc310 O328 2.105 . S
O311 Sc308 2.025 . S
O311 Sc309 2.025 . S
O311 Sc310 2.025 . S
C312 O318 1.268 . S
C312 O328 1.268 . S
C313 O319 1.268 . S
C313 O327 1.268 . S
C314 O320 1.268 . S
C314 O329 1.268 . S
C315 O321 1.268 . S
C315 O325 1.268 . S
C316 O322 1.268 . S
C316 O324 1.268 . S
C317 O323 1.268 . S
C317 O326 1.268 . S
O318 Sc308 2.105 . S
O318 C312 1.268 . S
O319 Sc309 2.105 . S
O319 C313 1.268 . S
O320 Sc310 2.105 . S
O320 C314 1.268 . S
O321 Sc308 2.105 . S
O321 C315 1.268 . S
O322 Sc310 2.105 . S
O322 C316 1.268 . S
O323 Sc309 2.105 . S
O323 C317 1.268 . S
O324 Sc308 2.105 . S
O324 C316 1.268 . S
O325 Sc309 2.105 . S
O325 C315 1.268 . S
O326 Sc310 2.105 . S
O326 C317 1.268 . S
O327 Sc308 2.105 . S
O327 C313 1.268 . S
O328 Sc310 2.105 . S
O328 C312 1.268 . S
O329 Sc309 2.105 . S
O329 C314 1.268 . S
Sc330 O333 2.025 . S
Sc330 O340 2.105 . S
Sc330 O343 2.105 . S
Sc330 O346 2.105 . S
Sc330 O349 2.105 . S
Sc331 O333 2.025 . S
Sc331 O341 2.105 . S
Sc331 O345 2.105 . S
Sc331 O347 2.105 . S
Sc331 O351 2.105 . S
Sc332 O333 2.025 . S
Sc332 O342 2.105 . S
Sc332 O344 2.105 . S
Sc332 O348 2.105 . S
Sc332 O350 2.105 . S
O333 Sc330 2.025 . S
O333 Sc331 2.025 . S
O333 Sc332 2.025 . S
C334 O340 1.268 . S
C334 O350 1.268 . S
C335 O341 1.268 . S
C335 O349 1.268 . S
C336 O342 1.268 . S
C336 O351 1.268 . S
C337 O343 1.268 . S
C337 O347 1.268 . S
C338 O344 1.268 . S
C338 O346 1.268 . S
C339 O345 1.268 . S
C339 O348 1.268 . S
O340 Sc330 2.105 . S
O340 C334 1.268 . S
O341 Sc331 2.105 . S
O341 C335 1.268 . S
O342 Sc332 2.105 . S
O342 C336 1.268 . S
O343 Sc330 2.105 . S
O343 C337 1.268 . S
O344 Sc332 2.105 . S
O344 C338 1.268 . S
O345 Sc331 2.105 . S
O345 C339 1.268 . S
O346 Sc330 2.105 . S
O346 C338 1.268 . S
O347 Sc331 2.105 . S
O347 C337 1.268 . S
O348 Sc332 2.105 . S
O348 C339 1.268 . S
O349 Sc330 2.105 . S
O349 C335 1.268 . S
O350 Sc332 2.105 . S
O350 C334 1.268 . S
O351 Sc331 2.105 . S
O351 C336 1.268 . S
Sc352 O355 2.025 . S
Sc352 O362 2.105 . S
Sc352 O365 2.105 . S
Sc352 O368 2.105 . S
Sc352 O371 2.105 . S
Sc353 O355 2.025 . S
Sc353 O363 2.105 . S
Sc353 O367 2.105 . S
Sc353 O369 2.105 . S
Sc353 O373 2.105 . S
Sc354 O355 2.025 . S
Sc354 O364 2.105 . S
Sc354 O366 2.105 . S
Sc354 O370 2.105 . S
Sc354 O372 2.105 . S
O355 Sc352 2.025 . S
O355 Sc353 2.025 . S
O355 Sc354 2.025 . S
C356 O362 1.268 . S
C356 O372 1.268 . S
C357 O363 1.268 . S
C357 O371 1.268 . S
C358 O364 1.268 . S
C358 O373 1.268 . S
C359 O365 1.268 . S
C359 O369 1.268 . S
C360 O366 1.268 . S
C360 O368 1.268 . S
C361 O367 1.268 . S
C361 O370 1.268 . S
O362 Sc352 2.105 . S
O362 C356 1.268 . S
O363 Sc353 2.105 . S
O363 C357 1.268 . S
O364 Sc354 2.105 . S
O364 C358 1.268 . S
O365 Sc352 2.105 . S
O365 C359 1.268 . S
O366 Sc354 2.105 . S
O366 C360 1.268 . S
O367 Sc353 2.105 . S
O367 C361 1.268 . S
O368 Sc352 2.105 . S
O368 C360 1.268 . S
O369 Sc353 2.105 . S
O369 C359 1.268 . S
O370 Sc354 2.105 . S
O370 C361 1.268 . S
O371 Sc352 2.105 . S
O371 C357 1.268 . S
O372 Sc354 2.105 . S
O372 C356 1.268 . S
O373 Sc353 2.105 . S
O373 C358 1.268 . S
Sc374 O377 2.025 . S
Sc374 O384 2.105 . S
Sc374 O387 2.105 . S
Sc374 O390 2.105 . S
Sc374 O393 2.105 . S
Sc375 O377 2.025 . S
Sc375 O385 2.105 . S
Sc375 O389 2.105 . S
Sc375 O391 2.105 . S
Sc375 O395 2.105 . S
Sc376 O377 2.025 . S
Sc376 O386 2.105 . S
Sc376 O388 2.105 . S
Sc376 O392 2.105 . S
Sc376 O394 2.105 . S
O377 Sc374 2.025 . S
O377 Sc375 2.025 . S
O377 Sc376 2.025 . S
C378 O384 1.268 . S
C378 O394 1.268 . S
C379 O385 1.268 . S
C379 O393 1.268 . S
C380 O386 1.268 . S
C380 O395 1.268 . S
C381 O387 1.268 . S
C381 O391 1.268 . S
C382 O388 1.268 . S
C382 O390 1.268 . S
C383 O389 1.268 . S
C383 O392 1.268 . S
O384 Sc374 2.105 . S
O384 C378 1.268 . S
O385 Sc375 2.105 . S
O385 C379 1.268 . S
O386 Sc376 2.105 . S
O386 C380 1.268 . S
O387 Sc374 2.105 . S
O387 C381 1.268 . S
O388 Sc376 2.105 . S
O388 C382 1.268 . S
O389 Sc375 2.105 . S
O389 C383 1.268 . S
O390 Sc374 2.105 . S
O390 C382 1.268 . S
O391 Sc375 2.105 . S
O391 C381 1.268 . S
O392 Sc376 2.105 . S
O392 C383 1.268 . S
O393 Sc374 2.105 . S
O393 C379 1.268 . S
O394 Sc376 2.105 . S
O394 C378 1.268 . S
O395 Sc375 2.105 . S
O395 C380 1.268 . S
Sc396 O399 2.025 . S
Sc396 O406 2.105 . S
Sc396 O409 2.105 . S
Sc396 O412 2.105 . S
Sc396 O415 2.105 . S
Sc397 O399 2.025 . S
Sc397 O407 2.105 . S
Sc397 O411 2.105 . S
Sc397 O413 2.105 . S
Sc397 O417 2.105 . S
Sc398 O399 2.025 . S
Sc398 O408 2.105 . S
Sc398 O410 2.105 . S
Sc398 O414 2.105 . S
Sc398 O416 2.105 . S
O399 Sc396 2.025 . S
O399 Sc397 2.025 . S
O399 Sc398 2.025 . S
C400 O406 1.268 . S
C400 O416 1.268 . S
C401 O407 1.268 . S
C401 O415 1.268 . S
C402 O408 1.268 . S
C402 O417 1.268 . S
C403 O409 1.268 . S
C403 O413 1.268 . S
C404 O410 1.268 . S
C404 O412 1.268 . S
C405 O411 1.268 . S
C405 O414 1.268 . S
O406 Sc396 2.105 . S
O406 C400 1.268 . S
O407 Sc397 2.105 . S
O407 C401 1.268 . S
O408 Sc398 2.105 . S
O408 C402 1.268 . S
O409 Sc396 2.105 . S
O409 C403 1.268 . S
O410 Sc398 2.105 . S
O410 C404 1.268 . S
O411 Sc397 2.105 . S
O411 C405 1.268 . S
O412 Sc396 2.105 . S
O412 C404 1.268 . S
O413 Sc397 2.105 . S
O413 C403 1.268 . S
O414 Sc398 2.105 . S
O414 C405 1.268 . S
O415 Sc396 2.105 . S
O415 C401 1.268 . S
O416 Sc398 2.105 . S
O416 C400 1.268 . S
O417 Sc397 2.105 . S
O417 C402 1.268 . S
Sc418 O421 2.025 . S
Sc418 O428 2.105 . S
Sc418 O431 2.105 . S
Sc418 O434 2.105 . S
Sc418 O437 2.105 . S
Sc419 O421 2.025 . S
Sc419 O429 2.105 . S
Sc419 O433 2.105 . S
Sc419 O435 2.105 . S
Sc419 O439 2.105 . S
Sc420 O421 2.025 . S
Sc420 O430 2.105 . S
Sc420 O432 2.105 . S
Sc420 O436 2.105 . S
Sc420 O438 2.105 . S
O421 Sc418 2.025 . S
O421 Sc419 2.025 . S
O421 Sc420 2.025 . S
C422 O428 1.268 . S
C422 O438 1.268 . S
C423 O429 1.268 . S
C423 O437 1.268 . S
C424 O430 1.268 . S
C424 O439 1.268 . S
C425 O431 1.268 . S
C425 O435 1.268 . S
C426 O432 1.268 . S
C426 O434 1.268 . S
C427 O433 1.268 . S
C427 O436 1.268 . S
O428 Sc418 2.105 . S
O428 C422 1.268 . S
O429 Sc419 2.105 . S
O429 C423 1.268 . S
O430 Sc420 2.105 . S
O430 C424 1.268 . S
O431 Sc418 2.105 . S
O431 C425 1.268 . S
O432 Sc420 2.105 . S
O432 C426 1.268 . S
O433 Sc419 2.105 . S
O433 C427 1.268 . S
O434 Sc418 2.105 . S
O434 C426 1.268 . S
O435 Sc419 2.105 . S
O435 C425 1.268 . S
O436 Sc420 2.105 . S
O436 C427 1.268 . S
O437 Sc418 2.105 . S
O437 C423 1.268 . S
O438 Sc420 2.105 . S
O438 C422 1.268 . S
O439 Sc419 2.105 . S
O439 C424 1.268 . S
Sc440 O443 2.025 . S
Sc440 O450 2.105 . S
Sc440 O453 2.105 . S
Sc440 O456 2.105 . S
Sc440 O459 2.105 . S
Sc441 O443 2.025 . S
Sc441 O451 2.105 . S
Sc441 O455 2.105 . S
Sc441 O457 2.105 . S
Sc441 O461 2.105 . S
Sc442 O443 2.025 . S
Sc442 O452 2.105 . S
Sc442 O454 2.105 . S
Sc442 O458 2.105 . S
Sc442 O460 2.105 . S
O443 Sc440 2.025 . S
O443 Sc441 2.025 . S
O443 Sc442 2.025 . S
C444 O450 1.268 . S
C444 O460 1.268 . S
C445 O451 1.268 . S
C445 O459 1.268 . S
C446 O452 1.268 . S
C446 O461 1.268 . S
C447 O453 1.268 . S
C447 O457 1.268 . S
C448 O454 1.268 . S
C448 O456 1.268 . S
C449 O455 1.268 . S
C449 O458 1.268 . S
O450 Sc440 2.105 . S
O450 C444 1.268 . S
O451 Sc441 2.105 . S
O451 C445 1.268 . S
O452 Sc442 2.105 . S
O452 C446 1.268 . S
O453 Sc440 2.105 . S
O453 C447 1.268 . S
O454 Sc442 2.105 . S
O454 C448 1.268 . S
O455 Sc441 2.105 . S
O455 C449 1.268 . S
O456 Sc440 2.105 . S
O456 C448 1.268 . S
O457 Sc441 2.105 . S
O457 C447 1.268 . S
O458 Sc442 2.105 . S
O458 C449 1.268 . S
O459 Sc440 2.105 . S
O459 C445 1.268 . S
O460 Sc442 2.105 . S
O460 C444 1.268 . S
O461 Sc441 2.105 . S
O461 C446 1.268 . S
Sc462 O465 2.025 . S
Sc462 O472 2.105 . S
Sc462 O475 2.105 . S
Sc462 O478 2.105 . S
Sc462 O481 2.105 . S
Sc463 O465 2.025 . S
Sc463 O473 2.105 . S
Sc463 O477 2.105 . S
Sc463 O479 2.105 . S
Sc463 O483 2.105 . S
Sc464 O465 2.025 . S
Sc464 O474 2.105 . S
Sc464 O476 2.105 . S
Sc464 O480 2.105 . S
Sc464 O482 2.105 . S
O465 Sc462 2.025 . S
O465 Sc463 2.025 . S
O465 Sc464 2.025 . S
C466 O472 1.268 . S
C466 O482 1.268 . S
C467 O473 1.268 . S
C467 O481 1.268 . S
C468 O474 1.268 . S
C468 O483 1.268 . S
C469 O475 1.268 . S
C469 O479 1.268 . S
C470 O476 1.268 . S
C470 O478 1.268 . S
C471 O477 1.268 . S
C471 O480 1.268 . S
O472 Sc462 2.105 . S
O472 C466 1.268 . S
O473 Sc463 2.105 . S
O473 C467 1.268 . S
O474 Sc464 2.105 . S
O474 C468 1.268 . S
O475 Sc462 2.105 . S
O475 C469 1.268 . S
O476 Sc464 2.105 . S
O476 C470 1.268 . S
O477 Sc463 2.105 . S
O477 C471 1.268 . S
O478 Sc462 2.105 . S
O478 C470 1.268 . S
O479 Sc463 2.105 . S
O479 C469 1.268 . S
O480 Sc464 2.105 . S
O480 C471 1.268 . S
O481 Sc462 2.105 . S
O481 C467 1.268 . S
O482 Sc464 2.105 . S
O482 C466 1.268 . S
O483 Sc463 2.105 . S
O483 C468 1.268 . S
Sc484 O487 2.025 . S
Sc484 O494 2.105 . S
Sc484 O497 2.105 . S
Sc484 O500 2.105 . S
Sc484 O503 2.105 . S
Sc485 O487 2.025 . S
Sc485 O495 2.105 . S
Sc485 O499 2.105 . S
Sc485 O501 2.105 . S
Sc485 O505 2.105 . S
Sc486 O487 2.025 . S
Sc486 O496 2.105 . S
Sc486 O498 2.105 . S
Sc486 O502 2.105 . S
Sc486 O504 2.105 . S
O487 Sc484 2.025 . S
O487 Sc485 2.025 . S
O487 Sc486 2.025 . S
C488 O494 1.268 . S
C488 O504 1.268 . S
C489 O495 1.268 . S
C489 O503 1.268 . S
C490 O496 1.268 . S
C490 O505 1.268 . S
C491 O497 1.268 . S
C491 O501 1.268 . S
C492 O498 1.268 . S
C492 O500 1.268 . S
C493 O499 1.268 . S
C493 O502 1.268 . S
O494 Sc484 2.105 . S
O494 C488 1.268 . S
O495 Sc485 2.105 . S
O495 C489 1.268 . S
O496 Sc486 2.105 . S
O496 C490 1.268 . S
O497 Sc484 2.105 . S
O497 C491 1.268 . S
O498 Sc486 2.105 . S
O498 C492 1.268 . S
O499 Sc485 2.105 . S
O499 C493 1.268 . S
O500 Sc484 2.105 . S
O500 C492 1.268 . S
O501 Sc485 2.105 . S
O501 C491 1.268 . S
O502 Sc486 2.105 . S
O502 C493 1.268 . S
O503 Sc484 2.105 . S
O503 C489 1.268 . S
O504 Sc486 2.105 . S
O504 C488 1.268 . S
O505 Sc485 2.105 . S
O505 C490 1.268 . S
Sc506 O509 2.025 . S
Sc506 O516 2.105 . S
Sc506 O519 2.105 . S
Sc506 O522 2.105 . S
Sc506 O525 2.105 . S
Sc507 O509 2.025 . S
Sc507 O517 2.105 . S
Sc507 O521 2.105 . S
Sc507 O523 2.105 . S
Sc507 O527 2.105 . S
Sc508 O509 2.025 . S
Sc508 O518 2.105 . S
Sc508 O520 2.105 . S
Sc508 O524 2.105 . S
Sc508 O526 2.105 . S
O509 Sc506 2.025 . S
O509 Sc507 2.025 . S
O509 Sc508 2.025 . S
C510 O516 1.268 . S
C510 O526 1.268 . S
C511 O517 1.268 . S
C511 O525 1.268 . S
C512 O518 1.268 . S
C512 O527 1.268 . S
C513 O519 1.268 . S
C513 O523 1.268 . S
C514 O520 1.268 . S
C514 O522 1.268 . S
C515 O521 1.268 . S
C515 O524 1.268 . S
O516 Sc506 2.105 . S
O516 C510 1.268 . S
O517 Sc507 2.105 . S
O517 C511 1.268 . S
O518 Sc508 2.105 . S
O518 C512 1.268 . S
O519 Sc506 2.105 . S
O519 C513 1.268 . S
O520 Sc508 2.105 . S
O520 C514 1.268 . S
O521 Sc507 2.105 . S
O521 C515 1.268 . S
O522 Sc506 2.105 . S
O522 C514 1.268 . S
O523 Sc507 2.105 . S
O523 C513 1.268 . S
O524 Sc508 2.105 . S
O524 C515 1.268 . S
O525 Sc506 2.105 . S
O525 C511 1.268 . S
O526 Sc508 2.105 . S
O526 C510 1.268 . S
O527 Sc507 2.105 . S
O527 C512 1.268 . S
H528 C536 0.950 . S
H529 C541 0.950 . S
H530 C538 0.950 . S
H531 C540 0.950 . S
H532 C542 0.950 . S
H533 C544 0.950 . S
H534 C546 0.950 . S
H535 C547 0.950 . S
C536 H528 0.950 . S
C536 C537 1.386 . S
C536 C538 1.391 . S
C537 C536 1.386 . S
C537 C541 1.393 . S
C538 H530 0.950 . S
C538 C536 1.391 . S
C538 C539 1.400 . S
C539 C538 1.400 . S
C539 C540 1.398 . S
C539 C545 1.491 . S
C540 H531 0.950 . S
C540 C539 1.398 . S
C540 C541 1.391 . S
C541 H529 0.950 . S
C541 C537 1.393 . S
C541 C540 1.391 . S
C542 H532 0.950 . S
C542 C543 1.386 . S
C542 C544 1.391 . S
C543 C542 1.386 . S
C543 C547 1.393 . S
C544 H533 0.950 . S
C544 C542 1.391 . S
C544 C545 1.400 . S
C545 C539 1.491 . S
C545 C544 1.400 . S
C545 C546 1.398 . S
C546 H534 0.950 . S
C546 C545 1.398 . S
C546 C547 1.391 . S
C547 H535 0.950 . S
C547 C543 1.393 . S
C547 C546 1.391 . S
H548 C556 0.950 . S
H549 C561 0.950 . S
H550 C558 0.950 . S
H551 C560 0.950 . S
H552 C562 0.950 . S
H553 C564 0.950 . S
H554 C566 0.950 . S
H555 C567 0.950 . S
C556 H548 0.950 . S
C556 C557 1.386 . S
C556 C558 1.391 . S
C557 C556 1.386 . S
C557 C561 1.393 . S
C558 H550 0.950 . S
C558 C556 1.391 . S
C558 C559 1.400 . S
C559 C558 1.400 . S
C559 C560 1.398 . S
C559 C565 1.491 . S
C560 H551 0.950 . S
C560 C559 1.398 . S
C560 C561 1.391 . S
C561 H549 0.950 . S
C561 C557 1.393 . S
C561 C560 1.391 . S
C562 H552 0.950 . S
C562 C563 1.386 . S
C562 C564 1.391 . S
C563 C562 1.386 . S
C563 C567 1.393 . S
C564 H553 0.950 . S
C564 C562 1.391 . S
C564 C565 1.400 . S
C565 C559 1.491 . S
C565 C564 1.400 . S
C565 C566 1.398 . S
C566 H554 0.950 . S
C566 C565 1.398 . S
C566 C567 1.391 . S
C567 H555 0.950 . S
C567 C563 1.393 . S
C567 C566 1.391 . S
H568 C576 0.950 . S
H569 C581 0.950 . S
H570 C578 0.950 . S
H571 C580 0.950 . S
H572 C582 0.950 . S
H573 C584 0.950 . S
H574 C586 0.950 . S
H575 C587 0.950 . S
C576 H568 0.950 . S
C576 C577 1.386 . S
C576 C578 1.391 . S
C577 C576 1.386 . S
C577 C581 1.393 . S
C578 H570 0.950 . S
C578 C576 1.391 . S
C578 C579 1.400 . S
C579 C578 1.400 . S
C579 C580 1.398 . S
C579 C585 1.491 . S
C580 H571 0.950 . S
C580 C579 1.398 . S
C580 C581 1.391 . S
C581 H569 0.950 . S
C581 C577 1.393 . S
C581 C580 1.391 . S
C582 H572 0.950 . S
C582 C583 1.386 1_565 S
C582 C584 1.391 . S
C583 C582 1.386 1_545 S
C583 C587 1.393 . S
C584 H573 0.950 . S
C584 C582 1.391 . S
C584 C585 1.400 . S
C585 C579 1.491 . S
C585 C584 1.400 . S
C585 C586 1.398 . S
C586 H574 0.950 . S
C586 C585 1.398 . S
C586 C587 1.391 1_565 S
C587 H575 0.950 . S
C587 C583 1.393 . S
C587 C586 1.391 1_545 S
H588 C596 0.950 . S
H589 C601 0.950 . S
H590 C598 0.950 . S
H591 C600 0.950 . S
H592 C602 0.950 . S
H593 C604 0.950 . S
H594 C606 0.950 . S
H595 C607 0.950 . S
C596 H588 0.950 . S
C596 C597 1.386 1_545 S
C596 C598 1.391 . S
C597 C596 1.386 1_565 S
C597 C601 1.393 . S
C598 H590 0.950 . S
C598 C596 1.391 . S
C598 C599 1.400 . S
C599 C598 1.400 . S
C599 C600 1.398 . S
C599 C605 1.491 . S
C600 H591 0.950 . S
C600 C599 1.398 . S
C600 C601 1.391 1_545 S
C601 H589 0.950 . S
C601 C597 1.393 . S
C601 C600 1.391 1_565 S
C602 H592 0.950 . S
C602 C603 1.386 . S
C602 C604 1.391 . S
C603 C602 1.386 . S
C603 C607 1.393 . S
C604 H593 0.950 . S
C604 C602 1.391 . S
C604 C605 1.400 . S
C605 C599 1.491 . S
C605 C604 1.400 . S
C605 C606 1.398 . S
C606 H594 0.950 . S
C606 C605 1.398 . S
C606 C607 1.391 . S
C607 H595 0.950 . S
C607 C603 1.393 . S
C607 C606 1.391 . S
H608 C616 0.950 . S
H609 C621 0.950 . S
H610 C618 0.950 . S
H611 C620 0.950 . S
H612 C622 0.950 . S
H613 C624 0.950 . S
H614 C626 0.950 . S
H615 C627 0.950 . S
C616 H608 0.950 . S
C616 C617 1.386 . S
C616 C618 1.391 . S
C617 C616 1.386 . S
C617 C621 1.393 . S
C618 H610 0.950 . S
C618 C616 1.391 . S
C618 C619 1.400 . S
C619 C618 1.400 . S
C619 C620 1.398 . S
C619 C625 1.491 . S
C620 H611 0.950 . S
C620 C619 1.398 . S
C620 C621 1.391 . S
C621 H609 0.950 . S
C621 C617 1.393 . S
C621 C620 1.391 . S
C622 H612 0.950 . S
C622 C623 1.386 . S
C622 C624 1.391 . S
C623 C622 1.386 . S
C623 C627 1.393 . S
C624 H613 0.950 . S
C624 C622 1.391 . S
C624 C625 1.400 . S
C625 C619 1.491 . S
C625 C624 1.400 . S
C625 C626 1.398 . S
C626 H614 0.950 . S
C626 C625 1.398 . S
C626 C627 1.391 . S
C627 H615 0.950 . S
C627 C623 1.393 . S
C627 C626 1.391 . S
H628 C636 0.950 . S
H629 C641 0.950 . S
H630 C638 0.950 . S
H631 C640 0.950 . S
H632 C642 0.950 . S
H633 C644 0.950 . S
H634 C646 0.950 . S
H635 C647 0.950 . S
C636 H628 0.950 . S
C636 C637 1.386 . S
C636 C638 1.391 . S
C637 C636 1.386 . S
C637 C641 1.393 . S
C638 H630 0.950 . S
C638 C636 1.391 . S
C638 C639 1.400 . S
C639 C638 1.400 . S
C639 C640 1.398 . S
C639 C645 1.491 . S
C640 H631 0.950 . S
C640 C639 1.398 . S
C640 C641 1.391 . S
C641 H629 0.950 . S
C641 C637 1.393 . S
C641 C640 1.391 . S
C642 H632 0.950 . S
C642 C643 1.386 . S
C642 C644 1.391 . S
C643 C642 1.386 . S
C643 C647 1.393 1_556 S
C644 H633 0.950 . S
C644 C642 1.391 . S
C644 C645 1.400 1_556 S
C645 C639 1.491 . S
C645 C644 1.400 1_554 S
C645 C646 1.398 . S
C646 H634 0.950 . S
C646 C645 1.398 . S
C646 C647 1.391 . S
C647 H635 0.950 . S
C647 C643 1.393 1_554 S
C647 C646 1.391 . S
H648 C656 0.950 . S
H649 C661 0.950 . S
H650 C658 0.950 . S
H651 C660 0.950 . S
H652 C662 0.950 . S
H653 C664 0.950 . S
H654 C666 0.950 . S
H655 C667 0.950 . S
C656 H648 0.950 . S
C656 C657 1.386 . S
C656 C658 1.391 . S
C657 C656 1.386 . S
C657 C661 1.393 . S
C658 H650 0.950 . S
C658 C656 1.391 . S
C658 C659 1.400 . S
C659 C658 1.400 . S
C659 C660 1.398 . S
C659 C665 1.491 . S
C660 H651 0.950 . S
C660 C659 1.398 . S
C660 C661 1.391 . S
C661 H649 0.950 . S
C661 C657 1.393 . S
C661 C660 1.391 . S
C662 H652 0.950 . S
C662 C663 1.386 . S
C662 C664 1.391 . S
C663 C662 1.386 . S
C663 C667 1.393 . S
C664 H653 0.950 . S
C664 C662 1.391 . S
C664 C665 1.400 . S
C665 C659 1.491 . S
C665 C664 1.400 . S
C665 C666 1.398 . S
C666 H654 0.950 . S
C666 C665 1.398 . S
C666 C667 1.391 . S
C667 H655 0.950 . S
C667 C663 1.393 . S
C667 C666 1.391 . S
H668 C676 0.950 . S
H669 C681 0.950 . S
H670 C678 0.950 . S
H671 C680 0.950 . S
H672 C682 0.950 . S
H673 C684 0.950 . S
H674 C686 0.950 . S
H675 C687 0.950 . S
C676 H668 0.950 . S
C676 C677 1.386 . S
C676 C678 1.391 . S
C677 C676 1.386 . S
C677 C681 1.393 . S
C678 H670 0.950 . S
C678 C676 1.391 . S
C678 C679 1.400 . S
C679 C678 1.400 . S
C679 C680 1.398 . S
C679 C685 1.491 . S
C680 H671 0.950 . S
C680 C679 1.398 . S
C680 C681 1.391 . S
C681 H669 0.950 . S
C681 C677 1.393 . S
C681 C680 1.391 . S
C682 H672 0.950 . S
C682 C683 1.386 1_556 S
C682 C684 1.391 . S
C683 C682 1.386 1_554 S
C683 C687 1.393 . S
C684 H673 0.950 . S
C684 C682 1.391 . S
C684 C685 1.400 . S
C685 C679 1.491 . S
C685 C684 1.400 . S
C685 C686 1.398 1_556 S
C686 H674 0.950 . S
C686 C685 1.398 1_554 S
C686 C687 1.391 . S
C687 H675 0.950 . S
C687 C683 1.393 . S
C687 C686 1.391 . S
H688 C696 0.950 . S
H689 C701 0.950 . S
H690 C698 0.950 . S
H691 C700 0.950 . S
H692 C702 0.950 . S
H693 C704 0.950 . S
H694 C706 0.950 . S
H695 C707 0.950 . S
C696 H688 0.950 . S
C696 C697 1.386 . S
C696 C698 1.391 . S
C697 C696 1.386 . S
C697 C701 1.393 . S
C698 H690 0.950 . S
C698 C696 1.391 . S
C698 C699 1.400 . S
C699 C698 1.400 . S
C699 C700 1.398 . S
C699 C705 1.491 . S
C700 H691 0.950 . S
C700 C699 1.398 . S
C700 C701 1.391 . S
C701 H689 0.950 . S
C701 C697 1.393 . S
C701 C700 1.391 . S
C702 H692 0.950 . S
C702 C703 1.386 . S
C702 C704 1.391 . S
C703 C702 1.386 . S
C703 C707 1.393 . S
C704 H693 0.950 . S
C704 C702 1.391 . S
C704 C705 1.400 . S
C705 C699 1.491 . S
C705 C704 1.400 . S
C705 C706 1.398 . S
C706 H694 0.950 . S
C706 C705 1.398 . S
C706 C707 1.391 . S
C707 H695 0.950 . S
C707 C703 1.393 . S
C707 C706 1.391 . S
H708 C716 0.950 . S
H709 C721 0.950 . S
H710 C718 0.950 . S
H711 C720 0.950 1_655 S
H712 C722 0.950 . S
H713 C724 0.950 . S
H714 C726 0.950 . S
H715 C727 0.950 . S
C716 H708 0.950 . S
C716 C717 1.386 1_455 S
C716 C718 1.391 . S
C717 C716 1.386 1_655 S
C717 C721 1.393 . S
C718 H710 0.950 . S
C718 C716 1.391 . S
C718 C719 1.400 . S
C719 C718 1.400 . S
C719 C720 1.398 . S
C719 C725 1.491 . S
C720 H711 0.950 1_455 S
C720 C719 1.398 . S
C720 C721 1.391 1_455 S
C721 H709 0.950 . S
C721 C717 1.393 . S
C721 C720 1.391 1_655 S
C722 H712 0.950 . S
C722 C723 1.386 . S
C722 C724 1.391 . S
C723 C722 1.386 . S
C723 C727 1.393 . S
C724 H713 0.950 . S
C724 C722 1.391 . S
C724 C725 1.400 . S
C725 C719 1.491 . S
C725 C724 1.400 . S
C725 C726 1.398 . S
C726 H714 0.950 . S
C726 C725 1.398 . S
C726 C727 1.391 . S
C727 H715 0.950 . S
C727 C723 1.393 . S
C727 C726 1.391 . S
H728 C736 0.950 . S
H729 C741 0.950 . S
H730 C738 0.950 . S
H731 C740 0.950 . S
H732 C742 0.950 . S
H733 C744 0.950 . S
H734 C746 0.950 . S
H735 C747 0.950 . S
C736 H728 0.950 . S
C736 C737 1.386 . S
C736 C738 1.391 . S
C737 C736 1.386 . S
C737 C741 1.393 . S
C738 H730 0.950 . S
C738 C736 1.391 . S
C738 C739 1.400 . S
C739 C738 1.400 . S
C739 C740 1.398 . S
C739 C745 1.491 . S
C740 H731 0.950 . S
C740 C739 1.398 . S
C740 C741 1.391 . S
C741 H729 0.950 . S
C741 C737 1.393 . S
C741 C740 1.391 . S
C742 H732 0.950 . S
C742 C743 1.386 . S
C742 C744 1.391 . S
C743 C742 1.386 . S
C743 C747 1.393 . S
C744 H733 0.950 . S
C744 C742 1.391 . S
C744 C745 1.400 . S
C745 C739 1.491 . S
C745 C744 1.400 . S
C745 C746 1.398 . S
C746 H734 0.950 . S
C746 C745 1.398 . S
C746 C747 1.391 . S
C747 H735 0.950 . S
C747 C743 1.393 . S
C747 C746 1.391 . S
H748 C756 0.950 . S
H749 C761 0.950 . S
H750 C758 0.950 . S
H751 C760 0.950 . S
H752 C762 0.950 . S
H753 C764 0.950 . S
H754 C766 0.950 . S
H755 C767 0.950 . S
C756 H748 0.950 . S
C756 C757 1.386 . S
C756 C758 1.391 . S
C757 C756 1.386 . S
C757 C761 1.393 . S
C758 H750 0.950 . S
C758 C756 1.391 . S
C758 C759 1.400 . S
C759 C758 1.400 . S
C759 C760 1.398 . S
C759 C765 1.491 . S
C760 H751 0.950 . S
C760 C759 1.398 . S
C760 C761 1.391 . S
C761 H749 0.950 . S
C761 C757 1.393 . S
C761 C760 1.391 . S
C762 H752 0.950 . S
C762 C763 1.386 . S
C762 C764 1.391 1_455 S
C763 C762 1.386 . S
C763 C767 1.393 . S
C764 H753 0.950 . S
C764 C762 1.391 1_655 S
C764 C765 1.400 . S
C765 C759 1.491 . S
C765 C764 1.400 . S
C765 C766 1.398 . S
C766 H754 0.950 . S
C766 C765 1.398 . S
C766 C767 1.391 1_655 S
C767 H755 0.950 . S
C767 C763 1.393 . S
C767 C766 1.391 1_455 S
H768 C776 0.950 . S
H769 C781 0.950 . S
H770 C778 0.950 . S
H771 C780 0.950 . S
H772 C782 0.950 . S
H773 C784 0.950 . S
H774 C786 0.950 . S
H775 C787 0.950 . S
C776 H768 0.950 . S
C776 C777 1.386 . S
C776 C778 1.391 . S
C777 C776 1.386 . S
C777 C781 1.393 . S
C778 H770 0.950 . S
C778 C776 1.391 . S
C778 C779 1.400 . S
C779 C778 1.400 . S
C779 C780 1.398 . S
C779 C785 1.491 . S
C780 H771 0.950 . S
C780 C779 1.398 . S
C780 C781 1.391 . S
C781 H769 0.950 . S
C781 C777 1.393 . S
C781 C780 1.391 . S
C782 H772 0.950 . S
C782 C783 1.386 . S
C782 C784 1.391 . S
C783 C782 1.386 . S
C783 C787 1.393 . S
C784 H773 0.950 . S
C784 C782 1.391 . S
C784 C785 1.400 . S
C785 C779 1.491 . S
C785 C784 1.400 . S
C785 C786 1.398 . S
C786 H774 0.950 . S
C786 C785 1.398 . S
C786 C787 1.391 . S
C787 H775 0.950 . S
C787 C783 1.393 . S
C787 C786 1.391 . S
H788 C796 0.950 . S
H789 C801 0.950 . S
H790 C798 0.950 . S
H791 C800 0.950 . S
H792 C802 0.950 . S
H793 C804 0.950 . S
H794 C806 0.950 . S
H795 C807 0.950 . S
C796 H788 0.950 . S
C796 C797 1.386 . S
C796 C798 1.391 . S
C797 C796 1.386 . S
C797 C801 1.393 . S
C798 H790 0.950 . S
C798 C796 1.391 . S
C798 C799 1.400 . S
C799 C798 1.400 . S
C799 C800 1.398 . S
C799 C805 1.491 . S
C800 H791 0.950 . S
C800 C799 1.398 . S
C800 C801 1.391 . S
C801 H789 0.950 . S
C801 C797 1.393 . S
C801 C800 1.391 . S
C802 H792 0.950 . S
C802 C803 1.386 . S
C802 C804 1.391 . S
C803 C802 1.386 . S
C803 C807 1.393 . S
C804 H793 0.950 . S
C804 C802 1.391 . S
C804 C805 1.400 . S
C805 C799 1.491 . S
C805 C804 1.400 . S
C805 C806 1.398 . S
C806 H794 0.950 . S
C806 C805 1.398 . S
C806 C807 1.391 . S
C807 H795 0.950 . S
C807 C803 1.393 . S
C807 C806 1.391 . S
H808 C816 0.950 . S
H809 C821 0.950 . S
H810 C818 0.950 . S
H811 C820 0.950 . S
H812 C822 0.950 . S
H813 C824 0.950 . S
H814 C826 0.950 . S
H815 C827 0.950 . S
C816 H808 0.950 . S
C816 C817 1.386 . S
C816 C818 1.391 . S
C817 C816 1.386 . S
C817 C821 1.393 . S
C818 H810 0.950 . S
C818 C816 1.391 . S
C818 C819 1.400 . S
C819 C818 1.400 . S
C819 C820 1.398 . S
C819 C825 1.491 . S
C820 H811 0.950 . S
C820 C819 1.398 . S
C820 C821 1.391 . S
C821 H809 0.950 . S
C821 C817 1.393 . S
C821 C820 1.391 . S
C822 H812 0.950 . S
C822 C823 1.386 1_545 S
C822 C824 1.391 . S
C823 C822 1.386 1_565 S
C823 C827 1.393 . S
C824 H813 0.950 . S
C824 C822 1.391 . S
C824 C825 1.400 . S
C825 C819 1.491 . S
C825 C824 1.400 . S
C825 C826 1.398 . S
C826 H814 0.950 . S
C826 C825 1.398 . S
C826 C827 1.391 1_545 S
C827 H815 0.950 . S
C827 C823 1.393 . S
C827 C826 1.391 1_565 S
H828 C836 0.950 . S
H829 C841 0.950 . S
H830 C838 0.950 . S
H831 C840 0.950 . S
H832 C842 0.950 . S
H833 C844 0.947 1_545 S
H834 C846 0.950 . S
H835 C847 0.950 . S
C836 H828 0.950 . S
C836 C837 1.386 . S
C836 C838 1.391 . S
C837 C836 1.386 . S
C837 C841 1.393 . S
C838 H830 0.950 . S
C838 C836 1.391 . S
C838 C839 1.400 . S
C839 C838 1.400 . S
C839 C840 1.398 . S
C839 C845 1.491 . S
C840 H831 0.950 . S
C840 C839 1.398 . S
C840 C841 1.391 . S
C841 H829 0.950 . S
C841 C837 1.393 . S
C841 C840 1.391 . S
C842 H832 0.950 . S
C842 C843 1.386 . S
C842 C844 1.376 1_545 S
C843 C842 1.386 . S
C843 C847 1.393 1_545 S
C844 H833 0.947 1_565 S
C844 C842 1.376 1_565 S
C844 C845 1.419 . S
C845 C839 1.491 . S
C845 C844 1.419 . S
C845 C846 1.398 . S
C846 H834 0.950 . S
C846 C845 1.398 . S
C846 C847 1.391 . S
C847 H835 0.950 . S
C847 C843 1.393 1_565 S
C847 C846 1.391 . S
H848 C856 0.950 . S
H849 C861 0.950 . S
H850 C858 0.950 . S
H851 C860 0.950 . S
H852 C862 0.950 . S
H853 C864 0.950 . S
H854 C866 0.950 . S
H855 C867 0.950 . S
C856 H848 0.950 . S
C856 C857 1.386 . S
C856 C858 1.391 . S
C857 C856 1.386 . S
C857 C861 1.393 . S
C858 H850 0.950 . S
C858 C856 1.391 . S
C858 C859 1.400 . S
C859 C858 1.400 . S
C859 C860 1.398 . S
C859 C865 1.491 . S
C860 H851 0.950 . S
C860 C859 1.398 . S
C860 C861 1.391 . S
C861 H849 0.950 . S
C861 C857 1.393 . S
C861 C860 1.391 . S
C862 H852 0.950 . S
C862 C863 1.386 . S
C862 C864 1.391 . S
C863 C862 1.386 . S
C863 C867 1.393 . S
C864 H853 0.950 . S
C864 C862 1.391 . S
C864 C865 1.400 . S
C865 C859 1.491 . S
C865 C864 1.400 . S
C865 C866 1.398 . S
C866 H854 0.950 . S
C866 C865 1.398 . S
C866 C867 1.391 . S
C867 H855 0.950 . S
C867 C863 1.393 . S
C867 C866 1.391 . S
H868 C876 0.950 . S
H869 C881 0.950 . S
H870 C878 0.950 . S
H871 C880 0.950 . S
H872 C882 0.950 . S
H873 C884 0.950 . S
H874 C886 0.950 . S
H875 C887 0.950 . S
C876 H868 0.950 . S
C876 C877 1.386 . S
C876 C878 1.391 . S
C877 C876 1.386 . S
C877 C881 1.393 . S
C878 H870 0.950 . S
C878 C876 1.391 . S
C878 C879 1.400 . S
C879 C878 1.400 . S
C879 C880 1.398 . S
C879 C885 1.491 . S
C880 H871 0.950 . S
C880 C879 1.398 . S
C880 C881 1.391 . S
C881 H869 0.950 . S
C881 C877 1.393 . S
C881 C880 1.391 . S
C882 H872 0.950 . S
C882 C883 1.386 . S
C882 C884 1.391 . S
C883 C882 1.386 . S
C883 C887 1.393 1_554 S
C884 H873 0.950 . S
C884 C882 1.391 . S
C884 C885 1.400 1_554 S
C885 C879 1.491 . S
C885 C884 1.400 1_556 S
C885 C886 1.398 . S
C886 H874 0.950 . S
C886 C885 1.398 . S
C886 C887 1.391 . S
C887 H875 0.950 . S
C887 C883 1.393 1_556 S
C887 C886 1.391 . S
H888 C896 0.950 . S
H889 C901 0.950 . S
H890 C898 0.950 . S
H891 C900 0.950 . S
H892 C902 0.950 . S
H893 C904 0.950 . S
H894 C906 0.950 . S
H895 C907 0.950 . S
C896 H888 0.950 . S
C896 C897 1.386 . S
C896 C898 1.391 . S
C897 C896 1.386 . S
C897 C901 1.393 . S
C898 H890 0.950 . S
C898 C896 1.391 . S
C898 C899 1.400 . S
C899 C898 1.400 . S
C899 C900 1.398 . S
C899 C905 1.491 . S
C900 H891 0.950 . S
C900 C899 1.398 . S
C900 C901 1.391 . S
C901 H889 0.950 . S
C901 C897 1.393 . S
C901 C900 1.391 . S
C902 H892 0.950 . S
C902 C903 1.386 . S
C902 C904 1.391 . S
C903 C902 1.386 . S
C903 C907 1.393 . S
C904 H893 0.950 . S
C904 C902 1.391 . S
C904 C905 1.400 . S
C905 C899 1.491 . S
C905 C904 1.400 . S
C905 C906 1.398 . S
C906 H894 0.950 . S
C906 C905 1.398 . S
C906 C907 1.391 . S
C907 H895 0.950 . S
C907 C903 1.393 . S
C907 C906 1.391 . S
H908 C916 0.950 . S
H909 C921 0.950 . S
H910 C918 0.950 . S
H911 C920 0.950 . S
H912 C922 0.950 . S
H913 C924 0.950 . S
H914 C926 0.950 . S
H915 C927 0.950 . S
C916 H908 0.950 . S
C916 C917 1.386 1_554 S
C916 C918 1.391 . S
C917 C916 1.386 1_556 S
C917 C921 1.393 . S
C918 H910 0.950 . S
C918 C916 1.391 . S
C918 C919 1.400 . S
C919 C918 1.400 . S
C919 C920 1.398 1_554 S
C919 C925 1.491 . S
C920 H911 0.950 . S
C920 C919 1.398 1_556 S
C920 C921 1.391 . S
C921 H909 0.950 . S
C921 C917 1.393 . S
C921 C920 1.391 . S
C922 H912 0.950 . S
C922 C923 1.386 . S
C922 C924 1.391 . S
C923 C922 1.386 . S
C923 C927 1.393 . S
C924 H913 0.950 . S
C924 C922 1.391 . S
C924 C925 1.400 . S
C925 C919 1.491 . S
C925 C924 1.400 . S
C925 C926 1.398 . S
C926 H914 0.950 . S
C926 C925 1.398 . S
C926 C927 1.391 . S
C927 H915 0.950 . S
C927 C923 1.393 . S
C927 C926 1.391 . S
H928 C936 0.950 . S
H929 C941 0.950 . S
H930 C938 0.950 . S
H931 C940 0.950 . S
H932 C942 0.950 . S
H933 C944 0.950 . S
H934 C946 0.950 . S
H935 C947 0.950 . S
C936 H928 0.950 . S
C936 C937 1.386 . S
C936 C938 1.391 . S
C937 C936 1.386 . S
C937 C941 1.393 . S
C938 H930 0.950 . S
C938 C936 1.391 . S
C938 C939 1.400 . S
C939 C938 1.400 . S
C939 C940 1.398 . S
C939 C945 1.491 . S
C940 H931 0.950 . S
C940 C939 1.398 . S
C940 C941 1.391 . S
C941 H929 0.950 . S
C941 C937 1.393 . S
C941 C940 1.391 . S
C942 H932 0.950 . S
C942 C943 1.386 . S
C942 C944 1.391 . S
C943 C942 1.386 . S
C943 C947 1.393 . S
C944 H933 0.950 . S
C944 C942 1.391 . S
C944 C945 1.400 . S
C945 C939 1.491 . S
C945 C944 1.400 . S
C945 C946 1.398 . S
C946 H934 0.950 . S
C946 C945 1.398 . S
C946 C947 1.391 . S
C947 H935 0.950 . S
C947 C943 1.393 . S
C947 C946 1.391 . S
H948 C956 0.950 . S
H949 C961 0.949 1_455 S
H950 C958 0.950 . S
H951 C960 0.950 . S
H952 C962 0.950 . S
H953 C964 0.950 . S
H954 C966 0.950 . S
H955 C967 0.950 . S
C956 H948 0.950 . S
C956 C957 1.386 . S
C956 C958 1.391 1_455 S
C957 C956 1.386 . S
C957 C961 1.391 1_455 S
C958 H950 0.950 . S
C958 C956 1.391 1_655 S
C958 C959 1.400 . S
C959 C958 1.400 . S
C959 C960 1.398 . S
C959 C965 1.491 . S
C960 H951 0.950 . S
C960 C959 1.398 . S
C960 C961 1.393 . S
C961 H949 0.949 1_655 S
C961 C957 1.391 1_655 S
C961 C960 1.393 . S
C962 H952 0.950 . S
C962 C963 1.386 . S
C962 C964 1.391 . S
C963 C962 1.386 . S
C963 C967 1.393 . S
C964 H953 0.950 . S
C964 C962 1.391 . S
C964 C965 1.400 . S
C965 C959 1.491 . S
C965 C964 1.400 . S
C965 C966 1.398 . S
C966 H954 0.950 . S
C966 C965 1.398 . S
C966 C967 1.391 . S
C967 H955 0.950 . S
C967 C963 1.393 . S
C967 C966 1.391 . S
H968 C976 0.950 . S
H969 C981 0.950 . S
H970 C978 0.950 . S
H971 C980 0.950 . S
H972 C982 0.950 . S
H973 C984 0.950 . S
H974 C986 0.950 . S
H975 C987 0.950 . S
C976 H968 0.950 . S
C976 C977 1.386 . S
C976 C978 1.391 . S
C977 C976 1.386 . S
C977 C981 1.393 . S
C978 H970 0.950 . S
C978 C976 1.391 . S
C978 C979 1.400 . S
C979 C978 1.400 . S
C979 C980 1.398 . S
C979 C985 1.491 . S
C980 H971 0.950 . S
C980 C979 1.398 . S
C980 C981 1.391 . S
C981 H969 0.950 . S
C981 C977 1.393 . S
C981 C980 1.391 . S
C982 H972 0.950 . S
C982 C983 1.386 . S
C982 C984 1.391 . S
C983 C982 1.386 . S
C983 C987 1.393 . S
C984 H973 0.950 . S
C984 C982 1.391 . S
C984 C985 1.400 . S
C985 C979 1.491 . S
C985 C984 1.400 . S
C985 C986 1.398 . S
C986 H974 0.950 . S
C986 C985 1.398 . S
C986 C987 1.391 . S
C987 H975 0.950 . S
C987 C983 1.393 . S
C987 C986 1.391 . S
H988 C996 0.950 . S
H989 C1001 0.950 . S
H990 C998 0.950 . S
H991 C1000 0.950 . S
H992 C1002 0.950 . S
H993 C1004 0.950 . S
H994 C1006 0.950 . S
H995 C1007 0.950 . S
C996 H988 0.950 . S
C996 C997 1.386 . S
C996 C998 1.391 . S
C997 C996 1.386 . S
C997 C1001 1.393 . S
C998 H990 0.950 . S
C998 C996 1.391 . S
C998 C999 1.400 . S
C999 C998 1.400 . S
C999 C1000 1.398 . S
C999 C1005 1.491 . S
C1000 H991 0.950 . S
C1000 C999 1.398 . S
C1000 C1001 1.391 . S
C1001 H989 0.950 . S
C1001 C997 1.393 . S
C1001 C1000 1.391 . S
C1002 H992 0.950 . S
C1002 C1003 1.386 . S
C1002 C1004 1.391 1_655 S
C1003 C1002 1.386 . S
C1003 C1007 1.393 . S
C1004 H993 0.950 . S
C1004 C1002 1.391 1_455 S
C1004 C1005 1.400 . S
C1005 C999 1.491 . S
C1005 C1004 1.400 . S
C1005 C1006 1.398 . S
C1006 H994 0.950 . S
C1006 C1005 1.398 . S
C1006 C1007 1.391 1_455 S
C1007 H995 0.950 . S
C1007 C1003 1.393 . S
C1007 C1006 1.391 1_655 S
H1008 C1016 0.950 1_556 S
H1009 C1021 0.950 . S
H1010 C1018 0.950 . S
H1011 C1020 0.950 . S
H1012 C1022 0.950 . S
H1013 C1024 0.950 . S
H1014 C1026 0.950 . S
H1015 C1027 0.950 . S
C1016 H1008 0.950 1_554 S
C1016 C1017 1.386 1_554 S
C1016 C1018 1.391 . S
C1017 C1016 1.386 1_556 S
C1017 C1021 1.393 1_556 S
C1018 H1010 0.950 . S
C1018 C1016 1.391 . S
C1018 C1019 1.400 . S
C1019 C1018 1.400 . S
C1019 C1020 1.398 . S
C1019 C1025 1.491 . S
C1020 H1011 0.950 . S
C1020 C1019 1.398 . S
C1020 C1021 1.391 . S
C1021 H1009 0.950 . S
C1021 C1017 1.393 1_554 S
C1021 C1020 1.391 . S
C1022 H1012 0.950 . S
C1022 C1023 1.386 . S
C1022 C1024 1.391 . S
C1023 C1022 1.386 . S
C1023 C1027 1.393 . S
C1024 H1013 0.950 . S
C1024 C1022 1.391 . S
C1024 C1025 1.400 . S
C1025 C1019 1.491 . S
C1025 C1024 1.400 . S
C1025 C1026 1.398 . S
C1026 H1014 0.950 . S
C1026 C1025 1.398 . S
C1026 C1027 1.391 . S
C1027 H1015 0.950 . S
C1027 C1023 1.393 . S
C1027 C1026 1.391 . S
H1028 C1036 0.950 . S
H1029 C1041 0.950 . S
H1030 C1038 0.950 . S
H1031 C1040 0.950 . S
H1032 C1042 0.950 . S
H1033 C1044 0.950 . S
H1034 C1046 0.950 . S
H1035 C1047 0.950 . S
C1036 H1028 0.950 . S
C1036 C1037 1.386 . S
C1036 C1038 1.391 . S
C1037 C1036 1.386 . S
C1037 C1041 1.393 . S
C1038 H1030 0.950 . S
C1038 C1036 1.391 . S
C1038 C1039 1.400 . S
C1039 C1038 1.400 . S
C1039 C1040 1.398 . S
C1039 C1045 1.491 . S
C1040 H1031 0.950 . S
C1040 C1039 1.398 . S
C1040 C1041 1.391 . S
C1041 H1029 0.950 . S
C1041 C1037 1.393 . S
C1041 C1040 1.391 . S
C1042 H1032 0.950 . S
C1042 C1043 1.386 . S
C1042 C1044 1.391 . S
C1043 C1042 1.386 . S
C1043 C1047 1.393 . S
C1044 H1033 0.950 . S
C1044 C1042 1.391 . S
C1044 C1045 1.400 . S
C1045 C1039 1.491 . S
C1045 C1044 1.400 . S
C1045 C1046 1.398 . S
C1046 H1034 0.950 . S
C1046 C1045 1.398 . S
C1046 C1047 1.391 . S
C1047 H1035 0.950 . S
C1047 C1043 1.393 . S
C1047 C1046 1.391 . S
H1048 C1056 0.950 . S
H1049 C1061 0.950 1_554 S
H1050 C1058 0.950 . S
H1051 C1060 0.950 . S
H1052 C1062 0.950 . S
H1053 C1064 0.950 . S
H1054 C1066 0.950 . S
H1055 C1067 0.950 . S
C1056 H1048 0.950 . S
C1056 C1057 1.386 1_556 S
C1056 C1058 1.391 . S
C1057 C1056 1.386 1_554 S
C1057 C1061 1.393 1_554 S
C1058 H1050 0.950 . S
C1058 C1056 1.391 . S
C1058 C1059 1.400 . S
C1059 C1058 1.400 . S
C1059 C1060 1.398 . S
C1059 C1065 1.491 . S
C1060 H1051 0.950 . S
C1060 C1059 1.398 . S
C1060 C1061 1.391 . S
C1061 H1049 0.950 1_556 S
C1061 C1057 1.393 1_556 S
C1061 C1060 1.391 . S
C1062 H1052 0.950 . S
C1062 C1063 1.386 . S
C1062 C1064 1.391 . S
C1063 C1062 1.386 . S
C1063 C1067 1.393 . S
C1064 H1053 0.950 . S
C1064 C1062 1.391 . S
C1064 C1065 1.400 . S
C1065 C1059 1.491 . S
C1065 C1064 1.400 . S
C1065 C1066 1.398 . S
C1066 H1054 0.950 . S
C1066 C1065 1.398 . S
C1066 C1067 1.391 . S
C1067 H1055 0.950 . S
C1067 C1063 1.393 . S
C1067 C1066 1.391 . S
H1068 C1076 0.950 . S
H1069 C1081 0.950 . S
H1070 C1078 0.950 . S
H1071 C1080 0.950 . S
H1072 C1082 0.950 . S
H1073 C1084 0.950 . S
H1074 C1086 0.950 . S
H1075 C1087 0.950 . S
C1076 H1068 0.950 . S
C1076 C1077 1.386 . S
C1076 C1078 1.391 . S
C1077 C1076 1.386 . S
C1077 C1081 1.393 . S
C1078 H1070 0.950 . S
C1078 C1076 1.391 . S
C1078 C1079 1.400 . S
C1079 C1078 1.400 . S
C1079 C1080 1.398 . S
C1079 C1085 1.491 . S
C1080 H1071 0.950 . S
C1080 C1079 1.398 . S
C1080 C1081 1.391 . S
C1081 H1069 0.950 . S
C1081 C1077 1.393 . S
C1081 C1080 1.391 . S
C1082 H1072 0.950 . S
C1082 C1083 1.386 . S
C1082 C1084 1.391 . S
C1083 C1082 1.386 . S
C1083 C1087 1.393 . S
C1084 H1073 0.950 . S
C1084 C1082 1.391 . S
C1084 C1085 1.400 . S
C1085 C1079 1.491 . S
C1085 C1084 1.400 . S
C1085 C1086 1.398 . S
C1086 H1074 0.950 . S
C1086 C1085 1.398 . S
C1086 C1087 1.391 . S
C1087 H1075 0.950 . S
C1087 C1083 1.393 . S
C1087 C1086 1.391 . S
H1088 C1096 0.950 . S
H1089 C1101 0.950 . S
H1090 C1098 0.950 . S
H1091 C1100 0.950 . S
H1092 C1102 0.950 1_655 S
H1093 C1104 0.950 . S
H1094 C1106 0.950 . S
H1095 C1107 0.950 . S
C1096 H1088 0.950 . S
C1096 C1097 1.386 . S
C1096 C1098 1.391 . S
C1097 C1096 1.386 . S
C1097 C1101 1.393 . S
C1098 H1090 0.950 . S
C1098 C1096 1.391 . S
C1098 C1099 1.400 . S
C1099 C1098 1.400 . S
C1099 C1100 1.398 . S
C1099 C1105 1.491 . S
C1100 H1091 0.950 . S
C1100 C1099 1.398 . S
C1100 C1101 1.391 . S
C1101 H1089 0.950 . S
C1101 C1097 1.393 . S
C1101 C1100 1.391 . S
C1102 H1092 0.950 1_455 S
C1102 C1103 1.386 1_455 S
C1102 C1104 1.391 . S
C1103 C1102 1.386 1_655 S
C1103 C1107 1.393 1_655 S
C1104 H1093 0.950 . S
C1104 C1102 1.391 . S
C1104 C1105 1.400 . S
C1105 C1099 1.491 . S
C1105 C1104 1.400 . S
C1105 C1106 1.398 . S
C1106 H1094 0.950 . S
C1106 C1105 1.398 . S
C1106 C1107 1.391 . S
C1107 H1095 0.950 . S
C1107 C1103 1.393 1_455 S
C1107 C1106 1.391 . S
H1108 C1116 0.950 . S
H1109 C1121 0.950 . S
H1110 C1118 0.950 . S
H1111 C1120 0.950 . S
H1112 C1122 0.950 . S
H1113 C1124 0.950 . S
H1114 C1126 0.950 . S
H1115 C1127 0.950 . S
C1116 H1108 0.950 . S
C1116 C1117 1.386 . S
C1116 C1118 1.391 . S
C1117 C1116 1.386 . S
C1117 C1121 1.393 . S
C1118 H1110 0.950 . S
C1118 C1116 1.391 . S
C1118 C1119 1.400 . S
C1119 C1118 1.400 . S
C1119 C1120 1.398 . S
C1119 C1125 1.491 . S
C1120 H1111 0.950 . S
C1120 C1119 1.398 . S
C1120 C1121 1.391 . S
C1121 H1109 0.950 . S
C1121 C1117 1.393 . S
C1121 C1120 1.391 . S
C1122 H1112 0.950 . S
C1122 C1123 1.386 . S
C1122 C1124 1.391 . S
C1123 C1122 1.386 . S
C1123 C1127 1.393 . S
C1124 H1113 0.950 . S
C1124 C1122 1.391 . S
C1124 C1125 1.400 . S
C1125 C1119 1.491 . S
C1125 C1124 1.400 . S
C1125 C1126 1.398 . S
C1126 H1114 0.950 . S
C1126 C1125 1.398 . S
C1126 C1127 1.391 . S
C1127 H1115 0.950 . S
C1127 C1123 1.393 . S
C1127 C1126 1.391 . S
H1128 C1136 0.950 . S
H1129 C1141 0.950 . S
H1130 C1138 0.950 . S
H1131 C1140 0.950 . S
H1132 C1142 0.950 . S
H1133 C1144 0.950 . S
H1134 C1146 0.950 . S
H1135 C1147 0.950 . S
C1136 H1128 0.950 . S
C1136 C1137 1.386 . S
C1136 C1138 1.391 . S
C1137 C1136 1.386 . S
C1137 C1141 1.393 . S
C1138 H1130 0.950 . S
C1138 C1136 1.391 . S
C1138 C1139 1.400 . S
C1139 C1138 1.400 . S
C1139 C1140 1.398 . S
C1139 C1145 1.491 . S
C1140 H1131 0.950 . S
C1140 C1139 1.398 . S
C1140 C1141 1.391 . S
C1141 H1129 0.950 . S
C1141 C1137 1.393 . S
C1141 C1140 1.391 . S
C1142 H1132 0.950 . S
C1142 C1143 1.386 . S
C1142 C1144 1.391 . S
C1143 C1142 1.386 . S
C1143 C1147 1.393 . S
C1144 H1133 0.950 . S
C1144 C1142 1.391 . S
C1144 C1145 1.400 . S
C1145 C1139 1.491 . S
C1145 C1144 1.400 . S
C1145 C1146 1.398 . S
C1146 H1134 0.950 . S
C1146 C1145 1.398 . S
C1146 C1147 1.391 . S
C1147 H1135 0.950 . S
C1147 C1143 1.393 . S
C1147 C1146 1.391 . S
H1148 C1156 0.950 . S
H1149 C1161 0.950 1_455 S
H1150 C1158 0.950 . S
H1151 C1160 0.950 . S
H1152 C1162 0.950 . S
H1153 C1164 0.950 . S
H1154 C1166 0.950 . S
H1155 C1167 0.950 . S
C1156 H1148 0.950 . S
C1156 C1157 1.386 1_655 S
C1156 C1158 1.391 . S
C1157 C1156 1.386 1_455 S
C1157 C1161 1.393 1_455 S
C1158 H1150 0.950 . S
C1158 C1156 1.391 . S
C1158 C1159 1.400 . S
C1159 C1158 1.400 . S
C1159 C1160 1.398 . S
C1159 C1165 1.491 . S
C1160 H1151 0.950 . S
C1160 C1159 1.398 . S
C1160 C1161 1.391 . S
C1161 H1149 0.950 1_655 S
C1161 C1157 1.393 1_655 S
C1161 C1160 1.391 . S
C1162 H1152 0.950 . S
C1162 C1163 1.386 . S
C1162 C1164 1.391 . S
C1163 C1162 1.386 . S
C1163 C1167 1.393 . S
C1164 H1153 0.950 . S
C1164 C1162 1.391 . S
C1164 C1165 1.400 . S
C1165 C1159 1.491 . S
C1165 C1164 1.400 . S
C1165 C1166 1.398 . S
C1166 H1154 0.950 . S
C1166 C1165 1.398 . S
C1166 C1167 1.391 . S
C1167 H1155 0.950 . S
C1167 C1163 1.393 . S
C1167 C1166 1.391 . S
H1168 C1176 0.950 . S
H1169 C1181 0.950 1_565 S
H1170 C1178 0.950 . S
H1171 C1180 0.950 . S
H1172 C1182 0.950 . S
H1173 C1184 0.950 . S
H1174 C1186 0.950 . S
H1175 C1187 0.950 . S
C1176 H1168 0.950 . S
C1176 C1177 1.386 1_545 S
C1176 C1178 1.391 . S
C1177 C1176 1.386 1_565 S
C1177 C1181 1.393 1_565 S
C1178 H1170 0.950 . S
C1178 C1176 1.391 . S
C1178 C1179 1.400 . S
C1179 C1178 1.400 . S
C1179 C1180 1.398 . S
C1179 C1185 1.491 . S
C1180 H1171 0.950 . S
C1180 C1179 1.398 . S
C1180 C1181 1.391 . S
C1181 H1169 0.950 1_545 S
C1181 C1177 1.393 1_545 S
C1181 C1180 1.391 . S
C1182 H1172 0.950 . S
C1182 C1183 1.386 . S
C1182 C1184 1.391 . S
C1183 C1182 1.386 . S
C1183 C1187 1.393 . S
C1184 H1173 0.950 . S
C1184 C1182 1.391 . S
C1184 C1185 1.400 . S
C1185 C1179 1.491 . S
C1185 C1184 1.400 . S
C1185 C1186 1.398 . S
C1186 H1174 0.950 . S
C1186 C1185 1.398 . S
C1186 C1187 1.391 . S
C1187 H1175 0.950 . S
C1187 C1183 1.393 . S
C1187 C1186 1.391 . S
H1188 C1196 0.950 . S
H1189 C1201 0.950 . S
H1190 C1198 0.950 . S
H1191 C1200 0.950 . S
H1192 C1202 0.950 . S
H1193 C1204 0.950 . S
H1194 C1206 0.950 . S
H1195 C1207 0.950 . S
C1196 H1188 0.950 . S
C1196 C1197 1.386 . S
C1196 C1198 1.391 . S
C1197 C1196 1.386 . S
C1197 C1201 1.393 . S
C1198 H1190 0.950 . S
C1198 C1196 1.391 . S
C1198 C1199 1.400 . S
C1199 C1198 1.400 . S
C1199 C1200 1.398 . S
C1199 C1205 1.491 . S
C1200 H1191 0.950 . S
C1200 C1199 1.398 . S
C1200 C1201 1.391 . S
C1201 H1189 0.950 . S
C1201 C1197 1.393 . S
C1201 C1200 1.391 . S
C1202 H1192 0.950 . S
C1202 C1203 1.386 . S
C1202 C1204 1.391 . S
C1203 C1202 1.386 . S
C1203 C1207 1.393 . S
C1204 H1193 0.950 . S
C1204 C1202 1.391 . S
C1204 C1205 1.400 . S
C1205 C1199 1.491 . S
C1205 C1204 1.400 . S
C1205 C1206 1.398 . S
C1206 H1194 0.950 . S
C1206 C1205 1.398 . S
C1206 C1207 1.391 . S
C1207 H1195 0.950 . S
C1207 C1203 1.393 . S
C1207 C1206 1.391 . S
H1208 C1216 0.950 . S
H1209 C1221 0.950 . S
H1210 C1218 0.950 . S
H1211 C1220 0.950 . S
H1212 C1222 0.950 . S
H1213 C1224 0.950 . S
H1214 C1226 0.950 . S
H1215 C1227 0.950 . S
C1216 H1208 0.950 . S
C1216 C1217 1.386 . S
C1216 C1218 1.391 . S
C1217 C1216 1.386 . S
C1217 C1221 1.393 . S
C1218 H1210 0.950 . S
C1218 C1216 1.391 . S
C1218 C1219 1.400 . S
C1219 C1218 1.400 . S
C1219 C1220 1.398 . S
C1219 C1225 1.491 . S
C1220 H1211 0.950 . S
C1220 C1219 1.398 . S
C1220 C1221 1.391 . S
C1221 H1209 0.950 . S
C1221 C1217 1.393 . S
C1221 C1220 1.391 . S
C1222 H1212 0.950 . S
C1222 C1223 1.386 . S
C1222 C1224 1.391 . S
C1223 C1222 1.386 . S
C1223 C1227 1.393 . S
C1224 H1213 0.950 . S
C1224 C1222 1.391 . S
C1224 C1225 1.400 . S
C1225 C1219 1.491 . S
C1225 C1224 1.400 . S
C1225 C1226 1.398 . S
C1226 H1214 0.950 . S
C1226 C1225 1.398 . S
C1226 C1227 1.391 . S
C1227 H1215 0.950 . S
C1227 C1223 1.393 . S
C1227 C1226 1.391 . S
H1228 C1236 0.950 . S
H1229 C1241 0.950 1_545 S
H1230 C1238 0.950 . S
H1231 C1240 0.950 . S
H1232 C1242 0.950 . S
H1233 C1244 0.950 . S
H1234 C1246 0.950 . S
H1235 C1247 0.950 . S
C1236 H1228 0.950 . S
C1236 C1237 1.386 1_565 S
C1236 C1238 1.391 . S
C1237 C1236 1.386 1_545 S
C1237 C1241 1.393 1_545 S
C1238 H1230 0.950 . S
C1238 C1236 1.391 . S
C1238 C1239 1.400 . S
C1239 C1238 1.400 . S
C1239 C1240 1.398 . S
C1239 C1245 1.491 . S
C1240 H1231 0.950 . S
C1240 C1239 1.398 . S
C1240 C1241 1.391 . S
C1241 H1229 0.950 1_565 S
C1241 C1237 1.393 1_565 S
C1241 C1240 1.391 . S
C1242 H1232 0.950 . S
C1242 C1243 1.386 . S
C1242 C1244 1.391 . S
C1243 C1242 1.386 . S
C1243 C1247 1.393 . S
C1244 H1233 0.950 . S
C1244 C1242 1.391 . S
C1244 C1245 1.400 . S
C1245 C1239 1.491 . S
C1245 C1244 1.400 . S
C1245 C1246 1.398 . S
C1246 H1234 0.950 . S
C1246 C1245 1.398 . S
C1246 C1247 1.391 . S
C1247 H1235 0.950 . S
C1247 C1243 1.393 . S
C1247 C1246 1.391 . S
H1248 C1256 0.950 . S
H1249 C1261 0.950 . S
H1250 C1258 0.950 . S
H1251 C1260 0.950 . S
H1252 C1262 0.950 . S
H1253 C1264 0.950 . S
H1254 C1266 0.950 . S
H1255 C1267 0.950 1_554 S
C1256 H1248 0.950 . S
C1256 C1257 1.386 . S
C1256 C1258 1.391 . S
C1257 C1256 1.386 . S
C1257 C1261 1.393 . S
C1258 H1250 0.950 . S
C1258 C1256 1.391 . S
C1258 C1259 1.400 . S
C1259 C1258 1.400 . S
C1259 C1260 1.398 . S
C1259 C1265 1.491 . S
C1260 H1251 0.950 . S
C1260 C1259 1.398 . S
C1260 C1261 1.391 . S
C1261 H1249 0.950 . S
C1261 C1257 1.393 . S
C1261 C1260 1.391 . S
C1262 H1252 0.950 . S
C1262 C1263 1.386 1_556 S
C1262 C1264 1.391 . S
C1263 C1262 1.386 1_554 S
C1263 C1267 1.393 1_554 S
C1264 H1253 0.950 . S
C1264 C1262 1.391 . S
C1264 C1265 1.400 . S
C1265 C1259 1.491 . S
C1265 C1264 1.400 . S
C1265 C1266 1.398 . S
C1266 H1254 0.950 . S
C1266 C1265 1.398 . S
C1266 C1267 1.391 . S
C1267 H1255 0.950 1_556 S
C1267 C1263 1.393 1_556 S
C1267 C1266 1.391 . S
H1268 C1276 0.950 . S
H1269 C1281 0.950 . S
H1270 C1278 0.950 . S
H1271 C1280 0.950 . S
H1272 C1282 0.950 . S
H1273 C1284 0.950 . S
H1274 C1286 0.950 . S
H1275 C1287 0.950 . S
C1276 H1268 0.950 . S
C1276 C1277 1.386 . S
C1276 C1278 1.391 . S
C1277 C1276 1.386 . S
C1277 C1281 1.393 . S
C1278 H1270 0.950 . S
C1278 C1276 1.391 . S
C1278 C1279 1.400 . S
C1279 C1278 1.400 . S
C1279 C1280 1.398 . S
C1279 C1285 1.491 . S
C1280 H1271 0.950 . S
C1280 C1279 1.398 . S
C1280 C1281 1.391 . S
C1281 H1269 0.950 . S
C1281 C1277 1.393 . S
C1281 C1280 1.391 . S
C1282 H1272 0.950 . S
C1282 C1283 1.386 . S
C1282 C1284 1.391 . S
C1283 C1282 1.386 . S
C1283 C1287 1.393 . S
C1284 H1273 0.950 . S
C1284 C1282 1.391 . S
C1284 C1285 1.400 . S
C1285 C1279 1.491 . S
C1285 C1284 1.400 . S
C1285 C1286 1.398 . S
C1286 H1274 0.950 . S
C1286 C1285 1.398 . S
C1286 C1287 1.391 . S
C1287 H1275 0.950 . S
C1287 C1283 1.393 . S
C1287 C1286 1.391 . S
H1288 C1296 0.950 . S
H1289 C1301 0.950 . S
H1290 C1298 0.950 . S
H1291 C1300 0.950 . S
H1292 C1302 0.950 . S
H1293 C1304 0.950 . S
H1294 C1306 0.950 . S
H1295 C1307 0.950 1_556 S
C1296 H1288 0.950 . S
C1296 C1297 1.386 . S
C1296 C1298 1.391 . S
C1297 C1296 1.386 . S
C1297 C1301 1.393 . S
C1298 H1290 0.950 . S
C1298 C1296 1.391 . S
C1298 C1299 1.400 . S
C1299 C1298 1.400 . S
C1299 C1300 1.398 . S
C1299 C1305 1.491 . S
C1300 H1291 0.950 . S
C1300 C1299 1.398 . S
C1300 C1301 1.391 . S
C1301 H1289 0.950 . S
C1301 C1297 1.393 . S
C1301 C1300 1.391 . S
C1302 H1292 0.950 . S
C1302 C1303 1.386 1_554 S
C1302 C1304 1.391 . S
C1303 C1302 1.386 1_556 S
C1303 C1307 1.393 1_556 S
C1304 H1293 0.950 . S
C1304 C1302 1.391 . S
C1304 C1305 1.400 . S
C1305 C1299 1.491 . S
C1305 C1304 1.400 . S
C1305 C1306 1.398 . S
C1306 H1294 0.950 . S
C1306 C1305 1.398 . S
C1306 C1307 1.391 . S
C1307 H1295 0.950 1_554 S
C1307 C1303 1.393 1_554 S
C1307 C1306 1.391 . S
H1308 C1316 0.950 . S
H1309 C1321 0.950 . S
H1310 C1318 0.950 . S
H1311 C1320 0.950 . S
H1312 C1322 0.950 . S
H1313 C1324 0.950 . S
H1314 C1326 0.950 . S
H1315 C1327 0.950 . S
C1316 H1308 0.950 . S
C1316 C1317 1.386 . S
C1316 C1318 1.391 . S
C1317 C1316 1.386 . S
C1317 C1321 1.393 . S
C1318 H1310 0.950 . S
C1318 C1316 1.391 . S
C1318 C1319 1.400 . S
C1319 C1318 1.400 . S
C1319 C1320 1.398 . S
C1319 C1325 1.491 . S
C1320 H1311 0.950 . S
C1320 C1319 1.398 . S
C1320 C1321 1.391 . S
C1321 H1309 0.950 . S
C1321 C1317 1.393 . S
C1321 C1320 1.391 . S
C1322 H1312 0.950 . S
C1322 C1323 1.386 . S
C1322 C1324 1.391 . S
C1323 C1322 1.386 . S
C1323 C1327 1.393 . S
C1324 H1313 0.950 . S
C1324 C1322 1.391 . S
C1324 C1325 1.400 . S
C1325 C1319 1.491 . S
C1325 C1324 1.400 . S
C1325 C1326 1.398 . S
C1326 H1314 0.950 . S
C1326 C1325 1.398 . S
C1326 C1327 1.391 . S
C1327 H1315 0.950 . S
C1327 C1323 1.393 . S
C1327 C1326 1.391 . S
H1328 C1336 0.950 1_455 S
H1329 C1341 0.950 . S
H1330 C1338 0.950 . S
H1331 C1340 0.950 . S
H1332 C1342 0.950 . S
H1333 C1344 0.950 . S
H1334 C1346 0.950 . S
H1335 C1347 0.950 . S
C1336 H1328 0.950 1_655 S
C1336 C1337 1.386 1_655 S
C1336 C1338 1.391 . S
C1337 C1336 1.386 1_455 S
C1337 C1341 1.393 1_455 S
C1338 H1330 0.950 . S
C1338 C1336 1.391 . S
C1338 C1339 1.400 . S
C1339 C1338 1.400 . S
C1339 C1340 1.398 . S
C1339 C1345 1.491 . S
C1340 H1331 0.950 . S
C1340 C1339 1.398 . S
C1340 C1341 1.391 . S
C1341 H1329 0.950 . S
C1341 C1337 1.393 1_655 S
C1341 C1340 1.391 . S
C1342 H1332 0.950 . S
C1342 C1343 1.386 . S
C1342 C1344 1.391 . S
C1343 C1342 1.386 . S
C1343 C1347 1.393 . S
C1344 H1333 0.950 . S
C1344 C1342 1.391 . S
C1344 C1345 1.400 . S
C1345 C1339 1.491 . S
C1345 C1344 1.400 . S
C1345 C1346 1.398 . S
C1346 H1334 0.950 . S
C1346 C1345 1.398 . S
C1346 C1347 1.391 . S
C1347 H1335 0.950 . S
C1347 C1343 1.393 . S
C1347 C1346 1.391 . S
H1348 C1356 0.950 . S
H1349 C1361 0.950 . S
H1350 C1358 0.950 . S
H1351 C1360 0.950 . S
H1352 C1362 0.950 . S
H1353 C1364 0.950 . S
H1354 C1366 0.950 . S
H1355 C1367 0.950 . S
C1356 H1348 0.950 . S
C1356 C1357 1.386 . S
C1356 C1358 1.391 . S
C1357 C1356 1.386 . S
C1357 C1361 1.393 . S
C1358 H1350 0.950 . S
C1358 C1356 1.391 . S
C1358 C1359 1.400 . S
C1359 C1358 1.400 . S
C1359 C1360 1.398 . S
C1359 C1365 1.491 . S
C1360 H1351 0.950 . S
C1360 C1359 1.398 . S
C1360 C1361 1.391 . S
C1361 H1349 0.950 . S
C1361 C1357 1.393 . S
C1361 C1360 1.391 . S
C1362 H1352 0.950 . S
C1362 C1363 1.386 . S
C1362 C1364 1.391 . S
C1363 C1362 1.386 . S
C1363 C1367 1.393 . S
C1364 H1353 0.950 . S
C1364 C1362 1.391 . S
C1364 C1365 1.400 . S
C1365 C1359 1.491 . S
C1365 C1364 1.400 . S
C1365 C1366 1.398 . S
C1366 H1354 0.950 . S
C1366 C1365 1.398 . S
C1366 C1367 1.391 . S
C1367 H1355 0.950 . S
C1367 C1363 1.393 . S
C1367 C1366 1.391 . S
H1368 C1376 0.950 . S
H1369 C1381 0.950 . S
H1370 C1378 0.950 . S
H1371 C1380 0.950 . S
H1372 C1382 0.950 . S
H1373 C1384 0.950 . S
H1374 C1386 0.950 . S
H1375 C1387 0.950 . S
C1376 H1368 0.950 . S
C1376 C1377 1.386 . S
C1376 C1378 1.391 . S
C1377 C1376 1.386 . S
C1377 C1381 1.393 . S
C1378 H1370 0.950 . S
C1378 C1376 1.391 . S
C1378 C1379 1.400 . S
C1379 C1378 1.400 . S
C1379 C1380 1.398 . S
C1379 C1385 1.491 . S
C1380 H1371 0.950 . S
C1380 C1379 1.398 . S
C1380 C1381 1.391 . S
C1381 H1369 0.950 . S
C1381 C1377 1.393 . S
C1381 C1380 1.391 . S
C1382 H1372 0.950 . S
C1382 C1383 1.386 . S
C1382 C1384 1.391 . S
C1383 C1382 1.386 . S
C1383 C1387 1.393 . S
C1384 H1373 0.950 . S
C1384 C1382 1.391 . S
C1384 C1385 1.400 . S
C1385 C1379 1.491 . S
C1385 C1384 1.400 . S
C1385 C1386 1.398 . S
C1386 H1374 0.950 . S
C1386 C1385 1.398 . S
C1386 C1387 1.391 . S
C1387 H1375 0.950 . S
C1387 C1383 1.393 . S
C1387 C1386 1.391 . S
H1388 C1396 0.950 . S
H1389 C1401 0.950 . S
H1390 C1398 0.950 . S
H1391 C1400 0.950 . S
H1392 C1402 0.950 1_655 S
H1393 C1404 0.950 . S
H1394 C1406 0.950 . S
H1395 C1407 0.950 . S
C1396 H1388 0.950 . S
C1396 C1397 1.386 . S
C1396 C1398 1.391 . S
C1397 C1396 1.386 . S
C1397 C1401 1.393 . S
C1398 H1390 0.950 . S
C1398 C1396 1.391 . S
C1398 C1399 1.400 . S
C1399 C1398 1.400 . S
C1399 C1400 1.398 . S
C1399 C1405 1.491 . S
C1400 H1391 0.950 . S
C1400 C1399 1.398 . S
C1400 C1401 1.391 . S
C1401 H1389 0.950 . S
C1401 C1397 1.393 . S
C1401 C1400 1.391 . S
C1402 H1392 0.950 1_455 S
C1402 C1403 1.386 1_455 S
C1402 C1404 1.391 . S
C1403 C1402 1.386 1_655 S
C1403 C1407 1.393 1_655 S
C1404 H1393 0.950 . S
C1404 C1402 1.391 . S
C1404 C1405 1.400 . S
C1405 C1399 1.491 . S
C1405 C1404 1.400 . S
C1405 C1406 1.398 . S
C1406 H1394 0.950 . S
C1406 C1405 1.398 . S
C1406 C1407 1.391 . S
C1407 H1395 0.950 . S
C1407 C1403 1.393 1_455 S
C1407 C1406 1.391 . S
H1408 C1416 0.950 . S
H1409 C1421 0.950 1_545 S
H1410 C1418 0.950 . S
H1411 C1420 0.950 . S
H1412 C1422 0.950 . S
H1413 C1424 0.950 . S
H1414 C1426 0.950 . S
H1415 C1427 0.950 . S
C1416 H1408 0.950 . S
C1416 C1417 1.386 1_565 S
C1416 C1418 1.391 . S
C1417 C1416 1.386 1_545 S
C1417 C1421 1.393 1_545 S
C1418 H1410 0.950 . S
C1418 C1416 1.391 . S
C1418 C1419 1.400 . S
C1419 C1418 1.400 . S
C1419 C1420 1.398 . S
C1419 C1425 1.491 . S
C1420 H1411 0.950 . S
C1420 C1419 1.398 . S
C1420 C1421 1.391 . S
C1421 H1409 0.950 1_565 S
C1421 C1417 1.393 1_565 S
C1421 C1420 1.391 . S
C1422 H1412 0.950 . S
C1422 C1423 1.386 . S
C1422 C1424 1.391 . S
C1423 C1422 1.386 . S
C1423 C1427 1.393 . S
C1424 H1413 0.950 . S
C1424 C1422 1.391 . S
C1424 C1425 1.400 . S
C1425 C1419 1.491 . S
C1425 C1424 1.400 . S
C1425 C1426 1.398 . S
C1426 H1414 0.950 . S
C1426 C1425 1.398 . S
C1426 C1427 1.391 . S
C1427 H1415 0.950 . S
C1427 C1423 1.393 . S
C1427 C1426 1.391 . S
H1428 C1436 0.950 . S
H1429 C1441 0.950 . S
H1430 C1438 0.950 . S
H1431 C1440 0.950 . S
H1432 C1442 0.950 . S
H1433 C1444 0.950 . S
H1434 C1446 0.950 . S
H1435 C1447 0.950 . S
C1436 H1428 0.950 . S
C1436 C1437 1.386 . S
C1436 C1438 1.391 . S
C1437 C1436 1.386 . S
C1437 C1441 1.393 . S
C1438 H1430 0.950 . S
C1438 C1436 1.391 . S
C1438 C1439 1.400 . S
C1439 C1438 1.400 . S
C1439 C1440 1.398 . S
C1439 C1445 1.491 . S
C1440 H1431 0.950 . S
C1440 C1439 1.398 . S
C1440 C1441 1.391 . S
C1441 H1429 0.950 . S
C1441 C1437 1.393 . S
C1441 C1440 1.391 . S
C1442 H1432 0.950 . S
C1442 C1443 1.386 . S
C1442 C1444 1.391 . S
C1443 C1442 1.386 . S
C1443 C1447 1.393 . S
C1444 H1433 0.950 . S
C1444 C1442 1.391 . S
C1444 C1445 1.400 . S
C1445 C1439 1.491 . S
C1445 C1444 1.400 . S
C1445 C1446 1.398 . S
C1446 H1434 0.950 . S
C1446 C1445 1.398 . S
C1446 C1447 1.391 . S
C1447 H1435 0.950 . S
C1447 C1443 1.393 . S
C1447 C1446 1.391 . S
H1448 C1456 0.950 . S
H1449 C1461 0.950 . S
H1450 C1458 0.950 . S
H1451 C1460 0.950 . S
H1452 C1462 0.950 . S
H1453 C1464 0.950 . S
H1454 C1466 0.950 . S
H1455 C1467 0.950 . S
C1456 H1448 0.950 . S
C1456 C1457 1.386 . S
C1456 C1458 1.391 . S
C1457 C1456 1.386 . S
C1457 C1461 1.393 . S
C1458 H1450 0.950 . S
C1458 C1456 1.391 . S
C1458 C1459 1.400 . S
C1459 C1458 1.400 . S
C1459 C1460 1.398 . S
C1459 C1465 1.491 . S
C1460 H1451 0.950 . S
C1460 C1459 1.398 . S
C1460 C1461 1.391 . S
C1461 H1449 0.950 . S
C1461 C1457 1.393 . S
C1461 C1460 1.391 . S
C1462 H1452 0.950 . S
C1462 C1463 1.386 . S
C1462 C1464 1.391 . S
C1463 C1462 1.386 . S
C1463 C1467 1.393 . S
C1464 H1453 0.950 . S
C1464 C1462 1.391 . S
C1464 C1465 1.400 . S
C1465 C1459 1.491 . S
C1465 C1464 1.400 . S
C1465 C1466 1.398 . S
C1466 H1454 0.950 . S
C1466 C1465 1.398 . S
C1466 C1467 1.391 . S
C1467 H1455 0.950 . S
C1467 C1463 1.393 . S
C1467 C1466 1.391 . S
H1468 C1476 0.950 . S
H1469 C1481 0.950 . S
H1470 C1478 0.950 . S
H1471 C1480 0.950 . S
H1472 C1482 0.950 . S
H1473 C1484 0.950 . S
H1474 C1486 0.950 . S
H1475 C1487 0.950 1_565 S
C1476 H1468 0.950 . S
C1476 C1477 1.386 . S
C1476 C1478 1.391 . S
C1477 C1476 1.386 . S
C1477 C1481 1.393 . S
C1478 H1470 0.950 . S
C1478 C1476 1.391 . S
C1478 C1479 1.400 . S
C1479 C1478 1.400 . S
C1479 C1480 1.398 . S
C1479 C1485 1.491 . S
C1480 H1471 0.950 . S
C1480 C1479 1.398 . S
C1480 C1481 1.391 . S
C1481 H1469 0.950 . S
C1481 C1477 1.393 . S
C1481 C1480 1.391 . S
C1482 H1472 0.950 . S
C1482 C1483 1.386 1_545 S
C1482 C1484 1.391 . S
C1483 C1482 1.386 1_565 S
C1483 C1487 1.393 1_565 S
C1484 H1473 0.950 . S
C1484 C1482 1.391 . S
C1484 C1485 1.400 . S
C1485 C1479 1.491 . S
C1485 C1484 1.400 . S
C1485 C1486 1.398 . S
C1486 H1474 0.950 . S
C1486 C1485 1.398 . S
C1486 C1487 1.391 . S
C1487 H1475 0.950 1_545 S
C1487 C1483 1.393 1_545 S
C1487 C1486 1.391 . S
H1488 C1496 0.950 . S
H1489 C1501 0.950 . S
H1490 C1498 0.950 . S
H1491 C1500 0.950 . S
H1492 C1502 0.950 . S
H1493 C1504 0.950 . S
H1494 C1506 0.950 . S
H1495 C1507 0.950 . S
C1496 H1488 0.950 . S
C1496 C1497 1.386 . S
C1496 C1498 1.391 . S
C1497 C1496 1.386 . S
C1497 C1501 1.393 . S
C1498 H1490 0.950 . S
C1498 C1496 1.391 . S
C1498 C1499 1.400 . S
C1499 C1498 1.400 . S
C1499 C1500 1.398 . S
C1499 C1505 1.491 . S
C1500 H1491 0.950 . S
C1500 C1499 1.398 . S
C1500 C1501 1.391 . S
C1501 H1489 0.950 . S
C1501 C1497 1.393 . S
C1501 C1500 1.391 . S
C1502 H1492 0.950 . S
C1502 C1503 1.386 . S
C1502 C1504 1.391 . S
C1503 C1502 1.386 . S
C1503 C1507 1.393 . S
C1504 H1493 0.950 . S
C1504 C1502 1.391 . S
C1504 C1505 1.400 . S
C1505 C1499 1.491 . S
C1505 C1504 1.400 . S
C1505 C1506 1.398 . S
C1506 H1494 0.950 . S
C1506 C1505 1.398 . S
C1506 C1507 1.391 . S
C1507 H1495 0.950 . S
C1507 C1503 1.393 . S
C1507 C1506 1.391 . S
H1508 C1516 0.950 . S
H1509 C1521 0.950 . S
H1510 C1518 0.950 . S
H1511 C1520 0.950 . S
H1512 C1522 0.950 . S
H1513 C1524 0.950 . S
H1514 C1526 0.950 . S
H1515 C1527 0.950 . S
C1516 H1508 0.950 . S
C1516 C1517 1.386 . S
C1516 C1518 1.391 . S
C1517 C1516 1.386 . S
C1517 C1521 1.393 . S
C1518 H1510 0.950 . S
C1518 C1516 1.391 . S
C1518 C1519 1.400 . S
C1519 C1518 1.400 . S
C1519 C1520 1.398 . S
C1519 C1525 1.491 . S
C1520 H1511 0.950 . S
C1520 C1519 1.398 . S
C1520 C1521 1.391 . S
C1521 H1509 0.950 . S
C1521 C1517 1.393 . S
C1521 C1520 1.391 . S
C1522 H1512 0.950 . S
C1522 C1523 1.386 . S
C1522 C1524 1.391 . S
C1523 C1522 1.386 . S
C1523 C1527 1.393 . S
C1524 H1513 0.950 . S
C1524 C1522 1.391 . S
C1524 C1525 1.400 . S
C1525 C1519 1.491 . S
C1525 C1524 1.400 . S
C1525 C1526 1.398 . S
C1526 H1514 0.950 . S
C1526 C1525 1.398 . S
C1526 C1527 1.391 . S
C1527 H1515 0.950 . S
C1527 C1523 1.393 . S
C1527 C1526 1.391 . S
H1528 C1536 0.950 . S
H1529 C1541 0.950 . S
H1530 C1538 0.950 . S
H1531 C1540 0.950 . S
H1532 C1542 0.950 . S
H1533 C1544 0.950 . S
H1534 C1546 0.950 . S
H1535 C1547 0.950 . S
C1536 H1528 0.950 . S
C1536 C1537 1.386 . S
C1536 C1538 1.391 . S
C1537 C1536 1.386 . S
C1537 C1541 1.393 . S
C1538 H1530 0.950 . S
C1538 C1536 1.391 . S
C1538 C1539 1.400 . S
C1539 C1538 1.400 . S
C1539 C1540 1.398 . S
C1539 C1545 1.491 . S
C1540 H1531 0.950 . S
C1540 C1539 1.398 . S
C1540 C1541 1.391 . S
C1541 H1529 0.950 . S
C1541 C1537 1.393 . S
C1541 C1540 1.391 . S
C1542 H1532 0.950 . S
C1542 C1543 1.386 . S
C1542 C1544 1.391 . S
C1543 C1542 1.386 . S
C1543 C1547 1.393 . S
C1544 H1533 0.950 . S
C1544 C1542 1.391 . S
C1544 C1545 1.400 . S
C1545 C1539 1.491 . S
C1545 C1544 1.400 . S
C1545 C1546 1.398 . S
C1546 H1534 0.950 . S
C1546 C1545 1.398 . S
C1546 C1547 1.391 . S
C1547 H1535 0.950 . S
C1547 C1543 1.393 . S
C1547 C1546 1.391 . S
H1548 C1556 0.950 . S
H1549 C1561 0.950 . S
H1550 C1558 0.950 . S
H1551 C1560 0.950 . S
H1552 C1562 0.950 . S
H1553 C1564 0.950 . S
H1554 C1566 0.950 . S
H1555 C1567 0.950 . S
C1556 H1548 0.950 . S
C1556 C1557 1.386 . S
C1556 C1558 1.391 . S
C1557 C1556 1.386 . S
C1557 C1561 1.393 . S
C1558 H1550 0.950 . S
C1558 C1556 1.391 . S
C1558 C1559 1.400 . S
C1559 C1558 1.400 . S
C1559 C1560 1.398 . S
C1559 C1565 1.491 . S
C1560 H1551 0.950 . S
C1560 C1559 1.398 . S
C1560 C1561 1.391 . S
C1561 H1549 0.950 . S
C1561 C1557 1.393 . S
C1561 C1560 1.391 . S
C1562 H1552 0.950 . S
C1562 C1563 1.386 . S
C1562 C1564 1.391 . S
C1563 C1562 1.386 . S
C1563 C1567 1.393 . S
C1564 H1553 0.950 . S
C1564 C1562 1.391 . S
C1564 C1565 1.400 . S
C1565 C1559 1.491 . S
C1565 C1564 1.400 . S
C1565 C1566 1.398 . S
C1566 H1554 0.950 . S
C1566 C1565 1.398 . S
C1566 C1567 1.391 . S
C1567 H1555 0.950 . S
C1567 C1563 1.393 . S
C1567 C1566 1.391 . S
H1568 C1576 0.950 . S
H1569 C1581 0.950 . S
H1570 C1578 0.950 . S
H1571 C1580 0.950 . S
H1572 C1582 0.950 . S
H1573 C1584 0.950 . S
H1574 C1586 0.950 . S
H1575 C1587 0.950 . S
C1576 H1568 0.950 . S
C1576 C1577 1.386 . S
C1576 C1578 1.391 . S
C1577 C1576 1.386 . S
C1577 C1581 1.393 . S
C1578 H1570 0.950 . S
C1578 C1576 1.391 . S
C1578 C1579 1.400 . S
C1579 C1578 1.400 . S
C1579 C1580 1.398 . S
C1579 C1585 1.491 . S
C1580 H1571 0.950 . S
C1580 C1579 1.398 . S
C1580 C1581 1.391 . S
C1581 H1569 0.950 . S
C1581 C1577 1.393 . S
C1581 C1580 1.391 . S
C1582 H1572 0.950 . S
C1582 C1583 1.386 . S
C1582 C1584 1.391 . S
C1583 C1582 1.386 . S
C1583 C1587 1.393 . S
C1584 H1573 0.950 . S
C1584 C1582 1.391 . S
C1584 C1585 1.400 . S
C1585 C1579 1.491 . S
C1585 C1584 1.400 . S
C1585 C1586 1.398 . S
C1586 H1574 0.950 . S
C1586 C1585 1.398 . S
C1586 C1587 1.391 . S
C1587 H1575 0.950 . S
C1587 C1583 1.393 . S
C1587 C1586 1.391 . S
H1588 C1596 0.950 . S
H1589 C1601 0.950 . S
H1590 C1598 0.950 . S
H1591 C1600 0.950 . S
H1592 C1602 0.950 . S
H1593 C1604 0.950 . S
H1594 C1606 0.950 . S
H1595 C1607 0.950 . S
C1596 H1588 0.950 . S
C1596 C1597 1.386 . S
C1596 C1598 1.391 . S
C1597 C1596 1.386 . S
C1597 C1601 1.393 . S
C1598 H1590 0.950 . S
C1598 C1596 1.391 . S
C1598 C1599 1.400 . S
C1599 C1598 1.400 . S
C1599 C1600 1.398 . S
C1599 C1605 1.491 . S
C1600 H1591 0.950 . S
C1600 C1599 1.398 . S
C1600 C1601 1.391 . S
C1601 H1589 0.950 . S
C1601 C1597 1.393 . S
C1601 C1600 1.391 . S
C1602 H1592 0.950 . S
C1602 C1603 1.386 . S
C1602 C1604 1.391 . S
C1603 C1602 1.386 . S
C1603 C1607 1.393 . S
C1604 H1593 0.950 . S
C1604 C1602 1.391 . S
C1604 C1605 1.400 . S
C1605 C1599 1.491 . S
C1605 C1604 1.400 . S
C1605 C1606 1.398 . S
C1606 H1594 0.950 . S
C1606 C1605 1.398 . S
C1606 C1607 1.391 . S
C1607 H1595 0.950 . S
C1607 C1603 1.393 . S
C1607 C1606 1.391 . S
H1608 C1616 0.950 . S
H1609 C1621 0.950 . S
H1610 C1618 0.950 . S
H1611 C1620 0.950 . S
H1612 C1622 0.950 . S
H1613 C1624 0.950 . S
H1614 C1626 0.950 . S
H1615 C1627 0.950 . S
C1616 H1608 0.950 . S
C1616 C1617 1.386 . S
C1616 C1618 1.391 . S
C1617 C1616 1.386 . S
C1617 C1621 1.393 . S
C1618 H1610 0.950 . S
C1618 C1616 1.391 . S
C1618 C1619 1.400 . S
C1619 C1618 1.400 . S
C1619 C1620 1.398 . S
C1619 C1625 1.491 . S
C1620 H1611 0.950 . S
C1620 C1619 1.398 . S
C1620 C1621 1.391 . S
C1621 H1609 0.950 . S
C1621 C1617 1.393 . S
C1621 C1620 1.391 . S
C1622 H1612 0.950 . S
C1622 C1623 1.386 . S
C1622 C1624 1.391 . S
C1623 C1622 1.386 . S
C1623 C1627 1.393 . S
C1624 H1613 0.950 . S
C1624 C1622 1.391 . S
C1624 C1625 1.400 . S
C1625 C1619 1.491 . S
C1625 C1624 1.400 . S
C1625 C1626 1.398 . S
C1626 H1614 0.950 . S
C1626 C1625 1.398 . S
C1626 C1627 1.391 . S
C1627 H1615 0.950 . S
C1627 C1623 1.393 . S
C1627 C1626 1.391 . S
H1628 C1636 0.950 . S
H1629 C1641 0.950 . S
H1630 C1638 0.950 . S
H1631 C1640 0.950 . S
H1632 C1642 0.950 . S
H1633 C1644 0.950 . S
H1634 C1646 0.950 . S
H1635 C1647 0.950 . S
C1636 H1628 0.950 . S
C1636 C1637 1.386 . S
C1636 C1638 1.391 . S
C1637 C1636 1.386 . S
C1637 C1641 1.393 . S
C1638 H1630 0.950 . S
C1638 C1636 1.391 . S
C1638 C1639 1.400 . S
C1639 C1638 1.400 . S
C1639 C1640 1.398 . S
C1639 C1645 1.491 . S
C1640 H1631 0.950 . S
C1640 C1639 1.398 . S
C1640 C1641 1.391 . S
C1641 H1629 0.950 . S
C1641 C1637 1.393 . S
C1641 C1640 1.391 . S
C1642 H1632 0.950 . S
C1642 C1643 1.386 . S
C1642 C1644 1.391 . S
C1643 C1642 1.386 . S
C1643 C1647 1.393 . S
C1644 H1633 0.950 . S
C1644 C1642 1.391 . S
C1644 C1645 1.400 . S
C1645 C1639 1.491 . S
C1645 C1644 1.400 . S
C1645 C1646 1.398 . S
C1646 H1634 0.950 . S
C1646 C1645 1.398 . S
C1646 C1647 1.391 . S
C1647 H1635 0.950 . S
C1647 C1643 1.393 . S
C1647 C1646 1.391 . S
H1648 C1656 0.950 . S
H1649 C1661 0.950 . S
H1650 C1658 0.950 . S
H1651 C1660 0.950 . S
H1652 C1662 0.950 . S
H1653 C1664 0.950 . S
H1654 C1666 0.950 . S
H1655 C1667 0.950 . S
C1656 H1648 0.950 . S
C1656 C1657 1.386 . S
C1656 C1658 1.391 . S
C1657 C1656 1.386 . S
C1657 C1661 1.393 . S
C1658 H1650 0.950 . S
C1658 C1656 1.391 . S
C1658 C1659 1.400 . S
C1659 C1658 1.400 . S
C1659 C1660 1.398 . S
C1659 C1665 1.491 . S
C1660 H1651 0.950 . S
C1660 C1659 1.398 . S
C1660 C1661 1.391 . S
C1661 H1649 0.950 . S
C1661 C1657 1.393 . S
C1661 C1660 1.391 . S
C1662 H1652 0.950 . S
C1662 C1663 1.386 . S
C1662 C1664 1.391 . S
C1663 C1662 1.386 . S
C1663 C1667 1.393 . S
C1664 H1653 0.950 . S
C1664 C1662 1.391 . S
C1664 C1665 1.400 . S
C1665 C1659 1.491 . S
C1665 C1664 1.400 . S
C1665 C1666 1.398 . S
C1666 H1654 0.950 . S
C1666 C1665 1.398 . S
C1666 C1667 1.391 . S
C1667 H1655 0.950 . S
C1667 C1663 1.393 . S
C1667 C1666 1.391 . S
H1668 C1676 0.950 . S
H1669 C1681 0.950 . S
H1670 C1678 0.950 . S
H1671 C1680 0.950 . S
H1672 C1682 0.950 . S
H1673 C1684 0.950 . S
H1674 C1686 0.950 . S
H1675 C1687 0.950 . S
C1676 H1668 0.950 . S
C1676 C1677 1.386 . S
C1676 C1678 1.391 . S
C1677 C1676 1.386 . S
C1677 C1681 1.393 . S
C1678 H1670 0.950 . S
C1678 C1676 1.391 . S
C1678 C1679 1.400 . S
C1679 C1678 1.400 . S
C1679 C1680 1.398 . S
C1679 C1685 1.491 . S
C1680 H1671 0.950 . S
C1680 C1679 1.398 . S
C1680 C1681 1.391 . S
C1681 H1669 0.950 . S
C1681 C1677 1.393 . S
C1681 C1680 1.391 . S
C1682 H1672 0.950 . S
C1682 C1683 1.386 . S
C1682 C1684 1.391 . S
C1683 C1682 1.386 . S
C1683 C1687 1.393 . S
C1684 H1673 0.950 . S
C1684 C1682 1.391 . S
C1684 C1685 1.400 . S
C1685 C1679 1.491 . S
C1685 C1684 1.400 . S
C1685 C1686 1.398 . S
C1686 H1674 0.950 . S
C1686 C1685 1.398 . S
C1686 C1687 1.391 . S
C1687 H1675 0.950 . S
C1687 C1683 1.393 . S
C1687 C1686 1.391 . S
H1688 C1696 0.950 . S
H1689 C1701 0.950 . S
H1690 C1698 0.950 . S
H1691 C1700 0.950 . S
H1692 C1702 0.950 . S
H1693 C1704 0.950 . S
H1694 C1706 0.950 . S
H1695 C1707 0.950 . S
C1696 H1688 0.950 . S
C1696 C1697 1.386 . S
C1696 C1698 1.391 . S
C1697 C1696 1.386 . S
C1697 C1701 1.393 . S
C1698 H1690 0.950 . S
C1698 C1696 1.391 . S
C1698 C1699 1.400 . S
C1699 C1698 1.400 . S
C1699 C1700 1.398 . S
C1699 C1705 1.491 . S
C1700 H1691 0.950 . S
C1700 C1699 1.398 . S
C1700 C1701 1.391 . S
C1701 H1689 0.950 . S
C1701 C1697 1.393 . S
C1701 C1700 1.391 . S
C1702 H1692 0.950 . S
C1702 C1703 1.386 . S
C1702 C1704 1.391 . S
C1703 C1702 1.386 . S
C1703 C1707 1.393 . S
C1704 H1693 0.950 . S
C1704 C1702 1.391 . S
C1704 C1705 1.400 . S
C1705 C1699 1.491 . S
C1705 C1704 1.400 . S
C1705 C1706 1.398 . S
C1706 H1694 0.950 . S
C1706 C1705 1.398 . S
C1706 C1707 1.391 . S
C1707 H1695 0.950 . S
C1707 C1703 1.393 . S
C1707 C1706 1.391 . S
H1708 C1716 0.950 . S
H1709 C1721 0.950 . S
H1710 C1718 0.950 . S
H1711 C1720 0.950 . S
H1712 C1722 0.950 . S
H1713 C1724 0.950 . S
H1714 C1726 0.950 . S
H1715 C1727 0.950 . S
C1716 H1708 0.950 . S
C1716 C1717 1.386 . S
C1716 C1718 1.391 . S
C1717 C1716 1.386 . S
C1717 C1721 1.393 . S
C1718 H1710 0.950 . S
C1718 C1716 1.391 . S
C1718 C1719 1.400 . S
C1719 C1718 1.400 . S
C1719 C1720 1.398 . S
C1719 C1725 1.491 . S
C1720 H1711 0.950 . S
C1720 C1719 1.398 . S
C1720 C1721 1.391 . S
C1721 H1709 0.950 . S
C1721 C1717 1.393 . S
C1721 C1720 1.391 . S
C1722 H1712 0.950 . S
C1722 C1723 1.386 . S
C1722 C1724 1.391 . S
C1723 C1722 1.386 . S
C1723 C1727 1.393 . S
C1724 H1713 0.950 . S
C1724 C1722 1.391 . S
C1724 C1725 1.400 . S
C1725 C1719 1.491 . S
C1725 C1724 1.400 . S
C1725 C1726 1.398 . S
C1726 H1714 0.950 . S
C1726 C1725 1.398 . S
C1726 C1727 1.391 . S
C1727 H1715 0.950 . S
C1727 C1723 1.393 . S
C1727 C1726 1.391 . S
H1728 C1736 0.950 . S
H1729 C1741 0.950 . S
H1730 C1738 0.950 . S
H1731 C1740 0.950 . S
H1732 C1742 0.950 . S
H1733 C1744 0.950 . S
H1734 C1746 0.950 . S
H1735 C1747 0.950 . S
C1736 H1728 0.950 . S
C1736 C1737 1.386 . S
C1736 C1738 1.391 . S
C1737 C1736 1.386 . S
C1737 C1741 1.393 . S
C1738 H1730 0.950 . S
C1738 C1736 1.391 . S
C1738 C1739 1.400 . S
C1739 C1738 1.400 . S
C1739 C1740 1.398 . S
C1739 C1745 1.491 . S
C1740 H1731 0.950 . S
C1740 C1739 1.398 . S
C1740 C1741 1.391 . S
C1741 H1729 0.950 . S
C1741 C1737 1.393 . S
C1741 C1740 1.391 . S
C1742 H1732 0.950 . S
C1742 C1743 1.386 . S
C1742 C1744 1.391 . S
C1743 C1742 1.386 . S
C1743 C1747 1.393 . S
C1744 H1733 0.950 . S
C1744 C1742 1.391 . S
C1744 C1745 1.400 . S
C1745 C1739 1.491 . S
C1745 C1744 1.400 . S
C1745 C1746 1.398 . S
C1746 H1734 0.950 . S
C1746 C1745 1.398 . S
C1746 C1747 1.391 . S
C1747 H1735 0.950 . S
C1747 C1743 1.393 . S
C1747 C1746 1.391 . S
H1748 C1756 0.950 . S
H1749 C1761 0.950 . S
H1750 C1758 0.950 . S
H1751 C1760 0.950 . S
H1752 C1762 0.950 . S
H1753 C1764 0.950 . S
H1754 C1766 0.950 . S
H1755 C1767 0.950 . S
C1756 H1748 0.950 . S
C1756 C1757 1.386 . S
C1756 C1758 1.391 . S
C1757 C1756 1.386 . S
C1757 C1761 1.393 . S
C1758 H1750 0.950 . S
C1758 C1756 1.391 . S
C1758 C1759 1.400 . S
C1759 C1758 1.400 . S
C1759 C1760 1.398 . S
C1759 C1765 1.491 . S
C1760 H1751 0.950 . S
C1760 C1759 1.398 . S
C1760 C1761 1.391 . S
C1761 H1749 0.950 . S
C1761 C1757 1.393 . S
C1761 C1760 1.391 . S
C1762 H1752 0.950 . S
C1762 C1763 1.386 . S
C1762 C1764 1.391 . S
C1763 C1762 1.386 . S
C1763 C1767 1.393 . S
C1764 H1753 0.950 . S
C1764 C1762 1.391 . S
C1764 C1765 1.400 . S
C1765 C1759 1.491 . S
C1765 C1764 1.400 . S
C1765 C1766 1.398 . S
C1766 H1754 0.950 . S
C1766 C1765 1.398 . S
C1766 C1767 1.391 . S
C1767 H1755 0.950 . S
C1767 C1763 1.393 . S
C1767 C1766 1.391 . S
H1768 C1776 0.950 . S
H1769 C1781 0.950 . S
H1770 C1778 0.950 . S
H1771 C1780 0.950 . S
H1772 C1782 0.950 . S
H1773 C1784 0.950 . S
H1774 C1786 0.950 . S
H1775 C1787 0.950 . S
C1776 H1768 0.950 . S
C1776 C1777 1.386 . S
C1776 C1778 1.391 . S
C1777 C1776 1.386 . S
C1777 C1781 1.393 . S
C1778 H1770 0.950 . S
C1778 C1776 1.391 . S
C1778 C1779 1.400 . S
C1779 C1778 1.400 . S
C1779 C1780 1.398 . S
C1779 C1785 1.491 . S
C1780 H1771 0.950 . S
C1780 C1779 1.398 . S
C1780 C1781 1.391 . S
C1781 H1769 0.950 . S
C1781 C1777 1.393 . S
C1781 C1780 1.391 . S
C1782 H1772 0.950 . S
C1782 C1783 1.386 . S
C1782 C1784 1.391 . S
C1783 C1782 1.386 . S
C1783 C1787 1.393 . S
C1784 H1773 0.950 . S
C1784 C1782 1.391 . S
C1784 C1785 1.400 . S
C1785 C1779 1.491 . S
C1785 C1784 1.400 . S
C1785 C1786 1.398 . S
C1786 H1774 0.950 . S
C1786 C1785 1.398 . S
C1786 C1787 1.391 . S
C1787 H1775 0.950 . S
C1787 C1783 1.393 . S
C1787 C1786 1.391 . S
H1788 C1796 0.950 . S
H1789 C1801 0.950 . S
H1790 C1798 0.950 . S
H1791 C1800 0.950 . S
H1792 C1802 0.950 . S
H1793 C1804 0.950 . S
H1794 C1806 0.950 . S
H1795 C1807 0.950 . S
C1796 H1788 0.950 . S
C1796 C1797 1.386 . S
C1796 C1798 1.391 . S
C1797 C1796 1.386 . S
C1797 C1801 1.393 . S
C1798 H1790 0.950 . S
C1798 C1796 1.391 . S
C1798 C1799 1.400 . S
C1799 C1798 1.400 . S
C1799 C1800 1.398 . S
C1799 C1805 1.491 . S
C1800 H1791 0.950 . S
C1800 C1799 1.398 . S
C1800 C1801 1.391 . S
C1801 H1789 0.950 . S
C1801 C1797 1.393 . S
C1801 C1800 1.391 . S
C1802 H1792 0.950 . S
C1802 C1803 1.386 . S
C1802 C1804 1.391 . S
C1803 C1802 1.386 . S
C1803 C1807 1.393 . S
C1804 H1793 0.950 . S
C1804 C1802 1.391 . S
C1804 C1805 1.400 . S
C1805 C1799 1.491 . S
C1805 C1804 1.400 . S
C1805 C1806 1.398 . S
C1806 H1794 0.950 . S
C1806 C1805 1.398 . S
C1806 C1807 1.391 . S
C1807 H1795 0.950 . S
C1807 C1803 1.393 . S
C1807 C1806 1.391 . S
H1808 C1816 0.950 . S
H1809 C1821 0.950 . S
H1810 C1818 0.950 . S
H1811 C1820 0.950 . S
H1812 C1822 0.950 . S
H1813 C1824 0.950 . S
H1814 C1826 0.950 . S
H1815 C1827 0.950 . S
C1816 H1808 0.950 . S
C1816 C1817 1.386 . S
C1816 C1818 1.391 . S
C1817 C1816 1.386 . S
C1817 C1821 1.393 . S
C1818 H1810 0.950 . S
C1818 C1816 1.391 . S
C1818 C1819 1.400 . S
C1819 C1818 1.400 . S
C1819 C1820 1.398 . S
C1819 C1825 1.491 . S
C1820 H1811 0.950 . S
C1820 C1819 1.398 . S
C1820 C1821 1.391 . S
C1821 H1809 0.950 . S
C1821 C1817 1.393 . S
C1821 C1820 1.391 . S
C1822 H1812 0.950 . S
C1822 C1823 1.386 . S
C1822 C1824 1.391 . S
C1823 C1822 1.386 . S
C1823 C1827 1.393 . S
C1824 H1813 0.950 . S
C1824 C1822 1.391 . S
C1824 C1825 1.400 . S
C1825 C1819 1.491 . S
C1825 C1824 1.400 . S
C1825 C1826 1.398 . S
C1826 H1814 0.950 . S
C1826 C1825 1.398 . S
C1826 C1827 1.391 . S
C1827 H1815 0.950 . S
C1827 C1823 1.393 . S
C1827 C1826 1.391 . S
H1828 C1836 0.950 . S
H1829 C1841 0.950 . S
H1830 C1838 0.950 . S
H1831 C1840 0.950 . S
H1832 C1842 0.950 . S
H1833 C1844 0.950 . S
H1834 C1846 0.950 . S
H1835 C1847 0.950 . S
C1836 H1828 0.950 . S
C1836 C1837 1.386 . S
C1836 C1838 1.391 . S
C1837 C1836 1.386 . S
C1837 C1841 1.393 . S
C1838 H1830 0.950 . S
C1838 C1836 1.391 . S
C1838 C1839 1.400 . S
C1839 C1838 1.400 . S
C1839 C1840 1.398 . S
C1839 C1845 1.491 . S
C1840 H1831 0.950 . S
C1840 C1839 1.398 . S
C1840 C1841 1.391 . S
C1841 H1829 0.950 . S
C1841 C1837 1.393 . S
C1841 C1840 1.391 . S
C1842 H1832 0.950 . S
C1842 C1843 1.386 . S
C1842 C1844 1.391 . S
C1843 C1842 1.386 . S
C1843 C1847 1.393 . S
C1844 H1833 0.950 . S
C1844 C1842 1.391 . S
C1844 C1845 1.400 . S
C1845 C1839 1.491 . S
C1845 C1844 1.400 . S
C1845 C1846 1.398 . S
C1846 H1834 0.950 . S
C1846 C1845 1.398 . S
C1846 C1847 1.391 . S
C1847 H1835 0.950 . S
C1847 C1843 1.393 . S
C1847 C1846 1.391 . S
H1848 C1856 0.950 . S
H1849 C1861 0.950 . S
H1850 C1858 0.950 . S
H1851 C1860 0.950 . S
H1852 C1862 0.950 . S
H1853 C1864 0.950 . S
H1854 C1866 0.950 . S
H1855 C1867 0.950 . S
C1856 H1848 0.950 . S
C1856 C1857 1.386 . S
C1856 C1858 1.391 . S
C1857 C1856 1.386 . S
C1857 C1861 1.393 . S
C1858 H1850 0.950 . S
C1858 C1856 1.391 . S
C1858 C1859 1.400 . S
C1859 C1858 1.400 . S
C1859 C1860 1.398 . S
C1859 C1865 1.491 . S
C1860 H1851 0.950 . S
C1860 C1859 1.398 . S
C1860 C1861 1.391 . S
C1861 H1849 0.950 . S
C1861 C1857 1.393 . S
C1861 C1860 1.391 . S
C1862 H1852 0.950 . S
C1862 C1863 1.386 . S
C1862 C1864 1.391 . S
C1863 C1862 1.386 . S
C1863 C1867 1.393 . S
C1864 H1853 0.950 . S
C1864 C1862 1.391 . S
C1864 C1865 1.400 . S
C1865 C1859 1.491 . S
C1865 C1864 1.400 . S
C1865 C1866 1.398 . S
C1866 H1854 0.950 . S
C1866 C1865 1.398 . S
C1866 C1867 1.391 . S
C1867 H1855 0.950 . S
C1867 C1863 1.393 . S
C1867 C1866 1.391 . S
H1868 C1876 0.950 . S
H1869 C1881 0.950 . S
H1870 C1878 0.950 . S
H1871 C1880 0.950 . S
H1872 C1882 0.950 . S
H1873 C1884 0.950 . S
H1874 C1886 0.950 . S
H1875 C1887 0.950 . S
C1876 H1868 0.950 . S
C1876 C1877 1.386 . S
C1876 C1878 1.391 . S
C1877 C1876 1.386 . S
C1877 C1881 1.393 . S
C1878 H1870 0.950 . S
C1878 C1876 1.391 . S
C1878 C1879 1.400 . S
C1879 C1878 1.400 . S
C1879 C1880 1.398 . S
C1879 C1885 1.491 . S
C1880 H1871 0.950 . S
C1880 C1879 1.398 . S
C1880 C1881 1.391 . S
C1881 H1869 0.950 . S
C1881 C1877 1.393 . S
C1881 C1880 1.391 . S
C1882 H1872 0.950 . S
C1882 C1883 1.386 . S
C1882 C1884 1.391 . S
C1883 C1882 1.386 . S
C1883 C1887 1.393 . S
C1884 H1873 0.950 . S
C1884 C1882 1.391 . S
C1884 C1885 1.400 . S
C1885 C1879 1.491 . S
C1885 C1884 1.400 . S
C1885 C1886 1.398 . S
C1886 H1874 0.950 . S
C1886 C1885 1.398 . S
C1886 C1887 1.391 . S
C1887 H1875 0.950 . S
C1887 C1883 1.393 . S
C1887 C1886 1.391 . S
H1888 C1896 0.950 . S
H1889 C1901 0.950 . S
H1890 C1898 0.950 . S
H1891 C1900 0.950 . S
H1892 C1902 0.950 . S
H1893 C1904 0.950 . S
H1894 C1906 0.950 . S
H1895 C1907 0.950 . S
C1896 H1888 0.950 . S
C1896 C1897 1.386 . S
C1896 C1898 1.391 . S
C1897 C1896 1.386 . S
C1897 C1901 1.393 . S
C1898 H1890 0.950 . S
C1898 C1896 1.391 . S
C1898 C1899 1.400 . S
C1899 C1898 1.400 . S
C1899 C1900 1.398 . S
C1899 C1905 1.491 . S
C1900 H1891 0.950 . S
C1900 C1899 1.398 . S
C1900 C1901 1.391 . S
C1901 H1889 0.950 . S
C1901 C1897 1.393 . S
C1901 C1900 1.391 . S
C1902 H1892 0.950 . S
C1902 C1903 1.386 . S
C1902 C1904 1.391 . S
C1903 C1902 1.386 . S
C1903 C1907 1.393 . S
C1904 H1893 0.950 . S
C1904 C1902 1.391 . S
C1904 C1905 1.400 . S
C1905 C1899 1.491 . S
C1905 C1904 1.400 . S
C1905 C1906 1.398 . S
C1906 H1894 0.950 . S
C1906 C1905 1.398 . S
C1906 C1907 1.391 . S
C1907 H1895 0.950 . S
C1907 C1903 1.393 . S
C1907 C1906 1.391 . S
H1908 C1916 0.950 . S
H1909 C1921 0.950 . S
H1910 C1918 0.950 . S
H1911 C1920 0.950 . S
H1912 C1922 0.950 . S
H1913 C1924 0.950 . S
H1914 C1926 0.950 . S
H1915 C1927 0.950 . S
C1916 H1908 0.950 . S
C1916 C1917 1.386 . S
C1916 C1918 1.391 . S
C1917 C1916 1.386 . S
C1917 C1921 1.393 . S
C1918 H1910 0.950 . S
C1918 C1916 1.391 . S
C1918 C1919 1.400 . S
C1919 C1918 1.400 . S
C1919 C1920 1.398 . S
C1919 C1925 1.491 . S
C1920 H1911 0.950 . S
C1920 C1919 1.398 . S
C1920 C1921 1.391 . S
C1921 H1909 0.950 . S
C1921 C1917 1.393 . S
C1921 C1920 1.391 . S
C1922 H1912 0.950 . S
C1922 C1923 1.386 . S
C1922 C1924 1.391 . S
C1923 C1922 1.386 . S
C1923 C1927 1.393 . S
C1924 H1913 0.950 . S
C1924 C1922 1.391 . S
C1924 C1925 1.400 . S
C1925 C1919 1.491 . S
C1925 C1924 1.400 . S
C1925 C1926 1.398 . S
C1926 H1914 0.950 . S
C1926 C1925 1.398 . S
C1926 C1927 1.391 . S
C1927 H1915 0.950 . S
C1927 C1923 1.393 . S
C1927 C1926 1.391 . S
H1928 C1936 0.950 . S
H1929 C1941 0.950 . S
H1930 C1938 0.950 . S
H1931 C1940 0.950 . S
H1932 C1942 0.950 . S
H1933 C1944 0.950 . S
H1934 C1946 0.950 . S
H1935 C1947 0.950 . S
C1936 H1928 0.950 . S
C1936 C1937 1.386 . S
C1936 C1938 1.391 . S
C1937 C1936 1.386 . S
C1937 C1941 1.393 . S
C1938 H1930 0.950 . S
C1938 C1936 1.391 . S
C1938 C1939 1.400 . S
C1939 C1938 1.400 . S
C1939 C1940 1.398 . S
C1939 C1945 1.491 . S
C1940 H1931 0.950 . S
C1940 C1939 1.398 . S
C1940 C1941 1.391 . S
C1941 H1929 0.950 . S
C1941 C1937 1.393 . S
C1941 C1940 1.391 . S
C1942 H1932 0.950 . S
C1942 C1943 1.386 . S
C1942 C1944 1.391 . S
C1943 C1942 1.386 . S
C1943 C1947 1.393 . S
C1944 H1933 0.950 . S
C1944 C1942 1.391 . S
C1944 C1945 1.400 . S
C1945 C1939 1.491 . S
C1945 C1944 1.400 . S
C1945 C1946 1.398 . S
C1946 H1934 0.950 . S
C1946 C1945 1.398 . S
C1946 C1947 1.391 . S
C1947 H1935 0.950 . S
C1947 C1943 1.393 . S
C1947 C1946 1.391 . S
H1948 C1956 0.950 . S
H1949 C1961 0.950 . S
H1950 C1958 0.950 . S
H1951 C1960 0.950 . S
H1952 C1962 0.950 . S
H1953 C1964 0.950 . S
H1954 C1966 0.950 . S
H1955 C1967 0.950 . S
C1956 H1948 0.950 . S
C1956 C1957 1.386 . S
C1956 C1958 1.391 . S
C1957 C1956 1.386 . S
C1957 C1961 1.393 . S
C1958 H1950 0.950 . S
C1958 C1956 1.391 . S
C1958 C1959 1.400 . S
C1959 C1958 1.400 . S
C1959 C1960 1.398 . S
C1959 C1965 1.491 . S
C1960 H1951 0.950 . S
C1960 C1959 1.398 . S
C1960 C1961 1.391 . S
C1961 H1949 0.950 . S
C1961 C1957 1.393 . S
C1961 C1960 1.391 . S
C1962 H1952 0.950 . S
C1962 C1963 1.386 . S
C1962 C1964 1.391 . S
C1963 C1962 1.386 . S
C1963 C1967 1.393 . S
C1964 H1953 0.950 . S
C1964 C1962 1.391 . S
C1964 C1965 1.400 . S
C1965 C1959 1.491 . S
C1965 C1964 1.400 . S
C1965 C1966 1.398 . S
C1966 H1954 0.950 . S
C1966 C1965 1.398 . S
C1966 C1967 1.391 . S
C1967 H1955 0.950 . S
C1967 C1963 1.393 . S
C1967 C1966 1.391 . S
C537 C9 1.469 . S
C543 C404 1.433 . S
C557 C422 1.400 . S
C563 C31 1.489 . S
C577 C356 1.419 . S
C583 C53 1.480 . S
C597 C71 1.467 . S
C603 C378 1.433 . S
C617 C488 1.431 . S
C623 C93 1.471 . S
C637 C466 1.420 . S
C643 C119 1.474 . S
C657 C514 1.405 . S
C663 C137 1.489 . S
C677 C448 1.403 . S
C683 C159 1.490 . S
C697 C185 1.468 . S
C703 C294 1.434 . S
C717 C203 1.481 . S
C723 C338 1.409 . S
C737 C225 1.476 . S
C743 C316 1.426 . S
C757 C268 1.400 . S
C763 C251 1.489 . S
C777 C140 1.433 . S
C783 C271 1.467 . S
C797 C292 1.489 . S
C803 C162 1.406 . S
C817 C96 1.433 . S
C823 C314 1.467 . S
C837 C114 1.401 . S
C843 C336 1.491 . S
C857 C359 1.487 . S
C863 C228 1.409 . S
C877 C206 1.412 . S
C883 C381 1.485 . S
C897 C246 1.434 . S
C903 C402 1.467 . S
C917 C425 1.490 . S
C923 C180 1.403 . S
C937 C446 1.491 . S
C943 C26 1.400 . S
C957 C469 1.484 . S
C963 C74 1.406 . S
C977 C491 1.474 . S
C983 C48 1.420 . S
C997 C4 1.400 . S
C1003 C512 1.488 . S
C1017 C423 1.099 . S
C1023 C5 1.064 . S
C1037 C405 1.113 . S
C1043 C27 1.061 . S
C1057 C379 1.100 . S
C1063 C49 1.091 . S
C1077 C357 1.093 . S
C1083 C75 1.097 . S
C1097 C97 1.097 . S
C1103 C515 1.093 . S
C1117 C115 1.093 . S
C1123 C449 1.098 . S
C1137 C489 1.092 . S
C1143 C141 1.070 . S
C1157 C467 1.114 . S
C1163 C163 1.066 . S
C1177 C317 1.089 . S
C1183 C181 1.100 . S
C1197 C207 1.092 . S
C1203 C269 1.099 . S
C1217 C295 1.113 . S
C1223 C229 1.071 . S
C1237 C339 1.114 . S
C1243 C247 1.064 . S
C1257 C270 1.101 . S
C1263 C161 1.086 . S
C1277 C139 1.078 . S
C1283 C293 1.097 . S
C1297 C315 1.063 . S
C1303 C116 1.114 . S
C1317 C337 1.060 . S
C1323 C95 1.104 . S
C1337 C248 1.109 . S
C1343 C358 1.079 . S
C1357 C182 1.090 . S
C1363 C380 1.073 . S
C1377 C403 1.087 . S
C1383 C227 1.104 . S
C1397 C424 1.060 . S
C1403 C205 1.112 . S
C1417 C50 1.086 . S
C1423 C447 1.077 . S
C1437 C6 1.112 . S
C1443 C468 1.060 . S
C1457 C490 1.061 . S
C1463 C28 1.104 . S
C1477 C513 1.077 . S
C1483 C73 1.110 . S
C1497 C8 0.907 . S
C1503 C94 0.870 . S
C1517 C117 0.903 . S
C1523 C30 0.878 . S
C1537 C138 0.867 . S
C1543 C52 0.909 . S
C1557 C160 0.904 . S
C1563 C70 0.877 . S
C1577 C183 0.886 . S
C1583 C92 0.894 . S
C1597 C118 0.875 . S
C1603 C249 0.907 . S
C1617 C136 0.878 . S
C1623 C204 0.904 . S
C1637 C226 0.878 . S
C1643 C158 0.899 . S
C1657 C184 0.876 . S
C1663 C7 0.906 . S
C1677 C202 0.876 . S
C1683 C51 0.906 . S
C1697 C72 0.893 . S
C1703 C224 0.887 . S
C1717 C29 0.892 . S
C1723 C250 0.889 . S
C1737 C272 0.878 . S
C1743 C361 0.904 . S
C1757 C383 0.872 . S
C1763 C290 0.905 . S
C1777 C401 0.878 . S
C1783 C312 0.900 . S
C1797 C427 0.869 . S
C1803 C334 0.908 . S
C1817 C360 0.892 . S
C1823 C445 0.887 . S
C1837 C511 0.902 . S
C1843 C382 0.880 . S
C1857 C400 0.887 . S
C1863 C471 0.894 . S
C1877 C426 0.903 . S
C1883 C493 0.873 . S
C1897 C273 0.868 . S
C1903 C444 0.908 . S
C1917 C313 0.900 . S
C1923 C470 0.882 . S
C1937 C335 0.888 . S
C1943 C492 0.892 . S
C1957 C291 0.867 . S
C1963 C510 0.909 . S
