# Generated by pormake.
# Topology vbn, (6)-cn, num edge types: 1
# Building blocks:
#     Node 0, Type 0, BuildingBlock: OJICUG_clean_sbu_0, # of connection points: 6
#     Node 1, Type 0, BuildingBlock: OJICUG_clean_sbu_0, # of connection points: 6
#     Node 2, Type 0, BuildingBlock: OJICUG_clean_sbu_0, # of connection points: 6
#     Node 3, Type 0, BuildingBlock: OJICUG_clean_sbu_0, # of connection points: 6
#     Node 4, Type 0, BuildingBlock: OJICUG_clean_sbu_0, # of connection points: 6
#     Node 5, Type 0, BuildingBlock: OJICUG_clean_sbu_0, # of connection points: 6
#     Node 6, Type 0, BuildingBlock: OJICUG_clean_sbu_0, # of connection points: 6
#     Node 7, Type 0, BuildingBlock: OJICUG_clean_sbu_0, # of connection points: 6
#     Edge 8, Type (0, 0), BuildingBlock: EZIPEK_clean_linker_0, # of connection points: 2
#     Edge 9, Type (0, 0), BuildingBlock: EZIPEK_clean_linker_0, # of connection points: 2
#     Edge 10, Type (0, 0), BuildingBlock: EZIPEK_clean_linker_0, # of connection points: 2
#     Edge 11, Type (0, 0), BuildingBlock: EZIPEK_clean_linker_0, # of connection points: 2
#     Edge 12, Type (0, 0), BuildingBlock: EZIPEK_clean_linker_0, # of connection points: 2
#     Edge 13, Type (0, 0), BuildingBlock: EZIPEK_clean_linker_0, # of connection points: 2
#     Edge 14, Type (0, 0), BuildingBlock: EZIPEK_clean_linker_0, # of connection points: 2
#     Edge 15, Type (0, 0), BuildingBlock: EZIPEK_clean_linker_0, # of connection points: 2
#     Edge 16, Type (0, 0), BuildingBlock: EZIPEK_clean_linker_0, # of connection points: 2
#     Edge 17, Type (0, 0), BuildingBlock: EZIPEK_clean_linker_0, # of connection points: 2
#     Edge 18, Type (0, 0), BuildingBlock: EZIPEK_clean_linker_0, # of connection points: 2
#     Edge 19, Type (0, 0), BuildingBlock: EZIPEK_clean_linker_0, # of connection points: 2
#     Edge 20, Type (0, 0), BuildingBlock: EZIPEK_clean_linker_0, # of connection points: 2
#     Edge 21, Type (0, 0), BuildingBlock: EZIPEK_clean_linker_0, # of connection points: 2
#     Edge 22, Type (0, 0), BuildingBlock: EZIPEK_clean_linker_0, # of connection points: 2
#     Edge 23, Type (0, 0), BuildingBlock: EZIPEK_clean_linker_0, # of connection points: 2
#     Edge 24, Type (0, 0), BuildingBlock: EZIPEK_clean_linker_0, # of connection points: 2
#     Edge 25, Type (0, 0), BuildingBlock: EZIPEK_clean_linker_0, # of connection points: 2
#     Edge 26, Type (0, 0), BuildingBlock: EZIPEK_clean_linker_0, # of connection points: 2
#     Edge 27, Type (0, 0), BuildingBlock: EZIPEK_clean_linker_0, # of connection points: 2
#     Edge 28, Type (0, 0), BuildingBlock: EZIPEK_clean_linker_0, # of connection points: 2
#     Edge 29, Type (0, 0), BuildingBlock: EZIPEK_clean_linker_0, # of connection points: 2
#     Edge 30, Type (0, 0), BuildingBlock: EZIPEK_clean_linker_0, # of connection points: 2
#     Edge 31, Type (0, 0), BuildingBlock: EZIPEK_clean_linker_0, # of connection points: 2
# Relax obj value: 0.292
# Max RMSD: 0.267
# Mean RMSD: 0.267
data_MOF--net-vbn--node1-OJICUG_clean_sbu_0--edge1-EZIPEK_clean_linker_0
_symmetry_space_group_name_H-M    P1
_symmetry_Int_Tables_number       1
_symmetry_cell_setting            triclinic
loop_
_symmetry_equiv_pos_as_xyz
'x, y, z'
_cell_length_a     19.614923
_cell_length_b     21.842387
_cell_length_c     35.722578
_cell_angle_alpha  89.77978
_cell_angle_beta   89.774254
_cell_angle_gamma 90.144237
loop_
_atom_site_label
_atom_site_type_symbol
_atom_site_fract_x
_atom_site_fract_y
_atom_site_fract_z
_atom_type_partial_charge
Sc0 Sc 0.29731 0.28133 0.3777 0.0
Sc1 Sc 0.40396 0.2601 0.45412 0.0
Sc2 Sc 0.43453 0.37701 0.39322 0.0
O3 O 0.3778 0.30503 0.40787 0.0
C4 C 0.41983 0.31124 0.31801 0.0
C5 C 0.34362 0.1515 0.40222 0.0
C6 C 0.54504 0.2834 0.42708 0.0
C7 C 0.24752 0.26819 0.46452 0.0
C8 C 0.28695 0.42338 0.37266 0.0
C9 C 0.43171 0.40219 0.47396 0.0
O10 O 0.35714 0.29669 0.32497 0.0
O11 O 0.36964 0.17133 0.43261 0.0
O12 O 0.52761 0.33826 0.41895 0.0
O13 O 0.23617 0.26514 0.4291 0.0
O14 O 0.35111 0.42896 0.36829 0.0
O15 O 0.44317 0.34547 0.48107 0.0
O16 O 0.25884 0.37238 0.37926 0.0
O17 O 0.30671 0.2744 0.47834 0.0
O18 O 0.4053 0.41815 0.44347 0.0
O19 O 0.32554 0.18716 0.37595 0.0
O20 O 0.45924 0.33449 0.34221 0.0
O21 O 0.49989 0.24238 0.4295 0.0
Sc22 Sc 0.19329 0.22335 0.87454 0.0
Sc23 Sc 0.09165 0.25021 0.9517 0.0
Sc24 Sc 0.0607 0.12728 0.89665 0.0
O25 O 0.11556 0.20115 0.90681 0.0
C26 C 0.06954 0.18681 0.81887 0.0
C27 C 0.15275 0.35223 0.89468 0.0
C28 C 0.95139 0.22683 0.92608 0.0
C29 C 0.24487 0.24185 0.96054 0.0
C30 C 0.20899 0.08135 0.87609 0.0
C31 C 0.06168 0.11223 0.97747 0.0
O32 O 0.13227 0.20267 0.82368 0.0
O33 O 0.13468 0.33616 0.9278 0.0
O34 O 0.96878 0.17099 0.92055 0.0
O35 O 0.25464 0.24723 0.92497 0.0
O36 O 0.14475 0.07354 0.87383 0.0
O37 O 0.0471 0.169 0.9816 0.0
O38 O 0.2359 0.13374 0.8794 0.0
O39 O 0.18716 0.23106 0.97524 0.0
O40 O 0.09337 0.09534 0.94876 0.0
O41 O 0.15636 0.31394 0.8684 0.0
O42 O 0.03322 0.16185 0.84405 0.0
O43 O 0.99649 0.26834 0.92659 0.0
Sc44 Sc 0.79535 0.23705 0.62413 0.0
Sc45 Sc 0.90643 0.25051 0.54912 0.0
Sc46 Sc 0.92779 0.13673 0.61277 0.0
O47 O 0.87654 0.20954 0.59593 0.0
C48 C 0.90952 0.20278 0.68643 0.0
C49 C 0.85299 0.3628 0.60079 0.0
C50 C 0.0446 0.22506 0.57726 0.0
C51 C 0.75257 0.25053 0.53692 0.0
C52 C 0.77688 0.09569 0.62648 0.0
C53 C 0.93339 0.10686 0.53406 0.0
O54 O 0.84725 0.21623 0.67838 0.0
O55 O 0.87119 0.34058 0.56913 0.0
O56 O 0.0239 0.1724 0.58818 0.0
O57 O 0.74063 0.26054 0.57179 0.0
O58 O 0.83889 0.08998 0.63642 0.0
O59 O 0.94622 0.16287 0.52528 0.0
O60 O 0.75133 0.14748 0.61893 0.0
O61 O 0.81031 0.23428 0.52441 0.0
O62 O 0.90054 0.09349 0.56307 0.0
O63 O 0.83446 0.32819 0.62768 0.0
O64 O 0.95109 0.18107 0.66287 0.0
O65 O 0.0026 0.2684 0.57344 0.0
Sc66 Sc 0.55906 0.37367 0.10233 0.0
Sc67 Sc 0.58783 0.25166 0.04584 0.0
Sc68 Sc 0.69297 0.27608 0.12171 0.0
O69 O 0.61394 0.29979 0.09056 0.0
C70 C 0.70863 0.41907 0.12035 0.0
C71 C 0.559 0.39056 0.02042 0.0
C72 C 0.74237 0.25794 0.03559 0.0
C73 C 0.44797 0.27659 0.07226 0.0
C74 C 0.57136 0.31226 0.17977 0.0
C75 C 0.64209 0.14594 0.10201 0.0
O76 O 0.64459 0.4268 0.12408 0.0
O77 O 0.54678 0.3334 0.016 0.0
O78 O 0.75321 0.2529 0.071 0.0
O79 O 0.46606 0.33186 0.07887 0.0
O80 O 0.63347 0.29577 0.17358 0.0
O81 O 0.62457 0.16476 0.06952 0.0
O82 O 0.53395 0.33737 0.15532 0.0
O83 O 0.49246 0.23495 0.07148 0.0
O84 O 0.65911 0.18353 0.12727 0.0
O85 O 0.58664 0.40949 0.04995 0.0
O86 O 0.73503 0.36654 0.11674 0.0
O87 O 0.68416 0.26795 0.02156 0.0
Sc88 Sc 0.56569 0.63656 0.59613 0.0
Sc89 Sc 0.59938 0.75723 0.53828 0.0
Sc90 Sc 0.69931 0.73396 0.61671 0.0
O91 O 0.62166 0.7103 0.58439 0.0
C92 C 0.574 0.69823 0.67309 0.0
C93 C 0.45621 0.73246 0.56259 0.0
C94 C 0.64963 0.86382 0.59503 0.0
C95 C 0.57083 0.61728 0.51486 0.0
C96 C 0.71376 0.59121 0.61748 0.0
C97 C 0.75538 0.75248 0.53164 0.0
O98 O 0.53723 0.67382 0.64816 0.0
O99 O 0.50106 0.77404 0.56045 0.0
O100 O 0.66544 0.82643 0.62082 0.0
O101 O 0.59745 0.59985 0.54498 0.0
O102 O 0.74097 0.64341 0.61309 0.0
O103 O 0.69823 0.74176 0.51644 0.0
O104 O 0.64946 0.58401 0.6204 0.0
O105 O 0.55995 0.67432 0.50884 0.0
O106 O 0.76354 0.75729 0.56725 0.0
O107 O 0.47373 0.67745 0.57053 0.0
O108 O 0.63668 0.71416 0.66769 0.0
O109 O 0.63394 0.84488 0.56229 0.0
Sc110 Sc 0.79725 0.77456 0.11889 0.0
Sc111 Sc 0.89637 0.75511 0.0398 0.0
Sc112 Sc 0.92785 0.87391 0.09742 0.0
O113 O 0.87367 0.79994 0.08613 0.0
C114 C 0.77998 0.91625 0.11953 0.0
C115 C 0.74198 0.7559 0.03414 0.0
C116 C 0.91947 0.89625 0.01699 0.0
C117 C 0.84901 0.64657 0.09658 0.0
C118 C 0.9219 0.8126 0.17414 0.0
C119 C 0.03844 0.78041 0.06359 0.0
O120 O 0.75317 0.86409 0.1145 0.0
O121 O 0.79799 0.77082 0.01884 0.0
O122 O 0.8918 0.91141 0.04729 0.0
O123 O 0.8352 0.68316 0.1231 0.0
O124 O 0.95881 0.83413 0.14803 0.0
O125 O 0.9942 0.73844 0.06166 0.0
O126 O 0.85869 0.79783 0.16958 0.0
O127 O 0.86276 0.6667 0.06367 0.0
O128 O 0.02003 0.8355 0.07045 0.0
O129 O 0.7344 0.74859 0.0697 0.0
O130 O 0.84398 0.92326 0.12376 0.0
O131 O 0.93379 0.83987 0.0109 0.0
Sc132 Sc 0.06917 0.87842 0.3824 0.0
Sc133 Sc 0.09019 0.7588 0.44182 0.0
Sc134 Sc 0.20121 0.77808 0.36718 0.0
O135 O 0.12067 0.80403 0.39654 0.0
C136 C 0.08377 0.81356 0.3072 0.0
C137 C 0.9526 0.78682 0.41489 0.0
C138 C 0.14529 0.65054 0.38811 0.0
C139 C 0.06099 0.90026 0.46176 0.0
C140 C 0.22017 0.91988 0.36692 0.0
C141 C 0.24475 0.76158 0.45427 0.0
O142 O 0.04514 0.83926 0.33077 0.0
O143 O 0.99494 0.74323 0.41577 0.0
O144 O 0.16392 0.68701 0.36235 0.0
O145 O 0.09624 0.91645 0.43408 0.0
O146 O 0.24554 0.86739 0.37231 0.0
O147 O 0.18603 0.77382 0.46732 0.0
O148 O 0.15717 0.92739 0.35982 0.0
O149 O 0.0481 0.84344 0.46785 0.0
O150 O 0.25725 0.75471 0.41913 0.0
O151 O 0.97342 0.84047 0.4061 0.0
O152 O 0.14583 0.79791 0.31412 0.0
O153 O 0.12674 0.67047 0.42022 0.0
Sc154 Sc 0.43017 0.62918 0.88641 0.0
Sc155 Sc 0.40238 0.74541 0.94652 0.0
Sc156 Sc 0.29832 0.72879 0.8696 0.0
O157 O 0.37582 0.7016 0.90057 0.0
C158 C 0.41931 0.69435 0.81072 0.0
C159 C 0.5421 0.72054 0.92066 0.0
C160 C 0.3524 0.85578 0.89295 0.0
C161 C 0.42561 0.60334 0.96732 0.0
C162 C 0.27925 0.58759 0.86504 0.0
C163 C 0.24853 0.74324 0.95613 0.0
O164 O 0.45787 0.67223 0.83572 0.0
O165 O 0.49793 0.76232 0.92131 0.0
O166 O 0.33647 0.82037 0.86627 0.0
O167 O 0.39972 0.58744 0.93665 0.0
O168 O 0.25375 0.63925 0.8724 0.0
O169 O 0.30579 0.7298 0.97013 0.0
O170 O 0.34375 0.58147 0.86129 0.0
O171 O 0.43947 0.65977 0.97366 0.0
O172 O 0.2385 0.75115 0.92081 0.0
O173 O 0.52359 0.66584 0.91284 0.0
O174 O 0.35648 0.70859 0.81705 0.0
O175 O 0.36822 0.83441 0.9251 0.0
C176 C 0.2657 0.99163 0.41535 0.0
C177 C 0.26196 0.97407 0.37716 0.0
C178 C 0.33756 0.05937 0.36079 0.0
C179 C 0.32801 0.08486 0.39703 0.0
N180 N 0.27932 0.07394 0.45947 0.0
N181 N 0.29441 0.99095 0.31294 0.0
C182 C 0.29222 0.05024 0.4248 0.0
C183 C 0.29825 0.0077 0.34967 0.0
N184 N 0.24426 0.95216 0.44279 0.0
N185 N 0.38596 0.08372 0.33752 0.0
H186 H 0.2677 0.95223 0.30416 0.0
H187 H 0.31394 0.0176 0.29114 0.0
H188 H 0.41833 0.11892 0.34614 0.0
H189 H 0.39919 0.06462 0.31183 0.0
H190 H 0.25289 0.95945 0.47119 0.0
H191 H 0.22448 0.90888 0.43718 0.0
H192 H 0.24579 0.05367 0.47853 0.0
H193 H 0.2972 0.11589 0.46884 0.0
C194 C 0.14154 0.46827 0.89284 0.0
C195 C 0.18062 0.41469 0.88651 0.0
C196 C 0.26401 0.47615 0.85137 0.0
C197 C 0.23473 0.53081 0.86484 0.0
N198 N 0.13445 0.57892 0.892 0.0
N199 N 0.28736 0.37079 0.86511 0.0
C200 C 0.17002 0.52709 0.88368 0.0
C201 C 0.24405 0.41954 0.86718 0.0
N202 N 0.07591 0.46277 0.90551 0.0
N203 N 0.30906 0.47801 0.82214 0.0
H204 H 0.27747 0.32892 0.87797 0.0
H205 H 0.33662 0.3744 0.85423 0.0
H206 H 0.31943 0.51844 0.80749 0.0
H207 H 0.32807 0.43867 0.8094 0.0
H208 H 0.04169 0.49903 0.90698 0.0
H209 H 0.0535 0.42072 0.91204 0.0
H210 H 0.09515 0.58019 0.91165 0.0
H211 H 0.14155 0.62022 0.87794 0.0
C212 C 0.78139 0.51851 0.57764 0.0
C213 C 0.75848 0.53654 0.61383 0.0
C214 C 0.82649 0.45418 0.64158 0.0
C215 C 0.83954 0.43041 0.60529 0.0
N216 N 0.86342 0.46012 0.54161 0.0
N217 N 0.76082 0.52331 0.68073 0.0
C218 C 0.82715 0.46843 0.5739 0.0
C219 C 0.78208 0.50521 0.64604 0.0
N220 N 0.75747 0.54783 0.54659 0.0
N221 N 0.86151 0.4307 0.67123 0.0
H222 H 0.73044 0.56184 0.68489 0.0
H223 H 0.76996 0.49838 0.70508 0.0
H224 H 0.90059 0.39908 0.66717 0.0
H225 H 0.85871 0.44783 0.69834 0.0
H226 H 0.76683 0.53276 0.51947 0.0
H227 H 0.7253 0.58561 0.54791 0.0
H228 H 0.86046 0.48922 0.51854 0.0
H229 H 0.90457 0.43016 0.54002 0.0
C230 C 0.67793 0.05902 0.14519 0.0
C231 C 0.65656 0.07891 0.10908 0.0
C232 C 0.70504 0.98595 0.08167 0.0
C233 C 0.73545 0.97109 0.11667 0.0
N234 N 0.75109 0.99278 0.18212 0.0
N235 N 0.61668 0.04244 0.04949 0.0
C236 C 0.72154 0.00721 0.14865 0.0
C237 C 0.66017 0.03683 0.07906 0.0
N238 N 0.65139 0.08648 0.17625 0.0
N239 N 0.72177 0.9535 0.05034 0.0
H240 H 0.57645 0.07354 0.04952 0.0
H241 H 0.61328 0.0104 0.02805 0.0
H242 H 0.75459 0.91604 0.05067 0.0
H243 H 0.70733 0.96666 0.02347 0.0
H244 H 0.66045 0.07176 0.20351 0.0
H245 H 0.6125 0.11874 0.17437 0.0
H246 H 0.74992 0.02141 0.20535 0.0
H247 H 0.78051 0.95356 0.18607 0.0
C248 C 0.71014 1.00337 0.64871 0.0
C249 C 0.73501 0.04009 0.61886 0.0
C250 C 0.67658 0.97318 0.57364 0.0
C251 C 0.66171 0.93104 0.60287 0.0
N252 N 0.63336 0.92197 0.66824 0.0
N253 N 0.7456 0.05829 0.55225 0.0
C254 C 0.66956 0.95082 0.64059 0.0
C255 C 0.7186 0.0249 0.58118 0.0
N256 N 0.72657 0.01791 0.68475 0.0
N257 N 0.64582 0.9672 0.5396 0.0
H258 H 0.77347 0.09839 0.55608 0.0
H259 H 0.74395 0.04413 0.52445 0.0
H260 H 0.60629 0.93629 0.53494 0.0
H261 H 0.65089 0.99917 0.51806 0.0
H262 H 0.71727 0.98911 0.70749 0.0
H263 H 0.7534 0.05753 0.69173 0.0
H264 H 0.63203 0.93632 0.69597 0.0
H265 H 0.59737 0.88829 0.66221 0.0
C266 C 0.82047 0.55853 0.14036 0.0
C267 C 0.83476 0.57933 0.1034 0.0
C268 C 0.77909 0.48752 0.07854 0.0
C269 C 0.75385 0.4733 0.11504 0.0
N270 N 0.75158 0.4941 0.18118 0.0
N271 N 0.86148 0.54455 0.04124 0.0
C272 C 0.77528 0.50823 0.14618 0.0
C273 C 0.82413 0.53823 0.07338 0.0
N274 N 0.85537 0.58359 0.16949 0.0
N275 N 0.75795 0.45398 0.04853 0.0
H276 H 0.90195 0.57537 0.03903 0.0
H277 H 0.85999 0.51363 0.01916 0.0
H278 H 0.72538 0.41636 0.05093 0.0
H279 H 0.76932 0.4655 0.02091 0.0
H280 H 0.85151 0.56822 0.19704 0.0
H281 H 0.89564 0.61398 0.16477 0.0
H282 H 0.75915 0.52201 0.20437 0.0
H283 H 0.7206 0.45615 0.18657 0.0
C284 C 0.21407 0.49412 0.41054 0.0
C285 C 0.24342 0.47869 0.37531 0.0
C286 C 0.18089 0.56301 0.34604 0.0
C287 C 0.16027 0.58363 0.38212 0.0
N288 N 0.12499 0.54906 0.44326 0.0
N289 N 0.25478 0.49732 0.30913 0.0
C290 C 0.16711 0.54335 0.41295 0.0
C291 C 0.22641 0.51257 0.34282 0.0
N292 N 0.23356 0.4636 0.44215 0.0
N293 N 0.15226 0.58877 0.315 0.0
H294 H 0.28608 0.4592 0.30563 0.0
H295 H 0.25082 0.52434 0.28517 0.0
H296 H 0.11276 0.6204 0.31708 0.0
H297 H 0.16071 0.5735 0.28782 0.0
H298 H 0.21981 0.4774 0.46901 0.0
H299 H 0.26858 0.42783 0.44183 0.0
H300 H 0.12414 0.51818 0.46554 0.0
H301 H 0.08352 0.57882 0.44333 0.0
C302 C 0.27579 0.99519 0.84736 0.0
C303 C 0.25435 0.02741 0.87963 0.0
C304 C 0.32696 0.96179 0.91885 0.0
C305 C 0.33779 0.923 0.88772 0.0
N306 N 0.35598 0.92232 0.82129 0.0
N307 N 0.25884 0.04206 0.94659 0.0
C308 C 0.322 0.9455 0.85144 0.0
C309 C 0.28045 0.01137 0.91549 0.0
N310 N 0.25082 0.0111 0.81302 0.0
N311 N 0.36542 0.95461 0.95034 0.0
H312 H 0.22617 0.07956 0.94542 0.0
H313 H 0.26986 0.02803 0.97378 0.0
H314 H 0.40685 0.92486 0.95131 0.0
H315 H 0.36356 0.98419 0.9731 0.0
H316 H 0.25864 0.98515 0.789 0.0
H317 H 0.21845 0.04837 0.809 0.0
H318 H 0.35098 0.93901 0.79411 0.0
H319 H 0.39635 0.89183 0.82477 0.0
C320 C 0.53676 0.45437 0.49729 0.0
C321 C 0.46501 0.45384 0.49398 0.0
C322 C 0.4651 0.56659 0.4907 0.0
C323 C 0.53685 0.56684 0.49402 0.0
N324 N 0.64129 0.51164 0.48744 0.0
N325 N 0.35983 0.50906 0.49808 0.0
C326 C 0.57254 0.51057 0.49308 0.0
C327 C 0.42904 0.5102 0.49405 0.0
N328 N 0.57046 0.40224 0.507 0.0
N329 N 0.43192 0.61924 0.4815 0.0
H330 H 0.33342 0.46798 0.5022 0.0
H331 H 0.3302 0.54819 0.50112 0.0
H332 H 0.45741 0.6603 0.47634 0.0
H333 H 0.38092 0.61993 0.47361 0.0
H334 H 0.62167 0.4023 0.51453 0.0
H335 H 0.54545 0.36124 0.51298 0.0
H336 H 0.67047 0.47236 0.48378 0.0
H337 H 0.6672 0.55276 0.48249 0.0
C338 C 0.02449 0.94848 0.99265 0.0
C339 C 0.95298 0.94862 -0.00275 0.0
C340 C 0.95479 0.06133 0.00175 0.0
C341 C 0.02638 0.06085 -0.00267 0.0
N342 N 0.13024 0.00391 0.00157 0.0
N343 N 0.84852 0.00529 0.99523 0.0
C344 C 0.06123 0.00402 -0.00286 0.0
C345 C 0.91783 0.00545 -0.00171 0.0
N346 N 0.0569 0.89658 0.98131 0.0
N347 N 0.92275 0.11381 0.01233 0.0
H348 H 0.82136 0.96473 0.99094 0.0
H349 H 0.81942 0.04489 0.99307 0.0
H350 H 0.9491 0.15412 0.01804 0.0
H351 H 0.87201 0.11468 0.02091 0.0
H352 H 0.10786 0.89626 0.97309 0.0
H353 H 0.03086 0.85655 0.97455 0.0
H354 H 0.15883 0.96413 0.00381 0.0
H355 H 0.15731 0.04423 0.00677 0.0
C356 C 0.95391 0.04419 0.47687 0.0
C357 C 0.96661 0.05475 0.51506 0.0
C358 C 0.02739 0.95619 0.51991 0.0
C359 C 0.02228 0.94954 0.48075 0.0
N360 N 0.98188 0.98915 0.42094 0.0
N361 N 0.02138 0.02338 0.573 0.0
C362 C 0.98601 0.9941 0.45896 0.0
C363 C 0.00433 0.01115 0.5367 0.0
N364 N 0.90761 0.07963 0.45816 0.0
N365 N 0.05496 0.91039 0.54123 0.0
H366 H 0.00642 0.06238 0.58721 0.0
H367 H 0.05631 0.99781 0.58832 0.0
H368 H 0.07801 0.8716 0.5301 0.0
H369 H 0.05067 0.90846 0.57027 0.0
H370 H 0.88894 0.06905 0.4317 0.0
H371 H 0.88275 0.11682 0.47026 0.0
H372 H 0.96748 0.02519 0.40352 0.0
H373 H 0.99456 0.94999 0.40629 0.0
C374 C 0.42032 0.49456 0.98757 0.0
C375 C 0.45548 0.55158 0.98905 0.0
C376 C 0.56266 0.49683 -0.00283 0.0
C377 C 0.52772 0.44001 -0.00274 0.0
N378 N 0.42734 0.3848 0.97859 0.0
N379 N 0.55609 0.60508 0.0097 0.0
C380 C 0.45741 0.43859 0.98868 0.0
C381 C 0.52563 0.55242 -0.00208 0.0
N382 N 0.35074 0.4946 0.98612 0.0
N383 N 0.63212 0.4969 0.99578 0.0
H384 H 0.52937 0.6455 0.01418 0.0
H385 H 0.60522 0.60589 0.02064 0.0
H386 H 0.65934 0.4562 0.99263 0.0
H387 H 0.66128 0.53659 0.99353 0.0
H388 H 0.32112 0.45514 0.9879 0.0
H389 H 0.32267 0.53516 0.98692 0.0
H390 H 0.37857 0.38242 0.96732 0.0
H391 H 0.45428 0.34401 0.97613 0.0
C392 C 0.50455 0.25324 0.22832 0.0
C393 C 0.53974 0.30751 0.21744 0.0
C394 C 0.4776 0.3648 0.26535 0.0
C395 C 0.4492 0.30949 0.27954 0.0
N396 N 0.43987 0.19971 0.27655 0.0
N397 N 0.5676 0.41304 0.22908 0.0
C398 C 0.46364 0.2532 0.26151 0.0
C399 C 0.52869 0.36265 0.23719 0.0
N400 N 0.50801 0.20259 0.20611 0.0
N401 N 0.45403 0.41969 0.27827 0.0
H402 H 0.60585 0.41265 0.20869 0.0
H403 H 0.56653 0.453 0.24488 0.0
H404 H 0.41469 0.42274 0.29792 0.0
H405 H 0.46806 0.46174 0.26671 0.0
H406 H 0.47794 0.16376 0.21024 0.0
H407 H 0.53784 0.2012 0.1819 0.0
H408 H 0.45519 0.15668 0.26735 0.0
H409 H 0.40716 0.19865 0.2996 0.0
C410 C 0.00927 0.14033 0.76542 0.0
C411 C 0.03466 0.1942 0.78246 0.0
C412 C 0.96326 0.25663 0.74074 0.0
C413 C 0.93573 0.20239 0.72523 0.0
N414 N 0.91919 0.0936 0.72901 0.0
N415 N 0.02856 0.30359 0.7907 0.0
C416 C 0.95444 0.14454 0.73984 0.0
C417 C 0.00976 0.25254 0.77129 0.0
N418 N 0.03886 0.08515 0.77326 0.0
N419 N 0.94601 0.3118 0.72556 0.0
H420 H 0.06413 0.30242 0.81229 0.0
H421 H 0.00647 0.34641 0.78675 0.0
H422 H 0.90823 0.31548 0.70524 0.0
H423 H 0.97007 0.35288 0.73217 0.0
H424 H 0.02683 0.04483 0.75927 0.0
H425 H 0.0804 0.08095 0.79127 0.0
H426 H 0.92624 0.05045 0.74085 0.0
H427 H 0.87778 0.09614 0.71081 0.0
C428 C 0.45806 0.75211 0.75236 0.0
C429 C 0.45027 0.69631 0.77247 0.0
C430 C 0.53636 0.64816 0.73206 0.0
C431 C 0.54109 0.7024 0.71044 0.0
N432 N 0.49624 0.80193 0.69508 0.0
N433 N 0.46756 0.5871 0.77445 0.0
C434 C 0.49904 0.75336 0.71921 0.0
C435 C 0.48525 0.64309 0.76013 0.0
N436 N 0.42804 0.80417 0.76534 0.0
N437 N 0.58091 0.6013 0.72567 0.0
H438 H 0.42797 0.58146 0.79377 0.0
H439 H 0.48665 0.54594 0.76423 0.0
H440 H 0.61888 0.60368 0.70518 0.0
H441 H 0.58437 0.56284 0.74289 0.0
H442 H 0.43851 0.84759 0.75457 0.0
H443 H 0.39515 0.80416 0.78827 0.0
H444 H 0.46125 0.83746 0.69767 0.0
H445 H 0.5259 0.80435 0.67083 0.0
C446 C 0.99298 0.86468 0.22175 0.0
C447 C 0.95579 0.81149 0.21136 0.0
C448 C 0.00965 0.75527 0.263 0.0
C449 C 0.05282 0.80636 0.26987 0.0
N450 N 0.09346 0.90607 0.25182 0.0
N451 N 0.93314 0.70386 0.22013 0.0
C452 C 0.04719 0.85973 0.24769 0.0
C453 C 0.9652 0.75602 0.23149 0.0
N454 N 0.97452 0.92051 0.20769 0.0
N455 N 0.00895 0.70725 0.28761 0.0
H456 H 0.89746 0.70363 0.19866 0.0
H457 H 0.94438 0.66061 0.23079 0.0
H458 H 0.04159 0.70502 0.31054 0.0
H459 H 0.97328 0.67188 0.28668 0.0
H460 H 0.99575 0.96166 0.21664 0.0
H461 H 0.93255 0.92609 0.19013 0.0
H462 H 0.09566 0.94408 0.23415 0.0
H463 H 0.13388 0.90333 0.27069 0.0
C464 C 0.66059 0.31716 0.45224 0.0
C465 C 0.6119 0.27023 0.44598 0.0
C466 C 0.65487 0.21232 0.49959 0.0
C467 C 0.69945 0.26099 0.50831 0.0
N468 N 0.75281 0.35663 0.491 0.0
N469 N 0.59558 0.16087 0.44973 0.0
C470 C 0.70521 0.31242 0.48374 0.0
C471 C 0.61911 0.21377 0.46535 0.0
N472 N 0.66537 0.36452 0.42729 0.0
N473 N 0.646 0.16488 0.52414 0.0
H474 H 0.57671 0.1597 0.42245 0.0
H475 H 0.60389 0.11779 0.46149 0.0
H476 H 0.66985 0.16354 0.55016 0.0
H477 H 0.60977 0.13051 0.52023 0.0
H478 H 0.69625 0.40281 0.43054 0.0
H479 H 0.64075 0.36331 0.40146 0.0
H480 H 0.76276 0.39424 0.47394 0.0
H481 H 0.78294 0.35597 0.51495 0.0
C482 C 0.836 0.19354 0.95128 0.0
C483 C 0.88487 0.24055 0.94522 0.0
C484 C 0.84283 0.29615 -0.00012 0.0
C485 C 0.79731 0.24764 0.00794 0.0
N486 N 0.74251 0.1536 0.98923 0.0
N487 N 0.90307 0.34945 0.95055 0.0
C488 C 0.79116 0.19742 0.98275 0.0
C489 C 0.87875 0.29604 0.96549 0.0
N490 N 0.83208 0.1462 0.9265 0.0
N491 N 0.85182 0.34246 0.02494 0.0
H492 H 0.92142 0.35199 0.92312 0.0
H493 H 0.89566 0.39198 0.96305 0.0
H494 H 0.82704 0.34336 0.05081 0.0
H495 H 0.88875 0.37645 0.02153 0.0
H496 H 0.80372 0.10651 0.93074 0.0
H497 H 0.8563 0.14807 0.90045 0.0
H498 H 0.73002 0.11893 0.97061 0.0
H499 H 0.71361 0.15199 0.01377 0.0
C500 C 0.13015 0.18545 0.53101 0.0
C501 C 0.11043 0.23203 0.55624 0.0
C502 C 0.18359 0.30431 0.52142 0.0
C503 C 0.19164 0.2601 0.49243 0.0
N504 N 0.16024 0.16116 0.46737 0.0
N505 N 0.12517 0.33481 0.57858 0.0
C506 C 0.1605 0.20173 0.49633 0.0
C507 C 0.13972 0.29124 0.5524 0.0
N508 N 0.12505 0.12543 0.54124 0.0
N509 N 0.21844 0.3585 0.51945 0.0
H510 H 0.09993 0.32414 0.60357 0.0
H511 H 0.13673 0.38108 0.57543 0.0
H512 H 0.24725 0.37129 0.49616 0.0
H513 H 0.22138 0.38974 0.54129 0.0
H514 H 0.14225 0.08966 0.52446 0.0
H515 H 0.1151 0.11255 0.56883 0.0
H516 H 0.13213 0.12056 0.46821 0.0
H517 H 0.18256 0.17017 0.44145 0.0
C518 C 0.33694 0.31203 0.04314 0.0
C519 C 0.38247 0.26383 0.05203 0.0
C520 C 0.34214 0.20482 -0.00167 0.0
C521 C 0.29981 0.25398 0.98772 0.0
N522 N 0.24777 0.35087 0.00258 0.0
N523 N 0.39631 0.15416 0.05043 0.0
C524 C 0.29441 0.30662 0.01104 0.0
C525 C 0.37532 0.20686 0.03339 0.0
N526 N 0.33374 0.36221 0.06577 0.0
N527 N 0.35046 0.15601 0.97502 0.0
H528 H 0.41307 0.15363 0.07813 0.0
H529 H 0.38797 0.11081 0.03921 0.0
H530 H 0.32768 0.15397 0.94871 0.0
H531 H 0.38515 0.12096 0.98026 0.0
H532 H 0.30997 0.40307 0.05856 0.0
H533 H 0.3539 0.36187 0.09276 0.0
H534 H 0.23439 0.38653 0.02034 0.0
H535 H 0.22143 0.35152 0.97736 0.0
C536 C 0.33988 0.69801 0.53882 0.0
C537 C 0.38883 0.74518 0.54404 0.0
C538 C 0.34436 0.80095 0.48992 0.0
C539 C 0.29887 0.75229 0.48253 0.0
N540 N 0.24546 0.65775 0.50204 0.0
N541 N 0.40532 0.85432 0.5384 0.0
C542 C 0.29382 0.70189 0.50792 0.0
C543 C 0.38125 0.80081 0.52384 0.0
N544 N 0.33668 0.65083 0.56396 0.0
N545 N 0.35286 0.84727 0.46456 0.0
H546 H 0.4246 0.85674 0.56556 0.0
H547 H 0.39683 0.89689 0.52599 0.0
H548 H 0.32795 0.84801 0.43884 0.0
H549 H 0.38973 0.88135 0.46752 0.0
H550 H 0.30756 0.61144 0.56062 0.0
H551 H 0.36159 0.65283 0.58969 0.0
H552 H 0.23492 0.62185 0.52035 0.0
H553 H 0.21483 0.65697 0.47825 0.0
C554 C 0.11713 0.70852 0.03003 0.0
C555 C 0.10624 0.7672 0.04581 0.0
C556 C 0.19621 0.80902 0.00535 0.0
C557 C 0.19415 0.7541 0.98392 0.0
N558 N 0.15495 0.65025 0.97642 0.0
N559 N 0.15708 0.86391 0.06084 0.0
C560 C 0.15524 0.7034 -0.00353 0.0
C561 C 0.15274 0.81495 0.03729 0.0
N562 N 0.09529 0.65752 0.04884 0.0
N563 N 0.2398 0.85503 0.99489 0.0
H564 H 0.13243 0.86414 0.08678 0.0
H565 H 0.18913 0.90132 0.05694 0.0
H566 H 0.26824 0.85355 0.97024 0.0
H567 H 0.24762 0.89516 0.00977 0.0
H568 H 0.1061 0.61304 0.04029 0.0
H569 H 0.07447 0.66013 0.07574 0.0
H570 H 0.12216 0.61384 0.98228 0.0
H571 H 0.18391 0.64448 0.95214 0.0
C572 C 0.85701 0.83038 0.45525 0.0
C573 C 0.8892 0.77901 0.43836 0.0
C574 C 0.84029 0.71183 0.48669 0.0
C575 C 0.81242 0.76316 0.50507 0.0
N576 N 0.79931 0.87223 0.50989 0.0
N577 N 0.88338 0.67017 0.42862 0.0
C578 C 0.82237 0.82285 0.4902 0.0
C579 C 0.87229 0.71934 0.45132 0.0
N580 N 0.85396 0.88464 0.43621 0.0
N581 N 0.83848 0.65611 0.50402 0.0
H582 H 0.9008 0.67537 0.40112 0.0
H583 H 0.86732 0.62589 0.43516 0.0
H584 H 0.81947 0.65113 0.53117 0.0
H585 H 0.86283 0.61737 0.49362 0.0
H586 H 0.82857 0.92325 0.44591 0.0
H587 H 0.86838 0.88841 0.40817 0.0
H588 H 0.81041 0.91745 0.5028 0.0
H589 H 0.77405 0.86769 0.53552 0.0
C590 C 0.64417 0.79107 -0.00335 0.0
C591 C 0.68657 0.74225 0.00756 0.0
C592 C 0.65154 0.68419 0.95167 0.0
C593 C 0.60635 0.73244 0.94229 0.0
N594 N 0.59306 0.84225 0.94393 0.0
N595 N 0.73875 0.64518 0.99375 0.0
C596 C 0.61276 0.78931 0.96115 0.0
C597 C 0.69271 0.68949 0.98441 0.0
N598 N 0.63418 0.83941 0.02012 0.0
N599 N 0.65637 0.63463 0.92863 0.0
H600 H 0.76425 0.64516 0.01927 0.0
H601 H 0.75233 0.60882 0.9766 0.0
H602 H 0.63653 0.63511 0.90158 0.0
H603 H 0.68216 0.59452 0.93518 0.0
H604 H 0.59945 0.87428 0.01453 0.0
H605 H 0.65539 0.84091 0.04685 0.0
H606 H 0.60104 0.88544 0.95546 0.0
H607 H 0.57796 0.84316 0.91593 0.0
loop_
_geom_bond_atom_site_label_1
_geom_bond_atom_site_label_2
_geom_bond_distance
_geom_bond_site_symmetry_2
_ccdc_geom_bond_type
Sc0 O3 2.025 . S
Sc0 O10 2.105 . S
Sc0 O13 2.105 . S
Sc0 O16 2.105 . S
Sc0 O19 2.105 . S
Sc1 O3 2.025 . S
Sc1 O11 2.105 . S
Sc1 O15 2.105 . S
Sc1 O17 2.105 . S
Sc1 O21 2.105 . S
Sc2 O3 2.025 . S
Sc2 O12 2.105 . S
Sc2 O14 2.105 . S
Sc2 O18 2.105 . S
Sc2 O20 2.105 . S
O3 Sc0 2.025 . S
O3 Sc1 2.025 . S
O3 Sc2 2.025 . S
C4 O10 1.268 . S
C4 O20 1.268 . S
C5 O11 1.268 . S
C5 O19 1.268 . S
C6 O12 1.268 . S
C6 O21 1.268 . S
C7 O13 1.268 . S
C7 O17 1.268 . S
C8 O14 1.268 . S
C8 O16 1.268 . S
C9 O15 1.268 . S
C9 O18 1.268 . S
O10 Sc0 2.105 . S
O10 C4 1.268 . S
O11 Sc1 2.105 . S
O11 C5 1.268 . S
O12 Sc2 2.105 . S
O12 C6 1.268 . S
O13 Sc0 2.105 . S
O13 C7 1.268 . S
O14 Sc2 2.105 . S
O14 C8 1.268 . S
O15 Sc1 2.105 . S
O15 C9 1.268 . S
O16 Sc0 2.105 . S
O16 C8 1.268 . S
O17 Sc1 2.105 . S
O17 C7 1.268 . S
O18 Sc2 2.105 . S
O18 C9 1.268 . S
O19 Sc0 2.105 . S
O19 C5 1.268 . S
O20 Sc2 2.105 . S
O20 C4 1.268 . S
O21 Sc1 2.105 . S
O21 C6 1.268 . S
Sc22 O25 2.025 . S
Sc22 O32 2.105 . S
Sc22 O35 2.105 . S
Sc22 O38 2.105 . S
Sc22 O41 2.105 . S
Sc23 O25 2.025 . S
Sc23 O33 2.105 . S
Sc23 O37 2.105 . S
Sc23 O39 2.105 . S
Sc23 O43 2.105 . S
Sc24 O25 2.025 . S
Sc24 O34 2.105 1_455 S
Sc24 O36 2.105 . S
Sc24 O40 2.105 . S
Sc24 O42 2.105 . S
O25 Sc22 2.025 . S
O25 Sc23 2.025 . S
O25 Sc24 2.025 . S
C26 O32 1.268 . S
C26 O42 1.268 . S
C27 O33 1.268 . S
C27 O41 1.268 . S
C28 O34 1.268 . S
C28 O43 1.268 1_655 S
C29 O35 1.268 . S
C29 O39 1.268 . S
C30 O36 1.268 . S
C30 O38 1.268 . S
C31 O37 1.268 . S
C31 O40 1.268 . S
O32 Sc22 2.105 . S
O32 C26 1.268 . S
O33 Sc23 2.105 . S
O33 C27 1.268 . S
O34 Sc24 2.105 1_655 S
O34 C28 1.268 . S
O35 Sc22 2.105 . S
O35 C29 1.268 . S
O36 Sc24 2.105 . S
O36 C30 1.268 . S
O37 Sc23 2.105 . S
O37 C31 1.268 . S
O38 Sc22 2.105 . S
O38 C30 1.268 . S
O39 Sc23 2.105 . S
O39 C29 1.268 . S
O40 Sc24 2.105 . S
O40 C31 1.268 . S
O41 Sc22 2.105 . S
O41 C27 1.268 . S
O42 Sc24 2.105 . S
O42 C26 1.268 . S
O43 Sc23 2.105 . S
O43 C28 1.268 1_455 S
Sc44 O47 2.025 . S
Sc44 O54 2.105 . S
Sc44 O57 2.105 . S
Sc44 O60 2.105 . S
Sc44 O63 2.105 . S
Sc45 O47 2.025 . S
Sc45 O55 2.105 . S
Sc45 O59 2.105 . S
Sc45 O61 2.105 . S
Sc45 O65 2.105 . S
Sc46 O47 2.025 . S
Sc46 O56 2.105 1_655 S
Sc46 O58 2.105 . S
Sc46 O62 2.105 . S
Sc46 O64 2.105 . S
O47 Sc44 2.025 . S
O47 Sc45 2.025 . S
O47 Sc46 2.025 . S
C48 O54 1.268 . S
C48 O64 1.268 . S
C49 O55 1.268 . S
C49 O63 1.268 . S
C50 O56 1.268 . S
C50 O65 1.268 1_455 S
C51 O57 1.268 . S
C51 O61 1.268 . S
C52 O58 1.268 . S
C52 O60 1.268 . S
C53 O59 1.268 . S
C53 O62 1.268 . S
O54 Sc44 2.105 . S
O54 C48 1.268 . S
O55 Sc45 2.105 . S
O55 C49 1.268 . S
O56 Sc46 2.105 1_455 S
O56 C50 1.268 . S
O57 Sc44 2.105 . S
O57 C51 1.268 . S
O58 Sc46 2.105 . S
O58 C52 1.268 . S
O59 Sc45 2.105 . S
O59 C53 1.268 . S
O60 Sc44 2.105 . S
O60 C52 1.268 . S
O61 Sc45 2.105 . S
O61 C51 1.268 . S
O62 Sc46 2.105 . S
O62 C53 1.268 . S
O63 Sc44 2.105 . S
O63 C49 1.268 . S
O64 Sc46 2.105 . S
O64 C48 1.268 . S
O65 Sc45 2.105 . S
O65 C50 1.268 1_655 S
Sc66 O69 2.025 . S
Sc66 O76 2.105 . S
Sc66 O79 2.105 . S
Sc66 O82 2.105 . S
Sc66 O85 2.105 . S
Sc67 O69 2.025 . S
Sc67 O77 2.105 . S
Sc67 O81 2.105 . S
Sc67 O83 2.105 . S
Sc67 O87 2.105 . S
Sc68 O69 2.025 . S
Sc68 O78 2.105 . S
Sc68 O80 2.105 . S
Sc68 O84 2.105 . S
Sc68 O86 2.105 . S
O69 Sc66 2.025 . S
O69 Sc67 2.025 . S
O69 Sc68 2.025 . S
C70 O76 1.268 . S
C70 O86 1.268 . S
C71 O77 1.268 . S
C71 O85 1.268 . S
C72 O78 1.268 . S
C72 O87 1.268 . S
C73 O79 1.268 . S
C73 O83 1.268 . S
C74 O80 1.268 . S
C74 O82 1.268 . S
C75 O81 1.268 . S
C75 O84 1.268 . S
O76 Sc66 2.105 . S
O76 C70 1.268 . S
O77 Sc67 2.105 . S
O77 C71 1.268 . S
O78 Sc68 2.105 . S
O78 C72 1.268 . S
O79 Sc66 2.105 . S
O79 C73 1.268 . S
O80 Sc68 2.105 . S
O80 C74 1.268 . S
O81 Sc67 2.105 . S
O81 C75 1.268 . S
O82 Sc66 2.105 . S
O82 C74 1.268 . S
O83 Sc67 2.105 . S
O83 C73 1.268 . S
O84 Sc68 2.105 . S
O84 C75 1.268 . S
O85 Sc66 2.105 . S
O85 C71 1.268 . S
O86 Sc68 2.105 . S
O86 C70 1.268 . S
O87 Sc67 2.105 . S
O87 C72 1.268 . S
Sc88 O91 2.025 . S
Sc88 O98 2.105 . S
Sc88 O101 2.105 . S
Sc88 O104 2.105 . S
Sc88 O107 2.105 . S
Sc89 O91 2.025 . S
Sc89 O99 2.105 . S
Sc89 O103 2.105 . S
Sc89 O105 2.105 . S
Sc89 O109 2.105 . S
Sc90 O91 2.025 . S
Sc90 O100 2.105 . S
Sc90 O102 2.105 . S
Sc90 O106 2.105 . S
Sc90 O108 2.105 . S
O91 Sc88 2.025 . S
O91 Sc89 2.025 . S
O91 Sc90 2.025 . S
C92 O98 1.268 . S
C92 O108 1.268 . S
C93 O99 1.268 . S
C93 O107 1.268 . S
C94 O100 1.268 . S
C94 O109 1.268 . S
C95 O101 1.268 . S
C95 O105 1.268 . S
C96 O102 1.268 . S
C96 O104 1.268 . S
C97 O103 1.268 . S
C97 O106 1.268 . S
O98 Sc88 2.105 . S
O98 C92 1.268 . S
O99 Sc89 2.105 . S
O99 C93 1.268 . S
O100 Sc90 2.105 . S
O100 C94 1.268 . S
O101 Sc88 2.105 . S
O101 C95 1.268 . S
O102 Sc90 2.105 . S
O102 C96 1.268 . S
O103 Sc89 2.105 . S
O103 C97 1.268 . S
O104 Sc88 2.105 . S
O104 C96 1.268 . S
O105 Sc89 2.105 . S
O105 C95 1.268 . S
O106 Sc90 2.105 . S
O106 C97 1.268 . S
O107 Sc88 2.105 . S
O107 C93 1.268 . S
O108 Sc90 2.105 . S
O108 C92 1.268 . S
O109 Sc89 2.105 . S
O109 C94 1.268 . S
Sc110 O113 2.025 . S
Sc110 O120 2.105 . S
Sc110 O123 2.105 . S
Sc110 O126 2.105 . S
Sc110 O129 2.105 . S
Sc111 O113 2.025 . S
Sc111 O121 2.105 . S
Sc111 O125 2.105 . S
Sc111 O127 2.105 . S
Sc111 O131 2.105 . S
Sc112 O113 2.025 . S
Sc112 O122 2.105 . S
Sc112 O124 2.105 . S
Sc112 O128 2.105 1_655 S
Sc112 O130 2.105 . S
O113 Sc110 2.025 . S
O113 Sc111 2.025 . S
O113 Sc112 2.025 . S
C114 O120 1.268 . S
C114 O130 1.268 . S
C115 O121 1.268 . S
C115 O129 1.268 . S
C116 O122 1.268 . S
C116 O131 1.268 . S
C117 O123 1.268 . S
C117 O127 1.268 . S
C118 O124 1.268 . S
C118 O126 1.268 . S
C119 O125 1.268 1_455 S
C119 O128 1.268 . S
O120 Sc110 2.105 . S
O120 C114 1.268 . S
O121 Sc111 2.105 . S
O121 C115 1.268 . S
O122 Sc112 2.105 . S
O122 C116 1.268 . S
O123 Sc110 2.105 . S
O123 C117 1.268 . S
O124 Sc112 2.105 . S
O124 C118 1.268 . S
O125 Sc111 2.105 . S
O125 C119 1.268 1_655 S
O126 Sc110 2.105 . S
O126 C118 1.268 . S
O127 Sc111 2.105 . S
O127 C117 1.268 . S
O128 Sc112 2.105 1_455 S
O128 C119 1.268 . S
O129 Sc110 2.105 . S
O129 C115 1.268 . S
O130 Sc112 2.105 . S
O130 C114 1.268 . S
O131 Sc111 2.105 . S
O131 C116 1.268 . S
Sc132 O135 2.025 . S
Sc132 O142 2.105 . S
Sc132 O145 2.105 . S
Sc132 O148 2.105 . S
Sc132 O151 2.105 1_455 S
Sc133 O135 2.025 . S
Sc133 O143 2.105 . S
Sc133 O147 2.105 . S
Sc133 O149 2.105 . S
Sc133 O153 2.105 . S
Sc134 O135 2.025 . S
Sc134 O144 2.105 . S
Sc134 O146 2.105 . S
Sc134 O150 2.105 . S
Sc134 O152 2.105 . S
O135 Sc132 2.025 . S
O135 Sc133 2.025 . S
O135 Sc134 2.025 . S
C136 O142 1.268 . S
C136 O152 1.268 . S
C137 O143 1.268 1_655 S
C137 O151 1.268 . S
C138 O144 1.268 . S
C138 O153 1.268 . S
C139 O145 1.268 . S
C139 O149 1.268 . S
C140 O146 1.268 . S
C140 O148 1.268 . S
C141 O147 1.268 . S
C141 O150 1.268 . S
O142 Sc132 2.105 . S
O142 C136 1.268 . S
O143 Sc133 2.105 . S
O143 C137 1.268 1_455 S
O144 Sc134 2.105 . S
O144 C138 1.268 . S
O145 Sc132 2.105 . S
O145 C139 1.268 . S
O146 Sc134 2.105 . S
O146 C140 1.268 . S
O147 Sc133 2.105 . S
O147 C141 1.268 . S
O148 Sc132 2.105 . S
O148 C140 1.268 . S
O149 Sc133 2.105 . S
O149 C139 1.268 . S
O150 Sc134 2.105 . S
O150 C141 1.268 . S
O151 Sc132 2.105 1_655 S
O151 C137 1.268 . S
O152 Sc134 2.105 . S
O152 C136 1.268 . S
O153 Sc133 2.105 . S
O153 C138 1.268 . S
Sc154 O157 2.025 . S
Sc154 O164 2.105 . S
Sc154 O167 2.105 . S
Sc154 O170 2.105 . S
Sc154 O173 2.105 . S
Sc155 O157 2.025 . S
Sc155 O165 2.105 . S
Sc155 O169 2.105 . S
Sc155 O171 2.105 . S
Sc155 O175 2.105 . S
Sc156 O157 2.025 . S
Sc156 O166 2.105 . S
Sc156 O168 2.105 . S
Sc156 O172 2.105 . S
Sc156 O174 2.105 . S
O157 Sc154 2.025 . S
O157 Sc155 2.025 . S
O157 Sc156 2.025 . S
C158 O164 1.268 . S
C158 O174 1.268 . S
C159 O165 1.268 . S
C159 O173 1.268 . S
C160 O166 1.268 . S
C160 O175 1.268 . S
C161 O167 1.268 . S
C161 O171 1.268 . S
C162 O168 1.268 . S
C162 O170 1.268 . S
C163 O169 1.268 . S
C163 O172 1.268 . S
O164 Sc154 2.105 . S
O164 C158 1.268 . S
O165 Sc155 2.105 . S
O165 C159 1.268 . S
O166 Sc156 2.105 . S
O166 C160 1.268 . S
O167 Sc154 2.105 . S
O167 C161 1.268 . S
O168 Sc156 2.105 . S
O168 C162 1.268 . S
O169 Sc155 2.105 . S
O169 C163 1.268 . S
O170 Sc154 2.105 . S
O170 C162 1.268 . S
O171 Sc155 2.105 . S
O171 C161 1.268 . S
O172 Sc156 2.105 . S
O172 C163 1.268 . S
O173 Sc154 2.105 . S
O173 C159 1.268 . S
O174 Sc156 2.105 . S
O174 C158 1.268 . S
O175 Sc155 2.105 . S
O175 C160 1.268 . S
C176 C177 1.365 . S
C176 C182 1.379 . S
C176 N184 1.356 1_545 S
C177 C176 1.365 . S
C177 C183 1.365 . S
C178 C179 1.363 . S
C178 C183 1.379 . S
C178 N185 1.356 . S
C179 C178 1.363 . S
C179 C182 1.363 . S
N180 C182 1.356 . S
N180 H192 0.984 . S
N180 H193 0.985 . S
N181 C183 1.356 1_565 S
N181 H186 0.984 . S
N181 H187 0.985 . S
C182 C176 1.379 . S
C182 C179 1.363 . S
C182 N180 1.356 . S
C183 C177 1.365 . S
C183 C178 1.379 . S
C183 N181 1.356 1_545 S
N184 C176 1.356 1_565 S
N184 H190 0.984 1_565 S
N184 H191 0.984 . S
N185 C178 1.356 . S
N185 H188 0.984 . S
N185 H189 0.985 . S
H186 N181 0.984 . S
H187 N181 0.985 . S
H188 N185 0.984 . S
H189 N185 0.985 . S
H190 N184 0.984 1_545 S
H191 N184 0.984 . S
H192 N180 0.984 . S
H193 N180 0.985 . S
C194 C195 1.363 . S
C194 C200 1.379 . S
C194 N202 1.356 . S
C195 C194 1.363 . S
C195 C201 1.363 . S
C196 C197 1.363 . S
C196 C201 1.379 . S
C196 N203 1.356 . S
C197 C196 1.363 . S
C197 C200 1.363 . S
N198 C200 1.356 . S
N198 H210 0.984 . S
N198 H211 0.985 . S
N199 C201 1.356 . S
N199 H204 0.984 . S
N199 H205 0.985 . S
C200 C194 1.379 . S
C200 C197 1.363 . S
C200 N198 1.356 . S
C201 C195 1.363 . S
C201 C196 1.379 . S
C201 N199 1.356 . S
N202 C194 1.356 . S
N202 H208 0.984 . S
N202 H209 0.984 . S
N203 C196 1.356 . S
N203 H206 0.984 . S
N203 H207 0.985 . S
H204 N199 0.984 . S
H205 N199 0.985 . S
H206 N203 0.984 . S
H207 N203 0.985 . S
H208 N202 0.984 . S
H209 N202 0.984 . S
H210 N198 0.984 . S
H211 N198 0.985 . S
C212 C213 1.363 . S
C212 C218 1.379 . S
C212 N220 1.356 . S
C213 C212 1.363 . S
C213 C219 1.363 . S
C214 C215 1.363 . S
C214 C219 1.379 . S
C214 N221 1.356 . S
C215 C214 1.363 . S
C215 C218 1.363 . S
N216 C218 1.356 . S
N216 H228 0.984 . S
N216 H229 0.985 . S
N217 C219 1.356 . S
N217 H222 0.984 . S
N217 H223 0.985 . S
C218 C212 1.379 . S
C218 C215 1.363 . S
C218 N216 1.356 . S
C219 C213 1.363 . S
C219 C214 1.379 . S
C219 N217 1.356 . S
N220 C212 1.356 . S
N220 H226 0.984 . S
N220 H227 0.984 . S
N221 C214 1.356 . S
N221 H224 0.984 . S
N221 H225 0.985 . S
H222 N217 0.984 . S
H223 N217 0.985 . S
H224 N221 0.984 . S
H225 N221 0.985 . S
H226 N220 0.984 . S
H227 N220 0.984 . S
H228 N216 0.984 . S
H229 N216 0.985 . S
C230 C231 1.363 . S
C230 C236 1.379 . S
C230 N238 1.356 . S
C231 C230 1.363 . S
C231 C237 1.363 . S
C232 C233 1.363 . S
C232 C237 1.379 . S
C232 N239 1.356 1_545 S
C233 C232 1.363 . S
C233 C236 1.367 . S
N234 C236 1.356 . S
N234 H246 0.984 . S
N234 H247 0.985 1_545 S
N235 C237 1.356 . S
N235 H240 0.984 . S
N235 H241 0.985 . S
C236 C230 1.379 . S
C236 C233 1.367 . S
C236 N234 1.356 . S
C237 C231 1.363 . S
C237 C232 1.379 . S
C237 N235 1.356 . S
N238 C230 1.356 . S
N238 H244 0.984 . S
N238 H245 0.984 . S
N239 C232 1.356 1_565 S
N239 H242 0.984 . S
N239 H243 0.985 . S
H240 N235 0.984 . S
H241 N235 0.985 . S
H242 N239 0.984 . S
H243 N239 0.985 . S
H244 N238 0.984 . S
H245 N238 0.984 . S
H246 N234 0.984 . S
H247 N234 0.985 1_565 S
C248 C249 1.367 . S
C248 C254 1.379 . S
C248 N256 1.356 . S
C249 C248 1.367 . S
C249 C255 1.364 . S
C250 C251 1.363 . S
C250 C255 1.379 . S
C250 N257 1.356 . S
C251 C250 1.363 . S
C251 C254 1.363 . S
N252 C254 1.356 . S
N252 H264 0.984 . S
N252 H265 0.985 . S
N253 C255 1.356 1_545 S
N253 H258 0.984 . S
N253 H259 0.985 . S
C254 C248 1.379 . S
C254 C251 1.363 . S
C254 N252 1.356 . S
C255 C249 1.364 . S
C255 C250 1.379 . S
C255 N253 1.356 1_565 S
N256 C248 1.356 . S
N256 H262 0.984 . S
N256 H263 0.984 1_565 S
N257 C250 1.356 . S
N257 H260 0.984 . S
N257 H261 0.985 . S
H258 N253 0.984 . S
H259 N253 0.985 . S
H260 N257 0.984 . S
H261 N257 0.985 . S
H262 N256 0.984 . S
H263 N256 0.984 1_545 S
H264 N252 0.984 . S
H265 N252 0.985 . S
C266 C267 1.363 . S
C266 C272 1.379 . S
C266 N274 1.356 . S
C267 C266 1.363 . S
C267 C273 1.363 . S
C268 C269 1.363 . S
C268 C273 1.379 . S
C268 N275 1.356 . S
C269 C268 1.363 . S
C269 C272 1.363 . S
N270 C272 1.356 . S
N270 H282 0.984 . S
N270 H283 0.985 . S
N271 C273 1.356 . S
N271 H276 0.984 . S
N271 H277 0.985 . S
C272 C266 1.379 . S
C272 C269 1.363 . S
C272 N270 1.356 . S
C273 C267 1.363 . S
C273 C268 1.379 . S
C273 N271 1.356 . S
N274 C266 1.356 . S
N274 H280 0.984 . S
N274 H281 0.984 . S
N275 C268 1.356 . S
N275 H278 0.984 . S
N275 H279 0.985 . S
H276 N271 0.984 . S
H277 N271 0.985 . S
H278 N275 0.984 . S
H279 N275 0.985 . S
H280 N274 0.984 . S
H281 N274 0.984 . S
H282 N270 0.984 . S
H283 N270 0.985 . S
C284 C285 1.363 . S
C284 C290 1.379 . S
C284 N292 1.356 . S
C285 C284 1.363 . S
C285 C291 1.363 . S
C286 C287 1.363 . S
C286 C291 1.379 . S
C286 N293 1.356 . S
C287 C286 1.363 . S
C287 C290 1.363 . S
N288 C290 1.356 . S
N288 H300 0.984 . S
N288 H301 0.985 . S
N289 C291 1.356 . S
N289 H294 0.984 . S
N289 H295 0.985 . S
C290 C284 1.379 . S
C290 C287 1.363 . S
C290 N288 1.356 . S
C291 C285 1.363 . S
C291 C286 1.379 . S
C291 N289 1.356 . S
N292 C284 1.356 . S
N292 H298 0.984 . S
N292 H299 0.984 . S
N293 C286 1.356 . S
N293 H296 0.984 . S
N293 H297 0.985 . S
H294 N289 0.984 . S
H295 N289 0.985 . S
H296 N293 0.984 . S
H297 N293 0.985 . S
H298 N292 0.984 . S
H299 N292 0.984 . S
H300 N288 0.984 . S
H301 N288 0.985 . S
C302 C303 1.368 . S
C302 C308 1.379 . S
C302 N310 1.356 . S
C303 C302 1.368 . S
C303 C309 1.363 1_565 S
C304 C305 1.363 . S
C304 C309 1.379 1_565 S
C304 N311 1.356 . S
C305 C304 1.363 . S
C305 C308 1.363 . S
N306 C308 1.356 . S
N306 H318 0.984 . S
N306 H319 0.985 . S
N307 C309 1.356 . S
N307 H312 0.984 . S
N307 H313 0.985 . S
C308 C302 1.379 . S
C308 C305 1.363 . S
C308 N306 1.356 . S
C309 C303 1.363 1_545 S
C309 C304 1.379 1_545 S
C309 N307 1.356 . S
N310 C302 1.356 . S
N310 H316 0.984 . S
N310 H317 0.986 1_565 S
N311 C304 1.356 . S
N311 H314 0.984 . S
N311 H315 0.985 . S
H312 N307 0.984 . S
H313 N307 0.985 . S
H314 N311 0.984 . S
H315 N311 0.985 . S
H316 N310 0.984 . S
H317 N310 0.986 1_545 S
H318 N306 0.984 . S
H319 N306 0.985 . S
C320 C321 1.363 . S
C320 C326 1.379 . S
C320 N328 1.356 . S
C321 C320 1.363 . S
C321 C327 1.363 . S
C322 C323 1.363 . S
C322 C327 1.379 . S
C322 N329 1.356 . S
C323 C322 1.363 . S
C323 C326 1.363 . S
N324 C326 1.356 . S
N324 H336 0.984 . S
N324 H337 0.985 . S
N325 C327 1.356 . S
N325 H330 0.984 . S
N325 H331 0.985 . S
C326 C320 1.379 . S
C326 C323 1.363 . S
C326 N324 1.356 . S
C327 C321 1.363 . S
C327 C322 1.379 . S
C327 N325 1.356 . S
N328 C320 1.356 . S
N328 H334 0.984 . S
N328 H335 0.984 . S
N329 C322 1.356 . S
N329 H332 0.984 . S
N329 H333 0.985 . S
H330 N325 0.984 . S
H331 N325 0.985 . S
H332 N329 0.984 . S
H333 N329 0.985 . S
H334 N328 0.984 . S
H335 N328 0.984 . S
H336 N324 0.984 . S
H337 N324 0.985 . S
C338 C339 1.351 1_456 S
C338 C344 1.379 1_565 S
C338 N346 1.354 1_455 S
C339 C338 1.351 1_654 S
C339 C345 1.375 . S
C340 C341 1.351 1_654 S
C340 C345 1.379 1_545 S
C340 N347 1.354 1_655 S
C341 C340 1.351 1_456 S
C341 C344 1.375 . S
N342 C344 1.356 . S
N342 H354 0.984 . S
N342 H355 0.985 . S
N343 C345 1.356 . S
N343 H348 0.984 . S
N343 H349 0.985 . S
C344 C338 1.379 1_545 S
C344 C341 1.375 . S
C344 N342 1.356 . S
C345 C339 1.375 . S
C345 C340 1.379 1_565 S
C345 N343 1.356 . S
N346 C338 1.354 1_655 S
N346 H352 0.974 1_655 S
N346 H353 0.997 . S
N347 C340 1.354 1_455 S
N347 H350 0.997 . S
N347 H351 0.974 1_455 S
H348 N343 0.984 . S
H349 N343 0.985 . S
H350 N347 0.997 . S
H351 N347 0.974 1_655 S
H352 N346 0.974 1_455 S
H353 N346 0.997 . S
H354 N342 0.984 . S
H355 N342 0.985 . S
C356 C357 1.363 . S
C356 C362 1.379 1_545 S
C356 N364 1.356 . S
C357 C356 1.363 . S
C357 C363 1.363 1_655 S
C358 C359 1.363 . S
C358 C363 1.379 1_565 S
C358 N365 1.356 . S
C359 C358 1.363 . S
C359 C362 1.363 1_455 S
N360 C362 1.356 1_455 S
N360 H372 0.984 1_455 S
N360 H373 0.985 . S
N361 C363 1.356 1_655 S
N361 H366 0.984 . S
N361 H367 0.985 1_655 S
C362 C356 1.379 1_565 S
C362 C359 1.363 1_655 S
C362 N360 1.356 1_655 S
C363 C357 1.363 1_455 S
C363 C358 1.379 1_545 S
C363 N361 1.356 1_455 S
N364 C356 1.356 . S
N364 H370 0.984 . S
N364 H371 0.984 . S
N365 C358 1.356 . S
N365 H368 0.984 . S
N365 H369 0.985 . S
H366 N361 0.984 . S
H367 N361 0.985 1_455 S
H368 N365 0.984 . S
H369 N365 0.985 . S
H370 N364 0.984 . S
H371 N364 0.984 . S
H372 N360 0.984 1_655 S
H373 N360 0.985 . S
C374 C375 1.375 . S
C374 C380 1.379 . S
C374 N382 1.356 . S
C375 C374 1.375 . S
C375 C381 1.351 1_556 S
C376 C377 1.375 . S
C376 C381 1.379 . S
C376 N383 1.356 . S
C377 C376 1.375 . S
C377 C380 1.351 1_554 S
N378 C380 1.356 . S
N378 H390 0.984 . S
N378 H391 0.985 . S
N379 C381 1.356 . S
N379 H384 0.984 . S
N379 H385 0.985 . S
C380 C374 1.379 . S
C380 C377 1.351 1_556 S
C380 N378 1.356 . S
C381 C375 1.351 1_554 S
C381 C376 1.379 . S
C381 N379 1.356 . S
N382 C374 1.356 . S
N382 H388 0.984 . S
N382 H389 0.984 . S
N383 C376 1.356 . S
N383 H386 0.984 . S
N383 H387 0.985 . S
H384 N379 0.984 . S
H385 N379 0.985 . S
H386 N383 0.984 . S
H387 N383 0.985 . S
H388 N382 0.984 . S
H389 N382 0.984 . S
H390 N378 0.984 . S
H391 N378 0.985 . S
C392 C393 1.363 . S
C392 C398 1.379 . S
C392 N400 1.356 . S
C393 C392 1.363 . S
C393 C399 1.363 . S
C394 C395 1.363 . S
C394 C399 1.379 . S
C394 N401 1.356 . S
C395 C394 1.363 . S
C395 C398 1.363 . S
N396 C398 1.356 . S
N396 H408 0.984 . S
N396 H409 0.985 . S
N397 C399 1.356 . S
N397 H402 0.984 . S
N397 H403 0.985 . S
C398 C392 1.379 . S
C398 C395 1.363 . S
C398 N396 1.356 . S
C399 C393 1.363 . S
C399 C394 1.379 . S
C399 N397 1.356 . S
N400 C392 1.356 . S
N400 H406 0.984 . S
N400 H407 0.984 . S
N401 C394 1.356 . S
N401 H404 0.984 . S
N401 H405 0.985 . S
H402 N397 0.984 . S
H403 N397 0.985 . S
H404 N401 0.984 . S
H405 N401 0.985 . S
H406 N400 0.984 . S
H407 N400 0.984 . S
H408 N396 0.984 . S
H409 N396 0.985 . S
C410 C411 1.363 . S
C410 C416 1.379 . S
C410 N418 1.356 . S
C411 C410 1.363 . S
C411 C417 1.363 1_455 S
C412 C413 1.363 . S
C412 C417 1.379 . S
C412 N419 1.356 . S
C413 C412 1.363 . S
C413 C416 1.363 1_655 S
N414 C416 1.356 . S
N414 H426 0.984 . S
N414 H427 0.985 1_455 S
N415 C417 1.356 . S
N415 H420 0.984 1_655 S
N415 H421 0.985 . S
C416 C410 1.379 . S
C416 C413 1.363 1_455 S
C416 N414 1.356 . S
C417 C411 1.363 1_655 S
C417 C412 1.379 . S
C417 N415 1.356 . S
N418 C410 1.356 . S
N418 H424 0.984 . S
N418 H425 0.984 . S
N419 C412 1.356 . S
N419 H422 0.984 . S
N419 H423 0.985 . S
H420 N415 0.984 1_455 S
H421 N415 0.985 . S
H422 N419 0.984 . S
H423 N419 0.985 . S
H424 N418 0.984 . S
H425 N418 0.984 . S
H426 N414 0.984 . S
H427 N414 0.985 1_655 S
C428 C429 1.363 . S
C428 C434 1.379 . S
C428 N436 1.356 . S
C429 C428 1.363 . S
C429 C435 1.363 . S
C430 C431 1.363 . S
C430 C435 1.379 . S
C430 N437 1.356 . S
C431 C430 1.363 . S
C431 C434 1.363 . S
N432 C434 1.356 . S
N432 H444 0.984 . S
N432 H445 0.985 . S
N433 C435 1.356 . S
N433 H438 0.984 . S
N433 H439 0.985 . S
C434 C428 1.379 . S
C434 C431 1.363 . S
C434 N432 1.356 . S
C435 C429 1.363 . S
C435 C430 1.379 . S
C435 N433 1.356 . S
N436 C428 1.356 . S
N436 H442 0.984 . S
N436 H443 0.984 . S
N437 C430 1.356 . S
N437 H440 0.984 . S
N437 H441 0.985 . S
H438 N433 0.984 . S
H439 N433 0.985 . S
H440 N437 0.984 . S
H441 N437 0.985 . S
H442 N436 0.984 . S
H443 N436 0.984 . S
H444 N432 0.984 . S
H445 N432 0.985 . S
C446 C447 1.363 1_455 S
C446 C452 1.379 . S
C446 N454 1.356 . S
C447 C446 1.363 1_655 S
C447 C453 1.363 . S
C448 C449 1.363 1_655 S
C448 C453 1.379 . S
C448 N455 1.356 . S
C449 C448 1.363 1_455 S
C449 C452 1.363 . S
N450 C452 1.356 . S
N450 H462 0.984 . S
N450 H463 0.985 . S
N451 C453 1.356 . S
N451 H456 0.984 . S
N451 H457 0.985 . S
C452 C446 1.379 . S
C452 C449 1.363 . S
C452 N450 1.356 . S
C453 C447 1.363 . S
C453 C448 1.379 . S
C453 N451 1.356 . S
N454 C446 1.356 . S
N454 H460 0.984 . S
N454 H461 0.984 1_455 S
N455 C448 1.356 . S
N455 H458 0.984 1_655 S
N455 H459 0.985 . S
H456 N451 0.984 . S
H457 N451 0.985 . S
H458 N455 0.984 1_455 S
H459 N455 0.985 . S
H460 N454 0.984 . S
H461 N454 0.984 1_655 S
H462 N450 0.984 . S
H463 N450 0.985 . S
C464 C465 1.363 . S
C464 C470 1.379 . S
C464 N472 1.356 . S
C465 C464 1.363 . S
C465 C471 1.363 . S
C466 C467 1.363 . S
C466 C471 1.379 . S
C466 N473 1.356 . S
C467 C466 1.363 . S
C467 C470 1.363 . S
N468 C470 1.356 . S
N468 H480 0.984 . S
N468 H481 0.985 . S
N469 C471 1.356 . S
N469 H474 0.984 . S
N469 H475 0.985 . S
C470 C464 1.379 . S
C470 C467 1.363 . S
C470 N468 1.356 . S
C471 C465 1.363 . S
C471 C466 1.379 . S
C471 N469 1.356 . S
N472 C464 1.356 . S
N472 H478 0.984 . S
N472 H479 0.984 . S
N473 C466 1.356 . S
N473 H476 0.984 . S
N473 H477 0.985 . S
H474 N469 0.984 . S
H475 N469 0.985 . S
H476 N473 0.984 . S
H477 N473 0.985 . S
H478 N472 0.984 . S
H479 N472 0.984 . S
H480 N468 0.984 . S
H481 N468 0.985 . S
C482 C483 1.363 . S
C482 C488 1.379 . S
C482 N490 1.356 . S
C483 C482 1.363 . S
C483 C489 1.363 . S
C484 C485 1.363 . S
C484 C489 1.379 1_554 S
C484 N491 1.356 . S
C485 C484 1.363 . S
C485 C488 1.363 1_554 S
N486 C488 1.356 1_554 S
N486 H498 0.984 1_554 S
N486 H499 0.985 . S
N487 C489 1.356 . S
N487 H492 0.984 . S
N487 H493 0.982 1_655 S
C488 C482 1.379 . S
C488 C485 1.363 1_556 S
C488 N486 1.356 1_556 S
C489 C483 1.363 . S
C489 C484 1.379 1_556 S
C489 N487 1.356 . S
N490 C482 1.356 . S
N490 H496 0.984 . S
N490 H497 0.984 . S
N491 C484 1.356 . S
N491 H494 0.984 . S
N491 H495 0.985 . S
H492 N487 0.984 . S
H493 N487 0.982 1_455 S
H494 N491 0.984 . S
H495 N491 0.985 . S
H496 N490 0.984 . S
H497 N490 0.984 . S
H498 N486 0.984 1_556 S
H499 N486 0.985 . S
C500 C501 1.363 . S
C500 C506 1.379 . S
C500 N508 1.356 . S
C501 C500 1.363 . S
C501 C507 1.363 . S
C502 C503 1.363 . S
C502 C507 1.379 . S
C502 N509 1.356 . S
C503 C502 1.363 . S
C503 C506 1.363 . S
N504 C506 1.356 . S
N504 H516 0.984 . S
N504 H517 0.985 . S
N505 C507 1.356 . S
N505 H510 0.984 . S
N505 H511 0.985 . S
C506 C500 1.379 . S
C506 C503 1.363 . S
C506 N504 1.356 . S
C507 C501 1.363 . S
C507 C502 1.379 . S
C507 N505 1.356 . S
N508 C500 1.356 . S
N508 H514 0.984 . S
N508 H515 0.984 . S
N509 C502 1.356 . S
N509 H512 0.984 . S
N509 H513 0.985 . S
H510 N505 0.984 . S
H511 N505 0.985 . S
H512 N509 0.984 . S
H513 N509 0.985 . S
H514 N508 0.984 . S
H515 N508 0.984 . S
H516 N504 0.984 . S
H517 N504 0.985 . S
C518 C519 1.363 . S
C518 C524 1.379 . S
C518 N526 1.356 . S
C519 C518 1.363 . S
C519 C525 1.363 . S
C520 C521 1.363 . S
C520 C525 1.379 1_556 S
C520 N527 1.356 . S
C521 C520 1.363 . S
C521 C524 1.363 1_556 S
N522 C524 1.356 . S
N522 H534 0.984 . S
N522 H535 0.985 1_554 S
N523 C525 1.356 . S
N523 H528 0.984 . S
N523 H529 0.985 . S
C524 C518 1.379 . S
C524 C521 1.363 1_554 S
C524 N522 1.356 . S
C525 C519 1.363 . S
C525 C520 1.379 1_554 S
C525 N523 1.356 . S
N526 C518 1.356 . S
N526 H532 0.984 . S
N526 H533 0.984 . S
N527 C520 1.356 . S
N527 H530 0.984 . S
N527 H531 0.985 . S
H528 N523 0.984 . S
H529 N523 0.985 . S
H530 N527 0.984 . S
H531 N527 0.985 . S
H532 N526 0.984 . S
H533 N526 0.984 . S
H534 N522 0.984 . S
H535 N522 0.985 1_556 S
C536 C537 1.363 . S
C536 C542 1.379 . S
C536 N544 1.356 . S
C537 C536 1.363 . S
C537 C543 1.363 . S
C538 C539 1.363 . S
C538 C543 1.379 . S
C538 N545 1.356 . S
C539 C538 1.363 . S
C539 C542 1.363 . S
N540 C542 1.356 . S
N540 H552 0.984 . S
N540 H553 0.985 . S
N541 C543 1.356 . S
N541 H546 0.984 . S
N541 H547 0.985 . S
C542 C536 1.379 . S
C542 C539 1.363 . S
C542 N540 1.356 . S
C543 C537 1.363 . S
C543 C538 1.379 . S
C543 N541 1.356 . S
N544 C536 1.356 . S
N544 H550 0.984 . S
N544 H551 0.984 . S
N545 C538 1.356 . S
N545 H548 0.984 . S
N545 H549 0.985 . S
H546 N541 0.984 . S
H547 N541 0.985 . S
H548 N545 0.984 . S
H549 N545 0.985 . S
H550 N544 0.984 . S
H551 N544 0.984 . S
H552 N540 0.984 . S
H553 N540 0.985 . S
C554 C555 1.363 . S
C554 C560 1.379 . S
C554 N562 1.356 . S
C555 C554 1.363 . S
C555 C561 1.363 . S
C556 C557 1.363 . S
C556 C561 1.379 1_556 S
C556 N563 1.356 . S
C557 C556 1.363 . S
C557 C560 1.363 1_556 S
N558 C560 1.356 . S
N558 H570 0.984 . S
N558 H571 0.985 1_554 S
N559 C561 1.356 . S
N559 H564 0.984 . S
N559 H565 0.985 . S
C560 C554 1.379 . S
C560 C557 1.363 1_554 S
C560 N558 1.356 . S
C561 C555 1.363 . S
C561 C556 1.379 1_554 S
C561 N559 1.356 . S
N562 C554 1.356 . S
N562 H568 0.984 . S
N562 H569 0.984 . S
N563 C556 1.356 . S
N563 H566 0.984 . S
N563 H567 0.985 . S
H564 N559 0.984 . S
H565 N559 0.985 . S
H566 N563 0.984 . S
H567 N563 0.985 . S
H568 N562 0.984 . S
H569 N562 0.984 . S
H570 N558 0.984 . S
H571 N558 0.985 1_556 S
C572 C573 1.363 . S
C572 C578 1.379 . S
C572 N580 1.356 . S
C573 C572 1.363 . S
C573 C579 1.363 . S
C574 C575 1.363 . S
C574 C579 1.379 . S
C574 N581 1.356 . S
C575 C574 1.363 . S
C575 C578 1.363 . S
N576 C578 1.356 . S
N576 H588 0.984 . S
N576 H589 0.985 . S
N577 C579 1.356 . S
N577 H582 0.984 . S
N577 H583 0.985 . S
C578 C572 1.379 . S
C578 C575 1.363 . S
C578 N576 1.356 . S
C579 C573 1.363 . S
C579 C574 1.379 . S
C579 N577 1.356 . S
N580 C572 1.356 . S
N580 H586 0.984 . S
N580 H587 0.984 . S
N581 C574 1.356 . S
N581 H584 0.984 . S
N581 H585 0.985 . S
H582 N577 0.984 . S
H583 N577 0.985 . S
H584 N581 0.984 . S
H585 N581 0.985 . S
H586 N580 0.984 . S
H587 N580 0.984 . S
H588 N576 0.984 . S
H589 N576 0.985 . S
C590 C591 1.363 1_556 S
C590 C596 1.379 . S
C590 N598 1.356 1_556 S
C591 C590 1.363 1_554 S
C591 C597 1.366 . S
C592 C593 1.363 . S
C592 C597 1.370 1_556 S
C592 N599 1.356 . S
C593 C592 1.363 . S
C593 C596 1.363 . S
N594 C596 1.356 . S
N594 H606 0.984 . S
N594 H607 0.985 . S
N595 C597 1.364 . S
N595 H600 0.984 . S
N595 H601 0.985 . S
C596 C590 1.379 . S
C596 C593 1.363 . S
C596 N594 1.356 . S
C597 C591 1.366 . S
C597 C592 1.370 1_554 S
C597 N595 1.364 . S
N598 C590 1.356 1_554 S
N598 H604 0.984 . S
N598 H605 0.984 . S
N599 C592 1.356 . S
N599 H602 0.984 . S
N599 H603 0.985 . S
H600 N595 0.984 . S
H601 N595 0.985 . S
H602 N599 0.984 . S
H603 N599 0.985 . S
H604 N598 0.984 . S
H605 N598 0.984 . S
H606 N594 0.984 . S
H607 N594 0.985 . S
C177 C140 1.694 1_545 S
C179 C5 1.594 . S
C195 C27 1.595 . S
C197 C162 1.698 . S
C213 C96 1.698 . S
C215 C49 1.595 . S
C231 C75 1.594 . S
C233 C114 1.694 1_545 S
C249 C52 1.694 1_565 S
C251 C94 1.594 . S
C267 C117 1.595 . S
C269 C70 1.698 . S
C285 C8 1.698 . S
C287 C138 1.595 . S
C303 C30 1.694 1_565 S
C305 C160 1.594 . S
C321 C9 1.334 . S
C323 C95 1.334 . S
C339 C116 1.341 . S
C341 C31 1.341 . S
C357 C53 1.334 . S
C359 C139 1.334 . S
C375 C161 1.341 . S
C377 C71 1.341 . S
C393 C74 1.536 . S
C395 C4 1.536 . S
C411 C26 1.536 . S
C413 C48 1.536 . S
C429 C158 1.536 . S
C431 C92 1.536 . S
C447 C118 1.536 . S
C449 C136 1.536 . S
C465 C6 1.419 . S
C467 C51 1.535 . S
C483 C28 1.419 . S
C485 C72 1.535 . S
C501 C50 1.419 . S
C503 C7 1.535 . S
C519 C73 1.419 . S
C521 C29 1.535 . S
C537 C93 1.419 . S
C539 C141 1.535 . S
C555 C119 1.419 . S
C557 C163 1.535 . S
C573 C137 1.419 . S
C575 C97 1.535 . S
C591 C115 1.535 . S
C593 C159 1.419 . S
