# Generated by pormake.
# Topology dia, (4)-cn, num edge types: 1
# Building blocks:
#     Node 0, Type 0, BuildingBlock: NAHDIM_clean_sbu_0, # of connection points: 4
#     Node 1, Type 0, BuildingBlock: NAHDIM_clean_sbu_0, # of connection points: 4
#     Node 2, Type 0, BuildingBlock: NAHDIM_clean_sbu_0, # of connection points: 4
#     Node 3, Type 0, BuildingBlock: NAHDIM_clean_sbu_0, # of connection points: 4
#     Node 4, Type 0, BuildingBlock: NAHDIM_clean_sbu_0, # of connection points: 4
#     Node 5, Type 0, BuildingBlock: NAHDIM_clean_sbu_0, # of connection points: 4
#     Node 6, Type 0, BuildingBlock: NAHDIM_clean_sbu_0, # of connection points: 4
#     Node 7, Type 0, BuildingBlock: NAHDIM_clean_sbu_0, # of connection points: 4
#     Edge 8, Type (0, 0), BuildingBlock: CIFDUS_clean_linker_0, # of connection points: 2
#     Edge 9, Type (0, 0), BuildingBlock: CIFDUS_clean_linker_0, # of connection points: 2
#     Edge 10, Type (0, 0), BuildingBlock: CIFDUS_clean_linker_0, # of connection points: 2
#     Edge 11, Type (0, 0), BuildingBlock: CIFDUS_clean_linker_0, # of connection points: 2
#     Edge 12, Type (0, 0), BuildingBlock: CIFDUS_clean_linker_0, # of connection points: 2
#     Edge 13, Type (0, 0), BuildingBlock: CIFDUS_clean_linker_0, # of connection points: 2
#     Edge 14, Type (0, 0), BuildingBlock: CIFDUS_clean_linker_0, # of connection points: 2
#     Edge 15, Type (0, 0), BuildingBlock: CIFDUS_clean_linker_0, # of connection points: 2
#     Edge 16, Type (0, 0), BuildingBlock: CIFDUS_clean_linker_0, # of connection points: 2
#     Edge 17, Type (0, 0), BuildingBlock: CIFDUS_clean_linker_0, # of connection points: 2
#     Edge 18, Type (0, 0), BuildingBlock: CIFDUS_clean_linker_0, # of connection points: 2
#     Edge 19, Type (0, 0), BuildingBlock: CIFDUS_clean_linker_0, # of connection points: 2
#     Edge 20, Type (0, 0), BuildingBlock: CIFDUS_clean_linker_0, # of connection points: 2
#     Edge 21, Type (0, 0), BuildingBlock: CIFDUS_clean_linker_0, # of connection points: 2
#     Edge 22, Type (0, 0), BuildingBlock: CIFDUS_clean_linker_0, # of connection points: 2
#     Edge 23, Type (0, 0), BuildingBlock: CIFDUS_clean_linker_0, # of connection points: 2
# Relax obj value: 0.005
# Max RMSD: 0.033
# Mean RMSD: 0.033
data_MOF--net-dia--node1-NAHDIM_clean_sbu_0--edge1-CIFDUS_clean_linker_0
_symmetry_space_group_name_H-M    P1
_symmetry_Int_Tables_number       1
_symmetry_cell_setting            triclinic
loop_
_symmetry_equiv_pos_as_xyz
'x, y, z'
_cell_length_a     32.810355
_cell_length_b     30.093917
_cell_length_c     30.055386
_cell_angle_alpha  87.88176
_cell_angle_beta   94.096015
_cell_angle_gamma 94.228122
loop_
_atom_site_label
_atom_site_type_symbol
_atom_site_fract_x
_atom_site_fract_y
_atom_site_fract_z
_atom_type_partial_charge
C0 C 0.07498 0.1606 0.68479 0.0
O1 O 0.07581 0.11823 0.6968 0.0
O2 O 0.16346 0.09976 0.67713 0.0
Zn3 Zn 0.13452 0.13533 0.62805 0.0
O4 O 0.09915 0.09275 0.58929 0.0
C5 C 0.20899 0.18788 0.60973 0.0
O6 O 0.21635 0.18252 0.65307 0.0
O7 O 0.0982 0.17646 0.65513 0.0
C8 C 0.07924 0.10673 0.55439 0.0
O9 O 0.08269 0.14944 0.54337 0.0
C10 C 0.19142 0.07501 0.66843 0.0
O11 O 0.20163 0.07347 0.62706 0.0
O12 O 0.17562 0.1708 0.59143 0.0
C13 C 0.9237 0.28509 0.82673 0.0
O14 O 0.91047 0.27297 0.86591 0.0
O15 O 0.84598 0.32928 0.88206 0.0
Zn16 Zn 0.88529 0.36519 0.84347 0.0
O17 O 0.92793 0.40052 0.88224 0.0
C18 C 0.82356 0.42477 0.80979 0.0
O19 O 0.81311 0.4218 0.85123 0.0
O20 O 0.91586 0.32311 0.80978 0.0
C21 C 0.92613 0.44037 0.89417 0.0
O22 O 0.89424 0.46242 0.88051 0.0
C23 C 0.83821 0.34143 0.92045 0.0
O24 O 0.85573 0.37903 0.93566 0.0
O25 O 0.85371 0.40416 0.79909 0.0
C26 C 0.57519 0.17365 0.16729 0.0
O27 O 0.55471 0.13629 0.15548 0.0
O28 O 0.66743 0.09615 0.1528 0.0
Zn29 Zn 0.63618 0.14078 0.11489 0.0
O30 O 0.5909 0.10997 0.0758 0.0
C31 C 0.68656 0.16278 0.04062 0.0
O32 O 0.67318 0.12262 0.02819 0.0
O33 O 0.61104 0.18241 0.15433 0.0
C34 C 0.59196 0.07047 0.06259 0.0
O35 O 0.62429 0.0482 0.07388 0.0
C36 C 0.64948 0.0646 0.17493 0.0
O37 O 0.60926 0.06082 0.17331 0.0
O38 O 0.67497 0.1773 0.0765 0.0
C39 C 0.93528 0.81809 0.33416 0.0
O40 O 0.92814 0.80204 0.37432 0.0
O41 O 0.8515 0.83812 0.39572 0.0
Zn42 Zn 0.88387 0.88453 0.35965 0.0
O43 O 0.92037 0.92451 0.40019 0.0
C44 C 0.80968 0.91292 0.30919 0.0
O45 O 0.79296 0.8737 0.3212 0.0
O46 O 0.91929 0.85364 0.32011 0.0
C47 C 0.9381 0.91081 0.43657 0.0
O48 O 0.93221 0.8687 0.44919 0.0
C49 C 0.82374 0.84717 0.42068 0.0
O50 O 0.81486 0.8888 0.42344 0.0
O51 O 0.8469 0.92346 0.32149 0.0
C52 C 0.07103 0.65937 0.20831 0.0
O53 O 0.07695 0.61731 0.21801 0.0
O54 O 0.14337 0.59356 0.17166 0.0
Zn55 Zn 0.11426 0.63959 0.13318 0.0
O56 O 0.07209 0.61033 0.0896 0.0
C57 C 0.18392 0.70136 0.11898 0.0
O58 O 0.18646 0.70149 0.16281 0.0
O59 O 0.08483 0.67732 0.17294 0.0
C60 C 0.07831 0.57585 0.06861 0.0
O61 O 0.11354 0.5578 0.07571 0.0
C62 C 0.17754 0.57931 0.16364 0.0
O63 O 0.19526 0.59389 0.12752 0.0
O64 O 0.1551 0.67769 0.09898 0.0
C65 C 0.44012 0.32442 0.30309 0.0
O66 O 0.45818 0.36442 0.30887 0.0
O67 O 0.33912 0.32986 0.39249 0.0
Zn68 Zn 0.37922 0.36109 0.35164 0.0
O69 O 0.42402 0.3979 0.38577 0.0
C70 C 0.31618 0.41712 0.31517 0.0
O71 O 0.3007 0.40735 0.35375 0.0
O72 O 0.40533 0.31497 0.31848 0.0
C73 C 0.41795 0.4247 0.41589 0.0
O74 O 0.38039 0.42868 0.42695 0.0
C75 C 0.3492 0.3162 0.432 0.0
O76 O 0.38747 0.32267 0.4478 0.0
O77 O 0.34954 0.40113 0.30694 0.0
C78 C 0.4112 0.76778 0.84613 0.0
O79 O 0.39433 0.75088 0.88194 0.0
O80 O 0.33543 0.81757 0.90566 0.0
Zn81 Zn 0.37787 0.85082 0.86891 0.0
O82 O 0.42154 0.8838 0.908 0.0
C83 C 0.31936 0.91286 0.83187 0.0
O84 O 0.30367 0.90673 0.87084 0.0
O85 O 0.40698 0.80831 0.8346 0.0
C86 C 0.42133 0.92436 0.91823 0.0
O87 O 0.39043 0.94744 0.90343 0.0
C88 C 0.33611 0.82043 0.94782 0.0
O89 O 0.36541 0.84559 0.96848 0.0
O90 O 0.35084 0.89289 0.82428 0.0
C91 C 0.56332 0.66029 0.69145 0.0
O92 O 0.56225 0.61667 0.69653 0.0
O93 O 0.65697 0.60888 0.66788 0.0
Zn94 Zn 0.61906 0.64354 0.62599 0.0
O95 O 0.5777 0.60242 0.59197 0.0
C96 C 0.68318 0.67997 0.56784 0.0
O97 O 0.69909 0.64138 0.57515 0.0
O98 O 0.58635 0.67965 0.66331 0.0
C99 C 0.58181 0.58424 0.55522 0.0
O100 O 0.61645 0.5913 0.53585 0.0
C101 C 0.67378 0.57427 0.65763 0.0
O102 O 0.66712 0.55931 0.61706 0.0
O103 O 0.65011 0.68692 0.58526 0.0
H104 H 0.35808 0.29135 0.51999 0.0
H105 H 0.2703 0.28822 0.40587 0.0
H106 H 0.21934 0.24832 0.45064 0.0
H107 H 0.19974 0.21368 0.52198 0.0
H108 H 0.28705 0.21814 0.63649 0.0
H109 H 0.33799 0.25814 0.59176 0.0
C110 C 0.32781 0.28195 0.50488 0.0
C111 C 0.31815 0.29266 0.45957 0.0
C112 C 0.2985 0.2592 0.53088 0.0
C113 C 0.27864 0.28043 0.44065 0.0
C114 C 0.24943 0.25754 0.46622 0.0
C115 C 0.22991 0.22339 0.53718 0.0
C116 C 0.23954 0.21278 0.58252 0.0
C117 C 0.25905 0.24665 0.51133 0.0
C118 C 0.27874 0.22588 0.60169 0.0
C119 C 0.30796 0.24873 0.57612 0.0
H120 H 0.7292 0.51435 0.64328 0.0
H121 H 0.67738 0.58153 0.74801 0.0
H122 H 0.71926 0.54142 0.80422 0.0
H123 H 0.76974 0.48636 0.82377 0.0
H124 H 0.82365 0.42127 0.7191 0.0
H125 H 0.78197 0.46159 0.66278 0.0
C126 C 0.72707 0.52018 0.67841 0.0
C127 C 0.70003 0.55068 0.69143 0.0
C128 C 0.75164 0.49741 0.71058 0.0
C129 C 0.69798 0.55826 0.73706 0.0
C130 C 0.72186 0.53528 0.76926 0.0
C131 C 0.7724 0.48102 0.78863 0.0
C132 C 0.79959 0.45066 0.77569 0.0
C133 C 0.74866 0.50464 0.75642 0.0
C134 C 0.80299 0.44449 0.72999 0.0
C135 C 0.77908 0.46744 0.69775 0.0
H136 H 0.58235 0.98552 0.03394 0.0
H137 H 0.52248 0.10878 0.02999 0.0
H138 H 0.46436 0.07446 0.98525 0.0
H139 H 0.43055 0.00949 0.94709 0.0
H140 H 0.49044 0.88616 0.95171 0.0
H141 H 0.54841 0.92055 0.9964 0.0
C142 C 0.55664 0.00494 0.02326 0.0
C143 C 0.55687 0.04968 0.03524 0.0
C144 C 0.52324 0.98498 0.99769 0.0
C145 C 0.52317 0.07427 0.02123 0.0
C146 C 0.48988 0.05468 0.99563 0.0
C147 C 0.45625 0.9901 0.95789 0.0
C148 C 0.45609 0.94533 0.94597 0.0
C149 C 0.48958 0.01005 0.98367 0.0
C150 C 0.48968 0.9207 0.96036 0.0
C151 C 0.52292 0.94033 0.98592 0.0
H152 H 0.96822 0.73871 0.352 0.0
H153 H 0.96084 0.84515 0.2521 0.0
H154 H 0.00328 0.80619 0.20492 0.0
H155 H 0.04156 0.74119 0.19148 0.0
H156 H 0.04727 0.63424 0.29105 0.0
H157 H 0.00656 0.67427 0.33888 0.0
C158 C 0.97593 0.7535 0.31996 0.0
C159 C 0.96132 0.79478 0.30565 0.0
C160 C 1.00009 0.73082 0.29288 0.0
C161 C 0.97159 0.81336 0.26394 0.0
C162 C 0.9959 0.79112 0.23692 0.0
C163 C 0.03406 0.72674 0.22374 0.0
C164 C 0.04745 0.68475 0.2376 0.0
C165 C 0.01021 0.74975 0.25099 0.0
C166 C 0.03728 0.66643 0.27942 0.0
C167 C 0.01398 0.6893 0.30686 0.0
H168 H 0.25601 0.96522 0.83894 0.0
H169 H 0.34025 0.92645 0.74586 0.0
H170 H 0.30838 0.97338 0.68742 0.0
H171 H 0.25608 0.0246 0.66229 0.0
H172 H 0.17224 0.06416 0.75537 0.0
H173 H 0.20457 0.01783 0.81417 0.0
C174 C 0.26744 0.96704 0.80589 0.0
C175 C 0.3004 0.94219 0.79684 0.0
C176 C 0.24904 0.99424 0.77237 0.0
C177 C 0.31491 0.94517 0.75383 0.0
C178 C 0.29668 0.97199 0.72031 0.0
C179 C 0.24486 0.02314 0.69543 0.0
C180 C 0.21169 0.04772 0.70431 0.0
C181 C 0.26364 0.99653 0.72915 0.0
C182 C 0.19773 0.04559 0.74756 0.0
C183 C 0.21616 0.01905 0.78124 0.0
H184 H 0.92637 0.51859 0.93693 0.0
H185 H 0.99975 0.40771 0.92064 0.0
H186 H 0.05335 0.44003 0.97265 0.0
H187 H 0.07913 0.49919 0.02353 0.0
H188 H 0.00519 0.60931 0.04106 0.0
H189 H 0.95217 0.57778 0.98787 0.0
C190 C 0.95416 0.50157 0.94459 0.0
C191 C 0.95899 0.46081 0.92484 0.0
C192 C 0.98477 0.52012 0.97489 0.0
C193 C 0.99513 0.43911 0.93539 0.0
C194 C 0.02586 0.45755 0.96515 0.0
C195 C 0.05146 0.51636 0.01569 0.0
C196 C 0.04622 0.55656 0.0363 0.0
C197 C 0.02094 0.49794 0.98524 0.0
C198 C 0.01006 0.57826 0.0258 0.0
C199 C 0.97969 0.56029 0.99532 0.0
H200 H 0.5162 0.33231 0.27213 0.0
H201 H 0.40886 0.24106 0.27992 0.0
H202 H 0.4415 0.18615 0.23934 0.0
H203 H 0.50006 0.16446 0.20074 0.0
H204 H 0.60748 0.25568 0.19334 0.0
H205 H 0.57521 0.31008 0.23485 0.0
C206 C 0.49989 0.30043 0.26497 0.0
C207 C 0.46008 0.29092 0.27893 0.0
C208 C 0.51885 0.26895 0.24173 0.0
C209 C 0.43952 0.24931 0.26955 0.0
C210 C 0.45815 0.21786 0.24632 0.0
C211 C 0.51649 0.19619 0.20827 0.0
C212 C 0.5561 0.20596 0.19381 0.0
C213 C 0.49775 0.22739 0.23213 0.0
C214 C 0.57695 0.24723 0.20401 0.0
C215 C 0.55851 0.27843 0.22772 0.0
H216 H 0.75551 0.85246 0.46621 0.0
H217 H 0.84217 0.76029 0.43188 0.0
H218 H 0.80623 0.70051 0.47391 0.0
H219 H 0.75059 0.67442 0.52101 0.0
H220 H 0.66318 0.76624 0.55426 0.0
H221 H 0.69895 0.82593 0.51196 0.0
C222 C 0.76658 0.81932 0.46796 0.0
C223 C 0.80158 0.81099 0.44602 0.0
C224 C 0.74559 0.78493 0.49196 0.0
C225 C 0.8153 0.76771 0.4484 0.0
C226 C 0.79478 0.73345 0.47247 0.0
C227 C 0.73929 0.70745 0.51898 0.0
C228 C 0.70429 0.71576 0.54094 0.0
C229 C 0.75993 0.74168 0.49445 0.0
C230 C 0.69003 0.7588 0.53771 0.0
C231 C 0.71051 0.79305 0.51357 0.0
H232 H 0.25008 0.54228 0.15686 0.0
H233 H 0.15036 0.5457 0.2427 0.0
H234 H 0.1843 0.4958 0.29679 0.0
H235 H 0.24264 0.45207 0.3204 0.0
H236 H 0.34234 0.44823 0.23464 0.0
H237 H 0.308 0.49738 0.17995 0.0
C238 C 0.23569 0.53204 0.18733 0.0
C239 C 0.19774 0.54784 0.19565 0.0
C240 C 0.2554 0.50331 0.21842 0.0
C241 C 0.17955 0.53411 0.23535 0.0
C242 C 0.19896 0.50558 0.26639 0.0
C243 C 0.2569 0.46194 0.28975 0.0
C244 C 0.29509 0.44653 0.28176 0.0
C245 C 0.23697 0.49014 0.25838 0.0
C246 C 0.31298 0.45958 0.24173 0.0
C247 C 0.29337 0.48772 0.2104 0.0
H248 H 0.80232 0.25905 0.90215 0.0
H249 H 0.81071 0.36084 0.00062 0.0
H250 H 0.76456 0.31468 0.0463 0.0
H251 H 0.72198 0.24544 0.0585 0.0
H252 H 0.71408 0.14331 0.96042 0.0
H253 H 0.75991 0.18965 0.9145 0.0
C254 C 0.79401 0.27122 0.93356 0.0
C255 C 0.80995 0.3134 0.94786 0.0
C256 C 0.76758 0.24443 0.95982 0.0
C257 C 0.79895 0.32851 0.98876 0.0
C258 C 0.77253 0.30213 0.01495 0.0
C259 C 0.73025 0.23327 0.02708 0.0
C260 C 0.71456 0.19093 0.01298 0.0
C261 C 0.7567 0.26003 0.00084 0.0
C262 C 0.7257 0.17573 0.97217 0.0
C263 C 0.7519 0.20223 0.94582 0.0
H264 H 0.72709 0.90816 0.29007 0.0
H265 H 0.83778 0.99032 0.268 0.0
H266 H 0.79809 0.04412 0.22435 0.0
H267 H 0.73206 0.06821 0.19278 0.0
H268 H 0.62104 0.98722 0.21623 0.0
H269 H 0.66079 0.93272 0.25901 0.0
C270 C 0.74255 0.93775 0.27558 0.0
C271 C 0.78537 0.94509 0.28225 0.0
C272 C 0.71949 0.96887 0.25084 0.0
C273 C 0.80486 0.98382 0.26349 0.0
C274 C 0.78219 0.01464 0.23848 0.0
C275 C 0.71652 0.03863 0.2072 0.0
C276 C 0.67363 0.03183 0.20123 0.0
C277 C 0.73951 0.00756 0.23201 0.0
C278 C 0.65402 0.99338 0.22035 0.0
C279 C 0.67673 0.96213 0.24479 0.0
H280 H 0.95673 -0.00092 0.41934 0.0
H281 H 0.98162 0.89244 0.51526 0.0
H282 H 0.0277 0.94348 0.55985 0.0
H283 H 0.06096 0.01831 0.57162 0.0
H284 H 0.03568 0.12495 0.47582 0.0
H285 H 0.9898 0.07384 0.43117 0.0
C286 C 0.97218 0.98693 0.45001 0.0
C287 C 0.96568 0.94193 0.46388 0.0
C288 C 0.99865 0.01644 0.47551 0.0
C289 C 0.986 0.92687 0.50375 0.0
C290 C 0.01242 0.95604 0.52929 0.0
C291 C 0.0455 0.0304 0.54093 0.0
C292 C 0.05183 0.07544 0.52711 0.0
C293 C 0.019 0.00087 0.51546 0.0
C294 C 0.0314 0.0905 0.48731 0.0
C295 C 0.00512 0.06128 0.46172 0.0
H296 H 0.96712 0.30566 0.75394 0.0
H297 H 0.93749 0.19836 0.84814 0.0
H298 H 0.98105 0.15029 0.81205 0.0
H299 H 0.0285 0.13907 0.75476 0.0
H300 H 0.05968 0.24684 0.66169 0.0
H301 H 0.01457 0.29433 0.69641 0.0
C302 C 0.97001 0.27168 0.76645 0.0
C303 C 0.94902 0.25565 0.80368 0.0
C304 C 0.9955 0.24433 0.74586 0.0
C305 C 0.95333 0.21162 0.8196 0.0
C306 C 0.97825 0.18407 0.79899 0.0
C307 C 0.02539 0.17291 0.74196 0.0
C308 C 0.04747 0.18934 0.70567 0.0
C309 C 0.99965 0.20015 0.76227 0.0
C310 C 0.04314 0.23335 0.68965 0.0
C311 C 0.0173 0.26054 0.70945 0.0
H312 H 0.5139 0.63004 0.75681 0.0
H313 H 0.55358 0.74953 0.68318 0.0
H314 H 0.50935 0.79278 0.72382 0.0
H315 H 0.45967 0.79692 0.78009 0.0
H316 H 0.42063 0.67818 0.85513 0.0
H317 H 0.4643 0.63439 0.81389 0.0
C318 C 0.51291 0.66555 0.74966 0.0
C319 C 0.53704 0.68646 0.71695 0.0
C320 C 0.48746 0.69035 0.77329 0.0
C321 C 0.53542 0.73254 0.70822 0.0
C322 C 0.51006 0.75734 0.73139 0.0
C323 C 0.46052 0.76141 0.78737 0.0
C324 C 0.4368 0.74085 0.82057 0.0
C325 C 0.48595 0.73659 0.76392 0.0
C326 C 0.43857 0.69487 0.82974 0.0
C327 C 0.46355 0.6698 0.80619 0.0
H328 H 0.1893 0.70458 0.02896 0.0
H329 H 0.24871 0.75597 0.15121 0.0
H330 H 0.3008 0.79737 0.10905 0.0
H331 H 0.32982 0.81853 0.03764 0.0
H332 H 0.27064 0.76678 0.91543 0.0
H333 H 0.21815 0.72598 0.95753 0.0
C334 C 0.21357 0.72491 0.04643 0.0
C335 C 0.21502 0.72714 0.09322 0.0
C336 C 0.24353 0.74853 0.02201 0.0
C337 C 0.24678 0.75361 0.11524 0.0
C338 C 0.27663 0.77731 0.09115 0.0
C339 C 0.30545 0.79837 0.02015 0.0
C340 C 0.30424 0.79575 0.97341 0.0
C341 C 0.27537 0.77492 0.04455 0.0
C342 C 0.27239 0.7694 0.95137 0.0
C343 C 0.24232 0.74605 0.97542 0.0
H344 H 0.41766 0.47689 0.48791 0.0
H345 H 0.49709 0.43303 0.39237 0.0
H346 H 0.55467 0.47847 0.42679 0.0
H347 H 0.58251 0.53126 0.48366 0.0
H348 H 0.50327 0.57369 0.58016 0.0
H349 H 0.4458 0.52825 0.54573 0.0
C350 C 0.44755 0.47725 0.4746 0.0
C351 C 0.45294 0.45168 0.43753 0.0
C352 C 0.48067 0.50326 0.49471 0.0
C353 C 0.49201 0.45236 0.42091 0.0
C354 C 0.525 0.4784 0.44052 0.0
C355 C 0.55267 0.53059 0.49714 0.0
C356 C 0.54727 0.556 0.53435 0.0
C357 C 0.51968 0.50409 0.47737 0.0
C358 C 0.5084 0.55447 0.55157 0.0
C359 C 0.47542 0.52851 0.53187 0.0
loop_
_geom_bond_atom_site_label_1
_geom_bond_atom_site_label_2
_geom_bond_distance
_geom_bond_site_symmetry_2
_ccdc_geom_bond_type
C0 O1 1.160 . S
C0 O7 1.185 . S
O1 C0 1.160 . S
O2 Zn3 1.899 . S
O2 C10 1.284 . S
Zn3 O2 1.899 . S
Zn3 O4 2.032 . S
Zn3 O7 2.086 . S
Zn3 O12 1.977 . S
O4 Zn3 2.032 . S
O4 C8 1.278 . S
C5 O6 1.203 . S
C5 O12 1.267 . S
O6 C5 1.203 . S
O7 C0 1.185 . S
O7 Zn3 2.086 . S
C8 O4 1.278 . S
C8 O9 1.211 . S
O9 C8 1.211 . S
C10 O2 1.284 . S
C10 O11 1.273 . S
O11 C10 1.273 . S
O12 Zn3 1.977 . S
O12 C5 1.267 . S
C13 O14 1.160 . S
C13 O20 1.185 . S
O14 C13 1.160 . S
O15 Zn16 1.899 . S
O15 C23 1.284 . S
Zn16 O15 1.899 . S
Zn16 O17 2.032 . S
Zn16 O20 2.086 . S
Zn16 O25 1.977 . S
O17 Zn16 2.032 . S
O17 C21 1.278 . S
C18 O19 1.203 . S
C18 O25 1.267 . S
O19 C18 1.203 . S
O20 C13 1.185 . S
O20 Zn16 2.086 . S
C21 O17 1.278 . S
C21 O22 1.211 . S
O22 C21 1.211 . S
C23 O15 1.284 . S
C23 O24 1.273 . S
O24 C23 1.273 . S
O25 Zn16 1.977 . S
O25 C18 1.267 . S
C26 O27 1.160 . S
C26 O33 1.185 . S
O27 C26 1.160 . S
O28 Zn29 1.899 . S
O28 C36 1.284 . S
Zn29 O28 1.899 . S
Zn29 O30 2.032 . S
Zn29 O33 2.086 . S
Zn29 O38 1.977 . S
O30 Zn29 2.032 . S
O30 C34 1.278 . S
C31 O32 1.203 . S
C31 O38 1.267 . S
O32 C31 1.203 . S
O33 C26 1.185 . S
O33 Zn29 2.086 . S
C34 O30 1.278 . S
C34 O35 1.211 . S
O35 C34 1.211 . S
C36 O28 1.284 . S
C36 O37 1.273 . S
O37 C36 1.273 . S
O38 Zn29 1.977 . S
O38 C31 1.267 . S
C39 O40 1.160 . S
C39 O46 1.185 . S
O40 C39 1.160 . S
O41 Zn42 1.899 . S
O41 C49 1.284 . S
Zn42 O41 1.899 . S
Zn42 O43 2.032 . S
Zn42 O46 2.086 . S
Zn42 O51 1.977 . S
O43 Zn42 2.032 . S
O43 C47 1.278 . S
C44 O45 1.203 . S
C44 O51 1.267 . S
O45 C44 1.203 . S
O46 C39 1.185 . S
O46 Zn42 2.086 . S
C47 O43 1.278 . S
C47 O48 1.211 . S
O48 C47 1.211 . S
C49 O41 1.284 . S
C49 O50 1.273 . S
O50 C49 1.273 . S
O51 Zn42 1.977 . S
O51 C44 1.267 . S
C52 O53 1.160 . S
C52 O59 1.185 . S
O53 C52 1.160 . S
O54 Zn55 1.899 . S
O54 C62 1.284 . S
Zn55 O54 1.899 . S
Zn55 O56 2.032 . S
Zn55 O59 2.086 . S
Zn55 O64 1.977 . S
O56 Zn55 2.032 . S
O56 C60 1.278 . S
C57 O58 1.203 . S
C57 O64 1.267 . S
O58 C57 1.203 . S
O59 C52 1.185 . S
O59 Zn55 2.086 . S
C60 O56 1.278 . S
C60 O61 1.211 . S
O61 C60 1.211 . S
C62 O54 1.284 . S
C62 O63 1.273 . S
O63 C62 1.273 . S
O64 Zn55 1.977 . S
O64 C57 1.267 . S
C65 O66 1.160 . S
C65 O72 1.185 . S
O66 C65 1.160 . S
O67 Zn68 1.899 . S
O67 C75 1.284 . S
Zn68 O67 1.899 . S
Zn68 O69 2.032 . S
Zn68 O72 2.086 . S
Zn68 O77 1.977 . S
O69 Zn68 2.032 . S
O69 C73 1.278 . S
C70 O71 1.203 . S
C70 O77 1.267 . S
O71 C70 1.203 . S
O72 C65 1.185 . S
O72 Zn68 2.086 . S
C73 O69 1.278 . S
C73 O74 1.211 . S
O74 C73 1.211 . S
C75 O67 1.284 . S
C75 O76 1.273 . S
O76 C75 1.273 . S
O77 Zn68 1.977 . S
O77 C70 1.267 . S
C78 O79 1.160 . S
C78 O85 1.185 . S
O79 C78 1.160 . S
O80 Zn81 1.899 . S
O80 C88 1.284 . S
Zn81 O80 1.899 . S
Zn81 O82 2.032 . S
Zn81 O85 2.086 . S
Zn81 O90 1.977 . S
O82 Zn81 2.032 . S
O82 C86 1.278 . S
C83 O84 1.203 . S
C83 O90 1.267 . S
O84 C83 1.203 . S
O85 C78 1.185 . S
O85 Zn81 2.086 . S
C86 O82 1.278 . S
C86 O87 1.211 . S
O87 C86 1.211 . S
C88 O80 1.284 . S
C88 O89 1.273 . S
O89 C88 1.273 . S
O90 Zn81 1.977 . S
O90 C83 1.267 . S
C91 O92 1.160 . S
C91 O98 1.185 . S
O92 C91 1.160 . S
O93 Zn94 1.899 . S
O93 C101 1.284 . S
Zn94 O93 1.899 . S
Zn94 O95 2.032 . S
Zn94 O98 2.086 . S
Zn94 O103 1.977 . S
O95 Zn94 2.032 . S
O95 C99 1.278 . S
C96 O97 1.203 . S
C96 O103 1.267 . S
O97 C96 1.203 . S
O98 C91 1.185 . S
O98 Zn94 2.086 . S
C99 O95 1.278 . S
C99 O100 1.211 . S
O100 C99 1.211 . S
C101 O93 1.284 . S
C101 O102 1.273 . S
O102 C101 1.273 . S
O103 Zn94 1.977 . S
O103 C96 1.267 . S
H104 C110 0.930 . S
H105 C113 0.930 . S
H106 C114 0.930 . S
H107 C115 0.930 . S
H108 C118 0.930 . S
H109 C119 0.930 . S
C110 H104 0.930 . S
C110 C111 1.355 . S
C110 C112 1.415 . S
C111 C110 1.355 . S
C111 C113 1.419 . S
C112 C110 1.415 . S
C112 C117 1.425 . S
C112 C119 1.409 . S
C113 H105 0.930 . S
C113 C111 1.419 . S
C113 C114 1.362 . S
C114 H106 0.930 . S
C114 C113 1.362 . S
C114 C117 1.409 . S
C115 H107 0.930 . S
C115 C116 1.355 . S
C115 C117 1.415 . S
C116 C115 1.355 . S
C116 C118 1.419 . S
C117 C112 1.425 . S
C117 C114 1.409 . S
C117 C115 1.415 . S
C118 H108 0.930 . S
C118 C116 1.419 . S
C118 C119 1.362 . S
C119 H109 0.930 . S
C119 C112 1.409 . S
C119 C118 1.362 . S
H120 C126 0.930 . S
H121 C129 0.930 . S
H122 C130 0.930 . S
H123 C131 0.930 . S
H124 C134 0.930 . S
H125 C135 0.930 . S
C126 H120 0.930 . S
C126 C127 1.355 . S
C126 C128 1.415 . S
C127 C126 1.355 . S
C127 C129 1.419 . S
C128 C126 1.415 . S
C128 C133 1.425 . S
C128 C135 1.409 . S
C129 H121 0.930 . S
C129 C127 1.419 . S
C129 C130 1.362 . S
C130 H122 0.930 . S
C130 C129 1.362 . S
C130 C133 1.409 . S
C131 H123 0.930 . S
C131 C132 1.355 . S
C131 C133 1.415 . S
C132 C131 1.355 . S
C132 C134 1.419 . S
C133 C128 1.425 . S
C133 C130 1.409 . S
C133 C131 1.415 . S
C134 H124 0.930 . S
C134 C132 1.419 . S
C134 C135 1.362 . S
C135 H125 0.930 . S
C135 C128 1.409 . S
C135 C134 1.362 . S
H136 C142 0.930 . S
H137 C145 0.930 . S
H138 C146 0.930 . S
H139 C147 0.930 . S
H140 C150 0.930 . S
H141 C151 0.930 . S
C142 H136 0.930 . S
C142 C143 1.355 . S
C142 C144 1.415 1_544 S
C143 C142 1.355 . S
C143 C145 1.419 . S
C144 C142 1.415 1_566 S
C144 C149 1.425 1_566 S
C144 C151 1.409 . S
C145 H137 0.930 . S
C145 C143 1.419 . S
C145 C146 1.362 . S
C146 H138 0.930 . S
C146 C145 1.362 . S
C146 C149 1.409 . S
C147 H139 0.930 . S
C147 C148 1.355 . S
C147 C149 1.415 1_566 S
C148 C147 1.355 . S
C148 C150 1.419 . S
C149 C144 1.425 1_544 S
C149 C146 1.409 . S
C149 C147 1.415 1_544 S
C150 H140 0.930 . S
C150 C148 1.419 . S
C150 C151 1.362 . S
C151 H141 0.930 . S
C151 C144 1.409 . S
C151 C150 1.362 . S
H152 C158 0.930 . S
H153 C161 0.930 . S
H154 C162 0.930 . S
H155 C163 0.930 . S
H156 C166 0.930 . S
H157 C167 0.930 . S
C158 H152 0.930 . S
C158 C159 1.355 . S
C158 C160 1.415 . S
C159 C158 1.355 . S
C159 C161 1.419 . S
C160 C158 1.415 . S
C160 C165 1.425 1_655 S
C160 C167 1.409 . S
C161 H153 0.930 . S
C161 C159 1.419 . S
C161 C162 1.362 1_655 S
C162 H154 0.930 . S
C162 C161 1.362 1_455 S
C162 C165 1.409 . S
C163 H155 0.930 . S
C163 C164 1.355 . S
C163 C165 1.415 . S
C164 C163 1.355 . S
C164 C166 1.419 . S
C165 C160 1.425 1_455 S
C165 C162 1.409 . S
C165 C163 1.415 . S
C166 H156 0.930 . S
C166 C164 1.419 . S
C166 C167 1.362 1_455 S
C167 H157 0.930 . S
C167 C160 1.409 . S
C167 C166 1.362 1_655 S
H168 C174 0.930 . S
H169 C177 0.930 . S
H170 C178 0.930 . S
H171 C179 0.930 . S
H172 C182 0.930 . S
H173 C183 0.930 . S
C174 H168 0.930 . S
C174 C175 1.355 . S
C174 C176 1.415 . S
C175 C174 1.355 . S
C175 C177 1.419 . S
C176 C174 1.415 . S
C176 C181 1.425 1_565 S
C176 C183 1.409 . S
C177 H169 0.930 . S
C177 C175 1.419 . S
C177 C178 1.362 1_565 S
C178 H170 0.930 . S
C178 C177 1.362 1_545 S
C178 C181 1.409 . S
C179 H171 0.930 . S
C179 C180 1.355 . S
C179 C181 1.415 . S
C180 C179 1.355 . S
C180 C182 1.419 . S
C181 C176 1.425 1_545 S
C181 C178 1.409 . S
C181 C179 1.415 . S
C182 H172 0.930 . S
C182 C180 1.419 . S
C182 C183 1.362 1_545 S
C183 H173 0.930 . S
C183 C176 1.409 . S
C183 C182 1.362 1_565 S
H184 C190 0.930 . S
H185 C193 0.933 . S
H186 C194 0.930 . S
H187 C195 0.930 . S
H188 C198 0.933 . S
H189 C199 0.930 . S
C190 H184 0.930 . S
C190 C191 1.355 . S
C190 C192 1.419 . S
C191 C190 1.355 . S
C191 C193 1.419 . S
C192 C190 1.419 . S
C192 C197 1.426 1_655 S
C192 C199 1.404 1_556 S
C193 H185 0.933 . S
C193 C191 1.419 . S
C193 C194 1.362 1_655 S
C194 H186 0.930 . S
C194 C193 1.362 1_455 S
C194 C197 1.409 . S
C195 H187 0.930 . S
C195 C196 1.355 . S
C195 C197 1.415 1_554 S
C196 C195 1.355 . S
C196 C198 1.419 . S
C197 C192 1.426 1_455 S
C197 C194 1.409 . S
C197 C195 1.415 1_556 S
C198 H188 0.933 . S
C198 C196 1.419 . S
C198 C199 1.362 1_455 S
C199 H189 0.930 . S
C199 C192 1.404 1_554 S
C199 C198 1.362 1_655 S
H200 C206 0.930 . S
H201 C209 0.930 . S
H202 C210 0.930 . S
H203 C211 0.930 . S
H204 C214 0.930 . S
H205 C215 0.930 . S
C206 H200 0.930 . S
C206 C207 1.355 . S
C206 C208 1.415 . S
C207 C206 1.355 . S
C207 C209 1.419 . S
C208 C206 1.415 . S
C208 C213 1.425 . S
C208 C215 1.409 . S
C209 H201 0.930 . S
C209 C207 1.419 . S
C209 C210 1.362 . S
C210 H202 0.930 . S
C210 C209 1.362 . S
C210 C213 1.409 . S
C211 H203 0.930 . S
C211 C212 1.355 . S
C211 C213 1.415 . S
C212 C211 1.355 . S
C212 C214 1.419 . S
C213 C208 1.425 . S
C213 C210 1.409 . S
C213 C211 1.415 . S
C214 H204 0.930 . S
C214 C212 1.419 . S
C214 C215 1.362 . S
C215 H205 0.930 . S
C215 C208 1.409 . S
C215 C214 1.362 . S
H216 C222 0.930 . S
H217 C225 0.930 . S
H218 C226 0.930 . S
H219 C227 0.930 . S
H220 C230 0.930 . S
H221 C231 0.930 . S
C222 H216 0.930 . S
C222 C223 1.355 . S
C222 C224 1.415 . S
C223 C222 1.355 . S
C223 C225 1.419 . S
C224 C222 1.415 . S
C224 C229 1.425 . S
C224 C231 1.409 . S
C225 H217 0.930 . S
C225 C223 1.419 . S
C225 C226 1.362 . S
C226 H218 0.930 . S
C226 C225 1.362 . S
C226 C229 1.409 . S
C227 H219 0.930 . S
C227 C228 1.355 . S
C227 C229 1.415 . S
C228 C227 1.355 . S
C228 C230 1.419 . S
C229 C224 1.425 . S
C229 C226 1.409 . S
C229 C227 1.415 . S
C230 H220 0.930 . S
C230 C228 1.419 . S
C230 C231 1.362 . S
C231 H221 0.930 . S
C231 C224 1.409 . S
C231 C230 1.362 . S
H232 C238 0.930 . S
H233 C241 0.930 . S
H234 C242 0.930 . S
H235 C243 0.930 . S
H236 C246 0.930 . S
H237 C247 0.930 . S
C238 H232 0.930 . S
C238 C239 1.355 . S
C238 C240 1.415 . S
C239 C238 1.355 . S
C239 C241 1.419 . S
C240 C238 1.415 . S
C240 C245 1.425 . S
C240 C247 1.409 . S
C241 H233 0.930 . S
C241 C239 1.419 . S
C241 C242 1.362 . S
C242 H234 0.930 . S
C242 C241 1.362 . S
C242 C245 1.409 . S
C243 H235 0.930 . S
C243 C244 1.355 . S
C243 C245 1.415 . S
C244 C243 1.355 . S
C244 C246 1.419 . S
C245 C240 1.425 . S
C245 C242 1.409 . S
C245 C243 1.415 . S
C246 H236 0.930 . S
C246 C244 1.419 . S
C246 C247 1.362 . S
C247 H237 0.930 . S
C247 C240 1.409 . S
C247 C246 1.362 . S
H248 C254 0.930 . S
H249 C257 0.930 . S
H250 C258 0.930 . S
H251 C259 0.930 . S
H252 C262 0.930 . S
H253 C263 0.930 . S
C254 H248 0.930 . S
C254 C255 1.355 . S
C254 C256 1.415 . S
C255 C254 1.355 . S
C255 C257 1.419 . S
C256 C254 1.415 . S
C256 C261 1.425 1_556 S
C256 C263 1.409 . S
C257 H249 0.930 . S
C257 C255 1.419 . S
C257 C258 1.362 1_556 S
C258 H250 0.930 . S
C258 C257 1.362 1_554 S
C258 C261 1.409 . S
C259 H251 0.930 . S
C259 C260 1.355 . S
C259 C261 1.415 . S
C260 C259 1.355 . S
C260 C262 1.419 1_554 S
C261 C256 1.425 1_554 S
C261 C258 1.409 . S
C261 C259 1.415 . S
C262 H252 0.930 . S
C262 C260 1.419 1_556 S
C262 C263 1.363 . S
C263 H253 0.930 . S
C263 C256 1.409 . S
C263 C262 1.363 . S
H264 C270 0.930 . S
H265 C273 0.930 . S
H266 C274 0.930 . S
H267 C275 0.930 . S
H268 C278 0.930 . S
H269 C279 0.930 . S
C270 H264 0.930 . S
C270 C271 1.355 . S
C270 C272 1.415 . S
C271 C270 1.355 . S
C271 C273 1.419 . S
C272 C270 1.415 . S
C272 C277 1.425 1_565 S
C272 C279 1.409 . S
C273 H265 0.930 . S
C273 C271 1.419 . S
C273 C274 1.362 1_565 S
C274 H266 0.930 . S
C274 C273 1.362 1_545 S
C274 C277 1.409 . S
C275 H267 0.930 . S
C275 C276 1.355 . S
C275 C277 1.415 . S
C276 C275 1.355 . S
C276 C278 1.419 . S
C277 C272 1.425 1_545 S
C277 C274 1.409 . S
C277 C275 1.415 . S
C278 H268 0.930 . S
C278 C276 1.419 . S
C278 C279 1.362 1_545 S
C279 H269 0.930 . S
C279 C272 1.409 . S
C279 C278 1.362 1_565 S
H280 C286 0.930 . S
H281 C289 0.930 . S
H282 C290 0.930 . S
H283 C291 0.930 . S
H284 C294 0.930 . S
H285 C295 0.930 . S
C286 H280 0.930 . S
C286 C287 1.355 . S
C286 C288 1.415 1_665 S
C287 C286 1.355 . S
C287 C289 1.419 . S
C288 C286 1.415 1_445 S
C288 C293 1.425 1_445 S
C288 C295 1.409 . S
C289 H281 0.930 . S
C289 C287 1.419 . S
C289 C290 1.362 . S
C290 H282 0.930 . S
C290 C289 1.362 . S
C290 C293 1.409 . S
C291 H283 0.930 . S
C291 C292 1.355 . S
C291 C293 1.415 1_445 S
C292 C291 1.355 . S
C292 C294 1.419 . S
C293 C288 1.425 1_665 S
C293 C290 1.409 . S
C293 C291 1.415 1_665 S
C294 H284 0.930 . S
C294 C292 1.419 . S
C294 C295 1.362 . S
C295 H285 0.930 . S
C295 C288 1.409 . S
C295 C294 1.362 . S
H296 C302 0.930 . S
H297 C305 0.930 . S
H298 C306 0.930 . S
H299 C307 0.930 . S
H300 C310 0.930 . S
H301 C311 0.930 . S
C302 H296 0.930 . S
C302 C303 1.355 . S
C302 C304 1.415 . S
C303 C302 1.355 . S
C303 C305 1.419 . S
C304 C302 1.415 . S
C304 C309 1.425 1_655 S
C304 C311 1.409 . S
C305 H297 0.930 . S
C305 C303 1.419 . S
C305 C306 1.362 1_655 S
C306 H298 0.930 . S
C306 C305 1.362 1_455 S
C306 C309 1.409 . S
C307 H299 0.930 . S
C307 C308 1.355 . S
C307 C309 1.415 . S
C308 C307 1.355 . S
C308 C310 1.419 . S
C309 C304 1.425 1_455 S
C309 C306 1.409 . S
C309 C307 1.415 . S
C310 H300 0.930 . S
C310 C308 1.419 . S
C310 C311 1.362 1_455 S
C311 H301 0.930 . S
C311 C304 1.409 . S
C311 C310 1.362 1_655 S
H312 C318 0.930 . S
H313 C321 0.930 . S
H314 C322 0.930 . S
H315 C323 0.930 . S
H316 C326 0.930 . S
H317 C327 0.930 . S
C318 H312 0.930 . S
C318 C319 1.355 . S
C318 C320 1.415 . S
C319 C318 1.355 . S
C319 C321 1.419 . S
C320 C318 1.415 . S
C320 C325 1.425 . S
C320 C327 1.409 . S
C321 H313 0.930 . S
C321 C319 1.419 . S
C321 C322 1.362 . S
C322 H314 0.930 . S
C322 C321 1.362 . S
C322 C325 1.409 . S
C323 H315 0.930 . S
C323 C324 1.355 . S
C323 C325 1.415 . S
C324 C323 1.355 . S
C324 C326 1.419 . S
C325 C320 1.425 . S
C325 C322 1.409 . S
C325 C323 1.415 . S
C326 H316 0.930 . S
C326 C324 1.419 . S
C326 C327 1.362 . S
C327 H317 0.930 . S
C327 C320 1.409 . S
C327 C326 1.362 . S
H328 C334 0.930 1_556 S
H329 C337 0.930 . S
H330 C338 0.930 . S
H331 C339 0.930 1_554 S
H332 C342 0.930 . S
H333 C343 0.930 . S
C334 H328 0.930 1_554 S
C334 C335 1.355 . S
C334 C336 1.415 1_554 S
C335 C334 1.355 . S
C335 C337 1.419 . S
C336 C334 1.415 1_556 S
C336 C341 1.425 1_556 S
C336 C343 1.409 . S
C337 H329 0.930 . S
C337 C335 1.419 . S
C337 C338 1.362 . S
C338 H330 0.930 . S
C338 C337 1.362 . S
C338 C341 1.409 . S
C339 H331 0.930 1_556 S
C339 C340 1.355 . S
C339 C341 1.415 1_556 S
C340 C339 1.355 . S
C340 C342 1.419 . S
C341 C336 1.425 1_554 S
C341 C338 1.409 . S
C341 C339 1.415 1_554 S
C342 H332 0.930 . S
C342 C340 1.419 . S
C342 C343 1.362 . S
C343 H333 0.930 . S
C343 C336 1.409 . S
C343 C342 1.362 . S
H344 C350 0.930 . S
H345 C353 0.930 . S
H346 C354 0.930 . S
H347 C355 0.930 . S
H348 C358 0.930 . S
H349 C359 0.930 . S
C350 H344 0.930 . S
C350 C351 1.355 . S
C350 C352 1.415 . S
C351 C350 1.355 . S
C351 C353 1.419 . S
C352 C350 1.415 . S
C352 C357 1.425 . S
C352 C359 1.409 . S
C353 H345 0.930 . S
C353 C351 1.419 . S
C353 C354 1.362 . S
C354 H346 0.930 . S
C354 C353 1.362 . S
C354 C357 1.409 . S
C355 H347 0.930 . S
C355 C356 1.355 . S
C355 C357 1.415 . S
C356 C355 1.355 . S
C356 C358 1.419 . S
C357 C352 1.425 . S
C357 C354 1.409 . S
C357 C355 1.415 . S
C358 H348 0.930 . S
C358 C356 1.419 . S
C358 C359 1.362 . S
C359 H349 0.930 . S
C359 C352 1.409 . S
C359 C358 1.362 . S
C111 C75 1.494 . S
C116 C5 1.459 . S
C127 C101 1.481 . S
C132 C18 1.496 . S
C143 C34 1.476 . S
C148 C86 1.492 . S
C159 C39 1.497 . S
C164 C52 1.475 . S
C175 C83 1.496 . S
C180 C10 1.483 . S
C191 C21 1.483 . S
C196 C60 1.488 . S
C207 C65 1.469 . S
C212 C26 1.455 . S
C223 C49 1.475 . S
C228 C96 1.494 . S
C239 C62 1.499 . S
C244 C70 1.481 . S
C255 C23 1.464 . S
C260 C31 1.457 . S
C271 C44 1.494 . S
C276 C36 1.475 . S
C287 C47 1.484 . S
C292 C8 1.448 . S
C303 C13 1.466 . S
C308 C0 1.498 . S
C319 C91 1.494 . S
C324 C78 1.455 . S
C335 C57 1.453 . S
C340 C88 1.489 . S
C351 C73 1.492 . S
C356 C99 1.464 . S
