# Generated by pormake.
# Topology can, (4)-cn, num edge types: 1
# Building blocks:
#     Node 0, Type 0, BuildingBlock: NAHDIM_clean_sbu_0, # of connection points: 4
#     Node 1, Type 0, BuildingBlock: NAHDIM_clean_sbu_0, # of connection points: 4
#     Node 2, Type 0, BuildingBlock: NAHDIM_clean_sbu_0, # of connection points: 4
#     Node 3, Type 0, BuildingBlock: NAHDIM_clean_sbu_0, # of connection points: 4
#     Node 4, Type 0, BuildingBlock: NAHDIM_clean_sbu_0, # of connection points: 4
#     Node 5, Type 0, BuildingBlock: NAHDIM_clean_sbu_0, # of connection points: 4
#     Node 6, Type 0, BuildingBlock: NAHDIM_clean_sbu_0, # of connection points: 4
#     Node 7, Type 0, BuildingBlock: NAHDIM_clean_sbu_0, # of connection points: 4
#     Node 8, Type 0, BuildingBlock: NAHDIM_clean_sbu_0, # of connection points: 4
#     Node 9, Type 0, BuildingBlock: NAHDIM_clean_sbu_0, # of connection points: 4
#     Node 10, Type 0, BuildingBlock: NAHDIM_clean_sbu_0, # of connection points: 4
#     Node 11, Type 0, BuildingBlock: NAHDIM_clean_sbu_0, # of connection points: 4
#     Edge 12, Type (0, 0), BuildingBlock: XIVTED_clean_linker_0, # of connection points: 2
#     Edge 13, Type (0, 0), BuildingBlock: XIVTED_clean_linker_0, # of connection points: 2
#     Edge 14, Type (0, 0), BuildingBlock: XIVTED_clean_linker_0, # of connection points: 2
#     Edge 15, Type (0, 0), BuildingBlock: XIVTED_clean_linker_0, # of connection points: 2
#     Edge 16, Type (0, 0), BuildingBlock: XIVTED_clean_linker_0, # of connection points: 2
#     Edge 17, Type (0, 0), BuildingBlock: XIVTED_clean_linker_0, # of connection points: 2
#     Edge 18, Type (0, 0), BuildingBlock: XIVTED_clean_linker_0, # of connection points: 2
#     Edge 19, Type (0, 0), BuildingBlock: XIVTED_clean_linker_0, # of connection points: 2
#     Edge 20, Type (0, 0), BuildingBlock: XIVTED_clean_linker_0, # of connection points: 2
#     Edge 21, Type (0, 0), BuildingBlock: XIVTED_clean_linker_0, # of connection points: 2
#     Edge 22, Type (0, 0), BuildingBlock: XIVTED_clean_linker_0, # of connection points: 2
#     Edge 23, Type (0, 0), BuildingBlock: XIVTED_clean_linker_0, # of connection points: 2
#     Edge 24, Type (0, 0), BuildingBlock: XIVTED_clean_linker_0, # of connection points: 2
#     Edge 25, Type (0, 0), BuildingBlock: XIVTED_clean_linker_0, # of connection points: 2
#     Edge 26, Type (0, 0), BuildingBlock: XIVTED_clean_linker_0, # of connection points: 2
#     Edge 27, Type (0, 0), BuildingBlock: XIVTED_clean_linker_0, # of connection points: 2
#     Edge 28, Type (0, 0), BuildingBlock: XIVTED_clean_linker_0, # of connection points: 2
#     Edge 29, Type (0, 0), BuildingBlock: XIVTED_clean_linker_0, # of connection points: 2
#     Edge 30, Type (0, 0), BuildingBlock: XIVTED_clean_linker_0, # of connection points: 2
#     Edge 31, Type (0, 0), BuildingBlock: XIVTED_clean_linker_0, # of connection points: 2
#     Edge 32, Type (0, 0), BuildingBlock: XIVTED_clean_linker_0, # of connection points: 2
#     Edge 33, Type (0, 0), BuildingBlock: XIVTED_clean_linker_0, # of connection points: 2
#     Edge 34, Type (0, 0), BuildingBlock: XIVTED_clean_linker_0, # of connection points: 2
#     Edge 35, Type (0, 0), BuildingBlock: XIVTED_clean_linker_0, # of connection points: 2
# Relax obj value: 0.093
# Max RMSD: 0.085
# Mean RMSD: 0.085
data_MOF--net-can--node1-NAHDIM_clean_sbu_0--edge1-XIVTED_clean_linker_0
_symmetry_space_group_name_H-M    P1
_symmetry_Int_Tables_number       1
_symmetry_cell_setting            triclinic
loop_
_symmetry_equiv_pos_as_xyz
'x, y, z'
_cell_length_a     60.037353
_cell_length_b     59.952109
_cell_length_c     25.384803
_cell_angle_alpha  89.900683
_cell_angle_beta   89.977815
_cell_angle_gamma 120.07186
loop_
_atom_site_label
_atom_site_type_symbol
_atom_site_fract_x
_atom_site_fract_y
_atom_site_fract_z
_atom_type_partial_charge
C0 C 0.10765 0.3926 0.21158 0.0
O1 O 0.08516 0.37129 0.21242 0.0
O2 O 0.05791 0.39426 0.12909 0.0
Zn3 Zn 0.07473 0.41263 0.19656 0.0
O4 O 0.05402 0.39548 0.26171 0.0
C5 C 0.06283 0.45189 0.1729 0.0
O6 O 0.04299 0.43222 0.15057 0.0
O7 O 0.10849 0.41396 0.20421 0.0
C8 C 0.03033 0.38801 0.26856 0.0
O9 O 0.01692 0.38994 0.22976 0.0
C10 C 0.03961 0.37116 0.12463 0.0
O11 O 0.03007 0.35675 0.16688 0.0
O12 O 0.07999 0.44847 0.19446 0.0
C13 C 0.71489 0.10793 0.75719 0.0
O14 O 0.71418 0.08573 0.75335 0.0
O15 O 0.65803 0.05829 0.68759 0.0
Zn16 Zn 0.66033 0.07514 0.75735 0.0
O17 O 0.65682 0.05184 0.81751 0.0
C18 C 0.62253 0.08798 0.72197 0.0
O19 O 0.63334 0.0897 0.67599 0.0
O20 O 0.69391 0.10817 0.76067 0.0
C21 C 0.63625 0.03011 0.82012 0.0
O22 O 0.61893 0.02367 0.78282 0.0
C23 C 0.66188 0.03952 0.6803 0.0
O24 O 0.66792 0.02974 0.72045 0.0
O25 O 0.63124 0.08248 0.76253 0.0
C26 C 0.60023 0.71409 0.23478 0.0
O27 O 0.62144 0.71323 0.24231 0.0
O28 O 0.59904 0.65645 0.17171 0.0
Zn29 Zn 0.57875 0.65964 0.23144 0.0
O30 O 0.5927 0.65728 0.30186 0.0
C31 C 0.53808 0.60849 0.24422 0.0
O32 O 0.55751 0.60625 0.26138 0.0
O33 O 0.57915 0.69318 0.22818 0.0
C34 C 0.61246 0.65514 0.30924 0.0
O35 O 0.62602 0.6552 0.26854 0.0
C36 C 0.60223 0.66846 0.12852 0.0
O37 O 0.59266 0.68381 0.12327 0.0
O38 O 0.54231 0.63027 0.22751 0.0
C39 C 0.88136 0.60405 0.78447 0.0
O40 O 0.90324 0.62602 0.78409 0.0
O41 O 0.93786 0.60383 0.73662 0.0
Zn42 Zn 0.91561 0.58489 0.79864 0.0
O43 O 0.93272 0.60348 0.86518 0.0
C44 C 0.90396 0.53532 0.75996 0.0
O45 O 0.90027 0.54464 0.71603 0.0
O46 O 0.88169 0.58319 0.79061 0.0
C47 C 0.92002 0.59849 0.90786 0.0
O48 O 0.89539 0.58118 0.90777 0.0
C49 C 0.95764 0.60217 0.72589 0.0
O50 O 0.96365 0.58829 0.75651 0.0
O51 O 0.9104 0.54908 0.80129 0.0
C52 C 0.27164 0.88176 0.22503 0.0
O53 O 0.27176 0.90358 0.21874 0.0
O54 O 0.3264 0.93355 0.15394 0.0
Zn55 Zn 0.32526 0.91631 0.22242 0.0
O56 O 0.32641 0.93812 0.28341 0.0
C57 C 0.37804 0.93262 0.21989 0.0
O58 O 0.37847 0.95434 0.20989 0.0
O59 O 0.29295 0.88211 0.22724 0.0
C60 C 0.33386 0.96198 0.27945 0.0
O61 O 0.34057 0.97325 0.23312 0.0
C62 C 0.32399 0.92189 0.11076 0.0
O63 O 0.31978 0.89817 0.11182 0.0
O64 O 0.35646 0.91224 0.22675 0.0
C65 C 0.37984 0.26896 0.77659 0.0
O66 O 0.35795 0.2689 0.77885 0.0
O67 O 0.37957 0.32292 0.71334 0.0
Zn68 Zn 0.39809 0.32223 0.77882 0.0
O69 O 0.38026 0.32254 0.84542 0.0
C70 C 0.4509 0.35916 0.74721 0.0
O71 O 0.44715 0.34277 0.70925 0.0
O72 O 0.4008 0.29037 0.77682 0.0
C73 C 0.37654 0.34123 0.85473 0.0
O74 O 0.38294 0.35928 0.81888 0.0
C75 C 0.357 0.31968 0.71088 0.0
O76 O 0.34351 0.31562 0.75418 0.0
O77 O 0.43301 0.35391 0.78019 0.0
C78 C 0.59928 0.88057 0.254 0.0
O79 O 0.62113 0.90257 0.25452 0.0
O80 O 0.59938 0.93394 0.32384 0.0
Zn81 Zn 0.58053 0.91522 0.25837 0.0
O82 O 0.59865 0.93491 0.1931 0.0
C83 C 0.54416 0.9316 0.24959 0.0
O84 O 0.56572 0.95337 0.24159 0.0
O85 O 0.57827 0.88082 0.25592 0.0
C86 C 0.58797 0.92476 0.14959 0.0
O87 O 0.56682 0.90213 0.15007 0.0
C88 C 0.61429 0.95821 0.32497 0.0
O89 O 0.61822 0.9717 0.28164 0.0
O90 O 0.54519 0.91129 0.25873 0.0
C91 C 0.71237 0.59764 0.74009 0.0
O92 O 0.71176 0.61915 0.73545 0.0
O93 O 0.65606 0.59521 0.80292 0.0
Zn94 Zn 0.6583 0.57683 0.73851 0.0
O95 O 0.65748 0.59457 0.67197 0.0
C96 C 0.6083 0.5346 0.7652 0.0
O97 O 0.60766 0.55251 0.79379 0.0
O98 O 0.69132 0.57633 0.74172 0.0
C99 C 0.63847 0.59771 0.66239 0.0
O100 O 0.61977 0.58978 0.6971 0.0
C101 C 0.66066 0.61832 0.8044 0.0
O102 O 0.66807 0.63242 0.76136 0.0
O103 O 0.62826 0.54039 0.73795 0.0
C104 C 0.10408 0.717 0.27085 0.0
O105 O 0.08202 0.71625 0.26406 0.0
O106 O 0.05655 0.65582 0.35754 0.0
Zn107 Zn 0.07078 0.6627 0.28398 0.0
O108 O 0.04617 0.66362 0.2312 0.0
C109 C 0.0573 0.61238 0.25055 0.0
O110 O 0.03442 0.61016 0.25209 0.0
O111 O 0.10411 0.69623 0.28072 0.0
C112 C 0.02199 0.65355 0.23721 0.0
O113 O 0.01135 0.64223 0.28203 0.0
C114 C 0.04749 0.66837 0.38047 0.0
O115 O 0.04702 0.68733 0.35544 0.0
O116 O 0.07684 0.63373 0.26331 0.0
C117 C 0.38331 0.10474 0.73095 0.0
O118 O 0.36173 0.08248 0.73117 0.0
O119 O 0.38707 0.04959 0.78 0.0
Zn120 Zn 0.40422 0.07186 0.71695 0.0
O121 O 0.38517 0.05365 0.6516 0.0
C122 C 0.45424 0.0836 0.75272 0.0
O123 O 0.44459 0.08442 0.79866 0.0
O124 O 0.40448 0.10511 0.72497 0.0
C125 C 0.38829 0.06573 0.60859 0.0
O126 O 0.40386 0.09081 0.60733 0.0
C127 C 0.37872 0.0255 0.77859 0.0
O128 O 0.38121 0.01517 0.73498 0.0
O129 O 0.44046 0.07873 0.71171 0.0
C130 C 0.26977 0.38822 0.27968 0.0
O131 O 0.26892 0.36589 0.28071 0.0
O132 O 0.31922 0.38445 0.35629 0.0
Zn133 Zn 0.32205 0.4042 0.29005 0.0
O134 O 0.32358 0.38642 0.22447 0.0
C135 C 0.35946 0.45601 0.25965 0.0
O136 O 0.34213 0.45231 0.22387 0.0
O137 O 0.29139 0.40874 0.28414 0.0
C138 C 0.34192 0.38216 0.21537 0.0
O139 O 0.35984 0.38822 0.25117 0.0
C140 C 0.31626 0.36195 0.35844 0.0
O141 O 0.31436 0.34948 0.31468 0.0
O142 O 0.35463 0.43834 0.29303 0.0
C143 C 0.88001 0.27559 0.71742 0.0
O144 O 0.90216 0.27611 0.71783 0.0
O145 O 0.93458 0.33078 0.77185 0.0
Zn146 Zn 0.91355 0.32953 0.70883 0.0
O147 O 0.9308 0.33124 0.63987 0.0
C148 C 0.90597 0.36918 0.75523 0.0
O149 O 0.90785 0.35889 0.79953 0.0
O150 O 0.87988 0.29662 0.71293 0.0
C151 C 0.95158 0.35155 0.62751 0.0
O152 O 0.96206 0.37071 0.66119 0.0
C153 C 0.95637 0.33211 0.77203 0.0
O154 O 0.96769 0.33285 0.72727 0.0
O155 O 0.90748 0.35958 0.71172 0.0
H156 H -0.00823 0.33057 0.10211 0.0
H157 H 0.0077 0.35078 0.79001 0.0
H158 H 0.06118 0.38982 0.02827 0.0
H159 H 0.93433 0.31806 0.8694 0.0
H160 H 0.02883 0.35709 0.87579 0.0
H161 H 0.97177 0.31763 0.01495 0.0
C162 C 0.0029 0.34063 0.06755 0.0
C163 C 0.02807 0.36145 0.07237 0.0
C164 C 0.00809 0.34835 0.87423 0.0
C165 C 0.00544 0.34666 0.97298 0.0
C166 C -0.00397 0.34466 0.8254 0.0
C167 C 0.96927 0.33411 0.82272 0.0
C168 C -0.00679 0.34104 0.92046 0.0
C169 C 0.95505 0.32653 0.86978 0.0
C170 C -0.00855 0.33332 0.01796 0.0
C171 C 0.04162 0.37384 0.02631 0.0
N172 N 0.9672 0.33016 0.91676 0.0
N173 N 0.03012 0.36628 0.97849 0.0
H174 H 0.63854 0.00986 0.34613 0.0
H175 H 0.65752 0.99329 0.65289 0.0
H176 H 0.6151 0.9362 0.419 0.0
H177 H 0.65842 0.06015 0.5868 0.0
H178 H 0.64925 0.9741 0.56484 0.0
H179 H 0.65344 0.0306 0.43184 0.0
C180 C 0.63674 -0.00193 0.38004 0.0
C181 C 0.62535 0.97123 0.37552 0.0
C182 C 0.65139 0.99302 0.5697 0.0
C183 C 0.64237 -0.00516 0.47357 0.0
C184 C 0.65619 0.00401 0.61984 0.0
C185 C 0.65846 0.02826 0.6272 0.0
C186 C 0.64916 0.00652 0.52665 0.0
C187 C 0.65657 0.0413 0.58299 0.0
C188 C 0.64516 0.00991 0.42896 0.0
C189 C 0.62355 0.95693 0.4208 0.0
N190 N 0.652 0.03026 0.53462 0.0
N191 N 0.6319 0.96891 0.46801 0.0
H192 H 0.61933 0.63393 0.12237 0.0
H193 H 0.66005 0.66337 0.81872 0.0
H194 H 0.61374 0.69194 0.03174 0.0
H195 H 0.65052 0.59633 0.90226 0.0
H196 H 0.64916 0.678 0.89964 0.0
H197 H 0.63697 0.62393 0.04518 0.0
C198 C 0.62198 0.64471 0.08636 0.0
C199 C 0.61481 0.66364 0.08338 0.0
C200 C 0.64961 0.66017 0.90025 0.0
C201 C 0.63499 0.65226 -0.00518 0.0
C202 C 0.65588 0.65184 0.85414 0.0
C203 C 0.656 0.62849 0.85363 0.0
C204 C 0.64358 0.64511 0.94618 0.0
C205 C 0.65047 0.61435 0.9007 0.0
C206 C 0.63201 0.63894 0.04225 0.0
C207 C 0.6188 0.67705 0.0357 0.0
N208 N 0.64441 0.62284 0.94498 0.0
N209 N 0.62852 0.67102 0.9932 0.0
H210 H 0.05089 0.63445 0.44729 0.0
H211 H 0.95294 0.63531 0.65851 0.0
H212 H 0.01885 0.68464 0.43528 0.0
H213 H -0.00336 0.59688 0.68347 0.0
H214 H 0.97656 0.65345 0.57649 0.0
H215 H 0.03084 0.62027 0.53365 0.0
C216 C 0.0397 0.64257 0.4629 0.0
C217 C 0.03644 0.66068 0.4339 0.0
C218 C 0.98109 0.64119 0.60009 0.0
C219 C 0.0133 0.6444 0.5328 0.0
C220 C 0.96758 0.63078 0.64688 0.0
C221 C 0.97274 0.61445 0.67778 0.0
C222 C -0.00027 0.63505 0.58384 0.0
C223 C -0.00801 0.60934 0.66087 0.0
C224 C 0.0283 0.6345 0.51231 0.0
C225 C 0.02184 0.67062 0.45626 0.0
N226 N 0.00465 0.61945 0.61486 0.0
N227 N 0.01065 0.66221 0.50426 0.0
H228 H 0.37152 0.04103 0.87525 0.0
H229 H 0.32226 0.9036 0.01109 0.0
H230 H 0.36024 0.97371 0.79072 0.0
H231 H 0.33531 0.97166 0.0952 0.0
H232 H 0.33263 0.92794 0.92865 0.0
H233 H 0.35499 0.01494 0.95485 0.0
C234 C 0.36546 0.02072 0.87333 0.0
C235 C 0.36745 0.00958 0.8263 0.0
C236 C 0.33308 0.9375 0.96512 0.0
C237 C 0.34852 0.97957 0.91747 0.0
C238 C 0.32712 0.92361 0.01221 0.0
C239 C 0.32812 0.93567 0.06018 0.0
C240 C 0.34012 0.96365 0.96602 0.0
C241 C 0.33444 0.9616 0.0592 0.0
C242 C 0.356 0.00582 0.91886 0.0
C243 C 0.35918 0.98314 0.82617 0.0
N244 N 0.34035 0.97475 0.01293 0.0
N245 N 0.3502 0.96906 0.87115 0.0
H246 H 0.32819 0.3243 0.37838 0.0
H247 H 0.31921 0.33146 0.69141 0.0
H248 H 0.30697 0.37507 0.45557 0.0
H249 H 0.37138 0.31237 0.61351 0.0
H250 H 0.30506 0.33799 0.60492 0.0
H251 H 0.33439 0.31005 0.46495 0.0
C252 C 0.32448 0.33216 0.41351 0.0
C253 C 0.31732 0.35107 0.40992 0.0
C254 C 0.31944 0.33215 0.60696 0.0
C255 C 0.32417 0.33477 0.50857 0.0
C256 C 0.32744 0.32835 0.65614 0.0
C257 C 0.34666 0.32163 0.65948 0.0
C258 C 0.33041 0.32872 0.56104 0.0
C259 C 0.35672 0.31785 0.61262 0.0
C260 C 0.32813 0.32412 0.46277 0.0
C261 C 0.3128 0.36066 0.45667 0.0
N262 N 0.34848 0.32145 0.56527 0.0
N263 N 0.31634 0.35243 0.50415 0.0
H264 H 0.90016 0.58862 0.008 0.0
H265 H 0.03786 0.67607 0.14043 0.0
H266 H 0.97023 0.63611 0.92104 0.0
H267 H 0.96941 0.62491 0.22863 0.0
H268 H 0.01181 0.66662 0.06114 0.0
H269 H 0.92371 0.60632 0.09017 0.0
C270 C 0.92043 0.60293 0.00614 0.0
C271 C 0.93332 0.61066 0.95759 0.0
C272 C 0.00242 0.65763 0.0979 0.0
C273 C 0.96034 0.63097 0.0514 0.0
C274 C 0.01729 0.66305 0.14328 0.0
C275 C 0.00585 0.65096 0.19111 0.0
C276 C 0.97591 0.63986 0.1002 0.0
C277 C 0.97907 0.6345 0.1925 0.0
C278 C 0.93386 0.61302 0.05307 0.0
C279 C 0.95956 0.62938 0.95756 0.0
N280 N 0.96503 0.62919 0.14752 0.0
N281 N 0.97222 0.63873 0.00373 0.0
H282 H 0.31932 0.94428 0.38002 0.0
H283 H 0.39349 0.08467 0.50812 0.0
H284 H 0.3562 0.01446 0.28838 0.0
H285 H 0.3557 0.0139 0.59781 0.0
H286 H 0.37643 0.05974 0.4272 0.0
H287 H 0.32879 0.96986 0.46 0.0
C288 C 0.32926 0.96509 0.37666 0.0
C289 C 0.33723 0.97726 0.32745 0.0
C290 C 0.37171 0.04971 0.46464 0.0
C291 C 0.3483 0.00672 0.41909 0.0
C292 C 0.38143 0.06392 0.51087 0.0
C293 C 0.37625 0.05133 0.55977 0.0
C294 C 0.35675 0.02271 0.46739 0.0
C295 C 0.3604 0.02442 0.56096 0.0
C296 C 0.33466 0.9797 0.42241 0.0
C297 C 0.34983 0.00428 0.32552 0.0
N298 N 0.35139 0.01102 0.51545 0.0
N299 N 0.3552 0.01813 0.37077 0.0
H300 H 0.35559 0.37091 0.88168 0.0
H301 H 0.3711 0.36058 0.18822 0.0
H302 H 0.37738 0.31806 0.94693 0.0
H303 H 0.31783 0.38198 0.12406 0.0
H304 H 0.37654 0.34749 0.09994 0.0
H305 H 0.34425 0.37799 0.9703 0.0
C306 C 0.35781 0.36067 0.91461 0.0
C307 C 0.36749 0.34394 0.90706 0.0
C308 C 0.36348 0.35482 0.10541 0.0
C309 C 0.35498 0.35223 0.00829 0.0
C310 C 0.36045 0.36238 0.15564 0.0
C311 C 0.34406 0.37245 0.16337 0.0
C312 C 0.35044 0.35788 0.0626 0.0
C313 C 0.33064 0.37428 0.11985 0.0
C314 C 0.35127 0.36465 0.96506 0.0
C315 C 0.36992 0.33108 0.95104 0.0
N316 N 0.33437 0.36736 0.07116 0.0
N317 N 0.36402 0.33576 -5e-05 0.0
H318 H 0.92848 0.32397 0.53841 0.0
H319 H 0.05529 0.39454 0.36208 0.0
H320 H 0.00101 0.38502 0.59712 0.0
H321 H 0.97917 0.36237 0.29549 0.0
H322 H 0.03621 0.38343 0.45003 0.0
H323 H 0.94759 0.33045 0.45032 0.0
C324 C 0.94848 0.33856 0.53286 0.0
C325 C 0.96318 0.35409 0.575 0.0
C326 C 0.02371 0.3787 0.41611 0.0
C327 C 0.98508 0.36136 0.47485 0.0
C328 C 0.03454 0.3849 0.36588 0.0
C329 C 0.01878 0.37951 0.32139 0.0
C330 C -0.00308 0.36667 0.4219 0.0
C331 C -0.00798 0.36704 0.32877 0.0
C332 C 0.95929 0.3423 0.48264 0.0
C333 C 0.98895 0.37277 0.56563 0.0
N334 N 0.9819 0.361 0.37817 0.0
N335 N -0.00088 0.37584 0.51654 0.0
H336 H 0.59605 0.98115 0.8342 0.0
H337 H 0.63092 0.97212 0.13407 0.0
H338 H 0.66474 0.04 0.91037 0.0
H339 H 0.56731 0.91004 0.05123 0.0
H340 H 0.64473 -0.00333 0.05182 0.0
H341 H 0.58623 0.95419 0.91254 0.0
C342 C 0.60915 0.98836 0.86731 0.0
C343 C 0.63115 0.01294 0.86588 0.0
C344 C 0.62787 0.97759 0.05158 0.0
C345 C 0.61996 0.98219 0.95591 0.0
C346 C 0.61997 0.96357 0.09853 0.0
C347 C 0.59782 0.93906 0.0996 0.0
C348 C 0.61343 0.96709 0.00548 0.0
C349 C 0.58443 0.92891 0.05234 0.0
C350 C 0.60355 0.97292 0.91204 0.0
C351 C 0.64752 0.0212 0.90984 0.0
N352 N 0.59234 0.94305 0.00731 0.0
N353 N 0.64148 0.00593 0.95325 0.0
H354 H 0.58728 0.65249 0.40076 0.0
H355 H 0.67162 0.61228 0.57841 0.0
H356 H 0.65145 0.64671 0.34039 0.0
H357 H 0.60188 0.6094 0.63144 0.0
H358 H 0.66737 0.62923 0.49366 0.0
H359 H 0.59539 0.64129 0.48814 0.0
C360 C 0.6032 0.64902 0.40589 0.0
C361 C 0.6186 0.65035 0.36301 0.0
C362 C 0.65307 0.62498 0.52393 0.0
C363 C 0.62792 0.63739 0.46324 0.0
C364 C 0.65548 0.61533 0.57236 0.0
C365 C 0.63696 0.60924 0.61197 0.0
C366 C 0.63204 0.62865 0.51512 0.0
C367 C 0.61652 0.61367 0.60196 0.0
C368 C 0.60779 0.64257 0.45588 0.0
C369 C 0.63902 0.64578 0.37224 0.0
N370 N 0.61457 0.62302 0.55449 0.0
N371 N 0.64301 0.63936 0.42133 0.0
H372 H 0.10012 0.60708 0.25657 0.0
H373 H 0.02704 0.46405 0.13905 0.0
H374 H 0.02053 0.56708 0.20788 0.0
H375 H 0.10072 0.49676 0.21693 0.0
H376 H 0.02706 0.50426 0.15312 0.0
H377 H 0.10315 0.56913 0.23219 0.0
C378 C 0.08334 0.59039 0.24056 0.0
C379 C 0.05999 0.59017 0.23457 0.0
C380 C 0.04329 0.5027 0.16694 0.0
C381 C 0.06336 0.54689 0.20643 0.0
C382 C 0.04334 0.47975 0.15877 0.0
C383 C 0.06382 0.47695 0.17722 0.0
C384 C 0.0639 0.52307 0.19365 0.0
C385 C 0.08446 0.49803 0.20234 0.0
C386 C 0.08507 0.56875 0.22675 0.0
C387 C 0.03886 0.56805 0.21357 0.0
N388 N 0.08392 0.52019 0.21005 0.0
N389 N 0.04106 0.54732 0.20032 0.0
H390 H 0.48721 0.08974 0.83319 0.0
H391 H 0.59568 0.09453 0.64207 0.0
H392 H 0.4809 0.08561 0.66361 0.0
H393 H 0.59662 0.08738 0.81124 0.0
H394 H 0.5559 0.09608 0.64948 0.0
H395 H 0.52959 0.09358 0.82602 0.0
C396 C 0.49478 0.08977 0.79443 0.0
C397 C 0.48041 0.08719 0.74894 0.0
C398 C 0.56488 0.09428 0.68499 0.0
C399 C 0.5289 0.09158 0.74048 0.0
C400 C 0.58763 0.09346 0.68081 0.0
C401 C 0.59942 0.09066 0.72608 0.0
C402 C 0.55386 0.09237 0.73482 0.0
C403 C 0.58812 0.08941 0.77524 0.0
C404 C 0.51896 0.09192 0.79038 0.0
C405 C 0.49123 0.0874 0.69976 0.0
N406 N 0.56593 0.09019 0.77828 0.0
N407 N 0.51479 0.08948 0.69685 0.0
H408 H 0.52202 0.56191 0.29122 0.0
H409 H 0.3757 0.49939 0.19892 0.0
H410 H 0.49393 0.60427 0.20248 0.0
H411 H 0.40172 0.46617 0.31803 0.0
H412 H 0.41909 0.53708 0.1952 0.0
H413 H 0.47828 0.52543 0.29615 0.0
C414 C 0.50666 0.56353 0.27263 0.0
C415 C 0.51165 0.58619 0.2464 0.0
C416 C 0.41521 0.52158 0.2223 0.0
C417 C 0.46143 0.54441 0.25192 0.0
C418 C 0.39048 0.50006 0.22444 0.0
C419 C 0.38508 0.47958 0.25878 0.0
C420 C 0.4347 0.52245 0.25435 0.0
C421 C 0.40497 0.4815 0.29098 0.0
C422 C 0.48164 0.54271 0.27567 0.0
C423 C 0.49093 0.58718 0.22318 0.0
N424 N 0.4289 0.50247 0.28774 0.0
N425 N 0.4667 0.56653 0.22634 0.0
H426 H 0.90866 0.5096 0.84466 0.0
H427 H 0.8997 0.39416 0.6711 0.0
H428 H 0.8949 0.50276 0.67695 0.0
H429 H 0.90633 0.39724 0.84064 0.0
H430 H 0.89727 0.4336 0.67265 0.0
H431 H 0.90723 0.46816 0.84422 0.0
C432 C 0.90524 0.49935 0.80775 0.0
C433 C 0.90198 0.50972 0.76072 0.0
C434 C 0.89914 0.4256 0.70955 0.0
C435 C 0.90042 0.46229 0.75993 0.0
C436 C 0.90055 0.40307 0.7087 0.0
C437 C 0.90332 0.39241 0.75582 0.0
C438 C 0.90064 0.43767 0.75783 0.0
C439 C 0.90424 0.40478 0.80335 0.0
C440 C 0.90441 0.47566 0.80755 0.0
C441 C 0.89755 0.49553 0.71413 0.0
N442 N 0.90303 0.42682 0.80311 0.0
N443 N 0.89702 0.47261 0.71488 0.0
H444 H 0.42692 0.9731 0.20875 0.0
H445 H 0.49546 0.88988 0.26122 0.0
H446 H 0.38472 0.89132 0.24059 0.0
H447 H 0.53609 0.97179 0.2308 0.0
H448 H 0.45462 0.88961 0.25417 0.0
H449 H 0.46705 0.97256 0.21667 0.0
C450 C 0.42607 0.95499 0.21736 0.0
C451 C 0.4024 0.93222 0.22402 0.0
C452 C 0.4725 0.90762 0.24911 0.0
C453 C 0.44844 0.93146 0.23324 0.0
C454 C 0.4958 0.9078 0.25317 0.0
C455 C 0.51923 0.93089 0.24656 0.0
C456 C 0.47266 0.9307 0.23835 0.0
C457 C 0.51853 0.95353 0.23615 0.0
C458 C 0.44905 0.9547 0.22193 0.0
C459 C 0.40255 0.90934 0.23515 0.0
N460 N 0.49565 0.95284 0.23234 0.0
N461 N 0.42524 0.90954 0.23943 0.0
H462 H 0.56467 0.51538 0.82477 0.0
H463 H 0.4939 0.37746 0.68439 0.0
H464 H 0.6006 0.49375 0.70335 0.0
H465 H 0.46321 0.39788 0.81789 0.0
H466 H 0.5331 0.41975 0.68966 0.0
H467 H 0.52719 0.47224 0.82163 0.0
C468 C 0.56471 0.50154 0.79745 0.0
C469 C 0.5858 0.50822 0.76419 0.0
C470 C 0.5178 0.41488 0.71788 0.0
C471 C 0.54278 0.45865 0.76029 0.0
C472 C 0.49542 0.39076 0.71489 0.0
C473 C 0.47519 0.38413 0.75064 0.0
C474 C 0.51986 0.43248 0.75674 0.0
C475 C 0.47824 0.40212 0.78939 0.0
C476 C 0.54328 0.47685 0.79573 0.0
C477 C 0.58475 0.48942 0.72971 0.0
N478 N 0.50007 0.42546 0.79124 0.0
N479 N 0.56353 0.46548 0.72849 0.0
H480 H 0.11245 0.35009 0.22708 0.0
H481 H 0.26496 0.43113 0.26965 0.0
H482 H 0.15706 0.43313 0.21774 0.0
H483 H 0.22058 0.34795 0.27016 0.0
H484 H 0.22553 0.43239 0.25295 0.0
H485 H 0.15186 0.34905 0.24461 0.0
C486 C 0.13054 0.36812 0.22861 0.0
C487 C 0.13146 0.39174 0.22093 0.0
C488 C 0.22443 0.41387 0.25677 0.0
C489 C 0.17667 0.39069 0.24116 0.0
C490 C 0.24692 0.41313 0.26642 0.0
C491 C 0.24605 0.38939 0.27125 0.0
C492 C 0.20091 0.3907 0.25201 0.0
C493 C 0.22215 0.36669 0.26665 0.0
C494 C 0.15305 0.3675 0.23866 0.0
C495 C 0.15546 0.41448 0.22338 0.0
N496 N 0.20054 0.36791 0.25725 0.0
N497 N 0.17712 0.41339 0.23336 0.0
H498 H 0.83125 0.26812 0.72351 0.0
H499 H 0.76342 0.1147 0.74921 0.0
H500 H 0.87321 0.227 0.72584 0.0
H501 H 0.72271 0.15695 0.75816 0.0
H502 H 0.80388 0.1555 0.74038 0.0
H503 H 0.79123 0.22735 0.73519 0.0
C504 C 0.83206 0.25051 0.72639 0.0
C505 C 0.85562 0.25097 0.72365 0.0
C506 C 0.78609 0.15583 0.74444 0.0
C507 C 0.80983 0.20419 0.73714 0.0
C508 C 0.76299 0.13255 0.74953 0.0
C509 C 0.73964 0.13241 0.75431 0.0
C510 C 0.78582 0.17912 0.74396 0.0
C511 C 0.74024 0.15612 0.75452 0.0
C512 C 0.80918 0.22722 0.73319 0.0
C513 C 0.85548 0.22754 0.72773 0.0
N514 N 0.76294 0.17849 0.74923 0.0
N515 N 0.83292 0.20508 0.73422 0.0
H516 H 0.64198 0.76252 0.24585 0.0
H517 H 0.55763 0.83191 0.24647 0.0
H518 H 0.55946 0.72224 0.22586 0.0
H519 H 0.64067 0.8731 0.25348 0.0
H520 H 0.55795 0.79144 0.24034 0.0
H521 H 0.64195 0.80323 0.24974 0.0
C522 C 0.62386 0.76223 0.24215 0.0
C523 C 0.60068 0.73894 0.23561 0.0
C524 C 0.57611 0.80933 0.24317 0.0
C525 C 0.60051 0.78543 0.24021 0.0
C526 C 0.57594 0.83245 0.24677 0.0
C527 C 0.59916 0.85593 0.25055 0.0
C528 C 0.59966 0.80966 0.2435 0.0
C529 C 0.6223 0.85545 0.25063 0.0
C530 C 0.62386 0.78549 0.24437 0.0
C531 C 0.57779 0.73973 0.23098 0.0
N532 N 0.62196 0.83268 0.24724 0.0
N533 N 0.57828 0.76259 0.23352 0.0
H534 H 0.87366 0.64495 0.76991 0.0
H535 H 0.72041 0.5568 0.75141 0.0
H536 H 0.83287 0.56194 0.78265 0.0
H537 H 0.76085 0.63985 0.73997 0.0
H538 H 0.76156 0.55833 0.76148 0.0
H539 H 0.8326 0.64352 0.7578 0.0
C540 C 0.85608 0.62642 0.77018 0.0
C541 C 0.8567 0.60353 0.77734 0.0
C542 C 0.76145 0.57623 0.7567 0.0
C543 C 0.80965 0.60175 0.76344 0.0
C544 C 0.73795 0.57537 0.75091 0.0
C545 C 0.73718 0.59825 0.74492 0.0
C546 C 0.78439 0.60013 0.75654 0.0
C547 C 0.76053 0.62174 0.74453 0.0
C548 C 0.83264 0.62562 0.76323 0.0
C549 C 0.83331 0.58007 0.77729 0.0
N550 N 0.78318 0.62208 0.75034 0.0
N551 N 0.81075 0.5798 0.77047 0.0
H552 H 0.26464 0.83354 0.24188 0.0
H553 H 0.11094 0.7649 0.25068 0.0
H554 H 0.22276 0.87419 0.22212 0.0
H555 H 0.15307 0.72502 0.27776 0.0
H556 H 0.15168 0.80507 0.23916 0.0
H557 H 0.22387 0.79344 0.25361 0.0
C558 C 0.24687 0.83404 0.23991 0.0
C559 C 0.24711 0.85727 0.23105 0.0
C560 C 0.15201 0.78754 0.2477 0.0
C561 C 0.20037 0.81142 0.24454 0.0
C562 C 0.12875 0.76459 0.25432 0.0
C563 C 0.12859 0.74155 0.26517 0.0
C564 C 0.1753 0.78746 0.25186 0.0
C565 C 0.15227 0.74232 0.26945 0.0
C566 C 0.22359 0.81113 0.24669 0.0
C567 C 0.22349 0.85674 0.2289 0.0
N568 N 0.17466 0.76489 0.26269 0.0
N569 N 0.20107 0.83417 0.23562 0.0
H570 H 0.33851 0.21996 0.77464 0.0
H571 H 0.42452 0.15377 0.734 0.0
H572 H 0.42156 0.26226 0.76756 0.0
H573 H 0.34156 0.11109 0.74447 0.0
H574 H 0.42376 0.1937 0.74649 0.0
H575 H 0.3392 0.17983 0.76428 0.0
C576 C 0.3569 0.22082 0.77104 0.0
C577 C 0.38002 0.24451 0.7719 0.0
C578 C 0.40571 0.17561 0.74609 0.0
C579 C 0.38093 0.19865 0.75988 0.0
C580 C 0.40613 0.15278 0.73891 0.0
C581 C 0.38306 0.12904 0.73817 0.0
C582 C 0.38206 0.17473 0.75254 0.0
C583 C 0.35981 0.12896 0.74475 0.0
C584 C 0.35727 0.19789 0.76509 0.0
C585 C 0.40327 0.24444 0.76709 0.0
N586 N 0.3599 0.15147 0.75164 0.0
N587 N 0.40312 0.22186 0.76118 0.0
loop_
_geom_bond_atom_site_label_1
_geom_bond_atom_site_label_2
_geom_bond_distance
_geom_bond_site_symmetry_2
_ccdc_geom_bond_type
C0 O1 1.160 . S
C0 O7 1.185 . S
O1 C0 1.160 . S
O2 Zn3 1.899 . S
O2 C10 1.284 . S
Zn3 O2 1.899 . S
Zn3 O4 2.032 . S
Zn3 O7 2.086 . S
Zn3 O12 1.977 . S
O4 Zn3 2.032 . S
O4 C8 1.278 . S
C5 O6 1.203 . S
C5 O12 1.267 . S
O6 C5 1.203 . S
O7 C0 1.185 . S
O7 Zn3 2.086 . S
C8 O4 1.278 . S
C8 O9 1.211 . S
O9 C8 1.211 . S
C10 O2 1.284 . S
C10 O11 1.273 . S
O11 C10 1.273 . S
O12 Zn3 1.977 . S
O12 C5 1.267 . S
C13 O14 1.160 . S
C13 O20 1.185 . S
O14 C13 1.160 . S
O15 Zn16 1.899 . S
O15 C23 1.284 . S
Zn16 O15 1.899 . S
Zn16 O17 2.032 . S
Zn16 O20 2.086 . S
Zn16 O25 1.977 . S
O17 Zn16 2.032 . S
O17 C21 1.278 . S
C18 O19 1.203 . S
C18 O25 1.267 . S
O19 C18 1.203 . S
O20 C13 1.185 . S
O20 Zn16 2.086 . S
C21 O17 1.278 . S
C21 O22 1.211 . S
O22 C21 1.211 . S
C23 O15 1.284 . S
C23 O24 1.273 . S
O24 C23 1.273 . S
O25 Zn16 1.977 . S
O25 C18 1.267 . S
C26 O27 1.160 . S
C26 O33 1.185 . S
O27 C26 1.160 . S
O28 Zn29 1.899 . S
O28 C36 1.284 . S
Zn29 O28 1.899 . S
Zn29 O30 2.032 . S
Zn29 O33 2.086 . S
Zn29 O38 1.977 . S
O30 Zn29 2.032 . S
O30 C34 1.278 . S
C31 O32 1.203 . S
C31 O38 1.267 . S
O32 C31 1.203 . S
O33 C26 1.185 . S
O33 Zn29 2.086 . S
C34 O30 1.278 . S
C34 O35 1.211 . S
O35 C34 1.211 . S
C36 O28 1.284 . S
C36 O37 1.273 . S
O37 C36 1.273 . S
O38 Zn29 1.977 . S
O38 C31 1.267 . S
C39 O40 1.160 . S
C39 O46 1.185 . S
O40 C39 1.160 . S
O41 Zn42 1.899 . S
O41 C49 1.284 . S
Zn42 O41 1.899 . S
Zn42 O43 2.032 . S
Zn42 O46 2.086 . S
Zn42 O51 1.977 . S
O43 Zn42 2.032 . S
O43 C47 1.278 . S
C44 O45 1.203 . S
C44 O51 1.267 . S
O45 C44 1.203 . S
O46 C39 1.185 . S
O46 Zn42 2.086 . S
C47 O43 1.278 . S
C47 O48 1.211 . S
O48 C47 1.211 . S
C49 O41 1.284 . S
C49 O50 1.273 . S
O50 C49 1.273 . S
O51 Zn42 1.977 . S
O51 C44 1.267 . S
C52 O53 1.160 . S
C52 O59 1.185 . S
O53 C52 1.160 . S
O54 Zn55 1.899 . S
O54 C62 1.284 . S
Zn55 O54 1.899 . S
Zn55 O56 2.032 . S
Zn55 O59 2.086 . S
Zn55 O64 1.977 . S
O56 Zn55 2.032 . S
O56 C60 1.278 . S
C57 O58 1.203 . S
C57 O64 1.267 . S
O58 C57 1.203 . S
O59 C52 1.185 . S
O59 Zn55 2.086 . S
C60 O56 1.278 . S
C60 O61 1.211 . S
O61 C60 1.211 . S
C62 O54 1.284 . S
C62 O63 1.273 . S
O63 C62 1.273 . S
O64 Zn55 1.977 . S
O64 C57 1.267 . S
C65 O66 1.160 . S
C65 O72 1.185 . S
O66 C65 1.160 . S
O67 Zn68 1.899 . S
O67 C75 1.284 . S
Zn68 O67 1.899 . S
Zn68 O69 2.032 . S
Zn68 O72 2.086 . S
Zn68 O77 1.977 . S
O69 Zn68 2.032 . S
O69 C73 1.278 . S
C70 O71 1.203 . S
C70 O77 1.267 . S
O71 C70 1.203 . S
O72 C65 1.185 . S
O72 Zn68 2.086 . S
C73 O69 1.278 . S
C73 O74 1.211 . S
O74 C73 1.211 . S
C75 O67 1.284 . S
C75 O76 1.273 . S
O76 C75 1.273 . S
O77 Zn68 1.977 . S
O77 C70 1.267 . S
C78 O79 1.160 . S
C78 O85 1.185 . S
O79 C78 1.160 . S
O80 Zn81 1.899 . S
O80 C88 1.284 . S
Zn81 O80 1.899 . S
Zn81 O82 2.032 . S
Zn81 O85 2.086 . S
Zn81 O90 1.977 . S
O82 Zn81 2.032 . S
O82 C86 1.278 . S
C83 O84 1.203 . S
C83 O90 1.267 . S
O84 C83 1.203 . S
O85 C78 1.185 . S
O85 Zn81 2.086 . S
C86 O82 1.278 . S
C86 O87 1.211 . S
O87 C86 1.211 . S
C88 O80 1.284 . S
C88 O89 1.273 . S
O89 C88 1.273 . S
O90 Zn81 1.977 . S
O90 C83 1.267 . S
C91 O92 1.160 . S
C91 O98 1.185 . S
O92 C91 1.160 . S
O93 Zn94 1.899 . S
O93 C101 1.284 . S
Zn94 O93 1.899 . S
Zn94 O95 2.032 . S
Zn94 O98 2.086 . S
Zn94 O103 1.977 . S
O95 Zn94 2.032 . S
O95 C99 1.278 . S
C96 O97 1.203 . S
C96 O103 1.267 . S
O97 C96 1.203 . S
O98 C91 1.185 . S
O98 Zn94 2.086 . S
C99 O95 1.278 . S
C99 O100 1.211 . S
O100 C99 1.211 . S
C101 O93 1.284 . S
C101 O102 1.273 . S
O102 C101 1.273 . S
O103 Zn94 1.977 . S
O103 C96 1.267 . S
C104 O105 1.160 . S
C104 O111 1.185 . S
O105 C104 1.160 . S
O106 Zn107 1.899 . S
O106 C114 1.284 . S
Zn107 O106 1.899 . S
Zn107 O108 2.032 . S
Zn107 O111 2.086 . S
Zn107 O116 1.977 . S
O108 Zn107 2.032 . S
O108 C112 1.278 . S
C109 O110 1.203 . S
C109 O116 1.267 . S
O110 C109 1.203 . S
O111 C104 1.185 . S
O111 Zn107 2.086 . S
C112 O108 1.278 . S
C112 O113 1.211 . S
O113 C112 1.211 . S
C114 O106 1.284 . S
C114 O115 1.273 . S
O115 C114 1.273 . S
O116 Zn107 1.977 . S
O116 C109 1.267 . S
C117 O118 1.160 . S
C117 O124 1.185 . S
O118 C117 1.160 . S
O119 Zn120 1.899 . S
O119 C127 1.284 . S
Zn120 O119 1.899 . S
Zn120 O121 2.032 . S
Zn120 O124 2.086 . S
Zn120 O129 1.977 . S
O121 Zn120 2.032 . S
O121 C125 1.278 . S
C122 O123 1.203 . S
C122 O129 1.267 . S
O123 C122 1.203 . S
O124 C117 1.185 . S
O124 Zn120 2.086 . S
C125 O121 1.278 . S
C125 O126 1.211 . S
O126 C125 1.211 . S
C127 O119 1.284 . S
C127 O128 1.273 . S
O128 C127 1.273 . S
O129 Zn120 1.977 . S
O129 C122 1.267 . S
C130 O131 1.160 . S
C130 O137 1.185 . S
O131 C130 1.160 . S
O132 Zn133 1.899 . S
O132 C140 1.284 . S
Zn133 O132 1.899 . S
Zn133 O134 2.032 . S
Zn133 O137 2.086 . S
Zn133 O142 1.977 . S
O134 Zn133 2.032 . S
O134 C138 1.278 . S
C135 O136 1.203 . S
C135 O142 1.267 . S
O136 C135 1.203 . S
O137 C130 1.185 . S
O137 Zn133 2.086 . S
C138 O134 1.278 . S
C138 O139 1.211 . S
O139 C138 1.211 . S
C140 O132 1.284 . S
C140 O141 1.273 . S
O141 C140 1.273 . S
O142 Zn133 1.977 . S
O142 C135 1.267 . S
C143 O144 1.160 . S
C143 O150 1.185 . S
O144 C143 1.160 . S
O145 Zn146 1.899 . S
O145 C153 1.284 . S
Zn146 O145 1.899 . S
Zn146 O147 2.032 . S
Zn146 O150 2.086 . S
Zn146 O155 1.977 . S
O147 Zn146 2.032 . S
O147 C151 1.278 . S
C148 O149 1.203 . S
C148 O155 1.267 . S
O149 C148 1.203 . S
O150 C143 1.185 . S
O150 Zn146 2.086 . S
C151 O147 1.278 . S
C151 O152 1.211 . S
O152 C151 1.211 . S
C153 O145 1.284 . S
C153 O154 1.273 . S
O154 C153 1.273 . S
O155 Zn146 1.977 . S
O155 C148 1.267 . S
H156 C162 0.929 1_655 S
H157 C166 0.929 1_455 S
H158 C171 0.929 . S
H159 C169 0.929 . S
H160 C164 0.929 . S
H161 C170 0.929 . S
C162 H156 0.929 1_455 S
C162 C163 1.367 . S
C162 C170 1.378 1_455 S
C163 C162 1.367 . S
C163 C171 1.433 . S
C164 H160 0.929 . S
C164 C166 1.378 1_455 S
C164 C168 1.350 1_455 S
C165 C168 1.463 1_454 S
C165 C170 1.350 1_455 S
C165 N173 1.427 . S
C166 H157 0.929 1_655 S
C166 C164 1.378 1_655 S
C166 C167 1.367 . S
C167 C166 1.367 . S
C167 C169 1.433 . S
C168 C164 1.350 1_655 S
C168 C165 1.463 1_656 S
C168 N172 1.427 . S
C169 H159 0.929 . S
C169 C167 1.433 . S
C169 N172 1.384 . S
C170 H161 0.929 . S
C170 C162 1.378 1_655 S
C170 C165 1.350 1_655 S
C171 H158 0.929 . S
C171 C163 1.433 . S
C171 N173 1.384 . S
N172 C168 1.427 . S
N172 C169 1.384 . S
N173 C165 1.427 . S
N173 C171 1.384 . S
H174 C180 0.930 . S
H175 C184 0.930 . S
H176 C189 0.929 . S
H177 C187 0.929 . S
H178 C182 0.929 . S
H179 C188 0.929 . S
C180 H174 0.930 . S
C180 C181 1.367 . S
C180 C188 1.378 1_565 S
C181 C180 1.367 . S
C181 C189 1.433 . S
C182 H178 0.929 . S
C182 C184 1.378 1_565 S
C182 C186 1.350 1_565 S
C183 C186 1.463 1_565 S
C183 C188 1.350 1_565 S
C183 N191 1.427 . S
C184 H175 0.930 . S
C184 C182 1.378 1_545 S
C184 C185 1.367 . S
C185 C184 1.367 . S
C185 C187 1.433 . S
C186 C182 1.350 1_545 S
C186 C183 1.463 1_545 S
C186 N190 1.427 . S
C187 H177 0.929 . S
C187 C185 1.433 . S
C187 N190 1.384 . S
C188 H179 0.929 . S
C188 C180 1.378 1_545 S
C188 C183 1.350 1_545 S
C189 H176 0.929 . S
C189 C181 1.433 . S
C189 N191 1.384 . S
N190 C186 1.427 . S
N190 C187 1.384 . S
N191 C183 1.427 . S
N191 C189 1.384 . S
H192 C198 0.930 . S
H193 C202 0.930 . S
H194 C207 0.929 . S
H195 C205 0.929 . S
H196 C200 0.929 . S
H197 C206 0.929 . S
C198 H192 0.930 . S
C198 C199 1.367 . S
C198 C206 1.378 . S
C199 C198 1.367 . S
C199 C207 1.433 . S
C200 H196 0.929 . S
C200 C202 1.378 . S
C200 C204 1.350 . S
C201 C204 1.463 1_554 S
C201 C206 1.350 . S
C201 N209 1.427 . S
C202 H193 0.930 . S
C202 C200 1.378 . S
C202 C203 1.367 . S
C203 C202 1.367 . S
C203 C205 1.433 . S
C204 C200 1.350 . S
C204 C201 1.463 1_556 S
C204 N208 1.427 . S
C205 H195 0.929 . S
C205 C203 1.433 . S
C205 N208 1.384 . S
C206 H197 0.929 . S
C206 C198 1.378 . S
C206 C201 1.350 . S
C207 H194 0.929 . S
C207 C199 1.433 . S
C207 N209 1.384 . S
N208 C204 1.427 . S
N208 C205 1.384 . S
N209 C201 1.427 . S
N209 C207 1.384 . S
H210 C216 0.930 . S
H211 C220 0.930 . S
H212 C225 0.929 1_655 S
H213 C223 0.929 1_455 S
H214 C218 0.929 . S
H215 C224 0.929 . S
C216 H210 0.930 . S
C216 C217 1.367 . S
C216 C224 1.378 . S
C217 C216 1.367 . S
C217 C225 1.433 . S
C218 H214 0.929 . S
C218 C220 1.378 . S
C218 C222 1.350 . S
C219 C222 1.463 1_455 S
C219 C224 1.350 . S
C219 N227 1.427 1_455 S
C220 H211 0.930 . S
C220 C218 1.378 . S
C220 C221 1.367 . S
C221 C220 1.367 . S
C221 C223 1.433 . S
C222 C218 1.350 . S
C222 C219 1.463 1_655 S
C222 N226 1.427 1_655 S
C223 H213 0.929 1_655 S
C223 C221 1.433 . S
C223 N226 1.384 1_655 S
C224 H215 0.929 . S
C224 C216 1.378 . S
C224 C219 1.350 . S
C225 H212 0.929 1_455 S
C225 C217 1.433 . S
C225 N227 1.384 1_455 S
N226 C222 1.427 1_455 S
N226 C223 1.384 1_455 S
N227 C219 1.427 1_655 S
N227 C225 1.384 1_655 S
H228 C234 0.930 . S
H229 C238 0.930 . S
H230 C243 0.929 . S
H231 C241 0.929 . S
H232 C236 0.929 1_545 S
H233 C242 0.929 1_565 S
C234 H228 0.930 . S
C234 C235 1.367 . S
C234 C242 1.378 . S
C235 C234 1.367 . S
C235 C243 1.433 . S
C236 H232 0.929 1_565 S
C236 C238 1.378 . S
C236 C240 1.350 . S
C237 C240 1.463 1_546 S
C237 C242 1.350 . S
C237 N245 1.427 . S
C238 H229 0.930 . S
C238 C236 1.378 . S
C238 C239 1.367 . S
C239 C238 1.367 . S
C239 C241 1.433 . S
C240 C236 1.350 . S
C240 C237 1.463 1_564 S
C240 N244 1.427 . S
C241 H231 0.929 . S
C241 C239 1.433 . S
C241 N244 1.384 . S
C242 H233 0.929 1_545 S
C242 C234 1.378 . S
C242 C237 1.350 . S
C243 H230 0.929 . S
C243 C235 1.433 . S
C243 N245 1.384 . S
N244 C240 1.427 . S
N244 C241 1.384 . S
N245 C237 1.427 . S
N245 C243 1.384 . S
H246 C252 0.930 . S
H247 C256 0.930 . S
H248 C261 0.929 . S
H249 C259 0.929 . S
H250 C254 0.929 . S
H251 C260 0.929 . S
C252 H246 0.930 . S
C252 C253 1.367 . S
C252 C260 1.378 . S
C253 C252 1.367 . S
C253 C261 1.433 . S
C254 H250 0.929 . S
C254 C256 1.378 . S
C254 C258 1.350 . S
C255 C258 1.463 . S
C255 C260 1.350 . S
C255 N263 1.427 . S
C256 H247 0.930 . S
C256 C254 1.378 . S
C256 C257 1.367 . S
C257 C256 1.367 . S
C257 C259 1.433 . S
C258 C254 1.350 . S
C258 C255 1.463 . S
C258 N262 1.427 . S
C259 H249 0.929 . S
C259 C257 1.433 . S
C259 N262 1.384 . S
C260 H251 0.929 . S
C260 C252 1.378 . S
C260 C255 1.350 . S
C261 H248 0.929 . S
C261 C253 1.433 . S
C261 N263 1.384 . S
N262 C258 1.427 . S
N262 C259 1.384 . S
N263 C255 1.427 . S
N263 C261 1.384 . S
H264 C270 0.930 . S
H265 C274 0.930 . S
H266 C279 0.929 . S
H267 C277 0.929 . S
H268 C272 0.929 . S
H269 C278 0.929 . S
C270 H264 0.930 . S
C270 C271 1.367 . S
C270 C278 1.378 . S
C271 C270 1.367 . S
C271 C279 1.433 . S
C272 H268 0.929 . S
C272 C274 1.378 . S
C272 C276 1.350 . S
C273 C276 1.463 1_656 S
C273 C278 1.350 . S
C273 N281 1.427 1_655 S
C274 H265 0.930 . S
C274 C272 1.378 . S
C274 C275 1.367 . S
C275 C274 1.367 . S
C275 C277 1.433 . S
C276 C272 1.350 . S
C276 C273 1.463 1_454 S
C276 N280 1.427 1_455 S
C277 H267 0.929 . S
C277 C275 1.433 . S
C277 N280 1.384 1_455 S
C278 H269 0.929 . S
C278 C270 1.378 . S
C278 C273 1.350 . S
C279 H266 0.929 . S
C279 C271 1.433 . S
C279 N281 1.384 1_655 S
N280 C276 1.427 1_655 S
N280 C277 1.384 1_655 S
N281 C273 1.427 1_455 S
N281 C279 1.384 1_455 S
H282 C288 0.930 . S
H283 C292 0.930 . S
H284 C297 0.929 . S
H285 C295 0.929 . S
H286 C290 0.929 . S
H287 C296 0.929 . S
C288 H282 0.930 . S
C288 C289 1.367 . S
C288 C296 1.378 . S
C289 C288 1.367 . S
C289 C297 1.433 . S
C290 H286 0.929 . S
C290 C292 1.378 . S
C290 C294 1.350 . S
C291 C294 1.463 1_565 S
C291 C296 1.350 . S
C291 N299 1.427 . S
C292 H283 0.930 . S
C292 C290 1.378 . S
C292 C293 1.367 . S
C293 C292 1.367 . S
C293 C295 1.433 . S
C294 C290 1.350 . S
C294 C291 1.463 1_545 S
C294 N298 1.427 . S
C295 H285 0.929 . S
C295 C293 1.433 . S
C295 N298 1.384 . S
C296 H287 0.929 . S
C296 C288 1.378 . S
C296 C291 1.350 . S
C297 H284 0.929 . S
C297 C289 1.433 . S
C297 N299 1.384 . S
N298 C294 1.427 . S
N298 C295 1.384 . S
N299 C291 1.427 . S
N299 C297 1.384 . S
H300 C306 0.930 . S
H301 C310 0.930 . S
H302 C315 0.929 . S
H303 C313 0.929 . S
H304 C308 0.929 . S
H305 C314 0.929 . S
C306 H300 0.930 . S
C306 C307 1.367 . S
C306 C314 1.378 . S
C307 C306 1.367 . S
C307 C315 1.433 . S
C308 H304 0.929 . S
C308 C310 1.378 . S
C308 C312 1.350 . S
C309 C312 1.463 1_556 S
C309 C314 1.350 . S
C309 N317 1.427 . S
C310 H301 0.930 . S
C310 C308 1.378 . S
C310 C311 1.367 . S
C311 C310 1.367 . S
C311 C313 1.433 . S
C312 C308 1.350 . S
C312 C309 1.463 1_554 S
C312 N316 1.427 . S
C313 H303 0.929 . S
C313 C311 1.433 . S
C313 N316 1.384 . S
C314 H305 0.929 . S
C314 C306 1.378 . S
C314 C309 1.350 . S
C315 H302 0.929 . S
C315 C307 1.433 . S
C315 N317 1.384 . S
N316 C312 1.427 . S
N316 C313 1.384 . S
N317 C309 1.427 . S
N317 C315 1.384 . S
H318 C324 0.930 . S
H319 C328 0.930 . S
H320 C333 0.929 1_455 S
H321 C331 0.929 1_655 S
H322 C326 0.929 . S
H323 C332 0.929 . S
C324 H318 0.930 . S
C324 C325 1.367 . S
C324 C332 1.378 . S
C325 C324 1.367 . S
C325 C333 1.433 . S
C326 H322 0.929 . S
C326 C328 1.378 . S
C326 C330 1.350 . S
C327 C330 1.463 1_655 S
C327 C332 1.350 . S
C327 N335 1.427 1_655 S
C328 H319 0.930 . S
C328 C326 1.378 . S
C328 C329 1.367 . S
C329 C328 1.367 . S
C329 C331 1.433 . S
C330 C326 1.350 . S
C330 C327 1.463 1_455 S
C330 N334 1.427 1_455 S
C331 H321 0.929 1_455 S
C331 C329 1.433 . S
C331 N334 1.384 1_455 S
C332 H323 0.929 . S
C332 C324 1.378 . S
C332 C327 1.350 . S
C333 H320 0.929 1_655 S
C333 C325 1.433 . S
C333 N335 1.384 1_655 S
N334 C330 1.427 1_655 S
N334 C331 1.384 1_655 S
N335 C327 1.427 1_455 S
N335 C333 1.384 1_455 S
H336 C342 0.930 . S
H337 C346 0.930 . S
H338 C351 0.929 . S
H339 C349 0.929 . S
H340 C344 0.929 . S
H341 C350 0.929 . S
C342 H336 0.930 . S
C342 C343 1.367 . S
C342 C350 1.378 . S
C343 C342 1.367 . S
C343 C351 1.433 . S
C344 H340 0.929 . S
C344 C346 1.378 . S
C344 C348 1.350 . S
C345 C348 1.463 1_546 S
C345 C350 1.350 . S
C345 N353 1.427 . S
C346 H337 0.930 . S
C346 C344 1.378 . S
C346 C347 1.367 . S
C347 C346 1.367 . S
C347 C349 1.433 . S
C348 C344 1.350 . S
C348 C345 1.463 1_564 S
C348 N352 1.427 . S
C349 H339 0.929 . S
C349 C347 1.433 . S
C349 N352 1.384 . S
C350 H341 0.929 . S
C350 C342 1.378 . S
C350 C345 1.350 . S
C351 H338 0.929 . S
C351 C343 1.433 . S
C351 N353 1.384 . S
N352 C348 1.427 . S
N352 C349 1.384 . S
N353 C345 1.427 . S
N353 C351 1.384 . S
H354 C360 0.930 . S
H355 C364 0.930 . S
H356 C369 0.929 . S
H357 C367 0.929 . S
H358 C362 0.929 . S
H359 C368 0.929 . S
C360 H354 0.930 . S
C360 C361 1.367 . S
C360 C368 1.378 . S
C361 C360 1.367 . S
C361 C369 1.433 . S
C362 H358 0.929 . S
C362 C364 1.378 . S
C362 C366 1.350 . S
C363 C366 1.463 . S
C363 C368 1.350 . S
C363 N371 1.427 . S
C364 H355 0.930 . S
C364 C362 1.378 . S
C364 C365 1.367 . S
C365 C364 1.367 . S
C365 C367 1.433 . S
C366 C362 1.350 . S
C366 C363 1.463 . S
C366 N370 1.427 . S
C367 H357 0.929 . S
C367 C365 1.433 . S
C367 N370 1.384 . S
C368 H359 0.929 . S
C368 C360 1.378 . S
C368 C363 1.350 . S
C369 H356 0.929 . S
C369 C361 1.433 . S
C369 N371 1.384 . S
N370 C366 1.427 . S
N370 C367 1.384 . S
N371 C363 1.427 . S
N371 C369 1.384 . S
H372 C378 0.930 . S
H373 C382 0.930 . S
H374 C387 0.929 . S
H375 C385 0.929 . S
H376 C380 0.929 . S
H377 C386 0.929 . S
C378 H372 0.930 . S
C378 C379 1.367 . S
C378 C386 1.378 . S
C379 C378 1.367 . S
C379 C387 1.433 . S
C380 H376 0.929 . S
C380 C382 1.378 . S
C380 C384 1.350 . S
C381 C384 1.463 . S
C381 C386 1.350 . S
C381 N389 1.427 . S
C382 H373 0.930 . S
C382 C380 1.378 . S
C382 C383 1.367 . S
C383 C382 1.367 . S
C383 C385 1.433 . S
C384 C380 1.350 . S
C384 C381 1.463 . S
C384 N388 1.427 . S
C385 H375 0.929 . S
C385 C383 1.433 . S
C385 N388 1.384 . S
C386 H377 0.929 . S
C386 C378 1.378 . S
C386 C381 1.350 . S
C387 H374 0.929 . S
C387 C379 1.433 . S
C387 N389 1.384 . S
N388 C384 1.427 . S
N388 C385 1.384 . S
N389 C381 1.427 . S
N389 C387 1.384 . S
H390 C396 0.930 . S
H391 C400 0.930 . S
H392 C405 0.929 . S
H393 C403 0.929 . S
H394 C398 0.929 . S
H395 C404 0.929 . S
C396 H390 0.930 . S
C396 C397 1.367 . S
C396 C404 1.378 . S
C397 C396 1.367 . S
C397 C405 1.433 . S
C398 H394 0.929 . S
C398 C400 1.378 . S
C398 C402 1.350 . S
C399 C402 1.463 . S
C399 C404 1.350 . S
C399 N407 1.427 . S
C400 H391 0.930 . S
C400 C398 1.378 . S
C400 C401 1.367 . S
C401 C400 1.367 . S
C401 C403 1.433 . S
C402 C398 1.350 . S
C402 C399 1.463 . S
C402 N406 1.427 . S
C403 H393 0.929 . S
C403 C401 1.433 . S
C403 N406 1.384 . S
C404 H395 0.929 . S
C404 C396 1.378 . S
C404 C399 1.350 . S
C405 H392 0.929 . S
C405 C397 1.433 . S
C405 N407 1.384 . S
N406 C402 1.427 . S
N406 C403 1.384 . S
N407 C399 1.427 . S
N407 C405 1.384 . S
H408 C414 0.930 . S
H409 C418 0.930 . S
H410 C423 0.929 . S
H411 C421 0.929 . S
H412 C416 0.929 . S
H413 C422 0.929 . S
C414 H408 0.930 . S
C414 C415 1.367 . S
C414 C422 1.378 . S
C415 C414 1.367 . S
C415 C423 1.433 . S
C416 H412 0.929 . S
C416 C418 1.378 . S
C416 C420 1.350 . S
C417 C420 1.463 . S
C417 C422 1.350 . S
C417 N425 1.427 . S
C418 H409 0.930 . S
C418 C416 1.378 . S
C418 C419 1.367 . S
C419 C418 1.367 . S
C419 C421 1.433 . S
C420 C416 1.350 . S
C420 C417 1.463 . S
C420 N424 1.427 . S
C421 H411 0.929 . S
C421 C419 1.433 . S
C421 N424 1.384 . S
C422 H413 0.929 . S
C422 C414 1.378 . S
C422 C417 1.350 . S
C423 H410 0.929 . S
C423 C415 1.433 . S
C423 N425 1.384 . S
N424 C420 1.427 . S
N424 C421 1.384 . S
N425 C417 1.427 . S
N425 C423 1.384 . S
H426 C432 0.930 . S
H427 C436 0.930 . S
H428 C441 0.929 . S
H429 C439 0.929 . S
H430 C434 0.929 . S
H431 C440 0.929 . S
C432 H426 0.930 . S
C432 C433 1.367 . S
C432 C440 1.378 . S
C433 C432 1.367 . S
C433 C441 1.433 . S
C434 H430 0.929 . S
C434 C436 1.378 . S
C434 C438 1.350 . S
C435 C438 1.463 . S
C435 C440 1.350 . S
C435 N443 1.427 . S
C436 H427 0.930 . S
C436 C434 1.378 . S
C436 C437 1.367 . S
C437 C436 1.367 . S
C437 C439 1.433 . S
C438 C434 1.350 . S
C438 C435 1.463 . S
C438 N442 1.427 . S
C439 H429 0.929 . S
C439 C437 1.433 . S
C439 N442 1.384 . S
C440 H431 0.929 . S
C440 C432 1.378 . S
C440 C435 1.350 . S
C441 H428 0.929 . S
C441 C433 1.433 . S
C441 N443 1.384 . S
N442 C438 1.427 . S
N442 C439 1.384 . S
N443 C435 1.427 . S
N443 C441 1.384 . S
H444 C450 0.930 . S
H445 C454 0.930 . S
H446 C459 0.929 . S
H447 C457 0.929 . S
H448 C452 0.929 . S
H449 C458 0.929 . S
C450 H444 0.930 . S
C450 C451 1.367 . S
C450 C458 1.378 . S
C451 C450 1.367 . S
C451 C459 1.433 . S
C452 H448 0.929 . S
C452 C454 1.378 . S
C452 C456 1.350 . S
C453 C456 1.463 . S
C453 C458 1.350 . S
C453 N461 1.427 . S
C454 H445 0.930 . S
C454 C452 1.378 . S
C454 C455 1.367 . S
C455 C454 1.367 . S
C455 C457 1.433 . S
C456 C452 1.350 . S
C456 C453 1.463 . S
C456 N460 1.427 . S
C457 H447 0.929 . S
C457 C455 1.433 . S
C457 N460 1.384 . S
C458 H449 0.929 . S
C458 C450 1.378 . S
C458 C453 1.350 . S
C459 H446 0.929 . S
C459 C451 1.433 . S
C459 N461 1.384 . S
N460 C456 1.427 . S
N460 C457 1.384 . S
N461 C453 1.427 . S
N461 C459 1.384 . S
H462 C468 0.930 . S
H463 C472 0.930 . S
H464 C477 0.929 . S
H465 C475 0.929 . S
H466 C470 0.929 . S
H467 C476 0.929 . S
C468 H462 0.930 . S
C468 C469 1.367 . S
C468 C476 1.378 . S
C469 C468 1.367 . S
C469 C477 1.433 . S
C470 H466 0.929 . S
C470 C472 1.378 . S
C470 C474 1.350 . S
C471 C474 1.463 . S
C471 C476 1.350 . S
C471 N479 1.427 . S
C472 H463 0.930 . S
C472 C470 1.378 . S
C472 C473 1.367 . S
C473 C472 1.367 . S
C473 C475 1.433 . S
C474 C470 1.350 . S
C474 C471 1.463 . S
C474 N478 1.427 . S
C475 H465 0.929 . S
C475 C473 1.433 . S
C475 N478 1.384 . S
C476 H467 0.929 . S
C476 C468 1.378 . S
C476 C471 1.350 . S
C477 H464 0.929 . S
C477 C469 1.433 . S
C477 N479 1.384 . S
N478 C474 1.427 . S
N478 C475 1.384 . S
N479 C471 1.427 . S
N479 C477 1.384 . S
H480 C486 0.930 . S
H481 C490 0.930 . S
H482 C495 0.929 . S
H483 C493 0.929 . S
H484 C488 0.929 . S
H485 C494 0.929 . S
C486 H480 0.930 . S
C486 C487 1.367 . S
C486 C494 1.378 . S
C487 C486 1.367 . S
C487 C495 1.433 . S
C488 H484 0.929 . S
C488 C490 1.378 . S
C488 C492 1.350 . S
C489 C492 1.463 . S
C489 C494 1.350 . S
C489 N497 1.427 . S
C490 H481 0.930 . S
C490 C488 1.378 . S
C490 C491 1.367 . S
C491 C490 1.367 . S
C491 C493 1.433 . S
C492 C488 1.350 . S
C492 C489 1.463 . S
C492 N496 1.427 . S
C493 H483 0.929 . S
C493 C491 1.433 . S
C493 N496 1.384 . S
C494 H485 0.929 . S
C494 C486 1.378 . S
C494 C489 1.350 . S
C495 H482 0.929 . S
C495 C487 1.433 . S
C495 N497 1.384 . S
N496 C492 1.427 . S
N496 C493 1.384 . S
N497 C489 1.427 . S
N497 C495 1.384 . S
H498 C504 0.930 . S
H499 C508 0.930 . S
H500 C513 0.929 . S
H501 C511 0.929 . S
H502 C506 0.929 . S
H503 C512 0.929 . S
C504 H498 0.930 . S
C504 C505 1.367 . S
C504 C512 1.378 . S
C505 C504 1.367 . S
C505 C513 1.433 . S
C506 H502 0.929 . S
C506 C508 1.378 . S
C506 C510 1.350 . S
C507 C510 1.463 . S
C507 C512 1.350 . S
C507 N515 1.427 . S
C508 H499 0.930 . S
C508 C506 1.378 . S
C508 C509 1.367 . S
C509 C508 1.367 . S
C509 C511 1.433 . S
C510 C506 1.350 . S
C510 C507 1.463 . S
C510 N514 1.427 . S
C511 H501 0.929 . S
C511 C509 1.433 . S
C511 N514 1.384 . S
C512 H503 0.929 . S
C512 C504 1.378 . S
C512 C507 1.350 . S
C513 H500 0.929 . S
C513 C505 1.433 . S
C513 N515 1.384 . S
N514 C510 1.427 . S
N514 C511 1.384 . S
N515 C507 1.427 . S
N515 C513 1.384 . S
H516 C522 0.930 . S
H517 C526 0.930 . S
H518 C531 0.929 . S
H519 C529 0.929 . S
H520 C524 0.929 . S
H521 C530 0.929 . S
C522 H516 0.930 . S
C522 C523 1.367 . S
C522 C530 1.378 . S
C523 C522 1.367 . S
C523 C531 1.433 . S
C524 H520 0.929 . S
C524 C526 1.378 . S
C524 C528 1.350 . S
C525 C528 1.463 . S
C525 C530 1.350 . S
C525 N533 1.427 . S
C526 H517 0.930 . S
C526 C524 1.378 . S
C526 C527 1.367 . S
C527 C526 1.367 . S
C527 C529 1.433 . S
C528 C524 1.350 . S
C528 C525 1.463 . S
C528 N532 1.427 . S
C529 H519 0.929 . S
C529 C527 1.433 . S
C529 N532 1.384 . S
C530 H521 0.929 . S
C530 C522 1.378 . S
C530 C525 1.350 . S
C531 H518 0.929 . S
C531 C523 1.433 . S
C531 N533 1.384 . S
N532 C528 1.427 . S
N532 C529 1.384 . S
N533 C525 1.427 . S
N533 C531 1.384 . S
H534 C540 0.930 . S
H535 C544 0.930 . S
H536 C549 0.929 . S
H537 C547 0.929 . S
H538 C542 0.929 . S
H539 C548 0.929 . S
C540 H534 0.930 . S
C540 C541 1.367 . S
C540 C548 1.378 . S
C541 C540 1.367 . S
C541 C549 1.433 . S
C542 H538 0.929 . S
C542 C544 1.378 . S
C542 C546 1.350 . S
C543 C546 1.463 . S
C543 C548 1.350 . S
C543 N551 1.427 . S
C544 H535 0.930 . S
C544 C542 1.378 . S
C544 C545 1.367 . S
C545 C544 1.367 . S
C545 C547 1.433 . S
C546 C542 1.350 . S
C546 C543 1.463 . S
C546 N550 1.427 . S
C547 H537 0.929 . S
C547 C545 1.433 . S
C547 N550 1.384 . S
C548 H539 0.929 . S
C548 C540 1.378 . S
C548 C543 1.350 . S
C549 H536 0.929 . S
C549 C541 1.433 . S
C549 N551 1.384 . S
N550 C546 1.427 . S
N550 C547 1.384 . S
N551 C543 1.427 . S
N551 C549 1.384 . S
H552 C558 0.930 . S
H553 C562 0.930 . S
H554 C567 0.929 . S
H555 C565 0.929 . S
H556 C560 0.929 . S
H557 C566 0.929 . S
C558 H552 0.930 . S
C558 C559 1.367 . S
C558 C566 1.378 . S
C559 C558 1.367 . S
C559 C567 1.433 . S
C560 H556 0.929 . S
C560 C562 1.378 . S
C560 C564 1.350 . S
C561 C564 1.463 . S
C561 C566 1.350 . S
C561 N569 1.427 . S
C562 H553 0.930 . S
C562 C560 1.378 . S
C562 C563 1.367 . S
C563 C562 1.367 . S
C563 C565 1.433 . S
C564 C560 1.350 . S
C564 C561 1.463 . S
C564 N568 1.427 . S
C565 H555 0.929 . S
C565 C563 1.433 . S
C565 N568 1.384 . S
C566 H557 0.929 . S
C566 C558 1.378 . S
C566 C561 1.350 . S
C567 H554 0.929 . S
C567 C559 1.433 . S
C567 N569 1.384 . S
N568 C564 1.427 . S
N568 C565 1.384 . S
N569 C561 1.427 . S
N569 C567 1.384 . S
H570 C576 0.930 . S
H571 C580 0.930 . S
H572 C585 0.929 . S
H573 C583 0.929 . S
H574 C578 0.929 . S
H575 C584 0.929 . S
C576 H570 0.930 . S
C576 C577 1.367 . S
C576 C584 1.378 . S
C577 C576 1.367 . S
C577 C585 1.433 . S
C578 H574 0.929 . S
C578 C580 1.378 . S
C578 C582 1.350 . S
C579 C582 1.463 . S
C579 C584 1.350 . S
C579 N587 1.427 . S
C580 H571 0.930 . S
C580 C578 1.378 . S
C580 C581 1.367 . S
C581 C580 1.367 . S
C581 C583 1.433 . S
C582 C578 1.350 . S
C582 C579 1.463 . S
C582 N586 1.427 . S
C583 H573 0.929 . S
C583 C581 1.433 . S
C583 N586 1.384 . S
C584 H575 0.929 . S
C584 C576 1.378 . S
C584 C579 1.350 . S
C585 H572 0.929 . S
C585 C577 1.433 . S
C585 N587 1.384 . S
N586 C582 1.427 . S
N586 C583 1.384 . S
N587 C579 1.427 . S
N587 C585 1.384 . S
C163 C10 1.334 . S
C167 C153 1.333 . S
C181 C88 1.333 . S
C185 C23 1.335 . S
C199 C36 1.334 . S
C203 C101 1.338 . S
C217 C114 1.337 . S
C221 C49 1.339 . S
C235 C127 1.333 . S
C239 C62 1.337 . S
C253 C140 1.336 . S
C257 C75 1.333 . S
C271 C47 1.350 . S
C275 C112 1.364 . S
C289 C60 1.365 . S
C293 C125 1.349 . S
C307 C73 1.357 . S
C311 C138 1.357 . S
C325 C151 1.359 . S
C329 C8 1.355 . S
C343 C21 1.348 . S
C347 C86 1.366 . S
C361 C34 1.359 . S
C365 C99 1.355 . S
C379 C109 1.480 . S
C383 C5 1.471 . S
C397 C122 1.473 . S
C401 C18 1.472 . S
C415 C31 1.470 . S
C419 C135 1.476 . S
C433 C44 1.479 . S
C437 C148 1.474 . S
C451 C57 1.469 . S
C455 C83 1.480 . S
C469 C96 1.469 . S
C473 C70 1.476 . S
C487 C0 1.320 . S
C491 C130 1.321 . S
C505 C143 1.321 . S
C509 C13 1.319 . S
C523 C26 1.318 . S
C527 C78 1.320 . S
C541 C39 1.318 . S
C545 C91 1.321 . S
C559 C52 1.312 . S
C563 C104 1.310 . S
C577 C65 1.316 . S
C581 C117 1.319 . S
