# Generated by pormake.
# Topology unu, (4)-cn, num edge types: 1
# Building blocks:
#     Node 0, Type 0, BuildingBlock: CEKHIL_clean_sbu_0, # of connection points: 4
#     Node 1, Type 0, BuildingBlock: CEKHIL_clean_sbu_0, # of connection points: 4
#     Node 2, Type 0, BuildingBlock: CEKHIL_clean_sbu_0, # of connection points: 4
#     Node 3, Type 0, BuildingBlock: CEKHIL_clean_sbu_0, # of connection points: 4
#     Node 4, Type 0, BuildingBlock: CEKHIL_clean_sbu_0, # of connection points: 4
#     Node 5, Type 0, BuildingBlock: CEKHIL_clean_sbu_0, # of connection points: 4
#     Node 6, Type 0, BuildingBlock: CEKHIL_clean_sbu_0, # of connection points: 4
#     Node 7, Type 0, BuildingBlock: CEKHIL_clean_sbu_0, # of connection points: 4
#     Node 8, Type 0, BuildingBlock: CEKHIL_clean_sbu_0, # of connection points: 4
#     Node 9, Type 0, BuildingBlock: CEKHIL_clean_sbu_0, # of connection points: 4
#     Node 10, Type 0, BuildingBlock: CEKHIL_clean_sbu_0, # of connection points: 4
#     Node 11, Type 0, BuildingBlock: CEKHIL_clean_sbu_0, # of connection points: 4
#     Node 12, Type 0, BuildingBlock: CEKHIL_clean_sbu_0, # of connection points: 4
#     Node 13, Type 0, BuildingBlock: CEKHIL_clean_sbu_0, # of connection points: 4
#     Node 14, Type 0, BuildingBlock: CEKHIL_clean_sbu_0, # of connection points: 4
#     Node 15, Type 0, BuildingBlock: CEKHIL_clean_sbu_0, # of connection points: 4
#     Node 16, Type 0, BuildingBlock: CEKHIL_clean_sbu_0, # of connection points: 4
#     Node 17, Type 0, BuildingBlock: CEKHIL_clean_sbu_0, # of connection points: 4
#     Node 18, Type 0, BuildingBlock: CEKHIL_clean_sbu_0, # of connection points: 4
#     Node 19, Type 0, BuildingBlock: CEKHIL_clean_sbu_0, # of connection points: 4
#     Node 20, Type 0, BuildingBlock: CEKHIL_clean_sbu_0, # of connection points: 4
#     Node 21, Type 0, BuildingBlock: CEKHIL_clean_sbu_0, # of connection points: 4
#     Node 22, Type 0, BuildingBlock: CEKHIL_clean_sbu_0, # of connection points: 4
#     Node 23, Type 0, BuildingBlock: CEKHIL_clean_sbu_0, # of connection points: 4
#     Node 24, Type 0, BuildingBlock: CEKHIL_clean_sbu_0, # of connection points: 4
#     Node 25, Type 0, BuildingBlock: CEKHIL_clean_sbu_0, # of connection points: 4
#     Node 26, Type 0, BuildingBlock: CEKHIL_clean_sbu_0, # of connection points: 4
#     Node 27, Type 0, BuildingBlock: CEKHIL_clean_sbu_0, # of connection points: 4
#     Node 28, Type 0, BuildingBlock: CEKHIL_clean_sbu_0, # of connection points: 4
#     Node 29, Type 0, BuildingBlock: CEKHIL_clean_sbu_0, # of connection points: 4
#     Node 30, Type 0, BuildingBlock: CEKHIL_clean_sbu_0, # of connection points: 4
#     Node 31, Type 0, BuildingBlock: CEKHIL_clean_sbu_0, # of connection points: 4
#     Node 32, Type 0, BuildingBlock: CEKHIL_clean_sbu_0, # of connection points: 4
#     Node 33, Type 0, BuildingBlock: CEKHIL_clean_sbu_0, # of connection points: 4
#     Node 34, Type 0, BuildingBlock: CEKHIL_clean_sbu_0, # of connection points: 4
#     Node 35, Type 0, BuildingBlock: CEKHIL_clean_sbu_0, # of connection points: 4
#     Edge 36, Type (0, 0), BuildingBlock: OJICUG_clean_linker_0, # of connection points: 2
#     Edge 37, Type (0, 0), BuildingBlock: OJICUG_clean_linker_0, # of connection points: 2
#     Edge 38, Type (0, 0), BuildingBlock: OJICUG_clean_linker_0, # of connection points: 2
#     Edge 39, Type (0, 0), BuildingBlock: OJICUG_clean_linker_0, # of connection points: 2
#     Edge 40, Type (0, 0), BuildingBlock: OJICUG_clean_linker_0, # of connection points: 2
#     Edge 41, Type (0, 0), BuildingBlock: OJICUG_clean_linker_0, # of connection points: 2
#     Edge 42, Type (0, 0), BuildingBlock: OJICUG_clean_linker_0, # of connection points: 2
#     Edge 43, Type (0, 0), BuildingBlock: OJICUG_clean_linker_0, # of connection points: 2
#     Edge 44, Type (0, 0), BuildingBlock: OJICUG_clean_linker_0, # of connection points: 2
#     Edge 45, Type (0, 0), BuildingBlock: OJICUG_clean_linker_0, # of connection points: 2
#     Edge 46, Type (0, 0), BuildingBlock: OJICUG_clean_linker_0, # of connection points: 2
#     Edge 47, Type (0, 0), BuildingBlock: OJICUG_clean_linker_0, # of connection points: 2
#     Edge 48, Type (0, 0), BuildingBlock: OJICUG_clean_linker_0, # of connection points: 2
#     Edge 49, Type (0, 0), BuildingBlock: OJICUG_clean_linker_0, # of connection points: 2
#     Edge 50, Type (0, 0), BuildingBlock: OJICUG_clean_linker_0, # of connection points: 2
#     Edge 51, Type (0, 0), BuildingBlock: OJICUG_clean_linker_0, # of connection points: 2
#     Edge 52, Type (0, 0), BuildingBlock: OJICUG_clean_linker_0, # of connection points: 2
#     Edge 53, Type (0, 0), BuildingBlock: OJICUG_clean_linker_0, # of connection points: 2
#     Edge 54, Type (0, 0), BuildingBlock: OJICUG_clean_linker_0, # of connection points: 2
#     Edge 55, Type (0, 0), BuildingBlock: OJICUG_clean_linker_0, # of connection points: 2
#     Edge 56, Type (0, 0), BuildingBlock: OJICUG_clean_linker_0, # of connection points: 2
#     Edge 57, Type (0, 0), BuildingBlock: OJICUG_clean_linker_0, # of connection points: 2
#     Edge 58, Type (0, 0), BuildingBlock: OJICUG_clean_linker_0, # of connection points: 2
#     Edge 59, Type (0, 0), BuildingBlock: OJICUG_clean_linker_0, # of connection points: 2
#     Edge 60, Type (0, 0), BuildingBlock: OJICUG_clean_linker_0, # of connection points: 2
#     Edge 61, Type (0, 0), BuildingBlock: OJICUG_clean_linker_0, # of connection points: 2
#     Edge 62, Type (0, 0), BuildingBlock: OJICUG_clean_linker_0, # of connection points: 2
#     Edge 63, Type (0, 0), BuildingBlock: OJICUG_clean_linker_0, # of connection points: 2
#     Edge 64, Type (0, 0), BuildingBlock: OJICUG_clean_linker_0, # of connection points: 2
#     Edge 65, Type (0, 0), BuildingBlock: OJICUG_clean_linker_0, # of connection points: 2
#     Edge 66, Type (0, 0), BuildingBlock: OJICUG_clean_linker_0, # of connection points: 2
#     Edge 67, Type (0, 0), BuildingBlock: OJICUG_clean_linker_0, # of connection points: 2
#     Edge 68, Type (0, 0), BuildingBlock: OJICUG_clean_linker_0, # of connection points: 2
#     Edge 69, Type (0, 0), BuildingBlock: OJICUG_clean_linker_0, # of connection points: 2
#     Edge 70, Type (0, 0), BuildingBlock: OJICUG_clean_linker_0, # of connection points: 2
#     Edge 71, Type (0, 0), BuildingBlock: OJICUG_clean_linker_0, # of connection points: 2
#     Edge 72, Type (0, 0), BuildingBlock: OJICUG_clean_linker_0, # of connection points: 2
#     Edge 73, Type (0, 0), BuildingBlock: OJICUG_clean_linker_0, # of connection points: 2
#     Edge 74, Type (0, 0), BuildingBlock: OJICUG_clean_linker_0, # of connection points: 2
#     Edge 75, Type (0, 0), BuildingBlock: OJICUG_clean_linker_0, # of connection points: 2
#     Edge 76, Type (0, 0), BuildingBlock: OJICUG_clean_linker_0, # of connection points: 2
#     Edge 77, Type (0, 0), BuildingBlock: OJICUG_clean_linker_0, # of connection points: 2
#     Edge 78, Type (0, 0), BuildingBlock: OJICUG_clean_linker_0, # of connection points: 2
#     Edge 79, Type (0, 0), BuildingBlock: OJICUG_clean_linker_0, # of connection points: 2
#     Edge 80, Type (0, 0), BuildingBlock: OJICUG_clean_linker_0, # of connection points: 2
#     Edge 81, Type (0, 0), BuildingBlock: OJICUG_clean_linker_0, # of connection points: 2
#     Edge 82, Type (0, 0), BuildingBlock: OJICUG_clean_linker_0, # of connection points: 2
#     Edge 83, Type (0, 0), BuildingBlock: OJICUG_clean_linker_0, # of connection points: 2
#     Edge 84, Type (0, 0), BuildingBlock: OJICUG_clean_linker_0, # of connection points: 2
#     Edge 85, Type (0, 0), BuildingBlock: OJICUG_clean_linker_0, # of connection points: 2
#     Edge 86, Type (0, 0), BuildingBlock: OJICUG_clean_linker_0, # of connection points: 2
#     Edge 87, Type (0, 0), BuildingBlock: OJICUG_clean_linker_0, # of connection points: 2
#     Edge 88, Type (0, 0), BuildingBlock: OJICUG_clean_linker_0, # of connection points: 2
#     Edge 89, Type (0, 0), BuildingBlock: OJICUG_clean_linker_0, # of connection points: 2
#     Edge 90, Type (0, 0), BuildingBlock: OJICUG_clean_linker_0, # of connection points: 2
#     Edge 91, Type (0, 0), BuildingBlock: OJICUG_clean_linker_0, # of connection points: 2
#     Edge 92, Type (0, 0), BuildingBlock: OJICUG_clean_linker_0, # of connection points: 2
#     Edge 93, Type (0, 0), BuildingBlock: OJICUG_clean_linker_0, # of connection points: 2
#     Edge 94, Type (0, 0), BuildingBlock: OJICUG_clean_linker_0, # of connection points: 2
#     Edge 95, Type (0, 0), BuildingBlock: OJICUG_clean_linker_0, # of connection points: 2
#     Edge 96, Type (0, 0), BuildingBlock: OJICUG_clean_linker_0, # of connection points: 2
#     Edge 97, Type (0, 0), BuildingBlock: OJICUG_clean_linker_0, # of connection points: 2
#     Edge 98, Type (0, 0), BuildingBlock: OJICUG_clean_linker_0, # of connection points: 2
#     Edge 99, Type (0, 0), BuildingBlock: OJICUG_clean_linker_0, # of connection points: 2
#     Edge 100, Type (0, 0), BuildingBlock: OJICUG_clean_linker_0, # of connection points: 2
#     Edge 101, Type (0, 0), BuildingBlock: OJICUG_clean_linker_0, # of connection points: 2
#     Edge 102, Type (0, 0), BuildingBlock: OJICUG_clean_linker_0, # of connection points: 2
#     Edge 103, Type (0, 0), BuildingBlock: OJICUG_clean_linker_0, # of connection points: 2
#     Edge 104, Type (0, 0), BuildingBlock: OJICUG_clean_linker_0, # of connection points: 2
#     Edge 105, Type (0, 0), BuildingBlock: OJICUG_clean_linker_0, # of connection points: 2
#     Edge 106, Type (0, 0), BuildingBlock: OJICUG_clean_linker_0, # of connection points: 2
#     Edge 107, Type (0, 0), BuildingBlock: OJICUG_clean_linker_0, # of connection points: 2
# Relax obj value: 0.187
# Max RMSD: 0.232
# Mean RMSD: 0.232
data_MOF--net-unu--node1-CEKHIL_clean_sbu_0--edge1-OJICUG_clean_linker_0
_symmetry_space_group_name_H-M    P1
_symmetry_Int_Tables_number       1
_symmetry_cell_setting            triclinic
loop_
_symmetry_equiv_pos_as_xyz
'x, y, z'
_cell_length_a     31.721456
_cell_length_b     31.75455
_cell_length_c     73.111612
_cell_angle_alpha  90.003962
_cell_angle_beta   89.994139
_cell_angle_gamma 119.97448
loop_
_atom_site_label
_atom_site_type_symbol
_atom_site_fract_x
_atom_site_fract_y
_atom_site_fract_z
_atom_type_partial_charge
Co0 Co 0.20109 0.00963 0.11925 0.0
O1 O 0.23927 0.97906 0.11607 0.0
O2 O 0.24674 0.0404 0.09919 0.0
C3 C 0.12765 0.94207 0.12111 0.0
O4 O 0.16595 0.04906 0.11988 0.0
Co5 Co 0.15068 0.99053 0.15741 0.0
O6 O 0.1225 0.02746 0.14616 0.0
C7 C 0.25174 0.06946 0.15346 0.0
C8 C 0.26129 0.0095 0.10293 0.0
C9 C 0.13627 0.05177 0.13132 0.0
O10 O 0.25053 0.05766 0.13662 0.0
O11 O 0.2164 0.04567 0.16455 0.0
O12 O 0.14732 0.95886 0.10527 0.0
O13 O 0.15634 0.96176 0.13495 0.0
Co14 Co 0.9872 0.18559 0.12024 0.0
O15 O 0.02168 0.25491 0.11796 0.0
O16 O 0.96057 0.20508 0.10009 0.0
C17 C 0.05184 0.1745 0.12252 0.0
O18 O 0.94434 0.11148 0.11956 0.0
Co19 Co 0.00021 0.14783 0.15814 0.0
O20 O 0.95947 0.08448 0.14605 0.0
C21 C 0.92598 0.17663 0.15416 0.0
C22 C 0.99326 0.2495 0.10439 0.0
C23 C 0.93769 0.07711 0.13072 0.0
O24 O 0.93894 0.18815 0.13741 0.0
O25 O 0.94785 0.16257 0.16517 0.0
O26 O 0.03751 0.18046 0.10661 0.0
O27 O 0.03207 0.18369 0.13628 0.0
Co28 Co 0.81421 0.79696 0.11855 0.0
O29 O 0.74532 0.76114 0.11548 0.0
O30 O 0.79737 0.75003 0.09883 0.0
C31 C 0.82285 0.87165 0.11984 0.0
O32 O 0.88843 0.82907 0.11905 0.0
Co33 Co 0.84775 0.84945 0.15632 0.0
O34 O 0.91255 0.872 0.14543 0.0
C35 C 0.82096 0.74682 0.15334 0.0
C36 C 0.75239 0.73759 0.10256 0.0
C37 C 0.92163 0.85709 0.13054 0.0
O38 O 0.81067 0.74746 0.13641 0.0
O39 O 0.8339 0.78308 0.16408 0.0
O40 O 0.81964 0.85126 0.10413 0.0
O41 O 0.81321 0.84347 0.13386 0.0
Co42 Co 0.01844 0.20202 0.3787 0.0
O43 O 0.98654 0.23889 0.38211 0.0
O44 O 0.04907 0.24811 0.39868 0.0
C45 C 0.95138 0.12798 0.37718 0.0
O46 O 0.0592 0.16837 0.37781 0.0
Co47 Co 0.99815 0.15054 0.34066 0.0
O48 O 0.03841 0.12544 0.3514 0.0
C49 C 0.07544 0.25261 0.34396 0.0
C50 C 0.01711 0.26145 0.39515 0.0
C51 C 0.06289 0.13963 0.3662 0.0
O52 O 0.06511 0.25168 0.36098 0.0
O53 O 0.05117 0.21684 0.33311 0.0
O54 O 0.96882 0.14775 0.39294 0.0
O55 O 0.97034 0.15655 0.36328 0.0
Co56 Co 0.7997 0.81401 0.37637 0.0
O57 O 0.76421 0.74479 0.37854 0.0
O58 O 0.7531 0.79486 0.39635 0.0
C59 C 0.87488 0.82367 0.37441 0.0
O60 O 0.83172 0.88819 0.37704 0.0
Co61 Co 0.85137 0.85132 0.33864 0.0
O62 O 0.87485 0.91478 0.35074 0.0
C63 C 0.74849 0.82349 0.34226 0.0
C64 C 0.74102 0.75037 0.392 0.0
C65 C 0.86015 0.92243 0.36596 0.0
O66 O 0.7496 0.81197 0.35902 0.0
O67 O 0.78462 0.83743 0.33135 0.0
O68 O 0.85439 0.81835 0.39025 0.0
O69 O 0.84642 0.8151 0.36052 0.0
Co70 Co 0.18955 0.98498 0.37664 0.0
O71 O 0.25862 0.01697 0.37927 0.0
O72 O 0.20666 0.95593 0.3967 0.0
C73 C 0.18196 0.05163 0.37471 0.0
O74 O 0.115 0.94442 0.37659 0.0
Co75 Co 0.156 0.00207 0.33856 0.0
O76 O 0.09151 0.96376 0.35015 0.0
C77 C 0.17958 0.92414 0.34261 0.0
C78 C 0.25169 0.98746 0.39259 0.0
C79 C 0.08196 0.94035 0.36518 0.0
O80 O 0.19096 0.93665 0.35936 0.0
O81 O 0.16716 0.94727 0.33153 0.0
O82 O 0.18613 0.03569 0.39055 0.0
O83 O 0.19075 0.03182 0.36085 0.0
Co84 Co 0.79844 0.98825 0.87658 0.0
O85 O 0.76094 0.02007 0.87783 0.0
O86 O 0.75093 0.96016 0.89617 0.0
C87 C 0.87272 0.05468 0.87465 0.0
O88 O 0.83232 0.94791 0.87826 0.0
Co89 Co 0.85214 0.00185 0.83937 0.0
O90 O 0.87692 0.96407 0.85234 0.0
C91 C 0.74977 0.92567 0.84267 0.0
C92 C 0.73733 0.99102 0.89117 0.0
C93 C 0.862 0.94262 0.8677 0.0
O94 O 0.75004 0.93875 0.85928 0.0
O95 O 0.78616 0.94792 0.83188 0.0
O96 O 0.8517 0.04018 0.89044 0.0
O97 O 0.84499 0.03364 0.86069 0.0
Co98 Co 0.01736 0.81637 0.87806 0.0
O99 O 0.98212 0.74719 0.88033 0.0
O100 O 0.04613 0.79606 0.8972 0.0
C101 C 0.95306 0.82805 0.87764 0.0
O102 O 0.06138 0.89034 0.8785 0.0
Co103 Co -0.00023 0.85459 0.8411 0.0
O104 O 0.04343 0.91788 0.85277 0.0
C105 C 0.07235 0.82314 0.8426 0.0
C106 C 0.01226 0.75191 0.89313 0.0
C107 C 0.0672 0.9249 0.8676 0.0
O108 O 0.06205 0.8124 0.85956 0.0
O109 O 0.04962 0.83791 0.83236 0.0
O110 O 0.96998 0.82284 0.8931 0.0
O111 O 0.97059 0.81861 0.86325 0.0
Co112 Co 0.18661 0.20396 0.8786 0.0
O113 O 0.2554 0.24171 0.88168 0.0
O114 O 0.20201 0.25103 0.89819 0.0
C115 C 0.18076 0.13032 0.87766 0.0
O116 O 0.11219 0.16964 0.87804 0.0
Co117 Co 0.15472 0.15031 0.841 0.0
O118 O 0.0896 0.12524 0.85198 0.0
C119 C 0.17826 0.25213 0.8435 0.0
C120 C 0.24734 0.26475 0.89453 0.0
C121 C 0.07957 0.14016 0.86665 0.0
O122 O 0.1884 0.25224 0.8605 0.0
O123 O 0.1667 0.21584 0.83292 0.0
O124 O 0.18313 0.15084 0.89326 0.0
O125 O 0.1895 0.15799 0.86353 0.0
Co126 Co 0.98116 0.79495 0.61994 0.0
O127 O 0.0143 0.75889 0.61767 0.0
O128 O 0.95248 0.74773 0.60021 0.0
C129 C 0.04709 0.86982 0.62139 0.0
O130 O 0.93944 0.82759 0.61953 0.0
Co131 Co 0.99788 0.84771 0.65756 0.0
O132 O 0.9577 0.87138 0.64571 0.0
C133 C 0.92195 0.74517 0.65444 0.0
C134 C 0.98479 0.73536 0.60445 0.0
C135 C 0.9345 0.85649 0.63066 0.0
O136 O 0.93367 0.7457 0.6376 0.0
O137 O 0.94497 0.78144 0.6652 0.0
O138 O 0.03113 0.84887 0.60569 0.0
O139 O 0.02774 0.84187 0.63544 0.0
Co140 Co 0.1997 0.1837 0.61647 0.0
O141 O 0.2365 0.25239 0.61293 0.0
O142 O 0.24437 0.19889 0.59598 0.0
C143 C 0.12566 0.1768 0.61878 0.0
O144 O 0.16574 0.10929 0.61744 0.0
Co145 Co 0.1504 0.15317 0.65496 0.0
O146 O 0.12388 0.08782 0.64412 0.0
C147 C 0.25236 0.17765 0.65067 0.0
C148 C 0.25794 0.2442 0.59952 0.0
C149 C 0.13721 0.07715 0.62919 0.0
O150 O 0.25058 0.18669 0.63366 0.0
O151 O 0.2172 0.1666 0.66181 0.0
O152 O 0.14455 0.17912 0.60283 0.0
O153 O 0.15515 0.18656 0.63239 0.0
Co154 Co 0.81179 0.0145 0.6187 0.0
O155 O 0.74284 0.98199 0.61584 0.0
O156 O 0.79497 0.04416 0.59883 0.0
C157 C 0.81992 0.94817 0.62036 0.0
O158 O 0.88612 0.0558 0.61887 0.0
Co159 Co 0.84602 0.99706 0.65655 0.0
O160 O 0.91063 0.0371 0.64518 0.0
C161 C 0.81808 0.07196 0.65332 0.0
C162 C 0.74996 0.01219 0.60275 0.0
C163 C 0.91956 0.06046 0.63015 0.0
O164 O 0.80895 0.06139 0.63632 0.0
O165 O 0.83062 0.0486 0.66422 0.0
O166 O 0.81632 0.96471 0.60456 0.0
O167 O 0.81083 0.96749 0.63429 0.0
Co168 Co 0.87195 0.34782 0.45368 0.0
O169 O 0.90899 0.31571 0.45125 0.0
O170 O 0.9189 0.3772 0.4339 0.0
C171 C 0.79758 0.28117 0.45521 0.0
O172 O 0.8383 0.38862 0.45342 0.0
Co173 Co 0.8192 0.33034 0.49134 0.0
O174 O 0.79443 0.36972 0.4796 0.0
C175 C 0.92131 0.40751 0.48809 0.0
C176 C 0.9321 0.34547 0.43805 0.0
C177 C 0.80912 0.39308 0.46458 0.0
O178 O 0.92096 0.39561 0.4713 0.0
O179 O 0.88513 0.38424 0.49889 0.0
O180 O 0.81826 0.29744 0.43948 0.0
O181 O 0.82558 0.30079 0.46922 0.0
Co182 Co 0.65384 0.51847 0.45119 0.0
O183 O 0.68636 0.58739 0.44819 0.0
O184 O 0.62527 0.53506 0.43082 0.0
C185 C 0.72027 0.51045 0.45358 0.0
O186 O 0.61279 0.44417 0.45145 0.0
Co187 Co 0.66998 0.4851 0.48948 0.0
O188 O 0.63106 0.42049 0.47807 0.0
C189 C 0.59366 0.511 0.48519 0.0
C190 C 0.65708 0.5801 0.43472 0.0
C191 C 0.60809 0.41111 0.46293 0.0
O192 O 0.60557 0.52097 0.4683 0.0
O193 O 0.61673 0.49876 0.49637 0.0
O194 O 0.70458 0.51408 0.43761 0.0
O195 O 0.70027 0.51975 0.46724 0.0
Co196 Co 0.48329 0.13015 0.4514 0.0
O197 O 0.41438 0.09409 0.44827 0.0
O198 O 0.46662 0.08379 0.43144 0.0
C199 C 0.49166 0.20473 0.453 0.0
O200 O 0.55771 0.16295 0.45201 0.0
Co201 Co 0.51577 0.18147 0.48945 0.0
O202 O 0.58073 0.20577 0.47845 0.0
C203 C 0.48945 0.07905 0.48604 0.0
C204 C 0.42156 0.0711 0.43516 0.0
C205 C 0.5905 0.19144 0.46357 0.0
O206 O 0.47995 0.08022 0.46905 0.0
O207 O 0.50161 0.11487 0.49693 0.0
O208 O 0.48841 0.18468 0.43722 0.0
O209 O 0.48192 0.17614 0.4669 0.0
Co210 Co 0.67946 0.53354 0.71239 0.0
O211 O 0.64794 0.57078 0.71554 0.0
O212 O 0.71013 0.57972 0.7323 0.0
C213 C 0.61212 0.4597 0.71082 0.0
O214 O 0.71987 0.49956 0.71178 0.0
Co215 Co 0.65987 0.48219 0.67439 0.0
O216 O 0.69917 0.45637 0.68544 0.0
C217 C 0.73733 0.58408 0.67777 0.0
C218 C 0.67856 0.59343 0.72857 0.0
C219 C 0.72344 0.47055 0.70029 0.0
O220 O 0.72659 0.58298 0.69474 0.0
O221 O 0.71332 0.54837 0.66685 0.0
O222 O 0.6294 0.47955 0.72659 0.0
O223 O 0.63147 0.48813 0.6969 0.0
Co224 Co 0.46059 0.14563 0.71018 0.0
O225 O 0.42553 0.0764 0.71218 0.0
O226 O 0.4112 0.1256 0.7292 0.0
C227 C 0.53609 0.15602 0.70989 0.0
O228 O 0.49172 0.21974 0.71085 0.0
Co229 Co 0.51684 0.18375 0.67334 0.0
O230 O 0.53771 0.24703 0.68522 0.0
C231 C 0.4135 0.15508 0.67488 0.0
C232 C 0.40015 0.08132 0.72495 0.0
C233 C 0.52105 0.25425 0.70004 0.0
O234 O 0.41264 0.14312 0.69171 0.0
O235 O 0.45102 0.16977 0.66466 0.0
O236 O 0.51369 0.15067 0.7253 0.0
O237 O 0.50946 0.1473 0.69543 0.0
Co238 Co 0.85114 0.31683 0.7105 0.0
O239 O 0.9205 0.34917 0.71205 0.0
O240 O 0.8705 0.28871 0.73014 0.0
C241 C 0.84294 0.3831 0.70868 0.0
O242 O 0.77683 0.27594 0.71179 0.0
Co243 Co 0.81214 0.33147 0.67316 0.0
O244 O 0.74917 0.29248 0.68575 0.0
C245 C 0.83841 0.25528 0.67639 0.0
C246 C 0.91503 0.32007 0.72536 0.0
C247 C 0.74216 0.27054 0.70102 0.0
O248 O 0.85094 0.26797 0.69306 0.0
O249 O 0.82448 0.27778 0.66565 0.0
O250 O 0.84892 0.36817 0.72447 0.0
O251 O 0.85019 0.36252 0.69472 0.0
Co252 Co 0.46179 0.31737 0.20886 0.0
O253 O 0.42495 0.34953 0.21179 0.0
O254 O 0.41578 0.288 0.22894 0.0
C255 C 0.53615 0.38385 0.20696 0.0
O256 O 0.49545 0.27653 0.20853 0.0
Co257 Co 0.51226 0.3348 0.17073 0.0
O258 O 0.5379 0.29566 0.18201 0.0
C259 C 0.41043 0.25758 0.17472 0.0
C260 C 0.40239 0.31971 0.22504 0.0
C261 C 0.5241 0.2722 0.19704 0.0
O262 O 0.41181 0.26959 0.19155 0.0
O263 O 0.44593 0.2808 0.16364 0.0
O264 O 0.51615 0.36767 0.2228 0.0
O265 O 0.50743 0.36437 0.19311 0.0
Co266 Co 0.67925 0.14591 0.20979 0.0
O267 O 0.64633 0.07692 0.21287 0.0
O268 O 0.70714 0.12921 0.23034 0.0
C269 C 0.6131 0.15441 0.20724 0.0
O270 O 0.7206 0.22017 0.20957 0.0
Co271 Co 0.664 0.17979 0.17145 0.0
O272 O 0.70332 0.24434 0.18286 0.0
C273 C 0.74024 0.15378 0.17598 0.0
C274 C 0.67505 0.08421 0.22653 0.0
C275 C 0.72589 0.25343 0.19808 0.0
O276 O 0.72776 0.14324 0.19281 0.0
O277 O 0.71753 0.16638 0.16477 0.0
O278 O 0.62851 0.15056 0.22323 0.0
O279 O 0.63312 0.145 0.19361 0.0
Co280 Co 0.85005 0.53362 0.21091 0.0
O281 O 0.91881 0.56999 0.21444 0.0
O282 O 0.86552 0.57886 0.23118 0.0
C283 C 0.84239 0.4594 0.20892 0.0
O284 O 0.77564 0.50034 0.20995 0.0
Co285 Co 0.81892 0.48369 0.17258 0.0
O286 O 0.75353 0.45837 0.18332 0.0
C287 C 0.84432 0.58578 0.17655 0.0
C288 C 0.91081 0.59203 0.22769 0.0
C289 C 0.74322 0.47208 0.19824 0.0
O290 O 0.85354 0.58413 0.19354 0.0
O291 O 0.83269 0.55041 0.16548 0.0
O292 O 0.84494 0.47873 0.2248 0.0
O293 O 0.85239 0.48853 0.19518 0.0
Co294 Co 0.64596 0.13025 0.94904 0.0
O295 O 0.67754 0.09331 0.94541 0.0
O296 O 0.61463 0.08435 0.92908 0.0
C297 C 0.71313 0.20409 0.95044 0.0
O298 O 0.60548 0.16402 0.95017 0.0
Co299 Co 0.66728 0.18162 0.98713 0.0
O300 O 0.6268 0.20678 0.97662 0.0
C301 C 0.59042 0.07943 0.98398 0.0
C302 C 0.64656 0.07088 0.93247 0.0
C303 C 0.6021 0.19273 0.96187 0.0
O304 O 0.5998 0.08066 0.96686 0.0
O305 O 0.61513 0.11508 0.99483 0.0
O306 O 0.6953 0.18443 0.9347 0.0
O307 O 0.69443 0.17551 0.96435 0.0
Co308 Co 0.86787 0.51769 0.95092 0.0
O309 O 0.90467 0.58681 0.94841 0.0
O310 O 0.91387 0.53515 0.93081 0.0
C311 C 0.79332 0.50974 0.95296 0.0
O312 O 0.83448 0.44349 0.95052 0.0
Co313 Co 0.81579 0.48182 0.98871 0.0
O314 O 0.79128 0.4179 0.97683 0.0
C315 C 0.91842 0.50836 0.98528 0.0
C316 C 0.92698 0.58002 0.93493 0.0
C317 C 0.80564 0.40967 0.96164 0.0
O318 O 0.91762 0.51899 0.96837 0.0
O319 O 0.8824 0.49576 0.99614 0.0
O320 O 0.81339 0.51417 0.93709 0.0
O321 O 0.82192 0.51816 0.96678 0.0
Co322 Co 0.47857 0.34994 0.9523 0.0
O323 O 0.40953 0.31873 0.94991 0.0
O324 O 0.46165 0.37993 0.93255 0.0
C325 C 0.48509 0.28273 0.95385 0.0
O326 O 0.55313 0.38989 0.95205 0.0
Co327 Co 0.51312 0.33185 0.99 0.0
O328 O 0.57739 0.37015 0.97821 0.0
C329 C 0.48867 0.40925 0.98677 0.0
C330 C 0.4166 0.34875 0.93676 0.0
C331 C 0.5865 0.39365 0.96321 0.0
O332 O 0.47798 0.39793 0.9699 0.0
O333 O 0.50086 0.38553 0.99763 0.0
O334 O 0.48097 0.29912 0.9381 0.0
O335 O 0.47711 0.30268 0.96786 0.0
Co336 Co 0.53496 0.68308 0.78592 0.0
O337 O 0.57134 0.65033 0.78369 0.0
O338 O 0.58184 0.71168 0.7661 0.0
C339 C 0.46037 0.61698 0.78768 0.0
O340 O 0.50187 0.72438 0.78541 0.0
Co341 Co 0.4831 0.66744 0.82364 0.0
O342 O 0.45833 0.70652 0.81164 0.0
C343 C 0.58597 0.74205 0.82031 0.0
C344 C 0.5947 0.67982 0.77045 0.0
C345 C 0.47279 0.72925 0.79649 0.0
O346 O 0.58449 0.73079 0.80339 0.0
O347 O 0.55005 0.71916 0.83125 0.0
O348 O 0.48091 0.63267 0.77188 0.0
O349 O 0.48856 0.63686 0.80163 0.0
Co350 Co 0.31177 0.84835 0.78269 0.0
O351 O 0.34347 0.91721 0.77969 0.0
O352 O 0.28228 0.86445 0.76248 0.0
C353 C 0.3791 0.84167 0.78478 0.0
O354 O 0.27146 0.77401 0.78299 0.0
Co355 Co 0.32997 0.81534 0.82077 0.0
O356 O 0.2908 0.75062 0.80945 0.0
C357 C 0.25305 0.84076 0.8171 0.0
C358 C 0.31376 0.9096 0.76636 0.0
C359 C 0.26736 0.74109 0.79442 0.0
O360 O 0.2637 0.85027 0.80009 0.0
O361 O 0.27712 0.82915 0.82803 0.0
O362 O 0.36269 0.84464 0.76887 0.0
O363 O 0.35897 0.85045 0.79851 0.0
Co364 Co 0.14638 0.46077 0.78342 0.0
O365 O 0.07768 0.42344 0.78007 0.0
O366 O 0.13125 0.41469 0.76345 0.0
C367 C 0.15282 0.53458 0.7848 0.0
O368 O 0.22081 0.49515 0.7843 0.0
Co369 Co 0.17678 0.51232 0.82147 0.0
O370 O 0.2422 0.53833 0.81066 0.0
C371 C 0.15254 0.41044 0.8183 0.0
C372 C 0.0859 0.40111 0.767 0.0
C373 C 0.25293 0.52439 0.7959 0.0
O374 O 0.1439 0.41144 0.80121 0.0
O375 O 0.16322 0.44604 0.82915 0.0
O376 O 0.15043 0.5146 0.76908 0.0
O377 O 0.14335 0.50617 0.79875 0.0
Co378 Co 0.35054 0.8695 0.04367 0.0
O379 O 0.3183 0.90619 0.04657 0.0
O380 O 0.38079 0.91631 0.06341 0.0
C381 C 0.28384 0.79519 0.04236 0.0
O382 O 0.39169 0.83635 0.04345 0.0
Co383 Co 0.33133 0.8163 0.00602 0.0
O384 O 0.37215 0.79252 0.01727 0.0
C385 C 0.40771 0.91881 0.00883 0.0
C386 C 0.34868 0.92927 0.05962 0.0
C387 C 0.39612 0.80747 0.03216 0.0
O388 O 0.39723 0.9185 0.0258 0.0
O389 O 0.38382 0.88252 -0.00184 0.0
O390 O 0.30089 0.81566 0.05807 0.0
O391 O 0.30291 0.82322 0.02833 0.0
Co392 Co 0.13273 0.4814 0.04426 0.0
O393 O 0.09722 0.41237 0.04732 0.0
O394 O 0.08716 0.46408 0.06454 0.0
C395 C 0.20783 0.49073 0.04224 0.0
O396 O 0.16494 0.55561 0.04404 0.0
Co397 Co 0.18375 0.51575 0.0062 0.0
O398 O 0.20765 0.58015 0.01759 0.0
C399 C 0.08071 0.48768 0.00979 0.0
C400 C 0.07502 0.41924 0.06081 0.0
C401 C 0.19328 0.58899 0.03266 0.0
O402 O 0.08205 0.47806 0.02679 0.0
O403 O 0.1166 0.50022 -0.00112 0.0
O404 O 0.18794 0.48677 0.05811 0.0
O405 O 0.17885 0.48105 0.02846 0.0
Co406 Co 0.52205 0.65343 0.04399 0.0
O407 O 0.59094 0.68488 0.04689 0.0
O408 O 0.53804 0.62338 0.06398 0.0
C409 C 0.51516 0.72042 0.04213 0.0
O410 O 0.44757 0.61319 0.0437 0.0
Co411 Co 0.48909 0.67163 0.00596 0.0
O412 O 0.42427 0.63288 0.0173 0.0
C413 C 0.51414 0.59469 0.0096 0.0
C414 C 0.58326 0.65469 0.06005 0.0
C415 C 0.41461 0.60929 0.0323 0.0
O416 O 0.52383 0.6057 0.02654 0.0
O417 O 0.50239 0.61849 -0.0014 0.0
O418 O 0.51856 0.704 0.05798 0.0
O419 O 0.52406 0.70069 0.02828 0.0
Co420 Co 0.13157 0.65273 0.54503 0.0
O421 O 0.09384 0.68368 0.54855 0.0
O422 O 0.08616 0.62195 0.56521 0.0
C423 C 0.2052 0.72016 0.54317 0.0
O424 O 0.16641 0.61302 0.54399 0.0
Co425 Co 0.18146 0.67281 0.5067 0.0
O426 O 0.20944 0.6353 0.51759 0.0
C427 C 0.08016 0.59428 0.51064 0.0
C428 C 0.07194 0.65321 0.56168 0.0
C429 C 0.19587 0.61058 0.53235 0.0
O430 O 0.08166 0.6052 0.52761 0.0
O431 O 0.11536 0.61854 0.49954 0.0
O432 O 0.18581 0.70307 0.55902 0.0
O433 O 0.17621 0.70082 0.52939 0.0
Co434 Co 0.34791 0.47916 0.54161 0.0
O435 O 0.31352 0.40979 0.54339 0.0
O436 O 0.37477 0.45876 0.56138 0.0
C437 C 0.28312 0.49009 0.53979 0.0
O438 O 0.39071 0.55324 0.54271 0.0
Co439 Co 0.33461 0.51832 0.5041 0.0
O440 O 0.37534 0.58118 0.5165 0.0
C441 C 0.40879 0.48933 0.50746 0.0
C442 C 0.34212 0.41454 0.55681 0.0
C443 C 0.39724 0.58801 0.53178 0.0
O444 O 0.39597 0.47735 0.52418 0.0
O445 O 0.38691 0.50382 0.49664 0.0
O446 O 0.29767 0.48357 0.55557 0.0
O447 O 0.30288 0.48164 0.52583 0.0
Co448 Co 0.5188 0.86758 0.54452 0.0
O449 O 0.58773 0.90405 0.54743 0.0
O450 O 0.53543 0.91436 0.56427 0.0
C451 C 0.51104 0.79324 0.54311 0.0
O452 O 0.44453 0.83475 0.54426 0.0
Co453 Co 0.48476 0.81489 0.50682 0.0
O454 O 0.42007 0.79147 0.51797 0.0
C455 C 0.51128 0.91745 0.50978 0.0
C456 C 0.58048 0.92731 0.56043 0.0
C457 C 0.41116 0.80628 0.53291 0.0
O458 O 0.5215 0.91686 0.52672 0.0
O459 O 0.49854 0.88122 0.49904 0.0
O460 O 0.51426 0.8135 0.55885 0.0
O461 O 0.5201 0.82139 0.52911 0.0
Co462 Co 0.31591 0.46247 0.28475 0.0
O463 O 0.34827 0.42606 0.28128 0.0
O464 O 0.28509 0.41594 0.26491 0.0
C465 C 0.38263 0.53682 0.28598 0.0
O466 O 0.27455 0.49548 0.28573 0.0
Co467 Co 0.33665 0.51457 0.32267 0.0
O468 O 0.29549 0.53878 0.31206 0.0
C469 C 0.25966 0.4123 0.31966 0.0
C470 C 0.31744 0.40306 0.26835 0.0
C471 C 0.27067 0.5241 0.29735 0.0
O472 O 0.26996 0.41293 0.30265 0.0
O473 O 0.28377 0.44836 0.33041 0.0
O474 O 0.36484 0.51668 0.2703 0.0
O475 O 0.36421 0.50849 0.29998 0.0
Co476 Co 0.53108 0.85071 0.28615 0.0
O477 O 0.56539 0.91995 0.28377 0.0
O478 O 0.57709 0.87033 0.26595 0.0
C479 C 0.45529 0.83946 0.28851 0.0
O480 O 0.50031 0.77663 0.28562 0.0
Co481 Co 0.48058 0.81314 0.32411 0.0
O482 O 0.45843 0.7497 0.31217 0.0
C483 C 0.58395 0.84301 0.32007 0.0
C484 C 0.58849 0.91469 0.2702 0.0
C485 C 0.47289 0.74229 0.29685 0.0
O486 O 0.58228 0.85404 0.30328 0.0
O487 O 0.54802 0.82882 0.33109 0.0
O488 O 0.47531 0.84495 0.27257 0.0
O489 O 0.4844 0.84882 0.30223 0.0
Co490 Co 0.14077 0.67541 0.28737 0.0
O491 O 0.07168 0.64335 0.28466 0.0
O492 O 0.12381 0.70464 0.26736 0.0
C493 C 0.14864 0.60893 0.28924 0.0
O494 O 0.2153 0.7161 0.28741 0.0
Co495 Co 0.17473 0.6585 0.32537 0.0
O496 O 0.23919 0.69674 0.31374 0.0
C497 C 0.15034 0.73586 0.32149 0.0
C498 C 0.07875 0.67303 0.27138 0.0
C499 C 0.24853 0.72016 0.29871 0.0
O500 O 0.13916 0.72353 0.30471 0.0
O501 O 0.16292 0.7128 0.33253 0.0
O502 O 0.14435 0.62487 0.27342 0.0
O503 O 0.13973 0.62856 0.30313 0.0
C504 C 0.29293 0.13672 0.17636 0.0
C505 C 0.29357 0.11635 0.15939 0.0
H506 H 0.32835 0.19771 0.19429 0.0
C507 C 0.33202 0.14386 0.14717 0.0
H508 H 0.26357 0.11694 0.186 0.0
C509 C 0.36886 0.19055 0.1518 0.0
C510 C 0.36831 0.21089 0.16879 0.0
H511 H 0.33355 0.12958 0.13389 0.0
H512 H 0.3982 0.21028 0.14216 0.0
C513 C 0.32981 0.18343 0.181 0.0
C514 C 0.80683 0.17724 0.15288 0.0
C515 C 0.78657 0.15727 0.17001 0.0
H516 H 0.86705 0.20032 0.13465 0.0
C517 C 0.81359 0.14558 0.18217 0.0
H518 H 0.78746 0.18734 0.14325 0.0
C519 C 0.85964 0.15363 0.17733 0.0
C520 C 0.87987 0.17354 0.16019 0.0
H521 H 0.79941 0.13055 0.19556 0.0
H522 H 0.87899 0.14351 0.18696 0.0
C523 C 0.8529 0.18533 0.14804 0.0
C524 C 0.8529 0.66758 0.1821 0.0
C525 C 0.84089 0.62824 0.17023 0.0
H526 H 0.85503 0.73526 0.18631 0.0
C527 C 0.82036 0.6274 0.15313 0.0
H528 H 0.86839 0.66925 0.19546 0.0
C529 C 0.81197 0.6649 0.14801 0.0
C530 C 0.82411 0.70434 0.15983 0.0
H531 H 0.80994 0.59737 0.14375 0.0
H532 H 0.79645 0.66314 0.13464 0.0
C533 C 0.84459 0.70517 0.17696 0.0
C534 C 0.14969 0.33389 0.34913 0.0
C535 C 0.12125 0.29473 0.33734 0.0
H536 H 0.21601 0.401 0.35304 0.0
C537 C 0.13973 0.29377 0.31998 0.0
H538 H 0.13686 0.33569 0.36268 0.0
C539 C 0.18552 0.33095 0.31456 0.0
C540 C 0.21396 0.37015 0.32634 0.0
H541 H 0.1192 0.2639 0.31064 0.0
H542 H 0.19832 0.32914 0.30101 0.0
C543 C 0.19549 0.37111 0.3437 0.0
C544 C 0.70544 0.84706 0.31915 0.0
C545 C 0.7054 0.82625 0.33612 0.0
H546 H 0.668 0.86992 0.30096 0.0
C547 C 0.66585 0.81282 0.34805 0.0
H548 H 0.73555 0.85848 0.30972 0.0
C549 C 0.62739 0.82004 0.34315 0.0
C550 C 0.62735 0.84075 0.32616 0.0
H551 H 0.66466 0.79705 0.36131 0.0
H552 H 0.59731 0.80858 0.35259 0.0
C553 C 0.66691 0.85424 0.31423 0.0
C554 C 0.1533 0.85654 0.31984 0.0
C555 C 0.17461 0.8772 0.33675 0.0
H556 H 0.12754 0.79536 0.302 0.0
C557 C 0.18596 0.84995 0.34894 0.0
H558 H 0.14339 0.87608 0.31022 0.0
C559 C 0.17622 0.80325 0.34434 0.0
C560 C 0.155 0.78263 0.32741 0.0
H561 H 0.20197 0.86444 0.36218 0.0
H562 H 0.18613 0.78371 0.35395 0.0
C563 C 0.14356 0.80984 0.31524 0.0
C564 C 0.62871 0.80825 0.84345 0.0
C565 C 0.62926 0.78728 0.82661 0.0
H566 H 0.66547 0.86879 0.86149 0.0
C567 C 0.66947 0.81277 0.8149 0.0
H568 H 0.59814 0.78999 0.85271 0.0
C569 C 0.70793 0.85835 0.81983 0.0
C570 C 0.70716 0.87954 0.83659 0.0
H571 H 0.67108 0.79782 0.80177 0.0
H572 H 0.73846 0.87667 0.81055 0.0
C573 C 0.66714 0.85385 0.84837 0.0
C574 C 0.14371 0.81075 0.84672 0.0
C575 C 0.11661 0.82435 0.83541 0.0
H576 H 0.2082 0.80624 0.85004 0.0
C577 C 0.13531 0.84428 0.81811 0.0
H578 H 0.13066 0.79549 0.86017 0.0
C579 C 0.18024 0.8509 0.81236 0.0
C580 C 0.20757 0.83783 0.82378 0.0
H581 H 0.11574 0.85568 0.80912 0.0
H582 H 0.19346 0.8662 0.79892 0.0
C583 C 0.18864 0.81751 0.841 0.0
C584 C 0.18289 0.33236 0.84844 0.0
C585 C 0.17402 0.29375 0.83664 0.0
H586 H 0.18193 0.3986 0.85216 0.0
C587 C 0.15612 0.29295 0.81899 0.0
H588 H 0.19623 0.33402 0.86222 0.0
C589 C 0.14735 0.32986 0.81329 0.0
C590 C 0.1563 0.3685 0.8251 0.0
H591 H 0.14825 0.2635 0.80962 0.0
H592 H 0.13405 0.3283 0.79952 0.0
C593 C 0.17405 0.36919 0.84276 0.0
C594 C 0.81044 0.66605 0.6831 0.0
C595 C 0.78318 0.62648 0.67132 0.0
H596 H 0.87585 0.73383 0.68726 0.0
C597 C 0.80288 0.62557 0.65422 0.0
H598 H 0.79662 0.66787 0.69645 0.0
C599 C 0.84875 0.6632 0.64905 0.0
C600 C 0.87602 0.70276 0.66084 0.0
H601 H 0.78329 0.5954 0.6449 0.0
H602 H 0.86255 0.6614 0.63569 0.0
C603 C 0.85628 0.70368 0.67793 0.0
C604 C 0.33064 0.14456 0.67943 0.0
C605 C 0.37106 0.1579 0.66799 0.0
H606 H 0.26242 0.14143 0.68322 0.0
C607 C 0.37265 0.17906 0.65092 0.0
H608 H 0.32816 0.12842 0.69273 0.0
C609 C 0.33487 0.18695 0.64552 0.0
C610 C 0.29472 0.17401 0.65708 0.0
H611 H 0.40345 0.19034 0.64185 0.0
H612 H 0.33711 0.20304 0.63223 0.0
C613 C 0.2931 0.15267 0.67408 0.0
C614 C 0.81336 0.18873 0.65325 0.0
C615 C 0.83479 0.20922 0.67017 0.0
H616 H 0.78993 0.12882 0.6349 0.0
C617 C 0.84835 0.18286 0.68191 0.0
H618 H 0.80172 0.20756 0.64399 0.0
C619 C 0.84098 0.1373 0.67681 0.0
C620 C 0.82002 0.11705 0.65981 0.0
H621 H 0.8645 0.19723 0.69514 0.0
H622 H 0.85271 0.11851 0.68605 0.0
C623 C 0.80604 0.14319 0.64814 0.0
C624 C 0.03918 0.52811 0.48734 0.0
C625 C 0.03817 0.54784 0.50442 0.0
H626 H 0.00411 0.46797 0.46903 0.0
C627 C 0.9992 0.52008 0.51639 0.0
H628 H 0.06893 0.54808 0.47788 0.0
C629 C 0.96221 0.47373 0.51142 0.0
C630 C 0.96324 0.45398 0.49434 0.0
H631 H 0.99738 0.5339 0.52974 0.0
H632 H 0.93246 0.45374 0.52088 0.0
C633 C 0.00224 0.48175 0.48238 0.0
C634 C 0.47486 0.51233 0.48417 0.0
C635 C 0.45471 0.49228 0.5013 0.0
H636 H 0.53487 0.53518 0.46584 0.0
C637 C 0.48157 0.48003 0.51333 0.0
H638 H 0.45558 0.52279 0.47464 0.0
C639 C 0.52744 0.4878 0.50839 0.0
C640 C 0.5476 0.50787 0.49127 0.0
H641 H 0.46748 0.4649 0.52671 0.0
H642 H 0.54672 0.47735 0.51793 0.0
C643 C 0.52072 0.52003 0.47922 0.0
C644 C 0.51351 0.03772 0.50957 0.0
C645 C 0.49243 0.03648 0.49255 0.0
H646 H 0.53744 0.00206 0.52811 0.0
C647 C 0.47934 0.9965 0.48091 0.0
H648 H 0.52475 0.06824 0.51877 0.0
C649 C 0.48721 0.95871 0.48617 0.0
C650 C 0.50828 0.95995 0.5032 0.0
H651 H 0.46336 0.99448 0.46761 0.0
H652 H 0.47598 0.92817 0.47698 0.0
C653 C 0.52141 -2e-05 0.51482 0.0
C654 C 0.48145 0.00053 0.01374 0.0
C655 C 0.45321 0.96101 0.00207 0.0
H656 H 0.54726 0.06821 0.01741 0.0
C657 C 0.47156 0.95994 0.9847 0.0
H658 H 0.46872 0.00243 0.0273 0.0
C659 C 0.517 0.99746 0.97912 0.0
C660 C 0.54518 0.03703 0.99078 0.0
H661 H 0.45119 0.92978 0.97545 0.0
H662 H 0.52975 0.9956 0.96557 0.0
C663 C 0.52691 0.03803 0.00817 0.0
C664 C 0.96093 0.48715 0.00944 0.0
C665 C 0.96095 0.50515 0.99187 0.0
H666 H 0.99781 0.46633 0.02872 0.0
C667 C -0.00015 0.51545 0.98 0.0
H668 H 0.93133 0.47822 0.01889 0.0
C669 C 0.03775 0.508 0.98556 0.0
C670 C 0.03782 0.49016 0.00315 0.0
H671 H 0.00094 0.52891 0.96629 0.0
H672 H 0.06737 0.517 0.97611 0.0
C673 C 0.99886 0.47973 0.01501 0.0
C674 C 0.48191 0.48334 0.98104 0.0
C675 C 0.4928 0.45545 0.99307 0.0
H676 H 0.48122 0.54948 0.97657 0.0
C677 C 0.5126 0.47473 0.0103 0.0
H678 H 0.467 0.46989 0.96758 0.0
C679 C 0.52134 0.5208 0.01536 0.0
C680 C 0.51041 0.54866 0.00332 0.0
H681 H 0.52204 0.45461 0.01981 0.0
H682 H 0.53621 0.53428 0.02882 0.0
C683 C 0.4907 0.5294 0.98609 0.0
C684 C 0.32395 0.98477 0.1003 0.0
C685 C 0.29764 0.00462 0.09204 0.0
H686 H 0.3627 0.94624 0.09624 0.0
C687 C 0.29887 0.0097 0.07301 0.0
H688 H 0.32382 0.98091 0.11502 0.0
C689 C 0.32057 0.98926 0.0623 0.0
C690 C 0.34199 0.96441 0.07053 0.0
H691 H 0.2789 0.02483 0.06635 0.0
H692 H 0.31709 0.98942 0.04756 0.0
C693 C 0.34644 0.96517 0.08959 0.0
C694 C 0.04483 0.38094 0.09131 0.0
C695 C 0.04186 0.37738 0.07221 0.0
H696 H 0.03147 0.3423 0.1166 0.0
C697 C 0.01469 0.33127 0.06405 0.0
H698 H 0.06592 0.41598 0.09789 0.0
C699 C 0.99429 0.28909 0.07474 0.0
C700 C 0.00186 0.29249 0.09368 0.0
H701 H 0.01194 0.32772 0.0493 0.0
H702 H 0.97638 0.25398 0.06803 0.0
C703 C 0.02541 0.33873 0.10196 0.0
C704 C 0.67093 0.6803 0.0623 0.0
C705 C 0.62502 0.66032 0.07077 0.0
H706 H 0.74837 0.71961 0.06597 0.0
C707 C 0.62186 0.65592 0.08983 0.0
H708 H 0.67412 0.68366 0.04754 0.0
C709 C 0.66436 0.67709 0.10033 0.0
C710 C 0.71033 0.702 0.09186 0.0
H711 H 0.58696 0.64073 0.09666 0.0
H712 H 0.66121 0.67741 0.11508 0.0
C713 C 0.71342 0.70064 0.0728 0.0
C714 C 0.99195 0.31681 0.43584 0.0
C715 C 0.9678 0.33878 0.42743 0.0
H716 H 0.02847 0.27597 0.43199 0.0
C717 C 0.97058 0.34477 0.40842 0.0
H718 H 0.99061 0.31216 0.45055 0.0
C719 C 0.99167 0.32348 0.39784 0.0
C720 C 0.01106 0.29687 0.40617 0.0
H721 H 0.95229 0.36149 0.40163 0.0
H722 H 0.98937 0.32454 0.38308 0.0
C723 C 0.01389 0.29635 0.42527 0.0
C724 C 0.66164 0.61891 0.40462 0.0
C725 C 0.66412 0.62197 0.42372 0.0
H726 H 0.68453 0.65835 0.37941 0.0
C727 C 0.68314 0.66778 0.43215 0.0
H728 H 0.64737 0.5841 0.39782 0.0
C729 C 0.70373 0.71026 0.42165 0.0
C730 C 0.70646 0.7074 0.40262 0.0
H731 H 0.68518 0.67092 0.44692 0.0
H732 H 0.72145 0.74516 0.42851 0.0
C733 C 0.68314 0.66142 0.39413 0.0
C734 C 0.38254 0.03553 0.40522 0.0
C735 C 0.37952 0.03588 0.42431 0.0
H736 H 0.34312 0.0191 0.38001 0.0
C737 C 0.33358 0.01022 0.43277 0.0
H738 H 0.41745 0.05516 0.3984 0.0
C739 C 0.29102 0.98898 0.42229 0.0
C740 C 0.294 0.99407 0.40324 0.0
H741 H 0.33046 0.0098 0.44754 0.0
H742 H 0.25611 0.97299 0.42915 0.0
C743 C 0.33998 0.01512 0.39475 0.0
C744 C 0.67811 0.02072 0.8921 0.0
C745 C 0.70002 0.99704 0.9009 0.0
H746 H 0.64163 0.06175 0.89543 0.0
C747 C 0.69251 0.98743 0.91966 0.0
H748 H 0.68285 0.02795 0.87754 0.0
C749 C 0.66922 0.00708 0.92985 0.0
C750 C 0.65245 0.0357 0.92133 0.0
H751 H 0.70876 0.96906 0.92674 0.0
H752 H 0.66814 0.00352 0.94461 0.0
C753 C 0.65406 0.03964 0.90226 0.0
C754 C 0.95961 0.61987 0.90486 0.0
C755 C 0.9616 0.62218 0.92399 0.0
H756 H 0.97469 0.66028 0.87994 0.0
C757 C 0.98934 0.66761 0.93258 0.0
H758 H 0.93818 0.58537 0.89794 0.0
C759 C 0.01098 0.71049 0.9223 0.0
C760 C 0.00407 0.70841 0.90333 0.0
H761 H 0.99141 0.67016 0.94737 0.0
H762 H 0.02901 0.74515 0.92933 0.0
C763 C 0.98028 0.66277 0.89461 0.0
C764 C 0.37725 0.3486 0.90727 0.0
C765 C 0.37436 0.34291 0.92629 0.0
H766 H 0.33772 0.32791 0.88205 0.0
C767 C 0.32845 0.32158 0.93484 0.0
H768 H 0.41213 0.3649 0.90038 0.0
C769 C 0.28585 0.30106 0.9244 0.0
C770 C 0.28884 0.30094 0.90531 0.0
H771 H 0.3254 0.31723 0.94957 0.0
H772 H 0.25101 0.28091 0.93124 0.0
C773 C 0.33466 0.3273 0.89682 0.0
C774 C 0.01558 0.67723 0.60235 0.0
C775 C 0.99248 0.70021 0.59391 0.0
H776 H 0.05808 0.64242 0.59856 0.0
C777 C 0.98627 0.69698 0.5749 0.0
H778 H 0.02043 0.67893 0.61706 0.0
C779 C 0.00837 0.67665 0.56436 0.0
C780 C 0.03604 0.65848 0.57272 0.0
H781 H 0.96868 0.71437 0.56808 0.0
H782 H 0.00704 0.6786 0.54959 0.0
C783 C 0.03688 0.65606 0.59182 0.0
C784 C 0.321 0.33116 0.59648 0.0
C785 C 0.29233 0.28547 0.58817 0.0
H786 H 0.3608 0.40853 0.59286 0.0
C787 C 0.28884 0.28249 0.56908 0.0
H788 H 0.32422 0.33423 0.61123 0.0
C789 C 0.30896 0.32506 0.55863 0.0
C790 C 0.33359 0.37102 0.56711 0.0
H791 H 0.26666 0.24778 0.56239 0.0
H792 H 0.30238 0.32209 0.54402 0.0
C793 C 0.34197 0.37367 0.58599 0.0
C794 C 0.66203 0.98542 0.6006 0.0
C795 C 0.7079 0.00593 0.59208 0.0
H796 H 0.58458 0.94525 0.59701 0.0
C797 C 0.71089 0.01026 0.57302 0.0
H798 H 0.65897 0.98208 0.61536 0.0
C799 C 0.66832 0.98855 0.56256 0.0
C800 C 0.62245 0.96319 0.57108 0.0
H801 H 0.74578 0.02585 0.56616 0.0
H802 H 0.67138 0.98824 0.54781 0.0
C803 C 0.61946 0.96455 0.59015 0.0
C804 C 0.65433 0.65638 0.7307 0.0
C805 C 0.67314 0.62959 0.7393 0.0
H806 H 0.61551 0.69508 0.73406 0.0
C807 C 0.6759 0.62967 0.7584 0.0
H808 H 0.65219 0.65702 0.71592 0.0
C809 C 0.65425 0.65081 0.76874 0.0
C810 C 0.63046 0.67279 0.76007 0.0
H811 H 0.69009 0.60919 0.76532 0.0
H812 H 0.65273 0.64657 0.78347 0.0
C813 C 0.6335 0.67831 0.74104 0.0
C814 C 0.34229 0.99228 0.72615 0.0
C815 C 0.36414 0.03782 0.73496 0.0
H816 H 0.30722 0.91484 0.72936 0.0
C817 C 0.35882 0.03967 0.7539 0.0
H818 H 0.34567 0.98999 0.71149 0.0
C819 C 0.33744 0.99667 0.76411 0.0
C820 C 0.32021 0.95137 0.75545 0.0
H821 H 0.37535 0.07423 0.761 0.0
H822 H 0.33775 -0.00093 0.7789 0.0
C823 C 0.32 0.94924 0.73633 0.0
C824 C 0.95612 0.31782 0.75413 0.0
C825 C 0.95835 0.32665 0.7353 0.0
H826 H 0.99639 0.33472 0.77916 0.0
C827 C 0.00405 0.35019 0.72657 0.0
H828 H 0.92144 0.29967 0.76117 0.0
C829 C 0.04697 0.36946 0.7368 0.0
C830 C 0.04453 0.36607 0.75589 0.0
H831 H 0.00666 0.35694 0.71197 0.0
H832 H 0.08157 0.39127 0.72996 0.0
C833 C 0.99901 0.33785 0.76439 0.0
C834 C 0.34189 0.34744 0.22758 0.0
C835 C 0.36683 0.32614 0.23586 0.0
H836 H 0.30473 0.3876 0.23159 0.0
C837 C 0.36493 0.32064 0.25489 0.0
H838 H 0.34256 0.35171 0.21286 0.0
C839 C 0.34386 0.34177 0.26557 0.0
C840 C 0.32362 0.36773 0.25733 0.0
H841 H 0.38386 0.30444 0.26159 0.0
H842 H 0.34679 0.3411 0.28032 0.0
C843 C 0.31997 0.36773 0.23825 0.0
C844 C 0.62721 0.95438 0.24058 0.0
C845 C 0.62264 0.95778 0.2595 0.0
H846 H 0.64812 0.99294 0.21512 0.0
C847 C 0.6446 0.00405 0.26775 0.0
H848 H 0.61061 0.91925 0.2339 0.0
C849 C 0.66696 0.04621 0.25707 0.0
C850 C 0.6667 0.04259 0.23799 0.0
H851 H 0.6418 0.00761 0.28237 0.0
H852 H 0.68029 0.08121 0.26363 0.0
C853 C 0.64859 0.99653 0.22987 0.0
C854 C 0.94822 0.62487 0.25808 0.0
C855 C 0.95216 0.62646 0.23899 0.0
H856 H 0.98644 0.63907 0.2835 0.0
C857 C 0.99847 0.65313 0.23089 0.0
H858 H 0.91301 0.60439 0.26462 0.0
C859 C 0.04051 0.67354 0.24165 0.0
C860 C 0.03666 0.6666 0.26062 0.0
H861 H 0.00228 0.65499 0.21614 0.0
H862 H 0.07574 0.69046 0.23501 0.0
C863 C 0.99028 0.64445 0.26882 0.0
C864 C 0.09441 0.13286 0.10905 0.0
C865 C 0.0791 0.14827 0.1245 0.0
H866 H 0.12495 0.09012 0.09895 0.0
C867 C 0.08602 0.13449 0.14192 0.0
H868 H 0.08956 0.14305 0.09541 0.0
C869 C 0.10548 0.10403 0.14387 0.0
C870 C 0.119 0.08679 0.12847 0.0
H871 H 0.07498 0.14594 0.15408 0.0
H872 H 0.10936 0.09348 0.15759 0.0
C873 C 0.11455 0.10254 0.11103 0.0
C874 C 0.87611 0.99516 0.14136 0.0
C875 C 0.90182 0.02601 0.12667 0.0
H876 H 0.83052 0.92231 0.15063 0.0
C877 C 0.89633 0.00625 0.10911 0.0
H878 H 0.879 0.00961 0.15502 0.0
C879 C 0.86829 0.9558 0.1066 0.0
C880 C 0.84541 0.92482 0.12163 0.0
H881 H 0.91581 0.0293 0.0976 0.0
H882 H 0.86655 0.94096 0.0931 0.0
C883 C 0.84824 0.94516 0.13887 0.0
C884 C 0.99327 0.8797 0.10984 0.0
C885 C 0.97317 0.87188 0.12743 0.0
H886 H 0.05873 0.90821 0.09399 0.0
C887 C 0.00366 0.8813 0.1427 0.0
H888 H 0.97054 0.87242 0.09786 0.0
C889 C 0.05362 0.90124 0.14055 0.0
C890 C 0.07435 0.91251 0.12308 0.0
H891 H 0.98902 0.87452 0.15646 0.0
H892 H 0.07616 0.90977 0.15265 0.0
C893 C 0.04366 0.90013 0.10768 0.0
C894 C 0.11188 0.11587 0.38649 0.0
C895 C 0.09853 0.12318 0.36901 0.0
H896 H 0.14925 0.08727 0.40204 0.0
C897 C 0.11765 0.11199 0.35357 0.0
H898 H 0.09792 0.12441 0.3986 0.0
C899 C 0.14707 0.09128 0.35547 0.0
C900 C 0.15791 0.08097 0.37287 0.0
H901 H 0.10892 0.11821 0.33986 0.0
H902 H 0.15971 0.08165 0.34326 0.0
C903 C 0.14123 0.09466 0.38841 0.0
C904 C 0.91074 0.04353 0.39022 0.0
C905 C 0.92057 0.07487 0.37517 0.0
H906 H 0.88328 0.96977 0.39921 0.0
C907 C 0.90481 0.0549 0.35775 0.0
H908 H 0.92243 0.05806 0.40386 0.0
C909 C 0.88275 0.00493 0.35517 0.0
C910 C 0.87582 0.9737 0.36994 0.0
H911 H 0.9113 0.07799 0.34595 0.0
H912 H 0.87256 0.99081 0.3414 0.0
C913 C 0.8883 0.9931 0.38763 0.0
C914 C 0.00949 0.89435 0.38595 0.0
C915 C 0.02994 0.90528 0.36839 0.0
H916 H 0.9436 0.85954 0.40168 0.0
C917 C -0.00065 0.88463 0.3531 0.0
H918 H 0.03222 0.90964 0.39794 0.0
C919 C 0.9492 0.85613 0.35518 0.0
C920 C 0.92827 0.84755 0.37259 0.0
H921 H 0.01412 0.89153 0.33936 0.0
H922 H 0.92675 0.84224 0.34306 0.0
C923 C 0.95886 0.86576 0.38804 0.0
C924 C 0.87661 0.87673 0.85796 0.0
C925 C 0.87737 0.90714 0.87208 0.0
H926 H 0.89966 0.82757 0.84876 0.0
C927 C 0.89847 0.90725 0.88893 0.0
H928 H 0.86002 0.87575 0.84489 0.0
C929 C 0.92125 0.87941 0.89115 0.0
C930 C 0.92306 0.8514 0.87652 0.0
H931 H 0.89992 0.93088 0.8999 0.0
H932 H 0.93963 0.88186 0.90392 0.0
C933 C 0.8993 0.84924 0.86014 0.0
C934 C 0.129 0.00637 0.85662 0.0
C935 C 0.1039 0.97584 0.87145 0.0
H936 H 0.17354 0.07911 0.84703 0.0
C937 C 0.10995 0.996 0.88897 0.0
H938 H 0.12556 0.99156 0.84299 0.0
C939 C 0.13759 0.04655 0.89127 0.0
C940 C 0.15951 0.07723 0.87608 0.0
H941 H 0.0909 0.9732 0.90059 0.0
H942 H 0.13953 0.06167 0.90473 0.0
C943 C 0.15651 0.0565 0.8589 0.0
C944 C 0.00676 0.11719 0.88686 0.0
C945 C 0.02763 0.1243 0.86942 0.0
H946 H 0.94053 0.0893 0.90226 0.0
C947 C 0.99768 0.11375 0.85391 0.0
H948 H 0.02904 0.12533 0.89901 0.0
C949 C 0.94764 0.09375 0.8557 0.0
C950 C 0.92617 0.08354 0.87304 0.0
H951 H 0.01284 0.11994 0.84024 0.0
H952 H 0.92563 0.08461 0.84343 0.0
C953 C 0.95621 0.09667 0.88866 0.0
C954 C 0.8627 0.90672 0.60701 0.0
C955 C 0.84251 0.91755 0.62225 0.0
H956 H 0.9079 0.87828 0.59761 0.0
C957 C 0.84813 0.90274 0.63966 0.0
H958 H 0.85875 0.91765 0.59338 0.0
C959 C 0.87602 0.88053 0.642 0.0
C960 C 0.89896 0.87252 0.62701 0.0
H961 H 0.83257 0.91002 0.65161 0.0
H962 H 0.88097 0.87102 0.65576 0.0
C963 C 0.89069 0.88415 0.60937 0.0
C964 C 0.11121 0.00374 0.60902 0.0
C965 C 0.12006 0.02494 0.62644 0.0
H966 H 0.08085 0.93728 0.59372 0.0
C967 C 0.1096 0.99505 0.64197 0.0
H968 H 0.11909 0.02591 0.59686 0.0
C969 C 0.08821 0.94488 0.64024 0.0
C970 C 0.07654 0.92322 0.62293 0.0
H971 H 0.11696 0.01039 0.65562 0.0
H972 H 0.07928 0.92298 0.65252 0.0
C973 C 0.08935 0.9531 0.60728 0.0
C974 C 0.05294 0.14524 0.63889 0.0
C975 C 0.0725 0.15361 0.62123 0.0
H976 H 0.98928 0.10956 0.65541 0.0
C977 C 0.04073 0.13527 0.60612 0.0
H978 H 0.07633 0.15926 0.65077 0.0
C979 C 0.99034 0.10663 0.60876 0.0
C980 C 0.9713 0.09566 0.62655 0.0
H981 H 0.05489 0.14137 0.5923 0.0
H982 H 0.96671 0.09124 0.59701 0.0
C983 C 0.003 0.1165 0.64152 0.0
C984 C 0.76275 0.46815 0.44072 0.0
C985 C 0.74983 0.48676 0.45589 0.0
H986 H 0.79217 0.42371 0.43146 0.0
C987 C 0.76128 0.47839 0.47349 0.0
H988 H 0.75443 0.47422 0.42693 0.0
C989 C 0.78238 0.44952 0.47601 0.0
C990 C 0.79276 0.42844 0.46099 0.0
H991 H 0.75229 0.49259 0.48542 0.0
H992 H 0.78945 0.44268 0.48988 0.0
C993 C 0.78432 0.4393 0.44325 0.0
C994 C 0.53428 0.28882 0.43963 0.0
C995 C 0.51515 0.25797 0.45495 0.0
H996 H 0.57893 0.36225 0.43003 0.0
C997 C 0.52275 0.27848 0.47242 0.0
H998 H 0.52881 0.27388 0.42595 0.0
C999 C 0.55137 0.32849 0.47469 0.0
C1000 C 0.57297 0.3593 0.45955 0.0
H1001 H 0.50812 0.25579 0.48444 0.0
H1002 H 0.55763 0.34297 0.48847 0.0
C1003 C 0.56289 0.3393 0.44191 0.0
C1004 C 0.71404 0.23897 0.44126 0.0
C1005 C 0.74418 0.25118 0.45683 0.0
H1006 H 0.64103 0.20995 0.43106 0.0
C1007 C 0.72276 0.23858 0.47416 0.0
H1008 H 0.72968 0.24815 0.42767 0.0
C1009 C 0.67255 0.21713 0.47603 0.0
C1010 C 0.64246 0.2076 0.46062 0.0
H1011 H 0.74487 0.24699 0.48637 0.0
H1012 H 0.65736 0.20923 0.48971 0.0
C1013 C 0.66338 0.2171 0.44314 0.0
C1014 C 0.77187 0.44623 0.72068 0.0
C1015 C 0.75907 0.45416 0.70319 0.0
H1016 H 0.80896 0.41721 0.7362 0.0
C1017 C 0.77885 0.44378 0.68775 0.0
H1018 H 0.75737 0.45418 0.73278 0.0
C1019 C 0.80835 0.42321 0.68964 0.0
C1020 C 0.81869 0.41226 0.70702 0.0
H1021 H 0.77059 0.45055 0.67405 0.0
H1022 H 0.82155 0.41425 0.67742 0.0
C1023 C 0.80137 0.42515 0.72259 0.0
C1024 C 0.54805 0.32497 0.72156 0.0
C1025 C 0.5358 0.30534 0.7039 0.0
H1026 H 0.58225 0.39014 0.73765 0.0
C1027 C 0.54288 0.33635 0.68904 0.0
H1028 H 0.54294 0.3018 0.7332 0.0
C1029 C 0.56512 0.38639 0.6915 0.0
C1030 C 0.58087 0.4066 0.70889 0.0
H1031 H 0.5329 0.32199 0.67529 0.0
H1032 H 0.57189 0.40935 0.67963 0.0
C1033 C 0.57063 0.37544 0.72403 0.0
C1034 C 0.66185 0.20535 0.69067 0.0
C1035 C 0.69114 0.2347 0.70508 0.0
H1036 H 0.58985 0.15718 0.68097 0.0
C1037 C 0.66962 0.2336 0.72194 0.0
H1038 H 0.67783 0.20523 0.67757 0.0
C1039 C 0.6189 0.20581 0.72389 0.0
C1040 C 0.58948 0.17904 0.70898 0.0
H1041 H 0.69147 0.25634 0.73316 0.0
H1042 H 0.60262 0.20739 0.7367 0.0
C1043 C 0.61156 0.17791 0.69257 0.0
C1044 C 0.56954 0.19544 0.22025 0.0
C1045 C 0.58386 0.17848 0.20496 0.0
H1046 H 0.53894 0.23852 0.22985 0.0
C1047 C 0.57404 0.1888 0.1874 0.0
H1048 H 0.57656 0.18783 0.23401 0.0
C1049 C 0.55301 0.21782 0.18509 0.0
C1050 C 0.54105 0.23711 0.20028 0.0
H1051 H 0.58418 0.17596 0.17537 0.0
H1052 H 0.54711 0.22605 0.17126 0.0
C1053 C 0.54804 0.22441 0.21793 0.0
C1054 C 0.78281 0.3364 0.18662 0.0
C1055 C 0.76105 0.30512 0.20164 0.0
H1056 H 0.82627 0.40941 0.1772 0.0
C1057 C 0.77108 0.32454 0.21936 0.0
H1058 H 0.7766 0.32236 0.17278 0.0
C1059 C 0.79976 0.37491 0.22187 0.0
C1060 C 0.81903 0.40626 0.20669 0.0
H1061 H 0.75494 0.30123 0.23114 0.0
H1062 H 0.80515 0.3894 0.23562 0.0
C1063 C 0.81153 0.38633 0.18912 0.0
C1064 C 0.66069 0.44433 0.18569 0.0
C1065 C 0.69111 0.45551 0.2011 0.0
H1066 H 0.5882 0.41393 0.17546 0.0
C1067 C 0.67055 0.4481 0.2186 0.0
H1068 H 0.67554 0.4506 0.17197 0.0
C1069 C 0.62 0.42682 0.22057 0.0
C1070 C 0.58952 0.41317 0.20507 0.0
H1071 H 0.69314 0.45663 0.23069 0.0
H1072 H 0.60467 0.41939 0.23422 0.0
C1073 C 0.61056 0.42355 0.18764 0.0
C1074 C 0.54745 0.22017 0.97466 0.0
C1075 C 0.56668 0.2094 0.95915 0.0
H1076 H 0.5058 0.25076 0.98511 0.0
C1077 C 0.5538 0.21747 0.9417 0.0
H1078 H 0.55583 0.21332 0.98832 0.0
C1079 C 0.52491 0.2392 0.93989 0.0
C1080 C 0.50828 0.25262 0.95551 0.0
H1081 H 0.56787 0.20921 0.92956 0.0
H1082 H 0.51732 0.24728 0.9263 0.0
C1083 C 0.5185 0.24139 0.97285 0.0
C1084 C 0.77673 0.33891 0.94003 0.0
C1085 C 0.78921 0.35825 0.95773 0.0
H1086 H 0.7424 0.27402 0.92378 0.0
C1087 C 0.78199 0.32698 0.9725 0.0
H1088 H 0.78202 0.36231 0.92844 0.0
C1089 C 0.75977 0.27702 0.96991 0.0
C1090 C 0.74407 0.25713 0.95248 0.0
H1091 H 0.79219 0.34109 0.98628 0.0
H1092 H 0.75313 0.25389 0.9817 0.0
C1093 C 0.75406 0.2885 0.93742 0.0
C1094 C 0.70883 0.46772 0.93971 0.0
C1095 C 0.73997 0.48621 0.95499 0.0
H1096 H 0.63509 0.42373 0.9302 0.0
C1097 C 0.71963 0.47798 0.97251 0.0
H1098 H 0.72361 0.47365 0.92599 0.0
C1099 C 0.66957 0.44948 0.97485 0.0
C1100 C 0.63844 0.42858 0.95973 0.0
H1101 H 0.7425 0.49207 0.98453 0.0
H1102 H 0.65529 0.44281 0.98867 0.0
C1103 C 0.65826 0.43922 0.94206 0.0
C1104 C 0.42237 0.79996 0.77203 0.0
C1105 C 0.41011 0.81956 0.78707 0.0
H1106 H 0.45247 0.75581 0.76312 0.0
C1107 C 0.42376 0.81373 0.80467 0.0
H1108 H 0.41237 0.80408 0.75826 0.0
C1109 C 0.44627 0.78625 0.80737 0.0
C1110 C 0.45587 0.76399 0.79255 0.0
H1111 H 0.41536 0.8288 0.81648 0.0
H1112 H 0.45488 0.78119 0.82126 0.0
C1113 C 0.44534 0.77244 0.77476 0.0
C1114 C 0.22252 0.66903 0.77349 0.0
C1115 C 0.23238 0.68921 0.7911 0.0
H1116 H 0.18913 0.60341 0.75764 0.0
C1117 C 0.21091 0.65853 0.80628 0.0
H1118 H 0.23847 0.69189 0.76159 0.0
C1119 C 0.18271 0.60844 0.80408 0.0
C1120 C 0.17546 0.58776 0.78666 0.0
H1121 H 0.21703 0.67318 0.82003 0.0
H1122 H 0.16824 0.58586 0.81614 0.0
C1123 C 0.19436 0.61849 0.77129 0.0
C1124 C 0.37686 0.57291 0.77379 0.0
C1125 C 0.40705 0.58683 0.78938 0.0
H1126 H 0.30371 0.54169 0.76351 0.0
C1127 C 0.38571 0.57551 0.80675 0.0
H1128 H 0.39245 0.58108 0.76019 0.0
C1129 C 0.33545 0.55343 0.80858 0.0
C1130 C 0.30522 0.54194 0.79311 0.0
H1131 H 0.40788 0.58529 0.81898 0.0
H1132 H 0.3203 0.54642 0.82227 0.0
C1133 C 0.32615 0.55037 0.77564 0.0
C1134 C 0.45334 0.78224 0.0203 0.0
C1135 C 0.43213 0.79186 0.03547 0.0
H1136 H 0.49701 0.7532 0.01055 0.0
C1137 C 0.44355 0.78344 0.05313 0.0
H1138 H 0.44608 0.7894 0.0065 0.0
C1139 C 0.47294 0.7624 0.05542 0.0
C1140 C 0.49153 0.75004 0.0401 0.0
H1141 H 0.42791 0.7908 0.06503 0.0
H1142 H 0.47934 0.75393 0.06914 0.0
C1143 C 0.48279 0.76173 0.02259 0.0
C1144 C 0.21714 0.67116 0.02101 0.0
C1145 C 0.20925 0.64059 0.03611 0.0
H1146 H 0.24605 0.74375 0.01122 0.0
C1147 C 0.22061 0.6608 0.05371 0.0
H1148 H 0.20781 0.65644 0.00729 0.0
C1149 C 0.2428 0.71133 0.05594 0.0
C1150 C 0.25345 0.74197 0.04061 0.0
H1151 H 0.21479 0.63801 0.06554 0.0
H1152 H 0.25354 0.72647 0.06955 0.0
C1153 C 0.23889 0.72121 0.02324 0.0
C1154 C 0.34273 0.56218 0.0532 0.0
C1155 C 0.36261 0.5742 0.03556 0.0
H1156 H 0.2774 0.52592 0.06921 0.0
C1157 C 0.33161 0.55412 0.02036 0.0
H1158 H 0.36579 0.57695 0.06513 0.0
C1159 C 0.2816 0.52487 0.02262 0.0
C1160 C 0.2612 0.51516 0.04015 0.0
H1161 H 0.34594 0.56185 0.00655 0.0
H1162 H 0.25882 0.51134 0.01057 0.0
C1163 C 0.29223 0.53301 0.05548 0.0
C1164 C 0.21915 0.56026 0.55221 0.0
C1165 C 0.21342 0.57568 0.53488 0.0
H1166 H 0.24599 0.52069 0.5674 0.0
C1167 C 0.22642 0.55866 0.51928 0.0
H1168 H 0.20921 0.57255 0.56444 0.0
C1169 C 0.2468 0.52892 0.52091 0.0
C1170 C 0.25505 0.51557 0.53819 0.0
H1171 H 0.22156 0.56898 0.50565 0.0
H1172 H 0.25751 0.51772 0.50859 0.0
C1173 C 0.24012 0.53059 0.55386 0.0
C1174 C 0.43823 0.65846 0.5536 0.0
C1175 C 0.43315 0.63899 0.536 0.0
H1176 H 0.46736 0.72353 0.56973 0.0
C1177 C 0.45909 0.6701 0.52141 0.0
H1178 H 0.41854 0.6352 0.56504 0.0
C1179 C 0.48666 0.72008 0.524 0.0
C1180 C 0.48899 0.74014 0.54126 0.0
H1181 H 0.45649 0.65586 0.50772 0.0
H1182 H 0.50449 0.74313 0.5123 0.0
C1183 C 0.466 0.7089 0.55622 0.0
C1184 C 0.32867 0.78147 0.52113 0.0
C1185 C 0.35959 0.79094 0.53626 0.0
H1186 H 0.25588 0.75282 0.51149 0.0
C1187 C 0.33993 0.78274 0.55394 0.0
H1188 H 0.34296 0.78849 0.50732 0.0
C1189 C 0.28956 0.76201 0.55631 0.0
C1190 C 0.25846 0.74973 0.54103 0.0
H1191 H 0.363 0.79002 0.56581 0.0
H1192 H 0.27483 0.75368 0.57004 0.0
C1193 C 0.27874 0.76128 0.52349 0.0
C1194 C 0.21536 0.55083 0.31019 0.0
C1195 C 0.23433 0.53972 0.29467 0.0
H1196 H 0.17266 0.58028 0.32064 0.0
C1197 C 0.22 0.54616 0.27724 0.0
H1198 H 0.22482 0.54523 0.32386 0.0
C1199 C 0.18987 0.56652 0.27543 0.0
C1200 C 0.17335 0.58019 0.29102 0.0
H1201 H 0.23378 0.53761 0.26509 0.0
H1202 H 0.1811 0.57329 0.26182 0.0
C1203 C 0.18514 0.57066 0.30839 0.0
C1204 C 0.45237 0.66031 0.3076 0.0
C1205 C 0.45789 0.69118 0.29286 0.0
H1206 H 0.42491 0.58745 0.31689 0.0
C1207 C 0.44426 0.67145 0.27526 0.0
H1208 H 0.46348 0.67473 0.32129 0.0
C1209 C 0.42197 0.62101 0.27276 0.0
C1210 C 0.41339 0.58998 0.28782 0.0
H1211 H 0.44817 0.6945 0.26371 0.0
H1212 H 0.40932 0.6062 0.25923 0.0
C1213 C 0.43039 0.61031 0.30511 0.0
C1214 C 0.37073 0.79656 0.27536 0.0
C1215 C 0.4019 0.81448 0.29066 0.0
H1216 H 0.29708 0.75248 0.26579 0.0
C1217 C 0.38164 0.80461 0.30821 0.0
H1218 H 0.38545 0.80371 0.26162 0.0
C1219 C 0.33166 0.77535 0.31053 0.0
C1220 C 0.3005 0.75528 0.29536 0.0
H1221 H 0.40452 0.81818 0.32024 0.0
H1222 H 0.31747 0.76763 0.32436 0.0
C1223 C 0.32024 0.76729 0.2777 0.0
loop_
_geom_bond_atom_site_label_1
_geom_bond_atom_site_label_2
_geom_bond_distance
_geom_bond_site_symmetry_2
_ccdc_geom_bond_type
Co0 O1 2.216 . S
Co0 O2 2.091 . S
Co0 O4 2.004 . S
Co0 O10 2.021 . S
Co0 O12 2.137 1_545 S
Co0 O13 2.244 . S
O1 Co0 2.216 . S
O1 C8 1.247 . S
O2 Co0 2.091 . S
O2 C8 1.261 . S
C3 O12 1.247 . S
C3 O13 1.272 1_565 S
O4 Co0 2.004 . S
O4 C9 1.259 . S
Co5 O6 2.061 . S
Co5 O11 2.052 . S
Co5 O13 2.135 . S
O6 Co5 2.061 . S
O6 C9 1.235 . S
C7 O10 1.238 . S
C7 O11 1.241 . S
C8 O1 1.247 . S
C8 O2 1.261 . S
C9 O4 1.259 . S
C9 O6 1.235 . S
O10 Co0 2.021 . S
O10 C7 1.238 . S
O11 Co5 2.052 . S
O11 C7 1.241 . S
O12 Co0 2.137 1_565 S
O12 C3 1.247 . S
O13 Co0 2.244 . S
O13 C3 1.272 1_545 S
O13 Co5 2.135 . S
Co14 O15 2.216 . S
Co14 O16 2.091 . S
Co14 O18 2.004 . S
Co14 O24 2.021 . S
Co14 O26 2.137 1_655 S
Co14 O27 2.244 . S
O15 Co14 2.216 . S
O15 C22 1.247 . S
O16 Co14 2.091 . S
O16 C22 1.261 . S
C17 O26 1.247 . S
C17 O27 1.272 1_455 S
O18 Co14 2.004 . S
O18 C23 1.259 . S
Co19 O20 2.061 . S
Co19 O25 2.052 . S
Co19 O27 2.135 . S
O20 Co19 2.061 . S
O20 C23 1.235 . S
C21 O24 1.238 . S
C21 O25 1.241 . S
C22 O15 1.247 . S
C22 O16 1.261 . S
C23 O18 1.259 . S
C23 O20 1.235 . S
O24 Co14 2.021 . S
O24 C21 1.238 . S
O25 Co19 2.052 . S
O25 C21 1.241 . S
O26 Co14 2.137 1_455 S
O26 C17 1.247 . S
O27 Co14 2.244 . S
O27 C17 1.272 1_655 S
O27 Co19 2.135 . S
Co28 O29 2.216 . S
Co28 O30 2.091 . S
Co28 O32 2.004 . S
Co28 O38 2.021 . S
Co28 O40 2.137 . S
Co28 O41 2.244 . S
O29 Co28 2.216 . S
O29 C36 1.247 . S
O30 Co28 2.091 . S
O30 C36 1.261 . S
C31 O40 1.247 . S
C31 O41 1.272 . S
O32 Co28 2.004 . S
O32 C37 1.259 . S
Co33 O34 2.061 . S
Co33 O39 2.052 . S
Co33 O41 2.135 . S
O34 Co33 2.061 . S
O34 C37 1.235 . S
C35 O38 1.238 . S
C35 O39 1.241 . S
C36 O29 1.247 . S
C36 O30 1.261 . S
C37 O32 1.259 . S
C37 O34 1.235 . S
O38 Co28 2.021 . S
O38 C35 1.238 . S
O39 Co33 2.052 . S
O39 C35 1.241 . S
O40 Co28 2.137 . S
O40 C31 1.247 . S
O41 Co28 2.244 . S
O41 C31 1.272 . S
O41 Co33 2.135 . S
Co42 O43 2.216 . S
Co42 O44 2.091 . S
Co42 O46 2.004 . S
Co42 O52 2.021 . S
Co42 O54 2.137 1_455 S
Co42 O55 2.244 . S
O43 Co42 2.216 . S
O43 C50 1.247 . S
O44 Co42 2.091 . S
O44 C50 1.261 . S
C45 O54 1.247 . S
C45 O55 1.272 1_655 S
O46 Co42 2.004 . S
O46 C51 1.259 . S
Co47 O48 2.061 . S
Co47 O53 2.052 . S
Co47 O55 2.135 . S
O48 Co47 2.061 . S
O48 C51 1.235 . S
C49 O52 1.238 . S
C49 O53 1.241 . S
C50 O43 1.247 . S
C50 O44 1.261 . S
C51 O46 1.259 . S
C51 O48 1.235 . S
O52 Co42 2.021 . S
O52 C49 1.238 . S
O53 Co47 2.052 . S
O53 C49 1.241 . S
O54 Co42 2.137 1_655 S
O54 C45 1.247 . S
O55 Co42 2.244 . S
O55 C45 1.272 1_455 S
O55 Co47 2.135 . S
Co56 O57 2.216 . S
Co56 O58 2.091 . S
Co56 O60 2.004 . S
Co56 O66 2.021 . S
Co56 O68 2.137 . S
Co56 O69 2.244 . S
O57 Co56 2.216 . S
O57 C64 1.247 . S
O58 Co56 2.091 . S
O58 C64 1.261 . S
C59 O68 1.247 . S
C59 O69 1.272 . S
O60 Co56 2.004 . S
O60 C65 1.259 . S
Co61 O62 2.061 . S
Co61 O67 2.052 . S
Co61 O69 2.135 . S
O62 Co61 2.061 . S
O62 C65 1.235 . S
C63 O66 1.238 . S
C63 O67 1.241 . S
C64 O57 1.247 . S
C64 O58 1.261 . S
C65 O60 1.259 . S
C65 O62 1.235 . S
O66 Co56 2.021 . S
O66 C63 1.238 . S
O67 Co61 2.052 . S
O67 C63 1.241 . S
O68 Co56 2.137 . S
O68 C59 1.247 . S
O69 Co56 2.244 . S
O69 C59 1.272 . S
O69 Co61 2.135 . S
Co70 O71 2.216 . S
Co70 O72 2.091 . S
Co70 O74 2.004 . S
Co70 O80 2.021 . S
Co70 O82 2.137 1_565 S
Co70 O83 2.244 . S
O71 Co70 2.216 . S
O71 C78 1.247 . S
O72 Co70 2.091 . S
O72 C78 1.261 . S
C73 O82 1.247 . S
C73 O83 1.272 1_545 S
O74 Co70 2.004 . S
O74 C79 1.259 . S
Co75 O76 2.061 . S
Co75 O81 2.052 . S
Co75 O83 2.135 . S
O76 Co75 2.061 . S
O76 C79 1.235 . S
C77 O80 1.238 . S
C77 O81 1.241 . S
C78 O71 1.247 . S
C78 O72 1.261 . S
C79 O74 1.259 . S
C79 O76 1.235 . S
O80 Co70 2.021 . S
O80 C77 1.238 . S
O81 Co75 2.052 . S
O81 C77 1.241 . S
O82 Co70 2.137 1_545 S
O82 C73 1.247 . S
O83 Co70 2.244 . S
O83 C73 1.272 1_565 S
O83 Co75 2.135 . S
Co84 O85 2.216 . S
Co84 O86 2.091 . S
Co84 O88 2.004 . S
Co84 O94 2.021 . S
Co84 O96 2.137 1_565 S
Co84 O97 2.244 . S
O85 Co84 2.216 . S
O85 C92 1.247 . S
O86 Co84 2.091 . S
O86 C92 1.261 . S
C87 O96 1.247 . S
C87 O97 1.272 1_545 S
O88 Co84 2.004 . S
O88 C93 1.259 . S
Co89 O90 2.061 . S
Co89 O95 2.052 . S
Co89 O97 2.135 . S
O90 Co89 2.061 . S
O90 C93 1.235 . S
C91 O94 1.238 . S
C91 O95 1.241 . S
C92 O85 1.247 . S
C92 O86 1.261 . S
C93 O88 1.259 . S
C93 O90 1.235 . S
O94 Co84 2.021 . S
O94 C91 1.238 . S
O95 Co89 2.052 . S
O95 C91 1.241 . S
O96 Co84 2.137 1_545 S
O96 C87 1.247 . S
O97 Co84 2.244 . S
O97 C87 1.272 1_565 S
O97 Co89 2.135 . S
Co98 O99 2.216 . S
Co98 O100 2.091 . S
Co98 O102 2.004 . S
Co98 O108 2.021 . S
Co98 O110 2.137 1_455 S
Co98 O111 2.244 . S
O99 Co98 2.216 . S
O99 C106 1.247 . S
O100 Co98 2.091 . S
O100 C106 1.261 . S
C101 O110 1.247 . S
C101 O111 1.272 1_655 S
O102 Co98 2.004 . S
O102 C107 1.259 . S
Co103 O104 2.061 . S
Co103 O109 2.052 . S
Co103 O111 2.135 . S
O104 Co103 2.061 . S
O104 C107 1.235 . S
C105 O108 1.238 . S
C105 O109 1.241 . S
C106 O99 1.247 . S
C106 O100 1.261 . S
C107 O102 1.259 . S
C107 O104 1.235 . S
O108 Co98 2.021 . S
O108 C105 1.238 . S
O109 Co103 2.052 . S
O109 C105 1.241 . S
O110 Co98 2.137 1_655 S
O110 C101 1.247 . S
O111 Co98 2.244 . S
O111 C101 1.272 1_455 S
O111 Co103 2.135 . S
Co112 O113 2.216 . S
Co112 O114 2.091 . S
Co112 O116 2.004 . S
Co112 O122 2.021 . S
Co112 O124 2.137 . S
Co112 O125 2.244 . S
O113 Co112 2.216 . S
O113 C120 1.247 . S
O114 Co112 2.091 . S
O114 C120 1.261 . S
C115 O124 1.247 . S
C115 O125 1.272 . S
O116 Co112 2.004 . S
O116 C121 1.259 . S
Co117 O118 2.061 . S
Co117 O123 2.052 . S
Co117 O125 2.135 . S
O118 Co117 2.061 . S
O118 C121 1.235 . S
C119 O122 1.238 . S
C119 O123 1.241 . S
C120 O113 1.247 . S
C120 O114 1.261 . S
C121 O116 1.259 . S
C121 O118 1.235 . S
O122 Co112 2.021 . S
O122 C119 1.238 . S
O123 Co117 2.052 . S
O123 C119 1.241 . S
O124 Co112 2.137 . S
O124 C115 1.247 . S
O125 Co112 2.244 . S
O125 C115 1.272 . S
O125 Co117 2.135 . S
Co126 O127 2.216 . S
Co126 O128 2.091 . S
Co126 O130 2.004 . S
Co126 O136 2.021 . S
Co126 O138 2.137 1_655 S
Co126 O139 2.244 . S
O127 Co126 2.216 . S
O127 C134 1.247 . S
O128 Co126 2.091 . S
O128 C134 1.261 . S
C129 O138 1.247 . S
C129 O139 1.272 1_455 S
O130 Co126 2.004 . S
O130 C135 1.259 . S
Co131 O132 2.061 . S
Co131 O137 2.052 . S
Co131 O139 2.135 . S
O132 Co131 2.061 . S
O132 C135 1.235 . S
C133 O136 1.238 . S
C133 O137 1.241 . S
C134 O127 1.247 . S
C134 O128 1.261 . S
C135 O130 1.259 . S
C135 O132 1.235 . S
O136 Co126 2.021 . S
O136 C133 1.238 . S
O137 Co131 2.052 . S
O137 C133 1.241 . S
O138 Co126 2.137 1_455 S
O138 C129 1.247 . S
O139 Co126 2.244 . S
O139 C129 1.272 1_655 S
O139 Co131 2.135 . S
Co140 O141 2.216 . S
Co140 O142 2.091 . S
Co140 O144 2.004 . S
Co140 O150 2.021 . S
Co140 O152 2.137 . S
Co140 O153 2.244 . S
O141 Co140 2.216 . S
O141 C148 1.247 . S
O142 Co140 2.091 . S
O142 C148 1.261 . S
C143 O152 1.247 . S
C143 O153 1.272 . S
O144 Co140 2.004 . S
O144 C149 1.259 . S
Co145 O146 2.061 . S
Co145 O151 2.052 . S
Co145 O153 2.135 . S
O146 Co145 2.061 . S
O146 C149 1.235 . S
C147 O150 1.238 . S
C147 O151 1.241 . S
C148 O141 1.247 . S
C148 O142 1.261 . S
C149 O144 1.259 . S
C149 O146 1.235 . S
O150 Co140 2.021 . S
O150 C147 1.238 . S
O151 Co145 2.052 . S
O151 C147 1.241 . S
O152 Co140 2.137 . S
O152 C143 1.247 . S
O153 Co140 2.244 . S
O153 C143 1.272 . S
O153 Co145 2.135 . S
Co154 O155 2.216 . S
Co154 O156 2.091 . S
Co154 O158 2.004 . S
Co154 O164 2.021 . S
Co154 O166 2.137 1_545 S
Co154 O167 2.244 . S
O155 Co154 2.216 . S
O155 C162 1.247 . S
O156 Co154 2.091 . S
O156 C162 1.261 . S
C157 O166 1.247 . S
C157 O167 1.272 1_565 S
O158 Co154 2.004 . S
O158 C163 1.259 . S
Co159 O160 2.061 . S
Co159 O165 2.052 . S
Co159 O167 2.135 . S
O160 Co159 2.061 . S
O160 C163 1.235 . S
C161 O164 1.238 . S
C161 O165 1.241 . S
C162 O155 1.247 . S
C162 O156 1.261 . S
C163 O158 1.259 . S
C163 O160 1.235 . S
O164 Co154 2.021 . S
O164 C161 1.238 . S
O165 Co159 2.052 . S
O165 C161 1.241 . S
O166 Co154 2.137 1_565 S
O166 C157 1.247 . S
O167 Co154 2.244 . S
O167 C157 1.272 1_545 S
O167 Co159 2.135 . S
Co168 O169 2.216 . S
Co168 O170 2.091 . S
Co168 O172 2.004 . S
Co168 O178 2.021 . S
Co168 O180 2.137 . S
Co168 O181 2.244 . S
O169 Co168 2.216 . S
O169 C176 1.247 . S
O170 Co168 2.091 . S
O170 C176 1.261 . S
C171 O180 1.247 . S
C171 O181 1.272 . S
O172 Co168 2.004 . S
O172 C177 1.259 . S
Co173 O174 2.061 . S
Co173 O179 2.052 . S
Co173 O181 2.135 . S
O174 Co173 2.061 . S
O174 C177 1.235 . S
C175 O178 1.238 . S
C175 O179 1.241 . S
C176 O169 1.247 . S
C176 O170 1.261 . S
C177 O172 1.259 . S
C177 O174 1.235 . S
O178 Co168 2.021 . S
O178 C175 1.238 . S
O179 Co173 2.052 . S
O179 C175 1.241 . S
O180 Co168 2.137 . S
O180 C171 1.247 . S
O181 Co168 2.244 . S
O181 C171 1.272 . S
O181 Co173 2.135 . S
Co182 O183 2.216 . S
Co182 O184 2.091 . S
Co182 O186 2.004 . S
Co182 O192 2.021 . S
Co182 O194 2.137 . S
Co182 O195 2.244 . S
O183 Co182 2.216 . S
O183 C190 1.247 . S
O184 Co182 2.091 . S
O184 C190 1.261 . S
C185 O194 1.247 . S
C185 O195 1.272 . S
O186 Co182 2.004 . S
O186 C191 1.259 . S
Co187 O188 2.061 . S
Co187 O193 2.052 . S
Co187 O195 2.135 . S
O188 Co187 2.061 . S
O188 C191 1.235 . S
C189 O192 1.238 . S
C189 O193 1.241 . S
C190 O183 1.247 . S
C190 O184 1.261 . S
C191 O186 1.259 . S
C191 O188 1.235 . S
O192 Co182 2.021 . S
O192 C189 1.238 . S
O193 Co187 2.052 . S
O193 C189 1.241 . S
O194 Co182 2.137 . S
O194 C185 1.247 . S
O195 Co182 2.244 . S
O195 C185 1.272 . S
O195 Co187 2.135 . S
Co196 O197 2.216 . S
Co196 O198 2.091 . S
Co196 O200 2.004 . S
Co196 O206 2.021 . S
Co196 O208 2.137 . S
Co196 O209 2.244 . S
O197 Co196 2.216 . S
O197 C204 1.247 . S
O198 Co196 2.091 . S
O198 C204 1.261 . S
C199 O208 1.247 . S
C199 O209 1.272 . S
O200 Co196 2.004 . S
O200 C205 1.259 . S
Co201 O202 2.061 . S
Co201 O207 2.052 . S
Co201 O209 2.135 . S
O202 Co201 2.061 . S
O202 C205 1.235 . S
C203 O206 1.238 . S
C203 O207 1.241 . S
C204 O197 1.247 . S
C204 O198 1.261 . S
C205 O200 1.259 . S
C205 O202 1.235 . S
O206 Co196 2.021 . S
O206 C203 1.238 . S
O207 Co201 2.052 . S
O207 C203 1.241 . S
O208 Co196 2.137 . S
O208 C199 1.247 . S
O209 Co196 2.244 . S
O209 C199 1.272 . S
O209 Co201 2.135 . S
Co210 O211 2.216 . S
Co210 O212 2.091 . S
Co210 O214 2.004 . S
Co210 O220 2.021 . S
Co210 O222 2.137 . S
Co210 O223 2.244 . S
O211 Co210 2.216 . S
O211 C218 1.247 . S
O212 Co210 2.091 . S
O212 C218 1.261 . S
C213 O222 1.247 . S
C213 O223 1.272 . S
O214 Co210 2.004 . S
O214 C219 1.259 . S
Co215 O216 2.061 . S
Co215 O221 2.052 . S
Co215 O223 2.135 . S
O216 Co215 2.061 . S
O216 C219 1.235 . S
C217 O220 1.238 . S
C217 O221 1.241 . S
C218 O211 1.247 . S
C218 O212 1.261 . S
C219 O214 1.259 . S
C219 O216 1.235 . S
O220 Co210 2.021 . S
O220 C217 1.238 . S
O221 Co215 2.052 . S
O221 C217 1.241 . S
O222 Co210 2.137 . S
O222 C213 1.247 . S
O223 Co210 2.244 . S
O223 C213 1.272 . S
O223 Co215 2.135 . S
Co224 O225 2.216 . S
Co224 O226 2.091 . S
Co224 O228 2.004 . S
Co224 O234 2.021 . S
Co224 O236 2.137 . S
Co224 O237 2.244 . S
O225 Co224 2.216 . S
O225 C232 1.247 . S
O226 Co224 2.091 . S
O226 C232 1.261 . S
C227 O236 1.247 . S
C227 O237 1.272 . S
O228 Co224 2.004 . S
O228 C233 1.259 . S
Co229 O230 2.061 . S
Co229 O235 2.052 . S
Co229 O237 2.135 . S
O230 Co229 2.061 . S
O230 C233 1.235 . S
C231 O234 1.238 . S
C231 O235 1.241 . S
C232 O225 1.247 . S
C232 O226 1.261 . S
C233 O228 1.259 . S
C233 O230 1.235 . S
O234 Co224 2.021 . S
O234 C231 1.238 . S
O235 Co229 2.052 . S
O235 C231 1.241 . S
O236 Co224 2.137 . S
O236 C227 1.247 . S
O237 Co224 2.244 . S
O237 C227 1.272 . S
O237 Co229 2.135 . S
Co238 O239 2.216 . S
Co238 O240 2.091 . S
Co238 O242 2.004 . S
Co238 O248 2.021 . S
Co238 O250 2.137 . S
Co238 O251 2.244 . S
O239 Co238 2.216 . S
O239 C246 1.247 . S
O240 Co238 2.091 . S
O240 C246 1.261 . S
C241 O250 1.247 . S
C241 O251 1.272 . S
O242 Co238 2.004 . S
O242 C247 1.259 . S
Co243 O244 2.061 . S
Co243 O249 2.052 . S
Co243 O251 2.135 . S
O244 Co243 2.061 . S
O244 C247 1.235 . S
C245 O248 1.238 . S
C245 O249 1.241 . S
C246 O239 1.247 . S
C246 O240 1.261 . S
C247 O242 1.259 . S
C247 O244 1.235 . S
O248 Co238 2.021 . S
O248 C245 1.238 . S
O249 Co243 2.052 . S
O249 C245 1.241 . S
O250 Co238 2.137 . S
O250 C241 1.247 . S
O251 Co238 2.244 . S
O251 C241 1.272 . S
O251 Co243 2.135 . S
Co252 O253 2.216 . S
Co252 O254 2.091 . S
Co252 O256 2.004 . S
Co252 O262 2.021 . S
Co252 O264 2.137 . S
Co252 O265 2.244 . S
O253 Co252 2.216 . S
O253 C260 1.247 . S
O254 Co252 2.091 . S
O254 C260 1.261 . S
C255 O264 1.247 . S
C255 O265 1.272 . S
O256 Co252 2.004 . S
O256 C261 1.259 . S
Co257 O258 2.061 . S
Co257 O263 2.052 . S
Co257 O265 2.135 . S
O258 Co257 2.061 . S
O258 C261 1.235 . S
C259 O262 1.238 . S
C259 O263 1.241 . S
C260 O253 1.247 . S
C260 O254 1.261 . S
C261 O256 1.259 . S
C261 O258 1.235 . S
O262 Co252 2.021 . S
O262 C259 1.238 . S
O263 Co257 2.052 . S
O263 C259 1.241 . S
O264 Co252 2.137 . S
O264 C255 1.247 . S
O265 Co252 2.244 . S
O265 C255 1.272 . S
O265 Co257 2.135 . S
Co266 O267 2.216 . S
Co266 O268 2.091 . S
Co266 O270 2.004 . S
Co266 O276 2.021 . S
Co266 O278 2.137 . S
Co266 O279 2.244 . S
O267 Co266 2.216 . S
O267 C274 1.247 . S
O268 Co266 2.091 . S
O268 C274 1.261 . S
C269 O278 1.247 . S
C269 O279 1.272 . S
O270 Co266 2.004 . S
O270 C275 1.259 . S
Co271 O272 2.061 . S
Co271 O277 2.052 . S
Co271 O279 2.135 . S
O272 Co271 2.061 . S
O272 C275 1.235 . S
C273 O276 1.238 . S
C273 O277 1.241 . S
C274 O267 1.247 . S
C274 O268 1.261 . S
C275 O270 1.259 . S
C275 O272 1.235 . S
O276 Co266 2.021 . S
O276 C273 1.238 . S
O277 Co271 2.052 . S
O277 C273 1.241 . S
O278 Co266 2.137 . S
O278 C269 1.247 . S
O279 Co266 2.244 . S
O279 C269 1.272 . S
O279 Co271 2.135 . S
Co280 O281 2.216 . S
Co280 O282 2.091 . S
Co280 O284 2.004 . S
Co280 O290 2.021 . S
Co280 O292 2.137 . S
Co280 O293 2.244 . S
O281 Co280 2.216 . S
O281 C288 1.247 . S
O282 Co280 2.091 . S
O282 C288 1.261 . S
C283 O292 1.247 . S
C283 O293 1.272 . S
O284 Co280 2.004 . S
O284 C289 1.259 . S
Co285 O286 2.061 . S
Co285 O291 2.052 . S
Co285 O293 2.135 . S
O286 Co285 2.061 . S
O286 C289 1.235 . S
C287 O290 1.238 . S
C287 O291 1.241 . S
C288 O281 1.247 . S
C288 O282 1.261 . S
C289 O284 1.259 . S
C289 O286 1.235 . S
O290 Co280 2.021 . S
O290 C287 1.238 . S
O291 Co285 2.052 . S
O291 C287 1.241 . S
O292 Co280 2.137 . S
O292 C283 1.247 . S
O293 Co280 2.244 . S
O293 C283 1.272 . S
O293 Co285 2.135 . S
Co294 O295 2.216 . S
Co294 O296 2.091 . S
Co294 O298 2.004 . S
Co294 O304 2.021 . S
Co294 O306 2.137 . S
Co294 O307 2.244 . S
O295 Co294 2.216 . S
O295 C302 1.247 . S
O296 Co294 2.091 . S
O296 C302 1.261 . S
C297 O306 1.247 . S
C297 O307 1.272 . S
O298 Co294 2.004 . S
O298 C303 1.259 . S
Co299 O300 2.061 . S
Co299 O305 2.052 . S
Co299 O307 2.135 . S
O300 Co299 2.061 . S
O300 C303 1.235 . S
C301 O304 1.238 . S
C301 O305 1.241 . S
C302 O295 1.247 . S
C302 O296 1.261 . S
C303 O298 1.259 . S
C303 O300 1.235 . S
O304 Co294 2.021 . S
O304 C301 1.238 . S
O305 Co299 2.052 . S
O305 C301 1.241 . S
O306 Co294 2.137 . S
O306 C297 1.247 . S
O307 Co294 2.244 . S
O307 C297 1.272 . S
O307 Co299 2.135 . S
Co308 O309 2.216 . S
Co308 O310 2.091 . S
Co308 O312 2.004 . S
Co308 O318 2.021 . S
Co308 O320 2.137 . S
Co308 O321 2.244 . S
O309 Co308 2.216 . S
O309 C316 1.247 . S
O310 Co308 2.091 . S
O310 C316 1.261 . S
C311 O320 1.247 . S
C311 O321 1.272 . S
O312 Co308 2.004 . S
O312 C317 1.259 . S
Co313 O314 2.061 . S
Co313 O319 2.052 . S
Co313 O321 2.135 . S
O314 Co313 2.061 . S
O314 C317 1.235 . S
C315 O318 1.238 . S
C315 O319 1.241 . S
C316 O309 1.247 . S
C316 O310 1.261 . S
C317 O312 1.259 . S
C317 O314 1.235 . S
O318 Co308 2.021 . S
O318 C315 1.238 . S
O319 Co313 2.052 . S
O319 C315 1.241 . S
O320 Co308 2.137 . S
O320 C311 1.247 . S
O321 Co308 2.244 . S
O321 C311 1.272 . S
O321 Co313 2.135 . S
Co322 O323 2.216 . S
Co322 O324 2.091 . S
Co322 O326 2.004 . S
Co322 O332 2.021 . S
Co322 O334 2.137 . S
Co322 O335 2.244 . S
O323 Co322 2.216 . S
O323 C330 1.247 . S
O324 Co322 2.091 . S
O324 C330 1.261 . S
C325 O334 1.247 . S
C325 O335 1.272 . S
O326 Co322 2.004 . S
O326 C331 1.259 . S
Co327 O328 2.061 . S
Co327 O333 2.052 . S
Co327 O335 2.135 . S
O328 Co327 2.061 . S
O328 C331 1.235 . S
C329 O332 1.238 . S
C329 O333 1.241 . S
C330 O323 1.247 . S
C330 O324 1.261 . S
C331 O326 1.259 . S
C331 O328 1.235 . S
O332 Co322 2.021 . S
O332 C329 1.238 . S
O333 Co327 2.052 . S
O333 C329 1.241 . S
O334 Co322 2.137 . S
O334 C325 1.247 . S
O335 Co322 2.244 . S
O335 C325 1.272 . S
O335 Co327 2.135 . S
Co336 O337 2.216 . S
Co336 O338 2.091 . S
Co336 O340 2.004 . S
Co336 O346 2.021 . S
Co336 O348 2.137 . S
Co336 O349 2.244 . S
O337 Co336 2.216 . S
O337 C344 1.247 . S
O338 Co336 2.091 . S
O338 C344 1.261 . S
C339 O348 1.247 . S
C339 O349 1.272 . S
O340 Co336 2.004 . S
O340 C345 1.259 . S
Co341 O342 2.061 . S
Co341 O347 2.052 . S
Co341 O349 2.135 . S
O342 Co341 2.061 . S
O342 C345 1.235 . S
C343 O346 1.238 . S
C343 O347 1.241 . S
C344 O337 1.247 . S
C344 O338 1.261 . S
C345 O340 1.259 . S
C345 O342 1.235 . S
O346 Co336 2.021 . S
O346 C343 1.238 . S
O347 Co341 2.052 . S
O347 C343 1.241 . S
O348 Co336 2.137 . S
O348 C339 1.247 . S
O349 Co336 2.244 . S
O349 C339 1.272 . S
O349 Co341 2.135 . S
Co350 O351 2.216 . S
Co350 O352 2.091 . S
Co350 O354 2.004 . S
Co350 O360 2.021 . S
Co350 O362 2.137 . S
Co350 O363 2.244 . S
O351 Co350 2.216 . S
O351 C358 1.247 . S
O352 Co350 2.091 . S
O352 C358 1.261 . S
C353 O362 1.247 . S
C353 O363 1.272 . S
O354 Co350 2.004 . S
O354 C359 1.259 . S
Co355 O356 2.061 . S
Co355 O361 2.052 . S
Co355 O363 2.135 . S
O356 Co355 2.061 . S
O356 C359 1.235 . S
C357 O360 1.238 . S
C357 O361 1.241 . S
C358 O351 1.247 . S
C358 O352 1.261 . S
C359 O354 1.259 . S
C359 O356 1.235 . S
O360 Co350 2.021 . S
O360 C357 1.238 . S
O361 Co355 2.052 . S
O361 C357 1.241 . S
O362 Co350 2.137 . S
O362 C353 1.247 . S
O363 Co350 2.244 . S
O363 C353 1.272 . S
O363 Co355 2.135 . S
Co364 O365 2.216 . S
Co364 O366 2.091 . S
Co364 O368 2.004 . S
Co364 O374 2.021 . S
Co364 O376 2.137 . S
Co364 O377 2.244 . S
O365 Co364 2.216 . S
O365 C372 1.247 . S
O366 Co364 2.091 . S
O366 C372 1.261 . S
C367 O376 1.247 . S
C367 O377 1.272 . S
O368 Co364 2.004 . S
O368 C373 1.259 . S
Co369 O370 2.061 . S
Co369 O375 2.052 . S
Co369 O377 2.135 . S
O370 Co369 2.061 . S
O370 C373 1.235 . S
C371 O374 1.238 . S
C371 O375 1.241 . S
C372 O365 1.247 . S
C372 O366 1.261 . S
C373 O368 1.259 . S
C373 O370 1.235 . S
O374 Co364 2.021 . S
O374 C371 1.238 . S
O375 Co369 2.052 . S
O375 C371 1.241 . S
O376 Co364 2.137 . S
O376 C367 1.247 . S
O377 Co364 2.244 . S
O377 C367 1.272 . S
O377 Co369 2.135 . S
Co378 O379 2.216 . S
Co378 O380 2.091 . S
Co378 O382 2.004 . S
Co378 O388 2.021 . S
Co378 O390 2.137 . S
Co378 O391 2.244 . S
O379 Co378 2.216 . S
O379 C386 1.247 . S
O380 Co378 2.091 . S
O380 C386 1.261 . S
C381 O390 1.247 . S
C381 O391 1.272 . S
O382 Co378 2.004 . S
O382 C387 1.259 . S
Co383 O384 2.061 . S
Co383 O389 2.052 . S
Co383 O391 2.135 . S
O384 Co383 2.061 . S
O384 C387 1.235 . S
C385 O388 1.238 . S
C385 O389 1.241 . S
C386 O379 1.247 . S
C386 O380 1.261 . S
C387 O382 1.259 . S
C387 O384 1.235 . S
O388 Co378 2.021 . S
O388 C385 1.238 . S
O389 Co383 2.052 . S
O389 C385 1.241 . S
O390 Co378 2.137 . S
O390 C381 1.247 . S
O391 Co378 2.244 . S
O391 C381 1.272 . S
O391 Co383 2.135 . S
Co392 O393 2.216 . S
Co392 O394 2.091 . S
Co392 O396 2.004 . S
Co392 O402 2.021 . S
Co392 O404 2.137 . S
Co392 O405 2.244 . S
O393 Co392 2.216 . S
O393 C400 1.247 . S
O394 Co392 2.091 . S
O394 C400 1.261 . S
C395 O404 1.247 . S
C395 O405 1.272 . S
O396 Co392 2.004 . S
O396 C401 1.259 . S
Co397 O398 2.061 . S
Co397 O403 2.052 . S
Co397 O405 2.135 . S
O398 Co397 2.061 . S
O398 C401 1.235 . S
C399 O402 1.238 . S
C399 O403 1.241 . S
C400 O393 1.247 . S
C400 O394 1.261 . S
C401 O396 1.259 . S
C401 O398 1.235 . S
O402 Co392 2.021 . S
O402 C399 1.238 . S
O403 Co397 2.052 . S
O403 C399 1.241 . S
O404 Co392 2.137 . S
O404 C395 1.247 . S
O405 Co392 2.244 . S
O405 C395 1.272 . S
O405 Co397 2.135 . S
Co406 O407 2.216 . S
Co406 O408 2.091 . S
Co406 O410 2.004 . S
Co406 O416 2.021 . S
Co406 O418 2.137 . S
Co406 O419 2.244 . S
O407 Co406 2.216 . S
O407 C414 1.247 . S
O408 Co406 2.091 . S
O408 C414 1.261 . S
C409 O418 1.247 . S
C409 O419 1.272 . S
O410 Co406 2.004 . S
O410 C415 1.259 . S
Co411 O412 2.061 . S
Co411 O417 2.052 . S
Co411 O419 2.135 . S
O412 Co411 2.061 . S
O412 C415 1.235 . S
C413 O416 1.238 . S
C413 O417 1.241 . S
C414 O407 1.247 . S
C414 O408 1.261 . S
C415 O410 1.259 . S
C415 O412 1.235 . S
O416 Co406 2.021 . S
O416 C413 1.238 . S
O417 Co411 2.052 . S
O417 C413 1.241 . S
O418 Co406 2.137 . S
O418 C409 1.247 . S
O419 Co406 2.244 . S
O419 C409 1.272 . S
O419 Co411 2.135 . S
Co420 O421 2.216 . S
Co420 O422 2.091 . S
Co420 O424 2.004 . S
Co420 O430 2.021 . S
Co420 O432 2.137 . S
Co420 O433 2.244 . S
O421 Co420 2.216 . S
O421 C428 1.247 . S
O422 Co420 2.091 . S
O422 C428 1.261 . S
C423 O432 1.247 . S
C423 O433 1.272 . S
O424 Co420 2.004 . S
O424 C429 1.259 . S
Co425 O426 2.061 . S
Co425 O431 2.052 . S
Co425 O433 2.135 . S
O426 Co425 2.061 . S
O426 C429 1.235 . S
C427 O430 1.238 . S
C427 O431 1.241 . S
C428 O421 1.247 . S
C428 O422 1.261 . S
C429 O424 1.259 . S
C429 O426 1.235 . S
O430 Co420 2.021 . S
O430 C427 1.238 . S
O431 Co425 2.052 . S
O431 C427 1.241 . S
O432 Co420 2.137 . S
O432 C423 1.247 . S
O433 Co420 2.244 . S
O433 C423 1.272 . S
O433 Co425 2.135 . S
Co434 O435 2.216 . S
Co434 O436 2.091 . S
Co434 O438 2.004 . S
Co434 O444 2.021 . S
Co434 O446 2.137 . S
Co434 O447 2.244 . S
O435 Co434 2.216 . S
O435 C442 1.247 . S
O436 Co434 2.091 . S
O436 C442 1.261 . S
C437 O446 1.247 . S
C437 O447 1.272 . S
O438 Co434 2.004 . S
O438 C443 1.259 . S
Co439 O440 2.061 . S
Co439 O445 2.052 . S
Co439 O447 2.135 . S
O440 Co439 2.061 . S
O440 C443 1.235 . S
C441 O444 1.238 . S
C441 O445 1.241 . S
C442 O435 1.247 . S
C442 O436 1.261 . S
C443 O438 1.259 . S
C443 O440 1.235 . S
O444 Co434 2.021 . S
O444 C441 1.238 . S
O445 Co439 2.052 . S
O445 C441 1.241 . S
O446 Co434 2.137 . S
O446 C437 1.247 . S
O447 Co434 2.244 . S
O447 C437 1.272 . S
O447 Co439 2.135 . S
Co448 O449 2.216 . S
Co448 O450 2.091 . S
Co448 O452 2.004 . S
Co448 O458 2.021 . S
Co448 O460 2.137 . S
Co448 O461 2.244 . S
O449 Co448 2.216 . S
O449 C456 1.247 . S
O450 Co448 2.091 . S
O450 C456 1.261 . S
C451 O460 1.247 . S
C451 O461 1.272 . S
O452 Co448 2.004 . S
O452 C457 1.259 . S
Co453 O454 2.061 . S
Co453 O459 2.052 . S
Co453 O461 2.135 . S
O454 Co453 2.061 . S
O454 C457 1.235 . S
C455 O458 1.238 . S
C455 O459 1.241 . S
C456 O449 1.247 . S
C456 O450 1.261 . S
C457 O452 1.259 . S
C457 O454 1.235 . S
O458 Co448 2.021 . S
O458 C455 1.238 . S
O459 Co453 2.052 . S
O459 C455 1.241 . S
O460 Co448 2.137 . S
O460 C451 1.247 . S
O461 Co448 2.244 . S
O461 C451 1.272 . S
O461 Co453 2.135 . S
Co462 O463 2.216 . S
Co462 O464 2.091 . S
Co462 O466 2.004 . S
Co462 O472 2.021 . S
Co462 O474 2.137 . S
Co462 O475 2.244 . S
O463 Co462 2.216 . S
O463 C470 1.247 . S
O464 Co462 2.091 . S
O464 C470 1.261 . S
C465 O474 1.247 . S
C465 O475 1.272 . S
O466 Co462 2.004 . S
O466 C471 1.259 . S
Co467 O468 2.061 . S
Co467 O473 2.052 . S
Co467 O475 2.135 . S
O468 Co467 2.061 . S
O468 C471 1.235 . S
C469 O472 1.238 . S
C469 O473 1.241 . S
C470 O463 1.247 . S
C470 O464 1.261 . S
C471 O466 1.259 . S
C471 O468 1.235 . S
O472 Co462 2.021 . S
O472 C469 1.238 . S
O473 Co467 2.052 . S
O473 C469 1.241 . S
O474 Co462 2.137 . S
O474 C465 1.247 . S
O475 Co462 2.244 . S
O475 C465 1.272 . S
O475 Co467 2.135 . S
Co476 O477 2.216 . S
Co476 O478 2.091 . S
Co476 O480 2.004 . S
Co476 O486 2.021 . S
Co476 O488 2.137 . S
Co476 O489 2.244 . S
O477 Co476 2.216 . S
O477 C484 1.247 . S
O478 Co476 2.091 . S
O478 C484 1.261 . S
C479 O488 1.247 . S
C479 O489 1.272 . S
O480 Co476 2.004 . S
O480 C485 1.259 . S
Co481 O482 2.061 . S
Co481 O487 2.052 . S
Co481 O489 2.135 . S
O482 Co481 2.061 . S
O482 C485 1.235 . S
C483 O486 1.238 . S
C483 O487 1.241 . S
C484 O477 1.247 . S
C484 O478 1.261 . S
C485 O480 1.259 . S
C485 O482 1.235 . S
O486 Co476 2.021 . S
O486 C483 1.238 . S
O487 Co481 2.052 . S
O487 C483 1.241 . S
O488 Co476 2.137 . S
O488 C479 1.247 . S
O489 Co476 2.244 . S
O489 C479 1.272 . S
O489 Co481 2.135 . S
Co490 O491 2.216 . S
Co490 O492 2.091 . S
Co490 O494 2.004 . S
Co490 O500 2.021 . S
Co490 O502 2.137 . S
Co490 O503 2.244 . S
O491 Co490 2.216 . S
O491 C498 1.247 . S
O492 Co490 2.091 . S
O492 C498 1.261 . S
C493 O502 1.247 . S
C493 O503 1.272 . S
O494 Co490 2.004 . S
O494 C499 1.259 . S
Co495 O496 2.061 . S
Co495 O501 2.052 . S
Co495 O503 2.135 . S
O496 Co495 2.061 . S
O496 C499 1.235 . S
C497 O500 1.238 . S
C497 O501 1.241 . S
C498 O491 1.247 . S
C498 O492 1.261 . S
C499 O494 1.259 . S
C499 O496 1.235 . S
O500 Co490 2.021 . S
O500 C497 1.238 . S
O501 Co495 2.052 . S
O501 C497 1.241 . S
O502 Co490 2.137 . S
O502 C493 1.247 . S
O503 Co490 2.244 . S
O503 C493 1.272 . S
O503 Co495 2.135 . S
C504 C505 1.387 . S
C504 H508 0.950 . S
C504 C513 1.390 . S
C505 C504 1.387 . S
C505 C507 1.387 . S
H506 C513 0.950 . S
C507 C505 1.387 . S
C507 C509 1.390 . S
C507 H511 0.950 . S
H508 C504 0.950 . S
C509 C507 1.390 . S
C509 C510 1.387 . S
C509 H512 0.950 . S
C510 C509 1.387 . S
C510 C513 1.387 . S
H511 C507 0.950 . S
H512 C509 0.950 . S
C513 C504 1.390 . S
C513 H506 0.950 . S
C513 C510 1.387 . S
C514 C515 1.387 . S
C514 H518 0.950 . S
C514 C523 1.390 . S
C515 C514 1.387 . S
C515 C517 1.387 . S
H516 C523 0.950 . S
C517 C515 1.387 . S
C517 C519 1.390 . S
C517 H521 0.950 . S
H518 C514 0.950 . S
C519 C517 1.390 . S
C519 C520 1.387 . S
C519 H522 0.950 . S
C520 C519 1.387 . S
C520 C523 1.387 . S
H521 C517 0.950 . S
H522 C519 0.950 . S
C523 C514 1.390 . S
C523 H516 0.950 . S
C523 C520 1.387 . S
C524 C525 1.387 . S
C524 H528 0.950 . S
C524 C533 1.390 . S
C525 C524 1.387 . S
C525 C527 1.387 . S
H526 C533 0.950 . S
C527 C525 1.387 . S
C527 C529 1.390 . S
C527 H531 0.950 . S
H528 C524 0.950 . S
C529 C527 1.390 . S
C529 C530 1.387 . S
C529 H532 0.950 . S
C530 C529 1.387 . S
C530 C533 1.387 . S
H531 C527 0.950 . S
H532 C529 0.950 . S
C533 C524 1.390 . S
C533 H526 0.950 . S
C533 C530 1.387 . S
C534 C535 1.387 . S
C534 H538 0.950 . S
C534 C543 1.390 . S
C535 C534 1.387 . S
C535 C537 1.387 . S
H536 C543 0.950 . S
C537 C535 1.387 . S
C537 C539 1.390 . S
C537 H541 0.950 . S
H538 C534 0.950 . S
C539 C537 1.390 . S
C539 C540 1.387 . S
C539 H542 0.950 . S
C540 C539 1.387 . S
C540 C543 1.387 . S
H541 C537 0.950 . S
H542 C539 0.950 . S
C543 C534 1.390 . S
C543 H536 0.950 . S
C543 C540 1.387 . S
C544 C545 1.387 . S
C544 H548 0.950 . S
C544 C553 1.390 . S
C545 C544 1.387 . S
C545 C547 1.387 . S
H546 C553 0.950 . S
C547 C545 1.387 . S
C547 C549 1.390 . S
C547 H551 0.950 . S
H548 C544 0.950 . S
C549 C547 1.390 . S
C549 C550 1.387 . S
C549 H552 0.950 . S
C550 C549 1.387 . S
C550 C553 1.387 . S
H551 C547 0.950 . S
H552 C549 0.950 . S
C553 C544 1.390 . S
C553 H546 0.950 . S
C553 C550 1.387 . S
C554 C555 1.387 . S
C554 H558 0.950 . S
C554 C563 1.390 . S
C555 C554 1.387 . S
C555 C557 1.387 . S
H556 C563 0.950 . S
C557 C555 1.387 . S
C557 C559 1.390 . S
C557 H561 0.950 . S
H558 C554 0.950 . S
C559 C557 1.390 . S
C559 C560 1.387 . S
C559 H562 0.950 . S
C560 C559 1.387 . S
C560 C563 1.387 . S
H561 C557 0.950 . S
H562 C559 0.950 . S
C563 C554 1.390 . S
C563 H556 0.950 . S
C563 C560 1.387 . S
C564 C565 1.387 . S
C564 H568 0.950 . S
C564 C573 1.390 . S
C565 C564 1.387 . S
C565 C567 1.387 . S
H566 C573 0.950 . S
C567 C565 1.387 . S
C567 C569 1.390 . S
C567 H571 0.950 . S
H568 C564 0.950 . S
C569 C567 1.390 . S
C569 C570 1.387 . S
C569 H572 0.950 . S
C570 C569 1.387 . S
C570 C573 1.387 . S
H571 C567 0.950 . S
H572 C569 0.950 . S
C573 C564 1.390 . S
C573 H566 0.950 . S
C573 C570 1.387 . S
C574 C575 1.387 . S
C574 H578 0.950 . S
C574 C583 1.390 . S
C575 C574 1.387 . S
C575 C577 1.387 . S
H576 C583 0.950 . S
C577 C575 1.387 . S
C577 C579 1.390 . S
C577 H581 0.950 . S
H578 C574 0.950 . S
C579 C577 1.390 . S
C579 C580 1.387 . S
C579 H582 0.950 . S
C580 C579 1.387 . S
C580 C583 1.387 . S
H581 C577 0.950 . S
H582 C579 0.950 . S
C583 C574 1.390 . S
C583 H576 0.950 . S
C583 C580 1.387 . S
C584 C585 1.387 . S
C584 H588 0.950 . S
C584 C593 1.390 . S
C585 C584 1.387 . S
C585 C587 1.387 . S
H586 C593 0.950 . S
C587 C585 1.387 . S
C587 C589 1.390 . S
C587 H591 0.950 . S
H588 C584 0.950 . S
C589 C587 1.390 . S
C589 C590 1.387 . S
C589 H592 0.950 . S
C590 C589 1.387 . S
C590 C593 1.387 . S
H591 C587 0.950 . S
H592 C589 0.950 . S
C593 C584 1.390 . S
C593 H586 0.950 . S
C593 C590 1.387 . S
C594 C595 1.387 . S
C594 H598 0.950 . S
C594 C603 1.390 . S
C595 C594 1.387 . S
C595 C597 1.387 . S
H596 C603 0.950 . S
C597 C595 1.387 . S
C597 C599 1.390 . S
C597 H601 0.950 . S
H598 C594 0.950 . S
C599 C597 1.390 . S
C599 C600 1.387 . S
C599 H602 0.950 . S
C600 C599 1.387 . S
C600 C603 1.387 . S
H601 C597 0.950 . S
H602 C599 0.950 . S
C603 C594 1.390 . S
C603 H596 0.950 . S
C603 C600 1.387 . S
C604 C605 1.387 . S
C604 H608 0.950 . S
C604 C613 1.390 . S
C605 C604 1.387 . S
C605 C607 1.387 . S
H606 C613 0.950 . S
C607 C605 1.387 . S
C607 C609 1.390 . S
C607 H611 0.950 . S
H608 C604 0.950 . S
C609 C607 1.390 . S
C609 C610 1.387 . S
C609 H612 0.950 . S
C610 C609 1.387 . S
C610 C613 1.387 . S
H611 C607 0.950 . S
H612 C609 0.950 . S
C613 C604 1.390 . S
C613 H606 0.950 . S
C613 C610 1.387 . S
C614 C615 1.387 . S
C614 H618 0.950 . S
C614 C623 1.390 . S
C615 C614 1.387 . S
C615 C617 1.387 . S
H616 C623 0.950 . S
C617 C615 1.387 . S
C617 C619 1.390 . S
C617 H621 0.950 . S
H618 C614 0.950 . S
C619 C617 1.390 . S
C619 C620 1.387 . S
C619 H622 0.950 . S
C620 C619 1.387 . S
C620 C623 1.387 . S
H621 C617 0.950 . S
H622 C619 0.950 . S
C623 C614 1.390 . S
C623 H616 0.950 . S
C623 C620 1.387 . S
C624 C625 1.387 . S
C624 H628 0.950 . S
C624 C633 1.390 . S
C625 C624 1.387 . S
C625 C627 1.387 1_455 S
H626 C633 0.950 . S
C627 C625 1.387 1_655 S
C627 C629 1.390 . S
C627 H631 0.950 . S
H628 C624 0.950 . S
C629 C627 1.390 . S
C629 C630 1.387 . S
C629 H632 0.950 . S
C630 C629 1.387 . S
C630 C633 1.387 1_655 S
H631 C627 0.950 . S
H632 C629 0.950 . S
C633 C624 1.390 . S
C633 H626 0.950 . S
C633 C630 1.387 1_455 S
C634 C635 1.387 . S
C634 H638 0.950 . S
C634 C643 1.390 . S
C635 C634 1.387 . S
C635 C637 1.387 . S
H636 C643 0.950 . S
C637 C635 1.387 . S
C637 C639 1.390 . S
C637 H641 0.950 . S
H638 C634 0.950 . S
C639 C637 1.390 . S
C639 C640 1.387 . S
C639 H642 0.950 . S
C640 C639 1.387 . S
C640 C643 1.387 . S
H641 C637 0.950 . S
H642 C639 0.950 . S
C643 C634 1.390 . S
C643 H636 0.950 . S
C643 C640 1.387 . S
C644 C645 1.387 . S
C644 H648 0.950 . S
C644 C653 1.390 1_545 S
C645 C644 1.387 . S
C645 C647 1.387 . S
H646 C653 0.950 . S
C647 C645 1.387 . S
C647 C649 1.390 1_545 S
C647 H651 0.950 . S
H648 C644 0.950 . S
C649 C647 1.390 1_565 S
C649 C650 1.387 . S
C649 H652 0.950 . S
C650 C649 1.387 . S
C650 C653 1.387 . S
H651 C647 0.950 . S
H652 C649 0.950 . S
C653 C644 1.390 1_565 S
C653 H646 0.950 . S
C653 C650 1.387 . S
C654 C655 1.387 1_545 S
C654 H658 0.950 . S
C654 C663 1.390 . S
C655 C654 1.387 1_565 S
C655 C657 1.387 1_554 S
H656 C663 0.950 . S
C657 C655 1.387 1_556 S
C657 C659 1.390 . S
C657 H661 0.950 . S
H658 C654 0.950 . S
C659 C657 1.390 . S
C659 C660 1.387 1_565 S
C659 H662 0.950 . S
C660 C659 1.387 1_545 S
C660 C663 1.387 1_556 S
H661 C657 0.950 . S
H662 C659 0.950 . S
C663 C654 1.390 . S
C663 H656 0.950 . S
C663 C660 1.387 1_554 S
C664 C665 1.387 . S
C664 H668 0.950 . S
C664 C673 1.390 1_556 S
C665 C664 1.387 . S
C665 C667 1.387 1_655 S
H666 C673 0.950 . S
C667 C665 1.387 1_455 S
C667 C669 1.390 1_556 S
C667 H671 0.950 . S
H668 C664 0.950 . S
C669 C667 1.390 1_554 S
C669 C670 1.387 . S
C669 H672 0.950 . S
C670 C669 1.387 . S
C670 C673 1.387 1_455 S
H671 C667 0.950 . S
H672 C669 0.950 . S
C673 C664 1.390 1_554 S
C673 H666 0.950 . S
C673 C670 1.387 1_655 S
C674 C675 1.387 . S
C674 H678 0.950 . S
C674 C683 1.390 1_556 S
C675 C674 1.387 . S
C675 C677 1.387 . S
H676 C683 0.950 . S
C677 C675 1.387 . S
C677 C679 1.390 1_556 S
C677 H681 0.950 . S
H678 C674 0.950 . S
C679 C677 1.390 1_554 S
C679 C680 1.387 . S
C679 H682 0.950 . S
C680 C679 1.387 . S
C680 C683 1.387 . S
H681 C677 0.950 . S
H682 C679 0.950 . S
C683 C674 1.390 1_554 S
C683 H676 0.950 . S
C683 C680 1.387 . S
C684 C685 1.378 1_565 S
C684 H688 0.950 . S
C684 C693 1.390 . S
C685 C684 1.378 1_545 S
C685 C687 1.387 . S
H686 C693 0.950 . S
C687 C685 1.387 . S
C687 C689 1.390 1_545 S
C687 H691 0.950 . S
H688 C684 0.950 . S
C689 C687 1.390 1_565 S
C689 C690 1.387 . S
C689 H692 0.950 . S
C690 C689 1.387 . S
C690 C693 1.387 . S
H691 C687 0.950 . S
H692 C689 0.950 . S
C693 C684 1.390 . S
C693 H686 0.950 . S
C693 C690 1.387 . S
C694 C695 1.387 . S
C694 H698 0.950 . S
C694 C703 1.390 . S
C695 C694 1.387 . S
C695 C697 1.387 1_455 S
H696 C703 0.950 . S
C697 C695 1.387 1_655 S
C697 C699 1.390 . S
C697 H701 0.950 . S
H698 C694 0.950 . S
C699 C697 1.390 . S
C699 C700 1.391 . S
C699 H702 0.950 . S
C700 C699 1.391 . S
C700 C703 1.384 1_655 S
H701 C697 0.950 . S
H702 C699 0.950 . S
C703 C694 1.390 . S
C703 H696 0.950 . S
C703 C700 1.384 1_455 S
C704 C705 1.387 . S
C704 H708 0.950 . S
C704 C713 1.390 . S
C705 C704 1.387 . S
C705 C707 1.387 . S
H706 C713 0.950 . S
C707 C705 1.387 . S
C707 C709 1.390 . S
C707 H711 0.950 . S
H708 C704 0.950 . S
C709 C707 1.390 . S
C709 C710 1.387 . S
C709 H712 0.950 . S
C710 C709 1.387 . S
C710 C713 1.387 . S
H711 C707 0.950 . S
H712 C709 0.950 . S
C713 C704 1.390 . S
C713 H706 0.950 . S
C713 C710 1.387 . S
C714 C715 1.387 . S
C714 H718 0.950 . S
C714 C723 1.390 . S
C715 C714 1.387 . S
C715 C717 1.387 . S
H716 C723 0.950 . S
C717 C715 1.387 . S
C717 C719 1.390 . S
C717 H721 0.950 . S
H718 C714 0.950 . S
C719 C717 1.390 . S
C719 C720 1.387 1_655 S
C719 H722 0.950 1_655 S
C720 C719 1.387 1_455 S
C720 C723 1.387 1_455 S
H721 C717 0.950 . S
H722 C719 0.950 1_455 S
C723 C714 1.390 . S
C723 H716 0.950 . S
C723 C720 1.387 1_655 S
C724 C725 1.387 . S
C724 H728 0.950 . S
C724 C733 1.390 . S
C725 C724 1.387 . S
C725 C727 1.387 . S
H726 C733 0.950 . S
C727 C725 1.387 . S
C727 C729 1.390 . S
C727 H731 0.950 . S
H728 C724 0.950 . S
C729 C727 1.390 . S
C729 C730 1.387 . S
C729 H732 0.950 . S
C730 C729 1.387 . S
C730 C733 1.387 . S
H731 C727 0.950 . S
H732 C729 0.950 . S
C733 C724 1.390 . S
C733 H726 0.950 . S
C733 C730 1.387 . S
C734 C735 1.387 . S
C734 H738 0.950 . S
C734 C743 1.390 . S
C735 C734 1.387 . S
C735 C737 1.387 . S
H736 C743 0.950 . S
C737 C735 1.387 . S
C737 C739 1.390 1_545 S
C737 H741 0.950 . S
H738 C734 0.950 . S
C739 C737 1.390 1_565 S
C739 C740 1.392 . S
C739 H742 0.950 . S
C740 C739 1.392 . S
C740 C743 1.383 1_565 S
H741 C737 0.950 . S
H742 C739 0.950 . S
C743 C734 1.390 . S
C743 H736 0.950 . S
C743 C740 1.383 1_545 S
C744 C745 1.387 1_545 S
C744 H748 0.950 . S
C744 C753 1.390 . S
C745 C744 1.387 1_565 S
C745 C747 1.387 1_565 S
H746 C753 0.950 . S
C747 C745 1.387 1_545 S
C747 C749 1.390 . S
C747 H751 0.950 1_545 S
H748 C744 0.950 . S
C749 C747 1.390 . S
C749 C750 1.387 . S
C749 H752 0.950 . S
C750 C749 1.387 . S
C750 C753 1.387 . S
H751 C747 0.950 1_565 S
H752 C749 0.950 . S
C753 C744 1.390 . S
C753 H746 0.950 . S
C753 C750 1.387 . S
C754 C755 1.387 . S
C754 H758 0.950 . S
C754 C763 1.390 . S
C755 C754 1.387 . S
C755 C757 1.387 1_655 S
H756 C763 0.950 . S
C757 C755 1.387 1_455 S
C757 C759 1.390 . S
C757 H761 0.950 . S
H758 C754 0.950 . S
C759 C757 1.390 . S
C759 C760 1.393 . S
C759 H762 0.950 . S
C760 C759 1.393 . S
C760 C763 1.382 1_455 S
H761 C757 0.950 . S
H762 C759 0.950 . S
C763 C754 1.390 . S
C763 H756 0.950 . S
C763 C760 1.382 1_655 S
C764 C765 1.387 . S
C764 H768 0.950 . S
C764 C773 1.390 . S
C765 C764 1.387 . S
C765 C767 1.387 . S
H766 C773 0.950 . S
C767 C765 1.387 . S
C767 C769 1.390 . S
C767 H771 0.950 . S
H768 C764 0.950 . S
C769 C767 1.390 . S
C769 C770 1.387 . S
C769 H772 0.950 . S
C770 C769 1.387 . S
C770 C773 1.387 . S
H771 C767 0.950 . S
H772 C769 0.950 . S
C773 C764 1.390 . S
C773 H766 0.950 . S
C773 C770 1.387 . S
C774 C775 1.382 1_455 S
C774 H778 0.950 . S
C774 C783 1.390 . S
C775 C774 1.382 1_655 S
C775 C777 1.388 . S
H776 C783 0.950 . S
C777 C775 1.388 . S
C777 C779 1.390 . S
C777 H781 0.950 . S
H778 C774 0.950 . S
C779 C777 1.390 . S
C779 C780 1.387 1_655 S
C779 H782 0.950 . S
C780 C779 1.387 1_455 S
C780 C783 1.387 . S
H781 C777 0.950 . S
H782 C779 0.950 . S
C783 C774 1.390 . S
C783 H776 0.950 . S
C783 C780 1.387 . S
C784 C785 1.387 . S
C784 H788 0.950 . S
C784 C793 1.390 . S
C785 C784 1.387 . S
C785 C787 1.387 . S
H786 C793 0.950 . S
C787 C785 1.387 . S
C787 C789 1.390 . S
C787 H791 0.950 . S
H788 C784 0.950 . S
C789 C787 1.390 . S
C789 C790 1.387 . S
C789 H792 0.950 . S
C790 C789 1.387 . S
C790 C793 1.387 . S
H791 C787 0.950 . S
H792 C789 0.950 . S
C793 C784 1.390 . S
C793 H786 0.950 . S
C793 C790 1.387 . S
C794 C795 1.387 1_565 S
C794 H798 0.950 . S
C794 C803 1.390 . S
C795 C794 1.387 1_545 S
C795 C797 1.388 . S
H796 C803 0.950 . S
C797 C795 1.388 . S
C797 C799 1.390 1_545 S
C797 H801 0.950 . S
H798 C794 0.950 . S
C799 C797 1.390 1_565 S
C799 C800 1.387 . S
C799 H802 0.950 1_565 S
C800 C799 1.387 . S
C800 C803 1.387 . S
H801 C797 0.950 . S
H802 C799 0.950 1_545 S
C803 C794 1.390 . S
C803 H796 0.950 . S
C803 C800 1.387 . S
C804 C805 1.387 . S
C804 H808 0.950 . S
C804 C813 1.390 . S
C805 C804 1.387 . S
C805 C807 1.387 . S
H806 C813 0.950 . S
C807 C805 1.387 . S
C807 C809 1.390 . S
C807 H811 0.950 . S
H808 C804 0.950 . S
C809 C807 1.390 . S
C809 C810 1.387 . S
C809 H812 0.950 . S
C810 C809 1.387 . S
C810 C813 1.387 . S
H811 C807 0.950 . S
H812 C809 0.950 . S
C813 C804 1.390 . S
C813 H806 0.950 . S
C813 C810 1.387 . S
C814 C815 1.387 . S
C814 H818 0.950 . S
C814 C823 1.390 1_545 S
C815 C814 1.387 . S
C815 C817 1.387 . S
H816 C823 0.950 . S
C817 C815 1.387 . S
C817 C819 1.390 1_545 S
C817 H821 0.950 . S
H818 C814 0.950 . S
C819 C817 1.390 1_565 S
C819 C820 1.387 . S
C819 H822 0.950 . S
C820 C819 1.387 . S
C820 C823 1.387 . S
H821 C817 0.950 . S
H822 C819 0.950 . S
C823 C814 1.390 1_565 S
C823 H816 0.950 . S
C823 C820 1.387 . S
C824 C825 1.387 . S
C824 H828 0.950 . S
C824 C833 1.390 1_655 S
C825 C824 1.387 . S
C825 C827 1.387 . S
H826 C833 0.950 . S
C827 C825 1.387 . S
C827 C829 1.390 1_655 S
C827 H831 0.950 . S
H828 C824 0.950 . S
C829 C827 1.390 1_455 S
C829 C830 1.387 . S
C829 H832 0.950 . S
C830 C829 1.387 . S
C830 C833 1.387 . S
H831 C827 0.950 . S
H832 C829 0.950 . S
C833 C824 1.390 1_455 S
C833 H826 0.950 . S
C833 C830 1.387 . S
C834 C835 1.387 . S
C834 H838 0.950 . S
C834 C843 1.390 . S
C835 C834 1.387 . S
C835 C837 1.387 . S
H836 C843 0.950 . S
C837 C835 1.387 . S
C837 C839 1.390 . S
C837 H841 0.950 . S
H838 C834 0.950 . S
C839 C837 1.390 . S
C839 C840 1.387 . S
C839 H842 0.950 . S
C840 C839 1.387 . S
C840 C843 1.387 . S
H841 C837 0.950 . S
H842 C839 0.950 . S
C843 C834 1.390 . S
C843 H836 0.950 . S
C843 C840 1.387 . S
C844 C845 1.387 . S
C844 H848 0.950 . S
C844 C853 1.390 1_565 S
C845 C844 1.387 . S
C845 C847 1.387 . S
H846 C853 0.950 . S
C847 C845 1.387 . S
C847 C849 1.390 1_565 S
C847 H851 0.950 . S
H848 C844 0.950 . S
C849 C847 1.390 1_545 S
C849 C850 1.387 . S
C849 H852 0.950 . S
C850 C849 1.387 . S
C850 C853 1.387 . S
H851 C847 0.950 . S
H852 C849 0.950 . S
C853 C844 1.390 1_545 S
C853 H846 0.950 . S
C853 C850 1.387 . S
C854 C855 1.387 . S
C854 H858 0.950 . S
C854 C863 1.390 1_655 S
C855 C854 1.387 . S
C855 C857 1.387 . S
H856 C863 0.950 . S
C857 C855 1.387 . S
C857 C859 1.390 1_655 S
C857 H861 0.950 . S
H858 C854 0.950 . S
C859 C857 1.390 1_455 S
C859 C860 1.387 . S
C859 H862 0.950 . S
C860 C859 1.387 . S
C860 C863 1.387 . S
H861 C857 0.950 . S
H862 C859 0.950 . S
C863 C854 1.390 1_455 S
C863 H856 0.950 . S
C863 C860 1.387 . S
C864 C865 1.387 . S
C864 H868 0.950 . S
C864 C873 1.390 . S
C865 C864 1.387 . S
C865 C867 1.387 . S
H866 C873 0.950 . S
C867 C865 1.387 . S
C867 C869 1.390 . S
C867 H871 0.950 . S
H868 C864 0.950 . S
C869 C867 1.390 . S
C869 C870 1.387 . S
C869 H872 0.950 . S
C870 C869 1.387 . S
C870 C873 1.387 . S
H871 C867 0.950 . S
H872 C869 0.950 . S
C873 C864 1.390 . S
C873 H866 0.950 . S
C873 C870 1.387 . S
C874 C875 1.387 . S
C874 H878 0.950 . S
C874 C883 1.390 1_545 S
C875 C874 1.387 . S
C875 C877 1.387 1_545 S
H876 C883 0.950 . S
C877 C875 1.387 1_565 S
C877 C879 1.390 . S
C877 H881 0.950 . S
H878 C874 0.950 . S
C879 C877 1.390 . S
C879 C880 1.387 . S
C879 H882 0.950 . S
C880 C879 1.387 . S
C880 C883 1.387 . S
H881 C877 0.950 . S
H882 C879 0.950 . S
C883 C874 1.390 1_565 S
C883 H876 0.950 . S
C883 C880 1.387 . S
C884 C885 1.387 1_455 S
C884 H888 0.950 . S
C884 C893 1.390 . S
C885 C884 1.387 1_655 S
C885 C887 1.387 1_655 S
H886 C893 0.950 . S
C887 C885 1.387 1_455 S
C887 C889 1.390 . S
C887 H891 0.950 1_455 S
H888 C884 0.950 . S
C889 C887 1.390 . S
C889 C890 1.387 . S
C889 H892 0.950 . S
C890 C889 1.387 . S
C890 C893 1.387 . S
H891 C887 0.950 1_655 S
H892 C889 0.950 . S
C893 C884 1.390 . S
C893 H886 0.950 . S
C893 C890 1.387 . S
C894 C895 1.387 . S
C894 H898 0.950 . S
C894 C903 1.390 . S
C895 C894 1.387 . S
C895 C897 1.387 . S
H896 C903 0.950 . S
C897 C895 1.387 . S
C897 C899 1.390 . S
C897 H901 0.950 . S
H898 C894 0.950 . S
C899 C897 1.390 . S
C899 C900 1.387 . S
C899 H902 0.950 . S
C900 C899 1.387 . S
C900 C903 1.387 . S
H901 C897 0.950 . S
H902 C899 0.950 . S
C903 C894 1.390 . S
C903 H896 0.950 . S
C903 C900 1.387 . S
C904 C905 1.387 . S
C904 H908 0.950 . S
C904 C913 1.390 . S
C905 C904 1.387 . S
C905 C907 1.387 . S
H906 C913 0.950 . S
C907 C905 1.387 . S
C907 C909 1.387 1_545 S
C907 H911 0.950 . S
H908 C904 0.950 . S
C909 C907 1.387 1_565 S
C909 C910 1.388 . S
C909 H912 0.952 . S
C910 C909 1.388 . S
C910 C913 1.387 1_565 S
H911 C907 0.950 . S
H912 C909 0.952 . S
C913 C904 1.390 . S
C913 H906 0.950 . S
C913 C910 1.387 1_545 S
C914 C915 1.387 1_655 S
C914 H918 0.950 1_655 S
C914 C923 1.390 . S
C915 C914 1.387 1_455 S
C915 C917 1.387 1_455 S
H916 C923 0.950 . S
C917 C915 1.387 1_655 S
C917 C919 1.390 . S
C917 H921 0.950 . S
H918 C914 0.950 1_455 S
C919 C917 1.390 . S
C919 C920 1.387 . S
C919 H922 0.950 . S
C920 C919 1.387 . S
C920 C923 1.387 . S
H921 C917 0.950 . S
H922 C919 0.950 . S
C923 C914 1.390 . S
C923 H916 0.950 . S
C923 C920 1.387 . S
C924 C925 1.387 . S
C924 H928 0.950 . S
C924 C933 1.390 . S
C925 C924 1.387 . S
C925 C927 1.387 . S
H926 C933 0.950 . S
C927 C925 1.387 . S
C927 C929 1.390 . S
C927 H931 0.950 . S
H928 C924 0.950 . S
C929 C927 1.390 . S
C929 C930 1.387 . S
C929 H932 0.950 . S
C930 C929 1.387 . S
C930 C933 1.387 . S
H931 C927 0.950 . S
H932 C929 0.950 . S
C933 C924 1.390 . S
C933 H926 0.950 . S
C933 C930 1.387 . S
C934 C935 1.384 1_545 S
C934 H938 0.940 1_545 S
C934 C943 1.404 . S
C935 C934 1.384 1_565 S
C935 C937 1.387 1_565 S
H936 C943 0.950 . S
C937 C935 1.387 1_545 S
C937 C939 1.390 . S
C937 H941 0.950 . S
H938 C934 0.940 1_565 S
C939 C937 1.390 . S
C939 C940 1.387 . S
C939 H942 0.950 . S
C940 C939 1.387 . S
C940 C943 1.387 . S
H941 C937 0.950 . S
H942 C939 0.950 . S
C943 C934 1.404 . S
C943 H936 0.950 . S
C943 C940 1.387 . S
C944 C945 1.387 1_655 S
C944 H948 0.950 . S
C944 C953 1.390 . S
C945 C944 1.387 1_455 S
C945 C947 1.387 1_455 S
H946 C953 0.950 . S
C947 C945 1.387 1_655 S
C947 C949 1.390 . S
C947 H951 0.950 1_655 S
H948 C944 0.950 . S
C949 C947 1.390 . S
C949 C950 1.387 . S
C949 H952 0.950 . S
C950 C949 1.387 . S
C950 C953 1.387 . S
H951 C947 0.950 1_455 S
H952 C949 0.950 . S
C953 C944 1.390 . S
C953 H946 0.950 . S
C953 C950 1.387 . S
C954 C955 1.387 . S
C954 H958 0.950 . S
C954 C963 1.390 . S
C955 C954 1.387 . S
C955 C957 1.387 . S
H956 C963 0.950 . S
C957 C955 1.387 . S
C957 C959 1.390 . S
C957 H961 0.950 . S
H958 C954 0.950 . S
C959 C957 1.390 . S
C959 C960 1.387 . S
C959 H962 0.950 . S
C960 C959 1.387 . S
C960 C963 1.387 . S
H961 C957 0.950 . S
H962 C959 0.950 . S
C963 C954 1.390 . S
C963 H956 0.950 . S
C963 C960 1.387 . S
C964 C965 1.387 1_565 S
C964 H968 0.950 . S
C964 C973 1.390 . S
C965 C964 1.387 1_545 S
C965 C967 1.387 . S
H966 C973 0.950 . S
C967 C965 1.387 . S
C967 C969 1.390 1_545 S
C967 H971 0.950 . S
H968 C964 0.950 . S
C969 C967 1.390 1_565 S
C969 C970 1.387 . S
C969 H972 0.950 . S
C970 C969 1.387 . S
C970 C973 1.387 . S
H971 C967 0.950 . S
H972 C969 0.950 . S
C973 C964 1.390 . S
C973 H966 0.950 . S
C973 C970 1.387 . S
C974 C975 1.387 . S
C974 H978 0.950 . S
C974 C983 1.389 . S
C975 C974 1.387 . S
C975 C977 1.387 . S
H976 C983 0.951 1_655 S
C977 C975 1.387 . S
C977 C979 1.390 . S
C977 H981 0.950 . S
H978 C974 0.950 . S
C979 C977 1.390 . S
C979 C980 1.387 1_455 S
C979 H982 0.950 . S
C980 C979 1.387 1_655 S
C980 C983 1.388 1_655 S
H981 C977 0.950 . S
H982 C979 0.950 . S
C983 C974 1.389 . S
C983 H976 0.951 1_455 S
C983 C980 1.388 1_455 S
C984 C985 1.387 . S
C984 H988 0.950 . S
C984 C993 1.390 . S
C985 C984 1.387 . S
C985 C987 1.387 . S
H986 C993 0.950 . S
C987 C985 1.387 . S
C987 C989 1.390 . S
C987 H991 0.950 . S
H988 C984 0.950 . S
C989 C987 1.390 . S
C989 C990 1.387 . S
C989 H992 0.950 . S
C990 C989 1.387 . S
C990 C993 1.387 . S
H991 C987 0.950 . S
H992 C989 0.950 . S
C993 C984 1.390 . S
C993 H986 0.950 . S
C993 C990 1.387 . S
C994 C995 1.387 . S
C994 H998 0.950 . S
C994 C1003 1.390 . S
C995 C994 1.387 . S
C995 C997 1.387 . S
H996 C1003 0.950 . S
C997 C995 1.387 . S
C997 C999 1.390 . S
C997 H1001 0.950 . S
H998 C994 0.950 . S
C999 C997 1.390 . S
C999 C1000 1.387 . S
C999 H1002 0.950 . S
C1000 C999 1.387 . S
C1000 C1003 1.387 . S
H1001 C997 0.950 . S
H1002 C999 0.950 . S
C1003 C994 1.390 . S
C1003 H996 0.950 . S
C1003 C1000 1.387 . S
C1004 C1005 1.387 . S
C1004 H1008 0.950 . S
C1004 C1013 1.390 . S
C1005 C1004 1.387 . S
C1005 C1007 1.387 . S
H1006 C1013 0.950 . S
C1007 C1005 1.387 . S
C1007 C1009 1.390 . S
C1007 H1011 0.950 . S
H1008 C1004 0.950 . S
C1009 C1007 1.390 . S
C1009 C1010 1.387 . S
C1009 H1012 0.950 . S
C1010 C1009 1.387 . S
C1010 C1013 1.387 . S
H1011 C1007 0.950 . S
H1012 C1009 0.950 . S
C1013 C1004 1.390 . S
C1013 H1006 0.950 . S
C1013 C1010 1.387 . S
C1014 C1015 1.387 . S
C1014 H1018 0.950 . S
C1014 C1023 1.390 . S
C1015 C1014 1.387 . S
C1015 C1017 1.387 . S
H1016 C1023 0.950 . S
C1017 C1015 1.387 . S
C1017 C1019 1.390 . S
C1017 H1021 0.950 . S
H1018 C1014 0.950 . S
C1019 C1017 1.390 . S
C1019 C1020 1.387 . S
C1019 H1022 0.950 . S
C1020 C1019 1.387 . S
C1020 C1023 1.387 . S
H1021 C1017 0.950 . S
H1022 C1019 0.950 . S
C1023 C1014 1.390 . S
C1023 H1016 0.950 . S
C1023 C1020 1.387 . S
C1024 C1025 1.387 . S
C1024 H1028 0.950 . S
C1024 C1033 1.390 . S
C1025 C1024 1.387 . S
C1025 C1027 1.387 . S
H1026 C1033 0.950 . S
C1027 C1025 1.387 . S
C1027 C1029 1.390 . S
C1027 H1031 0.950 . S
H1028 C1024 0.950 . S
C1029 C1027 1.390 . S
C1029 C1030 1.387 . S
C1029 H1032 0.950 . S
C1030 C1029 1.387 . S
C1030 C1033 1.387 . S
H1031 C1027 0.950 . S
H1032 C1029 0.950 . S
C1033 C1024 1.390 . S
C1033 H1026 0.950 . S
C1033 C1030 1.387 . S
C1034 C1035 1.387 . S
C1034 H1038 0.950 . S
C1034 C1043 1.390 . S
C1035 C1034 1.387 . S
C1035 C1037 1.387 . S
H1036 C1043 0.950 . S
C1037 C1035 1.387 . S
C1037 C1039 1.390 . S
C1037 H1041 0.950 . S
H1038 C1034 0.950 . S
C1039 C1037 1.390 . S
C1039 C1040 1.387 . S
C1039 H1042 0.950 . S
C1040 C1039 1.387 . S
C1040 C1043 1.387 . S
H1041 C1037 0.950 . S
H1042 C1039 0.950 . S
C1043 C1034 1.390 . S
C1043 H1036 0.950 . S
C1043 C1040 1.387 . S
C1044 C1045 1.387 . S
C1044 H1048 0.950 . S
C1044 C1053 1.390 . S
C1045 C1044 1.387 . S
C1045 C1047 1.387 . S
H1046 C1053 0.950 . S
C1047 C1045 1.387 . S
C1047 C1049 1.390 . S
C1047 H1051 0.950 . S
H1048 C1044 0.950 . S
C1049 C1047 1.390 . S
C1049 C1050 1.387 . S
C1049 H1052 0.950 . S
C1050 C1049 1.387 . S
C1050 C1053 1.387 . S
H1051 C1047 0.950 . S
H1052 C1049 0.950 . S
C1053 C1044 1.390 . S
C1053 H1046 0.950 . S
C1053 C1050 1.387 . S
C1054 C1055 1.387 . S
C1054 H1058 0.950 . S
C1054 C1063 1.390 . S
C1055 C1054 1.387 . S
C1055 C1057 1.387 . S
H1056 C1063 0.950 . S
C1057 C1055 1.387 . S
C1057 C1059 1.390 . S
C1057 H1061 0.950 . S
H1058 C1054 0.950 . S
C1059 C1057 1.390 . S
C1059 C1060 1.387 . S
C1059 H1062 0.950 . S
C1060 C1059 1.387 . S
C1060 C1063 1.387 . S
H1061 C1057 0.950 . S
H1062 C1059 0.950 . S
C1063 C1054 1.390 . S
C1063 H1056 0.950 . S
C1063 C1060 1.387 . S
C1064 C1065 1.387 . S
C1064 H1068 0.950 . S
C1064 C1073 1.390 . S
C1065 C1064 1.387 . S
C1065 C1067 1.387 . S
H1066 C1073 0.950 . S
C1067 C1065 1.387 . S
C1067 C1069 1.390 . S
C1067 H1071 0.950 . S
H1068 C1064 0.950 . S
C1069 C1067 1.390 . S
C1069 C1070 1.387 . S
C1069 H1072 0.950 . S
C1070 C1069 1.387 . S
C1070 C1073 1.387 . S
H1071 C1067 0.950 . S
H1072 C1069 0.950 . S
C1073 C1064 1.390 . S
C1073 H1066 0.950 . S
C1073 C1070 1.387 . S
C1074 C1075 1.387 . S
C1074 H1078 0.950 . S
C1074 C1083 1.390 . S
C1075 C1074 1.387 . S
C1075 C1077 1.387 . S
H1076 C1083 0.950 . S
C1077 C1075 1.387 . S
C1077 C1079 1.390 . S
C1077 H1081 0.950 . S
H1078 C1074 0.950 . S
C1079 C1077 1.390 . S
C1079 C1080 1.387 . S
C1079 H1082 0.950 . S
C1080 C1079 1.387 . S
C1080 C1083 1.387 . S
H1081 C1077 0.950 . S
H1082 C1079 0.950 . S
C1083 C1074 1.390 . S
C1083 H1076 0.950 . S
C1083 C1080 1.387 . S
C1084 C1085 1.387 . S
C1084 H1088 0.950 . S
C1084 C1093 1.390 . S
C1085 C1084 1.387 . S
C1085 C1087 1.387 . S
H1086 C1093 0.950 . S
C1087 C1085 1.387 . S
C1087 C1089 1.390 . S
C1087 H1091 0.950 . S
H1088 C1084 0.950 . S
C1089 C1087 1.390 . S
C1089 C1090 1.387 . S
C1089 H1092 0.950 . S
C1090 C1089 1.387 . S
C1090 C1093 1.387 . S
H1091 C1087 0.950 . S
H1092 C1089 0.950 . S
C1093 C1084 1.390 . S
C1093 H1086 0.950 . S
C1093 C1090 1.387 . S
C1094 C1095 1.387 . S
C1094 H1098 0.950 . S
C1094 C1103 1.390 . S
C1095 C1094 1.387 . S
C1095 C1097 1.387 . S
H1096 C1103 0.950 . S
C1097 C1095 1.387 . S
C1097 C1099 1.390 . S
C1097 H1101 0.950 . S
H1098 C1094 0.950 . S
C1099 C1097 1.390 . S
C1099 C1100 1.387 . S
C1099 H1102 0.950 . S
C1100 C1099 1.387 . S
C1100 C1103 1.387 . S
H1101 C1097 0.950 . S
H1102 C1099 0.950 . S
C1103 C1094 1.390 . S
C1103 H1096 0.950 . S
C1103 C1100 1.387 . S
C1104 C1105 1.387 . S
C1104 H1108 0.950 . S
C1104 C1113 1.390 . S
C1105 C1104 1.387 . S
C1105 C1107 1.387 . S
H1106 C1113 0.950 . S
C1107 C1105 1.387 . S
C1107 C1109 1.390 . S
C1107 H1111 0.950 . S
H1108 C1104 0.950 . S
C1109 C1107 1.390 . S
C1109 C1110 1.387 . S
C1109 H1112 0.950 . S
C1110 C1109 1.387 . S
C1110 C1113 1.387 . S
H1111 C1107 0.950 . S
H1112 C1109 0.950 . S
C1113 C1104 1.390 . S
C1113 H1106 0.950 . S
C1113 C1110 1.387 . S
C1114 C1115 1.387 . S
C1114 H1118 0.950 . S
C1114 C1123 1.390 . S
C1115 C1114 1.387 . S
C1115 C1117 1.387 . S
H1116 C1123 0.950 . S
C1117 C1115 1.387 . S
C1117 C1119 1.390 . S
C1117 H1121 0.950 . S
H1118 C1114 0.950 . S
C1119 C1117 1.390 . S
C1119 C1120 1.387 . S
C1119 H1122 0.950 . S
C1120 C1119 1.387 . S
C1120 C1123 1.387 . S
H1121 C1117 0.950 . S
H1122 C1119 0.950 . S
C1123 C1114 1.390 . S
C1123 H1116 0.950 . S
C1123 C1120 1.387 . S
C1124 C1125 1.387 . S
C1124 H1128 0.950 . S
C1124 C1133 1.390 . S
C1125 C1124 1.387 . S
C1125 C1127 1.387 . S
H1126 C1133 0.950 . S
C1127 C1125 1.387 . S
C1127 C1129 1.390 . S
C1127 H1131 0.950 . S
H1128 C1124 0.950 . S
C1129 C1127 1.390 . S
C1129 C1130 1.387 . S
C1129 H1132 0.950 . S
C1130 C1129 1.387 . S
C1130 C1133 1.387 . S
H1131 C1127 0.950 . S
H1132 C1129 0.950 . S
C1133 C1124 1.390 . S
C1133 H1126 0.950 . S
C1133 C1130 1.387 . S
C1134 C1135 1.387 . S
C1134 H1138 0.950 . S
C1134 C1143 1.390 . S
C1135 C1134 1.387 . S
C1135 C1137 1.387 . S
H1136 C1143 0.950 . S
C1137 C1135 1.387 . S
C1137 C1139 1.390 . S
C1137 H1141 0.950 . S
H1138 C1134 0.950 . S
C1139 C1137 1.390 . S
C1139 C1140 1.387 . S
C1139 H1142 0.950 . S
C1140 C1139 1.387 . S
C1140 C1143 1.387 . S
H1141 C1137 0.950 . S
H1142 C1139 0.950 . S
C1143 C1134 1.390 . S
C1143 H1136 0.950 . S
C1143 C1140 1.387 . S
C1144 C1145 1.387 . S
C1144 H1148 0.950 . S
C1144 C1153 1.390 . S
C1145 C1144 1.387 . S
C1145 C1147 1.387 . S
H1146 C1153 0.950 . S
C1147 C1145 1.387 . S
C1147 C1149 1.390 . S
C1147 H1151 0.950 . S
H1148 C1144 0.950 . S
C1149 C1147 1.390 . S
C1149 C1150 1.387 . S
C1149 H1152 0.950 . S
C1150 C1149 1.387 . S
C1150 C1153 1.387 . S
H1151 C1147 0.950 . S
H1152 C1149 0.950 . S
C1153 C1144 1.390 . S
C1153 H1146 0.950 . S
C1153 C1150 1.387 . S
C1154 C1155 1.387 . S
C1154 H1158 0.950 . S
C1154 C1163 1.390 . S
C1155 C1154 1.387 . S
C1155 C1157 1.387 . S
H1156 C1163 0.950 . S
C1157 C1155 1.387 . S
C1157 C1159 1.390 . S
C1157 H1161 0.950 . S
H1158 C1154 0.950 . S
C1159 C1157 1.390 . S
C1159 C1160 1.387 . S
C1159 H1162 0.950 . S
C1160 C1159 1.387 . S
C1160 C1163 1.387 . S
H1161 C1157 0.950 . S
H1162 C1159 0.950 . S
C1163 C1154 1.390 . S
C1163 H1156 0.950 . S
C1163 C1160 1.387 . S
C1164 C1165 1.387 . S
C1164 H1168 0.950 . S
C1164 C1173 1.390 . S
C1165 C1164 1.387 . S
C1165 C1167 1.387 . S
H1166 C1173 0.950 . S
C1167 C1165 1.387 . S
C1167 C1169 1.390 . S
C1167 H1171 0.950 . S
H1168 C1164 0.950 . S
C1169 C1167 1.390 . S
C1169 C1170 1.387 . S
C1169 H1172 0.950 . S
C1170 C1169 1.387 . S
C1170 C1173 1.387 . S
H1171 C1167 0.950 . S
H1172 C1169 0.950 . S
C1173 C1164 1.390 . S
C1173 H1166 0.950 . S
C1173 C1170 1.387 . S
C1174 C1175 1.387 . S
C1174 H1178 0.950 . S
C1174 C1183 1.390 . S
C1175 C1174 1.387 . S
C1175 C1177 1.387 . S
H1176 C1183 0.950 . S
C1177 C1175 1.387 . S
C1177 C1179 1.390 . S
C1177 H1181 0.950 . S
H1178 C1174 0.950 . S
C1179 C1177 1.390 . S
C1179 C1180 1.387 . S
C1179 H1182 0.950 . S
C1180 C1179 1.387 . S
C1180 C1183 1.387 . S
H1181 C1177 0.950 . S
H1182 C1179 0.950 . S
C1183 C1174 1.390 . S
C1183 H1176 0.950 . S
C1183 C1180 1.387 . S
C1184 C1185 1.387 . S
C1184 H1188 0.950 . S
C1184 C1193 1.390 . S
C1185 C1184 1.387 . S
C1185 C1187 1.387 . S
H1186 C1193 0.950 . S
C1187 C1185 1.387 . S
C1187 C1189 1.390 . S
C1187 H1191 0.950 . S
H1188 C1184 0.950 . S
C1189 C1187 1.390 . S
C1189 C1190 1.387 . S
C1189 H1192 0.950 . S
C1190 C1189 1.387 . S
C1190 C1193 1.387 . S
H1191 C1187 0.950 . S
H1192 C1189 0.950 . S
C1193 C1184 1.390 . S
C1193 H1186 0.950 . S
C1193 C1190 1.387 . S
C1194 C1195 1.387 . S
C1194 H1198 0.950 . S
C1194 C1203 1.390 . S
C1195 C1194 1.387 . S
C1195 C1197 1.387 . S
H1196 C1203 0.950 . S
C1197 C1195 1.387 . S
C1197 C1199 1.390 . S
C1197 H1201 0.950 . S
H1198 C1194 0.950 . S
C1199 C1197 1.390 . S
C1199 C1200 1.387 . S
C1199 H1202 0.950 . S
C1200 C1199 1.387 . S
C1200 C1203 1.387 . S
H1201 C1197 0.950 . S
H1202 C1199 0.950 . S
C1203 C1194 1.390 . S
C1203 H1196 0.950 . S
C1203 C1200 1.387 . S
C1204 C1205 1.387 . S
C1204 H1208 0.950 . S
C1204 C1213 1.390 . S
C1205 C1204 1.387 . S
C1205 C1207 1.387 . S
H1206 C1213 0.950 . S
C1207 C1205 1.387 . S
C1207 C1209 1.390 . S
C1207 H1211 0.950 . S
H1208 C1204 0.950 . S
C1209 C1207 1.390 . S
C1209 C1210 1.387 . S
C1209 H1212 0.950 . S
C1210 C1209 1.387 . S
C1210 C1213 1.387 . S
H1211 C1207 0.950 . S
H1212 C1209 0.950 . S
C1213 C1204 1.390 . S
C1213 H1206 0.950 . S
C1213 C1210 1.387 . S
C1214 C1215 1.387 . S
C1214 H1218 0.950 . S
C1214 C1223 1.390 . S
C1215 C1214 1.387 . S
C1215 C1217 1.387 . S
H1216 C1223 0.950 . S
C1217 C1215 1.387 . S
C1217 C1219 1.390 . S
C1217 H1221 0.950 . S
H1218 C1214 0.950 . S
C1219 C1217 1.390 . S
C1219 C1220 1.387 . S
C1219 H1222 0.950 . S
C1220 C1219 1.387 . S
C1220 C1223 1.387 . S
H1221 C1217 0.950 . S
H1222 C1219 0.950 . S
C1223 C1214 1.390 . S
C1223 H1216 0.950 . S
C1223 C1220 1.387 . S
C505 C7 1.415 . S
C510 C259 1.415 . S
C515 C273 1.415 . S
C520 C21 1.415 . S
C525 C287 1.416 . S
C530 C35 1.416 . S
C535 C49 1.417 . S
C540 C469 1.417 . S
C545 C63 1.417 . S
C550 C483 1.417 . S
C555 C77 1.415 . S
C560 C497 1.415 . S
C565 C343 1.417 . S
C570 C91 1.417 . S
C575 C105 1.417 . S
C580 C357 1.417 . S
C585 C119 1.415 . S
C590 C371 1.415 . S
C595 C217 1.416 . S
C600 C133 1.416 . S
C605 C231 1.416 . S
C610 C147 1.416 . S
C615 C245 1.417 . S
C620 C161 1.417 . S
C625 C427 1.415 . S
C630 C175 1.415 . S
C635 C441 1.415 . S
C640 C189 1.415 . S
C645 C203 1.417 . S
C650 C455 1.417 . S
C655 C385 1.416 . S
C660 C301 1.416 . S
C665 C315 1.416 . S
C670 C399 1.416 . S
C675 C329 1.415 . S
C680 C413 1.415 . S
C685 C8 1.474 . S
C690 C386 1.465 . S
C695 C400 1.465 . S
C700 C22 1.465 . S
C705 C414 1.466 . S
C710 C36 1.465 . S
C715 C176 1.466 . S
C720 C50 1.465 . S
C725 C190 1.465 . S
C730 C64 1.465 . S
C735 C204 1.465 . S
C740 C78 1.465 . S
C745 C92 1.466 . S
C750 C302 1.467 . S
C755 C316 1.467 . S
C760 C106 1.466 . S
C765 C330 1.466 . S
C770 C120 1.465 . S
C775 C134 1.471 . S
C780 C428 1.467 . S
C785 C148 1.465 . S
C790 C442 1.465 . S
C795 C162 1.466 . S
C800 C456 1.467 . S
C805 C218 1.467 . S
C810 C344 1.465 . S
C815 C232 1.465 . S
C820 C358 1.465 . S
C825 C246 1.466 . S
C830 C372 1.467 . S
C835 C260 1.465 . S
C840 C470 1.466 . S
C845 C484 1.465 . S
C850 C274 1.465 . S
C855 C288 1.467 . S
C860 C498 1.466 . S
C865 C17 1.263 . S
C870 C9 1.171 . S
C875 C23 1.170 . S
C880 C31 1.266 . S
C885 C37 1.173 . S
C890 C3 1.265 . S
C895 C51 1.174 . S
C900 C73 1.265 . S
C905 C45 1.264 . S
C910 C65 1.173 . S
C915 C79 1.174 . S
C920 C59 1.266 . S
C925 C93 1.173 . S
C930 C101 1.267 . S
C935 C107 1.173 . S
C940 C115 1.264 . S
C945 C121 1.169 . S
C950 C87 1.265 . S
C955 C157 1.265 . S
C960 C135 1.168 . S
C965 C149 1.170 . S
C970 C129 1.266 . S
C975 C143 1.264 . S
C980 C163 1.173 . S
C985 C185 1.264 . S
C990 C177 1.173 . S
C995 C199 1.264 . S
C1000 C191 1.173 . S
C1005 C171 1.265 . S
C1010 C205 1.174 . S
C1015 C219 1.173 . S
C1020 C241 1.264 . S
C1025 C233 1.173 . S
C1030 C213 1.264 . S
C1035 C247 1.170 . S
C1040 C227 1.263 . S
C1045 C269 1.266 . S
C1050 C261 1.171 . S
C1055 C275 1.172 . S
C1060 C283 1.264 . S
C1065 C289 1.171 . S
C1070 C255 1.263 . S
C1075 C303 1.173 . S
C1080 C325 1.264 . S
C1085 C317 1.170 . S
C1090 C297 1.263 . S
C1095 C311 1.264 . S
C1100 C331 1.168 . S
C1105 C353 1.266 . S
C1110 C345 1.174 . S
C1115 C359 1.174 . S
C1120 C367 1.265 . S
C1125 C339 1.265 . S
C1130 C373 1.174 . S
C1135 C387 1.169 . S
C1140 C409 1.265 . S
C1145 C401 1.169 . S
C1150 C381 1.265 . S
C1155 C415 1.172 . S
C1160 C395 1.264 . S
C1165 C429 1.171 . S
C1170 C437 1.267 . S
C1175 C443 1.169 . S
C1180 C451 1.265 . S
C1185 C457 1.173 . S
C1190 C423 1.265 . S
C1195 C471 1.171 . S
C1200 C493 1.263 . S
C1205 C485 1.173 . S
C1210 C465 1.264 . S
C1215 C479 1.266 . S
C1220 C499 1.171 . S
