# Generated by pormake.
# Topology fnk, (5)-cn, num edge types: 1
# Building blocks:
#     Node 0, Type 0, BuildingBlock: XOMCOT_clean_sbu_1, # of connection points: 5
#     Node 1, Type 0, BuildingBlock: XOMCOT_clean_sbu_1, # of connection points: 5
#     Node 2, Type 0, BuildingBlock: XOMCOT_clean_sbu_1, # of connection points: 5
#     Node 3, Type 0, BuildingBlock: XOMCOT_clean_sbu_1, # of connection points: 5
#     Node 4, Type 0, BuildingBlock: XOMCOT_clean_sbu_1, # of connection points: 5
#     Node 5, Type 0, BuildingBlock: XOMCOT_clean_sbu_1, # of connection points: 5
#     Node 6, Type 0, BuildingBlock: XOMCOT_clean_sbu_1, # of connection points: 5
#     Node 7, Type 0, BuildingBlock: XOMCOT_clean_sbu_1, # of connection points: 5
#     Node 8, Type 0, BuildingBlock: XOMCOT_clean_sbu_1, # of connection points: 5
#     Node 9, Type 0, BuildingBlock: XOMCOT_clean_sbu_1, # of connection points: 5
#     Node 10, Type 0, BuildingBlock: XOMCOT_clean_sbu_1, # of connection points: 5
#     Node 11, Type 0, BuildingBlock: XOMCOT_clean_sbu_1, # of connection points: 5
#     Node 12, Type 0, BuildingBlock: XOMCOT_clean_sbu_1, # of connection points: 5
#     Node 13, Type 0, BuildingBlock: XOMCOT_clean_sbu_1, # of connection points: 5
#     Node 14, Type 0, BuildingBlock: XOMCOT_clean_sbu_1, # of connection points: 5
#     Node 15, Type 0, BuildingBlock: XOMCOT_clean_sbu_1, # of connection points: 5
#     Edge 16, Type (0, 0), None
#     Edge 17, Type (0, 0), None
#     Edge 18, Type (0, 0), None
#     Edge 19, Type (0, 0), None
#     Edge 20, Type (0, 0), None
#     Edge 21, Type (0, 0), None
#     Edge 22, Type (0, 0), None
#     Edge 23, Type (0, 0), None
#     Edge 24, Type (0, 0), None
#     Edge 25, Type (0, 0), None
#     Edge 26, Type (0, 0), None
#     Edge 27, Type (0, 0), None
#     Edge 28, Type (0, 0), None
#     Edge 29, Type (0, 0), None
#     Edge 30, Type (0, 0), None
#     Edge 31, Type (0, 0), None
#     Edge 32, Type (0, 0), None
#     Edge 33, Type (0, 0), None
#     Edge 34, Type (0, 0), None
#     Edge 35, Type (0, 0), None
#     Edge 36, Type (0, 0), None
#     Edge 37, Type (0, 0), None
#     Edge 38, Type (0, 0), None
#     Edge 39, Type (0, 0), None
#     Edge 40, Type (0, 0), None
#     Edge 41, Type (0, 0), None
#     Edge 42, Type (0, 0), None
#     Edge 43, Type (0, 0), None
#     Edge 44, Type (0, 0), None
#     Edge 45, Type (0, 0), None
#     Edge 46, Type (0, 0), None
#     Edge 47, Type (0, 0), None
#     Edge 48, Type (0, 0), None
#     Edge 49, Type (0, 0), None
#     Edge 50, Type (0, 0), None
#     Edge 51, Type (0, 0), None
#     Edge 52, Type (0, 0), None
#     Edge 53, Type (0, 0), None
#     Edge 54, Type (0, 0), None
#     Edge 55, Type (0, 0), None
# Relax obj value: 0.662
# Max RMSD: 0.263
# Mean RMSD: 0.263
data_MOF--net-fnk--node1-XOMCOT_clean_sbu_1--edge1-none
_symmetry_space_group_name_H-M    P1
_symmetry_Int_Tables_number       1
_symmetry_cell_setting            triclinic
loop_
_symmetry_equiv_pos_as_xyz
'x, y, z'
_cell_length_a     24.534124
_cell_length_b     24.530219
_cell_length_c     21.905359
_cell_angle_alpha  89.883974
_cell_angle_beta   91.13037
_cell_angle_gamma 90.003911
loop_
_atom_site_label
_atom_site_type_symbol
_atom_site_fract_x
_atom_site_fract_y
_atom_site_fract_z
_atom_type_partial_charge
C0 C 0.24559 0.32571 0.16433 0.0
C1 C 0.28352 0.29638 0.19774 0.0
N2 N 0.28454 0.31584 0.25504 0.0
N3 N 0.22191 0.36341 0.20026 0.0
C4 C 0.24822 0.35719 0.25511 0.0
H5 H 0.23486 0.31757 0.11735 0.0
Co6 Co 0.1603 0.40852 0.18052 0.0
C7 C 0.15924 0.47992 0.2974 0.0
O8 O 0.16656 0.47552 0.35663 0.0
N9 N 0.10037 0.45312 0.16045 0.0
C10 C 0.03815 0.50481 0.11212 0.0
C11 C 0.08914 0.48098 0.10827 0.0
C12 C 0.05618 0.46087 0.19493 0.0
N13 N 0.01762 0.4907 0.16596 0.0
O14 O 0.16197 0.3855 0.09429 0.0
H15 H 0.1165 0.48435 0.07032 0.0
H16 H 0.05211 0.44419 0.2404 0.0
O17 O 0.16125 0.43629 0.26519 0.0
C18 C 0.14743 0.34907 0.05555 0.0
O19 O 0.12327 0.30411 0.07302 0.0
N20 N 0.1108 0.35125 0.20391 0.0
C21 C 0.01967 0.3086 0.26214 0.0
C22 C 0.07161 0.30538 0.28982 0.0
C23 C 0.11632 0.32794 0.26051 0.0
C24 C 0.0631 0.34373 0.17167 0.0
C25 C 0.01697 0.32336 0.20003 0.0
H26 H 0.15326 0.33202 0.2871 0.0
H27 H 0.05731 0.36184 0.12704 0.0
H28 H 0.23833 0.37971 0.29572 0.0
H29 H 0.30595 0.2614 0.1818 0.0
H30 H 0.01867 0.53264 0.08055 0.0
H31 H 0.07715 0.29105 0.33627 0.0
H32 H 0.97873 0.32627 0.17494 0.0
C33 C 0.67523 0.24746 0.16096 0.0
C34 C 0.70338 0.28548 0.19554 0.0
N35 N 0.67991 0.28836 0.25031 0.0
N36 N 0.63439 0.22584 0.19394 0.0
C37 C 0.63777 0.25323 0.24784 0.0
H38 H 0.68621 0.23496 0.11572 0.0
Co39 Co 0.58752 0.16575 0.17421 0.0
C40 C 0.51434 0.16974 0.28946 0.0
O41 O 0.52012 0.18001 0.34788 0.0
N42 N 0.5403 0.10791 0.15466 0.0
C43 C 0.47874 0.05285 0.11049 0.0
C44 C 0.50686 0.1016 0.10533 0.0
C45 C 0.53186 0.06297 0.18861 0.0
N46 N 0.49674 0.02804 0.16159 0.0
O47 O 0.61398 0.16375 0.08882 0.0
H48 H 0.50147 0.13159 0.06945 0.0
H49 H 0.55078 0.05624 0.23304 0.0
O50 O 0.55729 0.16962 0.25694 0.0
C51 C 0.65264 0.14688 0.05504 0.0
O52 O 0.69646 0.12419 0.07913 0.0
N53 N 0.64192 0.11471 0.20386 0.0
C54 C 0.68668 0.02534 0.26712 0.0
C55 C 0.68812 0.07766 0.29273 0.0
C56 C 0.66455 0.12135 0.26099 0.0
C57 C 0.64961 0.06638 0.17428 0.0
C58 C 0.67113 0.02125 0.20506 0.0
H59 H 0.65986 0.15866 0.28578 0.0
H60 H 0.63183 0.05976 0.12939 0.0
H61 H 0.61253 0.24519 0.28666 0.0
H62 H 0.74049 0.30619 0.183 0.0
H63 H 0.44512 0.03889 0.08203 0.0
H64 H 0.70242 0.08433 0.33914 0.0
H65 H 0.66905 0.98259 0.18159 0.0
C66 C 0.75711 0.69449 0.18202 0.0
C67 C 0.71527 0.72094 0.21072 0.0
N68 N 0.69884 0.68928 0.25699 0.0
N69 N 0.76733 0.64639 0.21026 0.0
C70 C 0.72952 0.64405 0.25459 0.0
H71 H 0.78182 0.71259 0.14748 0.0
Co72 Co 0.83068 0.6024 0.20826 0.0
C73 C 0.80609 0.53281 0.31404 0.0
O74 O 0.78959 0.52871 0.37041 0.0
N75 N 0.89446 0.55881 0.20985 0.0
C76 C 0.96894 0.52275 0.25301 0.0
C77 C 0.92295 0.55182 0.26293 0.0
C78 C 0.9261 0.53493 0.16731 0.0
N79 N 0.97136 0.51266 0.19348 0.0
O80 O 0.84027 0.61999 0.11955 0.0
H81 H 0.91304 0.56972 0.3063 0.0
H82 H 0.91747 0.53589 0.11868 0.0
O83 O 0.81658 0.58014 0.29248 0.0
C84 C 0.85461 0.65688 0.08126 0.0
O85 O 0.87152 0.70491 0.09993 0.0
N86 N 0.87505 0.66186 0.23572 0.0
C87 C 0.96213 0.71333 0.29647 0.0
C88 C 0.91001 0.71211 0.32228 0.0
C89 C 0.86671 0.68642 0.29076 0.0
C90 C 0.92334 0.66961 0.2071 0.0
C91 C 0.96646 0.69609 0.23568 0.0
H92 H 0.82844 0.68123 0.31365 0.0
H93 H 0.93214 0.64858 0.16531 0.0
H94 H 0.72719 0.61246 0.28874 0.0
H95 H 0.70271 0.76272 0.20294 0.0
H96 H 1.00012 0.512 0.28594 0.0
H97 H 0.90375 0.72629 0.36836 0.0
H98 H 0.00493 0.69512 0.21247 0.0
C99 C 0.32142 0.74259 0.17718 0.0
C100 C 0.29342 0.70118 0.20582 0.0
N101 N 0.30912 0.70075 0.26491 0.0
N102 N 0.35358 0.76918 0.21838 0.0
C103 C 0.34583 0.74099 0.27099 0.0
H104 H 0.31634 0.75319 0.12971 0.0
Co105 Co 0.39381 0.83599 0.21307 0.0
C106 C 0.46379 0.8171 0.31982 0.0
O107 O 0.46971 0.80314 0.37737 0.0
N108 N 0.433 0.90318 0.21122 0.0
C109 C 0.46719 0.97966 0.25065 0.0
C110 C 0.44068 0.93255 0.26307 0.0
C111 C 0.45314 0.93592 0.16672 0.0
N112 N 0.47389 0.98257 0.19065 0.0
O113 O 0.37823 0.84092 0.12405 0.0
H114 H 0.426 0.92199 0.30768 0.0
H115 H 0.45167 0.92646 0.11849 0.0
O116 O 0.41592 0.8263 0.29821 0.0
C117 C 0.3404 0.84774 0.08367 0.0
O118 O 0.2897 0.85546 0.09972 0.0
N119 N 0.3311 0.87777 0.23483 0.0
C120 C 0.28158 0.96734 0.28953 0.0
C121 C 0.28294 0.91634 0.31904 0.0
C122 C 0.30821 0.872 0.29091 0.0
C123 C 0.32036 0.92383 0.20155 0.0
C124 C 0.29535 0.96857 0.2276 0.0
H125 H 0.31498 0.83571 0.31773 0.0
H126 H 0.339 0.93048 0.15808 0.0
H127 H 0.36314 0.75167 0.31485 0.0
H128 H 0.26238 0.67534 0.18535 0.0
H129 H 0.48011 0.01047 0.28239 0.0
H130 H 0.27015 0.91191 0.36577 0.0
H131 H 0.29504 0.0058 0.20115 0.0
C132 C 0.25833 0.65132 0.40629 0.0
C133 C 0.29903 0.67498 0.37293 0.0
N134 N 0.2834 0.67403 0.31379 0.0
N135 N 0.21604 0.63743 0.36884 0.0
C136 C 0.23424 0.64983 0.31222 0.0
H137 H 0.26077 0.64342 0.45476 0.0
Co138 Co 0.15232 0.59767 0.3894 0.0
C139 C 0.14951 0.53451 0.27075 0.0
O140 O 0.14928 0.54074 0.21135 0.0
N141 N 0.09221 0.55411 0.40915 0.0
C142 C 0.0438 0.48977 0.45508 0.0
C143 C 0.094 0.5146 0.4522 0.0
C144 C 0.04045 0.55253 0.3865 0.0
N145 N 0.01069 0.51376 0.41378 0.0
O146 O 0.16114 0.61735 0.47658 0.0
H147 H 0.12964 0.50474 0.47992 0.0
H148 H 0.02443 0.58037 0.35228 0.0
O149 O 0.14377 0.57713 0.3037 0.0
C150 C 0.16457 0.66337 0.50403 0.0
O151 O 0.16554 0.7091 0.47286 0.0
N152 N 0.10485 0.66004 0.37648 0.0
C153 C 0.01323 0.71665 0.33482 0.0
C154 C 0.06343 0.72355 0.3062 0.0
C155 C 0.10787 0.69229 0.32574 0.0
C156 C 0.06184 0.66755 0.41467 0.0
C157 C 0.01455 0.69411 0.3938 0.0
H158 H 0.14179 0.69067 0.29606 0.0
H159 H 0.05996 0.64552 0.45738 0.0
H160 H 0.21214 0.6416 0.27014 0.0
H161 H 0.33707 0.69122 0.39086 0.0
H162 H 0.0317 0.45745 0.48536 0.0
H163 H 0.06614 0.74528 0.26328 0.0
H164 H 0.97797 0.68975 0.42014 0.0
C165 C 0.32576 0.26043 0.40006 0.0
C166 C 0.29928 0.30004 0.36572 0.0
N167 N 0.30877 0.28997 0.30664 0.0
N168 N 0.35055 0.22441 0.36284 0.0
C169 C 0.34064 0.24527 0.30615 0.0
H170 H 0.3273 0.25931 0.44928 0.0
Co171 Co 0.3961 0.16303 0.38291 0.0
C172 C 0.45896 0.16184 0.26356 0.0
O173 O 0.45167 0.16126 0.20416 0.0
N174 N 0.44398 0.10571 0.40246 0.0
C175 C 0.5127 0.06121 0.44776 0.0
C176 C 0.48502 0.10992 0.44415 0.0
C177 C 0.44734 0.0539 0.38177 0.0
N178 N 0.48899 0.02642 0.40825 0.0
O179 O 0.37787 0.16749 0.47034 0.0
H180 H 0.49381 0.14612 0.47069 0.0
H181 H 0.41844 0.03585 0.34997 0.0
O182 O 0.41681 0.15792 0.29698 0.0
C183 C 0.33443 0.16234 0.50133 0.0
O184 O 0.28668 0.15701 0.47389 0.0
N185 N 0.33724 0.11202 0.36791 0.0
C186 C 0.2823 0.01961 0.32497 0.0
C187 C 0.27704 0.0697 0.29428 0.0
C188 C 0.30675 0.11464 0.31511 0.0
C189 C 0.33077 0.06793 0.40562 0.0
C190 C 0.30458 0.02083 0.38457 0.0
H191 H 0.30893 0.14908 0.28511 0.0
H192 H 0.35289 0.06546 0.44871 0.0
H193 H 0.35567 0.22782 0.26459 0.0
H194 H 0.27475 0.33305 0.38294 0.0
H195 H 0.54637 0.05124 0.47812 0.0
H196 H 0.25622 0.07269 0.25039 0.0
H197 H 0.30858 0.98437 0.4121 0.0
C198 C 0.7418 0.31752 0.3952 0.0
C199 C 0.7039 0.28947 0.35993 0.0
N200 N 0.70348 0.3114 0.3037 0.0
N201 N 0.76597 0.35643 0.36109 0.0
C202 C 0.74003 0.35224 0.30581 0.0
H203 H 0.75137 0.30869 0.44241 0.0
Co204 Co 0.82341 0.40628 0.3825 0.0
C205 C 0.81099 0.48347 0.27652 0.0
O206 O 0.80746 0.48766 0.21683 0.0
N207 N 0.87751 0.45763 0.40369 0.0
C208 C 0.92067 0.52246 0.45641 0.0
C209 C 0.87399 0.49162 0.45181 0.0
C210 C 0.92675 0.46882 0.37973 0.0
N211 N 0.95372 0.50787 0.41118 0.0
O212 O 0.82669 0.37934 0.46823 0.0
H213 H 0.84002 0.49285 0.48252 0.0
H214 H 0.94405 0.44657 0.34226 0.0
O215 O 0.81942 0.43643 0.30011 0.0
C216 C 0.843 0.33804 0.49952 0.0
O217 O 0.8612 0.29418 0.47243 0.0
N218 N 0.87812 0.35516 0.35644 0.0
C219 C 0.96939 0.31039 0.29998 0.0
C220 C 0.91748 0.30707 0.27231 0.0
C221 C 0.87299 0.33108 0.30034 0.0
C222 C 0.92608 0.34917 0.38868 0.0
C223 C 0.9723 0.32801 0.3611 0.0
H224 H 0.83606 0.33422 0.27362 0.0
H225 H 0.9311 0.36719 0.43343 0.0
H226 H 0.74928 0.37661 0.26625 0.0
H227 H 0.68084 0.25403 0.37363 0.0
H228 H 0.93085 0.55146 0.49176 0.0
H229 H 0.91167 0.29084 0.22677 0.0
H230 H 0.01062 0.33134 0.38599 0.0
C231 C 0.66603 0.7412 0.40273 0.0
C232 C 0.69172 0.70285 0.36742 0.0
N233 N 0.67307 0.70857 0.30969 0.0
N234 N 0.6324 0.77204 0.3671 0.0
C235 C 0.63651 0.74915 0.31092 0.0
H236 H 0.67294 0.74637 0.4511 0.0
Co237 Co 0.58791 0.83286 0.38767 0.0
C238 C 0.51193 0.82357 0.28171 0.0
O239 O 0.50659 0.82063 0.22208 0.0
N240 N 0.54082 0.89071 0.40769 0.0
C241 C 0.47918 0.93859 0.45797 0.0
C242 C 0.50754 0.89026 0.45607 0.0
C243 C 0.53158 0.93975 0.38067 0.0
N244 N 0.49463 0.96944 0.4108 0.0
O245 O 0.61473 0.8308 0.47364 0.0
H246 H 0.50478 0.85709 0.48847 0.0
H247 H 0.55331 0.95452 0.34145 0.0
O248 O 0.55895 0.83352 0.3049 0.0
C249 C 0.6585 0.84103 0.5044 0.0
O250 O 0.70301 0.85643 0.47694 0.0
N251 N 0.64353 0.88416 0.36407 0.0
C252 C 0.68798 0.97546 0.30686 0.0
C253 C 0.69247 0.9236 0.28076 0.0
C254 C 0.66842 0.87903 0.30904 0.0
C255 C 0.65073 0.93147 0.39622 0.0
C256 C 0.67148 0.97799 0.36803 0.0
H257 H 0.66546 0.84247 0.28273 0.0
H258 H 0.63323 0.93602 0.44085 0.0
H259 H 0.61607 0.76374 0.26997 0.0
H260 H 0.72402 0.67552 0.38224 0.0
H261 H 0.45086 0.95135 0.49214 0.0
H262 H 0.7088 0.91802 0.23569 0.0
H263 H 0.66822 0.01617 0.3922 0.0
C264 C 0.83116 0.7476 0.91002 0.0
C265 C 0.80276 0.78572 0.87573 0.0
N266 N 0.82395 0.78667 0.81967 0.0
N267 N 0.86978 0.72391 0.87559 0.0
C268 C 0.86506 0.7503 0.82108 0.0
H269 H 0.82187 0.73669 0.95631 0.0
Co270 Co 0.91555 0.66295 0.89511 0.0
C271 C 0.98888 0.6657 0.78029 0.0
O272 O 0.98393 0.67468 0.72145 0.0
N273 N 0.96146 0.60409 0.91448 0.0
C274 C 0.02026 0.54623 0.95896 0.0
C275 C 0.99375 0.59582 0.96442 0.0
C276 C 0.96905 0.55954 0.87983 0.0
N277 N 0.00254 0.52312 0.90695 0.0
O278 O 0.8897 0.66182 0.98062 0.0
H279 H 0.99933 0.62488 1.00108 0.0
H280 H 0.95045 0.55403 0.83504 0.0
O281 O 0.94545 0.6661 0.81205 0.0
C282 C 0.85095 0.64635 1.0151 0.0
O283 O 0.80634 0.62457 0.99187 0.0
N284 N 0.85999 0.61282 0.86636 0.0
C285 C 0.81722 0.52244 0.80378 0.0
C286 C 0.81533 0.57457 0.77739 0.0
C287 C 0.83792 0.61882 0.80886 0.0
C288 C 0.85179 0.56489 0.89678 0.0
C289 C 0.83125 0.51925 0.86636 0.0
H290 H 0.84269 0.65588 0.7835 0.0
H291 H 0.86912 0.55872 0.94199 0.0
H292 H 0.88857 0.74077 0.78135 0.0
H293 H 0.76698 0.80792 0.88963 0.0
H294 H 0.0529 0.53038 0.98755 0.0
H295 H 0.8017 0.58071 0.73063 0.0
H296 H 0.83327 0.48095 0.89069 0.0
C297 C 0.25427 0.8226 0.9103 0.0
C298 C 0.21597 0.7941 0.87657 0.0
N299 N 0.21546 0.81396 0.81935 0.0
N300 N 0.27878 0.86013 0.87468 0.0
C301 C 0.25251 0.85469 0.81967 0.0
H302 H 0.26452 0.81407 0.95735 0.0
Co303 Co 0.34109 0.9044 0.89499 0.0
C304 C 0.34157 0.9766 0.77775 0.0
O305 O 0.33279 0.97177 0.71881 0.0
N306 N 0.40209 0.94809 0.91552 0.0
C307 C 0.46966 0.99112 0.96581 0.0
C308 C 0.41797 0.96891 0.97032 0.0
C309 C 0.44435 0.95853 0.87884 0.0
N310 N 0.48557 0.98423 0.90833 0.0
O311 O 0.33909 0.88013 0.98112 0.0
H312 H 0.39421 0.967 1.01133 0.0
H313 H 0.44553 0.94575 0.83166 0.0
O314 O 0.33979 0.93327 0.81065 0.0
C315 C 0.35306 0.84233 1.01856 0.0
O316 O 0.37626 0.79752 0.99933 0.0
N317 N 0.39021 0.84719 0.87041 0.0
C318 C 0.48111 0.80557 0.81066 0.0
C319 C 0.42896 0.80287 0.78337 0.0
C320 C 0.3844 0.82485 0.81345 0.0
C321 C 0.4382 0.83933 0.90204 0.0
C322 C 0.48421 0.81962 0.8729 0.0
H323 H 0.34725 0.82921 0.78727 0.0
H324 H 0.4441 0.85624 0.94715 0.0
H325 H 0.26288 0.87733 0.77921 0.0
H326 H 0.19275 0.75952 0.89232 0.0
H327 H 0.49371 0.01105 1.00078 0.0
H328 H 0.42304 0.78914 0.73682 0.0
H329 H 0.52262 0.82209 0.89772 0.0
C330 C 0.20281 0.26185 0.88907 0.0
C331 C 0.23034 0.21995 0.86172 0.0
N332 N 0.20083 0.20366 0.81271 0.0
N333 N 0.15604 0.27224 0.85752 0.0
C334 C 0.15556 0.23462 0.81219 0.0
H335 H 0.21936 0.28627 0.9256 0.0
Co336 Co 0.11201 0.33547 0.85971 0.0
C337 C 0.04467 0.31245 0.75111 0.0
O338 O 0.04031 0.29771 0.69374 0.0
N339 N 0.06873 0.39969 0.85901 0.0
C340 C 0.03211 0.4746 0.81825 0.0
C341 C 0.06061 0.42847 0.80673 0.0
C342 C 0.04663 0.43158 0.90276 0.0
N343 N 0.02432 0.47721 0.87808 0.0
O344 O 0.12667 0.34275 0.94901 0.0
H345 H 0.07709 0.41861 0.7628 0.0
H346 H 0.04876 0.42281 0.95119 0.0
O347 O 0.09197 0.32281 0.77394 0.0
C348 C 0.16125 0.3561 0.99105 0.0
O349 O 0.20978 0.37464 0.97761 0.0
N350 N 0.17221 0.38016 0.83744 0.0
C351 C 0.22252 0.46874 0.78134 0.0
C352 C 0.2227 0.41692 0.7538 0.0
C353 C 0.1975 0.37285 0.78298 0.0
C354 C 0.17951 0.42792 0.86836 0.0
C355 C 0.20531 0.47193 0.84196 0.0
H356 H 0.19304 0.33486 0.75851 0.0
H357 H 0.15824 0.4358 0.90994 0.0
H358 H 0.12517 0.23257 0.77603 0.0
H359 H 0.27142 0.20691 0.87316 0.0
H360 H 0.01972 0.50554 0.7862 0.0
H361 H 0.23727 0.41149 0.7079 0.0
H362 H 0.20359 0.51009 0.86645 0.0
C363 C 0.74978 0.18775 0.89022 0.0
C364 C 0.79114 0.21447 0.86068 0.0
N365 N 0.80345 0.18547 0.81087 0.0
N366 N 0.73559 0.14224 0.8589 0.0
C367 C 0.77078 0.1416 0.81176 0.0
H368 H 0.7288 0.20388 0.92878 0.0
Co369 Co 0.67145 0.09868 0.86299 0.0
C370 C 0.69373 0.02782 0.75774 0.0
O371 O 0.70902 0.02335 0.70096 0.0
N372 N 0.60713 0.0554 0.86316 0.0
C373 C 0.53214 0.0196 0.82099 0.0
C374 C 0.57765 0.0493 0.81064 0.0
C375 C 0.57667 0.02994 0.90586 0.0
N376 N 0.53106 0.00767 0.88029 0.0
O377 O 0.6628 0.11755 0.95156 0.0
H378 H 0.58679 0.0679 0.7673 0.0
H379 H 0.58656 0.02948 0.95421 0.0
O380 O 0.68404 0.07529 0.77905 0.0
C381 C 0.64946 0.15582 0.98848 0.0
O382 O 0.63438 0.20394 0.96797 0.0
N383 N 0.62738 0.15828 0.83512 0.0
C384 C 0.54024 0.20977 0.77445 0.0
C385 C 0.59216 0.20817 0.74825 0.0
C386 C 0.63548 0.18241 0.77969 0.0
C387 C 0.57938 0.16658 0.86413 0.0
C388 C 0.53621 0.19312 0.83555 0.0
H389 H 0.67344 0.17672 0.75639 0.0
H390 H 0.5708 0.14595 0.90635 0.0
H391 H 0.77027 0.11229 0.77519 0.0
H392 H 0.80662 0.25473 0.87136 0.0
H393 H 0.50053 0.00953 0.78838 0.0
H394 H 0.59818 0.22196 0.70191 0.0
H395 H 0.4979 0.19255 0.85909 0.0
C396 C 0.83759 0.23944 0.6658 0.0
C397 C 0.81066 0.20144 0.70057 0.0
N398 N 0.82891 0.20629 0.75853 0.0
N399 N 0.87164 0.26923 0.70195 0.0
C400 C 0.86653 0.24595 0.75794 0.0
H401 H 0.83151 0.24488 0.61731 0.0
Co402 Co 0.91784 0.32906 0.68174 0.0
C403 C 0.9955 0.31728 0.78802 0.0
O404 O 0.99983 0.31297 0.84765 0.0
N405 N 0.96645 0.38585 0.66209 0.0
C406 C 0.03135 0.43143 0.61407 0.0
C407 C 0.00162 0.38386 0.61554 0.0
C408 C 0.97569 0.4352 0.68813 0.0
N409 N 0.01476 0.46355 0.65957 0.0
O410 O 0.88928 0.32994 0.59605 0.0
H411 H 0.00492 0.35005 0.5842 0.0
H412 H 0.95272 0.45118 0.7257 0.0
O413 O 0.94855 0.32669 0.76409 0.0
C414 C 0.84484 0.34102 0.56675 0.0
O415 O 0.80089 0.35528 0.59595 0.0
N416 N 0.86418 0.38147 0.70775 0.0
C417 C 0.81811 0.47221 0.76471 0.0
C418 C 0.81552 0.42038 0.7915 0.0
C419 C 0.84054 0.37632 0.7635 0.0
C420 C 0.85608 0.42871 0.67549 0.0
C421 C 0.8345 0.47487 0.70348 0.0
H422 H 0.84484 0.34011 0.79032 0.0
H423 H 0.87312 0.4335 0.63065 0.0
H424 H 0.88771 0.25915 0.79898 0.0
H425 H 0.77818 0.17466 0.68509 0.0
H426 H 0.06151 0.44267 0.5811 0.0
H427 H 0.79954 0.41439 0.83667 0.0
H428 H 0.83664 0.51296 0.67881 0.0
C429 C 0.75932 0.81521 0.67598 0.0
C430 C 0.79814 0.78769 0.71053 0.0
N431 N 0.79893 0.80935 0.7668 0.0
N432 N 0.73496 0.85355 0.71054 0.0
C433 C 0.7616 0.84952 0.76541 0.0
H434 H 0.74935 0.80643 0.62891 0.0
Co435 Co 0.67681 0.90267 0.68979 0.0
C436 C 0.68878 0.97866 0.79571 0.0
O437 O 0.69256 0.98295 0.85536 0.0
N438 N 0.62182 0.95324 0.66903 0.0
C439 C 0.57572 0.01516 0.61479 0.0
C440 C 0.62336 0.98587 0.61942 0.0
C441 C 0.57296 0.96396 0.69412 0.0
N442 N 0.54428 0.00128 0.66176 0.0
O443 O 0.67448 0.87705 0.60398 0.0
H444 H 0.65636 0.98678 0.58741 0.0
H445 H 0.55707 0.94218 0.73285 0.0
O446 O 0.68015 0.93164 0.77246 0.0
C447 C 0.65863 0.83653 0.57144 0.0
O448 O 0.63945 0.79226 0.59701 0.0
N449 N 0.6228 0.85038 0.71511 0.0
C450 C 0.53129 0.80684 0.77248 0.0
C451 C 0.58336 0.80279 0.79975 0.0
C452 C 0.62807 0.82602 0.77115 0.0
C453 C 0.57466 0.84477 0.68314 0.0
C454 C 0.52831 0.82426 0.71121 0.0
H455 H 0.66534 0.8286 0.79742 0.0
H456 H 0.56956 0.86294 0.63839 0.0
H457 H 0.75242 0.87358 0.80511 0.0
H458 H 0.82168 0.7528 0.6963 0.0
H459 H 0.56349 0.04214 0.57813 0.0
H460 H 0.58923 0.78655 0.84534 0.0
H461 H 0.48992 0.82804 0.68654 0.0
C462 C 0.17322 0.76145 0.67347 0.0
C463 C 0.19914 0.80086 0.70849 0.0
N464 N 0.19087 0.78896 0.76746 0.0
N465 N 0.15008 0.72369 0.71006 0.0
C466 C 0.16015 0.74341 0.76718 0.0
H467 H 0.17102 0.76159 0.62426 0.0
Co468 Co 0.1067 0.66086 0.68889 0.0
C469 C 0.0439 0.65743 0.80724 0.0
O470 O 0.05033 0.65643 0.86673 0.0
N471 N 0.06097 0.6019 0.66833 0.0
C472 C 0.9971 0.55423 0.61846 0.0
C473 C 0.02212 0.60424 0.62384 0.0
C474 C 0.05866 0.55001 0.68941 0.0
N475 N 0.02005 0.52064 0.65986 0.0
O476 O 0.12439 0.66756 0.60173 0.0
H477 H 0.01342 0.63988 0.59618 0.0
H478 H 0.08652 0.53337 0.72345 0.0
O479 O 0.08653 0.65355 0.77461 0.0
C480 C 0.16808 0.66525 0.57089 0.0
O481 O 0.21597 0.6621 0.59846 0.0
N482 N 0.16747 0.61172 0.70236 0.0
C483 C 0.22393 0.52018 0.7445 0.0
C484 C 0.23 0.57045 0.77436 0.0
C485 C 0.19912 0.6149 0.75426 0.0
C486 C 0.17429 0.56798 0.66437 0.0
C487 C 0.20109 0.52103 0.68523 0.0
H488 H 0.19697 0.64912 0.78433 0.0
H489 H 0.15189 0.56549 0.62147 0.0
H490 H 0.14638 0.72427 0.80847 0.0
H491 H 0.2225 0.83498 0.69177 0.0
H492 H 0.96602 0.54249 0.58564 0.0
H493 H 0.2513 0.57339 0.81799 0.0
H494 H 0.19683 0.48427 0.65836 0.0
C495 C 0.24435 0.15499 0.66834 0.0
C496 C 0.20572 0.18023 0.70347 0.0
N497 N 0.22157 0.17515 0.76227 0.0
N498 N 0.28552 0.13599 0.70462 0.0
C499 C 0.26849 0.14704 0.76187 0.0
H500 H 0.24161 0.15054 0.61937 0.0
Co501 Co 0.3481 0.09457 0.68363 0.0
C502 C 0.35215 0.0313 0.80334 0.0
O503 O 0.35448 0.03777 0.86272 0.0
N504 N 0.40695 0.04955 0.66383 0.0
C505 C 0.45323 0.98196 0.62139 0.0
C506 C 0.40382 0.00849 0.62294 0.0
C507 C 0.45869 0.04724 0.68639 0.0
N508 N 0.48727 0.00663 0.66116 0.0
O509 O 0.33897 0.1145 0.59624 0.0
H510 H 0.3677 0.99843 0.59618 0.0
H511 H 0.47563 0.07569 0.71926 0.0
O512 O 0.35731 0.07365 0.76959 0.0
C513 C 0.33809 0.16051 0.56823 0.0
O514 O 0.34045 0.20642 0.59884 0.0
N515 N 0.39699 0.1559 0.69598 0.0
C516 C 0.48899 0.21259 0.73633 0.0
C517 C 0.43894 0.21989 0.76509 0.0
C518 C 0.39434 0.18861 0.74627 0.0
C519 C 0.44006 0.16261 0.65765 0.0
C520 C 0.48745 0.18926 0.67785 0.0
H521 H 0.36052 0.1875 0.77615 0.0
H522 H 0.44169 0.14015 0.61531 0.0
H523 H 0.29039 0.13602 0.80328 0.0
H524 H 0.16991 0.20178 0.68686 0.0
H525 H 0.46408 0.94788 0.59301 0.0
H526 H 0.43645 0.24209 0.80763 0.0
H527 H 0.52394 0.18449 0.65144 0.0
loop_
_geom_bond_atom_site_label_1
_geom_bond_atom_site_label_2
_geom_bond_distance
_geom_bond_site_symmetry_2
_ccdc_geom_bond_type
C0 C1 1.351 . S
C0 N3 1.368 . S
C0 H5 0.931 . S
C1 C0 1.351 . S
C1 N2 1.373 . S
C1 H29 0.930 . S
N2 C1 1.373 . S
N2 C4 1.340 . S
N3 C0 1.368 . S
N3 C4 1.321 . S
N3 Co6 2.135 . S
C4 N2 1.340 . S
C4 N3 1.321 . S
C4 H28 0.930 . S
H5 C0 0.931 . S
Co6 N3 2.135 . S
Co6 N9 2.121 . S
Co6 O14 2.055 . S
Co6 O17 2.039 . S
Co6 N20 2.140 . S
C7 O8 1.227 . S
C7 O17 1.265 . S
O8 C7 1.227 . S
N9 Co6 2.121 . S
N9 C11 1.375 . S
N9 C12 1.313 . S
C10 C11 1.338 . S
C10 N13 1.377 . S
C10 H30 0.930 . S
C11 N9 1.375 . S
C11 C10 1.338 . S
C11 H15 0.931 . S
C12 N9 1.313 . S
C12 N13 1.344 . S
C12 H16 0.930 . S
N13 C10 1.377 . S
N13 C12 1.344 . S
O14 Co6 2.055 . S
O14 C18 1.253 . S
H15 C11 0.931 . S
H16 C12 0.930 . S
O17 Co6 2.039 . S
O17 C7 1.265 . S
C18 O14 1.253 . S
C18 O19 1.227 . S
O19 C18 1.227 . S
N20 Co6 2.140 . S
N20 C23 1.346 . S
N20 C24 1.345 . S
C21 C22 1.387 . S
C21 C25 1.391 . S
C22 C21 1.387 . S
C22 C23 1.369 . S
C22 H31 0.929 . S
C23 N20 1.346 . S
C23 C22 1.369 . S
C23 H26 0.928 . S
C24 N20 1.345 . S
C24 C25 1.371 . S
C24 H27 0.931 . S
C25 C21 1.391 . S
C25 C24 1.371 . S
C25 H32 0.930 1_455 S
H26 C23 0.928 . S
H27 C24 0.931 . S
H28 C4 0.930 . S
H29 C1 0.930 . S
H30 C10 0.930 . S
H31 C22 0.929 . S
H32 C25 0.930 1_655 S
C33 C34 1.351 . S
C33 N36 1.368 . S
C33 H38 0.931 . S
C34 C33 1.351 . S
C34 N35 1.373 . S
C34 H62 0.930 . S
N35 C34 1.373 . S
N35 C37 1.340 . S
N36 C33 1.368 . S
N36 C37 1.321 . S
N36 Co39 2.135 . S
C37 N35 1.340 . S
C37 N36 1.321 . S
C37 H61 0.930 . S
H38 C33 0.931 . S
Co39 N36 2.135 . S
Co39 N42 2.121 . S
Co39 O47 2.055 . S
Co39 O50 2.039 . S
Co39 N53 2.140 . S
C40 O41 1.227 . S
C40 O50 1.265 . S
O41 C40 1.227 . S
N42 Co39 2.121 . S
N42 C44 1.375 . S
N42 C45 1.313 . S
C43 C44 1.338 . S
C43 N46 1.377 . S
C43 H63 0.930 . S
C44 N42 1.375 . S
C44 C43 1.338 . S
C44 H48 0.931 . S
C45 N42 1.313 . S
C45 N46 1.344 . S
C45 H49 0.930 . S
N46 C43 1.377 . S
N46 C45 1.344 . S
O47 Co39 2.055 . S
O47 C51 1.253 . S
H48 C44 0.931 . S
H49 C45 0.930 . S
O50 Co39 2.039 . S
O50 C40 1.265 . S
C51 O47 1.253 . S
C51 O52 1.227 . S
O52 C51 1.227 . S
N53 Co39 2.140 . S
N53 C56 1.346 . S
N53 C57 1.345 . S
C54 C55 1.387 . S
C54 C58 1.391 . S
C55 C54 1.387 . S
C55 C56 1.369 . S
C55 H64 0.929 . S
C56 N53 1.346 . S
C56 C55 1.369 . S
C56 H59 0.928 . S
C57 N53 1.345 . S
C57 C58 1.371 . S
C57 H60 0.931 . S
C58 C54 1.391 . S
C58 C57 1.371 . S
C58 H65 0.930 1_545 S
H59 C56 0.928 . S
H60 C57 0.931 . S
H61 C37 0.930 . S
H62 C34 0.930 . S
H63 C43 0.930 . S
H64 C55 0.929 . S
H65 C58 0.930 1_565 S
C66 C67 1.351 . S
C66 N69 1.368 . S
C66 H71 0.931 . S
C67 C66 1.351 . S
C67 N68 1.373 . S
C67 H95 0.930 . S
N68 C67 1.373 . S
N68 C70 1.340 . S
N69 C66 1.368 . S
N69 C70 1.321 . S
N69 Co72 2.135 . S
C70 N68 1.340 . S
C70 N69 1.321 . S
C70 H94 0.930 . S
H71 C66 0.931 . S
Co72 N69 2.135 . S
Co72 N75 2.121 . S
Co72 O80 2.055 . S
Co72 O83 2.039 . S
Co72 N86 2.140 . S
C73 O74 1.227 . S
C73 O83 1.265 . S
O74 C73 1.227 . S
N75 Co72 2.121 . S
N75 C77 1.375 . S
N75 C78 1.313 . S
C76 C77 1.338 . S
C76 N79 1.377 . S
C76 H96 0.930 . S
C77 N75 1.375 . S
C77 C76 1.338 . S
C77 H81 0.931 . S
C78 N75 1.313 . S
C78 N79 1.344 . S
C78 H82 0.930 . S
N79 C76 1.377 . S
N79 C78 1.344 . S
O80 Co72 2.055 . S
O80 C84 1.253 . S
H81 C77 0.931 . S
H82 C78 0.930 . S
O83 Co72 2.039 . S
O83 C73 1.265 . S
C84 O80 1.253 . S
C84 O85 1.227 . S
O85 C84 1.227 . S
N86 Co72 2.140 . S
N86 C89 1.346 . S
N86 C90 1.345 . S
C87 C88 1.387 . S
C87 C91 1.391 . S
C88 C87 1.387 . S
C88 C89 1.369 . S
C88 H97 0.929 . S
C89 N86 1.346 . S
C89 C88 1.369 . S
C89 H92 0.928 . S
C90 N86 1.345 . S
C90 C91 1.371 . S
C90 H93 0.931 . S
C91 C87 1.391 . S
C91 C90 1.371 . S
C91 H98 0.930 1_655 S
H92 C89 0.928 . S
H93 C90 0.931 . S
H94 C70 0.930 . S
H95 C67 0.930 . S
H96 C76 0.930 . S
H97 C88 0.929 . S
H98 C91 0.930 1_455 S
C99 C100 1.351 . S
C99 N102 1.368 . S
C99 H104 0.931 . S
C100 C99 1.351 . S
C100 N101 1.373 . S
C100 H128 0.930 . S
N101 C100 1.373 . S
N101 C103 1.340 . S
N102 C99 1.368 . S
N102 C103 1.321 . S
N102 Co105 2.135 . S
C103 N101 1.340 . S
C103 N102 1.321 . S
C103 H127 0.930 . S
H104 C99 0.931 . S
Co105 N102 2.135 . S
Co105 N108 2.121 . S
Co105 O113 2.055 . S
Co105 O116 2.039 . S
Co105 N119 2.140 . S
C106 O107 1.227 . S
C106 O116 1.265 . S
O107 C106 1.227 . S
N108 Co105 2.121 . S
N108 C110 1.375 . S
N108 C111 1.313 . S
C109 C110 1.338 . S
C109 N112 1.377 . S
C109 H129 0.930 . S
C110 N108 1.375 . S
C110 C109 1.338 . S
C110 H114 0.931 . S
C111 N108 1.313 . S
C111 N112 1.344 . S
C111 H115 0.930 . S
N112 C109 1.377 . S
N112 C111 1.344 . S
O113 Co105 2.055 . S
O113 C117 1.253 . S
H114 C110 0.931 . S
H115 C111 0.930 . S
O116 Co105 2.039 . S
O116 C106 1.265 . S
C117 O113 1.253 . S
C117 O118 1.227 . S
O118 C117 1.227 . S
N119 Co105 2.140 . S
N119 C122 1.346 . S
N119 C123 1.345 . S
C120 C121 1.387 . S
C120 C124 1.391 . S
C121 C120 1.387 . S
C121 C122 1.369 . S
C121 H130 0.929 . S
C122 N119 1.346 . S
C122 C121 1.369 . S
C122 H125 0.928 . S
C123 N119 1.345 . S
C123 C124 1.371 . S
C123 H126 0.931 . S
C124 C120 1.391 . S
C124 C123 1.371 . S
C124 H131 0.930 1_565 S
H125 C122 0.928 . S
H126 C123 0.931 . S
H127 C103 0.930 . S
H128 C100 0.930 . S
H129 C109 0.930 . S
H130 C121 0.929 . S
H131 C124 0.930 1_545 S
C132 C133 1.351 . S
C132 N135 1.368 . S
C132 H137 0.931 . S
C133 C132 1.351 . S
C133 N134 1.373 . S
C133 H161 0.930 . S
N134 C133 1.373 . S
N134 C136 1.340 . S
N135 C132 1.368 . S
N135 C136 1.321 . S
N135 Co138 2.135 . S
C136 N134 1.340 . S
C136 N135 1.321 . S
C136 H160 0.930 . S
H137 C132 0.931 . S
Co138 N135 2.135 . S
Co138 N141 2.121 . S
Co138 O146 2.055 . S
Co138 O149 2.039 . S
Co138 N152 2.140 . S
C139 O140 1.227 . S
C139 O149 1.265 . S
O140 C139 1.227 . S
N141 Co138 2.121 . S
N141 C143 1.375 . S
N141 C144 1.313 . S
C142 C143 1.338 . S
C142 N145 1.377 . S
C142 H162 0.930 . S
C143 N141 1.375 . S
C143 C142 1.338 . S
C143 H147 0.931 . S
C144 N141 1.313 . S
C144 N145 1.344 . S
C144 H148 0.930 . S
N145 C142 1.377 . S
N145 C144 1.344 . S
O146 Co138 2.055 . S
O146 C150 1.253 . S
H147 C143 0.931 . S
H148 C144 0.930 . S
O149 Co138 2.039 . S
O149 C139 1.265 . S
C150 O146 1.253 . S
C150 O151 1.227 . S
O151 C150 1.227 . S
N152 Co138 2.140 . S
N152 C155 1.346 . S
N152 C156 1.345 . S
C153 C154 1.387 . S
C153 C157 1.391 . S
C154 C153 1.387 . S
C154 C155 1.369 . S
C154 H163 0.929 . S
C155 N152 1.346 . S
C155 C154 1.369 . S
C155 H158 0.928 . S
C156 N152 1.345 . S
C156 C157 1.371 . S
C156 H159 0.931 . S
C157 C153 1.391 . S
C157 C156 1.371 . S
C157 H164 0.930 1_455 S
H158 C155 0.928 . S
H159 C156 0.931 . S
H160 C136 0.930 . S
H161 C133 0.930 . S
H162 C142 0.930 . S
H163 C154 0.929 . S
H164 C157 0.930 1_655 S
C165 C166 1.351 . S
C165 N168 1.368 . S
C165 H170 0.931 . S
C166 C165 1.351 . S
C166 N167 1.373 . S
C166 H194 0.930 . S
N167 C166 1.373 . S
N167 C169 1.340 . S
N168 C165 1.368 . S
N168 C169 1.321 . S
N168 Co171 2.135 . S
C169 N167 1.340 . S
C169 N168 1.321 . S
C169 H193 0.930 . S
H170 C165 0.931 . S
Co171 N168 2.135 . S
Co171 N174 2.121 . S
Co171 O179 2.055 . S
Co171 O182 2.039 . S
Co171 N185 2.140 . S
C172 O173 1.227 . S
C172 O182 1.265 . S
O173 C172 1.227 . S
N174 Co171 2.121 . S
N174 C176 1.375 . S
N174 C177 1.313 . S
C175 C176 1.338 . S
C175 N178 1.377 . S
C175 H195 0.930 . S
C176 N174 1.375 . S
C176 C175 1.338 . S
C176 H180 0.931 . S
C177 N174 1.313 . S
C177 N178 1.344 . S
C177 H181 0.930 . S
N178 C175 1.377 . S
N178 C177 1.344 . S
O179 Co171 2.055 . S
O179 C183 1.253 . S
H180 C176 0.931 . S
H181 C177 0.930 . S
O182 Co171 2.039 . S
O182 C172 1.265 . S
C183 O179 1.253 . S
C183 O184 1.227 . S
O184 C183 1.227 . S
N185 Co171 2.140 . S
N185 C188 1.346 . S
N185 C189 1.345 . S
C186 C187 1.387 . S
C186 C190 1.391 . S
C187 C186 1.387 . S
C187 C188 1.369 . S
C187 H196 0.929 . S
C188 N185 1.346 . S
C188 C187 1.369 . S
C188 H191 0.928 . S
C189 N185 1.345 . S
C189 C190 1.371 . S
C189 H192 0.931 . S
C190 C186 1.391 . S
C190 C189 1.371 . S
C190 H197 0.930 1_545 S
H191 C188 0.928 . S
H192 C189 0.931 . S
H193 C169 0.930 . S
H194 C166 0.930 . S
H195 C175 0.930 . S
H196 C187 0.929 . S
H197 C190 0.930 1_565 S
C198 C199 1.351 . S
C198 N201 1.368 . S
C198 H203 0.931 . S
C199 C198 1.351 . S
C199 N200 1.373 . S
C199 H227 0.930 . S
N200 C199 1.373 . S
N200 C202 1.340 . S
N201 C198 1.368 . S
N201 C202 1.321 . S
N201 Co204 2.135 . S
C202 N200 1.340 . S
C202 N201 1.321 . S
C202 H226 0.930 . S
H203 C198 0.931 . S
Co204 N201 2.135 . S
Co204 N207 2.121 . S
Co204 O212 2.055 . S
Co204 O215 2.039 . S
Co204 N218 2.140 . S
C205 O206 1.227 . S
C205 O215 1.265 . S
O206 C205 1.227 . S
N207 Co204 2.121 . S
N207 C209 1.375 . S
N207 C210 1.313 . S
C208 C209 1.338 . S
C208 N211 1.377 . S
C208 H228 0.930 . S
C209 N207 1.375 . S
C209 C208 1.338 . S
C209 H213 0.931 . S
C210 N207 1.313 . S
C210 N211 1.344 . S
C210 H214 0.930 . S
N211 C208 1.377 . S
N211 C210 1.344 . S
O212 Co204 2.055 . S
O212 C216 1.253 . S
H213 C209 0.931 . S
H214 C210 0.930 . S
O215 Co204 2.039 . S
O215 C205 1.265 . S
C216 O212 1.253 . S
C216 O217 1.227 . S
O217 C216 1.227 . S
N218 Co204 2.140 . S
N218 C221 1.346 . S
N218 C222 1.345 . S
C219 C220 1.387 . S
C219 C223 1.391 . S
C220 C219 1.387 . S
C220 C221 1.369 . S
C220 H229 0.929 . S
C221 N218 1.346 . S
C221 C220 1.369 . S
C221 H224 0.928 . S
C222 N218 1.345 . S
C222 C223 1.371 . S
C222 H225 0.931 . S
C223 C219 1.391 . S
C223 C222 1.371 . S
C223 H230 0.930 1_655 S
H224 C221 0.928 . S
H225 C222 0.931 . S
H226 C202 0.930 . S
H227 C199 0.930 . S
H228 C208 0.930 . S
H229 C220 0.929 . S
H230 C223 0.930 1_455 S
C231 C232 1.351 . S
C231 N234 1.368 . S
C231 H236 0.931 . S
C232 C231 1.351 . S
C232 N233 1.373 . S
C232 H260 0.930 . S
N233 C232 1.373 . S
N233 C235 1.340 . S
N234 C231 1.368 . S
N234 C235 1.321 . S
N234 Co237 2.135 . S
C235 N233 1.340 . S
C235 N234 1.321 . S
C235 H259 0.930 . S
H236 C231 0.931 . S
Co237 N234 2.135 . S
Co237 N240 2.121 . S
Co237 O245 2.055 . S
Co237 O248 2.039 . S
Co237 N251 2.140 . S
C238 O239 1.227 . S
C238 O248 1.265 . S
O239 C238 1.227 . S
N240 Co237 2.121 . S
N240 C242 1.375 . S
N240 C243 1.313 . S
C241 C242 1.338 . S
C241 N244 1.377 . S
C241 H261 0.930 . S
C242 N240 1.375 . S
C242 C241 1.338 . S
C242 H246 0.931 . S
C243 N240 1.313 . S
C243 N244 1.344 . S
C243 H247 0.930 . S
N244 C241 1.377 . S
N244 C243 1.344 . S
O245 Co237 2.055 . S
O245 C249 1.253 . S
H246 C242 0.931 . S
H247 C243 0.930 . S
O248 Co237 2.039 . S
O248 C238 1.265 . S
C249 O245 1.253 . S
C249 O250 1.227 . S
O250 C249 1.227 . S
N251 Co237 2.140 . S
N251 C254 1.346 . S
N251 C255 1.345 . S
C252 C253 1.387 . S
C252 C256 1.391 . S
C253 C252 1.387 . S
C253 C254 1.369 . S
C253 H262 0.929 . S
C254 N251 1.346 . S
C254 C253 1.369 . S
C254 H257 0.928 . S
C255 N251 1.345 . S
C255 C256 1.371 . S
C255 H258 0.931 . S
C256 C252 1.391 . S
C256 C255 1.371 . S
C256 H263 0.930 1_565 S
H257 C254 0.928 . S
H258 C255 0.931 . S
H259 C235 0.930 . S
H260 C232 0.930 . S
H261 C241 0.930 . S
H262 C253 0.929 . S
H263 C256 0.930 1_545 S
C264 C265 1.351 . S
C264 N267 1.368 . S
C264 H269 0.931 . S
C265 C264 1.351 . S
C265 N266 1.373 . S
C265 H293 0.930 . S
N266 C265 1.373 . S
N266 C268 1.340 . S
N267 C264 1.368 . S
N267 C268 1.321 . S
N267 Co270 2.135 . S
C268 N266 1.340 . S
C268 N267 1.321 . S
C268 H292 0.930 . S
H269 C264 0.931 . S
Co270 N267 2.135 . S
Co270 N273 2.121 . S
Co270 O278 2.055 . S
Co270 O281 2.039 . S
Co270 N284 2.140 . S
C271 O272 1.227 . S
C271 O281 1.265 . S
O272 C271 1.227 . S
N273 Co270 2.121 . S
N273 C275 1.375 1_655 S
N273 C276 1.313 . S
C274 C275 1.338 . S
C274 N277 1.377 . S
C274 H294 0.930 . S
C275 N273 1.375 1_455 S
C275 C274 1.338 . S
C275 H279 0.931 . S
C276 N273 1.313 . S
C276 N277 1.344 1_655 S
C276 H280 0.930 . S
N277 C274 1.377 . S
N277 C276 1.344 1_455 S
O278 Co270 2.055 . S
O278 C282 1.253 . S
H279 C275 0.931 . S
H280 C276 0.930 . S
O281 Co270 2.039 . S
O281 C271 1.265 . S
C282 O278 1.253 . S
C282 O283 1.227 . S
O283 C282 1.227 . S
N284 Co270 2.140 . S
N284 C287 1.346 . S
N284 C288 1.345 . S
C285 C286 1.387 . S
C285 C289 1.391 . S
C286 C285 1.387 . S
C286 C287 1.369 . S
C286 H295 0.929 . S
C287 N284 1.346 . S
C287 C286 1.369 . S
C287 H290 0.928 . S
C288 N284 1.345 . S
C288 C289 1.371 . S
C288 H291 0.931 . S
C289 C285 1.391 . S
C289 C288 1.371 . S
C289 H296 0.930 . S
H290 C287 0.928 . S
H291 C288 0.931 . S
H292 C268 0.930 . S
H293 C265 0.930 . S
H294 C274 0.930 . S
H295 C286 0.929 . S
H296 C289 0.930 . S
C297 C298 1.351 . S
C297 N300 1.368 . S
C297 H302 0.931 . S
C298 C297 1.351 . S
C298 N299 1.373 . S
C298 H326 0.930 . S
N299 C298 1.373 . S
N299 C301 1.340 . S
N300 C297 1.368 . S
N300 C301 1.321 . S
N300 Co303 2.135 . S
C301 N299 1.340 . S
C301 N300 1.321 . S
C301 H325 0.930 . S
H302 C297 0.931 . S
Co303 N300 2.135 . S
Co303 N306 2.121 . S
Co303 O311 2.055 . S
Co303 O314 2.039 . S
Co303 N317 2.140 . S
C304 O305 1.227 . S
C304 O314 1.265 . S
O305 C304 1.227 . S
N306 Co303 2.121 . S
N306 C308 1.375 1_565 S
N306 C309 1.313 . S
C307 C308 1.338 . S
C307 N310 1.377 . S
C307 H327 0.930 . S
C308 N306 1.375 1_545 S
C308 C307 1.338 . S
C308 H312 0.931 . S
C309 N306 1.313 . S
C309 N310 1.344 1_565 S
C309 H313 0.930 . S
N310 C307 1.377 . S
N310 C309 1.344 1_545 S
O311 Co303 2.055 . S
O311 C315 1.253 . S
H312 C308 0.931 . S
H313 C309 0.930 . S
O314 Co303 2.039 . S
O314 C304 1.265 . S
C315 O311 1.253 . S
C315 O316 1.227 . S
O316 C315 1.227 . S
N317 Co303 2.140 . S
N317 C320 1.346 . S
N317 C321 1.345 . S
C318 C319 1.387 . S
C318 C322 1.391 . S
C319 C318 1.387 . S
C319 C320 1.369 . S
C319 H328 0.929 . S
C320 N317 1.346 . S
C320 C319 1.369 . S
C320 H323 0.928 . S
C321 N317 1.345 . S
C321 C322 1.371 . S
C321 H324 0.931 . S
C322 C318 1.391 . S
C322 C321 1.371 . S
C322 H329 0.930 . S
H323 C320 0.928 . S
H324 C321 0.931 . S
H325 C301 0.930 . S
H326 C298 0.930 . S
H327 C307 0.930 . S
H328 C319 0.929 . S
H329 C322 0.930 . S
C330 C331 1.351 . S
C330 N333 1.368 . S
C330 H335 0.931 . S
C331 C330 1.351 . S
C331 N332 1.373 . S
C331 H359 0.930 . S
N332 C331 1.373 . S
N332 C334 1.340 . S
N333 C330 1.368 . S
N333 C334 1.321 . S
N333 Co336 2.135 . S
C334 N332 1.340 . S
C334 N333 1.321 . S
C334 H358 0.930 . S
H335 C330 0.931 . S
Co336 N333 2.135 . S
Co336 N339 2.121 . S
Co336 O344 2.055 . S
Co336 O347 2.039 . S
Co336 N350 2.140 . S
C337 O338 1.227 . S
C337 O347 1.265 . S
O338 C337 1.227 . S
N339 Co336 2.121 . S
N339 C341 1.375 1_455 S
N339 C342 1.313 . S
C340 C341 1.338 . S
C340 N343 1.377 . S
C340 H360 0.930 . S
C341 N339 1.375 1_655 S
C341 C340 1.338 . S
C341 H345 0.931 . S
C342 N339 1.313 . S
C342 N343 1.344 1_455 S
C342 H346 0.930 . S
N343 C340 1.377 . S
N343 C342 1.344 1_655 S
O344 Co336 2.055 . S
O344 C348 1.253 . S
H345 C341 0.931 . S
H346 C342 0.930 . S
O347 Co336 2.039 . S
O347 C337 1.265 . S
C348 O344 1.253 . S
C348 O349 1.227 . S
O349 C348 1.227 . S
N350 Co336 2.140 . S
N350 C353 1.346 . S
N350 C354 1.345 . S
C351 C352 1.387 . S
C351 C355 1.391 . S
C352 C351 1.387 . S
C352 C353 1.369 . S
C352 H361 0.929 . S
C353 N350 1.346 . S
C353 C352 1.369 . S
C353 H356 0.928 . S
C354 N350 1.345 . S
C354 C355 1.371 . S
C354 H357 0.931 . S
C355 C351 1.391 . S
C355 C354 1.371 . S
C355 H362 0.930 . S
H356 C353 0.928 . S
H357 C354 0.931 . S
H358 C334 0.930 . S
H359 C331 0.930 . S
H360 C340 0.930 . S
H361 C352 0.929 . S
H362 C355 0.930 . S
C363 C364 1.351 . S
C363 N366 1.368 . S
C363 H368 0.931 . S
C364 C363 1.351 . S
C364 N365 1.373 . S
C364 H392 0.930 . S
N365 C364 1.373 . S
N365 C367 1.340 . S
N366 C363 1.368 . S
N366 C367 1.321 . S
N366 Co369 2.135 . S
C367 N365 1.340 . S
C367 N366 1.321 . S
C367 H391 0.930 . S
H368 C363 0.931 . S
Co369 N366 2.135 . S
Co369 N372 2.121 . S
Co369 O377 2.055 . S
Co369 O380 2.039 . S
Co369 N383 2.140 . S
C370 O371 1.227 . S
C370 O380 1.265 . S
O371 C370 1.227 . S
N372 Co369 2.121 . S
N372 C374 1.375 1_545 S
N372 C375 1.313 . S
C373 C374 1.338 . S
C373 N376 1.377 . S
C373 H393 0.930 . S
C374 N372 1.375 1_565 S
C374 C373 1.338 . S
C374 H378 0.931 . S
C375 N372 1.313 . S
C375 N376 1.344 1_545 S
C375 H379 0.930 . S
N376 C373 1.377 . S
N376 C375 1.344 1_565 S
O377 Co369 2.055 . S
O377 C381 1.253 . S
H378 C374 0.931 . S
H379 C375 0.930 . S
O380 Co369 2.039 . S
O380 C370 1.265 . S
C381 O377 1.253 . S
C381 O382 1.227 . S
O382 C381 1.227 . S
N383 Co369 2.140 . S
N383 C386 1.346 . S
N383 C387 1.345 . S
C384 C385 1.387 . S
C384 C388 1.391 . S
C385 C384 1.387 . S
C385 C386 1.369 . S
C385 H394 0.929 . S
C386 N383 1.346 . S
C386 C385 1.369 . S
C386 H389 0.928 . S
C387 N383 1.345 . S
C387 C388 1.371 . S
C387 H390 0.931 . S
C388 C384 1.391 . S
C388 C387 1.371 . S
C388 H395 0.930 . S
H389 C386 0.928 . S
H390 C387 0.931 . S
H391 C367 0.930 . S
H392 C364 0.930 . S
H393 C373 0.930 . S
H394 C385 0.929 . S
H395 C388 0.930 . S
C396 C397 1.351 . S
C396 N399 1.368 . S
C396 H401 0.931 . S
C397 C396 1.351 . S
C397 N398 1.373 . S
C397 H425 0.930 . S
N398 C397 1.373 . S
N398 C400 1.340 . S
N399 C396 1.368 . S
N399 C400 1.321 . S
N399 Co402 2.135 . S
C400 N398 1.340 . S
C400 N399 1.321 . S
C400 H424 0.930 . S
H401 C396 0.931 . S
Co402 N399 2.135 . S
Co402 N405 2.121 . S
Co402 O410 2.055 . S
Co402 O413 2.039 . S
Co402 N416 2.140 . S
C403 O404 1.227 . S
C403 O413 1.265 . S
O404 C403 1.227 . S
N405 Co402 2.121 . S
N405 C407 1.375 1_655 S
N405 C408 1.313 . S
C406 C407 1.338 . S
C406 N409 1.377 . S
C406 H426 0.930 . S
C407 N405 1.375 1_455 S
C407 C406 1.338 . S
C407 H411 0.931 . S
C408 N405 1.313 . S
C408 N409 1.344 1_655 S
C408 H412 0.930 . S
N409 C406 1.377 . S
N409 C408 1.344 1_455 S
O410 Co402 2.055 . S
O410 C414 1.253 . S
H411 C407 0.931 . S
H412 C408 0.930 . S
O413 Co402 2.039 . S
O413 C403 1.265 . S
C414 O410 1.253 . S
C414 O415 1.227 . S
O415 C414 1.227 . S
N416 Co402 2.140 . S
N416 C419 1.346 . S
N416 C420 1.345 . S
C417 C418 1.387 . S
C417 C421 1.391 . S
C418 C417 1.387 . S
C418 C419 1.369 . S
C418 H427 0.929 . S
C419 N416 1.346 . S
C419 C418 1.369 . S
C419 H422 0.928 . S
C420 N416 1.345 . S
C420 C421 1.371 . S
C420 H423 0.931 . S
C421 C417 1.391 . S
C421 C420 1.371 . S
C421 H428 0.930 . S
H422 C419 0.928 . S
H423 C420 0.931 . S
H424 C400 0.930 . S
H425 C397 0.930 . S
H426 C406 0.930 . S
H427 C418 0.929 . S
H428 C421 0.930 . S
C429 C430 1.351 . S
C429 N432 1.368 . S
C429 H434 0.931 . S
C430 C429 1.351 . S
C430 N431 1.373 . S
C430 H458 0.930 . S
N431 C430 1.373 . S
N431 C433 1.340 . S
N432 C429 1.368 . S
N432 C433 1.321 . S
N432 Co435 2.135 . S
C433 N431 1.340 . S
C433 N432 1.321 . S
C433 H457 0.930 . S
H434 C429 0.931 . S
Co435 N432 2.135 . S
Co435 N438 2.121 . S
Co435 O443 2.055 . S
Co435 O446 2.039 . S
Co435 N449 2.140 . S
C436 O437 1.227 . S
C436 O446 1.265 . S
O437 C436 1.227 . S
N438 Co435 2.121 . S
N438 C440 1.375 1_565 S
N438 C441 1.313 . S
C439 C440 1.338 . S
C439 N442 1.377 . S
C439 H459 0.930 . S
C440 N438 1.375 1_545 S
C440 C439 1.338 . S
C440 H444 0.931 . S
C441 N438 1.313 . S
C441 N442 1.344 1_565 S
C441 H445 0.930 . S
N442 C439 1.377 . S
N442 C441 1.344 1_545 S
O443 Co435 2.055 . S
O443 C447 1.253 . S
H444 C440 0.931 . S
H445 C441 0.930 . S
O446 Co435 2.039 . S
O446 C436 1.265 . S
C447 O443 1.253 . S
C447 O448 1.227 . S
O448 C447 1.227 . S
N449 Co435 2.140 . S
N449 C452 1.346 . S
N449 C453 1.345 . S
C450 C451 1.387 . S
C450 C454 1.391 . S
C451 C450 1.387 . S
C451 C452 1.369 . S
C451 H460 0.929 . S
C452 N449 1.346 . S
C452 C451 1.369 . S
C452 H455 0.928 . S
C453 N449 1.345 . S
C453 C454 1.371 . S
C453 H456 0.931 . S
C454 C450 1.391 . S
C454 C453 1.371 . S
C454 H461 0.930 . S
H455 C452 0.928 . S
H456 C453 0.931 . S
H457 C433 0.930 . S
H458 C430 0.930 . S
H459 C439 0.930 . S
H460 C451 0.929 . S
H461 C454 0.930 . S
C462 C463 1.351 . S
C462 N465 1.368 . S
C462 H467 0.931 . S
C463 C462 1.351 . S
C463 N464 1.373 . S
C463 H491 0.930 . S
N464 C463 1.373 . S
N464 C466 1.340 . S
N465 C462 1.368 . S
N465 C466 1.321 . S
N465 Co468 2.135 . S
C466 N464 1.340 . S
C466 N465 1.321 . S
C466 H490 0.930 . S
H467 C462 0.931 . S
Co468 N465 2.135 . S
Co468 N471 2.121 . S
Co468 O476 2.055 . S
Co468 O479 2.039 . S
Co468 N482 2.140 . S
C469 O470 1.227 . S
C469 O479 1.265 . S
O470 C469 1.227 . S
N471 Co468 2.121 . S
N471 C473 1.375 1_455 S
N471 C474 1.313 . S
C472 C473 1.338 . S
C472 N475 1.377 . S
C472 H492 0.930 . S
C473 N471 1.375 1_655 S
C473 C472 1.338 . S
C473 H477 0.931 . S
C474 N471 1.313 . S
C474 N475 1.344 1_455 S
C474 H478 0.930 . S
N475 C472 1.377 . S
N475 C474 1.344 1_655 S
O476 Co468 2.055 . S
O476 C480 1.253 . S
H477 C473 0.931 . S
H478 C474 0.930 . S
O479 Co468 2.039 . S
O479 C469 1.265 . S
C480 O476 1.253 . S
C480 O481 1.227 . S
O481 C480 1.227 . S
N482 Co468 2.140 . S
N482 C485 1.346 . S
N482 C486 1.345 . S
C483 C484 1.387 . S
C483 C487 1.391 . S
C484 C483 1.387 . S
C484 C485 1.369 . S
C484 H493 0.929 . S
C485 N482 1.346 . S
C485 C484 1.369 . S
C485 H488 0.928 . S
C486 N482 1.345 . S
C486 C487 1.371 . S
C486 H489 0.931 . S
C487 C483 1.391 . S
C487 C486 1.371 . S
C487 H494 0.930 . S
H488 C485 0.928 . S
H489 C486 0.931 . S
H490 C466 0.930 . S
H491 C463 0.930 . S
H492 C472 0.930 . S
H493 C484 0.929 . S
H494 C487 0.930 . S
C495 C496 1.351 . S
C495 N498 1.368 . S
C495 H500 0.931 . S
C496 C495 1.351 . S
C496 N497 1.373 . S
C496 H524 0.930 . S
N497 C496 1.373 . S
N497 C499 1.340 . S
N498 C495 1.368 . S
N498 C499 1.321 . S
N498 Co501 2.135 . S
C499 N497 1.340 . S
C499 N498 1.321 . S
C499 H523 0.930 . S
H500 C495 0.931 . S
Co501 N498 2.135 . S
Co501 N504 2.121 . S
Co501 O509 2.055 . S
Co501 O512 2.039 . S
Co501 N515 2.140 . S
C502 O503 1.227 . S
C502 O512 1.265 . S
O503 C502 1.227 . S
N504 Co501 2.121 . S
N504 C506 1.375 1_545 S
N504 C507 1.313 . S
C505 C506 1.338 . S
C505 N508 1.377 . S
C505 H525 0.930 . S
C506 N504 1.375 1_565 S
C506 C505 1.338 . S
C506 H510 0.931 . S
C507 N504 1.313 . S
C507 N508 1.344 1_545 S
C507 H511 0.930 . S
N508 C505 1.377 . S
N508 C507 1.344 1_565 S
O509 Co501 2.055 . S
O509 C513 1.253 . S
H510 C506 0.931 . S
H511 C507 0.930 . S
O512 Co501 2.039 . S
O512 C502 1.265 . S
C513 O509 1.253 . S
C513 O514 1.227 . S
O514 C513 1.227 . S
N515 Co501 2.140 . S
N515 C518 1.346 . S
N515 C519 1.345 . S
C516 C517 1.387 . S
C516 C520 1.391 . S
C517 C516 1.387 . S
C517 C518 1.369 . S
C517 H526 0.929 . S
C518 N515 1.346 . S
C518 C517 1.369 . S
C518 H521 0.928 . S
C519 N515 1.345 . S
C519 C520 1.371 . S
C519 H522 0.931 . S
C520 C516 1.391 . S
C520 C519 1.371 . S
C520 H527 0.930 . S
H521 C518 0.928 . S
H522 C519 0.931 . S
H523 C499 0.930 . S
H524 C496 0.930 . S
H525 C505 0.930 . S
H526 C517 0.929 . S
H527 C520 0.930 . S
N79 N13 2.237 1_655 S
N46 N112 2.237 1_545 S
N211 N145 2.237 1_655 S
N244 N178 2.237 1_565 S
N277 N343 2.237 1_455 S
N310 N376 2.237 1_545 S
N409 N475 2.237 1_455 S
N508 N442 2.237 1_565 S
N2 N167 2.763 . S
N200 N35 2.763 . S
N233 N68 2.763 . S
N134 N101 2.763 . S
N431 N266 2.763 . S
N464 N299 2.763 . S
N497 N332 2.763 . S
N398 N365 2.763 . S
C18 C348 1.359 1_554 S
C381 C51 1.359 1_556 S
C282 C84 1.359 1_556 S
C315 C117 1.359 1_556 S
C150 C480 1.359 . S
C183 C513 1.359 . S
C216 C414 1.359 . S
C249 C447 1.359 . S
C139 C7 2.118 . S
C40 C172 2.118 . S
C205 C73 2.118 . S
C238 C106 2.118 . S
C285 C417 0.857 . S
C450 C318 0.857 . S
C351 C483 0.857 . S
C516 C384 0.857 . S
C370 C436 2.118 1_545 S
C271 C469 2.118 1_655 S
C502 C304 2.118 1_545 S
C403 C337 2.118 1_655 S
C120 C186 0.857 1_565 S
C21 C219 0.857 1_455 S
C252 C54 0.857 1_565 S
C87 C153 0.857 1_655 S
