# Generated by pormake.
# Topology rhr, (4)-cn, num edge types: 1
# Building blocks:
#     Node 0, Type 0, BuildingBlock: KOZSID_clean_sbu_0, # of connection points: 4
#     Node 1, Type 0, BuildingBlock: KOZSID_clean_sbu_0, # of connection points: 4
#     Node 2, Type 0, BuildingBlock: KOZSID_clean_sbu_0, # of connection points: 4
#     Node 3, Type 0, BuildingBlock: KOZSID_clean_sbu_0, # of connection points: 4
#     Node 4, Type 0, BuildingBlock: KOZSID_clean_sbu_0, # of connection points: 4
#     Node 5, Type 0, BuildingBlock: KOZSID_clean_sbu_0, # of connection points: 4
#     Node 6, Type 0, BuildingBlock: KOZSID_clean_sbu_0, # of connection points: 4
#     Node 7, Type 0, BuildingBlock: KOZSID_clean_sbu_0, # of connection points: 4
#     Node 8, Type 0, BuildingBlock: KOZSID_clean_sbu_0, # of connection points: 4
#     Node 9, Type 0, BuildingBlock: KOZSID_clean_sbu_0, # of connection points: 4
#     Node 10, Type 0, BuildingBlock: KOZSID_clean_sbu_0, # of connection points: 4
#     Node 11, Type 0, BuildingBlock: KOZSID_clean_sbu_0, # of connection points: 4
#     Node 12, Type 0, BuildingBlock: KOZSID_clean_sbu_0, # of connection points: 4
#     Node 13, Type 0, BuildingBlock: KOZSID_clean_sbu_0, # of connection points: 4
#     Node 14, Type 0, BuildingBlock: KOZSID_clean_sbu_0, # of connection points: 4
#     Node 15, Type 0, BuildingBlock: KOZSID_clean_sbu_0, # of connection points: 4
#     Node 16, Type 0, BuildingBlock: KOZSID_clean_sbu_0, # of connection points: 4
#     Node 17, Type 0, BuildingBlock: KOZSID_clean_sbu_0, # of connection points: 4
#     Node 18, Type 0, BuildingBlock: KOZSID_clean_sbu_0, # of connection points: 4
#     Node 19, Type 0, BuildingBlock: KOZSID_clean_sbu_0, # of connection points: 4
#     Node 20, Type 0, BuildingBlock: KOZSID_clean_sbu_0, # of connection points: 4
#     Node 21, Type 0, BuildingBlock: KOZSID_clean_sbu_0, # of connection points: 4
#     Node 22, Type 0, BuildingBlock: KOZSID_clean_sbu_0, # of connection points: 4
#     Node 23, Type 0, BuildingBlock: KOZSID_clean_sbu_0, # of connection points: 4
#     Edge 24, Type (0, 0), BuildingBlock: EZIPEK_clean_linker_0, # of connection points: 2
#     Edge 25, Type (0, 0), BuildingBlock: EZIPEK_clean_linker_0, # of connection points: 2
#     Edge 26, Type (0, 0), BuildingBlock: EZIPEK_clean_linker_0, # of connection points: 2
#     Edge 27, Type (0, 0), BuildingBlock: EZIPEK_clean_linker_0, # of connection points: 2
#     Edge 28, Type (0, 0), BuildingBlock: EZIPEK_clean_linker_0, # of connection points: 2
#     Edge 29, Type (0, 0), BuildingBlock: EZIPEK_clean_linker_0, # of connection points: 2
#     Edge 30, Type (0, 0), BuildingBlock: EZIPEK_clean_linker_0, # of connection points: 2
#     Edge 31, Type (0, 0), BuildingBlock: EZIPEK_clean_linker_0, # of connection points: 2
#     Edge 32, Type (0, 0), BuildingBlock: EZIPEK_clean_linker_0, # of connection points: 2
#     Edge 33, Type (0, 0), BuildingBlock: EZIPEK_clean_linker_0, # of connection points: 2
#     Edge 34, Type (0, 0), BuildingBlock: EZIPEK_clean_linker_0, # of connection points: 2
#     Edge 35, Type (0, 0), BuildingBlock: EZIPEK_clean_linker_0, # of connection points: 2
#     Edge 36, Type (0, 0), BuildingBlock: EZIPEK_clean_linker_0, # of connection points: 2
#     Edge 37, Type (0, 0), BuildingBlock: EZIPEK_clean_linker_0, # of connection points: 2
#     Edge 38, Type (0, 0), BuildingBlock: EZIPEK_clean_linker_0, # of connection points: 2
#     Edge 39, Type (0, 0), BuildingBlock: EZIPEK_clean_linker_0, # of connection points: 2
#     Edge 40, Type (0, 0), BuildingBlock: EZIPEK_clean_linker_0, # of connection points: 2
#     Edge 41, Type (0, 0), BuildingBlock: EZIPEK_clean_linker_0, # of connection points: 2
#     Edge 42, Type (0, 0), BuildingBlock: EZIPEK_clean_linker_0, # of connection points: 2
#     Edge 43, Type (0, 0), BuildingBlock: EZIPEK_clean_linker_0, # of connection points: 2
#     Edge 44, Type (0, 0), BuildingBlock: EZIPEK_clean_linker_0, # of connection points: 2
#     Edge 45, Type (0, 0), BuildingBlock: EZIPEK_clean_linker_0, # of connection points: 2
#     Edge 46, Type (0, 0), BuildingBlock: EZIPEK_clean_linker_0, # of connection points: 2
#     Edge 47, Type (0, 0), BuildingBlock: EZIPEK_clean_linker_0, # of connection points: 2
#     Edge 48, Type (0, 0), BuildingBlock: EZIPEK_clean_linker_0, # of connection points: 2
#     Edge 49, Type (0, 0), BuildingBlock: EZIPEK_clean_linker_0, # of connection points: 2
#     Edge 50, Type (0, 0), BuildingBlock: EZIPEK_clean_linker_0, # of connection points: 2
#     Edge 51, Type (0, 0), BuildingBlock: EZIPEK_clean_linker_0, # of connection points: 2
#     Edge 52, Type (0, 0), BuildingBlock: EZIPEK_clean_linker_0, # of connection points: 2
#     Edge 53, Type (0, 0), BuildingBlock: EZIPEK_clean_linker_0, # of connection points: 2
#     Edge 54, Type (0, 0), BuildingBlock: EZIPEK_clean_linker_0, # of connection points: 2
#     Edge 55, Type (0, 0), BuildingBlock: EZIPEK_clean_linker_0, # of connection points: 2
#     Edge 56, Type (0, 0), BuildingBlock: EZIPEK_clean_linker_0, # of connection points: 2
#     Edge 57, Type (0, 0), BuildingBlock: EZIPEK_clean_linker_0, # of connection points: 2
#     Edge 58, Type (0, 0), BuildingBlock: EZIPEK_clean_linker_0, # of connection points: 2
#     Edge 59, Type (0, 0), BuildingBlock: EZIPEK_clean_linker_0, # of connection points: 2
#     Edge 60, Type (0, 0), BuildingBlock: EZIPEK_clean_linker_0, # of connection points: 2
#     Edge 61, Type (0, 0), BuildingBlock: EZIPEK_clean_linker_0, # of connection points: 2
#     Edge 62, Type (0, 0), BuildingBlock: EZIPEK_clean_linker_0, # of connection points: 2
#     Edge 63, Type (0, 0), BuildingBlock: EZIPEK_clean_linker_0, # of connection points: 2
#     Edge 64, Type (0, 0), BuildingBlock: EZIPEK_clean_linker_0, # of connection points: 2
#     Edge 65, Type (0, 0), BuildingBlock: EZIPEK_clean_linker_0, # of connection points: 2
#     Edge 66, Type (0, 0), BuildingBlock: EZIPEK_clean_linker_0, # of connection points: 2
#     Edge 67, Type (0, 0), BuildingBlock: EZIPEK_clean_linker_0, # of connection points: 2
#     Edge 68, Type (0, 0), BuildingBlock: EZIPEK_clean_linker_0, # of connection points: 2
#     Edge 69, Type (0, 0), BuildingBlock: EZIPEK_clean_linker_0, # of connection points: 2
#     Edge 70, Type (0, 0), BuildingBlock: EZIPEK_clean_linker_0, # of connection points: 2
#     Edge 71, Type (0, 0), BuildingBlock: EZIPEK_clean_linker_0, # of connection points: 2
# Relax obj value: 0.008
# Max RMSD: 0.043
# Mean RMSD: 0.027
data_MOF--net-rhr--node1-KOZSID_clean_sbu_0--edge1-EZIPEK_clean_linker_0
_symmetry_space_group_name_H-M    P1
_symmetry_Int_Tables_number       1
_symmetry_cell_setting            triclinic
loop_
_symmetry_equiv_pos_as_xyz
'x, y, z'
_cell_length_a     48.519736
_cell_length_b     48.68203
_cell_length_c     48.504819
_cell_angle_alpha  86.172145
_cell_angle_beta   84.459343
_cell_angle_gamma 91.15985
loop_
_atom_site_label
_atom_site_type_symbol
_atom_site_fract_x
_atom_site_fract_y
_atom_site_fract_z
_atom_type_partial_charge
C0 C 0.41549 0.99286 0.35728 0.0
C1 C 0.44306 0.99111 0.36273 0.0
C2 C 0.44694 0.00835 0.38314 0.0
C3 C 0.42191 0.02026 0.38877 0.0
N4 N 0.40207 0.01145 0.37354 0.0
Co5 Co 0.36538 0.02961 0.37146 0.0
N6 N 0.36925 0.0508 0.40502 0.0
C7 C 0.39284 0.054 0.41703 0.0
C8 C 0.39006 0.06979 0.43948 0.0
C9 C 0.36293 0.07725 0.44183 0.0
C10 C 0.3506 0.06552 0.42062 0.0
N11 N 0.32919 0.04843 0.36902 0.0
C12 C 0.31369 0.06316 0.38765 0.0
C13 C 0.28936 0.07146 0.37716 0.0
C14 C 0.28981 0.06219 0.35109 0.0
C15 C 0.31419 0.04856 0.34705 0.0
N16 N 0.36114 1.00795 0.33827 0.0
C17 C 0.34098 0.01138 0.3212 0.0
C18 C 0.34059 0.99165 0.30233 0.0
C19 C 0.36233 0.97511 0.3072 0.0
C20 C 0.37551 0.98617 0.32827 0.0
N21 N 0.34623 0.99948 0.39542 0.0
C22 C 0.31616 0.95901 0.43076 0.0
C23 C 0.30591 0.96953 0.40641 0.0
C24 C 0.32123 0.98944 0.38906 0.0
C25 C 0.34217 0.96868 0.43689 0.0
C26 C 0.35681 0.98906 0.419 0.0
N27 N 0.38444 0.05987 0.34736 0.0
C28 C 0.4182 0.07466 0.30915 0.0
C29 C 0.41437 0.10218 0.31446 0.0
C30 C 0.39485 0.10836 0.33623 0.0
C31 C 0.38 0.08689 0.35236 0.0
C32 C 0.40308 0.05399 0.32568 0.0
H33 H 0.36512 0.09219 0.36897 0.0
H34 H 0.4069 0.03323 0.32087 0.0
H35 H 0.3124 0.99691 0.37068 0.0
H36 H 0.37647 0.99662 0.42442 0.0
C37 C 0.41641 0.03997 0.40803 0.0
C38 C 0.40387 0.97844 0.33469 0.0
C39 C 0.32184 0.07097 0.41478 0.0
C40 C 0.32088 0.03122 0.32568 0.0
H41 H 0.45925 0.97956 0.35236 0.0
H42 H 0.46603 0.01238 0.39218 0.0
H43 H 0.40578 0.07498 0.45278 0.0
H44 H 0.35344 0.09027 0.4571 0.0
H45 H 0.27291 0.08294 0.3873 0.0
H46 H 0.27359 0.06401 0.33728 0.0
H47 H 0.32595 0.98926 0.28713 0.0
H48 H 0.3685 0.95765 0.29561 0.0
H49 H 0.28596 0.9625 0.40091 0.0
H50 H 0.35082 0.9609 0.45555 0.0
H51 H 0.43298 0.06915 0.29235 0.0
H52 H 0.39122 0.12953 0.34078 0.0
C53 C 0.0779 0.4138 0.35223 0.0
C54 C 0.08479 0.43642 0.3664 0.0
C55 C 0.06824 0.43474 0.39084 0.0
C56 C 0.05233 0.41125 0.39026 0.0
N57 N 0.05785 0.39761 0.36702 0.0
Co58 Co 0.03934 0.36256 0.35768 0.0
N59 N 0.01404 0.36091 0.39312 0.0
C60 C 0.01333 0.3791 0.41307 0.0
C61 C 0.99368 0.37273 0.43491 0.0
C62 C 0.98112 0.34894 0.42869 0.0
C63 C 0.99397 0.3421 0.40332 0.0
N64 N 0.02074 0.32751 0.34838 0.0
C65 C 1.00035 0.31159 0.36306 0.0
C66 C 0.99397 0.28856 0.34928 0.0
C67 C 0.01088 0.28992 0.32503 0.0
C68 C 0.02662 0.31357 0.32538 0.0
N69 N 0.0646 0.36432 0.3222 0.0
C70 C 0.06548 0.34601 0.30233 0.0
C71 C 0.0842 0.35319 0.27989 0.0
C72 C 0.09589 0.37763 0.28562 0.0
C73 C 0.08365 0.38396 0.31139 0.0
N74 N 0.0667 0.34067 0.37673 0.0
C75 C 0.10175 0.30668 0.40544 0.0
C76 C 0.09556 0.30093 0.37901 0.0
C77 C 0.07836 0.31827 0.36499 0.0
C78 C 0.09117 0.33017 0.41701 0.0
C79 C 0.07368 0.34676 0.4024 0.0
N80 N 0.01203 0.38428 0.33856 0.0
C81 C 0.98735 0.39354 0.29827 0.0
C82 C 0.97534 0.4162 0.31003 0.0
C83 C 0.98136 0.42259 0.33638 0.0
C84 C 0.99972 0.40638 0.35025 0.0
C85 C 1.00545 0.37788 0.31286 0.0
H86 H 1.0038 0.41224 0.37023 0.0
H87 H 0.01402 0.3609 0.30276 0.0
H88 H 0.07447 0.31278 0.34492 0.0
H89 H 0.06568 0.36404 0.4125 0.0
C90 C 0.0315 0.40192 0.41082 0.0
C91 C 0.09057 0.40907 0.32449 0.0
C92 C 0.98672 0.31715 0.39024 0.0
C93 C 0.04749 0.32295 0.30475 0.0
H94 H 0.09997 0.45267 0.3596 0.0
H95 H 0.0676 0.44913 0.40695 0.0
H96 H 0.98913 0.38397 0.45325 0.0
H97 H 0.96451 0.33776 0.44148 0.0
H98 H 0.97877 0.27235 0.35615 0.0
H99 H 0.01178 0.27527 0.30916 0.0
H100 H 0.08845 0.34223 0.26131 0.0
H101 H 0.11144 0.38962 0.27217 0.0
H102 H 0.10364 0.28289 0.36942 0.0
H103 H 0.09577 0.3352 0.43754 0.0
H104 H 0.98291 0.3881 0.27782 0.0
H105 H 0.97218 0.44012 0.34601 0.0
C106 C 0.69385 0.99441 0.33099 0.0
C107 C 0.70757 0.98551 0.30692 0.0
C108 C 0.73437 0.99524 0.30581 0.0
C109 C 0.7355 0.00957 0.32912 0.0
N110 N 0.71117 0.00956 0.34495 0.0
Co111 Co 0.70396 0.02895 0.37988 0.0
N112 N 0.7399 0.05081 0.37342 0.0
C113 C 0.7609 0.04563 0.35432 0.0
C114 C 0.78425 0.06156 0.35572 0.0
C115 C 0.77805 0.07751 0.37748 0.0
C116 C 0.75101 0.07062 0.38816 0.0
N117 N 0.69643 0.04864 0.41477 0.0
C118 C 0.7103 0.06985 0.42503 0.0
C119 C 0.69669 0.07737 0.44977 0.0
C120 C 0.67446 0.05957 0.45599 0.0
C121 C 0.67538 0.04248 0.43458 0.0
N122 N 0.66851 1.00667 0.38667 0.0
C123 C 0.65215 1.00392 0.41079 0.0
C124 C 0.629 0.98752 0.40957 0.0
C125 C 0.63079 0.97937 0.38299 0.0
C126 C 0.65496 0.99137 0.36942 0.0
N127 N 0.72305 0.99935 0.40073 0.0
C128 C 0.75057 0.95791 0.4308 0.0
C129 C 0.7557 0.98583 0.43375 0.0
C130 C 0.742 1.00595 0.41857 0.0
C131 C 0.7314 0.95103 0.41226 0.0
C132 C 0.71791 0.97197 0.3975 0.0
N133 N 0.68461 0.0581 0.35868 0.0
C134 C 0.64187 0.0802 0.34858 0.0
C135 C 0.65472 0.09427 0.32432 0.0
C136 C 0.6833 0.09039 0.31837 0.0
C137 C 0.69756 0.07193 0.33525 0.0
C138 C 0.65717 0.06309 0.3657 0.0
H139 H 0.71898 0.06849 0.32881 0.0
H140 H 0.64635 0.05337 0.38432 0.0
H141 H 0.74722 0.02687 0.4211 0.0
H142 H 0.70346 0.96593 0.38335 0.0
C143 C 0.7577 0.02615 0.33492 0.0
C144 C 0.66481 0.9868 0.34052 0.0
C145 C 0.7383 0.08069 0.41449 0.0
C146 C 0.65644 0.02103 0.43202 0.0
H147 H 0.69911 0.97322 0.2918 0.0
H148 H 0.75081 0.99291 0.28946 0.0
H149 H 0.80371 0.06122 0.34281 0.0
H150 H 0.79237 0.09171 0.38527 0.0
H151 H 0.70299 0.09318 0.4627 0.0
H152 H 0.65957 0.05896 0.47416 0.0
H153 H 0.61214 0.98309 0.42565 0.0
H154 H 0.61591 0.96629 0.37447 0.0
H155 H 0.77058 0.99216 0.44752 0.0
H156 H 0.72698 0.92964 0.40909 0.0
H157 H 0.61994 0.08238 0.35436 0.0
H158 H 0.69445 0.1009 0.30013 0.0
C159 C 0.98365 0.74971 0.34545 0.0
C160 C 0.97824 0.77416 0.33082 0.0
C161 C 0.99541 0.7754 0.30674 0.0
C162 C 0.01008 0.75165 0.30802 0.0
N163 N 1.00331 0.73533 0.33146 0.0
Co164 Co 0.01799 0.69809 0.34099 0.0
N165 N 0.04486 0.70099 0.30689 0.0
C166 C 0.04999 0.72325 0.28876 0.0
C167 C 0.0715 0.72004 0.26889 0.0
C168 C 0.08048 0.69408 0.27452 0.0
C169 C 0.06347 0.68274 0.29732 0.0
N170 N 0.03107 0.65994 0.34932 0.0
C171 C 0.04704 0.64393 0.33289 0.0
C172 C 0.04675 0.61683 0.34399 0.0
C173 C 0.0306 0.61587 0.36863 0.0
C174 C 0.0215 0.64213 0.37089 0.0
N175 N 0.99261 0.696 0.37621 0.0
C176 C 0.99046 0.6754 0.39651 0.0
C177 C 0.97302 0.68077 0.41932 0.0
C178 C 0.96374 0.70652 0.41342 0.0
C179 C 0.97594 0.71525 0.3871 0.0
N180 N 0.98911 0.68174 0.32053 0.0
C181 C 0.9507 0.65539 0.291 0.0
C182 C 0.95039 0.65003 0.31956 0.0
C183 C 0.96973 0.66327 0.33384 0.0
C184 C 0.96977 0.67471 0.27742 0.0
C185 C 0.98856 0.68781 0.29257 0.0
N186 N 0.04686 0.7145 0.36158 0.0
C187 C 0.0736 0.71339 0.40118 0.0
C188 C 0.08333 0.74027 0.39386 0.0
C189 C 0.07566 0.75367 0.36965 0.0
C190 C 0.05762 0.74044 0.35382 0.0
C191 C 0.05554 0.70088 0.38474 0.0
H192 H 0.05224 0.7519 0.33574 0.0
H193 H 0.0484 0.68045 0.39151 0.0
H194 H 0.96884 0.6578 0.35554 0.0
H195 H 1.00267 0.70245 0.28114 0.0
C196 C 0.03253 0.74567 0.28938 0.0
C197 C 0.97113 0.74199 0.37338 0.0
C198 C 0.06395 0.65385 0.30748 0.0
C199 C 1.00355 0.65056 0.39268 0.0
H200 H 0.96397 0.78983 0.33732 0.0
H201 H 0.99765 0.79208 0.29071 0.0
H202 H 0.07918 0.73452 0.25184 0.0
H203 H 0.09704 0.68433 0.26255 0.0
H204 H 0.05723 0.59951 0.33531 0.0
H205 H 0.02567 0.59805 0.38296 0.0
H206 H 0.96757 0.66747 0.43792 0.0
H207 H 0.94956 0.71757 0.427 0.0
H208 H 0.93572 0.63515 0.33066 0.0
H209 H 0.97039 0.67937 0.25521 0.0
H210 H 0.07931 0.70242 0.41987 0.0
H211 H 0.083 0.77453 0.36338 0.0
C212 C 0.3528 0.96657 0.7667 0.0
C213 C 0.34002 0.956 0.79215 0.0
C214 C 0.31995 0.97406 0.80003 0.0
C215 C 0.32138 0.9944 0.7789 0.0
N216 N 0.34087 0.99011 0.75803 0.0
Co217 Co 0.34842 0.01316 0.72259 0.0
N218 N 0.31295 0.0325 0.72916 0.0
C219 C 0.29731 0.03322 0.75359 0.0
C220 C 0.27369 0.04796 0.75154 0.0
C221 C 0.2746 0.05721 0.72417 0.0
C222 C 0.2989 0.04764 0.71108 0.0
N223 N 0.35573 0.03585 0.687 0.0
C224 C 0.33806 0.05077 0.67254 0.0
C225 C 0.35175 0.06404 0.64872 0.0
C226 C 0.37904 0.05724 0.64846 0.0
C227 C 0.38044 0.04028 0.67203 0.0
N228 N 0.38432 0.99441 0.71636 0.0
C229 C 0.40611 1.0035 0.69848 0.0
C230 C 0.42873 0.98718 0.69964 0.0
C231 C 0.42088 0.96674 0.71978 0.0
C232 C 0.39376 0.97176 0.72979 0.0
N233 N 0.33 0.98511 0.70337 0.0
C234 C 0.30226 0.94809 0.67338 0.0
C235 C 0.33002 0.95567 0.66549 0.0
C236 C 0.34325 0.97477 0.68029 0.0
C237 C 0.28901 0.9585 0.69723 0.0
C238 C 0.30346 0.97642 0.71231 0.0
N239 N 0.36692 0.04135 0.7415 0.0
C240 C 0.40147 0.05352 0.7711 0.0
C241 C 0.39814 0.08137 0.76382 0.0
C242 C 0.37828 0.08906 0.74599 0.0
C243 C 0.36273 0.06866 0.73517 0.0
C244 C 0.38566 0.03388 0.75968 0.0
H245 H 0.34798 0.07497 0.72101 0.0
H246 H 0.38935 0.01264 0.76468 0.0
H247 H 0.36401 0.98154 0.67266 0.0
H248 H 0.29288 0.98367 0.73085 0.0
C249 C 0.30246 0.01544 0.77622 0.0
C250 C 0.37885 0.95627 0.75384 0.0
C251 C 0.30896 0.05479 0.68202 0.0
C252 C 0.40341 0.02532 0.67877 0.0
H253 H 0.34543 0.93775 0.80424 0.0
H254 H 0.30566 0.97225 0.81867 0.0
H255 H 0.25711 0.05054 0.76769 0.0
H256 H 0.25917 0.06958 0.71494 0.0
H257 H 0.34301 0.07754 0.63339 0.0
H258 H 0.39569 0.06335 0.63262 0.0
H259 H 0.44841 0.98958 0.68706 0.0
H260 H 0.43387 0.95036 0.7267 0.0
H261 H 0.34097 0.94788 0.64722 0.0
H262 H 0.2676 0.95292 0.70407 0.0
H263 H 0.41678 0.047 0.78485 0.0
H264 H 0.37531 0.11056 0.74002 0.0
C265 C 0.99717 0.37708 0.69374 0.0
C266 C 0.98939 0.40129 0.68026 0.0
C267 C 1.00194 0.40202 0.65368 0.0
C268 C 0.01658 0.37823 0.6523 0.0
N269 N 0.01412 0.36244 0.6763 0.0
Co270 Co 0.03218 0.32614 0.68236 0.0
N271 N 0.05802 0.33176 0.64736 0.0
C272 C 0.05631 0.35225 0.62756 0.0
C273 C 0.07677 0.35199 0.60601 0.0
C274 C 0.09216 0.32956 0.61213 0.0
C275 C 0.07995 0.31698 0.63697 0.0
N276 N 0.05012 0.28959 0.6883 0.0
C277 C 0.07169 0.27746 0.67363 0.0
C278 C 0.07461 0.25054 0.68408 0.0
C279 C 0.05437 0.24548 0.70558 0.0
C280 C 0.04001 0.26938 0.70711 0.0
N281 N 1.00651 0.32083 0.71733 0.0
C282 C 1.00192 0.29688 0.73273 0.0
C283 C 0.98447 0.2992 0.75644 0.0
C284 C 0.97748 0.32634 0.756 0.0
C285 C 0.99088 0.33916 0.73185 0.0
N286 N 1.00416 0.30806 0.66141 0.0
C287 C 0.9651 0.28081 0.63187 0.0
C288 C 0.95676 0.30053 0.65068 0.0
C289 C 0.97654 0.31388 0.66518 0.0
C290 C 0.99328 0.27518 0.62825 0.0
C291 C 0.01219 0.28881 0.64312 0.0
N292 N 0.05974 0.34417 0.70359 0.0
C293 C 0.08267 0.34635 0.74573 0.0
C294 C 0.0937 0.37275 0.73726 0.0
C295 C 0.08811 0.38411 0.71109 0.0
C296 C 0.07129 0.36953 0.69462 0.0
C297 C 0.06586 0.3325 0.72871 0.0
H298 H 0.06714 0.3792 0.67491 0.0
H299 H 0.05727 0.31258 0.73634 0.0
H300 H 0.9694 0.32877 0.67956 0.0
H301 H 0.03333 0.28335 0.63994 0.0
C302 C 0.03621 0.37227 0.63069 0.0
C303 C 0.98689 0.36833 0.72271 0.0
C304 C 0.08767 0.28923 0.64771 0.0
C305 C 0.01758 0.27393 0.72648 0.0
H306 H 0.9761 0.41686 0.68879 0.0
H307 H 1.00134 0.41848 0.63763 0.0
H308 H 0.08012 0.3664 0.58795 0.0
H309 H 0.1097 0.32261 0.59917 0.0
H310 H 0.08916 0.23567 0.67634 0.0
H311 H 0.05035 0.22645 0.71832 0.0
H312 H 0.97841 0.2833 0.77269 0.0
H313 H 0.964 0.3356 0.77168 0.0
H314 H 0.93512 0.30554 0.65421 0.0
H315 H 1.00072 0.26008 0.61408 0.0
H316 H 0.08654 0.33669 0.7657 0.0
H317 H 0.09629 0.40439 0.70361 0.0
C318 C 0.70864 0.0494 0.67761 0.0
C319 C 0.69593 0.06411 0.65706 0.0
C320 C 0.66806 0.05862 0.6624 0.0
C321 C 0.66535 0.04091 0.68578 0.0
N322 N 0.68971 0.03466 0.6954 0.0
Co323 Co 0.69483 0.0102 0.72903 0.0
N324 N 0.65676 0.99396 0.73002 0.0
C325 C 0.63581 1.00565 0.71758 0.0
C326 C 0.61078 0.99226 0.72464 0.0
C327 C 0.61614 0.97089 0.7429 0.0
C328 C 0.64441 0.97218 0.7457 0.0
N329 N 0.7001 0.98518 0.76221 0.0
C330 C 0.68595 0.96164 0.7722 0.0
C331 C 0.69899 0.9485 0.79348 0.0
C332 C 0.72101 0.96517 0.79792 0.0
C333 C 0.72071 0.98718 0.77875 0.0
N334 N 0.73252 0.02736 0.72846 0.0
C335 C 0.74856 0.026 0.74965 0.0
C336 C 0.77349 0.03996 0.74339 0.0
C337 C 0.77305 0.05097 0.71668 0.0
C338 C 0.74775 0.04314 0.70813 0.0
N339 N 0.68019 0.03824 0.75277 0.0
C340 C 0.65433 0.07874 0.78266 0.0
C341 C 0.64959 0.051 0.79141 0.0
C342 C 0.66263 0.031 0.77601 0.0
C343 C 0.67329 0.08603 0.75976 0.0
C344 C 0.68633 0.06541 0.74535 0.0
N345 N 0.70959 0.98224 0.70537 0.0
C346 C 0.74701 0.9529 0.69236 0.0
C347 C 0.73373 0.94523 0.66972 0.0
C348 C 0.70754 0.95544 0.66575 0.0
C349 C 0.69593 0.97432 0.68372 0.0
C350 C 0.73447 0.97112 0.71008 0.0
H351 H 0.67625 0.98289 0.67983 0.0
H352 H 0.74531 0.97659 0.72729 0.0
H353 H 0.65771 0.00975 0.7824 0.0
H354 H 0.70063 0.07149 0.72762 0.0
C355 C 0.64086 0.0276 0.69756 0.0
C356 C 0.73814 0.05257 0.68137 0.0
C357 C 0.65826 0.95343 0.76478 0.0
C358 C 0.74185 1.0073 0.77263 0.0
H359 H 0.7057 0.07793 0.6404 0.0
H360 H 0.6518 0.06632 0.65044 0.0
H361 H 0.59101 0.99733 0.71731 0.0
H362 H 0.60072 0.95646 0.75337 0.0
H363 H 0.69276 0.92933 0.80519 0.0
H364 H 0.73603 0.96118 0.81271 0.0
H365 H 0.79047 0.04101 0.75623 0.0
H366 H 0.78941 0.06341 0.70488 0.0
H367 H 0.63498 0.0449 0.80919 0.0
H368 H 0.67744 0.10744 0.75273 0.0
H369 H 0.76717 0.94509 0.6961 0.0
H370 H 0.69671 0.9496 0.64844 0.0
C371 C 0.98308 0.66358 0.75259 0.0
C372 C 0.97177 0.66881 0.77911 0.0
C373 C 0.9859 0.69116 0.78677 0.0
C374 C 1.00521 0.6982 0.76481 0.0
N375 N 1.00397 0.68205 0.7434 0.0
Co376 Co 0.03117 0.68346 0.70951 0.0
N377 N 0.04732 0.71966 0.71778 0.0
C378 C 0.04264 0.73213 0.74163 0.0
C379 C 0.05563 0.75752 0.74092 0.0
C380 C 0.06949 0.76133 0.71494 0.0
C381 C 0.0643 0.73786 0.70138 0.0
N382 N 0.05922 0.68409 0.67652 0.0
C383 C 0.0763 0.70478 0.66448 0.0
C384 C 0.09335 0.696 0.64232 0.0
C385 C 0.08654 0.66886 0.64028 0.0
C386 C 0.06593 0.66262 0.66131 0.0
N387 N 0.01455 0.64759 0.70064 0.0
C388 C 0.02461 0.63157 0.68062 0.0
C389 C 1.00776 0.60923 0.67761 0.0
C390 C 0.98584 0.61088 0.6973 0.0
C391 C 0.99086 0.63393 0.71165 0.0
N392 N 1.0044 0.70345 0.68691 0.0
C393 C 0.96815 0.73408 0.65403 0.0
C394 C 0.98873 0.7174 0.64205 0.0
C395 C 1.00565 0.70164 0.6587 0.0
C396 C 0.96607 0.73457 0.68314 0.0
C397 C 0.98478 0.72008 0.6989 0.0
N398 N 0.05805 0.66385 0.7319 0.0
C399 C 0.06794 0.62699 0.76538 0.0
C400 C 0.09604 0.63466 0.76293 0.0
C401 C 0.10474 0.65764 0.74496 0.0
C402 C 0.08549 0.67194 0.72974 0.0
C403 C 0.04947 0.64184 0.74994 0.0
H404 H 0.09298 0.68941 0.71607 0.0
H405 H 0.02821 0.63539 0.75272 0.0
H406 H 0.01992 0.68823 0.64831 0.0
H407 H 0.98323 0.72269 0.72083 0.0
C408 C 0.02358 0.72081 0.76288 0.0
C409 C 0.97529 0.63923 0.73824 0.0
C410 C 0.07741 0.7327 0.67378 0.0
C411 C 0.04906 0.63891 0.66402 0.0
H412 H 0.95558 0.65726 0.79208 0.0
H413 H 0.98261 0.70097 0.80615 0.0
H414 H 0.05456 0.77187 0.75708 0.0
H415 H 0.08225 0.77915 0.70702 0.0
H416 H 0.10886 0.70804 0.62887 0.0
H417 H 0.09474 0.65566 0.62453 0.0
H418 H 0.01103 0.59359 0.66287 0.0
H419 H 0.96883 0.59601 0.70158 0.0
H420 H 0.99153 0.71612 0.61975 0.0
H421 H 0.95044 0.74673 0.69372 0.0
H422 H 0.06028 0.60938 0.779 0.0
H423 H 0.12634 0.66424 0.74235 0.0
C424 C 0.40704 0.34889 0.04413 0.0
C425 C 0.43259 0.36104 0.04707 0.0
C426 C 0.43412 0.38542 0.0313 0.0
C427 C 0.40954 0.38684 0.01957 0.0
N428 N 0.39235 0.36478 0.02683 0.0
Co429 Co 0.35452 0.35879 0.01413 0.0
N430 N 0.35607 0.39559 0.99221 0.0
C431 C 0.37731 0.41434 0.98983 0.0
C432 C 0.37298 0.43743 0.97323 0.0
C433 C 0.3474 0.43333 0.9645 0.0
C434 C 0.33743 0.40789 0.97639 0.0
N435 N 0.31679 0.3527 1.00128 0.0
C436 C 0.30151 0.36915 0.98504 0.0
C437 C 0.27606 0.3568 0.98196 0.0
C438 C 0.27529 0.3317 0.99638 0.0
C439 C 0.30013 0.33009 1.00758 0.0
N440 N 0.35282 0.32216 0.03637 0.0
C441 C 0.33168 0.30332 0.03865 0.0
C442 C 0.33586 0.28043 0.05561 0.0
C443 C 0.36114 0.28487 0.06489 0.0
C444 C 0.37104 0.31031 0.05298 0.0
N445 N 0.33772 0.37605 0.04713 0.0
C446 C 0.31592 0.39923 0.09538 0.0
C447 C 0.30495 0.37448 0.08793 0.0
C448 C 0.31584 0.36353 0.06354 0.0
C449 C 0.33784 0.41227 0.07865 0.0
C450 C 0.34852 0.40028 0.05482 0.0
N451 N 0.37172 0.34127 0.9813 0.0
C452 C 0.38003 0.29995 0.95734 0.0
C453 C 0.40369 0.31221 0.94271 0.0
C454 C 0.40953 0.33994 0.94533 0.0
C455 C 0.3934 0.354 0.96475 0.0
C456 C 0.36403 0.31504 0.97603 0.0
H457 H 0.39969 0.37471 0.9667 0.0
H458 H 0.34622 0.30469 0.98669 0.0
H459 H 0.30621 0.34501 0.05842 0.0
H460 H 0.36551 0.41095 0.04304 0.0
C461 C 0.4015 0.40909 1.00266 0.0
C462 C 0.3978 0.32228 0.05835 0.0
C463 C 0.3101 0.39646 0.97188 0.0
C464 C 0.30801 0.30803 0.02484 0.0
H465 H 0.44842 0.35313 0.0595 0.0
H466 H 0.45103 0.40051 0.02893 0.0
H467 H 0.38691 0.45503 0.96787 0.0
H468 H 0.33728 0.44746 0.95081 0.0
H469 H 0.25971 0.36508 0.97047 0.0
H470 H 0.25848 0.31651 0.99865 0.0
H471 H 0.32205 0.2627 0.06078 0.0
H472 H 0.37115 0.27102 0.07895 0.0
H473 H 0.28763 0.36412 0.10047 0.0
H474 H 0.34663 0.43164 0.08394 0.0
H475 H 0.37456 0.27856 0.95518 0.0
H476 H 0.42751 0.35016 0.93374 0.0
C477 C 0.70402 0.30613 0.07663 0.0
C478 C 0.71538 0.28186 0.08639 0.0
C479 C 0.7428 0.28303 0.07643 0.0
C480 C 0.74659 0.30775 0.06104 0.0
N481 N 0.72324 0.32217 0.06049 0.0
Co482 Co 0.71968 0.35867 0.04014 0.0
N483 N 0.75526 0.35483 0.01665 0.0
C484 C 0.77499 0.3367 0.022 0.0
C485 C 0.79807 0.33956 1.00325 0.0
C486 C 0.79276 0.36106 0.98506 0.0
C487 C 0.76655 0.37012 0.99368 0.0
N488 N 0.71643 0.39549 0.02024 0.0
C489 C 0.73007 0.40671 0.9962 0.0
C490 C 0.72002 0.43251 0.9892 0.0
C491 C 0.70031 0.43804 0.0101 0.0
C492 C 0.69904 0.41527 0.02848 0.0
N493 N 0.684 0.3623 0.06341 0.0
C494 C 0.67048 0.38583 0.06712 0.0
C495 C 0.64652 0.38212 0.08464 0.0
C496 C 0.64496 0.35454 0.09262 0.0
C497 C 0.66811 0.34294 0.07943 0.0
N498 N 0.7394 0.37608 0.06789 0.0
C499 C 0.76287 0.40639 0.10673 0.0
C500 C 0.74252 0.38612 0.11539 0.0
C501 C 0.73134 0.37084 0.0956 0.0
C502 C 0.77227 0.41033 0.07863 0.0
C503 C 0.76018 0.39505 0.05956 0.0
N504 N 0.69961 0.34147 0.01259 0.0
C505 C 0.6616 0.34193 0.98427 0.0
C506 C 0.66748 0.31527 0.97696 0.0
C507 C 0.69053 0.3024 0.98677 0.0
C508 C 0.70672 0.31614 1.00406 0.0
C509 C 0.6774 0.35432 1.00269 0.0
H510 H 0.72457 0.306 0.01104 0.0
H511 H 0.6711 0.37404 0.00936 0.0
H512 H 0.71555 0.35544 0.10269 0.0
H513 H 0.76706 0.39927 0.03802 0.0
C514 C 0.77012 0.31585 0.04326 0.0
C515 C 0.6755 0.31407 0.08456 0.0
C516 C 0.75466 0.39515 0.98137 0.0
C517 C 0.67879 0.4099 0.05086 0.0
H518 H 0.70502 0.26515 0.09947 0.0
H519 H 0.75788 0.26725 0.0792 0.0
H520 H 0.81649 0.32736 1.00275 0.0
H521 H 0.80696 0.36956 0.9679 0.0
H522 H 0.72664 0.4462 0.97119 0.0
H523 H 0.68775 0.45613 0.01125 0.0
H524 H 0.63158 0.39747 0.09034 0.0
H525 H 0.62885 0.3442 0.1068 0.0
H526 H 0.73497 0.38259 0.13712 0.0
H527 H 0.78805 0.42592 0.07138 0.0
H528 H 0.64405 0.35255 0.97684 0.0
H529 H 0.69585 0.28185 0.9812 0.0
C530 C 0.73205 0.6983 0.07383 0.0
C531 C 0.75669 0.70897 0.08157 0.0
C532 C 0.76312 0.73222 0.06475 0.0
C533 C 0.74215 0.73436 0.0478 0.0
N534 N 0.7226 0.714 0.05287 0.0
Co535 Co 0.68879 0.7089 0.03296 0.0
N536 N 0.69892 0.74246 1.00741 0.0
C537 C 0.7222 0.7584 1.00629 0.0
C538 C 0.72244 0.78112 0.98801 0.0
C539 C 0.69767 0.77988 0.97704 0.0
C540 C 0.68379 0.75623 0.98918 0.0
N541 N 0.65459 0.70434 0.01346 0.0
C542 C 0.64408 0.72132 0.99407 0.0
C543 C 0.61927 0.71092 0.98645 0.0
C544 C 0.61348 0.68687 1.00219 0.0
C545 C 0.63504 0.68395 0.01835 0.0
N546 N 0.67875 0.67516 0.05813 0.0
C547 C 0.65651 0.65802 0.05784 0.0
C548 C 0.65546 0.6363 0.07743 0.0
C549 C 0.67864 0.63954 0.09082 0.0
C550 C 0.69246 0.66314 0.0785 0.0
N551 N 0.6675 0.73242 0.06012 0.0
C552 C 0.63796 0.76517 0.09965 0.0
C553 C 0.62838 0.73877 0.09456 0.0
C554 C 0.64303 0.72311 0.07476 0.0
C555 C 0.66263 0.77483 0.08422 0.0
C556 C 0.67701 0.75827 0.06505 0.0
N557 N 0.71035 0.68497 1.00602 0.0
C558 C 0.71396 0.64334 0.98033 0.0
C559 C 0.742 0.6488 0.97132 0.0
C560 C 0.75364 0.67314 0.97971 0.0
C561 C 0.73768 0.69074 0.99664 0.0
C562 C 0.69879 0.66134 0.99742 0.0
H563 H 0.74807 0.70883 1.00211 0.0
H564 H 0.67771 0.65545 1.00365 0.0
H565 H 0.63414 0.70345 0.07164 0.0
H566 H 0.69589 0.76683 0.05445 0.0
C567 C 0.74127 0.75403 0.02573 0.0
C568 C 0.71927 0.67243 0.08586 0.0
C569 C 0.65585 0.74824 0.98364 0.0
C570 C 0.63686 0.66304 0.03911 0.0
H571 H 0.76907 0.70049 0.09731 0.0
H572 H 0.78131 0.74554 0.06439 0.0
H573 H 0.73805 0.7975 0.98431 0.0
H574 H 0.69034 0.79513 0.96241 0.0
H575 H 0.60631 0.72019 0.97162 0.0
H576 H 0.59533 0.67353 1.00242 0.0
H577 H 0.63984 0.61995 0.08134 0.0
H578 H 0.68493 0.62588 0.10747 0.0
H579 H 0.60939 0.73025 0.10575 0.0
H580 H 0.67099 0.79511 0.08713 0.0
H581 H 0.70376 0.62494 0.97443 0.0
H582 H 0.77518 0.67855 0.97331 0.0
C583 C 0.4067 0.70914 0.99734 0.0
C584 C 0.43175 0.69805 0.98793 0.0
C585 C 0.4342 0.6742 1.00377 0.0
C586 C 0.4106 0.67209 0.02178 0.0
N587 N 0.39289 0.6928 0.01812 0.0
Co588 Co 0.35683 0.69821 0.04087 0.0
N589 N 0.36069 0.66333 0.06447 0.0
C590 C 0.38107 0.64497 0.06096 0.0
C591 C 0.37572 0.62039 0.07607 0.0
C592 C 0.35033 0.62306 0.09005 0.0
C593 C 0.34188 0.64961 0.08334 0.0
N594 N 0.32151 0.70425 0.06454 0.0
C595 C 0.30938 0.68944 0.0874 0.0
C596 C 0.28692 0.70298 0.09964 0.0
C597 C 0.28393 0.72636 0.08315 0.0
C598 C 0.305 0.72614 0.06223 0.0
N599 N 0.35228 0.73238 0.01643 0.0
C600 C 0.33029 0.74902 0.01769 0.0
C601 C 0.33326 0.77133 0.99874 0.0
C602 C 0.35871 0.76885 0.98459 0.0
C603 C 0.36984 0.74502 0.99571 0.0
N604 N 0.33605 0.67624 0.01536 0.0
C605 C 0.30579 0.64341 0.98147 0.0
C606 C 0.29401 0.66622 0.9937 0.0
C607 C 0.30936 0.68226 0.01027 0.0
C608 C 0.33311 0.63762 0.98621 0.0
C609 C 0.34768 0.65406 1.003 0.0
N610 N 0.37748 0.7203 0.06624 0.0
C611 C 0.38436 0.76316 0.08813 0.0
C612 C 0.40791 0.75345 0.09955 0.0
C613 C 0.41583 0.7266 0.09434 0.0
C614 C 0.40037 0.71044 0.07787 0.0
C615 C 0.36966 0.74651 0.07175 0.0
H616 H 0.40735 0.69008 0.0746 0.0
H617 H 0.35211 0.75551 0.06356 0.0
H618 H 0.29907 0.69933 0.01893 0.0
H619 H 0.36831 0.64819 1.00583 0.0
C620 C 0.4039 0.65038 0.04155 0.0
C621 C 0.39746 0.73567 0.98642 0.0
C622 C 0.31649 0.66129 0.09636 0.0
C623 C 0.30933 0.74556 0.0396 0.0
H624 H 0.44686 0.70646 0.9715 0.0
H625 H 0.45117 0.66011 1.00235 0.0
H626 H 0.3883 0.60228 0.07607 0.0
H627 H 0.33933 0.60698 0.10345 0.0
H628 H 0.27341 0.69616 0.11797 0.0
H629 H 0.268 0.74146 0.08585 0.0
H630 H 0.3192 0.78812 0.99641 0.0
H631 H 0.36826 0.78333 0.96841 0.0
H632 H 0.27291 0.67156 0.99061 0.0
H633 H 0.34315 0.62021 0.97716 0.0
H634 H 0.3774 0.78375 0.09166 0.0
H635 H 0.4339 0.71815 0.10291 0.0
C636 C 0.81368 0.46658 0.86438 0.0
C637 C 0.78864 0.45788 0.85584 0.0
C638 C 0.78652 0.47104 0.83046 0.0
C639 C 0.81012 0.4872 0.82504 0.0
N640 N 0.82744 0.48494 0.84524 0.0
Co641 Co 0.86227 0.50746 0.8472 0.0
N642 N 0.85678 0.53 0.812 0.0
C643 C 0.83588 0.52699 0.79583 0.0
C644 C 0.8383 0.54412 0.7721 0.0
C645 C 0.86229 0.55895 0.77301 0.0
C646 C 0.87306 0.55011 0.79748 0.0
N647 N 0.89687 0.53011 0.84944 0.0
C648 C 0.90857 0.55129 0.83231 0.0
C649 C 0.93224 0.56184 0.8422 0.0
C650 C 0.93598 0.54644 0.86602 0.0
C651 C 0.91437 0.52757 0.86946 0.0
N652 N 0.86779 0.48487 0.8823 0.0
C653 C 0.88942 0.48677 0.89772 0.0
C654 C 0.88769 0.46848 0.92059 0.0
C655 C 0.8632 0.45435 0.92007 0.0
C656 C 0.85127 0.46505 0.89692 0.0
N657 N 0.88474 0.48034 0.82452 0.0
C658 C 0.91781 0.44364 0.79144 0.0
C659 C 0.92542 0.45171 0.81697 0.0
C660 C 0.90908 0.46997 0.83273 0.0
C661 C 0.89301 0.45434 0.78305 0.0
C662 C 0.87689 0.47205 0.79977 0.0
N663 N 0.84006 0.53455 0.86977 0.0
C664 C 0.83329 0.56195 0.91027 0.0
C665 C 0.80814 0.57211 0.9024 0.0
C666 C 0.79942 0.56301 0.8777 0.0
C667 C 0.81546 0.54454 0.86191 0.0
C668 C 0.84869 0.54348 0.89393 0.0
H669 H 0.80747 0.53848 0.84338 0.0
H670 H 0.86755 0.53655 0.90137 0.0
H671 H 0.91677 0.47552 0.8515 0.0
H672 H 0.85813 0.47887 0.79209 0.0
C673 C 0.81503 0.50691 0.80282 0.0
C674 C 0.82323 0.45731 0.8911 0.0
C675 C 0.89902 0.56118 0.80578 0.0
C676 C 0.91016 0.50706 0.89106 0.0
H677 H 0.77317 0.44394 0.86701 0.0
H678 H 0.76923 0.46992 0.81801 0.0
H679 H 0.82456 0.54527 0.75578 0.0
H680 H 0.87099 0.57431 0.75726 0.0
H681 H 0.94568 0.57865 0.8329 0.0
H682 H 0.95261 0.54858 0.87914 0.0
H683 H 0.90211 0.46626 0.93624 0.0
H684 H 0.85462 0.43859 0.9355 0.0
H685 H 0.94427 0.44415 0.82469 0.0
H686 H 0.88591 0.44892 0.76358 0.0
H687 H 0.84107 0.5682 0.92915 0.0
H688 H 0.78014 0.5701 0.87058 0.0
C689 C 0.47514 0.8294 0.90603 0.0
C690 C 0.45847 0.84362 0.92484 0.0
C691 C 0.46378 0.87107 0.91799 0.0
C692 C 0.48329 0.87208 0.8955 0.0
N693 N 0.49086 0.84703 0.88785 0.0
Co694 Co 0.51759 0.83953 0.8556 0.0
N695 N 0.53295 0.87794 0.85275 0.0
C696 C 0.51992 0.89967 0.86329 0.0
C697 C 0.53325 0.92438 0.85522 0.0
C698 C 0.55605 0.91794 0.83833 0.0
C699 C 0.55557 0.88943 0.83731 0.0
N700 N 0.54487 0.83206 0.82376 0.0
C701 C 0.56878 0.84594 0.81387 0.0
C702 C 0.58368 0.83139 0.79403 0.0
C703 C 0.56786 0.80853 0.79036 0.0
C704 C 0.54452 0.80992 0.80857 0.0
N705 N 0.5014 0.80144 0.85798 0.0
C706 C 0.50476 0.78342 0.8381 0.0
C707 C 0.49169 0.75842 0.84577 0.0
C708 C 0.47911 0.76094 0.87198 0.0
C709 C 0.48503 0.78752 0.8788 0.0
N710 N 0.49055 0.85112 0.83015 0.0
C711 C 0.45083 0.87646 0.80034 0.0
C712 C 0.47897 0.88043 0.79136 0.0
C713 C 0.49857 0.86755 0.80664 0.0
C714 C 0.44281 0.85762 0.82274 0.0
C715 C 0.46306 0.84485 0.83713 0.0
N716 N 0.54455 0.82775 0.88101 0.0
C717 C 0.57479 0.79284 0.89662 0.0
C718 C 0.58243 0.80913 0.91737 0.0
C719 C 0.57096 0.83519 0.91953 0.0
C720 C 0.55162 0.84395 0.90136 0.0
C721 C 0.55632 0.80267 0.87845 0.0
H722 H 0.5424 0.86373 0.90373 0.0
H723 H 0.55161 0.78978 0.86233 0.0
H724 H 0.52013 0.87227 0.80039 0.0
H725 H 0.45637 0.83128 0.85497 0.0
C726 C 0.49675 0.89583 0.88268 0.0
C727 C 0.47305 0.79948 0.90419 0.0
C728 C 0.576 0.87435 0.8201 0.0
C729 C 0.5247 0.78866 0.81542 0.0
H730 H 0.44347 0.83508 0.9413 0.0
H731 H 0.45469 0.88821 0.92835 0.0
H732 H 0.52724 0.94464 0.86107 0.0
H733 H 0.57094 0.93274 0.82758 0.0
H734 H 0.60356 0.83704 0.78281 0.0
H735 H 0.57327 0.79226 0.77683 0.0
H736 H 0.49234 0.7401 0.83427 0.0
H737 H 0.46689 0.74504 0.88455 0.0
H738 H 0.48572 0.89501 0.77406 0.0
H739 H 0.42114 0.85414 0.8301 0.0
H740 H 0.58342 0.77268 0.89422 0.0
H741 H 0.57665 0.84841 0.93528 0.0
C742 C 0.15425 0.54781 0.85158 0.0
C743 C 0.12724 0.55251 0.86205 0.0
C744 C 0.12027 0.53264 0.88299 0.0
C745 C 0.14326 0.51684 0.8842 0.0
N746 N 0.16465 0.52574 0.86575 0.0
Co747 Co 0.20079 0.50661 0.85979 0.0
N748 N 0.1929 0.48178 0.89424 0.0
C749 C 0.16792 0.47745 0.90869 0.0
C750 C 0.16829 0.45893 0.93126 0.0
C751 C 0.19523 0.45099 0.93108 0.0
C752 C 0.20986 0.46524 0.90839 0.0
N753 N 0.23696 0.48772 0.85412 0.0
C754 C 0.25073 0.47177 0.87219 0.0
C755 C 0.27635 0.46463 0.85985 0.0
C756 C 0.27848 0.47593 0.83311 0.0
C757 C 0.25429 0.48959 0.83061 0.0
N758 N 0.20872 0.53123 0.82501 0.0
C759 C 0.22975 0.52837 0.80521 0.0
C760 C 0.23064 0.54813 0.7836 0.0
C761 C 0.20844 0.56426 0.78972 0.0
C762 C 0.19498 0.55321 0.81466 0.0
N763 N 0.21867 0.53408 0.88142 0.0
C764 C 0.24554 0.57098 0.91372 0.0
C765 C 0.2578 0.56404 0.88781 0.0
C766 C 0.24408 0.54579 0.87204 0.0
C767 C 0.21928 0.55931 0.92287 0.0
C768 C 0.20632 0.54097 0.90656 0.0
N769 N 0.1828 0.47888 0.83822 0.0
C770 C 0.17662 0.43219 0.8244 0.0
C771 C 0.15624 0.44056 0.80709 0.0
C772 C 0.14944 0.4683 0.80598 0.0
C773 C 0.16273 0.48681 0.82158 0.0
C774 C 0.18955 0.45159 0.83981 0.0
H775 H 0.15624 0.50754 0.82031 0.0
H776 H 0.20482 0.44441 0.85315 0.0
H777 H 0.25434 0.54094 0.85238 0.0
H778 H 0.18639 0.53214 0.91456 0.0
C779 C 0.14579 0.49404 0.9028 0.0
C780 C 0.16738 0.56199 0.82555 0.0
C781 C 0.23958 0.46166 0.90051 0.0
C782 C 0.24952 0.50832 0.80867 0.0
H783 H 0.11348 0.56789 0.85451 0.0
H784 H 0.10059 0.52976 0.8955 0.0
H785 H 0.15124 0.45267 0.94659 0.0
H786 H 0.20323 0.43644 0.94598 0.0
H787 H 0.29197 0.45259 0.86914 0.0
H788 H 0.29617 0.47541 0.81776 0.0
H789 H 0.2457 0.55059 0.76558 0.0
H790 H 0.2022 0.58152 0.77673 0.0
H791 H 0.27804 0.57253 0.87986 0.0
H792 H 0.20898 0.56405 0.94273 0.0
H793 H 0.18237 0.41082 0.82615 0.0
H794 H 0.13367 0.47571 0.79318 0.0
C795 C 0.49705 0.25093 0.85907 0.0
C796 C 0.49183 0.27461 0.84304 0.0
C797 C 0.51113 0.27612 0.82058 0.0
C798 C 0.52696 0.25343 0.82423 0.0
N799 N 0.51893 0.23744 0.84766 0.0
Co800 Co 0.53616 0.20262 0.86137 0.0
N801 N 0.56493 0.20528 0.8287 0.0
C802 C 0.56839 0.22543 0.80795 0.0
C803 C 0.59011 0.22143 0.78852 0.0
C804 C 0.60106 0.19714 0.79722 0.0
C805 C 0.58524 0.18776 0.82151 0.0
N806 N 0.55318 0.16763 0.87493 0.0
C807 C 0.5741 0.1534 0.86277 0.0
C808 C 0.5791 0.12948 0.87854 0.0
C809 C 0.56051 0.12847 0.90153 0.0
C810 C 0.54528 0.15166 0.89842 0.0
N811 N 0.50753 0.20002 0.89417 0.0
C812 C 0.50471 0.18034 0.91542 0.0
C813 C 0.48275 0.18402 0.93466 0.0
C814 C 0.47091 0.20754 0.92528 0.0
C815 C 0.48649 0.2169 0.9008 0.0
N816 N 0.51134 0.1811 0.84038 0.0
C817 C 0.47428 0.15182 0.81172 0.0
C818 C 0.47897 0.1431 0.83872 0.0
C819 C 0.49747 0.15795 0.85259 0.0
C820 C 0.48856 0.17509 0.79896 0.0
C821 C 0.5071 0.18924 0.81354 0.0
N822 N 0.56101 0.22424 0.8824 0.0
C823 C 0.58408 0.22999 0.92367 0.0
C824 C 0.59661 0.25455 0.91189 0.0
C825 C 0.59111 0.2639 0.88529 0.0
C826 C 0.57348 0.24843 0.87094 0.0
C827 C 0.56628 0.21537 0.90874 0.0
H828 H 0.57026 0.25655 0.85068 0.0
H829 H 0.55699 0.19707 0.91904 0.0
H830 H 0.50009 0.15037 0.8732 0.0
H831 H 0.51767 0.20671 0.80272 0.0
C832 C 0.55011 0.24715 0.80658 0.0
C833 C 0.48117 0.24256 0.88534 0.0
C834 C 0.58907 0.16119 0.83592 0.0
C835 C 0.52271 0.15839 0.91655 0.0
H836 H 0.47588 0.2894 0.84727 0.0
H837 H 0.51356 0.29206 0.8038 0.0
H838 H 0.5968 0.23432 0.76993 0.0
H839 H 0.6183 0.1871 0.78659 0.0
H840 H 0.59434 0.11415 0.87372 0.0
H841 H 0.55799 0.11245 0.91823 0.0
H842 H 0.47617 0.17114 0.95328 0.0
H843 H 0.45298 0.21694 0.93544 0.0
H844 H 0.46828 0.12495 0.84909 0.0
H845 H 0.48546 0.18221 0.77787 0.0
H846 H 0.58777 0.22233 0.94445 0.0
H847 H 0.60038 0.28305 0.87567 0.0
C848 C 0.83662 0.49989 0.15535 0.0
C849 C 0.84725 0.49333 0.12906 0.0
C850 C 0.86903 0.51116 0.1211 0.0
C851 C 0.87036 0.52759 0.14282 0.0
N852 N 0.8509 0.52116 0.16432 0.0
Co853 Co 0.84394 0.54109 0.19905 0.0
N854 N 0.87697 0.56626 0.18803 0.0
C855 C 0.89505 0.56575 0.16503 0.0
C856 C 0.91669 0.58444 0.16409 0.0
C857 C 0.91249 0.59731 0.18821 0.0
C858 C 0.88839 0.5857 0.2024 0.0
N859 N 0.83603 0.56206 0.23296 0.0
C860 C 0.85068 0.58286 0.2423 0.0
C861 C 0.83783 0.59199 0.26668 0.0
C862 C 0.81425 0.57616 0.27311 0.0
C863 C 0.81406 0.55839 0.25235 0.0
N864 N 0.81206 0.51475 0.21103 0.0
C865 C 0.79507 0.51428 0.23489 0.0
C866 C 0.77583 0.49302 0.23785 0.0
C867 C 0.78085 0.47903 0.2145 0.0
C868 C 0.80283 0.49277 0.19856 0.0
N869 N 0.86809 0.51612 0.21872 0.0
C870 C 0.90337 0.48248 0.24725 0.0
C871 C 0.87964 0.49251 0.26116 0.0
C872 C 0.86222 0.50902 0.24651 0.0
C873 C 0.90908 0.48894 0.21886 0.0
C874 C 0.89133 0.50592 0.20507 0.0
N875 N 0.81965 0.56618 0.1793 0.0
C876 C 0.77447 0.58466 0.17404 0.0
C877 C 0.7852 0.6009 0.15064 0.0
C878 C 0.81325 0.59983 0.14178 0.0
C879 C 0.82996 0.58227 0.15618 0.0
C880 C 0.79203 0.56773 0.18816 0.0
H881 H 0.85104 0.58203 0.14796 0.0
H882 H 0.78264 0.55608 0.20605 0.0
H883 H 0.84428 0.51603 0.25815 0.0
H884 H 0.89692 0.5107 0.18347 0.0
C885 C 0.89067 0.54796 0.1444 0.0
C886 C 0.81295 0.48532 0.17091 0.0
C887 C 0.87768 0.59317 0.22984 0.0
C888 C 0.79616 0.53552 0.25278 0.0
H889 H 0.84005 0.47725 0.11692 0.0
H890 H 0.88248 0.51189 0.1019 0.0
H891 H 0.93359 0.5881 0.14791 0.0
H892 H 0.92578 0.61324 0.1948 0.0
H893 H 0.84521 0.60782 0.279 0.0
H894 H 0.79973 0.57662 0.29147 0.0
H895 H 0.75962 0.48865 0.25462 0.0
H896 H 0.76921 0.46118 0.2094 0.0
H897 H 0.87465 0.48763 0.28322 0.0
H898 H 0.92736 0.48128 0.20754 0.0
H899 H 0.75268 0.58507 0.18135 0.0
H900 H 0.82212 0.61219 0.12355 0.0
C901 C 0.57055 0.86241 0.17145 0.0
C902 C 0.5808 0.8747 0.1458 0.0
C903 C 0.56992 0.90035 0.14392 0.0
C904 C 0.55364 0.90224 0.16842 0.0
N905 N 0.55399 0.87975 0.18619 0.0
Co906 Co 0.53003 0.87313 0.22239 0.0
N907 N 0.51142 0.90954 0.21834 0.0
C908 C 0.51889 0.92956 0.1982 0.0
C909 C 0.50795 0.9546 0.20341 0.0
C910 C 0.4927 0.95051 0.22853 0.0
C911 C 0.49438 0.92281 0.23705 0.0
N912 N 0.50458 0.86553 0.25742 0.0
C913 C 0.48358 0.8804 0.26939 0.0
C914 C 0.46897 0.86504 0.29143 0.0
C915 C 0.4822 0.84066 0.2946 0.0
C916 C 0.50359 0.84199 0.27388 0.0
N917 N 0.54987 0.83754 0.22738 0.0
C918 C 0.54653 0.81984 0.25016 0.0
C919 C 0.56205 0.79671 0.2477 0.0
C920 C 0.57585 0.79966 0.22167 0.0
C921 C 0.56795 0.82449 0.20957 0.0
N922 N 0.55807 0.89202 0.24352 0.0
C923 C 0.59391 0.9224 0.27457 0.0
C924 C 0.5766 0.90086 0.28722 0.0
C925 C 0.55922 0.88598 0.27151 0.0
C926 C 0.5935 0.92787 0.24592 0.0
C927 C 0.57571 0.91265 0.23098 0.0
N928 N 0.50234 0.85429 0.20132 0.0
C929 C 0.47943 0.8119 0.19075 0.0
C930 C 0.46939 0.82465 0.16719 0.0
C931 C 0.47511 0.853 0.16177 0.0
C932 C 0.49164 0.86729 0.17886 0.0
C933 C 0.4953 0.82695 0.20751 0.0
H934 H 0.49602 0.88875 0.17334 0.0
H935 H 0.50217 0.81576 0.22512 0.0
H936 H 0.54671 0.8698 0.28264 0.0
H937 H 0.57648 0.91824 0.20928 0.0
C938 C 0.53769 0.92469 0.17552 0.0
C939 C 0.5769 0.83404 0.18059 0.0
C940 C 0.47877 0.90996 0.26268 0.0
C941 C 0.52432 0.82255 0.27039 0.0
H942 H 0.59442 0.86586 0.12993 0.0
H943 H 0.57309 0.91559 0.12655 0.0
H944 H 0.5115 0.97384 0.19091 0.0
H945 H 0.48192 0.96642 0.23938 0.0
H946 H 0.4513 0.87124 0.30469 0.0
H947 H 0.47721 0.82422 0.31055 0.0
H948 H 0.56182 0.77887 0.2623 0.0
H949 H 0.58928 0.7847 0.21223 0.0
H950 H 0.57637 0.89558 0.30929 0.0
H951 H 0.60675 0.94412 0.23508 0.0
H952 H 0.47519 0.79017 0.19614 0.0
H953 H 0.46738 0.86393 0.14404 0.0
C954 C 0.2342 0.5644 0.1644 0.0
C955 C 0.23389 0.56285 0.13587 0.0
C956 C 0.21818 0.54011 0.13203 0.0
C957 C 0.21009 0.52875 0.1582 0.0
N958 N 0.21947 0.54294 0.1785 0.0
Co959 Co 0.21661 0.53005 0.21863 0.0
N960 N 0.18776 0.50136 0.21371 0.0
C961 C 0.18184 0.49206 0.18938 0.0
C962 C 0.1615 0.47181 0.19221 0.0
C963 C 0.15418 0.46791 0.22016 0.0
C964 C 0.17055 0.48612 0.23279 0.0
N965 N 0.21358 0.51704 0.25866 0.0
C966 C 0.19375 0.50095 0.27403 0.0
C967 C 0.19937 0.49763 0.30154 0.0
C968 C 0.22374 0.51178 0.30336 0.0
C969 C 0.23156 0.52304 0.27698 0.0
N970 N 0.24593 0.5583 0.22332 0.0
C971 C 0.25995 0.56001 0.24587 0.0
C972 C 0.27594 0.58367 0.24495 0.0
C973 C 0.27226 0.59744 0.2201 0.0
C974 C 0.25479 0.58098 0.20671 0.0
N975 N 0.18775 0.55661 0.22703 0.0
C976 C 0.14389 0.58816 0.2474 0.0
C977 C 0.17064 0.5928 0.25472 0.0
C978 C 0.1918 0.576 0.24547 0.0
C979 C 0.1399 0.56892 0.22787 0.0
C980 C 0.16248 0.55438 0.21688 0.0
N981 N 0.2452 0.50339 0.21044 0.0
C982 C 0.28344 0.49104 0.17913 0.0
C983 C 0.27568 0.46332 0.1847 0.0
C984 C 0.25528 0.45575 0.20629 0.0
C985 C 0.24057 0.47631 0.21936 0.0
C986 C 0.26784 0.51085 0.19233 0.0
H987 H 0.22372 0.47016 0.23466 0.0
H988 H 0.27256 0.53206 0.18582 0.0
H989 H 0.21089 0.57815 0.25456 0.0
H990 H 0.159 0.54043 0.2012 0.0
C991 C 0.19321 0.50523 0.16442 0.0
C992 C 0.2506 0.58528 0.17698 0.0
C993 C 0.17071 0.48667 0.26291 0.0
C994 C 0.25292 0.54259 0.26968 0.0
H995 H 0.24458 0.57612 0.11932 0.0
H996 H 0.21357 0.53253 0.11246 0.0
H997 H 0.15258 0.46159 0.17589 0.0
H998 H 0.13882 0.45308 0.23011 0.0
H999 H 0.18727 0.48595 0.31844 0.0
H1000 H 0.23401 0.51433 0.3219 0.0
H1001 H 0.2878 0.59076 0.26102 0.0
H1002 H 0.28202 0.617 0.21243 0.0
H1003 H 0.17468 0.60778 0.2695 0.0
H1004 H 0.1195 0.56482 0.22151 0.0
H1005 H 0.29937 0.49739 0.16258 0.0
H1006 H 0.24907 0.43434 0.21118 0.0
C1007 C 0.48996 0.20595 0.24227 0.0
C1008 C 0.47767 0.21976 0.26415 0.0
C1009 C 0.48768 0.2464 0.26036 0.0
C1010 C 0.50545 0.24728 0.23648 0.0
N1011 N 0.50731 0.22293 0.22498 0.0
Co1012 Co 0.53095 0.21502 0.19073 0.0
N1013 N 0.55355 0.24972 0.19142 0.0
C1014 C 0.54629 0.27118 0.20653 0.0
C1015 C 0.56409 0.29351 0.20126 0.0
C1016 C 0.58364 0.286 0.18118 0.0
C1017 C 0.57678 0.25926 0.17538 0.0
N1018 N 0.55486 0.20683 0.1566 0.0
C1019 C 0.57922 0.21876 0.14497 0.0
C1020 C 0.58957 0.20526 0.122 0.0
C1021 C 0.57047 0.18511 0.11834 0.0
C1022 C 0.54981 0.18705 0.13945 0.0
N1023 N 0.50784 0.18087 0.18972 0.0
C1024 C 0.5068 0.16534 0.16789 0.0
C1025 C 0.48915 0.14282 0.17343 0.0
C1026 C 0.47837 0.14426 0.20045 0.0
C1027 C 0.49011 0.16767 0.20985 0.0
N1028 N 0.50515 0.23534 0.16756 0.0
C1029 C 0.46892 0.26334 0.13331 0.0
C1030 C 0.49765 0.26775 0.12893 0.0
C1031 C 0.5152 0.25374 0.14618 0.0
C1032 C 0.45863 0.24481 0.15554 0.0
C1033 C 0.47699 0.23116 0.17238 0.0
N1034 N 0.55642 0.19436 0.21407 0.0
C1035 C 0.5771 0.15125 0.22818 0.0
C1036 C 0.58949 0.16317 0.2497 0.0
C1037 C 0.58516 0.19142 0.2525 0.0
C1038 C 0.56818 0.20635 0.23507 0.0
C1039 C 0.56154 0.16719 0.21032 0.0
H1040 H 0.56439 0.22756 0.2389 0.0
H1041 H 0.55334 0.15714 0.19366 0.0
H1042 H 0.53695 0.25796 0.14218 0.0
H1043 H 0.46831 0.21713 0.18926 0.0
C1044 C 0.52356 0.26908 0.2266 0.0
C1045 C 0.48328 0.17729 0.23759 0.0
C1046 C 0.59093 0.24516 0.15229 0.0
C1047 C 0.52667 0.16928 0.14508 0.0
H1048 H 0.46292 0.21147 0.28096 0.0
H1049 H 0.48326 0.26287 0.27391 0.0
H1050 H 0.56289 0.31302 0.21072 0.0
H1051 H 0.60041 0.29923 0.17127 0.0
H1052 H 0.60835 0.21028 0.10855 0.0
H1053 H 0.57159 0.17067 0.10226 0.0
H1054 H 0.48567 0.12649 0.15997 0.0
H1055 H 0.46378 0.12963 0.21198 0.0
H1056 H 0.50656 0.28198 0.11215 0.0
H1057 H 0.43654 0.24083 0.15982 0.0
H1058 H 0.57964 0.12962 0.22495 0.0
H1059 H 0.59435 0.20184 0.26855 0.0
C1060 C 0.84487 0.89077 0.49992 0.0
C1061 C 0.85622 0.91626 0.48974 0.0
C1062 C 0.88318 0.91675 0.49587 0.0
C1063 C 0.88678 0.89171 0.50958 0.0
N1064 N 0.86378 0.87545 0.51281 0.0
Co1065 Co 0.86066 0.83762 0.53204 0.0
N1066 N 0.89646 0.8421 0.54893 0.0
C1067 C 0.91592 0.86185 0.54059 0.0
C1068 C 0.93975 0.85891 0.55341 0.0
C1069 C 0.93536 0.83562 0.57077 0.0
C1070 C 0.90883 0.82566 0.56782 0.0
N1071 N 0.85732 0.79996 0.55159 0.0
C1072 C 0.87138 0.78819 0.57226 0.0
C1073 C 0.86028 0.7622 0.58103 0.0
C1074 C 0.83976 0.75693 0.56448 0.0
C1075 C 0.83895 0.7801 0.54689 0.0
N1076 N 0.82522 0.83296 0.51455 0.0
C1077 C 0.8117 0.80878 0.51294 0.0
C1078 C 0.78839 0.81126 0.49912 0.0
C1079 C 0.78719 0.83872 0.49122 0.0
C1080 C 0.80986 0.85155 0.50077 0.0
N1081 N 0.88075 0.82285 0.49979 0.0
C1082 C 0.9086 0.80182 0.45341 0.0
C1083 C 0.88871 0.82169 0.45022 0.0
C1084 C 0.87492 0.83179 0.47373 0.0
C1085 C 0.91466 0.79275 0.48 0.0
C1086 C 0.9005 0.8036 0.50296 0.0
N1087 N 0.8403 0.85247 0.56394 0.0
C1088 C 0.79731 0.85448 0.59255 0.0
C1089 C 0.80592 0.87944 0.60187 0.0
C1090 C 0.83279 0.88968 0.59361 0.0
C1091 C 0.84966 0.87592 0.5744 0.0
C1092 C 0.81503 0.84108 0.57395 0.0
H1093 H 0.86966 0.88497 0.56705 0.0
H1094 H 0.8076 0.82223 0.56663 0.0
H1095 H 0.85945 0.84673 0.47081 0.0
H1096 H 0.90553 0.79638 0.52318 0.0
C1097 C 0.91035 0.88386 0.52217 0.0
C1098 C 0.8171 0.88099 0.49433 0.0
C1099 C 0.89741 0.79922 0.58151 0.0
C1100 C 0.81924 0.78512 0.52806 0.0
H1101 H 0.84625 0.9326 0.47854 0.0
H1102 H 0.8982 0.93357 0.49129 0.0
H1103 H 0.95816 0.87211 0.55048 0.0
H1104 H 0.95037 0.82667 0.58356 0.0
H1105 H 0.86688 0.74809 0.59714 0.0
H1106 H 0.82663 0.73858 0.56553 0.0
H1107 H 0.7736 0.79516 0.49583 0.0
H1108 H 0.77157 0.84819 0.47952 0.0
H1109 H 0.88373 0.82909 0.42977 0.0
H1110 H 0.93015 0.77739 0.48296 0.0
H1111 H 0.77671 0.84592 0.59889 0.0
H1112 H 0.84005 0.9089 0.60077 0.0
C1113 C 0.17255 0.79196 0.58213 0.0
C1114 C 0.17893 0.76477 0.58876 0.0
C1115 C 0.2008 0.75856 0.57044 0.0
C1116 C 0.20651 0.78212 0.55356 0.0
N1117 N 0.18991 0.803 0.56032 0.0
Co1118 Co 0.18996 0.8396 0.53914 0.0
N1119 N 0.22685 0.83391 0.51883 0.0
C1120 C 0.23982 0.8098 0.5174 0.0
C1121 C 0.26592 0.81248 0.50367 0.0
C1122 C 0.26954 0.83998 0.49576 0.0
C1123 C 0.2452 0.85255 0.50479 0.0
N1124 N 0.18969 0.8759 0.51764 0.0
C1125 C 0.21041 0.89028 0.50184 0.0
C1126 C 0.20064 0.91401 0.48902 0.0
C1127 C 0.17288 0.91455 0.49723 0.0
C1128 C 0.16723 0.89115 0.51439 0.0
N1129 N 0.15312 0.84566 0.5596 0.0
C1130 C 0.13536 0.8654 0.55296 0.0
C1131 C 0.11218 0.86566 0.57151 0.0
C1132 C 0.11522 0.84446 0.59085 0.0
C1133 C 0.13997 0.8321 0.58272 0.0
N1134 N 0.20836 0.85649 0.56811 0.0
C1135 C 0.23803 0.88247 0.60596 0.0
C1136 C 0.21509 0.89496 0.59557 0.0
C1137 C 0.20041 0.88154 0.57678 0.0
C1138 C 0.24538 0.85646 0.59779 0.0
C1139 C 0.23027 0.84381 0.57886 0.0
N1140 N 0.17188 0.82251 0.50996 0.0
C1141 C 0.1378 0.7905 0.49709 0.0
C1142 C 0.14591 0.7972 0.46905 0.0
C1143 C 0.16736 0.8167 0.46164 0.0
C1144 C 0.18022 0.82903 0.48248 0.0
C1145 C 0.15098 0.80341 0.51711 0.0
H1146 H 0.19689 0.84377 0.47634 0.0
H1147 H 0.14438 0.79773 0.53838 0.0
H1148 H 0.1831 0.89175 0.56872 0.0
H1149 H 0.23687 0.8241 0.57237 0.0
C1150 C 0.22891 0.78631 0.53318 0.0
C1151 C 0.14799 0.80533 0.59498 0.0
C1152 C 0.23919 0.88156 0.49751 0.0
C1153 C 0.14252 0.88515 0.53109 0.0
H1154 H 0.16842 0.75059 0.60467 0.0
H1155 H 0.21139 0.73923 0.56967 0.0
H1156 H 0.28099 0.79658 0.50077 0.0
H1157 H 0.28792 0.84954 0.4844 0.0
H1158 H 0.21234 0.92932 0.47518 0.0
H1159 H 0.15873 0.93058 0.49207 0.0
H1160 H 0.09529 0.87983 0.57125 0.0
H1161 H 0.10036 0.83815 0.60832 0.0
H1162 H 0.20902 0.91522 0.60144 0.0
H1163 H 0.26319 0.84639 0.60531 0.0
H1164 H 0.12123 0.77548 0.50346 0.0
H1165 H 0.17405 0.82232 0.44001 0.0
C1166 C 0.15586 0.19178 0.5745 0.0
C1167 C 0.12923 0.18157 0.58273 0.0
C1168 C 0.12638 0.15745 0.5703 0.0
C1169 C 0.15133 0.15416 0.55522 0.0
N1170 N 0.1702 0.17446 0.55756 0.0
Co1171 Co 0.20861 0.17768 0.5374 0.0
N1172 N 0.20428 0.1422 0.51881 0.0
C1173 C 0.18191 0.12489 0.52294 0.0
C1174 C 0.18451 0.10187 0.50817 0.0
C1175 C 0.21025 0.10437 0.49399 0.0
C1176 C 0.22208 0.12884 0.50095 0.0
N1177 N 0.24649 0.18169 0.51615 0.0
C1178 C 0.26053 0.16491 0.49842 0.0
C1179 C 0.28663 0.17595 0.48909 0.0
C1180 C 0.28914 0.20039 0.50102 0.0
C1181 C 0.26459 0.20302 0.51704 0.0
N1182 N 0.2134 0.21251 0.55705 0.0
C1183 C 0.2367 0.22853 0.55485 0.0
C1184 C 0.23419 0.25144 0.56979 0.0
C1185 C 0.20769 0.25009 0.58228 0.0
C1186 C 0.19536 0.2263 0.57433 0.0
N1187 N 0.22413 0.15639 0.56824 0.0
C1188 C 0.24852 0.12273 0.60774 0.0
C1189 C 0.26319 0.14516 0.59373 0.0
C1190 C 0.25053 0.16187 0.57453 0.0
C1191 C 0.22113 0.11793 0.60268 0.0
C1192 C 0.20944 0.13483 0.5828 0.0
N1193 N 0.19306 0.19884 0.50658 0.0
C1194 C 0.18794 0.24232 0.48098 0.0
C1195 C 0.16555 0.23156 0.46893 0.0
C1196 C 0.15834 0.20374 0.4743 0.0
C1197 C 0.17214 0.18787 0.49331 0.0
C1198 C 0.20168 0.22553 0.49923 0.0
H1199 H 0.16496 0.16707 0.49747 0.0
H1200 H 0.2187 0.23487 0.50768 0.0
H1201 H 0.26273 0.17885 0.56483 0.0
H1202 H 0.18867 0.12977 0.57937 0.0
C1203 C 0.15811 0.13178 0.53943 0.0
C1204 C 0.16619 0.21828 0.58314 0.0
C1205 C 0.25042 0.13818 0.49011 0.0
C1206 C 0.25916 0.22347 0.53566 0.0
H1207 H 0.11341 0.19071 0.59623 0.0
H1208 H 0.10823 0.1439 0.57207 0.0
H1209 H 0.16935 0.08536 0.50756 0.0
H1210 H 0.21931 0.08979 0.48009 0.0
H1211 H 0.30246 0.16703 0.47544 0.0
H1212 H 0.30712 0.21416 0.49901 0.0
H1213 H 0.24946 0.26783 0.57056 0.0
H1214 H 0.1983 0.26528 0.59525 0.0
H1215 H 0.28438 0.14973 0.59758 0.0
H1216 H 0.20905 0.10089 0.6136 0.0
H1217 H 0.19439 0.26376 0.47678 0.0
H1218 H 0.14127 0.1947 0.46486 0.0
C1219 C 0.80149 0.17458 0.48853 0.0
C1220 C 0.77702 0.1869 0.48256 0.0
C1221 C 0.77532 0.21037 0.49644 0.0
C1222 C 0.79871 0.21113 0.51015 0.0
N1223 N 0.81536 0.1896 0.50583 0.0
Co1224 Co 0.8511 0.18283 0.52282 0.0
N1225 N 0.84663 0.21555 0.54599 0.0
C1226 C 0.82461 0.23211 0.54768 0.0
C1227 C 0.82705 0.25293 0.56505 0.0
C1228 C 0.85223 0.2496 0.57501 0.0
C1229 C 0.86383 0.22691 0.563 0.0
N1230 N 0.88751 0.17693 0.53872 0.0
C1231 C 0.90149 0.19244 0.55553 0.0
C1232 C 0.92711 0.18167 0.5597 0.0
C1233 C 0.9296 0.15879 0.54488 0.0
C1234 C 0.90548 0.1569 0.53244 0.0
N1235 N 0.85477 0.14929 0.50074 0.0
C1236 C 0.87569 0.13136 0.50086 0.0
C1237 C 0.87237 0.1096 0.48483 0.0
C1238 C 0.8476 0.11356 0.47416 0.0
C1239 C 0.83712 0.13761 0.4843 0.0
N1240 N 0.87149 0.20637 0.49189 0.0
C1241 C 0.90676 0.24148 0.4548 0.0
C1242 C 0.91068 0.21315 0.45695 0.0
C1243 C 0.89298 0.19611 0.47547 0.0
C1244 C 0.88383 0.25177 0.47005 0.0
C1245 C 0.86632 0.23391 0.48803 0.0
N1246 N 0.83109 0.15921 0.55391 0.0
C1247 C 0.82942 0.11909 0.58652 0.0
C1248 C 0.80214 0.12419 0.59626 0.0
C1249 C 0.78967 0.14731 0.58482 0.0
C1250 C 0.80448 0.16456 0.56401 0.0
C1251 C 0.84333 0.13659 0.56541 0.0
H1252 H 0.7939 0.18203 0.55634 0.0
H1253 H 0.86393 0.13125 0.55865 0.0
H1254 H 0.89766 0.17483 0.47665 0.0
H1255 H 0.84917 0.24299 0.49914 0.0
C1256 C 0.80367 0.22955 0.53011 0.0
C1257 C 0.81004 0.14813 0.47801 0.0
C1258 C 0.89169 0.21774 0.56765 0.0
C1259 C 0.89869 0.13626 0.51534 0.0
H1260 H 0.7616 0.17937 0.47003 0.0
H1261 H 0.75842 0.22457 0.4974 0.0
H1262 H 0.81269 0.26924 0.56916 0.0
H1263 H 0.86136 0.26277 0.58899 0.0
H1264 H 0.94249 0.18967 0.57203 0.0
H1265 H 0.94698 0.14521 0.54327 0.0
H1266 H 0.88632 0.09284 0.48131 0.0
H1267 H 0.83821 0.10017 0.46055 0.0
H1268 H 0.92798 0.20433 0.44509 0.0
H1269 H 0.8798 0.2736 0.46854 0.0
H1270 H 0.83986 0.10145 0.59501 0.0
H1271 H 0.76858 0.15208 0.59199 0.0
C1272 C 0.2785 0.09478 0.48038 0.0
C1273 C 0.26868 0.12074 0.47067 0.0
C1274 C 0.2962 0.11559 0.42556 0.0
C1275 C 0.30315 0.0882 0.43405 0.0
N1276 N 0.29703 0.0504 0.4689 0.0
N1277 N 0.26421 0.15297 0.43154 0.0
C1278 C 0.29313 0.07746 0.46132 0.0
C1279 C 0.27638 0.13024 0.4425 0.0
N1280 N 0.27466 0.08697 0.50809 0.0
N1281 N 0.30936 0.12821 0.40177 0.0
H1282 H 0.24948 0.16401 0.44303 0.0
H1283 H 0.26679 0.15927 0.41048 0.0
H1284 H 0.32444 0.11862 0.38926 0.0
H1285 H 0.3073 0.149 0.39596 0.0
H1286 H 0.28371 0.06975 0.51698 0.0
H1287 H 0.26446 0.09909 0.52261 0.0
H1288 H 0.28782 0.04048 0.48728 0.0
H1289 H 0.30756 0.03723 0.45567 0.0
C1290 C 0.93866 0.29505 0.39877 0.0
C1291 C 0.9664 0.29656 0.40567 0.0
C1292 C 0.95452 0.26361 0.44578 0.0
C1293 C 0.92734 0.26034 0.43761 0.0
N1294 N 0.89506 0.26908 0.40344 0.0
N1295 N 1.00219 0.27853 0.43232 0.0
C1296 C 0.91982 0.27499 0.41326 0.0
C1297 C 0.97477 0.27962 0.42813 0.0
N1298 N 0.93014 0.31329 0.37888 0.0
N1299 N 0.96069 0.25244 0.471 0.0
H1300 H 0.01757 0.29007 0.41984 0.0
H1301 H 0.00996 0.26442 0.44651 0.0
H1302 H 0.9464 0.24092 0.48479 0.0
H1303 H 0.97915 0.2567 0.47939 0.0
H1304 H 0.90951 0.31529 0.37505 0.0
H1305 H 0.94347 0.32794 0.36755 0.0
H1306 H 0.88962 0.27696 0.38429 0.0
H1307 H 0.88088 0.25434 0.41333 0.0
C1308 C 0.80601 0.90573 0.44853 0.0
C1309 C 0.79875 0.89932 0.47745 0.0
C1310 C 0.75713 0.92763 0.47447 0.0
C1311 C 0.76622 0.93637 0.44641 0.0
N1312 N 0.80101 0.93605 0.40754 0.0
N1313 N 0.7676 0.90466 0.5183 0.0
C1314 C 0.79108 0.92594 0.43367 0.0
C1315 C 0.77423 0.91033 0.49045 0.0
N1316 N 0.8267 0.89179 0.43492 0.0
N1317 N 0.7318 0.93551 0.48564 0.0
H1318 H 0.77884 0.89119 0.53025 0.0
H1319 H 0.75194 0.91424 0.52997 0.0
H1320 H 0.71907 0.94833 0.47467 0.0
H1321 H 0.72242 0.92792 0.5049 0.0
H1322 H 0.83102 0.89308 0.41342 0.0
H1323 H 0.83798 0.8769 0.44491 0.0
H1324 H 0.82068 0.93205 0.39837 0.0
H1325 H 0.79037 0.95014 0.39566 0.0
C1326 C 0.14361 0.76301 0.43259 0.0
C1327 C 0.13104 0.78413 0.44784 0.0
C1328 C 0.08689 0.77478 0.42937 0.0
C1329 C 0.09993 0.75518 0.41248 0.0
N1330 N 0.14145 0.73352 0.3944 0.0
N1331 N 0.09263 0.81407 0.45655 0.0
C1332 C 0.12857 0.75015 0.41298 0.0
C1333 C 0.10323 0.79123 0.44492 0.0
N1334 N 0.16943 0.75448 0.43765 0.0
N1335 N 0.05872 0.77689 0.43143 0.0
H1336 H 0.10414 0.8268 0.4679 0.0
H1337 H 0.07342 0.82187 0.45278 0.0
H1338 H 0.04596 0.76481 0.4207 0.0
H1339 H 0.04777 0.78868 0.44569 0.0
H1340 H 0.1784 0.73715 0.42951 0.0
H1341 H 0.18117 0.76353 0.45171 0.0
H1342 H 0.16283 0.73137 0.39173 0.0
H1343 H 0.13093 0.72346 0.38004 0.0
C1344 C 0.27263 0.92009 0.61073 0.0
C1345 C 0.25579 0.89778 0.62331 0.0
C1346 C 0.27367 0.90519 0.6678 0.0
C1347 C 0.28673 0.93029 0.65604 0.0
N1348 N 0.29335 0.96429 0.61698 0.0
N1349 N 0.23773 0.87049 0.66464 0.0
C1350 C 0.28477 0.93851 0.62766 0.0
C1351 C 0.25556 0.89066 0.65213 0.0
N1352 N 0.27799 0.92306 0.58255 0.0
N1353 N 0.27944 0.89465 0.69336 0.0
H1354 H 0.22441 0.85925 0.65371 0.0
H1355 H 0.23465 0.86644 0.68609 0.0
H1356 H 0.29352 0.90408 0.70493 0.0
H1357 H 0.27248 0.87521 0.70178 0.0
H1358 H 0.29226 0.93757 0.57246 0.0
H1359 H 0.27083 0.90874 0.56968 0.0
H1360 H 0.28968 0.97194 0.59711 0.0
H1361 H 0.30147 0.97905 0.62875 0.0
C1362 C 0.10379 0.26417 0.60338 0.0
C1363 C 0.10845 0.27163 0.63064 0.0
C1364 C 0.14999 0.24233 0.62772 0.0
C1365 C 0.14674 0.23733 0.59958 0.0
N1366 N 0.12362 0.24946 0.559 0.0
N1367 N 0.14018 0.27178 0.66591 0.0
C1368 C 0.12454 0.25006 0.587 0.0
C1369 C 0.13284 0.26185 0.64191 0.0
N1370 N 0.07908 0.26954 0.59318 0.0
N1371 N 0.16897 0.22782 0.64133 0.0
H1372 H 0.12855 0.28621 0.6766 0.0
H1373 H 0.15903 0.2677 0.67375 0.0
H1374 H 0.18167 0.21345 0.63179 0.0
H1375 H 0.1704 0.22829 0.66258 0.0
H1376 H 0.07329 0.26169 0.57506 0.0
H1377 H 0.06337 0.27984 0.6039 0.0
H1378 H 0.10979 0.26089 0.54807 0.0
H1379 H 0.13852 0.2398 0.54633 0.0
C1380 C 0.77898 0.11537 0.645 0.0
C1381 C 0.78678 0.10551 0.61855 0.0
C1382 C 0.76719 0.05979 0.63535 0.0
C1383 C 0.75644 0.07058 0.66048 0.0
N1384 N 0.74836 0.11 0.68756 0.0
N1385 N 0.78422 0.06946 0.58696 0.0
C1386 C 0.7613 0.09878 0.66486 0.0
C1387 C 0.77987 0.07795 0.6133 0.0
N1388 N 0.78924 0.14022 0.65155 0.0
N1389 N 0.76568 0.03205 0.63274 0.0
H1390 H 0.79285 0.08228 0.57011 0.0
H1391 H 0.77695 0.05056 0.58132 0.0
H1392 H 0.75654 0.01824 0.64854 0.0
H1393 H 0.77575 0.02261 0.6161 0.0
H1394 H 0.78663 0.14715 0.67146 0.0
H1395 H 0.80265 0.15277 0.63778 0.0
H1396 H 0.74851 0.13107 0.69013 0.0
H1397 H 0.73561 0.09854 0.70282 0.0
C1398 C 0.93669 0.73842 0.61431 0.0
C1399 C 0.94908 0.75061 0.63619 0.0
C1400 C 0.92304 0.79264 0.62544 0.0
C1401 C 0.91469 0.78196 0.60082 0.0
N1402 N 0.92176 0.74646 0.56844 0.0
N1403 N 0.95915 0.79335 0.65651 0.0
C1404 C 0.92399 0.7554 0.59421 0.0
C1405 C 0.94359 0.77887 0.64019 0.0
N1406 N 0.93569 0.71048 0.61322 0.0
N1407 N 0.91144 0.81596 0.63489 0.0
H1408 H 0.97609 0.78511 0.66551 0.0
H1409 H 0.95741 0.81451 0.65815 0.0
H1410 H 0.89616 0.82635 0.62496 0.0
H1411 H 0.91511 0.82327 0.65396 0.0
H1412 H 0.92498 0.70074 0.59882 0.0
H1413 H 0.94241 0.69709 0.62872 0.0
H1414 H 0.93041 0.7282 0.56209 0.0
H1415 H 0.91396 0.75856 0.55263 0.0
C1416 C 0.43343 0.28593 0.06795 0.0
C1417 C 0.41594 0.30698 0.0778 0.0
C1418 C 0.43392 0.30036 0.12372 0.0
C1419 C 0.44997 0.27798 0.11444 0.0
N1420 N 0.46164 0.24669 0.07894 0.0
N1421 N 0.39656 0.33178 0.11604 0.0
C1422 C 0.44879 0.27005 0.08684 0.0
C1423 C 0.41535 0.31345 0.106 0.0
N1424 N 0.43584 0.28151 0.04029 0.0
N1425 N 0.43722 0.30983 0.14913 0.0
H1426 H 0.38317 0.34216 0.1036 0.0
H1427 H 0.39276 0.33523 0.13699 0.0
H1428 H 0.4504 0.30077 0.16267 0.0
H1429 H 0.42863 0.32788 0.15598 0.0
H1430 H 0.45051 0.26883 0.03103 0.0
H1431 H 0.42445 0.29218 0.02607 0.0
H1432 H 0.45923 0.23801 0.06025 0.0
H1433 H 0.47295 0.23456 0.0921 0.0
C1434 C 0.77477 0.47172 0.14292 0.0
C1435 C 0.79776 0.46395 0.15737 0.0
C1436 C 0.79427 0.41681 0.14298 0.0
C1437 C 0.77299 0.42524 0.12644 0.0
N1438 N 0.74209 0.45972 0.11048 0.0
N1439 N 0.83 0.43017 0.17171 0.0
C1440 C 0.76278 0.45238 0.1266 0.0
C1441 C 0.80748 0.43666 0.15783 0.0
N1442 N 0.76451 0.49758 0.14496 0.0
N1443 N 0.80174 0.38984 0.14435 0.0
H1444 H 0.83942 0.44396 0.1837 0.0
H1445 H 0.84023 0.41167 0.1706 0.0
H1446 H 0.79315 0.37502 0.13292 0.0
H1447 H 0.81524 0.38155 0.15788 0.0
H1448 H 0.74628 0.504 0.13721 0.0
H1449 H 0.77349 0.51262 0.15584 0.0
H1450 H 0.73573 0.47979 0.10685 0.0
H1451 H 0.73155 0.44563 0.09972 0.0
C1452 C 0.63508 0.79163 0.14398 0.0
C1453 C 0.62227 0.78254 0.12079 0.0
C1454 C 0.57884 0.80361 0.13941 0.0
C1455 C 0.59257 0.81546 0.16052 0.0
N1456 N 0.63539 0.824 0.1801 0.0
N1457 N 0.5829 0.78522 0.09396 0.0
C1458 C 0.6212 0.81041 0.16194 0.0
C1459 C 0.59435 0.78993 0.11792 0.0
N1460 N 0.66004 0.78136 0.14974 0.0
N1461 N 0.5507 0.80473 0.14022 0.0
H1462 H 0.59371 0.77638 0.0773 0.0
H1463 H 0.56372 0.79267 0.08949 0.0
H1464 H 0.53869 0.81474 0.1553 0.0
H1465 H 0.53924 0.79336 0.12765 0.0
H1466 H 0.66911 0.78494 0.16782 0.0
H1467 H 0.67039 0.76695 0.13787 0.0
H1468 H 0.65685 0.82362 0.18008 0.0
H1469 H 0.62594 0.83749 0.1937 0.0
C1470 C 0.29643 0.60969 0.1576 0.0
C1471 C 0.2671 0.6072 0.15825 0.0
C1472 C 0.26989 0.63912 0.1167 0.0
C1473 C 0.29847 0.64459 0.11893 0.0
N1474 N 0.3354 0.64171 0.14897 0.0
N1475 N 0.22558 0.62682 0.14237 0.0
C1476 C 0.31044 0.63236 0.14212 0.0
C1477 C 0.25367 0.62457 0.13928 0.0
N1478 N 0.31137 0.58965 0.16977 0.0
N1479 N 0.25844 0.6462 0.0927 0.0
H1480 H 0.2132 0.61686 0.159 0.0
H1481 H 0.21523 0.64066 0.12993 0.0
H1482 H 0.26999 0.65505 0.07496 0.0
H1483 H 0.23816 0.64053 0.08966 0.0
H1484 H 0.33298 0.59021 0.16783 0.0
H1485 H 0.3024 0.57122 0.17888 0.0
H1486 H 0.34398 0.63397 0.16673 0.0
H1487 H 0.34587 0.65883 0.13845 0.0
C1488 C 0.44079 0.76531 0.97348 0.0
C1489 C 0.41637 0.75283 0.96541 0.0
C1490 C 0.42746 0.7734 0.91808 0.0
C1491 C 0.45363 0.78278 0.92519 0.0
N1492 N 0.48689 0.78444 0.95893 0.0
N1493 N 0.38935 0.74039 0.9287 0.0
C1494 C 0.46079 0.77778 0.95274 0.0
C1495 C 0.41056 0.7555 0.93729 0.0
N1496 N 0.44455 0.76573 1.00102 0.0
N1497 N 0.41822 0.78232 0.8934 0.0
H1498 H 0.37654 0.7269 0.94211 0.0
H1499 H 0.38607 0.7394 0.90787 0.0
H1500 H 0.42967 0.79585 0.87891 0.0
H1501 H 0.39814 0.77837 0.88851 0.0
H1502 H 0.46057 0.77684 0.00835 0.0
H1503 H 0.43023 0.75695 0.01674 0.0
H1504 H 0.49424 0.77879 0.97792 0.0
H1505 H 0.50204 0.79361 0.94426 0.0
C1506 C 0.28575 0.40391 0.92755 0.0
C1507 C 0.2911 0.4127 0.95395 0.0
C1508 C 0.26369 0.45407 0.94498 0.0
C1509 C 0.25685 0.44432 0.91941 0.0
N1510 N 0.25532 0.40592 0.89063 0.0
N1511 N 0.28009 0.4433 0.99021 0.0
C1512 C 0.26608 0.418 0.912 0.0
C1513 C 0.2785 0.43696 0.96338 0.0
N1514 N 0.30007 0.38254 0.91686 0.0
N1515 N 0.25665 0.48004 0.95146 0.0
H1516 H 0.2906 0.43127 1.0042 0.0
H1517 H 0.26899 0.45898 0.99934 0.0
H1518 H 0.2457 0.49303 0.93873 0.0
H1519 H 0.26347 0.48943 0.96832 0.0
H1520 H 0.29921 0.37707 0.89656 0.0
H1521 H 0.31468 0.37182 0.92746 0.0
H1522 H 0.25914 0.38568 0.886 0.0
H1523 H 0.2404 0.41522 0.87929 0.0
C1524 C 0.60291 0.28348 0.95159 0.0
C1525 C 0.61466 0.27093 0.92786 0.0
C1526 C 0.66 0.29137 0.93379 0.0
C1527 C 0.64907 0.30061 0.95967 0.0
N1528 N 0.61071 0.30126 0.99548 0.0
N1529 N 0.6552 0.25903 0.89866 0.0
C1530 C 0.62065 0.29557 0.96921 0.0
C1531 C 0.64346 0.27378 0.91954 0.0
N1532 N 0.57476 0.2846 0.95689 0.0
N1533 N 0.68574 0.30024 0.92228 0.0
H1534 H 0.64381 0.24567 0.88788 0.0
H1535 H 0.67653 0.25814 0.89376 0.0
H1536 H 0.69811 0.31397 0.93161 0.0
H1537 H 0.69358 0.29627 0.90223 0.0
H1538 H 0.56513 0.29607 0.97226 0.0
H1539 H 0.56099 0.27633 0.94419 0.0
H1540 H 0.59102 0.295 1.00446 0.0
H1541 H 0.62284 0.31001 0.00932 0.0
C1542 C 0.76445 0.60203 0.96439 0.0
C1543 C 0.75897 0.62911 0.95353 0.0
C1544 C 0.78771 0.61968 0.91007 0.0
C1545 C 0.79103 0.59183 0.91999 0.0
N1546 N 0.77787 0.5554 0.95513 0.0
N1547 N 0.76158 0.66166 0.91365 0.0
C1548 C 0.77809 0.58277 0.94679 0.0
C1549 C 0.76962 0.63734 0.9257 0.0
N1550 N 0.75752 0.59488 0.99194 0.0
N1551 N 0.80266 0.62971 0.88607 0.0
H1552 H 0.74822 0.67489 0.92408 0.0
H1553 H 0.76603 0.66753 0.89262 0.0
H1554 H 0.81612 0.61769 0.87422 0.0
H1555 H 0.80366 0.65048 0.87924 0.0
H1556 H 0.76371 0.57675 1.00192 0.0
H1557 H 0.7477 0.60819 1.00546 0.0
H1558 H 0.76631 0.54687 0.97297 0.0
H1559 H 0.78717 0.54075 0.94283 0.0
C1560 C 0.1025 0.45493 0.29782 0.0
C1561 C 0.11141 0.42966 0.30989 0.0
C1562 C 0.15935 0.44168 0.29167 0.0
C1563 C 0.15079 0.46784 0.2813 0.0
N1564 N 0.11516 0.50135 0.2786 0.0
N1565 N 0.14873 0.40144 0.32341 0.0
C1566 C 0.1226 0.47508 0.28571 0.0
C1567 C 0.13999 0.42383 0.3084 0.0
N1568 N 0.07481 0.45928 0.29718 0.0
N1569 N 0.18562 0.4333 0.28454 0.0
H1570 H 0.13514 0.38776 0.33574 0.0
H1571 H 0.16951 0.39778 0.32555 0.0
H1572 H 0.20058 0.44572 0.27259 0.0
H1573 H 0.19197 0.41326 0.28866 0.0
H1574 H 0.06697 0.47595 0.28614 0.0
H1575 H 0.05955 0.44504 0.30594 0.0
H1576 H 0.09548 0.50876 0.28368 0.0
H1577 H 0.12941 0.51652 0.26969 0.0
C1578 C 0.14381 0.60803 0.81764 0.0
C1579 C 0.15081 0.58177 0.80811 0.0
C1580 C 0.12583 0.59281 0.76668 0.0
C1581 C 0.11621 0.61743 0.77791 0.0
N1582 N 0.1139 0.64753 0.81538 0.0
N1583 N 0.14608 0.5483 0.774 0.0
C1584 C 0.12473 0.62483 0.80372 0.0
C1585 C 0.14124 0.57401 0.78268 0.0
N1586 N 0.15598 0.61722 0.83969 0.0
N1587 N 0.12088 0.58769 0.74018 0.0
H1588 H 0.15915 0.53466 0.78317 0.0
H1589 H 0.13604 0.5399 0.75837 0.0
H1590 H 0.10942 0.60067 0.72794 0.0
H1591 H 0.13011 0.57196 0.72937 0.0
H1592 H 0.15411 0.63715 0.84604 0.0
H1593 H 0.16997 0.60557 0.85026 0.0
H1594 H 0.11659 0.65242 0.83553 0.0
H1595 H 0.10054 0.66058 0.80551 0.0
C1596 C 0.40704 0.11852 0.79553 0.0
C1597 C 0.41678 0.10213 0.77375 0.0
C1598 C 0.46425 0.11912 0.77597 0.0
C1599 C 0.45437 0.13633 0.79703 0.0
N1600 N 0.41614 0.15722 0.8226 0.0
N1601 N 0.45297 0.09141 0.73874 0.0
C1602 C 0.42563 0.13756 0.80546 0.0
C1603 C 0.4449 0.10392 0.76251 0.0
N1604 N 0.3804 0.11506 0.8075 0.0
N1605 N 0.49209 0.11628 0.76976 0.0
H1606 H 0.43925 0.08017 0.72824 0.0
H1607 H 0.47257 0.09427 0.72802 0.0
H1608 H 0.50699 0.12712 0.77913 0.0
H1609 H 0.50048 0.10161 0.75695 0.0
H1610 H 0.37304 0.12411 0.82553 0.0
H1611 H 0.36607 0.10149 0.80059 0.0
H1612 H 0.39521 0.16092 0.8273 0.0
H1613 H 0.42925 0.17159 0.83016 0.0
C1614 C 0.92427 0.39894 0.76601 0.0
C1615 C 0.93557 0.42428 0.77376 0.0
C1616 C 0.98111 0.41149 0.75057 0.0
C1617 C 0.96907 0.38758 0.7406 0.0
N1618 N 0.92707 0.36286 0.73363 0.0
N1619 N 0.97406 0.457 0.76744 0.0
C1620 C 0.94001 0.38263 0.7468 0.0
C1621 C 0.96387 0.43113 0.76443 0.0
N1622 N 0.89887 0.38961 0.77793 0.0
N1623 N 0.00923 0.41531 0.74722 0.0
H1624 H 0.96204 0.47228 0.77624 0.0
H1625 H 0.99351 0.46422 0.75863 0.0
H1626 H 0.02239 0.40176 0.737 0.0
H1627 H 0.0196 0.43055 0.75661 0.0
H1628 H 0.89079 0.37007 0.77528 0.0
H1629 H 0.88715 0.40012 0.7928 0.0
H1630 H 0.90561 0.36019 0.73504 0.0
H1631 H 0.9376 0.35094 0.71916 0.0
C1632 C 0.62871 0.91021 0.76385 0.0
C1633 C 0.64156 0.92936 0.77972 0.0
C1634 C 0.61858 0.90471 0.82173 0.0
C1635 C 0.60101 0.89022 0.8056 0.0
N1636 N 0.58517 0.88681 0.76001 0.0
N1637 N 0.64099 0.94892 0.82446 0.0
C1638 C 0.60502 0.89473 0.77619 0.0
C1639 C 0.63469 0.92766 0.809 0.0
N1640 N 0.6381 0.90787 0.73671 0.0
N1641 N 0.6188 0.8976 0.84939 0.0
H1642 H 0.65005 0.96747 0.81573 0.0
H1643 H 0.63419 0.94921 0.84551 0.0
H1644 H 0.60722 0.88081 0.85927 0.0
H1645 H 0.63252 0.90676 0.86154 0.0
H1646 H 0.63016 0.89301 0.72488 0.0
H1647 H 0.65548 0.91895 0.72712 0.0
H1648 H 0.58652 0.89189 0.73869 0.0
H1649 H 0.56608 0.87816 0.76823 0.0
C1650 C 0.90947 0.653 0.26365 0.0
C1651 C 0.93187 0.63972 0.27524 0.0
C1652 C 0.91636 0.59554 0.2602 0.0
C1653 C 0.89574 0.60928 0.24624 0.0
N1654 N 0.87457 0.65131 0.23119 0.0
N1655 N 0.95991 0.59957 0.28017 0.0
C1656 C 0.89283 0.63813 0.24693 0.0
C1657 C 0.93623 0.61128 0.27236 0.0
N1658 N 0.90354 0.67946 0.26945 0.0
N1659 N 0.91662 0.56741 0.26235 0.0
H1660 H 0.97531 0.61054 0.28873 0.0
H1661 H 0.96552 0.57966 0.27581 0.0
H1662 H 0.90274 0.5551 0.25317 0.0
H1663 H 0.92895 0.55632 0.2753 0.0
H1664 H 0.88577 0.68925 0.26402 0.0
H1665 H 0.91522 0.69096 0.28177 0.0
H1666 H 0.87367 0.67265 0.22843 0.0
H1667 H 0.86158 0.6409 0.2192 0.0
C1668 C 0.43804 0.93848 0.32776 0.0
C1669 C 0.42222 0.95991 0.31606 0.0
C1670 C 0.43825 0.94347 0.27017 0.0
C1671 C 0.45862 0.9266 0.28145 0.0
N1672 N 0.48193 0.91566 0.32258 0.0
N1673 N 0.41664 0.98745 0.27349 0.0
C1674 C 0.45972 0.92629 0.31078 0.0
C1675 C 0.425 0.9638 0.28645 0.0
N1676 N 0.43241 0.92939 0.35496 0.0
N1677 N 0.43103 0.94009 0.24412 0.0
H1678 H 0.40934 1.00401 0.28434 0.0
H1679 H 0.42007 0.99156 0.25203 0.0
H1680 H 0.439 0.92447 0.23221 0.0
H1681 H 0.41508 0.95101 0.2359 0.0
H1682 H 0.44232 0.91263 0.36377 0.0
H1683 H 0.41603 0.93685 0.36765 0.0
H1684 H 0.4843 0.91681 0.34362 0.0
H1685 H 0.49918 0.90863 0.31084 0.0
C1686 C 0.62036 0.13286 0.31581 0.0
C1687 C 0.63832 0.1124 0.30516 0.0
C1688 C 0.62794 0.12888 0.25801 0.0
C1689 C 0.6067 0.14608 0.26896 0.0
N1690 N 0.57841 0.15784 0.31012 0.0
N1691 N 0.65229 0.08655 0.26548 0.0
C1692 C 0.60169 0.14622 0.29842 0.0
C1693 C 0.64015 0.10916 0.27605 0.0
N1694 N 0.62173 0.14055 0.34221 0.0
N1695 N 0.63744 0.13194 0.23053 0.0
H1696 H 0.65958 0.07055 0.27794 0.0
H1697 H 0.65197 0.0822 0.24476 0.0
H1698 H 0.63059 0.14727 0.21697 0.0
H1699 H 0.65443 0.12143 0.22214 0.0
H1700 H 0.61073 0.15697 0.35003 0.0
H1701 H 0.63622 0.13277 0.35501 0.0
H1702 H 0.5727 0.15627 0.33146 0.0
H1703 H 0.5632 0.16609 0.29848 0.0
C1704 C 0.75439 0.9 0.66036 0.0
C1705 C 0.74823 0.92694 0.65028 0.0
C1706 C 0.77655 0.92086 0.60672 0.0
C1707 C 0.78597 0.89572 0.61857 0.0
N1708 N 0.78677 0.86288 0.65801 0.0
N1709 N 0.75549 0.96449 0.61493 0.0
C1710 C 0.77556 0.88556 0.64572 0.0
C1711 C 0.75963 0.93773 0.62363 0.0
N1712 N 0.73975 0.8882 0.68381 0.0
N1713 N 0.78322 0.92835 0.57917 0.0
H1714 H 0.74269 0.97748 0.62625 0.0
H1715 H 0.76623 0.97443 0.59731 0.0
H1716 H 0.79587 0.91678 0.56604 0.0
H1717 H 0.77431 0.94477 0.56873 0.0
H1718 H 0.74153 0.86768 0.69079 0.0
H1719 H 0.72377 0.89823 0.69473 0.0
H1720 H 0.78197 0.85626 0.67881 0.0
H1721 H 0.80278 0.85206 0.64813 0.0
C1722 C 0.1372 0.78191 0.6432 0.0
C1723 C 0.12849 0.78909 0.61659 0.0
C1724 C 0.08376 0.76515 0.63116 0.0
C1725 C 0.09414 0.75459 0.65587 0.0
N1726 N 0.13257 0.74952 0.68369 0.0
N1727 N 0.09465 0.78292 0.58371 0.0
C1728 C 0.12134 0.76215 0.66155 0.0
C1729 C 0.10202 0.77954 0.61015 0.0
N1730 N 0.16056 0.79411 0.65101 0.0
N1731 N 0.05631 0.76153 0.62781 0.0
H1732 H 0.10705 0.79331 0.56754 0.0
H1733 H 0.07715 0.77344 0.5773 0.0
H1734 H 0.04235 0.75128 0.64296 0.0
H1735 H 0.04692 0.77108 0.61141 0.0
H1736 H 0.16651 0.79167 0.67108 0.0
H1737 H 0.17264 0.80865 0.63811 0.0
H1738 H 0.15332 0.75196 0.68707 0.0
H1739 H 0.12169 0.73488 0.69749 0.0
C1740 C 0.26751 0.07685 0.6222 0.0
C1741 C 0.26203 0.10458 0.62784 0.0
C1742 C 0.28861 0.10021 0.6681 0.0
C1743 C 0.29182 0.07182 0.66402 0.0
N1744 N 0.27993 0.03178 0.64061 0.0
N1745 N 0.26168 0.14062 0.6597 0.0
C1746 C 0.27983 0.0597 0.64213 0.0
C1747 C 0.27086 0.11566 0.6519 0.0
N1748 N 0.26229 0.0673 0.59729 0.0
N1749 N 0.30316 0.11265 0.68679 0.0
H1750 H 0.24805 0.15229 0.64868 0.0
H1751 H 0.26532 0.14841 0.67855 0.0
H1752 H 0.31644 0.10207 0.69911 0.0
H1753 H 0.30387 0.13388 0.68835 0.0
H1754 H 0.26862 0.04818 0.591 0.0
H1755 H 0.25391 0.0794 0.58178 0.0
H1756 H 0.269 0.02154 0.62673 0.0
H1757 H 0.28887 0.01866 0.65494 0.0
C1758 C 0.91 0.22832 0.61353 0.0
C1759 C 0.9101 0.23439 0.58443 0.0
C1760 C 0.94317 0.27322 0.58729 0.0
C1761 C 0.94483 0.26574 0.61596 0.0
N1762 N 0.9323 0.23408 0.6557 0.0
N1763 N 0.92872 0.26085 0.5429 0.0
C1764 C 0.92879 0.24277 0.62891 0.0
C1765 C 0.92723 0.2564 0.57115 0.0
N1766 N 0.8915 0.209 0.6266 0.0
N1767 N 0.95629 0.29692 0.57566 0.0
H1768 H 0.9168 0.24958 0.53061 0.0
H1769 H 0.94302 0.27434 0.53137 0.0
H1770 H 0.9681 0.30959 0.58677 0.0
H1771 H 0.95378 0.30527 0.55578 0.0
H1772 H 0.88797 0.20566 0.64808 0.0
H1773 H 0.8781 0.19753 0.61597 0.0
H1774 H 0.92385 0.21572 0.66546 0.0
H1775 H 0.94536 0.24433 0.66773 0.0
C1776 C 0.76506 0.12545 0.42112 0.0
C1777 C 0.75532 0.09868 0.43192 0.0
C1778 C 0.77798 0.10648 0.47464 0.0
C1779 C 0.79076 0.13132 0.46211 0.0
N1780 N 0.79972 0.1622 0.42119 0.0
N1781 N 0.75665 0.06233 0.46843 0.0
C1782 C 0.78518 0.14015 0.43469 0.0
C1783 C 0.7629 0.08885 0.45856 0.0
N1784 N 0.75458 0.13719 0.39812 0.0
N1785 N 0.77952 0.09997 0.50229 0.0
H1786 H 0.74475 0.04889 0.4585 0.0
H1787 H 0.7649 0.05305 0.48567 0.0
H1788 H 0.79019 0.11227 0.51477 0.0
H1789 H 0.76809 0.08382 0.51343 0.0
H1790 H 0.75873 0.15761 0.39081 0.0
H1791 H 0.73964 0.12732 0.38791 0.0
H1792 H 0.79878 0.1679 0.40022 0.0
H1793 H 0.81457 0.17334 0.43034 0.0
C1794 C 0.96768 0.78223 0.40298 0.0
C1795 C 0.9543 0.76191 0.38901 0.0
C1796 C 0.9099 0.77034 0.41464 0.0
C1797 C 0.92333 0.79038 0.42897 0.0
N1798 N 0.96255 0.82079 0.43206 0.0
N1799 N 0.91244 0.74172 0.37545 0.0
C1800 C 0.95148 0.79815 0.4215 0.0
C1801 C 0.9252 0.75784 0.39271 0.0
N1802 N 0.99589 0.78536 0.39955 0.0
N1803 N 0.88311 0.76214 0.42303 0.0
H1804 H 0.92338 0.73217 0.3593 0.0
H1805 H 0.89102 0.73986 0.37548 0.0
H1806 H 0.87113 0.77085 0.43903 0.0
H1807 H 0.8733 0.74539 0.41546 0.0
H1808 H 1.00705 0.79774 0.41143 0.0
H1809 H 0.00845 0.77434 0.38577 0.0
H1810 H 0.98221 0.82908 0.42545 0.0
H1811 H 0.95106 0.83287 0.44573 0.0
C1812 C 0.2927 0.91226 0.43952 0.0
C1813 C 0.29901 0.93817 0.44948 0.0
C1814 C 0.26864 0.92565 0.49231 0.0
C1815 C 0.26046 0.90081 0.4811 0.0
N1816 N 0.25888 0.87497 0.44046 0.0
N1817 N 0.28922 0.97166 0.48336 0.0
C1818 C 0.27088 0.89533 0.45369 0.0
C1819 C 0.28608 0.94542 0.47546 0.0
N1820 N 0.30783 0.9036 0.41663 0.0
N1821 N 0.25951 0.93046 0.51902 0.0
H1822 H 0.30171 0.98671 0.47166 0.0
H1823 H 0.27778 0.97928 0.50031 0.0
H1824 H 0.24599 0.91698 0.53164 0.0
H1825 H 0.26665 0.94687 0.52931 0.0
H1826 H 0.30586 0.88379 0.41001 0.0
H1827 H 0.32427 0.91527 0.40596 0.0
H1828 H 0.26384 0.87195 0.41951 0.0
H1829 H 0.24198 0.86293 0.44956 0.0
C1830 C 0.16107 0.2629 0.42659 0.0
C1831 C 0.14886 0.24986 0.45198 0.0
C1832 C 0.10489 0.27162 0.44495 0.0
C1833 C 0.1181 0.28725 0.42148 0.0
N1834 N 0.15981 0.30123 0.39231 0.0
N1835 N 0.11062 0.24564 0.48806 0.0
C1836 C 0.14652 0.28387 0.4129 0.0
C1837 C 0.12114 0.25522 0.46195 0.0
N1838 N 0.18616 0.25467 0.41516 0.0
N1839 N 0.07672 0.27169 0.45051 0.0
H1840 H 0.12181 0.23367 0.50143 0.0
H1841 H 0.09166 0.25163 0.49742 0.0
H1842 H 0.06395 0.28321 0.43835 0.0
H1843 H 0.0658 0.25835 0.46559 0.0
H1844 H 0.19476 0.26155 0.39534 0.0
H1845 H 0.19717 0.23895 0.42439 0.0
H1846 H 0.18116 0.30151 0.38718 0.0
H1847 H 0.14987 0.3171 0.38201 0.0
C1848 C 0.61522 0.77921 0.98089 0.0
C1849 C 0.63895 0.76747 0.96738 0.0
C1850 C 0.62939 0.79108 0.92346 0.0
C1851 C 0.60313 0.79848 0.93582 0.0
N1852 N 0.56932 0.79622 0.97602 0.0
N1853 N 0.66636 0.75865 0.92479 0.0
C1854 C 0.59561 0.79197 0.96459 0.0
C1855 C 0.64554 0.77251 0.93836 0.0
N1856 N 0.6114 0.77806 0.00923 0.0
N1857 N 0.63892 0.80198 0.89753 0.0
H1858 H 0.67843 0.74446 0.93491 0.0
H1859 H 0.67003 0.75949 0.90322 0.0
H1860 H 0.62783 0.81629 0.88635 0.0
H1861 H 0.65893 0.79908 0.88849 0.0
H1862 H 0.59578 0.78845 0.02017 0.0
H1863 H 0.62543 0.76883 0.02177 0.0
H1864 H 0.56198 0.78899 0.99615 0.0
H1865 H 0.55403 0.80486 0.96476 0.0
C1866 C 0.28179 0.59783 0.97453 0.0
C1867 C 0.28955 0.62524 0.96436 0.0
C1868 C 0.26549 0.61817 0.92258 0.0
C1869 C 0.26041 0.58988 0.93138 0.0
N1870 N 0.26833 0.55181 0.96378 0.0
N1871 N 0.29239 0.66016 0.92648 0.0
C1872 C 0.26979 0.57949 0.95688 0.0
C1873 C 0.28232 0.63505 0.93777 0.0
N1874 N 0.28506 0.58947 1.00146 0.0
N1875 N 0.25345 0.62922 0.9002 0.0
H1876 H 0.30478 0.67302 0.93679 0.0
H1877 H 0.29049 0.66721 0.90603 0.0
H1878 H 0.24082 0.6177 0.88881 0.0
H1879 H 0.25385 0.65023 0.89448 0.0
H1880 H 0.2771 0.57081 0.01102 0.0
H1881 H 0.29344 0.60227 0.0151 0.0
H1882 H 0.27756 0.54257 0.98043 0.0
H1883 H 0.26014 0.53778 0.95128 0.0
C1884 C 0.44999 0.29073 0.93696 0.0
C1885 C 0.4238 0.29539 0.92697 0.0
C1886 C 0.43475 0.26457 0.88994 0.0
C1887 C 0.46173 0.26201 0.89851 0.0
N1888 N 0.49721 0.27696 0.9262 0.0
N1889 N 0.39294 0.29102 0.89128 0.0
C1890 C 0.47007 0.27655 0.92074 0.0
C1891 C 0.41663 0.28356 0.90263 0.0
N1892 N 0.45519 0.29854 0.96258 0.0
N1893 N 0.42626 0.24835 0.87025 0.0
H1894 H 0.37932 0.30514 0.89995 0.0
H1895 H 0.38803 0.28513 0.87206 0.0
H1896 H 0.43921 0.23448 0.86021 0.0
H1897 H 0.40587 0.24715 0.86535 0.0
H1898 H 0.47282 0.29292 0.97203 0.0
H1899 H 0.44076 0.30831 0.97566 0.0
H1900 H 0.5049 0.28953 0.94041 0.0
H1901 H 0.51258 0.26668 0.91472 0.0
C1902 C 0.78348 0.43771 0.96174 0.0
C1903 C 0.77116 0.4117 0.95762 0.0
C1904 C 0.79505 0.41424 0.91036 0.0
C1905 C 0.80406 0.44173 0.9134 0.0
N1906 N 0.8011 0.48167 0.9403 0.0
N1907 N 0.76144 0.37752 0.92585 0.0
C1908 C 0.79639 0.45411 0.93855 0.0
C1909 C 0.77573 0.40071 0.93119 0.0
N1910 N 0.78405 0.44637 0.98788 0.0
N1911 N 0.8057 0.40063 0.88819 0.0
H1912 H 0.74708 0.36716 0.94054 0.0
H1913 H 0.76202 0.37007 0.90616 0.0
H1914 H 0.82024 0.40968 0.87284 0.0
H1915 H 0.80196 0.37971 0.88637 0.0
H1916 H 0.79529 0.4638 0.99212 0.0
H1917 H 0.77566 0.43478 1.00559 0.0
H1918 H 0.79367 0.4921 0.95745 0.0
H1919 H 0.80995 0.49455 0.92358 0.0
C1920 C 0.65796 0.28707 0.12984 0.0
C1921 C 0.65527 0.29424 0.10138 0.0
C1922 C 0.61035 0.26959 0.10577 0.0
C1923 C 0.61404 0.26028 0.13367 0.0
N1924 N 0.64485 0.25509 0.16969 0.0
N1925 N 0.6325 0.28617 0.06071 0.0
C1926 C 0.63907 0.26734 0.14482 0.0
C1927 C 0.63259 0.28353 0.08889 0.0
N1928 N 0.67785 0.29984 0.1429 0.0
N1929 N 0.58533 0.26641 0.09555 0.0
H1930 H 0.64855 0.29615 0.04769 0.0
H1931 H 0.61803 0.27593 0.05026 0.0
H1932 H 0.56836 0.2563 0.10672 0.0
H1933 H 0.58081 0.27579 0.07662 0.0
H1934 H 0.67891 0.29753 0.16427 0.0
H1935 H 0.69184 0.31458 0.13272 0.0
H1936 H 0.66387 0.25756 0.17765 0.0
H1937 H 0.63157 0.24043 0.18107 0.0
C1938 C 0.76223 0.61198 0.10759 0.0
C1939 C 0.76705 0.61852 0.13479 0.0
C1940 C 0.7373 0.65825 0.13124 0.0
C1941 C 0.73539 0.65358 0.10298 0.0
N1942 N 0.74958 0.6289 0.06267 0.0
N1943 N 0.76295 0.65009 0.17125 0.0
C1944 C 0.74885 0.63125 0.09066 0.0
C1945 C 0.75552 0.64222 0.1464 0.0
N1946 N 0.76964 0.58702 0.09828 0.0
N1947 N 0.72151 0.67781 0.14358 0.0
H1948 H 0.77659 0.63907 0.18284 0.0
H1949 H 0.75749 0.66877 0.17924 0.0
H1950 H 0.70822 0.69023 0.13286 0.0
H1951 H 0.71989 0.6802 0.16485 0.0
H1952 H 0.76408 0.5801 0.07966 0.0
H1953 H 0.77901 0.57204 0.11036 0.0
H1954 H 0.76188 0.61486 0.05223 0.0
H1955 H 0.73983 0.64254 0.04946 0.0
C1956 C 0.44808 0.78657 0.1046 0.0
C1957 C 0.42395 0.77163 0.11675 0.0
C1958 C 0.42711 0.79524 0.15991 0.0
C1959 C 0.45286 0.80799 0.14886 0.0
N1960 N 0.48933 0.81348 0.11124 0.0
N1961 N 0.39239 0.75906 0.15723 0.0
C1962 C 0.46366 0.80312 0.12127 0.0
C1963 C 0.41402 0.77526 0.14478 0.0
N1964 N 0.45573 0.78554 0.07682 0.0
N1965 N 0.41454 0.80311 0.18447 0.0
H1966 H 0.38214 0.74448 0.1468 0.0
H1967 H 0.38609 0.75839 0.1784 0.0
H1968 H 0.42305 0.81815 0.19572 0.0
H1969 H 0.39451 0.79684 0.19235 0.0
H1970 H 0.47103 0.79835 0.06585 0.0
H1971 H 0.44533 0.77321 0.06416 0.0
H1972 H 0.4999 0.80793 0.09281 0.0
H1973 H 0.5011 0.82618 0.12228 0.0
C1974 C 0.27922 0.42776 0.11754 0.0
C1975 C 0.30358 0.41253 0.11985 0.0
C1976 C 0.30654 0.42637 0.16716 0.0
C1977 C 0.28387 0.44369 0.16374 0.0
N1978 N 0.24786 0.46117 0.13682 0.0
N1979 N 0.34059 0.39627 0.1459 0.0
C1980 C 0.26975 0.44417 0.13937 0.0
C1981 C 0.31718 0.41132 0.14454 0.0
N1982 N 0.26526 0.42652 0.09439 0.0
N1983 N 0.31761 0.42435 0.19208 0.0
H1984 H 0.34805 0.38389 0.13022 0.0
H1985 H 0.35329 0.39657 0.16197 0.0
H1986 H 0.31039 0.43558 0.20877 0.0
H1987 H 0.33275 0.41055 0.19701 0.0
H1988 H 0.24573 0.43444 0.0926 0.0
H1989 H 0.27248 0.4162 0.07708 0.0
H1990 H 0.23888 0.46554 0.11847 0.0
H1991 H 0.23901 0.47203 0.15307 0.0
C1992 C 0.94318 0.57135 0.77453 0.0
C1993 C 0.91735 0.5805 0.7861 0.0
C1994 C 0.92701 0.62542 0.76041 0.0
C1995 C 0.95479 0.61793 0.75303 0.0
N1996 N 0.99034 0.58397 0.75774 0.0
N1997 N 0.88624 0.61793 0.7933 0.0
C1998 C 0.96317 0.5909 0.76127 0.0
C1999 C 0.90962 0.60803 0.77989 0.0
N2000 N 0.94857 0.54386 0.77589 0.0
N2001 N 0.91719 0.6491 0.7487 0.0
H2002 H 0.87316 0.60591 0.80789 0.0
H2003 H 0.88114 0.63862 0.79167 0.0
H2004 H 0.92927 0.66212 0.73414 0.0
H2005 H 0.89644 0.65435 0.75144 0.0
H2006 H 0.966 0.53579 0.76538 0.0
H2007 H 0.93429 0.52888 0.78513 0.0
H2008 H 0.99773 0.56579 0.76653 0.0
H2009 H 1.00593 0.59708 0.74797 0.0
C2010 C 0.94849 0.47626 0.26759 0.0
C2011 C 0.92224 0.46529 0.26263 0.0
C2012 C 0.92976 0.42342 0.29128 0.0
C2013 C 0.95684 0.43344 0.29433 0.0
N2014 N 0.99409 0.46689 0.28168 0.0
N2015 N 0.88989 0.4267 0.26496 0.0
C2016 C 0.96684 0.45918 0.28145 0.0
C2017 C 0.91341 0.43834 0.27312 0.0
N2018 N 0.95552 0.5032 0.25985 0.0
N2019 N 0.91946 0.40005 0.30629 0.0
H2020 H 0.87754 0.43692 0.25132 0.0
H2021 H 0.88398 0.4061 0.26963 0.0
H2022 H 0.93091 0.38854 0.31986 0.0
H2023 H 0.89885 0.39337 0.30716 0.0
H2024 H 0.97292 0.5132 0.26586 0.0
H2025 H 0.94287 0.51631 0.24915 0.0
H2026 H 1.00328 0.48396 0.26999 0.0
H2027 H 0.00821 0.45497 0.29177 0.0
C2028 C 0.65075 0.94155 0.32108 0.0
C2029 C 0.64702 0.97031 0.32298 0.0
C2030 C 0.6071 0.96728 0.29514 0.0
C2031 C 0.61237 0.93904 0.29117 0.0
N2032 N 0.64262 0.90077 0.29642 0.0
N2033 N 0.62414 0.01141 0.30842 0.0
C2034 C 0.63514 0.9266 0.30311 0.0
C2035 C 0.6259 0.98339 0.30897 0.0
N2036 N 0.66874 0.92828 0.33706 0.0
N2037 N 0.58342 0.97846 0.28674 0.0
H2038 H 0.63721 0.02373 0.31859 0.0
H2039 H 0.61132 0.02264 0.29612 0.0
H2040 H 0.56904 0.96737 0.27694 0.0
H2041 H 0.57679 0.99791 0.29161 0.0
H2042 H 0.67013 0.90694 0.33912 0.0
H2043 H 0.68075 0.93847 0.3501 0.0
H2044 H 0.66074 0.8917 0.3019 0.0
H2045 H 0.63202 0.88932 0.28317 0.0
C2046 C 0.11936 0.60166 0.29189 0.0
C2047 C 0.12044 0.60185 0.26253 0.0
C2048 C 0.07918 0.62985 0.2643 0.0
C2049 C 0.08258 0.63474 0.29231 0.0
N2050 N 0.11082 0.6296 0.33074 0.0
N2051 N 0.10349 0.62103 0.22013 0.0
C2052 C 0.10415 0.62194 0.30559 0.0
C2053 C 0.10075 0.61707 0.24839 0.0
N2054 N 0.13235 0.58186 0.30675 0.0
N2055 N 0.05564 0.63756 0.25289 0.0
H2056 H 0.12012 0.61383 0.20766 0.0
H2057 H 0.09082 0.63407 0.20937 0.0
H2058 H 0.03924 0.6466 0.2642 0.0
H2059 H 0.05144 0.63247 0.23315 0.0
H2060 H 0.13041 0.58011 0.3284 0.0
H2061 H 0.14215 0.56541 0.29751 0.0
H2062 H 0.12796 0.622 0.3399 0.0
H2063 H 0.10101 0.64543 0.34099 0.0
C2064 C 0.43596 0.15879 0.25752 0.0
C2065 C 0.46506 0.15991 0.25897 0.0
C2066 C 0.45964 0.12781 0.30051 0.0
C2067 C 0.43111 0.12407 0.29695 0.0
N2068 N 0.39238 0.1338 0.27056 0.0
N2069 N 0.50525 0.14449 0.28044 0.0
C2070 C 0.41927 0.13916 0.27517 0.0
C2071 C 0.47708 0.14425 0.2802 0.0
N2072 N 0.42428 0.17675 0.23944 0.0
N2073 N 0.46988 0.11601 0.32365 0.0
H2074 H 0.51856 0.15687 0.26639 0.0
H2075 H 0.51564 0.13122 0.29334 0.0
H2076 H 0.45764 0.10394 0.33891 0.0
H2077 H 0.48977 0.12 0.32898 0.0
H2078 H 0.403 0.17907 0.23941 0.0
H2079 H 0.4359 0.19106 0.22587 0.0
H2080 H 0.3835 0.1416 0.25308 0.0
H2081 H 0.37935 0.11992 0.28327 0.0
C2082 C 0.13931 0.39353 0.74945 0.0
C2083 C 0.11029 0.38877 0.75601 0.0
C2084 C 0.11294 0.41344 0.79867 0.0
C2085 C 0.14122 0.42079 0.79052 0.0
N2086 N 0.18055 0.42052 0.75622 0.0
N2087 N 0.06873 0.39756 0.78515 0.0
C2088 C 0.15423 0.41143 0.76542 0.0
C2089 C 0.09694 0.39955 0.78026 0.0
N2090 N 0.15281 0.38029 0.72835 0.0
N2091 N 0.10147 0.41923 0.82443 0.0
H2092 H 0.05629 0.38753 0.77239 0.0
H2093 H 0.05742 0.40776 0.8005 0.0
H2094 H 0.11251 0.42923 0.83843 0.0
H2095 H 0.08195 0.41195 0.83291 0.0
H2096 H 0.17428 0.38044 0.72432 0.0
H2097 H 0.14266 0.36711 0.7163 0.0
H2098 H 0.19009 0.41722 0.7366 0.0
H2099 H 0.19224 0.43319 0.76743 0.0
C2100 C 0.59424 0.12437 0.80249 0.0
C2101 C 0.60622 0.14051 0.82173 0.0
C2102 C 0.65017 0.117 0.81457 0.0
C2103 C 0.63787 0.10011 0.79614 0.0
N2104 N 0.5988 0.0865 0.7724 0.0
N2105 N 0.64425 0.15253 0.84742 0.0
C2106 C 0.61005 0.1035 0.79 0.0
C2107 C 0.63391 0.13703 0.82805 0.0
N2108 N 0.5679 0.12945 0.79591 0.0
N2109 N 0.67743 0.1139 0.81891 0.0
H2110 H 0.63316 0.1681 0.85686 0.0
H2111 H 0.66326 0.14952 0.85519 0.0
H2112 H 0.68951 0.09842 0.81055 0.0
H2113 H 0.68868 0.12708 0.82987 0.0
H2114 H 0.55876 0.12067 0.77998 0.0
H2115 H 0.55517 0.14365 0.80567 0.0
H2116 H 0.57791 0.08552 0.76931 0.0
H2117 H 0.61026 0.0723 0.76123 0.0
C2118 C 0.41309 0.88789 0.76971 0.0
C2119 C 0.4304 0.89573 0.78993 0.0
C2120 C 0.40916 0.94088 0.79108 0.0
C2121 C 0.39393 0.93422 0.76867 0.0
N2122 N 0.38125 0.90214 0.73606 0.0
N2123 N 0.44618 0.92947 0.81958 0.0
C2124 C 0.39566 0.90779 0.75799 0.0
C2125 C 0.42865 0.92211 0.80065 0.0
N2126 N 0.41329 0.86141 0.76193 0.0
N2127 N 0.40468 0.96494 0.80362 0.0
H2128 H 0.45927 0.91577 0.82896 0.0
H2129 H 0.44907 0.94957 0.82503 0.0
H2130 H 0.39107 0.97965 0.79719 0.0
H2131 H 0.4125 0.96949 0.82207 0.0
H2132 H 0.39933 0.85341 0.74938 0.0
H2133 H 0.42655 0.8467 0.76945 0.0
H2134 H 0.3839 0.88463 0.72503 0.0
H2135 H 0.36723 0.91574 0.72798 0.0
loop_
_geom_bond_atom_site_label_1
_geom_bond_atom_site_label_2
_geom_bond_distance
_geom_bond_site_symmetry_2
_ccdc_geom_bond_type
C0 C1 1.443 . S
C0 N4 1.376 1_565 S
C0 C38 1.389 . S
C1 C0 1.443 . S
C1 C2 1.360 . S
C1 H41 0.951 . S
C2 C1 1.360 . S
C2 C3 1.421 1_565 S
C2 H42 0.950 . S
C3 C2 1.421 1_545 S
C3 N4 1.374 . S
C3 C37 1.395 . S
N4 C0 1.376 1_545 S
N4 C3 1.374 . S
N4 Co5 2.008 . S
Co5 N4 2.008 . S
Co5 N6 1.995 . S
Co5 N11 2.008 . S
Co5 N16 1.995 . S
Co5 N21 2.282 1_545 S
Co5 N27 2.282 . S
N6 Co5 1.995 . S
N6 C7 1.376 . S
N6 C10 1.383 . S
C7 N6 1.376 . S
C7 C8 1.446 . S
C7 C37 1.391 . S
C8 C7 1.446 . S
C8 C9 1.339 . S
C8 H43 0.949 . S
C9 C8 1.339 . S
C9 C10 1.439 . S
C9 H44 0.950 . S
C10 N6 1.383 . S
C10 C9 1.439 . S
C10 C39 1.392 . S
N11 Co5 2.008 . S
N11 C12 1.376 . S
N11 C15 1.374 . S
C12 N11 1.376 . S
C12 C13 1.443 . S
C12 C39 1.389 . S
C13 C12 1.443 . S
C13 C14 1.340 . S
C13 H45 0.951 . S
C14 C13 1.340 . S
C14 C15 1.439 . S
C14 H46 0.950 . S
C15 N11 1.374 . S
C15 C14 1.439 . S
C15 C40 1.395 . S
N16 Co5 1.995 . S
N16 C17 1.376 . S
N16 C20 1.383 1_545 S
C17 N16 1.376 . S
C17 C18 1.446 1_545 S
C17 C40 1.391 . S
C18 C17 1.446 1_565 S
C18 C19 1.339 . S
C18 H47 0.949 . S
C19 C18 1.339 . S
C19 C20 1.439 . S
C19 H48 0.950 . S
C20 N16 1.383 1_565 S
C20 C19 1.439 . S
C20 C38 1.392 . S
N21 Co5 2.282 1_565 S
N21 C24 1.332 . S
N21 C26 1.332 . S
C22 C23 1.386 . S
C22 C25 1.388 . S
C23 C22 1.386 . S
C23 C24 1.382 . S
C23 H49 0.950 . S
C24 N21 1.332 . S
C24 C23 1.382 . S
C24 H35 0.952 . S
C25 C22 1.388 . S
C25 C26 1.382 . S
C25 H50 0.950 . S
C26 N21 1.332 . S
C26 C25 1.382 . S
C26 H36 0.948 . S
N27 Co5 2.282 . S
N27 C31 1.332 . S
N27 C32 1.332 . S
C28 C29 1.388 . S
C28 C32 1.382 . S
C28 H51 0.950 . S
C29 C28 1.388 . S
C29 C30 1.386 . S
C30 C29 1.386 . S
C30 C31 1.382 . S
C30 H52 0.950 . S
C31 N27 1.332 . S
C31 C30 1.382 . S
C31 H33 0.952 . S
C32 N27 1.332 . S
C32 C28 1.382 . S
C32 H34 0.948 . S
H33 C31 0.952 . S
H34 C32 0.948 . S
H35 C24 0.952 . S
H36 C26 0.948 . S
C37 C3 1.395 . S
C37 C7 1.391 . S
C38 C0 1.389 . S
C38 C20 1.392 . S
C39 C10 1.392 . S
C39 C12 1.389 . S
C40 C15 1.395 . S
C40 C17 1.391 . S
H41 C1 0.951 . S
H42 C2 0.950 . S
H43 C8 0.949 . S
H44 C9 0.950 . S
H45 C13 0.951 . S
H46 C14 0.950 . S
H47 C18 0.949 . S
H48 C19 0.950 . S
H49 C23 0.950 . S
H50 C25 0.950 . S
H51 C28 0.950 . S
H52 C30 0.950 . S
C53 C54 1.443 . S
C53 N57 1.376 . S
C53 C91 1.389 . S
C54 C53 1.443 . S
C54 C55 1.340 . S
C54 H94 0.951 . S
C55 C54 1.340 . S
C55 C56 1.439 . S
C55 H95 0.950 . S
C56 C55 1.439 . S
C56 N57 1.374 . S
C56 C90 1.395 . S
N57 C53 1.376 . S
N57 C56 1.374 . S
N57 Co58 2.008 . S
Co58 N57 2.008 . S
Co58 N59 1.995 . S
Co58 N64 2.008 . S
Co58 N69 1.995 . S
Co58 N74 2.282 . S
Co58 N80 2.282 1_455 S
N59 Co58 1.995 . S
N59 C60 1.376 . S
N59 C63 1.383 1_455 S
C60 N59 1.376 . S
C60 C61 1.446 1_455 S
C60 C90 1.391 . S
C61 C60 1.446 1_655 S
C61 C62 1.339 . S
C61 H96 0.949 . S
C62 C61 1.339 . S
C62 C63 1.439 . S
C62 H97 0.950 . S
C63 N59 1.383 1_655 S
C63 C62 1.439 . S
C63 C92 1.392 . S
N64 Co58 2.008 . S
N64 C65 1.376 1_455 S
N64 C68 1.374 . S
C65 N64 1.376 1_655 S
C65 C66 1.443 . S
C65 C92 1.389 . S
C66 C65 1.443 . S
C66 C67 1.340 1_655 S
C66 H98 0.951 . S
C67 C66 1.340 1_455 S
C67 C68 1.439 . S
C67 H99 0.950 . S
C68 N64 1.374 . S
C68 C67 1.439 . S
C68 C93 1.395 . S
N69 Co58 1.995 . S
N69 C70 1.376 . S
N69 C73 1.383 . S
C70 N69 1.376 . S
C70 C71 1.446 . S
C70 C93 1.391 . S
C71 C70 1.446 . S
C71 C72 1.339 . S
C71 H100 0.949 . S
C72 C71 1.339 . S
C72 C73 1.439 . S
C72 H101 0.950 . S
C73 N69 1.383 . S
C73 C72 1.439 . S
C73 C91 1.392 . S
N74 Co58 2.282 . S
N74 C77 1.332 . S
N74 C79 1.332 . S
C75 C76 1.386 . S
C75 C78 1.388 . S
C76 C75 1.386 . S
C76 C77 1.382 . S
C76 H102 0.950 . S
C77 N74 1.332 . S
C77 C76 1.382 . S
C77 H88 0.952 . S
C78 C75 1.388 . S
C78 C79 1.382 . S
C78 H103 0.950 . S
C79 N74 1.332 . S
C79 C78 1.382 . S
C79 H89 0.948 . S
N80 Co58 2.282 1_655 S
N80 C84 1.332 . S
N80 C85 1.332 . S
C81 C82 1.388 . S
C81 C85 1.382 . S
C81 H104 0.950 . S
C82 C81 1.388 . S
C82 C83 1.386 . S
C83 C82 1.386 . S
C83 C84 1.382 . S
C83 H105 0.950 . S
C84 N80 1.332 . S
C84 C83 1.382 . S
C84 H86 0.952 . S
C85 N80 1.332 . S
C85 C81 1.382 . S
C85 H87 0.948 1_655 S
H86 C84 0.952 . S
H87 C85 0.948 1_455 S
H88 C77 0.952 . S
H89 C79 0.948 . S
C90 C56 1.395 . S
C90 C60 1.391 . S
C91 C53 1.389 . S
C91 C73 1.392 . S
C92 C63 1.392 . S
C92 C65 1.389 . S
C93 C68 1.395 . S
C93 C70 1.391 . S
H94 C54 0.951 . S
H95 C55 0.950 . S
H96 C61 0.949 . S
H97 C62 0.950 . S
H98 C66 0.951 . S
H99 C67 0.950 . S
H100 C71 0.949 . S
H101 C72 0.950 . S
H102 C76 0.950 . S
H103 C78 0.950 . S
H104 C81 0.950 . S
H105 C83 0.950 . S
C106 C107 1.443 . S
C106 N110 1.376 1_565 S
C106 C144 1.389 . S
C107 C106 1.443 . S
C107 C108 1.335 1_565 S
C107 H147 0.951 . S
C108 C107 1.335 1_545 S
C108 C109 1.445 . S
C108 H148 0.950 . S
C109 C108 1.445 . S
C109 N110 1.374 . S
C109 C143 1.395 . S
N110 C106 1.376 1_545 S
N110 C109 1.374 . S
N110 Co111 2.008 . S
Co111 N110 2.008 . S
Co111 N112 1.995 . S
Co111 N117 2.008 . S
Co111 N122 1.994 . S
Co111 N127 2.282 1_545 S
Co111 N133 2.282 . S
N112 Co111 1.995 . S
N112 C113 1.376 . S
N112 C116 1.383 . S
C113 N112 1.376 . S
C113 C114 1.446 . S
C113 C143 1.391 . S
C114 C113 1.446 . S
C114 C115 1.339 . S
C114 H149 0.949 . S
C115 C114 1.339 . S
C115 C116 1.439 . S
C115 H150 0.950 . S
C116 N112 1.383 . S
C116 C115 1.439 . S
C116 C145 1.392 . S
N117 Co111 2.008 . S
N117 C118 1.376 . S
N117 C121 1.374 . S
C118 N117 1.376 . S
C118 C119 1.443 . S
C118 C145 1.389 . S
C119 C118 1.443 . S
C119 C120 1.340 . S
C119 H151 0.951 . S
C120 C119 1.340 . S
C120 C121 1.439 . S
C120 H152 0.950 . S
C121 N117 1.374 . S
C121 C120 1.439 . S
C121 C146 1.395 . S
N122 Co111 1.994 . S
N122 C123 1.377 1_545 S
N122 C126 1.384 1_545 S
C123 N122 1.377 1_565 S
C123 C124 1.455 . S
C123 C146 1.382 1_565 S
C124 C123 1.455 . S
C124 C125 1.339 . S
C124 H153 0.949 . S
C125 C124 1.339 . S
C125 C126 1.439 . S
C125 H154 0.950 . S
C126 N122 1.384 1_565 S
C126 C125 1.439 . S
C126 C144 1.392 . S
N127 Co111 2.282 1_565 S
N127 C130 1.332 . S
N127 C132 1.332 . S
C128 C129 1.386 . S
C128 C131 1.388 . S
C129 C128 1.386 . S
C129 C130 1.382 . S
C129 H155 0.950 . S
C130 N127 1.332 . S
C130 C129 1.382 . S
C130 H141 0.952 . S
C131 C128 1.388 . S
C131 C132 1.382 . S
C131 H156 0.950 . S
C132 N127 1.332 . S
C132 C131 1.382 . S
C132 H142 0.948 . S
N133 Co111 2.282 . S
N133 C137 1.332 . S
N133 C138 1.332 . S
C134 C135 1.388 . S
C134 C138 1.382 . S
C134 H157 0.950 . S
C135 C134 1.388 . S
C135 C136 1.386 . S
C136 C135 1.386 . S
C136 C137 1.382 . S
C136 H158 0.950 . S
C137 N133 1.332 . S
C137 C136 1.382 . S
C137 H139 0.952 . S
C138 N133 1.332 . S
C138 C134 1.382 . S
C138 H140 0.948 . S
H139 C137 0.952 . S
H140 C138 0.948 . S
H141 C130 0.952 . S
H142 C132 0.948 . S
C143 C109 1.395 . S
C143 C113 1.391 . S
C144 C106 1.389 . S
C144 C126 1.392 . S
C145 C116 1.392 . S
C145 C118 1.389 . S
C146 C121 1.395 . S
C146 C123 1.382 1_545 S
H147 C107 0.951 . S
H148 C108 0.950 . S
H149 C114 0.949 . S
H150 C115 0.950 . S
H151 C119 0.951 . S
H152 C120 0.950 . S
H153 C124 0.949 . S
H154 C125 0.950 . S
H155 C129 0.950 . S
H156 C131 0.950 . S
H157 C134 0.950 . S
H158 C136 0.950 . S
C159 C160 1.443 . S
C159 N163 1.376 . S
C159 C197 1.389 . S
C160 C159 1.443 . S
C160 C161 1.340 . S
C160 H200 0.951 . S
C161 C160 1.340 . S
C161 C162 1.439 . S
C161 H201 0.950 . S
C162 C161 1.439 . S
C162 N163 1.374 . S
C162 C196 1.395 1_655 S
N163 C159 1.376 . S
N163 C162 1.374 . S
N163 Co164 1.998 1_655 S
Co164 N163 1.998 1_455 S
Co164 N165 2.008 . S
Co164 N170 2.018 . S
Co164 N175 1.982 1_455 S
Co164 N180 2.264 1_455 S
Co164 N186 2.301 . S
N165 Co164 2.008 . S
N165 C166 1.376 . S
N165 C169 1.383 . S
C166 N165 1.376 . S
C166 C167 1.446 . S
C166 C196 1.391 . S
C167 C166 1.446 . S
C167 C168 1.339 . S
C167 H202 0.949 . S
C168 C167 1.339 . S
C168 C169 1.439 . S
C168 H203 0.950 . S
C169 N165 1.383 . S
C169 C168 1.439 . S
C169 C198 1.392 . S
N170 Co164 2.018 . S
N170 C171 1.376 . S
N170 C174 1.374 . S
C171 N170 1.376 . S
C171 C172 1.443 . S
C171 C198 1.389 . S
C172 C171 1.443 . S
C172 C173 1.340 . S
C172 H204 0.951 . S
C173 C172 1.340 . S
C173 C174 1.439 . S
C173 H205 0.950 . S
C174 N170 1.374 . S
C174 C173 1.439 . S
C174 C199 1.395 1_455 S
N175 Co164 1.982 1_655 S
N175 C176 1.376 . S
N175 C179 1.383 . S
C176 N175 1.376 . S
C176 C177 1.446 . S
C176 C199 1.391 . S
C177 C176 1.446 . S
C177 C178 1.339 . S
C177 H206 0.949 . S
C178 C177 1.339 . S
C178 C179 1.439 . S
C178 H207 0.950 . S
C179 N175 1.383 . S
C179 C178 1.439 . S
C179 C197 1.392 . S
N180 Co164 2.264 1_655 S
N180 C183 1.332 . S
N180 C185 1.332 . S
C181 C182 1.386 . S
C181 C184 1.388 . S
C182 C181 1.386 . S
C182 C183 1.382 . S
C182 H208 0.950 . S
C183 N180 1.332 . S
C183 C182 1.382 . S
C183 H194 0.952 . S
C184 C181 1.388 . S
C184 C185 1.382 . S
C184 H209 0.950 . S
C185 N180 1.332 . S
C185 C184 1.382 . S
C185 H195 0.948 . S
N186 Co164 2.301 . S
N186 C190 1.332 . S
N186 C191 1.332 . S
C187 C188 1.388 . S
C187 C191 1.382 . S
C187 H210 0.950 . S
C188 C187 1.388 . S
C188 C189 1.386 . S
C189 C188 1.386 . S
C189 C190 1.382 . S
C189 H211 0.950 . S
C190 N186 1.332 . S
C190 C189 1.382 . S
C190 H192 0.952 . S
C191 N186 1.332 . S
C191 C187 1.382 . S
C191 H193 0.948 . S
H192 C190 0.952 . S
H193 C191 0.948 . S
H194 C183 0.952 . S
H195 C185 0.948 . S
C196 C162 1.395 1_455 S
C196 C166 1.391 . S
C197 C159 1.389 . S
C197 C179 1.392 . S
C198 C169 1.392 . S
C198 C171 1.389 . S
C199 C174 1.395 1_655 S
C199 C176 1.391 . S
H200 C160 0.951 . S
H201 C161 0.950 . S
H202 C167 0.949 . S
H203 C168 0.950 . S
H204 C172 0.951 . S
H205 C173 0.950 . S
H206 C177 0.949 . S
H207 C178 0.950 . S
H208 C182 0.950 . S
H209 C184 0.950 . S
H210 C187 0.950 . S
H211 C189 0.950 . S
C212 C213 1.443 . S
C212 N216 1.376 . S
C212 C250 1.389 . S
C213 C212 1.443 . S
C213 C214 1.340 . S
C213 H253 0.951 . S
C214 C213 1.340 . S
C214 C215 1.439 . S
C214 H254 0.950 . S
C215 C214 1.439 . S
C215 N216 1.374 . S
C215 C249 1.395 1_565 S
N216 C212 1.376 . S
N216 C215 1.374 . S
N216 Co217 2.008 1_565 S
Co217 N216 2.008 1_545 S
Co217 N218 1.995 . S
Co217 N223 2.008 . S
Co217 N228 1.995 1_545 S
Co217 N233 2.282 1_545 S
Co217 N239 2.282 . S
N218 Co217 1.995 . S
N218 C219 1.376 . S
N218 C222 1.383 . S
C219 N218 1.376 . S
C219 C220 1.446 . S
C219 C249 1.391 . S
C220 C219 1.446 . S
C220 C221 1.339 . S
C220 H255 0.949 . S
C221 C220 1.339 . S
C221 C222 1.439 . S
C221 H256 0.950 . S
C222 N218 1.383 . S
C222 C221 1.439 . S
C222 C251 1.392 . S
N223 Co217 2.008 . S
N223 C224 1.376 . S
N223 C227 1.374 . S
C224 N223 1.376 . S
C224 C225 1.443 . S
C224 C251 1.389 . S
C225 C224 1.443 . S
C225 C226 1.340 . S
C225 H257 0.951 . S
C226 C225 1.340 . S
C226 C227 1.439 . S
C226 H258 0.950 . S
C227 N223 1.374 . S
C227 C226 1.439 . S
C227 C252 1.417 . S
N228 Co217 1.995 1_565 S
N228 C229 1.376 . S
N228 C232 1.383 . S
C229 N228 1.376 . S
C229 C230 1.446 . S
C229 C252 1.374 1_565 S
C230 C229 1.446 . S
C230 C231 1.339 . S
C230 H259 0.949 . S
C231 C230 1.339 . S
C231 C232 1.439 . S
C231 H260 0.950 . S
C232 N228 1.383 . S
C232 C231 1.439 . S
C232 C250 1.392 . S
N233 Co217 2.282 1_565 S
N233 C236 1.332 . S
N233 C238 1.332 . S
C234 C235 1.386 . S
C234 C237 1.388 . S
C235 C234 1.386 . S
C235 C236 1.382 . S
C235 H261 0.950 . S
C236 N233 1.332 . S
C236 C235 1.382 . S
C236 H247 0.952 . S
C237 C234 1.388 . S
C237 C238 1.382 . S
C237 H262 0.950 . S
C238 N233 1.332 . S
C238 C237 1.382 . S
C238 H248 0.948 . S
N239 Co217 2.282 . S
N239 C243 1.332 . S
N239 C244 1.332 . S
C240 C241 1.388 . S
C240 C244 1.382 . S
C240 H263 0.950 . S
C241 C240 1.388 . S
C241 C242 1.386 . S
C242 C241 1.386 . S
C242 C243 1.382 . S
C242 H264 0.950 . S
C243 N239 1.332 . S
C243 C242 1.382 . S
C243 H245 0.952 . S
C244 N239 1.332 . S
C244 C240 1.382 . S
C244 H246 0.948 . S
H245 C243 0.952 . S
H246 C244 0.948 . S
H247 C236 0.952 . S
H248 C238 0.948 . S
C249 C215 1.395 1_545 S
C249 C219 1.391 . S
C250 C212 1.389 . S
C250 C232 1.392 . S
C251 C222 1.392 . S
C251 C224 1.389 . S
C252 C227 1.417 . S
C252 C229 1.374 1_545 S
H253 C213 0.951 . S
H254 C214 0.950 . S
H255 C220 0.949 . S
H256 C221 0.950 . S
H257 C225 0.951 . S
H258 C226 0.950 . S
H259 C230 0.949 . S
H260 C231 0.950 . S
H261 C235 0.950 . S
H262 C237 0.950 . S
H263 C240 0.950 . S
H264 C242 0.950 . S
C265 C266 1.443 . S
C265 N269 1.376 1_655 S
C265 C303 1.389 . S
C266 C265 1.443 . S
C266 C267 1.340 1_655 S
C266 H306 0.951 . S
C267 C266 1.340 1_455 S
C267 C268 1.439 . S
C267 H307 0.950 . S
C268 C267 1.439 . S
C268 N269 1.374 . S
C268 C302 1.395 . S
N269 C265 1.376 1_455 S
N269 C268 1.374 . S
N269 Co270 2.008 . S
Co270 N269 2.008 . S
Co270 N271 1.995 . S
Co270 N276 2.008 . S
Co270 N281 1.995 . S
Co270 N286 2.282 1_455 S
Co270 N292 2.282 . S
N271 Co270 1.995 . S
N271 C272 1.376 . S
N271 C275 1.383 . S
C272 N271 1.376 . S
C272 C273 1.446 . S
C272 C302 1.391 . S
C273 C272 1.446 . S
C273 C274 1.339 . S
C273 H308 0.949 . S
C274 C273 1.339 . S
C274 C275 1.439 . S
C274 H309 0.950 . S
C275 N271 1.383 . S
C275 C274 1.439 . S
C275 C304 1.392 . S
N276 Co270 2.008 . S
N276 C277 1.376 . S
N276 C280 1.374 . S
C277 N276 1.376 . S
C277 C278 1.443 . S
C277 C304 1.389 . S
C278 C277 1.443 . S
C278 C279 1.340 . S
C278 H310 0.951 . S
C279 C278 1.340 . S
C279 C280 1.439 . S
C279 H311 0.950 . S
C280 N276 1.374 . S
C280 C279 1.439 . S
C280 C305 1.395 . S
N281 Co270 1.995 . S
N281 C282 1.376 . S
N281 C285 1.383 1_455 S
C282 N281 1.376 . S
C282 C283 1.446 1_455 S
C282 C305 1.391 . S
C283 C282 1.446 1_655 S
C283 C284 1.339 . S
C283 H312 0.949 . S
C284 C283 1.339 . S
C284 C285 1.439 . S
C284 H313 0.950 . S
C285 N281 1.383 1_655 S
C285 C284 1.439 . S
C285 C303 1.392 . S
N286 Co270 2.282 1_655 S
N286 C289 1.332 . S
N286 C291 1.332 . S
C287 C288 1.386 . S
C287 C290 1.388 . S
C288 C287 1.386 . S
C288 C289 1.382 . S
C288 H314 0.950 . S
C289 N286 1.332 . S
C289 C288 1.382 . S
C289 H300 0.952 . S
C290 C287 1.388 . S
C290 C291 1.382 . S
C290 H315 0.950 . S
C291 N286 1.332 . S
C291 C290 1.382 . S
C291 H301 0.948 1_655 S
N292 Co270 2.282 . S
N292 C296 1.332 . S
N292 C297 1.332 . S
C293 C294 1.388 . S
C293 C297 1.382 . S
C293 H316 0.950 . S
C294 C293 1.388 . S
C294 C295 1.386 . S
C295 C294 1.386 . S
C295 C296 1.382 . S
C295 H317 0.950 . S
C296 N292 1.332 . S
C296 C295 1.382 . S
C296 H298 0.952 . S
C297 N292 1.332 . S
C297 C293 1.382 . S
C297 H299 0.948 . S
H298 C296 0.952 . S
H299 C297 0.948 . S
H300 C289 0.952 . S
H301 C291 0.948 1_455 S
C302 C268 1.395 . S
C302 C272 1.391 . S
C303 C265 1.389 . S
C303 C285 1.392 . S
C304 C275 1.392 . S
C304 C277 1.389 . S
C305 C280 1.395 . S
C305 C282 1.391 . S
H306 C266 0.951 . S
H307 C267 0.950 . S
H308 C273 0.949 . S
H309 C274 0.950 . S
H310 C278 0.951 . S
H311 C279 0.950 . S
H312 C283 0.949 . S
H313 C284 0.950 . S
H314 C288 0.950 . S
H315 C290 0.950 . S
H316 C293 0.950 . S
H317 C295 0.950 . S
C318 C319 1.443 . S
C318 N322 1.376 . S
C318 C356 1.389 . S
C319 C318 1.443 . S
C319 C320 1.340 . S
C319 H359 0.951 . S
C320 C319 1.340 . S
C320 C321 1.439 . S
C320 H360 0.950 . S
C321 C320 1.439 . S
C321 N322 1.374 . S
C321 C355 1.410 . S
N322 C318 1.376 . S
N322 C321 1.374 . S
N322 Co323 2.008 . S
Co323 N322 2.008 . S
Co323 N324 1.995 1_545 S
Co323 N329 2.008 1_545 S
Co323 N334 1.995 . S
Co323 N339 2.282 . S
Co323 N345 2.282 1_545 S
N324 Co323 1.995 1_565 S
N324 C325 1.376 . S
N324 C328 1.383 . S
C325 N324 1.376 . S
C325 C326 1.446 . S
C325 C355 1.379 1_565 S
C326 C325 1.446 . S
C326 C327 1.339 . S
C326 H361 0.949 . S
C327 C326 1.339 . S
C327 C328 1.439 . S
C327 H362 0.950 . S
C328 N324 1.383 . S
C328 C327 1.439 . S
C328 C357 1.392 . S
N329 Co323 2.008 1_565 S
N329 C330 1.376 . S
N329 C333 1.374 . S
C330 N329 1.376 . S
C330 C331 1.443 . S
C330 C357 1.389 . S
C331 C330 1.443 . S
C331 C332 1.340 . S
C331 H363 0.951 . S
C332 C331 1.340 . S
C332 C333 1.439 . S
C332 H364 0.950 . S
C333 N329 1.374 . S
C333 C332 1.439 . S
C333 C358 1.395 1_565 S
N334 Co323 1.995 . S
N334 C335 1.376 . S
N334 C338 1.383 . S
C335 N334 1.376 . S
C335 C336 1.446 . S
C335 C358 1.391 . S
C336 C335 1.446 . S
C336 C337 1.339 . S
C336 H365 0.949 . S
C337 C336 1.339 . S
C337 C338 1.439 . S
C337 H366 0.950 . S
C338 N334 1.383 . S
C338 C337 1.439 . S
C338 C356 1.392 . S
N339 Co323 2.282 . S
N339 C342 1.332 . S
N339 C344 1.332 . S
C340 C341 1.386 . S
C340 C343 1.388 . S
C341 C340 1.386 . S
C341 C342 1.382 . S
C341 H367 0.950 . S
C342 N339 1.332 . S
C342 C341 1.382 . S
C342 H353 0.952 . S
C343 C340 1.388 . S
C343 C344 1.382 . S
C343 H368 0.950 . S
C344 N339 1.332 . S
C344 C343 1.382 . S
C344 H354 0.948 . S
N345 Co323 2.282 1_565 S
N345 C349 1.332 . S
N345 C350 1.332 . S
C346 C347 1.388 . S
C346 C350 1.382 . S
C346 H369 0.950 . S
C347 C346 1.388 . S
C347 C348 1.386 . S
C348 C347 1.386 . S
C348 C349 1.382 . S
C348 H370 0.950 . S
C349 N345 1.332 . S
C349 C348 1.382 . S
C349 H351 0.952 . S
C350 N345 1.332 . S
C350 C346 1.382 . S
C350 H352 0.948 . S
H351 C349 0.952 . S
H352 C350 0.948 . S
H353 C342 0.952 . S
H354 C344 0.948 . S
C355 C321 1.410 . S
C355 C325 1.379 1_545 S
C356 C318 1.389 . S
C356 C338 1.392 . S
C357 C328 1.392 . S
C357 C330 1.389 . S
C358 C333 1.395 1_545 S
C358 C335 1.391 . S
H359 C319 0.951 . S
H360 C320 0.950 . S
H361 C326 0.949 . S
H362 C327 0.950 . S
H363 C331 0.951 . S
H364 C332 0.950 . S
H365 C336 0.949 . S
H366 C337 0.950 . S
H367 C341 0.950 . S
H368 C343 0.950 . S
H369 C346 0.950 . S
H370 C348 0.950 . S
C371 C372 1.443 . S
C371 N375 1.376 1_655 S
C371 C409 1.389 . S
C372 C371 1.443 . S
C372 C373 1.340 . S
C372 H412 0.951 . S
C373 C372 1.340 . S
C373 C374 1.439 1_655 S
C373 H413 0.950 . S
C374 C373 1.439 1_455 S
C374 N375 1.374 . S
C374 C408 1.395 . S
N375 C371 1.376 1_455 S
N375 C374 1.374 . S
N375 Co376 2.008 . S
Co376 N375 2.008 . S
Co376 N377 1.995 . S
Co376 N382 2.008 . S
Co376 N387 1.995 . S
Co376 N392 2.282 1_455 S
Co376 N398 2.282 . S
N377 Co376 1.995 . S
N377 C378 1.376 . S
N377 C381 1.383 . S
C378 N377 1.376 . S
C378 C379 1.446 . S
C378 C408 1.391 . S
C379 C378 1.446 . S
C379 C380 1.339 . S
C379 H414 0.949 . S
C380 C379 1.339 . S
C380 C381 1.439 . S
C380 H415 0.950 . S
C381 N377 1.383 . S
C381 C380 1.439 . S
C381 C410 1.392 . S
N382 Co376 2.008 . S
N382 C383 1.376 . S
N382 C386 1.374 . S
C383 N382 1.376 . S
C383 C384 1.443 . S
C383 C410 1.389 . S
C384 C383 1.443 . S
C384 C385 1.340 . S
C384 H416 0.951 . S
C385 C384 1.340 . S
C385 C386 1.439 . S
C385 H417 0.950 . S
C386 N382 1.374 . S
C386 C385 1.439 . S
C386 C411 1.395 . S
N387 Co376 1.995 . S
N387 C388 1.376 . S
N387 C391 1.383 1_455 S
C388 N387 1.376 . S
C388 C389 1.446 1_455 S
C388 C411 1.391 . S
C389 C388 1.446 1_655 S
C389 C390 1.339 . S
C389 H418 0.949 . S
C390 C389 1.339 . S
C390 C391 1.439 . S
C390 H419 0.950 . S
C391 N387 1.383 1_655 S
C391 C390 1.439 . S
C391 C409 1.392 . S
N392 Co376 2.282 1_655 S
N392 C395 1.332 . S
N392 C397 1.332 . S
C393 C394 1.386 . S
C393 C396 1.388 . S
C394 C393 1.386 . S
C394 C395 1.382 . S
C394 H420 0.950 . S
C395 N392 1.332 . S
C395 C394 1.382 . S
C395 H406 0.952 . S
C396 C393 1.388 . S
C396 C397 1.382 . S
C396 H421 0.950 . S
C397 N392 1.332 . S
C397 C396 1.382 . S
C397 H407 0.964 . S
N398 Co376 2.282 . S
N398 C402 1.332 . S
N398 C403 1.332 . S
C399 C400 1.388 . S
C399 C403 1.382 . S
C399 H422 0.950 . S
C400 C399 1.388 . S
C400 C401 1.386 . S
C401 C400 1.386 . S
C401 C402 1.382 . S
C401 H423 0.950 . S
C402 N398 1.332 . S
C402 C401 1.382 . S
C402 H404 0.952 . S
C403 N398 1.332 . S
C403 C399 1.382 . S
C403 H405 0.948 . S
H404 C402 0.952 . S
H405 C403 0.948 . S
H406 C395 0.952 . S
H407 C397 0.964 . S
C408 C374 1.395 . S
C408 C378 1.391 . S
C409 C371 1.389 . S
C409 C391 1.392 . S
C410 C381 1.392 . S
C410 C383 1.389 . S
C411 C386 1.395 . S
C411 C388 1.391 . S
H412 C372 0.951 . S
H413 C373 0.950 . S
H414 C379 0.949 . S
H415 C380 0.950 . S
H416 C384 0.951 . S
H417 C385 0.950 . S
H418 C389 0.949 . S
H419 C390 0.950 . S
H420 C394 0.950 . S
H421 C396 0.950 . S
H422 C399 0.950 . S
H423 C401 0.950 . S
C424 C425 1.443 . S
C424 N428 1.376 . S
C424 C462 1.389 . S
C425 C424 1.443 . S
C425 C426 1.340 . S
C425 H465 0.951 . S
C426 C425 1.340 . S
C426 C427 1.439 . S
C426 H466 0.950 . S
C427 C426 1.439 . S
C427 N428 1.374 . S
C427 C461 1.395 1_554 S
N428 C424 1.376 . S
N428 C427 1.374 . S
N428 Co429 2.008 . S
Co429 N428 2.008 . S
Co429 N430 1.995 1_554 S
Co429 N435 2.008 1_554 S
Co429 N440 1.995 . S
Co429 N445 2.282 . S
Co429 N451 2.282 1_554 S
N430 Co429 1.995 1_556 S
N430 C431 1.376 . S
N430 C434 1.383 . S
C431 N430 1.376 . S
C431 C432 1.446 . S
C431 C461 1.391 . S
C432 C431 1.446 . S
C432 C433 1.339 . S
C432 H467 0.949 . S
C433 C432 1.339 . S
C433 C434 1.439 . S
C433 H468 0.950 . S
C434 N430 1.383 . S
C434 C433 1.439 . S
C434 C463 1.392 . S
N435 Co429 2.008 1_556 S
N435 C436 1.376 . S
N435 C439 1.381 . S
C436 N435 1.376 . S
C436 C437 1.443 . S
C436 C463 1.389 . S
C437 C436 1.443 . S
C437 C438 1.340 . S
C437 H469 0.951 . S
C438 C437 1.340 . S
C438 C439 1.452 . S
C438 H470 0.950 . S
C439 N435 1.381 . S
C439 C438 1.452 . S
C439 C464 1.377 1_556 S
N440 Co429 1.995 . S
N440 C441 1.376 . S
N440 C444 1.383 . S
C441 N440 1.376 . S
C441 C442 1.446 . S
C441 C464 1.391 . S
C442 C441 1.446 . S
C442 C443 1.339 . S
C442 H471 0.949 . S
C443 C442 1.339 . S
C443 C444 1.439 . S
C443 H472 0.950 . S
C444 N440 1.383 . S
C444 C443 1.439 . S
C444 C462 1.392 . S
N445 Co429 2.282 . S
N445 C448 1.332 . S
N445 C450 1.332 . S
C446 C447 1.386 . S
C446 C449 1.388 . S
C447 C446 1.386 . S
C447 C448 1.382 . S
C447 H473 0.950 . S
C448 N445 1.332 . S
C448 C447 1.382 . S
C448 H459 0.952 . S
C449 C446 1.388 . S
C449 C450 1.382 . S
C449 H474 0.950 . S
C450 N445 1.332 . S
C450 C449 1.382 . S
C450 H460 0.948 . S
N451 Co429 2.282 1_556 S
N451 C455 1.332 . S
N451 C456 1.332 . S
C452 C453 1.388 . S
C452 C456 1.382 . S
C452 H475 0.950 . S
C453 C452 1.388 . S
C453 C454 1.386 . S
C454 C453 1.386 . S
C454 C455 1.382 . S
C454 H476 0.950 . S
C455 N451 1.332 . S
C455 C454 1.382 . S
C455 H457 0.952 . S
C456 N451 1.332 . S
C456 C452 1.382 . S
C456 H458 0.948 . S
H457 C455 0.952 . S
H458 C456 0.948 . S
H459 C448 0.952 . S
H460 C450 0.948 . S
C461 C427 1.395 1_556 S
C461 C431 1.391 . S
C462 C424 1.389 . S
C462 C444 1.392 . S
C463 C434 1.392 . S
C463 C436 1.389 . S
C464 C439 1.377 1_554 S
C464 C441 1.391 . S
H465 C425 0.951 . S
H466 C426 0.950 . S
H467 C432 0.949 . S
H468 C433 0.950 . S
H469 C437 0.951 . S
H470 C438 0.950 . S
H471 C442 0.949 . S
H472 C443 0.950 . S
H473 C447 0.950 . S
H474 C449 0.950 . S
H475 C452 0.950 . S
H476 C454 0.950 . S
C477 C478 1.443 . S
C477 N481 1.376 . S
C477 C515 1.389 . S
C478 C477 1.443 . S
C478 C479 1.340 . S
C478 H518 0.951 . S
C479 C478 1.340 . S
C479 C480 1.439 . S
C479 H519 0.950 . S
C480 C479 1.439 . S
C480 N481 1.374 . S
C480 C514 1.395 . S
N481 C477 1.376 . S
N481 C480 1.374 . S
N481 Co482 2.008 . S
Co482 N481 2.008 . S
Co482 N483 1.995 . S
Co482 N488 2.008 . S
Co482 N493 1.995 . S
Co482 N498 2.282 . S
Co482 N504 2.282 1_554 S
N483 Co482 1.995 . S
N483 C484 1.376 . S
N483 C487 1.383 1_554 S
C484 N483 1.376 . S
C484 C485 1.446 1_554 S
C484 C514 1.391 . S
C485 C484 1.446 1_556 S
C485 C486 1.339 . S
C485 H520 0.949 . S
C486 C485 1.339 . S
C486 C487 1.439 . S
C486 H521 0.950 . S
C487 N483 1.383 1_556 S
C487 C486 1.439 . S
C487 C516 1.392 . S
N488 Co482 2.008 . S
N488 C489 1.376 1_554 S
N488 C492 1.374 . S
C489 N488 1.376 1_556 S
C489 C490 1.443 . S
C489 C516 1.389 . S
C490 C489 1.443 . S
C490 C491 1.340 . S
C490 H522 0.951 . S
C491 C490 1.340 . S
C491 C492 1.439 1_556 S
C491 H523 0.950 . S
C492 N488 1.374 . S
C492 C491 1.439 1_554 S
C492 C517 1.395 . S
N493 Co482 1.995 . S
N493 C494 1.376 . S
N493 C497 1.383 . S
C494 N493 1.376 . S
C494 C495 1.446 . S
C494 C517 1.391 . S
C495 C494 1.446 . S
C495 C496 1.339 . S
C495 H524 0.949 . S
C496 C495 1.339 . S
C496 C497 1.439 . S
C496 H525 0.950 . S
C497 N493 1.383 . S
C497 C496 1.439 . S
C497 C515 1.392 . S
N498 Co482 2.282 . S
N498 C501 1.332 . S
N498 C503 1.332 . S
C499 C500 1.386 . S
C499 C502 1.388 . S
C500 C499 1.386 . S
C500 C501 1.382 . S
C500 H526 0.950 . S
C501 N498 1.332 . S
C501 C500 1.382 . S
C501 H512 0.952 . S
C502 C499 1.388 . S
C502 C503 1.382 . S
C502 H527 0.950 . S
C503 N498 1.332 . S
C503 C502 1.382 . S
C503 H513 0.948 . S
N504 Co482 2.282 1_556 S
N504 C508 1.332 . S
N504 C509 1.332 . S
C505 C506 1.388 . S
C505 C509 1.382 . S
C505 H528 0.950 . S
C506 C505 1.388 . S
C506 C507 1.386 . S
C507 C506 1.386 . S
C507 C508 1.382 . S
C507 H529 0.950 . S
C508 N504 1.332 . S
C508 C507 1.382 . S
C508 H510 0.952 . S
C509 N504 1.332 . S
C509 C505 1.382 . S
C509 H511 0.948 . S
H510 C508 0.952 . S
H511 C509 0.948 . S
H512 C501 0.952 . S
H513 C503 0.948 . S
C514 C480 1.395 . S
C514 C484 1.391 . S
C515 C477 1.389 . S
C515 C497 1.392 . S
C516 C487 1.392 . S
C516 C489 1.389 . S
C517 C492 1.395 . S
C517 C494 1.391 . S
H518 C478 0.951 . S
H519 C479 0.950 . S
H520 C485 0.949 . S
H521 C486 0.950 . S
H522 C490 0.951 . S
H523 C491 0.950 . S
H524 C495 0.949 . S
H525 C496 0.950 . S
H526 C500 0.950 . S
H527 C502 0.950 . S
H528 C505 0.950 . S
H529 C507 0.950 . S
C530 C531 1.443 . S
C530 N534 1.376 . S
C530 C568 1.389 . S
C531 C530 1.443 . S
C531 C532 1.340 . S
C531 H571 0.951 . S
C532 C531 1.340 . S
C532 C533 1.439 . S
C532 H572 0.950 . S
C533 C532 1.439 . S
C533 N534 1.374 . S
C533 C567 1.395 . S
N534 C530 1.376 . S
N534 C533 1.374 . S
N534 Co535 2.008 . S
Co535 N534 2.008 . S
Co535 N536 1.995 . S
Co535 N541 2.008 . S
Co535 N546 1.995 . S
Co535 N551 2.282 . S
Co535 N557 2.282 . S
N536 Co535 1.995 . S
N536 C537 1.376 . S
N536 C540 1.383 1_554 S
C537 N536 1.376 . S
C537 C538 1.446 1_554 S
C537 C567 1.391 . S
C538 C537 1.446 1_556 S
C538 C539 1.339 . S
C538 H573 0.949 . S
C539 C538 1.339 . S
C539 C540 1.439 . S
C539 H574 0.950 . S
C540 N536 1.383 1_556 S
C540 C539 1.439 . S
C540 C569 1.392 . S
N541 Co535 2.008 . S
N541 C542 1.376 . S
N541 C545 1.374 . S
C542 N541 1.376 . S
C542 C543 1.443 . S
C542 C569 1.389 1_554 S
C543 C542 1.443 . S
C543 C544 1.340 . S
C543 H575 0.935 1_554 S
C544 C543 1.340 . S
C544 C545 1.439 . S
C544 H576 0.950 . S
C545 N541 1.374 . S
C545 C544 1.439 . S
C545 C570 1.395 . S
N546 Co535 1.995 . S
N546 C547 1.376 . S
N546 C550 1.383 . S
C547 N546 1.376 . S
C547 C548 1.446 . S
C547 C570 1.391 . S
C548 C547 1.446 . S
C548 C549 1.339 . S
C548 H577 0.949 . S
C549 C548 1.339 . S
C549 C550 1.439 . S
C549 H578 0.950 . S
C550 N546 1.383 . S
C550 C549 1.439 . S
C550 C568 1.392 . S
N551 Co535 2.282 . S
N551 C554 1.332 . S
N551 C556 1.332 . S
C552 C553 1.386 . S
C552 C555 1.388 . S
C553 C552 1.386 . S
C553 C554 1.382 . S
C553 H579 0.950 . S
C554 N551 1.332 . S
C554 C553 1.382 . S
C554 H565 0.952 . S
C555 C552 1.388 . S
C555 C556 1.382 . S
C555 H580 0.950 . S
C556 N551 1.332 . S
C556 C555 1.382 . S
C556 H566 0.948 . S
N557 Co535 2.282 . S
N557 C561 1.332 1_554 S
N557 C562 1.332 . S
C558 C559 1.388 . S
C558 C562 1.382 1_556 S
C558 H581 0.950 . S
C559 C558 1.388 . S
C559 C560 1.386 . S
C560 C559 1.386 . S
C560 C561 1.382 . S
C560 H582 0.950 . S
C561 N557 1.332 1_556 S
C561 C560 1.382 . S
C561 H563 0.952 . S
C562 N557 1.332 . S
C562 C558 1.382 1_554 S
C562 H564 0.948 . S
H563 C561 0.952 . S
H564 C562 0.948 . S
H565 C554 0.952 . S
H566 C556 0.948 . S
C567 C533 1.395 . S
C567 C537 1.391 . S
C568 C530 1.389 . S
C568 C550 1.392 . S
C569 C540 1.392 . S
C569 C542 1.389 1_556 S
C570 C545 1.395 . S
C570 C547 1.391 . S
H571 C531 0.951 . S
H572 C532 0.950 . S
H573 C538 0.949 . S
H574 C539 0.950 . S
H575 C543 0.935 1_556 S
H576 C544 0.950 . S
H577 C548 0.949 . S
H578 C549 0.950 . S
H579 C553 0.950 . S
H580 C555 0.950 . S
H581 C558 0.950 . S
H582 C560 0.950 . S
C583 C584 1.443 . S
C583 N587 1.376 . S
C583 C621 1.389 1_554 S
C584 C583 1.443 . S
C584 C585 1.340 . S
C584 H624 0.951 1_554 S
C585 C584 1.340 . S
C585 C586 1.439 . S
C585 H625 0.950 . S
C586 C585 1.439 . S
C586 N587 1.374 . S
C586 C620 1.395 . S
N587 C583 1.376 . S
N587 C586 1.374 . S
N587 Co588 2.008 . S
Co588 N587 2.008 . S
Co588 N589 1.995 . S
Co588 N594 2.008 . S
Co588 N599 1.995 . S
Co588 N604 2.282 . S
Co588 N610 2.282 . S
N589 Co588 1.995 . S
N589 C590 1.376 . S
N589 C593 1.383 . S
C590 N589 1.376 . S
C590 C591 1.446 . S
C590 C620 1.391 . S
C591 C590 1.446 . S
C591 C592 1.339 . S
C591 H626 0.949 . S
C592 C591 1.339 . S
C592 C593 1.439 . S
C592 H627 0.950 . S
C593 N589 1.383 . S
C593 C592 1.439 . S
C593 C622 1.392 . S
N594 Co588 2.008 . S
N594 C595 1.376 . S
N594 C598 1.374 . S
C595 N594 1.376 . S
C595 C596 1.443 . S
C595 C622 1.389 . S
C596 C595 1.443 . S
C596 C597 1.340 . S
C596 H628 0.951 . S
C597 C596 1.340 . S
C597 C598 1.439 . S
C597 H629 0.950 . S
C598 N594 1.374 . S
C598 C597 1.439 . S
C598 C623 1.395 . S
N599 Co588 1.995 . S
N599 C600 1.376 . S
N599 C603 1.389 . S
C600 N599 1.376 . S
C600 C601 1.446 1_554 S
C600 C623 1.391 . S
C601 C600 1.446 1_556 S
C601 C602 1.339 . S
C601 H630 0.949 . S
C602 C601 1.339 . S
C602 C603 1.434 1_556 S
C602 H631 0.950 . S
C603 N599 1.389 . S
C603 C602 1.434 1_554 S
C603 C621 1.391 1_554 S
N604 Co588 2.282 . S
N604 C607 1.332 1_554 S
N604 C609 1.332 . S
C605 C606 1.386 . S
C605 C608 1.388 . S
C606 C605 1.386 . S
C606 C607 1.382 . S
C606 H632 0.950 . S
C607 N604 1.332 1_556 S
C607 C606 1.382 . S
C607 H618 0.952 . S
C608 C605 1.388 . S
C608 C609 1.382 1_556 S
C608 H633 0.950 . S
C609 N604 1.332 . S
C609 C608 1.382 1_554 S
C609 H619 0.948 . S
N610 Co588 2.282 . S
N610 C614 1.332 . S
N610 C615 1.332 . S
C611 C612 1.388 . S
C611 C615 1.382 . S
C611 H634 0.950 . S
C612 C611 1.388 . S
C612 C613 1.386 . S
C613 C612 1.386 . S
C613 C614 1.382 . S
C613 H635 0.950 . S
C614 N610 1.332 . S
C614 C613 1.382 . S
C614 H616 0.952 . S
C615 N610 1.332 . S
C615 C611 1.382 . S
C615 H617 0.948 . S
H616 C614 0.952 . S
H617 C615 0.948 . S
H618 C607 0.952 . S
H619 C609 0.948 . S
C620 C586 1.395 . S
C620 C590 1.391 . S
C621 C583 1.389 1_556 S
C621 C603 1.391 1_556 S
C622 C593 1.392 . S
C622 C595 1.389 . S
C623 C598 1.395 . S
C623 C600 1.391 . S
H624 C584 0.951 1_556 S
H625 C585 0.950 . S
H626 C591 0.949 . S
H627 C592 0.950 . S
H628 C596 0.951 . S
H629 C597 0.950 . S
H630 C601 0.949 . S
H631 C602 0.950 . S
H632 C606 0.950 . S
H633 C608 0.950 . S
H634 C611 0.950 . S
H635 C613 0.950 . S
C636 C637 1.443 . S
C636 N640 1.376 . S
C636 C674 1.389 . S
C637 C636 1.443 . S
C637 C638 1.340 . S
C637 H677 0.951 . S
C638 C637 1.340 . S
C638 C639 1.439 . S
C638 H678 0.950 . S
C639 C638 1.439 . S
C639 N640 1.374 . S
C639 C673 1.395 . S
N640 C636 1.376 . S
N640 C639 1.374 . S
N640 Co641 2.008 . S
Co641 N640 2.008 . S
Co641 N642 1.995 . S
Co641 N647 2.008 . S
Co641 N652 1.995 . S
Co641 N657 2.282 . S
Co641 N663 2.282 . S
N642 Co641 1.995 . S
N642 C643 1.376 . S
N642 C646 1.383 . S
C643 N642 1.376 . S
C643 C644 1.446 . S
C643 C673 1.391 . S
C644 C643 1.446 . S
C644 C645 1.339 . S
C644 H679 0.949 . S
C645 C644 1.339 . S
C645 C646 1.439 . S
C645 H680 0.950 . S
C646 N642 1.383 . S
C646 C645 1.439 . S
C646 C675 1.392 . S
N647 Co641 2.008 . S
N647 C648 1.376 . S
N647 C651 1.374 . S
C648 N647 1.376 . S
C648 C649 1.443 . S
C648 C675 1.389 . S
C649 C648 1.443 . S
C649 C650 1.340 . S
C649 H681 0.951 . S
C650 C649 1.340 . S
C650 C651 1.439 . S
C650 H682 0.950 . S
C651 N647 1.374 . S
C651 C650 1.439 . S
C651 C676 1.395 . S
N652 Co641 1.995 . S
N652 C653 1.376 . S
N652 C656 1.383 . S
C653 N652 1.376 . S
C653 C654 1.446 . S
C653 C676 1.391 . S
C654 C653 1.446 . S
C654 C655 1.339 . S
C654 H683 0.949 . S
C655 C654 1.339 . S
C655 C656 1.439 . S
C655 H684 0.950 . S
C656 N652 1.383 . S
C656 C655 1.439 . S
C656 C674 1.392 . S
N657 Co641 2.282 . S
N657 C660 1.332 . S
N657 C662 1.332 . S
C658 C659 1.386 . S
C658 C661 1.388 . S
C659 C658 1.386 . S
C659 C660 1.382 . S
C659 H685 0.950 . S
C660 N657 1.332 . S
C660 C659 1.382 . S
C660 H671 0.952 . S
C661 C658 1.388 . S
C661 C662 1.382 . S
C661 H686 0.950 . S
C662 N657 1.332 . S
C662 C661 1.382 . S
C662 H672 0.948 . S
N663 Co641 2.282 . S
N663 C667 1.332 . S
N663 C668 1.332 . S
C664 C665 1.388 . S
C664 C668 1.382 . S
C664 H687 0.950 . S
C665 C664 1.388 . S
C665 C666 1.386 . S
C666 C665 1.386 . S
C666 C667 1.382 . S
C666 H688 0.950 . S
C667 N663 1.332 . S
C667 C666 1.382 . S
C667 H669 0.952 . S
C668 N663 1.332 . S
C668 C664 1.382 . S
C668 H670 0.948 . S
H669 C667 0.952 . S
H670 C668 0.948 . S
H671 C660 0.952 . S
H672 C662 0.948 . S
C673 C639 1.395 . S
C673 C643 1.391 . S
C674 C636 1.389 . S
C674 C656 1.392 . S
C675 C646 1.392 . S
C675 C648 1.389 . S
C676 C651 1.395 . S
C676 C653 1.391 . S
H677 C637 0.951 . S
H678 C638 0.950 . S
H679 C644 0.949 . S
H680 C645 0.950 . S
H681 C649 0.951 . S
H682 C650 0.950 . S
H683 C654 0.949 . S
H684 C655 0.950 . S
H685 C659 0.950 . S
H686 C661 0.950 . S
H687 C664 0.950 . S
H688 C666 0.950 . S
C689 C690 1.443 . S
C689 N693 1.376 . S
C689 C727 1.389 . S
C690 C689 1.443 . S
C690 C691 1.340 . S
C690 H730 0.951 . S
C691 C690 1.340 . S
C691 C692 1.439 . S
C691 H731 0.950 . S
C692 C691 1.439 . S
C692 N693 1.374 . S
C692 C726 1.395 . S
N693 C689 1.376 . S
N693 C692 1.374 . S
N693 Co694 2.008 . S
Co694 N693 2.008 . S
Co694 N695 1.995 . S
Co694 N700 2.008 . S
Co694 N705 1.995 . S
Co694 N710 2.282 . S
Co694 N716 2.282 . S
N695 Co694 1.995 . S
N695 C696 1.376 . S
N695 C699 1.383 . S
C696 N695 1.376 . S
C696 C697 1.446 . S
C696 C726 1.391 . S
C697 C696 1.446 . S
C697 C698 1.339 . S
C697 H732 0.949 . S
C698 C697 1.339 . S
C698 C699 1.439 . S
C698 H733 0.950 . S
C699 N695 1.383 . S
C699 C698 1.439 . S
C699 C728 1.392 . S
N700 Co694 2.008 . S
N700 C701 1.376 . S
N700 C704 1.374 . S
C701 N700 1.376 . S
C701 C702 1.443 . S
C701 C728 1.389 . S
C702 C701 1.443 . S
C702 C703 1.340 . S
C702 H734 0.951 . S
C703 C702 1.340 . S
C703 C704 1.439 . S
C703 H735 0.950 . S
C704 N700 1.374 . S
C704 C703 1.439 . S
C704 C729 1.395 . S
N705 Co694 1.995 . S
N705 C706 1.376 . S
N705 C709 1.383 . S
C706 N705 1.376 . S
C706 C707 1.446 . S
C706 C729 1.391 . S
C707 C706 1.446 . S
C707 C708 1.339 . S
C707 H736 0.949 . S
C708 C707 1.339 . S
C708 C709 1.439 . S
C708 H737 0.950 . S
C709 N705 1.383 . S
C709 C708 1.439 . S
C709 C727 1.392 . S
N710 Co694 2.282 . S
N710 C713 1.332 . S
N710 C715 1.332 . S
C711 C712 1.386 . S
C711 C714 1.388 . S
C712 C711 1.386 . S
C712 C713 1.382 . S
C712 H738 0.950 . S
C713 N710 1.332 . S
C713 C712 1.382 . S
C713 H724 0.952 . S
C714 C711 1.388 . S
C714 C715 1.382 . S
C714 H739 0.950 . S
C715 N710 1.332 . S
C715 C714 1.382 . S
C715 H725 0.948 . S
N716 Co694 2.282 . S
N716 C720 1.332 . S
N716 C721 1.332 . S
C717 C718 1.388 . S
C717 C721 1.382 . S
C717 H740 0.950 . S
C718 C717 1.388 . S
C718 C719 1.386 . S
C719 C718 1.386 . S
C719 C720 1.382 . S
C719 H741 0.950 . S
C720 N716 1.332 . S
C720 C719 1.382 . S
C720 H722 0.952 . S
C721 N716 1.332 . S
C721 C717 1.382 . S
C721 H723 0.948 . S
H722 C720 0.952 . S
H723 C721 0.948 . S
H724 C713 0.952 . S
H725 C715 0.948 . S
C726 C692 1.395 . S
C726 C696 1.391 . S
C727 C689 1.389 . S
C727 C709 1.392 . S
C728 C699 1.392 . S
C728 C701 1.389 . S
C729 C704 1.395 . S
C729 C706 1.391 . S
H730 C690 0.951 . S
H731 C691 0.950 . S
H732 C697 0.949 . S
H733 C698 0.950 . S
H734 C702 0.951 . S
H735 C703 0.950 . S
H736 C707 0.949 . S
H737 C708 0.950 . S
H738 C712 0.950 . S
H739 C714 0.950 . S
H740 C717 0.950 . S
H741 C719 0.950 . S
C742 C743 1.443 . S
C742 N746 1.376 . S
C742 C780 1.389 . S
C743 C742 1.443 . S
C743 C744 1.340 . S
C743 H783 0.951 . S
C744 C743 1.340 . S
C744 C745 1.439 . S
C744 H784 0.950 . S
C745 C744 1.439 . S
C745 N746 1.374 . S
C745 C779 1.395 . S
N746 C742 1.376 . S
N746 C745 1.374 . S
N746 Co747 2.008 . S
Co747 N746 2.008 . S
Co747 N748 1.995 . S
Co747 N753 2.008 . S
Co747 N758 1.995 . S
Co747 N763 2.282 . S
Co747 N769 2.282 . S
N748 Co747 1.995 . S
N748 C749 1.376 . S
N748 C752 1.383 . S
C749 N748 1.376 . S
C749 C750 1.446 . S
C749 C779 1.391 . S
C750 C749 1.446 . S
C750 C751 1.339 . S
C750 H785 0.949 . S
C751 C750 1.339 . S
C751 C752 1.439 . S
C751 H786 0.950 . S
C752 N748 1.383 . S
C752 C751 1.439 . S
C752 C781 1.392 . S
N753 Co747 2.008 . S
N753 C754 1.376 . S
N753 C757 1.374 . S
C754 N753 1.376 . S
C754 C755 1.443 . S
C754 C781 1.389 . S
C755 C754 1.443 . S
C755 C756 1.340 . S
C755 H787 0.951 . S
C756 C755 1.340 . S
C756 C757 1.439 . S
C756 H788 0.950 . S
C757 N753 1.374 . S
C757 C756 1.439 . S
C757 C782 1.395 . S
N758 Co747 1.995 . S
N758 C759 1.376 . S
N758 C762 1.383 . S
C759 N758 1.376 . S
C759 C760 1.446 . S
C759 C782 1.391 . S
C760 C759 1.446 . S
C760 C761 1.339 . S
C760 H789 0.949 . S
C761 C760 1.339 . S
C761 C762 1.439 . S
C761 H790 0.950 . S
C762 N758 1.383 . S
C762 C761 1.439 . S
C762 C780 1.392 . S
N763 Co747 2.282 . S
N763 C766 1.332 . S
N763 C768 1.332 . S
C764 C765 1.386 . S
C764 C767 1.388 . S
C765 C764 1.386 . S
C765 C766 1.382 . S
C765 H791 0.950 . S
C766 N763 1.332 . S
C766 C765 1.382 . S
C766 H777 0.952 . S
C767 C764 1.388 . S
C767 C768 1.382 . S
C767 H792 0.950 . S
C768 N763 1.332 . S
C768 C767 1.382 . S
C768 H778 0.948 . S
N769 Co747 2.282 . S
N769 C773 1.332 . S
N769 C774 1.332 . S
C770 C771 1.388 . S
C770 C774 1.382 . S
C770 H793 0.950 . S
C771 C770 1.388 . S
C771 C772 1.386 . S
C772 C771 1.386 . S
C772 C773 1.382 . S
C772 H794 0.950 . S
C773 N769 1.332 . S
C773 C772 1.382 . S
C773 H775 0.952 . S
C774 N769 1.332 . S
C774 C770 1.382 . S
C774 H776 0.948 . S
H775 C773 0.952 . S
H776 C774 0.948 . S
H777 C766 0.952 . S
H778 C768 0.948 . S
C779 C745 1.395 . S
C779 C749 1.391 . S
C780 C742 1.389 . S
C780 C762 1.392 . S
C781 C752 1.392 . S
C781 C754 1.389 . S
C782 C757 1.395 . S
C782 C759 1.391 . S
H783 C743 0.951 . S
H784 C744 0.950 . S
H785 C750 0.949 . S
H786 C751 0.950 . S
H787 C755 0.951 . S
H788 C756 0.950 . S
H789 C760 0.949 . S
H790 C761 0.950 . S
H791 C765 0.950 . S
H792 C767 0.950 . S
H793 C770 0.950 . S
H794 C772 0.950 . S
C795 C796 1.443 . S
C795 N799 1.376 . S
C795 C833 1.389 . S
C796 C795 1.443 . S
C796 C797 1.340 . S
C796 H836 0.951 . S
C797 C796 1.340 . S
C797 C798 1.439 . S
C797 H837 0.950 . S
C798 C797 1.439 . S
C798 N799 1.374 . S
C798 C832 1.395 . S
N799 C795 1.376 . S
N799 C798 1.374 . S
N799 Co800 2.008 . S
Co800 N799 2.008 . S
Co800 N801 1.995 . S
Co800 N806 2.008 . S
Co800 N811 1.995 . S
Co800 N816 2.282 . S
Co800 N822 2.282 . S
N801 Co800 1.995 . S
N801 C802 1.376 . S
N801 C805 1.383 . S
C802 N801 1.376 . S
C802 C803 1.446 . S
C802 C832 1.391 . S
C803 C802 1.446 . S
C803 C804 1.339 . S
C803 H838 0.949 . S
C804 C803 1.339 . S
C804 C805 1.439 . S
C804 H839 0.950 . S
C805 N801 1.383 . S
C805 C804 1.439 . S
C805 C834 1.392 . S
N806 Co800 2.008 . S
N806 C807 1.376 . S
N806 C810 1.374 . S
C807 N806 1.376 . S
C807 C808 1.443 . S
C807 C834 1.389 . S
C808 C807 1.443 . S
C808 C809 1.340 . S
C808 H840 0.951 . S
C809 C808 1.340 . S
C809 C810 1.439 . S
C809 H841 0.950 . S
C810 N806 1.374 . S
C810 C809 1.439 . S
C810 C835 1.395 . S
N811 Co800 1.995 . S
N811 C812 1.376 . S
N811 C815 1.383 . S
C812 N811 1.376 . S
C812 C813 1.446 . S
C812 C835 1.391 . S
C813 C812 1.446 . S
C813 C814 1.339 . S
C813 H842 0.949 . S
C814 C813 1.339 . S
C814 C815 1.439 . S
C814 H843 0.950 . S
C815 N811 1.383 . S
C815 C814 1.439 . S
C815 C833 1.392 . S
N816 Co800 2.282 . S
N816 C819 1.332 . S
N816 C821 1.332 . S
C817 C818 1.386 . S
C817 C820 1.388 . S
C818 C817 1.386 . S
C818 C819 1.382 . S
C818 H844 0.950 . S
C819 N816 1.332 . S
C819 C818 1.382 . S
C819 H830 0.952 . S
C820 C817 1.388 . S
C820 C821 1.382 . S
C820 H845 0.950 . S
C821 N816 1.332 . S
C821 C820 1.382 . S
C821 H831 0.948 . S
N822 Co800 2.282 . S
N822 C826 1.332 . S
N822 C827 1.332 . S
C823 C824 1.388 . S
C823 C827 1.382 . S
C823 H846 0.950 . S
C824 C823 1.388 . S
C824 C825 1.386 . S
C825 C824 1.386 . S
C825 C826 1.382 . S
C825 H847 0.950 . S
C826 N822 1.332 . S
C826 C825 1.382 . S
C826 H828 0.952 . S
C827 N822 1.332 . S
C827 C823 1.382 . S
C827 H829 0.948 . S
H828 C826 0.952 . S
H829 C827 0.948 . S
H830 C819 0.952 . S
H831 C821 0.948 . S
C832 C798 1.395 . S
C832 C802 1.391 . S
C833 C795 1.389 . S
C833 C815 1.392 . S
C834 C805 1.392 . S
C834 C807 1.389 . S
C835 C810 1.395 . S
C835 C812 1.391 . S
H836 C796 0.951 . S
H837 C797 0.950 . S
H838 C803 0.949 . S
H839 C804 0.950 . S
H840 C808 0.951 . S
H841 C809 0.950 . S
H842 C813 0.949 . S
H843 C814 0.950 . S
H844 C818 0.950 . S
H845 C820 0.950 . S
H846 C823 0.950 . S
H847 C825 0.950 . S
C848 C849 1.443 . S
C848 N852 1.376 . S
C848 C886 1.389 . S
C849 C848 1.443 . S
C849 C850 1.340 . S
C849 H889 0.951 . S
C850 C849 1.340 . S
C850 C851 1.439 . S
C850 H890 0.950 . S
C851 C850 1.439 . S
C851 N852 1.374 . S
C851 C885 1.395 . S
N852 C848 1.376 . S
N852 C851 1.374 . S
N852 Co853 2.008 . S
Co853 N852 2.008 . S
Co853 N854 1.995 . S
Co853 N859 2.008 . S
Co853 N864 1.995 . S
Co853 N869 2.282 . S
Co853 N875 2.282 . S
N854 Co853 1.995 . S
N854 C855 1.376 . S
N854 C858 1.383 . S
C855 N854 1.376 . S
C855 C856 1.446 . S
C855 C885 1.391 . S
C856 C855 1.446 . S
C856 C857 1.339 . S
C856 H891 0.949 . S
C857 C856 1.339 . S
C857 C858 1.439 . S
C857 H892 0.950 . S
C858 N854 1.383 . S
C858 C857 1.439 . S
C858 C887 1.392 . S
N859 Co853 2.008 . S
N859 C860 1.376 . S
N859 C863 1.374 . S
C860 N859 1.376 . S
C860 C861 1.443 . S
C860 C887 1.389 . S
C861 C860 1.443 . S
C861 C862 1.340 . S
C861 H893 0.951 . S
C862 C861 1.340 . S
C862 C863 1.439 . S
C862 H894 0.950 . S
C863 N859 1.374 . S
C863 C862 1.439 . S
C863 C888 1.395 . S
N864 Co853 1.995 . S
N864 C865 1.376 . S
N864 C868 1.383 . S
C865 N864 1.376 . S
C865 C866 1.446 . S
C865 C888 1.391 . S
C866 C865 1.446 . S
C866 C867 1.339 . S
C866 H895 0.949 . S
C867 C866 1.339 . S
C867 C868 1.439 . S
C867 H896 0.950 . S
C868 N864 1.383 . S
C868 C867 1.439 . S
C868 C886 1.392 . S
N869 Co853 2.282 . S
N869 C872 1.332 . S
N869 C874 1.332 . S
C870 C871 1.386 . S
C870 C873 1.388 . S
C871 C870 1.386 . S
C871 C872 1.382 . S
C871 H897 0.950 . S
C872 N869 1.332 . S
C872 C871 1.382 . S
C872 H883 0.952 . S
C873 C870 1.388 . S
C873 C874 1.382 . S
C873 H898 0.950 . S
C874 N869 1.332 . S
C874 C873 1.382 . S
C874 H884 0.948 . S
N875 Co853 2.282 . S
N875 C879 1.332 . S
N875 C880 1.332 . S
C876 C877 1.388 . S
C876 C880 1.382 . S
C876 H899 0.950 . S
C877 C876 1.388 . S
C877 C878 1.386 . S
C878 C877 1.386 . S
C878 C879 1.382 . S
C878 H900 0.950 . S
C879 N875 1.332 . S
C879 C878 1.382 . S
C879 H881 0.952 . S
C880 N875 1.332 . S
C880 C876 1.382 . S
C880 H882 0.948 . S
H881 C879 0.952 . S
H882 C880 0.948 . S
H883 C872 0.952 . S
H884 C874 0.948 . S
C885 C851 1.395 . S
C885 C855 1.391 . S
C886 C848 1.389 . S
C886 C868 1.392 . S
C887 C858 1.392 . S
C887 C860 1.389 . S
C888 C863 1.395 . S
C888 C865 1.391 . S
H889 C849 0.951 . S
H890 C850 0.950 . S
H891 C856 0.949 . S
H892 C857 0.950 . S
H893 C861 0.951 . S
H894 C862 0.950 . S
H895 C866 0.949 . S
H896 C867 0.950 . S
H897 C871 0.950 . S
H898 C873 0.950 . S
H899 C876 0.950 . S
H900 C878 0.950 . S
C901 C902 1.443 . S
C901 N905 1.376 . S
C901 C939 1.389 . S
C902 C901 1.443 . S
C902 C903 1.340 . S
C902 H942 0.951 . S
C903 C902 1.340 . S
C903 C904 1.439 . S
C903 H943 0.950 . S
C904 C903 1.439 . S
C904 N905 1.374 . S
C904 C938 1.395 . S
N905 C901 1.376 . S
N905 C904 1.374 . S
N905 Co906 2.008 . S
Co906 N905 2.008 . S
Co906 N907 1.995 . S
Co906 N912 2.008 . S
Co906 N917 1.995 . S
Co906 N922 2.282 . S
Co906 N928 2.282 . S
N907 Co906 1.995 . S
N907 C908 1.376 . S
N907 C911 1.383 . S
C908 N907 1.376 . S
C908 C909 1.446 . S
C908 C938 1.391 . S
C909 C908 1.446 . S
C909 C910 1.339 . S
C909 H944 0.949 . S
C910 C909 1.339 . S
C910 C911 1.439 . S
C910 H945 0.950 . S
C911 N907 1.383 . S
C911 C910 1.439 . S
C911 C940 1.392 . S
N912 Co906 2.008 . S
N912 C913 1.376 . S
N912 C916 1.374 . S
C913 N912 1.376 . S
C913 C914 1.443 . S
C913 C940 1.389 . S
C914 C913 1.443 . S
C914 C915 1.340 . S
C914 H946 0.951 . S
C915 C914 1.340 . S
C915 C916 1.439 . S
C915 H947 0.950 . S
C916 N912 1.374 . S
C916 C915 1.439 . S
C916 C941 1.395 . S
N917 Co906 1.995 . S
N917 C918 1.376 . S
N917 C921 1.383 . S
C918 N917 1.376 . S
C918 C919 1.446 . S
C918 C941 1.391 . S
C919 C918 1.446 . S
C919 C920 1.339 . S
C919 H948 0.949 . S
C920 C919 1.339 . S
C920 C921 1.439 . S
C920 H949 0.950 . S
C921 N917 1.383 . S
C921 C920 1.439 . S
C921 C939 1.392 . S
N922 Co906 2.282 . S
N922 C925 1.332 . S
N922 C927 1.332 . S
C923 C924 1.386 . S
C923 C926 1.388 . S
C924 C923 1.386 . S
C924 C925 1.382 . S
C924 H950 0.950 . S
C925 N922 1.332 . S
C925 C924 1.382 . S
C925 H936 0.952 . S
C926 C923 1.388 . S
C926 C927 1.382 . S
C926 H951 0.950 . S
C927 N922 1.332 . S
C927 C926 1.382 . S
C927 H937 0.948 . S
N928 Co906 2.282 . S
N928 C932 1.332 . S
N928 C933 1.332 . S
C929 C930 1.388 . S
C929 C933 1.382 . S
C929 H952 0.950 . S
C930 C929 1.388 . S
C930 C931 1.386 . S
C931 C930 1.386 . S
C931 C932 1.382 . S
C931 H953 0.950 . S
C932 N928 1.332 . S
C932 C931 1.382 . S
C932 H934 0.952 . S
C933 N928 1.332 . S
C933 C929 1.382 . S
C933 H935 0.948 . S
H934 C932 0.952 . S
H935 C933 0.948 . S
H936 C925 0.952 . S
H937 C927 0.948 . S
C938 C904 1.395 . S
C938 C908 1.391 . S
C939 C901 1.389 . S
C939 C921 1.392 . S
C940 C911 1.392 . S
C940 C913 1.389 . S
C941 C916 1.395 . S
C941 C918 1.391 . S
H942 C902 0.951 . S
H943 C903 0.950 . S
H944 C909 0.949 . S
H945 C910 0.950 . S
H946 C914 0.951 . S
H947 C915 0.950 . S
H948 C919 0.949 . S
H949 C920 0.950 . S
H950 C924 0.950 . S
H951 C926 0.950 . S
H952 C929 0.950 . S
H953 C931 0.950 . S
C954 C955 1.443 . S
C954 N958 1.376 . S
C954 C992 1.389 . S
C955 C954 1.443 . S
C955 C956 1.340 . S
C955 H995 0.951 . S
C956 C955 1.340 . S
C956 C957 1.439 . S
C956 H996 0.950 . S
C957 C956 1.439 . S
C957 N958 1.374 . S
C957 C991 1.395 . S
N958 C954 1.376 . S
N958 C957 1.374 . S
N958 Co959 2.008 . S
Co959 N958 2.008 . S
Co959 N960 1.995 . S
Co959 N965 2.008 . S
Co959 N970 1.995 . S
Co959 N975 2.282 . S
Co959 N981 2.282 . S
N960 Co959 1.995 . S
N960 C961 1.376 . S
N960 C964 1.383 . S
C961 N960 1.376 . S
C961 C962 1.446 . S
C961 C991 1.391 . S
C962 C961 1.446 . S
C962 C963 1.339 . S
C962 H997 0.949 . S
C963 C962 1.339 . S
C963 C964 1.439 . S
C963 H998 0.950 . S
C964 N960 1.383 . S
C964 C963 1.439 . S
C964 C993 1.392 . S
N965 Co959 2.008 . S
N965 C966 1.376 . S
N965 C969 1.374 . S
C966 N965 1.376 . S
C966 C967 1.443 . S
C966 C993 1.389 . S
C967 C966 1.443 . S
C967 C968 1.340 . S
C967 H999 0.951 . S
C968 C967 1.340 . S
C968 C969 1.439 . S
C968 H1000 0.950 . S
C969 N965 1.374 . S
C969 C968 1.439 . S
C969 C994 1.395 . S
N970 Co959 1.995 . S
N970 C971 1.376 . S
N970 C974 1.383 . S
C971 N970 1.376 . S
C971 C972 1.446 . S
C971 C994 1.391 . S
C972 C971 1.446 . S
C972 C973 1.339 . S
C972 H1001 0.949 . S
C973 C972 1.339 . S
C973 C974 1.439 . S
C973 H1002 0.950 . S
C974 N970 1.383 . S
C974 C973 1.439 . S
C974 C992 1.392 . S
N975 Co959 2.282 . S
N975 C978 1.332 . S
N975 C980 1.332 . S
C976 C977 1.386 . S
C976 C979 1.388 . S
C977 C976 1.386 . S
C977 C978 1.382 . S
C977 H1003 0.950 . S
C978 N975 1.332 . S
C978 C977 1.382 . S
C978 H989 0.952 . S
C979 C976 1.388 . S
C979 C980 1.382 . S
C979 H1004 0.950 . S
C980 N975 1.332 . S
C980 C979 1.382 . S
C980 H990 0.948 . S
N981 Co959 2.282 . S
N981 C985 1.332 . S
N981 C986 1.332 . S
C982 C983 1.388 . S
C982 C986 1.382 . S
C982 H1005 0.950 . S
C983 C982 1.388 . S
C983 C984 1.386 . S
C984 C983 1.386 . S
C984 C985 1.382 . S
C984 H1006 0.950 . S
C985 N981 1.332 . S
C985 C984 1.382 . S
C985 H987 0.952 . S
C986 N981 1.332 . S
C986 C982 1.382 . S
C986 H988 0.948 . S
H987 C985 0.952 . S
H988 C986 0.948 . S
H989 C978 0.952 . S
H990 C980 0.948 . S
C991 C957 1.395 . S
C991 C961 1.391 . S
C992 C954 1.389 . S
C992 C974 1.392 . S
C993 C964 1.392 . S
C993 C966 1.389 . S
C994 C969 1.395 . S
C994 C971 1.391 . S
H995 C955 0.951 . S
H996 C956 0.950 . S
H997 C962 0.949 . S
H998 C963 0.950 . S
H999 C967 0.951 . S
H1000 C968 0.950 . S
H1001 C972 0.949 . S
H1002 C973 0.950 . S
H1003 C977 0.950 . S
H1004 C979 0.950 . S
H1005 C982 0.950 . S
H1006 C984 0.950 . S
C1007 C1008 1.443 . S
C1007 N1011 1.376 . S
C1007 C1045 1.389 . S
C1008 C1007 1.443 . S
C1008 C1009 1.340 . S
C1008 H1048 0.951 . S
C1009 C1008 1.340 . S
C1009 C1010 1.439 . S
C1009 H1049 0.950 . S
C1010 C1009 1.439 . S
C1010 N1011 1.374 . S
C1010 C1044 1.395 . S
N1011 C1007 1.376 . S
N1011 C1010 1.374 . S
N1011 Co1012 2.008 . S
Co1012 N1011 2.008 . S
Co1012 N1013 1.995 . S
Co1012 N1018 2.008 . S
Co1012 N1023 1.995 . S
Co1012 N1028 2.282 . S
Co1012 N1034 2.282 . S
N1013 Co1012 1.995 . S
N1013 C1014 1.376 . S
N1013 C1017 1.383 . S
C1014 N1013 1.376 . S
C1014 C1015 1.446 . S
C1014 C1044 1.391 . S
C1015 C1014 1.446 . S
C1015 C1016 1.339 . S
C1015 H1050 0.949 . S
C1016 C1015 1.339 . S
C1016 C1017 1.439 . S
C1016 H1051 0.950 . S
C1017 N1013 1.383 . S
C1017 C1016 1.439 . S
C1017 C1046 1.392 . S
N1018 Co1012 2.008 . S
N1018 C1019 1.376 . S
N1018 C1022 1.374 . S
C1019 N1018 1.376 . S
C1019 C1020 1.443 . S
C1019 C1046 1.389 . S
C1020 C1019 1.443 . S
C1020 C1021 1.340 . S
C1020 H1052 0.951 . S
C1021 C1020 1.340 . S
C1021 C1022 1.439 . S
C1021 H1053 0.950 . S
C1022 N1018 1.374 . S
C1022 C1021 1.439 . S
C1022 C1047 1.395 . S
N1023 Co1012 1.995 . S
N1023 C1024 1.376 . S
N1023 C1027 1.383 . S
C1024 N1023 1.376 . S
C1024 C1025 1.446 . S
C1024 C1047 1.391 . S
C1025 C1024 1.446 . S
C1025 C1026 1.339 . S
C1025 H1054 0.949 . S
C1026 C1025 1.339 . S
C1026 C1027 1.439 . S
C1026 H1055 0.950 . S
C1027 N1023 1.383 . S
C1027 C1026 1.439 . S
C1027 C1045 1.392 . S
N1028 Co1012 2.282 . S
N1028 C1031 1.332 . S
N1028 C1033 1.332 . S
C1029 C1030 1.386 . S
C1029 C1032 1.388 . S
C1030 C1029 1.386 . S
C1030 C1031 1.382 . S
C1030 H1056 0.950 . S
C1031 N1028 1.332 . S
C1031 C1030 1.382 . S
C1031 H1042 0.952 . S
C1032 C1029 1.388 . S
C1032 C1033 1.382 . S
C1032 H1057 0.950 . S
C1033 N1028 1.332 . S
C1033 C1032 1.382 . S
C1033 H1043 0.948 . S
N1034 Co1012 2.282 . S
N1034 C1038 1.332 . S
N1034 C1039 1.332 . S
C1035 C1036 1.388 . S
C1035 C1039 1.382 . S
C1035 H1058 0.950 . S
C1036 C1035 1.388 . S
C1036 C1037 1.386 . S
C1037 C1036 1.386 . S
C1037 C1038 1.382 . S
C1037 H1059 0.950 . S
C1038 N1034 1.332 . S
C1038 C1037 1.382 . S
C1038 H1040 0.952 . S
C1039 N1034 1.332 . S
C1039 C1035 1.382 . S
C1039 H1041 0.948 . S
H1040 C1038 0.952 . S
H1041 C1039 0.948 . S
H1042 C1031 0.952 . S
H1043 C1033 0.948 . S
C1044 C1010 1.395 . S
C1044 C1014 1.391 . S
C1045 C1007 1.389 . S
C1045 C1027 1.392 . S
C1046 C1017 1.392 . S
C1046 C1019 1.389 . S
C1047 C1022 1.395 . S
C1047 C1024 1.391 . S
H1048 C1008 0.951 . S
H1049 C1009 0.950 . S
H1050 C1015 0.949 . S
H1051 C1016 0.950 . S
H1052 C1020 0.951 . S
H1053 C1021 0.950 . S
H1054 C1025 0.949 . S
H1055 C1026 0.950 . S
H1056 C1030 0.950 . S
H1057 C1032 0.950 . S
H1058 C1035 0.950 . S
H1059 C1037 0.950 . S
C1060 C1061 1.443 . S
C1060 N1064 1.376 . S
C1060 C1098 1.389 . S
C1061 C1060 1.443 . S
C1061 C1062 1.340 . S
C1061 H1101 0.951 . S
C1062 C1061 1.340 . S
C1062 C1063 1.439 . S
C1062 H1102 0.950 . S
C1063 C1062 1.439 . S
C1063 N1064 1.374 . S
C1063 C1097 1.395 . S
N1064 C1060 1.376 . S
N1064 C1063 1.374 . S
N1064 Co1065 2.008 . S
Co1065 N1064 2.008 . S
Co1065 N1066 1.995 . S
Co1065 N1071 2.008 . S
Co1065 N1076 1.995 . S
Co1065 N1081 2.282 . S
Co1065 N1087 2.282 . S
N1066 Co1065 1.995 . S
N1066 C1067 1.376 . S
N1066 C1070 1.383 . S
C1067 N1066 1.376 . S
C1067 C1068 1.446 . S
C1067 C1097 1.391 . S
C1068 C1067 1.446 . S
C1068 C1069 1.339 . S
C1068 H1103 0.949 . S
C1069 C1068 1.339 . S
C1069 C1070 1.439 . S
C1069 H1104 0.950 . S
C1070 N1066 1.383 . S
C1070 C1069 1.439 . S
C1070 C1099 1.392 . S
N1071 Co1065 2.008 . S
N1071 C1072 1.376 . S
N1071 C1075 1.374 . S
C1072 N1071 1.376 . S
C1072 C1073 1.443 . S
C1072 C1099 1.389 . S
C1073 C1072 1.443 . S
C1073 C1074 1.340 . S
C1073 H1105 0.951 . S
C1074 C1073 1.340 . S
C1074 C1075 1.439 . S
C1074 H1106 0.950 . S
C1075 N1071 1.374 . S
C1075 C1074 1.439 . S
C1075 C1100 1.395 . S
N1076 Co1065 1.995 . S
N1076 C1077 1.376 . S
N1076 C1080 1.383 . S
C1077 N1076 1.376 . S
C1077 C1078 1.446 . S
C1077 C1100 1.391 . S
C1078 C1077 1.446 . S
C1078 C1079 1.339 . S
C1078 H1107 0.949 . S
C1079 C1078 1.339 . S
C1079 C1080 1.439 . S
C1079 H1108 0.950 . S
C1080 N1076 1.383 . S
C1080 C1079 1.439 . S
C1080 C1098 1.392 . S
N1081 Co1065 2.282 . S
N1081 C1084 1.332 . S
N1081 C1086 1.332 . S
C1082 C1083 1.386 . S
C1082 C1085 1.388 . S
C1083 C1082 1.386 . S
C1083 C1084 1.382 . S
C1083 H1109 0.950 . S
C1084 N1081 1.332 . S
C1084 C1083 1.382 . S
C1084 H1095 0.952 . S
C1085 C1082 1.388 . S
C1085 C1086 1.382 . S
C1085 H1110 0.950 . S
C1086 N1081 1.332 . S
C1086 C1085 1.382 . S
C1086 H1096 0.948 . S
N1087 Co1065 2.282 . S
N1087 C1091 1.332 . S
N1087 C1092 1.332 . S
C1088 C1089 1.388 . S
C1088 C1092 1.382 . S
C1088 H1111 0.950 . S
C1089 C1088 1.388 . S
C1089 C1090 1.386 . S
C1090 C1089 1.386 . S
C1090 C1091 1.382 . S
C1090 H1112 0.950 . S
C1091 N1087 1.332 . S
C1091 C1090 1.382 . S
C1091 H1093 0.952 . S
C1092 N1087 1.332 . S
C1092 C1088 1.382 . S
C1092 H1094 0.948 . S
H1093 C1091 0.952 . S
H1094 C1092 0.948 . S
H1095 C1084 0.952 . S
H1096 C1086 0.948 . S
C1097 C1063 1.395 . S
C1097 C1067 1.391 . S
C1098 C1060 1.389 . S
C1098 C1080 1.392 . S
C1099 C1070 1.392 . S
C1099 C1072 1.389 . S
C1100 C1075 1.395 . S
C1100 C1077 1.391 . S
H1101 C1061 0.951 . S
H1102 C1062 0.950 . S
H1103 C1068 0.949 . S
H1104 C1069 0.950 . S
H1105 C1073 0.951 . S
H1106 C1074 0.950 . S
H1107 C1078 0.949 . S
H1108 C1079 0.950 . S
H1109 C1083 0.950 . S
H1110 C1085 0.950 . S
H1111 C1088 0.950 . S
H1112 C1090 0.950 . S
C1113 C1114 1.443 . S
C1113 N1117 1.376 . S
C1113 C1151 1.389 . S
C1114 C1113 1.443 . S
C1114 C1115 1.340 . S
C1114 H1154 0.951 . S
C1115 C1114 1.340 . S
C1115 C1116 1.439 . S
C1115 H1155 0.950 . S
C1116 C1115 1.439 . S
C1116 N1117 1.374 . S
C1116 C1150 1.395 . S
N1117 C1113 1.376 . S
N1117 C1116 1.374 . S
N1117 Co1118 2.008 . S
Co1118 N1117 2.008 . S
Co1118 N1119 1.995 . S
Co1118 N1124 2.008 . S
Co1118 N1129 1.995 . S
Co1118 N1134 2.282 . S
Co1118 N1140 2.282 . S
N1119 Co1118 1.995 . S
N1119 C1120 1.376 . S
N1119 C1123 1.383 . S
C1120 N1119 1.376 . S
C1120 C1121 1.446 . S
C1120 C1150 1.391 . S
C1121 C1120 1.446 . S
C1121 C1122 1.339 . S
C1121 H1156 0.949 . S
C1122 C1121 1.339 . S
C1122 C1123 1.439 . S
C1122 H1157 0.950 . S
C1123 N1119 1.383 . S
C1123 C1122 1.439 . S
C1123 C1152 1.392 . S
N1124 Co1118 2.008 . S
N1124 C1125 1.376 . S
N1124 C1128 1.374 . S
C1125 N1124 1.376 . S
C1125 C1126 1.443 . S
C1125 C1152 1.389 . S
C1126 C1125 1.443 . S
C1126 C1127 1.340 . S
C1126 H1158 0.951 . S
C1127 C1126 1.340 . S
C1127 C1128 1.439 . S
C1127 H1159 0.950 . S
C1128 N1124 1.374 . S
C1128 C1127 1.439 . S
C1128 C1153 1.395 . S
N1129 Co1118 1.995 . S
N1129 C1130 1.376 . S
N1129 C1133 1.383 . S
C1130 N1129 1.376 . S
C1130 C1131 1.446 . S
C1130 C1153 1.391 . S
C1131 C1130 1.446 . S
C1131 C1132 1.339 . S
C1131 H1160 0.949 . S
C1132 C1131 1.339 . S
C1132 C1133 1.439 . S
C1132 H1161 0.950 . S
C1133 N1129 1.383 . S
C1133 C1132 1.439 . S
C1133 C1151 1.392 . S
N1134 Co1118 2.282 . S
N1134 C1137 1.332 . S
N1134 C1139 1.332 . S
C1135 C1136 1.386 . S
C1135 C1138 1.388 . S
C1136 C1135 1.386 . S
C1136 C1137 1.382 . S
C1136 H1162 0.950 . S
C1137 N1134 1.332 . S
C1137 C1136 1.382 . S
C1137 H1148 0.952 . S
C1138 C1135 1.388 . S
C1138 C1139 1.382 . S
C1138 H1163 0.950 . S
C1139 N1134 1.332 . S
C1139 C1138 1.382 . S
C1139 H1149 0.948 . S
N1140 Co1118 2.282 . S
N1140 C1144 1.332 . S
N1140 C1145 1.332 . S
C1141 C1142 1.388 . S
C1141 C1145 1.382 . S
C1141 H1164 0.950 . S
C1142 C1141 1.388 . S
C1142 C1143 1.386 . S
C1143 C1142 1.386 . S
C1143 C1144 1.382 . S
C1143 H1165 0.950 . S
C1144 N1140 1.332 . S
C1144 C1143 1.382 . S
C1144 H1146 0.952 . S
C1145 N1140 1.332 . S
C1145 C1141 1.382 . S
C1145 H1147 0.948 . S
H1146 C1144 0.952 . S
H1147 C1145 0.948 . S
H1148 C1137 0.952 . S
H1149 C1139 0.948 . S
C1150 C1116 1.395 . S
C1150 C1120 1.391 . S
C1151 C1113 1.389 . S
C1151 C1133 1.392 . S
C1152 C1123 1.392 . S
C1152 C1125 1.389 . S
C1153 C1128 1.395 . S
C1153 C1130 1.391 . S
H1154 C1114 0.951 . S
H1155 C1115 0.950 . S
H1156 C1121 0.949 . S
H1157 C1122 0.950 . S
H1158 C1126 0.951 . S
H1159 C1127 0.950 . S
H1160 C1131 0.949 . S
H1161 C1132 0.950 . S
H1162 C1136 0.950 . S
H1163 C1138 0.950 . S
H1164 C1141 0.950 . S
H1165 C1143 0.950 . S
C1166 C1167 1.443 . S
C1166 N1170 1.376 . S
C1166 C1204 1.389 . S
C1167 C1166 1.443 . S
C1167 C1168 1.340 . S
C1167 H1207 0.951 . S
C1168 C1167 1.340 . S
C1168 C1169 1.439 . S
C1168 H1208 0.950 . S
C1169 C1168 1.439 . S
C1169 N1170 1.374 . S
C1169 C1203 1.395 . S
N1170 C1166 1.376 . S
N1170 C1169 1.374 . S
N1170 Co1171 2.008 . S
Co1171 N1170 2.008 . S
Co1171 N1172 1.995 . S
Co1171 N1177 2.008 . S
Co1171 N1182 1.995 . S
Co1171 N1187 2.282 . S
Co1171 N1193 2.282 . S
N1172 Co1171 1.995 . S
N1172 C1173 1.376 . S
N1172 C1176 1.383 . S
C1173 N1172 1.376 . S
C1173 C1174 1.446 . S
C1173 C1203 1.391 . S
C1174 C1173 1.446 . S
C1174 C1175 1.339 . S
C1174 H1209 0.949 . S
C1175 C1174 1.339 . S
C1175 C1176 1.439 . S
C1175 H1210 0.950 . S
C1176 N1172 1.383 . S
C1176 C1175 1.439 . S
C1176 C1205 1.392 . S
N1177 Co1171 2.008 . S
N1177 C1178 1.376 . S
N1177 C1181 1.374 . S
C1178 N1177 1.376 . S
C1178 C1179 1.443 . S
C1178 C1205 1.389 . S
C1179 C1178 1.443 . S
C1179 C1180 1.340 . S
C1179 H1211 0.951 . S
C1180 C1179 1.340 . S
C1180 C1181 1.439 . S
C1180 H1212 0.950 . S
C1181 N1177 1.374 . S
C1181 C1180 1.439 . S
C1181 C1206 1.395 . S
N1182 Co1171 1.995 . S
N1182 C1183 1.376 . S
N1182 C1186 1.383 . S
C1183 N1182 1.376 . S
C1183 C1184 1.446 . S
C1183 C1206 1.391 . S
C1184 C1183 1.446 . S
C1184 C1185 1.339 . S
C1184 H1213 0.949 . S
C1185 C1184 1.339 . S
C1185 C1186 1.439 . S
C1185 H1214 0.950 . S
C1186 N1182 1.383 . S
C1186 C1185 1.439 . S
C1186 C1204 1.392 . S
N1187 Co1171 2.282 . S
N1187 C1190 1.332 . S
N1187 C1192 1.332 . S
C1188 C1189 1.386 . S
C1188 C1191 1.388 . S
C1189 C1188 1.386 . S
C1189 C1190 1.382 . S
C1189 H1215 0.950 . S
C1190 N1187 1.332 . S
C1190 C1189 1.382 . S
C1190 H1201 0.952 . S
C1191 C1188 1.388 . S
C1191 C1192 1.382 . S
C1191 H1216 0.950 . S
C1192 N1187 1.332 . S
C1192 C1191 1.382 . S
C1192 H1202 0.948 . S
N1193 Co1171 2.282 . S
N1193 C1197 1.332 . S
N1193 C1198 1.332 . S
C1194 C1195 1.388 . S
C1194 C1198 1.382 . S
C1194 H1217 0.950 . S
C1195 C1194 1.388 . S
C1195 C1196 1.386 . S
C1196 C1195 1.386 . S
C1196 C1197 1.382 . S
C1196 H1218 0.950 . S
C1197 N1193 1.332 . S
C1197 C1196 1.382 . S
C1197 H1199 0.952 . S
C1198 N1193 1.332 . S
C1198 C1194 1.382 . S
C1198 H1200 0.948 . S
H1199 C1197 0.952 . S
H1200 C1198 0.948 . S
H1201 C1190 0.952 . S
H1202 C1192 0.948 . S
C1203 C1169 1.395 . S
C1203 C1173 1.391 . S
C1204 C1166 1.389 . S
C1204 C1186 1.392 . S
C1205 C1176 1.392 . S
C1205 C1178 1.389 . S
C1206 C1181 1.395 . S
C1206 C1183 1.391 . S
H1207 C1167 0.951 . S
H1208 C1168 0.950 . S
H1209 C1174 0.949 . S
H1210 C1175 0.950 . S
H1211 C1179 0.951 . S
H1212 C1180 0.950 . S
H1213 C1184 0.949 . S
H1214 C1185 0.950 . S
H1215 C1189 0.950 . S
H1216 C1191 0.950 . S
H1217 C1194 0.950 . S
H1218 C1196 0.950 . S
C1219 C1220 1.443 . S
C1219 N1223 1.376 . S
C1219 C1257 1.389 . S
C1220 C1219 1.443 . S
C1220 C1221 1.340 . S
C1220 H1260 0.951 . S
C1221 C1220 1.340 . S
C1221 C1222 1.439 . S
C1221 H1261 0.950 . S
C1222 C1221 1.439 . S
C1222 N1223 1.374 . S
C1222 C1256 1.395 . S
N1223 C1219 1.376 . S
N1223 C1222 1.374 . S
N1223 Co1224 2.008 . S
Co1224 N1223 2.008 . S
Co1224 N1225 1.995 . S
Co1224 N1230 2.008 . S
Co1224 N1235 1.995 . S
Co1224 N1240 2.282 . S
Co1224 N1246 2.282 . S
N1225 Co1224 1.995 . S
N1225 C1226 1.376 . S
N1225 C1229 1.383 . S
C1226 N1225 1.376 . S
C1226 C1227 1.446 . S
C1226 C1256 1.391 . S
C1227 C1226 1.446 . S
C1227 C1228 1.339 . S
C1227 H1262 0.949 . S
C1228 C1227 1.339 . S
C1228 C1229 1.439 . S
C1228 H1263 0.950 . S
C1229 N1225 1.383 . S
C1229 C1228 1.439 . S
C1229 C1258 1.392 . S
N1230 Co1224 2.008 . S
N1230 C1231 1.376 . S
N1230 C1234 1.374 . S
C1231 N1230 1.376 . S
C1231 C1232 1.443 . S
C1231 C1258 1.389 . S
C1232 C1231 1.443 . S
C1232 C1233 1.340 . S
C1232 H1264 0.951 . S
C1233 C1232 1.340 . S
C1233 C1234 1.439 . S
C1233 H1265 0.950 . S
C1234 N1230 1.374 . S
C1234 C1233 1.439 . S
C1234 C1259 1.395 . S
N1235 Co1224 1.995 . S
N1235 C1236 1.376 . S
N1235 C1239 1.383 . S
C1236 N1235 1.376 . S
C1236 C1237 1.446 . S
C1236 C1259 1.391 . S
C1237 C1236 1.446 . S
C1237 C1238 1.339 . S
C1237 H1266 0.949 . S
C1238 C1237 1.339 . S
C1238 C1239 1.439 . S
C1238 H1267 0.950 . S
C1239 N1235 1.383 . S
C1239 C1238 1.439 . S
C1239 C1257 1.392 . S
N1240 Co1224 2.282 . S
N1240 C1243 1.332 . S
N1240 C1245 1.332 . S
C1241 C1242 1.386 . S
C1241 C1244 1.388 . S
C1242 C1241 1.386 . S
C1242 C1243 1.382 . S
C1242 H1268 0.950 . S
C1243 N1240 1.332 . S
C1243 C1242 1.382 . S
C1243 H1254 0.952 . S
C1244 C1241 1.388 . S
C1244 C1245 1.382 . S
C1244 H1269 0.950 . S
C1245 N1240 1.332 . S
C1245 C1244 1.382 . S
C1245 H1255 0.948 . S
N1246 Co1224 2.282 . S
N1246 C1250 1.332 . S
N1246 C1251 1.332 . S
C1247 C1248 1.388 . S
C1247 C1251 1.382 . S
C1247 H1270 0.950 . S
C1248 C1247 1.388 . S
C1248 C1249 1.386 . S
C1249 C1248 1.386 . S
C1249 C1250 1.382 . S
C1249 H1271 0.950 . S
C1250 N1246 1.332 . S
C1250 C1249 1.382 . S
C1250 H1252 0.952 . S
C1251 N1246 1.332 . S
C1251 C1247 1.382 . S
C1251 H1253 0.948 . S
H1252 C1250 0.952 . S
H1253 C1251 0.948 . S
H1254 C1243 0.952 . S
H1255 C1245 0.948 . S
C1256 C1222 1.395 . S
C1256 C1226 1.391 . S
C1257 C1219 1.389 . S
C1257 C1239 1.392 . S
C1258 C1229 1.392 . S
C1258 C1231 1.389 . S
C1259 C1234 1.395 . S
C1259 C1236 1.391 . S
H1260 C1220 0.951 . S
H1261 C1221 0.950 . S
H1262 C1227 0.949 . S
H1263 C1228 0.950 . S
H1264 C1232 0.951 . S
H1265 C1233 0.950 . S
H1266 C1237 0.949 . S
H1267 C1238 0.950 . S
H1268 C1242 0.950 . S
H1269 C1244 0.950 . S
H1270 C1247 0.950 . S
H1271 C1249 0.950 . S
C1272 C1273 1.363 . S
C1272 C1278 1.379 . S
C1272 N1280 1.356 . S
C1273 C1272 1.363 . S
C1273 C1279 1.363 . S
C1274 C1275 1.363 . S
C1274 C1279 1.379 . S
C1274 N1281 1.356 . S
C1275 C1274 1.363 . S
C1275 C1278 1.363 . S
N1276 C1278 1.356 . S
N1276 H1288 0.984 . S
N1276 H1289 0.985 . S
N1277 C1279 1.356 . S
N1277 H1282 0.984 . S
N1277 H1283 0.985 . S
C1278 C1272 1.379 . S
C1278 C1275 1.363 . S
C1278 N1276 1.356 . S
C1279 C1273 1.363 . S
C1279 C1274 1.379 . S
C1279 N1277 1.356 . S
N1280 C1272 1.356 . S
N1280 H1286 0.984 . S
N1280 H1287 0.984 . S
N1281 C1274 1.356 . S
N1281 H1284 0.984 . S
N1281 H1285 0.985 . S
H1282 N1277 0.984 . S
H1283 N1277 0.985 . S
H1284 N1281 0.984 . S
H1285 N1281 0.985 . S
H1286 N1280 0.984 . S
H1287 N1280 0.984 . S
H1288 N1276 0.984 . S
H1289 N1276 0.985 . S
C1290 C1291 1.363 . S
C1290 C1296 1.379 . S
C1290 N1298 1.356 . S
C1291 C1290 1.363 . S
C1291 C1297 1.363 . S
C1292 C1293 1.363 . S
C1292 C1297 1.379 . S
C1292 N1299 1.356 . S
C1293 C1292 1.363 . S
C1293 C1296 1.363 . S
N1294 C1296 1.356 . S
N1294 H1306 0.984 . S
N1294 H1307 0.985 . S
N1295 C1297 1.356 . S
N1295 H1300 0.984 . S
N1295 H1301 0.985 . S
C1296 C1290 1.379 . S
C1296 C1293 1.363 . S
C1296 N1294 1.356 . S
C1297 C1291 1.363 . S
C1297 C1292 1.379 . S
C1297 N1295 1.356 . S
N1298 C1290 1.356 . S
N1298 H1304 0.984 . S
N1298 H1305 0.984 . S
N1299 C1292 1.356 . S
N1299 H1302 0.984 . S
N1299 H1303 0.985 . S
H1300 N1295 0.984 . S
H1301 N1295 0.985 . S
H1302 N1299 0.984 . S
H1303 N1299 0.985 . S
H1304 N1298 0.984 . S
H1305 N1298 0.984 . S
H1306 N1294 0.984 . S
H1307 N1294 0.985 . S
C1308 C1309 1.363 . S
C1308 C1314 1.379 . S
C1308 N1316 1.356 . S
C1309 C1308 1.363 . S
C1309 C1315 1.363 . S
C1310 C1311 1.363 . S
C1310 C1315 1.379 . S
C1310 N1317 1.356 . S
C1311 C1310 1.363 . S
C1311 C1314 1.363 . S
N1312 C1314 1.356 . S
N1312 H1324 0.984 . S
N1312 H1325 0.985 . S
N1313 C1315 1.356 . S
N1313 H1318 0.984 . S
N1313 H1319 0.985 . S
C1314 C1308 1.379 . S
C1314 C1311 1.363 . S
C1314 N1312 1.356 . S
C1315 C1309 1.363 . S
C1315 C1310 1.379 . S
C1315 N1313 1.356 . S
N1316 C1308 1.356 . S
N1316 H1322 0.984 . S
N1316 H1323 0.984 . S
N1317 C1310 1.356 . S
N1317 H1320 0.984 . S
N1317 H1321 0.985 . S
H1318 N1313 0.984 . S
H1319 N1313 0.985 . S
H1320 N1317 0.984 . S
H1321 N1317 0.985 . S
H1322 N1316 0.984 . S
H1323 N1316 0.984 . S
H1324 N1312 0.984 . S
H1325 N1312 0.985 . S
C1326 C1327 1.363 . S
C1326 C1332 1.379 . S
C1326 N1334 1.356 . S
C1327 C1326 1.363 . S
C1327 C1333 1.363 . S
C1328 C1329 1.363 . S
C1328 C1333 1.379 . S
C1328 N1335 1.356 . S
C1329 C1328 1.363 . S
C1329 C1332 1.363 . S
N1330 C1332 1.356 . S
N1330 H1342 0.984 . S
N1330 H1343 0.985 . S
N1331 C1333 1.356 . S
N1331 H1336 0.984 . S
N1331 H1337 0.985 . S
C1332 C1326 1.379 . S
C1332 C1329 1.363 . S
C1332 N1330 1.356 . S
C1333 C1327 1.363 . S
C1333 C1328 1.379 . S
C1333 N1331 1.356 . S
N1334 C1326 1.356 . S
N1334 H1340 0.984 . S
N1334 H1341 0.984 . S
N1335 C1328 1.356 . S
N1335 H1338 0.984 . S
N1335 H1339 0.985 . S
H1336 N1331 0.984 . S
H1337 N1331 0.985 . S
H1338 N1335 0.984 . S
H1339 N1335 0.985 . S
H1340 N1334 0.984 . S
H1341 N1334 0.984 . S
H1342 N1330 0.984 . S
H1343 N1330 0.985 . S
C1344 C1345 1.363 . S
C1344 C1350 1.379 . S
C1344 N1352 1.356 . S
C1345 C1344 1.363 . S
C1345 C1351 1.363 . S
C1346 C1347 1.363 . S
C1346 C1351 1.379 . S
C1346 N1353 1.356 . S
C1347 C1346 1.363 . S
C1347 C1350 1.363 . S
N1348 C1350 1.356 . S
N1348 H1360 0.984 . S
N1348 H1361 0.985 . S
N1349 C1351 1.356 . S
N1349 H1354 0.984 . S
N1349 H1355 0.985 . S
C1350 C1344 1.379 . S
C1350 C1347 1.363 . S
C1350 N1348 1.356 . S
C1351 C1345 1.363 . S
C1351 C1346 1.379 . S
C1351 N1349 1.356 . S
N1352 C1344 1.356 . S
N1352 H1358 0.984 . S
N1352 H1359 0.984 . S
N1353 C1346 1.356 . S
N1353 H1356 0.984 . S
N1353 H1357 0.985 . S
H1354 N1349 0.984 . S
H1355 N1349 0.985 . S
H1356 N1353 0.984 . S
H1357 N1353 0.985 . S
H1358 N1352 0.984 . S
H1359 N1352 0.984 . S
H1360 N1348 0.984 . S
H1361 N1348 0.985 . S
C1362 C1363 1.363 . S
C1362 C1368 1.379 . S
C1362 N1370 1.356 . S
C1363 C1362 1.363 . S
C1363 C1369 1.363 . S
C1364 C1365 1.363 . S
C1364 C1369 1.379 . S
C1364 N1371 1.356 . S
C1365 C1364 1.363 . S
C1365 C1368 1.363 . S
N1366 C1368 1.356 . S
N1366 H1378 0.984 . S
N1366 H1379 0.985 . S
N1367 C1369 1.356 . S
N1367 H1372 0.984 . S
N1367 H1373 0.985 . S
C1368 C1362 1.379 . S
C1368 C1365 1.363 . S
C1368 N1366 1.356 . S
C1369 C1363 1.363 . S
C1369 C1364 1.379 . S
C1369 N1367 1.356 . S
N1370 C1362 1.356 . S
N1370 H1376 0.984 . S
N1370 H1377 0.984 . S
N1371 C1364 1.356 . S
N1371 H1374 0.984 . S
N1371 H1375 0.985 . S
H1372 N1367 0.984 . S
H1373 N1367 0.985 . S
H1374 N1371 0.984 . S
H1375 N1371 0.985 . S
H1376 N1370 0.984 . S
H1377 N1370 0.984 . S
H1378 N1366 0.984 . S
H1379 N1366 0.985 . S
C1380 C1381 1.363 . S
C1380 C1386 1.379 . S
C1380 N1388 1.356 . S
C1381 C1380 1.363 . S
C1381 C1387 1.363 . S
C1382 C1383 1.363 . S
C1382 C1387 1.379 . S
C1382 N1389 1.356 . S
C1383 C1382 1.363 . S
C1383 C1386 1.363 . S
N1384 C1386 1.356 . S
N1384 H1396 0.984 . S
N1384 H1397 0.985 . S
N1385 C1387 1.356 . S
N1385 H1390 0.984 . S
N1385 H1391 0.985 . S
C1386 C1380 1.379 . S
C1386 C1383 1.363 . S
C1386 N1384 1.356 . S
C1387 C1381 1.363 . S
C1387 C1382 1.379 . S
C1387 N1385 1.356 . S
N1388 C1380 1.356 . S
N1388 H1394 0.984 . S
N1388 H1395 0.984 . S
N1389 C1382 1.356 . S
N1389 H1392 0.984 . S
N1389 H1393 0.985 . S
H1390 N1385 0.984 . S
H1391 N1385 0.985 . S
H1392 N1389 0.984 . S
H1393 N1389 0.985 . S
H1394 N1388 0.984 . S
H1395 N1388 0.984 . S
H1396 N1384 0.984 . S
H1397 N1384 0.985 . S
C1398 C1399 1.363 . S
C1398 C1404 1.379 . S
C1398 N1406 1.356 . S
C1399 C1398 1.363 . S
C1399 C1405 1.363 . S
C1400 C1401 1.363 . S
C1400 C1405 1.379 . S
C1400 N1407 1.356 . S
C1401 C1400 1.363 . S
C1401 C1404 1.363 . S
N1402 C1404 1.356 . S
N1402 H1414 0.984 . S
N1402 H1415 0.985 . S
N1403 C1405 1.356 . S
N1403 H1408 0.984 . S
N1403 H1409 0.985 . S
C1404 C1398 1.379 . S
C1404 C1401 1.363 . S
C1404 N1402 1.356 . S
C1405 C1399 1.363 . S
C1405 C1400 1.379 . S
C1405 N1403 1.356 . S
N1406 C1398 1.356 . S
N1406 H1412 0.984 . S
N1406 H1413 0.984 . S
N1407 C1400 1.356 . S
N1407 H1410 0.984 . S
N1407 H1411 0.985 . S
H1408 N1403 0.984 . S
H1409 N1403 0.985 . S
H1410 N1407 0.984 . S
H1411 N1407 0.985 . S
H1412 N1406 0.984 . S
H1413 N1406 0.984 . S
H1414 N1402 0.984 . S
H1415 N1402 0.985 . S
C1416 C1417 1.363 . S
C1416 C1422 1.379 . S
C1416 N1424 1.356 . S
C1417 C1416 1.363 . S
C1417 C1423 1.363 . S
C1418 C1419 1.363 . S
C1418 C1423 1.379 . S
C1418 N1425 1.356 . S
C1419 C1418 1.363 . S
C1419 C1422 1.363 . S
N1420 C1422 1.356 . S
N1420 H1432 0.984 . S
N1420 H1433 0.985 . S
N1421 C1423 1.356 . S
N1421 H1426 0.984 . S
N1421 H1427 0.985 . S
C1422 C1416 1.379 . S
C1422 C1419 1.363 . S
C1422 N1420 1.356 . S
C1423 C1417 1.363 . S
C1423 C1418 1.379 . S
C1423 N1421 1.356 . S
N1424 C1416 1.356 . S
N1424 H1430 0.984 . S
N1424 H1431 0.984 . S
N1425 C1418 1.356 . S
N1425 H1428 0.984 . S
N1425 H1429 0.985 . S
H1426 N1421 0.984 . S
H1427 N1421 0.985 . S
H1428 N1425 0.984 . S
H1429 N1425 0.985 . S
H1430 N1424 0.984 . S
H1431 N1424 0.984 . S
H1432 N1420 0.984 . S
H1433 N1420 0.985 . S
C1434 C1435 1.363 . S
C1434 C1440 1.379 . S
C1434 N1442 1.356 . S
C1435 C1434 1.363 . S
C1435 C1441 1.363 . S
C1436 C1437 1.363 . S
C1436 C1441 1.379 . S
C1436 N1443 1.356 . S
C1437 C1436 1.363 . S
C1437 C1440 1.363 . S
N1438 C1440 1.356 . S
N1438 H1450 0.984 . S
N1438 H1451 0.985 . S
N1439 C1441 1.356 . S
N1439 H1444 0.984 . S
N1439 H1445 0.985 . S
C1440 C1434 1.379 . S
C1440 C1437 1.363 . S
C1440 N1438 1.356 . S
C1441 C1435 1.363 . S
C1441 C1436 1.379 . S
C1441 N1439 1.356 . S
N1442 C1434 1.356 . S
N1442 H1448 0.984 . S
N1442 H1449 0.984 . S
N1443 C1436 1.356 . S
N1443 H1446 0.984 . S
N1443 H1447 0.985 . S
H1444 N1439 0.984 . S
H1445 N1439 0.985 . S
H1446 N1443 0.984 . S
H1447 N1443 0.985 . S
H1448 N1442 0.984 . S
H1449 N1442 0.984 . S
H1450 N1438 0.984 . S
H1451 N1438 0.985 . S
C1452 C1453 1.363 . S
C1452 C1458 1.379 . S
C1452 N1460 1.356 . S
C1453 C1452 1.363 . S
C1453 C1459 1.363 . S
C1454 C1455 1.363 . S
C1454 C1459 1.379 . S
C1454 N1461 1.356 . S
C1455 C1454 1.363 . S
C1455 C1458 1.363 . S
N1456 C1458 1.356 . S
N1456 H1468 0.984 . S
N1456 H1469 0.985 . S
N1457 C1459 1.356 . S
N1457 H1462 0.984 . S
N1457 H1463 0.985 . S
C1458 C1452 1.379 . S
C1458 C1455 1.363 . S
C1458 N1456 1.356 . S
C1459 C1453 1.363 . S
C1459 C1454 1.379 . S
C1459 N1457 1.356 . S
N1460 C1452 1.356 . S
N1460 H1466 0.984 . S
N1460 H1467 0.984 . S
N1461 C1454 1.356 . S
N1461 H1464 0.984 . S
N1461 H1465 0.985 . S
H1462 N1457 0.984 . S
H1463 N1457 0.985 . S
H1464 N1461 0.984 . S
H1465 N1461 0.985 . S
H1466 N1460 0.984 . S
H1467 N1460 0.984 . S
H1468 N1456 0.984 . S
H1469 N1456 0.985 . S
C1470 C1471 1.363 . S
C1470 C1476 1.379 . S
C1470 N1478 1.356 . S
C1471 C1470 1.363 . S
C1471 C1477 1.363 . S
C1472 C1473 1.363 . S
C1472 C1477 1.379 . S
C1472 N1479 1.356 . S
C1473 C1472 1.363 . S
C1473 C1476 1.363 . S
N1474 C1476 1.356 . S
N1474 H1486 0.984 . S
N1474 H1487 0.985 . S
N1475 C1477 1.356 . S
N1475 H1480 0.984 . S
N1475 H1481 0.985 . S
C1476 C1470 1.379 . S
C1476 C1473 1.363 . S
C1476 N1474 1.356 . S
C1477 C1471 1.363 . S
C1477 C1472 1.379 . S
C1477 N1475 1.356 . S
N1478 C1470 1.356 . S
N1478 H1484 0.984 . S
N1478 H1485 0.984 . S
N1479 C1472 1.356 . S
N1479 H1482 0.984 . S
N1479 H1483 0.985 . S
H1480 N1475 0.984 . S
H1481 N1475 0.985 . S
H1482 N1479 0.984 . S
H1483 N1479 0.985 . S
H1484 N1478 0.984 . S
H1485 N1478 0.984 . S
H1486 N1474 0.984 . S
H1487 N1474 0.985 . S
C1488 C1489 1.363 . S
C1488 C1494 1.379 . S
C1488 N1496 1.356 1_556 S
C1489 C1488 1.363 . S
C1489 C1495 1.363 . S
C1490 C1491 1.363 . S
C1490 C1495 1.379 . S
C1490 N1497 1.356 . S
C1491 C1490 1.363 . S
C1491 C1494 1.363 . S
N1492 C1494 1.356 . S
N1492 H1504 0.984 . S
N1492 H1505 0.985 . S
N1493 C1495 1.356 . S
N1493 H1498 0.984 . S
N1493 H1499 0.985 . S
C1494 C1488 1.379 . S
C1494 C1491 1.363 . S
C1494 N1492 1.356 . S
C1495 C1489 1.363 . S
C1495 C1490 1.379 . S
C1495 N1493 1.356 . S
N1496 C1488 1.356 1_554 S
N1496 H1502 0.984 . S
N1496 H1503 0.984 . S
N1497 C1490 1.356 . S
N1497 H1500 0.984 . S
N1497 H1501 0.985 . S
H1498 N1493 0.984 . S
H1499 N1493 0.985 . S
H1500 N1497 0.984 . S
H1501 N1497 0.985 . S
H1502 N1496 0.984 . S
H1503 N1496 0.984 . S
H1504 N1492 0.984 . S
H1505 N1492 0.985 . S
C1506 C1507 1.363 . S
C1506 C1512 1.379 . S
C1506 N1514 1.356 . S
C1507 C1506 1.363 . S
C1507 C1513 1.363 . S
C1508 C1509 1.363 . S
C1508 C1513 1.379 . S
C1508 N1515 1.356 . S
C1509 C1508 1.363 . S
C1509 C1512 1.363 . S
N1510 C1512 1.356 . S
N1510 H1522 0.984 . S
N1510 H1523 0.985 . S
N1511 C1513 1.356 . S
N1511 H1516 0.984 . S
N1511 H1517 0.985 . S
C1512 C1506 1.379 . S
C1512 C1509 1.363 . S
C1512 N1510 1.356 . S
C1513 C1507 1.363 . S
C1513 C1508 1.379 . S
C1513 N1511 1.356 . S
N1514 C1506 1.356 . S
N1514 H1520 0.984 . S
N1514 H1521 0.984 . S
N1515 C1508 1.356 . S
N1515 H1518 0.984 . S
N1515 H1519 0.985 . S
H1516 N1511 0.984 . S
H1517 N1511 0.985 . S
H1518 N1515 0.984 . S
H1519 N1515 0.985 . S
H1520 N1514 0.984 . S
H1521 N1514 0.984 . S
H1522 N1510 0.984 . S
H1523 N1510 0.985 . S
C1524 C1525 1.363 . S
C1524 C1530 1.379 . S
C1524 N1532 1.356 . S
C1525 C1524 1.363 . S
C1525 C1531 1.363 . S
C1526 C1527 1.363 . S
C1526 C1531 1.379 . S
C1526 N1533 1.356 . S
C1527 C1526 1.363 . S
C1527 C1530 1.363 . S
N1528 C1530 1.356 . S
N1528 H1540 0.976 1_556 S
N1528 H1541 0.985 . S
N1529 C1531 1.356 . S
N1529 H1534 0.984 . S
N1529 H1535 0.985 . S
C1530 C1524 1.379 . S
C1530 C1527 1.363 . S
C1530 N1528 1.356 . S
C1531 C1525 1.363 . S
C1531 C1526 1.379 . S
C1531 N1529 1.356 . S
N1532 C1524 1.356 . S
N1532 H1538 0.984 . S
N1532 H1539 0.984 . S
N1533 C1526 1.356 . S
N1533 H1536 0.984 . S
N1533 H1537 0.985 . S
H1534 N1529 0.984 . S
H1535 N1529 0.985 . S
H1536 N1533 0.984 . S
H1537 N1533 0.985 . S
H1538 N1532 0.984 . S
H1539 N1532 0.984 . S
H1540 N1528 0.976 1_554 S
H1541 N1528 0.985 . S
C1542 C1543 1.363 . S
C1542 C1548 1.379 . S
C1542 N1550 1.356 . S
C1543 C1542 1.363 . S
C1543 C1549 1.363 . S
C1544 C1545 1.363 . S
C1544 C1549 1.379 . S
C1544 N1551 1.356 . S
C1545 C1544 1.363 . S
C1545 C1548 1.363 . S
N1546 C1548 1.356 . S
N1546 H1558 0.984 . S
N1546 H1559 0.985 . S
N1547 C1549 1.356 . S
N1547 H1552 0.984 . S
N1547 H1553 0.985 . S
C1548 C1542 1.379 . S
C1548 C1545 1.363 . S
C1548 N1546 1.356 . S
C1549 C1543 1.363 . S
C1549 C1544 1.379 . S
C1549 N1547 1.356 . S
N1550 C1542 1.356 . S
N1550 H1556 0.984 . S
N1550 H1557 0.984 . S
N1551 C1544 1.356 . S
N1551 H1554 0.984 . S
N1551 H1555 0.985 . S
H1552 N1547 0.984 . S
H1553 N1547 0.985 . S
H1554 N1551 0.984 . S
H1555 N1551 0.985 . S
H1556 N1550 0.984 . S
H1557 N1550 0.984 . S
H1558 N1546 0.984 . S
H1559 N1546 0.985 . S
C1560 C1561 1.363 . S
C1560 C1566 1.379 . S
C1560 N1568 1.356 . S
C1561 C1560 1.363 . S
C1561 C1567 1.363 . S
C1562 C1563 1.363 . S
C1562 C1567 1.379 . S
C1562 N1569 1.356 . S
C1563 C1562 1.363 . S
C1563 C1566 1.363 . S
N1564 C1566 1.356 . S
N1564 H1576 0.984 . S
N1564 H1577 0.985 . S
N1565 C1567 1.356 . S
N1565 H1570 0.984 . S
N1565 H1571 0.985 . S
C1566 C1560 1.379 . S
C1566 C1563 1.363 . S
C1566 N1564 1.356 . S
C1567 C1561 1.363 . S
C1567 C1562 1.379 . S
C1567 N1565 1.356 . S
N1568 C1560 1.356 . S
N1568 H1574 0.984 . S
N1568 H1575 0.984 . S
N1569 C1562 1.356 . S
N1569 H1572 0.984 . S
N1569 H1573 0.985 . S
H1570 N1565 0.984 . S
H1571 N1565 0.985 . S
H1572 N1569 0.984 . S
H1573 N1569 0.985 . S
H1574 N1568 0.984 . S
H1575 N1568 0.984 . S
H1576 N1564 0.984 . S
H1577 N1564 0.985 . S
C1578 C1579 1.363 . S
C1578 C1584 1.379 . S
C1578 N1586 1.356 . S
C1579 C1578 1.363 . S
C1579 C1585 1.363 . S
C1580 C1581 1.363 . S
C1580 C1585 1.379 . S
C1580 N1587 1.356 . S
C1581 C1580 1.363 . S
C1581 C1584 1.363 . S
N1582 C1584 1.356 . S
N1582 H1594 0.984 . S
N1582 H1595 0.985 . S
N1583 C1585 1.356 . S
N1583 H1588 0.984 . S
N1583 H1589 0.985 . S
C1584 C1578 1.379 . S
C1584 C1581 1.363 . S
C1584 N1582 1.356 . S
C1585 C1579 1.363 . S
C1585 C1580 1.379 . S
C1585 N1583 1.356 . S
N1586 C1578 1.356 . S
N1586 H1592 0.984 . S
N1586 H1593 0.984 . S
N1587 C1580 1.356 . S
N1587 H1590 0.984 . S
N1587 H1591 0.985 . S
H1588 N1583 0.984 . S
H1589 N1583 0.985 . S
H1590 N1587 0.984 . S
H1591 N1587 0.985 . S
H1592 N1586 0.984 . S
H1593 N1586 0.984 . S
H1594 N1582 0.984 . S
H1595 N1582 0.985 . S
C1596 C1597 1.363 . S
C1596 C1602 1.379 . S
C1596 N1604 1.356 . S
C1597 C1596 1.363 . S
C1597 C1603 1.363 . S
C1598 C1599 1.363 . S
C1598 C1603 1.379 . S
C1598 N1605 1.356 . S
C1599 C1598 1.363 . S
C1599 C1602 1.363 . S
N1600 C1602 1.356 . S
N1600 H1612 0.984 . S
N1600 H1613 0.985 . S
N1601 C1603 1.356 . S
N1601 H1606 0.984 . S
N1601 H1607 0.985 . S
C1602 C1596 1.379 . S
C1602 C1599 1.363 . S
C1602 N1600 1.356 . S
C1603 C1597 1.363 . S
C1603 C1598 1.379 . S
C1603 N1601 1.356 . S
N1604 C1596 1.356 . S
N1604 H1610 0.984 . S
N1604 H1611 0.984 . S
N1605 C1598 1.356 . S
N1605 H1608 0.984 . S
N1605 H1609 0.985 . S
H1606 N1601 0.984 . S
H1607 N1601 0.985 . S
H1608 N1605 0.984 . S
H1609 N1605 0.985 . S
H1610 N1604 0.984 . S
H1611 N1604 0.984 . S
H1612 N1600 0.984 . S
H1613 N1600 0.985 . S
C1614 C1615 1.363 . S
C1614 C1620 1.379 . S
C1614 N1622 1.356 . S
C1615 C1614 1.363 . S
C1615 C1621 1.363 . S
C1616 C1617 1.363 . S
C1616 C1621 1.379 . S
C1616 N1623 1.356 1_655 S
C1617 C1616 1.363 . S
C1617 C1620 1.363 . S
N1618 C1620 1.356 . S
N1618 H1630 0.984 . S
N1618 H1631 0.985 . S
N1619 C1621 1.356 . S
N1619 H1624 0.984 . S
N1619 H1625 0.985 . S
C1620 C1614 1.379 . S
C1620 C1617 1.363 . S
C1620 N1618 1.356 . S
C1621 C1615 1.363 . S
C1621 C1616 1.379 . S
C1621 N1619 1.356 . S
N1622 C1614 1.356 . S
N1622 H1628 0.984 . S
N1622 H1629 0.984 . S
N1623 C1616 1.356 1_455 S
N1623 H1626 0.984 . S
N1623 H1627 0.985 . S
H1624 N1619 0.984 . S
H1625 N1619 0.985 . S
H1626 N1623 0.984 . S
H1627 N1623 0.985 . S
H1628 N1622 0.984 . S
H1629 N1622 0.984 . S
H1630 N1618 0.984 . S
H1631 N1618 0.985 . S
C1632 C1633 1.363 . S
C1632 C1638 1.379 . S
C1632 N1640 1.356 . S
C1633 C1632 1.363 . S
C1633 C1639 1.363 . S
C1634 C1635 1.363 . S
C1634 C1639 1.379 . S
C1634 N1641 1.356 . S
C1635 C1634 1.363 . S
C1635 C1638 1.363 . S
N1636 C1638 1.356 . S
N1636 H1648 0.984 . S
N1636 H1649 0.985 . S
N1637 C1639 1.356 . S
N1637 H1642 0.984 . S
N1637 H1643 0.985 . S
C1638 C1632 1.379 . S
C1638 C1635 1.363 . S
C1638 N1636 1.356 . S
C1639 C1633 1.363 . S
C1639 C1634 1.379 . S
C1639 N1637 1.356 . S
N1640 C1632 1.356 . S
N1640 H1646 0.984 . S
N1640 H1647 0.984 . S
N1641 C1634 1.356 . S
N1641 H1644 0.984 . S
N1641 H1645 0.985 . S
H1642 N1637 0.984 . S
H1643 N1637 0.985 . S
H1644 N1641 0.984 . S
H1645 N1641 0.985 . S
H1646 N1640 0.984 . S
H1647 N1640 0.984 . S
H1648 N1636 0.984 . S
H1649 N1636 0.985 . S
C1650 C1651 1.363 . S
C1650 C1656 1.379 . S
C1650 N1658 1.356 . S
C1651 C1650 1.363 . S
C1651 C1657 1.363 . S
C1652 C1653 1.363 . S
C1652 C1657 1.379 . S
C1652 N1659 1.356 . S
C1653 C1652 1.363 . S
C1653 C1656 1.363 . S
N1654 C1656 1.356 . S
N1654 H1666 0.984 . S
N1654 H1667 0.985 . S
N1655 C1657 1.356 . S
N1655 H1660 0.984 . S
N1655 H1661 0.985 . S
C1656 C1650 1.379 . S
C1656 C1653 1.363 . S
C1656 N1654 1.356 . S
C1657 C1651 1.363 . S
C1657 C1652 1.379 . S
C1657 N1655 1.356 . S
N1658 C1650 1.356 . S
N1658 H1664 0.984 . S
N1658 H1665 0.984 . S
N1659 C1652 1.356 . S
N1659 H1662 0.984 . S
N1659 H1663 0.985 . S
H1660 N1655 0.984 . S
H1661 N1655 0.985 . S
H1662 N1659 0.984 . S
H1663 N1659 0.985 . S
H1664 N1658 0.984 . S
H1665 N1658 0.984 . S
H1666 N1654 0.984 . S
H1667 N1654 0.985 . S
C1668 C1669 1.363 . S
C1668 C1674 1.379 . S
C1668 N1676 1.356 . S
C1669 C1668 1.363 . S
C1669 C1675 1.363 . S
C1670 C1671 1.363 . S
C1670 C1675 1.379 . S
C1670 N1677 1.356 . S
C1671 C1670 1.363 . S
C1671 C1674 1.363 . S
N1672 C1674 1.356 . S
N1672 H1684 0.984 . S
N1672 H1685 0.985 . S
N1673 C1675 1.356 . S
N1673 H1678 0.984 . S
N1673 H1679 0.985 . S
C1674 C1668 1.379 . S
C1674 C1671 1.363 . S
C1674 N1672 1.356 . S
C1675 C1669 1.363 . S
C1675 C1670 1.379 . S
C1675 N1673 1.356 . S
N1676 C1668 1.356 . S
N1676 H1682 0.984 . S
N1676 H1683 0.984 . S
N1677 C1670 1.356 . S
N1677 H1680 0.984 . S
N1677 H1681 0.985 . S
H1678 N1673 0.984 . S
H1679 N1673 0.985 . S
H1680 N1677 0.984 . S
H1681 N1677 0.985 . S
H1682 N1676 0.984 . S
H1683 N1676 0.984 . S
H1684 N1672 0.984 . S
H1685 N1672 0.985 . S
C1686 C1687 1.363 . S
C1686 C1692 1.379 . S
C1686 N1694 1.356 . S
C1687 C1686 1.363 . S
C1687 C1693 1.363 . S
C1688 C1689 1.363 . S
C1688 C1693 1.379 . S
C1688 N1695 1.356 . S
C1689 C1688 1.363 . S
C1689 C1692 1.363 . S
N1690 C1692 1.356 . S
N1690 H1702 0.984 . S
N1690 H1703 0.985 . S
N1691 C1693 1.356 . S
N1691 H1696 0.984 . S
N1691 H1697 0.985 . S
C1692 C1686 1.379 . S
C1692 C1689 1.363 . S
C1692 N1690 1.356 . S
C1693 C1687 1.363 . S
C1693 C1688 1.379 . S
C1693 N1691 1.356 . S
N1694 C1686 1.356 . S
N1694 H1700 0.984 . S
N1694 H1701 0.984 . S
N1695 C1688 1.356 . S
N1695 H1698 0.984 . S
N1695 H1699 0.985 . S
H1696 N1691 0.984 . S
H1697 N1691 0.985 . S
H1698 N1695 0.984 . S
H1699 N1695 0.985 . S
H1700 N1694 0.984 . S
H1701 N1694 0.984 . S
H1702 N1690 0.984 . S
H1703 N1690 0.985 . S
C1704 C1705 1.363 . S
C1704 C1710 1.379 . S
C1704 N1712 1.356 . S
C1705 C1704 1.363 . S
C1705 C1711 1.363 . S
C1706 C1707 1.363 . S
C1706 C1711 1.379 . S
C1706 N1713 1.356 . S
C1707 C1706 1.363 . S
C1707 C1710 1.363 . S
N1708 C1710 1.356 . S
N1708 H1720 0.984 . S
N1708 H1721 0.985 . S
N1709 C1711 1.356 . S
N1709 H1714 0.984 . S
N1709 H1715 0.985 . S
C1710 C1704 1.379 . S
C1710 C1707 1.363 . S
C1710 N1708 1.356 . S
C1711 C1705 1.363 . S
C1711 C1706 1.379 . S
C1711 N1709 1.356 . S
N1712 C1704 1.356 . S
N1712 H1718 0.984 . S
N1712 H1719 0.984 . S
N1713 C1706 1.356 . S
N1713 H1716 0.984 . S
N1713 H1717 0.985 . S
H1714 N1709 0.984 . S
H1715 N1709 0.985 . S
H1716 N1713 0.984 . S
H1717 N1713 0.985 . S
H1718 N1712 0.984 . S
H1719 N1712 0.984 . S
H1720 N1708 0.984 . S
H1721 N1708 0.985 . S
C1722 C1723 1.363 . S
C1722 C1728 1.379 . S
C1722 N1730 1.356 . S
C1723 C1722 1.363 . S
C1723 C1729 1.363 . S
C1724 C1725 1.363 . S
C1724 C1729 1.379 . S
C1724 N1731 1.356 . S
C1725 C1724 1.363 . S
C1725 C1728 1.363 . S
N1726 C1728 1.356 . S
N1726 H1738 0.984 . S
N1726 H1739 0.985 . S
N1727 C1729 1.356 . S
N1727 H1732 0.984 . S
N1727 H1733 0.985 . S
C1728 C1722 1.379 . S
C1728 C1725 1.363 . S
C1728 N1726 1.356 . S
C1729 C1723 1.363 . S
C1729 C1724 1.379 . S
C1729 N1727 1.356 . S
N1730 C1722 1.356 . S
N1730 H1736 0.984 . S
N1730 H1737 0.984 . S
N1731 C1724 1.356 . S
N1731 H1734 0.984 . S
N1731 H1735 0.985 . S
H1732 N1727 0.984 . S
H1733 N1727 0.985 . S
H1734 N1731 0.984 . S
H1735 N1731 0.985 . S
H1736 N1730 0.984 . S
H1737 N1730 0.984 . S
H1738 N1726 0.984 . S
H1739 N1726 0.985 . S
C1740 C1741 1.363 . S
C1740 C1746 1.379 . S
C1740 N1748 1.356 . S
C1741 C1740 1.363 . S
C1741 C1747 1.363 . S
C1742 C1743 1.363 . S
C1742 C1747 1.379 . S
C1742 N1749 1.356 . S
C1743 C1742 1.363 . S
C1743 C1746 1.363 . S
N1744 C1746 1.356 . S
N1744 H1756 0.984 . S
N1744 H1757 0.985 . S
N1745 C1747 1.356 . S
N1745 H1750 0.984 . S
N1745 H1751 0.985 . S
C1746 C1740 1.379 . S
C1746 C1743 1.363 . S
C1746 N1744 1.356 . S
C1747 C1741 1.363 . S
C1747 C1742 1.379 . S
C1747 N1745 1.356 . S
N1748 C1740 1.356 . S
N1748 H1754 0.984 . S
N1748 H1755 0.984 . S
N1749 C1742 1.356 . S
N1749 H1752 0.984 . S
N1749 H1753 0.985 . S
H1750 N1745 0.984 . S
H1751 N1745 0.985 . S
H1752 N1749 0.984 . S
H1753 N1749 0.985 . S
H1754 N1748 0.984 . S
H1755 N1748 0.984 . S
H1756 N1744 0.984 . S
H1757 N1744 0.985 . S
C1758 C1759 1.363 . S
C1758 C1764 1.379 . S
C1758 N1766 1.356 . S
C1759 C1758 1.363 . S
C1759 C1765 1.363 . S
C1760 C1761 1.363 . S
C1760 C1765 1.379 . S
C1760 N1767 1.356 . S
C1761 C1760 1.363 . S
C1761 C1764 1.363 . S
N1762 C1764 1.356 . S
N1762 H1774 0.984 . S
N1762 H1775 0.985 . S
N1763 C1765 1.356 . S
N1763 H1768 0.984 . S
N1763 H1769 0.985 . S
C1764 C1758 1.379 . S
C1764 C1761 1.363 . S
C1764 N1762 1.356 . S
C1765 C1759 1.363 . S
C1765 C1760 1.379 . S
C1765 N1763 1.356 . S
N1766 C1758 1.356 . S
N1766 H1772 0.984 . S
N1766 H1773 0.984 . S
N1767 C1760 1.356 . S
N1767 H1770 0.984 . S
N1767 H1771 0.985 . S
H1768 N1763 0.984 . S
H1769 N1763 0.985 . S
H1770 N1767 0.984 . S
H1771 N1767 0.985 . S
H1772 N1766 0.984 . S
H1773 N1766 0.984 . S
H1774 N1762 0.984 . S
H1775 N1762 0.985 . S
C1776 C1777 1.363 . S
C1776 C1782 1.379 . S
C1776 N1784 1.356 . S
C1777 C1776 1.363 . S
C1777 C1783 1.363 . S
C1778 C1779 1.363 . S
C1778 C1783 1.379 . S
C1778 N1785 1.356 . S
C1779 C1778 1.363 . S
C1779 C1782 1.363 . S
N1780 C1782 1.356 . S
N1780 H1792 0.984 . S
N1780 H1793 0.985 . S
N1781 C1783 1.356 . S
N1781 H1786 0.984 . S
N1781 H1787 0.985 . S
C1782 C1776 1.379 . S
C1782 C1779 1.363 . S
C1782 N1780 1.356 . S
C1783 C1777 1.363 . S
C1783 C1778 1.379 . S
C1783 N1781 1.356 . S
N1784 C1776 1.356 . S
N1784 H1790 0.984 . S
N1784 H1791 0.984 . S
N1785 C1778 1.356 . S
N1785 H1788 0.984 . S
N1785 H1789 0.985 . S
H1786 N1781 0.984 . S
H1787 N1781 0.985 . S
H1788 N1785 0.984 . S
H1789 N1785 0.985 . S
H1790 N1784 0.984 . S
H1791 N1784 0.984 . S
H1792 N1780 0.984 . S
H1793 N1780 0.985 . S
C1794 C1795 1.363 . S
C1794 C1800 1.379 . S
C1794 N1802 1.356 . S
C1795 C1794 1.363 . S
C1795 C1801 1.363 . S
C1796 C1797 1.363 . S
C1796 C1801 1.379 . S
C1796 N1803 1.356 . S
C1797 C1796 1.363 . S
C1797 C1800 1.363 . S
N1798 C1800 1.356 . S
N1798 H1810 0.984 . S
N1798 H1811 0.985 . S
N1799 C1801 1.356 . S
N1799 H1804 0.984 . S
N1799 H1805 0.985 . S
C1800 C1794 1.379 . S
C1800 C1797 1.363 . S
C1800 N1798 1.356 . S
C1801 C1795 1.363 . S
C1801 C1796 1.379 . S
C1801 N1799 1.356 . S
N1802 C1794 1.356 . S
N1802 H1808 0.984 . S
N1802 H1809 0.984 . S
N1803 C1796 1.356 . S
N1803 H1806 0.984 . S
N1803 H1807 0.985 . S
H1804 N1799 0.984 . S
H1805 N1799 0.985 . S
H1806 N1803 0.984 . S
H1807 N1803 0.985 . S
H1808 N1802 0.984 . S
H1809 N1802 0.984 . S
H1810 N1798 0.984 . S
H1811 N1798 0.985 . S
C1812 C1813 1.363 . S
C1812 C1818 1.379 . S
C1812 N1820 1.356 . S
C1813 C1812 1.363 . S
C1813 C1819 1.363 . S
C1814 C1815 1.363 . S
C1814 C1819 1.379 . S
C1814 N1821 1.356 . S
C1815 C1814 1.363 . S
C1815 C1818 1.363 . S
N1816 C1818 1.356 . S
N1816 H1828 0.984 . S
N1816 H1829 0.985 . S
N1817 C1819 1.356 . S
N1817 H1822 0.984 . S
N1817 H1823 0.985 . S
C1818 C1812 1.379 . S
C1818 C1815 1.363 . S
C1818 N1816 1.356 . S
C1819 C1813 1.363 . S
C1819 C1814 1.379 . S
C1819 N1817 1.356 . S
N1820 C1812 1.356 . S
N1820 H1826 0.984 . S
N1820 H1827 0.984 . S
N1821 C1814 1.356 . S
N1821 H1824 0.984 . S
N1821 H1825 0.985 . S
H1822 N1817 0.984 . S
H1823 N1817 0.985 . S
H1824 N1821 0.984 . S
H1825 N1821 0.985 . S
H1826 N1820 0.984 . S
H1827 N1820 0.984 . S
H1828 N1816 0.984 . S
H1829 N1816 0.985 . S
C1830 C1831 1.363 . S
C1830 C1836 1.379 . S
C1830 N1838 1.356 . S
C1831 C1830 1.363 . S
C1831 C1837 1.363 . S
C1832 C1833 1.363 . S
C1832 C1837 1.379 . S
C1832 N1839 1.356 . S
C1833 C1832 1.363 . S
C1833 C1836 1.363 . S
N1834 C1836 1.356 . S
N1834 H1846 0.984 . S
N1834 H1847 0.985 . S
N1835 C1837 1.356 . S
N1835 H1840 0.984 . S
N1835 H1841 0.985 . S
C1836 C1830 1.379 . S
C1836 C1833 1.363 . S
C1836 N1834 1.356 . S
C1837 C1831 1.363 . S
C1837 C1832 1.379 . S
C1837 N1835 1.356 . S
N1838 C1830 1.356 . S
N1838 H1844 0.984 . S
N1838 H1845 0.984 . S
N1839 C1832 1.356 . S
N1839 H1842 0.984 . S
N1839 H1843 0.985 . S
H1840 N1835 0.984 . S
H1841 N1835 0.985 . S
H1842 N1839 0.984 . S
H1843 N1839 0.985 . S
H1844 N1838 0.984 . S
H1845 N1838 0.984 . S
H1846 N1834 0.984 . S
H1847 N1834 0.985 . S
C1848 C1849 1.363 . S
C1848 C1854 1.379 . S
C1848 N1856 1.356 1_556 S
C1849 C1848 1.363 . S
C1849 C1855 1.363 . S
C1850 C1851 1.363 . S
C1850 C1855 1.379 . S
C1850 N1857 1.356 . S
C1851 C1850 1.363 . S
C1851 C1854 1.363 . S
N1852 C1854 1.356 . S
N1852 H1864 0.982 1_556 S
N1852 H1865 0.985 . S
N1853 C1855 1.356 . S
N1853 H1858 0.984 . S
N1853 H1859 0.985 . S
C1854 C1848 1.379 . S
C1854 C1851 1.363 . S
C1854 N1852 1.356 . S
C1855 C1849 1.363 . S
C1855 C1850 1.379 . S
C1855 N1853 1.356 . S
N1856 C1848 1.356 1_554 S
N1856 H1862 0.984 . S
N1856 H1863 0.984 . S
N1857 C1850 1.356 . S
N1857 H1860 0.984 . S
N1857 H1861 0.985 . S
H1858 N1853 0.984 . S
H1859 N1853 0.985 . S
H1860 N1857 0.984 . S
H1861 N1857 0.985 . S
H1862 N1856 0.984 . S
H1863 N1856 0.984 . S
H1864 N1852 0.982 1_554 S
H1865 N1852 0.985 . S
C1866 C1867 1.363 . S
C1866 C1872 1.379 . S
C1866 N1874 1.356 . S
C1867 C1866 1.363 . S
C1867 C1873 1.363 . S
C1868 C1869 1.363 . S
C1868 C1873 1.379 . S
C1868 N1875 1.356 . S
C1869 C1868 1.363 . S
C1869 C1872 1.363 . S
N1870 C1872 1.356 . S
N1870 H1882 0.984 . S
N1870 H1883 0.985 . S
N1871 C1873 1.356 . S
N1871 H1876 0.984 . S
N1871 H1877 0.985 . S
C1872 C1866 1.379 . S
C1872 C1869 1.363 . S
C1872 N1870 1.356 . S
C1873 C1867 1.363 . S
C1873 C1868 1.379 . S
C1873 N1871 1.356 . S
N1874 C1866 1.356 . S
N1874 H1880 0.984 1_556 S
N1874 H1881 0.982 . S
N1875 C1868 1.356 . S
N1875 H1878 0.984 . S
N1875 H1879 0.985 . S
H1876 N1871 0.984 . S
H1877 N1871 0.985 . S
H1878 N1875 0.984 . S
H1879 N1875 0.985 . S
H1880 N1874 0.984 1_554 S
H1881 N1874 0.982 . S
H1882 N1870 0.984 . S
H1883 N1870 0.985 . S
C1884 C1885 1.363 . S
C1884 C1890 1.379 . S
C1884 N1892 1.356 . S
C1885 C1884 1.363 . S
C1885 C1891 1.363 . S
C1886 C1887 1.363 . S
C1886 C1891 1.379 . S
C1886 N1893 1.356 . S
C1887 C1886 1.363 . S
C1887 C1890 1.363 . S
N1888 C1890 1.356 . S
N1888 H1900 0.984 . S
N1888 H1901 0.985 . S
N1889 C1891 1.356 . S
N1889 H1894 0.984 . S
N1889 H1895 0.985 . S
C1890 C1884 1.379 . S
C1890 C1887 1.363 . S
C1890 N1888 1.356 . S
C1891 C1885 1.363 . S
C1891 C1886 1.379 . S
C1891 N1889 1.356 . S
N1892 C1884 1.356 . S
N1892 H1898 0.984 . S
N1892 H1899 0.984 . S
N1893 C1886 1.356 . S
N1893 H1896 0.984 . S
N1893 H1897 0.985 . S
H1894 N1889 0.984 . S
H1895 N1889 0.985 . S
H1896 N1893 0.984 . S
H1897 N1893 0.985 . S
H1898 N1892 0.984 . S
H1899 N1892 0.984 . S
H1900 N1888 0.984 . S
H1901 N1888 0.985 . S
C1902 C1903 1.363 . S
C1902 C1908 1.379 . S
C1902 N1910 1.356 . S
C1903 C1902 1.363 . S
C1903 C1909 1.363 . S
C1904 C1905 1.363 . S
C1904 C1909 1.379 . S
C1904 N1911 1.356 . S
C1905 C1904 1.363 . S
C1905 C1908 1.363 . S
N1906 C1908 1.356 . S
N1906 H1918 0.984 . S
N1906 H1919 0.985 . S
N1907 C1909 1.356 . S
N1907 H1912 0.984 . S
N1907 H1913 0.985 . S
C1908 C1902 1.379 . S
C1908 C1905 1.363 . S
C1908 N1906 1.356 . S
C1909 C1903 1.363 . S
C1909 C1904 1.379 . S
C1909 N1907 1.356 . S
N1910 C1902 1.356 . S
N1910 H1916 0.984 . S
N1910 H1917 0.984 . S
N1911 C1904 1.356 . S
N1911 H1914 0.984 . S
N1911 H1915 0.985 . S
H1912 N1907 0.984 . S
H1913 N1907 0.985 . S
H1914 N1911 0.984 . S
H1915 N1911 0.985 . S
H1916 N1910 0.984 . S
H1917 N1910 0.984 . S
H1918 N1906 0.984 . S
H1919 N1906 0.985 . S
C1920 C1921 1.363 . S
C1920 C1926 1.379 . S
C1920 N1928 1.356 . S
C1921 C1920 1.363 . S
C1921 C1927 1.363 . S
C1922 C1923 1.363 . S
C1922 C1927 1.379 . S
C1922 N1929 1.356 . S
C1923 C1922 1.363 . S
C1923 C1926 1.363 . S
N1924 C1926 1.356 . S
N1924 H1936 0.984 . S
N1924 H1937 0.985 . S
N1925 C1927 1.356 . S
N1925 H1930 0.984 . S
N1925 H1931 0.985 . S
C1926 C1920 1.379 . S
C1926 C1923 1.363 . S
C1926 N1924 1.356 . S
C1927 C1921 1.363 . S
C1927 C1922 1.379 . S
C1927 N1925 1.356 . S
N1928 C1920 1.356 . S
N1928 H1934 0.984 . S
N1928 H1935 0.984 . S
N1929 C1922 1.356 . S
N1929 H1932 0.984 . S
N1929 H1933 0.985 . S
H1930 N1925 0.984 . S
H1931 N1925 0.985 . S
H1932 N1929 0.984 . S
H1933 N1929 0.985 . S
H1934 N1928 0.984 . S
H1935 N1928 0.984 . S
H1936 N1924 0.984 . S
H1937 N1924 0.985 . S
C1938 C1939 1.363 . S
C1938 C1944 1.379 . S
C1938 N1946 1.356 . S
C1939 C1938 1.363 . S
C1939 C1945 1.363 . S
C1940 C1941 1.363 . S
C1940 C1945 1.379 . S
C1940 N1947 1.356 . S
C1941 C1940 1.363 . S
C1941 C1944 1.363 . S
N1942 C1944 1.356 . S
N1942 H1954 0.984 . S
N1942 H1955 0.985 . S
N1943 C1945 1.356 . S
N1943 H1948 0.984 . S
N1943 H1949 0.985 . S
C1944 C1938 1.379 . S
C1944 C1941 1.363 . S
C1944 N1942 1.356 . S
C1945 C1939 1.363 . S
C1945 C1940 1.379 . S
C1945 N1943 1.356 . S
N1946 C1938 1.356 . S
N1946 H1952 0.984 . S
N1946 H1953 0.984 . S
N1947 C1940 1.356 . S
N1947 H1950 0.984 . S
N1947 H1951 0.985 . S
H1948 N1943 0.984 . S
H1949 N1943 0.985 . S
H1950 N1947 0.984 . S
H1951 N1947 0.985 . S
H1952 N1946 0.984 . S
H1953 N1946 0.984 . S
H1954 N1942 0.984 . S
H1955 N1942 0.985 . S
C1956 C1957 1.363 . S
C1956 C1962 1.379 . S
C1956 N1964 1.356 . S
C1957 C1956 1.363 . S
C1957 C1963 1.363 . S
C1958 C1959 1.363 . S
C1958 C1963 1.379 . S
C1958 N1965 1.356 . S
C1959 C1958 1.363 . S
C1959 C1962 1.363 . S
N1960 C1962 1.356 . S
N1960 H1972 0.984 . S
N1960 H1973 0.985 . S
N1961 C1963 1.356 . S
N1961 H1966 0.984 . S
N1961 H1967 0.985 . S
C1962 C1956 1.379 . S
C1962 C1959 1.363 . S
C1962 N1960 1.356 . S
C1963 C1957 1.363 . S
C1963 C1958 1.379 . S
C1963 N1961 1.356 . S
N1964 C1956 1.356 . S
N1964 H1970 0.984 . S
N1964 H1971 0.984 . S
N1965 C1958 1.356 . S
N1965 H1968 0.984 . S
N1965 H1969 0.985 . S
H1966 N1961 0.984 . S
H1967 N1961 0.985 . S
H1968 N1965 0.984 . S
H1969 N1965 0.985 . S
H1970 N1964 0.984 . S
H1971 N1964 0.984 . S
H1972 N1960 0.984 . S
H1973 N1960 0.985 . S
C1974 C1975 1.363 . S
C1974 C1980 1.379 . S
C1974 N1982 1.356 . S
C1975 C1974 1.363 . S
C1975 C1981 1.363 . S
C1976 C1977 1.363 . S
C1976 C1981 1.379 . S
C1976 N1983 1.356 . S
C1977 C1976 1.363 . S
C1977 C1980 1.363 . S
N1978 C1980 1.356 . S
N1978 H1990 0.984 . S
N1978 H1991 0.985 . S
N1979 C1981 1.356 . S
N1979 H1984 0.984 . S
N1979 H1985 0.985 . S
C1980 C1974 1.379 . S
C1980 C1977 1.363 . S
C1980 N1978 1.356 . S
C1981 C1975 1.363 . S
C1981 C1976 1.379 . S
C1981 N1979 1.356 . S
N1982 C1974 1.356 . S
N1982 H1988 0.984 . S
N1982 H1989 0.984 . S
N1983 C1976 1.356 . S
N1983 H1986 0.984 . S
N1983 H1987 0.985 . S
H1984 N1979 0.984 . S
H1985 N1979 0.985 . S
H1986 N1983 0.984 . S
H1987 N1983 0.985 . S
H1988 N1982 0.984 . S
H1989 N1982 0.984 . S
H1990 N1978 0.984 . S
H1991 N1978 0.985 . S
C1992 C1993 1.363 . S
C1992 C1998 1.379 . S
C1992 N2000 1.356 . S
C1993 C1992 1.363 . S
C1993 C1999 1.363 . S
C1994 C1995 1.363 . S
C1994 C1999 1.379 . S
C1994 N2001 1.356 . S
C1995 C1994 1.363 . S
C1995 C1998 1.363 . S
N1996 C1998 1.356 . S
N1996 H2008 0.984 . S
N1996 H2009 0.985 . S
N1997 C1999 1.356 . S
N1997 H2002 0.984 . S
N1997 H2003 0.985 . S
C1998 C1992 1.379 . S
C1998 C1995 1.363 . S
C1998 N1996 1.356 . S
C1999 C1993 1.363 . S
C1999 C1994 1.379 . S
C1999 N1997 1.356 . S
N2000 C1992 1.356 . S
N2000 H2006 0.984 . S
N2000 H2007 0.984 . S
N2001 C1994 1.356 . S
N2001 H2004 0.984 . S
N2001 H2005 0.985 . S
H2002 N1997 0.984 . S
H2003 N1997 0.985 . S
H2004 N2001 0.984 . S
H2005 N2001 0.985 . S
H2006 N2000 0.984 . S
H2007 N2000 0.984 . S
H2008 N1996 0.984 . S
H2009 N1996 0.985 . S
C2010 C2011 1.363 . S
C2010 C2016 1.379 . S
C2010 N2018 1.356 . S
C2011 C2010 1.363 . S
C2011 C2017 1.363 . S
C2012 C2013 1.363 . S
C2012 C2017 1.379 . S
C2012 N2019 1.356 . S
C2013 C2012 1.363 . S
C2013 C2016 1.363 . S
N2014 C2016 1.356 . S
N2014 H2026 0.984 . S
N2014 H2027 0.985 . S
N2015 C2017 1.356 . S
N2015 H2020 0.984 . S
N2015 H2021 0.985 . S
C2016 C2010 1.379 . S
C2016 C2013 1.363 . S
C2016 N2014 1.356 . S
C2017 C2011 1.363 . S
C2017 C2012 1.379 . S
C2017 N2015 1.356 . S
N2018 C2010 1.356 . S
N2018 H2024 0.984 . S
N2018 H2025 0.984 . S
N2019 C2012 1.356 . S
N2019 H2022 0.984 . S
N2019 H2023 0.985 . S
H2020 N2015 0.984 . S
H2021 N2015 0.985 . S
H2022 N2019 0.984 . S
H2023 N2019 0.985 . S
H2024 N2018 0.984 . S
H2025 N2018 0.984 . S
H2026 N2014 0.984 . S
H2027 N2014 0.985 . S
C2028 C2029 1.363 . S
C2028 C2034 1.379 . S
C2028 N2036 1.356 . S
C2029 C2028 1.363 . S
C2029 C2035 1.363 . S
C2030 C2031 1.363 . S
C2030 C2035 1.379 . S
C2030 N2037 1.356 . S
C2031 C2030 1.363 . S
C2031 C2034 1.363 . S
N2032 C2034 1.356 . S
N2032 H2044 0.984 . S
N2032 H2045 0.985 . S
N2033 C2035 1.356 . S
N2033 H2038 0.984 . S
N2033 H2039 0.985 1_565 S
C2034 C2028 1.379 . S
C2034 C2031 1.363 . S
C2034 N2032 1.356 . S
C2035 C2029 1.363 . S
C2035 C2030 1.379 . S
C2035 N2033 1.356 . S
N2036 C2028 1.356 . S
N2036 H2042 0.984 . S
N2036 H2043 0.984 . S
N2037 C2030 1.356 . S
N2037 H2040 0.984 . S
N2037 H2041 0.985 . S
H2038 N2033 0.984 . S
H2039 N2033 0.985 1_545 S
H2040 N2037 0.984 . S
H2041 N2037 0.985 . S
H2042 N2036 0.984 . S
H2043 N2036 0.984 . S
H2044 N2032 0.984 . S
H2045 N2032 0.985 . S
C2046 C2047 1.363 . S
C2046 C2052 1.379 . S
C2046 N2054 1.356 . S
C2047 C2046 1.363 . S
C2047 C2053 1.363 . S
C2048 C2049 1.363 . S
C2048 C2053 1.379 . S
C2048 N2055 1.356 . S
C2049 C2048 1.363 . S
C2049 C2052 1.363 . S
N2050 C2052 1.356 . S
N2050 H2062 0.984 . S
N2050 H2063 0.985 . S
N2051 C2053 1.356 . S
N2051 H2056 0.984 . S
N2051 H2057 0.985 . S
C2052 C2046 1.379 . S
C2052 C2049 1.363 . S
C2052 N2050 1.356 . S
C2053 C2047 1.363 . S
C2053 C2048 1.379 . S
C2053 N2051 1.356 . S
N2054 C2046 1.356 . S
N2054 H2060 0.984 . S
N2054 H2061 0.984 . S
N2055 C2048 1.356 . S
N2055 H2058 0.984 . S
N2055 H2059 0.985 . S
H2056 N2051 0.984 . S
H2057 N2051 0.985 . S
H2058 N2055 0.984 . S
H2059 N2055 0.985 . S
H2060 N2054 0.984 . S
H2061 N2054 0.984 . S
H2062 N2050 0.984 . S
H2063 N2050 0.985 . S
C2064 C2065 1.363 . S
C2064 C2070 1.379 . S
C2064 N2072 1.356 . S
C2065 C2064 1.363 . S
C2065 C2071 1.363 . S
C2066 C2067 1.363 . S
C2066 C2071 1.379 . S
C2066 N2073 1.356 . S
C2067 C2066 1.363 . S
C2067 C2070 1.363 . S
N2068 C2070 1.356 . S
N2068 H2080 0.984 . S
N2068 H2081 0.985 . S
N2069 C2071 1.356 . S
N2069 H2074 0.984 . S
N2069 H2075 0.985 . S
C2070 C2064 1.379 . S
C2070 C2067 1.363 . S
C2070 N2068 1.356 . S
C2071 C2065 1.363 . S
C2071 C2066 1.379 . S
C2071 N2069 1.356 . S
N2072 C2064 1.356 . S
N2072 H2078 0.984 . S
N2072 H2079 0.984 . S
N2073 C2066 1.356 . S
N2073 H2076 0.984 . S
N2073 H2077 0.985 . S
H2074 N2069 0.984 . S
H2075 N2069 0.985 . S
H2076 N2073 0.984 . S
H2077 N2073 0.985 . S
H2078 N2072 0.984 . S
H2079 N2072 0.984 . S
H2080 N2068 0.984 . S
H2081 N2068 0.985 . S
C2082 C2083 1.363 . S
C2082 C2088 1.379 . S
C2082 N2090 1.356 . S
C2083 C2082 1.363 . S
C2083 C2089 1.363 . S
C2084 C2085 1.363 . S
C2084 C2089 1.379 . S
C2084 N2091 1.356 . S
C2085 C2084 1.363 . S
C2085 C2088 1.363 . S
N2086 C2088 1.356 . S
N2086 H2098 0.984 . S
N2086 H2099 0.985 . S
N2087 C2089 1.356 . S
N2087 H2092 0.984 . S
N2087 H2093 0.985 . S
C2088 C2082 1.379 . S
C2088 C2085 1.363 . S
C2088 N2086 1.356 . S
C2089 C2083 1.363 . S
C2089 C2084 1.379 . S
C2089 N2087 1.356 . S
N2090 C2082 1.356 . S
N2090 H2096 0.984 . S
N2090 H2097 0.984 . S
N2091 C2084 1.356 . S
N2091 H2094 0.984 . S
N2091 H2095 0.985 . S
H2092 N2087 0.984 . S
H2093 N2087 0.985 . S
H2094 N2091 0.984 . S
H2095 N2091 0.985 . S
H2096 N2090 0.984 . S
H2097 N2090 0.984 . S
H2098 N2086 0.984 . S
H2099 N2086 0.985 . S
C2100 C2101 1.363 . S
C2100 C2106 1.379 . S
C2100 N2108 1.356 . S
C2101 C2100 1.363 . S
C2101 C2107 1.363 . S
C2102 C2103 1.363 . S
C2102 C2107 1.379 . S
C2102 N2109 1.356 . S
C2103 C2102 1.363 . S
C2103 C2106 1.363 . S
N2104 C2106 1.356 . S
N2104 H2116 0.984 . S
N2104 H2117 0.985 . S
N2105 C2107 1.356 . S
N2105 H2110 0.984 . S
N2105 H2111 0.985 . S
C2106 C2100 1.379 . S
C2106 C2103 1.363 . S
C2106 N2104 1.356 . S
C2107 C2101 1.363 . S
C2107 C2102 1.379 . S
C2107 N2105 1.356 . S
N2108 C2100 1.356 . S
N2108 H2114 0.984 . S
N2108 H2115 0.984 . S
N2109 C2102 1.356 . S
N2109 H2112 0.984 . S
N2109 H2113 0.985 . S
H2110 N2105 0.984 . S
H2111 N2105 0.985 . S
H2112 N2109 0.984 . S
H2113 N2109 0.985 . S
H2114 N2108 0.984 . S
H2115 N2108 0.984 . S
H2116 N2104 0.984 . S
H2117 N2104 0.985 . S
C2118 C2119 1.363 . S
C2118 C2124 1.379 . S
C2118 N2126 1.356 . S
C2119 C2118 1.363 . S
C2119 C2125 1.363 . S
C2120 C2121 1.363 . S
C2120 C2125 1.379 . S
C2120 N2127 1.356 . S
C2121 C2120 1.363 . S
C2121 C2124 1.363 . S
N2122 C2124 1.356 . S
N2122 H2134 0.984 . S
N2122 H2135 0.985 . S
N2123 C2125 1.356 . S
N2123 H2128 0.984 . S
N2123 H2129 0.985 . S
C2124 C2118 1.379 . S
C2124 C2121 1.363 . S
C2124 N2122 1.356 . S
C2125 C2119 1.363 . S
C2125 C2120 1.379 . S
C2125 N2123 1.356 . S
N2126 C2118 1.356 . S
N2126 H2132 0.984 . S
N2126 H2133 0.984 . S
N2127 C2120 1.356 . S
N2127 H2130 0.984 . S
N2127 H2131 0.985 . S
H2128 N2123 0.984 . S
H2129 N2123 0.985 . S
H2130 N2127 0.984 . S
H2131 N2127 0.985 . S
H2132 N2126 0.984 . S
H2133 N2126 0.984 . S
H2134 N2122 0.984 . S
H2135 N2122 0.985 . S
C1273 C1205 1.901 . S
C1275 C39 1.903 . S
C1291 C92 1.473 . S
C1293 C1241 1.472 . S
C1309 C1098 1.593 . S
C1311 C128 1.597 . S
C1327 C1142 1.355 . S
C1329 C188 1.357 . S
C1345 C1135 1.299 . S
C1347 C234 1.298 . S
C1363 C304 1.854 . S
C1365 C1204 1.857 . S
C1381 C1248 1.477 . S
C1383 C356 1.482 . S
C1399 C393 1.715 . S
C1401 C1099 1.714 . S
C1417 C462 1.718 . S
C1419 C1029 1.718 . S
C1435 C886 1.513 . S
C1437 C499 1.516 . S
C1453 C552 1.669 . S
C1455 C939 1.669 . S
C1471 C992 1.601 . S
C1473 C622 1.603 . S
C1489 C621 1.572 . S
C1491 C727 1.573 . S
C1507 C463 1.718 . S
C1509 C781 1.718 . S
C1525 C824 1.335 . S
C1527 C506 1.334 . S
C1543 C559 1.685 . S
C1545 C665 1.685 . S
C1561 C91 1.623 . S
C1563 C993 1.618 . S
C1579 C780 1.692 . S
C1581 C400 1.691 . S
C1597 C241 1.222 . S
C1599 C817 1.225 . S
C1615 C658 1.835 . S
C1617 C303 1.834 . S
C1633 C357 1.583 . S
C1635 C728 1.582 . S
C1651 C181 1.380 . S
C1653 C887 1.381 . S
C1669 C38 1.878 . S
C1671 C940 1.880 . S
C1687 C135 1.521 . S
C1689 C1036 1.519 . S
C1705 C347 1.287 . S
C1707 C1089 1.287 . S
C1723 C1151 1.519 . S
C1725 C410 1.519 . S
C1741 C1188 1.422 . S
C1743 C251 1.422 . S
C1759 C1258 1.721 . S
C1761 C287 1.720 . S
C1777 C145 1.853 . S
C1779 C1257 1.856 . S
C1795 C197 1.227 . S
C1797 C1082 1.224 . S
C1813 C22 1.535 . S
C1815 C1152 1.538 . S
C1831 C1195 1.363 . S
C1833 C75 1.362 . S
C1849 C569 1.483 . S
C1851 C718 1.483 . S
C1867 C605 1.583 . S
C1869 C764 1.585 . S
C1885 C453 1.178 . S
C1887 C833 1.179 . S
C1903 C516 1.525 . S
C1905 C674 1.531 . S
C1921 C515 1.573 . S
C1923 C1046 1.568 . S
C1939 C877 1.257 . S
C1941 C568 1.257 . S
C1957 C612 1.573 . S
C1959 C930 1.576 . S
C1975 C446 1.252 . S
C1977 C983 1.255 . S
C1993 C675 1.597 . S
C1995 C409 1.598 . S
C2011 C870 1.257 . S
C2013 C82 1.256 . S
C2029 C144 1.674 . S
C2031 C923 1.671 . S
C2047 C976 1.272 . S
C2049 C198 1.269 . S
C2065 C1045 1.601 . S
C2067 C29 1.599 . S
C2083 C294 1.498 . S
C2085 C771 1.496 . S
C2101 C834 1.310 . S
C2103 C340 1.306 . S
C2119 C711 1.431 . S
C2121 C250 1.432 . S
