# Generated by pormake.
# Topology cdt, (3)-cn, num edge types: 1
# Building blocks:
#     Node 0, Type 0, BuildingBlock: WUSLED_clean_sbu_0, # of connection points: 3
#     Node 1, Type 0, BuildingBlock: WUSLED_clean_sbu_0, # of connection points: 3
#     Node 2, Type 0, BuildingBlock: WUSLED_clean_sbu_0, # of connection points: 3
#     Node 3, Type 0, BuildingBlock: WUSLED_clean_sbu_0, # of connection points: 3
#     Node 4, Type 0, BuildingBlock: WUSLED_clean_sbu_0, # of connection points: 3
#     Node 5, Type 0, BuildingBlock: WUSLED_clean_sbu_0, # of connection points: 3
#     Node 6, Type 0, BuildingBlock: WUSLED_clean_sbu_0, # of connection points: 3
#     Node 7, Type 0, BuildingBlock: WUSLED_clean_sbu_0, # of connection points: 3
#     Edge 8, Type (0, 0), BuildingBlock: CIFDUS_clean_linker_0, # of connection points: 2
#     Edge 9, Type (0, 0), BuildingBlock: CIFDUS_clean_linker_0, # of connection points: 2
#     Edge 10, Type (0, 0), BuildingBlock: CIFDUS_clean_linker_0, # of connection points: 2
#     Edge 11, Type (0, 0), BuildingBlock: CIFDUS_clean_linker_0, # of connection points: 2
#     Edge 12, Type (0, 0), BuildingBlock: CIFDUS_clean_linker_0, # of connection points: 2
#     Edge 13, Type (0, 0), BuildingBlock: CIFDUS_clean_linker_0, # of connection points: 2
#     Edge 14, Type (0, 0), BuildingBlock: CIFDUS_clean_linker_0, # of connection points: 2
#     Edge 15, Type (0, 0), BuildingBlock: CIFDUS_clean_linker_0, # of connection points: 2
#     Edge 16, Type (0, 0), BuildingBlock: CIFDUS_clean_linker_0, # of connection points: 2
#     Edge 17, Type (0, 0), BuildingBlock: CIFDUS_clean_linker_0, # of connection points: 2
#     Edge 18, Type (0, 0), BuildingBlock: CIFDUS_clean_linker_0, # of connection points: 2
#     Edge 19, Type (0, 0), BuildingBlock: CIFDUS_clean_linker_0, # of connection points: 2
# Relax obj value: 0.075
# Max RMSD: 0.067
# Mean RMSD: 0.067
data_MOF--net-cdt--node1-WUSLED_clean_sbu_0--edge1-CIFDUS_clean_linker_0
_symmetry_space_group_name_H-M    P1
_symmetry_Int_Tables_number       1
_symmetry_cell_setting            triclinic
loop_
_symmetry_equiv_pos_as_xyz
'x, y, z'
_cell_length_a     41.314301
_cell_length_b     28.696508
_cell_length_c     66.262087
_cell_angle_alpha  89.966142
_cell_angle_beta   90.292834
_cell_angle_gamma 90.160895
loop_
_atom_site_label
_atom_site_type_symbol
_atom_site_fract_x
_atom_site_fract_y
_atom_site_fract_z
_atom_type_partial_charge
C0 C 0.38801 0.1952 0.09324 0.0
C1 C 0.37522 0.17589 0.11094 0.0
C2 C 0.33637 0.13116 0.09116 0.0
C3 C 0.34955 0.14428 0.10992 0.0
C4 C 0.34977 0.14975 0.07341 0.0
C5 C 0.37537 0.18175 0.07446 0.0
U6 U 0.45039 0.25801 0.1247 0.0
O7 O 0.4994 0.28342 0.11776 0.0
O8 O 0.46181 0.33263 0.12715 0.0
C9 C 0.49096 0.32736 0.11967 0.0
C10 C 0.41388 0.23024 0.09452 0.0
C11 C 0.49793 0.3571 0.10219 0.0
C12 C 0.48831 0.37751 0.06712 0.0
C13 C 0.48317 0.34783 0.08351 0.0
C14 C 0.52332 0.42584 0.08787 0.0
C15 C 0.50823 0.41709 0.06914 0.0
C16 C 0.51814 0.39607 0.10428 0.0
C17 C 0.45555 0.22076 0.18045 0.0
C18 C 0.48679 0.26122 0.20621 0.0
C19 C 0.45221 0.1963 0.21539 0.0
C20 C 0.44327 0.19076 0.19521 0.0
C21 C 0.47371 0.23202 0.22122 0.0
C22 C 0.47773 0.25566 0.18595 0.0
C23 C 0.44318 0.2167 0.15974 0.0
O24 O 0.40696 0.26641 0.10584 0.0
O25 O 0.44305 0.2137 0.0979 0.0
O26 O 0.46387 0.20247 0.14607 0.0
O27 O 0.42503 0.25148 0.15359 0.0
H28 H 0.38488 0.1857 0.12558 0.0
H29 H 0.34007 0.12996 0.12383 0.0
H30 H 0.33998 0.14035 0.05877 0.0
H31 H 0.38502 0.19637 0.06066 0.0
H32 H 0.4767 0.36942 0.05285 0.0
H33 H 0.4674 0.31787 0.08168 0.0
H34 H 0.5385 0.45629 0.08998 0.0
H35 H 0.52952 0.40384 0.11866 0.0
H36 H 0.50364 0.28875 0.21015 0.0
H37 H 0.44118 0.17372 0.22652 0.0
H38 H 0.42597 0.16381 0.19119 0.0
H39 H 0.48742 0.27915 0.17467 0.0
C40 C 0.16171 0.85232 0.08541 0.0
C41 C 0.17343 0.87633 0.10237 0.0
C42 C 0.20737 0.92468 0.08088 0.0
C43 C 0.19612 0.91202 0.10014 0.0
C44 C 0.19512 0.9009 0.06388 0.0
C45 C 0.17247 0.86493 0.06615 0.0
U46 U 0.10837 0.78167 0.11972 0.0
O47 O 0.06118 0.74766 0.11492 0.0
O48 O 0.10354 0.70588 0.12342 0.0
C49 C 0.07327 0.70564 0.11722 0.0
C50 C 0.1392 0.81318 0.08802 0.0
C51 C 0.06629 0.67302 0.10074 0.0
C52 C 0.07248 0.64969 0.06579 0.0
C53 C 0.07836 0.68147 0.08134 0.0
C54 C 0.04226 0.60079 0.08889 0.0
C55 C 0.05445 0.60888 0.0694 0.0
C56 C 0.04817 0.63265 0.10444 0.0
C57 C 0.10365 0.81914 0.17507 0.0
C58 C 0.09524 0.76969 0.20436 0.0
C59 C 0.08814 0.85321 0.20712 0.0
C60 C 0.09577 0.8582 0.18671 0.0
C61 C 0.08853 0.80899 0.21632 0.0
C62 C 0.10258 0.77469 0.18391 0.0
C63 C 0.1146 0.82573 0.15417 0.0
O64 O 0.15029 0.77946 0.09953 0.0
O65 O 0.1092 0.82477 0.0922 0.0
O66 O 0.09204 0.83602 0.14084 0.0
O67 O 0.13568 0.79513 0.14757 0.0
H68 H 0.16542 0.86688 0.11737 0.0
H69 H 0.20541 0.92892 0.11359 0.0
H70 H 0.20299 0.91012 0.04883 0.0
H71 H 0.16358 0.84671 0.05291 0.0
H72 H 0.08183 0.65725 0.0509 0.0
H73 H 0.09244 0.71258 0.07827 0.0
H74 H 0.02862 0.56945 0.09222 0.0
H75 H 0.03885 0.62557 0.11939 0.0
H76 H 0.09615 0.73516 0.21094 0.0
H77 H 0.08248 0.88412 0.21577 0.0
H78 H 0.09623 0.89276 0.1801 0.0
H79 H 0.10836 0.74394 0.17518 0.0
C80 C 0.39153 0.35339 0.46506 0.0
C81 C 0.37544 0.37159 0.44811 0.0
C82 C 0.34399 0.4227 0.46968 0.0
C83 C 0.35178 0.40576 0.45042 0.0
C84 C 0.36069 0.40516 0.4866 0.0
C85 C 0.38421 0.37056 0.48429 0.0
U86 U 0.44866 0.28767 0.43132 0.0
O87 O 0.49693 0.25784 0.4368 0.0
O88 O 0.45662 0.21251 0.4276 0.0
C89 C 0.48658 0.21484 0.43427 0.0
C90 C 0.41562 0.31628 0.4626 0.0
C91 C 0.49411 0.18249 0.45079 0.0
C92 C 0.48691 0.1574 0.48548 0.0
C93 C 0.48103 0.18951 0.47004 0.0
C94 C 0.5193 0.11117 0.46263 0.0
C95 C 0.50593 0.11766 0.48192 0.0
C96 C 0.51338 0.14334 0.44719 0.0
C97 C 0.45249 0.32775 0.37608 0.0
C98 C 0.48525 0.29037 0.35045 0.0
C99 C 0.44667 0.35008 0.34097 0.0
C100 C 0.43796 0.35525 0.36116 0.0
C101 C 0.47021 0.31729 0.3353 0.0
C102 C 0.4764 0.29551 0.3707 0.0
C103 C 0.44115 0.33191 0.39694 0.0
O104 O 0.40629 0.28157 0.451 0.0
O105 O 0.44524 0.33053 0.45882 0.0
O106 O 0.46307 0.34366 0.41048 0.0
O107 O 0.42181 0.29836 0.403 0.0
H108 H 0.38102 0.3591 0.4331 0.0
H109 H 0.33968 0.41917 0.43709 0.0
H110 H 0.35509 0.41753 0.50162 0.0
H111 H 0.39651 0.35697 0.49752 0.0
H112 H 0.47662 0.16375 0.50022 0.0
H113 H 0.46602 0.21961 0.47304 0.0
H114 H 0.53372 0.08068 0.45933 0.0
H115 H 0.52347 0.13731 0.43236 0.0
H116 H 0.50365 0.26511 0.34664 0.0
H117 H 0.43411 0.37074 0.32973 0.0
H118 H 0.4193 0.38008 0.36507 0.0
H119 H 0.48781 0.27393 0.3821 0.0
C120 C 0.15159 0.6743 0.46009 0.0
C121 C 0.15852 0.64764 0.44294 0.0
C122 C 0.19495 0.59879 0.46263 0.0
C123 C 0.18001 0.61034 0.44417 0.0
C124 C 0.1877 0.62545 0.47986 0.0
C125 C 0.16616 0.66297 0.47858 0.0
U126 U 0.09848 0.748 0.42712 0.0
O127 O 0.05191 0.78299 0.43224 0.0
O128 O 0.09465 0.8239 0.4236 0.0
C129 C 0.06435 0.82474 0.42954 0.0
C130 C 0.13005 0.71469 0.45833 0.0
C131 C 0.05708 0.85894 0.4453 0.0
C132 C 0.06571 0.89031 0.47892 0.0
C133 C 0.07234 0.85674 0.46423 0.0
C134 C 0.02831 0.92821 0.45592 0.0
C135 C 0.04369 0.92655 0.4749 0.0
C136 C 0.03498 0.89467 0.44125 0.0
C137 C 0.091 0.71264 0.3719 0.0
C138 C 0.07088 0.7654 0.34612 0.0
C139 C 0.08548 0.68625 0.33729 0.0
C140 C 0.09367 0.67739 0.35741 0.0
C141 C 0.07467 0.73066 0.33136 0.0
C142 C 0.07891 0.75641 0.36627 0.0
C143 C 0.10283 0.70428 0.3925 0.0
O144 O 0.14132 0.74841 0.4469 0.0
O145 O 0.09953 0.70467 0.45455 0.0
O146 O 0.08062 0.69441 0.40598 0.0
O147 O 0.12452 0.7344 0.39898 0.0
H148 H 0.1476 0.65615 0.42849 0.0
H149 H 0.18544 0.59117 0.43053 0.0
H150 H 0.19855 0.6172 0.49434 0.0
H151 H 0.16107 0.68329 0.49197 0.0
H152 H 0.07823 0.88833 0.49329 0.0
H153 H 0.08955 0.82933 0.46755 0.0
H154 H 1.01089 0.95523 0.45244 0.0
H155 H 1.02294 0.89671 0.42671 0.0
H156 H 0.06229 0.79977 0.34202 0.0
H157 H 0.08898 0.65896 0.32624 0.0
H158 H 0.103 0.64343 0.36155 0.0
H159 H 0.07657 0.78396 0.37734 0.0
C160 C 0.67205 0.82507 0.95611 0.0
C161 C 0.68225 0.84728 0.93838 0.0
C162 C 0.72101 0.89342 0.95763 0.0
C163 C 0.70657 0.88108 0.93912 0.0
C164 C 0.71015 0.87187 0.97544 0.0
C165 C 0.68588 0.83775 0.97466 0.0
U166 U 0.61288 0.75541 0.92498 0.0
O167 O 0.60503 0.67979 0.92294 0.0
O168 O 0.56516 0.72548 0.93201 0.0
C169 C 0.57559 0.68241 0.93026 0.0
C170 C 0.64795 0.78751 0.95501 0.0
C171 C 0.56959 0.65227 0.94774 0.0
C172 C 0.57986 0.63211 0.98278 0.0
C173 C 0.5846 0.66178 0.96633 0.0
C174 C 0.54482 0.5833 0.96227 0.0
C175 C 0.56005 0.59238 0.98092 0.0
C176 C 0.54961 0.61302 0.9458 0.0
C177 C 0.60559 0.79102 0.86883 0.0
C178 C 0.59965 0.7456 0.83806 0.0
C179 C 0.58815 0.82831 0.83771 0.0
C180 C 0.59547 0.83081 0.85829 0.0
C181 C 0.59107 0.78594 0.8272 0.0
C182 C 0.60677 0.74808 0.85869 0.0
C183 C 0.61771 0.79622 0.88968 0.0
O184 O 0.61803 0.80097 0.95156 0.0
O185 O 0.65663 0.7519 0.94384 0.0
O186 O 0.63788 0.76404 0.89612 0.0
O187 O 0.59656 0.80904 0.90334 0.0
H188 H 0.67169 0.83798 0.92392 0.0
H189 H 0.71408 0.89759 0.9252 0.0
H190 H 0.72096 0.88055 0.98989 0.0
H191 H 0.67827 0.82082 0.98847 0.0
H192 H 0.59158 0.64043 0.99699 0.0
H193 H 0.60014 0.69202 0.96805 0.0
H194 H 0.52973 0.55271 0.96027 0.0
H195 H 0.53799 0.6051 0.93151 0.0
H196 H 0.60245 0.71248 0.83046 0.0
H197 H 0.58103 0.85986 0.82991 0.0
H198 H 0.5943 0.86425 0.86584 0.0
H199 H 0.6144 0.71676 0.86648 0.0
C200 C 0.88945 0.18035 0.96556 0.0
C201 C 0.87661 0.15904 0.94825 0.0
C202 C 0.84522 0.10586 0.96911 0.0
C203 C 0.85462 0.12228 0.94999 0.0
C204 C 0.85857 0.12699 0.98645 0.0
C205 C 0.8805 0.16402 0.98466 0.0
U206 U 0.93998 0.25821 0.93239 0.0
O207 O 0.94373 0.3345 0.93104 0.0
O208 O 0.987 0.29262 0.93735 0.0
C209 C 0.97435 0.33457 0.93651 0.0
C210 C 0.91132 0.22044 0.96361 0.0
C211 C 0.98208 0.36504 0.95362 0.0
C212 C 0.97675 0.38495 0.98903 0.0
C213 C 0.97031 0.35482 0.97294 0.0
C214 C 1.00703 0.43552 0.96664 0.0
C215 C 0.99506 0.42577 0.98604 0.0
C216 C 1.00055 0.40537 0.95055 0.0
C217 C 0.94248 0.23263 0.8761 0.0
C218 C 0.95896 0.29039 0.85138 0.0
C219 C 0.94755 0.2111 0.84086 0.0
C220 C 0.94069 0.19901 0.86082 0.0
C221 C 0.95613 0.25715 0.83588 0.0
C222 C 0.95231 0.27817 0.87136 0.0
C223 C 0.93238 0.22049 0.89664 0.0
O224 O 0.94117 0.2104 0.95841 0.0
O225 O 0.89917 0.25567 0.95344 0.0
O226 O 0.91132 0.24912 0.90472 0.0
O227 O 0.9557 0.20839 0.90913 0.0
H228 H 0.88323 0.17137 0.93336 0.0
H229 H 0.84446 0.10744 0.93633 0.0
H230 H 0.85215 0.11485 1.00138 0.0
H231 H 0.89027 0.18011 0.99818 0.0
H232 H 0.96754 0.37618 1.00383 0.0
H233 H 0.95598 0.32371 0.97552 0.0
H234 H 1.02085 0.46695 0.96378 0.0
H235 H 1.00964 0.4138 0.93568 0.0
H236 H 0.96584 0.32599 0.848 0.0
H237 H 0.94484 0.18488 0.82922 0.0
H238 H 0.93313 0.1637 0.86425 0.0
H239 H 0.95403 0.30451 0.88303 0.0
C240 C 0.67093 0.68529 0.5813 0.0
C241 C 0.68306 0.66234 0.59841 0.0
C242 C 0.71599 0.6123 0.57714 0.0
C243 C 0.70546 0.62635 0.59637 0.0
C244 C 0.70345 0.63517 0.56 0.0
C245 C 0.68111 0.67143 0.56209 0.0
U246 U 0.61454 0.75427 0.61435 0.0
O247 O 0.6087 0.82989 0.61802 0.0
O248 O 0.56746 0.78708 0.60815 0.0
C249 C 0.57891 0.8294 0.61098 0.0
C250 C 0.64813 0.72407 0.58357 0.0
C251 C 0.57261 0.86248 0.59454 0.0
C252 C 0.58077 0.88784 0.55997 0.0
C253 C 0.58614 0.85552 0.57541 0.0
C254 C 0.54817 0.93426 0.58263 0.0
C255 C 0.56181 0.92769 0.56342 0.0
C256 C 0.55357 0.90189 0.59806 0.0
C257 C 0.60566 0.71463 0.66925 0.0
C258 C 0.58329 0.76278 0.69586 0.0
C259 C 0.59877 0.68298 0.70292 0.0
C260 C 0.60818 0.67744 0.68284 0.0
C261 C 0.58678 0.72598 0.70975 0.0
C262 C 0.59261 0.75711 0.67574 0.0
C263 C 0.61842 0.70922 0.64875 0.0
O264 O 0.61788 0.7119 0.58672 0.0
O265 O 0.65815 0.75758 0.5956 0.0
O266 O 0.63937 0.7412 0.64314 0.0
O267 O 0.59708 0.6989 0.63466 0.0
H268 H 0.67545 0.67265 0.61338 0.0
H269 H 0.71497 0.61014 0.60991 0.0
H270 H 0.71072 0.62488 0.54498 0.0
H271 H 0.67186 0.68873 0.54872 0.0
H272 H 0.59127 0.88144 0.54529 0.0
H273 H 0.60094 0.82518 0.57247 0.0
H274 H 0.53381 0.96485 0.58586 0.0
H275 H 0.5431 0.90785 0.61279 0.0
H276 H 0.57381 0.79614 0.70062 0.0
H277 H 0.60215 0.65416 0.71327 0.0
H278 H 0.61826 0.64444 0.67806 0.0
H279 H 0.59035 0.78616 0.66537 0.0
C280 C 0.88826 0.33095 0.58789 0.0
C281 C 0.87745 0.35193 0.60572 0.0
C282 C 0.83951 0.39931 0.58654 0.0
C283 C 0.85324 0.38568 0.60507 0.0
C284 C 0.85102 0.37912 0.56861 0.0
C285 C 0.87517 0.34497 0.5693 0.0
U286 U 0.94595 0.26132 0.61955 0.0
O287 O 0.95342 0.18585 0.62227 0.0
O288 O 0.99391 0.23124 0.6136 0.0
C289 C 0.98353 0.18825 0.61605 0.0
C290 C 0.91224 0.29333 0.58896 0.0
C291 C 0.99192 0.1554 0.59998 0.0
C292 C 0.98406 0.1248 0.56615 0.0
C293 C 0.97681 0.15772 0.58101 0.0
C294 C 1.02185 0.08742 0.58907 0.0
C295 C 1.0065 0.08904 0.57009 0.0
C296 C 1.01459 0.12034 0.60388 0.0
C297 C 0.95208 0.2938 0.6754 0.0
C298 C 0.96339 0.24168 0.70345 0.0
C299 C 0.96738 0.32524 0.7081 0.0
C300 C 0.95888 0.33203 0.68787 0.0
C301 C 0.96892 0.28 0.71628 0.0
C302 C 0.95521 0.24851 0.68318 0.0
C303 C 0.93997 0.30185 0.65477 0.0
O304 O 0.9421 0.30673 0.59281 0.0
O305 O 0.90313 0.25738 0.59986 0.0
O306 O 0.91948 0.27051 0.64784 0.0
O307 O 0.96158 0.31492 0.6414 0.0
H308 H 0.88743 0.34166 0.62021 0.0
H309 H 0.84522 0.40114 0.61908 0.0
H310 H 0.84077 0.38886 0.55414 0.0
H311 H 0.88327 0.32905 0.5554 0.0
H312 H 0.97158 0.12672 0.55177 0.0
H313 H 0.95913 0.18459 0.5778 0.0
H314 H 0.03958 0.06077 0.59247 0.0
H315 H 1.02649 0.11817 0.61847 0.0
H316 H 0.96402 0.20639 0.70922 0.0
H317 H 0.97213 0.3555 0.71742 0.0
H318 H 0.95685 0.36723 0.68208 0.0
H319 H 0.95031 0.21841 0.67378 0.0
H320 H 0.32859 0.05561 0.06674 0.0
H321 H 0.28162 0.13382 0.11378 0.0
H322 H 0.23676 0.07828 0.11393 0.0
H323 H 0.21175 1.0064 0.10152 0.0
H324 H 0.25959 0.9259 0.05551 0.0
H325 H 0.30267 0.98416 0.05369 0.0
C326 C 0.30833 0.06069 0.07685 0.0
C327 C 0.30849 0.09855 0.09031 0.0
C328 C 0.28272 0.02836 0.07698 0.0
C329 C 0.28225 0.10456 0.10347 0.0
C330 C 0.25654 0.07295 0.1035 0.0
C331 C 0.23168 1.0014 0.09116 0.0
C332 C 0.23246 0.96163 0.07877 0.0
C333 C 0.25673 0.03444 0.09051 0.0
C334 C 0.25813 0.95637 0.0651 0.0
C335 C 0.28295 0.9895 0.06415 0.0
H336 H 0.28437 0.42238 0.45254 0.0
H337 H 0.34617 0.50276 0.49202 0.0
H338 H 0.30484 0.56354 0.49417 0.0
H339 H 0.25237 0.59562 0.4832 0.0
H340 H 0.19044 0.51393 0.44416 0.0
H341 H 0.2308 0.45218 0.44324 0.0
C342 C 0.28877 0.45327 0.46159 0.0
C343 C 0.31833 0.45833 0.47196 0.0
C344 C 0.26499 0.48794 0.46272 0.0
C345 C 0.32353 0.49805 0.48395 0.0
C346 C 0.29998 0.53286 0.4851 0.0
C347 C 0.24746 0.564 0.47476 0.0
C348 C 0.2185 0.55972 0.4636 0.0
C349 C 0.27075 0.52839 0.47437 0.0
C350 C 0.21275 0.51862 0.45257 0.0
C351 C 0.23575 0.48314 0.45211 0.0
H352 H 0.84053 0.02774 0.94602 0.0
H353 H 0.79533 0.09805 0.99603 0.0
H354 H 0.75391 0.03729 0.99761 0.0
H355 H 0.72879 0.96628 0.98357 0.0
H356 H 0.77318 0.89805 0.93278 0.0
H357 H 0.8162 0.9565 0.93244 0.0
C358 C 0.82152 0.03 0.9572 0.0
C359 C 0.82103 0.06759 0.97081 0.0
C360 C 0.79742 0.99551 0.95776 0.0
C361 C 0.79656 0.0693 0.98549 0.0
C362 C 0.77269 0.03474 0.98631 0.0
C363 C 0.74808 0.96402 0.97258 0.0
C364 C 0.7477 0.92809 0.95815 0.0
C365 C 0.77268 0.99794 0.97238 0.0
C366 C 0.77268 0.92578 0.94386 0.0
C367 C 0.79737 0.95904 0.94371 0.0
H368 H 0.71967 0.53175 0.59872 0.0
H369 H 0.76719 0.60777 0.55103 0.0
H370 H 0.80855 0.54735 0.54889 0.0
H371 H 0.8329 0.47477 0.56185 0.0
H372 H 0.7862 0.40094 0.61044 0.0
H373 H 0.74326 0.45915 0.61122 0.0
C374 C 0.73918 0.53536 0.58794 0.0
C375 C 0.74033 0.57445 0.57514 0.0
C376 C 0.76323 0.50101 0.58706 0.0
C377 C 0.76545 0.57787 0.56095 0.0
C378 C 0.78928 0.54348 0.55981 0.0
C379 C 0.81313 0.47126 0.57245 0.0
C380 C 0.81282 0.43379 0.58615 0.0
C381 C 0.7886 0.50512 0.57293 0.0
C382 C 0.78721 0.42984 0.59993 0.0
C383 C 0.76258 0.46298 0.60034 0.0
H384 H 0.56407 0.45891 0.05685 0.0
H385 H 0.46226 0.44825 0.04264 0.0
H386 H 0.46932 0.50099 1.01409 0.0
H387 H 0.50423 0.55092 0.99337 0.0
H388 H 0.60605 0.56165 1.00753 0.0
H389 H 0.59899 0.50904 0.03615 0.0
C390 C 0.54338 0.46844 0.04761 0.0
C391 C 0.51272 0.4495 0.05186 0.0
C392 C 0.54756 0.49903 0.03127 0.0
C393 C 0.48624 0.46175 0.03955 0.0
C394 C 0.4902 0.49214 1.02328 0.0
C395 C 0.52493 0.54143 1.00261 0.0
C396 C 0.5556 0.56027 0.99831 0.0
C397 C 0.52075 0.51093 1.01898 0.0
C398 C 0.58208 0.54816 1.01065 0.0
C399 C 0.57811 0.51785 0.02696 0.0
H400 H 0.05138 0.4704 0.99532 0.0
H401 H 0.95246 0.45458 1.01483 0.0
H402 H 0.96223 0.50906 0.04251 0.0
H403 H 0.99848 0.56268 0.06065 0.0
H404 H 0.0974 0.57853 0.04111 0.0
H405 H 0.08777 0.52341 1.01366 0.0
C406 C 0.0319 0.47914 1.00554 0.0
C407 C 1.00125 0.45844 1.003 0.0
C408 C 0.03761 0.51074 1.02133 0.0
C409 C 0.9764 0.46956 1.01659 0.0
C410 C 0.9819 0.50094 0.03234 0.0
C411 C 1.01802 0.55372 0.05051 0.0
C412 C 0.04858 0.57481 0.05291 0.0
C413 C 1.01239 0.52181 0.03483 0.0
C414 C 0.07351 0.56332 0.03944 0.0
C415 C 0.06809 0.53159 1.02381 0.0
H416 H 0.56196 0.07265 0.49149 0.0
H417 H 0.46174 0.084 0.50883 0.0
H418 H 0.47021 0.02671 0.53556 0.0
H419 H 0.50582 0.97253 0.55373 0.0
H420 H 0.60606 0.96114 0.53644 0.0
H421 H 0.5976 0.01836 0.50966 0.0
C422 C 0.54191 0.0623 0.50101 0.0
C423 C 0.51129 0.08273 0.49817 0.0
C424 C 0.54688 0.02908 0.51629 0.0
C425 C 0.48568 0.06938 0.51085 0.0
C426 C 0.49044 0.03638 0.52607 0.0
C427 C 0.52589 0.98286 0.54422 0.0
C428 C 0.55651 0.96249 0.5471 0.0
C429 C 0.52093 0.01603 0.52893 0.0
C430 C 0.58213 0.97576 0.53441 0.0
C431 C 0.57737 1.00872 0.51916 0.0
H432 H 1.01556 0.10187 0.52976 0.0
H433 H 1.01306 0.99523 0.57568 0.0
H434 H 1.02473 0.93582 0.55042 0.0
H435 H 0.03477 0.91391 0.51522 0.0
H436 H 0.03738 0.02049 0.46927 0.0
H437 H 1.02576 0.07995 0.49454 0.0
C438 C 1.0173 0.06558 0.53421 0.0
C439 C 1.01351 0.05308 0.5546 0.0
C440 C 1.02384 0.03152 0.51959 0.0
C441 C 1.01631 1.00594 0.56015 0.0
C442 C 1.02279 0.97188 0.54569 0.0
C443 C 0.03311 0.9502 0.51076 0.0
C444 C 0.0369 0.96266 0.49037 0.0
C445 C 1.02662 0.98427 0.52538 0.0
C446 C 0.03414 1.00981 0.48481 0.0
C447 C 0.02768 0.0439 0.49927 0.0
H448 H 0.48004 0.2345 0.31614 0.0
H449 H 0.47602 0.38279 0.30544 0.0
H450 H 0.47946 0.36958 0.26915 0.0
H451 H 0.47798 0.3157 0.24046 0.0
H452 H 0.48367 0.16753 0.25113 0.0
H453 H 0.48562 0.1811 0.28747 0.0
C454 C 0.48071 0.26405 0.30594 0.0
C455 C 0.47726 0.30954 0.31355 0.0
C456 C 0.48268 0.25624 0.28506 0.0
C457 C 0.47788 0.34732 0.30001 0.0
C458 C 0.47998 0.33983 0.27924 0.0
C459 C 0.48048 0.28637 0.25067 0.0
C460 C 0.4802 0.24062 0.24302 0.0
C461 C 0.48153 0.29438 0.27157 0.0
C462 C 0.48312 0.20308 0.25659 0.0
C463 C 0.48434 0.2108 0.27739 0.0
H464 H 0.09595 0.80702 0.31137 0.0
H465 H 0.04365 0.67828 0.3026 0.0
H466 H 0.04115 0.69286 0.26623 0.0
H467 H 0.05669 0.74008 0.23682 0.0
H468 H 0.11156 0.86677 0.24589 0.0
H469 H 0.10917 0.85586 0.28227 0.0
C470 C 0.08344 0.7826 0.30155 0.0
C471 C 0.07003 0.74162 0.30965 0.0
C472 C 0.08252 0.79088 0.2807 0.0
C473 C 0.05441 0.70989 0.29669 0.0
C474 C 0.05293 0.71825 0.27592 0.0
C475 C 0.06816 0.7653 0.24674 0.0
C476 C 0.08434 0.80412 0.23852 0.0
C477 C 0.06746 0.75821 0.26772 0.0
C478 C 0.09852 0.83689 0.25169 0.0
C479 C 0.09745 0.83048 0.27255 0.0
H480 H 0.60371 0.80059 0.73264 0.0
H481 H 0.55591 0.66698 0.73593 0.0
H482 H 0.55089 0.67515 0.77252 0.0
H483 H 0.5632 0.71817 0.80377 0.0
H484 H 0.61291 0.85048 0.80017 0.0
H485 H 0.61302 0.84554 0.76351 0.0
C486 C 0.59158 0.77368 0.74129 0.0
C487 C 0.58033 0.73316 0.73157 0.0
C488 C 0.58909 0.77838 0.7623 0.0
C489 C 0.56515 0.69827 0.74308 0.0
C490 C 0.5622 0.70296 0.76399 0.0
C491 C 0.57402 0.74596 0.79497 0.0
C492 C 0.58807 0.78457 0.80481 0.0
C493 C 0.57469 0.74246 0.77381 0.0
C494 C 0.60149 0.82062 0.79309 0.0
C495 C 0.60186 0.81767 0.77207 0.0
H496 H 0.94462 0.33205 0.74693 0.0
H497 H 1.00374 0.21125 0.73534 0.0
H498 H 1.00623 0.19457 0.77146 0.0
H499 H 0.98894 0.2119 0.80621 0.0
H500 H 0.93057 0.33349 0.81746 0.0
H501 H 0.93141 0.35309 0.78163 0.0
C502 C 0.95873 0.30267 0.75226 0.0
C503 C 0.97375 0.27279 0.73834 0.0
C504 C 0.96021 0.29341 0.77303 0.0
C505 C 0.99142 0.2344 0.74564 0.0
C506 C 0.99299 0.22493 0.76632 0.0
C507 C 0.97657 0.24279 0.80079 0.0
C508 C 0.95961 0.27108 0.81444 0.0
C509 C 0.97695 0.2537 0.78012 0.0
C510 C 0.94404 0.31137 0.80729 0.0
C511 C 0.94431 0.32242 0.78678 0.0
loop_
_geom_bond_atom_site_label_1
_geom_bond_atom_site_label_2
_geom_bond_distance
_geom_bond_site_symmetry_2
_ccdc_geom_bond_type
C0 C1 1.264 . S
C0 C5 1.479 . S
C0 C10 1.465 . S
C1 C0 1.264 . S
C1 C3 1.339 . S
C1 H28 0.931 . S
C2 C3 1.395 . S
C2 C4 1.320 . S
C3 C1 1.339 . S
C3 C2 1.395 . S
C3 H29 0.929 1_545 S
C4 C2 1.320 . S
C4 C5 1.405 . S
C4 H30 0.930 . S
C5 C0 1.479 . S
C5 C4 1.405 . S
C5 H31 0.931 . S
U6 O7 2.454 . S
U6 O8 2.458 . S
U6 C9 2.984 . S
U6 C10 2.847 . S
U6 C23 2.882 . S
U6 O24 2.441 . S
U6 O25 2.420 . S
U6 O26 2.455 . S
U6 O27 2.449 . S
O7 U6 2.454 . S
O7 C9 1.353 . S
O8 U6 2.458 . S
O8 C9 1.286 . S
C9 U6 2.984 . S
C9 O7 1.353 . S
C9 O8 1.286 . S
C9 C11 1.363 . S
C10 C0 1.465 . S
C10 U6 2.847 . S
C10 O24 1.249 . S
C10 O25 1.202 . S
C11 C9 1.363 . S
C11 C13 1.408 . S
C11 C16 1.342 . S
C12 C13 1.310 . S
C12 C15 1.461 . S
C12 H32 0.932 . S
C13 C11 1.408 . S
C13 C12 1.310 . S
C13 H33 0.930 . S
C14 C15 1.474 . S
C14 C16 1.285 . S
C14 H34 0.929 . S
C15 C12 1.461 . S
C15 C14 1.474 . S
C16 C11 1.342 . S
C16 C14 1.285 . S
C16 H35 0.930 . S
C17 C20 1.424 . S
C17 C22 1.245 . S
C17 C23 1.428 . S
C18 C21 1.260 . S
C18 C22 1.477 . S
C18 H36 0.932 . S
C19 C20 1.384 . S
C19 C21 1.479 . S
C19 H37 0.929 . S
C20 C17 1.424 . S
C20 C19 1.384 . S
C20 H38 0.928 . S
C21 C18 1.260 . S
C21 C19 1.479 . S
C22 C17 1.245 . S
C22 C18 1.477 . S
C22 H39 0.932 . S
C23 U6 2.882 . S
C23 C17 1.428 . S
C23 O26 1.301 . S
C23 O27 1.282 . S
O24 U6 2.441 . S
O24 C10 1.249 . S
O25 U6 2.420 . S
O25 C10 1.202 . S
O26 U6 2.455 . S
O26 C23 1.301 . S
O27 U6 2.449 . S
O27 C23 1.282 . S
H28 C1 0.931 . S
H29 C3 0.929 1_565 S
H30 C4 0.930 . S
H31 C5 0.931 . S
H32 C12 0.932 . S
H33 C13 0.930 . S
H34 C14 0.929 . S
H35 C16 0.930 . S
H36 C18 0.932 . S
H37 C19 0.929 . S
H38 C20 0.928 . S
H39 C22 0.932 . S
C40 C41 1.264 . S
C40 C45 1.479 . S
C40 C50 1.465 . S
C41 C40 1.264 . S
C41 C43 1.339 . S
C41 H68 0.931 . S
C42 C43 1.395 . S
C42 C44 1.320 . S
C43 C41 1.339 . S
C43 C42 1.395 . S
C43 H69 0.929 1_565 S
C44 C42 1.320 . S
C44 C45 1.405 . S
C44 H70 0.930 . S
C45 C40 1.479 . S
C45 C44 1.405 . S
C45 H71 0.931 . S
U46 O47 2.454 . S
U46 O48 2.458 1_455 S
U46 C49 2.994 . S
U46 C50 2.847 . S
U46 C63 2.882 1_455 S
U46 O64 2.441 . S
U46 O65 2.420 . S
U46 O66 2.455 1_455 S
U46 O67 2.449 . S
O47 U46 2.454 . S
O47 C49 1.379 . S
O48 U46 2.458 1_655 S
O48 C49 1.276 1_655 S
C49 U46 2.994 . S
C49 O47 1.379 . S
C49 O48 1.276 1_455 S
C49 C51 1.353 1_455 S
C50 C40 1.465 . S
C50 U46 2.847 . S
C50 O64 1.249 . S
C50 O65 1.202 . S
C51 C49 1.353 1_655 S
C51 C53 1.408 1_655 S
C51 C56 1.342 . S
C52 C53 1.310 1_655 S
C52 C55 1.461 . S
C52 H72 0.932 1_655 S
C53 C51 1.408 1_455 S
C53 C52 1.310 1_455 S
C53 H73 0.930 . S
C54 C55 1.474 . S
C54 C56 1.285 . S
C54 H74 0.929 . S
C55 C52 1.461 . S
C55 C54 1.474 . S
C56 C51 1.342 . S
C56 C54 1.285 . S
C56 H75 0.930 . S
C57 C60 1.424 1_655 S
C57 C62 1.245 . S
C57 C63 1.428 . S
C58 C61 1.260 . S
C58 C62 1.477 . S
C58 H76 0.932 . S
C59 C60 1.384 1_655 S
C59 C61 1.479 . S
C59 H77 0.929 1_655 S
C60 C57 1.424 1_455 S
C60 C59 1.384 1_455 S
C60 H78 0.928 . S
C61 C58 1.260 . S
C61 C59 1.479 . S
C62 C57 1.245 . S
C62 C58 1.477 . S
C62 H79 0.932 . S
C63 U46 2.882 1_655 S
C63 C57 1.428 . S
C63 O66 1.301 . S
C63 O67 1.282 1_655 S
O64 U46 2.441 . S
O64 C50 1.249 . S
O65 U46 2.420 . S
O65 C50 1.202 . S
O66 U46 2.455 1_655 S
O66 C63 1.301 . S
O67 U46 2.449 . S
O67 C63 1.282 1_455 S
H68 C41 0.931 . S
H69 C43 0.929 1_545 S
H70 C44 0.930 . S
H71 C45 0.931 . S
H72 C52 0.932 1_455 S
H73 C53 0.930 . S
H74 C54 0.929 . S
H75 C56 0.930 . S
H76 C58 0.932 . S
H77 C59 0.929 1_455 S
H78 C60 0.928 . S
H79 C62 0.932 . S
C80 C81 1.264 . S
C80 C85 1.479 . S
C80 C90 1.465 . S
C81 C80 1.264 . S
C81 C83 1.339 . S
C81 H108 0.931 . S
C82 C83 1.395 . S
C82 C84 1.320 . S
C83 C81 1.339 . S
C83 C82 1.395 . S
C83 H109 0.929 . S
C84 C82 1.320 . S
C84 C85 1.405 . S
C84 H110 0.930 . S
C85 C80 1.479 . S
C85 C84 1.405 . S
C85 H111 0.931 . S
U86 O87 2.454 . S
U86 O88 2.458 . S
U86 C89 2.984 . S
U86 C90 2.847 . S
U86 C103 2.882 . S
U86 O104 2.441 . S
U86 O105 2.420 . S
U86 O106 2.455 . S
U86 O107 2.449 . S
O87 U86 2.454 . S
O87 C89 1.353 . S
O88 U86 2.458 . S
O88 C89 1.286 . S
C89 U86 2.984 . S
C89 O87 1.353 . S
C89 O88 1.286 . S
C89 C91 1.363 . S
C90 C80 1.465 . S
C90 U86 2.847 . S
C90 O104 1.249 . S
C90 O105 1.202 . S
C91 C89 1.363 . S
C91 C93 1.408 . S
C91 C96 1.342 . S
C92 C93 1.310 . S
C92 C95 1.461 . S
C92 H112 0.932 . S
C93 C91 1.408 . S
C93 C92 1.310 . S
C93 H113 0.930 . S
C94 C95 1.474 . S
C94 C96 1.285 . S
C94 H114 0.929 . S
C95 C92 1.461 . S
C95 C94 1.474 . S
C96 C91 1.342 . S
C96 C94 1.285 . S
C96 H115 0.930 . S
C97 C100 1.424 . S
C97 C102 1.245 . S
C97 C103 1.428 . S
C98 C101 1.260 . S
C98 C102 1.477 . S
C98 H116 0.932 . S
C99 C100 1.384 . S
C99 C101 1.479 . S
C99 H117 0.929 . S
C100 C97 1.424 . S
C100 C99 1.384 . S
C100 H118 0.928 . S
C101 C98 1.260 . S
C101 C99 1.479 . S
C102 C97 1.245 . S
C102 C98 1.477 . S
C102 H119 0.932 . S
C103 U86 2.882 . S
C103 C97 1.428 . S
C103 O106 1.301 . S
C103 O107 1.282 . S
O104 U86 2.441 . S
O104 C90 1.249 . S
O105 U86 2.420 . S
O105 C90 1.202 . S
O106 U86 2.455 . S
O106 C103 1.301 . S
O107 U86 2.449 . S
O107 C103 1.282 . S
H108 C81 0.931 . S
H109 C83 0.929 . S
H110 C84 0.930 . S
H111 C85 0.931 . S
H112 C92 0.932 . S
H113 C93 0.930 . S
H114 C94 0.929 . S
H115 C96 0.930 . S
H116 C98 0.932 . S
H117 C99 0.929 . S
H118 C100 0.928 . S
H119 C102 0.932 . S
C120 C121 1.264 . S
C120 C125 1.479 . S
C120 C130 1.465 . S
C121 C120 1.264 . S
C121 C123 1.339 . S
C121 H148 0.931 . S
C122 C123 1.395 . S
C122 C124 1.320 . S
C123 C121 1.339 . S
C123 C122 1.395 . S
C123 H149 0.929 . S
C124 C122 1.320 . S
C124 C125 1.405 . S
C124 H150 0.930 . S
C125 C120 1.479 . S
C125 C124 1.405 . S
C125 H151 0.931 . S
U126 O127 2.454 . S
U126 O128 2.458 1_455 S
U126 C129 2.994 . S
U126 C130 2.847 . S
U126 C143 2.882 1_455 S
U126 O144 2.441 . S
U126 O145 2.420 . S
U126 O146 2.455 1_455 S
U126 O147 2.449 . S
O127 U126 2.454 . S
O127 C129 1.379 . S
O128 U126 2.458 1_655 S
O128 C129 1.276 1_655 S
C129 U126 2.994 . S
C129 O127 1.379 . S
C129 O128 1.276 1_455 S
C129 C131 1.353 1_455 S
C130 C120 1.465 . S
C130 U126 2.847 . S
C130 O144 1.249 . S
C130 O145 1.202 . S
C131 C129 1.353 1_655 S
C131 C133 1.408 1_655 S
C131 C136 1.342 . S
C132 C133 1.310 1_655 S
C132 C135 1.461 . S
C132 H152 0.932 1_655 S
C133 C131 1.408 1_455 S
C133 C132 1.310 1_455 S
C133 H153 0.930 . S
C134 C135 1.474 . S
C134 C136 1.285 . S
C134 H154 0.929 . S
C135 C132 1.461 . S
C135 C134 1.474 . S
C136 C131 1.342 . S
C136 C134 1.285 . S
C136 H155 0.930 . S
C137 C140 1.424 1_655 S
C137 C142 1.245 . S
C137 C143 1.428 . S
C138 C141 1.260 . S
C138 C142 1.477 . S
C138 H156 0.932 . S
C139 C140 1.384 1_655 S
C139 C141 1.479 . S
C139 H157 0.929 1_655 S
C140 C137 1.424 1_455 S
C140 C139 1.384 1_455 S
C140 H158 0.928 . S
C141 C138 1.260 . S
C141 C139 1.479 . S
C142 C137 1.245 . S
C142 C138 1.477 . S
C142 H159 0.932 . S
C143 U126 2.882 1_655 S
C143 C137 1.428 . S
C143 O146 1.301 . S
C143 O147 1.282 1_655 S
O144 U126 2.441 . S
O144 C130 1.249 . S
O145 U126 2.420 . S
O145 C130 1.202 . S
O146 U126 2.455 1_655 S
O146 C143 1.301 . S
O147 U126 2.449 . S
O147 C143 1.282 1_455 S
H148 C121 0.931 . S
H149 C123 0.929 . S
H150 C124 0.930 . S
H151 C125 0.931 . S
H152 C132 0.932 1_455 S
H153 C133 0.930 . S
H154 C134 0.929 . S
H155 C136 0.930 . S
H156 C138 0.932 . S
H157 C139 0.929 1_455 S
H158 C140 0.928 . S
H159 C142 0.932 . S
C160 C161 1.264 . S
C160 C165 1.479 . S
C160 C170 1.465 . S
C161 C160 1.264 . S
C161 C163 1.339 . S
C161 H188 0.931 . S
C162 C163 1.395 . S
C162 C164 1.320 . S
C163 C161 1.339 . S
C163 C162 1.395 . S
C163 H189 0.929 . S
C164 C162 1.320 . S
C164 C165 1.405 . S
C164 H190 0.930 . S
C165 C160 1.479 . S
C165 C164 1.405 . S
C165 H191 0.931 . S
U166 O167 2.454 . S
U166 O168 2.458 . S
U166 C169 2.984 . S
U166 C170 2.847 . S
U166 C183 2.882 . S
U166 O184 2.441 . S
U166 O185 2.420 . S
U166 O186 2.455 . S
U166 O187 2.449 . S
O167 U166 2.454 . S
O167 C169 1.353 . S
O168 U166 2.458 . S
O168 C169 1.286 . S
C169 U166 2.984 . S
C169 O167 1.353 . S
C169 O168 1.286 . S
C169 C171 1.363 . S
C170 C160 1.465 . S
C170 U166 2.847 . S
C170 O184 1.249 . S
C170 O185 1.202 . S
C171 C169 1.363 . S
C171 C173 1.408 . S
C171 C176 1.342 . S
C172 C173 1.310 . S
C172 C175 1.461 . S
C172 H192 0.932 . S
C173 C171 1.408 . S
C173 C172 1.310 . S
C173 H193 0.930 . S
C174 C175 1.474 . S
C174 C176 1.285 . S
C174 H194 0.929 . S
C175 C172 1.461 . S
C175 C174 1.474 . S
C176 C171 1.342 . S
C176 C174 1.285 . S
C176 H195 0.930 . S
C177 C180 1.424 . S
C177 C182 1.245 . S
C177 C183 1.428 . S
C178 C181 1.260 . S
C178 C182 1.477 . S
C178 H196 0.932 . S
C179 C180 1.384 . S
C179 C181 1.479 . S
C179 H197 0.929 . S
C180 C177 1.424 . S
C180 C179 1.384 . S
C180 H198 0.928 . S
C181 C178 1.260 . S
C181 C179 1.479 . S
C182 C177 1.245 . S
C182 C178 1.477 . S
C182 H199 0.932 . S
C183 U166 2.882 . S
C183 C177 1.428 . S
C183 O186 1.301 . S
C183 O187 1.282 . S
O184 U166 2.441 . S
O184 C170 1.249 . S
O185 U166 2.420 . S
O185 C170 1.202 . S
O186 U166 2.455 . S
O186 C183 1.301 . S
O187 U166 2.449 . S
O187 C183 1.282 . S
H188 C161 0.931 . S
H189 C163 0.929 . S
H190 C164 0.930 . S
H191 C165 0.931 . S
H192 C172 0.932 . S
H193 C173 0.930 . S
H194 C174 0.929 . S
H195 C176 0.930 . S
H196 C178 0.932 . S
H197 C179 0.929 . S
H198 C180 0.928 . S
H199 C182 0.932 . S
C200 C201 1.264 . S
C200 C205 1.479 . S
C200 C210 1.465 . S
C201 C200 1.264 . S
C201 C203 1.339 . S
C201 H228 0.931 . S
C202 C203 1.395 . S
C202 C204 1.320 . S
C203 C201 1.339 . S
C203 C202 1.395 . S
C203 H229 0.929 . S
C204 C202 1.320 . S
C204 C205 1.405 . S
C204 H230 0.930 . S
C205 C200 1.479 . S
C205 C204 1.405 . S
C205 H231 0.931 . S
U206 O207 2.454 . S
U206 O208 2.458 . S
U206 C209 2.984 . S
U206 C210 2.847 . S
U206 C223 2.882 . S
U206 O224 2.441 . S
U206 O225 2.420 . S
U206 O226 2.455 . S
U206 O227 2.449 . S
O207 U206 2.454 . S
O207 C209 1.353 . S
O208 U206 2.458 . S
O208 C209 1.286 . S
C209 U206 2.984 . S
C209 O207 1.353 . S
C209 O208 1.286 . S
C209 C211 1.371 . S
C210 C200 1.465 . S
C210 U206 2.847 . S
C210 O224 1.249 . S
C210 O225 1.202 . S
C211 C209 1.371 . S
C211 C213 1.414 . S
C211 C216 1.328 1_655 S
C212 C213 1.310 1_455 S
C212 C215 1.461 . S
C212 H232 0.932 1_455 S
C213 C211 1.414 . S
C213 C212 1.310 1_655 S
C213 H233 0.930 . S
C214 C215 1.474 . S
C214 C216 1.285 . S
C214 H234 0.929 . S
C215 C212 1.461 . S
C215 C214 1.474 . S
C216 C211 1.328 1_455 S
C216 C214 1.285 . S
C216 H235 0.930 . S
C217 C220 1.424 . S
C217 C222 1.245 1_655 S
C217 C223 1.428 . S
C218 C221 1.260 . S
C218 C222 1.477 . S
C218 H236 0.932 . S
C219 C220 1.384 . S
C219 C221 1.479 1_655 S
C219 H237 0.929 . S
C220 C217 1.424 . S
C220 C219 1.384 . S
C220 H238 0.928 . S
C221 C218 1.260 . S
C221 C219 1.479 1_455 S
C222 C217 1.245 1_455 S
C222 C218 1.477 . S
C222 H239 0.932 . S
C223 U206 2.882 . S
C223 C217 1.428 . S
C223 O226 1.301 . S
C223 O227 1.282 . S
O224 U206 2.441 . S
O224 C210 1.249 . S
O225 U206 2.420 . S
O225 C210 1.202 . S
O226 U206 2.455 . S
O226 C223 1.301 . S
O227 U206 2.449 . S
O227 C223 1.282 . S
H228 C201 0.931 . S
H229 C203 0.929 . S
H230 C204 0.930 . S
H231 C205 0.931 . S
H232 C212 0.932 1_655 S
H233 C213 0.930 . S
H234 C214 0.929 . S
H235 C216 0.930 . S
H236 C218 0.932 . S
H237 C219 0.929 . S
H238 C220 0.928 . S
H239 C222 0.932 . S
C240 C241 1.264 . S
C240 C245 1.479 . S
C240 C250 1.465 . S
C241 C240 1.264 . S
C241 C243 1.339 . S
C241 H268 0.931 . S
C242 C243 1.395 . S
C242 C244 1.320 . S
C243 C241 1.339 . S
C243 C242 1.395 . S
C243 H269 0.929 . S
C244 C242 1.320 . S
C244 C245 1.405 . S
C244 H270 0.930 . S
C245 C240 1.479 . S
C245 C244 1.405 . S
C245 H271 0.931 . S
U246 O247 2.454 . S
U246 O248 2.458 . S
U246 C249 2.984 . S
U246 C250 2.847 . S
U246 C263 2.882 . S
U246 O264 2.441 . S
U246 O265 2.420 . S
U246 O266 2.455 . S
U246 O267 2.449 . S
O247 U246 2.454 . S
O247 C249 1.353 . S
O248 U246 2.458 . S
O248 C249 1.286 . S
C249 U246 2.984 . S
C249 O247 1.353 . S
C249 O248 1.286 . S
C249 C251 1.363 . S
C250 C240 1.465 . S
C250 U246 2.847 . S
C250 O264 1.249 . S
C250 O265 1.202 . S
C251 C249 1.363 . S
C251 C253 1.408 . S
C251 C256 1.342 . S
C252 C253 1.310 . S
C252 C255 1.461 . S
C252 H272 0.932 . S
C253 C251 1.408 . S
C253 C252 1.310 . S
C253 H273 0.930 . S
C254 C255 1.474 . S
C254 C256 1.285 . S
C254 H274 0.929 . S
C255 C252 1.461 . S
C255 C254 1.474 . S
C256 C251 1.342 . S
C256 C254 1.285 . S
C256 H275 0.930 . S
C257 C260 1.424 . S
C257 C262 1.245 . S
C257 C263 1.428 . S
C258 C261 1.260 . S
C258 C262 1.477 . S
C258 H276 0.932 . S
C259 C260 1.384 . S
C259 C261 1.479 . S
C259 H277 0.929 . S
C260 C257 1.424 . S
C260 C259 1.384 . S
C260 H278 0.928 . S
C261 C258 1.260 . S
C261 C259 1.479 . S
C262 C257 1.245 . S
C262 C258 1.477 . S
C262 H279 0.932 . S
C263 U246 2.882 . S
C263 C257 1.428 . S
C263 O266 1.301 . S
C263 O267 1.282 . S
O264 U246 2.441 . S
O264 C250 1.249 . S
O265 U246 2.420 . S
O265 C250 1.202 . S
O266 U246 2.455 . S
O266 C263 1.301 . S
O267 U246 2.449 . S
O267 C263 1.282 . S
H268 C241 0.931 . S
H269 C243 0.929 . S
H270 C244 0.930 . S
H271 C245 0.931 . S
H272 C252 0.932 . S
H273 C253 0.930 . S
H274 C254 0.929 . S
H275 C256 0.930 . S
H276 C258 0.932 . S
H277 C259 0.929 . S
H278 C260 0.928 . S
H279 C262 0.932 . S
C280 C281 1.264 . S
C280 C285 1.479 . S
C280 C290 1.465 . S
C281 C280 1.264 . S
C281 C283 1.339 . S
C281 H308 0.931 . S
C282 C283 1.395 . S
C282 C284 1.320 . S
C283 C281 1.339 . S
C283 C282 1.395 . S
C283 H309 0.929 . S
C284 C282 1.320 . S
C284 C285 1.405 . S
C284 H310 0.930 . S
C285 C280 1.479 . S
C285 C284 1.405 . S
C285 H311 0.931 . S
U286 O287 2.454 . S
U286 O288 2.458 . S
U286 C289 2.984 . S
U286 C290 2.847 . S
U286 C303 2.882 . S
U286 O304 2.441 . S
U286 O305 2.420 . S
U286 O306 2.455 . S
U286 O307 2.449 . S
O287 U286 2.454 . S
O287 C289 1.353 . S
O288 U286 2.458 . S
O288 C289 1.286 . S
C289 U286 2.984 . S
C289 O287 1.353 . S
C289 O288 1.286 . S
C289 C291 1.371 . S
C290 C280 1.465 . S
C290 U286 2.847 . S
C290 O304 1.249 . S
C290 O305 1.202 . S
C291 C289 1.371 . S
C291 C293 1.413 . S
C291 C296 1.328 1_655 S
C292 C293 1.310 1_455 S
C292 C295 1.461 . S
C292 H312 0.932 1_455 S
C293 C291 1.413 . S
C293 C292 1.310 1_655 S
C293 H313 0.930 . S
C294 C295 1.474 . S
C294 C296 1.285 . S
C294 H314 0.929 . S
C295 C292 1.461 . S
C295 C294 1.474 . S
C296 C291 1.328 1_455 S
C296 C294 1.285 . S
C296 H315 0.930 . S
C297 C300 1.424 . S
C297 C302 1.245 1_655 S
C297 C303 1.428 . S
C298 C301 1.260 . S
C298 C302 1.477 . S
C298 H316 0.932 . S
C299 C300 1.384 . S
C299 C301 1.479 1_655 S
C299 H317 0.929 . S
C300 C297 1.424 . S
C300 C299 1.384 . S
C300 H318 0.928 . S
C301 C298 1.260 . S
C301 C299 1.479 1_455 S
C302 C297 1.245 1_455 S
C302 C298 1.477 . S
C302 H319 0.932 . S
C303 U286 2.882 . S
C303 C297 1.428 . S
C303 O306 1.301 . S
C303 O307 1.282 . S
O304 U286 2.441 . S
O304 C290 1.249 . S
O305 U286 2.420 . S
O305 C290 1.202 . S
O306 U286 2.455 . S
O306 C303 1.301 . S
O307 U286 2.449 . S
O307 C303 1.282 . S
H308 C281 0.931 . S
H309 C283 0.929 . S
H310 C284 0.930 . S
H311 C285 0.931 . S
H312 C292 0.932 1_655 S
H313 C293 0.930 . S
H314 C294 0.929 . S
H315 C296 0.930 . S
H316 C298 0.932 . S
H317 C299 0.929 . S
H318 C300 0.928 . S
H319 C302 0.932 . S
H320 C326 0.930 . S
H321 C329 0.930 . S
H322 C330 0.930 . S
H323 C331 0.930 . S
H324 C334 0.930 . S
H325 C335 0.930 . S
C326 H320 0.930 . S
C326 C327 1.355 1_565 S
C326 C328 1.415 . S
C327 C326 1.355 1_545 S
C327 C329 1.419 . S
C328 C326 1.415 . S
C328 C333 1.425 1_565 S
C328 C335 1.409 . S
C329 H321 0.930 . S
C329 C327 1.419 . S
C329 C330 1.362 . S
C330 H322 0.930 . S
C330 C329 1.362 . S
C330 C333 1.409 . S
C331 H323 0.930 . S
C331 C332 1.355 1_545 S
C331 C333 1.415 . S
C332 C331 1.355 1_565 S
C332 C334 1.419 . S
C333 C328 1.425 1_545 S
C333 C330 1.409 . S
C333 C331 1.415 . S
C334 H324 0.930 . S
C334 C332 1.419 . S
C334 C335 1.362 . S
C335 H325 0.930 . S
C335 C328 1.409 . S
C335 C334 1.362 . S
H336 C342 0.930 . S
H337 C345 0.930 . S
H338 C346 0.930 . S
H339 C347 0.930 . S
H340 C350 0.930 . S
H341 C351 0.930 . S
C342 H336 0.930 . S
C342 C343 1.355 . S
C342 C344 1.415 . S
C343 C342 1.355 . S
C343 C345 1.419 . S
C344 C342 1.415 . S
C344 C349 1.425 . S
C344 C351 1.409 . S
C345 H337 0.930 . S
C345 C343 1.419 . S
C345 C346 1.362 . S
C346 H338 0.930 . S
C346 C345 1.362 . S
C346 C349 1.409 . S
C347 H339 0.930 . S
C347 C348 1.355 . S
C347 C349 1.415 . S
C348 C347 1.355 . S
C348 C350 1.419 . S
C349 C344 1.425 . S
C349 C346 1.409 . S
C349 C347 1.415 . S
C350 H340 0.930 . S
C350 C348 1.419 . S
C350 C351 1.362 . S
C351 H341 0.930 . S
C351 C344 1.409 . S
C351 C350 1.362 . S
H352 C358 0.930 . S
H353 C361 0.930 . S
H354 C362 0.930 . S
H355 C363 0.930 . S
H356 C366 0.930 . S
H357 C367 0.930 . S
C358 H352 0.930 . S
C358 C359 1.355 1_565 S
C358 C360 1.415 . S
C359 C358 1.355 1_545 S
C359 C361 1.419 . S
C360 C358 1.415 . S
C360 C365 1.425 1_565 S
C360 C367 1.409 . S
C361 H353 0.930 . S
C361 C359 1.419 . S
C361 C362 1.362 . S
C362 H354 0.930 . S
C362 C361 1.362 . S
C362 C365 1.409 . S
C363 H355 0.930 . S
C363 C364 1.355 1_545 S
C363 C365 1.415 . S
C364 C363 1.355 1_565 S
C364 C366 1.419 . S
C365 C360 1.425 1_545 S
C365 C362 1.409 . S
C365 C363 1.415 . S
C366 H356 0.930 . S
C366 C364 1.419 . S
C366 C367 1.362 . S
C367 H357 0.930 . S
C367 C360 1.409 . S
C367 C366 1.362 . S
H368 C374 0.930 . S
H369 C377 0.930 . S
H370 C378 0.930 . S
H371 C379 0.930 . S
H372 C382 0.930 . S
H373 C383 0.930 . S
C374 H368 0.930 . S
C374 C375 1.355 . S
C374 C376 1.415 . S
C375 C374 1.355 . S
C375 C377 1.419 . S
C376 C374 1.415 . S
C376 C381 1.425 . S
C376 C383 1.409 . S
C377 H369 0.930 . S
C377 C375 1.419 . S
C377 C378 1.362 . S
C378 H370 0.930 . S
C378 C377 1.362 . S
C378 C381 1.409 . S
C379 H371 0.930 . S
C379 C380 1.355 . S
C379 C381 1.415 . S
C380 C379 1.355 . S
C380 C382 1.419 . S
C381 C376 1.425 . S
C381 C378 1.409 . S
C381 C379 1.415 . S
C382 H372 0.930 . S
C382 C380 1.419 . S
C382 C383 1.362 . S
C383 H373 0.930 . S
C383 C376 1.409 . S
C383 C382 1.362 . S
H384 C390 0.930 . S
H385 C393 0.930 . S
H386 C394 0.930 . S
H387 C395 0.930 . S
H388 C398 0.930 . S
H389 C399 0.930 . S
C390 H384 0.930 . S
C390 C391 1.355 . S
C390 C392 1.415 . S
C391 C390 1.355 . S
C391 C393 1.419 1_554 S
C392 C390 1.415 . S
C392 C397 1.425 1_554 S
C392 C399 1.409 . S
C393 H385 0.930 . S
C393 C391 1.419 1_556 S
C393 C394 1.362 . S
C394 H386 0.930 . S
C394 C393 1.362 . S
C394 C397 1.409 . S
C395 H387 0.930 . S
C395 C396 1.355 . S
C395 C397 1.415 . S
C396 C395 1.355 . S
C396 C398 1.419 1_556 S
C397 C392 1.425 1_556 S
C397 C394 1.409 . S
C397 C395 1.415 . S
C398 H388 0.930 . S
C398 C396 1.419 1_554 S
C398 C399 1.362 . S
C399 H389 0.930 . S
C399 C392 1.409 . S
C399 C398 1.362 . S
H400 C406 0.930 . S
H401 C409 0.928 1_554 S
H402 C410 0.930 . S
H403 C411 0.930 . S
H404 C414 0.928 1_556 S
H405 C415 0.930 . S
C406 H400 0.930 . S
C406 C407 1.355 . S
C406 C408 1.415 . S
C407 C406 1.355 . S
C407 C409 1.427 1_455 S
C408 C406 1.415 . S
C408 C413 1.425 1_456 S
C408 C415 1.409 . S
C409 H401 0.928 1_556 S
C409 C407 1.427 1_655 S
C409 C410 1.356 1_556 S
C410 H402 0.930 . S
C410 C409 1.356 1_554 S
C410 C413 1.409 . S
C411 H403 0.930 . S
C411 C412 1.355 . S
C411 C413 1.415 . S
C412 C411 1.355 . S
C412 C414 1.427 1_655 S
C413 C408 1.425 1_654 S
C413 C410 1.409 . S
C413 C411 1.415 . S
C414 H404 0.928 1_554 S
C414 C412 1.427 1_455 S
C414 C415 1.356 1_554 S
C415 H405 0.930 . S
C415 C408 1.409 . S
C415 C414 1.356 1_556 S
H416 C422 0.930 . S
H417 C425 0.930 . S
H418 C426 0.930 . S
H419 C427 0.930 . S
H420 C430 0.930 . S
H421 C431 0.930 . S
C422 H416 0.930 . S
C422 C423 1.355 . S
C422 C424 1.415 1_545 S
C423 C422 1.355 . S
C423 C425 1.419 . S
C424 C422 1.415 1_565 S
C424 C429 1.425 1_565 S
C424 C431 1.409 . S
C425 H417 0.930 . S
C425 C423 1.419 . S
C425 C426 1.362 . S
C426 H418 0.930 . S
C426 C425 1.362 . S
C426 C429 1.409 . S
C427 H419 0.930 . S
C427 C428 1.355 . S
C427 C429 1.415 1_565 S
C428 C427 1.355 . S
C428 C430 1.419 . S
C429 C424 1.425 1_545 S
C429 C426 1.409 . S
C429 C427 1.415 1_545 S
C430 H420 0.930 . S
C430 C428 1.419 . S
C430 C431 1.362 . S
C431 H421 0.930 . S
C431 C424 1.409 . S
C431 C430 1.362 . S
H432 C438 0.935 . S
H433 C441 0.930 . S
H434 C442 0.932 . S
H435 C443 0.935 . S
H436 C446 0.930 . S
H437 C447 0.932 . S
C438 H432 0.935 . S
C438 C439 1.346 1_655 S
C438 C440 1.417 . S
C439 C438 1.346 1_455 S
C439 C441 1.419 . S
C440 C438 1.417 . S
C440 C445 1.425 1_645 S
C440 C447 1.410 . S
C441 H433 0.930 . S
C441 C439 1.419 . S
C441 C442 1.359 1_545 S
C442 H434 0.932 . S
C442 C441 1.359 1_565 S
C442 C445 1.410 . S
C443 H435 0.935 . S
C443 C444 1.346 1_455 S
C443 C445 1.417 . S
C444 C443 1.346 1_655 S
C444 C446 1.419 . S
C445 C440 1.425 1_465 S
C445 C442 1.410 . S
C445 C443 1.417 . S
C446 H436 0.930 . S
C446 C444 1.419 . S
C446 C447 1.359 1_565 S
C447 H437 0.932 . S
C447 C440 1.410 . S
C447 C446 1.359 1_545 S
H448 C454 0.930 . S
H449 C457 0.930 . S
H450 C458 0.930 . S
H451 C459 0.930 . S
H452 C462 0.930 . S
H453 C463 0.930 . S
C454 H448 0.930 . S
C454 C455 1.355 . S
C454 C456 1.415 . S
C455 C454 1.355 . S
C455 C457 1.419 . S
C456 C454 1.415 . S
C456 C461 1.425 . S
C456 C463 1.409 . S
C457 H449 0.930 . S
C457 C455 1.419 . S
C457 C458 1.362 . S
C458 H450 0.930 . S
C458 C457 1.362 . S
C458 C461 1.409 . S
C459 H451 0.930 . S
C459 C460 1.355 . S
C459 C461 1.415 . S
C460 C459 1.355 . S
C460 C462 1.419 . S
C461 C456 1.425 . S
C461 C458 1.409 . S
C461 C459 1.415 . S
C462 H452 0.930 . S
C462 C460 1.419 . S
C462 C463 1.362 . S
C463 H453 0.930 . S
C463 C456 1.409 . S
C463 C462 1.362 . S
H464 C470 0.930 1_455 S
H465 C473 0.930 . S
H466 C474 0.930 . S
H467 C475 0.930 . S
H468 C478 0.930 . S
H469 C479 0.930 . S
C470 H464 0.930 1_655 S
C470 C471 1.355 . S
C470 C472 1.415 . S
C471 C470 1.355 . S
C471 C473 1.419 . S
C472 C470 1.415 . S
C472 C477 1.425 . S
C472 C479 1.409 1_655 S
C473 H465 0.930 . S
C473 C471 1.419 . S
C473 C474 1.362 . S
C474 H466 0.930 . S
C474 C473 1.362 . S
C474 C477 1.409 . S
C475 H467 0.930 . S
C475 C476 1.355 . S
C475 C477 1.415 . S
C476 C475 1.355 . S
C476 C478 1.419 1_655 S
C477 C472 1.425 . S
C477 C474 1.409 . S
C477 C475 1.415 . S
C478 H468 0.930 . S
C478 C476 1.419 1_455 S
C478 C479 1.362 . S
C479 H469 0.930 . S
C479 C472 1.409 1_455 S
C479 C478 1.362 . S
H480 C486 0.930 . S
H481 C489 0.930 . S
H482 C490 0.930 . S
H483 C491 0.930 . S
H484 C494 0.930 . S
H485 C495 0.930 . S
C486 H480 0.930 . S
C486 C487 1.355 . S
C486 C488 1.415 . S
C487 C486 1.355 . S
C487 C489 1.419 . S
C488 C486 1.415 . S
C488 C493 1.425 . S
C488 C495 1.409 . S
C489 H481 0.930 . S
C489 C487 1.419 . S
C489 C490 1.362 . S
C490 H482 0.930 . S
C490 C489 1.362 . S
C490 C493 1.409 . S
C491 H483 0.930 . S
C491 C492 1.355 . S
C491 C493 1.415 . S
C492 C491 1.355 . S
C492 C494 1.419 . S
C493 C488 1.425 . S
C493 C490 1.409 . S
C493 C491 1.415 . S
C494 H484 0.930 . S
C494 C492 1.419 . S
C494 C495 1.362 . S
C495 H485 0.930 . S
C495 C488 1.409 . S
C495 C494 1.362 . S
H496 C502 0.930 1_655 S
H497 C505 0.930 . S
H498 C506 0.930 . S
H499 C507 0.930 . S
H500 C510 0.930 . S
H501 C511 0.930 . S
C502 H496 0.930 1_455 S
C502 C503 1.355 . S
C502 C504 1.415 . S
C503 C502 1.355 . S
C503 C505 1.419 . S
C504 C502 1.415 . S
C504 C509 1.425 . S
C504 C511 1.409 1_455 S
C505 H497 0.930 . S
C505 C503 1.419 . S
C505 C506 1.362 . S
C506 H498 0.930 . S
C506 C505 1.362 . S
C506 C509 1.409 . S
C507 H499 0.930 . S
C507 C508 1.355 . S
C507 C509 1.415 . S
C508 C507 1.355 . S
C508 C510 1.419 1_455 S
C509 C504 1.425 . S
C509 C506 1.409 . S
C509 C507 1.415 . S
C510 H500 0.930 . S
C510 C508 1.419 1_655 S
C510 C511 1.362 . S
C511 H501 0.930 . S
C511 C504 1.409 1_655 S
C511 C510 1.362 . S
C327 C2 2.417 . S
C332 C42 2.419 . S
C343 C82 2.460 . S
C348 C122 2.459 . S
C359 C202 2.221 . S
C364 C162 2.214 . S
C375 C242 2.232 . S
C380 C282 2.222 . S
C391 C15 2.591 . S
C396 C175 2.571 . S
C407 C215 2.581 . S
C412 C55 2.601 . S
C423 C95 2.590 . S
C428 C255 2.570 . S
C439 C295 2.573 . S
C444 C135 2.592 . S
C455 C101 2.106 . S
C460 C21 2.102 . S
C471 C141 2.107 . S
C476 C61 2.092 . S
C487 C261 2.026 . S
C492 C181 1.995 . S
C503 C301 2.023 . S
C508 C221 1.971 . S
