# Generated by pormake.
# Topology upa, (4)-cn, num edge types: 1
# Building blocks:
#     Node 0, Type 0, BuildingBlock: AZAVOO_clean_sbu_0, # of connection points: 4
#     Node 1, Type 0, BuildingBlock: AZAVOO_clean_sbu_0, # of connection points: 4
#     Node 2, Type 0, BuildingBlock: AZAVOO_clean_sbu_0, # of connection points: 4
#     Node 3, Type 0, BuildingBlock: AZAVOO_clean_sbu_0, # of connection points: 4
#     Node 4, Type 0, BuildingBlock: AZAVOO_clean_sbu_0, # of connection points: 4
#     Node 5, Type 0, BuildingBlock: AZAVOO_clean_sbu_0, # of connection points: 4
#     Node 6, Type 0, BuildingBlock: AZAVOO_clean_sbu_0, # of connection points: 4
#     Node 7, Type 0, BuildingBlock: AZAVOO_clean_sbu_0, # of connection points: 4
#     Edge 8, Type (0, 0), BuildingBlock: ZUJKAS_clean_linker_0, # of connection points: 2
#     Edge 9, Type (0, 0), BuildingBlock: ZUJKAS_clean_linker_0, # of connection points: 2
#     Edge 10, Type (0, 0), BuildingBlock: ZUJKAS_clean_linker_0, # of connection points: 2
#     Edge 11, Type (0, 0), BuildingBlock: ZUJKAS_clean_linker_0, # of connection points: 2
#     Edge 12, Type (0, 0), BuildingBlock: ZUJKAS_clean_linker_0, # of connection points: 2
#     Edge 13, Type (0, 0), BuildingBlock: ZUJKAS_clean_linker_0, # of connection points: 2
#     Edge 14, Type (0, 0), BuildingBlock: ZUJKAS_clean_linker_0, # of connection points: 2
#     Edge 15, Type (0, 0), BuildingBlock: ZUJKAS_clean_linker_0, # of connection points: 2
#     Edge 16, Type (0, 0), BuildingBlock: ZUJKAS_clean_linker_0, # of connection points: 2
#     Edge 17, Type (0, 0), BuildingBlock: ZUJKAS_clean_linker_0, # of connection points: 2
#     Edge 18, Type (0, 0), BuildingBlock: ZUJKAS_clean_linker_0, # of connection points: 2
#     Edge 19, Type (0, 0), BuildingBlock: ZUJKAS_clean_linker_0, # of connection points: 2
#     Edge 20, Type (0, 0), BuildingBlock: ZUJKAS_clean_linker_0, # of connection points: 2
#     Edge 21, Type (0, 0), BuildingBlock: ZUJKAS_clean_linker_0, # of connection points: 2
#     Edge 22, Type (0, 0), BuildingBlock: ZUJKAS_clean_linker_0, # of connection points: 2
#     Edge 23, Type (0, 0), BuildingBlock: ZUJKAS_clean_linker_0, # of connection points: 2
# Relax obj value: 0.214
# Max RMSD: 0.200
# Mean RMSD: 0.200
data_MOF--net-upa--node1-AZAVOO_clean_sbu_0--edge1-ZUJKAS_clean_linker_0
_symmetry_space_group_name_H-M    P1
_symmetry_Int_Tables_number       1
_symmetry_cell_setting            triclinic
loop_
_symmetry_equiv_pos_as_xyz
'x, y, z'
_cell_length_a     34.753563
_cell_length_b     34.724979
_cell_length_c     55.791045
_cell_angle_alpha  90.018814
_cell_angle_beta   90.032013
_cell_angle_gamma 90.1095
loop_
_atom_site_label
_atom_site_type_symbol
_atom_site_fract_x
_atom_site_fract_y
_atom_site_fract_z
_atom_type_partial_charge
Mg0 Mg 0.14263 0.25495 0.33223 0.0
O1 O 0.12357 0.19229 0.33566 0.0
O2 O 0.16757 0.15766 0.35513 0.0
Mg3 Mg 0.21819 0.19846 0.36175 0.0
C4 C 0.13502 0.16062 0.34471 0.0
C5 C 0.06347 0.28487 0.31531 0.0
O6 O 0.0679 0.3041 0.33541 0.0
O7 O 0.18294 0.23929 0.3011 0.0
O8 O 0.22644 0.2045 0.32131 0.0
O9 O 0.11947 0.26496 0.36913 0.0
O10 O 0.17959 0.24851 0.36125 0.0
C11 C 0.21348 0.21881 0.30184 0.0
C12 C 0.15311 0.25482 0.3768 0.0
O13 O 0.09074 0.26359 0.30794 0.0
Mg14 Mg 0.23304 0.637 0.82779 0.0
O15 O 0.29629 0.61903 0.82941 0.0
O16 O 0.33327 0.66689 0.84283 0.0
Mg17 Mg 0.29328 0.71834 0.84756 0.0
C18 C 0.32906 0.63236 0.8355 0.0
C19 C 0.23251 0.55021 0.82036 0.0
O20 O 0.24861 0.5551 0.84145 0.0
O21 O 0.24406 0.67014 0.79284 0.0
O22 O 0.28081 0.71787 0.80736 0.0
O23 O 0.22681 0.62245 0.86656 0.0
O24 O 0.24362 0.67996 0.85329 0.0
C25 C 0.26404 0.70076 0.78998 0.0
C26 C 0.23852 0.65707 0.87111 0.0
O27 O 0.22108 0.57973 0.80885 0.0
Mg28 Mg 0.86487 0.74498 0.32981 0.0
O29 O 0.88483 0.80734 0.33349 0.0
O30 O 0.84142 0.84217 0.35332 0.0
Mg31 Mg 0.79037 0.80194 0.36 0.0
C32 C 0.87383 0.839 0.34278 0.0
C33 C 0.94254 0.71272 0.31248 0.0
O34 O 0.93677 0.69282 0.33219 0.0
O35 O 0.82419 0.76137 0.29896 0.0
O36 O 0.78119 0.79612 0.31959 0.0
O37 O 0.88845 0.7342 0.36651 0.0
O38 O 0.82838 0.75146 0.35909 0.0
C39 C 0.7937 0.78192 0.29997 0.0
C40 C 0.85504 0.7445 0.37444 0.0
O41 O 0.91645 0.73563 0.30532 0.0
Mg42 Mg 0.7507 0.37345 0.83006 0.0
O43 O 0.68749 0.39152 0.83133 0.0
O44 O 0.65226 0.34624 0.84936 0.0
Mg45 Mg 0.6928 0.29601 0.85685 0.0
C46 C 0.65539 0.37909 0.8393 0.0
C47 C 0.78362 0.45233 0.81554 0.0
O48 O 0.80059 0.44605 0.83621 0.0
O49 O 0.73845 0.33365 0.798 0.0
O50 O 0.70255 0.28908 0.8166 0.0
O51 O 0.75709 0.39592 0.86745 0.0
O52 O 0.74189 0.33574 0.85857 0.0
C53 C 0.71833 0.30276 0.79776 0.0
C54 C 0.74651 0.36204 0.87452 0.0
O55 O 0.76207 0.42623 0.80677 0.0
Mg56 Mg 0.64075 0.23794 0.15411 0.0
O57 O 0.62402 0.30149 0.15177 0.0
O58 O 0.667 0.33398 0.1299 0.0
Mg59 Mg 0.71591 0.29194 0.1223 0.0
C60 C 0.63571 0.33243 0.14182 0.0
C61 C 0.56369 0.20734 0.17264 0.0
O62 O 0.5687 0.18769 0.15277 0.0
O63 O 0.6839 0.2519 0.18403 0.0
O64 O 0.72664 0.28581 0.16259 0.0
O65 O 0.61378 0.22961 0.11813 0.0
O66 O 0.67522 0.24364 0.12374 0.0
C67 C 0.71482 0.27177 0.18243 0.0
C68 C 0.64685 0.23902 0.10923 0.0
O69 O 0.59034 0.22979 0.1797 0.0
Mg70 Mg 0.26193 0.13427 0.65617 0.0
O71 O 0.19878 0.1201 0.65006 0.0
O72 O 0.16953 0.16548 0.62852 0.0
Mg73 Mg 0.21506 0.21246 0.62302 0.0
C74 C 0.16905 0.1333 0.63954 0.0
C75 C 0.28852 0.05668 0.67718 0.0
O76 O 0.31604 0.06355 0.66161 0.0
O77 O 0.24535 0.17678 0.68599 0.0
O78 O 0.21737 0.22218 0.66351 0.0
O79 O 0.27424 0.10844 0.62035 0.0
O80 O 0.26178 0.17018 0.62633 0.0
C81 C 0.22795 0.20906 0.68386 0.0
C82 C 0.26738 0.14226 0.61162 0.0
O83 O 0.26318 0.08233 0.68088 0.0
Mg84 Mg 0.36553 0.74907 0.15345 0.0
O85 O 0.38749 0.68703 0.15088 0.0
O86 O 0.34447 0.65067 0.13145 0.0
Mg87 Mg 0.29287 0.68906 0.12322 0.0
C88 C 0.37676 0.65485 0.14203 0.0
C89 C 0.44146 0.78479 0.17161 0.0
O90 O 0.43587 0.80402 0.15165 0.0
O91 O 0.32441 0.7322 0.18393 0.0
O92 O 0.28203 0.6966 0.16332 0.0
O93 O 0.39011 0.76159 0.11717 0.0
O94 O 0.33123 0.73941 0.12336 0.0
C95 C 0.29395 0.71154 0.18288 0.0
C96 C 0.35821 0.74827 0.10857 0.0
O97 O 0.41567 0.76137 0.17867 0.0
Mg98 Mg 0.74729 0.87114 0.65546 0.0
O99 O 0.80912 0.89224 0.65122 0.0
O100 O 0.84484 0.84815 0.6326 0.0
Mg101 Mg 0.80588 0.79571 0.62733 0.0
C102 C 0.84096 0.88127 0.6422 0.0
C103 C 0.71686 0.95123 0.66982 0.0
O104 O 0.70025 0.94588 0.64893 0.0
O105 O 0.76445 0.8329 0.68734 0.0
O106 O 0.80018 0.78921 0.66795 0.0
O107 O 0.73611 0.89185 0.61814 0.0
O108 O 0.75465 0.83272 0.62713 0.0
C109 C 0.78563 0.8028 0.68718 0.0
C110 C 0.74723 0.85818 0.61109 0.0
O111 O 0.73692 0.92418 0.67873 0.0
H112 H 0.14815 0.08777 0.36189 0.0
H113 H 0.10456 0.0324 0.3604 0.0
H114 H 0.01967 0.10135 0.32396 0.0
H115 H 0.06301 0.15664 0.32502 0.0
H116 H 0.03099 0.02612 0.37995 0.0
H117 H 0.02779 0.00582 0.28131 0.0
H118 H 0.06364 0.03505 0.29613 0.0
H119 H 0.01624 0.05385 0.29079 0.0
C120 C 0.12033 0.09113 0.3534 0.0
C121 C 0.10921 0.12666 0.34347 0.0
C122 C 0.09545 0.05947 0.35261 0.0
C123 C 0.05915 0.06268 0.34178 0.0
C124 C 0.04788 0.09806 0.33196 0.0
H125 H 0.86211 0.91146 0.36099 0.0
H126 H 0.90702 0.96578 0.36073 0.0
C127 C 0.07269 0.1297 0.33271 0.0
C128 C 0.03251 0.02938 0.34142 0.0
H129 H 0.98172 0.97046 0.30395 0.0
C130 C 0.02031 0.01381 0.36335 0.0
C131 C 0.01899 0.0132 0.31972 0.0
C132 C 0.03257 0.02755 0.29563 0.0
C133 C 0.99438 0.98282 0.36417 0.0
C134 C 0.97987 0.96748 0.34248 0.0
C135 C 0.99258 0.98262 0.32055 0.0
C136 C 0.95217 0.93506 0.34214 0.0
C137 C 0.98322 0.96638 0.38823 0.0
C138 C 0.96228 0.90021 0.33115 0.0
C139 C 0.93664 0.86922 0.33111 0.0
C140 C 0.90025 0.87253 0.34199 0.0
C141 C 0.88993 0.90782 0.35257 0.0
C142 C 0.91564 0.93883 0.35257 0.0
H143 H 0.00389 0.97485 0.40249 0.0
H144 H 0.95442 0.97741 0.39332 0.0
H145 H 0.98165 0.93446 0.3875 0.0
H146 H 0.99028 0.89682 0.32289 0.0
H147 H 0.94558 0.84255 0.32274 0.0
H148 H 0.40356 0.64902 0.84793 0.0
H149 H 0.45899 0.6058 0.84694 0.0
H150 H 0.38686 0.51417 0.82022 0.0
H151 H 0.3313 0.55708 0.82091 0.0
H152 H 0.46701 0.53531 0.87163 0.0
H153 H 0.47813 0.51608 0.77301 0.0
H154 H 0.45077 0.55455 0.78652 0.0
H155 H 0.43128 0.50664 0.78531 0.0
C156 C 0.39946 0.61976 0.84168 0.0
C157 C 0.36295 0.60661 0.83442 0.0
C158 C 0.43117 0.59512 0.84116 0.0
C159 C 0.42705 0.55701 0.83323 0.0
C160 C 0.39075 0.54372 0.82599 0.0
H161 H 0.5834 0.36632 0.85775 0.0
H162 H 0.52774 0.40922 0.85601 0.0
C163 C 0.35899 0.56829 0.82652 0.0
C164 C 0.46051 0.53076 0.83335 0.0
H165 H 0.51761 0.47596 0.79714 0.0
C166 C 0.47816 0.52237 0.85536 0.0
C167 C 0.47509 0.51425 0.81204 0.0
C168 C 0.45812 0.52352 0.78782 0.0
C169 C 0.50979 0.49744 0.85667 0.0
C170 C 0.52377 0.48021 0.83544 0.0
C171 C 0.50649 0.489 0.81339 0.0
C172 C 0.55692 0.45362 0.83575 0.0
C173 C 0.52838 0.49016 0.88069 0.0
C174 C 0.59137 0.46406 0.82442 0.0
C175 C 0.62323 0.43966 0.82534 0.0
C176 C 0.62109 0.40418 0.83747 0.0
C177 C 0.58613 0.39345 0.84833 0.0
C178 C 0.55433 0.41798 0.84746 0.0
H179 H 0.5196 0.51184 0.89427 0.0
H180 H 0.51963 0.46129 0.88728 0.0
H181 H 0.56023 0.49053 0.87912 0.0
H182 H 0.5938 0.49143 0.81522 0.0
H183 H 0.64961 0.4488 0.81669 0.0
H184 H 0.58187 0.34914 0.17582 0.0
H185 H 0.53926 0.40498 0.17733 0.0
H186 H 0.59038 0.44886 0.11235 0.0
H187 H 0.63427 0.39393 0.11133 0.0
H188 H 0.5791 0.50528 0.14291 0.0
H189 H 0.44533 0.41887 0.13721 0.0
H190 H 0.47396 0.40611 0.16272 0.0
H191 H 0.49228 0.39801 0.13294 0.0
C192 C 0.5841 0.37077 0.1619 0.0
C193 C 0.61123 0.36706 0.14337 0.0
C194 C 0.55952 0.40252 0.16268 0.0
C195 C 0.56089 0.4306 0.14461 0.0
C196 C 0.58863 0.42743 0.12641 0.0
H197 H 0.37742 0.59119 0.11338 0.0
H198 H 0.42312 0.53788 0.11415 0.0
C199 C 0.61371 0.39604 0.12586 0.0
C200 C 0.53348 0.4633 0.14461 0.0
H201 H 0.43786 0.48537 0.14621 0.0
C202 C 0.5482 0.50094 0.14352 0.0
C203 C 0.49313 0.4576 0.145 0.0
C204 C 0.47522 0.41796 0.14427 0.0
C205 C 0.52374 0.53305 0.14298 0.0
C206 C 0.48345 0.52738 0.14444 0.0
C207 C 0.46875 0.48973 0.14539 0.0
C208 C 0.45586 0.55995 0.14423 0.0
C209 C 0.5414 0.57253 0.14011 0.0
C210 C 0.45867 0.58986 0.16109 0.0
C211 C 0.43294 0.62072 0.16043 0.0
C212 C 0.40331 0.62172 0.14328 0.0
C213 C 0.39984 0.59117 0.12688 0.0
C214 C 0.42598 0.5607 0.12728 0.0
H215 H 0.57051 0.57094 0.13194 0.0
H216 H 0.52313 0.59138 0.12878 0.0
H217 H 0.54451 0.58611 0.15801 0.0
H218 H 0.48069 0.58933 0.17482 0.0
H219 H 0.43607 0.64365 0.17346 0.0
H220 H 0.09913 0.14982 0.61895 0.0
H221 H 0.04069 0.11023 0.61974 0.0
H222 H 0.10001 0.02422 0.66139 0.0
H223 H 0.15814 0.06345 0.66101 0.0
H224 H 0.03055 0.03493 0.60271 0.0
H225 H 0.00215 0.04358 0.70033 0.0
H226 H 0.0348 0.07591 0.68517 0.0
H227 H 0.05014 0.02823 0.69332 0.0
C228 C 0.09968 0.1226 0.62841 0.0
C229 C 0.13331 0.10997 0.64003 0.0
C230 C 0.06629 0.10003 0.62881 0.0
C231 C 0.06592 0.06464 0.64095 0.0
C232 C 0.09946 0.05183 0.65237 0.0
H233 H 0.91399 0.86917 0.62518 0.0
H234 H 0.96748 0.91497 0.62442 0.0
C235 C 0.13276 0.07429 0.652 0.0
C236 C 0.03092 0.04033 0.64116 0.0
H237 H 0.96774 0.99523 0.67866 0.0
C238 C 0.01657 0.02648 0.61928 0.0
C239 C 0.01253 0.02976 0.66279 0.0
C240 C 0.02542 0.04543 0.68672 0.0
C241 C 0.98494 0.00133 0.6185 0.0
C242 C 0.96772 0.98931 0.64023 0.0
C243 C 0.98133 0.00411 0.66205 0.0
C244 C 0.93543 0.96146 0.64074 0.0
C245 C 0.97009 0.98807 0.59445 0.0
C246 C 0.90006 0.97208 0.65082 0.0
C247 C 0.86954 0.94591 0.6515 0.0
C248 C 0.87385 0.90848 0.64218 0.0
C249 C 0.90958 0.89777 0.6324 0.0
C250 C 0.94012 0.924 0.63178 0.0
H251 H 0.97935 0.00767 0.5798 0.0
H252 H 0.98166 0.95898 0.59053 0.0
H253 H 0.93818 0.98628 0.59441 0.0
H254 H 0.89597 1.0008 0.65798 0.0
H255 H 0.84249 0.95519 0.65919 0.0
H256 H 0.10074 0.23175 0.41065 0.0
H257 H 0.11522 0.20694 0.45089 0.0
H258 H 0.23585 0.23044 0.4396 0.0
H259 H 0.22174 0.25409 0.39944 0.0
H260 H 0.22337 0.15779 0.45607 0.0
H261 H 0.14435 0.26488 0.51148 0.0
H262 H 0.11604 0.24001 0.48939 0.0
H263 H 0.15362 0.27224 0.47999 0.0
C264 C 0.1302 0.23219 0.417 0.0
C265 C 0.16016 0.24481 0.40203 0.0
C266 C 0.13844 0.21801 0.43993 0.0
C267 C 0.17661 0.21698 0.44822 0.0
C268 C 0.20624 0.23076 0.43349 0.0
H269 H 0.27458 0.20851 0.58671 0.0
H270 H 0.25149 0.22182 0.54627 0.0
C271 C 0.19813 0.24441 0.41061 0.0
C272 C 0.18653 0.20065 0.47189 0.0
H273 H 0.17699 0.21558 0.53197 0.0
C274 C 0.21307 0.17021 0.47272 0.0
C275 C 0.17299 0.217 0.49348 0.0
C276 C 0.14541 0.25053 0.49369 0.0
C277 C 0.22773 0.15669 0.49456 0.0
C278 C 0.2147 0.17351 0.51613 0.0
C279 C 0.18692 0.20283 0.51534 0.0
C280 C 0.23167 0.16364 0.53964 0.0
C281 C 0.25832 0.1259 0.49428 0.0
C282 C 0.22913 0.12621 0.54905 0.0
C283 C 0.24302 0.11837 0.57209 0.0
C284 C 0.25891 0.14807 0.58606 0.0
C285 C 0.26241 0.18514 0.57629 0.0
C286 C 0.24905 0.1928 0.55327 0.0
H287 H 0.27112 0.1222 0.47618 0.0
H288 H 0.28172 0.13284 0.50714 0.0
H289 H 0.24533 0.09802 0.49968 0.0
H290 H 0.21524 0.10345 0.53897 0.0
H291 H 0.23949 0.08968 0.5794 0.0
H292 H 0.2457 0.61147 0.91085 0.0
H293 H 0.26985 0.63051 0.95037 0.0
H294 H 0.28431 0.7472 0.92539 0.0
H295 H 0.25883 0.72887 0.88632 0.0
H296 H 0.34105 0.66054 0.96128 0.0
H297 H 0.22582 0.76299 0.98719 0.0
H298 H 0.22076 0.73002 0.96238 0.0
H299 H 0.2479 0.77382 0.95891 0.0
C300 C 0.25353 0.64128 0.91389 0.0
C301 C 0.25062 0.66862 0.89543 0.0
C302 C 0.26748 0.65206 0.93641 0.0
C303 C 0.27856 0.69032 0.94082 0.0
C304 C 0.27532 0.71768 0.92249 0.0
H305 H 0.37493 0.79544 0.07098 0.0
H306 H 0.36093 0.78322 0.02832 0.0
C307 C 0.26114 0.70702 0.90007 0.0
C308 C 0.29465 0.70132 0.96438 0.0
H309 H 0.28048 0.76026 0.01252 0.0
C310 C 0.32784 0.68236 0.97248 0.0
C311 C 0.27743 0.72999 0.97884 0.0
C312 C 0.24082 0.75016 0.97153 0.0
C313 C 0.34405 0.69104 -0.00515 0.0
C314 C 0.32654 0.71927 0.00938 0.0
C315 C 0.29397 0.73893 0.00109 0.0
C316 C 0.33883 0.72573 0.03432 0.0
C317 C 0.37951 0.66972 0.00298 0.0
C318 C 0.33124 0.69733 0.05149 0.0
C319 C 0.33871 0.7044 0.0756 0.0
C320 C 0.35395 0.73992 0.08292 0.0
C321 C 0.36311 0.76784 0.06565 0.0
C322 C 0.35511 0.76095 0.04143 0.0
H323 H 0.39448 0.65554 0.98777 0.0
H324 H 0.39991 0.68959 0.01207 0.0
H325 H 0.37105 0.64714 0.01603 0.0
H326 H 0.31848 0.67007 0.0463 0.0
H327 H 0.33239 0.68205 0.08847 0.0
H328 H 0.76889 0.9095 0.57637 0.0
H329 H 0.792 0.89405 0.53594 0.0
H330 H 0.76988 0.77349 0.54894 0.0
H331 H 0.74837 0.7886 0.58945 0.0
H332 H 0.83939 0.78376 0.53027 0.0
H333 H 0.73214 0.86571 0.47697 0.0
H334 H 0.75895 0.89447 0.49787 0.0
H335 H 0.72677 0.85779 0.50873 0.0
C336 C 0.76846 0.87982 0.57038 0.0
C337 C 0.75677 0.85021 0.5859 0.0
C338 C 0.78161 0.87103 0.54732 0.0
C339 C 0.78234 0.83264 0.53936 0.0
C340 C 0.76971 0.80328 0.55473 0.0
H341 H 0.78723 0.74204 0.39791 0.0
H342 H 0.77371 0.76385 0.43858 0.0
C343 C 0.75726 0.81195 0.57781 0.0
C344 C 0.79722 0.82234 0.51534 0.0
H345 H 0.7817 0.8348 0.45552 0.0
C346 C 0.82685 0.79495 0.51389 0.0
C347 C 0.78073 0.83696 0.49405 0.0
C348 C 0.74767 0.86509 0.49438 0.0
C349 C 0.83956 0.78075 0.49174 0.0
C350 C 0.82302 0.79533 0.47046 0.0
C351 C 0.79435 0.82371 0.47189 0.0
C352 C 0.83266 0.77964 0.44653 0.0
C353 C 0.86927 0.7491 0.49145 0.0
C354 C 0.87049 0.78052 0.43765 0.0
C355 C 0.87842 0.76719 0.41449 0.0
C356 C 0.84845 0.7537 0.39982 0.0
C357 C 0.81083 0.75235 0.40889 0.0
C358 C 0.80306 0.76497 0.43206 0.0
H359 H 0.87167 0.73462 0.50915 0.0
H360 H 0.86223 0.72705 0.47771 0.0
H361 H 0.8978 0.76162 0.48706 0.0
H362 H 0.89364 0.79247 0.44832 0.0
H363 H 0.90757 0.76904 0.40773 0.0
H364 H 0.74179 0.29268 0.89635 0.0
H365 H 0.71709 0.27852 0.93623 0.0
H366 H 0.69821 0.39969 0.94861 0.0
H367 H 0.72413 0.41423 0.90866 0.0
H368 H 0.72908 0.3659 0.98699 0.0
H369 H 0.60622 0.2779 0.95644 0.0
H370 H 0.65018 0.25976 0.9441 0.0
H371 H 0.63401 0.3074 0.93618 0.0
C372 C 0.73243 0.31635 0.90757 0.0
C373 C 0.73457 0.35452 0.89939 0.0
C374 C 0.71795 0.30818 0.93026 0.0
C375 C 0.7046 0.33792 0.94505 0.0
C376 C 0.70786 0.37627 0.93729 0.0
H377 H 0.59091 0.26549 0.07884 0.0
H378 H 0.60073 0.29405 0.03904 0.0
C379 C 0.72283 0.38455 0.91458 0.0
C380 C 0.6888 0.32856 0.96897 0.0
H381 H 0.62763 0.26647 -0.00275 0.0
C382 C 0.70642 0.34468 0.98924 0.0
C383 C 0.65847 0.30169 0.97194 0.0
C384 C 0.63586 0.28608 0.95097 0.0
C385 C 0.69642 0.33258 0.01238 0.0
C386 C 0.66896 0.30274 0.01518 0.0
C387 C 0.64933 0.28868 -0.00497 0.0
C388 C 0.66222 0.2841 0.03864 0.0
C389 C 0.7158 0.35152 0.03354 0.0
C390 C 0.69322 0.26769 0.05105 0.0
C391 C 0.68774 0.25168 0.07366 0.0
C392 C 0.65101 0.25108 0.08409 0.0
C393 C 0.61951 0.26549 0.07113 0.0
C394 C 0.62511 0.282 0.04851 0.0
H395 H 0.72473 0.38147 0.02922 0.0
H396 H 0.69658 0.35222 0.04943 0.0
H397 H 0.74212 0.33514 0.03826 0.0
H398 H 0.72184 0.26774 0.04337 0.0
H399 H 0.71242 0.24034 0.08318 0.0
H400 H 0.53978 0.25148 0.21052 0.0
H401 H 0.47575 0.25276 0.22873 0.0
H402 H 0.4381 0.16307 0.18061 0.0
H403 H 0.50178 0.1619 0.16207 0.0
H404 H 0.38585 0.22446 0.18422 0.0
H405 H 0.43105 0.17111 0.27372 0.0
H406 H 0.45711 0.2127 0.26354 0.0
H407 H 0.46162 0.16787 0.24767 0.0
C408 C 0.51801 0.23176 0.20396 0.0
C409 C 0.52598 0.20641 0.18495 0.0
C410 C 0.48143 0.23255 0.21438 0.0
C411 C 0.45232 0.20779 0.20612 0.0
C412 C 0.46019 0.18242 0.18722 0.0
H413 H 0.25001 0.1541 0.28781 0.0
H414 H 0.30429 0.15022 0.26017 0.0
C415 C 0.49668 0.18166 0.17675 0.0
C416 C 0.41362 0.20821 0.21723 0.0
H417 H 0.36699 0.19327 0.27014 0.0
C418 C 0.38159 0.21751 0.20299 0.0
C419 C 0.40821 0.19874 0.24162 0.0
C420 C 0.44123 0.18668 0.25752 0.0
C421 C 0.34421 0.21801 0.21263 0.0
C422 C 0.33898 0.20939 0.23716 0.0
C423 C 0.37105 0.19988 0.2513 0.0
C424 C 0.30074 0.20975 0.24893 0.0
C425 C 0.31069 0.22712 0.19644 0.0
C426 C 0.2794 0.24398 0.25081 0.0
C427 C 0.24777 0.24602 0.26633 0.0
C428 C 0.2377 0.21405 0.28042 0.0
C429 C 0.25725 0.17911 0.2771 0.0
C430 C 0.28834 0.17693 0.26141 0.0
H431 H 0.31812 0.2229 0.17725 0.0
H432 H 0.28539 0.20887 0.20084 0.0
H433 H 0.30238 0.25769 0.19895 0.0
H434 H 0.28881 0.26983 0.24167 0.0
H435 H 0.23347 0.27341 0.26887 0.0
H436 H 0.20188 0.72087 0.76331 0.0
H437 H 0.20009 0.77545 0.73539 0.0
H438 H 0.3238 0.78361 0.73831 0.0
H439 H 0.32559 0.72988 0.76657 0.0
H440 H 0.23733 0.84541 0.75754 0.0
H441 H 0.29231 0.8112 0.66646 0.0
H442 H 0.26815 0.77599 0.68506 0.0
H443 H 0.31702 0.78931 0.69133 0.0
C444 C 0.22874 0.73302 0.75695 0.0
C445 C 0.26389 0.7213 0.76696 0.0
C446 C 0.22768 0.76431 0.74115 0.0
C447 C 0.26182 0.78342 0.7348 0.0
C448 C 0.29721 0.7689 0.74274 0.0
H449 H 0.34283 1.00038 0.68123 0.0
H450 H 0.33343 0.93406 0.69493 0.0
C451 C 0.29822 0.7382 0.75884 0.0
C452 C 0.26049 0.82273 0.7247 0.0
H453 H 0.29009 0.87739 0.6774 0.0
C454 C 0.2482 0.8525 0.73984 0.0
C455 C 0.27547 0.83164 0.70189 0.0
C456 C 0.28883 0.80042 0.68509 0.0
C457 C 0.25193 0.89125 0.73319 0.0
C458 C 0.26714 0.9004 0.71034 0.0
C459 C 0.27845 0.87042 0.69491 0.0
C460 C 0.2727 0.94087 0.70244 0.0
C461 C 0.24146 0.92187 0.75126 0.0
C462 C 0.24176 0.96682 0.70218 0.0
C463 C 0.24729 0.00494 0.69494 0.0
C464 C 0.28368 0.01759 0.68721 0.0
C465 C 0.31454 0.99152 0.68725 0.0
C466 C 0.30913 0.95356 0.69491 0.0
H467 H 0.24145 0.91036 0.76985 0.0
H468 H 0.26173 0.94658 0.75046 0.0
H469 H 0.21205 0.93257 0.74738 0.0
H470 H 0.21316 0.95748 0.70725 0.0
H471 H 0.22276 0.02413 0.69464 0.0
H472 H 0.75365 0.84531 0.28703 0.0
H473 H 0.69826 0.84718 0.26008 0.0
H474 H 0.71942 0.72936 0.2396 0.0
H475 H 0.77576 0.72766 0.26622 0.0
H476 H 0.68866 0.77739 0.20175 0.0
H477 H 0.60505 0.78633 0.2863 0.0
H478 H 0.64005 0.82401 0.28285 0.0
H479 H 0.65565 0.77488 0.28573 0.0
C480 C 0.74728 0.82024 0.27614 0.0
C481 C 0.76866 0.78622 0.27882 0.0
C482 C 0.71553 0.82127 0.26088 0.0
C483 C 0.7042 0.78808 0.24841 0.0
C484 C 0.72762 0.75518 0.24925 0.0
H485 H 0.46774 0.73922 0.20813 0.0
H486 H 0.53225 0.7387 0.22563 0.0
C487 C 0.75987 0.7543 0.26433 0.0
C488 C 0.66569 0.78648 0.23709 0.0
H489 H 0.57003 0.79363 0.2502 0.0
C490 C 0.66267 0.78085 0.21227 0.0
C491 C 0.63183 0.79015 0.25101 0.0
C492 C 0.63313 0.7938 0.27798 0.0
C493 C 0.62656 0.7798 0.20089 0.0
C494 C 0.5928 0.78519 0.21472 0.0
C495 C 0.59592 0.78993 0.23959 0.0
C496 C 0.55381 0.78565 0.2039 0.0
C497 C 0.62489 0.77226 0.17428 0.0
C498 C 0.54421 0.81283 0.1863 0.0
C499 C 0.50737 0.81318 0.17624 0.0
C500 C 0.47928 0.78661 0.1838 0.0
C501 C 0.48864 0.76015 0.20195 0.0
C502 C 0.52556 0.7597 0.21189 0.0
H503 H 0.65153 0.75806 0.16775 0.0
H504 H 0.59983 0.75385 0.1696 0.0
H505 H 0.62193 0.80007 0.16467 0.0
H506 H 0.56518 0.83386 0.18036 0.0
H507 H 0.50103 0.83407 0.16238 0.0
H508 H 0.77627 0.28186 0.76746 0.0
H509 H 0.77475 0.22659 0.74007 0.0
H510 H 0.65286 0.21383 0.75251 0.0
H511 H 0.65465 0.268 0.7804 0.0
H512 H 0.69212 0.15032 0.76451 0.0
H513 H 0.73639 0.19751 0.67363 0.0
H514 H 0.7687 0.21246 0.69698 0.0
H515 H 0.72041 0.23091 0.69635 0.0
C516 C 0.74894 0.26822 0.7635 0.0
C517 C 0.71558 0.27899 0.77598 0.0
C518 C 0.74806 0.23661 0.74788 0.0
C519 C 0.71367 0.216 0.74427 0.0
C520 C 0.67971 0.22919 0.75508 0.0
H521 H 0.67533 0.01391 0.65567 0.0
H522 H 0.67493 0.0781 0.67365 0.0
C523 C 0.68071 0.26023 0.77091 0.0
C524 C 0.71388 0.17763 0.73257 0.0
H525 H 0.73594 0.12971 0.68094 0.0
C526 C 0.70146 0.14591 0.74616 0.0
C527 C 0.72604 0.17189 0.70866 0.0
C528 C 0.73831 0.20503 0.69295 0.0
C529 C 0.70095 0.10861 0.73659 0.0
C530 C 0.71409 0.10266 0.71292 0.0
C531 C 0.7262 0.13436 0.69918 0.0
C532 C 0.71477 0.06373 0.70205 0.0
C533 C 0.68569 0.07604 0.7518 0.0
C534 C 0.73736 0.03436 0.71206 0.0
C535 C 0.73742 0.9975 0.70196 0.0
C536 C 0.71514 0.98947 0.68151 0.0
C537 C 0.69268 0.01905 0.67148 0.0
C538 C 0.69256 0.05583 0.68164 0.0
H539 H 0.66767 0.08676 0.76683 0.0
H540 H 0.66828 0.05568 0.74091 0.0
H541 H 0.71023 0.05994 0.75961 0.0
H542 H 0.7552 0.04004 0.7276 0.0
H543 H 0.75537 0.97551 0.70996 0.0
H544 H 0.00176 0.33158 0.32386 0.0
H545 H 0.93829 0.32878 0.30502 0.0
H546 H 0.9758 0.23399 0.2609 0.0
H547 H 0.03963 0.23724 0.27918 0.0
H548 H 0.93825 0.28645 0.23526 0.0
H549 H 0.8528 0.25185 0.31628 0.0
H550 H 0.88101 0.29487 0.31955 0.0
H551 H 0.90466 0.24923 0.31574 0.0
C552 C 0.99653 0.31018 0.31011 0.0
C553 C 0.02574 0.28463 0.30301 0.0
C554 C 0.96008 0.30834 0.29955 0.0
C555 C 0.952 0.28057 0.28197 0.0
C556 C 0.9813 0.25544 0.27459 0.0
H557 H 0.73237 0.21841 0.21682 0.0
H558 H 0.78811 0.22093 0.24394 0.0
C559 C 0.01783 0.25746 0.28498 0.0
C560 C 0.91363 0.27887 0.27035 0.0
H561 H 0.81721 0.26996 0.28135 0.0
C562 C 0.91185 0.28264 0.24536 0.0
C563 C 0.87919 0.27333 0.2835 0.0
C564 C 0.87943 0.26668 0.31023 0.0
C565 C 0.87662 0.28179 0.23317 0.0
C566 C 0.84206 0.27814 0.2464 0.0
C567 C 0.84374 0.27341 0.27134 0.0
C568 C 0.80417 0.27914 0.23428 0.0
C569 C 0.87683 0.28436 0.20615 0.0
C570 C 0.79359 0.31177 0.22107 0.0
C571 C 0.76226 0.31024 0.2055 0.0
C572 C 0.74049 0.2763 0.20327 0.0
C573 C 0.74863 0.24495 0.21833 0.0
C574 C 0.7805 0.24631 0.23372 0.0
H575 H 0.90532 0.27654 0.19856 0.0
H576 H 0.85466 0.26515 0.19818 0.0
H577 H 0.87038 0.31438 0.20067 0.0
H578 H 0.81101 0.33766 0.22168 0.0
H579 H 0.75632 0.33492 0.19421 0.0
H580 H 0.26651 0.20876 0.72699 0.0
H581 H 0.26349 0.25864 0.75819 0.0
H582 H 0.17422 0.31681 0.71858 0.0
H583 H 0.17644 0.26724 0.68795 0.0
H584 H 0.28099 0.33329 0.74949 0.0
H585 H 0.13337 0.32653 0.78551 0.0
H586 H 0.15419 0.28748 0.76855 0.0
H587 H 0.13253 0.32785 0.75341 0.0
C588 C 0.24545 0.23156 0.72537 0.0
C589 C 0.22192 0.23421 0.70494 0.0
C590 C 0.24384 0.26009 0.74314 0.0
C591 C 0.21832 0.29126 0.74086 0.0
C592 C 0.19349 0.29267 0.72108 0.0
H593 H 0.19624 0.52762 0.77891 0.0
H594 H 0.19304 0.46235 0.76211 0.0
C595 C 0.19512 0.26441 0.70341 0.0
C596 C 0.22076 0.32503 0.75706 0.0
H597 H 0.16506 0.38899 0.78798 0.0
C598 C 0.25587 0.345 0.7584 0.0
C599 C 0.18791 0.34039 0.7686 0.0
C600 C 0.15001 0.31916 0.76915 0.0
C601 C 0.25846 0.38097 0.76975 0.0
C602 C 0.22512 0.39721 0.78008 0.0
C603 C 0.19041 0.37658 0.77971 0.0
C604 C 0.22569 0.43613 0.79078 0.0
C605 C 0.29636 0.40224 0.76972 0.0
C606 C 0.24474 0.44266 0.81252 0.0
C607 C 0.24653 0.47971 0.82216 0.0
C608 C 0.22934 0.51096 0.81019 0.0
C609 C 0.20983 0.5042 0.78852 0.0
C610 C 0.20789 0.46699 0.77894 0.0
H611 H 0.31817 0.388 0.75819 0.0
H612 H 0.29227 0.43227 0.76339 0.0
H613 H 0.30779 0.4036 0.78828 0.0
H614 H 0.25844 0.4191 0.82195 0.0
H615 H 0.26179 0.48386 0.8389 0.0
H616 H 0.25101 0.64958 0.19532 0.0
H617 H 0.19572 0.64926 0.22234 0.0
H618 H 0.22162 0.7659 0.24353 0.0
H619 H 0.27781 0.76605 0.21682 0.0
H620 H 0.18988 0.71824 0.28122 0.0
H621 H 0.10421 0.71353 0.19729 0.0
H622 H 0.13793 0.67469 0.20013 0.0
H623 H 0.1552 0.72337 0.19755 0.0
C624 C 0.24564 0.67472 0.20632 0.0
C625 C 0.26836 0.70799 0.20383 0.0
C626 C 0.21395 0.67457 0.22163 0.0
C627 C 0.20405 0.70791 0.23437 0.0
C628 C 0.2287 0.73999 0.23367 0.0
H629 H 0.96904 0.75961 0.27666 0.0
H630 H 0.03339 0.76038 0.25896 0.0
C631 C 0.26086 0.73998 0.21852 0.0
C632 C 0.16585 0.71052 0.24599 0.0
H633 H 0.06976 0.70597 0.23362 0.0
C634 C 0.16356 0.7157 0.27087 0.0
C635 C 0.1316 0.70806 0.23232 0.0
C636 C 0.13219 0.70499 0.20532 0.0
C637 C 0.12776 0.71735 0.28256 0.0
C638 C 0.09355 0.71302 0.26898 0.0
C639 C 0.09597 0.70886 0.24404 0.0
C640 C 0.05482 0.71279 0.28014 0.0
C641 C 0.12692 0.7243 0.30925 0.0
C642 C 0.04522 0.68526 0.29755 0.0
C643 C 0.00849 0.68479 0.30773 0.0
C644 C 0.98048 0.71156 0.30047 0.0
C645 C 0.98988 0.73851 0.28259 0.0
C646 C 0.0267 0.7391 0.27254 0.0
H647 H 0.15394 0.73809 0.31562 0.0
H648 H 0.10226 0.74285 0.31436 0.0
H649 H 0.12386 0.69631 0.31865 0.0
H650 H 0.06607 0.66396 0.30319 0.0
H651 H 0.00211 0.66352 0.32137 0.0
H652 H 0.74514 0.4786 0.77593 0.0
H653 H 0.74803 0.5431 0.7584 0.0
H654 H 0.83182 0.57714 0.8114 0.0
H655 H 0.8287 0.51296 0.8293 0.0
H656 H 0.77376 0.63154 0.80512 0.0
H657 H 0.83582 0.58628 0.71798 0.0
H658 H 0.7923 0.56125 0.72564 0.0
H659 H 0.83464 0.55496 0.74377 0.0
C660 C 0.76444 0.49968 0.78374 0.0
C661 C 0.78689 0.49053 0.80391 0.0
C662 C 0.76607 0.53653 0.77369 0.0
C663 C 0.79045 0.56476 0.78345 0.0
C664 C 0.81285 0.55575 0.80358 0.0
H665 H 0.85037 0.76706 0.70213 0.0
H666 H 0.85393 0.71334 0.73027 0.0
C667 C 0.81115 0.51898 0.8137 0.0
C668 C 0.79259 0.60371 0.77266 0.0
H669 H 0.8131 0.65052 0.72053 0.0
C670 C 0.7826 0.63582 0.78667 0.0
C671 C 0.80464 0.60922 0.74872 0.0
C672 C 0.81783 0.57617 0.7332 0.0
C673 C 0.78355 0.67332 0.77714 0.0
C674 C 0.79425 0.67862 0.75292 0.0
C675 C 0.80484 0.64649 0.73911 0.0
C676 C 0.79421 0.71684 0.74101 0.0
C677 C 0.77353 0.70683 0.79315 0.0
C678 C 0.76 0.73809 0.7387 0.0
C679 C 0.75816 0.76944 0.72293 0.0
C680 C 0.79031 0.77933 0.70898 0.0
C681 C 0.82522 0.75998 0.71273 0.0
C682 C 0.82722 0.72918 0.72871 0.0
H683 H 0.77743 0.69949 0.81238 0.0
H684 H 0.79142 0.73245 0.7889 0.0
H685 H 0.74288 0.71454 0.79039 0.0
H686 H 0.73397 0.72874 0.74764 0.0
H687 H 0.73077 0.78355 0.72005 0.0
loop_
_geom_bond_atom_site_label_1
_geom_bond_atom_site_label_2
_geom_bond_distance
_geom_bond_site_symmetry_2
_ccdc_geom_bond_type
Mg0 O1 2.028 . S
Mg0 O7 1.986 . S
Mg0 O9 2.114 . S
Mg0 O10 2.251 . S
Mg0 O13 2.010 . S
O1 Mg0 2.028 . S
O1 C4 1.250 . S
O2 Mg3 2.028 . S
O2 C4 1.248 . S
Mg3 O2 2.028 . S
Mg3 O8 2.032 . S
Mg3 O10 2.079 . S
C4 O1 1.250 . S
C4 O2 1.248 . S
C5 O6 1.264 . S
C5 O13 1.249 . S
O6 C5 1.264 . S
O7 Mg0 1.986 . S
O7 C11 1.246 . S
O8 Mg3 2.032 . S
O8 C11 1.259 . S
O9 Mg0 2.114 . S
O9 C12 1.252 . S
O10 Mg0 2.251 . S
O10 Mg3 2.079 . S
O10 C12 1.273 . S
C11 O7 1.246 . S
C11 O8 1.259 . S
C12 O9 1.252 . S
C12 O10 1.273 . S
O13 Mg0 2.010 . S
O13 C5 1.249 . S
Mg14 O15 2.028 . S
Mg14 O21 1.986 . S
Mg14 O23 2.114 . S
Mg14 O24 2.251 . S
Mg14 O27 2.010 . S
O15 Mg14 2.028 . S
O15 C18 1.250 . S
O16 Mg17 2.028 . S
O16 C18 1.248 . S
Mg17 O16 2.028 . S
Mg17 O22 2.032 . S
Mg17 O24 2.079 . S
C18 O15 1.250 . S
C18 O16 1.248 . S
C19 O20 1.264 . S
C19 O27 1.249 . S
O20 C19 1.264 . S
O21 Mg14 1.986 . S
O21 C25 1.246 . S
O22 Mg17 2.032 . S
O22 C25 1.259 . S
O23 Mg14 2.114 . S
O23 C26 1.252 . S
O24 Mg14 2.251 . S
O24 Mg17 2.079 . S
O24 C26 1.273 . S
C25 O21 1.246 . S
C25 O22 1.259 . S
C26 O23 1.252 . S
C26 O24 1.273 . S
O27 Mg14 2.010 . S
O27 C19 1.249 . S
Mg28 O29 2.028 . S
Mg28 O35 1.986 . S
Mg28 O37 2.114 . S
Mg28 O38 2.251 . S
Mg28 O41 2.010 . S
O29 Mg28 2.028 . S
O29 C32 1.250 . S
O30 Mg31 2.028 . S
O30 C32 1.248 . S
Mg31 O30 2.028 . S
Mg31 O36 2.032 . S
Mg31 O38 2.079 . S
C32 O29 1.250 . S
C32 O30 1.248 . S
C33 O34 1.264 . S
C33 O41 1.249 . S
O34 C33 1.264 . S
O35 Mg28 1.986 . S
O35 C39 1.246 . S
O36 Mg31 2.032 . S
O36 C39 1.259 . S
O37 Mg28 2.114 . S
O37 C40 1.252 . S
O38 Mg28 2.251 . S
O38 Mg31 2.079 . S
O38 C40 1.273 . S
C39 O35 1.246 . S
C39 O36 1.259 . S
C40 O37 1.252 . S
C40 O38 1.273 . S
O41 Mg28 2.010 . S
O41 C33 1.249 . S
Mg42 O43 2.028 . S
Mg42 O49 1.986 . S
Mg42 O51 2.114 . S
Mg42 O52 2.251 . S
Mg42 O55 2.010 . S
O43 Mg42 2.028 . S
O43 C46 1.250 . S
O44 Mg45 2.028 . S
O44 C46 1.248 . S
Mg45 O44 2.028 . S
Mg45 O50 2.032 . S
Mg45 O52 2.079 . S
C46 O43 1.250 . S
C46 O44 1.248 . S
C47 O48 1.264 . S
C47 O55 1.249 . S
O48 C47 1.264 . S
O49 Mg42 1.986 . S
O49 C53 1.246 . S
O50 Mg45 2.032 . S
O50 C53 1.259 . S
O51 Mg42 2.114 . S
O51 C54 1.252 . S
O52 Mg42 2.251 . S
O52 Mg45 2.079 . S
O52 C54 1.273 . S
C53 O49 1.246 . S
C53 O50 1.259 . S
C54 O51 1.252 . S
C54 O52 1.273 . S
O55 Mg42 2.010 . S
O55 C47 1.249 . S
Mg56 O57 2.028 . S
Mg56 O63 1.986 . S
Mg56 O65 2.114 . S
Mg56 O66 2.251 . S
Mg56 O69 2.010 . S
O57 Mg56 2.028 . S
O57 C60 1.250 . S
O58 Mg59 2.028 . S
O58 C60 1.248 . S
Mg59 O58 2.028 . S
Mg59 O64 2.032 . S
Mg59 O66 2.079 . S
C60 O57 1.250 . S
C60 O58 1.248 . S
C61 O62 1.264 . S
C61 O69 1.249 . S
O62 C61 1.264 . S
O63 Mg56 1.986 . S
O63 C67 1.246 . S
O64 Mg59 2.032 . S
O64 C67 1.259 . S
O65 Mg56 2.114 . S
O65 C68 1.252 . S
O66 Mg56 2.251 . S
O66 Mg59 2.079 . S
O66 C68 1.273 . S
C67 O63 1.246 . S
C67 O64 1.259 . S
C68 O65 1.252 . S
C68 O66 1.273 . S
O69 Mg56 2.010 . S
O69 C61 1.249 . S
Mg70 O71 2.028 . S
Mg70 O77 1.986 . S
Mg70 O79 2.114 . S
Mg70 O80 2.251 . S
Mg70 O83 2.010 . S
O71 Mg70 2.028 . S
O71 C74 1.250 . S
O72 Mg73 2.028 . S
O72 C74 1.248 . S
Mg73 O72 2.028 . S
Mg73 O78 2.032 . S
Mg73 O80 2.079 . S
C74 O71 1.250 . S
C74 O72 1.248 . S
C75 O76 1.264 . S
C75 O83 1.249 . S
O76 C75 1.264 . S
O77 Mg70 1.986 . S
O77 C81 1.246 . S
O78 Mg73 2.032 . S
O78 C81 1.259 . S
O79 Mg70 2.114 . S
O79 C82 1.252 . S
O80 Mg70 2.251 . S
O80 Mg73 2.079 . S
O80 C82 1.273 . S
C81 O77 1.246 . S
C81 O78 1.259 . S
C82 O79 1.252 . S
C82 O80 1.273 . S
O83 Mg70 2.010 . S
O83 C75 1.249 . S
Mg84 O85 2.028 . S
Mg84 O91 1.986 . S
Mg84 O93 2.114 . S
Mg84 O94 2.251 . S
Mg84 O97 2.010 . S
O85 Mg84 2.028 . S
O85 C88 1.250 . S
O86 Mg87 2.028 . S
O86 C88 1.248 . S
Mg87 O86 2.028 . S
Mg87 O92 2.032 . S
Mg87 O94 2.079 . S
C88 O85 1.250 . S
C88 O86 1.248 . S
C89 O90 1.264 . S
C89 O97 1.249 . S
O90 C89 1.264 . S
O91 Mg84 1.986 . S
O91 C95 1.246 . S
O92 Mg87 2.032 . S
O92 C95 1.259 . S
O93 Mg84 2.114 . S
O93 C96 1.252 . S
O94 Mg84 2.251 . S
O94 Mg87 2.079 . S
O94 C96 1.273 . S
C95 O91 1.246 . S
C95 O92 1.259 . S
C96 O93 1.252 . S
C96 O94 1.273 . S
O97 Mg84 2.010 . S
O97 C89 1.249 . S
Mg98 O99 2.028 . S
Mg98 O105 1.986 . S
Mg98 O107 2.114 . S
Mg98 O108 2.251 . S
Mg98 O111 2.010 . S
O99 Mg98 2.028 . S
O99 C102 1.250 . S
O100 Mg101 2.028 . S
O100 C102 1.248 . S
Mg101 O100 2.028 . S
Mg101 O106 2.032 . S
Mg101 O108 2.079 . S
C102 O99 1.250 . S
C102 O100 1.248 . S
C103 O104 1.264 . S
C103 O111 1.249 . S
O104 C103 1.264 . S
O105 Mg98 1.986 . S
O105 C109 1.246 . S
O106 Mg101 2.032 . S
O106 C109 1.259 . S
O107 Mg98 2.114 . S
O107 C110 1.252 . S
O108 Mg98 2.251 . S
O108 Mg101 2.079 . S
O108 C110 1.273 . S
C109 O105 1.246 . S
C109 O106 1.259 . S
C110 O107 1.252 . S
C110 O108 1.273 . S
O111 Mg98 2.010 . S
O111 C103 1.249 . S
H112 C120 0.929 . S
H113 C122 0.930 . S
H114 C124 0.930 . S
H115 C127 0.929 . S
H116 C130 0.930 . S
H117 C132 0.960 . S
H118 C132 0.960 . S
H119 C132 0.960 . S
C120 H112 0.929 . S
C120 C121 1.377 . S
C120 C122 1.384 . S
C121 C120 1.377 . S
C121 C127 1.390 . S
C122 H113 0.930 . S
C122 C120 1.384 . S
C122 C123 1.372 . S
C123 C122 1.372 . S
C123 C124 1.400 . S
C123 C128 1.490 . S
C124 H114 0.930 . S
C124 C123 1.400 . S
C124 C127 1.386 . S
H125 C141 0.930 . S
H126 C142 0.931 . S
C127 H115 0.929 . S
C127 C121 1.390 . S
C127 C124 1.386 . S
C128 C123 1.490 . S
C128 C130 1.395 . S
C128 C131 1.403 1_455 S
H129 C135 0.930 . S
C130 H116 0.930 . S
C130 C128 1.395 . S
C130 C133 1.403 1_545 S
C131 C128 1.403 1_655 S
C131 C132 1.524 . S
C131 C135 1.400 1_545 S
C132 H117 0.960 . S
C132 H118 0.960 . S
C132 H119 0.960 . S
C132 C131 1.524 . S
C133 C130 1.403 1_565 S
C133 C134 1.392 1_455 S
C133 C137 1.495 . S
C134 C133 1.392 1_655 S
C134 C135 1.385 . S
C134 C136 1.478 . S
C135 H129 0.930 . S
C135 C131 1.400 1_565 S
C135 C134 1.385 . S
C136 C134 1.478 . S
C136 C138 1.381 . S
C136 C142 1.383 . S
C137 C133 1.495 . S
C137 H143 0.959 . S
C137 H144 0.961 . S
C137 H145 0.960 . S
C138 C136 1.381 . S
C138 C139 1.394 . S
C138 H146 0.930 . S
C139 C138 1.394 . S
C139 C140 1.383 . S
C139 H147 0.929 . S
C140 C139 1.383 . S
C140 C141 1.377 . S
C141 H125 0.930 . S
C141 C140 1.377 . S
C141 C142 1.379 . S
C142 H126 0.931 . S
C142 C136 1.383 . S
C142 C141 1.379 . S
H143 C137 0.959 . S
H144 C137 0.961 . S
H145 C137 0.960 . S
H146 C138 0.930 . S
H147 C139 0.929 . S
H148 C156 0.929 . S
H149 C158 0.930 . S
H150 C160 0.930 . S
H151 C163 0.929 . S
H152 C166 0.930 . S
H153 C168 0.960 . S
H154 C168 0.960 . S
H155 C168 0.960 . S
C156 H148 0.929 . S
C156 C157 1.377 . S
C156 C158 1.384 . S
C157 C156 1.377 . S
C157 C163 1.390 . S
C158 H149 0.930 . S
C158 C156 1.384 . S
C158 C159 1.372 . S
C159 C158 1.372 . S
C159 C160 1.400 . S
C159 C164 1.490 . S
C160 H150 0.930 . S
C160 C159 1.400 . S
C160 C163 1.386 . S
H161 C177 0.930 . S
H162 C178 0.931 . S
C163 H151 0.929 . S
C163 C157 1.390 . S
C163 C160 1.386 . S
C164 C159 1.490 . S
C164 C166 1.395 . S
C164 C167 1.403 . S
H165 C171 0.930 . S
C166 H152 0.930 . S
C166 C164 1.395 . S
C166 C169 1.403 . S
C167 C164 1.403 . S
C167 C168 1.524 . S
C167 C171 1.400 . S
C168 H153 0.960 . S
C168 H154 0.960 . S
C168 H155 0.960 . S
C168 C167 1.524 . S
C169 C166 1.403 . S
C169 C170 1.392 . S
C169 C173 1.495 . S
C170 C169 1.392 . S
C170 C171 1.385 . S
C170 C172 1.478 . S
C171 H165 0.930 . S
C171 C167 1.400 . S
C171 C170 1.385 . S
C172 C170 1.478 . S
C172 C174 1.381 . S
C172 C178 1.383 . S
C173 C169 1.495 . S
C173 H179 0.959 . S
C173 H180 0.961 . S
C173 H181 0.960 . S
C174 C172 1.381 . S
C174 C175 1.394 . S
C174 H182 0.930 . S
C175 C174 1.394 . S
C175 C176 1.383 . S
C175 H183 0.929 . S
C176 C175 1.383 . S
C176 C177 1.377 . S
C177 H161 0.930 . S
C177 C176 1.377 . S
C177 C178 1.379 . S
C178 H162 0.931 . S
C178 C172 1.383 . S
C178 C177 1.379 . S
H179 C173 0.959 . S
H180 C173 0.961 . S
H181 C173 0.960 . S
H182 C174 0.930 . S
H183 C175 0.929 . S
H184 C192 0.929 . S
H185 C194 0.930 . S
H186 C196 0.930 . S
H187 C199 0.929 . S
H188 C202 0.930 . S
H189 C204 0.960 . S
H190 C204 0.960 . S
H191 C204 0.960 . S
C192 H184 0.929 . S
C192 C193 1.377 . S
C192 C194 1.384 . S
C193 C192 1.377 . S
C193 C199 1.390 . S
C194 H185 0.930 . S
C194 C192 1.384 . S
C194 C195 1.372 . S
C195 C194 1.372 . S
C195 C196 1.400 . S
C195 C200 1.490 . S
C196 H186 0.930 . S
C196 C195 1.400 . S
C196 C199 1.386 . S
H197 C213 0.930 . S
H198 C214 0.931 . S
C199 H187 0.929 . S
C199 C193 1.390 . S
C199 C196 1.386 . S
C200 C195 1.490 . S
C200 C202 1.395 . S
C200 C203 1.403 . S
H201 C207 0.930 . S
C202 H188 0.930 . S
C202 C200 1.395 . S
C202 C205 1.403 . S
C203 C200 1.403 . S
C203 C204 1.524 . S
C203 C207 1.400 . S
C204 H189 0.960 . S
C204 H190 0.960 . S
C204 H191 0.960 . S
C204 C203 1.524 . S
C205 C202 1.403 . S
C205 C206 1.392 . S
C205 C209 1.495 . S
C206 C205 1.392 . S
C206 C207 1.385 . S
C206 C208 1.478 . S
C207 H201 0.930 . S
C207 C203 1.400 . S
C207 C206 1.385 . S
C208 C206 1.478 . S
C208 C210 1.381 . S
C208 C214 1.383 . S
C209 C205 1.495 . S
C209 H215 0.959 . S
C209 H216 0.961 . S
C209 H217 0.960 . S
C210 C208 1.381 . S
C210 C211 1.394 . S
C210 H218 0.930 . S
C211 C210 1.394 . S
C211 C212 1.383 . S
C211 H219 0.929 . S
C212 C211 1.383 . S
C212 C213 1.377 . S
C213 H197 0.930 . S
C213 C212 1.377 . S
C213 C214 1.379 . S
C214 H198 0.931 . S
C214 C208 1.383 . S
C214 C213 1.379 . S
H215 C209 0.959 . S
H216 C209 0.961 . S
H217 C209 0.960 . S
H218 C210 0.930 . S
H219 C211 0.929 . S
H220 C228 0.929 . S
H221 C230 0.930 . S
H222 C232 0.930 . S
H223 C235 0.929 . S
H224 C238 0.932 . S
H225 C240 0.960 . S
H226 C240 0.960 . S
H227 C240 0.960 . S
C228 H220 0.929 . S
C228 C229 1.377 . S
C228 C230 1.384 . S
C229 C228 1.377 . S
C229 C235 1.390 . S
C230 H221 0.930 . S
C230 C228 1.384 . S
C230 C231 1.372 . S
C231 C230 1.372 . S
C231 C232 1.400 . S
C231 C236 1.490 . S
C232 H222 0.930 . S
C232 C231 1.400 . S
C232 C235 1.386 . S
H233 C249 0.930 . S
H234 C250 0.931 . S
C235 H223 0.929 . S
C235 C229 1.390 . S
C235 C232 1.386 . S
C236 C231 1.490 . S
C236 C238 1.410 . S
C236 C239 1.403 1_545 S
H237 C243 0.930 . S
C238 H224 0.932 . S
C238 C236 1.410 . S
C238 C241 1.386 1_455 S
C239 C236 1.403 1_565 S
C239 C240 1.524 . S
C239 C243 1.400 1_455 S
C240 H225 0.960 . S
C240 H226 0.960 . S
C240 H227 0.960 . S
C240 C239 1.524 . S
C241 C238 1.386 1_655 S
C241 C242 1.392 1_545 S
C241 C245 1.495 . S
C242 C241 1.392 1_565 S
C242 C243 1.385 . S
C242 C244 1.478 . S
C243 H237 0.930 . S
C243 C239 1.400 1_655 S
C243 C242 1.385 . S
C244 C242 1.478 . S
C244 C246 1.381 . S
C244 C250 1.383 . S
C245 C241 1.495 . S
C245 H251 0.959 . S
C245 H252 0.961 . S
C245 H253 0.960 . S
C246 C244 1.381 . S
C246 C247 1.394 . S
C246 H254 0.930 . S
C247 C246 1.394 . S
C247 C248 1.383 . S
C247 H255 0.929 . S
C248 C247 1.383 . S
C248 C249 1.377 . S
C249 H233 0.930 . S
C249 C248 1.377 . S
C249 C250 1.379 . S
C250 H234 0.931 . S
C250 C244 1.383 . S
C250 C249 1.379 . S
H251 C245 0.959 . S
H252 C245 0.961 . S
H253 C245 0.960 . S
H254 C246 0.930 . S
H255 C247 0.929 . S
H256 C264 0.929 . S
H257 C266 0.930 . S
H258 C268 0.930 . S
H259 C271 0.929 . S
H260 C274 0.930 . S
H261 C276 0.960 . S
H262 C276 0.960 . S
H263 C276 0.960 . S
C264 H256 0.929 . S
C264 C265 1.377 . S
C264 C266 1.384 . S
C265 C264 1.377 . S
C265 C271 1.390 . S
C266 H257 0.930 . S
C266 C264 1.384 . S
C266 C267 1.372 . S
C267 C266 1.372 . S
C267 C268 1.400 . S
C267 C272 1.490 . S
C268 H258 0.930 . S
C268 C267 1.400 . S
C268 C271 1.386 . S
H269 C285 0.930 . S
H270 C286 0.931 . S
C271 H259 0.929 . S
C271 C265 1.390 . S
C271 C268 1.386 . S
C272 C267 1.490 . S
C272 C274 1.395 . S
C272 C275 1.403 . S
H273 C279 0.930 . S
C274 H260 0.930 . S
C274 C272 1.395 . S
C274 C277 1.403 . S
C275 C272 1.403 . S
C275 C276 1.524 . S
C275 C279 1.400 . S
C276 H261 0.960 . S
C276 H262 0.960 . S
C276 H263 0.960 . S
C276 C275 1.524 . S
C277 C274 1.403 . S
C277 C278 1.392 . S
C277 C281 1.495 . S
C278 C277 1.392 . S
C278 C279 1.385 . S
C278 C280 1.478 . S
C279 H273 0.930 . S
C279 C275 1.400 . S
C279 C278 1.385 . S
C280 C278 1.478 . S
C280 C282 1.381 . S
C280 C286 1.383 . S
C281 C277 1.495 . S
C281 H287 0.959 . S
C281 H288 0.961 . S
C281 H289 0.960 . S
C282 C280 1.381 . S
C282 C283 1.394 . S
C282 H290 0.930 . S
C283 C282 1.394 . S
C283 C284 1.383 . S
C283 H291 0.929 . S
C284 C283 1.383 . S
C284 C285 1.377 . S
C285 H269 0.930 . S
C285 C284 1.377 . S
C285 C286 1.379 . S
C286 H270 0.931 . S
C286 C280 1.383 . S
C286 C285 1.379 . S
H287 C281 0.959 . S
H288 C281 0.961 . S
H289 C281 0.960 . S
H290 C282 0.930 . S
H291 C283 0.929 . S
H292 C300 0.929 . S
H293 C302 0.930 . S
H294 C304 0.930 . S
H295 C307 0.929 . S
H296 C310 0.930 . S
H297 C312 0.960 . S
H298 C312 0.960 . S
H299 C312 0.960 . S
C300 H292 0.929 . S
C300 C301 1.377 . S
C300 C302 1.384 . S
C301 C300 1.377 . S
C301 C307 1.390 . S
C302 H293 0.930 . S
C302 C300 1.384 . S
C302 C303 1.372 . S
C303 C302 1.372 . S
C303 C304 1.400 . S
C303 C308 1.490 . S
C304 H294 0.930 . S
C304 C303 1.400 . S
C304 C307 1.386 . S
H305 C321 0.930 . S
H306 C322 0.931 . S
C307 H295 0.929 . S
C307 C301 1.390 . S
C307 C304 1.386 . S
C308 C303 1.490 . S
C308 C310 1.395 . S
C308 C311 1.403 . S
H309 C315 0.930 . S
C310 H296 0.930 . S
C310 C308 1.395 . S
C310 C313 1.403 1_556 S
C311 C308 1.403 . S
C311 C312 1.524 . S
C311 C315 1.400 1_556 S
C312 H297 0.960 . S
C312 H298 0.960 . S
C312 H299 0.960 . S
C312 C311 1.524 . S
C313 C310 1.403 1_554 S
C313 C314 1.392 . S
C313 C317 1.495 . S
C314 C313 1.392 . S
C314 C315 1.385 . S
C314 C316 1.478 . S
C315 H309 0.930 . S
C315 C311 1.400 1_554 S
C315 C314 1.385 . S
C316 C314 1.478 . S
C316 C318 1.381 . S
C316 C322 1.383 . S
C317 C313 1.495 . S
C317 H323 0.959 . S
C317 H324 0.961 . S
C317 H325 0.960 . S
C318 C316 1.381 . S
C318 C319 1.394 . S
C318 H326 0.930 . S
C319 C318 1.394 . S
C319 C320 1.383 . S
C319 H327 0.929 . S
C320 C319 1.383 . S
C320 C321 1.377 . S
C321 H305 0.930 . S
C321 C320 1.377 . S
C321 C322 1.379 . S
C322 H306 0.931 . S
C322 C316 1.383 . S
C322 C321 1.379 . S
H323 C317 0.959 . S
H324 C317 0.961 . S
H325 C317 0.960 . S
H326 C318 0.930 . S
H327 C319 0.929 . S
H328 C336 0.929 . S
H329 C338 0.930 . S
H330 C340 0.930 . S
H331 C343 0.929 . S
H332 C346 0.930 . S
H333 C348 0.960 . S
H334 C348 0.960 . S
H335 C348 0.960 . S
C336 H328 0.929 . S
C336 C337 1.377 . S
C336 C338 1.384 . S
C337 C336 1.377 . S
C337 C343 1.390 . S
C338 H329 0.930 . S
C338 C336 1.384 . S
C338 C339 1.372 . S
C339 C338 1.372 . S
C339 C340 1.400 . S
C339 C344 1.490 . S
C340 H330 0.930 . S
C340 C339 1.400 . S
C340 C343 1.386 . S
H341 C357 0.930 . S
H342 C358 0.931 . S
C343 H331 0.929 . S
C343 C337 1.390 . S
C343 C340 1.386 . S
C344 C339 1.490 . S
C344 C346 1.395 . S
C344 C347 1.403 . S
H345 C351 0.930 . S
C346 H332 0.930 . S
C346 C344 1.395 . S
C346 C349 1.403 . S
C347 C344 1.403 . S
C347 C348 1.524 . S
C347 C351 1.400 . S
C348 H333 0.960 . S
C348 H334 0.960 . S
C348 H335 0.960 . S
C348 C347 1.524 . S
C349 C346 1.403 . S
C349 C350 1.392 . S
C349 C353 1.495 . S
C350 C349 1.392 . S
C350 C351 1.385 . S
C350 C352 1.478 . S
C351 H345 0.930 . S
C351 C347 1.400 . S
C351 C350 1.385 . S
C352 C350 1.478 . S
C352 C354 1.381 . S
C352 C358 1.383 . S
C353 C349 1.495 . S
C353 H359 0.959 . S
C353 H360 0.961 . S
C353 H361 0.960 . S
C354 C352 1.381 . S
C354 C355 1.394 . S
C354 H362 0.930 . S
C355 C354 1.394 . S
C355 C356 1.383 . S
C355 H363 0.929 . S
C356 C355 1.383 . S
C356 C357 1.377 . S
C357 H341 0.930 . S
C357 C356 1.377 . S
C357 C358 1.379 . S
C358 H342 0.931 . S
C358 C352 1.383 . S
C358 C357 1.379 . S
H359 C353 0.959 . S
H360 C353 0.961 . S
H361 C353 0.960 . S
H362 C354 0.930 . S
H363 C355 0.929 . S
H364 C372 0.929 . S
H365 C374 0.930 . S
H366 C376 0.930 . S
H367 C379 0.929 . S
H368 C382 0.930 . S
H369 C384 0.960 . S
H370 C384 0.960 . S
H371 C384 0.960 . S
C372 H364 0.929 . S
C372 C373 1.377 . S
C372 C374 1.384 . S
C373 C372 1.377 . S
C373 C379 1.390 . S
C374 H365 0.930 . S
C374 C372 1.384 . S
C374 C375 1.372 . S
C375 C374 1.372 . S
C375 C376 1.400 . S
C375 C380 1.490 . S
C376 H366 0.930 . S
C376 C375 1.400 . S
C376 C379 1.386 . S
H377 C393 0.930 . S
H378 C394 0.931 . S
C379 H367 0.929 . S
C379 C373 1.390 . S
C379 C376 1.386 . S
C380 C375 1.490 . S
C380 C382 1.395 . S
C380 C383 1.403 . S
H381 C387 0.930 . S
C382 H368 0.930 . S
C382 C380 1.395 . S
C382 C385 1.403 1_556 S
C383 C380 1.403 . S
C383 C384 1.524 . S
C383 C387 1.400 1_556 S
C384 H369 0.960 . S
C384 H370 0.960 . S
C384 H371 0.960 . S
C384 C383 1.524 . S
C385 C382 1.403 1_554 S
C385 C386 1.392 . S
C385 C389 1.495 . S
C386 C385 1.392 . S
C386 C387 1.385 . S
C386 C388 1.478 . S
C387 H381 0.930 . S
C387 C383 1.400 1_554 S
C387 C386 1.385 . S
C388 C386 1.478 . S
C388 C390 1.381 . S
C388 C394 1.383 . S
C389 C385 1.495 . S
C389 H395 0.959 . S
C389 H396 0.961 . S
C389 H397 0.960 . S
C390 C388 1.381 . S
C390 C391 1.394 . S
C390 H398 0.930 . S
C391 C390 1.394 . S
C391 C392 1.383 . S
C391 H399 0.929 . S
C392 C391 1.383 . S
C392 C393 1.377 . S
C393 H377 0.930 . S
C393 C392 1.377 . S
C393 C394 1.379 . S
C394 H378 0.931 . S
C394 C388 1.383 . S
C394 C393 1.379 . S
H395 C389 0.959 . S
H396 C389 0.961 . S
H397 C389 0.960 . S
H398 C390 0.930 . S
H399 C391 0.929 . S
H400 C408 0.929 . S
H401 C410 0.930 . S
H402 C412 0.930 . S
H403 C415 0.929 . S
H404 C418 0.930 . S
H405 C420 0.960 . S
H406 C420 0.960 . S
H407 C420 0.960 . S
C408 H400 0.929 . S
C408 C409 1.377 . S
C408 C410 1.384 . S
C409 C408 1.377 . S
C409 C415 1.390 . S
C410 H401 0.930 . S
C410 C408 1.384 . S
C410 C411 1.372 . S
C411 C410 1.372 . S
C411 C412 1.400 . S
C411 C416 1.490 . S
C412 H402 0.930 . S
C412 C411 1.400 . S
C412 C415 1.386 . S
H413 C429 0.930 . S
H414 C430 0.931 . S
C415 H403 0.929 . S
C415 C409 1.390 . S
C415 C412 1.386 . S
C416 C411 1.490 . S
C416 C418 1.395 . S
C416 C419 1.403 . S
H417 C423 0.930 . S
C418 H404 0.930 . S
C418 C416 1.395 . S
C418 C421 1.403 . S
C419 C416 1.403 . S
C419 C420 1.524 . S
C419 C423 1.400 . S
C420 H405 0.960 . S
C420 H406 0.960 . S
C420 H407 0.960 . S
C420 C419 1.524 . S
C421 C418 1.403 . S
C421 C422 1.392 . S
C421 C425 1.495 . S
C422 C421 1.392 . S
C422 C423 1.385 . S
C422 C424 1.478 . S
C423 H417 0.930 . S
C423 C419 1.400 . S
C423 C422 1.385 . S
C424 C422 1.478 . S
C424 C426 1.381 . S
C424 C430 1.383 . S
C425 C421 1.495 . S
C425 H431 0.959 . S
C425 H432 0.961 . S
C425 H433 0.960 . S
C426 C424 1.381 . S
C426 C427 1.394 . S
C426 H434 0.930 . S
C427 C426 1.394 . S
C427 C428 1.383 . S
C427 H435 0.929 . S
C428 C427 1.383 . S
C428 C429 1.377 . S
C429 H413 0.930 . S
C429 C428 1.377 . S
C429 C430 1.379 . S
C430 H414 0.931 . S
C430 C424 1.383 . S
C430 C429 1.379 . S
H431 C425 0.959 . S
H432 C425 0.961 . S
H433 C425 0.960 . S
H434 C426 0.930 . S
H435 C427 0.929 . S
H436 C444 0.929 . S
H437 C446 0.930 . S
H438 C448 0.930 . S
H439 C451 0.929 . S
H440 C454 0.930 . S
H441 C456 0.960 . S
H442 C456 0.960 . S
H443 C456 0.960 . S
C444 H436 0.929 . S
C444 C445 1.377 . S
C444 C446 1.384 . S
C445 C444 1.377 . S
C445 C451 1.390 . S
C446 H437 0.930 . S
C446 C444 1.384 . S
C446 C447 1.372 . S
C447 C446 1.372 . S
C447 C448 1.400 . S
C447 C452 1.490 . S
C448 H438 0.930 . S
C448 C447 1.400 . S
C448 C451 1.386 . S
H449 C465 0.930 . S
H450 C466 0.931 . S
C451 H439 0.929 . S
C451 C445 1.390 . S
C451 C448 1.386 . S
C452 C447 1.490 . S
C452 C454 1.395 . S
C452 C455 1.403 . S
H453 C459 0.930 . S
C454 H440 0.930 . S
C454 C452 1.395 . S
C454 C457 1.403 . S
C455 C452 1.403 . S
C455 C456 1.524 . S
C455 C459 1.400 . S
C456 H441 0.960 . S
C456 H442 0.960 . S
C456 H443 0.960 . S
C456 C455 1.524 . S
C457 C454 1.403 . S
C457 C458 1.392 . S
C457 C461 1.495 . S
C458 C457 1.392 . S
C458 C459 1.385 . S
C458 C460 1.478 . S
C459 H453 0.930 . S
C459 C455 1.400 . S
C459 C458 1.385 . S
C460 C458 1.478 . S
C460 C462 1.381 . S
C460 C466 1.383 . S
C461 C457 1.495 . S
C461 H467 0.959 . S
C461 H468 0.961 . S
C461 H469 0.960 . S
C462 C460 1.381 . S
C462 C463 1.394 . S
C462 H470 0.930 . S
C463 C462 1.394 . S
C463 C464 1.383 . S
C463 H471 0.929 . S
C464 C463 1.383 . S
C464 C465 1.377 . S
C465 H449 0.930 . S
C465 C464 1.377 . S
C465 C466 1.379 . S
C466 H450 0.931 . S
C466 C460 1.383 . S
C466 C465 1.379 . S
H467 C461 0.959 . S
H468 C461 0.961 . S
H469 C461 0.960 . S
H470 C462 0.930 . S
H471 C463 0.929 . S
H472 C480 0.929 . S
H473 C482 0.930 . S
H474 C484 0.930 . S
H475 C487 0.929 . S
H476 C490 0.930 . S
H477 C492 0.960 . S
H478 C492 0.960 . S
H479 C492 0.960 . S
C480 H472 0.929 . S
C480 C481 1.377 . S
C480 C482 1.384 . S
C481 C480 1.377 . S
C481 C487 1.390 . S
C482 H473 0.930 . S
C482 C480 1.384 . S
C482 C483 1.372 . S
C483 C482 1.372 . S
C483 C484 1.400 . S
C483 C488 1.490 . S
C484 H474 0.930 . S
C484 C483 1.400 . S
C484 C487 1.386 . S
H485 C501 0.930 . S
H486 C502 0.931 . S
C487 H475 0.929 . S
C487 C481 1.390 . S
C487 C484 1.386 . S
C488 C483 1.490 . S
C488 C490 1.395 . S
C488 C491 1.403 . S
H489 C495 0.930 . S
C490 H476 0.930 . S
C490 C488 1.395 . S
C490 C493 1.403 . S
C491 C488 1.403 . S
C491 C492 1.524 . S
C491 C495 1.400 . S
C492 H477 0.960 . S
C492 H478 0.960 . S
C492 H479 0.960 . S
C492 C491 1.524 . S
C493 C490 1.403 . S
C493 C494 1.392 . S
C493 C497 1.495 . S
C494 C493 1.392 . S
C494 C495 1.385 . S
C494 C496 1.478 . S
C495 H489 0.930 . S
C495 C491 1.400 . S
C495 C494 1.385 . S
C496 C494 1.478 . S
C496 C498 1.381 . S
C496 C502 1.383 . S
C497 C493 1.495 . S
C497 H503 0.959 . S
C497 H504 0.961 . S
C497 H505 0.960 . S
C498 C496 1.381 . S
C498 C499 1.394 . S
C498 H506 0.930 . S
C499 C498 1.394 . S
C499 C500 1.383 . S
C499 H507 0.929 . S
C500 C499 1.383 . S
C500 C501 1.377 . S
C501 H485 0.930 . S
C501 C500 1.377 . S
C501 C502 1.379 . S
C502 H486 0.931 . S
C502 C496 1.383 . S
C502 C501 1.379 . S
H503 C497 0.959 . S
H504 C497 0.961 . S
H505 C497 0.960 . S
H506 C498 0.930 . S
H507 C499 0.929 . S
H508 C516 0.929 . S
H509 C518 0.930 . S
H510 C520 0.930 . S
H511 C523 0.929 . S
H512 C526 0.930 . S
H513 C528 0.960 . S
H514 C528 0.960 . S
H515 C528 0.960 . S
C516 H508 0.929 . S
C516 C517 1.377 . S
C516 C518 1.384 . S
C517 C516 1.377 . S
C517 C523 1.390 . S
C518 H509 0.930 . S
C518 C516 1.384 . S
C518 C519 1.372 . S
C519 C518 1.372 . S
C519 C520 1.400 . S
C519 C524 1.490 . S
C520 H510 0.930 . S
C520 C519 1.400 . S
C520 C523 1.386 . S
H521 C537 0.930 . S
H522 C538 0.931 . S
C523 H511 0.929 . S
C523 C517 1.390 . S
C523 C520 1.386 . S
C524 C519 1.490 . S
C524 C526 1.395 . S
C524 C527 1.403 . S
H525 C531 0.930 . S
C526 H512 0.930 . S
C526 C524 1.395 . S
C526 C529 1.403 . S
C527 C524 1.403 . S
C527 C528 1.524 . S
C527 C531 1.400 . S
C528 H513 0.960 . S
C528 H514 0.960 . S
C528 H515 0.960 . S
C528 C527 1.524 . S
C529 C526 1.403 . S
C529 C530 1.392 . S
C529 C533 1.495 . S
C530 C529 1.392 . S
C530 C531 1.385 . S
C530 C532 1.478 . S
C531 H525 0.930 . S
C531 C527 1.400 . S
C531 C530 1.385 . S
C532 C530 1.478 . S
C532 C534 1.381 . S
C532 C538 1.383 . S
C533 C529 1.495 . S
C533 H539 0.959 . S
C533 H540 0.961 . S
C533 H541 0.960 . S
C534 C532 1.381 . S
C534 C535 1.394 . S
C534 H542 0.930 . S
C535 C534 1.394 . S
C535 C536 1.383 . S
C535 H543 0.929 . S
C536 C535 1.383 . S
C536 C537 1.377 . S
C537 H521 0.930 . S
C537 C536 1.377 . S
C537 C538 1.379 . S
C538 H522 0.931 . S
C538 C532 1.383 . S
C538 C537 1.379 . S
H539 C533 0.959 . S
H540 C533 0.961 . S
H541 C533 0.960 . S
H542 C534 0.930 . S
H543 C535 0.929 . S
H544 C552 0.929 . S
H545 C554 0.930 . S
H546 C556 0.930 . S
H547 C559 0.929 . S
H548 C562 0.930 . S
H549 C564 0.960 . S
H550 C564 0.960 . S
H551 C564 0.960 . S
C552 H544 0.929 . S
C552 C553 1.377 . S
C552 C554 1.384 . S
C553 C552 1.377 . S
C553 C559 1.390 . S
C554 H545 0.930 . S
C554 C552 1.384 . S
C554 C555 1.372 . S
C555 C554 1.372 . S
C555 C556 1.400 . S
C555 C560 1.490 . S
C556 H546 0.930 . S
C556 C555 1.400 . S
C556 C559 1.386 . S
H557 C573 0.930 . S
H558 C574 0.931 . S
C559 H547 0.929 . S
C559 C553 1.390 . S
C559 C556 1.386 . S
C560 C555 1.490 . S
C560 C562 1.395 . S
C560 C563 1.403 . S
H561 C567 0.930 . S
C562 H548 0.930 . S
C562 C560 1.395 . S
C562 C565 1.403 . S
C563 C560 1.403 . S
C563 C564 1.524 . S
C563 C567 1.400 . S
C564 H549 0.960 . S
C564 H550 0.960 . S
C564 H551 0.960 . S
C564 C563 1.524 . S
C565 C562 1.403 . S
C565 C566 1.392 . S
C565 C569 1.495 . S
C566 C565 1.392 . S
C566 C567 1.385 . S
C566 C568 1.478 . S
C567 H561 0.930 . S
C567 C563 1.400 . S
C567 C566 1.385 . S
C568 C566 1.478 . S
C568 C570 1.381 . S
C568 C574 1.383 . S
C569 C565 1.495 . S
C569 H575 0.959 . S
C569 H576 0.961 . S
C569 H577 0.960 . S
C570 C568 1.381 . S
C570 C571 1.394 . S
C570 H578 0.930 . S
C571 C570 1.394 . S
C571 C572 1.383 . S
C571 H579 0.929 . S
C572 C571 1.383 . S
C572 C573 1.377 . S
C573 H557 0.930 . S
C573 C572 1.377 . S
C573 C574 1.379 . S
C574 H558 0.931 . S
C574 C568 1.383 . S
C574 C573 1.379 . S
H575 C569 0.959 . S
H576 C569 0.961 . S
H577 C569 0.960 . S
H578 C570 0.930 . S
H579 C571 0.929 . S
H580 C588 0.929 . S
H581 C590 0.930 . S
H582 C592 0.930 . S
H583 C595 0.929 . S
H584 C598 0.930 . S
H585 C600 0.960 . S
H586 C600 0.960 . S
H587 C600 0.960 . S
C588 H580 0.929 . S
C588 C589 1.377 . S
C588 C590 1.384 . S
C589 C588 1.377 . S
C589 C595 1.390 . S
C590 H581 0.930 . S
C590 C588 1.384 . S
C590 C591 1.372 . S
C591 C590 1.372 . S
C591 C592 1.400 . S
C591 C596 1.490 . S
C592 H582 0.930 . S
C592 C591 1.400 . S
C592 C595 1.386 . S
H593 C609 0.930 . S
H594 C610 0.931 . S
C595 H583 0.929 . S
C595 C589 1.390 . S
C595 C592 1.386 . S
C596 C591 1.490 . S
C596 C598 1.395 . S
C596 C599 1.403 . S
H597 C603 0.930 . S
C598 H584 0.930 . S
C598 C596 1.395 . S
C598 C601 1.403 . S
C599 C596 1.403 . S
C599 C600 1.524 . S
C599 C603 1.400 . S
C600 H585 0.960 . S
C600 H586 0.960 . S
C600 H587 0.960 . S
C600 C599 1.524 . S
C601 C598 1.403 . S
C601 C602 1.392 . S
C601 C605 1.495 . S
C602 C601 1.392 . S
C602 C603 1.385 . S
C602 C604 1.478 . S
C603 H597 0.930 . S
C603 C599 1.400 . S
C603 C602 1.385 . S
C604 C602 1.478 . S
C604 C606 1.381 . S
C604 C610 1.383 . S
C605 C601 1.495 . S
C605 H611 0.959 . S
C605 H612 0.961 . S
C605 H613 0.960 . S
C606 C604 1.381 . S
C606 C607 1.394 . S
C606 H614 0.930 . S
C607 C606 1.394 . S
C607 C608 1.383 . S
C607 H615 0.929 . S
C608 C607 1.383 . S
C608 C609 1.377 . S
C609 H593 0.930 . S
C609 C608 1.377 . S
C609 C610 1.379 . S
C610 H594 0.931 . S
C610 C604 1.383 . S
C610 C609 1.379 . S
H611 C605 0.959 . S
H612 C605 0.961 . S
H613 C605 0.960 . S
H614 C606 0.930 . S
H615 C607 0.929 . S
H616 C624 0.929 . S
H617 C626 0.930 . S
H618 C628 0.930 . S
H619 C631 0.929 . S
H620 C634 0.930 . S
H621 C636 0.960 . S
H622 C636 0.960 . S
H623 C636 0.960 . S
C624 H616 0.929 . S
C624 C625 1.377 . S
C624 C626 1.384 . S
C625 C624 1.377 . S
C625 C631 1.390 . S
C626 H617 0.930 . S
C626 C624 1.384 . S
C626 C627 1.372 . S
C627 C626 1.372 . S
C627 C628 1.400 . S
C627 C632 1.490 . S
C628 H618 0.930 . S
C628 C627 1.400 . S
C628 C631 1.386 . S
H629 C645 0.930 . S
H630 C646 0.931 . S
C631 H619 0.929 . S
C631 C625 1.390 . S
C631 C628 1.386 . S
C632 C627 1.490 . S
C632 C634 1.395 . S
C632 C635 1.403 . S
H633 C639 0.930 . S
C634 H620 0.930 . S
C634 C632 1.395 . S
C634 C637 1.403 . S
C635 C632 1.403 . S
C635 C636 1.524 . S
C635 C639 1.400 . S
C636 H621 0.960 . S
C636 H622 0.960 . S
C636 H623 0.960 . S
C636 C635 1.524 . S
C637 C634 1.403 . S
C637 C638 1.392 . S
C637 C641 1.495 . S
C638 C637 1.392 . S
C638 C639 1.385 . S
C638 C640 1.478 . S
C639 H633 0.930 . S
C639 C635 1.400 . S
C639 C638 1.385 . S
C640 C638 1.478 . S
C640 C642 1.381 . S
C640 C646 1.383 . S
C641 C637 1.495 . S
C641 H647 0.959 . S
C641 H648 0.961 . S
C641 H649 0.960 . S
C642 C640 1.381 . S
C642 C643 1.394 . S
C642 H650 0.930 . S
C643 C642 1.394 . S
C643 C644 1.383 . S
C643 H651 0.929 . S
C644 C643 1.383 . S
C644 C645 1.377 . S
C645 H629 0.930 . S
C645 C644 1.377 . S
C645 C646 1.379 . S
C646 H630 0.931 . S
C646 C640 1.383 . S
C646 C645 1.379 . S
H647 C641 0.959 . S
H648 C641 0.961 . S
H649 C641 0.960 . S
H650 C642 0.930 . S
H651 C643 0.929 . S
H652 C660 0.929 . S
H653 C662 0.930 . S
H654 C664 0.930 . S
H655 C667 0.929 . S
H656 C670 0.930 . S
H657 C672 0.960 . S
H658 C672 0.960 . S
H659 C672 0.960 . S
C660 H652 0.929 . S
C660 C661 1.377 . S
C660 C662 1.384 . S
C661 C660 1.377 . S
C661 C667 1.390 . S
C662 H653 0.930 . S
C662 C660 1.384 . S
C662 C663 1.372 . S
C663 C662 1.372 . S
C663 C664 1.400 . S
C663 C668 1.490 . S
C664 H654 0.930 . S
C664 C663 1.400 . S
C664 C667 1.386 . S
H665 C681 0.930 . S
H666 C682 0.931 . S
C667 H655 0.929 . S
C667 C661 1.390 . S
C667 C664 1.386 . S
C668 C663 1.490 . S
C668 C670 1.395 . S
C668 C671 1.403 . S
H669 C675 0.930 . S
C670 H656 0.930 . S
C670 C668 1.395 . S
C670 C673 1.403 . S
C671 C668 1.403 . S
C671 C672 1.524 . S
C671 C675 1.400 . S
C672 H657 0.960 . S
C672 H658 0.960 . S
C672 H659 0.960 . S
C672 C671 1.524 . S
C673 C670 1.403 . S
C673 C674 1.392 . S
C673 C677 1.495 . S
C674 C673 1.392 . S
C674 C675 1.385 . S
C674 C676 1.478 . S
C675 H669 0.930 . S
C675 C671 1.400 . S
C675 C674 1.385 . S
C676 C674 1.478 . S
C676 C678 1.381 . S
C676 C682 1.383 . S
C677 C673 1.495 . S
C677 H683 0.959 . S
C677 H684 0.961 . S
C677 H685 0.960 . S
C678 C676 1.381 . S
C678 C679 1.394 . S
C678 H686 0.930 . S
C679 C678 1.394 . S
C679 C680 1.383 . S
C679 H687 0.929 . S
C680 C679 1.383 . S
C680 C681 1.377 . S
C681 H665 0.930 . S
C681 C680 1.377 . S
C681 C682 1.379 . S
C682 H666 0.931 . S
C682 C676 1.383 . S
C682 C681 1.379 . S
H683 C677 0.959 . S
H684 C677 0.961 . S
H685 C677 0.960 . S
H686 C678 0.930 . S
H687 C679 0.929 . S
C121 C4 0.343 . S
C140 C32 0.347 . S
C157 C18 0.344 . S
C176 C46 0.368 . S
C193 C60 0.344 . S
C212 C88 0.370 . S
C229 C74 0.343 . S
C248 C102 0.356 . S
C265 C12 1.491 . S
C284 C82 1.506 . S
C301 C26 1.495 . S
C320 C96 1.478 . S
C337 C110 1.492 . S
C356 C40 1.504 . S
C373 C54 1.489 . S
C392 C68 1.477 . S
C409 C61 1.403 . S
C428 C11 1.454 . S
C445 C25 1.444 . S
C464 C75 1.392 1_565 S
C481 C39 1.434 . S
C500 C89 1.384 . S
C517 C53 1.444 . S
C536 C103 1.396 1_545 S
C553 C5 1.391 1_655 S
C572 C67 1.419 . S
C589 C81 1.435 . S
C608 C19 1.413 . S
C625 C95 1.434 . S
C644 C33 1.393 1_455 S
C661 C47 1.403 . S
C680 C109 1.454 . S
