# Generated by pormake.
# Topology wiu, (6)-cn, num edge types: 1
# Building blocks:
#     Node 0, Type 0, BuildingBlock: VOLQOD_clean_sbu_1, # of connection points: 6
#     Node 1, Type 0, BuildingBlock: VOLQOD_clean_sbu_1, # of connection points: 6
#     Node 2, Type 0, BuildingBlock: VOLQOD_clean_sbu_1, # of connection points: 6
#     Node 3, Type 0, BuildingBlock: VOLQOD_clean_sbu_1, # of connection points: 6
#     Node 4, Type 0, BuildingBlock: VOLQOD_clean_sbu_1, # of connection points: 6
#     Node 5, Type 0, BuildingBlock: VOLQOD_clean_sbu_1, # of connection points: 6
#     Node 6, Type 0, BuildingBlock: VOLQOD_clean_sbu_1, # of connection points: 6
#     Node 7, Type 0, BuildingBlock: VOLQOD_clean_sbu_1, # of connection points: 6
#     Node 8, Type 0, BuildingBlock: VOLQOD_clean_sbu_1, # of connection points: 6
#     Node 9, Type 0, BuildingBlock: VOLQOD_clean_sbu_1, # of connection points: 6
#     Node 10, Type 0, BuildingBlock: VOLQOD_clean_sbu_1, # of connection points: 6
#     Node 11, Type 0, BuildingBlock: VOLQOD_clean_sbu_1, # of connection points: 6
#     Node 12, Type 0, BuildingBlock: VOLQOD_clean_sbu_1, # of connection points: 6
#     Node 13, Type 0, BuildingBlock: VOLQOD_clean_sbu_1, # of connection points: 6
#     Node 14, Type 0, BuildingBlock: VOLQOD_clean_sbu_1, # of connection points: 6
#     Node 15, Type 0, BuildingBlock: VOLQOD_clean_sbu_1, # of connection points: 6
#     Edge 16, Type (0, 0), BuildingBlock: XIVTED_clean_linker_0, # of connection points: 2
#     Edge 17, Type (0, 0), BuildingBlock: XIVTED_clean_linker_0, # of connection points: 2
#     Edge 18, Type (0, 0), BuildingBlock: XIVTED_clean_linker_0, # of connection points: 2
#     Edge 19, Type (0, 0), BuildingBlock: XIVTED_clean_linker_0, # of connection points: 2
#     Edge 20, Type (0, 0), BuildingBlock: XIVTED_clean_linker_0, # of connection points: 2
#     Edge 21, Type (0, 0), BuildingBlock: XIVTED_clean_linker_0, # of connection points: 2
#     Edge 22, Type (0, 0), BuildingBlock: XIVTED_clean_linker_0, # of connection points: 2
#     Edge 23, Type (0, 0), BuildingBlock: XIVTED_clean_linker_0, # of connection points: 2
#     Edge 24, Type (0, 0), BuildingBlock: XIVTED_clean_linker_0, # of connection points: 2
#     Edge 25, Type (0, 0), BuildingBlock: XIVTED_clean_linker_0, # of connection points: 2
#     Edge 26, Type (0, 0), BuildingBlock: XIVTED_clean_linker_0, # of connection points: 2
#     Edge 27, Type (0, 0), BuildingBlock: XIVTED_clean_linker_0, # of connection points: 2
#     Edge 28, Type (0, 0), BuildingBlock: XIVTED_clean_linker_0, # of connection points: 2
#     Edge 29, Type (0, 0), BuildingBlock: XIVTED_clean_linker_0, # of connection points: 2
#     Edge 30, Type (0, 0), BuildingBlock: XIVTED_clean_linker_0, # of connection points: 2
#     Edge 31, Type (0, 0), BuildingBlock: XIVTED_clean_linker_0, # of connection points: 2
#     Edge 32, Type (0, 0), BuildingBlock: XIVTED_clean_linker_0, # of connection points: 2
#     Edge 33, Type (0, 0), BuildingBlock: XIVTED_clean_linker_0, # of connection points: 2
#     Edge 34, Type (0, 0), BuildingBlock: XIVTED_clean_linker_0, # of connection points: 2
#     Edge 35, Type (0, 0), BuildingBlock: XIVTED_clean_linker_0, # of connection points: 2
#     Edge 36, Type (0, 0), BuildingBlock: XIVTED_clean_linker_0, # of connection points: 2
#     Edge 37, Type (0, 0), BuildingBlock: XIVTED_clean_linker_0, # of connection points: 2
#     Edge 38, Type (0, 0), BuildingBlock: XIVTED_clean_linker_0, # of connection points: 2
#     Edge 39, Type (0, 0), BuildingBlock: XIVTED_clean_linker_0, # of connection points: 2
#     Edge 40, Type (0, 0), BuildingBlock: XIVTED_clean_linker_0, # of connection points: 2
#     Edge 41, Type (0, 0), BuildingBlock: XIVTED_clean_linker_0, # of connection points: 2
#     Edge 42, Type (0, 0), BuildingBlock: XIVTED_clean_linker_0, # of connection points: 2
#     Edge 43, Type (0, 0), BuildingBlock: XIVTED_clean_linker_0, # of connection points: 2
#     Edge 44, Type (0, 0), BuildingBlock: XIVTED_clean_linker_0, # of connection points: 2
#     Edge 45, Type (0, 0), BuildingBlock: XIVTED_clean_linker_0, # of connection points: 2
#     Edge 46, Type (0, 0), BuildingBlock: XIVTED_clean_linker_0, # of connection points: 2
#     Edge 47, Type (0, 0), BuildingBlock: XIVTED_clean_linker_0, # of connection points: 2
#     Edge 48, Type (0, 0), BuildingBlock: XIVTED_clean_linker_0, # of connection points: 2
#     Edge 49, Type (0, 0), BuildingBlock: XIVTED_clean_linker_0, # of connection points: 2
#     Edge 50, Type (0, 0), BuildingBlock: XIVTED_clean_linker_0, # of connection points: 2
#     Edge 51, Type (0, 0), BuildingBlock: XIVTED_clean_linker_0, # of connection points: 2
#     Edge 52, Type (0, 0), BuildingBlock: XIVTED_clean_linker_0, # of connection points: 2
#     Edge 53, Type (0, 0), BuildingBlock: XIVTED_clean_linker_0, # of connection points: 2
#     Edge 54, Type (0, 0), BuildingBlock: XIVTED_clean_linker_0, # of connection points: 2
#     Edge 55, Type (0, 0), BuildingBlock: XIVTED_clean_linker_0, # of connection points: 2
#     Edge 56, Type (0, 0), BuildingBlock: XIVTED_clean_linker_0, # of connection points: 2
#     Edge 57, Type (0, 0), BuildingBlock: XIVTED_clean_linker_0, # of connection points: 2
#     Edge 58, Type (0, 0), BuildingBlock: XIVTED_clean_linker_0, # of connection points: 2
#     Edge 59, Type (0, 0), BuildingBlock: XIVTED_clean_linker_0, # of connection points: 2
#     Edge 60, Type (0, 0), BuildingBlock: XIVTED_clean_linker_0, # of connection points: 2
#     Edge 61, Type (0, 0), BuildingBlock: XIVTED_clean_linker_0, # of connection points: 2
#     Edge 62, Type (0, 0), BuildingBlock: XIVTED_clean_linker_0, # of connection points: 2
#     Edge 63, Type (0, 0), BuildingBlock: XIVTED_clean_linker_0, # of connection points: 2
# Relax obj value: 0.180
# Max RMSD: 0.175
# Mean RMSD: 0.175
data_MOF--net-wiu--node1-VOLQOD_clean_sbu_1--edge1-XIVTED_clean_linker_0
_symmetry_space_group_name_H-M    P1
_symmetry_Int_Tables_number       1
_symmetry_cell_setting            triclinic
loop_
_symmetry_equiv_pos_as_xyz
'x, y, z'
_cell_length_a     33.51276
_cell_length_b     33.574327
_cell_length_c     57.696156
_cell_angle_alpha  89.956615
_cell_angle_beta   90.035662
_cell_angle_gamma 90.022506
loop_
_atom_site_label
_atom_site_type_symbol
_atom_site_fract_x
_atom_site_fract_y
_atom_site_fract_z
_atom_type_partial_charge
O0 O 0.36127 0.20881 0.02327 0.0
Zn1 Zn 0.31612 0.19545 0.04393 0.0
O2 O 0.33064 0.14991 0.06278 0.0
Zn3 Zn 0.31204 0.09972 0.04907 0.0
Zn4 Zn 0.38785 0.14776 0.06637 0.0
Zn5 Zn 0.30623 0.16039 0.09205 0.0
O6 O 0.27303 0.07193 0.07222 0.0
O7 O 0.26082 0.12282 0.09614 0.0
O8 O 0.27166 0.18064 0.02315 0.0
O9 O 0.27579 0.11442 0.02206 0.0
O10 O 0.3612 0.06611 0.03655 0.0
O11 O 0.41079 0.09695 0.05463 0.0
O12 O 0.40546 0.15371 0.09983 0.0
O13 O 0.30116 0.24463 0.06243 0.0
O14 O 0.34593 0.15246 0.11691 0.0
O15 O 0.28846 0.21736 0.09651 0.0
C16 C 0.39841 0.20352 0.02618 0.0
C17 C 0.25245 0.08825 0.08841 0.0
C18 C 0.39853 0.06933 0.04138 0.0
C19 C 0.26077 0.14723 0.01494 0.0
C20 C 0.38383 0.15294 0.11799 0.0
C21 C 0.28996 0.24783 0.08343 0.0
O22 O 0.41254 0.18546 0.04381 0.0
O23 O 0.56075 0.60608 0.27522 0.0
Zn24 Zn 0.57648 0.55939 0.29415 0.0
O25 O 0.62393 0.57185 0.31195 0.0
Zn26 Zn 0.67224 0.55312 0.29615 0.0
Zn27 Zn 0.628 0.62896 0.31626 0.0
Zn28 Zn 0.61534 0.54638 0.34137 0.0
O29 O 0.70234 0.51448 0.31836 0.0
O30 O 0.65739 0.50545 0.34649 0.0
O31 O 0.58839 0.51628 0.27192 0.0
O32 O 0.65465 0.5178 0.26931 0.0
O33 O 0.70512 0.60237 0.28322 0.0
O34 O 0.6793 0.65108 0.30443 0.0
O35 O 0.62221 0.64592 0.34984 0.0
O36 O 0.52938 0.54313 0.31386 0.0
O37 O 0.62056 0.58607 0.36621 0.0
O38 O 0.55947 0.5248 0.34629 0.0
C39 C 0.56819 0.64279 0.27812 0.0
C40 C 0.69066 0.49705 0.33699 0.0
C41 C 0.70439 0.63912 0.28947 0.0
C42 C 0.62075 0.50441 0.26277 0.0
C43 C 0.62111 0.62377 0.36778 0.0
C44 C 0.52789 0.52854 0.33421 0.0
O45 O 0.58993 0.65542 0.29467 0.0
O46 O 0.16151 0.79252 0.52451 0.0
Zn47 Zn 0.20409 0.80977 0.54581 0.0
O48 O 0.18379 0.85241 0.56473 0.0
Zn49 Zn 0.19783 0.90387 0.5509 0.0
Zn50 Zn 0.12645 0.84668 0.56714 0.0
Zn51 Zn 0.20763 0.84419 0.59455 0.0
O52 O 0.23391 0.93428 0.57385 0.0
O53 O 0.24741 0.88734 0.60023 0.0
O54 O 0.2477 0.82881 0.52575 0.0
O55 O 0.23496 0.89376 0.52371 0.0
O56 O 0.14636 0.93386 0.53915 0.0
O57 O 0.09913 0.89288 0.55187 0.0
O58 O 0.1075 0.84612 0.60077 0.0
O59 O 0.22279 0.76242 0.56423 0.0
O60 O 0.16624 0.84902 0.61859 0.0
O61 O 0.23086 0.789 0.59901 0.0
C62 C 0.12495 0.78702 0.52904 0.0
C63 C 0.25318 0.92189 0.59166 0.0
C64 C 0.10935 0.92443 0.54118 0.0
C65 C 0.25426 0.86299 0.51712 0.0
C66 C 0.12837 0.84837 0.61922 0.0
C67 C 0.23308 0.75928 0.58538 0.0
O68 O 0.10877 0.80012 0.54756 0.0
O69 O 0.96213 0.41685 0.77264 0.0
Zn70 Zn 0.94346 0.46153 0.79251 0.0
O71 O 0.89671 0.44451 0.80978 0.0
Zn72 Zn 0.8477 0.46219 0.79404 0.0
Zn73 Zn 0.89561 0.38704 0.81268 0.0
Zn74 Zn 0.90404 0.46776 0.83995 0.0
O75 O 0.81903 0.50258 0.81564 0.0
O76 O 0.86199 0.50854 0.84509 0.0
O77 O 0.929 0.50569 0.77107 0.0
O78 O 0.86413 0.49416 0.76552 0.0
O79 O 0.81275 0.41324 0.78312 0.0
O80 O 0.84556 0.3637 0.79993 0.0
O81 O 0.90064 0.36777 0.846 0.0
O82 O 0.98989 0.47824 0.81277 0.0
O83 O 0.89825 0.42636 0.86384 0.0
O84 O 0.95952 0.48943 0.84612 0.0
C85 C 0.95693 0.37957 0.7748 0.0
C86 C 0.82986 0.51862 0.83483 0.0
C87 C 0.81666 0.37596 0.78759 0.0
C88 C 0.89658 0.51193 0.76019 0.0
C89 C 0.89946 0.38858 0.86446 0.0
C90 C 0.99107 0.4893 0.83386 0.0
O91 O 0.93566 0.36456 0.79089 0.0
O92 O 0.66562 0.80863 0.96669 0.0
Zn93 Zn 0.71165 0.82341 0.94706 0.0
O94 O 0.69786 0.8702 0.92911 0.0
Zn95 Zn 0.71585 0.91952 0.94391 0.0
Zn96 Zn 0.64094 0.87259 0.92454 0.0
Zn97 Zn 0.72401 0.86182 0.90022 0.0
O98 O 0.75472 0.94941 0.92161 0.0
O99 O 0.76968 0.89919 0.89775 0.0
O100 O 0.75591 0.83691 0.96836 0.0
O101 O 0.75243 0.90314 0.9704 0.0
O102 O 0.66621 0.9517 0.95693 0.0
O103 O 0.6173 0.92249 0.93734 0.0
O104 O 0.62553 0.86872 0.89053 0.0
O105 O 0.72668 0.77533 0.92752 0.0
O106 O 0.68613 0.87185 0.87488 0.0
O107 O 0.74131 0.80526 0.89449 0.0
C108 C 0.62862 0.81367 0.96307 0.0
C109 C 0.77668 0.9338 0.9058 0.0
C110 C 0.62905 0.94889 0.95157 0.0
C111 C 0.76729 0.86991 0.97694 0.0
C112 C 0.64838 0.87105 0.87289 0.0
C113 C 0.73873 0.77374 0.90662 0.0
O114 O 0.61537 0.8329 0.94562 0.0
O115 O 0.47455 0.40982 0.71223 0.0
Zn116 Zn 0.45692 0.45222 0.69103 0.0
O117 O 0.41204 0.433 0.67341 0.0
Zn118 Zn 0.36215 0.44864 0.68875 0.0
Zn119 Zn 0.4149 0.37566 0.6712 0.0
Zn120 Zn 0.4189 0.45606 0.64314 0.0
O121 O 0.33146 0.4856 0.66657 0.0
O122 O 0.37645 0.49714 0.63873 0.0
O123 O 0.44088 0.49645 0.7114 0.0
O124 O 0.37579 0.48545 0.71558 0.0
O125 O 0.33053 0.39849 0.70118 0.0
O126 O 0.36749 0.35028 0.68604 0.0
O127 O 0.41421 0.35637 0.63781 0.0
O128 O 0.50324 0.46968 0.67144 0.0
O129 O 0.41065 0.41447 0.61935 0.0
O130 O 0.47456 0.4781 0.63723 0.0
C131 C 0.47558 0.37253 0.70907 0.0
C132 C 0.34294 0.50428 0.64836 0.0
C133 C 0.33749 0.3613 0.69786 0.0
C134 C 0.40773 0.50393 0.7211 0.0
C135 C 0.41079 0.37664 0.61921 0.0
C136 C 0.50524 0.47988 0.65024 0.0
O137 O 0.45929 0.35578 0.6916 0.0
O138 O 0.8613 0.20555 0.46987 0.0
Zn139 Zn 0.81171 0.19399 0.45211 0.0
O140 O 0.82042 0.14629 0.4337 0.0
Zn141 Zn 0.79959 0.09827 0.44886 0.0
Zn142 Zn 0.87663 0.139 0.42789 0.0
Zn143 Zn 0.79375 0.15627 0.405 0.0
O144 O 0.75863 0.07086 0.42694 0.0
O145 O 0.74565 0.12176 0.40313 0.0
O146 O 0.76895 0.18335 0.4753 0.0
O147 O 0.76548 0.11704 0.47589 0.0
O148 O 0.8468 0.06222 0.46126 0.0
O149 O 0.8968 0.08813 0.44113 0.0
O150 O 0.89064 0.13981 0.39372 0.0
O151 O 0.79703 0.24285 0.43272 0.0
O152 O 0.82955 0.14318 0.37886 0.0
O153 O 0.7798 0.21394 0.39975 0.0
C154 C 0.89741 0.19752 0.46508 0.0
C155 C 0.73712 0.08753 0.41129 0.0
C156 C 0.88381 0.0625 0.45547 0.0
C157 C 0.75478 0.15113 0.48354 0.0
C158 C 0.86707 0.13965 0.37637 0.0
C159 C 0.78417 0.24517 0.41195 0.0
O160 O 0.90723 0.17709 0.44737 0.0
O161 O 0.05839 0.60494 0.21034 0.0
Zn162 Zn 0.07596 0.56064 0.19007 0.0
O163 O 0.12243 0.57808 0.17296 0.0
Zn164 Zn 0.17084 0.5626 0.18976 0.0
Zn165 Zn 0.12226 0.6354 0.16925 0.0
Zn166 Zn 0.11626 0.55287 0.14337 0.0
O167 O 0.20154 0.5219 0.16932 0.0
O168 O 0.15952 0.51273 0.13966 0.0
O169 O 0.09029 0.51643 0.21138 0.0
O170 O 0.15383 0.5318 0.21845 0.0
O171 O 0.20291 0.61313 0.20101 0.0
O172 O 0.17168 0.66099 0.18168 0.0
O173 O 0.11677 0.65273 0.13558 0.0
O174 O 0.0297 0.54369 0.16992 0.0
O175 O 0.12169 0.59326 0.11885 0.0
O176 O 0.06122 0.52961 0.13729 0.0
C177 C 0.0628 0.64228 0.20802 0.0
C178 C 0.19162 0.5042 0.15045 0.0
C179 C 0.19911 0.65001 0.1955 0.0
C180 C 0.12202 0.51253 0.22323 0.0
C181 C 0.1192 0.63094 0.11754 0.0
C182 C 0.02926 0.53073 0.1492 0.0
O183 O 0.0823 0.65766 0.19129 0.0
O184 O 0.85085 0.73005 0.52351 0.0
Zn185 Zn 0.80781 0.7119 0.5442 0.0
O186 O 0.82727 0.66741 0.56184 0.0
Zn187 Zn 0.81309 0.61762 0.54622 0.0
Zn188 Zn 0.88438 0.67294 0.56449 0.0
Zn189 Zn 0.80358 0.67279 0.59192 0.0
O190 O 0.77645 0.58542 0.56796 0.0
O191 O 0.76252 0.63012 0.59553 0.0
O192 O 0.76391 0.69562 0.52356 0.0
O193 O 0.77604 0.63084 0.5194 0.0
O194 O 0.86455 0.58836 0.53375 0.0
O195 O 0.91148 0.62883 0.54733 0.0
O196 O 0.90305 0.66796 0.5979 0.0
O197 O 0.79006 0.75763 0.56418 0.0
O198 O 0.8446 0.66349 0.61598 0.0
O199 O 0.78184 0.72809 0.59819 0.0
C200 C 0.887 0.7361 0.52884 0.0
C201 C 0.75661 0.59647 0.58584 0.0
C202 C 0.90149 0.59801 0.53591 0.0
C203 C 0.75702 0.6624 0.51385 0.0
C204 C 0.88248 0.66336 0.61629 0.0
C205 C 0.78007 0.75904 0.58544 0.0
O206 O 0.90233 0.72234 0.54747 0.0
O207 O 0.06523 0.11499 0.77482 0.0
Zn208 Zn 0.07599 0.06434 0.79161 0.0
O209 O 0.12615 0.06934 0.80815 0.0
Zn210 Zn 0.17101 0.04948 0.79002 0.0
Zn211 Zn 0.13668 0.12467 0.81518 0.0
Zn212 Zn 0.11833 0.03977 0.83607 0.0
O213 O 0.20316 0.00929 0.81001 0.0
O214 O 0.16045 0.99851 0.83905 0.0
O215 O 0.08171 0.02204 0.76751 0.0
O216 O 0.14771 0.01592 0.76408 0.0
O217 O 0.20365 0.09813 0.77668 0.0
O218 O 0.18987 0.14312 0.80364 0.0
O219 O 0.13255 0.13701 0.84948 0.0
O220 O 0.02929 0.05016 0.81286 0.0
O221 O 0.12422 0.07563 0.86295 0.0
O222 O 0.06295 0.01706 0.83973 0.0
C223 C 0.0776 0.15012 0.77879 0.0
C224 C 0.19288 0.9907 0.82851 0.0
C225 C 0.20874 0.13292 0.78545 0.0
C226 C 0.11226 1.00667 0.75793 0.0
C227 C 0.12844 0.11276 0.86633 0.0
C228 C 0.02993 0.02788 0.83077 0.0
O229 O 0.1014 0.15799 0.79538 0.0
O230 O 0.65824 0.30246 0.02258 0.0
Zn231 Zn 0.70598 0.31502 0.0414 0.0
O232 O 0.69565 0.36308 0.05895 0.0
Zn233 Zn 0.71456 0.41014 0.04219 0.0
Zn234 Zn 0.63886 0.36886 0.06424 0.0
Zn235 Zn 0.72245 0.35488 0.08791 0.0
O236 O 0.75465 0.44036 0.06328 0.0
O237 O 0.76543 0.39549 0.09127 0.0
O238 O 0.74931 0.32473 0.01874 0.0
O239 O 0.74916 0.39086 0.01557 0.0
O240 O 0.66531 0.44294 0.02915 0.0
O241 O 0.61728 0.42022 0.05207 0.0
O242 O 0.62369 0.36535 0.09827 0.0
O243 O 0.72073 0.26761 0.06146 0.0
O244 O 0.68453 0.36347 0.11349 0.0
O245 O 0.74174 0.2983 0.09316 0.0
C246 C 0.62177 0.31079 0.02597 0.0
C247 C 0.7736 0.42845 0.08135 0.0
C248 C 0.62887 0.44363 0.03611 0.0
C249 C 0.76176 0.35661 0.0093 0.0
C250 C 0.6469 0.36525 0.11579 0.0
C251 C 0.73623 0.26643 0.08162 0.0
O252 O 0.61017 0.33142 0.04323 0.0
O253 O 0.45459 0.90609 0.27808 0.0
Zn254 Zn 0.44173 0.9554 0.29534 0.0
O255 O 0.39115 0.94847 0.311 0.0
Zn256 Zn 0.34655 0.96762 0.29241 0.0
Zn257 Zn 0.38233 0.89258 0.31733 0.0
Zn258 Zn 0.39725 0.97776 0.33912 0.0
O259 O 0.31301 1.00747 0.31188 0.0
O260 O 0.35461 0.01852 0.34145 0.0
O261 O 0.4361 0.99822 0.27172 0.0
O262 O 0.37014 1.0018 0.267 0.0
O263 O 0.3159 0.91846 0.27817 0.0
O264 O 0.33059 0.87248 0.30445 0.0
O265 O 0.38494 0.87978 0.35166 0.0
O266 O 0.48723 0.96958 0.31723 0.0
O267 O 0.39054 0.9412 0.36556 0.0
O268 O 0.45206 1.00141 0.3439 0.0
C269 C 0.44372 0.87038 0.28165 0.0
C270 C 0.32256 0.02618 0.33046 0.0
C271 C 0.31196 0.88298 0.28621 0.0
C272 C 0.40553 0.01249 0.26162 0.0
C273 C 0.38727 0.90389 0.36868 0.0
C274 C 0.48556 0.99138 0.33528 0.0
O275 O 0.41993 0.86099 0.29797 0.0
O276 O 0.16167 0.31131 0.46357 0.0
Zn277 Zn 0.20646 0.32832 0.4432 0.0
O278 O 0.19087 0.37627 0.42688 0.0
Zn279 Zn 0.21022 0.42334 0.44381 0.0
Zn280 Zn 0.13354 0.37903 0.42438 0.0
Zn281 Zn 0.21321 0.37006 0.39638 0.0
O282 O 0.25263 0.45095 0.42307 0.0
O283 O 0.25685 0.40984 0.39267 0.0
O284 O 0.25215 0.33975 0.46422 0.0
O285 O 0.24105 0.40381 0.47212 0.0
O286 O 0.16248 0.45984 0.45517 0.0
O287 O 0.1122 0.42886 0.43796 0.0
O288 O 0.11366 0.37786 0.39126 0.0
O289 O 0.22043 0.28243 0.422 0.0
O290 O 0.17181 0.38081 0.37274 0.0
O291 O 0.23178 0.31392 0.38898 0.0
C292 C 0.12443 0.31756 0.46172 0.0
C293 C 0.26864 0.44046 0.4038 0.0
C294 C 0.12508 0.45704 0.45055 0.0
C295 C 0.25867 0.37081 0.47624 0.0
C296 C 0.13392 0.38081 0.37266 0.0
C297 C 0.23078 0.28187 0.40077 0.0
O298 O 0.10965 0.33902 0.44565 0.0
O299 O 0.96158 0.90214 0.2154 0.0
Zn300 Zn 0.94884 0.9502 0.19672 0.0
O301 O 0.90133 0.93974 0.17838 0.0
Zn302 Zn 0.85287 0.95683 0.19416 0.0
Zn303 Zn 0.89595 0.88322 0.17262 0.0
Zn304 Zn 0.91035 0.96803 0.15007 0.0
O305 O 0.82138 0.99525 0.17268 0.0
O306 O 0.86652 1.00714 0.14506 0.0
O307 O 0.93669 0.99303 0.21967 0.0
O308 O 0.87018 0.9918 0.22073 0.0
O309 O 0.82183 0.90678 0.20707 0.0
O310 O 0.8432 0.86082 0.18248 0.0
O311 O 0.90445 0.86891 0.13886 0.0
O312 O 0.99697 0.96629 0.1771 0.0
O313 O 0.90919 0.92986 0.12405 0.0
O314 O 0.9647 0.99387 0.14766 0.0
C315 C 0.9522 0.86594 0.21211 0.0
C316 C 0.8328 0.01394 0.15444 0.0
C317 C 0.82082 0.87097 0.19926 0.0
C318 C 0.90364 1.00491 0.22807 0.0
C319 C 0.90817 0.89228 0.12157 0.0
C320 C 0.99711 0.98656 0.1584 0.0
O321 O 0.93115 0.85477 0.19492 0.0
O322 O 0.3687 0.70313 0.96071 0.0
Zn323 Zn 0.32052 0.6913 0.94214 0.0
O324 O 0.32933 0.64262 0.92499 0.0
Zn325 Zn 0.30949 0.5964 0.94212 0.0
Zn326 Zn 0.38589 0.63529 0.91949 0.0
Zn327 Zn 0.30222 0.65094 0.89622 0.0
O328 O 0.26894 0.56615 0.92121 0.0
O329 O 0.25929 0.61054 0.89284 0.0
O330 O 0.27696 0.68318 0.96482 0.0
O331 O 0.27501 0.61715 0.96847 0.0
O332 O 0.35852 0.56353 0.95542 0.0
O333 O 0.40603 0.58298 0.93114 0.0
O334 O 0.4009 0.63986 0.88547 0.0
O335 O 0.3067 0.73856 0.92175 0.0
O336 O 0.33988 0.64302 0.87057 0.0
O337 O 0.28271 0.70726 0.891 0.0
C338 C 0.40487 0.69331 0.95757 0.0
C339 C 0.25048 0.57793 0.90293 0.0
C340 C 0.39458 0.56122 0.94792 0.0
C341 C 0.26337 0.65191 0.97442 0.0
C342 C 0.37745 0.64106 0.86807 0.0
C343 C 0.28982 0.73939 0.90196 0.0
O344 O 0.41579 0.6715 0.94066 0.0
O345 O 0.53851 0.10447 0.71875 0.0
Zn346 Zn 0.55485 0.06107 0.69789 0.0
O347 O 0.59981 0.07919 0.67986 0.0
Zn348 Zn 0.64985 0.06358 0.69498 0.0
Zn349 Zn 0.5973 0.13654 0.67677 0.0
Zn350 Zn 0.59251 0.05484 0.65014 0.0
O351 O 0.68093 0.027 0.67278 0.0
O352 O 0.63532 0.0145 0.64543 0.0
O353 O 0.57077 0.01705 0.71854 0.0
O354 O 0.63628 0.02668 0.72177 0.0
O355 O 0.68115 0.11383 0.70728 0.0
O356 O 0.64452 0.16214 0.6919 0.0
O357 O 0.59739 0.15466 0.64295 0.0
O358 O 0.50771 0.04386 0.67855 0.0
O359 O 0.59887 0.09542 0.62578 0.0
O360 O 0.53712 0.03244 0.64486 0.0
C361 C 0.53696 0.14148 0.71463 0.0
C362 C 0.66927 1.0081 0.6547 0.0
C363 C 0.67427 0.15104 0.70397 0.0
C364 C 0.6042 0.00891 0.72778 0.0
C365 C 0.5992 0.13319 0.62475 0.0
C366 C 0.50607 0.03222 0.65758 0.0
O367 O 0.55242 0.15708 0.69655 0.0
H368 H 0.39571 0.27203 0.00058 0.0
H369 H 0.62224 0.24412 -0.00131 0.0
H370 H 0.4624 0.16348 0.00999 0.0
H371 H 0.5557 0.35126 0.01287 0.0
H372 H 0.56504 0.2183 0.97691 0.0
H373 H 0.45198 0.29997 0.97883 0.0
C374 C 0.42182 0.25379 -0.00253 0.0
C375 C 0.42609 0.21671 0.00825 0.0
C376 C 0.56354 0.24807 0.98409 0.0
C377 C 0.48958 0.24788 0.98368 0.0
C378 C 0.59587 0.26248 -0.00323 0.0
C379 C 0.59215 0.29843 0.00883 0.0
C380 C 0.52757 0.26965 0.98406 0.0
C381 C 0.55841 0.32209 0.00502 0.0
C382 C 0.45364 0.26945 0.98486 0.0
C383 C 0.45941 0.19333 0.00306 0.0
N384 N 0.52692 0.30688 0.99335 0.0
N385 N 0.49045 0.20966 0.99151 0.0
H386 H 0.60465 0.70848 0.26116 0.0
H387 H 0.40483 0.80244 0.26997 0.0
H388 H 0.49466 0.64215 0.25779 0.0
H389 H 0.51288 0.86839 0.25661 0.0
H390 H 0.43301 0.74532 0.24998 0.0
H391 H 0.57162 0.76499 0.24308 0.0
C392 C 0.57356 0.70578 0.2562 0.0
C393 C 0.55148 0.67187 0.26204 0.0
C394 C 0.45041 0.77246 0.2509 0.0
C395 C 0.51324 0.73644 0.24226 0.0
C396 C 0.43451 0.80486 0.26264 0.0
C397 C 0.45771 0.83903 0.26608 0.0
C398 C 0.49036 0.77387 0.24358 0.0
C399 C 0.49486 0.84173 0.25517 0.0
C400 C 0.55473 0.73785 0.24567 0.0
C401 C 0.51206 0.66869 0.25436 0.0
N402 N 0.51067 0.80898 0.24498 0.0
N403 N 0.49362 0.70129 0.24553 0.0
H404 H 0.0954 0.71316 0.51997 0.0
H405 H 0.91263 0.69287 0.49269 0.0
H406 H 0.09451 0.83483 0.49635 0.0
H407 H 0.92327 0.80817 0.52479 0.0
H408 H 0.97538 0.70474 0.47196 0.0
H409 H 0.03411 0.70101 0.49831 0.0
C410 C 0.08305 0.73673 0.50933 0.0
C411 C 0.09867 0.77516 0.51027 0.0
C412 C 0.96288 0.72819 0.4826 0.0
C413 C 0.02842 0.76239 0.48643 0.0
C414 C 0.92734 0.72148 0.49444 0.0
C415 C 0.91407 0.74931 0.51079 0.0
C416 C 0.98485 0.76264 0.48764 0.0
C417 C 0.93349 0.78582 0.51264 0.0
C418 C 0.04831 0.72987 0.49671 0.0
C419 C 0.08223 0.80497 0.49627 0.0
N420 N 0.96858 0.79124 0.50146 0.0
N421 N 0.04688 0.79842 0.48555 0.0
H422 H 0.11951 0.21709 0.76873 0.0
H423 H 0.92175 0.31782 0.75294 0.0
H424 H 0.00981 0.15584 0.75257 0.0
H425 H 0.03357 0.38031 0.75895 0.0
H426 H 0.95635 0.26178 0.73537 0.0
H427 H 0.09459 0.27602 0.74896 0.0
C428 C 0.09017 0.21608 0.76084 0.0
C429 C 0.06555 0.18263 0.76339 0.0
C430 C 0.97342 0.28806 0.73988 0.0
C431 C 0.03668 0.24989 0.74107 0.0
C432 C 0.95363 0.3199 0.75002 0.0
C433 C 0.97544 0.35242 0.75831 0.0
C434 C 0.01532 0.2882 0.73937 0.0
C435 C 0.01617 0.35483 0.75344 0.0
C436 C 0.07615 0.24953 0.74925 0.0
C437 C 0.02891 0.18182 0.75179 0.0
N438 N 0.03522 0.32232 0.74497 0.0
N439 N 0.01498 0.21554 0.74169 0.0
H440 H 0.56315 0.85065 0.97979 0.0
H441 H 0.47177 0.65354 0.97031 0.0
H442 H 0.63029 0.74158 0.98489 0.0
H443 H 0.40465 0.76034 0.9844 0.0
H444 H 0.52751 0.6804 0.99224 0.0
H445 H 0.50717 0.81848 -0.00103 0.0
C446 C 0.56611 0.81993 0.98533 0.0
C447 C 0.59997 0.79772 0.97963 0.0
C448 C 0.50038 0.6978 0.99107 0.0
C449 C 0.53597 0.76035 0.00055 0.0
C450 C 0.46881 0.68266 0.97822 0.0
C451 C 0.43491 0.70608 0.97436 0.0
C452 C 0.49857 0.73734 -0.00103 0.0
C453 C 0.43129 0.74234 0.98608 0.0
C454 C 0.53438 0.80161 -0.00348 0.0
C455 C 0.60364 0.75892 0.98814 0.0
N456 N 0.46341 0.75756 -0.00271 0.0
N457 N 0.57127 0.74082 -0.00249 0.0
H458 H 0.58513 0.17464 0.74644 0.0
H459 H 0.55072 0.35179 0.72242 0.0
H460 H 0.46238 0.16816 0.7247 0.0
H461 H 0.42655 0.33747 0.73954 0.0
H462 H 0.56659 0.29438 0.74647 0.0
H463 H 0.5704 0.23603 0.76764 0.0
C464 C 0.55473 0.18565 0.74686 0.0
C465 C 0.52508 0.16801 0.7332 0.0
C466 C 0.53598 0.30459 0.74604 0.0
C467 C 0.50874 0.2382 0.75604 0.0
C468 C 0.52708 0.33715 0.732 0.0
C469 C 0.48732 0.34742 0.72837 0.0
C470 C 0.50447 0.28171 0.75539 0.0
C471 C 0.45752 0.32877 0.74139 0.0
C472 C 0.54638 0.22054 0.75889 0.0
C473 C 0.48613 0.18214 0.7345 0.0
N474 N 0.46654 0.29589 0.75391 0.0
N475 N 0.47917 0.21724 0.7453 0.0
H476 H 0.06231 0.35489 0.48204 0.0
H477 H 0.96388 0.15663 0.47688 0.0
H478 H 0.12598 0.24343 0.48123 0.0
H479 H 0.90163 0.26665 0.48996 0.0
H480 H 0.02286 0.18367 0.49573 0.0
H481 H 1.00761 0.32288 0.50254 0.0
C482 C 0.06485 0.32365 0.48658 0.0
C483 C 0.09726 0.30095 0.47893 0.0
C484 C 0.99615 0.20178 0.49503 0.0
C485 C 0.03459 0.26389 0.50147 0.0
C486 C 0.96267 0.18647 0.48401 0.0
C487 C 0.92904 0.21055 0.48075 0.0
C488 C 0.99639 0.24201 0.50168 0.0
C489 C 0.92785 0.24796 0.49131 0.0
C490 C 0.03385 0.30541 0.49848 0.0
C491 C 0.10046 0.26133 0.48609 0.0
N492 N 0.96169 0.26319 0.50068 0.0
N493 N 0.06868 0.24354 0.49632 0.0
H494 H 0.10332 0.70146 0.22904 0.0
H495 H 0.90855 0.80324 0.2271 0.0
H496 H 0.98962 0.64158 0.22885 0.0
H497 H 0.02174 0.86189 0.23682 0.0
H498 H 0.93399 0.74515 0.2475 0.0
H499 H 0.07442 0.75531 0.25167 0.0
C500 C 0.07223 0.69961 0.23411 0.0
C501 C 0.0479 0.66875 0.22603 0.0
C502 C 0.95317 0.77095 0.24575 0.0
C503 C 0.01434 0.73057 0.25089 0.0
C504 C 0.93875 0.80389 0.23383 0.0
C505 C 0.9642 0.83592 0.22905 0.0
C506 C 0.99384 0.76946 0.25158 0.0
C507 C 1.00202 0.83668 0.23923 0.0
C508 C 0.05578 0.73006 0.24725 0.0
C509 C 1.00864 0.66614 0.23396 0.0
N510 N 0.01632 0.80316 0.2494 0.0
N511 N 0.99252 0.69758 0.24535 0.0
H512 H 0.39444 0.02715 -0.0001 0.0
H513 H 0.63274 0.99018 0.99338 0.0
H514 H 0.47636 0.05912 0.05448 0.0
H515 H 0.55086 0.95807 0.93879 0.0
H516 H 0.57615 0.0167 0.01574 0.0
H517 H 0.45092 1.00002 0.97767 0.0
C518 C 0.42401 0.02775 0.00746 0.0
C519 C 0.43026 0.04548 0.02924 0.0
C520 C 0.57063 1.00409 -0.00122 0.0
C521 C 0.49565 0.01528 0.00351 0.0
C522 C 0.60313 0.98933 0.98586 0.0
C523 C 0.59697 0.97182 0.96402 0.0
C524 C 0.53144 1.00138 0.9899 0.0
C525 C 0.55744 0.97115 0.9555 0.0
C526 C 0.45646 0.01268 -0.00538 0.0
C527 C 0.46975 0.04589 0.03781 0.0
N528 N 0.52647 0.9854 0.96839 0.0
N529 N 0.50066 0.03137 0.02498 0.0
H530 H 0.72277 0.7136 0.30535 0.0
H531 H 0.80493 0.7955 0.18355 0.0
H532 H 0.73771 0.63883 0.24526 0.0
H533 H 0.78869 0.86996 0.24369 0.0
H534 H 0.78021 0.73847 0.20556 0.0
H535 H 0.74868 0.77011 0.28342 0.0
C536 C 0.73214 0.70877 0.28761 0.0
C537 C 0.72803 0.67093 0.27729 0.0
C538 C 0.78171 0.76726 0.21396 0.0
C539 C 0.75733 0.7367 0.25163 0.0
C540 C 0.79561 0.80016 0.20132 0.0
C541 C 0.79889 0.83812 0.21162 0.0
C542 C 0.77092 0.77177 0.23732 0.0
C543 C 0.78641 0.84166 0.23481 0.0
C544 C 0.74672 0.74136 0.27501 0.0
C545 C 0.74066 0.66706 0.25414 0.0
N546 N 0.77326 0.80902 0.24683 0.0
N547 N 0.7544 0.69948 0.24211 0.0
H548 H 0.11457 0.98061 0.50593 0.0
H549 H 0.87675 0.0142 0.49469 0.0
H550 H 0.02894 0.92094 0.54965 0.0
H551 H 0.96257 0.05428 0.44403 0.0
H552 H 0.93148 0.9819 0.5162 0.0
H553 H 0.05905 0.01203 0.48489 0.0
C554 C 0.08425 0.97448 0.51134 0.0
C555 C 0.07675 0.94795 0.52967 0.0
C556 C 0.93818 0.99759 0.50027 0.0
C557 C 0.0126 0.98364 0.5054 0.0
C558 C 0.90679 0.01577 0.48786 0.0
C559 C 0.91464 0.03714 0.46738 0.0
C560 C 0.97787 1.00102 0.49232 0.0
C561 C 0.95463 0.03837 0.45968 0.0
C562 C 0.05242 0.99217 0.49917 0.0
C563 C 0.03646 0.94101 0.53562 0.0
N564 N 0.98445 0.02099 0.47214 0.0
N565 N 1.00615 0.9586 0.5236 0.0
H566 H 0.76281 0.38273 0.75098 0.0
H567 H 0.72946 0.14503 0.73988 0.0
H568 H 0.813 0.29658 0.79825 0.0
H569 H 0.67289 0.23122 0.69514 0.0
H570 H 0.76187 0.20009 0.7608 0.0
H571 H 0.72929 0.32796 0.73033 0.0
C572 C 0.76636 0.35254 0.75726 0.0
C573 C 0.79093 0.34463 0.77648 0.0
C574 C 0.74246 0.20691 0.74632 0.0
C575 C 0.75318 0.28135 0.75256 0.0
C576 C 0.72418 0.17535 0.73424 0.0
C577 C 0.69828 0.18314 0.71561 0.0
C578 C 0.73499 0.24674 0.73978 0.0
C579 C 0.69244 0.2234 0.70937 0.0
C580 C 0.74747 0.32113 0.74533 0.0
C581 C 0.79459 0.3045 0.78353 0.0
N582 N 0.71045 0.25342 0.72137 0.0
N583 N 0.77626 0.27464 0.77159 0.0
H584 H 0.32899 0.28424 0.68359 0.0
H585 H 0.22534 0.20845 0.80073 0.0
H586 H 0.29277 0.36344 0.73846 0.0
H587 H 0.2429 0.13229 0.7414 0.0
H588 H 0.25316 0.26412 0.779 0.0
H589 H 0.29934 0.22842 0.70458 0.0
C590 C 0.31432 0.29009 0.69996 0.0
C591 C 0.31342 0.32897 0.70915 0.0
C592 C 0.25118 0.23527 0.7707 0.0
C593 C 0.27978 0.26421 0.73373 0.0
C594 C 0.23549 0.20309 0.7832 0.0
C595 C 0.23165 0.16505 0.77304 0.0
C596 C 0.26359 0.22992 0.7477 0.0
C597 C 0.24541 0.16069 0.75014 0.0
C598 C 0.29748 0.25797 0.712 0.0
C599 C 0.29394 0.33428 0.7305 0.0
N600 N 0.26064 0.19262 0.7383 0.0
N601 N 0.2783 0.30231 0.74212 0.0
H602 H 0.28055 0.88475 0.24152 0.0
H603 H 0.23973 0.64763 0.23742 0.0
H604 H 0.29755 0.806 0.29983 0.0
H605 H 0.2089 0.72753 0.18166 0.0
H606 H 0.26572 0.70475 0.25941 0.0
H607 H 0.25627 0.82772 0.21874 0.0
C608 C 0.27864 0.85577 0.2497 0.0
C609 C 0.2911 0.85064 0.2728 0.0
C610 C 0.25357 0.70973 0.24226 0.0
C611 C 0.26419 0.78459 0.24649 0.0
C612 C 0.23915 0.67693 0.22956 0.0
C613 C 0.22207 0.68243 0.20753 0.0
C614 C 0.25114 0.74853 0.23294 0.0
C615 C 0.22167 0.72155 0.19854 0.0
C616 C 0.2651 0.82303 0.23659 0.0
C617 C 0.28834 0.81186 0.28217 0.0
N618 N 0.23572 0.75286 0.21122 0.0
N619 N 0.27551 0.78061 0.26905 0.0
H620 H 0.04715 0.4655 0.43767 0.0
H621 H 0.98154 0.6015 0.54513 0.0
H622 H 0.13078 0.50683 0.4892 0.0
H623 H 0.89753 0.5435 0.49961 0.0
H624 H 0.03637 0.57027 0.52411 0.0
H625 H 0.99329 0.49818 0.45854 0.0
C626 C 0.05446 0.48187 0.45327 0.0
C627 C 0.09404 0.48313 0.46159 0.0
C628 C 1.00602 0.56414 0.51874 0.0
C629 C 0.03131 0.52082 0.48597 0.0
C630 C 0.97444 0.58195 0.53078 0.0
C631 C 0.93442 0.57525 0.52425 0.0
C632 C 0.99804 0.53945 0.4997 0.0
C633 C 0.92763 0.54947 0.50547 0.0
C634 C 0.02336 0.5004 0.46529 0.0
C635 C 0.10105 0.50511 0.48194 0.0
N636 N 0.95902 0.5328 0.49382 0.0
N637 N 0.07005 0.52288 0.49345 0.0
H638 H 0.62959 0.47689 0.99191 0.0
H639 H 0.39409 0.52974 0.99258 0.0
H640 H 0.5535 0.46104 0.05147 0.0
H641 H 0.46971 0.54265 0.93258 0.0
H642 H 0.4517 0.50378 0.01434 0.0
H643 H 0.57197 0.50311 0.97027 0.0
C644 C 0.60112 0.47963 0.00063 0.0
C645 C 0.59682 0.46672 0.02368 0.0
C646 C 0.45559 0.51202 -0.00366 0.0
C647 C 0.53001 0.49594 -0.00129 0.0
C648 C 0.42245 0.52644 0.9838 0.0
C649 C 0.4266 0.53842 0.96057 0.0
C650 C 0.49342 0.50954 0.98568 0.0
C651 C 0.46468 0.53393 0.9504 0.0
C652 C 0.56798 0.49418 0.98815 0.0
C653 C 0.55862 0.4705 0.03377 0.0
N654 N 0.49633 0.52018 0.96295 0.0
N655 N 0.52697 0.48446 0.02129 0.0
H656 H 0.27775 0.31804 0.05997 0.0
H657 H 0.23561 0.44804 0.17417 0.0
H658 H 0.27943 0.26861 0.12905 0.0
H659 H 0.20094 0.48376 0.10523 0.0
H660 H 0.26411 0.38652 0.15791 0.0
H661 H 0.2607 0.38303 0.07638 0.0
C662 C 0.27462 0.32081 0.07858 0.0
C663 C 0.27969 0.2876 0.09309 0.0
C664 C 0.25069 0.40814 0.14636 0.0
C665 C 0.2606 0.36221 0.11206 0.0
C666 C 0.23484 0.44339 0.1556 0.0
C667 C 0.21576 0.47094 0.14104 0.0
C668 C 0.24785 0.40078 0.12239 0.0
C669 C 0.21514 0.46318 0.11711 0.0
C670 C 0.2649 0.35796 0.08795 0.0
C671 C 0.2754 0.2932 0.11713 0.0
N672 N 0.23074 0.42887 0.10857 0.0
N673 N 0.26613 0.32972 0.12585 0.0
H674 H 0.45607 0.52018 0.31194 0.0
H675 H 0.32923 0.47846 0.42737 0.0
H676 H 0.50977 0.51343 0.37986 0.0
H677 H 0.28829 0.44992 0.35847 0.0
H678 H 0.39224 0.50299 0.41066 0.0
H679 H 0.39131 0.50469 0.3292 0.0
C680 C 0.45431 0.51538 0.33048 0.0
C681 C 0.48859 0.5178 0.34441 0.0
C682 C 0.3692 0.49175 0.39924 0.0
C683 C 0.41418 0.50059 0.36437 0.0
C684 C 0.33314 0.47818 0.40873 0.0
C685 C 0.30357 0.46205 0.39428 0.0
C686 C 0.37536 0.48961 0.37514 0.0
C687 C 0.31039 0.4619 0.37026 0.0
C688 C 0.41727 0.50659 0.34033 0.0
C689 C 0.48427 0.51146 0.36839 0.0
N690 N 0.34549 0.47532 0.36148 0.0
N691 N 0.44777 0.50324 0.37761 0.0
H692 H 0.25475 0.69332 0.56051 0.0
H693 H 0.29175 0.55444 0.67145 0.0
H694 H 0.24129 0.73553 0.63073 0.0
H695 H 0.34068 0.53048 0.60373 0.0
H696 H 0.26147 0.6157 0.65606 0.0
H697 H 0.2758 0.62862 0.57556 0.0
C698 C 0.25619 0.68902 0.5791 0.0
C699 C 0.24652 0.72009 0.59436 0.0
C700 C 0.2785 0.59674 0.64457 0.0
C701 C 0.27017 0.64576 0.61171 0.0
C702 C 0.29542 0.56163 0.65327 0.0
C703 C 0.31888 0.53746 0.63886 0.0
C704 C 0.28468 0.60732 0.62126 0.0
C705 C 0.32305 0.5484 0.61549 0.0
C706 C 0.26821 0.65204 0.58767 0.0
C707 C 0.24884 0.7126 0.61831 0.0
N708 N 0.30624 0.58251 0.60745 0.0
N709 N 0.26037 0.67618 0.62625 0.0
H710 H 1.00815 0.50121 0.88001 0.0
H711 H 0.23346 0.56671 0.85754 0.0
H712 H 0.06329 0.50067 0.81241 0.0
H713 H 0.18923 0.53988 0.92592 0.0
H714 H 0.17135 0.54183 0.84092 0.0
H715 H 0.0732 0.51619 0.89736 0.0
C716 C 0.03383 0.50441 0.86877 0.0
C717 C 0.03004 0.4999 0.84463 0.0
C718 C 0.17527 0.54076 0.85954 0.0
C719 C 0.10476 0.51683 0.8645 0.0
C720 C 0.21084 0.55481 0.86904 0.0
C721 C 0.21655 0.55521 0.89314 0.0
C722 C 0.14455 0.52767 0.87422 0.0
C723 C 0.18618 0.53967 0.90724 0.0
C724 C 0.07104 0.51266 0.87875 0.0
C725 C 0.06458 0.50401 0.83106 0.0
N726 N 0.15117 0.52705 0.89759 0.0
N727 N 0.10031 0.51242 0.84115 0.0
H728 H 0.82025 0.53408 0.88065 0.0
H729 H 0.74989 0.75737 0.86053 0.0
H730 H 0.78879 0.57907 0.81306 0.0
H731 H 0.74854 0.70087 0.92776 0.0
H732 H 0.76494 0.69302 0.84279 0.0
H733 H 0.79362 0.59462 0.89817 0.0
C734 C 0.80706 0.55651 0.86951 0.0
C735 C 0.80675 0.55156 0.84535 0.0
C736 C 0.76115 0.69465 0.8614 0.0
C737 C 0.77705 0.62161 0.86531 0.0
C738 C 0.75285 0.73148 0.87161 0.0
C739 C 0.74823 0.73472 0.89576 0.0
C740 C 0.7654 0.66073 0.87541 0.0
C741 C 0.752 0.69993 0.90911 0.0
C742 C 0.79194 0.59113 0.87954 0.0
C743 C 0.78935 0.58158 0.83176 0.0
N744 N 0.76067 0.66452 0.89879 0.0
N745 N 0.77575 0.61565 0.84191 0.0
H746 H 0.57264 0.50024 0.6742 0.0
H747 H 0.70647 0.54573 0.56223 0.0
H748 H 0.52671 0.49016 0.60452 0.0
H749 H 0.73156 0.59159 0.63052 0.0
H750 H 0.64603 0.51351 0.57767 0.0
H751 H 0.63632 0.52281 0.6585 0.0
C752 C 0.57591 0.50268 0.65558 0.0
C753 C 0.54405 0.49355 0.64068 0.0
C754 C 0.66508 0.5303 0.58926 0.0
C755 C 0.61734 0.51911 0.62256 0.0
C756 C 0.69972 0.54831 0.58053 0.0
C757 C 0.72395 0.57143 0.59513 0.0
C758 C 0.65513 0.53501 0.61278 0.0
C759 C 0.71358 0.57424 0.61863 0.0
C760 C 0.61234 0.5156 0.64663 0.0
C761 C 0.55029 0.49723 0.61667 0.0
N762 N 0.68001 0.55635 0.6267 0.0
N763 N 0.58623 0.5097 0.60834 0.0
H764 H 0.77365 0.31748 0.43364 0.0
H765 H 0.73673 0.43971 0.31574 0.0
H766 H 0.77498 0.26304 0.36591 0.0
H767 H 0.69681 0.47962 0.38284 0.0
H768 H 0.76446 0.37954 0.33413 0.0
H769 H 0.75785 0.38162 0.41542 0.0
C770 C 0.77078 0.31899 0.41496 0.0
C771 C 0.77525 0.28463 0.40135 0.0
C772 C 0.75008 0.4018 0.34482 0.0
C773 C 0.75775 0.35813 0.38034 0.0
C774 C 0.73466 0.43628 0.33436 0.0
C775 C 0.71433 0.4646 0.34777 0.0
C776 C 0.7456 0.396 0.36886 0.0
C777 C 0.71203 0.4584 0.37183 0.0
C778 C 0.76176 0.35561 0.40457 0.0
C779 C 0.77133 0.28856 0.37716 0.0
N780 N 0.7273 0.42482 0.38157 0.0
N781 N 0.76285 0.32454 0.36746 0.0
H782 H 0.79251 0.43732 0.12672 0.0
H783 H 0.01266 0.5165 0.1032 0.0
H784 H 0.832 0.47071 0.05832 0.0
H785 H 0.95765 0.51731 0.17083 0.0
H786 H 0.94834 0.4975 0.08617 0.0
H787 H 0.85353 0.46543 0.14298 0.0
C788 C 0.81386 0.45119 0.11514 0.0
C789 C 0.80714 0.45179 0.09113 0.0
C790 C 0.95038 0.50201 0.10471 0.0
C791 C 0.87785 0.48319 0.10963 0.0
C792 C 0.98716 0.51256 0.1145 0.0
C793 C 0.99075 0.5183 0.13856 0.0
C794 C 0.91698 0.49666 0.11909 0.0
C795 C 0.95647 0.51313 0.15224 0.0
C796 C 0.84877 0.46716 0.12444 0.0
C797 C 0.83587 0.47 0.07694 0.0
N798 N 0.92123 0.50237 0.14235 0.0
N799 N 0.87031 0.48449 0.08637 0.0
H800 H 0.76013 0.82756 0.56249 0.0
H801 H 0.7202 0.95645 0.67698 0.0
H802 H 0.77142 0.77873 0.63144 0.0
H803 H 0.67309 0.9859 0.60952 0.0
H804 H 0.7513 0.89665 0.66019 0.0
H805 H 0.73939 0.89096 0.5793 0.0
C806 C 0.7583 0.83013 0.58117 0.0
C807 C 0.76721 0.79758 0.59555 0.0
C808 C 0.73451 0.91653 0.64908 0.0
C809 C 0.74385 0.87042 0.61493 0.0
C810 C 0.71715 0.95079 0.65858 0.0
C811 C 0.69395 0.976 0.64462 0.0
C812 C 0.72904 0.90795 0.62543 0.0
C813 C 0.69051 0.96708 0.62094 0.0
C814 C 0.74646 0.86638 0.59075 0.0
C815 C 0.76443 0.80287 0.61967 0.0
N816 N 0.70774 0.93381 0.61212 0.0
N817 N 0.75302 0.83861 0.62861 0.0
H818 H 0.78856 0.01044 0.88903 0.0
H819 H 0.0198 0.96896 0.86281 0.0
H820 H 0.84913 0.90003 0.90369 0.0
H821 H 0.95403 0.05901 0.82547 0.0
H822 H 0.95885 0.95012 0.88295 0.0
H823 H 0.85051 0.0359 0.8709 0.0
C824 C 0.81504 0.99196 0.88882 0.0
C825 C 0.81391 0.95316 0.89787 0.0
C826 C 0.95762 0.97399 0.87033 0.0
C827 C 0.88418 0.98169 0.87729 0.0
C828 C 0.9925 0.98478 0.85877 0.0
C829 C 0.99214 0.01547 0.84224 0.0
C830 C 0.92181 0.99418 0.86564 0.0
C831 C 0.95566 0.0349 0.83789 0.0
C832 C 0.85014 1.00626 0.8783 0.0
C833 C 0.84877 0.93011 0.89688 0.0
N834 N 0.92193 0.02403 0.84958 0.0
N835 N 0.88231 0.94468 0.88685 0.0
H836 H 0.78852 0.07127 0.17678 0.0
H837 H 0.74437 0.19396 0.0601 0.0
H838 H 0.82392 0.03154 0.1088 0.0
H839 H 0.75087 0.24947 0.12744 0.0
H840 H 0.76097 0.12993 0.07801 0.0
H841 H 0.76074 0.13214 0.15918 0.0
C842 C 0.78948 0.07486 0.15813 0.0
C843 C 0.80851 0.04638 0.14421 0.0
C844 C 0.75866 0.15614 0.08887 0.0
C845 C 0.77728 0.11575 0.12405 0.0
C846 C 0.74921 0.19273 0.07865 0.0
C847 C 0.74658 0.22734 0.09222 0.0
C848 C 0.76497 0.15384 0.11292 0.0
C849 C 0.75303 0.22373 0.11623 0.0
C850 C 0.77409 0.10975 0.14813 0.0
C851 C 0.80957 0.05283 0.12016 0.0
N852 N 0.76184 0.18768 0.12581 0.0
N853 N 0.79432 0.08677 0.11087 0.0
H854 H 0.72255 0.0092 0.39873 0.0
H855 H 0.49457 0.05233 0.36611 0.0
H856 H 0.66688 0.12455 0.40427 0.0
H857 H 0.56116 0.9594 0.33192 0.0
H858 H 0.55511 0.07244 0.38649 0.0
H859 H 0.66086 0.98342 0.38052 0.0
C860 C 0.6972 0.02882 0.39645 0.0
C861 C 0.6997 0.06902 0.40294 0.0
C862 C 0.55652 0.04764 0.37452 0.0
C863 C 0.62965 0.04002 0.38242 0.0
C864 C 0.52194 0.03612 0.36286 0.0
C865 C 0.52278 1.00431 0.34711 0.0
C866 C 0.59232 0.02691 0.37077 0.0
C867 C 0.55925 0.98438 0.34371 0.0
C868 C 0.66228 0.01428 0.38591 0.0
C869 C 0.66624 0.0934 0.39941 0.0
N870 N 0.59259 0.99589 0.35553 0.0
N871 N 0.6327 0.07853 0.3895 0.0
H872 H 0.24475 0.26683 0.35454 0.0
H873 H 0.30359 0.03955 0.37531 0.0
H874 H 0.2379 0.20827 0.42106 0.0
H875 H 0.28807 0.08871 0.30689 0.0
H876 H 0.27673 0.10063 0.39196 0.0
H877 H 0.25948 0.20247 0.33645 0.0
C878 C 0.2464 0.24052 0.36538 0.0
C879 C 0.24033 0.24318 0.38946 0.0
C880 C 0.27849 0.09802 0.37329 0.0
C881 C 0.25698 0.16926 0.36873 0.0
C882 C 0.29361 0.06301 0.36376 0.0
C883 C 0.29783 0.05902 0.33969 0.0
C884 C 0.26822 0.1299 0.3587 0.0
C885 C 0.28482 0.09044 0.32553 0.0
C886 C 0.25455 0.20372 0.35498 0.0
C887 C 0.24251 0.20789 0.4025 0.0
N888 N 0.27115 0.12489 0.33526 0.0
N889 N 0.25086 0.1726 0.39201 0.0
H890 H 1.00823 0.04916 0.12897 0.0
H891 H 0.23684 0.00878 0.09872 0.0
H892 H 0.07285 0.95578 0.16408 0.0
H893 H 0.18359 0.12569 0.09858 0.0
H894 H 0.17479 0.98201 0.11611 0.0
H895 H 0.0704 0.07108 0.11094 0.0
C896 C 0.03552 0.03326 0.13292 0.0
C897 C 0.03532 1.00078 0.14824 0.0
C898 C 0.17693 0.01348 0.11217 0.0
C899 C 0.1067 0.02533 0.12719 0.0
C900 C 0.21208 0.02864 0.10213 0.0
C901 C 0.21538 0.06952 0.09732 0.0
C902 C 0.14478 0.03931 0.11674 0.0
C903 C 0.18249 0.09405 0.10218 0.0
C904 C 0.07102 0.0458 0.12261 0.0
C905 C 0.07173 0.98126 0.1526 0.0
N906 N 0.14867 0.07859 0.11144 0.0
N907 N 0.10599 0.99366 0.142 0.0
H908 H 0.23222 0.93076 0.80533 0.0
H909 H 0.28628 0.81313 0.92242 0.0
H910 H 0.20737 0.97549 0.87383 0.0
H911 H 0.27128 0.75448 0.85643 0.0
H912 H 0.26997 0.87672 0.90392 0.0
H913 H 0.26049 0.87004 0.8229 0.0
C914 C 0.2337 0.92824 0.82403 0.0
C915 C 0.21746 0.95806 0.83817 0.0
C916 C 0.27035 0.84992 0.89349 0.0
C917 C 0.24922 0.88899 0.8583 0.0
C918 C 0.27963 0.81358 0.90405 0.0
C919 C 0.27976 0.77825 0.89105 0.0
C920 C 0.26165 0.85118 0.86966 0.0
C921 C 0.27107 0.78083 0.86723 0.0
C922 C 0.24936 0.89348 0.83404 0.0
C923 C 0.21948 0.95309 0.86232 0.0
N924 N 0.26241 0.81662 0.85731 0.0
N925 N 0.2349 0.91924 0.8716 0.0
H926 H 0.48626 0.02257 0.61174 0.0
H927 H 0.2752 0.92475 0.63697 0.0
H928 H 0.43711 0.01322 0.68067 0.0
H929 H 0.30536 0.97286 0.56991 0.0
H930 H 0.33504 0.95552 0.6532 0.0
H931 H 0.42175 1.0019 0.59577 0.0
C932 C 0.46197 0.01609 0.62353 0.0
C933 C 0.46726 0.01941 0.64762 0.0
C934 C 0.32837 0.95988 0.635 0.0
C935 C 0.39333 0.99577 0.6294 0.0
C936 C 0.29417 0.94236 0.62573 0.0
C937 C 0.28531 0.9463 0.60206 0.0
C938 C 0.35453 0.98079 0.62042 0.0
C939 C 0.31095 0.96938 0.58829 0.0
C940 C 0.42507 1.00461 0.61438 0.0
C941 C 0.43452 0.011 0.66201 0.0
N942 N 0.3448 0.98527 0.59759 0.0
N943 N 0.39913 0.99926 0.6527 0.0
H944 H 0.2377 0.21005 0.98797 0.0
H945 H 0.10575 0.07344 0.90536 0.0
H946 H 0.21698 0.08435 -0.00143 0.0
H947 H 0.1623 0.1821 0.88237 0.0
H948 H 0.12844 0.08687 0.94467 0.0
H949 H 0.19372 0.2082 0.9542 0.0
C950 C 0.22352 0.18215 0.98339 0.0
C951 C 0.23147 0.14708 -0.00411 0.0
C952 C 0.1353 0.1081 0.9311 0.0
C953 C 0.18092 0.1451 0.95752 0.0
C954 C 0.12232 0.10057 0.90866 0.0
C955 C 0.13313 0.12621 0.89047 0.0
C956 C 0.15925 0.14147 0.93539 0.0
C957 C 0.15381 0.16131 0.89585 0.0
C958 C 0.19847 0.18121 0.96413 0.0
C959 C 0.21216 0.1119 0.98922 0.0
N960 N 0.1669 0.16761 0.91785 0.0
N961 N 0.18791 0.11176 0.97037 0.0
H962 H 0.57729 0.40215 0.12878 0.0
H963 H 0.55386 0.47894 0.23991 0.0
H964 H 0.68245 0.34495 0.15632 0.0
H965 H 0.68182 0.46368 0.24195 0.0
H966 H 0.55073 0.43476 0.20642 0.0
H967 H 0.56332 0.42912 0.16728 0.0
C968 C 0.59659 0.3941 0.1431 0.0
C969 C 0.63144 0.37198 0.13934 0.0
C970 C 0.57946 0.44123 0.21412 0.0
C971 C 0.61589 0.40258 0.18326 0.0
C972 C 0.58133 0.46625 0.23336 0.0
C973 C 0.61834 0.47561 0.24351 0.0
C974 C 0.61484 0.42545 0.20503 0.0
C975 C 0.65277 0.45785 0.23446 0.0
C976 C 0.58865 0.40951 0.16512 0.0
C977 C 0.65566 0.3626 0.15843 0.0
N978 N 0.65017 0.43371 0.21567 0.0
N979 N 0.64791 0.37868 0.17945 0.0
H980 H 0.29156 0.93 0.501 0.0
H981 H 0.35653 0.83248 0.38384 0.0
H982 H 0.28313 0.80303 0.49004 0.0
H983 H 0.40497 0.94409 0.40822 0.0
H984 H 0.3331 0.81839 0.42322 0.0
H985 H 0.33549 0.93479 0.46735 0.0
C986 C 0.29919 0.90313 0.49161 0.0
C987 C 0.28337 0.86619 0.49812 0.0
C988 C 0.34963 0.84555 0.41998 0.0
C989 C 0.33327 0.87138 0.45963 0.0
C990 C 0.3631 0.85351 0.39755 0.0
C991 C 0.38175 0.88994 0.39267 0.0
C992 C 0.35461 0.87446 0.43737 0.0
C993 C 0.38973 0.91608 0.4111 0.0
C994 C 0.32448 0.90579 0.47252 0.0
C995 C 0.29456 0.83218 0.48551 0.0
N996 N 0.37539 0.9082 0.43254 0.0
N997 N 0.31834 0.83567 0.46661 0.0
H998 H 0.87791 0.69773 0.65883 0.0
H999 H 0.86231 0.49887 0.71824 0.0
H1000 H 0.92516 0.59617 0.62243 0.0
H1001 H 0.93514 0.58305 0.75568 0.0
H1002 H 0.87043 0.53945 0.68309 0.0
H1003 H 0.88819 0.66242 0.69576 0.0
C1004 C 0.89202 0.6687 0.65876 0.0
C1005 C 0.90135 0.64987 0.63778 0.0
C1006 C 0.88452 0.54888 0.69908 0.0
C1007 C 0.91073 0.60902 0.6793 0.0
C1008 C 0.8795 0.52618 0.71908 0.0
C1009 C 0.89794 0.53794 0.73974 0.0
C1010 C 0.90709 0.584 0.70003 0.0
C1011 C 0.92047 0.57322 0.73997 0.0
C1012 C 0.89752 0.64857 0.67969 0.0
C1013 C 0.91836 0.6118 0.63836 0.0
N1014 N 0.92399 0.59552 0.72039 0.0
N1015 N 0.92139 0.59199 0.65882 0.0
H1016 H 0.94199 0.92369 0.08294 0.0
H1017 H 0.81235 0.93205 0.99286 0.0
H1018 H 0.86619 0.82767 0.106 0.0
H1019 H 0.79226 0.80605 0.00253 0.0
H1020 H 0.85999 0.93082 0.02472 0.0
H1021 H 0.91845 0.91341 0.04337 0.0
C1022 C 0.92105 0.8998 0.07953 0.0
C1023 C 0.90508 0.87718 0.09775 0.0
C1024 C 0.8461 0.90316 0.01948 0.0
C1025 C 0.87676 0.8666 0.05293 0.0
C1026 C 0.81837 0.90403 0.00151 0.0
C1027 C 0.79809 0.86922 -0.00483 0.0
C1028 C 0.85334 0.86725 0.03132 0.0
C1029 C 0.80718 0.83365 0.0069 0.0
C1030 C 0.90722 0.89435 0.05703 0.0
C1031 C 0.87877 0.84607 0.09243 0.0
N1032 N 0.83364 0.83372 0.02472 0.0
N1033 N 0.86462 0.84225 0.07046 0.0
H1034 H 0.44674 0.60478 0.85379 0.0
H1035 H 0.34393 0.54585 0.73767 0.0
H1036 H 0.34139 0.66445 0.8283 0.0
H1037 H 0.47057 0.52885 0.74738 0.0
H1038 H 0.34351 0.5911 0.77082 0.0
H1039 H 0.45945 0.57999 0.8145 0.0
C1040 C 0.42703 0.61364 0.83982 0.0
C1041 C 0.39244 0.63575 0.84432 0.0
C1042 C 0.37151 0.5779 0.76547 0.0
C1043 C 0.40616 0.60703 0.79984 0.0
C1044 C 0.37164 0.55185 0.74671 0.0
C1045 C 0.4072 0.53335 0.73998 0.0
C1046 C 0.407 0.58472 0.77786 0.0
C1047 C 0.44244 0.54245 0.7521 0.0
C1048 C 0.43413 0.59935 0.81746 0.0
C1049 C 0.36786 0.64653 0.82564 0.0
N1050 N 0.44135 0.56702 0.77074 0.0
N1051 N 0.37468 0.63132 0.8043 0.0
H1052 H 0.56642 0.11157 0.58383 0.0
H1053 H 0.70297 0.0933 0.49782 0.0
H1054 H 0.65214 0.19229 0.61377 0.0
H1055 H 0.73853 0.21451 0.51191 0.0
H1056 H 0.65499 0.09726 0.52939 0.0
H1057 H 0.59684 0.12178 0.54586 0.0
C1058 C 0.591 0.13237 0.58222 0.0
C1059 C 0.60728 0.15069 0.6019 0.0
C1060 C 0.67252 0.12339 0.52525 0.0
C1061 C 0.64359 0.16065 0.55894 0.0
C1062 C 0.70042 0.12088 0.50743 0.0
C1063 C 0.72485 0.15355 0.50226 0.0
C1064 C 0.66918 0.15876 0.53814 0.0
C1065 C 0.72018 0.18862 0.5153 0.0
C1066 C 0.60879 0.13761 0.56066 0.0
C1067 C 0.63888 0.17757 0.59896 0.0
N1068 N 0.69328 0.19011 0.53291 0.0
N1069 N 0.6567 0.18113 0.57786 0.0
H1070 H 0.13815 0.34054 0.332 0.0
H1071 H 0.15307 0.53148 0.26513 0.0
H1072 H 0.09001 0.44627 0.36369 0.0
H1073 H 0.08481 0.44104 0.22976 0.0
H1074 H 0.14311 0.4955 0.3017 0.0
H1075 H 0.12722 0.37047 0.2936 0.0
C1076 C 0.12368 0.36932 0.33075 0.0
C1077 C 0.11448 0.391 0.35079 0.0
C1078 C 0.13038 0.48369 0.28586 0.0
C1079 C 0.10422 0.42574 0.30758 0.0
C1080 C 0.13653 0.50374 0.26506 0.0
C1081 C 0.11995 0.48887 0.24456 0.0
C1082 C 0.10853 0.4481 0.28593 0.0
C1083 C 0.09811 0.45319 0.24534 0.0
C1084 C 0.11775 0.38637 0.30898 0.0
C1085 C 0.09685 0.42857 0.34852 0.0
N1086 N 0.09347 0.43348 0.26575 0.0
N1087 N 0.09344 0.44543 0.32722 0.0
H1088 H 0.65638 0.69423 0.38071 0.0
H1089 H 0.71462 0.5982 0.49845 0.0
H1090 H 0.59598 0.59083 0.40807 0.0
H1091 H 0.73197 0.72404 0.48671 0.0
H1092 H 0.66878 0.59636 0.46555 0.0
H1093 H 0.68028 0.70964 0.41988 0.0
C1094 C 0.64709 0.67556 0.39505 0.0
C1095 C 0.62517 0.64065 0.39116 0.0
C1096 C 0.68216 0.62452 0.47039 0.0
C1097 C 0.65288 0.65742 0.43552 0.0
C1098 C 0.70857 0.62544 0.48901 0.0
C1099 C 0.72735 0.66116 0.49508 0.0
C1100 C 0.67528 0.65937 0.45747 0.0
C1101 C 0.71816 0.69581 0.48248 0.0
C1102 C 0.66088 0.6842 0.41735 0.0
C1103 C 0.6138 0.61748 0.4103 0.0
N1104 N 0.69325 0.69393 0.46396 0.0
N1105 N 0.62858 0.62573 0.43159 0.0
H1106 H 0.15214 0.81986 0.66081 0.0
H1107 H 0.04741 0.99705 0.72949 0.0
H1108 H 0.06472 0.89666 0.62903 0.0
H1109 H 0.16333 0.94766 0.74493 0.0
H1110 H 0.03968 0.94807 0.6982 0.0
H1111 H 0.13948 0.85176 0.69805 0.0
C1112 C 0.12921 0.84254 0.66189 0.0
C1113 C 0.10988 0.85619 0.64185 0.0
C1114 C 0.06653 0.94781 0.70865 0.0
C1115 C 0.09619 0.89354 0.68413 0.0
C1116 C 0.07105 0.97571 0.72642 0.0
C1117 C 0.10636 0.97672 0.73956 0.0
C1118 C 0.09718 0.92036 0.7044 0.0
C1119 C 0.13595 0.94836 0.73497 0.0
C1120 C 0.12231 0.86099 0.68307 0.0
C1121 C 0.08031 0.88546 0.64413 0.0
N1122 N 0.1307 0.92138 0.71775 0.0
N1123 N 0.07497 0.90397 0.66488 0.0
H1124 H 0.93106 0.41476 0.90473 0.0
H1125 H 0.77516 0.29296 0.98084 0.0
H1126 H 0.85738 0.32148 0.87626 0.0
H1127 H 0.81488 0.41293 -0.00524 0.0
H1128 H 0.82076 0.29014 0.94766 0.0
H1129 H 0.90654 0.39856 0.94337 0.0
C1130 C 0.91058 0.39001 0.90676 0.0
C1131 C 0.89547 0.36992 0.88735 0.0
C1132 C 0.81978 0.31678 0.95822 0.0
C1133 C 0.86676 0.35193 0.93129 0.0
C1134 C 0.79383 0.31851 0.97708 0.0
C1135 C 0.79091 0.35351 0.99031 0.0
C1136 C 0.84336 0.35001 0.95289 0.0
C1137 C 0.81576 0.38565 0.98478 0.0
C1138 C 0.89644 0.38099 0.92876 0.0
C1139 C 0.86944 0.33781 0.89085 0.0
N1140 N 0.84088 0.38316 0.96642 0.0
N1141 N 0.85506 0.33031 0.91247 0.0
H1142 H 0.47099 0.0231 0.23394 0.0
H1143 H 0.35733 0.18507 0.15804 0.0
H1144 H 0.35336 0.06977 0.24768 0.0
H1145 H 0.44975 0.10957 0.1303 0.0
H1146 H 0.37244 0.1605 0.19683 0.0
H1147 H 0.47741 0.06982 0.20139 0.0
C1148 C 0.44676 0.04352 0.23028 0.0
C1149 C 0.41125 0.04219 0.24317 0.0
C1150 C 0.39008 0.14998 0.18235 0.0
C1151 C 0.41884 0.09585 0.20657 0.0
C1152 C 0.38164 0.16413 0.16027 0.0
C1153 C 0.40177 0.14852 0.14104 0.0
C1154 C 0.4184 0.11963 0.1851 0.0
C1155 C 0.43336 0.12195 0.14477 0.0
C1156 C 0.45053 0.07011 0.2118 0.0
C1157 C 0.38089 0.06932 0.23786 0.0
N1158 N 0.44013 0.10744 0.16643 0.0
N1159 N 0.38532 0.09493 0.21989 0.0
H1160 H 0.44527 0.38331 0.57676 0.0
H1161 H 0.24567 0.3999 0.51944 0.0
H1162 H 0.34538 0.33124 0.61272 0.0
H1163 H 0.33006 0.3321 0.47914 0.0
H1164 H 0.28679 0.38838 0.55407 0.0
H1165 H 0.4098 0.3739 0.53983 0.0
C1166 C 0.41667 0.36825 0.57671 0.0
C1167 C 0.39825 0.35753 0.59761 0.0
C1168 C 0.29611 0.37607 0.53759 0.0
C1169 C 0.35714 0.34905 0.55609 0.0
C1170 C 0.2731 0.38305 0.51789 0.0
C1171 C 0.28481 0.36708 0.49656 0.0
C1172 C 0.33149 0.35405 0.53569 0.0
C1173 C 0.32027 0.34489 0.4954 0.0
C1174 C 0.39643 0.36325 0.55577 0.0
C1175 C 0.3607 0.33924 0.59686 0.0
N1176 N 0.34291 0.3395 0.51472 0.0
N1177 N 0.34068 0.33677 0.57644 0.0
H1178 H 0.93642 0.10208 0.36327 0.0
H1179 H 0.84419 0.05565 0.2406 0.0
H1180 H 0.83158 0.16005 0.33584 0.0
H1181 H 0.96385 0.02001 0.25896 0.0
H1182 H 0.84254 0.09899 0.27436 0.0
H1183 H 0.95184 0.07762 0.32423 0.0
C1184 C 0.91723 0.11044 0.34896 0.0
C1185 C 0.88218 0.13225 0.35281 0.0
C1186 C 0.86942 0.08211 0.27092 0.0
C1187 C 0.89924 0.10421 0.30846 0.0
C1188 C 0.87022 0.05716 0.25171 0.0
C1189 C 0.90396 0.03383 0.24722 0.0
C1190 C 0.90228 0.08316 0.28605 0.0
C1191 C 0.93714 0.03739 0.26195 0.0
C1192 C 0.92594 0.0964 0.32672 0.0
C1193 C 0.85839 0.14244 0.3337 0.0
N1194 N 0.93524 0.0611 0.28099 0.0
N1195 N 0.86701 0.12781 0.31244 0.0
H1196 H 0.08858 0.60264 0.07751 0.0
H1197 H 0.25003 0.71724 0.00157 0.0
H1198 H 0.1616 0.69731 0.10495 0.0
H1199 H 0.20884 0.5972 0.98938 0.0
H1200 H 0.20279 0.72289 0.03381 0.0
H1201 H 0.11509 0.61595 0.03893 0.0
C1202 C 0.10927 0.62715 0.07522 0.0
C1203 C 0.12364 0.64845 0.09438 0.0
C1204 C 0.20385 0.69558 0.02384 0.0
C1205 C 0.15471 0.66305 0.05056 0.0
C1206 C 0.23076 0.69223 0.00552 0.0
C1207 C 0.2337 0.65642 0.99305 0.0
C1208 C 0.17934 0.66314 0.0294 0.0
C1209 C 0.20799 0.62506 -0.0012 0.0
C1210 C 0.12459 0.63449 0.05327 0.0
C1211 C 0.15006 0.68012 0.09056 0.0
N1212 N 0.18196 0.62913 0.01663 0.0
N1213 N 0.16561 0.68593 0.06904 0.0
H1214 H 0.68266 0.84794 0.83267 0.0
H1215 H 0.54229 0.98489 0.75515 0.0
H1216 H 0.57774 0.90601 0.85977 0.0
H1217 H 0.66791 0.9654 0.74298 0.0
H1218 H 0.5454 0.93925 0.78821 0.0
H1219 H 0.66584 0.87201 0.79406 0.0
C1220 C 0.65555 0.86508 0.83037 0.0
C1221 C 0.63203 0.87598 0.84944 0.0
C1222 C 0.57206 0.94464 0.77807 0.0
C1223 C 0.61302 0.90382 0.80546 0.0
C1224 C 0.57041 0.97061 0.75925 0.0
C1225 C 0.60511 0.97928 0.74655 0.0
C1226 C 0.60847 0.92684 0.78391 0.0
C1227 C 0.64066 0.95998 0.75255 0.0
C1228 C 0.64609 0.87886 0.80837 0.0
C1229 C 0.59682 0.89742 0.8455 0.0
N1230 N 0.64145 0.93472 0.77089 0.0
N1231 N 0.58872 0.91146 0.82388 0.0
loop_
_geom_bond_atom_site_label_1
_geom_bond_atom_site_label_2
_geom_bond_distance
_geom_bond_site_symmetry_2
_ccdc_geom_bond_type
O0 Zn1 1.953 . S
O0 C16 1.225 . S
Zn1 O0 1.953 . S
Zn1 O2 1.949 . S
Zn1 O8 1.919 . S
Zn1 O13 1.924 . S
O2 Zn1 1.949 . S
O2 Zn3 1.923 . S
O2 Zn4 1.950 . S
O2 Zn5 1.945 . S
Zn3 O2 1.923 . S
Zn3 O6 1.933 . S
Zn3 O9 1.941 . S
Zn3 O10 1.965 . S
Zn4 O2 1.950 . S
Zn4 O11 1.938 . S
Zn4 O12 1.906 . S
Zn4 O22 1.953 . S
Zn5 O2 1.945 . S
Zn5 O7 1.932 . S
Zn5 O14 1.977 . S
Zn5 O15 1.910 . S
O6 Zn3 1.933 . S
O6 C17 1.226 . S
O7 Zn5 1.932 . S
O7 C17 1.307 . S
O8 Zn1 1.919 . S
O8 C19 1.253 . S
O9 Zn3 1.941 . S
O9 C19 1.283 . S
O10 Zn3 1.965 . S
O10 C18 1.303 . S
O11 Zn4 1.938 . S
O11 C18 1.247 . S
O12 Zn4 1.906 . S
O12 C20 1.304 . S
O13 Zn1 1.924 . S
O13 C21 1.311 . S
O14 Zn5 1.977 . S
O14 C20 1.272 . S
O15 Zn5 1.910 . S
O15 C21 1.231 . S
C16 O0 1.225 . S
C16 O22 1.298 . S
C17 O6 1.226 . S
C17 O7 1.307 . S
C18 O10 1.303 . S
C18 O11 1.247 . S
C19 O8 1.253 . S
C19 O9 1.283 . S
C20 O12 1.304 . S
C20 O14 1.272 . S
C21 O13 1.311 . S
C21 O15 1.231 . S
O22 Zn4 1.953 . S
O22 C16 1.298 . S
O23 Zn24 1.953 . S
O23 C39 1.225 . S
Zn24 O23 1.953 . S
Zn24 O25 1.949 . S
Zn24 O31 1.919 . S
Zn24 O36 1.924 . S
O25 Zn24 1.949 . S
O25 Zn26 1.923 . S
O25 Zn27 1.950 . S
O25 Zn28 1.945 . S
Zn26 O25 1.923 . S
Zn26 O29 1.933 . S
Zn26 O32 1.941 . S
Zn26 O33 1.965 . S
Zn27 O25 1.950 . S
Zn27 O34 1.938 . S
Zn27 O35 1.906 . S
Zn27 O45 1.953 . S
Zn28 O25 1.945 . S
Zn28 O30 1.932 . S
Zn28 O37 1.977 . S
Zn28 O38 1.910 . S
O29 Zn26 1.933 . S
O29 C40 1.226 . S
O30 Zn28 1.932 . S
O30 C40 1.307 . S
O31 Zn24 1.919 . S
O31 C42 1.253 . S
O32 Zn26 1.941 . S
O32 C42 1.283 . S
O33 Zn26 1.965 . S
O33 C41 1.303 . S
O34 Zn27 1.938 . S
O34 C41 1.247 . S
O35 Zn27 1.906 . S
O35 C43 1.304 . S
O36 Zn24 1.924 . S
O36 C44 1.311 . S
O37 Zn28 1.977 . S
O37 C43 1.272 . S
O38 Zn28 1.910 . S
O38 C44 1.231 . S
C39 O23 1.225 . S
C39 O45 1.298 . S
C40 O29 1.226 . S
C40 O30 1.307 . S
C41 O33 1.303 . S
C41 O34 1.247 . S
C42 O31 1.253 . S
C42 O32 1.283 . S
C43 O35 1.304 . S
C43 O37 1.272 . S
C44 O36 1.311 . S
C44 O38 1.231 . S
O45 Zn27 1.953 . S
O45 C39 1.298 . S
O46 Zn47 1.953 . S
O46 C62 1.225 . S
Zn47 O46 1.953 . S
Zn47 O48 1.949 . S
Zn47 O54 1.919 . S
Zn47 O59 1.924 . S
O48 Zn47 1.949 . S
O48 Zn49 1.923 . S
O48 Zn50 1.950 . S
O48 Zn51 1.945 . S
Zn49 O48 1.923 . S
Zn49 O52 1.933 . S
Zn49 O55 1.941 . S
Zn49 O56 1.965 . S
Zn50 O48 1.950 . S
Zn50 O57 1.938 . S
Zn50 O58 1.906 . S
Zn50 O68 1.953 . S
Zn51 O48 1.945 . S
Zn51 O53 1.932 . S
Zn51 O60 1.977 . S
Zn51 O61 1.910 . S
O52 Zn49 1.933 . S
O52 C63 1.226 . S
O53 Zn51 1.932 . S
O53 C63 1.307 . S
O54 Zn47 1.919 . S
O54 C65 1.253 . S
O55 Zn49 1.941 . S
O55 C65 1.283 . S
O56 Zn49 1.965 . S
O56 C64 1.303 . S
O57 Zn50 1.938 . S
O57 C64 1.247 . S
O58 Zn50 1.906 . S
O58 C66 1.304 . S
O59 Zn47 1.924 . S
O59 C67 1.311 . S
O60 Zn51 1.977 . S
O60 C66 1.272 . S
O61 Zn51 1.910 . S
O61 C67 1.231 . S
C62 O46 1.225 . S
C62 O68 1.298 . S
C63 O52 1.226 . S
C63 O53 1.307 . S
C64 O56 1.303 . S
C64 O57 1.247 . S
C65 O54 1.253 . S
C65 O55 1.283 . S
C66 O58 1.304 . S
C66 O60 1.272 . S
C67 O59 1.311 . S
C67 O61 1.231 . S
O68 Zn50 1.953 . S
O68 C62 1.298 . S
O69 Zn70 1.953 . S
O69 C85 1.225 . S
Zn70 O69 1.953 . S
Zn70 O71 1.949 . S
Zn70 O77 1.919 . S
Zn70 O82 1.924 . S
O71 Zn70 1.949 . S
O71 Zn72 1.923 . S
O71 Zn73 1.950 . S
O71 Zn74 1.945 . S
Zn72 O71 1.923 . S
Zn72 O75 1.933 . S
Zn72 O78 1.941 . S
Zn72 O79 1.965 . S
Zn73 O71 1.950 . S
Zn73 O80 1.938 . S
Zn73 O81 1.906 . S
Zn73 O91 1.953 . S
Zn74 O71 1.945 . S
Zn74 O76 1.932 . S
Zn74 O83 1.977 . S
Zn74 O84 1.910 . S
O75 Zn72 1.933 . S
O75 C86 1.226 . S
O76 Zn74 1.932 . S
O76 C86 1.307 . S
O77 Zn70 1.919 . S
O77 C88 1.253 . S
O78 Zn72 1.941 . S
O78 C88 1.283 . S
O79 Zn72 1.965 . S
O79 C87 1.303 . S
O80 Zn73 1.938 . S
O80 C87 1.247 . S
O81 Zn73 1.906 . S
O81 C89 1.304 . S
O82 Zn70 1.924 . S
O82 C90 1.311 . S
O83 Zn74 1.977 . S
O83 C89 1.272 . S
O84 Zn74 1.910 . S
O84 C90 1.231 . S
C85 O69 1.225 . S
C85 O91 1.298 . S
C86 O75 1.226 . S
C86 O76 1.307 . S
C87 O79 1.303 . S
C87 O80 1.247 . S
C88 O77 1.253 . S
C88 O78 1.283 . S
C89 O81 1.304 . S
C89 O83 1.272 . S
C90 O82 1.311 . S
C90 O84 1.231 . S
O91 Zn73 1.953 . S
O91 C85 1.298 . S
O92 Zn93 1.953 . S
O92 C108 1.225 . S
Zn93 O92 1.953 . S
Zn93 O94 1.949 . S
Zn93 O100 1.919 . S
Zn93 O105 1.924 . S
O94 Zn93 1.949 . S
O94 Zn95 1.923 . S
O94 Zn96 1.950 . S
O94 Zn97 1.945 . S
Zn95 O94 1.923 . S
Zn95 O98 1.933 . S
Zn95 O101 1.941 . S
Zn95 O102 1.965 . S
Zn96 O94 1.950 . S
Zn96 O103 1.938 . S
Zn96 O104 1.906 . S
Zn96 O114 1.953 . S
Zn97 O94 1.945 . S
Zn97 O99 1.932 . S
Zn97 O106 1.977 . S
Zn97 O107 1.910 . S
O98 Zn95 1.933 . S
O98 C109 1.226 . S
O99 Zn97 1.932 . S
O99 C109 1.307 . S
O100 Zn93 1.919 . S
O100 C111 1.253 . S
O101 Zn95 1.941 . S
O101 C111 1.283 . S
O102 Zn95 1.965 . S
O102 C110 1.303 . S
O103 Zn96 1.938 . S
O103 C110 1.247 . S
O104 Zn96 1.906 . S
O104 C112 1.304 . S
O105 Zn93 1.924 . S
O105 C113 1.311 . S
O106 Zn97 1.977 . S
O106 C112 1.272 . S
O107 Zn97 1.910 . S
O107 C113 1.231 . S
C108 O92 1.225 . S
C108 O114 1.298 . S
C109 O98 1.226 . S
C109 O99 1.307 . S
C110 O102 1.303 . S
C110 O103 1.247 . S
C111 O100 1.253 . S
C111 O101 1.283 . S
C112 O104 1.304 . S
C112 O106 1.272 . S
C113 O105 1.311 . S
C113 O107 1.231 . S
O114 Zn96 1.953 . S
O114 C108 1.298 . S
O115 Zn116 1.953 . S
O115 C131 1.225 . S
Zn116 O115 1.953 . S
Zn116 O117 1.949 . S
Zn116 O123 1.919 . S
Zn116 O128 1.924 . S
O117 Zn116 1.949 . S
O117 Zn118 1.923 . S
O117 Zn119 1.950 . S
O117 Zn120 1.945 . S
Zn118 O117 1.923 . S
Zn118 O121 1.933 . S
Zn118 O124 1.941 . S
Zn118 O125 1.965 . S
Zn119 O117 1.950 . S
Zn119 O126 1.938 . S
Zn119 O127 1.906 . S
Zn119 O137 1.953 . S
Zn120 O117 1.945 . S
Zn120 O122 1.932 . S
Zn120 O129 1.977 . S
Zn120 O130 1.910 . S
O121 Zn118 1.933 . S
O121 C132 1.226 . S
O122 Zn120 1.932 . S
O122 C132 1.307 . S
O123 Zn116 1.919 . S
O123 C134 1.253 . S
O124 Zn118 1.941 . S
O124 C134 1.283 . S
O125 Zn118 1.965 . S
O125 C133 1.303 . S
O126 Zn119 1.938 . S
O126 C133 1.247 . S
O127 Zn119 1.906 . S
O127 C135 1.304 . S
O128 Zn116 1.924 . S
O128 C136 1.311 . S
O129 Zn120 1.977 . S
O129 C135 1.272 . S
O130 Zn120 1.910 . S
O130 C136 1.231 . S
C131 O115 1.225 . S
C131 O137 1.298 . S
C132 O121 1.226 . S
C132 O122 1.307 . S
C133 O125 1.303 . S
C133 O126 1.247 . S
C134 O123 1.253 . S
C134 O124 1.283 . S
C135 O127 1.304 . S
C135 O129 1.272 . S
C136 O128 1.311 . S
C136 O130 1.231 . S
O137 Zn119 1.953 . S
O137 C131 1.298 . S
O138 Zn139 1.953 . S
O138 C154 1.225 . S
Zn139 O138 1.953 . S
Zn139 O140 1.949 . S
Zn139 O146 1.919 . S
Zn139 O151 1.924 . S
O140 Zn139 1.949 . S
O140 Zn141 1.923 . S
O140 Zn142 1.950 . S
O140 Zn143 1.945 . S
Zn141 O140 1.923 . S
Zn141 O144 1.933 . S
Zn141 O147 1.941 . S
Zn141 O148 1.965 . S
Zn142 O140 1.950 . S
Zn142 O149 1.938 . S
Zn142 O150 1.906 . S
Zn142 O160 1.953 . S
Zn143 O140 1.945 . S
Zn143 O145 1.932 . S
Zn143 O152 1.977 . S
Zn143 O153 1.910 . S
O144 Zn141 1.933 . S
O144 C155 1.226 . S
O145 Zn143 1.932 . S
O145 C155 1.307 . S
O146 Zn139 1.919 . S
O146 C157 1.253 . S
O147 Zn141 1.941 . S
O147 C157 1.283 . S
O148 Zn141 1.965 . S
O148 C156 1.303 . S
O149 Zn142 1.938 . S
O149 C156 1.247 . S
O150 Zn142 1.906 . S
O150 C158 1.304 . S
O151 Zn139 1.924 . S
O151 C159 1.311 . S
O152 Zn143 1.977 . S
O152 C158 1.272 . S
O153 Zn143 1.910 . S
O153 C159 1.231 . S
C154 O138 1.225 . S
C154 O160 1.298 . S
C155 O144 1.226 . S
C155 O145 1.307 . S
C156 O148 1.303 . S
C156 O149 1.247 . S
C157 O146 1.253 . S
C157 O147 1.283 . S
C158 O150 1.304 . S
C158 O152 1.272 . S
C159 O151 1.311 . S
C159 O153 1.231 . S
O160 Zn142 1.953 . S
O160 C154 1.298 . S
O161 Zn162 1.953 . S
O161 C177 1.225 . S
Zn162 O161 1.953 . S
Zn162 O163 1.949 . S
Zn162 O169 1.919 . S
Zn162 O174 1.924 . S
O163 Zn162 1.949 . S
O163 Zn164 1.923 . S
O163 Zn165 1.950 . S
O163 Zn166 1.945 . S
Zn164 O163 1.923 . S
Zn164 O167 1.933 . S
Zn164 O170 1.941 . S
Zn164 O171 1.965 . S
Zn165 O163 1.950 . S
Zn165 O172 1.938 . S
Zn165 O173 1.906 . S
Zn165 O183 1.953 . S
Zn166 O163 1.945 . S
Zn166 O168 1.932 . S
Zn166 O175 1.977 . S
Zn166 O176 1.910 . S
O167 Zn164 1.933 . S
O167 C178 1.226 . S
O168 Zn166 1.932 . S
O168 C178 1.307 . S
O169 Zn162 1.919 . S
O169 C180 1.253 . S
O170 Zn164 1.941 . S
O170 C180 1.283 . S
O171 Zn164 1.965 . S
O171 C179 1.303 . S
O172 Zn165 1.938 . S
O172 C179 1.247 . S
O173 Zn165 1.906 . S
O173 C181 1.304 . S
O174 Zn162 1.924 . S
O174 C182 1.311 . S
O175 Zn166 1.977 . S
O175 C181 1.272 . S
O176 Zn166 1.910 . S
O176 C182 1.231 . S
C177 O161 1.225 . S
C177 O183 1.298 . S
C178 O167 1.226 . S
C178 O168 1.307 . S
C179 O171 1.303 . S
C179 O172 1.247 . S
C180 O169 1.253 . S
C180 O170 1.283 . S
C181 O173 1.304 . S
C181 O175 1.272 . S
C182 O174 1.311 . S
C182 O176 1.231 . S
O183 Zn165 1.953 . S
O183 C177 1.298 . S
O184 Zn185 1.953 . S
O184 C200 1.225 . S
Zn185 O184 1.953 . S
Zn185 O186 1.949 . S
Zn185 O192 1.919 . S
Zn185 O197 1.924 . S
O186 Zn185 1.949 . S
O186 Zn187 1.923 . S
O186 Zn188 1.950 . S
O186 Zn189 1.945 . S
Zn187 O186 1.923 . S
Zn187 O190 1.933 . S
Zn187 O193 1.941 . S
Zn187 O194 1.965 . S
Zn188 O186 1.950 . S
Zn188 O195 1.938 . S
Zn188 O196 1.906 . S
Zn188 O206 1.953 . S
Zn189 O186 1.945 . S
Zn189 O191 1.932 . S
Zn189 O198 1.977 . S
Zn189 O199 1.910 . S
O190 Zn187 1.933 . S
O190 C201 1.226 . S
O191 Zn189 1.932 . S
O191 C201 1.307 . S
O192 Zn185 1.919 . S
O192 C203 1.253 . S
O193 Zn187 1.941 . S
O193 C203 1.283 . S
O194 Zn187 1.965 . S
O194 C202 1.303 . S
O195 Zn188 1.938 . S
O195 C202 1.247 . S
O196 Zn188 1.906 . S
O196 C204 1.304 . S
O197 Zn185 1.924 . S
O197 C205 1.311 . S
O198 Zn189 1.977 . S
O198 C204 1.272 . S
O199 Zn189 1.910 . S
O199 C205 1.231 . S
C200 O184 1.225 . S
C200 O206 1.298 . S
C201 O190 1.226 . S
C201 O191 1.307 . S
C202 O194 1.303 . S
C202 O195 1.247 . S
C203 O192 1.253 . S
C203 O193 1.283 . S
C204 O196 1.304 . S
C204 O198 1.272 . S
C205 O197 1.311 . S
C205 O199 1.231 . S
O206 Zn188 1.953 . S
O206 C200 1.298 . S
O207 Zn208 1.953 . S
O207 C223 1.225 . S
Zn208 O207 1.953 . S
Zn208 O209 1.949 . S
Zn208 O215 1.919 . S
Zn208 O220 1.924 . S
O209 Zn208 1.949 . S
O209 Zn210 1.923 . S
O209 Zn211 1.950 . S
O209 Zn212 1.945 . S
Zn210 O209 1.923 . S
Zn210 O213 1.933 . S
Zn210 O216 1.941 . S
Zn210 O217 1.965 . S
Zn211 O209 1.950 . S
Zn211 O218 1.938 . S
Zn211 O219 1.906 . S
Zn211 O229 1.953 . S
Zn212 O209 1.945 . S
Zn212 O214 1.932 1_545 S
Zn212 O221 1.977 . S
Zn212 O222 1.910 . S
O213 Zn210 1.933 . S
O213 C224 1.226 1_545 S
O214 Zn212 1.932 1_565 S
O214 C224 1.307 . S
O215 Zn208 1.919 . S
O215 C226 1.253 . S
O216 Zn210 1.941 . S
O216 C226 1.283 . S
O217 Zn210 1.965 . S
O217 C225 1.303 . S
O218 Zn211 1.938 . S
O218 C225 1.247 . S
O219 Zn211 1.906 . S
O219 C227 1.304 . S
O220 Zn208 1.924 . S
O220 C228 1.311 . S
O221 Zn212 1.977 . S
O221 C227 1.272 . S
O222 Zn212 1.910 . S
O222 C228 1.231 . S
C223 O207 1.225 . S
C223 O229 1.298 . S
C224 O213 1.226 1_565 S
C224 O214 1.307 . S
C225 O217 1.303 . S
C225 O218 1.247 . S
C226 O215 1.253 . S
C226 O216 1.283 . S
C227 O219 1.304 . S
C227 O221 1.272 . S
C228 O220 1.311 . S
C228 O222 1.231 . S
O229 Zn211 1.953 . S
O229 C223 1.298 . S
O230 Zn231 1.953 . S
O230 C246 1.225 . S
Zn231 O230 1.953 . S
Zn231 O232 1.949 . S
Zn231 O238 1.919 . S
Zn231 O243 1.924 . S
O232 Zn231 1.949 . S
O232 Zn233 1.923 . S
O232 Zn234 1.950 . S
O232 Zn235 1.945 . S
Zn233 O232 1.923 . S
Zn233 O236 1.933 . S
Zn233 O239 1.941 . S
Zn233 O240 1.965 . S
Zn234 O232 1.950 . S
Zn234 O241 1.938 . S
Zn234 O242 1.906 . S
Zn234 O252 1.953 . S
Zn235 O232 1.945 . S
Zn235 O237 1.932 . S
Zn235 O244 1.977 . S
Zn235 O245 1.910 . S
O236 Zn233 1.933 . S
O236 C247 1.226 . S
O237 Zn235 1.932 . S
O237 C247 1.307 . S
O238 Zn231 1.919 . S
O238 C249 1.253 . S
O239 Zn233 1.941 . S
O239 C249 1.283 . S
O240 Zn233 1.965 . S
O240 C248 1.303 . S
O241 Zn234 1.938 . S
O241 C248 1.247 . S
O242 Zn234 1.906 . S
O242 C250 1.304 . S
O243 Zn231 1.924 . S
O243 C251 1.311 . S
O244 Zn235 1.977 . S
O244 C250 1.272 . S
O245 Zn235 1.910 . S
O245 C251 1.231 . S
C246 O230 1.225 . S
C246 O252 1.298 . S
C247 O236 1.226 . S
C247 O237 1.307 . S
C248 O240 1.303 . S
C248 O241 1.247 . S
C249 O238 1.253 . S
C249 O239 1.283 . S
C250 O242 1.304 . S
C250 O244 1.272 . S
C251 O243 1.311 . S
C251 O245 1.231 . S
O252 Zn234 1.953 . S
O252 C246 1.298 . S
O253 Zn254 1.953 . S
O253 C269 1.225 . S
Zn254 O253 1.953 . S
Zn254 O255 1.949 . S
Zn254 O261 1.919 . S
Zn254 O266 1.924 . S
O255 Zn254 1.949 . S
O255 Zn256 1.923 . S
O255 Zn257 1.950 . S
O255 Zn258 1.945 . S
Zn256 O255 1.923 . S
Zn256 O259 1.933 . S
Zn256 O262 1.941 . S
Zn256 O263 1.965 . S
Zn257 O255 1.950 . S
Zn257 O264 1.938 . S
Zn257 O265 1.906 . S
Zn257 O275 1.953 . S
Zn258 O255 1.945 . S
Zn258 O260 1.932 1_565 S
Zn258 O267 1.977 . S
Zn258 O268 1.910 . S
O259 Zn256 1.933 . S
O259 C270 1.226 1_565 S
O260 Zn258 1.932 1_545 S
O260 C270 1.307 . S
O261 Zn254 1.919 . S
O261 C272 1.253 . S
O262 Zn256 1.941 . S
O262 C272 1.283 . S
O263 Zn256 1.965 . S
O263 C271 1.303 . S
O264 Zn257 1.938 . S
O264 C271 1.247 . S
O265 Zn257 1.906 . S
O265 C273 1.304 . S
O266 Zn254 1.924 . S
O266 C274 1.311 . S
O267 Zn258 1.977 . S
O267 C273 1.272 . S
O268 Zn258 1.910 . S
O268 C274 1.231 . S
C269 O253 1.225 . S
C269 O275 1.298 . S
C270 O259 1.226 1_545 S
C270 O260 1.307 . S
C271 O263 1.303 . S
C271 O264 1.247 . S
C272 O261 1.253 . S
C272 O262 1.283 . S
C273 O265 1.304 . S
C273 O267 1.272 . S
C274 O266 1.311 . S
C274 O268 1.231 . S
O275 Zn257 1.953 . S
O275 C269 1.298 . S
O276 Zn277 1.953 . S
O276 C292 1.225 . S
Zn277 O276 1.953 . S
Zn277 O278 1.949 . S
Zn277 O284 1.919 . S
Zn277 O289 1.924 . S
O278 Zn277 1.949 . S
O278 Zn279 1.923 . S
O278 Zn280 1.950 . S
O278 Zn281 1.945 . S
Zn279 O278 1.923 . S
Zn279 O282 1.933 . S
Zn279 O285 1.941 . S
Zn279 O286 1.965 . S
Zn280 O278 1.950 . S
Zn280 O287 1.938 . S
Zn280 O288 1.906 . S
Zn280 O298 1.953 . S
Zn281 O278 1.945 . S
Zn281 O283 1.932 . S
Zn281 O290 1.977 . S
Zn281 O291 1.910 . S
O282 Zn279 1.933 . S
O282 C293 1.226 . S
O283 Zn281 1.932 . S
O283 C293 1.307 . S
O284 Zn277 1.919 . S
O284 C295 1.253 . S
O285 Zn279 1.941 . S
O285 C295 1.283 . S
O286 Zn279 1.965 . S
O286 C294 1.303 . S
O287 Zn280 1.938 . S
O287 C294 1.247 . S
O288 Zn280 1.906 . S
O288 C296 1.304 . S
O289 Zn277 1.924 . S
O289 C297 1.311 . S
O290 Zn281 1.977 . S
O290 C296 1.272 . S
O291 Zn281 1.910 . S
O291 C297 1.231 . S
C292 O276 1.225 . S
C292 O298 1.298 . S
C293 O282 1.226 . S
C293 O283 1.307 . S
C294 O286 1.303 . S
C294 O287 1.247 . S
C295 O284 1.253 . S
C295 O285 1.283 . S
C296 O288 1.304 . S
C296 O290 1.272 . S
C297 O289 1.311 . S
C297 O291 1.231 . S
O298 Zn280 1.953 . S
O298 C292 1.298 . S
O299 Zn300 1.953 . S
O299 C315 1.225 . S
Zn300 O299 1.953 . S
Zn300 O301 1.949 . S
Zn300 O307 1.919 . S
Zn300 O312 1.924 . S
O301 Zn300 1.949 . S
O301 Zn302 1.923 . S
O301 Zn303 1.950 . S
O301 Zn304 1.945 . S
Zn302 O301 1.923 . S
Zn302 O305 1.933 . S
Zn302 O308 1.941 . S
Zn302 O309 1.965 . S
Zn303 O301 1.950 . S
Zn303 O310 1.938 . S
Zn303 O311 1.906 . S
Zn303 O321 1.953 . S
Zn304 O301 1.945 . S
Zn304 O306 1.932 1_565 S
Zn304 O313 1.977 . S
Zn304 O314 1.910 . S
O305 Zn302 1.933 . S
O305 C316 1.226 1_565 S
O306 Zn304 1.932 1_545 S
O306 C316 1.307 . S
O307 Zn300 1.919 . S
O307 C318 1.253 . S
O308 Zn302 1.941 . S
O308 C318 1.283 . S
O309 Zn302 1.965 . S
O309 C317 1.303 . S
O310 Zn303 1.938 . S
O310 C317 1.247 . S
O311 Zn303 1.906 . S
O311 C319 1.304 . S
O312 Zn300 1.924 . S
O312 C320 1.311 . S
O313 Zn304 1.977 . S
O313 C319 1.272 . S
O314 Zn304 1.910 . S
O314 C320 1.231 . S
C315 O299 1.225 . S
C315 O321 1.298 . S
C316 O305 1.226 1_545 S
C316 O306 1.307 . S
C317 O309 1.303 . S
C317 O310 1.247 . S
C318 O307 1.253 . S
C318 O308 1.283 . S
C319 O311 1.304 . S
C319 O313 1.272 . S
C320 O312 1.311 . S
C320 O314 1.231 . S
O321 Zn303 1.953 . S
O321 C315 1.298 . S
O322 Zn323 1.953 . S
O322 C338 1.225 . S
Zn323 O322 1.953 . S
Zn323 O324 1.949 . S
Zn323 O330 1.919 . S
Zn323 O335 1.924 . S
O324 Zn323 1.949 . S
O324 Zn325 1.923 . S
O324 Zn326 1.950 . S
O324 Zn327 1.945 . S
Zn325 O324 1.923 . S
Zn325 O328 1.933 . S
Zn325 O331 1.941 . S
Zn325 O332 1.965 . S
Zn326 O324 1.950 . S
Zn326 O333 1.938 . S
Zn326 O334 1.906 . S
Zn326 O344 1.953 . S
Zn327 O324 1.945 . S
Zn327 O329 1.932 . S
Zn327 O336 1.977 . S
Zn327 O337 1.910 . S
O328 Zn325 1.933 . S
O328 C339 1.226 . S
O329 Zn327 1.932 . S
O329 C339 1.307 . S
O330 Zn323 1.919 . S
O330 C341 1.253 . S
O331 Zn325 1.941 . S
O331 C341 1.283 . S
O332 Zn325 1.965 . S
O332 C340 1.303 . S
O333 Zn326 1.938 . S
O333 C340 1.247 . S
O334 Zn326 1.906 . S
O334 C342 1.304 . S
O335 Zn323 1.924 . S
O335 C343 1.311 . S
O336 Zn327 1.977 . S
O336 C342 1.272 . S
O337 Zn327 1.910 . S
O337 C343 1.231 . S
C338 O322 1.225 . S
C338 O344 1.298 . S
C339 O328 1.226 . S
C339 O329 1.307 . S
C340 O332 1.303 . S
C340 O333 1.247 . S
C341 O330 1.253 . S
C341 O331 1.283 . S
C342 O334 1.304 . S
C342 O336 1.272 . S
C343 O335 1.311 . S
C343 O337 1.231 . S
O344 Zn326 1.953 . S
O344 C338 1.298 . S
O345 Zn346 1.953 . S
O345 C361 1.225 . S
Zn346 O345 1.953 . S
Zn346 O347 1.949 . S
Zn346 O353 1.919 . S
Zn346 O358 1.924 . S
O347 Zn346 1.949 . S
O347 Zn348 1.923 . S
O347 Zn349 1.950 . S
O347 Zn350 1.945 . S
Zn348 O347 1.923 . S
Zn348 O351 1.933 . S
Zn348 O354 1.941 . S
Zn348 O355 1.965 . S
Zn349 O347 1.950 . S
Zn349 O356 1.938 . S
Zn349 O357 1.906 . S
Zn349 O367 1.953 . S
Zn350 O347 1.945 . S
Zn350 O352 1.932 1_545 S
Zn350 O359 1.977 . S
Zn350 O360 1.910 . S
O351 Zn348 1.933 . S
O351 C362 1.226 1_545 S
O352 Zn350 1.932 1_565 S
O352 C362 1.307 . S
O353 Zn346 1.919 . S
O353 C364 1.253 . S
O354 Zn348 1.941 . S
O354 C364 1.283 . S
O355 Zn348 1.965 . S
O355 C363 1.303 . S
O356 Zn349 1.938 . S
O356 C363 1.247 . S
O357 Zn349 1.906 . S
O357 C365 1.304 . S
O358 Zn346 1.924 . S
O358 C366 1.311 . S
O359 Zn350 1.977 . S
O359 C365 1.272 . S
O360 Zn350 1.910 . S
O360 C366 1.231 . S
C361 O345 1.225 . S
C361 O367 1.298 . S
C362 O351 1.226 1_565 S
C362 O352 1.307 . S
C363 O355 1.303 . S
C363 O356 1.247 . S
C364 O353 1.253 . S
C364 O354 1.283 . S
C365 O357 1.304 . S
C365 O359 1.272 . S
C366 O358 1.311 . S
C366 O360 1.231 . S
O367 Zn349 1.953 . S
O367 C361 1.298 . S
H368 C374 0.930 . S
H369 C378 0.930 . S
H370 C383 0.929 . S
H371 C381 0.929 . S
H372 C376 0.929 . S
H373 C382 0.929 . S
C374 H368 0.930 . S
C374 C375 1.367 . S
C374 C382 1.378 . S
C375 C374 1.367 . S
C375 C383 1.433 . S
C376 H372 0.929 . S
C376 C378 1.378 . S
C376 C380 1.350 . S
C377 C380 1.463 . S
C377 C382 1.350 . S
C377 N385 1.427 . S
C378 H369 0.930 . S
C378 C376 1.378 . S
C378 C379 1.367 . S
C379 C378 1.367 . S
C379 C381 1.433 . S
C380 C376 1.350 . S
C380 C377 1.463 . S
C380 N384 1.427 . S
C381 H371 0.929 . S
C381 C379 1.433 . S
C381 N384 1.384 . S
C382 H373 0.929 . S
C382 C374 1.378 . S
C382 C377 1.350 . S
C383 H370 0.929 . S
C383 C375 1.433 . S
C383 N385 1.384 . S
N384 C380 1.427 . S
N384 C381 1.384 . S
N385 C377 1.427 . S
N385 C383 1.384 . S
H386 C392 0.930 . S
H387 C396 0.930 . S
H388 C401 0.929 . S
H389 C399 0.929 . S
H390 C394 0.929 . S
H391 C400 0.929 . S
C392 H386 0.930 . S
C392 C393 1.367 . S
C392 C400 1.378 . S
C393 C392 1.367 . S
C393 C401 1.433 . S
C394 H390 0.929 . S
C394 C396 1.378 . S
C394 C398 1.350 . S
C395 C398 1.463 . S
C395 C400 1.350 . S
C395 N403 1.427 . S
C396 H387 0.930 . S
C396 C394 1.378 . S
C396 C397 1.367 . S
C397 C396 1.367 . S
C397 C399 1.433 . S
C398 C394 1.350 . S
C398 C395 1.463 . S
C398 N402 1.427 . S
C399 H389 0.929 . S
C399 C397 1.433 . S
C399 N402 1.384 . S
C400 H391 0.929 . S
C400 C392 1.378 . S
C400 C395 1.350 . S
C401 H388 0.929 . S
C401 C393 1.433 . S
C401 N403 1.384 . S
N402 C398 1.427 . S
N402 C399 1.384 . S
N403 C395 1.427 . S
N403 C401 1.384 . S
H404 C410 0.930 . S
H405 C414 0.930 . S
H406 C419 0.929 . S
H407 C417 0.929 . S
H408 C412 0.929 . S
H409 C418 0.929 . S
C410 H404 0.930 . S
C410 C411 1.367 . S
C410 C418 1.378 . S
C411 C410 1.367 . S
C411 C419 1.433 . S
C412 H408 0.929 . S
C412 C414 1.378 . S
C412 C416 1.350 . S
C413 C416 1.463 1_455 S
C413 C418 1.350 . S
C413 N421 1.427 . S
C414 H405 0.930 . S
C414 C412 1.378 . S
C414 C415 1.367 . S
C415 C414 1.367 . S
C415 C417 1.433 . S
C416 C412 1.350 . S
C416 C413 1.463 1_655 S
C416 N420 1.427 . S
C417 H407 0.929 . S
C417 C415 1.433 . S
C417 N420 1.384 . S
C418 H409 0.929 . S
C418 C410 1.378 . S
C418 C413 1.350 . S
C419 H406 0.929 . S
C419 C411 1.433 . S
C419 N421 1.384 . S
N420 C416 1.427 . S
N420 C417 1.384 . S
N421 C413 1.427 . S
N421 C419 1.384 . S
H422 C428 0.930 . S
H423 C432 0.930 . S
H424 C437 0.929 . S
H425 C435 0.929 . S
H426 C430 0.929 . S
H427 C436 0.929 . S
C428 H422 0.930 . S
C428 C429 1.367 . S
C428 C436 1.378 . S
C429 C428 1.367 . S
C429 C437 1.433 . S
C430 H426 0.929 . S
C430 C432 1.378 . S
C430 C434 1.350 . S
C431 C434 1.463 1_455 S
C431 C436 1.350 . S
C431 N439 1.427 . S
C432 H423 0.930 . S
C432 C430 1.378 . S
C432 C433 1.367 . S
C433 C432 1.367 . S
C433 C435 1.433 . S
C434 C430 1.350 . S
C434 C431 1.463 1_655 S
C434 N438 1.427 . S
C435 H425 0.929 . S
C435 C433 1.433 . S
C435 N438 1.384 . S
C436 H427 0.929 . S
C436 C428 1.378 . S
C436 C431 1.350 . S
C437 H424 0.929 . S
C437 C429 1.433 . S
C437 N439 1.384 . S
N438 C434 1.427 . S
N438 C435 1.384 . S
N439 C431 1.427 . S
N439 C437 1.384 . S
H440 C446 0.930 . S
H441 C450 0.930 . S
H442 C455 0.929 . S
H443 C453 0.929 . S
H444 C448 0.929 . S
H445 C454 0.929 . S
C446 H440 0.930 . S
C446 C447 1.367 . S
C446 C454 1.378 . S
C447 C446 1.367 . S
C447 C455 1.433 . S
C448 H444 0.929 . S
C448 C450 1.378 . S
C448 C452 1.350 . S
C449 C452 1.463 . S
C449 C454 1.350 . S
C449 N457 1.427 . S
C450 H441 0.930 . S
C450 C448 1.378 . S
C450 C451 1.367 . S
C451 C450 1.367 . S
C451 C453 1.433 . S
C452 C448 1.350 . S
C452 C449 1.463 . S
C452 N456 1.427 . S
C453 H443 0.929 . S
C453 C451 1.433 . S
C453 N456 1.384 . S
C454 H445 0.929 . S
C454 C446 1.378 . S
C454 C449 1.350 . S
C455 H442 0.929 . S
C455 C447 1.433 . S
C455 N457 1.384 . S
N456 C452 1.427 . S
N456 C453 1.384 . S
N457 C449 1.427 . S
N457 C455 1.384 . S
H458 C464 0.930 . S
H459 C468 0.930 . S
H460 C473 0.929 . S
H461 C471 0.929 . S
H462 C466 0.929 . S
H463 C472 0.929 . S
C464 H458 0.930 . S
C464 C465 1.367 . S
C464 C472 1.378 . S
C465 C464 1.367 . S
C465 C473 1.433 . S
C466 H462 0.929 . S
C466 C468 1.378 . S
C466 C470 1.350 . S
C467 C470 1.463 . S
C467 C472 1.350 . S
C467 N475 1.427 . S
C468 H459 0.930 . S
C468 C466 1.378 . S
C468 C469 1.367 . S
C469 C468 1.367 . S
C469 C471 1.433 . S
C470 C466 1.350 . S
C470 C467 1.463 . S
C470 N474 1.427 . S
C471 H461 0.929 . S
C471 C469 1.433 . S
C471 N474 1.384 . S
C472 H463 0.929 . S
C472 C464 1.378 . S
C472 C467 1.350 . S
C473 H460 0.929 . S
C473 C465 1.433 . S
C473 N475 1.384 . S
N474 C470 1.427 . S
N474 C471 1.384 . S
N475 C467 1.427 . S
N475 C473 1.384 . S
H476 C482 0.930 . S
H477 C486 0.930 . S
H478 C491 0.929 . S
H479 C489 0.929 . S
H480 C484 0.929 1_455 S
H481 C490 0.929 1_655 S
C482 H476 0.930 . S
C482 C483 1.367 . S
C482 C490 1.378 . S
C483 C482 1.367 . S
C483 C491 1.433 . S
C484 H480 0.929 1_655 S
C484 C486 1.378 . S
C484 C488 1.350 . S
C485 C488 1.463 1_455 S
C485 C490 1.350 . S
C485 N493 1.427 . S
C486 H477 0.930 . S
C486 C484 1.378 . S
C486 C487 1.367 . S
C487 C486 1.367 . S
C487 C489 1.433 . S
C488 C484 1.350 . S
C488 C485 1.463 1_655 S
C488 N492 1.427 . S
C489 H479 0.929 . S
C489 C487 1.433 . S
C489 N492 1.384 . S
C490 H481 0.929 1_455 S
C490 C482 1.378 . S
C490 C485 1.350 . S
C491 H478 0.929 . S
C491 C483 1.433 . S
C491 N493 1.384 . S
N492 C488 1.427 . S
N492 C489 1.384 . S
N493 C485 1.427 . S
N493 C491 1.384 . S
H494 C500 0.930 . S
H495 C504 0.930 . S
H496 C509 0.929 . S
H497 C507 0.929 . S
H498 C502 0.929 . S
H499 C508 0.929 . S
C500 H494 0.930 . S
C500 C501 1.367 . S
C500 C508 1.378 . S
C501 C500 1.367 . S
C501 C509 1.433 . S
C502 H498 0.929 . S
C502 C504 1.378 . S
C502 C506 1.350 . S
C503 C506 1.463 1_455 S
C503 C508 1.350 . S
C503 N511 1.427 . S
C504 H495 0.930 . S
C504 C502 1.378 . S
C504 C505 1.367 . S
C505 C504 1.367 . S
C505 C507 1.433 . S
C506 C502 1.350 . S
C506 C503 1.463 1_655 S
C506 N510 1.427 . S
C507 H497 0.929 . S
C507 C505 1.433 . S
C507 N510 1.384 . S
C508 H499 0.929 . S
C508 C500 1.378 . S
C508 C503 1.350 . S
C509 H496 0.929 . S
C509 C501 1.433 . S
C509 N511 1.384 . S
N510 C506 1.427 . S
N510 C507 1.384 . S
N511 C503 1.427 . S
N511 C509 1.384 . S
H512 C518 0.938 . S
H513 C522 0.938 . S
H514 C527 0.929 . S
H515 C525 0.929 . S
H516 C520 0.929 . S
H517 C526 0.929 . S
C518 H512 0.938 . S
C518 C519 1.354 1_565 S
C518 C526 1.383 . S
C519 C518 1.354 1_545 S
C519 C527 1.433 . S
C520 H516 0.929 . S
C520 C522 1.383 . S
C520 C524 1.350 1_545 S
C521 C524 1.463 1_544 S
C521 C526 1.350 1_545 S
C521 N529 1.427 . S
C522 H513 0.938 . S
C522 C520 1.383 . S
C522 C523 1.354 1_545 S
C523 C522 1.354 1_565 S
C523 C525 1.433 . S
C524 C520 1.350 1_565 S
C524 C521 1.463 1_566 S
C524 N528 1.427 . S
C525 H515 0.929 . S
C525 C523 1.433 . S
C525 N528 1.384 . S
C526 H517 0.929 . S
C526 C518 1.383 . S
C526 C521 1.350 1_565 S
C527 H514 0.929 . S
C527 C519 1.433 . S
C527 N529 1.384 . S
N528 C524 1.427 . S
N528 C525 1.384 . S
N529 C521 1.427 . S
N529 C527 1.384 . S
H530 C536 0.930 . S
H531 C540 0.930 . S
H532 C545 0.929 . S
H533 C543 0.929 . S
H534 C538 0.929 . S
H535 C544 0.929 . S
C536 H530 0.930 . S
C536 C537 1.367 . S
C536 C544 1.378 . S
C537 C536 1.367 . S
C537 C545 1.433 . S
C538 H534 0.929 . S
C538 C540 1.378 . S
C538 C542 1.350 . S
C539 C542 1.463 . S
C539 C544 1.350 . S
C539 N547 1.427 . S
C540 H531 0.930 . S
C540 C538 1.378 . S
C540 C541 1.367 . S
C541 C540 1.367 . S
C541 C543 1.433 . S
C542 C538 1.350 . S
C542 C539 1.463 . S
C542 N546 1.427 . S
C543 H533 0.929 . S
C543 C541 1.433 . S
C543 N546 1.384 . S
C544 H535 0.929 . S
C544 C536 1.378 . S
C544 C539 1.350 . S
C545 H532 0.929 . S
C545 C537 1.433 . S
C545 N547 1.384 . S
N546 C542 1.427 . S
N546 C543 1.384 . S
N547 C539 1.427 . S
N547 C545 1.384 . S
H548 C554 0.919 1_545 S
H549 C558 0.919 1_565 S
H550 C563 0.929 . S
H551 C561 0.929 . S
H552 C556 0.929 . S
H553 C562 0.929 . S
C554 H548 0.919 1_565 S
C554 C555 1.386 . S
C554 C562 1.370 1_565 S
C555 C554 1.386 . S
C555 C563 1.433 . S
C556 H552 0.929 . S
C556 C558 1.370 1_565 S
C556 C560 1.350 1_565 S
C557 C560 1.463 1_465 S
C557 C562 1.350 1_565 S
C557 N565 1.427 . S
C558 H549 0.919 1_545 S
C558 C556 1.370 1_545 S
C558 C559 1.386 . S
C559 C558 1.386 . S
C559 C561 1.433 . S
C560 C556 1.350 1_545 S
C560 C557 1.463 1_645 S
C560 N564 1.427 . S
C561 H551 0.929 . S
C561 C559 1.433 . S
C561 N564 1.384 . S
C562 H553 0.929 . S
C562 C554 1.370 1_545 S
C562 C557 1.350 1_545 S
C563 H550 0.929 . S
C563 C555 1.433 . S
C563 N565 1.384 . S
N564 C560 1.427 . S
N564 C561 1.384 . S
N565 C557 1.427 . S
N565 C563 1.384 . S
H566 C572 0.930 . S
H567 C576 0.930 . S
H568 C581 0.929 . S
H569 C579 0.929 . S
H570 C574 0.929 . S
H571 C580 0.929 . S
C572 H566 0.930 . S
C572 C573 1.367 . S
C572 C580 1.378 . S
C573 C572 1.367 . S
C573 C581 1.433 . S
C574 H570 0.929 . S
C574 C576 1.378 . S
C574 C578 1.350 . S
C575 C578 1.463 . S
C575 C580 1.350 . S
C575 N583 1.427 . S
C576 H567 0.930 . S
C576 C574 1.378 . S
C576 C577 1.367 . S
C577 C576 1.367 . S
C577 C579 1.433 . S
C578 C574 1.350 . S
C578 C575 1.463 . S
C578 N582 1.427 . S
C579 H569 0.929 . S
C579 C577 1.433 . S
C579 N582 1.384 . S
C580 H571 0.929 . S
C580 C572 1.378 . S
C580 C575 1.350 . S
C581 H568 0.929 . S
C581 C573 1.433 . S
C581 N583 1.384 . S
N582 C578 1.427 . S
N582 C579 1.384 . S
N583 C575 1.427 . S
N583 C581 1.384 . S
H584 C590 0.930 . S
H585 C594 0.930 . S
H586 C599 0.929 . S
H587 C597 0.929 . S
H588 C592 0.929 . S
H589 C598 0.929 . S
C590 H584 0.930 . S
C590 C591 1.367 . S
C590 C598 1.378 . S
C591 C590 1.367 . S
C591 C599 1.433 . S
C592 H588 0.929 . S
C592 C594 1.378 . S
C592 C596 1.350 . S
C593 C596 1.463 . S
C593 C598 1.350 . S
C593 N601 1.427 . S
C594 H585 0.930 . S
C594 C592 1.378 . S
C594 C595 1.367 . S
C595 C594 1.367 . S
C595 C597 1.433 . S
C596 C592 1.350 . S
C596 C593 1.463 . S
C596 N600 1.427 . S
C597 H587 0.929 . S
C597 C595 1.433 . S
C597 N600 1.384 . S
C598 H589 0.929 . S
C598 C590 1.378 . S
C598 C593 1.350 . S
C599 H586 0.929 . S
C599 C591 1.433 . S
C599 N601 1.384 . S
N600 C596 1.427 . S
N600 C597 1.384 . S
N601 C593 1.427 . S
N601 C599 1.384 . S
H602 C608 0.930 . S
H603 C612 0.930 . S
H604 C617 0.929 . S
H605 C615 0.929 . S
H606 C610 0.929 . S
H607 C616 0.929 . S
C608 H602 0.930 . S
C608 C609 1.367 . S
C608 C616 1.378 . S
C609 C608 1.367 . S
C609 C617 1.433 . S
C610 H606 0.929 . S
C610 C612 1.378 . S
C610 C614 1.350 . S
C611 C614 1.463 . S
C611 C616 1.350 . S
C611 N619 1.427 . S
C612 H603 0.930 . S
C612 C610 1.378 . S
C612 C613 1.367 . S
C613 C612 1.367 . S
C613 C615 1.433 . S
C614 C610 1.350 . S
C614 C611 1.463 . S
C614 N618 1.427 . S
C615 H605 0.929 . S
C615 C613 1.433 . S
C615 N618 1.384 . S
C616 H607 0.929 . S
C616 C608 1.378 . S
C616 C611 1.350 . S
C617 H604 0.929 . S
C617 C609 1.433 . S
C617 N619 1.384 . S
N618 C614 1.427 . S
N618 C615 1.384 . S
N619 C611 1.427 . S
N619 C617 1.384 . S
H620 C626 0.930 . S
H621 C630 0.930 . S
H622 C635 0.929 . S
H623 C633 0.929 . S
H624 C628 0.929 . S
H625 C634 0.929 . S
C626 H620 0.930 . S
C626 C627 1.367 . S
C626 C634 1.378 . S
C627 C626 1.367 . S
C627 C635 1.433 . S
C628 H624 0.929 . S
C628 C630 1.378 . S
C628 C632 1.350 . S
C629 C632 1.463 1_455 S
C629 C634 1.350 . S
C629 N637 1.427 . S
C630 H621 0.930 . S
C630 C628 1.378 . S
C630 C631 1.367 . S
C631 C630 1.367 . S
C631 C633 1.433 . S
C632 C628 1.350 . S
C632 C629 1.463 1_655 S
C632 N636 1.427 . S
C633 H623 0.929 . S
C633 C631 1.433 . S
C633 N636 1.384 . S
C634 H625 0.929 . S
C634 C626 1.378 . S
C634 C629 1.350 . S
C635 H622 0.929 . S
C635 C627 1.433 . S
C635 N637 1.384 . S
N636 C632 1.427 . S
N636 C633 1.384 . S
N637 C629 1.427 . S
N637 C635 1.384 . S
H638 C644 0.930 . S
H639 C648 0.930 . S
H640 C653 0.929 . S
H641 C651 0.929 . S
H642 C646 0.929 . S
H643 C652 0.929 . S
C644 H638 0.930 . S
C644 C645 1.367 . S
C644 C652 1.378 . S
C645 C644 1.367 . S
C645 C653 1.433 . S
C646 H642 0.929 . S
C646 C648 1.378 . S
C646 C650 1.350 . S
C647 C650 1.463 1_554 S
C647 C652 1.350 . S
C647 N655 1.427 . S
C648 H639 0.930 . S
C648 C646 1.378 . S
C648 C649 1.367 . S
C649 C648 1.367 . S
C649 C651 1.433 . S
C650 C646 1.350 . S
C650 C647 1.463 1_556 S
C650 N654 1.427 . S
C651 H641 0.929 . S
C651 C649 1.433 . S
C651 N654 1.384 . S
C652 H643 0.929 . S
C652 C644 1.378 . S
C652 C647 1.350 . S
C653 H640 0.929 . S
C653 C645 1.433 . S
C653 N655 1.384 . S
N654 C650 1.427 . S
N654 C651 1.384 . S
N655 C647 1.427 . S
N655 C653 1.384 . S
H656 C662 0.930 . S
H657 C666 0.930 . S
H658 C671 0.929 . S
H659 C669 0.929 . S
H660 C664 0.929 . S
H661 C670 0.929 . S
C662 H656 0.930 . S
C662 C663 1.367 . S
C662 C670 1.378 . S
C663 C662 1.367 . S
C663 C671 1.433 . S
C664 H660 0.929 . S
C664 C666 1.378 . S
C664 C668 1.350 . S
C665 C668 1.463 . S
C665 C670 1.350 . S
C665 N673 1.427 . S
C666 H657 0.930 . S
C666 C664 1.378 . S
C666 C667 1.367 . S
C667 C666 1.367 . S
C667 C669 1.433 . S
C668 C664 1.350 . S
C668 C665 1.463 . S
C668 N672 1.427 . S
C669 H659 0.929 . S
C669 C667 1.433 . S
C669 N672 1.384 . S
C670 H661 0.929 . S
C670 C662 1.378 . S
C670 C665 1.350 . S
C671 H658 0.929 . S
C671 C663 1.433 . S
C671 N673 1.384 . S
N672 C668 1.427 . S
N672 C669 1.384 . S
N673 C665 1.427 . S
N673 C671 1.384 . S
H674 C680 0.930 . S
H675 C684 0.930 . S
H676 C689 0.929 . S
H677 C687 0.929 . S
H678 C682 0.929 . S
H679 C688 0.929 . S
C680 H674 0.930 . S
C680 C681 1.367 . S
C680 C688 1.378 . S
C681 C680 1.367 . S
C681 C689 1.433 . S
C682 H678 0.929 . S
C682 C684 1.378 . S
C682 C686 1.350 . S
C683 C686 1.463 . S
C683 C688 1.350 . S
C683 N691 1.427 . S
C684 H675 0.930 . S
C684 C682 1.378 . S
C684 C685 1.367 . S
C685 C684 1.367 . S
C685 C687 1.433 . S
C686 C682 1.350 . S
C686 C683 1.463 . S
C686 N690 1.427 . S
C687 H677 0.929 . S
C687 C685 1.433 . S
C687 N690 1.384 . S
C688 H679 0.929 . S
C688 C680 1.378 . S
C688 C683 1.350 . S
C689 H676 0.929 . S
C689 C681 1.433 . S
C689 N691 1.384 . S
N690 C686 1.427 . S
N690 C687 1.384 . S
N691 C683 1.427 . S
N691 C689 1.384 . S
H692 C698 0.930 . S
H693 C702 0.930 . S
H694 C707 0.929 . S
H695 C705 0.929 . S
H696 C700 0.929 . S
H697 C706 0.929 . S
C698 H692 0.930 . S
C698 C699 1.367 . S
C698 C706 1.378 . S
C699 C698 1.367 . S
C699 C707 1.433 . S
C700 H696 0.929 . S
C700 C702 1.378 . S
C700 C704 1.350 . S
C701 C704 1.463 . S
C701 C706 1.350 . S
C701 N709 1.427 . S
C702 H693 0.930 . S
C702 C700 1.378 . S
C702 C703 1.367 . S
C703 C702 1.367 . S
C703 C705 1.433 . S
C704 C700 1.350 . S
C704 C701 1.463 . S
C704 N708 1.427 . S
C705 H695 0.929 . S
C705 C703 1.433 . S
C705 N708 1.384 . S
C706 H697 0.929 . S
C706 C698 1.378 . S
C706 C701 1.350 . S
C707 H694 0.929 . S
C707 C699 1.433 . S
C707 N709 1.384 . S
N708 C704 1.427 . S
N708 C705 1.384 . S
N709 C701 1.427 . S
N709 C707 1.384 . S
H710 C716 0.930 1_655 S
H711 C720 0.930 . S
H712 C725 0.929 . S
H713 C723 0.929 . S
H714 C718 0.929 . S
H715 C724 0.929 . S
C716 H710 0.930 1_455 S
C716 C717 1.367 . S
C716 C724 1.378 . S
C717 C716 1.367 . S
C717 C725 1.433 . S
C718 H714 0.929 . S
C718 C720 1.378 . S
C718 C722 1.350 . S
C719 C722 1.463 . S
C719 C724 1.350 . S
C719 N727 1.427 . S
C720 H711 0.930 . S
C720 C718 1.378 . S
C720 C721 1.367 . S
C721 C720 1.367 . S
C721 C723 1.433 . S
C722 C718 1.350 . S
C722 C719 1.463 . S
C722 N726 1.427 . S
C723 H713 0.929 . S
C723 C721 1.433 . S
C723 N726 1.384 . S
C724 H715 0.929 . S
C724 C716 1.378 . S
C724 C719 1.350 . S
C725 H712 0.929 . S
C725 C717 1.433 . S
C725 N727 1.384 . S
N726 C722 1.427 . S
N726 C723 1.384 . S
N727 C719 1.427 . S
N727 C725 1.384 . S
H728 C734 0.930 . S
H729 C738 0.930 . S
H730 C743 0.929 . S
H731 C741 0.929 . S
H732 C736 0.929 . S
H733 C742 0.929 . S
C734 H728 0.930 . S
C734 C735 1.367 . S
C734 C742 1.378 . S
C735 C734 1.367 . S
C735 C743 1.433 . S
C736 H732 0.929 . S
C736 C738 1.378 . S
C736 C740 1.350 . S
C737 C740 1.463 . S
C737 C742 1.350 . S
C737 N745 1.427 . S
C738 H729 0.930 . S
C738 C736 1.378 . S
C738 C739 1.367 . S
C739 C738 1.367 . S
C739 C741 1.433 . S
C740 C736 1.350 . S
C740 C737 1.463 . S
C740 N744 1.427 . S
C741 H731 0.929 . S
C741 C739 1.433 . S
C741 N744 1.384 . S
C742 H733 0.929 . S
C742 C734 1.378 . S
C742 C737 1.350 . S
C743 H730 0.929 . S
C743 C735 1.433 . S
C743 N745 1.384 . S
N744 C740 1.427 . S
N744 C741 1.384 . S
N745 C737 1.427 . S
N745 C743 1.384 . S
H746 C752 0.930 . S
H747 C756 0.930 . S
H748 C761 0.929 . S
H749 C759 0.929 . S
H750 C754 0.929 . S
H751 C760 0.929 . S
C752 H746 0.930 . S
C752 C753 1.367 . S
C752 C760 1.378 . S
C753 C752 1.367 . S
C753 C761 1.433 . S
C754 H750 0.929 . S
C754 C756 1.378 . S
C754 C758 1.350 . S
C755 C758 1.463 . S
C755 C760 1.350 . S
C755 N763 1.427 . S
C756 H747 0.930 . S
C756 C754 1.378 . S
C756 C757 1.367 . S
C757 C756 1.367 . S
C757 C759 1.433 . S
C758 C754 1.350 . S
C758 C755 1.463 . S
C758 N762 1.427 . S
C759 H749 0.929 . S
C759 C757 1.433 . S
C759 N762 1.384 . S
C760 H751 0.929 . S
C760 C752 1.378 . S
C760 C755 1.350 . S
C761 H748 0.929 . S
C761 C753 1.433 . S
C761 N763 1.384 . S
N762 C758 1.427 . S
N762 C759 1.384 . S
N763 C755 1.427 . S
N763 C761 1.384 . S
H764 C770 0.930 . S
H765 C774 0.930 . S
H766 C779 0.929 . S
H767 C777 0.929 . S
H768 C772 0.929 . S
H769 C778 0.929 . S
C770 H764 0.930 . S
C770 C771 1.367 . S
C770 C778 1.378 . S
C771 C770 1.367 . S
C771 C779 1.433 . S
C772 H768 0.929 . S
C772 C774 1.378 . S
C772 C776 1.350 . S
C773 C776 1.463 . S
C773 C778 1.350 . S
C773 N781 1.427 . S
C774 H765 0.930 . S
C774 C772 1.378 . S
C774 C775 1.367 . S
C775 C774 1.367 . S
C775 C777 1.433 . S
C776 C772 1.350 . S
C776 C773 1.463 . S
C776 N780 1.427 . S
C777 H767 0.929 . S
C777 C775 1.433 . S
C777 N780 1.384 . S
C778 H769 0.929 . S
C778 C770 1.378 . S
C778 C773 1.350 . S
C779 H766 0.929 . S
C779 C771 1.433 . S
C779 N781 1.384 . S
N780 C776 1.427 . S
N780 C777 1.384 . S
N781 C773 1.427 . S
N781 C779 1.384 . S
H782 C788 0.930 . S
H783 C792 0.930 . S
H784 C797 0.929 . S
H785 C795 0.929 . S
H786 C790 0.929 . S
H787 C796 0.929 . S
C788 H782 0.930 . S
C788 C789 1.367 . S
C788 C796 1.378 . S
C789 C788 1.367 . S
C789 C797 1.433 . S
C790 H786 0.929 . S
C790 C792 1.378 . S
C790 C794 1.350 . S
C791 C794 1.463 . S
C791 C796 1.350 . S
C791 N799 1.427 . S
C792 H783 0.930 . S
C792 C790 1.378 . S
C792 C793 1.367 . S
C793 C792 1.367 . S
C793 C795 1.433 . S
C794 C790 1.350 . S
C794 C791 1.463 . S
C794 N798 1.427 . S
C795 H785 0.929 . S
C795 C793 1.433 . S
C795 N798 1.384 . S
C796 H787 0.929 . S
C796 C788 1.378 . S
C796 C791 1.350 . S
C797 H784 0.929 . S
C797 C789 1.433 . S
C797 N799 1.384 . S
N798 C794 1.427 . S
N798 C795 1.384 . S
N799 C791 1.427 . S
N799 C797 1.384 . S
H800 C806 0.930 . S
H801 C810 0.930 . S
H802 C815 0.929 . S
H803 C813 0.929 . S
H804 C808 0.929 . S
H805 C814 0.929 . S
C806 H800 0.930 . S
C806 C807 1.367 . S
C806 C814 1.378 . S
C807 C806 1.367 . S
C807 C815 1.433 . S
C808 H804 0.929 . S
C808 C810 1.378 . S
C808 C812 1.350 . S
C809 C812 1.463 . S
C809 C814 1.350 . S
C809 N817 1.427 . S
C810 H801 0.930 . S
C810 C808 1.378 . S
C810 C811 1.367 . S
C811 C810 1.367 . S
C811 C813 1.433 . S
C812 C808 1.350 . S
C812 C809 1.463 . S
C812 N816 1.427 . S
C813 H803 0.929 . S
C813 C811 1.433 . S
C813 N816 1.384 . S
C814 H805 0.929 . S
C814 C806 1.378 . S
C814 C809 1.350 . S
C815 H802 0.929 . S
C815 C807 1.433 . S
C815 N817 1.384 . S
N816 C812 1.427 . S
N816 C813 1.384 . S
N817 C809 1.427 . S
N817 C815 1.384 . S
H818 C824 0.930 . S
H819 C828 0.930 1_455 S
H820 C833 0.929 . S
H821 C831 0.929 . S
H822 C826 0.929 . S
H823 C832 0.929 1_545 S
C824 H818 0.930 . S
C824 C825 1.367 . S
C824 C832 1.378 . S
C825 C824 1.367 . S
C825 C833 1.433 . S
C826 H822 0.929 . S
C826 C828 1.378 . S
C826 C830 1.350 . S
C827 C830 1.463 . S
C827 C832 1.350 . S
C827 N835 1.427 . S
C828 H819 0.930 1_655 S
C828 C826 1.378 . S
C828 C829 1.367 1_565 S
C829 C828 1.367 1_545 S
C829 C831 1.433 . S
C830 C826 1.350 . S
C830 C827 1.463 . S
C830 N834 1.427 1_565 S
C831 H821 0.929 . S
C831 C829 1.433 . S
C831 N834 1.384 . S
C832 H823 0.929 1_565 S
C832 C824 1.378 . S
C832 C827 1.350 . S
C833 H820 0.929 . S
C833 C825 1.433 . S
C833 N835 1.384 . S
N834 C830 1.427 1_545 S
N834 C831 1.384 . S
N835 C827 1.427 . S
N835 C833 1.384 . S
H836 C842 0.930 . S
H837 C846 0.930 . S
H838 C851 0.929 . S
H839 C849 0.929 . S
H840 C844 0.929 . S
H841 C850 0.929 . S
C842 H836 0.930 . S
C842 C843 1.367 . S
C842 C850 1.378 . S
C843 C842 1.367 . S
C843 C851 1.433 . S
C844 H840 0.929 . S
C844 C846 1.378 . S
C844 C848 1.350 . S
C845 C848 1.463 . S
C845 C850 1.350 . S
C845 N853 1.427 . S
C846 H837 0.930 . S
C846 C844 1.378 . S
C846 C847 1.367 . S
C847 C846 1.367 . S
C847 C849 1.433 . S
C848 C844 1.350 . S
C848 C845 1.463 . S
C848 N852 1.427 . S
C849 H839 0.929 . S
C849 C847 1.433 . S
C849 N852 1.384 . S
C850 H841 0.929 . S
C850 C842 1.378 . S
C850 C845 1.350 . S
C851 H838 0.929 . S
C851 C843 1.433 . S
C851 N853 1.384 . S
N852 C848 1.427 . S
N852 C849 1.384 . S
N853 C845 1.427 . S
N853 C851 1.384 . S
H854 C860 0.930 1_565 S
H855 C864 0.930 . S
H856 C869 0.929 . S
H857 C867 0.929 . S
H858 C862 0.929 . S
H859 C868 0.929 . S
C860 H854 0.930 1_545 S
C860 C861 1.367 . S
C860 C868 1.378 1_545 S
C861 C860 1.367 . S
C861 C869 1.433 . S
C862 H858 0.929 . S
C862 C864 1.378 . S
C862 C866 1.350 . S
C863 C866 1.463 . S
C863 C868 1.350 1_545 S
C863 N871 1.427 . S
C864 H855 0.930 . S
C864 C862 1.378 . S
C864 C865 1.367 1_545 S
C865 C864 1.367 1_565 S
C865 C867 1.433 . S
C866 C862 1.350 . S
C866 C863 1.463 . S
C866 N870 1.427 1_545 S
C867 H857 0.929 . S
C867 C865 1.433 . S
C867 N870 1.384 . S
C868 H859 0.929 . S
C868 C860 1.378 1_565 S
C868 C863 1.350 1_565 S
C869 H856 0.929 . S
C869 C861 1.433 . S
C869 N871 1.384 . S
N870 C866 1.427 1_565 S
N870 C867 1.384 . S
N871 C863 1.427 . S
N871 C869 1.384 . S
H872 C878 0.930 . S
H873 C882 0.930 . S
H874 C887 0.929 . S
H875 C885 0.929 . S
H876 C880 0.929 . S
H877 C886 0.929 . S
C878 H872 0.930 . S
C878 C879 1.367 . S
C878 C886 1.378 . S
C879 C878 1.367 . S
C879 C887 1.433 . S
C880 H876 0.929 . S
C880 C882 1.378 . S
C880 C884 1.350 . S
C881 C884 1.463 . S
C881 C886 1.350 . S
C881 N889 1.427 . S
C882 H873 0.930 . S
C882 C880 1.378 . S
C882 C883 1.367 . S
C883 C882 1.367 . S
C883 C885 1.433 . S
C884 C880 1.350 . S
C884 C881 1.463 . S
C884 N888 1.427 . S
C885 H875 0.929 . S
C885 C883 1.433 . S
C885 N888 1.384 . S
C886 H877 0.929 . S
C886 C878 1.378 . S
C886 C881 1.350 . S
C887 H874 0.929 . S
C887 C879 1.433 . S
C887 N889 1.384 . S
N888 C884 1.427 . S
N888 C885 1.384 . S
N889 C881 1.427 . S
N889 C887 1.384 . S
H890 C896 0.930 1_655 S
H891 C900 0.922 1_565 S
H892 C905 0.929 . S
H893 C903 0.929 . S
H894 C898 0.943 . S
H895 C904 0.929 . S
C896 H890 0.930 1_455 S
C896 C897 1.367 1_545 S
C896 C904 1.378 . S
C897 C896 1.367 1_565 S
C897 C905 1.433 . S
C898 H894 0.943 . S
C898 C900 1.372 1_565 S
C898 C902 1.341 1_565 S
C899 C902 1.463 . S
C899 C904 1.350 . S
C899 N907 1.427 1_545 S
C900 H891 0.922 1_545 S
C900 C898 1.372 1_545 S
C900 C901 1.367 . S
C901 C900 1.367 . S
C901 C903 1.433 . S
C902 C898 1.341 1_545 S
C902 C899 1.463 . S
C902 N906 1.427 . S
C903 H893 0.929 . S
C903 C901 1.433 . S
C903 N906 1.384 . S
C904 H895 0.929 . S
C904 C896 1.378 . S
C904 C899 1.350 . S
C905 H892 0.929 . S
C905 C897 1.433 . S
C905 N907 1.384 . S
N906 C902 1.427 . S
N906 C903 1.384 . S
N907 C899 1.427 1_565 S
N907 C905 1.384 . S
H908 C914 0.930 . S
H909 C918 0.930 . S
H910 C923 0.929 . S
H911 C921 0.929 . S
H912 C916 0.929 . S
H913 C922 0.929 . S
C914 H908 0.930 . S
C914 C915 1.367 . S
C914 C922 1.378 . S
C915 C914 1.367 . S
C915 C923 1.433 . S
C916 H912 0.929 . S
C916 C918 1.378 . S
C916 C920 1.350 . S
C917 C920 1.463 . S
C917 C922 1.350 . S
C917 N925 1.427 . S
C918 H909 0.930 . S
C918 C916 1.378 . S
C918 C919 1.367 . S
C919 C918 1.367 . S
C919 C921 1.433 . S
C920 C916 1.350 . S
C920 C917 1.463 . S
C920 N924 1.427 . S
C921 H911 0.929 . S
C921 C919 1.433 . S
C921 N924 1.384 . S
C922 H913 0.929 . S
C922 C914 1.378 . S
C922 C917 1.350 . S
C923 H910 0.929 . S
C923 C915 1.433 . S
C923 N925 1.384 . S
N924 C920 1.427 . S
N924 C921 1.384 . S
N925 C917 1.427 . S
N925 C923 1.384 . S
H926 C932 0.930 . S
H927 C936 0.930 . S
H928 C941 0.929 . S
H929 C939 0.929 . S
H930 C934 0.929 . S
H931 C940 0.929 . S
C932 H926 0.930 . S
C932 C933 1.367 . S
C932 C940 1.378 . S
C933 C932 1.367 . S
C933 C941 1.433 1_545 S
C934 H930 0.929 . S
C934 C936 1.378 . S
C934 C938 1.350 . S
C935 C938 1.463 . S
C935 C940 1.350 1_565 S
C935 N943 1.427 . S
C936 H927 0.930 . S
C936 C934 1.378 . S
C936 C937 1.367 . S
C937 C936 1.367 . S
C937 C939 1.433 . S
C938 C934 1.350 . S
C938 C935 1.463 . S
C938 N942 1.427 . S
C939 H929 0.929 . S
C939 C937 1.433 . S
C939 N942 1.384 . S
C940 H931 0.929 . S
C940 C932 1.378 . S
C940 C935 1.350 1_545 S
C941 H928 0.929 . S
C941 C933 1.433 1_565 S
C941 N943 1.384 . S
N942 C938 1.427 . S
N942 C939 1.384 . S
N943 C935 1.427 . S
N943 C941 1.384 . S
H944 C950 0.930 . S
H945 C954 0.930 . S
H946 C959 0.929 . S
H947 C957 0.929 . S
H948 C952 0.929 . S
H949 C958 0.929 . S
C950 H944 0.930 . S
C950 C951 1.367 . S
C950 C958 1.378 1_554 S
C951 C950 1.367 . S
C951 C959 1.433 1_554 S
C952 H948 0.929 . S
C952 C954 1.378 . S
C952 C956 1.350 . S
C953 C956 1.463 . S
C953 C958 1.350 . S
C953 N961 1.427 . S
C954 H945 0.930 . S
C954 C952 1.378 . S
C954 C955 1.367 . S
C955 C954 1.367 . S
C955 C957 1.433 . S
C956 C952 1.350 . S
C956 C953 1.463 . S
C956 N960 1.427 . S
C957 H947 0.929 . S
C957 C955 1.433 . S
C957 N960 1.384 . S
C958 H949 0.929 . S
C958 C950 1.378 1_556 S
C958 C953 1.350 . S
C959 H946 0.929 . S
C959 C951 1.433 1_556 S
C959 N961 1.384 . S
N960 C956 1.427 . S
N960 C957 1.384 . S
N961 C953 1.427 . S
N961 C959 1.384 . S
H962 C968 0.930 . S
H963 C972 0.930 . S
H964 C977 0.929 . S
H965 C975 0.929 . S
H966 C970 0.929 . S
H967 C976 0.929 . S
C968 H962 0.930 . S
C968 C969 1.367 . S
C968 C976 1.378 . S
C969 C968 1.367 . S
C969 C977 1.433 . S
C970 H966 0.929 . S
C970 C972 1.378 . S
C970 C974 1.350 . S
C971 C974 1.463 . S
C971 C976 1.350 . S
C971 N979 1.427 . S
C972 H963 0.930 . S
C972 C970 1.378 . S
C972 C973 1.367 . S
C973 C972 1.367 . S
C973 C975 1.433 . S
C974 C970 1.350 . S
C974 C971 1.463 . S
C974 N978 1.427 . S
C975 H965 0.929 . S
C975 C973 1.433 . S
C975 N978 1.384 . S
C976 H967 0.929 . S
C976 C968 1.378 . S
C976 C971 1.350 . S
C977 H964 0.929 . S
C977 C969 1.433 . S
C977 N979 1.384 . S
N978 C974 1.427 . S
N978 C975 1.384 . S
N979 C971 1.427 . S
N979 C977 1.384 . S
H980 C986 0.930 . S
H981 C990 0.930 . S
H982 C995 0.929 . S
H983 C993 0.929 . S
H984 C988 0.929 . S
H985 C994 0.929 . S
C986 H980 0.930 . S
C986 C987 1.367 . S
C986 C994 1.378 . S
C987 C986 1.367 . S
C987 C995 1.433 . S
C988 H984 0.929 . S
C988 C990 1.378 . S
C988 C992 1.350 . S
C989 C992 1.463 . S
C989 C994 1.350 . S
C989 N997 1.427 . S
C990 H981 0.930 . S
C990 C988 1.378 . S
C990 C991 1.367 . S
C991 C990 1.367 . S
C991 C993 1.433 . S
C992 C988 1.350 . S
C992 C989 1.463 . S
C992 N996 1.427 . S
C993 H983 0.929 . S
C993 C991 1.433 . S
C993 N996 1.384 . S
C994 H985 0.929 . S
C994 C986 1.378 . S
C994 C989 1.350 . S
C995 H982 0.929 . S
C995 C987 1.433 . S
C995 N997 1.384 . S
N996 C992 1.427 . S
N996 C993 1.384 . S
N997 C989 1.427 . S
N997 C995 1.384 . S
H998 C1004 0.930 . S
H999 C1008 0.930 . S
H1000 C1013 0.929 . S
H1001 C1011 0.929 . S
H1002 C1006 0.929 . S
H1003 C1012 0.929 . S
C1004 H998 0.930 . S
C1004 C1005 1.367 . S
C1004 C1012 1.378 . S
C1005 C1004 1.367 . S
C1005 C1013 1.433 . S
C1006 H1002 0.929 . S
C1006 C1008 1.378 . S
C1006 C1010 1.350 . S
C1007 C1010 1.463 . S
C1007 C1012 1.350 . S
C1007 N1015 1.427 . S
C1008 H999 0.930 . S
C1008 C1006 1.378 . S
C1008 C1009 1.367 . S
C1009 C1008 1.367 . S
C1009 C1011 1.433 . S
C1010 C1006 1.350 . S
C1010 C1007 1.463 . S
C1010 N1014 1.427 . S
C1011 H1001 0.929 . S
C1011 C1009 1.433 . S
C1011 N1014 1.384 . S
C1012 H1003 0.929 . S
C1012 C1004 1.378 . S
C1012 C1007 1.350 . S
C1013 H1000 0.929 . S
C1013 C1005 1.433 . S
C1013 N1015 1.384 . S
N1014 C1010 1.427 . S
N1014 C1011 1.384 . S
N1015 C1007 1.427 . S
N1015 C1013 1.384 . S
H1016 C1022 0.930 . S
H1017 C1026 0.930 . S
H1018 C1031 0.929 . S
H1019 C1029 0.929 . S
H1020 C1024 0.929 . S
H1021 C1030 0.929 . S
C1022 H1016 0.930 . S
C1022 C1023 1.367 . S
C1022 C1030 1.378 . S
C1023 C1022 1.367 . S
C1023 C1031 1.433 . S
C1024 H1020 0.929 . S
C1024 C1026 1.378 . S
C1024 C1028 1.350 . S
C1025 C1028 1.463 . S
C1025 C1030 1.350 . S
C1025 N1033 1.427 . S
C1026 H1017 0.930 . S
C1026 C1024 1.378 . S
C1026 C1027 1.367 1_554 S
C1027 C1026 1.367 1_556 S
C1027 C1029 1.433 . S
C1028 C1024 1.350 . S
C1028 C1025 1.463 . S
C1028 N1032 1.427 . S
C1029 H1019 0.929 . S
C1029 C1027 1.433 . S
C1029 N1032 1.384 1_556 S
C1030 H1021 0.929 . S
C1030 C1022 1.378 . S
C1030 C1025 1.350 . S
C1031 H1018 0.929 . S
C1031 C1023 1.433 . S
C1031 N1033 1.384 . S
N1032 C1028 1.427 . S
N1032 C1029 1.384 1_554 S
N1033 C1025 1.427 . S
N1033 C1031 1.384 . S
H1034 C1040 0.930 . S
H1035 C1044 0.930 . S
H1036 C1049 0.929 . S
H1037 C1047 0.929 . S
H1038 C1042 0.929 . S
H1039 C1048 0.929 . S
C1040 H1034 0.930 . S
C1040 C1041 1.367 . S
C1040 C1048 1.378 . S
C1041 C1040 1.367 . S
C1041 C1049 1.433 . S
C1042 H1038 0.929 . S
C1042 C1044 1.378 . S
C1042 C1046 1.350 . S
C1043 C1046 1.463 . S
C1043 C1048 1.350 . S
C1043 N1051 1.427 . S
C1044 H1035 0.930 . S
C1044 C1042 1.378 . S
C1044 C1045 1.367 . S
C1045 C1044 1.367 . S
C1045 C1047 1.433 . S
C1046 C1042 1.350 . S
C1046 C1043 1.463 . S
C1046 N1050 1.427 . S
C1047 H1037 0.929 . S
C1047 C1045 1.433 . S
C1047 N1050 1.384 . S
C1048 H1039 0.929 . S
C1048 C1040 1.378 . S
C1048 C1043 1.350 . S
C1049 H1036 0.929 . S
C1049 C1041 1.433 . S
C1049 N1051 1.384 . S
N1050 C1046 1.427 . S
N1050 C1047 1.384 . S
N1051 C1043 1.427 . S
N1051 C1049 1.384 . S
H1052 C1058 0.930 . S
H1053 C1062 0.930 . S
H1054 C1067 0.929 . S
H1055 C1065 0.929 . S
H1056 C1060 0.929 . S
H1057 C1066 0.929 . S
C1058 H1052 0.930 . S
C1058 C1059 1.367 . S
C1058 C1066 1.378 . S
C1059 C1058 1.367 . S
C1059 C1067 1.433 . S
C1060 H1056 0.929 . S
C1060 C1062 1.378 . S
C1060 C1064 1.350 . S
C1061 C1064 1.463 . S
C1061 C1066 1.350 . S
C1061 N1069 1.427 . S
C1062 H1053 0.930 . S
C1062 C1060 1.378 . S
C1062 C1063 1.367 . S
C1063 C1062 1.367 . S
C1063 C1065 1.433 . S
C1064 C1060 1.350 . S
C1064 C1061 1.463 . S
C1064 N1068 1.427 . S
C1065 H1055 0.929 . S
C1065 C1063 1.433 . S
C1065 N1068 1.384 . S
C1066 H1057 0.929 . S
C1066 C1058 1.378 . S
C1066 C1061 1.350 . S
C1067 H1054 0.929 . S
C1067 C1059 1.433 . S
C1067 N1069 1.384 . S
N1068 C1064 1.427 . S
N1068 C1065 1.384 . S
N1069 C1061 1.427 . S
N1069 C1067 1.384 . S
H1070 C1076 0.930 . S
H1071 C1080 0.930 . S
H1072 C1085 0.929 . S
H1073 C1083 0.929 . S
H1074 C1078 0.929 . S
H1075 C1084 0.929 . S
C1076 H1070 0.930 . S
C1076 C1077 1.367 . S
C1076 C1084 1.378 . S
C1077 C1076 1.367 . S
C1077 C1085 1.433 . S
C1078 H1074 0.929 . S
C1078 C1080 1.378 . S
C1078 C1082 1.350 . S
C1079 C1082 1.463 . S
C1079 C1084 1.350 . S
C1079 N1087 1.427 . S
C1080 H1071 0.930 . S
C1080 C1078 1.378 . S
C1080 C1081 1.367 . S
C1081 C1080 1.367 . S
C1081 C1083 1.433 . S
C1082 C1078 1.350 . S
C1082 C1079 1.463 . S
C1082 N1086 1.427 . S
C1083 H1073 0.929 . S
C1083 C1081 1.433 . S
C1083 N1086 1.384 . S
C1084 H1075 0.929 . S
C1084 C1076 1.378 . S
C1084 C1079 1.350 . S
C1085 H1072 0.929 . S
C1085 C1077 1.433 . S
C1085 N1087 1.384 . S
N1086 C1082 1.427 . S
N1086 C1083 1.384 . S
N1087 C1079 1.427 . S
N1087 C1085 1.384 . S
H1088 C1094 0.930 . S
H1089 C1098 0.930 . S
H1090 C1103 0.929 . S
H1091 C1101 0.929 . S
H1092 C1096 0.929 . S
H1093 C1102 0.929 . S
C1094 H1088 0.930 . S
C1094 C1095 1.367 . S
C1094 C1102 1.378 . S
C1095 C1094 1.367 . S
C1095 C1103 1.433 . S
C1096 H1092 0.929 . S
C1096 C1098 1.378 . S
C1096 C1100 1.350 . S
C1097 C1100 1.463 . S
C1097 C1102 1.350 . S
C1097 N1105 1.427 . S
C1098 H1089 0.930 . S
C1098 C1096 1.378 . S
C1098 C1099 1.367 . S
C1099 C1098 1.367 . S
C1099 C1101 1.433 . S
C1100 C1096 1.350 . S
C1100 C1097 1.463 . S
C1100 N1104 1.427 . S
C1101 H1091 0.929 . S
C1101 C1099 1.433 . S
C1101 N1104 1.384 . S
C1102 H1093 0.929 . S
C1102 C1094 1.378 . S
C1102 C1097 1.350 . S
C1103 H1090 0.929 . S
C1103 C1095 1.433 . S
C1103 N1105 1.384 . S
N1104 C1100 1.427 . S
N1104 C1101 1.384 . S
N1105 C1097 1.427 . S
N1105 C1103 1.384 . S
H1106 C1112 0.930 . S
H1107 C1116 0.930 . S
H1108 C1121 0.929 . S
H1109 C1119 0.929 . S
H1110 C1114 0.929 . S
H1111 C1120 0.929 . S
C1112 H1106 0.930 . S
C1112 C1113 1.367 . S
C1112 C1120 1.378 . S
C1113 C1112 1.367 . S
C1113 C1121 1.433 . S
C1114 H1110 0.929 . S
C1114 C1116 1.378 . S
C1114 C1118 1.350 1_545 S
C1115 C1118 1.463 . S
C1115 C1120 1.350 . S
C1115 N1123 1.427 . S
C1116 H1107 0.930 . S
C1116 C1114 1.378 . S
C1116 C1117 1.367 . S
C1117 C1116 1.367 . S
C1117 C1119 1.433 1_545 S
C1118 C1114 1.350 1_565 S
C1118 C1115 1.463 . S
C1118 N1122 1.427 . S
C1119 H1109 0.929 . S
C1119 C1117 1.433 1_565 S
C1119 N1122 1.384 . S
C1120 H1111 0.929 . S
C1120 C1112 1.378 . S
C1120 C1115 1.350 . S
C1121 H1108 0.929 . S
C1121 C1113 1.433 . S
C1121 N1123 1.384 . S
N1122 C1118 1.427 . S
N1122 C1119 1.384 . S
N1123 C1115 1.427 . S
N1123 C1121 1.384 . S
H1124 C1130 0.930 . S
H1125 C1134 0.930 . S
H1126 C1139 0.929 . S
H1127 C1137 0.929 . S
H1128 C1132 0.929 . S
H1129 C1138 0.929 . S
C1130 H1124 0.930 . S
C1130 C1131 1.367 . S
C1130 C1138 1.378 . S
C1131 C1130 1.367 . S
C1131 C1139 1.433 . S
C1132 H1128 0.929 . S
C1132 C1134 1.378 . S
C1132 C1136 1.350 . S
C1133 C1136 1.463 . S
C1133 C1138 1.350 . S
C1133 N1141 1.427 . S
C1134 H1125 0.930 . S
C1134 C1132 1.378 . S
C1134 C1135 1.367 1_556 S
C1135 C1134 1.367 1_554 S
C1135 C1137 1.433 . S
C1136 C1132 1.350 . S
C1136 C1133 1.463 . S
C1136 N1140 1.427 . S
C1137 H1127 0.929 . S
C1137 C1135 1.433 . S
C1137 N1140 1.384 1_554 S
C1138 H1129 0.929 . S
C1138 C1130 1.378 . S
C1138 C1133 1.350 . S
C1139 H1126 0.929 . S
C1139 C1131 1.433 . S
C1139 N1141 1.384 . S
N1140 C1136 1.427 . S
N1140 C1137 1.384 1_556 S
N1141 C1133 1.427 . S
N1141 C1139 1.384 . S
H1142 C1148 0.930 . S
H1143 C1152 0.930 . S
H1144 C1157 0.929 . S
H1145 C1155 0.929 . S
H1146 C1150 0.929 . S
H1147 C1156 0.929 . S
C1148 H1142 0.930 . S
C1148 C1149 1.367 . S
C1148 C1156 1.378 . S
C1149 C1148 1.367 . S
C1149 C1157 1.433 1_565 S
C1150 H1146 0.929 . S
C1150 C1152 1.378 . S
C1150 C1154 1.350 . S
C1151 C1154 1.463 . S
C1151 C1156 1.350 1_545 S
C1151 N1159 1.427 . S
C1152 H1143 0.930 . S
C1152 C1150 1.378 . S
C1152 C1153 1.367 . S
C1153 C1152 1.367 . S
C1153 C1155 1.433 . S
C1154 C1150 1.350 . S
C1154 C1151 1.463 . S
C1154 N1158 1.427 . S
C1155 H1145 0.929 . S
C1155 C1153 1.433 . S
C1155 N1158 1.384 . S
C1156 H1147 0.929 . S
C1156 C1148 1.378 . S
C1156 C1151 1.350 1_565 S
C1157 H1144 0.929 . S
C1157 C1149 1.433 1_545 S
C1157 N1159 1.384 . S
N1158 C1154 1.427 . S
N1158 C1155 1.384 . S
N1159 C1151 1.427 . S
N1159 C1157 1.384 . S
H1160 C1166 0.930 . S
H1161 C1170 0.930 . S
H1162 C1175 0.929 . S
H1163 C1173 0.929 . S
H1164 C1168 0.929 . S
H1165 C1174 0.929 . S
C1166 H1160 0.930 . S
C1166 C1167 1.367 . S
C1166 C1174 1.378 . S
C1167 C1166 1.367 . S
C1167 C1175 1.433 . S
C1168 H1164 0.929 . S
C1168 C1170 1.378 . S
C1168 C1172 1.350 . S
C1169 C1172 1.463 . S
C1169 C1174 1.350 . S
C1169 N1177 1.427 . S
C1170 H1161 0.930 . S
C1170 C1168 1.378 . S
C1170 C1171 1.367 . S
C1171 C1170 1.367 . S
C1171 C1173 1.433 . S
C1172 C1168 1.350 . S
C1172 C1169 1.463 . S
C1172 N1176 1.427 . S
C1173 H1163 0.929 . S
C1173 C1171 1.433 . S
C1173 N1176 1.384 . S
C1174 H1165 0.929 . S
C1174 C1166 1.378 . S
C1174 C1169 1.350 . S
C1175 H1162 0.929 . S
C1175 C1167 1.433 . S
C1175 N1177 1.384 . S
N1176 C1172 1.427 . S
N1176 C1173 1.384 . S
N1177 C1169 1.427 . S
N1177 C1175 1.384 . S
H1178 C1184 0.930 . S
H1179 C1188 0.930 . S
H1180 C1193 0.929 . S
H1181 C1191 0.929 . S
H1182 C1186 0.929 . S
H1183 C1192 0.929 . S
C1184 H1178 0.930 . S
C1184 C1185 1.367 . S
C1184 C1192 1.378 . S
C1185 C1184 1.367 . S
C1185 C1193 1.433 . S
C1186 H1182 0.929 . S
C1186 C1188 1.378 . S
C1186 C1190 1.350 1_565 S
C1187 C1190 1.463 . S
C1187 C1192 1.350 . S
C1187 N1195 1.427 . S
C1188 H1179 0.930 . S
C1188 C1186 1.378 . S
C1188 C1189 1.367 . S
C1189 C1188 1.367 . S
C1189 C1191 1.433 1_565 S
C1190 C1186 1.350 1_545 S
C1190 C1187 1.463 . S
C1190 N1194 1.427 . S
C1191 H1181 0.929 . S
C1191 C1189 1.433 1_545 S
C1191 N1194 1.384 . S
C1192 H1183 0.929 . S
C1192 C1184 1.378 . S
C1192 C1187 1.350 . S
C1193 H1180 0.929 . S
C1193 C1185 1.433 . S
C1193 N1195 1.384 . S
N1194 C1190 1.427 . S
N1194 C1191 1.384 . S
N1195 C1187 1.427 . S
N1195 C1193 1.384 . S
H1196 C1202 0.930 . S
H1197 C1206 0.930 . S
H1198 C1211 0.929 . S
H1199 C1209 0.929 . S
H1200 C1204 0.929 . S
H1201 C1210 0.929 . S
C1202 H1196 0.930 . S
C1202 C1203 1.367 . S
C1202 C1210 1.378 . S
C1203 C1202 1.367 . S
C1203 C1211 1.433 . S
C1204 H1200 0.929 . S
C1204 C1206 1.378 . S
C1204 C1208 1.350 . S
C1205 C1208 1.463 . S
C1205 C1210 1.350 . S
C1205 N1213 1.427 . S
C1206 H1197 0.930 . S
C1206 C1204 1.378 . S
C1206 C1207 1.367 1_554 S
C1207 C1206 1.367 1_556 S
C1207 C1209 1.433 . S
C1208 C1204 1.350 . S
C1208 C1205 1.463 . S
C1208 N1212 1.427 . S
C1209 H1199 0.929 . S
C1209 C1207 1.433 . S
C1209 N1212 1.384 1_556 S
C1210 H1201 0.929 . S
C1210 C1202 1.378 . S
C1210 C1205 1.350 . S
C1211 H1198 0.929 . S
C1211 C1203 1.433 . S
C1211 N1213 1.384 . S
N1212 C1208 1.427 . S
N1212 C1209 1.384 1_554 S
N1213 C1205 1.427 . S
N1213 C1211 1.384 . S
H1214 C1220 0.930 . S
H1215 C1224 0.930 . S
H1216 C1229 0.929 . S
H1217 C1227 0.929 . S
H1218 C1222 0.929 . S
H1219 C1228 0.929 . S
C1220 H1214 0.930 . S
C1220 C1221 1.367 . S
C1220 C1228 1.378 . S
C1221 C1220 1.367 . S
C1221 C1229 1.433 . S
C1222 H1218 0.929 . S
C1222 C1224 1.378 . S
C1222 C1226 1.350 1_545 S
C1223 C1226 1.463 . S
C1223 C1228 1.350 . S
C1223 N1231 1.427 . S
C1224 H1215 0.930 . S
C1224 C1222 1.378 . S
C1224 C1225 1.367 . S
C1225 C1224 1.367 . S
C1225 C1227 1.433 1_545 S
C1226 C1222 1.350 1_565 S
C1226 C1223 1.463 . S
C1226 N1230 1.427 . S
C1227 H1217 0.929 . S
C1227 C1225 1.433 1_565 S
C1227 N1230 1.384 . S
C1228 H1219 0.929 . S
C1228 C1220 1.378 . S
C1228 C1223 1.350 . S
C1229 H1216 0.929 . S
C1229 C1221 1.433 . S
C1229 N1231 1.384 . S
N1230 C1226 1.427 . S
N1230 C1227 1.384 . S
N1231 C1223 1.427 . S
N1231 C1229 1.384 . S
C375 C16 0.311 . S
C379 C246 0.310 . S
C393 C39 0.314 . S
C397 C269 0.301 . S
C411 C62 0.301 . S
C415 C200 0.315 . S
C429 C223 0.301 . S
C433 C85 0.316 . S
C447 C108 0.312 . S
C451 C338 0.302 . S
C465 C361 0.315 . S
C469 C131 0.301 . S
C483 C292 0.311 . S
C487 C154 0.302 . S
C501 C177 0.314 . S
C505 C315 0.302 . S
C519 C18 2.071 . S
C523 C110 2.071 . S
C537 C41 2.070 . S
C541 C317 2.070 . S
C555 C64 2.071 . S
C559 C156 2.071 . S
C573 C87 2.070 . S
C577 C363 2.070 . S
C591 C133 2.070 . S
C595 C225 2.070 . S
C609 C271 2.071 . S
C613 C179 2.071 . S
C627 C294 2.070 . S
C631 C202 2.070 . S
C645 C248 2.071 . S
C649 C340 2.071 . S
C663 C21 1.796 . S
C667 C178 1.799 . S
C681 C44 1.795 . S
C685 C293 1.799 . S
C699 C67 1.797 . S
C703 C132 1.798 . S
C717 C90 1.798 1_455 S
C721 C339 1.795 . S
C735 C86 1.793 . S
C739 C113 1.800 . S
C753 C136 1.796 . S
C757 C201 1.799 . S
C771 C159 1.799 . S
C775 C40 1.797 . S
C789 C247 1.793 . S
C793 C182 1.801 1_655 S
C807 C205 1.796 . S
C811 C362 1.799 . S
C825 C109 1.796 . S
C829 C228 1.797 1_655 S
C843 C316 1.799 . S
C847 C251 1.797 . S
C861 C155 1.799 . S
C865 C274 1.795 . S
C879 C297 1.797 . S
C883 C270 1.796 . S
C897 C320 1.796 1_455 S
C901 C17 1.797 . S
C915 C224 1.798 . S
C919 C343 1.797 . S
C933 C366 1.800 . S
C937 C63 1.793 . S
C951 C19 1.144 . S
C955 C227 1.153 . S
C969 C250 1.153 . S
C973 C42 1.144 . S
C987 C65 1.132 . S
C991 C273 1.150 . S
C1005 C204 1.149 . S
C1009 C88 1.132 . S
C1023 C319 1.151 . S
C1027 C111 1.135 . S
C1041 C342 1.149 . S
C1045 C134 1.132 . S
C1059 C365 1.150 . S
C1063 C157 1.132 . S
C1077 C296 1.150 . S
C1081 C180 1.133 . S
C1095 C43 1.149 . S
C1099 C203 1.132 . S
C1113 C66 1.152 . S
C1117 C226 1.137 . S
C1131 C89 1.152 . S
C1135 C249 1.139 . S
C1149 C272 1.132 . S
C1153 C20 1.150 . S
C1167 C135 1.151 . S
C1171 C295 1.135 . S
C1185 C158 1.150 . S
C1189 C318 1.132 . S
C1203 C181 1.153 . S
C1207 C341 1.141 . S
C1221 C112 1.152 . S
C1225 C364 1.137 . S
