# Generated by pormake.
# Topology vch, (7)-cn, num edge types: 1
# Building blocks:
#     Node 0, Type 0, BuildingBlock: NUHQUE_clean_sbu_2, # of connection points: 7
#     Node 1, Type 0, BuildingBlock: NUHQUE_clean_sbu_2, # of connection points: 7
#     Node 2, Type 0, BuildingBlock: NUHQUE_clean_sbu_2, # of connection points: 7
#     Node 3, Type 0, BuildingBlock: NUHQUE_clean_sbu_2, # of connection points: 7
#     Node 4, Type 0, BuildingBlock: NUHQUE_clean_sbu_2, # of connection points: 7
#     Node 5, Type 0, BuildingBlock: NUHQUE_clean_sbu_2, # of connection points: 7
#     Node 6, Type 0, BuildingBlock: NUHQUE_clean_sbu_2, # of connection points: 7
#     Node 7, Type 0, BuildingBlock: NUHQUE_clean_sbu_2, # of connection points: 7
#     Node 8, Type 0, BuildingBlock: NUHQUE_clean_sbu_2, # of connection points: 7
#     Node 9, Type 0, BuildingBlock: NUHQUE_clean_sbu_2, # of connection points: 7
#     Node 10, Type 0, BuildingBlock: NUHQUE_clean_sbu_2, # of connection points: 7
#     Node 11, Type 0, BuildingBlock: NUHQUE_clean_sbu_2, # of connection points: 7
#     Node 12, Type 0, BuildingBlock: NUHQUE_clean_sbu_2, # of connection points: 7
#     Node 13, Type 0, BuildingBlock: NUHQUE_clean_sbu_2, # of connection points: 7
#     Node 14, Type 0, BuildingBlock: NUHQUE_clean_sbu_2, # of connection points: 7
#     Node 15, Type 0, BuildingBlock: NUHQUE_clean_sbu_2, # of connection points: 7
#     Edge 16, Type (0, 0), BuildingBlock: XIVTED_clean_linker_0, # of connection points: 2
#     Edge 17, Type (0, 0), BuildingBlock: XIVTED_clean_linker_0, # of connection points: 2
#     Edge 18, Type (0, 0), BuildingBlock: XIVTED_clean_linker_0, # of connection points: 2
#     Edge 19, Type (0, 0), BuildingBlock: XIVTED_clean_linker_0, # of connection points: 2
#     Edge 20, Type (0, 0), BuildingBlock: XIVTED_clean_linker_0, # of connection points: 2
#     Edge 21, Type (0, 0), BuildingBlock: XIVTED_clean_linker_0, # of connection points: 2
#     Edge 22, Type (0, 0), BuildingBlock: XIVTED_clean_linker_0, # of connection points: 2
#     Edge 23, Type (0, 0), BuildingBlock: XIVTED_clean_linker_0, # of connection points: 2
#     Edge 24, Type (0, 0), BuildingBlock: XIVTED_clean_linker_0, # of connection points: 2
#     Edge 25, Type (0, 0), BuildingBlock: XIVTED_clean_linker_0, # of connection points: 2
#     Edge 26, Type (0, 0), BuildingBlock: XIVTED_clean_linker_0, # of connection points: 2
#     Edge 27, Type (0, 0), BuildingBlock: XIVTED_clean_linker_0, # of connection points: 2
#     Edge 28, Type (0, 0), BuildingBlock: XIVTED_clean_linker_0, # of connection points: 2
#     Edge 29, Type (0, 0), BuildingBlock: XIVTED_clean_linker_0, # of connection points: 2
#     Edge 30, Type (0, 0), BuildingBlock: XIVTED_clean_linker_0, # of connection points: 2
#     Edge 31, Type (0, 0), BuildingBlock: XIVTED_clean_linker_0, # of connection points: 2
#     Edge 32, Type (0, 0), BuildingBlock: XIVTED_clean_linker_0, # of connection points: 2
#     Edge 33, Type (0, 0), BuildingBlock: XIVTED_clean_linker_0, # of connection points: 2
#     Edge 34, Type (0, 0), BuildingBlock: XIVTED_clean_linker_0, # of connection points: 2
#     Edge 35, Type (0, 0), BuildingBlock: XIVTED_clean_linker_0, # of connection points: 2
#     Edge 36, Type (0, 0), BuildingBlock: XIVTED_clean_linker_0, # of connection points: 2
#     Edge 37, Type (0, 0), BuildingBlock: XIVTED_clean_linker_0, # of connection points: 2
#     Edge 38, Type (0, 0), BuildingBlock: XIVTED_clean_linker_0, # of connection points: 2
#     Edge 39, Type (0, 0), BuildingBlock: XIVTED_clean_linker_0, # of connection points: 2
#     Edge 40, Type (0, 0), BuildingBlock: XIVTED_clean_linker_0, # of connection points: 2
#     Edge 41, Type (0, 0), BuildingBlock: XIVTED_clean_linker_0, # of connection points: 2
#     Edge 42, Type (0, 0), BuildingBlock: XIVTED_clean_linker_0, # of connection points: 2
#     Edge 43, Type (0, 0), BuildingBlock: XIVTED_clean_linker_0, # of connection points: 2
#     Edge 44, Type (0, 0), BuildingBlock: XIVTED_clean_linker_0, # of connection points: 2
#     Edge 45, Type (0, 0), BuildingBlock: XIVTED_clean_linker_0, # of connection points: 2
#     Edge 46, Type (0, 0), BuildingBlock: XIVTED_clean_linker_0, # of connection points: 2
#     Edge 47, Type (0, 0), BuildingBlock: XIVTED_clean_linker_0, # of connection points: 2
#     Edge 48, Type (0, 0), BuildingBlock: XIVTED_clean_linker_0, # of connection points: 2
#     Edge 49, Type (0, 0), BuildingBlock: XIVTED_clean_linker_0, # of connection points: 2
#     Edge 50, Type (0, 0), BuildingBlock: XIVTED_clean_linker_0, # of connection points: 2
#     Edge 51, Type (0, 0), BuildingBlock: XIVTED_clean_linker_0, # of connection points: 2
#     Edge 52, Type (0, 0), BuildingBlock: XIVTED_clean_linker_0, # of connection points: 2
#     Edge 53, Type (0, 0), BuildingBlock: XIVTED_clean_linker_0, # of connection points: 2
#     Edge 54, Type (0, 0), BuildingBlock: XIVTED_clean_linker_0, # of connection points: 2
#     Edge 55, Type (0, 0), BuildingBlock: XIVTED_clean_linker_0, # of connection points: 2
#     Edge 56, Type (0, 0), BuildingBlock: XIVTED_clean_linker_0, # of connection points: 2
#     Edge 57, Type (0, 0), BuildingBlock: XIVTED_clean_linker_0, # of connection points: 2
#     Edge 58, Type (0, 0), BuildingBlock: XIVTED_clean_linker_0, # of connection points: 2
#     Edge 59, Type (0, 0), BuildingBlock: XIVTED_clean_linker_0, # of connection points: 2
#     Edge 60, Type (0, 0), BuildingBlock: XIVTED_clean_linker_0, # of connection points: 2
#     Edge 61, Type (0, 0), BuildingBlock: XIVTED_clean_linker_0, # of connection points: 2
#     Edge 62, Type (0, 0), BuildingBlock: XIVTED_clean_linker_0, # of connection points: 2
#     Edge 63, Type (0, 0), BuildingBlock: XIVTED_clean_linker_0, # of connection points: 2
#     Edge 64, Type (0, 0), BuildingBlock: XIVTED_clean_linker_0, # of connection points: 2
#     Edge 65, Type (0, 0), BuildingBlock: XIVTED_clean_linker_0, # of connection points: 2
#     Edge 66, Type (0, 0), BuildingBlock: XIVTED_clean_linker_0, # of connection points: 2
#     Edge 67, Type (0, 0), BuildingBlock: XIVTED_clean_linker_0, # of connection points: 2
#     Edge 68, Type (0, 0), BuildingBlock: XIVTED_clean_linker_0, # of connection points: 2
#     Edge 69, Type (0, 0), BuildingBlock: XIVTED_clean_linker_0, # of connection points: 2
#     Edge 70, Type (0, 0), BuildingBlock: XIVTED_clean_linker_0, # of connection points: 2
#     Edge 71, Type (0, 0), BuildingBlock: XIVTED_clean_linker_0, # of connection points: 2
# Relax obj value: 0.144
# Max RMSD: 0.214
# Mean RMSD: 0.214
data_MOF--net-vch--node1-NUHQUE_clean_sbu_2--edge1-XIVTED_clean_linker_0
_symmetry_space_group_name_H-M    P1
_symmetry_Int_Tables_number       1
_symmetry_cell_setting            triclinic
loop_
_symmetry_equiv_pos_as_xyz
'x, y, z'
_cell_length_a     21.590836
_cell_length_b     51.924057
_cell_length_c     67.069739
_cell_angle_alpha  90.03467
_cell_angle_beta   89.93319
_cell_angle_gamma 90.016825
loop_
_atom_site_label
_atom_site_type_symbol
_atom_site_fract_x
_atom_site_fract_y
_atom_site_fract_z
_atom_type_partial_charge
O0 O 0.15817 0.11292 0.09592 0.0
Tb1 Tb 0.16834 0.12157 0.12743 0.0
Eu2 Eu 0.00884 0.10512 0.12335 0.0
C3 C 0.19895 0.09771 0.0873 0.0
O4 O 0.2397 0.08575 0.0985 0.0
C5 C 0.11959 0.06707 0.13065 0.0
O6 O 0.01368 0.10494 0.15708 0.0
C7 C 0.89928 0.09287 0.10991 0.0
C8 C 0.98575 0.12314 0.1674 0.0
O9 O 0.95557 0.1412 0.15773 0.0
C10 C 0.06465 0.16174 0.12602 0.0
C11 C 0.84238 0.10264 0.09984 0.0
C12 C 0.83821 0.10231 0.07881 0.0
C13 C 0.78297 0.10928 0.06908 0.0
C14 C 0.73188 0.11677 0.08061 0.0
C15 C 0.73437 0.11702 0.10149 0.0
C16 C 0.78957 0.10968 0.11109 0.0
O17 O 0.14258 0.0857 0.14154 0.0
O18 O 0.07459 0.07196 0.11805 0.0
O19 O 0.25643 0.11404 0.14278 0.0
O20 O 0.25349 0.14275 0.12048 0.0
C21 C 0.28922 0.13082 0.13301 0.0
O22 O 0.03169 0.14607 0.11474 0.0
O23 O 0.11002 0.15305 0.13726 0.0
O24 O 0.90963 0.09967 0.12849 0.0
O25 O 0.95034 0.09122 0.09926 0.0
H26 H 0.87765 0.09628 0.06998 0.0
H27 H 0.68838 0.1212 0.07331 0.0
H28 H 0.79105 0.10921 0.12723 0.0
O29 O 0.33563 0.8789 0.077 0.0
Tb30 Tb 0.34538 0.87573 0.10922 0.0
Eu31 Eu 0.51884 0.88911 0.14497 0.0
C32 C 0.28765 0.8909 0.06922 0.0
O33 O 0.2483 0.90258 0.08112 0.0
C34 C 0.41036 0.9193 0.13272 0.0
O35 O 0.52778 0.88674 0.17849 0.0
C36 C 0.62245 0.90199 0.12788 0.0
C37 C 0.49181 0.87139 0.18897 0.0
O38 O 0.45127 0.85693 0.17959 0.0
C39 C 0.44765 0.83361 0.12577 0.0
C40 C 0.6754 0.89185 0.11611 0.0
C41 C 0.67145 0.88902 0.09521 0.0
C42 C 0.72338 0.88122 0.084 0.0
C43 C 0.77906 0.87598 0.09397 0.0
C44 C 0.78414 0.87911 0.11463 0.0
C45 C 0.7325 0.88725 0.12563 0.0
O46 O 0.41706 0.89873 0.12172 0.0
O47 O 0.45367 0.92254 0.14582 0.0
O48 O 0.26699 0.89507 0.12361 0.0
O49 O 0.26516 0.85443 0.12031 0.0
C50 C 0.23453 0.87435 0.12672 0.0
O51 O 0.48819 0.8487 0.13527 0.0
O52 O 0.39646 0.84057 0.11604 0.0
O53 O 0.61844 0.89489 0.14666 0.0
O54 O 0.56819 0.90384 0.11905 0.0
H55 H 0.62838 0.89322 0.08761 0.0
H56 H 0.82006 0.87085 0.08551 0.0
H57 H 0.73714 0.89029 0.14155 0.0
O58 O 0.66777 0.87729 0.41126 0.0
Tb59 Tb 0.68252 0.86862 0.37996 0.0
Eu60 Eu 0.52198 0.88571 0.38315 0.0
C61 C 0.70713 0.89271 0.42028 0.0
O62 O 0.74996 0.90422 0.40958 0.0
C63 C 0.63561 0.92399 0.37735 0.0
O64 O 0.5256 0.88632 0.34946 0.0
C65 C 0.41299 0.8976 0.39736 0.0
C66 C 0.49797 0.86806 0.33916 0.0
O67 O 0.46866 0.84972 0.34883 0.0
C68 C 0.57736 0.82869 0.3799 0.0
C69 C 0.35619 0.88767 0.40748 0.0
C70 C 0.35143 0.88876 0.4285 0.0
C71 C 0.29636 0.88157 0.4383 0.0
C72 C 0.24603 0.87317 0.42684 0.0
C73 C 0.24899 0.87224 0.40599 0.0
C74 C 0.304 0.87975 0.3963 0.0
O75 O 0.6616 0.90562 0.36684 0.0
O76 O 0.58684 0.91923 0.38852 0.0
O77 O 0.7703 0.87357 0.36378 0.0
O78 O 0.76858 0.84987 0.38941 0.0
C79 C 0.80378 0.8593 0.37548 0.0
O80 O 0.54374 0.84435 0.39101 0.0
O81 O 0.6255 0.83697 0.36968 0.0
O82 O 0.42263 0.89151 0.37857 0.0
O83 O 0.46441 0.89868 0.40782 0.0
H84 H 0.39024 0.89557 0.43727 0.0
H85 H 0.20261 0.86856 0.43416 0.0
H86 H 0.30576 0.87967 0.38015 0.0
O87 O 0.82357 0.12359 0.42649 0.0
Tb88 Tb 0.82249 0.12944 0.39433 0.0
Eu89 Eu 0.9999 0.1113 0.36217 0.0
C90 C 0.78135 0.10907 0.43516 0.0
O91 O 0.74221 0.09617 0.42397 0.0
C92 C 0.88645 0.08338 0.37174 0.0
O93 O 0.01128 0.11213 0.32862 0.0
C94 C 0.10113 0.10065 0.38143 0.0
C95 C 0.97271 0.12572 0.31768 0.0
O96 O 0.92905 0.139 0.32668 0.0
C97 C 0.92917 0.16922 0.3779 0.0
C98 C 0.1534 0.11211 0.39277 0.0
C99 C 0.15163 0.11347 0.41381 0.0
C100 C 0.20337 0.12224 0.42466 0.0
C101 C 0.2567 0.12973 0.41421 0.0
C102 C 0.25985 0.12791 0.3934 0.0
C103 C 0.20829 0.11905 0.38275 0.0
O104 O 0.88454 0.10773 0.37648 0.0
O105 O 0.93738 0.07687 0.36295 0.0
O106 O 0.7377 0.11213 0.38284 0.0
O107 O 0.74273 0.15287 0.38589 0.0
C108 C 0.70782 0.13366 0.38049 0.0
O109 O 0.96854 0.1526 0.36941 0.0
O110 O 0.8771 0.16382 0.3878 0.0
O111 O 0.09925 0.10465 0.36206 0.0
O112 O 0.04601 0.10068 0.38983 0.0
H113 H 0.11056 0.10726 0.42177 0.0
H114 H 0.29784 0.13536 0.42238 0.0
H115 H 0.21167 0.11703 0.3667 0.0
O116 O 0.83102 0.87639 0.9274 0.0
Tb117 Tb 0.83753 0.8733 0.89515 0.0
Eu118 Eu 0.01095 0.88684 0.85968 0.0
C119 C 0.78347 0.88811 0.9357 0.0
O120 O 0.74221 0.89932 0.92425 0.0
C121 C 0.90353 0.91684 0.87204 0.0
O122 O 0.0206 0.88542 0.82615 0.0
C123 C 0.11314 0.89834 0.87817 0.0
C124 C 0.98132 0.87158 0.81565 0.0
O125 O 0.9387 0.85826 0.82511 0.0
C126 C 0.9354 0.83103 0.87646 0.0
C127 C 0.16643 0.88812 0.88974 0.0
C128 C 0.16332 0.88556 0.9107 0.0
C129 C 0.21581 0.87799 0.92172 0.0
C130 C 0.27122 0.87288 0.91151 0.0
C131 C 0.2756 0.87594 0.89083 0.0
C132 C 0.22335 0.88369 0.88001 0.0
O133 O 0.90951 0.89562 0.88223 0.0
O134 O 0.94733 0.92073 0.85922 0.0
O135 O 0.75793 0.89252 0.88137 0.0
O136 O 0.757 0.85184 0.88469 0.0
C137 C 0.7257 0.87166 0.87848 0.0
O138 O 0.97644 0.84618 0.86719 0.0
O139 O 0.88668 0.8381 0.88738 0.0
O140 O 0.11058 0.89286 0.85903 0.0
O141 O 0.05832 0.89892 0.88679 0.0
H142 H 0.12057 0.88986 0.91849 0.0
H143 H 0.31262 0.86801 0.91984 0.0
H144 H 0.22753 0.88669 0.86407 0.0
O145 O 0.65301 0.10829 0.91383 0.0
Tb146 Tb 0.66191 0.11662 0.88223 0.0
Eu147 Eu 0.5004 0.10066 0.88525 0.0
C148 C 0.6947 0.0935 0.92241 0.0
O149 O 0.73529 0.08153 0.91112 0.0
C150 C 0.61022 0.06294 0.87774 0.0
O151 O 0.50755 0.09989 0.85157 0.0
C152 C 0.39028 0.08887 0.89837 0.0
C153 C 0.48347 0.11858 0.84083 0.0
O154 O 0.45484 0.13751 0.85002 0.0
C155 C 0.55811 0.15694 0.88313 0.0
C156 C 0.3345 0.09927 0.90871 0.0
C157 C 0.33169 0.09986 0.92976 0.0
C158 C 0.27734 0.10763 0.9397 0.0
C159 C 0.22586 0.11504 0.92834 0.0
C160 C 0.22715 0.11435 0.90746 0.0
C161 C 0.28138 0.10621 0.89768 0.0
O162 O 0.63277 0.08192 0.86714 0.0
O163 O 0.56546 0.06743 0.89051 0.0
O164 O 0.74971 0.10685 0.8675 0.0
O165 O 0.74715 0.13867 0.88715 0.0
C166 C 0.78262 0.12497 0.87564 0.0
O167 O 0.52382 0.14141 0.89409 0.0
O168 O 0.60478 0.14835 0.87239 0.0
O169 O 0.4011 0.09629 0.87994 0.0
O170 O 0.44118 0.0861 0.90892 0.0
H171 H 0.37146 0.09396 0.93845 0.0
H172 H 0.18299 0.12012 0.9358 0.0
H173 H 0.28187 0.10504 0.88154 0.0
O174 O 0.33634 0.11549 0.57885 0.0
Tb175 Tb 0.34646 0.11769 0.61111 0.0
Eu176 Eu 0.5207 0.10333 0.64649 0.0
C177 C 0.28862 0.10333 0.57102 0.0
O178 O 0.2503 0.09098 0.58286 0.0
C179 C 0.41306 0.07369 0.63344 0.0
O180 O 0.5299 0.10465 0.68011 0.0
C181 C 0.6229 0.09203 0.62783 0.0
C182 C 0.49231 0.11941 0.69054 0.0
O183 O 0.45141 0.13348 0.68098 0.0
C184 C 0.44544 0.15933 0.62994 0.0
C185 C 0.67588 0.10237 0.61613 0.0
C186 C 0.67207 0.1053 0.59521 0.0
C187 C 0.72429 0.11291 0.58401 0.0
C188 C 0.78016 0.11773 0.59402 0.0
C189 C 0.78517 0.11438 0.61467 0.0
C190 C 0.73317 0.10657 0.62564 0.0
O191 O 0.41917 0.09495 0.62328 0.0
O192 O 0.45649 0.06966 0.64636 0.0
O193 O 0.26743 0.09833 0.62519 0.0
O194 O 0.26664 0.13903 0.62235 0.0
C195 C 0.2354 0.11913 0.62847 0.0
O196 O 0.48616 0.14389 0.63898 0.0
O197 O 0.39632 0.15267 0.61908 0.0
O198 O 0.62048 0.09751 0.64699 0.0
O199 O 0.568 0.09131 0.61933 0.0
H200 H 0.62894 0.10127 0.58758 0.0
H201 H 0.82134 0.12264 0.58557 0.0
H202 H 0.73778 0.10335 0.64154 0.0
O203 O 0.14725 0.88915 0.59173 0.0
Tb204 Tb 0.15084 0.88254 0.62371 0.0
Eu205 Eu 0.98586 0.89915 0.62197 0.0
C206 C 0.18977 0.90372 0.58329 0.0
O207 O 0.22789 0.91675 0.59475 0.0
C208 C 0.09692 0.93519 0.62972 0.0
O209 O 0.99395 0.898 0.65555 0.0
C210 C 0.87504 0.91091 0.6098 0.0
C211 C 0.96951 0.87884 0.66571 0.0
O212 O 0.93994 0.86062 0.656 0.0
C213 C 0.04398 0.84308 0.62263 0.0
C214 C 0.81989 0.89989 0.59965 0.0
C215 C 0.81771 0.89823 0.57867 0.0
C216 C 0.76382 0.88979 0.56886 0.0
C217 C 0.71228 0.88257 0.58032 0.0
C218 C 0.71317 0.88425 0.60118 0.0
C219 C 0.76688 0.89316 0.61079 0.0
O220 O 0.1155 0.91526 0.64002 0.0
O221 O 0.05087 0.93237 0.61723 0.0
O222 O 0.23835 0.89629 0.63633 0.0
O223 O 0.23412 0.8584 0.62481 0.0
C224 C 0.27001 0.87547 0.63303 0.0
O225 O 0.01028 0.85905 0.61191 0.0
O226 O 0.09223 0.85089 0.633 0.0
O227 O 0.88699 0.90314 0.62805 0.0
O228 O 0.9253 0.91441 0.59903 0.0
H229 H 0.85763 0.90384 0.56989 0.0
H230 H 0.66973 0.87694 0.57293 0.0
H231 H 0.76703 0.89511 0.62688 0.0
O232 O 0.6526 0.6004 0.07925 0.0
Tb233 Tb 0.64278 0.60095 0.11147 0.0
Eu234 Eu 0.47338 0.58964 0.14786 0.0
C235 C 0.69671 0.58697 0.07055 0.0
O236 O 0.733 0.57241 0.08147 0.0
C237 C 0.57763 0.55756 0.13445 0.0
O238 O 0.47427 0.59309 0.18129 0.0
C239 C 0.36539 0.577 0.13404 0.0
C240 C 0.5044 0.61181 0.19025 0.0
O241 O 0.5329 0.62926 0.17943 0.0
C242 C 0.54292 0.64428 0.12709 0.0
C243 C 0.31279 0.58755 0.12248 0.0
C244 C 0.31831 0.59283 0.10193 0.0
C245 C 0.26685 0.60131 0.09089 0.0
C246 C 0.21018 0.60503 0.10073 0.0
C247 C 0.20372 0.59957 0.12106 0.0
C248 C 0.25489 0.59061 0.13186 0.0
O249 O 0.57005 0.57741 0.12279 0.0
O250 O 0.5368 0.5556 0.14851 0.0
O251 O 0.72259 0.57982 0.12319 0.0
O252 O 0.72061 0.6205 0.12581 0.0
C253 C 0.75282 0.59988 0.12945 0.0
O254 O 0.50166 0.62954 0.13655 0.0
O255 O 0.59507 0.63692 0.11814 0.0
O256 O 0.37375 0.58623 0.15211 0.0
O257 O 0.41754 0.57254 0.12443 0.0
H258 H 0.36223 0.58998 0.09443 0.0
H259 H 0.16959 0.61073 0.09231 0.0
H260 H 0.24944 0.5858 0.1475 0.0
O261 O 0.83872 0.39807 0.08231 0.0
Tb262 Tb 0.86073 0.39212 0.11329 0.0
Eu263 Eu 0.05207 0.40806 0.13478 0.0
C264 C 0.88142 0.40188 0.06873 0.0
O265 O 0.93997 0.40285 0.074 0.0
C266 C 0.93861 0.43715 0.13051 0.0
O267 O 0.06552 0.39949 0.16745 0.0
C268 C 0.15134 0.41987 0.1148 0.0
C269 C 0.0219 0.38626 0.17659 0.0
O270 O 0.97395 0.37842 0.16618 0.0
C271 C 0.97378 0.3513 0.12065 0.0
C272 C 0.20574 0.40942 0.10382 0.0
C273 C 0.20541 0.40759 0.08278 0.0
C274 C 0.25903 0.40001 0.07221 0.0
C275 C 0.31286 0.39412 0.08307 0.0
C276 C 0.31427 0.39628 0.10391 0.0
C277 C 0.26084 0.40398 0.11417 0.0
O278 O 0.93705 0.41388 0.12338 0.0
O279 O 0.99143 0.44296 0.13831 0.0
O280 O 0.78648 0.41061 0.1303 0.0
O281 O 0.78499 0.37003 0.12627 0.0
C282 C 0.75509 0.38961 0.13365 0.0
O283 O 0.01888 0.36731 0.12644 0.0
O284 O 0.91559 0.35724 0.11593 0.0
O285 O 0.15019 0.41724 0.13433 0.0
O286 O 0.09632 0.41764 0.10651 0.0
H287 H 0.16374 0.41244 0.07462 0.0
H288 H 0.35521 0.38922 0.07525 0.0
H289 H 0.26279 0.40614 0.13023 0.0
O290 O 0.16816 0.38806 0.437 0.0
Tb291 Tb 0.14953 0.39343 0.40549 0.0
Eu292 Eu 0.97487 0.39673 0.36721 0.0
C293 C 0.20335 0.40448 0.44675 0.0
O294 O 0.22464 0.4249 0.43745 0.0
C295 C 0.06708 0.43498 0.38579 0.0
O296 O 0.00535 0.38873 0.33565 0.0
C297 C 0.85632 0.40321 0.37032 0.0
C298 C 0.97988 0.3707 0.32462 0.0
O299 O 0.93774 0.35555 0.33251 0.0
C300 C 0.05551 0.35387 0.38885 0.0
C301 C 0.80384 0.40394 0.38421 0.0
C302 C 0.81077 0.40009 0.4049 0.0
C303 C 0.75853 0.4014 0.41749 0.0
C304 C 0.70064 0.40747 0.40923 0.0
C305 C 0.69374 0.41137 0.38871 0.0
C306 C 0.74531 0.40926 0.37623 0.0
O307 O 0.0676 0.41547 0.39816 0.0
O308 O 0.02693 0.43409 0.37119 0.0
O309 O 0.21888 0.42176 0.39661 0.0
O310 O 0.22605 0.38368 0.38543 0.0
C311 C 0.25101 0.40647 0.38534 0.0
O312 O 0.01571 0.37261 0.39205 0.0
O313 O 0.11312 0.35664 0.39507 0.0
O314 O 0.88169 0.38068 0.36665 0.0
O315 O 0.89639 0.42217 0.37159 0.0
H316 H 0.85599 0.39575 0.41104 0.0
H317 H 0.66029 0.4089 0.41882 0.0
H318 H 0.74001 0.4122 0.36031 0.0
O319 O 0.34058 0.61941 0.43334 0.0
Tb320 Tb 0.35368 0.60876 0.40246 0.0
Eu321 Eu 0.53788 0.58635 0.38207 0.0
C322 C 0.35496 0.60278 0.4473 0.0
O323 O 0.38209 0.58113 0.44224 0.0
C324 C 0.42198 0.55845 0.39084 0.0
O325 O 0.53837 0.58955 0.34864 0.0
C326 C 0.64161 0.5718 0.39785 0.0
C327 C 0.55162 0.61101 0.33918 0.0
O328 O 0.56809 0.63148 0.3494 0.0
C329 C 0.46742 0.64127 0.38645 0.0
C330 C 0.6943 0.58105 0.41001 0.0
C331 C 0.69042 0.5841 0.43093 0.0
C332 C 0.74289 0.59172 0.44203 0.0
C333 C 0.79881 0.59632 0.43188 0.0
C334 C 0.80322 0.59281 0.41124 0.0
C335 C 0.75124 0.58508 0.40044 0.0
O336 O 0.42463 0.58012 0.40071 0.0
O337 O 0.47168 0.55308 0.38083 0.0
O338 O 0.2738 0.62416 0.38666 0.0
O339 O 0.27715 0.58412 0.39304 0.0
C340 C 0.24445 0.6024 0.38502 0.0
O341 O 0.50629 0.62497 0.39506 0.0
O342 O 0.40703 0.637 0.38582 0.0
O343 O 0.63713 0.58108 0.37962 0.0
O344 O 0.58769 0.56855 0.40668 0.0
H345 H 0.64705 0.58043 0.43855 0.0
H346 H 0.84021 0.60136 0.44015 0.0
H347 H 0.75548 0.58199 0.3845 0.0
O348 O 0.35578 0.39065 0.91363 0.0
Tb349 Tb 0.35086 0.38457 0.88145 0.0
Eu350 Eu 0.52037 0.4016 0.87948 0.0
C351 C 0.31419 0.40504 0.92277 0.0
O352 O 0.2736 0.41768 0.91198 0.0
C353 C 0.40711 0.43553 0.87223 0.0
O354 O 0.51253 0.39539 0.84626 0.0
C355 C 0.63185 0.41457 0.89008 0.0
C356 C 0.54996 0.37937 0.83695 0.0
O357 O 0.5912 0.36646 0.84731 0.0
C358 C 0.45961 0.34509 0.88212 0.0
C359 C 0.69118 0.40345 0.89708 0.0
C360 C 0.70471 0.40383 0.9176 0.0
C361 C 0.76219 0.3953 0.9247 0.0
C362 C 0.80557 0.38553 0.91117 0.0
C363 C 0.79403 0.38569 0.89065 0.0
C364 C 0.73694 0.39487 0.88354 0.0
O365 O 0.39166 0.41421 0.8632 0.0
O366 O 0.45579 0.43505 0.88374 0.0
O367 O 0.26387 0.40074 0.87055 0.0
O368 O 0.26873 0.36061 0.87616 0.0
C369 C 0.23313 0.37927 0.87013 0.0
O370 O 0.4982 0.36155 0.89059 0.0
O371 O 0.4085 0.35224 0.87291 0.0
O372 O 0.61584 0.41065 0.87144 0.0
O373 O 0.58467 0.41368 0.9025 0.0
H374 H 0.67146 0.41186 0.92801 0.0
H375 H 0.8501 0.37885 0.91657 0.0
H376 H 0.72887 0.39571 0.86761 0.0
O377 O 0.15969 0.61293 0.9351 0.0
Tb378 Tb 0.14519 0.61126 0.90313 0.0
Eu379 Eu 0.96377 0.59845 0.86914 0.0
C380 C 0.20451 0.59937 0.9432 0.0
O381 O 0.23822 0.58431 0.93179 0.0
C382 C 0.07321 0.56683 0.88188 0.0
O383 O 0.98062 0.6042 0.83635 0.0
C384 C 0.85083 0.58561 0.87672 0.0
C385 C 0.96792 0.62568 0.82685 0.0
O386 O 0.94767 0.64574 0.83687 0.0
C387 C 0.0405 0.64612 0.88597 0.0
C388 C 0.7989 0.59181 0.88997 0.0
C389 C 0.80506 0.59363 0.91084 0.0
C390 C 0.75326 0.59982 0.92271 0.0
C391 C 0.69602 0.60432 0.91339 0.0
C392 C 0.68993 0.60215 0.89269 0.0
C393 C 0.74121 0.59579 0.88109 0.0
O394 O 0.07015 0.58647 0.8941 0.0
O395 O 0.02707 0.56435 0.86948 0.0
O396 O 0.2207 0.58977 0.88922 0.0
O397 O 0.2206 0.63069 0.88782 0.0
C398 C 0.24997 0.60993 0.88263 0.0
O399 O 0.00194 0.62763 0.89107 0.0
O400 O 0.09828 0.6455 0.89232 0.0
O401 O 0.86575 0.60351 0.86367 0.0
O402 O 0.89862 0.57344 0.8844 0.0
H403 H 0.84967 0.59034 0.91777 0.0
H404 H 0.65521 0.60836 0.92229 0.0
H405 H 0.73619 0.59402 0.86504 0.0
O406 O 0.83235 0.60942 0.59987 0.0
Tb407 Tb 0.82781 0.6171 0.63176 0.0
Eu408 Eu 0.9939 0.60141 0.63458 0.0
C409 C 0.79081 0.59447 0.59133 0.0
O410 O 0.75039 0.58238 0.6026 0.0
C411 C 0.88296 0.56494 0.63931 0.0
O412 O 0.975 0.60455 0.66753 0.0
C413 C 0.10972 0.59146 0.62796 0.0
C414 C 0.98857 0.62577 0.67732 0.0
O415 O 0.0115 0.6455 0.66752 0.0
C416 C 0.93454 0.65637 0.62906 0.0
C417 C 0.16338 0.60415 0.6184 0.0
C418 C 0.16589 0.60728 0.59758 0.0
C419 C 0.21804 0.6183 0.58852 0.0
C420 C 0.26731 0.62673 0.60038 0.0
C421 C 0.26642 0.62321 0.62111 0.0
C422 C 0.21426 0.61188 0.63006 0.0
O423 O 0.86252 0.58508 0.64904 0.0
O424 O 0.93321 0.5673 0.62856 0.0
O425 O 0.7396 0.60387 0.64411 0.0
O426 O 0.74729 0.64254 0.63442 0.0
C427 C 0.71036 0.62555 0.64221 0.0
O428 O 0.9703 0.63925 0.62031 0.0
O429 O 0.88606 0.64952 0.63974 0.0
O430 O 0.08974 0.60174 0.64467 0.0
O431 O 0.06472 0.58361 0.61622 0.0
H432 H 0.1281 0.60063 0.58829 0.0
H433 H 0.30878 0.63412 0.59325 0.0
H434 H 0.21378 0.60866 0.64603 0.0
O435 O 0.65496 0.38558 0.57347 0.0
Tb436 Tb 0.64454 0.38317 0.60568 0.0
Eu437 Eu 0.47084 0.38773 0.64606 0.0
C438 C 0.70582 0.39537 0.5657 0.0
O439 O 0.74844 0.40473 0.57764 0.0
C440 C 0.57405 0.42294 0.63235 0.0
O441 O 0.48497 0.37566 0.67799 0.0
C442 C 0.356 0.39949 0.64044 0.0
C443 C 0.53799 0.3778 0.68745 0.0
O444 O 0.58773 0.38501 0.67762 0.0
C445 C 0.54789 0.34478 0.6227 0.0
C446 C 0.30574 0.39478 0.6263 0.0
C447 C 0.31592 0.39264 0.60562 0.0
C448 C 0.26634 0.38653 0.59286 0.0
C449 C 0.2073 0.38244 0.60106 0.0
C450 C 0.19716 0.38498 0.62156 0.0
C451 C 0.24627 0.39131 0.6341 0.0
O452 O 0.56927 0.40498 0.6187 0.0
O453 O 0.53263 0.42253 0.64662 0.0
O454 O 0.7209 0.40371 0.62 0.0
O455 O 0.72249 0.36279 0.61869 0.0
C456 C 0.75163 0.38314 0.62488 0.0
O457 O 0.50777 0.36359 0.62058 0.0
O458 O 0.60271 0.34666 0.61414 0.0
O459 O 0.37376 0.37929 0.65074 0.0
O460 O 0.40186 0.41438 0.63463 0.0
H461 H 0.36197 0.39546 0.59955 0.0
H462 H 0.16832 0.37835 0.59137 0.0
H463 H 0.23834 0.39313 0.65002 0.0
H464 H 0.67543 0.08877 0.13053 0.0
H465 H 0.36092 0.16697 0.11478 0.0
H466 H 0.66085 0.15921 0.09693 0.0
H467 H 0.37279 0.09934 0.15182 0.0
H468 H 0.47367 0.16724 0.1118 0.0
H469 H 0.56887 0.09513 0.14254 0.0
C470 C 0.6504 0.10593 0.12615 0.0
C471 C 0.67674 0.1234 0.11262 0.0
C472 C 0.45191 0.15248 0.1208 0.0
C473 C 0.55468 0.13056 0.12589 0.0
C474 C 0.38744 0.15236 0.12251 0.0
C475 C 0.35754 0.13304 0.13347 0.0
C476 C 0.48694 0.1329 0.12989 0.0
C477 C 0.39414 0.11458 0.1432 0.0
C478 C 0.5894 0.10945 0.13284 0.0
C479 C 0.64202 0.14515 0.1072 0.0
N480 N 0.45691 0.11475 0.14098 0.0
N481 N 0.58273 0.14794 0.11364 0.0
H482 H 0.16094 0.91523 0.13675 0.0
H483 H 0.85616 0.83618 0.11441 0.0
H484 H 0.1581 0.83276 0.12913 0.0
H485 H 0.85224 0.91472 0.1351 0.0
H486 H 0.96555 0.83347 0.12353 0.0
H487 H 0.04786 0.9149 0.14003 0.0
C488 C 0.13654 0.897 0.13618 0.0
C489 C 0.1686 0.87401 0.13246 0.0
C490 C 0.94068 0.85118 0.12648 0.0
C491 C 0.03955 0.8735 0.13588 0.0
C492 C 0.87825 0.85266 0.12132 0.0
C493 C 0.84554 0.8757 0.12401 0.0
C494 C 0.97101 0.8731 0.13396 0.0
C495 C 0.87604 0.89659 0.1329 0.0
C496 C 0.07203 0.89681 0.13803 0.0
C497 C 0.13499 0.85093 0.13184 0.0
N498 N 0.93749 0.89496 0.13724 0.0
N499 N 0.07222 0.85131 0.13321 0.0
H500 H 0.88617 0.88733 0.35314 0.0
H501 H 0.17893 0.82914 0.41089 0.0
H502 H 0.87675 0.82691 0.39709 0.0
H503 H 0.18732 0.89958 0.37706 0.0
H504 H 0.0727 0.82252 0.39949 0.0
H505 H 0.99971 0.887 0.3559 0.0
C506 C 0.90808 0.87371 0.36312 0.0
C507 C 0.87212 0.8572 0.37499 0.0
C508 C 0.09793 0.83923 0.39426 0.0
C509 C 0.00162 0.85669 0.3782 0.0
C510 C 0.15874 0.84291 0.40064 0.0
C511 C 0.19177 0.86502 0.395 0.0
C512 C 0.06944 0.85788 0.3822 0.0
C513 C 0.1635 0.88224 0.38169 0.0
C514 C 0.97279 0.87359 0.36473 0.0
C515 C 0.90273 0.84003 0.38774 0.0
N516 N 0.10354 0.87851 0.37596 0.0
N517 N 0.96556 0.84031 0.38907 0.0
H518 H 0.63546 0.17667 0.38064 0.0
H519 H 0.32355 0.09531 0.36892 0.0
H520 H 0.63018 0.09502 0.36892 0.0
H521 H 0.33373 0.17037 0.39622 0.0
H522 H 0.43292 0.09901 0.35943 0.0
H523 H 0.52265 0.17829 0.37716 0.0
C524 C 0.61058 0.15918 0.37699 0.0
C525 C 0.64176 0.13561 0.37534 0.0
C526 C 0.41083 0.1149 0.36712 0.0
C527 C 0.51317 0.13729 0.3714 0.0
C528 C 0.34839 0.11289 0.37237 0.0
C529 C 0.32006 0.1325 0.38349 0.0
C530 C 0.44478 0.13671 0.373 0.0
C531 C 0.3543 0.15476 0.3878 0.0
C532 C 0.54628 0.1601 0.37505 0.0
C533 C 0.60758 0.11352 0.37051 0.0
N534 N 0.41511 0.15615 0.38274 0.0
N535 N 0.54492 0.11483 0.36892 0.0
H536 H 0.34003 0.91198 0.86959 0.0
H537 H 0.65211 0.82939 0.87506 0.0
H538 H 0.35128 0.83405 0.89134 0.0
H539 H 0.64921 0.91216 0.86971 0.0
H540 H 0.5394 0.82874 0.87177 0.0
H541 H 0.45023 0.90998 0.86046 0.0
C542 C 0.36537 0.89422 0.87189 0.0
C543 C 0.33699 0.87316 0.88127 0.0
C544 C 0.56344 0.84702 0.87101 0.0
C545 C 0.4624 0.8708 0.87112 0.0
C546 C 0.62776 0.8474 0.87282 0.0
C547 C 0.65972 0.87089 0.8729 0.0
C548 C 0.53085 0.87032 0.86929 0.0
C549 C 0.62606 0.89365 0.86987 0.0
C550 C 0.4282 0.89316 0.86685 0.0
C551 C 0.37177 0.8507 0.8842 0.0
N552 N 0.56322 0.89284 0.86842 0.0
N553 N 0.43278 0.85018 0.87929 0.0
H554 H 0.15552 0.15725 0.91111 0.0
H555 H 0.86449 0.09221 0.85744 0.0
H556 H 0.16602 0.08497 0.87968 0.0
H557 H 0.85588 0.16188 0.89233 0.0
H558 H 0.97777 0.09273 0.86036 0.0
H559 H 0.04984 0.16304 0.89897 0.0
C560 C 0.13582 0.14284 0.90129 0.0
C561 C 0.16929 0.12052 0.8965 0.0
C562 C 0.95118 0.1081 0.86714 0.0
C563 C 0.04767 0.12671 0.88284 0.0
C564 C 0.88656 0.10785 0.86543 0.0
C565 C 0.85087 0.12694 0.87479 0.0
C566 C 0.98018 0.1276 0.87829 0.0
C567 C 0.88168 0.14671 0.88499 0.0
C568 C 0.07538 0.14607 0.89443 0.0
C569 C 0.14178 0.10248 0.88367 0.0
N570 N 0.94444 0.14641 0.88661 0.0
N571 N 0.08215 0.10577 0.87753 0.0
H572 H 0.84934 0.07834 0.63597 0.0
H573 H 0.16142 0.16127 0.63201 0.0
H574 H 0.86154 0.15609 0.61387 0.0
H575 H 0.15888 0.07844 0.63676 0.0
H576 H 0.04851 0.1617 0.63469 0.0
H577 H 0.95925 0.08039 0.6454 0.0
C578 C 0.87483 0.09606 0.63362 0.0
C579 C 0.84678 0.11706 0.62408 0.0
C580 C 0.07267 0.14345 0.63546 0.0
C581 C 0.97184 0.1195 0.63463 0.0
C582 C 0.1371 0.1432 0.63402 0.0
C583 C 0.16927 0.11976 0.63394 0.0
C584 C 0.04017 0.12008 0.63683 0.0
C585 C 0.13561 0.09691 0.63664 0.0
C586 C 0.93749 0.09716 0.63884 0.0
C587 C 0.88178 0.13947 0.62111 0.0
N588 N 0.07267 0.0976 0.63774 0.0
N589 N 0.94259 0.14004 0.62623 0.0
H590 H 0.35069 0.91143 0.64744 0.0
H591 H 0.64105 0.84127 0.59869 0.0
H592 H 0.34383 0.83526 0.6219 0.0
H593 H 0.65292 0.91479 0.6283 0.0
H594 H 0.53585 0.83598 0.61153 0.0
H595 H 0.46383 0.91056 0.64499 0.0
C596 C 0.37315 0.89433 0.64163 0.0
C597 C 0.338 0.87347 0.63468 0.0
C598 C 0.56166 0.8531 0.61554 0.0
C599 C 0.46725 0.87243 0.6316 0.0
C600 C 0.62175 0.85607 0.60824 0.0
C601 C 0.65539 0.87858 0.61232 0.0
C602 C 0.53451 0.87296 0.62678 0.0
C603 C 0.62851 0.89713 0.62484 0.0
C604 C 0.43772 0.89385 0.64021 0.0
C605 C 0.36928 0.8518 0.62732 0.0
N606 N 0.5692 0.89412 0.63136 0.0
N607 N 0.43207 0.85198 0.62573 0.0
H608 H 0.82744 0.55821 0.1359 0.0
H609 H 0.12973 0.64181 0.12349 0.0
H610 H 0.82677 0.64127 0.13687 0.0
H611 H 0.13591 0.5611 0.13819 0.0
H612 H 0.01953 0.64254 0.1319 0.0
H613 H 0.94008 0.55879 0.1403 0.0
C614 C 0.85095 0.57655 0.13743 0.0
C615 C 0.81813 0.59975 0.13578 0.0
C616 C 0.04506 0.62475 0.13371 0.0
C617 C 0.94666 0.60059 0.14051 0.0
C618 C 0.10792 0.62439 0.12896 0.0
C619 C 0.14151 0.60137 0.13016 0.0
C620 C 0.01526 0.60176 0.13925 0.0
C621 C 0.11139 0.57924 0.13719 0.0
C622 C 0.9152 0.57688 0.13994 0.0
C623 C 0.85055 0.62296 0.1379 0.0
N624 N 0.04956 0.57984 0.14112 0.0
N625 N 0.91317 0.62281 0.13983 0.0
H626 H 0.39053 0.35449 0.10236 0.0
H627 H 0.67912 0.43018 0.1427 0.0
H628 H 0.37276 0.4295 0.1293 0.0
H629 H 0.67911 0.34781 0.13436 0.0
H630 H 0.56575 0.42991 0.14114 0.0
H631 H 0.49468 0.3508 0.11639 0.0
C632 C 0.40844 0.37001 0.11149 0.0
C633 C 0.37344 0.39236 0.11462 0.0
C634 C 0.59047 0.41181 0.14014 0.0
C635 C 0.49275 0.38856 0.13046 0.0
C636 C 0.65515 0.41195 0.14113 0.0
C637 C 0.68839 0.38902 0.13839 0.0
C638 C 0.55922 0.38863 0.13608 0.0
C639 C 0.65519 0.36595 0.13634 0.0
C640 C 0.46772 0.3679 0.11956 0.0
C641 C 0.39843 0.41193 0.12661 0.0
N642 N 0.59248 0.36641 0.13481 0.0
N643 N 0.45708 0.40979 0.13381 0.0
H644 H 0.63277 0.38494 0.35955 0.0
H645 H 0.3133 0.45181 0.38854 0.0
H646 H 0.61387 0.44935 0.39968 0.0
H647 H 0.32869 0.37509 0.36434 0.0
H648 H 0.42355 0.45858 0.38207 0.0
H649 H 0.52254 0.38877 0.35111 0.0
C650 C 0.60565 0.40028 0.36616 0.0
C651 C 0.63166 0.41661 0.38054 0.0
C652 C 0.40253 0.44045 0.3778 0.0
C653 C 0.50655 0.42107 0.37107 0.0
C654 C 0.33965 0.43662 0.38142 0.0
C655 C 0.31256 0.41266 0.37735 0.0
C656 C 0.43825 0.42013 0.37012 0.0
C657 C 0.34836 0.39369 0.36798 0.0
C658 C 0.54292 0.40241 0.36142 0.0
C659 C 0.59493 0.43616 0.38876 0.0
N660 N 0.40984 0.39766 0.36498 0.0
N661 N 0.53395 0.43768 0.38408 0.0
H662 H 0.1745 0.55868 0.38285 0.0
H663 H 0.87738 0.63512 0.41049 0.0
H664 H 0.16454 0.64128 0.37664 0.0
H665 H 0.86548 0.55677 0.38959 0.0
H666 H 0.98243 0.63795 0.39688 0.0
H667 H 0.06112 0.55687 0.38315 0.0
C668 C 0.14835 0.57634 0.38103 0.0
C669 C 0.17849 0.60021 0.38007 0.0
C670 C 0.95648 0.62028 0.39493 0.0
C671 C 0.04973 0.59836 0.38085 0.0
C672 C 0.89689 0.61866 0.4028 0.0
C673 C 0.86349 0.59566 0.4012 0.0
C674 C 0.98319 0.59851 0.38591 0.0
C675 C 0.8902 0.57481 0.39107 0.0
C676 C 0.08378 0.57531 0.38122 0.0
C677 C 0.14283 0.62252 0.37765 0.0
N678 N 0.94915 0.57655 0.38409 0.0
N679 N 0.08017 0.62114 0.37859 0.0
H680 H 0.15681 0.41681 0.8561 0.0
H681 H 0.85641 0.34028 0.88776 0.0
H682 H 0.15803 0.33712 0.87413 0.0
H683 H 0.85327 0.41771 0.86484 0.0
H684 H 0.96293 0.33553 0.87591 0.0
H685 H 0.04412 0.41491 0.85299 0.0
C686 C 0.13329 0.39879 0.85914 0.0
C687 C 0.16647 0.37718 0.86565 0.0
C688 C 0.93856 0.35334 0.87292 0.0
C689 C 0.03748 0.37488 0.86231 0.0
C690 C 0.87753 0.35591 0.87949 0.0
C691 C 0.84638 0.37944 0.87729 0.0
C692 C 0.96893 0.37464 0.86445 0.0
C693 C 0.87578 0.39924 0.86672 0.0
C694 C 0.06895 0.39769 0.85732 0.0
C695 C 0.13397 0.35428 0.86925 0.0
N696 N 0.93599 0.39662 0.86109 0.0
N697 N 0.07113 0.35383 0.86783 0.0
H698 H 0.32041 0.65132 0.87294 0.0
H699 H 0.62816 0.56729 0.8699 0.0
H700 H 0.32171 0.56822 0.87374 0.0
H701 H 0.61401 0.64377 0.89454 0.0
H702 H 0.52022 0.57039 0.85861 0.0
H703 H 0.43221 0.65113 0.86727 0.0
C704 C 0.34409 0.63303 0.87141 0.0
C705 C 0.31263 0.60975 0.87432 0.0
C706 C 0.54133 0.58666 0.8661 0.0
C707 C 0.43958 0.60944 0.86795 0.0
C708 C 0.60254 0.58492 0.87251 0.0
C709 C 0.62893 0.60519 0.88336 0.0
C710 C 0.50716 0.60894 0.87043 0.0
C711 C 0.5945 0.62764 0.88645 0.0
C712 C 0.40772 0.63295 0.86822 0.0
C713 C 0.34492 0.58657 0.87195 0.0
N714 N 0.53498 0.62886 0.88014 0.0
N715 N 0.40722 0.58697 0.86924 0.0
H716 H 0.64116 0.66867 0.63557 0.0
H717 H 0.32487 0.59124 0.6474 0.0
H718 H 0.62831 0.59055 0.65698 0.0
H719 H 0.33983 0.66612 0.62003 0.0
H720 H 0.43188 0.59514 0.65893 0.0
H721 H 0.52819 0.67211 0.63723 0.0
C722 C 0.61451 0.65239 0.64091 0.0
C723 C 0.64371 0.62918 0.64587 0.0
C724 C 0.41138 0.61097 0.65076 0.0
C725 C 0.51483 0.63286 0.64771 0.0
C726 C 0.35008 0.60885 0.64435 0.0
C727 C 0.3239 0.62824 0.63251 0.0
C728 C 0.44661 0.63258 0.6452 0.0
C729 C 0.35879 0.65055 0.62885 0.0
C730 C 0.55009 0.65433 0.64185 0.0
C731 C 0.60732 0.6087 0.65282 0.0
N732 N 0.4187 0.65194 0.63489 0.0
N733 N 0.54464 0.6109 0.6533 0.0
H734 H 0.12234 0.34319 0.6187 0.0
H735 H 0.82372 0.42428 0.63509 0.0
H736 H 0.12996 0.4204 0.64219 0.0
H737 H 0.82207 0.34123 0.63284 0.0
H738 H 0.93517 0.42308 0.64176 0.0
H739 H 0.01255 0.34107 0.62737 0.0
C740 C 0.10076 0.35951 0.62601 0.0
C741 C 0.1343 0.38207 0.62959 0.0
C742 C 0.91014 0.40511 0.64029 0.0
C743 C 0.00921 0.38012 0.63919 0.0
C744 C 0.8467 0.40581 0.63645 0.0
C745 C 0.81451 0.38283 0.63299 0.0
C746 C 0.94107 0.38129 0.64032 0.0
C747 C 0.84579 0.35938 0.63507 0.0
C748 C 0.03835 0.35831 0.63104 0.0
C749 C 0.10503 0.40272 0.63918 0.0
N750 N 0.90775 0.35921 0.63821 0.0
N751 N 0.04353 0.40148 0.6433 0.0
H752 H 0.14004 0.12809 0.0598 0.0
H753 H 0.32084 0.07048 0.96546 0.0
H754 H 0.27492 0.06708 0.06468 0.0
H755 H 0.21976 0.14218 0.96454 0.0
H756 H 0.30059 0.06706 1.00131 0.0
H757 H 0.16138 0.13069 0.02406 0.0
C758 C 0.17364 0.11503 0.05334 0.0
C759 C 0.20587 0.0974 0.0653 0.0
C760 C 0.28311 0.08359 0.99325 0.0
C761 C 0.231 0.10045 0.02435 0.0
C762 C 0.29516 0.08569 0.9728 0.0
C763 C 0.2717 0.10659 0.96186 0.0
C764 C 0.247 0.10242 1.00283 0.0
C765 C 0.23787 0.12548 0.97222 0.0
C766 C 0.18618 0.11667 0.03294 0.0
C767 C 0.2491 0.08104 0.05605 0.0
N768 N 0.22622 0.12286 0.99203 0.0
N769 N 0.26048 0.08298 0.03615 0.0
H770 H 0.20177 0.91808 0.04771 0.0
H771 H 0.26893 0.84199 0.94615 0.0
H772 H 0.34363 0.86012 0.04129 0.0
H773 H 0.16448 0.91278 0.948 0.0
H774 H 0.28457 0.84495 0.98211 0.0
H775 H 0.17771 0.91368 0.01218 0.0
C776 C 0.22802 0.90448 0.03883 0.0
C777 C 0.27495 0.88948 0.04751 0.0
C778 C 0.25789 0.85977 0.97469 0.0
C779 C 0.24692 0.88411 0.00689 0.0
C780 C 0.24878 0.85807 0.95415 0.0
C781 C 0.21592 0.87733 0.94394 0.0
C782 C 0.23368 0.88081 0.98528 0.0
C783 C 0.18987 0.89743 0.95521 0.0
C784 C 0.21415 0.90197 0.01855 0.0
C785 C 0.30732 0.87218 0.03525 0.0
N786 N 0.19968 0.89875 0.97526 0.0
N787 N 0.29252 0.86989 0.01562 0.0
H788 H 0.64344 0.86339 0.44742 0.0
H789 H 0.80849 0.92606 0.54266 0.0
H790 H 0.77793 0.92469 0.4433 0.0
H791 H 0.70701 0.85443 0.54447 0.0
H792 H 0.79247 0.92783 0.50661 0.0
H793 H 0.65788 0.86268 0.48359 0.0
C794 C 0.67548 0.8769 0.45413 0.0
C795 C 0.70973 0.89404 0.4423 0.0
C796 C 0.77391 0.91168 0.51491 0.0
C797 C 0.72687 0.89319 0.48367 0.0
C798 C 0.78355 0.91052 0.53548 0.0
C799 C 0.75903 0.89007 0.5467 0.0
C800 C 0.73914 0.89235 0.50544 0.0
C801 C 0.726 0.87078 0.53653 0.0
C802 C 0.68405 0.87635 0.47477 0.0
C803 C 0.75075 0.91106 0.45183 0.0
N804 N 0.7168 0.87246 0.51654 0.0
N805 N 0.75828 0.91016 0.47194 0.0
H806 H 0.84063 0.13959 0.46255 0.0
H807 H 0.66954 0.07914 0.55766 0.0
H808 H 0.70358 0.07936 0.45795 0.0
H809 H 0.77847 0.1488 0.55955 0.0
H810 H 0.68175 0.0782 0.52133 0.0
H811 H 0.82186 0.14167 0.49846 0.0
C812 C 0.80689 0.12667 0.46909 0.0
C813 C 0.77367 0.10928 0.45716 0.0
C814 C 0.70257 0.09379 0.5297 0.0
C815 C 0.75156 0.11166 0.49838 0.0
C816 C 0.69511 0.09448 0.55045 0.0
C817 C 0.72339 0.11398 0.56177 0.0
C818 C 0.73886 0.11264 0.5202 0.0
C819 C 0.75674 0.13313 0.55153 0.0
C820 C 0.79587 0.12798 0.48961 0.0
C821 C 0.73027 0.0931 0.46653 0.0
N822 N 0.76396 0.13185 0.53142 0.0
N823 N 0.72054 0.09465 0.48656 0.0
H824 H 0.84579 0.85886 0.96308 0.0
H825 H 0.66842 0.91527 0.05802 0.0
H826 H 0.69856 0.9147 0.95811 0.0
H827 H 0.77708 0.84552 0.05926 0.0
H828 H 0.68022 0.91661 0.02171 0.0
H829 H 0.8256 0.85581 0.99885 0.0
C830 C 0.80942 0.87059 0.96952 0.0
C831 C 0.77383 0.88706 0.95756 0.0
C832 C 0.70101 0.9009 0.02994 0.0
C833 C 0.75028 0.88359 0.99856 0.0
C834 C 0.69382 0.89999 0.05066 0.0
C835 C 0.72225 0.88037 0.06179 0.0
C836 C 0.73729 0.88219 0.02029 0.0
C837 C 0.75537 0.8613 0.05139 0.0
C838 C 0.79762 0.8687 0.98994 0.0
C839 C 0.72708 0.9017 0.96675 0.0
N840 N 0.76248 0.86284 0.0313 0.0
N841 N 0.71679 0.8997 0.98671 0.0
H842 H 0.63632 0.12431 0.94981 0.0
H843 H 0.82601 0.07137 0.04381 0.0
H844 H 0.77332 0.06409 0.945 0.0
H845 H 0.72283 0.14256 0.04393 0.0
H846 H 0.8033 0.06642 0.00822 0.0
H847 H 0.66011 0.12828 0.9853 0.0
C848 C 0.67088 0.1117 0.95625 0.0
C849 C 0.70299 0.09389 0.94436 0.0
C850 C 0.78591 0.08317 0.01605 0.0
C851 C 0.73096 0.09853 0.98502 0.0
C852 C 0.79936 0.08614 0.03634 0.0
C853 C 0.77602 0.10734 0.04699 0.0
C854 C 0.74851 0.10143 0.00635 0.0
C855 C 0.74091 0.12566 0.03648 0.0
C856 C 0.68483 0.11413 0.9765 0.0
C857 C 0.74753 0.07815 0.95356 0.0
N858 N 0.72792 0.12218 0.01685 0.0
N859 N 0.76028 0.08086 0.97332 0.0
H860 H 0.2526 0.15826 0.44998 0.0
H861 H 0.20463 0.07543 0.54931 0.0
H862 H 0.16035 0.08452 0.45005 0.0
H863 H 0.33962 0.1363 0.54361 0.0
H864 H 0.17747 0.08101 0.51413 0.0
H865 H 0.27202 0.15365 0.48564 0.0
C866 C 0.23592 0.14117 0.45753 0.0
C867 C 0.2054 0.1216 0.44689 0.0
C868 C 0.21312 0.09308 0.52058 0.0
C869 C 0.22744 0.11625 0.48788 0.0
C870 C 0.22875 0.0899 0.54065 0.0
C871 C 0.27463 0.10539 0.54944 0.0
C872 C 0.24297 0.11212 0.50924 0.0
C873 C 0.30425 0.12383 0.53747 0.0
C874 C 0.24721 0.13853 0.4779 0.0
C875 C 0.18378 0.10015 0.45761 0.0
N876 N 0.28767 0.12677 0.51804 0.0
N877 N 0.19557 0.09797 0.47749 0.0
H878 H 0.33494 0.9211 0.46282 0.0
H879 H 0.13809 0.87051 0.55621 0.0
H880 H 0.2383 0.84834 0.46399 0.0
H881 H 0.27003 0.93268 0.56085 0.0
H882 H 0.16752 0.86479 0.52129 0.0
H883 H 0.30855 0.92739 0.49808 0.0
C884 C 0.30905 0.90626 0.47053 0.0
C885 C 0.28843 0.88424 0.46032 0.0
C886 C 0.18993 0.87975 0.52992 0.0
C887 C 0.25669 0.89166 0.50052 0.0
C888 C 0.17273 0.88317 0.54984 0.0
C889 C 0.20168 0.90208 0.56153 0.0
C890 C 0.23614 0.89545 0.52151 0.0
C891 C 0.24656 0.91781 0.55243 0.0
C892 C 0.29348 0.90999 0.49061 0.0
C893 C 0.25425 0.86585 0.4711 0.0
N894 N 0.26245 0.91414 0.53299 0.0
N895 N 0.23907 0.87008 0.49049 0.0
H896 H 0.64151 0.62038 0.04457 0.0
H897 H 0.81176 0.56556 0.94761 0.0
H898 H 0.77777 0.55965 0.04713 0.0
H899 H 0.70109 0.63474 0.94824 0.0
H900 H 0.80247 0.56318 0.98399 0.0
H901 H 0.66248 0.6253 0.00905 0.0
C902 C 0.67573 0.60801 0.03766 0.0
C903 C 0.70779 0.58952 0.04886 0.0
C904 C 0.78074 0.57901 0.97617 0.0
C905 C 0.7323 0.59513 0.00808 0.0
C906 C 0.78648 0.5805 0.95542 0.0
C907 C 0.75658 0.60022 0.94484 0.0
C908 C 0.74465 0.59732 0.98636 0.0
C909 C 0.72389 0.61891 0.95574 0.0
C910 C 0.68797 0.61093 0.01736 0.0
C911 C 0.7519 0.57413 0.03907 0.0
N912 N 0.71832 0.61686 0.97584 0.0
N913 N 0.76269 0.57721 0.01922 0.0
H914 H 0.87219 0.41207 0.94014 0.0
H915 H 0.76483 0.39785 0.05349 0.0
H916 H 0.69068 0.38551 0.95775 0.0
H917 H 0.95533 0.40935 0.03586 0.0
H918 H 0.73462 0.39797 0.01855 0.0
H919 H 0.90106 0.41543 0.97517 0.0
C920 C 0.83849 0.40676 0.95138 0.0
C921 C 0.77913 0.39813 0.946 0.0
C922 C 0.78301 0.40052 0.02231 0.0
C923 C 0.81165 0.40244 0.98615 0.0
C924 C 0.80039 0.40052 0.04227 0.0
C925 C 0.86287 0.40344 0.04761 0.0
C926 C 0.82833 0.40356 0.00751 0.0
C927 C 0.90671 0.40693 0.03241 0.0
C928 C 0.85494 0.40885 0.97138 0.0
C929 C 0.73684 0.39229 0.96122 0.0
N930 N 0.88859 0.40683 0.01301 0.0
N931 N 0.754 0.39448 0.98063 0.0
H932 H 0.17221 0.36318 0.47006 0.0
H933 H 0.32451 0.4217 0.56885 0.0
H934 H 0.27339 0.4349 0.47135 0.0
H935 H 0.22316 0.35016 0.56695 0.0
H936 H 0.3178 0.42435 0.53243 0.0
H937 H 0.19939 0.35609 0.50494 0.0
C938 C 0.20018 0.37744 0.47767 0.0
C939 C 0.22006 0.39978 0.46781 0.0
C940 C 0.29773 0.4079 0.53996 0.0
C941 C 0.25162 0.39174 0.50778 0.0
C942 C 0.30209 0.40627 0.56072 0.0
C943 C 0.2737 0.38584 0.5709 0.0
C944 C 0.26471 0.38896 0.52939 0.0
C945 C 0.24478 0.36646 0.55967 0.0
C946 C 0.21591 0.37333 0.49759 0.0
C947 C 0.25667 0.41748 0.4784 0.0
N948 N 0.24043 0.36863 0.53956 0.0
N949 N 0.27097 0.41315 0.49784 0.0
H950 H 0.20102 0.57747 0.56375 0.0
H951 H 0.31754 0.64777 0.465 0.0
H952 H 0.25489 0.65748 0.56385 0.0
H953 H 0.34187 0.56655 0.47629 0.0
H954 H 0.27595 0.65288 0.49888 0.0
H955 H 0.23049 0.57456 0.52862 0.0
C956 C 0.21774 0.59457 0.55622 0.0
C957 C 0.22566 0.61774 0.56663 0.0
C958 C 0.29058 0.634 0.49386 0.0
C959 C 0.26022 0.61446 0.52667 0.0
C960 C 0.31434 0.63107 0.47462 0.0
C961 C 0.33347 0.60673 0.46792 0.0
C962 C 0.28486 0.61234 0.50622 0.0
C963 C 0.32818 0.5857 0.48091 0.0
C964 C 0.2352 0.59282 0.53628 0.0
C965 C 0.24845 0.63925 0.55629 0.0
N966 N 0.30397 0.58896 0.49941 0.0
N967 N 0.26518 0.63709 0.53682 0.0
H968 H 0.20584 0.43423 0.0458 0.0
H969 H 0.37632 0.37485 0.94984 0.0
H970 H 0.31836 0.36557 0.04749 0.0
H971 H 0.23823 0.43471 0.9462 0.0
H972 H 0.36023 0.37295 0.98596 0.0
H973 H 0.21903 0.4357 0.00956 0.0
C974 C 0.23262 0.41925 0.03859 0.0
C975 C 0.26125 0.39982 0.04988 0.0
C976 C 0.33351 0.38654 0.97726 0.0
C977 C 0.2778 0.40177 0.00827 0.0
C978 C 0.34297 0.38774 0.95663 0.0
C979 C 0.3086 0.40496 0.94489 0.0
C980 C 0.28959 0.40278 0.98634 0.0
C981 C 0.26577 0.4211 0.95459 0.0
C982 C 0.24062 0.42025 0.01787 0.0
C983 C 0.29627 0.38121 0.03956 0.0
N984 N 0.25752 0.41962 0.97469 0.0
N985 N 0.30382 0.38274 0.01945 0.0
H986 H 0.15277 0.63234 0.97043 0.0
H987 H 0.32473 0.5697 0.06386 0.0
H988 H 0.28732 0.57123 0.96509 0.0
H989 H 0.21396 0.63873 0.06757 0.0
H990 H 0.31527 0.57088 0.02757 0.0
H991 H 0.17576 0.63529 0.00602 0.0
C992 C 0.18714 0.61953 0.97674 0.0
C993 C 0.21792 0.60143 0.96477 0.0
C994 C 0.29356 0.58593 0.03631 0.0
C995 C 0.24461 0.60472 0.00553 0.0
C996 C 0.29943 0.5854 0.05705 0.0
C997 C 0.26964 0.60403 0.06883 0.0
C998 C 0.2573 0.60511 0.02728 0.0
C999 C 0.23673 0.62369 0.05912 0.0
C1000 C 0.20048 0.62131 0.99705 0.0
C1001 C 0.26231 0.58544 0.97375 0.0
N1002 N 0.23092 0.62357 0.03895 0.0
N1003 N 0.27407 0.58736 0.9936 0.0
H1004 H 0.85332 0.62316 0.56348 0.0
H1005 H 0.68619 0.55924 0.46897 0.0
H1006 H 0.71435 0.5638 0.56885 0.0
H1007 H 0.79829 0.62795 0.46591 0.0
H1008 H 0.6967 0.5597 0.50536 0.0
H1009 H 0.83752 0.62341 0.5274 0.0
C1010 C 0.81979 0.61004 0.55708 0.0
C1011 C 0.78511 0.59345 0.56927 0.0
C1012 C 0.71867 0.57476 0.49671 0.0
C1013 C 0.76641 0.59375 0.52785 0.0
C1014 C 0.71221 0.57464 0.47592 0.0
C1015 C 0.7418 0.59346 0.46426 0.0
C1016 C 0.75522 0.59376 0.50593 0.0
C1017 C 0.7756 0.61275 0.47419 0.0
C1018 C 0.81048 0.6103 0.53646 0.0
C1019 C 0.7421 0.57695 0.56006 0.0
N1020 N 0.78175 0.61227 0.49435 0.0
N1021 N 0.73401 0.5775 0.53994 0.0
H1022 H 0.63462 0.37238 0.53698 0.0
H1023 H 0.83896 0.42223 0.44499 0.0
H1024 H 0.80188 0.41684 0.54463 0.0
H1025 H 0.68474 0.36993 0.43957 0.0
H1026 H 0.83034 0.41928 0.4815 0.0
H1027 H 0.65416 0.37097 0.50115 0.0
C1028 C 0.67541 0.38191 0.53113 0.0
C1029 C 0.7165 0.39482 0.54385 0.0
C1030 C 0.79886 0.40824 0.47229 0.0
C1031 C 0.73945 0.39323 0.50271 0.0
C1032 C 0.80415 0.40976 0.45149 0.0
C1033 C 0.76207 0.39653 0.43928 0.0
C1034 C 0.75112 0.39341 0.48084 0.0
C1035 C 0.71751 0.38077 0.44845 0.0
C1036 C 0.68677 0.381 0.51064 0.0
C1037 C 0.76885 0.40669 0.53538 0.0
N1038 N 0.71284 0.37986 0.46861 0.0
N1039 N 0.77869 0.4057 0.51535 0.0
H1040 H 0.11106 0.0277 0.10328 0.0
H1041 H 0.34331 0.93323 0.09991 0.0
H1042 H 0.19933 0.04883 0.15863 0.0
H1043 H 0.35862 0.94604 0.1632 0.0
H1044 H 0.26211 0.96612 0.09834 0.0
H1045 H 0.17208 0.98793 0.10275 0.0
C1046 C 0.14299 0.02389 0.11536 0.0
C1047 C 0.15068 0.04173 0.1309 0.0
C1048 C 0.2818 0.9613 0.11267 0.0
C1049 C 0.22165 0.99668 0.13019 0.0
C1050 C 0.32834 0.94259 0.11352 0.0
C1051 C 0.3568 0.93676 0.13174 0.0
C1052 C 0.2645 0.97442 0.13019 0.0
C1053 C 0.3374 0.94988 0.14889 0.0
C1054 C 0.17842 0.00132 0.11493 0.0
C1055 C 0.19244 0.0358 0.14622 0.0
N1056 N 0.29279 0.96819 0.14766 0.0
N1057 N 0.22636 0.01386 0.14543 0.0
H1058 H 0.90454 0.04312 0.39625 0.0
H1059 H 0.58336 0.97182 0.38302 0.0
H1060 H 0.76819 0.07753 0.35778 0.0
H1061 H 0.75859 0.9336 0.37395 0.0
H1062 H 0.63862 0.01351 0.38436 0.0
H1063 H 0.83782 0.00512 0.39978 0.0
C1064 C 0.85941 0.04304 0.38919 0.0
C1065 C 0.84053 0.06379 0.37736 0.0
C1066 C 0.66451 0.99587 0.38217 0.0
C1067 C 0.76483 0.02053 0.38109 0.0
C1068 C 0.63328 0.97221 0.38142 0.0
C1069 C 0.66654 0.94933 0.37826 0.0
C1070 C 0.72928 0.9963 0.38047 0.0
C1071 C 0.73113 0.95079 0.37626 0.0
C1072 C 0.82175 0.02139 0.3911 0.0
C1073 C 0.78275 0.06245 0.36787 0.0
N1074 N 0.76044 0.97383 0.37762 0.0
N1075 N 0.74661 0.0411 0.36995 0.0
H1076 H 0.83753 0.92963 0.90528 0.0
H1077 H 0.60276 0.02282 0.9044 0.0
H1078 H 0.85079 0.94417 0.84217 0.0
H1079 H 0.68877 0.04574 0.84905 0.0
H1080 H 0.66435 0.9832 0.90394 0.0
H1081 H 0.75515 0.9619 0.90768 0.0
C1082 C 0.82186 0.93926 0.89189 0.0
C1083 C 0.85 0.93413 0.87348 0.0
C1084 C 0.67005 0.99696 0.89198 0.0
C1085 C 0.75635 0.97097 0.87595 0.0
C1086 C 0.63433 0.01943 0.89212 0.0
C1087 C 0.64136 0.03772 0.87688 0.0
C1088 C 0.71288 0.99293 0.87647 0.0
C1089 C 0.68252 0.03234 0.86126 0.0
C1090 C 0.77464 0.95759 0.8932 0.0
C1091 C 0.82979 0.94753 0.85661 0.0
N1092 N 0.7168 0.01051 0.8615 0.0
N1093 N 0.78445 0.96545 0.85828 0.0
H1094 H 0.09525 0.97565 0.60331 0.0
H1095 H 0.34651 0.06123 0.60033 0.0
H1096 H 0.18382 0.94857 0.65703 0.0
H1097 H 0.35955 0.0468 0.66346 0.0
H1098 H 0.26081 0.03038 0.59828 0.0
H1099 H 0.16503 0.01287 0.60315 0.0
C1100 C 0.12922 0.9776 0.61508 0.0
C1101 C 0.13434 0.95889 0.63008 0.0
C1102 C 0.28118 0.03442 0.61268 0.0
C1103 C 0.21492 0.00089 0.62977 0.0
C1104 C 0.33024 0.05189 0.61379 0.0
C1105 C 0.35897 0.05674 0.63213 0.0
C1106 C 0.2617 0.02158 0.63004 0.0
C1107 C 0.33803 0.04369 0.64908 0.0
C1108 C 0.16952 -0.00133 0.61485 0.0
C1109 C 0.17878 0.96237 0.64505 0.0
N1110 N 0.29082 0.0266 0.64761 0.0
N1111 N 0.21736 0.98292 0.64448 0.0
H1112 H 0.85431 0.44512 0.10092 0.0
H1113 H 0.64285 0.53884 0.1659 0.0
H1114 H 0.90461 0.47012 0.15999 0.0
H1115 H 0.63494 0.53768 0.10169 0.0
H1116 H 0.73221 0.5098 0.16471 0.0
H1117 H 0.76654 0.47523 0.10144 0.0
C1118 C 0.84644 0.45685 0.11402 0.0
C1119 C 0.88566 0.45493 0.13057 0.0
C1120 C 0.71115 0.51599 0.15088 0.0
C1121 C 0.78646 0.48936 0.13126 0.0
C1122 C 0.66019 0.53245 0.15156 0.0
C1123 C 0.63236 0.54078 0.13386 0.0
C1124 C 0.73334 0.50732 0.13236 0.0
C1125 C 0.65589 0.53184 0.11563 0.0
C1126 C 0.79683 0.47411 0.11427 0.0
C1127 C 0.87481 0.47093 0.14703 0.0
N1128 N 0.70502 0.51545 0.11534 0.0
N1129 N 0.8258 0.48732 0.14705 0.0
H1130 H 0.11748 0.45702 0.41872 0.0
H1131 H 0.37501 0.53491 0.3578 0.0
H1132 H 0.12428 0.45889 0.3545 0.0
H1133 H 0.34458 0.54408 0.42088 0.0
H1134 H 0.28456 0.50637 0.35617 0.0
H1135 H 0.20111 0.48887 0.41986 0.0
C1136 C 0.13654 0.4643 0.40488 0.0
C1137 C 0.11485 0.45518 0.3865 0.0
C1138 C 0.29722 0.51488 0.37034 0.0
C1139 C 0.21026 0.49148 0.38761 0.0
C1140 C 0.34881 0.53108 0.37126 0.0
C1141 C 0.36615 0.54228 0.38943 0.0
C1142 C 0.26362 0.50948 0.38781 0.0
C1143 C 0.33165 0.53638 0.40652 0.0
C1144 C 0.18412 0.48247 0.4055 0.0
C1145 C 0.14025 0.46536 0.36896 0.0
N1146 N 0.28204 0.52035 0.40531 0.0
N1147 N 0.18719 0.48278 0.36993 0.0
H1148 H 0.31411 0.44416 0.84606 0.0
H1149 H 0.12364 0.54993 0.84738 0.0
H1150 H 0.39934 0.47579 0.89887 0.0
H1151 H 0.14713 0.54696 0.91117 0.0
H1152 H 0.21095 0.52057 0.84344 0.0
H1153 H 0.23635 0.47788 0.84732 0.0
C1154 C 0.31691 0.45847 0.85779 0.0
C1155 C 0.36327 0.45725 0.87236 0.0
C1156 C 0.19675 0.52607 0.85832 0.0
C1157 C 0.27503 0.49642 0.87362 0.0
C1158 C 0.14728 0.54295 0.86056 0.0
C1159 C 0.12841 0.55066 0.87961 0.0
C1160 C 0.22664 0.51637 0.87531 0.0
C1161 C 0.16066 0.54134 0.89624 0.0
C1162 C 0.27283 0.47793 0.85837 0.0
C1163 C 0.36453 0.47621 0.88727 0.0
N1164 N 0.20842 0.52455 0.89372 0.0
N1165 N 0.32046 0.49496 0.88766 0.0
H1166 H 0.89029 0.52542 0.61226 0.0
H1167 H 0.63871 0.44174 0.60061 0.0
H1168 H 0.78748 0.55158 0.66367 0.0
H1169 H 0.62259 0.44753 0.66457 0.0
H1170 H 0.72057 0.47442 0.60132 0.0
H1171 H 0.82009 0.4885 0.60952 0.0
C1172 C 0.85309 0.52335 0.62298 0.0
C1173 C 0.84423 0.54166 0.63811 0.0
C1174 C 0.70009 0.46814 0.61523 0.0
C1175 C 0.76354 0.49994 0.63488 0.0
C1176 C 0.65314 0.44969 0.61481 0.0
C1177 C 0.625 0.44168 0.6326 0.0
C1178 C 0.71783 0.47894 0.63357 0.0
C1179 C 0.64382 0.453 0.65056 0.0
C1180 C 0.81269 0.50246 0.62127 0.0
C1181 C 0.79553 0.53803 0.65167 0.0
N1182 N 0.68891 0.47119 0.65057 0.0
N1183 N 0.75707 0.51754 0.64975 0.0
H1184 H 0.13006 0.2006 0.14402 0.0
H1185 H 0.90671 0.31193 0.10394 0.0
H1186 H 0.97128 0.18682 0.10639 0.0
H1187 H 0.0755 0.32685 0.13655 0.0
H1188 H 0.9293 0.26604 0.10508 0.0
H1189 H 0.10986 0.24682 0.14209 0.0
C1190 C 0.09087 0.20726 0.13538 0.0
C1191 C 0.05233 0.18976 0.12533 0.0
C1192 C 0.96154 0.27935 0.11193 0.0
C1193 C 0.02906 0.2427 0.12305 0.0
C1194 C 0.94867 0.30564 0.11131 0.0
C1195 C 0.98914 0.32345 0.12022 0.0
C1196 C 0.01515 0.27062 0.12161 0.0
C1197 C 0.04296 0.31395 0.12941 0.0
C1198 C 0.0795 0.23368 0.13424 0.0
C1199 C 0.00233 0.19956 0.11434 0.0
N1200 N 0.05421 0.28819 0.12995 0.0
N1201 N 0.99213 0.22535 0.11352 0.0
H1202 H 0.36618 0.79365 0.1207 0.0
H1203 H 0.62477 0.6841 0.12172 0.0
H1204 H 0.55963 0.80966 0.13143 0.0
H1205 H 0.43075 0.66841 0.13177 0.0
H1206 H 0.6018 0.73019 0.12149 0.0
H1207 H 0.38927 0.7476 0.12101 0.0
C1208 C 0.41356 0.78753 0.12306 0.0
C1209 C 0.46105 0.80562 0.12604 0.0
C1210 C 0.56434 0.71663 0.12378 0.0
C1211 C 0.48768 0.75286 0.12632 0.0
C1212 C 0.5773 0.6903 0.1238 0.0
C1213 C 0.52961 0.67229 0.12677 0.0
C1214 C 0.50314 0.72506 0.12645 0.0
C1215 C 0.46907 0.68155 0.12954 0.0
C1216 C 0.42659 0.76121 0.12334 0.0
C1217 C 0.52146 0.79645 0.12919 0.0
N1218 N 0.45753 0.70728 0.12921 0.0
N1219 N 0.53311 0.77071 0.12913 0.0
H1220 H 0.58532 0.66185 0.38797 0.0
H1221 H 0.46563 0.80642 0.38777 0.0
H1222 H 0.39447 0.68274 0.37732 0.0
H1223 H 0.65367 0.78791 0.37125 0.0
H1224 H 0.44068 0.76051 0.38772 0.0
H1225 H 0.61392 0.70751 0.38499 0.0
C1226 C 0.54952 0.67591 0.38492 0.0
C1227 C 0.48728 0.66834 0.38312 0.0
C1228 C 0.48737 0.76649 0.38403 0.0
C1229 C 0.5196 0.72046 0.37997 0.0
C1230 C 0.5017 0.79267 0.38416 0.0
C1231 C 0.56179 0.80096 0.37952 0.0
C1232 C 0.5337 0.74838 0.37959 0.0
C1233 C 0.60665 0.7823 0.37482 0.0
C1234 C 0.56592 0.70192 0.3832 0.0
C1235 C 0.44299 0.68748 0.37903 0.0
N1236 N 0.59187 0.75681 0.37516 0.0
N1237 N 0.45991 0.71259 0.37783 0.0
H1238 H 0.93577 0.33612 0.38636 0.0
H1239 H 0.03997 0.19038 0.36593 0.0
H1240 H 0.12563 0.3124 0.37804 0.0
H1241 H 0.8574 0.2116 0.38668 0.0
H1242 H 0.06828 0.23583 0.36518 0.0
H1243 H 0.90269 0.29151 0.38101 0.0
C1244 C 0.97043 0.32163 0.38312 0.0
C1245 C 0.03366 0.32796 0.38287 0.0
C1246 C 0.02194 0.23053 0.36982 0.0
C1247 C 0.99613 0.2769 0.37684 0.0
C1248 C 0.00559 0.20452 0.37023 0.0
C1249 C 0.94623 0.19694 0.37656 0.0
C1250 C 0.97866 0.24926 0.37566 0.0
C1251 C 0.90391 0.21636 0.38191 0.0
C1252 C 0.95153 0.29614 0.38019 0.0
C1253 C 0.07646 0.30836 0.3786 0.0
N1254 N 0.921 0.24157 0.38139 0.0
N1255 N 0.05697 0.28372 0.37588 0.0
H1256 H 0.85806 0.79188 0.88844 0.0
H1257 H 0.10496 0.68228 0.86563 0.0
H1258 H 0.03412 0.80556 0.85954 0.0
H1259 H 0.92383 0.66678 0.89005 0.0
H1260 H 0.07414 0.7267 0.85946 0.0
H1261 H 0.87653 0.74572 0.88614 0.0
C1262 C 0.90062 0.78528 0.88158 0.0
C1263 C 0.94503 0.80285 0.87444 0.0
C1264 C 0.04072 0.71357 0.86593 0.0
C1265 C 0.96608 0.74975 0.87166 0.0
C1266 C 0.05827 0.6882 0.86942 0.0
C1267 C 0.01718 0.67103 0.87866 0.0
C1268 C 0.98187 0.72197 0.87199 0.0
C1269 C 0.95703 0.6795 0.88302 0.0
C1270 C 0.91088 0.75883 0.88017 0.0
C1271 C 0.99871 0.79291 0.86543 0.0
N1272 N 0.94147 0.70458 0.87997 0.0
N1273 N 0.00791 0.76707 0.86447 0.0
H1274 H 0.63621 0.19641 0.87338 0.0
H1275 H 0.3785 0.305 0.87946 0.0
H1276 H 0.44962 0.1807 0.89315 0.0
H1277 H 0.57289 0.32215 0.8866 0.0
H1278 H 0.4028 0.25904 0.88016 0.0
H1279 H 0.61285 0.24255 0.87379 0.0
C1280 C 0.59031 0.20267 0.87775 0.0
C1281 C 0.54473 0.18476 0.88325 0.0
C1282 C 0.44004 0.27288 0.88165 0.0
C1283 C 0.5178 0.2373 0.8836 0.0
C1284 C 0.42632 0.29908 0.88116 0.0
C1285 C 0.47382 0.31736 0.88298 0.0
C1286 C 0.5018 0.26493 0.8836 0.0
C1287 C 0.5349 0.30865 0.88527 0.0
C1288 C 0.5772 0.22896 0.87809 0.0
C1289 C 0.48616 0.1939 0.8889 0.0
N1290 N 0.54727 0.28299 0.88534 0.0
N1291 N 0.47419 0.21957 0.88879 0.0
H1292 H 0.36643 0.19904 0.62066 0.0
H1293 H 0.62078 0.30698 0.63753 0.0
H1294 H 0.54821 0.18382 0.64491 0.0
H1295 H 0.43045 0.32442 0.62344 0.0
H1296 H 0.59215 0.26218 0.64314 0.0
H1297 H 0.38636 0.24508 0.62359 0.0
C1298 C 0.41054 0.20529 0.62661 0.0
C1299 C 0.45605 0.18737 0.63227 0.0
C1300 C 0.55635 0.2758 0.6391 0.0
C1301 C 0.47882 0.24022 0.63578 0.0
C1302 C 0.57269 0.30139 0.63591 0.0
C1303 C 0.52803 0.31925 0.62974 0.0
C1304 C 0.49504 0.26793 0.63576 0.0
C1305 C 0.46631 0.31115 0.62808 0.0
C1306 C 0.42164 0.23164 0.62842 0.0
C1307 C 0.51183 0.19679 0.6402 0.0
N1308 N 0.45175 0.2859 0.63072 0.0
N1309 N 0.52181 0.22254 0.64153 0.0
H1310 H 0.04797 0.67701 0.62091 0.0
H1311 H 0.93073 0.82173 0.61525 0.0
H1312 H 0.85873 0.69799 0.63398 0.0
H1313 H 0.11865 0.80214 0.6311 0.0
H1314 H 0.9034 0.77596 0.61654 0.0
H1315 H 0.0748 0.72273 0.61903 0.0
C1316 C 0.01203 0.69125 0.62328 0.0
C1317 C 0.95105 0.6838 0.62762 0.0
C1318 C 0.95055 0.78176 0.61974 0.0
C1319 C 0.98133 0.73588 0.62534 0.0
C1320 C 0.96626 0.80778 0.6189 0.0
C1321 C 0.02702 0.81564 0.62309 0.0
C1322 C 0.99624 0.76355 0.62441 0.0
C1323 C 0.0712 0.79685 0.62788 0.0
C1324 C 0.02746 0.71727 0.62231 0.0
C1325 C 0.90636 0.70299 0.6307 0.0
N1326 N 0.05502 0.7716 0.62828 0.0
N1327 N 0.92231 0.72823 0.62937 0.0
H1328 H 0.90645 0.15504 0.29144 0.0
H1329 H 0.04842 0.09052 0.19277 0.0
H1330 H 0.04805 0.09645 0.29335 0.0
H1331 H 0.92536 0.156 0.19267 0.0
H1332 H 0.04754 0.09116 0.22938 0.0
H1333 H 0.91131 0.15445 0.25514 0.0
C1334 C 0.93871 0.14204 0.28424 0.0
C1335 C 0.97689 0.12576 0.29554 0.0
C1336 C 0.02087 0.10541 0.22132 0.0
C1337 C 0.98256 0.12491 0.25369 0.0
C1338 C 0.02127 0.10503 0.20041 0.0
C1339 C 0.98684 0.12321 0.18957 0.0
C1340 C 0.98551 0.12401 0.23147 0.0
C1341 C 0.95263 0.14158 0.20032 0.0
C1342 C 0.94151 0.14173 0.26344 0.0
C1343 C 0.01781 0.10938 0.28527 0.0
N1344 N 0.95272 0.14145 0.22059 0.0
N1345 N 0.01942 0.1093 0.26494 0.0
H1346 H 0.56232 0.90189 0.21365 0.0
H1347 H 0.44046 0.83438 0.31384 0.0
H1348 H 0.42982 0.83966 0.2148 0.0
H1349 H 0.55707 0.90191 0.3139 0.0
H1350 H 0.44066 0.8349 0.27748 0.0
H1351 H 0.56559 0.90107 0.25016 0.0
C1352 C 0.53405 0.888 0.22155 0.0
C1353 C 0.49565 0.87083 0.21109 0.0
C1354 C 0.46625 0.84963 0.2854 0.0
C1355 C 0.49924 0.86979 0.25294 0.0
C1356 C 0.46622 0.84934 0.30622 0.0
C1357 C 0.4987 0.86817 0.31701 0.0
C1358 C 0.49917 0.86886 0.27515 0.0
C1359 C 0.53126 0.88703 0.30623 0.0
C1360 C 0.53586 0.88758 0.24241 0.0
C1361 C 0.46001 0.8533 0.22217 0.0
N1362 N 0.53068 0.88689 0.28591 0.0
N1363 N 0.46271 0.85324 0.24243 0.0
H1364 H 0.03336 0.91141 0.69071 0.0
H1365 H 0.91433 0.84149 0.79012 0.0
H1366 H 0.91682 0.84385 0.69106 0.0
H1367 H 0.05112 0.90211 0.79067 0.0
H1368 H 0.91357 0.84293 0.75378 0.0
H1369 H 0.03921 0.90927 0.72719 0.0
C1370 C 0.00902 0.89613 0.69843 0.0
C1371 C 0.97439 0.87782 0.68777 0.0
C1372 C 0.94397 0.85588 0.7618 0.0
C1373 C 0.98085 0.8753 0.72953 0.0
C1374 C 0.9444 0.85509 0.7826 0.0
C1375 C 0.98281 0.87173 0.79352 0.0
C1376 C 0.98189 0.87359 0.7517 0.0
C1377 C 0.02083 0.88889 0.78288 0.0
C1378 C 0.0125 0.89489 0.71926 0.0
C1379 C 0.94401 0.85841 0.6986 0.0
N1380 N 0.0192 0.88946 0.76258 0.0
N1381 N 0.94779 0.85773 0.71882 0.0
H1382 H 0.54412 0.08393 0.81654 0.0
H1383 H 0.42915 0.15147 0.71565 0.0
H1384 H 0.4326 0.15285 0.81457 0.0
H1385 H 0.55887 0.08827 0.71605 0.0
H1386 H 0.42896 0.15135 0.75198 0.0
H1387 H 0.54906 0.08422 0.77997 0.0
C1388 C 0.52069 0.09912 0.80845 0.0
C1389 C 0.48775 0.11837 0.8187 0.0
C1390 C 0.45766 0.13752 0.74418 0.0
C1391 C 0.49319 0.11878 0.77683 0.0
C1392 C 0.45776 0.13756 0.72337 0.0
C1393 C 0.49404 0.11982 0.7127 0.0
C1394 C 0.49381 0.1195 0.75459 0.0
C1395 C 0.53025 0.10232 0.72362 0.0
C1396 C 0.52364 0.09929 0.78757 0.0
C1397 C 0.45848 0.13759 0.80739 0.0
N1398 N 0.52903 0.10252 0.74396 0.0
N1399 N 0.46176 0.13724 0.78715 0.0
H1400 H 0.46125 0.57605 0.21674 0.0
H1401 H 0.57889 0.65122 0.31394 0.0
H1402 H 0.55743 0.64887 0.21396 0.0
H1403 H 0.50957 0.57321 0.31434 0.0
H1404 H 0.56588 0.65226 0.27764 0.0
H1405 H 0.47212 0.57639 0.25292 0.0
C1406 C 0.48447 0.59219 0.22374 0.0
C1407 C 0.50864 0.61243 0.21227 0.0
C1408 C 0.55366 0.63492 0.28571 0.0
C1409 C 0.52137 0.61292 0.25381 0.0
C1410 C 0.56108 0.63431 0.30642 0.0
C1411 C 0.54546 0.61207 0.31721 0.0
C1412 C 0.53009 0.6132 0.27576 0.0
C1413 C 0.52242 0.59076 0.30667 0.0
C1414 C 0.49083 0.59233 0.24442 0.0
C1415 C 0.53827 0.63281 0.22221 0.0
N1416 N 0.51536 0.59188 0.28658 0.0
N1417 N 0.54384 0.63254 0.24241 0.0
H1418 H 0.10189 0.40647 0.20444 0.0
H1419 H 0.92694 0.33948 0.29638 0.0
H1420 H 0.94623 0.35491 0.19832 0.0
H1421 H 0.06422 0.39925 0.30345 0.0
H1422 H 0.94344 0.34079 0.26036 0.0
H1423 H 0.09833 0.40013 0.24067 0.0
C1424 C 0.06735 0.39366 0.21068 0.0
C1425 C 0.02401 0.38136 0.19833 0.0
C1426 C 0.97026 0.35352 0.2698 0.0
C1427 C 0.01968 0.37401 0.23971 0.0
C1428 C 0.96098 0.35272 0.2904 0.0
C1429 C 0.99384 0.36943 0.30299 0.0
C1430 C 0.0128 0.37112 0.26166 0.0
C1431 C 0.0375 0.38613 0.29433 0.0
C1432 C 0.06523 0.3901 0.23136 0.0
C1433 C 0.98026 0.36497 0.20725 0.0
N1434 N 0.04544 0.38665 0.27421 0.0
N1435 N 0.97911 0.36185 0.22735 0.0
H1436 H 0.43943 0.37605 0.71297 0.0
H1437 H 0.63883 0.35947 0.8122 0.0
H1438 H 0.63927 0.37353 0.71211 0.0
H1439 H 0.45687 0.39383 0.81161 0.0
H1440 H 0.63625 0.35712 0.7757 0.0
H1441 H 0.44176 0.37485 0.74936 0.0
C1442 C 0.48386 0.37498 0.72041 0.0
C1443 C 0.53933 0.37497 0.70944 0.0
C1444 C 0.59691 0.36511 0.7836 0.0
C1445 C 0.54208 0.37352 0.75118 0.0
C1446 C 0.59817 0.36636 0.80441 0.0
C1447 C 0.548 0.37693 0.81496 0.0
C1448 C 0.54469 0.37407 0.77328 0.0
C1449 C 0.49666 0.38566 0.80408 0.0
C1450 C 0.48507 0.37445 0.7412 0.0
C1451 C 0.59544 0.37367 0.71996 0.0
N1452 N 0.49621 0.38393 0.78385 0.0
N1453 N 0.5954 0.37295 0.74027 0.0
H1454 H 0.99737 0.66798 0.70176 0.0
H1455 H 0.98658 0.58506 0.80175 0.0
H1456 H 0.96596 0.58589 0.70292 0.0
H1457 H 0.95862 0.6674 0.80168 0.0
H1458 H 0.98957 0.58555 0.76545 0.0
H1459 H 0.99204 0.66867 0.73827 0.0
C1460 C 0.98915 0.65012 0.70968 0.0
C1461 C 0.98223 0.62681 0.69927 0.0
C1462 C 0.98272 0.60352 0.77335 0.0
C1463 C 0.97677 0.62748 0.74098 0.0
C1464 C 0.98135 0.60331 0.79412 0.0
C1465 C 0.97226 0.62625 0.80482 0.0
C1466 C 0.97564 0.62687 0.76309 0.0
C1467 C 0.96558 0.64926 0.79404 0.0
C1468 C 0.98603 0.65056 0.7305 0.0
C1469 C 0.9715 0.60429 0.7103 0.0
N1470 N 0.96761 0.64901 0.77374 0.0
N1471 N 0.96956 0.60516 0.73053 0.0
loop_
_geom_bond_atom_site_label_1
_geom_bond_atom_site_label_2
_geom_bond_distance
_geom_bond_site_symmetry_2
_ccdc_geom_bond_type
O0 Tb1 2.292 . S
O0 C3 1.255 . S
Tb1 O0 2.292 . S
Tb1 O17 2.326 . S
Tb1 O19 2.500 . S
Tb1 O20 2.473 . S
Tb1 O23 2.324 . S
Eu2 O6 2.292 1_455 S
Eu2 C7 2.852 1_455 S
Eu2 O18 2.324 . S
Eu2 O22 2.326 . S
Eu2 O24 2.500 1_455 S
Eu2 O25 2.473 1_455 S
C3 O0 1.255 . S
C3 O4 1.247 . S
O4 C3 1.247 . S
C5 O17 1.242 . S
C5 O18 1.258 . S
O6 Eu2 2.292 1_655 S
O6 C8 1.255 . S
C7 Eu2 2.852 1_655 S
C7 C11 1.503 . S
C7 O24 1.273 . S
C7 O25 1.257 . S
C8 O6 1.255 . S
C8 O9 1.247 1_655 S
O9 C8 1.247 1_455 S
C10 O22 1.242 . S
C10 O23 1.258 . S
C11 C7 1.503 . S
C11 C12 1.379 . S
C11 C16 1.392 . S
C12 C11 1.379 . S
C12 C13 1.404 . S
C12 H26 0.929 . S
C13 C12 1.404 . S
C13 C14 1.389 . S
C14 C13 1.389 . S
C14 C15 1.399 . S
C14 H27 0.931 . S
C15 C14 1.399 . S
C15 C16 1.390 . S
C16 C11 1.392 . S
C16 C15 1.390 . S
C16 H28 0.929 . S
O17 Tb1 2.326 . S
O17 C5 1.242 . S
O18 Eu2 2.324 . S
O18 C5 1.258 . S
O19 Tb1 2.500 . S
O19 C21 1.273 . S
O20 Tb1 2.473 . S
O20 C21 1.257 . S
C21 O19 1.273 . S
C21 O20 1.257 . S
O22 Eu2 2.326 . S
O22 C10 1.242 . S
O23 Tb1 2.324 . S
O23 C10 1.258 . S
O24 Eu2 2.500 1_655 S
O24 C7 1.273 . S
O25 Eu2 2.473 1_655 S
O25 C7 1.257 . S
H26 C12 0.929 . S
H27 C14 0.931 . S
H28 C16 0.929 . S
O29 Tb30 2.292 . S
O29 C32 1.255 . S
Tb30 O29 2.292 . S
Tb30 O46 2.326 . S
Tb30 O48 2.500 . S
Tb30 O49 2.473 . S
Tb30 O52 2.324 . S
Eu31 O35 2.292 . S
Eu31 C36 2.852 . S
Eu31 O47 2.324 . S
Eu31 O51 2.326 . S
Eu31 O53 2.500 . S
Eu31 O54 2.473 . S
C32 O29 1.255 . S
C32 O33 1.247 . S
O33 C32 1.247 . S
C34 O46 1.242 . S
C34 O47 1.258 . S
O35 Eu31 2.292 . S
O35 C37 1.255 . S
C36 Eu31 2.852 . S
C36 C40 1.503 . S
C36 O53 1.273 . S
C36 O54 1.257 . S
C37 O35 1.255 . S
C37 O38 1.247 . S
O38 C37 1.247 . S
C39 O51 1.242 . S
C39 O52 1.258 . S
C40 C36 1.503 . S
C40 C41 1.379 . S
C40 C45 1.392 . S
C41 C40 1.379 . S
C41 C42 1.404 . S
C41 H55 0.929 . S
C42 C41 1.404 . S
C42 C43 1.389 . S
C43 C42 1.389 . S
C43 C44 1.399 . S
C43 H56 0.931 . S
C44 C43 1.399 . S
C44 C45 1.390 . S
C45 C40 1.392 . S
C45 C44 1.390 . S
C45 H57 0.929 . S
O46 Tb30 2.326 . S
O46 C34 1.242 . S
O47 Eu31 2.324 . S
O47 C34 1.258 . S
O48 Tb30 2.500 . S
O48 C50 1.273 . S
O49 Tb30 2.473 . S
O49 C50 1.257 . S
C50 O48 1.273 . S
C50 O49 1.257 . S
O51 Eu31 2.326 . S
O51 C39 1.242 . S
O52 Tb30 2.324 . S
O52 C39 1.258 . S
O53 Eu31 2.500 . S
O53 C36 1.273 . S
O54 Eu31 2.473 . S
O54 C36 1.257 . S
H55 C41 0.929 . S
H56 C43 0.931 . S
H57 C45 0.929 . S
O58 Tb59 2.292 . S
O58 C61 1.255 . S
Tb59 O58 2.292 . S
Tb59 O75 2.326 . S
Tb59 O77 2.500 . S
Tb59 O78 2.473 . S
Tb59 O81 2.324 . S
Eu60 O64 2.292 . S
Eu60 C65 2.852 . S
Eu60 O76 2.324 . S
Eu60 O80 2.326 . S
Eu60 O82 2.500 . S
Eu60 O83 2.473 . S
C61 O58 1.255 . S
C61 O62 1.247 . S
O62 C61 1.247 . S
C63 O75 1.242 . S
C63 O76 1.258 . S
O64 Eu60 2.292 . S
O64 C66 1.255 . S
C65 Eu60 2.852 . S
C65 C69 1.503 . S
C65 O82 1.273 . S
C65 O83 1.257 . S
C66 O64 1.255 . S
C66 O67 1.247 . S
O67 C66 1.247 . S
C68 O80 1.242 . S
C68 O81 1.258 . S
C69 C65 1.503 . S
C69 C70 1.379 . S
C69 C74 1.392 . S
C70 C69 1.379 . S
C70 C71 1.404 . S
C70 H84 0.929 . S
C71 C70 1.404 . S
C71 C72 1.389 . S
C72 C71 1.389 . S
C72 C73 1.399 . S
C72 H85 0.931 . S
C73 C72 1.399 . S
C73 C74 1.390 . S
C74 C69 1.392 . S
C74 C73 1.390 . S
C74 H86 0.929 . S
O75 Tb59 2.326 . S
O75 C63 1.242 . S
O76 Eu60 2.324 . S
O76 C63 1.258 . S
O77 Tb59 2.500 . S
O77 C79 1.273 . S
O78 Tb59 2.473 . S
O78 C79 1.257 . S
C79 O77 1.273 . S
C79 O78 1.257 . S
O80 Eu60 2.326 . S
O80 C68 1.242 . S
O81 Tb59 2.324 . S
O81 C68 1.258 . S
O82 Eu60 2.500 . S
O82 C65 1.273 . S
O83 Eu60 2.473 . S
O83 C65 1.257 . S
H84 C70 0.929 . S
H85 C72 0.931 . S
H86 C74 0.929 . S
O87 Tb88 2.292 . S
O87 C90 1.255 . S
Tb88 O87 2.292 . S
Tb88 O104 2.326 . S
Tb88 O106 2.500 . S
Tb88 O107 2.473 . S
Tb88 O110 2.324 . S
Eu89 O93 2.292 1_655 S
Eu89 C94 2.852 1_655 S
Eu89 O105 2.324 . S
Eu89 O109 2.326 . S
Eu89 O111 2.500 1_655 S
Eu89 O112 2.473 1_655 S
C90 O87 1.255 . S
C90 O91 1.247 . S
O91 C90 1.247 . S
C92 O104 1.242 . S
C92 O105 1.258 . S
O93 Eu89 2.292 1_455 S
O93 C95 1.255 . S
C94 Eu89 2.852 1_455 S
C94 C98 1.503 . S
C94 O111 1.273 . S
C94 O112 1.257 . S
C95 O93 1.255 . S
C95 O96 1.247 1_455 S
O96 C95 1.247 1_655 S
C97 O109 1.242 . S
C97 O110 1.258 . S
C98 C94 1.503 . S
C98 C99 1.379 . S
C98 C103 1.392 . S
C99 C98 1.379 . S
C99 C100 1.404 . S
C99 H113 0.929 . S
C100 C99 1.404 . S
C100 C101 1.389 . S
C101 C100 1.389 . S
C101 C102 1.399 . S
C101 H114 0.931 . S
C102 C101 1.399 . S
C102 C103 1.390 . S
C103 C98 1.392 . S
C103 C102 1.390 . S
C103 H115 0.929 . S
O104 Tb88 2.326 . S
O104 C92 1.242 . S
O105 Eu89 2.324 . S
O105 C92 1.258 . S
O106 Tb88 2.500 . S
O106 C108 1.273 . S
O107 Tb88 2.473 . S
O107 C108 1.257 . S
C108 O106 1.273 . S
C108 O107 1.257 . S
O109 Eu89 2.326 . S
O109 C97 1.242 . S
O110 Tb88 2.324 . S
O110 C97 1.258 . S
O111 Eu89 2.500 1_455 S
O111 C94 1.273 . S
O112 Eu89 2.473 1_455 S
O112 C94 1.257 . S
H113 C99 0.929 . S
H114 C101 0.931 . S
H115 C103 0.929 . S
O116 Tb117 2.292 . S
O116 C119 1.255 . S
Tb117 O116 2.292 . S
Tb117 O133 2.326 . S
Tb117 O135 2.500 . S
Tb117 O136 2.473 . S
Tb117 O139 2.324 . S
Eu118 O122 2.292 1_655 S
Eu118 C123 2.852 1_655 S
Eu118 O134 2.324 . S
Eu118 O138 2.326 . S
Eu118 O140 2.500 1_655 S
Eu118 O141 2.473 1_655 S
C119 O116 1.255 . S
C119 O120 1.247 . S
O120 C119 1.247 . S
C121 O133 1.242 . S
C121 O134 1.258 . S
O122 Eu118 2.292 1_455 S
O122 C124 1.255 . S
C123 Eu118 2.852 1_455 S
C123 C127 1.503 . S
C123 O140 1.273 . S
C123 O141 1.257 . S
C124 O122 1.255 . S
C124 O125 1.247 1_455 S
O125 C124 1.247 1_655 S
C126 O138 1.242 . S
C126 O139 1.258 . S
C127 C123 1.503 . S
C127 C128 1.379 . S
C127 C132 1.392 . S
C128 C127 1.379 . S
C128 C129 1.404 . S
C128 H142 0.929 . S
C129 C128 1.404 . S
C129 C130 1.389 . S
C130 C129 1.389 . S
C130 C131 1.399 . S
C130 H143 0.931 . S
C131 C130 1.399 . S
C131 C132 1.390 . S
C132 C127 1.392 . S
C132 C131 1.390 . S
C132 H144 0.929 . S
O133 Tb117 2.326 . S
O133 C121 1.242 . S
O134 Eu118 2.324 . S
O134 C121 1.258 . S
O135 Tb117 2.500 . S
O135 C137 1.273 . S
O136 Tb117 2.473 . S
O136 C137 1.257 . S
C137 O135 1.273 . S
C137 O136 1.257 . S
O138 Eu118 2.326 . S
O138 C126 1.242 . S
O139 Tb117 2.324 . S
O139 C126 1.258 . S
O140 Eu118 2.500 1_455 S
O140 C123 1.273 . S
O141 Eu118 2.473 1_455 S
O141 C123 1.257 . S
H142 C128 0.929 . S
H143 C130 0.931 . S
H144 C132 0.929 . S
O145 Tb146 2.292 . S
O145 C148 1.255 . S
Tb146 O145 2.292 . S
Tb146 O162 2.326 . S
Tb146 O164 2.500 . S
Tb146 O165 2.473 . S
Tb146 O168 2.324 . S
Eu147 O151 2.292 . S
Eu147 C152 2.852 . S
Eu147 O163 2.324 . S
Eu147 O167 2.326 . S
Eu147 O169 2.500 . S
Eu147 O170 2.473 . S
C148 O145 1.255 . S
C148 O149 1.247 . S
O149 C148 1.247 . S
C150 O162 1.242 . S
C150 O163 1.258 . S
O151 Eu147 2.292 . S
O151 C153 1.255 . S
C152 Eu147 2.852 . S
C152 C156 1.503 . S
C152 O169 1.273 . S
C152 O170 1.257 . S
C153 O151 1.255 . S
C153 O154 1.247 . S
O154 C153 1.247 . S
C155 O167 1.242 . S
C155 O168 1.258 . S
C156 C152 1.503 . S
C156 C157 1.379 . S
C156 C161 1.392 . S
C157 C156 1.379 . S
C157 C158 1.404 . S
C157 H171 0.929 . S
C158 C157 1.404 . S
C158 C159 1.389 . S
C159 C158 1.389 . S
C159 C160 1.399 . S
C159 H172 0.931 . S
C160 C159 1.399 . S
C160 C161 1.390 . S
C161 C156 1.392 . S
C161 C160 1.390 . S
C161 H173 0.929 . S
O162 Tb146 2.326 . S
O162 C150 1.242 . S
O163 Eu147 2.324 . S
O163 C150 1.258 . S
O164 Tb146 2.500 . S
O164 C166 1.273 . S
O165 Tb146 2.473 . S
O165 C166 1.257 . S
C166 O164 1.273 . S
C166 O165 1.257 . S
O167 Eu147 2.326 . S
O167 C155 1.242 . S
O168 Tb146 2.324 . S
O168 C155 1.258 . S
O169 Eu147 2.500 . S
O169 C152 1.273 . S
O170 Eu147 2.473 . S
O170 C152 1.257 . S
H171 C157 0.929 . S
H172 C159 0.931 . S
H173 C161 0.929 . S
O174 Tb175 2.292 . S
O174 C177 1.255 . S
Tb175 O174 2.292 . S
Tb175 O191 2.326 . S
Tb175 O193 2.500 . S
Tb175 O194 2.473 . S
Tb175 O197 2.324 . S
Eu176 O180 2.292 . S
Eu176 C181 2.852 . S
Eu176 O192 2.324 . S
Eu176 O196 2.326 . S
Eu176 O198 2.500 . S
Eu176 O199 2.473 . S
C177 O174 1.255 . S
C177 O178 1.247 . S
O178 C177 1.247 . S
C179 O191 1.242 . S
C179 O192 1.258 . S
O180 Eu176 2.292 . S
O180 C182 1.255 . S
C181 Eu176 2.852 . S
C181 C185 1.503 . S
C181 O198 1.273 . S
C181 O199 1.257 . S
C182 O180 1.255 . S
C182 O183 1.247 . S
O183 C182 1.247 . S
C184 O196 1.242 . S
C184 O197 1.258 . S
C185 C181 1.503 . S
C185 C186 1.379 . S
C185 C190 1.392 . S
C186 C185 1.379 . S
C186 C187 1.404 . S
C186 H200 0.929 . S
C187 C186 1.404 . S
C187 C188 1.389 . S
C188 C187 1.389 . S
C188 C189 1.399 . S
C188 H201 0.931 . S
C189 C188 1.399 . S
C189 C190 1.390 . S
C190 C185 1.392 . S
C190 C189 1.390 . S
C190 H202 0.929 . S
O191 Tb175 2.326 . S
O191 C179 1.242 . S
O192 Eu176 2.324 . S
O192 C179 1.258 . S
O193 Tb175 2.500 . S
O193 C195 1.273 . S
O194 Tb175 2.473 . S
O194 C195 1.257 . S
C195 O193 1.273 . S
C195 O194 1.257 . S
O196 Eu176 2.326 . S
O196 C184 1.242 . S
O197 Tb175 2.324 . S
O197 C184 1.258 . S
O198 Eu176 2.500 . S
O198 C181 1.273 . S
O199 Eu176 2.473 . S
O199 C181 1.257 . S
H200 C186 0.929 . S
H201 C188 0.931 . S
H202 C190 0.929 . S
O203 Tb204 2.292 . S
O203 C206 1.255 . S
Tb204 O203 2.292 . S
Tb204 O220 2.326 . S
Tb204 O222 2.500 . S
Tb204 O223 2.473 . S
Tb204 O226 2.324 . S
Eu205 O209 2.292 1_455 S
Eu205 C210 2.852 1_455 S
Eu205 O221 2.324 . S
Eu205 O225 2.326 . S
Eu205 O227 2.500 1_455 S
Eu205 O228 2.473 1_455 S
C206 O203 1.255 . S
C206 O207 1.247 . S
O207 C206 1.247 . S
C208 O220 1.242 . S
C208 O221 1.258 . S
O209 Eu205 2.292 1_655 S
O209 C211 1.255 . S
C210 Eu205 2.852 1_655 S
C210 C214 1.503 . S
C210 O227 1.273 . S
C210 O228 1.257 . S
C211 O209 1.255 . S
C211 O212 1.247 1_655 S
O212 C211 1.247 1_455 S
C213 O225 1.242 . S
C213 O226 1.258 . S
C214 C210 1.503 . S
C214 C215 1.379 . S
C214 C219 1.392 . S
C215 C214 1.379 . S
C215 C216 1.404 . S
C215 H229 0.929 . S
C216 C215 1.404 . S
C216 C217 1.389 . S
C217 C216 1.389 . S
C217 C218 1.399 . S
C217 H230 0.931 . S
C218 C217 1.399 . S
C218 C219 1.390 . S
C219 C214 1.392 . S
C219 C218 1.390 . S
C219 H231 0.929 . S
O220 Tb204 2.326 . S
O220 C208 1.242 . S
O221 Eu205 2.324 . S
O221 C208 1.258 . S
O222 Tb204 2.500 . S
O222 C224 1.273 . S
O223 Tb204 2.473 . S
O223 C224 1.257 . S
C224 O222 1.273 . S
C224 O223 1.257 . S
O225 Eu205 2.326 . S
O225 C213 1.242 . S
O226 Tb204 2.324 . S
O226 C213 1.258 . S
O227 Eu205 2.500 1_655 S
O227 C210 1.273 . S
O228 Eu205 2.473 1_655 S
O228 C210 1.257 . S
H229 C215 0.929 . S
H230 C217 0.931 . S
H231 C219 0.929 . S
O232 Tb233 2.292 . S
O232 C235 1.255 . S
Tb233 O232 2.292 . S
Tb233 O249 2.326 . S
Tb233 O251 2.500 . S
Tb233 O252 2.473 . S
Tb233 O255 2.324 . S
Eu234 O238 2.292 . S
Eu234 C239 2.852 . S
Eu234 O250 2.324 . S
Eu234 O254 2.326 . S
Eu234 O256 2.500 . S
Eu234 O257 2.473 . S
C235 O232 1.255 . S
C235 O236 1.247 . S
O236 C235 1.247 . S
C237 O249 1.242 . S
C237 O250 1.258 . S
O238 Eu234 2.292 . S
O238 C240 1.255 . S
C239 Eu234 2.852 . S
C239 C243 1.503 . S
C239 O256 1.273 . S
C239 O257 1.257 . S
C240 O238 1.255 . S
C240 O241 1.247 . S
O241 C240 1.247 . S
C242 O254 1.242 . S
C242 O255 1.258 . S
C243 C239 1.503 . S
C243 C244 1.379 . S
C243 C248 1.392 . S
C244 C243 1.379 . S
C244 C245 1.404 . S
C244 H258 0.929 . S
C245 C244 1.404 . S
C245 C246 1.389 . S
C246 C245 1.389 . S
C246 C247 1.399 . S
C246 H259 0.931 . S
C247 C246 1.399 . S
C247 C248 1.390 . S
C248 C243 1.392 . S
C248 C247 1.390 . S
C248 H260 0.929 . S
O249 Tb233 2.326 . S
O249 C237 1.242 . S
O250 Eu234 2.324 . S
O250 C237 1.258 . S
O251 Tb233 2.500 . S
O251 C253 1.273 . S
O252 Tb233 2.473 . S
O252 C253 1.257 . S
C253 O251 1.273 . S
C253 O252 1.257 . S
O254 Eu234 2.326 . S
O254 C242 1.242 . S
O255 Tb233 2.324 . S
O255 C242 1.258 . S
O256 Eu234 2.500 . S
O256 C239 1.273 . S
O257 Eu234 2.473 . S
O257 C239 1.257 . S
H258 C244 0.929 . S
H259 C246 0.931 . S
H260 C248 0.929 . S
O261 Tb262 2.292 . S
O261 C264 1.255 . S
Tb262 O261 2.292 . S
Tb262 O278 2.326 . S
Tb262 O280 2.500 . S
Tb262 O281 2.473 . S
Tb262 O284 2.324 . S
Eu263 O267 2.292 1_655 S
Eu263 C268 2.852 1_655 S
Eu263 O279 2.324 . S
Eu263 O283 2.326 . S
Eu263 O285 2.500 1_655 S
Eu263 O286 2.473 1_655 S
C264 O261 1.255 . S
C264 O265 1.247 . S
O265 C264 1.247 . S
C266 O278 1.242 . S
C266 O279 1.258 . S
O267 Eu263 2.292 1_455 S
O267 C269 1.255 . S
C268 Eu263 2.852 1_455 S
C268 C272 1.503 . S
C268 O285 1.273 . S
C268 O286 1.257 . S
C269 O267 1.255 . S
C269 O270 1.247 1_455 S
O270 C269 1.247 1_655 S
C271 O283 1.242 . S
C271 O284 1.258 . S
C272 C268 1.503 . S
C272 C273 1.379 . S
C272 C277 1.392 . S
C273 C272 1.379 . S
C273 C274 1.404 . S
C273 H287 0.929 . S
C274 C273 1.404 . S
C274 C275 1.389 . S
C275 C274 1.389 . S
C275 C276 1.399 . S
C275 H288 0.931 . S
C276 C275 1.399 . S
C276 C277 1.390 . S
C277 C272 1.392 . S
C277 C276 1.390 . S
C277 H289 0.929 . S
O278 Tb262 2.326 . S
O278 C266 1.242 . S
O279 Eu263 2.324 . S
O279 C266 1.258 . S
O280 Tb262 2.500 . S
O280 C282 1.273 . S
O281 Tb262 2.473 . S
O281 C282 1.257 . S
C282 O280 1.273 . S
C282 O281 1.257 . S
O283 Eu263 2.326 . S
O283 C271 1.242 . S
O284 Tb262 2.324 . S
O284 C271 1.258 . S
O285 Eu263 2.500 1_455 S
O285 C268 1.273 . S
O286 Eu263 2.473 1_455 S
O286 C268 1.257 . S
H287 C273 0.929 . S
H288 C275 0.931 . S
H289 C277 0.929 . S
O290 Tb291 2.292 . S
O290 C293 1.255 . S
Tb291 O290 2.292 . S
Tb291 O307 2.326 . S
Tb291 O309 2.500 . S
Tb291 O310 2.473 . S
Tb291 O313 2.324 . S
Eu292 O296 2.292 1_455 S
Eu292 C297 2.852 1_455 S
Eu292 O308 2.324 . S
Eu292 O312 2.326 . S
Eu292 O314 2.500 1_455 S
Eu292 O315 2.473 1_455 S
C293 O290 1.255 . S
C293 O294 1.247 . S
O294 C293 1.247 . S
C295 O307 1.242 . S
C295 O308 1.258 . S
O296 Eu292 2.292 1_655 S
O296 C298 1.255 . S
C297 Eu292 2.852 1_655 S
C297 C301 1.503 . S
C297 O314 1.273 . S
C297 O315 1.257 . S
C298 O296 1.255 . S
C298 O299 1.247 1_655 S
O299 C298 1.247 1_455 S
C300 O312 1.242 . S
C300 O313 1.258 . S
C301 C297 1.503 . S
C301 C302 1.379 . S
C301 C306 1.392 . S
C302 C301 1.379 . S
C302 C303 1.404 . S
C302 H316 0.929 . S
C303 C302 1.404 . S
C303 C304 1.389 . S
C304 C303 1.389 . S
C304 C305 1.399 . S
C304 H317 0.931 . S
C305 C304 1.399 . S
C305 C306 1.390 . S
C306 C301 1.392 . S
C306 C305 1.390 . S
C306 H318 0.929 . S
O307 Tb291 2.326 . S
O307 C295 1.242 . S
O308 Eu292 2.324 . S
O308 C295 1.258 . S
O309 Tb291 2.500 . S
O309 C311 1.273 . S
O310 Tb291 2.473 . S
O310 C311 1.257 . S
C311 O309 1.273 . S
C311 O310 1.257 . S
O312 Eu292 2.326 . S
O312 C300 1.242 . S
O313 Tb291 2.324 . S
O313 C300 1.258 . S
O314 Eu292 2.500 1_655 S
O314 C297 1.273 . S
O315 Eu292 2.473 1_655 S
O315 C297 1.257 . S
H316 C302 0.929 . S
H317 C304 0.931 . S
H318 C306 0.929 . S
O319 Tb320 2.292 . S
O319 C322 1.255 . S
Tb320 O319 2.292 . S
Tb320 O336 2.326 . S
Tb320 O338 2.500 . S
Tb320 O339 2.473 . S
Tb320 O342 2.324 . S
Eu321 O325 2.292 . S
Eu321 C326 2.852 . S
Eu321 O337 2.324 . S
Eu321 O341 2.326 . S
Eu321 O343 2.500 . S
Eu321 O344 2.473 . S
C322 O319 1.255 . S
C322 O323 1.247 . S
O323 C322 1.247 . S
C324 O336 1.242 . S
C324 O337 1.258 . S
O325 Eu321 2.292 . S
O325 C327 1.255 . S
C326 Eu321 2.852 . S
C326 C330 1.503 . S
C326 O343 1.273 . S
C326 O344 1.257 . S
C327 O325 1.255 . S
C327 O328 1.247 . S
O328 C327 1.247 . S
C329 O341 1.242 . S
C329 O342 1.258 . S
C330 C326 1.503 . S
C330 C331 1.379 . S
C330 C335 1.392 . S
C331 C330 1.379 . S
C331 C332 1.404 . S
C331 H345 0.929 . S
C332 C331 1.404 . S
C332 C333 1.389 . S
C333 C332 1.389 . S
C333 C334 1.399 . S
C333 H346 0.931 . S
C334 C333 1.399 . S
C334 C335 1.390 . S
C335 C330 1.392 . S
C335 C334 1.390 . S
C335 H347 0.929 . S
O336 Tb320 2.326 . S
O336 C324 1.242 . S
O337 Eu321 2.324 . S
O337 C324 1.258 . S
O338 Tb320 2.500 . S
O338 C340 1.273 . S
O339 Tb320 2.473 . S
O339 C340 1.257 . S
C340 O338 1.273 . S
C340 O339 1.257 . S
O341 Eu321 2.326 . S
O341 C329 1.242 . S
O342 Tb320 2.324 . S
O342 C329 1.258 . S
O343 Eu321 2.500 . S
O343 C326 1.273 . S
O344 Eu321 2.473 . S
O344 C326 1.257 . S
H345 C331 0.929 . S
H346 C333 0.931 . S
H347 C335 0.929 . S
O348 Tb349 2.292 . S
O348 C351 1.255 . S
Tb349 O348 2.292 . S
Tb349 O365 2.326 . S
Tb349 O367 2.500 . S
Tb349 O368 2.473 . S
Tb349 O371 2.324 . S
Eu350 O354 2.292 . S
Eu350 C355 2.852 . S
Eu350 O366 2.324 . S
Eu350 O370 2.326 . S
Eu350 O372 2.500 . S
Eu350 O373 2.473 . S
C351 O348 1.255 . S
C351 O352 1.247 . S
O352 C351 1.247 . S
C353 O365 1.242 . S
C353 O366 1.258 . S
O354 Eu350 2.292 . S
O354 C356 1.255 . S
C355 Eu350 2.852 . S
C355 C359 1.503 . S
C355 O372 1.273 . S
C355 O373 1.257 . S
C356 O354 1.255 . S
C356 O357 1.247 . S
O357 C356 1.247 . S
C358 O370 1.242 . S
C358 O371 1.258 . S
C359 C355 1.503 . S
C359 C360 1.379 . S
C359 C364 1.392 . S
C360 C359 1.379 . S
C360 C361 1.404 . S
C360 H374 0.929 . S
C361 C360 1.404 . S
C361 C362 1.389 . S
C362 C361 1.389 . S
C362 C363 1.399 . S
C362 H375 0.931 . S
C363 C362 1.399 . S
C363 C364 1.390 . S
C364 C359 1.392 . S
C364 C363 1.390 . S
C364 H376 0.929 . S
O365 Tb349 2.326 . S
O365 C353 1.242 . S
O366 Eu350 2.324 . S
O366 C353 1.258 . S
O367 Tb349 2.500 . S
O367 C369 1.273 . S
O368 Tb349 2.473 . S
O368 C369 1.257 . S
C369 O367 1.273 . S
C369 O368 1.257 . S
O370 Eu350 2.326 . S
O370 C358 1.242 . S
O371 Tb349 2.324 . S
O371 C358 1.258 . S
O372 Eu350 2.500 . S
O372 C355 1.273 . S
O373 Eu350 2.473 . S
O373 C355 1.257 . S
H374 C360 0.929 . S
H375 C362 0.931 . S
H376 C364 0.929 . S
O377 Tb378 2.292 . S
O377 C380 1.255 . S
Tb378 O377 2.292 . S
Tb378 O394 2.326 . S
Tb378 O396 2.500 . S
Tb378 O397 2.473 . S
Tb378 O400 2.324 . S
Eu379 O383 2.292 1_455 S
Eu379 C384 2.852 1_455 S
Eu379 O395 2.324 . S
Eu379 O399 2.326 . S
Eu379 O401 2.500 1_455 S
Eu379 O402 2.473 1_455 S
C380 O377 1.255 . S
C380 O381 1.247 . S
O381 C380 1.247 . S
C382 O394 1.242 . S
C382 O395 1.258 . S
O383 Eu379 2.292 1_655 S
O383 C385 1.255 . S
C384 Eu379 2.852 1_655 S
C384 C388 1.503 . S
C384 O401 1.273 . S
C384 O402 1.257 . S
C385 O383 1.255 . S
C385 O386 1.247 1_655 S
O386 C385 1.247 1_455 S
C387 O399 1.242 . S
C387 O400 1.258 . S
C388 C384 1.503 . S
C388 C389 1.379 . S
C388 C393 1.392 . S
C389 C388 1.379 . S
C389 C390 1.404 . S
C389 H403 0.929 . S
C390 C389 1.404 . S
C390 C391 1.389 . S
C391 C390 1.389 . S
C391 C392 1.399 . S
C391 H404 0.931 . S
C392 C391 1.399 . S
C392 C393 1.390 . S
C393 C388 1.392 . S
C393 C392 1.390 . S
C393 H405 0.929 . S
O394 Tb378 2.326 . S
O394 C382 1.242 . S
O395 Eu379 2.324 . S
O395 C382 1.258 . S
O396 Tb378 2.500 . S
O396 C398 1.273 . S
O397 Tb378 2.473 . S
O397 C398 1.257 . S
C398 O396 1.273 . S
C398 O397 1.257 . S
O399 Eu379 2.326 . S
O399 C387 1.242 . S
O400 Tb378 2.324 . S
O400 C387 1.258 . S
O401 Eu379 2.500 1_655 S
O401 C384 1.273 . S
O402 Eu379 2.473 1_655 S
O402 C384 1.257 . S
H403 C389 0.929 . S
H404 C391 0.931 . S
H405 C393 0.929 . S
O406 Tb407 2.292 . S
O406 C409 1.255 . S
Tb407 O406 2.292 . S
Tb407 O423 2.326 . S
Tb407 O425 2.500 . S
Tb407 O426 2.473 . S
Tb407 O429 2.324 . S
Eu408 O412 2.292 1_655 S
Eu408 C413 2.852 1_655 S
Eu408 O424 2.324 . S
Eu408 O428 2.326 . S
Eu408 O430 2.500 1_655 S
Eu408 O431 2.473 1_655 S
C409 O406 1.255 . S
C409 O410 1.247 . S
O410 C409 1.247 . S
C411 O423 1.242 . S
C411 O424 1.258 . S
O412 Eu408 2.292 1_455 S
O412 C414 1.255 . S
C413 Eu408 2.852 1_455 S
C413 C417 1.503 . S
C413 O430 1.273 . S
C413 O431 1.257 . S
C414 O412 1.255 . S
C414 O415 1.247 1_455 S
O415 C414 1.247 1_655 S
C416 O428 1.242 . S
C416 O429 1.258 . S
C417 C413 1.503 . S
C417 C418 1.379 . S
C417 C422 1.392 . S
C418 C417 1.379 . S
C418 C419 1.404 . S
C418 H432 0.929 . S
C419 C418 1.404 . S
C419 C420 1.389 . S
C420 C419 1.389 . S
C420 C421 1.399 . S
C420 H433 0.931 . S
C421 C420 1.399 . S
C421 C422 1.390 . S
C422 C417 1.392 . S
C422 C421 1.390 . S
C422 H434 0.929 . S
O423 Tb407 2.326 . S
O423 C411 1.242 . S
O424 Eu408 2.324 . S
O424 C411 1.258 . S
O425 Tb407 2.500 . S
O425 C427 1.273 . S
O426 Tb407 2.473 . S
O426 C427 1.257 . S
C427 O425 1.273 . S
C427 O426 1.257 . S
O428 Eu408 2.326 . S
O428 C416 1.242 . S
O429 Tb407 2.324 . S
O429 C416 1.258 . S
O430 Eu408 2.500 1_455 S
O430 C413 1.273 . S
O431 Eu408 2.473 1_455 S
O431 C413 1.257 . S
H432 C418 0.929 . S
H433 C420 0.931 . S
H434 C422 0.929 . S
O435 Tb436 2.292 . S
O435 C438 1.255 . S
Tb436 O435 2.292 . S
Tb436 O452 2.326 . S
Tb436 O454 2.500 . S
Tb436 O455 2.473 . S
Tb436 O458 2.324 . S
Eu437 O441 2.292 . S
Eu437 C442 2.852 . S
Eu437 O453 2.324 . S
Eu437 O457 2.326 . S
Eu437 O459 2.500 . S
Eu437 O460 2.473 . S
C438 O435 1.255 . S
C438 O439 1.247 . S
O439 C438 1.247 . S
C440 O452 1.242 . S
C440 O453 1.258 . S
O441 Eu437 2.292 . S
O441 C443 1.255 . S
C442 Eu437 2.852 . S
C442 C446 1.503 . S
C442 O459 1.273 . S
C442 O460 1.257 . S
C443 O441 1.255 . S
C443 O444 1.247 . S
O444 C443 1.247 . S
C445 O457 1.242 . S
C445 O458 1.258 . S
C446 C442 1.503 . S
C446 C447 1.379 . S
C446 C451 1.392 . S
C447 C446 1.379 . S
C447 C448 1.404 . S
C447 H461 0.929 . S
C448 C447 1.404 . S
C448 C449 1.389 . S
C449 C448 1.389 . S
C449 C450 1.399 . S
C449 H462 0.931 . S
C450 C449 1.399 . S
C450 C451 1.390 . S
C451 C446 1.392 . S
C451 C450 1.390 . S
C451 H463 0.929 . S
O452 Tb436 2.326 . S
O452 C440 1.242 . S
O453 Eu437 2.324 . S
O453 C440 1.258 . S
O454 Tb436 2.500 . S
O454 C456 1.273 . S
O455 Tb436 2.473 . S
O455 C456 1.257 . S
C456 O454 1.273 . S
C456 O455 1.257 . S
O457 Eu437 2.326 . S
O457 C445 1.242 . S
O458 Tb436 2.324 . S
O458 C445 1.258 . S
O459 Eu437 2.500 . S
O459 C442 1.273 . S
O460 Eu437 2.473 . S
O460 C442 1.257 . S
H461 C447 0.929 . S
H462 C449 0.931 . S
H463 C451 0.929 . S
H464 C470 0.930 . S
H465 C474 0.930 . S
H466 C479 0.929 . S
H467 C477 0.929 . S
H468 C472 0.929 . S
H469 C478 0.929 . S
C470 H464 0.930 . S
C470 C471 1.367 . S
C470 C478 1.378 . S
C471 C470 1.367 . S
C471 C479 1.433 . S
C472 H468 0.929 . S
C472 C474 1.378 . S
C472 C476 1.350 . S
C473 C476 1.463 . S
C473 C478 1.350 . S
C473 N481 1.427 . S
C474 H465 0.930 . S
C474 C472 1.378 . S
C474 C475 1.367 . S
C475 C474 1.367 . S
C475 C477 1.433 . S
C476 C472 1.350 . S
C476 C473 1.463 . S
C476 N480 1.427 . S
C477 H467 0.929 . S
C477 C475 1.433 . S
C477 N480 1.384 . S
C478 H469 0.929 . S
C478 C470 1.378 . S
C478 C473 1.350 . S
C479 H466 0.929 . S
C479 C471 1.433 . S
C479 N481 1.384 . S
N480 C476 1.427 . S
N480 C477 1.384 . S
N481 C473 1.427 . S
N481 C479 1.384 . S
H482 C488 0.930 . S
H483 C492 0.930 . S
H484 C497 0.929 . S
H485 C495 0.929 . S
H486 C490 0.929 . S
H487 C496 0.929 . S
C488 H482 0.930 . S
C488 C489 1.367 . S
C488 C496 1.378 . S
C489 C488 1.367 . S
C489 C497 1.433 . S
C490 H486 0.929 . S
C490 C492 1.378 . S
C490 C494 1.350 . S
C491 C494 1.463 1_455 S
C491 C496 1.350 . S
C491 N499 1.427 . S
C492 H483 0.930 . S
C492 C490 1.378 . S
C492 C493 1.367 . S
C493 C492 1.367 . S
C493 C495 1.433 . S
C494 C490 1.350 . S
C494 C491 1.463 1_655 S
C494 N498 1.427 . S
C495 H485 0.929 . S
C495 C493 1.433 . S
C495 N498 1.384 . S
C496 H487 0.929 . S
C496 C488 1.378 . S
C496 C491 1.350 . S
C497 H484 0.929 . S
C497 C489 1.433 . S
C497 N499 1.384 . S
N498 C494 1.427 . S
N498 C495 1.384 . S
N499 C491 1.427 . S
N499 C497 1.384 . S
H500 C506 0.930 . S
H501 C510 0.930 . S
H502 C515 0.929 . S
H503 C513 0.929 . S
H504 C508 0.929 . S
H505 C514 0.929 . S
C506 H500 0.930 . S
C506 C507 1.367 . S
C506 C514 1.378 . S
C507 C506 1.367 . S
C507 C515 1.433 . S
C508 H504 0.929 . S
C508 C510 1.378 . S
C508 C512 1.350 . S
C509 C512 1.463 1_655 S
C509 C514 1.350 . S
C509 N517 1.427 . S
C510 H501 0.930 . S
C510 C508 1.378 . S
C510 C511 1.367 . S
C511 C510 1.367 . S
C511 C513 1.433 . S
C512 C508 1.350 . S
C512 C509 1.463 1_455 S
C512 N516 1.427 . S
C513 H503 0.929 . S
C513 C511 1.433 . S
C513 N516 1.384 . S
C514 H505 0.929 . S
C514 C506 1.378 . S
C514 C509 1.350 . S
C515 H502 0.929 . S
C515 C507 1.433 . S
C515 N517 1.384 . S
N516 C512 1.427 . S
N516 C513 1.384 . S
N517 C509 1.427 . S
N517 C515 1.384 . S
H518 C524 0.930 . S
H519 C528 0.930 . S
H520 C533 0.929 . S
H521 C531 0.929 . S
H522 C526 0.929 . S
H523 C532 0.929 . S
C524 H518 0.930 . S
C524 C525 1.367 . S
C524 C532 1.378 . S
C525 C524 1.367 . S
C525 C533 1.433 . S
C526 H522 0.929 . S
C526 C528 1.378 . S
C526 C530 1.350 . S
C527 C530 1.463 . S
C527 C532 1.350 . S
C527 N535 1.427 . S
C528 H519 0.930 . S
C528 C526 1.378 . S
C528 C529 1.367 . S
C529 C528 1.367 . S
C529 C531 1.433 . S
C530 C526 1.350 . S
C530 C527 1.463 . S
C530 N534 1.427 . S
C531 H521 0.929 . S
C531 C529 1.433 . S
C531 N534 1.384 . S
C532 H523 0.929 . S
C532 C524 1.378 . S
C532 C527 1.350 . S
C533 H520 0.929 . S
C533 C525 1.433 . S
C533 N535 1.384 . S
N534 C530 1.427 . S
N534 C531 1.384 . S
N535 C527 1.427 . S
N535 C533 1.384 . S
H536 C542 0.930 . S
H537 C546 0.930 . S
H538 C551 0.929 . S
H539 C549 0.929 . S
H540 C544 0.929 . S
H541 C550 0.929 . S
C542 H536 0.930 . S
C542 C543 1.367 . S
C542 C550 1.378 . S
C543 C542 1.367 . S
C543 C551 1.433 . S
C544 H540 0.929 . S
C544 C546 1.378 . S
C544 C548 1.350 . S
C545 C548 1.463 . S
C545 C550 1.350 . S
C545 N553 1.427 . S
C546 H537 0.930 . S
C546 C544 1.378 . S
C546 C547 1.367 . S
C547 C546 1.367 . S
C547 C549 1.433 . S
C548 C544 1.350 . S
C548 C545 1.463 . S
C548 N552 1.427 . S
C549 H539 0.929 . S
C549 C547 1.433 . S
C549 N552 1.384 . S
C550 H541 0.929 . S
C550 C542 1.378 . S
C550 C545 1.350 . S
C551 H538 0.929 . S
C551 C543 1.433 . S
C551 N553 1.384 . S
N552 C548 1.427 . S
N552 C549 1.384 . S
N553 C545 1.427 . S
N553 C551 1.384 . S
H554 C560 0.930 . S
H555 C564 0.930 . S
H556 C569 0.929 . S
H557 C567 0.929 . S
H558 C562 0.929 . S
H559 C568 0.929 . S
C560 H554 0.930 . S
C560 C561 1.367 . S
C560 C568 1.378 . S
C561 C560 1.367 . S
C561 C569 1.433 . S
C562 H558 0.929 . S
C562 C564 1.378 . S
C562 C566 1.350 . S
C563 C566 1.463 1_455 S
C563 C568 1.350 . S
C563 N571 1.427 . S
C564 H555 0.930 . S
C564 C562 1.378 . S
C564 C565 1.367 . S
C565 C564 1.367 . S
C565 C567 1.433 . S
C566 C562 1.350 . S
C566 C563 1.463 1_655 S
C566 N570 1.427 . S
C567 H557 0.929 . S
C567 C565 1.433 . S
C567 N570 1.384 . S
C568 H559 0.929 . S
C568 C560 1.378 . S
C568 C563 1.350 . S
C569 H556 0.929 . S
C569 C561 1.433 . S
C569 N571 1.384 . S
N570 C566 1.427 . S
N570 C567 1.384 . S
N571 C563 1.427 . S
N571 C569 1.384 . S
H572 C578 0.930 . S
H573 C582 0.930 . S
H574 C587 0.929 . S
H575 C585 0.929 . S
H576 C580 0.929 . S
H577 C586 0.929 . S
C578 H572 0.930 . S
C578 C579 1.367 . S
C578 C586 1.378 . S
C579 C578 1.367 . S
C579 C587 1.433 . S
C580 H576 0.929 . S
C580 C582 1.378 . S
C580 C584 1.350 . S
C581 C584 1.463 1_655 S
C581 C586 1.350 . S
C581 N589 1.427 . S
C582 H573 0.930 . S
C582 C580 1.378 . S
C582 C583 1.367 . S
C583 C582 1.367 . S
C583 C585 1.433 . S
C584 C580 1.350 . S
C584 C581 1.463 1_455 S
C584 N588 1.427 . S
C585 H575 0.929 . S
C585 C583 1.433 . S
C585 N588 1.384 . S
C586 H577 0.929 . S
C586 C578 1.378 . S
C586 C581 1.350 . S
C587 H574 0.929 . S
C587 C579 1.433 . S
C587 N589 1.384 . S
N588 C584 1.427 . S
N588 C585 1.384 . S
N589 C581 1.427 . S
N589 C587 1.384 . S
H590 C596 0.930 . S
H591 C600 0.930 . S
H592 C605 0.929 . S
H593 C603 0.929 . S
H594 C598 0.929 . S
H595 C604 0.929 . S
C596 H590 0.930 . S
C596 C597 1.367 . S
C596 C604 1.378 . S
C597 C596 1.367 . S
C597 C605 1.433 . S
C598 H594 0.929 . S
C598 C600 1.378 . S
C598 C602 1.350 . S
C599 C602 1.463 . S
C599 C604 1.350 . S
C599 N607 1.427 . S
C600 H591 0.930 . S
C600 C598 1.378 . S
C600 C601 1.367 . S
C601 C600 1.367 . S
C601 C603 1.433 . S
C602 C598 1.350 . S
C602 C599 1.463 . S
C602 N606 1.427 . S
C603 H593 0.929 . S
C603 C601 1.433 . S
C603 N606 1.384 . S
C604 H595 0.929 . S
C604 C596 1.378 . S
C604 C599 1.350 . S
C605 H592 0.929 . S
C605 C597 1.433 . S
C605 N607 1.384 . S
N606 C602 1.427 . S
N606 C603 1.384 . S
N607 C599 1.427 . S
N607 C605 1.384 . S
H608 C614 0.930 . S
H609 C618 0.930 . S
H610 C623 0.929 . S
H611 C621 0.929 . S
H612 C616 0.929 . S
H613 C622 0.929 . S
C614 H608 0.930 . S
C614 C615 1.367 . S
C614 C622 1.378 . S
C615 C614 1.367 . S
C615 C623 1.433 . S
C616 H612 0.929 . S
C616 C618 1.378 . S
C616 C620 1.350 . S
C617 C620 1.463 1_655 S
C617 C622 1.350 . S
C617 N625 1.427 . S
C618 H609 0.930 . S
C618 C616 1.378 . S
C618 C619 1.367 . S
C619 C618 1.367 . S
C619 C621 1.433 . S
C620 C616 1.350 . S
C620 C617 1.463 1_455 S
C620 N624 1.427 . S
C621 H611 0.929 . S
C621 C619 1.433 . S
C621 N624 1.384 . S
C622 H613 0.929 . S
C622 C614 1.378 . S
C622 C617 1.350 . S
C623 H610 0.929 . S
C623 C615 1.433 . S
C623 N625 1.384 . S
N624 C620 1.427 . S
N624 C621 1.384 . S
N625 C617 1.427 . S
N625 C623 1.384 . S
H626 C632 0.930 . S
H627 C636 0.930 . S
H628 C641 0.929 . S
H629 C639 0.929 . S
H630 C634 0.929 . S
H631 C640 0.929 . S
C632 H626 0.930 . S
C632 C633 1.367 . S
C632 C640 1.378 . S
C633 C632 1.367 . S
C633 C641 1.433 . S
C634 H630 0.929 . S
C634 C636 1.378 . S
C634 C638 1.350 . S
C635 C638 1.463 . S
C635 C640 1.350 . S
C635 N643 1.427 . S
C636 H627 0.930 . S
C636 C634 1.378 . S
C636 C637 1.367 . S
C637 C636 1.367 . S
C637 C639 1.433 . S
C638 C634 1.350 . S
C638 C635 1.463 . S
C638 N642 1.427 . S
C639 H629 0.929 . S
C639 C637 1.433 . S
C639 N642 1.384 . S
C640 H631 0.929 . S
C640 C632 1.378 . S
C640 C635 1.350 . S
C641 H628 0.929 . S
C641 C633 1.433 . S
C641 N643 1.384 . S
N642 C638 1.427 . S
N642 C639 1.384 . S
N643 C635 1.427 . S
N643 C641 1.384 . S
H644 C650 0.930 . S
H645 C654 0.930 . S
H646 C659 0.929 . S
H647 C657 0.929 . S
H648 C652 0.929 . S
H649 C658 0.929 . S
C650 H644 0.930 . S
C650 C651 1.367 . S
C650 C658 1.378 . S
C651 C650 1.367 . S
C651 C659 1.433 . S
C652 H648 0.929 . S
C652 C654 1.378 . S
C652 C656 1.350 . S
C653 C656 1.463 . S
C653 C658 1.350 . S
C653 N661 1.427 . S
C654 H645 0.930 . S
C654 C652 1.378 . S
C654 C655 1.367 . S
C655 C654 1.367 . S
C655 C657 1.433 . S
C656 C652 1.350 . S
C656 C653 1.463 . S
C656 N660 1.427 . S
C657 H647 0.929 . S
C657 C655 1.433 . S
C657 N660 1.384 . S
C658 H649 0.929 . S
C658 C650 1.378 . S
C658 C653 1.350 . S
C659 H646 0.929 . S
C659 C651 1.433 . S
C659 N661 1.384 . S
N660 C656 1.427 . S
N660 C657 1.384 . S
N661 C653 1.427 . S
N661 C659 1.384 . S
H662 C668 0.930 . S
H663 C672 0.930 . S
H664 C677 0.929 . S
H665 C675 0.929 . S
H666 C670 0.929 . S
H667 C676 0.929 . S
C668 H662 0.930 . S
C668 C669 1.367 . S
C668 C676 1.378 . S
C669 C668 1.367 . S
C669 C677 1.433 . S
C670 H666 0.929 . S
C670 C672 1.378 . S
C670 C674 1.350 . S
C671 C674 1.463 1_455 S
C671 C676 1.350 . S
C671 N679 1.427 . S
C672 H663 0.930 . S
C672 C670 1.378 . S
C672 C673 1.367 . S
C673 C672 1.367 . S
C673 C675 1.433 . S
C674 C670 1.350 . S
C674 C671 1.463 1_655 S
C674 N678 1.427 . S
C675 H665 0.929 . S
C675 C673 1.433 . S
C675 N678 1.384 . S
C676 H667 0.929 . S
C676 C668 1.378 . S
C676 C671 1.350 . S
C677 H664 0.929 . S
C677 C669 1.433 . S
C677 N679 1.384 . S
N678 C674 1.427 . S
N678 C675 1.384 . S
N679 C671 1.427 . S
N679 C677 1.384 . S
H680 C686 0.930 . S
H681 C690 0.930 . S
H682 C695 0.929 . S
H683 C693 0.929 . S
H684 C688 0.929 . S
H685 C694 0.929 . S
C686 H680 0.930 . S
C686 C687 1.367 . S
C686 C694 1.378 . S
C687 C686 1.367 . S
C687 C695 1.433 . S
C688 H684 0.929 . S
C688 C690 1.378 . S
C688 C692 1.350 . S
C689 C692 1.463 1_455 S
C689 C694 1.350 . S
C689 N697 1.427 . S
C690 H681 0.930 . S
C690 C688 1.378 . S
C690 C691 1.367 . S
C691 C690 1.367 . S
C691 C693 1.433 . S
C692 C688 1.350 . S
C692 C689 1.463 1_655 S
C692 N696 1.427 . S
C693 H683 0.929 . S
C693 C691 1.433 . S
C693 N696 1.384 . S
C694 H685 0.929 . S
C694 C686 1.378 . S
C694 C689 1.350 . S
C695 H682 0.929 . S
C695 C687 1.433 . S
C695 N697 1.384 . S
N696 C692 1.427 . S
N696 C693 1.384 . S
N697 C689 1.427 . S
N697 C695 1.384 . S
H698 C704 0.930 . S
H699 C708 0.930 . S
H700 C713 0.929 . S
H701 C711 0.929 . S
H702 C706 0.929 . S
H703 C712 0.929 . S
C704 H698 0.930 . S
C704 C705 1.367 . S
C704 C712 1.378 . S
C705 C704 1.367 . S
C705 C713 1.433 . S
C706 H702 0.929 . S
C706 C708 1.378 . S
C706 C710 1.350 . S
C707 C710 1.463 . S
C707 C712 1.350 . S
C707 N715 1.427 . S
C708 H699 0.930 . S
C708 C706 1.378 . S
C708 C709 1.367 . S
C709 C708 1.367 . S
C709 C711 1.433 . S
C710 C706 1.350 . S
C710 C707 1.463 . S
C710 N714 1.427 . S
C711 H701 0.929 . S
C711 C709 1.433 . S
C711 N714 1.384 . S
C712 H703 0.929 . S
C712 C704 1.378 . S
C712 C707 1.350 . S
C713 H700 0.929 . S
C713 C705 1.433 . S
C713 N715 1.384 . S
N714 C710 1.427 . S
N714 C711 1.384 . S
N715 C707 1.427 . S
N715 C713 1.384 . S
H716 C722 0.930 . S
H717 C726 0.930 . S
H718 C731 0.929 . S
H719 C729 0.929 . S
H720 C724 0.929 . S
H721 C730 0.929 . S
C722 H716 0.930 . S
C722 C723 1.367 . S
C722 C730 1.378 . S
C723 C722 1.367 . S
C723 C731 1.433 . S
C724 H720 0.929 . S
C724 C726 1.378 . S
C724 C728 1.350 . S
C725 C728 1.463 . S
C725 C730 1.350 . S
C725 N733 1.427 . S
C726 H717 0.930 . S
C726 C724 1.378 . S
C726 C727 1.367 . S
C727 C726 1.367 . S
C727 C729 1.433 . S
C728 C724 1.350 . S
C728 C725 1.463 . S
C728 N732 1.427 . S
C729 H719 0.929 . S
C729 C727 1.433 . S
C729 N732 1.384 . S
C730 H721 0.929 . S
C730 C722 1.378 . S
C730 C725 1.350 . S
C731 H718 0.929 . S
C731 C723 1.433 . S
C731 N733 1.384 . S
N732 C728 1.427 . S
N732 C729 1.384 . S
N733 C725 1.427 . S
N733 C731 1.384 . S
H734 C740 0.930 . S
H735 C744 0.930 . S
H736 C749 0.929 . S
H737 C747 0.929 . S
H738 C742 0.929 . S
H739 C748 0.929 . S
C740 H734 0.930 . S
C740 C741 1.367 . S
C740 C748 1.378 . S
C741 C740 1.367 . S
C741 C749 1.433 . S
C742 H738 0.929 . S
C742 C744 1.378 . S
C742 C746 1.350 . S
C743 C746 1.463 1_455 S
C743 C748 1.350 . S
C743 N751 1.427 . S
C744 H735 0.930 . S
C744 C742 1.378 . S
C744 C745 1.367 . S
C745 C744 1.367 . S
C745 C747 1.433 . S
C746 C742 1.350 . S
C746 C743 1.463 1_655 S
C746 N750 1.427 . S
C747 H737 0.929 . S
C747 C745 1.433 . S
C747 N750 1.384 . S
C748 H739 0.929 . S
C748 C740 1.378 . S
C748 C743 1.350 . S
C749 H736 0.929 . S
C749 C741 1.433 . S
C749 N751 1.384 . S
N750 C746 1.427 . S
N750 C747 1.384 . S
N751 C743 1.427 . S
N751 C749 1.384 . S
H752 C758 0.930 . S
H753 C762 0.930 . S
H754 C767 0.929 . S
H755 C765 0.929 . S
H756 C760 0.929 . S
H757 C766 0.929 1_556 S
C758 H752 0.930 . S
C758 C759 1.367 . S
C758 C766 1.378 . S
C759 C758 1.367 . S
C759 C767 1.433 . S
C760 H756 0.929 . S
C760 C762 1.378 . S
C760 C764 1.350 . S
C761 C764 1.463 1_554 S
C761 C766 1.350 . S
C761 N769 1.427 . S
C762 H753 0.930 . S
C762 C760 1.378 . S
C762 C763 1.367 . S
C763 C762 1.367 . S
C763 C765 1.433 . S
C764 C760 1.350 . S
C764 C761 1.463 1_556 S
C764 N768 1.427 . S
C765 H755 0.929 . S
C765 C763 1.433 . S
C765 N768 1.384 . S
C766 H757 0.929 1_554 S
C766 C758 1.378 . S
C766 C761 1.350 . S
C767 H754 0.929 . S
C767 C759 1.433 . S
C767 N769 1.384 . S
N768 C764 1.427 . S
N768 C765 1.384 . S
N769 C761 1.427 . S
N769 C767 1.384 . S
H770 C776 0.930 . S
H771 C780 0.930 . S
H772 C785 0.929 . S
H773 C783 0.929 . S
H774 C778 0.929 . S
H775 C784 0.929 . S
C776 H770 0.930 . S
C776 C777 1.367 . S
C776 C784 1.378 . S
C777 C776 1.367 . S
C777 C785 1.433 . S
C778 H774 0.929 . S
C778 C780 1.378 . S
C778 C782 1.350 . S
C779 C782 1.463 1_554 S
C779 C784 1.350 . S
C779 N787 1.427 . S
C780 H771 0.930 . S
C780 C778 1.378 . S
C780 C781 1.367 . S
C781 C780 1.367 . S
C781 C783 1.433 . S
C782 C778 1.350 . S
C782 C779 1.463 1_556 S
C782 N786 1.427 . S
C783 H773 0.929 . S
C783 C781 1.433 . S
C783 N786 1.384 . S
C784 H775 0.929 . S
C784 C776 1.378 . S
C784 C779 1.350 . S
C785 H772 0.929 . S
C785 C777 1.433 . S
C785 N787 1.384 . S
N786 C782 1.427 . S
N786 C783 1.384 . S
N787 C779 1.427 . S
N787 C785 1.384 . S
H788 C794 0.930 . S
H789 C798 0.930 . S
H790 C803 0.929 . S
H791 C801 0.929 . S
H792 C796 0.929 . S
H793 C802 0.929 . S
C794 H788 0.930 . S
C794 C795 1.367 . S
C794 C802 1.378 . S
C795 C794 1.367 . S
C795 C803 1.433 . S
C796 H792 0.929 . S
C796 C798 1.378 . S
C796 C800 1.350 . S
C797 C800 1.463 . S
C797 C802 1.350 . S
C797 N805 1.427 . S
C798 H789 0.930 . S
C798 C796 1.378 . S
C798 C799 1.367 . S
C799 C798 1.367 . S
C799 C801 1.433 . S
C800 C796 1.350 . S
C800 C797 1.463 . S
C800 N804 1.427 . S
C801 H791 0.929 . S
C801 C799 1.433 . S
C801 N804 1.384 . S
C802 H793 0.929 . S
C802 C794 1.378 . S
C802 C797 1.350 . S
C803 H790 0.929 . S
C803 C795 1.433 . S
C803 N805 1.384 . S
N804 C800 1.427 . S
N804 C801 1.384 . S
N805 C797 1.427 . S
N805 C803 1.384 . S
H806 C812 0.930 . S
H807 C816 0.930 . S
H808 C821 0.929 . S
H809 C819 0.929 . S
H810 C814 0.929 . S
H811 C820 0.929 . S
C812 H806 0.930 . S
C812 C813 1.367 . S
C812 C820 1.378 . S
C813 C812 1.367 . S
C813 C821 1.433 . S
C814 H810 0.929 . S
C814 C816 1.378 . S
C814 C818 1.350 . S
C815 C818 1.463 . S
C815 C820 1.350 . S
C815 N823 1.427 . S
C816 H807 0.930 . S
C816 C814 1.378 . S
C816 C817 1.367 . S
C817 C816 1.367 . S
C817 C819 1.433 . S
C818 C814 1.350 . S
C818 C815 1.463 . S
C818 N822 1.427 . S
C819 H809 0.929 . S
C819 C817 1.433 . S
C819 N822 1.384 . S
C820 H811 0.929 . S
C820 C812 1.378 . S
C820 C815 1.350 . S
C821 H808 0.929 . S
C821 C813 1.433 . S
C821 N823 1.384 . S
N822 C818 1.427 . S
N822 C819 1.384 . S
N823 C815 1.427 . S
N823 C821 1.384 . S
H824 C830 0.930 . S
H825 C834 0.930 . S
H826 C839 0.929 . S
H827 C837 0.929 . S
H828 C832 0.929 . S
H829 C838 0.942 . S
C830 H824 0.930 . S
C830 C831 1.367 . S
C830 C838 1.378 . S
C831 C830 1.367 . S
C831 C839 1.433 . S
C832 H828 0.929 . S
C832 C834 1.378 . S
C832 C836 1.350 . S
C833 C836 1.463 1_556 S
C833 C838 1.350 . S
C833 N841 1.427 . S
C834 H825 0.930 . S
C834 C832 1.378 . S
C834 C835 1.367 . S
C835 C834 1.367 . S
C835 C837 1.433 . S
C836 C832 1.350 . S
C836 C833 1.463 1_554 S
C836 N840 1.427 . S
C837 H827 0.929 . S
C837 C835 1.433 . S
C837 N840 1.384 . S
C838 H829 0.942 . S
C838 C830 1.378 . S
C838 C833 1.350 . S
C839 H826 0.929 . S
C839 C831 1.433 . S
C839 N841 1.384 . S
N840 C836 1.427 . S
N840 C837 1.384 . S
N841 C833 1.427 . S
N841 C839 1.384 . S
H842 C848 0.930 . S
H843 C852 0.930 . S
H844 C857 0.929 . S
H845 C855 0.929 . S
H846 C850 0.929 . S
H847 C856 0.929 . S
C848 H842 0.930 . S
C848 C849 1.367 . S
C848 C856 1.378 . S
C849 C848 1.367 . S
C849 C857 1.433 . S
C850 H846 0.929 . S
C850 C852 1.378 . S
C850 C854 1.350 . S
C851 C854 1.463 1_556 S
C851 C856 1.350 . S
C851 N859 1.427 . S
C852 H843 0.930 . S
C852 C850 1.378 . S
C852 C853 1.367 . S
C853 C852 1.367 . S
C853 C855 1.433 . S
C854 C850 1.350 . S
C854 C851 1.463 1_554 S
C854 N858 1.427 . S
C855 H845 0.929 . S
C855 C853 1.433 . S
C855 N858 1.384 . S
C856 H847 0.929 . S
C856 C848 1.378 . S
C856 C851 1.350 . S
C857 H844 0.929 . S
C857 C849 1.433 . S
C857 N859 1.384 . S
N858 C854 1.427 . S
N858 C855 1.384 . S
N859 C851 1.427 . S
N859 C857 1.384 . S
H860 C866 0.930 . S
H861 C870 0.930 . S
H862 C875 0.929 . S
H863 C873 0.929 . S
H864 C868 0.929 . S
H865 C874 0.929 . S
C866 H860 0.930 . S
C866 C867 1.367 . S
C866 C874 1.378 . S
C867 C866 1.367 . S
C867 C875 1.433 . S
C868 H864 0.929 . S
C868 C870 1.378 . S
C868 C872 1.350 . S
C869 C872 1.463 . S
C869 C874 1.350 . S
C869 N877 1.427 . S
C870 H861 0.930 . S
C870 C868 1.378 . S
C870 C871 1.367 . S
C871 C870 1.367 . S
C871 C873 1.433 . S
C872 C868 1.350 . S
C872 C869 1.463 . S
C872 N876 1.427 . S
C873 H863 0.929 . S
C873 C871 1.433 . S
C873 N876 1.384 . S
C874 H865 0.929 . S
C874 C866 1.378 . S
C874 C869 1.350 . S
C875 H862 0.929 . S
C875 C867 1.433 . S
C875 N877 1.384 . S
N876 C872 1.427 . S
N876 C873 1.384 . S
N877 C869 1.427 . S
N877 C875 1.384 . S
H878 C884 0.930 . S
H879 C888 0.930 . S
H880 C893 0.929 . S
H881 C891 0.929 . S
H882 C886 0.929 . S
H883 C892 0.929 . S
C884 H878 0.930 . S
C884 C885 1.367 . S
C884 C892 1.378 . S
C885 C884 1.367 . S
C885 C893 1.433 . S
C886 H882 0.929 . S
C886 C888 1.378 . S
C886 C890 1.350 . S
C887 C890 1.463 . S
C887 C892 1.350 . S
C887 N895 1.427 . S
C888 H879 0.930 . S
C888 C886 1.378 . S
C888 C889 1.367 . S
C889 C888 1.367 . S
C889 C891 1.433 . S
C890 C886 1.350 . S
C890 C887 1.463 . S
C890 N894 1.427 . S
C891 H881 0.929 . S
C891 C889 1.433 . S
C891 N894 1.384 . S
C892 H883 0.929 . S
C892 C884 1.378 . S
C892 C887 1.350 . S
C893 H880 0.929 . S
C893 C885 1.433 . S
C893 N895 1.384 . S
N894 C890 1.427 . S
N894 C891 1.384 . S
N895 C887 1.427 . S
N895 C893 1.384 . S
H896 C902 0.930 . S
H897 C906 0.930 . S
H898 C911 0.929 . S
H899 C909 0.929 . S
H900 C904 0.929 . S
H901 C910 0.929 1_556 S
C902 H896 0.930 . S
C902 C903 1.367 . S
C902 C910 1.378 . S
C903 C902 1.367 . S
C903 C911 1.433 . S
C904 H900 0.929 . S
C904 C906 1.378 . S
C904 C908 1.350 . S
C905 C908 1.463 1_554 S
C905 C910 1.350 . S
C905 N913 1.427 . S
C906 H897 0.930 . S
C906 C904 1.378 . S
C906 C907 1.367 . S
C907 C906 1.367 . S
C907 C909 1.433 . S
C908 C904 1.350 . S
C908 C905 1.463 1_556 S
C908 N912 1.427 . S
C909 H899 0.929 . S
C909 C907 1.433 . S
C909 N912 1.384 . S
C910 H901 0.929 1_554 S
C910 C902 1.378 . S
C910 C905 1.350 . S
C911 H898 0.929 . S
C911 C903 1.433 . S
C911 N913 1.384 . S
N912 C908 1.427 . S
N912 C909 1.384 . S
N913 C905 1.427 . S
N913 C911 1.384 . S
H914 C920 0.930 . S
H915 C924 0.930 . S
H916 C929 0.929 . S
H917 C927 0.929 . S
H918 C922 0.929 . S
H919 C928 0.929 . S
C920 H914 0.930 . S
C920 C921 1.367 . S
C920 C928 1.378 . S
C921 C920 1.367 . S
C921 C929 1.433 . S
C922 H918 0.929 . S
C922 C924 1.378 . S
C922 C926 1.350 . S
C923 C926 1.463 1_556 S
C923 C928 1.350 . S
C923 N931 1.427 . S
C924 H915 0.930 . S
C924 C922 1.378 . S
C924 C925 1.367 . S
C925 C924 1.367 . S
C925 C927 1.433 . S
C926 C922 1.350 . S
C926 C923 1.463 1_554 S
C926 N930 1.427 . S
C927 H917 0.929 . S
C927 C925 1.433 . S
C927 N930 1.384 . S
C928 H919 0.929 . S
C928 C920 1.378 . S
C928 C923 1.350 . S
C929 H916 0.929 . S
C929 C921 1.433 . S
C929 N931 1.384 . S
N930 C926 1.427 . S
N930 C927 1.384 . S
N931 C923 1.427 . S
N931 C929 1.384 . S
H932 C938 0.930 . S
H933 C942 0.930 . S
H934 C947 0.929 . S
H935 C945 0.929 . S
H936 C940 0.929 . S
H937 C946 0.929 . S
C938 H932 0.930 . S
C938 C939 1.367 . S
C938 C946 1.378 . S
C939 C938 1.367 . S
C939 C947 1.433 . S
C940 H936 0.929 . S
C940 C942 1.378 . S
C940 C944 1.350 . S
C941 C944 1.463 . S
C941 C946 1.350 . S
C941 N949 1.427 . S
C942 H933 0.930 . S
C942 C940 1.378 . S
C942 C943 1.367 . S
C943 C942 1.367 . S
C943 C945 1.433 . S
C944 C940 1.350 . S
C944 C941 1.463 . S
C944 N948 1.427 . S
C945 H935 0.929 . S
C945 C943 1.433 . S
C945 N948 1.384 . S
C946 H937 0.929 . S
C946 C938 1.378 . S
C946 C941 1.350 . S
C947 H934 0.929 . S
C947 C939 1.433 . S
C947 N949 1.384 . S
N948 C944 1.427 . S
N948 C945 1.384 . S
N949 C941 1.427 . S
N949 C947 1.384 . S
H950 C956 0.930 . S
H951 C960 0.930 . S
H952 C965 0.929 . S
H953 C963 0.929 . S
H954 C958 0.929 . S
H955 C964 0.929 . S
C956 H950 0.930 . S
C956 C957 1.367 . S
C956 C964 1.378 . S
C957 C956 1.367 . S
C957 C965 1.433 . S
C958 H954 0.929 . S
C958 C960 1.378 . S
C958 C962 1.350 . S
C959 C962 1.463 . S
C959 C964 1.350 . S
C959 N967 1.427 . S
C960 H951 0.930 . S
C960 C958 1.378 . S
C960 C961 1.367 . S
C961 C960 1.367 . S
C961 C963 1.433 . S
C962 C958 1.350 . S
C962 C959 1.463 . S
C962 N966 1.427 . S
C963 H953 0.929 . S
C963 C961 1.433 . S
C963 N966 1.384 . S
C964 H955 0.929 . S
C964 C956 1.378 . S
C964 C959 1.350 . S
C965 H952 0.929 . S
C965 C957 1.433 . S
C965 N967 1.384 . S
N966 C962 1.427 . S
N966 C963 1.384 . S
N967 C959 1.427 . S
N967 C965 1.384 . S
H968 C974 0.930 . S
H969 C978 0.930 . S
H970 C983 0.929 . S
H971 C981 0.929 . S
H972 C976 0.929 . S
H973 C982 0.929 . S
C974 H968 0.930 . S
C974 C975 1.367 . S
C974 C982 1.378 . S
C975 C974 1.367 . S
C975 C983 1.433 . S
C976 H972 0.929 . S
C976 C978 1.378 . S
C976 C980 1.350 . S
C977 C980 1.463 1_554 S
C977 C982 1.350 . S
C977 N985 1.427 . S
C978 H969 0.930 . S
C978 C976 1.378 . S
C978 C979 1.367 . S
C979 C978 1.367 . S
C979 C981 1.433 . S
C980 C976 1.350 . S
C980 C977 1.463 1_556 S
C980 N984 1.427 . S
C981 H971 0.929 . S
C981 C979 1.433 . S
C981 N984 1.384 . S
C982 H973 0.929 . S
C982 C974 1.378 . S
C982 C977 1.350 . S
C983 H970 0.929 . S
C983 C975 1.433 . S
C983 N985 1.384 . S
N984 C980 1.427 . S
N984 C981 1.384 . S
N985 C977 1.427 . S
N985 C983 1.384 . S
H986 C992 0.930 . S
H987 C996 0.930 . S
H988 C1001 0.929 . S
H989 C999 0.929 . S
H990 C994 0.929 . S
H991 C1000 0.929 1_554 S
C992 H986 0.930 . S
C992 C993 1.367 . S
C992 C1000 1.378 . S
C993 C992 1.367 . S
C993 C1001 1.433 . S
C994 H990 0.929 . S
C994 C996 1.378 . S
C994 C998 1.350 . S
C995 C998 1.463 1_556 S
C995 C1000 1.350 . S
C995 N1003 1.427 . S
C996 H987 0.930 . S
C996 C994 1.378 . S
C996 C997 1.367 . S
C997 C996 1.367 . S
C997 C999 1.433 . S
C998 C994 1.350 . S
C998 C995 1.463 1_554 S
C998 N1002 1.427 . S
C999 H989 0.929 . S
C999 C997 1.433 . S
C999 N1002 1.384 . S
C1000 H991 0.929 1_556 S
C1000 C992 1.378 . S
C1000 C995 1.350 . S
C1001 H988 0.929 . S
C1001 C993 1.433 . S
C1001 N1003 1.384 . S
N1002 C998 1.427 . S
N1002 C999 1.384 . S
N1003 C995 1.427 . S
N1003 C1001 1.384 . S
H1004 C1010 0.930 . S
H1005 C1014 0.930 . S
H1006 C1019 0.929 . S
H1007 C1017 0.929 . S
H1008 C1012 0.929 . S
H1009 C1018 0.929 . S
C1010 H1004 0.930 . S
C1010 C1011 1.367 . S
C1010 C1018 1.378 . S
C1011 C1010 1.367 . S
C1011 C1019 1.433 . S
C1012 H1008 0.929 . S
C1012 C1014 1.378 . S
C1012 C1016 1.350 . S
C1013 C1016 1.463 . S
C1013 C1018 1.350 . S
C1013 N1021 1.427 . S
C1014 H1005 0.930 . S
C1014 C1012 1.378 . S
C1014 C1015 1.367 . S
C1015 C1014 1.367 . S
C1015 C1017 1.433 . S
C1016 C1012 1.350 . S
C1016 C1013 1.463 . S
C1016 N1020 1.427 . S
C1017 H1007 0.929 . S
C1017 C1015 1.433 . S
C1017 N1020 1.384 . S
C1018 H1009 0.929 . S
C1018 C1010 1.378 . S
C1018 C1013 1.350 . S
C1019 H1006 0.929 . S
C1019 C1011 1.433 . S
C1019 N1021 1.384 . S
N1020 C1016 1.427 . S
N1020 C1017 1.384 . S
N1021 C1013 1.427 . S
N1021 C1019 1.384 . S
H1022 C1028 0.930 . S
H1023 C1032 0.930 . S
H1024 C1037 0.929 . S
H1025 C1035 0.929 . S
H1026 C1030 0.929 . S
H1027 C1036 0.929 . S
C1028 H1022 0.930 . S
C1028 C1029 1.367 . S
C1028 C1036 1.378 . S
C1029 C1028 1.367 . S
C1029 C1037 1.433 . S
C1030 H1026 0.929 . S
C1030 C1032 1.378 . S
C1030 C1034 1.350 . S
C1031 C1034 1.463 . S
C1031 C1036 1.350 . S
C1031 N1039 1.427 . S
C1032 H1023 0.930 . S
C1032 C1030 1.378 . S
C1032 C1033 1.367 . S
C1033 C1032 1.367 . S
C1033 C1035 1.433 . S
C1034 C1030 1.350 . S
C1034 C1031 1.463 . S
C1034 N1038 1.427 . S
C1035 H1025 0.929 . S
C1035 C1033 1.433 . S
C1035 N1038 1.384 . S
C1036 H1027 0.929 . S
C1036 C1028 1.378 . S
C1036 C1031 1.350 . S
C1037 H1024 0.929 . S
C1037 C1029 1.433 . S
C1037 N1039 1.384 . S
N1038 C1034 1.427 . S
N1038 C1035 1.384 . S
N1039 C1031 1.427 . S
N1039 C1037 1.384 . S
H1040 C1046 0.930 . S
H1041 C1050 0.930 . S
H1042 C1055 0.929 . S
H1043 C1053 0.929 . S
H1044 C1048 0.929 1_545 S
H1045 C1054 0.929 1_565 S
C1046 H1040 0.930 . S
C1046 C1047 1.367 . S
C1046 C1054 1.378 . S
C1047 C1046 1.367 . S
C1047 C1055 1.433 . S
C1048 H1044 0.929 1_565 S
C1048 C1050 1.378 . S
C1048 C1052 1.350 . S
C1049 C1052 1.463 1_545 S
C1049 C1054 1.350 . S
C1049 N1057 1.427 . S
C1050 H1041 0.930 . S
C1050 C1048 1.378 . S
C1050 C1051 1.367 . S
C1051 C1050 1.367 . S
C1051 C1053 1.433 . S
C1052 C1048 1.350 . S
C1052 C1049 1.463 1_565 S
C1052 N1056 1.427 . S
C1053 H1043 0.929 . S
C1053 C1051 1.433 . S
C1053 N1056 1.384 . S
C1054 H1045 0.929 1_545 S
C1054 C1046 1.378 . S
C1054 C1049 1.350 . S
C1055 H1042 0.929 . S
C1055 C1047 1.433 . S
C1055 N1057 1.384 . S
N1056 C1052 1.427 . S
N1056 C1053 1.384 . S
N1057 C1049 1.427 . S
N1057 C1055 1.384 . S
H1058 C1064 0.930 . S
H1059 C1068 0.930 . S
H1060 C1073 0.929 . S
H1061 C1071 0.929 . S
H1062 C1066 0.929 1_545 S
H1063 C1072 0.929 1_565 S
C1064 H1058 0.930 . S
C1064 C1065 1.367 . S
C1064 C1072 1.378 . S
C1065 C1064 1.367 . S
C1065 C1073 1.433 . S
C1066 H1062 0.929 1_565 S
C1066 C1068 1.378 . S
C1066 C1070 1.350 . S
C1067 C1070 1.463 1_545 S
C1067 C1072 1.350 . S
C1067 N1075 1.427 . S
C1068 H1059 0.930 . S
C1068 C1066 1.378 . S
C1068 C1069 1.367 . S
C1069 C1068 1.367 . S
C1069 C1071 1.433 . S
C1070 C1066 1.350 . S
C1070 C1067 1.463 1_565 S
C1070 N1074 1.427 . S
C1071 H1061 0.929 . S
C1071 C1069 1.433 . S
C1071 N1074 1.384 . S
C1072 H1063 0.929 1_545 S
C1072 C1064 1.378 . S
C1072 C1067 1.350 . S
C1073 H1060 0.929 . S
C1073 C1065 1.433 . S
C1073 N1075 1.384 . S
N1074 C1070 1.427 . S
N1074 C1071 1.384 . S
N1075 C1067 1.427 . S
N1075 C1073 1.384 . S
H1076 C1082 0.930 . S
H1077 C1086 0.930 . S
H1078 C1091 0.929 . S
H1079 C1089 0.929 . S
H1080 C1084 0.896 1_565 S
H1081 C1090 0.896 1_545 S
C1082 H1076 0.930 . S
C1082 C1083 1.367 . S
C1082 C1090 1.378 . S
C1083 C1082 1.367 . S
C1083 C1091 1.433 . S
C1084 H1080 0.896 1_545 S
C1084 C1086 1.378 . S
C1084 C1088 1.350 . S
C1085 C1088 1.463 1_565 S
C1085 C1090 1.350 . S
C1085 N1093 1.427 . S
C1086 H1077 0.930 . S
C1086 C1084 1.378 . S
C1086 C1087 1.367 . S
C1087 C1086 1.367 . S
C1087 C1089 1.433 . S
C1088 C1084 1.350 . S
C1088 C1085 1.463 1_545 S
C1088 N1092 1.427 . S
C1089 H1079 0.929 . S
C1089 C1087 1.433 . S
C1089 N1092 1.384 . S
C1090 H1081 0.896 1_565 S
C1090 C1082 1.378 . S
C1090 C1085 1.350 . S
C1091 H1078 0.929 . S
C1091 C1083 1.433 . S
C1091 N1093 1.384 . S
N1092 C1088 1.427 . S
N1092 C1089 1.384 . S
N1093 C1085 1.427 . S
N1093 C1091 1.384 . S
H1094 C1100 0.930 . S
H1095 C1104 0.930 . S
H1096 C1109 0.929 . S
H1097 C1107 0.929 . S
H1098 C1102 0.896 1_565 S
H1099 C1108 0.896 1_545 S
C1100 H1094 0.930 . S
C1100 C1101 1.367 . S
C1100 C1108 1.378 . S
C1101 C1100 1.367 . S
C1101 C1109 1.433 . S
C1102 H1098 0.896 1_545 S
C1102 C1104 1.378 . S
C1102 C1106 1.350 . S
C1103 C1106 1.463 1_565 S
C1103 C1108 1.350 . S
C1103 N1111 1.427 . S
C1104 H1095 0.930 . S
C1104 C1102 1.378 . S
C1104 C1105 1.367 . S
C1105 C1104 1.367 . S
C1105 C1107 1.433 . S
C1106 C1102 1.350 . S
C1106 C1103 1.463 1_545 S
C1106 N1110 1.427 . S
C1107 H1097 0.929 . S
C1107 C1105 1.433 . S
C1107 N1110 1.384 . S
C1108 H1099 0.896 1_565 S
C1108 C1100 1.378 . S
C1108 C1103 1.350 . S
C1109 H1096 0.929 . S
C1109 C1101 1.433 . S
C1109 N1111 1.384 . S
N1110 C1106 1.427 . S
N1110 C1107 1.384 . S
N1111 C1103 1.427 . S
N1111 C1109 1.384 . S
H1112 C1118 0.930 . S
H1113 C1122 0.930 . S
H1114 C1127 0.929 . S
H1115 C1125 0.929 . S
H1116 C1120 0.929 . S
H1117 C1126 0.929 . S
C1118 H1112 0.930 . S
C1118 C1119 1.367 . S
C1118 C1126 1.378 . S
C1119 C1118 1.367 . S
C1119 C1127 1.433 . S
C1120 H1116 0.929 . S
C1120 C1122 1.378 . S
C1120 C1124 1.350 . S
C1121 C1124 1.463 . S
C1121 C1126 1.350 . S
C1121 N1129 1.427 . S
C1122 H1113 0.930 . S
C1122 C1120 1.378 . S
C1122 C1123 1.367 . S
C1123 C1122 1.367 . S
C1123 C1125 1.433 . S
C1124 C1120 1.350 . S
C1124 C1121 1.463 . S
C1124 N1128 1.427 . S
C1125 H1115 0.929 . S
C1125 C1123 1.433 . S
C1125 N1128 1.384 . S
C1126 H1117 0.929 . S
C1126 C1118 1.378 . S
C1126 C1121 1.350 . S
C1127 H1114 0.929 . S
C1127 C1119 1.433 . S
C1127 N1129 1.384 . S
N1128 C1124 1.427 . S
N1128 C1125 1.384 . S
N1129 C1121 1.427 . S
N1129 C1127 1.384 . S
H1130 C1136 0.930 . S
H1131 C1140 0.930 . S
H1132 C1145 0.929 . S
H1133 C1143 0.929 . S
H1134 C1138 0.929 . S
H1135 C1144 0.929 . S
C1136 H1130 0.930 . S
C1136 C1137 1.367 . S
C1136 C1144 1.378 . S
C1137 C1136 1.367 . S
C1137 C1145 1.433 . S
C1138 H1134 0.929 . S
C1138 C1140 1.378 . S
C1138 C1142 1.350 . S
C1139 C1142 1.463 . S
C1139 C1144 1.350 . S
C1139 N1147 1.427 . S
C1140 H1131 0.930 . S
C1140 C1138 1.378 . S
C1140 C1141 1.367 . S
C1141 C1140 1.367 . S
C1141 C1143 1.433 . S
C1142 C1138 1.350 . S
C1142 C1139 1.463 . S
C1142 N1146 1.427 . S
C1143 H1133 0.929 . S
C1143 C1141 1.433 . S
C1143 N1146 1.384 . S
C1144 H1135 0.929 . S
C1144 C1136 1.378 . S
C1144 C1139 1.350 . S
C1145 H1132 0.929 . S
C1145 C1137 1.433 . S
C1145 N1147 1.384 . S
N1146 C1142 1.427 . S
N1146 C1143 1.384 . S
N1147 C1139 1.427 . S
N1147 C1145 1.384 . S
H1148 C1154 0.930 . S
H1149 C1158 0.930 . S
H1150 C1163 0.929 . S
H1151 C1161 0.929 . S
H1152 C1156 0.929 . S
H1153 C1162 0.929 . S
C1154 H1148 0.930 . S
C1154 C1155 1.367 . S
C1154 C1162 1.378 . S
C1155 C1154 1.367 . S
C1155 C1163 1.433 . S
C1156 H1152 0.929 . S
C1156 C1158 1.378 . S
C1156 C1160 1.350 . S
C1157 C1160 1.463 . S
C1157 C1162 1.350 . S
C1157 N1165 1.427 . S
C1158 H1149 0.930 . S
C1158 C1156 1.378 . S
C1158 C1159 1.367 . S
C1159 C1158 1.367 . S
C1159 C1161 1.433 . S
C1160 C1156 1.350 . S
C1160 C1157 1.463 . S
C1160 N1164 1.427 . S
C1161 H1151 0.929 . S
C1161 C1159 1.433 . S
C1161 N1164 1.384 . S
C1162 H1153 0.929 . S
C1162 C1154 1.378 . S
C1162 C1157 1.350 . S
C1163 H1150 0.929 . S
C1163 C1155 1.433 . S
C1163 N1165 1.384 . S
N1164 C1160 1.427 . S
N1164 C1161 1.384 . S
N1165 C1157 1.427 . S
N1165 C1163 1.384 . S
H1166 C1172 0.930 . S
H1167 C1176 0.930 . S
H1168 C1181 0.929 . S
H1169 C1179 0.929 . S
H1170 C1174 0.929 . S
H1171 C1180 0.929 . S
C1172 H1166 0.930 . S
C1172 C1173 1.367 . S
C1172 C1180 1.378 . S
C1173 C1172 1.367 . S
C1173 C1181 1.433 . S
C1174 H1170 0.929 . S
C1174 C1176 1.378 . S
C1174 C1178 1.350 . S
C1175 C1178 1.463 . S
C1175 C1180 1.350 . S
C1175 N1183 1.427 . S
C1176 H1167 0.930 . S
C1176 C1174 1.378 . S
C1176 C1177 1.367 . S
C1177 C1176 1.367 . S
C1177 C1179 1.433 . S
C1178 C1174 1.350 . S
C1178 C1175 1.463 . S
C1178 N1182 1.427 . S
C1179 H1169 0.929 . S
C1179 C1177 1.433 . S
C1179 N1182 1.384 . S
C1180 H1171 0.929 . S
C1180 C1172 1.378 . S
C1180 C1175 1.350 . S
C1181 H1168 0.929 . S
C1181 C1173 1.433 . S
C1181 N1183 1.384 . S
N1182 C1178 1.427 . S
N1182 C1179 1.384 . S
N1183 C1175 1.427 . S
N1183 C1181 1.384 . S
H1184 C1190 0.930 . S
H1185 C1194 0.930 . S
H1186 C1199 0.929 . S
H1187 C1197 0.929 . S
H1188 C1192 0.929 . S
H1189 C1198 0.929 . S
C1190 H1184 0.930 . S
C1190 C1191 1.367 . S
C1190 C1198 1.378 . S
C1191 C1190 1.367 . S
C1191 C1199 1.433 1_455 S
C1192 H1188 0.929 . S
C1192 C1194 1.378 . S
C1192 C1196 1.350 . S
C1193 C1196 1.463 1_455 S
C1193 C1198 1.350 . S
C1193 N1201 1.427 1_455 S
C1194 H1185 0.930 . S
C1194 C1192 1.378 . S
C1194 C1195 1.367 . S
C1195 C1194 1.367 . S
C1195 C1197 1.433 1_655 S
C1196 C1192 1.350 . S
C1196 C1193 1.463 1_655 S
C1196 N1200 1.427 1_655 S
C1197 H1187 0.929 . S
C1197 C1195 1.433 1_455 S
C1197 N1200 1.384 . S
C1198 H1189 0.929 . S
C1198 C1190 1.378 . S
C1198 C1193 1.350 . S
C1199 H1186 0.929 . S
C1199 C1191 1.433 1_655 S
C1199 N1201 1.384 . S
N1200 C1196 1.427 1_455 S
N1200 C1197 1.384 . S
N1201 C1193 1.427 1_655 S
N1201 C1199 1.384 . S
H1202 C1208 0.930 . S
H1203 C1212 0.930 . S
H1204 C1217 0.929 . S
H1205 C1215 0.929 . S
H1206 C1210 0.929 . S
H1207 C1216 0.929 . S
C1208 H1202 0.930 . S
C1208 C1209 1.367 . S
C1208 C1216 1.378 . S
C1209 C1208 1.367 . S
C1209 C1217 1.433 . S
C1210 H1206 0.929 . S
C1210 C1212 1.378 . S
C1210 C1214 1.350 . S
C1211 C1214 1.463 . S
C1211 C1216 1.350 . S
C1211 N1219 1.427 . S
C1212 H1203 0.930 . S
C1212 C1210 1.378 . S
C1212 C1213 1.367 . S
C1213 C1212 1.367 . S
C1213 C1215 1.433 . S
C1214 C1210 1.350 . S
C1214 C1211 1.463 . S
C1214 N1218 1.427 . S
C1215 H1205 0.929 . S
C1215 C1213 1.433 . S
C1215 N1218 1.384 . S
C1216 H1207 0.929 . S
C1216 C1208 1.378 . S
C1216 C1211 1.350 . S
C1217 H1204 0.929 . S
C1217 C1209 1.433 . S
C1217 N1219 1.384 . S
N1218 C1214 1.427 . S
N1218 C1215 1.384 . S
N1219 C1211 1.427 . S
N1219 C1217 1.384 . S
H1220 C1226 0.930 . S
H1221 C1230 0.930 . S
H1222 C1235 0.929 . S
H1223 C1233 0.929 . S
H1224 C1228 0.929 . S
H1225 C1234 0.929 . S
C1226 H1220 0.930 . S
C1226 C1227 1.367 . S
C1226 C1234 1.378 . S
C1227 C1226 1.367 . S
C1227 C1235 1.433 . S
C1228 H1224 0.929 . S
C1228 C1230 1.378 . S
C1228 C1232 1.350 . S
C1229 C1232 1.463 . S
C1229 C1234 1.350 . S
C1229 N1237 1.427 . S
C1230 H1221 0.930 . S
C1230 C1228 1.378 . S
C1230 C1231 1.367 . S
C1231 C1230 1.367 . S
C1231 C1233 1.433 . S
C1232 C1228 1.350 . S
C1232 C1229 1.463 . S
C1232 N1236 1.427 . S
C1233 H1223 0.929 . S
C1233 C1231 1.433 . S
C1233 N1236 1.384 . S
C1234 H1225 0.929 . S
C1234 C1226 1.378 . S
C1234 C1229 1.350 . S
C1235 H1222 0.929 . S
C1235 C1227 1.433 . S
C1235 N1237 1.384 . S
N1236 C1232 1.427 . S
N1236 C1233 1.384 . S
N1237 C1229 1.427 . S
N1237 C1235 1.384 . S
H1238 C1244 0.930 . S
H1239 C1248 0.930 . S
H1240 C1253 0.929 . S
H1241 C1251 0.929 . S
H1242 C1246 0.929 . S
H1243 C1252 0.929 . S
C1244 H1238 0.930 . S
C1244 C1245 1.367 1_655 S
C1244 C1252 1.378 . S
C1245 C1244 1.367 1_455 S
C1245 C1253 1.433 . S
C1246 H1242 0.929 . S
C1246 C1248 1.378 . S
C1246 C1250 1.347 1_455 S
C1247 C1250 1.462 1_455 S
C1247 C1252 1.347 1_455 S
C1247 N1255 1.431 . S
C1248 H1239 0.930 . S
C1248 C1246 1.378 . S
C1248 C1249 1.367 1_455 S
C1249 C1248 1.367 1_655 S
C1249 C1251 1.433 . S
C1250 C1246 1.347 1_655 S
C1250 C1247 1.462 1_655 S
C1250 N1254 1.431 . S
C1251 H1241 0.929 . S
C1251 C1249 1.433 . S
C1251 N1254 1.384 . S
C1252 H1243 0.929 . S
C1252 C1244 1.378 . S
C1252 C1247 1.347 1_655 S
C1253 H1240 0.929 . S
C1253 C1245 1.433 . S
C1253 N1255 1.384 . S
N1254 C1250 1.431 . S
N1254 C1251 1.384 . S
N1255 C1247 1.431 . S
N1255 C1253 1.384 . S
H1256 C1262 0.930 . S
H1257 C1266 0.930 . S
H1258 C1271 0.929 . S
H1259 C1269 0.929 . S
H1260 C1264 0.929 . S
H1261 C1270 0.929 . S
C1262 H1256 0.930 . S
C1262 C1263 1.367 . S
C1262 C1270 1.378 . S
C1263 C1262 1.367 . S
C1263 C1271 1.433 1_655 S
C1264 H1260 0.929 . S
C1264 C1266 1.378 . S
C1264 C1268 1.350 . S
C1265 C1268 1.463 1_655 S
C1265 C1270 1.350 . S
C1265 N1273 1.427 1_655 S
C1266 H1257 0.930 . S
C1266 C1264 1.378 . S
C1266 C1267 1.367 . S
C1267 C1266 1.367 . S
C1267 C1269 1.433 1_455 S
C1268 C1264 1.350 . S
C1268 C1265 1.463 1_455 S
C1268 N1272 1.427 1_455 S
C1269 H1259 0.929 . S
C1269 C1267 1.433 1_655 S
C1269 N1272 1.384 . S
C1270 H1261 0.929 . S
C1270 C1262 1.378 . S
C1270 C1265 1.350 . S
C1271 H1258 0.929 . S
C1271 C1263 1.433 1_455 S
C1271 N1273 1.384 . S
N1272 C1268 1.427 1_655 S
N1272 C1269 1.384 . S
N1273 C1265 1.427 1_455 S
N1273 C1271 1.384 . S
H1274 C1280 0.930 . S
H1275 C1284 0.930 . S
H1276 C1289 0.929 . S
H1277 C1287 0.929 . S
H1278 C1282 0.929 . S
H1279 C1288 0.929 . S
C1280 H1274 0.930 . S
C1280 C1281 1.367 . S
C1280 C1288 1.378 . S
C1281 C1280 1.367 . S
C1281 C1289 1.433 . S
C1282 H1278 0.929 . S
C1282 C1284 1.378 . S
C1282 C1286 1.350 . S
C1283 C1286 1.463 . S
C1283 C1288 1.350 . S
C1283 N1291 1.427 . S
C1284 H1275 0.930 . S
C1284 C1282 1.378 . S
C1284 C1285 1.367 . S
C1285 C1284 1.367 . S
C1285 C1287 1.433 . S
C1286 C1282 1.350 . S
C1286 C1283 1.463 . S
C1286 N1290 1.427 . S
C1287 H1277 0.929 . S
C1287 C1285 1.433 . S
C1287 N1290 1.384 . S
C1288 H1279 0.929 . S
C1288 C1280 1.378 . S
C1288 C1283 1.350 . S
C1289 H1276 0.929 . S
C1289 C1281 1.433 . S
C1289 N1291 1.384 . S
N1290 C1286 1.427 . S
N1290 C1287 1.384 . S
N1291 C1283 1.427 . S
N1291 C1289 1.384 . S
H1292 C1298 0.930 . S
H1293 C1302 0.930 . S
H1294 C1307 0.929 . S
H1295 C1305 0.929 . S
H1296 C1300 0.929 . S
H1297 C1306 0.929 . S
C1298 H1292 0.930 . S
C1298 C1299 1.367 . S
C1298 C1306 1.378 . S
C1299 C1298 1.367 . S
C1299 C1307 1.433 . S
C1300 H1296 0.929 . S
C1300 C1302 1.378 . S
C1300 C1304 1.350 . S
C1301 C1304 1.463 . S
C1301 C1306 1.350 . S
C1301 N1309 1.427 . S
C1302 H1293 0.930 . S
C1302 C1300 1.378 . S
C1302 C1303 1.367 . S
C1303 C1302 1.367 . S
C1303 C1305 1.433 . S
C1304 C1300 1.350 . S
C1304 C1301 1.463 . S
C1304 N1308 1.427 . S
C1305 H1295 0.929 . S
C1305 C1303 1.433 . S
C1305 N1308 1.384 . S
C1306 H1297 0.929 . S
C1306 C1298 1.378 . S
C1306 C1301 1.350 . S
C1307 H1294 0.929 . S
C1307 C1299 1.433 . S
C1307 N1309 1.384 . S
N1308 C1304 1.427 . S
N1308 C1305 1.384 . S
N1309 C1301 1.427 . S
N1309 C1307 1.384 . S
H1310 C1316 0.930 . S
H1311 C1320 0.930 . S
H1312 C1325 0.929 . S
H1313 C1323 0.929 . S
H1314 C1318 0.929 . S
H1315 C1324 0.929 . S
C1316 H1310 0.930 . S
C1316 C1317 1.367 1_455 S
C1316 C1324 1.378 . S
C1317 C1316 1.367 1_655 S
C1317 C1325 1.433 . S
C1318 H1314 0.929 . S
C1318 C1320 1.378 . S
C1318 C1322 1.347 1_655 S
C1319 C1322 1.462 1_655 S
C1319 C1324 1.347 1_655 S
C1319 N1327 1.431 . S
C1320 H1311 0.930 . S
C1320 C1318 1.378 . S
C1320 C1321 1.367 1_655 S
C1321 C1320 1.367 1_455 S
C1321 C1323 1.433 . S
C1322 C1318 1.347 1_455 S
C1322 C1319 1.462 1_455 S
C1322 N1326 1.431 . S
C1323 H1313 0.929 . S
C1323 C1321 1.433 . S
C1323 N1326 1.384 . S
C1324 H1315 0.929 . S
C1324 C1316 1.378 . S
C1324 C1319 1.347 1_455 S
C1325 H1312 0.929 . S
C1325 C1317 1.433 . S
C1325 N1327 1.384 . S
N1326 C1322 1.431 . S
N1326 C1323 1.384 . S
N1327 C1319 1.431 . S
N1327 C1325 1.384 . S
H1328 C1334 0.930 . S
H1329 C1338 0.930 . S
H1330 C1343 0.929 . S
H1331 C1341 0.929 . S
H1332 C1336 0.929 . S
H1333 C1342 0.929 . S
C1334 H1328 0.930 . S
C1334 C1335 1.367 1_655 S
C1334 C1342 1.378 . S
C1335 C1334 1.367 1_455 S
C1335 C1343 1.433 . S
C1336 H1332 0.929 . S
C1336 C1338 1.378 . S
C1336 C1340 1.350 1_455 S
C1337 C1340 1.463 1_455 S
C1337 C1342 1.350 1_455 S
C1337 N1345 1.427 . S
C1338 H1329 0.930 . S
C1338 C1336 1.378 . S
C1338 C1339 1.367 1_455 S
C1339 C1338 1.367 1_655 S
C1339 C1341 1.433 . S
C1340 C1336 1.350 1_655 S
C1340 C1337 1.463 1_655 S
C1340 N1344 1.427 . S
C1341 H1331 0.929 . S
C1341 C1339 1.433 . S
C1341 N1344 1.384 . S
C1342 H1333 0.929 . S
C1342 C1334 1.378 . S
C1342 C1337 1.350 1_655 S
C1343 H1330 0.929 . S
C1343 C1335 1.433 . S
C1343 N1345 1.384 . S
N1344 C1340 1.427 . S
N1344 C1341 1.384 . S
N1345 C1337 1.427 . S
N1345 C1343 1.384 . S
H1346 C1352 0.930 . S
H1347 C1356 0.930 . S
H1348 C1361 0.929 . S
H1349 C1359 0.929 . S
H1350 C1354 0.929 . S
H1351 C1360 0.929 . S
C1352 H1346 0.930 . S
C1352 C1353 1.367 . S
C1352 C1360 1.378 . S
C1353 C1352 1.367 . S
C1353 C1361 1.433 . S
C1354 H1350 0.929 . S
C1354 C1356 1.378 . S
C1354 C1358 1.350 . S
C1355 C1358 1.463 . S
C1355 C1360 1.350 . S
C1355 N1363 1.427 . S
C1356 H1347 0.930 . S
C1356 C1354 1.378 . S
C1356 C1357 1.367 . S
C1357 C1356 1.367 . S
C1357 C1359 1.433 . S
C1358 C1354 1.350 . S
C1358 C1355 1.463 . S
C1358 N1362 1.427 . S
C1359 H1349 0.929 . S
C1359 C1357 1.433 . S
C1359 N1362 1.384 . S
C1360 H1351 0.929 . S
C1360 C1352 1.378 . S
C1360 C1355 1.350 . S
C1361 H1348 0.929 . S
C1361 C1353 1.433 . S
C1361 N1363 1.384 . S
N1362 C1358 1.427 . S
N1362 C1359 1.384 . S
N1363 C1355 1.427 . S
N1363 C1361 1.384 . S
H1364 C1370 0.930 . S
H1365 C1374 0.930 . S
H1366 C1379 0.929 . S
H1367 C1377 0.929 . S
H1368 C1372 0.929 . S
H1369 C1378 0.929 . S
C1370 H1364 0.930 . S
C1370 C1371 1.367 1_455 S
C1370 C1378 1.378 . S
C1371 C1370 1.367 1_655 S
C1371 C1379 1.433 . S
C1372 H1368 0.929 . S
C1372 C1374 1.378 . S
C1372 C1376 1.350 1_655 S
C1373 C1376 1.463 1_655 S
C1373 C1378 1.350 1_655 S
C1373 N1381 1.427 . S
C1374 H1365 0.930 . S
C1374 C1372 1.378 . S
C1374 C1375 1.367 1_655 S
C1375 C1374 1.367 1_455 S
C1375 C1377 1.433 . S
C1376 C1372 1.350 1_455 S
C1376 C1373 1.463 1_455 S
C1376 N1380 1.427 . S
C1377 H1367 0.929 . S
C1377 C1375 1.433 . S
C1377 N1380 1.384 . S
C1378 H1369 0.929 . S
C1378 C1370 1.378 . S
C1378 C1373 1.350 1_455 S
C1379 H1366 0.929 . S
C1379 C1371 1.433 . S
C1379 N1381 1.384 . S
N1380 C1376 1.427 . S
N1380 C1377 1.384 . S
N1381 C1373 1.427 . S
N1381 C1379 1.384 . S
H1382 C1388 0.930 . S
H1383 C1392 0.930 . S
H1384 C1397 0.929 . S
H1385 C1395 0.929 . S
H1386 C1390 0.929 . S
H1387 C1396 0.929 . S
C1388 H1382 0.930 . S
C1388 C1389 1.367 . S
C1388 C1396 1.378 . S
C1389 C1388 1.367 . S
C1389 C1397 1.433 . S
C1390 H1386 0.929 . S
C1390 C1392 1.378 . S
C1390 C1394 1.350 . S
C1391 C1394 1.463 . S
C1391 C1396 1.350 . S
C1391 N1399 1.427 . S
C1392 H1383 0.930 . S
C1392 C1390 1.378 . S
C1392 C1393 1.367 . S
C1393 C1392 1.367 . S
C1393 C1395 1.433 . S
C1394 C1390 1.350 . S
C1394 C1391 1.463 . S
C1394 N1398 1.427 . S
C1395 H1385 0.929 . S
C1395 C1393 1.433 . S
C1395 N1398 1.384 . S
C1396 H1387 0.929 . S
C1396 C1388 1.378 . S
C1396 C1391 1.350 . S
C1397 H1384 0.929 . S
C1397 C1389 1.433 . S
C1397 N1399 1.384 . S
N1398 C1394 1.427 . S
N1398 C1395 1.384 . S
N1399 C1391 1.427 . S
N1399 C1397 1.384 . S
H1400 C1406 0.930 . S
H1401 C1410 0.930 . S
H1402 C1415 0.929 . S
H1403 C1413 0.929 . S
H1404 C1408 0.929 . S
H1405 C1414 0.929 . S
C1406 H1400 0.930 . S
C1406 C1407 1.367 . S
C1406 C1414 1.378 . S
C1407 C1406 1.367 . S
C1407 C1415 1.433 . S
C1408 H1404 0.929 . S
C1408 C1410 1.378 . S
C1408 C1412 1.350 . S
C1409 C1412 1.463 . S
C1409 C1414 1.350 . S
C1409 N1417 1.427 . S
C1410 H1401 0.930 . S
C1410 C1408 1.378 . S
C1410 C1411 1.367 . S
C1411 C1410 1.367 . S
C1411 C1413 1.433 . S
C1412 C1408 1.350 . S
C1412 C1409 1.463 . S
C1412 N1416 1.427 . S
C1413 H1403 0.929 . S
C1413 C1411 1.433 . S
C1413 N1416 1.384 . S
C1414 H1405 0.929 . S
C1414 C1406 1.378 . S
C1414 C1409 1.350 . S
C1415 H1402 0.929 . S
C1415 C1407 1.433 . S
C1415 N1417 1.384 . S
N1416 C1412 1.427 . S
N1416 C1413 1.384 . S
N1417 C1409 1.427 . S
N1417 C1415 1.384 . S
H1418 C1424 0.930 . S
H1419 C1428 0.930 . S
H1420 C1433 0.929 . S
H1421 C1431 0.929 . S
H1422 C1426 0.929 . S
H1423 C1432 0.929 . S
C1424 H1418 0.930 . S
C1424 C1425 1.367 . S
C1424 C1432 1.378 . S
C1425 C1424 1.367 . S
C1425 C1433 1.433 1_455 S
C1426 H1422 0.929 . S
C1426 C1428 1.378 . S
C1426 C1430 1.350 . S
C1427 C1430 1.463 1_455 S
C1427 C1432 1.350 . S
C1427 N1435 1.427 1_455 S
C1428 H1419 0.930 . S
C1428 C1426 1.378 . S
C1428 C1429 1.367 . S
C1429 C1428 1.367 . S
C1429 C1431 1.433 1_655 S
C1430 C1426 1.350 . S
C1430 C1427 1.463 1_655 S
C1430 N1434 1.427 1_655 S
C1431 H1421 0.929 . S
C1431 C1429 1.433 1_455 S
C1431 N1434 1.384 . S
C1432 H1423 0.929 . S
C1432 C1424 1.378 . S
C1432 C1427 1.350 . S
C1433 H1420 0.929 . S
C1433 C1425 1.433 1_655 S
C1433 N1435 1.384 . S
N1434 C1430 1.427 1_455 S
N1434 C1431 1.384 . S
N1435 C1427 1.427 1_655 S
N1435 C1433 1.384 . S
H1436 C1442 0.930 . S
H1437 C1446 0.930 . S
H1438 C1451 0.929 . S
H1439 C1449 0.929 . S
H1440 C1444 0.929 . S
H1441 C1450 0.929 . S
C1442 H1436 0.930 . S
C1442 C1443 1.367 . S
C1442 C1450 1.378 . S
C1443 C1442 1.367 . S
C1443 C1451 1.433 . S
C1444 H1440 0.929 . S
C1444 C1446 1.378 . S
C1444 C1448 1.350 . S
C1445 C1448 1.463 . S
C1445 C1450 1.350 . S
C1445 N1453 1.427 . S
C1446 H1437 0.930 . S
C1446 C1444 1.378 . S
C1446 C1447 1.367 . S
C1447 C1446 1.367 . S
C1447 C1449 1.433 . S
C1448 C1444 1.350 . S
C1448 C1445 1.463 . S
C1448 N1452 1.427 . S
C1449 H1439 0.929 . S
C1449 C1447 1.433 . S
C1449 N1452 1.384 . S
C1450 H1441 0.929 . S
C1450 C1442 1.378 . S
C1450 C1445 1.350 . S
C1451 H1438 0.929 . S
C1451 C1443 1.433 . S
C1451 N1453 1.384 . S
N1452 C1448 1.427 . S
N1452 C1449 1.384 . S
N1453 C1445 1.427 . S
N1453 C1451 1.384 . S
H1454 C1460 0.930 . S
H1455 C1464 0.930 . S
H1456 C1469 0.929 . S
H1457 C1467 0.929 . S
H1458 C1462 0.929 . S
H1459 C1468 0.929 . S
C1460 H1454 0.930 . S
C1460 C1461 1.367 1_655 S
C1460 C1468 1.378 . S
C1461 C1460 1.367 1_455 S
C1461 C1469 1.433 . S
C1462 H1458 0.929 . S
C1462 C1464 1.378 . S
C1462 C1466 1.350 1_455 S
C1463 C1466 1.463 1_455 S
C1463 C1468 1.350 1_455 S
C1463 N1471 1.427 . S
C1464 H1455 0.930 . S
C1464 C1462 1.378 . S
C1464 C1465 1.367 1_455 S
C1465 C1464 1.367 1_655 S
C1465 C1467 1.433 . S
C1466 C1462 1.350 1_655 S
C1466 C1463 1.463 1_655 S
C1466 N1470 1.427 . S
C1467 H1457 0.929 . S
C1467 C1465 1.433 . S
C1467 N1470 1.384 . S
C1468 H1459 0.929 . S
C1468 C1460 1.378 . S
C1468 C1463 1.350 1_655 S
C1469 H1456 0.929 . S
C1469 C1461 1.433 . S
C1469 N1471 1.384 . S
N1470 C1466 1.427 . S
N1470 C1467 1.384 . S
N1471 C1463 1.427 . S
N1471 C1469 1.384 . S
C471 C15 2.103 . S
C475 C21 1.993 . S
C489 C50 1.986 . S
C493 C44 2.112 . S
C507 C79 1.990 . S
C511 C73 2.112 . S
C525 C108 1.982 . S
C529 C102 2.108 . S
C543 C131 2.103 . S
C547 C137 1.993 . S
C561 C160 2.111 . S
C565 C166 1.994 . S
C579 C189 2.105 . S
C583 C195 1.998 . S
C597 C224 1.990 . S
C601 C218 2.112 . S
C615 C253 1.986 . S
C619 C247 2.112 . S
C633 C276 2.109 . S
C637 C282 1.996 . S
C651 C305 2.112 . S
C655 C311 1.985 . S
C669 C340 1.996 . S
C673 C334 2.109 . S
C687 C369 1.995 . S
C691 C363 2.110 . S
C705 C398 1.993 . S
C709 C392 2.103 . S
C723 C427 1.990 . S
C727 C421 2.104 . S
C741 C450 2.112 . S
C745 C456 1.989 . S
C759 C3 1.018 . S
C763 C158 1.029 . S
C777 C32 1.035 . S
C781 C129 1.011 . S
C795 C61 1.034 . S
C799 C216 1.010 . S
C813 C90 1.026 . S
C817 C187 1.012 . S
C831 C119 1.017 . S
C835 C42 1.025 . S
C849 C148 1.018 . S
C853 C13 1.021 . S
C867 C100 1.011 . S
C871 C177 1.035 . S
C885 C71 1.019 . S
C889 C206 1.019 . S
C903 C235 1.017 . S
C907 C390 1.029 . S
C921 C361 1.012 . S
C925 C264 1.026 . S
C939 C293 1.018 . S
C943 C448 1.021 . S
C957 C419 1.028 . S
C961 C322 1.017 . S
C975 C274 1.019 . S
C979 C351 1.019 . S
C993 C380 1.017 . S
C997 C245 1.029 . S
C1011 C409 1.019 . S
C1015 C332 1.020 . S
C1029 C438 1.029 . S
C1033 C303 1.010 . S
C1047 C5 1.313 . S
C1051 C34 1.321 . S
C1065 C92 1.313 . S
C1069 C63 1.321 . S
C1083 C121 1.322 . S
C1087 C150 1.312 . S
C1101 C208 1.322 . S
C1105 C179 1.312 . S
C1119 C266 1.321 . S
C1123 C237 1.310 . S
C1137 C295 1.320 . S
C1141 C324 1.314 . S
C1155 C353 1.315 . S
C1159 C382 1.315 . S
C1173 C411 1.314 . S
C1177 C440 1.320 . S
C1191 C10 1.563 . S
C1195 C271 1.556 . S
C1209 C39 1.559 . S
C1213 C242 1.557 . S
C1227 C329 1.564 . S
C1231 C68 1.573 . S
C1245 C300 1.563 . S
C1249 C97 1.572 . S
C1263 C126 1.557 . S
C1267 C387 1.567 . S
C1281 C155 1.565 . S
C1285 C358 1.556 . S
C1299 C184 1.557 . S
C1303 C445 1.567 . S
C1317 C416 1.572 . S
C1321 C213 1.561 . S
C1335 C95 1.346 . S
C1339 C8 1.342 . S
C1353 C37 1.350 . S
C1357 C66 1.359 . S
C1371 C211 1.342 . S
C1375 C124 1.346 . S
C1389 C153 1.350 . S
C1393 C182 1.359 . S
C1407 C240 1.345 . S
C1411 C327 1.354 . S
C1425 C269 1.362 . S
C1429 C298 1.366 . S
C1443 C443 1.360 . S
C1447 C356 1.366 . S
C1461 C414 1.349 . S
C1465 C385 1.343 . S
