# Generated by pormake.
# Topology bcs, (6)-cn, num edge types: 1
# Building blocks:
#     Node 0, Type 0, BuildingBlock: BETDAH_clean_sbu_0, # of connection points: 6
#     Node 1, Type 0, BuildingBlock: BETDAH_clean_sbu_0, # of connection points: 6
#     Node 2, Type 0, BuildingBlock: BETDAH_clean_sbu_0, # of connection points: 6
#     Node 3, Type 0, BuildingBlock: BETDAH_clean_sbu_0, # of connection points: 6
#     Node 4, Type 0, BuildingBlock: BETDAH_clean_sbu_0, # of connection points: 6
#     Node 5, Type 0, BuildingBlock: BETDAH_clean_sbu_0, # of connection points: 6
#     Node 6, Type 0, BuildingBlock: BETDAH_clean_sbu_0, # of connection points: 6
#     Node 7, Type 0, BuildingBlock: BETDAH_clean_sbu_0, # of connection points: 6
#     Node 8, Type 0, BuildingBlock: BETDAH_clean_sbu_0, # of connection points: 6
#     Node 9, Type 0, BuildingBlock: BETDAH_clean_sbu_0, # of connection points: 6
#     Node 10, Type 0, BuildingBlock: BETDAH_clean_sbu_0, # of connection points: 6
#     Node 11, Type 0, BuildingBlock: BETDAH_clean_sbu_0, # of connection points: 6
#     Node 12, Type 0, BuildingBlock: BETDAH_clean_sbu_0, # of connection points: 6
#     Node 13, Type 0, BuildingBlock: BETDAH_clean_sbu_0, # of connection points: 6
#     Node 14, Type 0, BuildingBlock: BETDAH_clean_sbu_0, # of connection points: 6
#     Node 15, Type 0, BuildingBlock: BETDAH_clean_sbu_0, # of connection points: 6
#     Edge 16, Type (0, 0), BuildingBlock: OJICUG_clean_linker_0, # of connection points: 2
#     Edge 17, Type (0, 0), BuildingBlock: OJICUG_clean_linker_0, # of connection points: 2
#     Edge 18, Type (0, 0), BuildingBlock: OJICUG_clean_linker_0, # of connection points: 2
#     Edge 19, Type (0, 0), BuildingBlock: OJICUG_clean_linker_0, # of connection points: 2
#     Edge 20, Type (0, 0), BuildingBlock: OJICUG_clean_linker_0, # of connection points: 2
#     Edge 21, Type (0, 0), BuildingBlock: OJICUG_clean_linker_0, # of connection points: 2
#     Edge 22, Type (0, 0), BuildingBlock: OJICUG_clean_linker_0, # of connection points: 2
#     Edge 23, Type (0, 0), BuildingBlock: OJICUG_clean_linker_0, # of connection points: 2
#     Edge 24, Type (0, 0), BuildingBlock: OJICUG_clean_linker_0, # of connection points: 2
#     Edge 25, Type (0, 0), BuildingBlock: OJICUG_clean_linker_0, # of connection points: 2
#     Edge 26, Type (0, 0), BuildingBlock: OJICUG_clean_linker_0, # of connection points: 2
#     Edge 27, Type (0, 0), BuildingBlock: OJICUG_clean_linker_0, # of connection points: 2
#     Edge 28, Type (0, 0), BuildingBlock: OJICUG_clean_linker_0, # of connection points: 2
#     Edge 29, Type (0, 0), BuildingBlock: OJICUG_clean_linker_0, # of connection points: 2
#     Edge 30, Type (0, 0), BuildingBlock: OJICUG_clean_linker_0, # of connection points: 2
#     Edge 31, Type (0, 0), BuildingBlock: OJICUG_clean_linker_0, # of connection points: 2
#     Edge 32, Type (0, 0), BuildingBlock: OJICUG_clean_linker_0, # of connection points: 2
#     Edge 33, Type (0, 0), BuildingBlock: OJICUG_clean_linker_0, # of connection points: 2
#     Edge 34, Type (0, 0), BuildingBlock: OJICUG_clean_linker_0, # of connection points: 2
#     Edge 35, Type (0, 0), BuildingBlock: OJICUG_clean_linker_0, # of connection points: 2
#     Edge 36, Type (0, 0), BuildingBlock: OJICUG_clean_linker_0, # of connection points: 2
#     Edge 37, Type (0, 0), BuildingBlock: OJICUG_clean_linker_0, # of connection points: 2
#     Edge 38, Type (0, 0), BuildingBlock: OJICUG_clean_linker_0, # of connection points: 2
#     Edge 39, Type (0, 0), BuildingBlock: OJICUG_clean_linker_0, # of connection points: 2
#     Edge 40, Type (0, 0), BuildingBlock: OJICUG_clean_linker_0, # of connection points: 2
#     Edge 41, Type (0, 0), BuildingBlock: OJICUG_clean_linker_0, # of connection points: 2
#     Edge 42, Type (0, 0), BuildingBlock: OJICUG_clean_linker_0, # of connection points: 2
#     Edge 43, Type (0, 0), BuildingBlock: OJICUG_clean_linker_0, # of connection points: 2
#     Edge 44, Type (0, 0), BuildingBlock: OJICUG_clean_linker_0, # of connection points: 2
#     Edge 45, Type (0, 0), BuildingBlock: OJICUG_clean_linker_0, # of connection points: 2
#     Edge 46, Type (0, 0), BuildingBlock: OJICUG_clean_linker_0, # of connection points: 2
#     Edge 47, Type (0, 0), BuildingBlock: OJICUG_clean_linker_0, # of connection points: 2
#     Edge 48, Type (0, 0), BuildingBlock: OJICUG_clean_linker_0, # of connection points: 2
#     Edge 49, Type (0, 0), BuildingBlock: OJICUG_clean_linker_0, # of connection points: 2
#     Edge 50, Type (0, 0), BuildingBlock: OJICUG_clean_linker_0, # of connection points: 2
#     Edge 51, Type (0, 0), BuildingBlock: OJICUG_clean_linker_0, # of connection points: 2
#     Edge 52, Type (0, 0), BuildingBlock: OJICUG_clean_linker_0, # of connection points: 2
#     Edge 53, Type (0, 0), BuildingBlock: OJICUG_clean_linker_0, # of connection points: 2
#     Edge 54, Type (0, 0), BuildingBlock: OJICUG_clean_linker_0, # of connection points: 2
#     Edge 55, Type (0, 0), BuildingBlock: OJICUG_clean_linker_0, # of connection points: 2
#     Edge 56, Type (0, 0), BuildingBlock: OJICUG_clean_linker_0, # of connection points: 2
#     Edge 57, Type (0, 0), BuildingBlock: OJICUG_clean_linker_0, # of connection points: 2
#     Edge 58, Type (0, 0), BuildingBlock: OJICUG_clean_linker_0, # of connection points: 2
#     Edge 59, Type (0, 0), BuildingBlock: OJICUG_clean_linker_0, # of connection points: 2
#     Edge 60, Type (0, 0), BuildingBlock: OJICUG_clean_linker_0, # of connection points: 2
#     Edge 61, Type (0, 0), BuildingBlock: OJICUG_clean_linker_0, # of connection points: 2
#     Edge 62, Type (0, 0), BuildingBlock: OJICUG_clean_linker_0, # of connection points: 2
#     Edge 63, Type (0, 0), BuildingBlock: OJICUG_clean_linker_0, # of connection points: 2
# Relax obj value: 0.313
# Max RMSD: 0.277
# Mean RMSD: 0.212
data_MOF--net-bcs--node1-BETDAH_clean_sbu_0--edge1-OJICUG_clean_linker_0
_symmetry_space_group_name_H-M    P1
_symmetry_Int_Tables_number       1
_symmetry_cell_setting            triclinic
loop_
_symmetry_equiv_pos_as_xyz
'x, y, z'
_cell_length_a     33.412156
_cell_length_b     33.136969
_cell_length_c     31.335974
_cell_angle_alpha  72.473291
_cell_angle_beta   112.79843
_cell_angle_gamma 126.73205
loop_
_atom_site_label
_atom_site_type_symbol
_atom_site_fract_x
_atom_site_fract_y
_atom_site_fract_z
_atom_type_partial_charge
Ho0 Ho 1.06185 0.95784 1.01201 0.0
Ho1 Ho 0.08818 0.04756 0.06157 0.0
C2 C 0.16922 0.01696 0.09205 0.0
C3 C 1.062 0.90861 0.962 0.0
C4 C 0.09874 0.90932 0.94593 0.0
C5 C 0.14259 0.90986 0.97741 0.0
C6 C 0.17246 0.90291 0.9626 0.0
C7 C 0.15954 0.89568 0.91586 0.0
C8 C 0.11729 0.89808 0.88403 0.0
C9 C 0.0871 0.90445 0.89898 0.0
C10 C 1.01203 0.91865 0.08224 0.0
C11 C 0.97992 0.98695 0.98362 0.0
C12 C 0.0883 0.09666 0.11176 0.0
C13 C 1.05083 0.09327 0.12888 0.0
C14 C 1.00247 0.08375 0.09923 0.0
C15 C 0.97043 0.08725 0.11435 0.0
C16 C 0.98577 0.09985 0.15961 0.0
C17 C 1.03294 0.10646 0.18994 0.0
C18 C 1.06521 0.10352 0.17462 0.0
C19 C 0.13646 0.0864 0.99031 0.0
O20 O 0.14459 0.99235 0.05444 0.0
O21 O 0.15112 0.03536 0.10614 0.0
O22 O 1.06525 0.89687 1.00657 0.0
O23 O 1.05288 0.94455 0.94406 0.0
O24 O 1.00936 0.89223 0.05675 0.0
O25 O 1.04241 0.96438 0.06862 0.0
O26 O 1.00488 0.01113 1.02146 0.0
O27 O 0.9983 0.9699 0.96804 0.0
O28 O 0.08289 0.10735 0.0668 0.0
O29 O 0.09996 0.06249 0.12974 0.0
O30 O 0.13902 0.11305 1.01545 0.0
O31 O 0.1072 0.04083 1.0049 0.0
H32 H 0.15279 0.91378 1.01388 0.0
H33 H 0.20428 0.90099 0.98839 0.0
H34 H 0.10675 0.89405 0.84756 0.0
H35 H 1.05362 0.90404 0.87399 0.0
H36 H 0.99016 0.07538 0.0638 0.0
H37 H 0.93474 0.08228 0.08976 0.0
H38 H 1.04559 0.11498 0.22536 0.0
H39 H 0.10218 0.11068 0.19817 0.0
Ho40 Ho 0.36412 0.71568 0.3067 0.0
Ho41 Ho 0.28664 0.74314 0.25862 0.0
C42 C 0.25419 0.65314 0.33245 0.0
C43 C 0.42496 0.69489 0.37488 0.0
C44 C 0.41745 0.6697 0.42124 0.0
C45 C 0.39404 0.67873 0.44316 0.0
C46 C 0.375 0.64606 0.4809 0.0
C47 C 0.37957 0.60439 0.49726 0.0
C48 C 0.40603 0.59756 0.4772 0.0
C49 C 0.42507 0.63008 0.43975 0.0
C50 C 0.2968 0.67103 0.22806 0.0
C51 C 0.38835 0.7972 0.22074 0.0
C52 C 0.22646 0.77267 0.20626 0.0
C53 C 0.23815 0.82392 0.19813 0.0
C54 C 0.28725 0.86581 0.19341 0.0
C55 C 0.2995 0.91478 0.18971 0.0
C56 C 0.26326 0.92226 0.1918 0.0
C57 C 0.21505 0.88016 0.19846 0.0
C58 C 0.20257 0.83139 0.20142 0.0
C59 C 0.35687 0.79059 0.33594 0.0
O60 O 0.30487 0.67338 0.34911 0.0
O61 O 0.23544 0.66701 0.28971 0.0
O62 O 0.39185 0.66617 0.34064 0.0
O63 O 0.43258 0.73987 0.36515 0.0
O64 O 0.34538 0.68611 0.24043 0.0
O65 O 0.28627 0.67732 0.25887 0.0
O66 O 0.34095 0.78619 0.21243 0.0
O67 O 0.40954 0.77812 0.25875 0.0
O68 O 0.22523 0.75264 0.24888 0.0
O69 O 0.25164 0.76498 0.18971 0.0
O70 O 0.30841 0.77398 0.32488 0.0
O71 O 0.366 0.78329 0.30479 0.0
H72 H 0.38722 0.70888 0.42922 0.0
H73 H 0.35376 0.65132 0.49513 0.0
H74 H 0.40881 0.56482 0.48847 0.0
H75 H 0.44237 0.62205 0.42318 0.0
H76 H 0.31601 0.86078 0.19232 0.0
H77 H 0.33639 0.94668 0.18367 0.0
H78 H 0.18571 0.88484 0.19874 0.0
H79 H 0.16509 0.79947 0.20621 0.0
Ho80 Ho 0.54222 0.98315 0.547 0.0
Ho81 Ho 0.59937 0.03043 0.48743 0.0
C82 C 0.51261 0.06959 0.45721 0.0
C83 C 0.49616 0.95537 0.61014 0.0
C84 C 0.49659 0.98148 0.64069 0.0
C85 C 0.51649 0.97452 0.68887 0.0
C86 C 0.52201 0.00231 0.71867 0.0
C87 C 0.50708 0.03697 0.7007 0.0
C88 C 0.48623 0.04321 0.65254 0.0
C89 C 0.4812 0.01581 0.62267 0.0
C90 C 0.50387 0.92064 0.48249 0.0
C91 C 0.63084 0.946 0.57751 0.0
C92 C 0.64011 0.04949 0.4231 0.0
C93 C 0.62703 0.01568 0.39162 0.0
C94 C 0.59786 0.01704 0.34528 0.0
C95 C 0.58336 0.98381 0.31559 0.0
C96 C 0.59872 0.94959 0.33147 0.0
C97 C 0.62675 0.94726 0.37798 0.0
C98 C 0.64074 0.97997 0.4079 0.0
C99 C 0.63961 0.09182 0.55371 0.0
O100 O 0.50898 0.04103 0.50033 0.0
O101 O 0.54617 0.06806 0.44355 0.0
O102 O 0.47449 0.95948 0.56573 0.0
O103 O 0.5402 0.96067 0.61839 0.0
O104 O 0.50638 0.90667 0.52594 0.0
O105 O 0.51897 0.96641 0.47475 0.0
O106 O 0.63454 0.97461 0.5346 0.0
O107 O 0.59652 0.94659 0.59092 0.0
O108 O 0.66089 0.04208 0.46708 0.0
O109 O 0.60437 0.05734 0.41671 0.0
O110 O 0.64048 0.1076 0.51091 0.0
O111 O 0.62265 0.04571 0.56005 0.0
H112 H 0.52855 0.94812 0.70338 0.0
H113 H 0.53809 0.99689 0.75567 0.0
H114 H 0.47313 0.06878 0.63799 0.0
H115 H 0.46574 0.02187 0.58564 0.0
H116 H 0.58637 0.04389 0.33196 0.0
H117 H 0.56123 0.98543 0.2799 0.0
H118 H 0.63996 0.92177 0.39062 0.0
H119 H 0.66302 0.97781 0.44344 0.0
Ho120 Ho 0.35236 0.21401 0.81722 0.0
Ho121 Ho 0.32052 0.28181 0.77891 0.0
C122 C 0.40821 0.30697 0.74056 0.0
C123 C 0.38267 0.15288 0.83959 0.0
C124 C 0.41436 0.14607 0.82478 0.0
C125 C 0.41593 0.15814 0.77838 0.0
C126 C 0.44432 0.14887 0.76449 0.0
C127 C 0.4718 0.12782 0.79692 0.0
C128 C 0.47231 0.11838 0.84383 0.0
C129 C 0.44364 0.12743 0.85766 0.0
C130 C 0.40012 0.28743 0.87361 0.0
C131 C 0.26329 0.18856 0.85521 0.0
C132 C 0.29122 0.34396 0.7555 0.0
C133 C 0.2498 0.34556 0.75891 0.0
C134 C 0.23319 0.32617 0.79938 0.0
C135 C 0.19874 0.33418 0.80411 0.0
C136 C 0.18036 0.36183 0.7684 0.0
C137 C 0.1928 0.37603 0.72593 0.0
C138 C 0.22779 0.36851 0.72149 0.0
C139 C 0.27459 0.20851 0.72289 0.0
O140 O 0.39277 0.25922 0.75744 0.0
O141 O 0.39153 0.3285 0.75212 0.0
O142 O 0.40777 0.19408 0.85947 0.0
O143 O 0.33832 0.14346 0.81005 0.0
O144 O 0.37929 0.23983 0.88718 0.0
O145 O 0.39339 0.29424 0.83004 0.0
O146 O 0.27472 0.23429 0.83426 0.0
O147 O 0.28487 0.16864 0.84916 0.0
O148 O 0.2766 0.31196 0.72829 0.0
O149 O 0.32588 0.34453 0.79418 0.0
O150 O 0.29559 0.25608 0.70936 0.0
O151 O 0.27944 0.20155 0.76609 0.0
H152 H 0.39407 0.17333 0.7527 0.0
H153 H 0.44258 0.15581 0.72794 0.0
H154 H 0.4937 0.10273 0.8694 0.0
H155 H 0.44348 0.11904 0.89379 0.0
H156 H 0.24897 0.30731 0.82834 0.0
H157 H 0.19047 0.32235 0.83745 0.0
H158 H 0.17768 0.39524 0.69679 0.0
H159 H 0.23916 0.38236 0.68941 0.0
Ho160 Ho 0.11393 0.00064 0.5383 0.0
Ho161 Ho 1.04116 0.03289 0.50149 0.0
C162 C 1.0207 0.94885 0.58852 0.0
C163 C 0.18291 0.9789 0.577 0.0
C164 C 0.22138 0.96491 0.59847 0.0
C165 C 0.27257 0.99993 0.62183 0.0
C166 C 0.31094 0.9895 0.63552 0.0
C167 C 0.29874 0.94399 0.62579 0.0
C168 C 0.24726 0.90872 0.60323 0.0
C169 C 0.20908 0.91907 0.58969 0.0
C170 C 1.03522 0.95443 0.46311 0.0
C171 C 0.13377 0.08342 0.45087 0.0
C172 C 0.97356 0.05631 0.45436 0.0
C173 C 0.92933 0.05445 0.45745 0.0
C174 C 0.87823 0.0126 0.44385 0.0
C175 C 0.83597 0.01522 0.43752 0.0
C176 C 0.84392 0.05985 0.44429 0.0
C177 C 0.89503 0.10021 0.46125 0.0
C178 C 0.9372 0.0976 0.46758 0.0
C179 C 0.11732 0.07684 0.57832 0.0
O180 O 0.06809 0.96055 0.59374 0.0
O181 O 0.99876 0.96822 0.55133 0.0
O182 O 0.13601 0.94764 0.55312 0.0
O183 O 0.1909 0.02062 0.5836 0.0
O184 O 0.08312 0.9718 0.46851 0.0
O185 O 1.0314 0.96255 0.49759 0.0
O186 O 0.08621 0.07078 0.44565 0.0
O187 O 0.15637 0.06574 0.48882 0.0
O188 O 1.01991 0.08763 0.47914 0.0
O189 O 0.96678 0.01364 0.45249 0.0
O190 O 0.06941 0.06129 0.57078 0.0
O191 O 0.12311 0.07024 0.544 0.0
H192 H 0.28332 0.03596 0.62836 0.0
H193 H 0.35022 0.01726 0.65314 0.0
H194 H 0.23617 0.87263 0.5965 0.0
H195 H 0.1701 0.89149 0.57139 0.0
H196 H 0.87073 0.9788 0.4356 0.0
H197 H 0.7971 0.98332 0.4248 0.0
H198 H 0.9028 0.13551 0.46614 0.0
H199 H 0.976 0.13068 0.47768 0.0
Ho200 Ho 0.35168 0.74069 0.78849 0.0
Ho201 Ho 0.42486 0.75769 0.73908 0.0
C202 C 0.3932 0.83618 0.71132 0.0
C203 C 0.30907 0.74835 0.83698 0.0
C204 C 0.2997 0.78329 0.84565 0.0
C205 C 0.31184 0.79196 0.89155 0.0
C206 C 0.29454 0.81676 0.90143 0.0
C207 C 0.26422 0.83294 0.86558 0.0
C208 C 0.25464 0.82679 0.8194 0.0
C209 C 0.2723 0.80242 0.8095 0.0
C210 C 0.29824 0.68375 0.7161 0.0
C211 C 0.36216 0.65107 0.79752 0.0
C212 C 0.47711 0.74983 0.70003 0.0
C213 C 0.48241 0.71747 0.67923 0.0
C214 C 0.48527 0.67561 0.70451 0.0
C215 C 0.49655 0.65012 0.68617 0.0
C216 C 0.50609 0.66546 0.64178 0.0
C217 C 0.5025 0.70708 0.61649 0.0
C218 C 0.49103 0.73233 0.63477 0.0
C219 C 0.46983 0.81276 0.815 0.0
O220 O 0.3778 0.81732 0.74969 0.0
O221 O 0.40701 0.81516 0.69477 0.0
O222 O 0.28513 0.73113 0.79612 0.0
O223 O 0.35607 0.75774 0.85281 0.0
O224 O 0.28445 0.67259 0.75346 0.0
O225 O 0.33954 0.72841 0.71612 0.0
O226 O 0.38324 0.67546 0.76258 0.0
O227 O 0.35645 0.67326 0.82138 0.0
O228 O 0.48364 0.74455 0.7449 0.0
O229 O 0.44299 0.76194 0.6768 0.0
O230 O 0.4852 0.82954 0.77746 0.0
O231 O 0.43328 0.76676 0.81096 0.0
H232 H 0.33262 0.77739 0.92007 0.0
H233 H 0.30245 0.82072 0.93738 0.0
H234 H 0.23213 0.83956 0.79094 0.0
H235 H 0.26248 0.79667 0.77367 0.0
H236 H 0.47948 0.66279 0.73899 0.0
H237 H 0.49764 0.61806 0.70719 0.0
H238 H 0.51002 0.72159 0.58273 0.0
H239 H 0.49033 0.76481 0.61427 0.0
Ho240 Ho 0.59684 0.98249 0.04781 0.0
Ho241 Ho 0.52732 0.00697 0.99456 0.0
C242 C 0.62854 0.07074 0.96547 0.0
C243 C 0.66513 0.95883 0.08096 0.0
C244 C 0.6889 0.94626 0.06048 0.0
C245 C 0.71103 0.97736 0.02366 0.0
C246 C 0.73007 0.96281 1.00272 0.0
C247 C 0.72772 0.91721 1.01854 0.0
C248 C 0.70632 0.8865 0.05575 0.0
C249 C 0.68647 0.90065 0.07614 0.0
C250 C 0.59757 0.03976 0.09758 0.0
C251 C 0.49651 0.92062 0.07832 0.0
C252 C 0.45762 0.02895 0.95929 0.0
C253 C 0.43802 0.04862 0.97691 0.0
C254 C 0.47226 0.09156 1.00183 0.0
C255 C 0.45319 0.10949 1.01871 0.0
C256 C 0.39951 0.08437 1.01187 0.0
C257 C 0.3653 0.04172 0.98635 0.0
C258 C 0.38446 0.02427 0.96881 0.0
C259 C 0.52554 0.94753 0.94647 0.0
O260 O 0.6314 0.03161 0.98773 0.0
O261 O 0.59431 0.07552 0.97005 0.0
O262 O 0.67727 0.00539 0.07321 0.0
O263 O 0.61572 0.92601 0.07667 0.0
O264 O 0.60086 0.0009 0.11382 0.0
O265 O 0.59528 0.04839 0.0543 0.0
O266 O 0.49291 0.95909 0.05492 0.0
O267 O 0.53095 0.91565 0.07451 0.0
O268 O 0.4468 0.98337 0.97572 0.0
O269 O 0.50537 0.05996 0.95679 0.0
O270 O 0.52338 0.98689 0.92942 0.0
O271 O 0.52778 0.94019 0.98947 0.0
H272 H 0.7129 0.01245 1.01056 0.0
H273 H 0.74674 0.98721 0.9742 0.0
H274 H 0.70363 0.85091 0.06817 0.0
H275 H 0.66813 0.87535 0.10347 0.0
H276 H 0.51387 0.11131 1.0085 0.0
H277 H 0.48067 0.14303 0.0373 0.0
H278 H 0.32378 0.02099 0.98088 0.0
H279 H 0.35753 0.99133 0.94943 0.0
Ho280 Ho 0.29511 0.22877 0.23735 0.0
Ho281 Ho 0.35508 0.29207 0.29486 0.0
C282 C 0.38728 0.20098 0.32666 0.0
C283 C 0.25281 0.16896 0.17356 0.0
C284 C 0.27274 0.15554 0.14932 0.0
C285 C 0.2623 0.16447 0.10073 0.0
C286 C 0.28429 0.15615 0.07711 0.0
C287 C 0.31675 0.13805 0.10162 0.0
C288 C 0.3262 0.12821 0.15037 0.0
C289 C 0.30477 0.13718 0.17396 0.0
C290 C 0.24571 0.20127 0.30442 0.0
C291 C 0.26116 0.31839 0.20531 0.0
C292 C 0.38688 0.34718 0.35844 0.0
C293 C 0.35409 0.3448 0.38125 0.0
C294 C 0.34016 0.30981 0.42001 0.0
C295 C 0.30292 0.30185 0.43718 0.0
C296 C 0.279 0.32901 0.41628 0.0
C297 C 0.29364 0.36452 0.37792 0.0
C298 C 0.33094 0.37258 0.36089 0.0
C299 C 0.40912 0.32264 0.23146 0.0
O300 O 0.35158 0.19262 0.28299 0.0
O301 O 0.39398 0.24085 0.34029 0.0
O302 O 0.25633 0.15357 0.21753 0.0
O303 O 0.26607 0.21566 0.16485 0.0
O304 O 0.22498 0.20353 0.26002 0.0
O305 O 0.29159 0.21492 0.31057 0.0
O306 O 0.29776 0.32748 0.24852 0.0
O307 O 0.25451 0.27843 0.19204 0.0
O308 O 0.38095 0.36324 0.31446 0.0
O309 O 0.38896 0.3075 0.3671 0.0
O310 O 0.42847 0.32282 0.27604 0.0
O311 O 0.36149 0.30602 0.22245 0.0
H312 H 0.23796 0.179 0.08108 0.0
H313 H 0.27645 0.16483 0.03975 0.0
H314 H 0.34934 0.11253 0.17052 0.0
H315 H 0.31343 0.12979 0.21146 0.0
H316 H 0.35696 0.28743 0.43635 0.0
H317 H 0.29228 0.27368 0.46629 0.0
H318 H 0.27736 0.38732 0.36156 0.0
H319 H 0.3408 0.3999 0.33107 0.0
Ho320 Ho 0.62894 0.52555 0.04858 0.0
Ho321 Ho 0.5242 0.51353 0.98969 0.0
C322 C 0.53242 0.45317 0.09388 0.0
C323 C 0.72773 0.57288 0.08695 0.0
C324 C 0.76918 0.57106 0.12534 0.0
C325 C 0.77345 0.57089 0.1717 0.0
C326 C 0.80184 0.55309 0.20713 0.0
C327 C 0.82178 0.53175 0.1955 0.0
C328 C 0.82979 0.54589 0.15099 0.0
C329 C 0.80257 0.56476 0.11566 0.0
C330 C 0.55957 0.44434 0.99853 0.0
C331 C 0.61973 0.5829 0.94123 0.0
C332 C 0.42872 0.47223 0.9442 0.0
C333 C 0.38647 0.45114 0.90288 0.0
C334 C 0.33587 0.42227 0.90737 0.0
C335 C 0.29622 0.42213 0.8696 0.0
C336 C 0.30898 0.45359 0.82909 0.0
C337 C 0.35458 0.46728 0.82092 0.0
C338 C 0.39477 0.4685 0.85876 0.0
C339 C 0.58396 0.5797 0.05574 0.0
O340 O 0.58412 0.48321 0.10433 0.0
O341 O 0.50442 0.45313 0.05027 0.0
O342 O 0.7034 0.54056 0.056 0.0
O343 O 0.69637 0.57782 0.09703 0.0
O344 O 0.59086 0.44267 0.03916 0.0
O345 O 0.56951 0.4883 0.98715 0.0
O346 O 0.56881 0.56149 0.93371 0.0
O347 O 0.64805 0.57501 0.98218 0.0
O348 O 0.46173 0.52182 0.9433 0.0
O349 O 0.44934 0.44614 0.96856 0.0
O350 O 0.53373 0.55347 0.04488 0.0
O351 O 0.59754 0.57155 0.02916 0.0
H352 H 0.7512 0.57962 0.18041 0.0
H353 H 0.80009 0.54778 0.24235 0.0
H354 H 0.84875 0.53429 0.14091 0.0
H355 H 0.80279 0.56853 0.08015 0.0
H356 H 0.32858 0.40651 0.94127 0.0
H357 H 0.25986 0.40776 0.87575 0.0
H358 H 0.36423 0.48779 0.78853 0.0
H359 H 0.43337 0.48875 0.85455 0.0
Ho360 Ho 0.69053 0.22131 0.31054 0.0
Ho361 Ho 0.76521 0.23911 0.26233 0.0
C362 C 0.74209 0.32173 0.24152 0.0
C363 C 0.64077 0.23101 0.35149 0.0
C364 C 0.63598 0.2656 0.37002 0.0
C365 C 0.66625 0.28446 0.41414 0.0
C366 C 0.65711 0.31111 0.43351 0.0
C367 C 0.61695 0.32017 0.41001 0.0
C368 C 0.58692 0.30142 0.36571 0.0
C369 C 0.59606 0.27476 0.34642 0.0
C370 C 0.64769 0.16541 0.23553 0.0
C371 C 0.73065 0.14852 0.34492 0.0
C372 C 0.80992 0.23167 0.21611 0.0
C373 C 0.82558 0.19927 0.21349 0.0
C374 C 0.81081 0.18239 0.1706 0.0
C375 C 0.83197 0.15897 0.16518 0.0
C376 C 0.86873 0.15237 0.20252 0.0
C377 C 0.88125 0.16673 0.24612 0.0
C378 C 0.85982 0.18982 0.25162 0.0
C379 C 0.81464 0.30072 0.3304 0.0
O380 O 0.72464 0.30101 0.27871 0.0
O381 O 0.75097 0.29894 0.22172 0.0
O382 O 0.62847 0.22951 0.30665 0.0
O383 O 0.67858 0.22384 0.37352 0.0
O384 O 0.63204 0.1481 0.27313 0.0
O385 O 0.68331 0.2115 0.23948 0.0
O386 O 0.74521 0.16554 0.3062 0.0
O387 O 0.7132 0.16822 0.35831 0.0
O388 O 0.83477 0.25693 0.2526 0.0
O389 O 0.7604 0.21404 0.20287 0.0
O390 O 0.82795 0.31197 0.29271 0.0
O391 O 0.7766 0.25455 0.33268 0.0
H392 H 0.69681 0.2779 0.43438 0.0
H393 H 0.682 0.32472 0.46723 0.0
H394 H 0.55496 0.30599 0.34603 0.0
H395 H 0.57065 0.26008 0.31309 0.0
H396 H 0.78461 0.18936 0.14066 0.0
H397 H 0.82173 0.14862 0.13108 0.0
H398 H 0.90885 0.16145 0.27572 0.0
H399 H 0.87172 0.20203 0.28526 0.0
Ho400 Ho 0.07099 0.44991 0.53422 0.0
Ho401 Ho 1.05655 0.53478 0.50685 0.0
C402 C 0.12137 0.53611 0.45425 0.0
C403 C 0.0705 0.37059 0.53761 0.0
C404 C 0.09736 0.35648 0.52309 0.0
C405 C 0.07111 0.32784 0.48499 0.0
C406 C 0.09637 0.31556 0.46973 0.0
C407 C 0.14836 0.33142 0.49246 0.0
C408 C 0.1737 0.35778 0.53212 0.0
C409 C 0.14857 0.37039 0.54719 0.0
C410 C 0.1445 0.52863 0.58726 0.0
C411 C 1.00668 0.44858 0.58746 0.0
C412 C 1.05837 0.61484 0.50334 0.0
C413 C 1.03158 0.63017 0.51617 0.0
C414 C 1.05906 0.6627 0.55135 0.0
C415 C 1.03438 0.67688 0.56503 0.0
C416 C 0.98172 0.659 0.54356 0.0
C417 C 0.95492 0.62835 0.5068 0.0
C418 C 0.9795 0.61382 0.49337 0.0
C419 C 0.98188 0.45559 0.45427 0.0
O420 O 0.10772 0.49009 0.47442 0.0
O421 O 0.11091 0.56362 0.46504 0.0
O422 O 0.09759 0.40009 0.57125 0.0
O423 O 1.03967 0.38249 0.50427 0.0
O424 O 0.12429 0.48131 0.60276 0.0
O425 O 0.12621 0.5323 0.54362 0.0
O426 O 1.01984 0.49445 0.56686 0.0
O427 O 1.01729 0.42113 0.5767 0.0
O428 O 1.03217 0.58616 0.46916 0.0
O429 O 0.08714 0.6013 0.5378 0.0
O430 O 1.00183 0.50287 0.43871 0.0
O431 O 1.00106 0.45234 0.49782 0.0
H432 H 1.03117 0.31551 0.46652 0.0
H433 H 0.07528 0.29407 0.43981 0.0
H434 H 0.21367 0.37047 0.55058 0.0
H435 H 0.16965 0.39171 0.57723 0.0
H436 H 0.09959 0.67672 0.56871 0.0
H437 H 1.05647 0.70155 0.59267 0.0
H438 H 0.9144 0.61407 0.48939 0.0
H439 H 0.95745 0.58928 0.46561 0.0
Ho440 Ho 0.82045 0.72052 0.2865 0.0
Ho441 Ho 0.79281 0.79219 0.25358 0.0
C442 C 0.87836 0.81466 0.21203 0.0
C443 C 0.84604 0.65657 0.30288 0.0
C444 C 0.88167 0.65302 0.29054 0.0
C445 C 0.88632 0.66671 0.24504 0.0
C446 C 0.91535 0.65709 0.23256 0.0
C447 C 0.94109 0.63449 0.26563 0.0
C448 C 0.9399 0.62508 0.31216 0.0
C449 C 0.9099 0.63377 0.32437 0.0
C450 C 0.87472 0.79636 0.34191 0.0
C451 C 0.73427 0.69457 0.32784 0.0
C452 C 0.77018 0.85791 0.24014 0.0
C453 C 0.72722 0.85816 0.24198 0.0
C454 C 0.70513 0.83314 0.27943 0.0
C455 C 0.66739 0.83776 0.28212 0.0
C456 C 0.65029 0.86664 0.2469 0.0
C457 C 0.66968 0.88806 0.20763 0.0
C458 C 0.70861 0.88473 0.20576 0.0
C459 C 0.73828 0.71923 0.19556 0.0
O460 O 0.86162 0.76657 0.228 0.0
O461 O 0.86249 0.83693 0.22394 0.0
O462 O 0.86766 0.69116 0.33031 0.0
O463 O 0.80652 0.65417 0.26918 0.0
O464 O 0.85276 0.74896 0.35696 0.0
O465 O 0.86573 0.80123 0.2985 0.0
O466 O 0.7478 0.74186 0.31025 0.0
O467 O 0.75312 0.67442 0.31767 0.0
O468 O 0.7595 0.83406 0.20706 0.0
O469 O 0.79855 0.84935 0.27962 0.0
O470 O 0.75947 0.76693 0.18253 0.0
O471 O 0.74696 0.71173 0.23931 0.0
H472 H 0.86533 0.68232 0.21849 0.0
H473 H 0.91436 0.66427 0.19624 0.0
H474 H 0.96064 0.60941 0.33895 0.0
H475 H 0.90755 0.62408 0.35996 0.0
H476 H 0.71852 0.81183 0.30758 0.0
H477 H 0.65432 0.8213 0.31335 0.0
H478 H 0.65676 0.90962 0.1794 0.0
H479 H 0.72551 0.90433 0.17674 0.0
Ho480 Ho 0.84577 0.24973 0.79134 0.0
Ho481 Ho 0.76831 0.2776 0.73959 0.0
C482 C 0.74154 0.19709 0.82596 0.0
C483 C 0.90453 0.22197 0.85196 0.0
C484 C 0.89154 0.1706 0.86924 0.0
C485 C 0.91446 0.16027 0.91528 0.0
C486 C 0.90465 0.11197 0.93084 0.0
C487 C 0.87216 0.07367 0.90027 0.0
C488 C 0.84658 0.08328 0.85501 0.0
C489 C 0.85575 0.13143 0.83971 0.0
C490 C 0.77775 0.2013 0.71459 0.0
C491 C 0.878 0.33645 0.7134 0.0
C492 C 0.70761 0.29739 0.67016 0.0
C493 C 0.71554 0.32337 0.6242 0.0
C494 C 0.7407 0.31636 0.60253 0.0
C495 C 0.75928 0.34973 0.56486 0.0
C496 C 0.75226 0.3899 0.54819 0.0
C497 C 0.72468 0.39496 0.56846 0.0
C498 C 0.70615 0.36179 0.60582 0.0
C499 C 0.83737 0.32586 0.81621 0.0
O500 O 0.78828 0.20632 0.83465 0.0
O501 O 0.72173 0.21726 0.78787 0.0
O502 O 0.90477 0.23465 0.80826 0.0
O503 O 0.88096 0.23573 0.86352 0.0
O504 O 0.82592 0.21599 0.72789 0.0
O505 O 0.76729 0.2099 0.74395 0.0
O506 O 0.82769 0.31845 0.69747 0.0
O507 O 0.89716 0.32266 0.75613 0.0
O508 O 0.7394 0.32595 0.70465 0.0
O509 O 0.70142 0.25304 0.67976 0.0
O510 O 0.78899 0.31131 0.80412 0.0
O511 O 0.84663 0.31697 0.78626 0.0
H512 H 0.94133 0.18992 0.93861 0.0
H513 H 0.92558 0.10568 0.96578 0.0
H514 H 0.82171 0.05435 0.83096 0.0
H515 H 0.83651 0.13858 0.80424 0.0
H516 H 0.74897 0.2872 0.61649 0.0
H517 H 0.78169 0.34604 0.55067 0.0
H518 H 0.72042 0.4268 0.55738 0.0
H519 H 0.68765 0.36835 0.62236 0.0
Ho520 Ho 0.7928 0.7285 0.73772 0.0
Ho521 Ho 0.85251 0.79153 0.79626 0.0
C522 C 0.88622 0.70154 0.82749 0.0
C523 C 0.75838 0.67258 0.67366 0.0
C524 C 0.78821 0.66914 0.65193 0.0
C525 C 0.79766 0.69736 0.60937 0.0
C526 C 0.8322 0.7007 0.59186 0.0
C527 C 0.85742 0.67508 0.61607 0.0
C528 C 0.84662 0.64565 0.65806 0.0
C529 C 0.81245 0.64268 0.67572 0.0
C530 C 0.73902 0.70023 0.80063 0.0
C531 C 0.75948 0.81829 0.70685 0.0
C532 C 0.89041 0.84944 0.86013 0.0
C533 C 0.86555 0.85784 0.88365 0.0
C534 C 0.8596 0.83332 0.92802 0.0
C535 C 0.83305 0.83802 0.94939 0.0
C536 C 0.81267 0.86828 0.92735 0.0
C537 C 0.81904 0.89302 0.88295 0.0
C538 C 0.84511 0.88787 0.8614 0.0
C539 C 0.90332 0.82091 0.73007 0.0
O540 O 0.85004 0.69295 0.78401 0.0
O541 O 0.89259 0.74118 0.84118 0.0
O542 O 0.76092 0.65553 0.71729 0.0
O543 O 0.76316 0.71593 0.66509 0.0
O544 O 0.71972 0.70027 0.75604 0.0
O545 O 0.78594 0.7148 0.80977 0.0
O546 O 0.79524 0.82676 0.75048 0.0
O547 O 0.75324 0.77896 0.6928 0.0
O548 O 0.88681 0.86545 0.81625 0.0
O549 O 0.88225 0.80458 0.8688 0.0
O550 O 0.92371 0.81888 0.77454 0.0
O551 O 0.8569 0.80623 0.72329 0.0
H552 H 0.77965 0.71834 0.59029 0.0
H553 H 0.83982 0.72435 0.55986 0.0
H554 H 0.86366 0.62387 0.67712 0.0
H555 H 0.80583 0.62029 0.70846 0.0
H556 H 0.87478 0.80972 0.94599 0.0
H557 H 0.8282 0.81737 0.98302 0.0
H558 H 0.80533 0.91776 0.86507 0.0
H559 H 0.84921 0.90754 0.82729 0.0
Ho560 Ho 0.61261 0.51654 0.55473 0.0
Ho561 Ho 0.52004 0.47279 0.50484 0.0
C562 C 0.57869 0.4329 0.49198 0.0
C563 C 0.70675 0.54693 0.60255 0.0
C564 C 0.74776 0.55944 0.58439 0.0
C565 C 0.78047 0.54235 0.61006 0.0
C566 C 0.80907 0.54099 0.58851 0.0
C567 C 0.80402 0.55512 0.54029 0.0
C568 C 0.77576 0.57767 0.5161 0.0
C569 C 0.74781 0.57975 0.53795 0.0
C570 C 0.61389 0.57123 0.46817 0.0
C571 C 0.55304 0.55667 0.56567 0.0
C572 C 0.42595 0.44259 0.45673 0.0
C573 C 0.38429 0.43155 0.47292 0.0
C574 C 0.35323 0.45006 0.44542 0.0
C575 C 0.32308 0.4519 0.46444 0.0
C576 C 0.32522 0.43732 0.51218 0.0
C577 C 0.35215 0.41375 0.53833 0.0
C578 C 0.38161 0.41101 0.51887 0.0
C579 C 0.51959 0.4202 0.59283 0.0
O580 O 0.60639 0.45106 0.53318 0.0
O581 O 0.54371 0.44388 0.46792 0.0
O582 O 0.68996 0.57683 0.58623 0.0
O583 O 0.66887 0.49928 0.60273 0.0
O584 O 0.6325 0.58937 0.50734 0.0
O585 O 0.5896 0.52337 0.47624 0.0
O586 O 0.52599 0.53862 0.52452 0.0
O587 O 0.58762 0.54527 0.59061 0.0
O588 O 0.44216 0.41224 0.4747 0.0
O589 O 0.46417 0.49007 0.45606 0.0
O590 O 0.50032 0.40074 0.5542 0.0
O591 O 0.54362 0.46774 0.58335 0.0
H592 H 0.78091 0.52651 0.64583 0.0
H593 H 0.8301 0.52316 0.60877 0.0
H594 H 0.77161 0.58964 0.47929 0.0
H595 H 0.72295 0.59345 0.51734 0.0
H596 H 0.35519 0.46654 0.41014 0.0
H597 H 0.30325 0.47056 0.44273 0.0
H598 H 0.35432 0.40173 0.57491 0.0
H599 H 0.40549 0.39659 0.54097 0.0
Ho600 Ho 1.04278 0.48403 0.04597 0.0
Ho601 Ho 0.10348 0.53409 0.98577 0.0
C602 C 1.01576 0.57292 0.95718 0.0
C603 C 0.99679 0.45807 0.10873 0.0
C604 C 0.99277 0.48601 0.13318 0.0
C605 C 1.02401 0.53892 0.12959 0.0
C606 C 1.02341 0.56563 0.15589 0.0
C607 C 0.99001 0.53987 0.18492 0.0
C608 C 0.9581 0.48658 0.1876 0.0
C609 C 0.95985 0.4599 0.16219 0.0
C610 C 1.00072 0.42755 0.97524 0.0
C611 C 0.13082 0.4457 0.07494 0.0
C612 C 0.14873 0.5577 0.92304 0.0
C613 C 0.14608 0.52713 0.89562 0.0
C614 C 0.1065 0.47567 0.89372 0.0
C615 C 0.10267 0.44665 0.86639 0.0
C616 C 0.1396 0.46823 0.84178 0.0
C617 C 0.17975 0.51993 0.8445 0.0
C618 C 0.18262 0.54922 0.87088 0.0
C619 C 0.14549 0.58955 0.05732 0.0
O620 O 1.01105 0.54315 0.99972 0.0
O621 O 1.05098 0.57326 0.944 0.0
O622 O 0.97348 0.45613 0.06441 0.0
O623 O 1.04343 0.46873 0.11798 0.0
O624 O 1.00164 0.40927 1.0181 0.0
O625 O 1.0214 0.47431 0.97242 0.0
O626 O 0.13544 0.47529 0.03234 0.0
O627 O 0.09548 0.44521 0.08801 0.0
O628 O 0.17005 0.55421 0.96746 0.0
O629 O 0.10586 0.55498 0.91418 0.0
O630 O 0.14723 0.609 1.01506 0.0
O631 O 0.12454 0.54295 0.05923 0.0
H632 H 1.0493 0.55952 0.10682 0.0
H633 H 1.04931 0.60641 0.15343 0.0
H634 H 0.93113 0.46519 0.20874 0.0
H635 H 0.93552 0.41894 0.16517 0.0
H636 H 0.07863 0.45795 0.91352 0.0
H637 H 0.07091 0.4073 0.86485 0.0
H638 H 0.20979 0.53775 0.82718 0.0
H639 H 0.21365 0.58889 0.87238 0.0
C640 C 0.21443 0.18522 0.90338 0.0
C641 C 0.22796 0.16035 0.88772 0.0
H642 H 0.17625 0.18198 0.9471 0.0
C643 C 0.2088 0.10889 0.90511 0.0
H644 H 0.22815 0.22457 0.89157 0.0
C645 C 0.17759 0.08368 0.93682 0.0
C646 C 0.16525 0.1093 0.95308 0.0
H647 H 0.21821 0.088 0.89443 0.0
H648 H 0.16452 0.04463 0.94964 0.0
C649 C 0.18434 0.16048 0.93555 0.0
C650 C 0.22414 0.00989 0.1704 0.0
C651 C 0.21532 0.01699 0.12199 0.0
H652 H 0.25064 0.97428 0.23345 0.0
C653 C 0.24237 0.01092 0.10223 0.0
H654 H 0.20434 0.01523 0.18646 0.0
C655 C 0.27028 0.98929 0.12932 0.0
C656 C 0.26873 0.97131 0.17562 0.0
H657 H 0.2366 0.01685 0.06495 0.0
H658 H 0.28448 0.97844 0.11191 0.0
C659 C 0.25114 0.98704 0.1974 0.0
C660 C 0.48053 0.89576 0.40462 0.0
C661 C 0.46842 0.8852 0.44644 0.0
H662 H 0.4549 0.87251 0.33693 0.0
C663 C 0.42074 0.84195 0.45258 0.0
H664 H 0.51719 0.92896 0.39936 0.0
C665 C 0.38461 0.81089 0.41654 0.0
C666 C 0.39641 0.82167 0.37455 0.0
H667 H 0.41057 0.83327 0.48453 0.0
H668 H 0.34733 0.77856 0.42137 0.0
C669 C 0.4451 0.86356 0.36916 0.0
C670 C 0.51795 0.13773 0.74452 0.0
C671 C 0.49342 0.10951 0.78032 0.0
H672 H 0.54228 0.13664 0.69126 0.0
C673 C 0.48197 0.06008 0.79493 0.0
H674 H 0.5281 0.17628 0.73334 0.0
C675 C 0.49005 0.03751 0.77095 0.0
C676 C 0.50956 0.06407 0.73207 0.0
H677 H 0.46281 0.03735 0.82232 0.0
H678 H 0.47728 0.99813 0.78066 0.0
C679 C 0.52589 0.11509 0.72045 0.0
C680 C 0.3688 0.93717 0.68891 0.0
C681 C 0.3377 0.9304 0.64285 0.0
H682 H 0.41272 0.91285 0.74667 0.0
C683 C 0.33789 0.90301 0.61621 0.0
H684 H 0.36995 0.95834 0.71029 0.0
C685 C 0.36278 0.87702 0.63717 0.0
C686 C 0.38744 0.87811 0.68492 0.0
H687 H 0.31528 0.89832 0.58019 0.0
H688 H 0.35781 0.85192 0.6173 0.0
C689 C 0.39335 0.9111 0.70977 0.0
C690 C 0.47701 0.82681 0.89543 0.0
C691 C 0.48456 0.84596 0.85031 0.0
H692 H 0.4845 0.84263 0.96147 0.0
C693 C 0.50687 0.8984 0.83873 0.0
H694 H 0.46025 0.78682 0.90613 0.0
C695 C 0.52007 0.93016 0.87013 0.0
C696 C 0.51274 0.91144 0.91523 0.0
H697 H 0.5134 0.91502 0.80469 0.0
H698 H 0.53626 0.97 0.85882 0.0
C699 C 0.49127 0.85901 0.92748 0.0
C700 C 0.40715 0.11929 0.07733 0.0
C701 C 0.37964 0.10127 0.03312 0.0
H702 H 0.41048 0.14709 0.13245 0.0
C703 C 0.33259 0.09826 1.0103 0.0
H704 H 0.44324 0.12169 0.09628 0.0
C705 C 0.31278 0.11139 0.03186 0.0
C706 C 0.33964 0.12807 0.07673 0.0
H707 H 0.31073 0.08532 0.9759 0.0
H708 H 0.27541 0.1065 1.01394 0.0
C709 C 0.38774 0.13303 0.09857 0.0
C710 C 0.13655 0.12532 0.36711 0.0
C711 C 0.16208 0.11596 0.4132 0.0
H712 H 0.14188 0.15857 0.297 0.0
C713 C 0.21558 0.1366 0.42277 0.0
H714 H 0.09553 0.11025 0.35783 0.0
C715 C 0.24225 0.1647 0.38796 0.0
C716 C 0.21662 0.17303 0.3417 0.0
H717 H 0.2372 0.13086 0.4575 0.0
H718 H 0.28321 0.17943 0.39732 0.0
C719 C 0.16326 0.1531 0.33198 0.0
C720 C 0.95176 0.16146 0.21243 0.0
C721 C 0.89751 0.13526 0.19487 0.0
H722 H 1.02189 0.17181 0.21441 0.0
C723 C 0.87195 0.09525 0.16765 0.0
H724 H 0.97277 0.19308 0.23278 0.0
C725 C 0.9002 0.08246 0.15747 0.0
C726 C 0.95476 0.10978 0.17385 0.0
H727 H 0.83012 0.07406 0.15394 0.0
H728 H 0.87924 0.05143 0.13641 0.0
C729 C 0.97999 0.14907 0.20192 0.0
C730 C 0.13491 0.57757 0.37642 0.0
C731 C 0.15276 0.55969 0.42136 0.0
H732 H 0.15263 0.62012 0.31261 0.0
C733 C 0.20307 0.57 0.43631 0.0
H734 H 0.09631 0.57045 0.36457 0.0
C735 C 0.23586 0.59919 0.40692 0.0
C736 C 0.21854 0.6181 0.36215 0.0
H737 H 0.21764 0.55761 0.4715 0.0
H738 H 0.27506 0.60805 0.41951 0.0
C739 C 0.16727 0.60602 0.34685 0.0
C740 C 0.68137 0.90269 0.66187 0.0
C741 C 0.66411 0.91356 0.61048 0.0
H742 H 0.71892 0.8736 0.7276 0.0
C743 C 0.68153 0.88985 0.5943 0.0
H744 H 0.67298 0.91643 0.68244 0.0
C745 C 0.70865 0.86133 0.62262 0.0
C746 C 0.72682 0.85132 0.67402 0.0
H747 H 0.67317 0.89239 0.55694 0.0
H748 H 0.71632 0.84691 0.60203 0.0
C749 C 0.71016 0.87576 0.69024 0.0
C750 C 0.49881 0.41582 0.92062 0.0
C751 C 0.51925 0.40322 0.96747 0.0
H752 H 0.44556 0.38942 0.85439 0.0
C753 C 0.49953 0.35207 0.98342 0.0
H754 H 0.51299 0.45496 0.90722 0.0
C755 C 0.46001 0.31438 0.95308 0.0
C756 C 0.44018 0.32722 0.90607 0.0
H757 H 0.51414 0.34122 1.01931 0.0
H758 H 0.44544 0.27516 0.96633 0.0
C759 C 0.46007 0.37836 0.89024 0.0
C760 C 0.91087 0.83365 0.41681 0.0
C761 C 0.91362 0.83829 0.37183 0.0
H762 H 0.94662 0.86798 0.48063 0.0
C763 C 0.95501 0.88269 0.35619 0.0
H764 H 0.87922 0.7998 0.42955 0.0
C765 C 0.99423 0.92085 0.38578 0.0
C766 C 0.99172 0.91607 0.43086 0.0
H767 H 0.95803 0.88712 0.32166 0.0
H768 H 1.02674 0.95399 0.37358 0.0
C769 C 0.94918 0.87265 0.44584 0.0
C770 C 0.51946 0.61239 0.55558 0.0
C771 C 0.54237 0.58568 0.58492 0.0
H772 H 0.49138 0.65835 0.54916 0.0
C773 C 0.55465 0.58677 0.63327 0.0
H774 H 0.50991 0.61333 0.51825 0.0
C775 C 0.54324 0.6122 0.65143 0.0
C776 C 0.51968 0.63868 0.62217 0.0
H777 H 0.57255 0.56713 0.65744 0.0
H778 H 0.55372 0.61144 0.68881 0.0
C779 C 0.50912 0.63881 0.57368 0.0
C780 C 0.64141 0.13254 0.89393 0.0
C781 C 0.65835 0.10464 0.9307 0.0
H782 H 0.65357 0.18278 0.83153 0.0
C783 C 0.70226 0.10696 0.93228 0.0
H784 H 0.60722 0.131 0.89129 0.0
C785 C 0.7289 0.13671 0.89819 0.0
C786 C 0.71192 0.16444 0.8612 0.0
H787 H 0.71622 0.08587 0.96 0.0
H788 H 0.76278 0.13772 0.90081 0.0
C789 C 0.6677 0.16186 0.85939 0.0
C790 C 0.18225 0.40275 0.15959 0.0
C791 C 0.16439 0.41325 0.1081 0.0
H792 H 0.22042 0.37429 0.22547 0.0
C793 C 0.18192 0.38931 0.09222 0.0
H794 H 0.1741 0.41671 0.18017 0.0
C795 C 0.20936 0.36098 0.12072 0.0
C796 C 0.22808 0.35131 0.17221 0.0
H797 H 0.17335 0.3915 0.05488 0.0
H798 H 0.21687 0.34641 0.10012 0.0
C799 C 0.21138 0.37603 0.18811 0.0
C800 C 0.62344 0.61827 0.85596 0.0
C801 C 0.64839 0.61557 0.90387 0.0
H802 H 0.63172 0.64656 0.78599 0.0
C803 C 0.70331 0.64295 0.91669 0.0
H804 H 0.58152 0.59794 0.84421 0.0
C805 C 0.73195 0.67055 0.8835 0.0
C806 C 0.70727 0.67227 0.8357 0.0
H807 H 0.72479 0.64276 0.9529 0.0
H808 H 0.77385 0.69026 0.89548 0.0
C809 C 0.65242 0.64616 0.82244 0.0
C810 C 0.74437 0.39696 0.2423 0.0
C811 C 0.76395 0.37582 0.23042 0.0
H812 H 0.74816 0.46246 0.24291 0.0
C813 C 0.80921 0.40752 0.21541 0.0
H814 H 0.71037 0.37324 0.2554 0.0
C815 C 0.83294 0.4598 0.21002 0.0
C816 C 0.81074 0.48104 0.218 0.0
H817 H 0.82663 0.39203 0.20841 0.0
H818 H 0.8669 0.48321 0.19712 0.0
C819 C 0.7674 0.44879 0.23632 0.0
C820 C 0.91137 0.36203 0.44296 0.0
C821 C 0.93442 0.4137 0.42608 0.0
H822 H 0.85383 0.2845 0.42626 0.0
C823 C 0.91226 0.42614 0.38015 0.0
H824 H 0.92738 0.35115 0.47828 0.0
C825 C 0.87027 0.38854 0.35117 0.0
C826 C 0.84864 0.33697 0.36679 0.0
H827 H 0.92838 0.46527 0.36582 0.0
H828 H 0.85621 0.40006 0.31538 0.0
C829 C 0.86879 0.32386 0.41346 0.0
C830 C 0.64502 0.58001 0.40081 0.0
C831 C 0.63982 0.60213 0.42873 0.0
H832 H 0.67822 0.5909 0.3484 0.0
C833 C 0.66409 0.65532 0.42123 0.0
H834 H 0.62785 0.53957 0.40551 0.0
C835 C 0.69261 0.68514 0.38753 0.0
C836 C 0.69918 0.66314 0.36064 0.0
H837 H 0.66166 0.6742 0.44208 0.0
H838 H 0.71107 0.72574 0.38374 0.0
C839 C 0.67441 0.60985 0.36792 0.0
C840 C 0.87148 0.3308 0.9022 0.0
C841 C 0.87773 0.3517 0.85734 0.0
H842 H 0.90699 0.33739 0.97556 0.0
C843 C 0.9252 0.39557 0.85179 0.0
H844 H 0.83534 0.29633 0.90706 0.0
C845 C 0.9654 0.41945 0.89043 0.0
C846 C 0.95982 0.39856 0.93549 0.0
H847 H 0.93086 0.41192 0.81739 0.0
H848 H 1.00065 0.45472 0.88498 0.0
C849 C 0.91264 0.35374 0.94119 0.0
C850 C 0.9378 0.89587 0.16616 0.0
C851 C 0.91459 0.84325 0.18023 0.0
H852 H 0.98686 0.96145 0.1255 0.0
C853 C 0.92584 0.81765 0.16267 0.0
H854 H 0.93046 0.91745 0.17853 0.0
C855 C 0.95779 0.84285 0.13209 0.0
C856 C 0.98091 0.89517 0.11778 0.0
H857 H 0.90925 0.77749 0.17203 0.0
H858 H 0.9642 0.82077 0.11927 0.0
C859 C 0.97059 0.92143 0.13572 0.0
C860 C 0.89706 0.02295 0.8869 0.0
C861 C 0.87537 0.02913 0.91304 0.0
H862 H 0.94826 0.00286 0.88984 0.0
C863 C 0.87414 0.00481 0.95802 0.0
H864 H 0.89823 0.04134 0.85197 0.0
C865 C 0.90317 0.9834 0.97969 0.0
C866 C 0.93253 0.98534 0.95612 0.0
H867 H 0.85697 0.00862 0.97845 0.0
H868 H 0.9076 0.97087 1.01646 0.0
C869 C 0.9259 0.00113 0.90857 0.0
C870 C 0.75742 0.19084 0.63194 0.0
C871 C 0.7406 0.17678 0.67178 0.0
H872 H 0.7375 0.17591 0.5621 0.0
C873 C 0.68895 0.13772 0.67092 0.0
H874 H 0.79707 0.22123 0.63185 0.0
C875 C 0.65547 0.11095 0.63164 0.0
C876 C 0.67266 0.12429 0.59217 0.0
H877 H 0.67524 0.12638 0.70131 0.0
H878 H 0.61643 0.07922 0.63236 0.0
C879 C 0.72339 0.16531 0.59206 0.0
C880 C 0.62083 0.95265 0.26376 0.0
C881 C 0.59475 0.92337 0.29829 0.0
H882 H 0.65923 0.95779 0.22025 0.0
C883 C 0.5755 0.87164 0.30686 0.0
H884 H 0.63638 0.99281 0.25697 0.0
C885 C 0.5877 0.85083 0.28501 0.0
C886 C 0.62072 0.88203 0.25561 0.0
H887 H 0.55461 0.84837 0.33306 0.0
H888 H 0.57506 0.81147 0.29431 0.0
C889 C 0.63389 0.93225 0.24263 0.0
C890 C 0.77046 0.12032 0.42282 0.0
C891 C 0.74288 0.1119 0.37605 0.0
H892 H 0.82404 0.10921 0.4822 0.0
C893 C 0.73914 0.07658 0.35629 0.0
H894 H 0.77397 0.14751 0.43876 0.0
C895 C 0.76768 0.05482 0.38089 0.0
C896 C 0.80103 0.06846 0.4256 0.0
H897 H 0.7177 0.06921 0.32029 0.0
H898 H 0.76764 0.03157 0.36285 0.0
C899 C 0.7995 0.09879 0.44745 0.0
C900 C 0.64296 0.15602 0.15407 0.0
C901 C 0.6329 0.13416 0.19821 0.0
H902 H 0.63942 0.14481 0.08754 0.0
C903 C 0.60908 0.08141 0.20678 0.0
H904 H 0.66097 0.19644 0.14552 0.0
C905 C 0.59722 0.05191 0.17379 0.0
C906 C 0.60774 0.07344 0.12994 0.0
H907 H 0.60062 0.06301 0.2398 0.0
H908 H 0.57968 0.01159 0.18287 0.0
C909 C 0.63028 0.12624 0.12044 0.0
C910 C 0.74941 0.88752 0.92532 0.0
C911 C 0.78714 0.87607 0.95123 0.0
H912 H 0.70174 0.91019 0.92636 0.0
C913 C 0.80252 0.87528 1.00008 0.0
H914 H 0.73499 0.88685 0.88794 0.0
C915 C 0.78235 0.88756 1.02203 0.0
C916 C 0.74681 0.90137 0.99569 0.0
H917 H 0.83208 0.86771 1.02151 0.0
H918 H 0.79599 0.88807 0.05949 0.0
C919 C 0.73001 0.90064 0.94727 0.0
C920 C 0.93757 0.89398 0.61462 0.0
C921 C 0.99108 0.91423 0.62493 0.0
H922 H 0.8686 0.84897 0.63833 0.0
C923 C 1.0152 0.90193 0.67041 0.0
H924 H 0.917 0.90193 0.58028 0.0
C925 C 0.9871 0.8716 0.70431 0.0
C926 C 0.93369 0.85188 0.69387 0.0
H927 H 1.05615 0.91656 0.68018 0.0
H928 H 1.0074 0.86385 0.73892 0.0
C929 C 0.90949 0.86327 0.64817 0.0
C930 C 0.18622 0.83368 0.85487 0.0
C931 C 0.23896 0.85204 0.87654 0.0
H932 H 0.11981 0.83165 0.85084 0.0
C933 C 0.26612 0.88643 0.91015 0.0
H934 H 0.16383 0.80635 0.82952 0.0
C935 C 0.24095 0.90174 0.92202 0.0
C936 C 0.18778 0.88254 0.90102 0.0
H937 H 0.30686 0.90146 0.9273 0.0
H938 H 0.26322 0.92851 0.94783 0.0
C939 C 0.16095 0.84846 0.86708 0.0
C940 C 0.93112 0.42384 0.6114 0.0
C941 C 0.97673 0.4254 0.6217 0.0
H942 H 0.8632 0.39363 0.63238 0.0
C943 C 0.99107 0.40016 0.66322 0.0
H944 H 0.91933 0.44244 0.579 0.0
C945 C 0.95986 0.37306 0.69377 0.0
C946 C 0.91291 0.36955 0.68278 0.0
H947 H 1.0261 0.40076 0.6717 0.0
H948 H 0.97164 0.35328 0.72518 0.0
C949 C 0.89905 0.39564 0.64153 0.0
C950 C 0.46257 0.11346 0.3726 0.0
C951 C 0.48024 0.10303 0.42407 0.0
H952 H 0.4253 0.14264 0.30666 0.0
C953 C 0.46427 0.12843 0.43994 0.0
H954 H 0.46993 0.09864 0.35211 0.0
C955 C 0.43796 0.15773 0.41136 0.0
C956 C 0.41925 0.16718 0.35988 0.0
H957 H 0.47323 0.12668 0.47728 0.0
H958 H 0.43142 0.17332 0.43185 0.0
C959 C 0.43458 0.14119 0.34401 0.0
C960 C 0.66788 0.65804 0.08353 0.0
C961 C 0.62133 0.61495 0.09221 0.0
H962 H 0.74087 0.72442 0.10956 0.0
C963 C 0.61384 0.60471 0.13638 0.0
H964 H 0.67486 0.66651 0.04994 0.0
C965 C 0.6528 0.63724 0.17136 0.0
C966 C 0.69891 0.6809 0.16199 0.0
H967 H 0.57859 0.57119 0.14407 0.0
H968 H 0.64637 0.62903 0.20513 0.0
C969 C 0.70583 0.69094 0.11774 0.0
C970 C 0.18858 0.1291 0.69612 0.0
C971 C 0.23712 0.16974 0.6894 0.0
H972 H 0.11205 0.06835 0.66542 0.0
C973 C 0.24739 0.17701 0.64728 0.0
H974 H 0.17951 0.123 0.72805 0.0
C975 C 0.2094 0.14508 0.61198 0.0
C976 C 0.15979 0.10636 0.61756 0.0
H977 H 0.28451 0.20829 0.64123 0.0
H978 H 0.21799 0.15229 0.57949 0.0
C979 C 0.14997 0.09815 0.6602 0.0
C980 C 0.58454 0.37681 0.40339 0.0
C981 C 0.60638 0.34846 0.43136 0.0
H982 H 0.55883 0.42438 0.3996 0.0
C983 C 0.61794 0.34781 0.48011 0.0
H984 H 0.57505 0.37951 0.3659 0.0
C985 C 0.60951 0.37498 0.49966 0.0
C986 C 0.58816 0.40348 0.47157 0.0
H987 H 0.63316 0.32568 0.5036 0.0
H988 H 0.61889 0.37287 0.53709 0.0
C989 C 0.57535 0.40321 0.42295 0.0
C990 C 0.42425 0.88563 0.11295 0.0
C991 C 0.46804 0.88808 0.11402 0.0
H992 H 0.36471 0.855 0.14566 0.0
C993 C 0.48629 0.86142 0.15112 0.0
H994 H 0.40955 0.90608 0.08503 0.0
C995 C 0.46119 0.83283 0.18636 0.0
C996 C 0.41688 0.82975 0.18496 0.0
H997 H 0.52053 0.86324 0.15339 0.0
H998 H 0.47617 0.81267 0.21435 0.0
C999 C 0.3987 0.85647 0.14782 0.0
C1000 C 0.96486 0.62957 0.94021 0.0
C1001 C 0.98243 0.60573 0.9242 0.0
H1002 H 0.93007 0.67254 0.93265 0.0
C1003 C 0.96482 0.61674 0.87274 0.0
H1004 H 0.97324 0.62708 0.97756 0.0
C1005 C 0.93589 0.64374 0.84438 0.0
C1006 C 0.91914 0.66835 0.86043 0.0
H1007 H 0.97302 0.60299 0.852 0.0
H1008 H 0.92704 0.64579 0.80702 0.0
C1009 C 0.93762 0.65817 0.9119 0.0
C1010 C 0.44754 0.388 0.11641 0.0
C1011 C 0.50255 0.41833 0.1303 0.0
H1012 H 0.37599 0.33517 0.13602 0.0
C1013 C 0.52656 0.41546 0.17846 0.0
H1014 H 0.42671 0.38843 0.08001 0.0
C1015 C 0.49668 0.38406 0.21105 0.0
C1016 C 0.44166 0.35456 0.19683 0.0
H1017 H 0.56846 0.43788 0.19112 0.0
H1018 H 0.51683 0.38346 0.24765 0.0
C1019 C 0.41792 0.35705 0.1488 0.0
C1020 C 0.29893 0.51479 0.84703 0.0
C1021 C 0.29637 0.49261 0.81306 0.0
H1022 H 0.32425 0.58342 0.86967 0.0
C1023 C 0.30261 0.52009 0.7698 0.0
H1024 H 0.29261 0.49457 0.88047 0.0
C1025 C 0.32318 0.5716 0.76476 0.0
C1026 C 0.33459 0.5957 0.80189 0.0
H1027 H 0.29855 0.50352 0.7422 0.0
H1028 H 0.3322 0.59285 0.7323 0.0
C1029 C 0.31837 0.56623 0.84154 0.0
C1030 C 0.218 0.62166 0.60054 0.0
C1031 C 0.18691 0.57067 0.61749 0.0
H1032 H 0.27951 0.69848 0.61812 0.0
C1033 C 0.19628 0.55852 0.66566 0.0
H1034 H 0.21181 0.63228 0.56344 0.0
C1035 C 0.23389 0.59564 0.69619 0.0
C1036 C 0.2649 0.64668 0.68017 0.0
H1037 H 0.17331 0.52002 0.68008 0.0
H1038 H 0.23778 0.5841 0.73304 0.0
C1039 C 0.25711 0.65946 0.63175 0.0
C1040 C 0.46628 0.38916 0.69639 0.0
C1041 C 0.44062 0.33591 0.70547 0.0
H1042 H 0.51154 0.45699 0.65576 0.0
C1043 C 0.44361 0.31119 0.67818 0.0
H1044 H 0.4651 0.41011 0.71606 0.0
C1045 C 0.46976 0.33836 0.6426 0.0
C1046 C 0.49509 0.39156 0.63342 0.0
H1047 H 0.42426 0.27044 0.68326 0.0
H1048 H 0.46964 0.31745 0.62178 0.0
C1049 C 0.49331 0.41637 0.66157 0.0
C1050 C 0.27336 0.67122 0.14164 0.0
C1051 C 0.25887 0.65228 0.18339 0.0
H1052 H 0.24765 0.66773 0.06762 0.0
C1053 C 0.20654 0.61647 0.18235 0.0
H1054 H 0.31353 0.69951 0.14172 0.0
C1055 C 0.1695 0.59795 0.14064 0.0
C1056 C 0.18356 0.61644 0.0988 0.0
H1057 H 0.19447 0.60151 0.21413 0.0
H1058 H 0.13002 0.568 0.14132 0.0
C1059 C 0.23569 0.65383 0.09937 0.0
C1060 C 0.83383 0.46834 0.54088 0.0
C1061 C 0.78251 0.43342 0.51794 0.0
H1062 H 0.88505 0.54228 0.56395 0.0
C1063 C 0.75575 0.45219 0.48069 0.0
H1064 H 0.8562 0.45527 0.56876 0.0
C1065 C 0.77144 0.50217 0.47895 0.0
C1066 C 0.81374 0.53203 0.5145 0.0
H1067 H 0.71729 0.42633 0.46031 0.0
H1068 H 0.74406 0.51249 0.45693 0.0
C1069 C 0.85006 0.51858 0.53854 0.0
C1070 C 0.98223 0.63906 0.21078 0.0
C1071 C 0.96336 0.61547 0.25029 0.0
H1072 H 1.00274 0.63295 0.15787 0.0
C1073 C 0.96015 0.57004 0.27163 0.0
H1074 H 0.98697 0.67488 0.1942 0.0
C1075 C 0.97239 0.54732 0.25224 0.0
C1076 C 0.9861 0.56835 0.21006 0.0
H1077 H 0.94545 0.55022 0.30187 0.0
H1078 H 0.96879 0.51207 0.26939 0.0
C1079 C 0.99242 0.61533 0.19037 0.0
C1080 C 0.96374 0.66746 0.6097 0.0
C1081 C 0.95389 0.66923 0.56157 0.0
H1082 H 0.94304 0.67021 0.66453 0.0
C1083 C 0.91527 0.67775 0.53125 0.0
H1084 H 0.99309 0.66077 0.63413 0.0
C1085 C 0.88537 0.68179 0.54879 0.0
C1086 C 0.89327 0.67722 0.59709 0.0
H1087 H 0.90729 0.68014 0.49393 0.0
H1088 H 0.85445 0.68597 0.52422 0.0
C1089 C 0.9342 0.67191 0.62721 0.0
C1090 C 0.35642 0.49222 0.5709 0.0
C1091 C 0.3145 0.46137 0.53583 0.0
H1092 H 0.41142 0.56887 0.58706 0.0
C1093 C 0.27911 0.47553 0.50932 0.0
H1094 H 0.38274 0.48134 0.59494 0.0
C1095 C 0.2968 0.52659 0.50371 0.0
C1096 C 0.34798 0.56147 0.52705 0.0
H1097 H 0.24438 0.45124 0.48411 0.0
H1098 H 0.27558 0.53934 0.47386 0.0
C1099 C 0.37339 0.54301 0.56627 0.0
C1100 C 0.16744 0.43164 0.75869 0.0
C1101 C 0.15676 0.38312 0.7786 0.0
H1102 H 0.16852 0.49566 0.76183 0.0
C1103 C 0.13113 0.35946 0.81387 0.0
H1104 H 0.18692 0.45156 0.7314 0.0
C1105 C 0.12308 0.38614 0.83301 0.0
C1106 C 0.13874 0.43653 0.81614 0.0
H1107 H 0.12008 0.32134 0.82883 0.0
H1108 H 0.10764 0.36809 0.86292 0.0
C1109 C 0.158 0.45772 0.77694 0.0
C1110 C 0.20098 0.32962 0.40618 0.0
C1111 C 0.24102 0.32265 0.43556 0.0
H1112 H 0.14138 0.33898 0.40097 0.0
C1113 C 0.24651 0.31305 0.48375 0.0
H1114 H 0.19431 0.33547 0.3688 0.0
C1115 C 0.215 0.31372 0.50221 0.0
C1116 C 0.17731 0.32401 0.47294 0.0
H1117 H 0.2768 0.30754 0.50767 0.0
H1118 H 0.22118 0.30752 0.53955 0.0
C1119 C 0.16987 0.33074 0.42463 0.0
loop_
_geom_bond_atom_site_label_1
_geom_bond_atom_site_label_2
_geom_bond_distance
_geom_bond_site_symmetry_2
_ccdc_geom_bond_type
Ho0 C3 2.811 . S
Ho0 O20 2.322 1_656 S
Ho0 O22 2.378 . S
Ho0 O23 2.524 1_655 S
Ho0 O24 2.374 1_556 S
Ho0 O25 2.669 1_556 S
Ho0 O27 2.346 . S
Ho0 O31 2.305 1_665 S
Ho1 C12 2.811 . S
Ho1 O21 2.346 . S
Ho1 O25 2.305 1_445 S
Ho1 O26 2.322 1_454 S
Ho1 O28 2.378 . S
Ho1 O29 2.524 1_455 S
Ho1 O30 2.381 . S
Ho1 O31 2.669 1_554 S
C2 O20 1.259 . S
C2 O21 1.268 1_565 S
C3 Ho0 2.811 . S
C3 C4 1.488 . S
C3 O22 1.215 . S
C3 O23 1.289 1_655 S
C4 C3 1.488 . S
C4 C5 1.348 1_655 S
C4 C9 1.413 . S
C5 C4 1.348 1_455 S
C5 C6 1.442 . S
C5 H32 0.930 . S
C6 C5 1.442 . S
C6 C7 1.381 . S
C6 H33 0.931 . S
C7 C6 1.381 . S
C7 C8 1.321 1_455 S
C8 C7 1.321 1_655 S
C8 C9 1.403 . S
C8 H34 0.934 . S
C9 C4 1.413 . S
C9 C8 1.403 . S
C9 H35 0.930 . S
C10 O24 1.281 . S
C10 O25 1.256 . S
C11 O26 1.259 . S
C11 O27 1.268 1_545 S
C12 Ho1 2.811 . S
C12 C13 1.488 . S
C12 O28 1.215 . S
C12 O29 1.289 1_455 S
C13 C12 1.488 . S
C13 C14 1.348 1_455 S
C13 C18 1.413 . S
C14 C13 1.348 1_655 S
C14 C15 1.442 . S
C14 H36 0.930 . S
C15 C14 1.442 . S
C15 C16 1.381 . S
C15 H37 0.931 . S
C16 C15 1.381 . S
C16 C17 1.321 1_655 S
C17 C16 1.321 1_455 S
C17 C18 1.403 . S
C17 H38 0.934 . S
C18 C13 1.413 . S
C18 C17 1.403 . S
C18 H39 0.930 . S
C19 O30 1.274 1_556 S
C19 O31 1.256 . S
O20 Ho0 2.322 1_454 S
O20 C2 1.259 . S
O21 Ho1 2.346 . S
O21 C2 1.268 1_545 S
O22 Ho0 2.378 . S
O22 C3 1.215 . S
O23 Ho0 2.524 1_455 S
O23 C3 1.289 1_455 S
O24 Ho0 2.374 1_554 S
O24 C10 1.281 . S
O25 Ho0 2.669 1_554 S
O25 Ho1 2.305 1_665 S
O25 C10 1.256 . S
O26 Ho1 2.322 1_656 S
O26 C11 1.259 . S
O27 Ho0 2.346 . S
O27 C11 1.268 1_565 S
O28 Ho1 2.378 . S
O28 C12 1.215 . S
O29 Ho1 2.524 1_655 S
O29 C12 1.289 1_655 S
O30 Ho1 2.381 . S
O30 C19 1.274 1_554 S
O31 Ho0 2.305 1_445 S
O31 Ho1 2.669 1_556 S
O31 C19 1.256 . S
H32 C5 0.930 . S
H33 C6 0.931 . S
H34 C8 0.934 . S
H35 C9 0.930 . S
H36 C14 0.930 . S
H37 C15 0.931 . S
H38 C17 0.934 . S
H39 C18 0.930 . S
Ho40 C43 2.811 . S
Ho40 O60 2.322 . S
Ho40 O62 2.378 . S
Ho40 O63 2.524 . S
Ho40 O64 2.381 . S
Ho40 O65 2.669 . S
Ho40 O67 2.346 . S
Ho40 O71 2.305 . S
Ho41 C52 2.811 . S
Ho41 O61 2.346 . S
Ho41 O65 2.305 . S
Ho41 O66 2.322 . S
Ho41 O68 2.378 . S
Ho41 O69 2.524 . S
Ho41 O70 2.381 . S
Ho41 O71 2.669 . S
C42 O60 1.259 . S
C42 O61 1.268 . S
C43 Ho40 2.811 . S
C43 C44 1.488 . S
C43 O62 1.215 . S
C43 O63 1.289 . S
C44 C43 1.488 . S
C44 C45 1.348 . S
C44 C49 1.413 . S
C45 C44 1.348 . S
C45 C46 1.442 . S
C45 H72 0.930 . S
C46 C45 1.442 . S
C46 C47 1.381 . S
C46 H73 0.931 . S
C47 C46 1.381 . S
C47 C48 1.321 . S
C48 C47 1.321 . S
C48 C49 1.403 . S
C48 H74 0.934 . S
C49 C44 1.413 . S
C49 C48 1.403 . S
C49 H75 0.930 . S
C50 O64 1.275 . S
C50 O65 1.256 . S
C51 O66 1.259 . S
C51 O67 1.268 . S
C52 Ho41 2.811 . S
C52 C53 1.488 . S
C52 O68 1.215 . S
C52 O69 1.289 . S
C53 C52 1.488 . S
C53 C54 1.348 . S
C53 C58 1.413 . S
C54 C53 1.348 . S
C54 C55 1.442 . S
C54 H76 0.930 . S
C55 C54 1.442 . S
C55 C56 1.381 . S
C55 H77 0.931 1_554 S
C56 C55 1.381 . S
C56 C57 1.321 . S
C57 C56 1.321 . S
C57 C58 1.403 . S
C57 H78 0.934 . S
C58 C53 1.413 . S
C58 C57 1.403 . S
C58 H79 0.930 . S
C59 O70 1.275 . S
C59 O71 1.256 . S
O60 Ho40 2.322 . S
O60 C42 1.259 . S
O61 Ho41 2.346 . S
O61 C42 1.268 . S
O62 Ho40 2.378 . S
O62 C43 1.215 . S
O63 Ho40 2.524 . S
O63 C43 1.289 . S
O64 Ho40 2.381 . S
O64 C50 1.275 . S
O65 Ho40 2.669 . S
O65 Ho41 2.305 . S
O65 C50 1.256 . S
O66 Ho41 2.322 . S
O66 C51 1.259 . S
O67 Ho40 2.346 . S
O67 C51 1.268 . S
O68 Ho41 2.378 . S
O68 C52 1.215 . S
O69 Ho41 2.524 . S
O69 C52 1.289 . S
O70 Ho41 2.381 . S
O70 C59 1.275 . S
O71 Ho40 2.305 . S
O71 Ho41 2.669 . S
O71 C59 1.256 . S
H72 C45 0.930 . S
H73 C46 0.931 . S
H74 C48 0.934 . S
H75 C49 0.930 . S
H76 C54 0.930 . S
H77 C55 0.931 1_556 S
H78 C57 0.934 . S
H79 C58 0.930 . S
Ho80 C83 2.811 . S
Ho80 O100 2.322 1_565 S
Ho80 O102 2.378 . S
Ho80 O103 2.524 1_565 S
Ho80 O104 2.381 . S
Ho80 O105 2.669 . S
Ho80 O107 2.346 . S
Ho80 O111 2.305 1_565 S
Ho81 C92 2.811 . S
Ho81 O101 2.346 . S
Ho81 O105 2.305 1_545 S
Ho81 O106 2.322 1_545 S
Ho81 O108 2.378 . S
Ho81 O109 2.524 1_545 S
Ho81 O110 2.381 . S
Ho81 O111 2.669 . S
C82 O100 1.259 . S
C82 O101 1.268 . S
C83 Ho80 2.811 . S
C83 C84 1.488 1_565 S
C83 O102 1.215 . S
C83 O103 1.289 1_565 S
C84 C83 1.488 1_545 S
C84 C85 1.348 . S
C84 C89 1.413 1_545 S
C85 C84 1.348 . S
C85 C86 1.442 . S
C85 H112 0.930 . S
C86 C85 1.442 . S
C86 C87 1.381 . S
C86 H113 0.931 . S
C87 C86 1.381 . S
C87 C88 1.321 1_545 S
C88 C87 1.321 1_565 S
C88 C89 1.403 . S
C88 H114 0.934 . S
C89 C84 1.413 1_565 S
C89 C88 1.403 . S
C89 H115 0.930 . S
C90 O104 1.275 . S
C90 O105 1.256 . S
C91 O106 1.259 . S
C91 O107 1.268 . S
C92 Ho81 2.811 . S
C92 C93 1.488 1_545 S
C92 O108 1.215 . S
C92 O109 1.289 1_545 S
C93 C92 1.488 1_565 S
C93 C94 1.348 . S
C93 C98 1.413 1_565 S
C94 C93 1.348 . S
C94 C95 1.442 . S
C94 H116 0.930 . S
C95 C94 1.442 . S
C95 C96 1.381 . S
C95 H117 0.931 . S
C96 C95 1.381 . S
C96 C97 1.321 1_565 S
C97 C96 1.321 1_545 S
C97 C98 1.403 . S
C97 H118 0.934 . S
C98 C93 1.413 1_545 S
C98 C97 1.403 . S
C98 H119 0.930 . S
C99 O110 1.275 . S
C99 O111 1.256 . S
O100 Ho80 2.322 1_545 S
O100 C82 1.259 . S
O101 Ho81 2.346 . S
O101 C82 1.268 . S
O102 Ho80 2.378 . S
O102 C83 1.215 . S
O103 Ho80 2.524 1_545 S
O103 C83 1.289 1_545 S
O104 Ho80 2.381 . S
O104 C90 1.275 . S
O105 Ho80 2.669 . S
O105 Ho81 2.305 1_565 S
O105 C90 1.256 . S
O106 Ho81 2.322 1_565 S
O106 C91 1.259 . S
O107 Ho80 2.346 . S
O107 C91 1.268 . S
O108 Ho81 2.378 . S
O108 C92 1.215 . S
O109 Ho81 2.524 1_565 S
O109 C92 1.289 1_565 S
O110 Ho81 2.381 . S
O110 C99 1.275 . S
O111 Ho80 2.305 1_545 S
O111 Ho81 2.669 . S
O111 C99 1.256 . S
H112 C85 0.930 . S
H113 C86 0.931 . S
H114 C88 0.934 . S
H115 C89 0.930 . S
H116 C94 0.930 . S
H117 C95 0.931 . S
H118 C97 0.934 . S
H119 C98 0.930 . S
Ho120 C123 2.811 . S
Ho120 O140 2.322 . S
Ho120 O142 2.378 . S
Ho120 O143 2.524 . S
Ho120 O144 2.381 . S
Ho120 O145 2.669 . S
Ho120 O147 2.346 . S
Ho120 O151 2.305 . S
Ho121 C132 2.811 . S
Ho121 O141 2.346 . S
Ho121 O145 2.305 . S
Ho121 O146 2.322 . S
Ho121 O148 2.378 . S
Ho121 O149 2.524 . S
Ho121 O150 2.381 . S
Ho121 O151 2.669 . S
C122 O140 1.259 . S
C122 O141 1.268 . S
C123 Ho120 2.811 . S
C123 C124 1.488 . S
C123 O142 1.215 . S
C123 O143 1.289 . S
C124 C123 1.488 . S
C124 C125 1.348 . S
C124 C129 1.413 . S
C125 C124 1.348 . S
C125 C126 1.442 . S
C125 H152 0.930 . S
C126 C125 1.442 . S
C126 C127 1.381 . S
C126 H153 0.931 . S
C127 C126 1.381 . S
C127 C128 1.321 . S
C128 C127 1.321 . S
C128 C129 1.403 . S
C128 H154 0.934 . S
C129 C124 1.413 . S
C129 C128 1.403 . S
C129 H155 0.930 . S
C130 O144 1.275 . S
C130 O145 1.256 . S
C131 O146 1.259 . S
C131 O147 1.268 . S
C132 Ho121 2.811 . S
C132 C133 1.488 . S
C132 O148 1.215 . S
C132 O149 1.289 . S
C133 C132 1.488 . S
C133 C134 1.348 . S
C133 C138 1.413 . S
C134 C133 1.348 . S
C134 C135 1.442 . S
C134 H156 0.930 . S
C135 C134 1.442 . S
C135 C136 1.381 . S
C135 H157 0.931 . S
C136 C135 1.381 . S
C136 C137 1.321 . S
C137 C136 1.321 . S
C137 C138 1.403 . S
C137 H158 0.934 . S
C138 C133 1.413 . S
C138 C137 1.403 . S
C138 H159 0.930 . S
C139 O150 1.275 . S
C139 O151 1.256 . S
O140 Ho120 2.322 . S
O140 C122 1.259 . S
O141 Ho121 2.346 . S
O141 C122 1.268 . S
O142 Ho120 2.378 . S
O142 C123 1.215 . S
O143 Ho120 2.524 . S
O143 C123 1.289 . S
O144 Ho120 2.381 . S
O144 C130 1.275 . S
O145 Ho120 2.669 . S
O145 Ho121 2.305 . S
O145 C130 1.256 . S
O146 Ho121 2.322 . S
O146 C131 1.259 . S
O147 Ho120 2.346 . S
O147 C131 1.268 . S
O148 Ho121 2.378 . S
O148 C132 1.215 . S
O149 Ho121 2.524 . S
O149 C132 1.289 . S
O150 Ho121 2.381 . S
O150 C139 1.275 . S
O151 Ho120 2.305 . S
O151 Ho121 2.669 . S
O151 C139 1.256 . S
H152 C125 0.930 . S
H153 C126 0.931 . S
H154 C128 0.934 . S
H155 C129 0.930 . S
H156 C134 0.930 . S
H157 C135 0.931 . S
H158 C137 0.934 . S
H159 C138 0.930 . S
Ho160 C163 2.811 . S
Ho160 O180 2.322 1_455 S
Ho160 O182 2.378 . S
Ho160 O183 2.524 . S
Ho160 O184 2.381 1_455 S
Ho160 O185 2.669 1_455 S
Ho160 O187 2.346 1_565 S
Ho160 O191 2.305 1_565 S
Ho161 C172 2.811 . S
Ho161 O181 2.346 1_545 S
Ho161 O185 2.305 1_545 S
Ho161 O186 2.322 1_655 S
Ho161 O188 2.378 . S
Ho161 O189 2.524 . S
Ho161 O190 2.381 1_655 S
Ho161 O191 2.669 1_655 S
C162 O180 1.259 . S
C162 O181 1.268 . S
C163 Ho160 2.811 . S
C163 C164 1.488 . S
C163 O182 1.215 . S
C163 O183 1.289 . S
C164 C163 1.488 . S
C164 C165 1.348 . S
C164 C169 1.413 . S
C165 C164 1.348 . S
C165 C166 1.442 . S
C165 H192 0.930 . S
C166 C165 1.442 . S
C166 C167 1.381 . S
C166 H193 0.931 . S
C167 C166 1.381 . S
C167 C168 1.321 . S
C168 C167 1.321 . S
C168 C169 1.403 . S
C168 H194 0.934 . S
C169 C164 1.413 . S
C169 C168 1.403 . S
C169 H195 0.930 . S
C170 O184 1.275 . S
C170 O185 1.256 . S
C171 O186 1.259 . S
C171 O187 1.268 . S
C172 Ho161 2.811 . S
C172 C173 1.488 . S
C172 O188 1.215 . S
C172 O189 1.289 . S
C173 C172 1.488 . S
C173 C174 1.348 . S
C173 C178 1.413 . S
C174 C173 1.348 . S
C174 C175 1.442 . S
C174 H196 0.930 . S
C175 C174 1.442 . S
C175 C176 1.381 . S
C175 H197 0.931 . S
C176 C175 1.381 . S
C176 C177 1.321 . S
C177 C176 1.321 . S
C177 C178 1.403 . S
C177 H198 0.934 . S
C178 C173 1.413 . S
C178 C177 1.403 . S
C178 H199 0.930 . S
C179 O190 1.275 . S
C179 O191 1.256 . S
O180 Ho160 2.322 1_655 S
O180 C162 1.259 . S
O181 Ho161 2.346 1_565 S
O181 C162 1.268 . S
O182 Ho160 2.378 . S
O182 C163 1.215 . S
O183 Ho160 2.524 . S
O183 C163 1.289 . S
O184 Ho160 2.381 1_655 S
O184 C170 1.275 . S
O185 Ho160 2.669 1_655 S
O185 Ho161 2.305 1_565 S
O185 C170 1.256 . S
O186 Ho161 2.322 1_455 S
O186 C171 1.259 . S
O187 Ho160 2.346 1_545 S
O187 C171 1.268 . S
O188 Ho161 2.378 . S
O188 C172 1.215 . S
O189 Ho161 2.524 . S
O189 C172 1.289 . S
O190 Ho161 2.381 1_455 S
O190 C179 1.275 . S
O191 Ho160 2.305 1_545 S
O191 Ho161 2.669 1_455 S
O191 C179 1.256 . S
H192 C165 0.930 . S
H193 C166 0.931 . S
H194 C168 0.934 . S
H195 C169 0.930 . S
H196 C174 0.930 . S
H197 C175 0.931 . S
H198 C177 0.934 . S
H199 C178 0.930 . S
Ho200 C203 2.811 . S
Ho200 O220 2.322 . S
Ho200 O222 2.378 . S
Ho200 O223 2.524 . S
Ho200 O224 2.381 . S
Ho200 O225 2.669 . S
Ho200 O227 2.346 . S
Ho200 O231 2.305 . S
Ho201 C212 2.811 . S
Ho201 O221 2.346 . S
Ho201 O225 2.305 . S
Ho201 O226 2.322 . S
Ho201 O228 2.378 . S
Ho201 O229 2.524 . S
Ho201 O230 2.381 . S
Ho201 O231 2.669 . S
C202 O220 1.259 . S
C202 O221 1.268 . S
C203 Ho200 2.811 . S
C203 C204 1.488 . S
C203 O222 1.215 . S
C203 O223 1.289 . S
C204 C203 1.488 . S
C204 C205 1.348 . S
C204 C209 1.413 . S
C205 C204 1.348 . S
C205 C206 1.442 . S
C205 H232 0.930 . S
C206 C205 1.442 . S
C206 C207 1.381 . S
C206 H233 0.931 . S
C207 C206 1.381 . S
C207 C208 1.321 . S
C208 C207 1.321 . S
C208 C209 1.403 . S
C208 H234 0.934 . S
C209 C204 1.413 . S
C209 C208 1.403 . S
C209 H235 0.930 . S
C210 O224 1.275 . S
C210 O225 1.256 . S
C211 O226 1.259 . S
C211 O227 1.268 . S
C212 Ho201 2.811 . S
C212 C213 1.488 . S
C212 O228 1.215 . S
C212 O229 1.289 . S
C213 C212 1.488 . S
C213 C214 1.348 . S
C213 C218 1.413 . S
C214 C213 1.348 . S
C214 C215 1.442 . S
C214 H236 0.930 . S
C215 C214 1.442 . S
C215 C216 1.381 . S
C215 H237 0.931 . S
C216 C215 1.381 . S
C216 C217 1.321 . S
C217 C216 1.321 . S
C217 C218 1.403 . S
C217 H238 0.934 . S
C218 C213 1.413 . S
C218 C217 1.403 . S
C218 H239 0.930 . S
C219 O230 1.275 . S
C219 O231 1.256 . S
O220 Ho200 2.322 . S
O220 C202 1.259 . S
O221 Ho201 2.346 . S
O221 C202 1.268 . S
O222 Ho200 2.378 . S
O222 C203 1.215 . S
O223 Ho200 2.524 . S
O223 C203 1.289 . S
O224 Ho200 2.381 . S
O224 C210 1.275 . S
O225 Ho200 2.669 . S
O225 Ho201 2.305 . S
O225 C210 1.256 . S
O226 Ho201 2.322 . S
O226 C211 1.259 . S
O227 Ho200 2.346 . S
O227 C211 1.268 . S
O228 Ho201 2.378 . S
O228 C212 1.215 . S
O229 Ho201 2.524 . S
O229 C212 1.289 . S
O230 Ho201 2.381 . S
O230 C219 1.275 . S
O231 Ho200 2.305 . S
O231 Ho201 2.669 . S
O231 C219 1.256 . S
H232 C205 0.930 . S
H233 C206 0.931 . S
H234 C208 0.934 . S
H235 C209 0.930 . S
H236 C214 0.930 . S
H237 C215 0.931 . S
H238 C217 0.934 . S
H239 C218 0.930 . S
Ho240 C243 2.811 1_554 S
Ho240 O260 2.322 1_564 S
Ho240 O262 2.378 . S
Ho240 O263 2.524 1_554 S
Ho240 O264 2.381 1_565 S
Ho240 O265 2.669 1_565 S
Ho240 O267 2.346 . S
Ho240 O271 2.305 1_554 S
Ho241 C252 2.811 1_556 S
Ho241 O261 2.346 . S
Ho241 O265 2.305 1_556 S
Ho241 O266 2.322 1_546 S
Ho241 O268 2.378 . S
Ho241 O269 2.524 1_556 S
Ho241 O270 2.381 1_545 S
Ho241 O271 2.669 1_545 S
C242 O260 1.259 . S
C242 O261 1.268 . S
C243 Ho240 2.811 1_556 S
C243 C244 1.488 . S
C243 O262 1.215 1_556 S
C243 O263 1.289 . S
C244 C243 1.488 . S
C244 C245 1.348 . S
C244 C249 1.413 1_556 S
C245 C244 1.348 . S
C245 C246 1.442 . S
C245 H272 0.930 . S
C246 C245 1.442 . S
C246 C247 1.381 . S
C246 H273 0.931 . S
C247 C246 1.381 . S
C247 C248 1.321 1_556 S
C248 C247 1.321 1_554 S
C248 C249 1.403 . S
C248 H274 0.934 . S
C249 C244 1.413 1_554 S
C249 C248 1.403 . S
C249 H275 0.930 . S
C250 O264 1.275 . S
C250 O265 1.256 . S
C251 O266 1.259 . S
C251 O267 1.268 . S
C252 Ho241 2.811 1_554 S
C252 C253 1.488 . S
C252 O268 1.215 1_554 S
C252 O269 1.289 . S
C253 C252 1.488 . S
C253 C254 1.348 . S
C253 C258 1.413 1_554 S
C254 C253 1.348 . S
C254 C255 1.442 . S
C254 H276 0.930 . S
C255 C254 1.442 . S
C255 C256 1.381 . S
C255 H277 0.931 . S
C256 C255 1.381 . S
C256 C257 1.321 1_554 S
C257 C256 1.321 1_556 S
C257 C258 1.403 . S
C257 H278 0.934 . S
C258 C253 1.413 1_556 S
C258 C257 1.403 . S
C258 H279 0.930 . S
C259 O270 1.275 . S
C259 O271 1.256 . S
O260 Ho240 2.322 1_546 S
O260 C242 1.259 . S
O261 Ho241 2.346 . S
O261 C242 1.268 . S
O262 Ho240 2.378 . S
O262 C243 1.215 1_554 S
O263 Ho240 2.524 1_556 S
O263 C243 1.289 . S
O264 Ho240 2.381 1_545 S
O264 C250 1.275 . S
O265 Ho240 2.669 1_545 S
O265 Ho241 2.305 1_554 S
O265 C250 1.256 . S
O266 Ho241 2.322 1_564 S
O266 C251 1.259 . S
O267 Ho240 2.346 . S
O267 C251 1.268 . S
O268 Ho241 2.378 . S
O268 C252 1.215 1_556 S
O269 Ho241 2.524 1_554 S
O269 C252 1.289 . S
O270 Ho241 2.381 1_565 S
O270 C259 1.275 . S
O271 Ho240 2.305 1_556 S
O271 Ho241 2.669 1_565 S
O271 C259 1.256 . S
H272 C245 0.930 . S
H273 C246 0.931 . S
H274 C248 0.934 . S
H275 C249 0.930 . S
H276 C254 0.930 . S
H277 C255 0.931 . S
H278 C257 0.934 . S
H279 C258 0.930 . S
Ho280 C283 2.811 . S
Ho280 O300 2.322 . S
Ho280 O302 2.378 . S
Ho280 O303 2.524 . S
Ho280 O304 2.381 . S
Ho280 O305 2.669 . S
Ho280 O307 2.346 . S
Ho280 O311 2.305 . S
Ho281 C292 2.811 . S
Ho281 O301 2.346 . S
Ho281 O305 2.305 . S
Ho281 O306 2.322 . S
Ho281 O308 2.378 . S
Ho281 O309 2.524 . S
Ho281 O310 2.381 . S
Ho281 O311 2.669 . S
C282 O300 1.259 . S
C282 O301 1.268 . S
C283 Ho280 2.811 . S
C283 C284 1.488 . S
C283 O302 1.215 . S
C283 O303 1.289 . S
C284 C283 1.488 . S
C284 C285 1.348 . S
C284 C289 1.413 . S
C285 C284 1.348 . S
C285 C286 1.442 . S
C285 H312 0.930 . S
C286 C285 1.442 . S
C286 C287 1.381 . S
C286 H313 0.931 . S
C287 C286 1.381 . S
C287 C288 1.321 . S
C288 C287 1.321 . S
C288 C289 1.403 . S
C288 H314 0.934 . S
C289 C284 1.413 . S
C289 C288 1.403 . S
C289 H315 0.930 . S
C290 O304 1.275 . S
C290 O305 1.256 . S
C291 O306 1.259 . S
C291 O307 1.268 . S
C292 Ho281 2.811 . S
C292 C293 1.488 . S
C292 O308 1.215 . S
C292 O309 1.289 . S
C293 C292 1.488 . S
C293 C294 1.348 . S
C293 C298 1.413 . S
C294 C293 1.348 . S
C294 C295 1.442 . S
C294 H316 0.930 . S
C295 C294 1.442 . S
C295 C296 1.381 . S
C295 H317 0.931 . S
C296 C295 1.381 . S
C296 C297 1.321 . S
C297 C296 1.321 . S
C297 C298 1.403 . S
C297 H318 0.934 . S
C298 C293 1.413 . S
C298 C297 1.403 . S
C298 H319 0.930 . S
C299 O310 1.275 . S
C299 O311 1.256 . S
O300 Ho280 2.322 . S
O300 C282 1.259 . S
O301 Ho281 2.346 . S
O301 C282 1.268 . S
O302 Ho280 2.378 . S
O302 C283 1.215 . S
O303 Ho280 2.524 . S
O303 C283 1.289 . S
O304 Ho280 2.381 . S
O304 C290 1.275 . S
O305 Ho280 2.669 . S
O305 Ho281 2.305 . S
O305 C290 1.256 . S
O306 Ho281 2.322 . S
O306 C291 1.259 . S
O307 Ho280 2.346 . S
O307 C291 1.268 . S
O308 Ho281 2.378 . S
O308 C292 1.215 . S
O309 Ho281 2.524 . S
O309 C292 1.289 . S
O310 Ho281 2.381 . S
O310 C299 1.275 . S
O311 Ho280 2.305 . S
O311 Ho281 2.669 . S
O311 C299 1.256 . S
H312 C285 0.930 . S
H313 C286 0.931 . S
H314 C288 0.934 . S
H315 C289 0.930 . S
H316 C294 0.930 . S
H317 C295 0.931 . S
H318 C297 0.934 . S
H319 C298 0.930 . S
Ho320 C323 2.811 . S
Ho320 O340 2.322 . S
Ho320 O342 2.378 . S
Ho320 O343 2.524 . S
Ho320 O344 2.381 1_554 S
Ho320 O345 2.669 1_554 S
Ho320 O347 2.346 1_554 S
Ho320 O351 2.305 . S
Ho321 C332 2.811 . S
Ho321 O341 2.346 1_556 S
Ho321 O345 2.305 . S
Ho321 O346 2.322 . S
Ho321 O348 2.378 . S
Ho321 O349 2.524 . S
Ho321 O350 2.381 1_556 S
Ho321 O351 2.669 1_556 S
C322 O340 1.259 . S
C322 O341 1.268 . S
C323 Ho320 2.811 . S
C323 C324 1.488 . S
C323 O342 1.215 . S
C323 O343 1.289 . S
C324 C323 1.488 . S
C324 C325 1.348 . S
C324 C329 1.413 . S
C325 C324 1.348 . S
C325 C326 1.442 . S
C325 H352 0.930 . S
C326 C325 1.442 . S
C326 C327 1.381 . S
C326 H353 0.931 . S
C327 C326 1.381 . S
C327 C328 1.321 . S
C328 C327 1.321 . S
C328 C329 1.403 . S
C328 H354 0.934 . S
C329 C324 1.413 . S
C329 C328 1.403 . S
C329 H355 0.930 . S
C330 O344 1.275 . S
C330 O345 1.256 . S
C331 O346 1.259 . S
C331 O347 1.268 . S
C332 Ho321 2.811 . S
C332 C333 1.488 . S
C332 O348 1.215 . S
C332 O349 1.289 . S
C333 C332 1.488 . S
C333 C334 1.348 . S
C333 C338 1.413 . S
C334 C333 1.348 . S
C334 C335 1.442 . S
C334 H356 0.930 . S
C335 C334 1.442 . S
C335 C336 1.381 . S
C335 H357 0.931 . S
C336 C335 1.381 . S
C336 C337 1.321 . S
C337 C336 1.321 . S
C337 C338 1.403 . S
C337 H358 0.934 . S
C338 C333 1.413 . S
C338 C337 1.403 . S
C338 H359 0.930 . S
C339 O350 1.275 . S
C339 O351 1.256 . S
O340 Ho320 2.322 . S
O340 C322 1.259 . S
O341 Ho321 2.346 1_554 S
O341 C322 1.268 . S
O342 Ho320 2.378 . S
O342 C323 1.215 . S
O343 Ho320 2.524 . S
O343 C323 1.289 . S
O344 Ho320 2.381 1_556 S
O344 C330 1.275 . S
O345 Ho320 2.669 1_556 S
O345 Ho321 2.305 . S
O345 C330 1.256 . S
O346 Ho321 2.322 . S
O346 C331 1.259 . S
O347 Ho320 2.346 1_556 S
O347 C331 1.268 . S
O348 Ho321 2.378 . S
O348 C332 1.215 . S
O349 Ho321 2.524 . S
O349 C332 1.289 . S
O350 Ho321 2.381 1_554 S
O350 C339 1.275 . S
O351 Ho320 2.305 . S
O351 Ho321 2.669 1_554 S
O351 C339 1.256 . S
H352 C325 0.930 . S
H353 C326 0.931 . S
H354 C328 0.934 . S
H355 C329 0.930 . S
H356 C334 0.930 . S
H357 C335 0.931 . S
H358 C337 0.934 . S
H359 C338 0.930 . S
Ho360 C363 2.811 . S
Ho360 O380 2.322 . S
Ho360 O382 2.378 . S
Ho360 O383 2.524 . S
Ho360 O384 2.381 . S
Ho360 O385 2.669 . S
Ho360 O387 2.346 . S
Ho360 O391 2.305 . S
Ho361 C372 2.811 . S
Ho361 O381 2.346 . S
Ho361 O385 2.305 . S
Ho361 O386 2.322 . S
Ho361 O388 2.378 . S
Ho361 O389 2.524 . S
Ho361 O390 2.381 . S
Ho361 O391 2.669 . S
C362 O380 1.259 . S
C362 O381 1.268 . S
C363 Ho360 2.811 . S
C363 C364 1.488 . S
C363 O382 1.215 . S
C363 O383 1.289 . S
C364 C363 1.488 . S
C364 C365 1.348 . S
C364 C369 1.413 . S
C365 C364 1.348 . S
C365 C366 1.442 . S
C365 H392 0.930 . S
C366 C365 1.442 . S
C366 C367 1.381 . S
C366 H393 0.931 . S
C367 C366 1.381 . S
C367 C368 1.321 . S
C368 C367 1.321 . S
C368 C369 1.403 . S
C368 H394 0.934 . S
C369 C364 1.413 . S
C369 C368 1.403 . S
C369 H395 0.930 . S
C370 O384 1.275 . S
C370 O385 1.256 . S
C371 O386 1.259 . S
C371 O387 1.268 . S
C372 Ho361 2.811 . S
C372 C373 1.488 . S
C372 O388 1.215 . S
C372 O389 1.289 . S
C373 C372 1.488 . S
C373 C374 1.348 . S
C373 C378 1.413 . S
C374 C373 1.348 . S
C374 C375 1.442 . S
C374 H396 0.930 . S
C375 C374 1.442 . S
C375 C376 1.381 . S
C375 H397 0.931 . S
C376 C375 1.381 . S
C376 C377 1.321 . S
C377 C376 1.321 . S
C377 C378 1.403 . S
C377 H398 0.934 . S
C378 C373 1.413 . S
C378 C377 1.403 . S
C378 H399 0.930 . S
C379 O390 1.275 . S
C379 O391 1.256 . S
O380 Ho360 2.322 . S
O380 C362 1.259 . S
O381 Ho361 2.346 . S
O381 C362 1.268 . S
O382 Ho360 2.378 . S
O382 C363 1.215 . S
O383 Ho360 2.524 . S
O383 C363 1.289 . S
O384 Ho360 2.381 . S
O384 C370 1.275 . S
O385 Ho360 2.669 . S
O385 Ho361 2.305 . S
O385 C370 1.256 . S
O386 Ho361 2.322 . S
O386 C371 1.259 . S
O387 Ho360 2.346 . S
O387 C371 1.268 . S
O388 Ho361 2.378 . S
O388 C372 1.215 . S
O389 Ho361 2.524 . S
O389 C372 1.289 . S
O390 Ho361 2.381 . S
O390 C379 1.275 . S
O391 Ho360 2.305 . S
O391 Ho361 2.669 . S
O391 C379 1.256 . S
H392 C365 0.930 . S
H393 C366 0.931 . S
H394 C368 0.934 . S
H395 C369 0.930 . S
H396 C374 0.930 . S
H397 C375 0.931 . S
H398 C377 0.934 . S
H399 C378 0.930 . S
Ho400 C403 2.811 . S
Ho400 O420 2.322 . S
Ho400 O422 2.378 . S
Ho400 O423 2.524 . S
Ho400 O424 2.381 . S
Ho400 O425 2.669 . S
Ho400 O427 2.346 1_455 S
Ho400 O431 2.305 1_455 S
Ho401 C412 2.811 . S
Ho401 O421 2.346 1_655 S
Ho401 O425 2.305 1_655 S
Ho401 O426 2.322 . S
Ho401 O428 2.378 . S
Ho401 O429 2.524 . S
Ho401 O430 2.381 . S
Ho401 O431 2.669 . S
C402 O420 1.259 . S
C402 O421 1.268 . S
C403 Ho400 2.811 . S
C403 C404 1.488 . S
C403 O422 1.215 . S
C403 O423 1.289 . S
C404 C403 1.488 . S
C404 C405 1.348 . S
C404 C409 1.413 . S
C405 C404 1.348 . S
C405 C406 1.442 . S
C405 H432 0.930 . S
C406 C405 1.442 . S
C406 C407 1.381 . S
C406 H433 0.931 . S
C407 C406 1.381 . S
C407 C408 1.321 . S
C408 C407 1.321 . S
C408 C409 1.403 . S
C408 H434 0.934 . S
C409 C404 1.413 . S
C409 C408 1.403 . S
C409 H435 0.930 . S
C410 O424 1.275 . S
C410 O425 1.256 . S
C411 O426 1.259 . S
C411 O427 1.268 . S
C412 Ho401 2.811 . S
C412 C413 1.488 . S
C412 O428 1.215 . S
C412 O429 1.289 . S
C413 C412 1.488 . S
C413 C414 1.348 . S
C413 C418 1.413 . S
C414 C413 1.348 . S
C414 C415 1.442 . S
C414 H436 0.930 . S
C415 C414 1.442 . S
C415 C416 1.381 . S
C415 H437 0.931 . S
C416 C415 1.381 . S
C416 C417 1.321 . S
C417 C416 1.321 . S
C417 C418 1.403 . S
C417 H438 0.934 . S
C418 C413 1.413 . S
C418 C417 1.403 . S
C418 H439 0.930 . S
C419 O430 1.275 . S
C419 O431 1.256 . S
O420 Ho400 2.322 . S
O420 C402 1.259 . S
O421 Ho401 2.346 1_455 S
O421 C402 1.268 . S
O422 Ho400 2.378 . S
O422 C403 1.215 . S
O423 Ho400 2.524 . S
O423 C403 1.289 . S
O424 Ho400 2.381 . S
O424 C410 1.275 . S
O425 Ho400 2.669 . S
O425 Ho401 2.305 1_455 S
O425 C410 1.256 . S
O426 Ho401 2.322 . S
O426 C411 1.259 . S
O427 Ho400 2.346 1_655 S
O427 C411 1.268 . S
O428 Ho401 2.378 . S
O428 C412 1.215 . S
O429 Ho401 2.524 . S
O429 C412 1.289 . S
O430 Ho401 2.381 . S
O430 C419 1.275 . S
O431 Ho400 2.305 1_655 S
O431 Ho401 2.669 . S
O431 C419 1.256 . S
H432 C405 0.930 . S
H433 C406 0.931 . S
H434 C408 0.934 . S
H435 C409 0.930 . S
H436 C414 0.930 . S
H437 C415 0.931 . S
H438 C417 0.934 . S
H439 C418 0.930 . S
Ho440 C443 2.811 . S
Ho440 O460 2.322 . S
Ho440 O462 2.378 . S
Ho440 O463 2.524 . S
Ho440 O464 2.381 . S
Ho440 O465 2.669 . S
Ho440 O467 2.346 . S
Ho440 O471 2.305 . S
Ho441 C452 2.811 . S
Ho441 O461 2.346 . S
Ho441 O465 2.305 . S
Ho441 O466 2.322 . S
Ho441 O468 2.378 . S
Ho441 O469 2.524 . S
Ho441 O470 2.381 . S
Ho441 O471 2.669 . S
C442 O460 1.259 . S
C442 O461 1.268 . S
C443 Ho440 2.811 . S
C443 C444 1.488 . S
C443 O462 1.215 . S
C443 O463 1.289 . S
C444 C443 1.488 . S
C444 C445 1.348 . S
C444 C449 1.413 . S
C445 C444 1.348 . S
C445 C446 1.442 . S
C445 H472 0.930 . S
C446 C445 1.442 . S
C446 C447 1.381 . S
C446 H473 0.931 . S
C447 C446 1.381 . S
C447 C448 1.321 . S
C448 C447 1.321 . S
C448 C449 1.403 . S
C448 H474 0.934 . S
C449 C444 1.413 . S
C449 C448 1.403 . S
C449 H475 0.930 . S
C450 O464 1.275 . S
C450 O465 1.256 . S
C451 O466 1.259 . S
C451 O467 1.268 . S
C452 Ho441 2.811 . S
C452 C453 1.488 . S
C452 O468 1.215 . S
C452 O469 1.289 . S
C453 C452 1.488 . S
C453 C454 1.348 . S
C453 C458 1.413 . S
C454 C453 1.348 . S
C454 C455 1.442 . S
C454 H476 0.930 . S
C455 C454 1.442 . S
C455 C456 1.381 . S
C455 H477 0.931 . S
C456 C455 1.381 . S
C456 C457 1.321 . S
C457 C456 1.321 . S
C457 C458 1.403 . S
C457 H478 0.934 . S
C458 C453 1.413 . S
C458 C457 1.403 . S
C458 H479 0.930 . S
C459 O470 1.275 . S
C459 O471 1.256 . S
O460 Ho440 2.322 . S
O460 C442 1.259 . S
O461 Ho441 2.346 . S
O461 C442 1.268 . S
O462 Ho440 2.378 . S
O462 C443 1.215 . S
O463 Ho440 2.524 . S
O463 C443 1.289 . S
O464 Ho440 2.381 . S
O464 C450 1.275 . S
O465 Ho440 2.669 . S
O465 Ho441 2.305 . S
O465 C450 1.256 . S
O466 Ho441 2.322 . S
O466 C451 1.259 . S
O467 Ho440 2.346 . S
O467 C451 1.268 . S
O468 Ho441 2.378 . S
O468 C452 1.215 . S
O469 Ho441 2.524 . S
O469 C452 1.289 . S
O470 Ho441 2.381 . S
O470 C459 1.275 . S
O471 Ho440 2.305 . S
O471 Ho441 2.669 . S
O471 C459 1.256 . S
H472 C445 0.930 . S
H473 C446 0.931 . S
H474 C448 0.934 . S
H475 C449 0.930 . S
H476 C454 0.930 . S
H477 C455 0.931 . S
H478 C457 0.934 . S
H479 C458 0.930 . S
Ho480 C483 2.811 . S
Ho480 O500 2.322 . S
Ho480 O502 2.378 . S
Ho480 O503 2.524 . S
Ho480 O504 2.381 . S
Ho480 O505 2.669 . S
Ho480 O507 2.346 . S
Ho480 O511 2.305 . S
Ho481 C492 2.811 . S
Ho481 O501 2.346 . S
Ho481 O505 2.305 . S
Ho481 O506 2.322 . S
Ho481 O508 2.378 . S
Ho481 O509 2.524 . S
Ho481 O510 2.381 . S
Ho481 O511 2.669 . S
C482 O500 1.259 . S
C482 O501 1.268 . S
C483 Ho480 2.811 . S
C483 C484 1.488 . S
C483 O502 1.215 . S
C483 O503 1.289 . S
C484 C483 1.488 . S
C484 C485 1.348 . S
C484 C489 1.413 . S
C485 C484 1.348 . S
C485 C486 1.442 . S
C485 H512 0.930 . S
C486 C485 1.442 . S
C486 C487 1.381 . S
C486 H513 0.931 1_556 S
C487 C486 1.381 . S
C487 C488 1.321 . S
C488 C487 1.321 . S
C488 C489 1.403 . S
C488 H514 0.934 . S
C489 C484 1.413 . S
C489 C488 1.403 . S
C489 H515 0.930 . S
C490 O504 1.275 . S
C490 O505 1.256 . S
C491 O506 1.259 . S
C491 O507 1.268 . S
C492 Ho481 2.811 . S
C492 C493 1.488 . S
C492 O508 1.215 . S
C492 O509 1.289 . S
C493 C492 1.488 . S
C493 C494 1.348 . S
C493 C498 1.413 . S
C494 C493 1.348 . S
C494 C495 1.442 . S
C494 H516 0.930 . S
C495 C494 1.442 . S
C495 C496 1.381 . S
C495 H517 0.931 . S
C496 C495 1.381 . S
C496 C497 1.321 . S
C497 C496 1.321 . S
C497 C498 1.403 . S
C497 H518 0.934 . S
C498 C493 1.413 . S
C498 C497 1.403 . S
C498 H519 0.930 . S
C499 O510 1.275 . S
C499 O511 1.256 . S
O500 Ho480 2.322 . S
O500 C482 1.259 . S
O501 Ho481 2.346 . S
O501 C482 1.268 . S
O502 Ho480 2.378 . S
O502 C483 1.215 . S
O503 Ho480 2.524 . S
O503 C483 1.289 . S
O504 Ho480 2.381 . S
O504 C490 1.275 . S
O505 Ho480 2.669 . S
O505 Ho481 2.305 . S
O505 C490 1.256 . S
O506 Ho481 2.322 . S
O506 C491 1.259 . S
O507 Ho480 2.346 . S
O507 C491 1.268 . S
O508 Ho481 2.378 . S
O508 C492 1.215 . S
O509 Ho481 2.524 . S
O509 C492 1.289 . S
O510 Ho481 2.381 . S
O510 C499 1.275 . S
O511 Ho480 2.305 . S
O511 Ho481 2.669 . S
O511 C499 1.256 . S
H512 C485 0.930 . S
H513 C486 0.931 1_554 S
H514 C488 0.934 . S
H515 C489 0.930 . S
H516 C494 0.930 . S
H517 C495 0.931 . S
H518 C497 0.934 . S
H519 C498 0.930 . S
Ho520 C523 2.811 . S
Ho520 O540 2.322 . S
Ho520 O542 2.378 . S
Ho520 O543 2.524 . S
Ho520 O544 2.381 . S
Ho520 O545 2.669 . S
Ho520 O547 2.346 . S
Ho520 O551 2.305 . S
Ho521 C532 2.811 . S
Ho521 O541 2.346 . S
Ho521 O545 2.305 . S
Ho521 O546 2.322 . S
Ho521 O548 2.378 . S
Ho521 O549 2.524 . S
Ho521 O550 2.381 . S
Ho521 O551 2.669 . S
C522 O540 1.259 . S
C522 O541 1.268 . S
C523 Ho520 2.811 . S
C523 C524 1.488 . S
C523 O542 1.215 . S
C523 O543 1.289 . S
C524 C523 1.488 . S
C524 C525 1.348 . S
C524 C529 1.413 . S
C525 C524 1.348 . S
C525 C526 1.442 . S
C525 H552 0.930 . S
C526 C525 1.442 . S
C526 C527 1.381 . S
C526 H553 0.931 . S
C527 C526 1.381 . S
C527 C528 1.321 . S
C528 C527 1.321 . S
C528 C529 1.403 . S
C528 H554 0.934 . S
C529 C524 1.413 . S
C529 C528 1.403 . S
C529 H555 0.930 . S
C530 O544 1.275 . S
C530 O545 1.256 . S
C531 O546 1.259 . S
C531 O547 1.268 . S
C532 Ho521 2.811 . S
C532 C533 1.488 . S
C532 O548 1.215 . S
C532 O549 1.289 . S
C533 C532 1.488 . S
C533 C534 1.348 . S
C533 C538 1.413 . S
C534 C533 1.348 . S
C534 C535 1.442 . S
C534 H556 0.930 . S
C535 C534 1.442 . S
C535 C536 1.381 . S
C535 H557 0.931 . S
C536 C535 1.381 . S
C536 C537 1.321 . S
C537 C536 1.321 . S
C537 C538 1.403 . S
C537 H558 0.934 . S
C538 C533 1.413 . S
C538 C537 1.403 . S
C538 H559 0.930 . S
C539 O550 1.275 . S
C539 O551 1.256 . S
O540 Ho520 2.322 . S
O540 C522 1.259 . S
O541 Ho521 2.346 . S
O541 C522 1.268 . S
O542 Ho520 2.378 . S
O542 C523 1.215 . S
O543 Ho520 2.524 . S
O543 C523 1.289 . S
O544 Ho520 2.381 . S
O544 C530 1.275 . S
O545 Ho520 2.669 . S
O545 Ho521 2.305 . S
O545 C530 1.256 . S
O546 Ho521 2.322 . S
O546 C531 1.259 . S
O547 Ho520 2.346 . S
O547 C531 1.268 . S
O548 Ho521 2.378 . S
O548 C532 1.215 . S
O549 Ho521 2.524 . S
O549 C532 1.289 . S
O550 Ho521 2.381 . S
O550 C539 1.275 . S
O551 Ho520 2.305 . S
O551 Ho521 2.669 . S
O551 C539 1.256 . S
H552 C525 0.930 . S
H553 C526 0.931 . S
H554 C528 0.934 . S
H555 C529 0.930 . S
H556 C534 0.930 . S
H557 C535 0.931 . S
H558 C537 0.934 . S
H559 C538 0.930 . S
Ho560 C563 2.811 . S
Ho560 O580 2.322 . S
Ho560 O582 2.378 . S
Ho560 O583 2.524 . S
Ho560 O584 2.381 . S
Ho560 O585 2.669 . S
Ho560 O587 2.346 . S
Ho560 O591 2.305 . S
Ho561 C572 2.811 . S
Ho561 O581 2.346 . S
Ho561 O585 2.305 . S
Ho561 O586 2.322 . S
Ho561 O588 2.378 . S
Ho561 O589 2.524 . S
Ho561 O590 2.381 . S
Ho561 O591 2.669 . S
C562 O580 1.259 . S
C562 O581 1.268 . S
C563 Ho560 2.811 . S
C563 C564 1.488 . S
C563 O582 1.215 . S
C563 O583 1.289 . S
C564 C563 1.488 . S
C564 C565 1.348 . S
C564 C569 1.413 . S
C565 C564 1.348 . S
C565 C566 1.442 . S
C565 H592 0.930 . S
C566 C565 1.442 . S
C566 C567 1.381 . S
C566 H593 0.931 . S
C567 C566 1.381 . S
C567 C568 1.321 . S
C568 C567 1.321 . S
C568 C569 1.403 . S
C568 H594 0.934 . S
C569 C564 1.413 . S
C569 C568 1.403 . S
C569 H595 0.930 . S
C570 O584 1.275 . S
C570 O585 1.256 . S
C571 O586 1.259 . S
C571 O587 1.268 . S
C572 Ho561 2.811 . S
C572 C573 1.488 . S
C572 O588 1.215 . S
C572 O589 1.289 . S
C573 C572 1.488 . S
C573 C574 1.348 . S
C573 C578 1.413 . S
C574 C573 1.348 . S
C574 C575 1.442 . S
C574 H596 0.930 . S
C575 C574 1.442 . S
C575 C576 1.381 . S
C575 H597 0.931 . S
C576 C575 1.381 . S
C576 C577 1.321 . S
C577 C576 1.321 . S
C577 C578 1.403 . S
C577 H598 0.934 . S
C578 C573 1.413 . S
C578 C577 1.403 . S
C578 H599 0.930 . S
C579 O590 1.275 . S
C579 O591 1.256 . S
O580 Ho560 2.322 . S
O580 C562 1.259 . S
O581 Ho561 2.346 . S
O581 C562 1.268 . S
O582 Ho560 2.378 . S
O582 C563 1.215 . S
O583 Ho560 2.524 . S
O583 C563 1.289 . S
O584 Ho560 2.381 . S
O584 C570 1.275 . S
O585 Ho560 2.669 . S
O585 Ho561 2.305 . S
O585 C570 1.256 . S
O586 Ho561 2.322 . S
O586 C571 1.259 . S
O587 Ho560 2.346 . S
O587 C571 1.268 . S
O588 Ho561 2.378 . S
O588 C572 1.215 . S
O589 Ho561 2.524 . S
O589 C572 1.289 . S
O590 Ho561 2.381 . S
O590 C579 1.275 . S
O591 Ho560 2.305 . S
O591 Ho561 2.669 . S
O591 C579 1.256 . S
H592 C565 0.930 . S
H593 C566 0.931 . S
H594 C568 0.934 . S
H595 C569 0.930 . S
H596 C574 0.930 . S
H597 C575 0.931 . S
H598 C577 0.934 . S
H599 C578 0.930 . S
Ho600 C603 2.811 . S
Ho600 O620 2.322 1_554 S
Ho600 O622 2.378 . S
Ho600 O623 2.524 . S
Ho600 O624 2.381 1_554 S
Ho600 O625 2.669 1_554 S
Ho600 O627 2.326 1_655 S
Ho600 O631 2.305 1_655 S
Ho601 C612 2.811 . S
Ho601 O621 2.346 1_455 S
Ho601 O625 2.305 1_455 S
Ho601 O626 2.322 1_556 S
Ho601 O628 2.378 . S
Ho601 O629 2.524 . S
Ho601 O630 2.381 1_556 S
Ho601 O631 2.669 1_556 S
C602 O620 1.259 . S
C602 O621 1.267 . S
C603 Ho600 2.811 . S
C603 C604 1.488 . S
C603 O622 1.215 . S
C603 O623 1.289 . S
C604 C603 1.488 . S
C604 C605 1.348 . S
C604 C609 1.413 . S
C605 C604 1.348 . S
C605 C606 1.442 . S
C605 H632 0.930 . S
C606 C605 1.442 . S
C606 C607 1.381 . S
C606 H633 0.931 . S
C607 C606 1.381 . S
C607 C608 1.321 . S
C608 C607 1.321 . S
C608 C609 1.403 . S
C608 H634 0.934 . S
C609 C604 1.413 . S
C609 C608 1.403 . S
C609 H635 0.930 . S
C610 O624 1.275 . S
C610 O625 1.256 . S
C611 O626 1.259 . S
C611 O627 1.288 . S
C612 Ho601 2.811 . S
C612 C613 1.488 . S
C612 O628 1.215 . S
C612 O629 1.289 . S
C613 C612 1.488 . S
C613 C614 1.348 . S
C613 C618 1.413 . S
C614 C613 1.348 . S
C614 C615 1.442 . S
C614 H636 0.930 . S
C615 C614 1.442 . S
C615 C616 1.381 . S
C615 H637 0.931 . S
C616 C615 1.381 . S
C616 C617 1.321 . S
C617 C616 1.321 . S
C617 C618 1.403 . S
C617 H638 0.934 . S
C618 C613 1.413 . S
C618 C617 1.403 . S
C618 H639 0.930 . S
C619 O630 1.275 . S
C619 O631 1.256 . S
O620 Ho600 2.322 1_556 S
O620 C602 1.259 . S
O621 Ho601 2.346 1_655 S
O621 C602 1.267 . S
O622 Ho600 2.378 . S
O622 C603 1.215 . S
O623 Ho600 2.524 . S
O623 C603 1.289 . S
O624 Ho600 2.381 1_556 S
O624 C610 1.275 . S
O625 Ho600 2.669 1_556 S
O625 Ho601 2.305 1_655 S
O625 C610 1.256 . S
O626 Ho601 2.322 1_554 S
O626 C611 1.259 . S
O627 Ho600 2.326 1_455 S
O627 C611 1.288 . S
O628 Ho601 2.378 . S
O628 C612 1.215 . S
O629 Ho601 2.524 . S
O629 C612 1.289 . S
O630 Ho601 2.381 1_554 S
O630 C619 1.275 . S
O631 Ho600 2.305 1_455 S
O631 Ho601 2.669 1_554 S
O631 C619 1.256 . S
H632 C605 0.930 . S
H633 C606 0.931 . S
H634 C608 0.934 . S
H635 C609 0.930 . S
H636 C614 0.930 . S
H637 C615 0.931 . S
H638 C617 0.934 . S
H639 C618 0.930 . S
C640 C641 1.387 . S
C640 H644 0.950 . S
C640 C649 1.390 . S
C641 C640 1.387 . S
C641 C643 1.387 . S
H642 C649 0.950 . S
C643 C641 1.387 . S
C643 C645 1.390 . S
C643 H647 0.950 . S
H644 C640 0.950 . S
C645 C643 1.390 . S
C645 C646 1.387 . S
C645 H648 0.950 . S
C646 C645 1.387 . S
C646 C649 1.387 . S
H647 C643 0.950 . S
H648 C645 0.950 . S
C649 C640 1.390 . S
C649 H642 0.950 . S
C649 C646 1.387 . S
C650 C651 1.387 . S
C650 H654 0.950 . S
C650 C659 1.390 . S
C651 C650 1.387 . S
C651 C653 1.387 . S
H652 C659 0.950 . S
C653 C651 1.387 . S
C653 C655 1.390 1_554 S
C653 H657 0.950 1_554 S
H654 C650 0.950 . S
C655 C653 1.390 1_556 S
C655 C656 1.387 1_556 S
C655 H658 0.950 . S
C656 C655 1.387 1_554 S
C656 C659 1.387 . S
H657 C653 0.950 1_556 S
H658 C655 0.950 . S
C659 C650 1.390 . S
C659 H652 0.950 . S
C659 C656 1.387 . S
C660 C661 1.387 . S
C660 H664 0.950 . S
C660 C669 1.390 . S
C661 C660 1.387 . S
C661 C663 1.387 . S
H662 C669 0.950 . S
C663 C661 1.387 . S
C663 C665 1.390 . S
C663 H667 0.950 . S
H664 C660 0.950 . S
C665 C663 1.390 . S
C665 C666 1.387 . S
C665 H668 0.950 . S
C666 C665 1.387 . S
C666 C669 1.387 . S
H667 C663 0.950 . S
H668 C665 0.950 . S
C669 C660 1.390 . S
C669 H662 0.950 . S
C669 C666 1.387 . S
C670 C671 1.387 . S
C670 H674 0.950 . S
C670 C679 1.390 . S
C671 C670 1.387 . S
C671 C673 1.387 . S
H672 C679 0.950 . S
C673 C671 1.387 . S
C673 C675 1.390 . S
C673 H677 0.950 . S
H674 C670 0.950 . S
C675 C673 1.390 . S
C675 C676 1.387 . S
C675 H678 0.950 . S
C676 C675 1.387 . S
C676 C679 1.387 . S
H677 C673 0.950 . S
H678 C675 0.950 . S
C679 C670 1.390 . S
C679 H672 0.950 . S
C679 C676 1.387 . S
C680 C681 1.387 . S
C680 H684 0.950 . S
C680 C689 1.390 . S
C681 C680 1.387 . S
C681 C683 1.387 . S
H682 C689 0.950 . S
C683 C681 1.387 . S
C683 C685 1.390 . S
C683 H687 0.950 . S
H684 C680 0.950 . S
C685 C683 1.390 . S
C685 C686 1.387 . S
C685 H688 0.950 . S
C686 C685 1.387 . S
C686 C689 1.387 . S
H687 C683 0.950 . S
H688 C685 0.950 . S
C689 C680 1.390 . S
C689 H682 0.950 . S
C689 C686 1.387 . S
C690 C691 1.387 . S
C690 H694 0.950 . S
C690 C699 1.390 . S
C691 C690 1.387 . S
C691 C693 1.387 . S
H692 C699 0.950 . S
C693 C691 1.387 . S
C693 C695 1.390 . S
C693 H697 0.950 . S
H694 C690 0.950 . S
C695 C693 1.390 . S
C695 C696 1.387 . S
C695 H698 0.950 . S
C696 C695 1.387 . S
C696 C699 1.387 . S
H697 C693 0.950 . S
H698 C695 0.950 . S
C699 C690 1.390 . S
C699 H692 0.950 . S
C699 C696 1.387 . S
C700 C701 1.387 . S
C700 H704 0.950 1_545 S
C700 C709 1.390 . S
C701 C700 1.387 . S
C701 C703 1.387 . S
H702 C709 0.950 1_565 S
C703 C701 1.387 . S
C703 C705 1.390 . S
C703 H707 0.950 . S
H704 C700 0.950 1_565 S
C705 C703 1.390 . S
C705 C706 1.387 . S
C705 H708 0.950 . S
C706 C705 1.387 . S
C706 C709 1.387 . S
H707 C703 0.950 . S
H708 C705 0.950 . S
C709 C700 1.390 . S
C709 H702 0.950 1_545 S
C709 C706 1.387 . S
C710 C711 1.387 . S
C710 H714 0.950 . S
C710 C719 1.390 . S
C711 C710 1.387 . S
C711 C713 1.387 . S
H712 C719 0.950 . S
C713 C711 1.387 . S
C713 C715 1.390 . S
C713 H717 0.950 . S
H714 C710 0.950 . S
C715 C713 1.390 . S
C715 C716 1.387 . S
C715 H718 0.950 . S
C716 C715 1.387 . S
C716 C719 1.387 . S
H717 C713 0.950 . S
H718 C715 0.950 . S
C719 C710 1.390 . S
C719 H712 0.950 . S
C719 C716 1.387 . S
C720 C721 1.387 . S
C720 H724 0.950 . S
C720 C729 1.390 . S
C721 C720 1.387 . S
C721 C723 1.387 . S
H722 C729 0.950 . S
C723 C721 1.387 . S
C723 C725 1.390 . S
C723 H727 0.950 . S
H724 C720 0.950 . S
C725 C723 1.390 . S
C725 C726 1.387 . S
C725 H728 0.950 . S
C726 C725 1.387 . S
C726 C729 1.387 . S
H727 C723 0.950 . S
H728 C725 0.950 . S
C729 C720 1.390 . S
C729 H722 0.950 . S
C729 C726 1.387 . S
C730 C731 1.387 . S
C730 H734 0.950 . S
C730 C739 1.390 . S
C731 C730 1.387 . S
C731 C733 1.387 . S
H732 C739 0.950 . S
C733 C731 1.387 . S
C733 C735 1.390 . S
C733 H737 0.950 . S
H734 C730 0.950 . S
C735 C733 1.390 . S
C735 C736 1.387 . S
C735 H738 0.950 . S
C736 C735 1.387 . S
C736 C739 1.387 . S
H737 C733 0.950 . S
H738 C735 0.950 . S
C739 C730 1.390 . S
C739 H732 0.950 . S
C739 C736 1.387 . S
C740 C741 1.387 . S
C740 H744 0.950 . S
C740 C749 1.390 . S
C741 C740 1.387 . S
C741 C743 1.387 . S
H742 C749 0.950 . S
C743 C741 1.387 . S
C743 C745 1.390 . S
C743 H747 0.950 . S
H744 C740 0.950 . S
C745 C743 1.390 . S
C745 C746 1.387 . S
C745 H748 0.950 . S
C746 C745 1.387 . S
C746 C749 1.387 . S
H747 C743 0.950 . S
H748 C745 0.950 . S
C749 C740 1.390 . S
C749 H742 0.950 . S
C749 C746 1.387 . S
C750 C751 1.387 . S
C750 H754 0.950 . S
C750 C759 1.390 . S
C751 C750 1.387 . S
C751 C753 1.387 . S
H752 C759 0.950 . S
C753 C751 1.387 . S
C753 C755 1.390 . S
C753 H757 0.950 . S
H754 C750 0.950 . S
C755 C753 1.390 . S
C755 C756 1.387 . S
C755 H758 0.950 . S
C756 C755 1.387 . S
C756 C759 1.387 . S
H757 C753 0.950 . S
H758 C755 0.950 . S
C759 C750 1.390 . S
C759 H752 0.950 . S
C759 C756 1.387 . S
C760 C761 1.387 . S
C760 H764 0.950 . S
C760 C769 1.390 . S
C761 C760 1.387 . S
C761 C763 1.387 . S
H762 C769 0.950 . S
C763 C761 1.387 . S
C763 C765 1.390 . S
C763 H767 0.950 . S
H764 C760 0.950 . S
C765 C763 1.390 . S
C765 C766 1.387 . S
C765 H768 0.950 . S
C766 C765 1.387 . S
C766 C769 1.387 . S
H767 C763 0.950 . S
H768 C765 0.950 . S
C769 C760 1.390 . S
C769 H762 0.950 . S
C769 C766 1.387 . S
C770 C771 1.387 . S
C770 H774 0.950 . S
C770 C779 1.390 . S
C771 C770 1.387 . S
C771 C773 1.387 . S
H772 C779 0.950 . S
C773 C771 1.387 . S
C773 C775 1.390 . S
C773 H777 0.950 . S
H774 C770 0.950 . S
C775 C773 1.390 . S
C775 C776 1.387 . S
C775 H778 0.950 . S
C776 C775 1.387 . S
C776 C779 1.387 . S
H777 C773 0.950 . S
H778 C775 0.950 . S
C779 C770 1.390 . S
C779 H772 0.950 . S
C779 C776 1.387 . S
C780 C781 1.387 . S
C780 H784 0.950 . S
C780 C789 1.390 . S
C781 C780 1.387 . S
C781 C783 1.387 . S
H782 C789 0.950 . S
C783 C781 1.387 . S
C783 C785 1.390 . S
C783 H787 0.950 . S
H784 C780 0.950 . S
C785 C783 1.390 . S
C785 C786 1.387 . S
C785 H788 0.950 . S
C786 C785 1.387 . S
C786 C789 1.387 . S
H787 C783 0.950 . S
H788 C785 0.950 . S
C789 C780 1.390 . S
C789 H782 0.950 . S
C789 C786 1.387 . S
C790 C791 1.387 . S
C790 H794 0.950 . S
C790 C799 1.390 . S
C791 C790 1.387 . S
C791 C793 1.387 . S
H792 C799 0.950 . S
C793 C791 1.387 . S
C793 C795 1.390 . S
C793 H797 0.950 . S
H794 C790 0.950 . S
C795 C793 1.390 . S
C795 C796 1.387 . S
C795 H798 0.950 . S
C796 C795 1.387 . S
C796 C799 1.387 . S
H797 C793 0.950 . S
H798 C795 0.950 . S
C799 C790 1.390 . S
C799 H792 0.950 . S
C799 C796 1.387 . S
C800 C801 1.387 . S
C800 H804 0.950 . S
C800 C809 1.390 . S
C801 C800 1.387 . S
C801 C803 1.387 . S
H802 C809 0.950 . S
C803 C801 1.387 . S
C803 C805 1.390 . S
C803 H807 0.950 . S
H804 C800 0.950 . S
C805 C803 1.390 . S
C805 C806 1.387 . S
C805 H808 0.950 . S
C806 C805 1.387 . S
C806 C809 1.387 . S
H807 C803 0.950 . S
H808 C805 0.950 . S
C809 C800 1.390 . S
C809 H802 0.950 . S
C809 C806 1.387 . S
C810 C811 1.387 . S
C810 H814 0.950 . S
C810 C819 1.390 . S
C811 C810 1.387 . S
C811 C813 1.387 . S
H812 C819 0.950 . S
C813 C811 1.387 . S
C813 C815 1.390 . S
C813 H817 0.950 . S
H814 C810 0.950 . S
C815 C813 1.390 . S
C815 C816 1.387 . S
C815 H818 0.950 . S
C816 C815 1.387 . S
C816 C819 1.387 . S
H817 C813 0.950 . S
H818 C815 0.950 . S
C819 C810 1.390 . S
C819 H812 0.950 . S
C819 C816 1.387 . S
C820 C821 1.387 . S
C820 H824 0.950 . S
C820 C829 1.390 . S
C821 C820 1.387 . S
C821 C823 1.387 . S
H822 C829 0.950 . S
C823 C821 1.387 . S
C823 C825 1.390 . S
C823 H827 0.950 . S
H824 C820 0.950 . S
C825 C823 1.390 . S
C825 C826 1.387 . S
C825 H828 0.950 . S
C826 C825 1.387 . S
C826 C829 1.387 . S
H827 C823 0.950 . S
H828 C825 0.950 . S
C829 C820 1.390 . S
C829 H822 0.950 . S
C829 C826 1.387 . S
C830 C831 1.387 . S
C830 H834 0.950 . S
C830 C839 1.390 . S
C831 C830 1.387 . S
C831 C833 1.387 . S
H832 C839 0.950 . S
C833 C831 1.387 . S
C833 C835 1.390 . S
C833 H837 0.950 . S
H834 C830 0.950 . S
C835 C833 1.390 . S
C835 C836 1.387 . S
C835 H838 0.950 . S
C836 C835 1.387 . S
C836 C839 1.387 . S
H837 C833 0.950 . S
H838 C835 0.950 . S
C839 C830 1.390 . S
C839 H832 0.950 . S
C839 C836 1.387 . S
C840 C841 1.387 . S
C840 H844 0.950 . S
C840 C849 1.390 . S
C841 C840 1.387 . S
C841 C843 1.387 . S
H842 C849 0.950 . S
C843 C841 1.387 . S
C843 C845 1.390 . S
C843 H847 0.950 . S
H844 C840 0.950 . S
C845 C843 1.390 . S
C845 C846 1.387 . S
C845 H848 0.950 . S
C846 C845 1.387 . S
C846 C849 1.387 . S
H847 C843 0.950 . S
H848 C845 0.950 . S
C849 C840 1.390 . S
C849 H842 0.950 . S
C849 C846 1.387 . S
C850 C851 1.387 . S
C850 H854 0.950 . S
C850 C859 1.390 . S
C851 C850 1.387 . S
C851 C853 1.387 . S
H852 C859 0.950 . S
C853 C851 1.387 . S
C853 C855 1.390 . S
C853 H857 0.950 . S
H854 C850 0.950 . S
C855 C853 1.390 . S
C855 C856 1.387 . S
C855 H858 0.950 . S
C856 C855 1.387 . S
C856 C859 1.387 . S
H857 C853 0.950 . S
H858 C855 0.950 . S
C859 C850 1.390 . S
C859 H852 0.950 . S
C859 C856 1.387 . S
C860 C861 1.387 . S
C860 H864 0.950 . S
C860 C869 1.390 . S
C861 C860 1.387 . S
C861 C863 1.369 1_545 S
H862 C869 0.950 . S
C863 C861 1.369 1_565 S
C863 C865 1.407 . S
C863 H867 0.952 . S
H864 C860 0.950 . S
C865 C863 1.407 . S
C865 C866 1.387 1_565 S
C865 H868 0.950 . S
C866 C865 1.387 1_545 S
C866 C869 1.387 . S
H867 C863 0.952 . S
H868 C865 0.950 . S
C869 C860 1.390 . S
C869 H862 0.950 . S
C869 C866 1.387 . S
C870 C871 1.387 . S
C870 H874 0.950 . S
C870 C879 1.390 . S
C871 C870 1.387 . S
C871 C873 1.387 . S
H872 C879 0.950 . S
C873 C871 1.387 . S
C873 C875 1.390 . S
C873 H877 0.950 . S
H874 C870 0.950 . S
C875 C873 1.390 . S
C875 C876 1.387 . S
C875 H878 0.950 . S
C876 C875 1.387 . S
C876 C879 1.387 . S
H877 C873 0.950 . S
H878 C875 0.950 . S
C879 C870 1.390 . S
C879 H872 0.950 . S
C879 C876 1.387 . S
C880 C881 1.387 . S
C880 H884 0.950 . S
C880 C889 1.390 . S
C881 C880 1.387 . S
C881 C883 1.387 . S
H882 C889 0.950 . S
C883 C881 1.387 . S
C883 C885 1.390 . S
C883 H887 0.950 . S
H884 C880 0.950 . S
C885 C883 1.390 . S
C885 C886 1.387 . S
C885 H888 0.950 . S
C886 C885 1.387 . S
C886 C889 1.387 . S
H887 C883 0.950 . S
H888 C885 0.950 . S
C889 C880 1.390 . S
C889 H882 0.950 . S
C889 C886 1.387 . S
C890 C891 1.387 . S
C890 H894 0.950 . S
C890 C899 1.390 . S
C891 C890 1.387 . S
C891 C893 1.387 . S
H892 C899 0.950 . S
C893 C891 1.387 . S
C893 C895 1.390 . S
C893 H897 0.950 . S
H894 C890 0.950 . S
C895 C893 1.390 . S
C895 C896 1.387 . S
C895 H898 0.950 . S
C896 C895 1.387 . S
C896 C899 1.387 . S
H897 C893 0.950 . S
H898 C895 0.950 . S
C899 C890 1.390 . S
C899 H892 0.950 . S
C899 C896 1.387 . S
C900 C901 1.387 . S
C900 H904 0.950 . S
C900 C909 1.390 . S
C901 C900 1.387 . S
C901 C903 1.387 . S
H902 C909 0.950 . S
C903 C901 1.387 . S
C903 C905 1.390 . S
C903 H907 0.950 . S
H904 C900 0.950 . S
C905 C903 1.390 . S
C905 C906 1.387 . S
C905 H908 0.950 . S
C906 C905 1.387 . S
C906 C909 1.387 . S
H907 C903 0.950 . S
H908 C905 0.950 . S
C909 C900 1.390 . S
C909 H902 0.950 . S
C909 C906 1.387 . S
C910 C911 1.387 . S
C910 H914 0.950 . S
C910 C919 1.390 . S
C911 C910 1.387 . S
C911 C913 1.387 . S
H912 C919 0.950 . S
C913 C911 1.387 . S
C913 C915 1.390 . S
C913 H917 0.950 . S
H914 C910 0.950 . S
C915 C913 1.390 . S
C915 C916 1.387 . S
C915 H918 0.950 . S
C916 C915 1.387 . S
C916 C919 1.387 . S
H917 C913 0.950 . S
H918 C915 0.950 . S
C919 C910 1.390 . S
C919 H912 0.950 . S
C919 C916 1.387 . S
C920 C921 1.387 . S
C920 H924 0.950 . S
C920 C929 1.390 . S
C921 C920 1.387 . S
C921 C923 1.387 . S
H922 C929 0.950 . S
C923 C921 1.387 . S
C923 C925 1.390 . S
C923 H927 0.950 . S
H924 C920 0.950 . S
C925 C923 1.390 . S
C925 C926 1.387 . S
C925 H928 0.950 . S
C926 C925 1.387 . S
C926 C929 1.387 . S
H927 C923 0.950 . S
H928 C925 0.950 . S
C929 C920 1.390 . S
C929 H922 0.950 . S
C929 C926 1.387 . S
C930 C931 1.387 . S
C930 H934 0.950 . S
C930 C939 1.390 . S
C931 C930 1.387 . S
C931 C933 1.387 . S
H932 C939 0.950 . S
C933 C931 1.387 . S
C933 C935 1.390 . S
C933 H937 0.950 . S
H934 C930 0.950 . S
C935 C933 1.390 . S
C935 C936 1.387 . S
C935 H938 0.950 . S
C936 C935 1.387 . S
C936 C939 1.387 . S
H937 C933 0.950 . S
H938 C935 0.950 . S
C939 C930 1.390 . S
C939 H932 0.950 . S
C939 C936 1.387 . S
C940 C941 1.387 . S
C940 H944 0.950 . S
C940 C949 1.390 . S
C941 C940 1.387 . S
C941 C943 1.387 . S
H942 C949 0.950 . S
C943 C941 1.387 . S
C943 C945 1.390 . S
C943 H947 0.950 . S
H944 C940 0.950 . S
C945 C943 1.390 . S
C945 C946 1.387 . S
C945 H948 0.950 . S
C946 C945 1.387 . S
C946 C949 1.387 . S
H947 C943 0.950 . S
H948 C945 0.950 . S
C949 C940 1.390 . S
C949 H942 0.950 . S
C949 C946 1.387 . S
C950 C951 1.387 . S
C950 H954 0.950 . S
C950 C959 1.390 . S
C951 C950 1.387 . S
C951 C953 1.387 . S
H952 C959 0.950 . S
C953 C951 1.387 . S
C953 C955 1.390 . S
C953 H957 0.950 . S
H954 C950 0.950 . S
C955 C953 1.390 . S
C955 C956 1.387 . S
C955 H958 0.950 . S
C956 C955 1.387 . S
C956 C959 1.387 . S
H957 C953 0.950 . S
H958 C955 0.950 . S
C959 C950 1.390 . S
C959 H952 0.950 . S
C959 C956 1.387 . S
C960 C961 1.387 . S
C960 H964 0.950 . S
C960 C969 1.390 . S
C961 C960 1.387 . S
C961 C963 1.387 . S
H962 C969 0.950 . S
C963 C961 1.387 . S
C963 C965 1.390 . S
C963 H967 0.950 . S
H964 C960 0.950 . S
C965 C963 1.390 . S
C965 C966 1.387 . S
C965 H968 0.950 . S
C966 C965 1.387 . S
C966 C969 1.387 . S
H967 C963 0.950 . S
H968 C965 0.950 . S
C969 C960 1.390 . S
C969 H962 0.950 . S
C969 C966 1.387 . S
C970 C971 1.387 . S
C970 H974 0.950 . S
C970 C979 1.390 . S
C971 C970 1.387 . S
C971 C973 1.387 . S
H972 C979 0.950 . S
C973 C971 1.387 . S
C973 C975 1.390 . S
C973 H977 0.950 . S
H974 C970 0.950 . S
C975 C973 1.390 . S
C975 C976 1.387 . S
C975 H978 0.950 . S
C976 C975 1.387 . S
C976 C979 1.387 . S
H977 C973 0.950 . S
H978 C975 0.950 . S
C979 C970 1.390 . S
C979 H972 0.950 . S
C979 C976 1.387 . S
C980 C981 1.387 . S
C980 H984 0.950 . S
C980 C989 1.390 . S
C981 C980 1.387 . S
C981 C983 1.387 . S
H982 C989 0.950 . S
C983 C981 1.387 . S
C983 C985 1.390 . S
C983 H987 0.950 . S
H984 C980 0.950 . S
C985 C983 1.390 . S
C985 C986 1.387 . S
C985 H988 0.950 . S
C986 C985 1.387 . S
C986 C989 1.387 . S
H987 C983 0.950 . S
H988 C985 0.950 . S
C989 C980 1.390 . S
C989 H982 0.950 . S
C989 C986 1.387 . S
C990 C991 1.387 . S
C990 H994 0.950 . S
C990 C999 1.390 . S
C991 C990 1.387 . S
C991 C993 1.387 . S
H992 C999 0.950 . S
C993 C991 1.387 . S
C993 C995 1.390 . S
C993 H997 0.950 . S
H994 C990 0.950 . S
C995 C993 1.390 . S
C995 C996 1.387 . S
C995 H998 0.950 . S
C996 C995 1.387 . S
C996 C999 1.387 . S
H997 C993 0.950 . S
H998 C995 0.950 . S
C999 C990 1.390 . S
C999 H992 0.950 . S
C999 C996 1.387 . S
C1000 C1001 1.387 . S
C1000 H1004 0.950 . S
C1000 C1009 1.390 . S
C1001 C1000 1.387 . S
C1001 C1003 1.387 . S
H1002 C1009 0.950 . S
C1003 C1001 1.387 . S
C1003 C1005 1.390 . S
C1003 H1007 0.950 . S
H1004 C1000 0.950 . S
C1005 C1003 1.390 . S
C1005 C1006 1.387 . S
C1005 H1008 0.950 . S
C1006 C1005 1.387 . S
C1006 C1009 1.387 . S
H1007 C1003 0.950 . S
H1008 C1005 0.950 . S
C1009 C1000 1.390 . S
C1009 H1002 0.950 . S
C1009 C1006 1.387 . S
C1010 C1011 1.387 . S
C1010 H1014 0.950 . S
C1010 C1019 1.390 . S
C1011 C1010 1.387 . S
C1011 C1013 1.387 . S
H1012 C1019 0.950 . S
C1013 C1011 1.387 . S
C1013 C1015 1.390 . S
C1013 H1017 0.950 . S
H1014 C1010 0.950 . S
C1015 C1013 1.390 . S
C1015 C1016 1.387 . S
C1015 H1018 0.950 . S
C1016 C1015 1.387 . S
C1016 C1019 1.387 . S
H1017 C1013 0.950 . S
H1018 C1015 0.950 . S
C1019 C1010 1.390 . S
C1019 H1012 0.950 . S
C1019 C1016 1.387 . S
C1020 C1021 1.387 . S
C1020 H1024 0.950 . S
C1020 C1029 1.390 . S
C1021 C1020 1.387 . S
C1021 C1023 1.387 . S
H1022 C1029 0.950 . S
C1023 C1021 1.387 . S
C1023 C1025 1.390 . S
C1023 H1027 0.950 . S
H1024 C1020 0.950 . S
C1025 C1023 1.390 . S
C1025 C1026 1.387 . S
C1025 H1028 0.950 . S
C1026 C1025 1.387 . S
C1026 C1029 1.387 . S
H1027 C1023 0.950 . S
H1028 C1025 0.950 . S
C1029 C1020 1.390 . S
C1029 H1022 0.950 . S
C1029 C1026 1.387 . S
C1030 C1031 1.387 . S
C1030 H1034 0.950 . S
C1030 C1039 1.390 . S
C1031 C1030 1.387 . S
C1031 C1033 1.387 . S
H1032 C1039 0.950 . S
C1033 C1031 1.387 . S
C1033 C1035 1.390 . S
C1033 H1037 0.950 . S
H1034 C1030 0.950 . S
C1035 C1033 1.390 . S
C1035 C1036 1.387 . S
C1035 H1038 0.950 . S
C1036 C1035 1.387 . S
C1036 C1039 1.387 . S
H1037 C1033 0.950 . S
H1038 C1035 0.950 . S
C1039 C1030 1.390 . S
C1039 H1032 0.950 . S
C1039 C1036 1.387 . S
C1040 C1041 1.387 . S
C1040 H1044 0.950 . S
C1040 C1049 1.390 . S
C1041 C1040 1.387 . S
C1041 C1043 1.387 . S
H1042 C1049 0.950 . S
C1043 C1041 1.387 . S
C1043 C1045 1.390 . S
C1043 H1047 0.950 . S
H1044 C1040 0.950 . S
C1045 C1043 1.390 . S
C1045 C1046 1.387 . S
C1045 H1048 0.950 . S
C1046 C1045 1.387 . S
C1046 C1049 1.387 . S
H1047 C1043 0.950 . S
H1048 C1045 0.950 . S
C1049 C1040 1.390 . S
C1049 H1042 0.950 . S
C1049 C1046 1.387 . S
C1050 C1051 1.387 . S
C1050 H1054 0.950 . S
C1050 C1059 1.390 . S
C1051 C1050 1.387 . S
C1051 C1053 1.387 . S
H1052 C1059 0.950 . S
C1053 C1051 1.387 . S
C1053 C1055 1.390 . S
C1053 H1057 0.950 . S
H1054 C1050 0.950 . S
C1055 C1053 1.390 . S
C1055 C1056 1.387 . S
C1055 H1058 0.950 . S
C1056 C1055 1.387 . S
C1056 C1059 1.387 . S
H1057 C1053 0.950 . S
H1058 C1055 0.950 . S
C1059 C1050 1.390 . S
C1059 H1052 0.950 . S
C1059 C1056 1.387 . S
C1060 C1061 1.387 . S
C1060 H1064 0.950 . S
C1060 C1069 1.390 . S
C1061 C1060 1.387 . S
C1061 C1063 1.387 . S
H1062 C1069 0.950 . S
C1063 C1061 1.387 . S
C1063 C1065 1.390 . S
C1063 H1067 0.950 . S
H1064 C1060 0.950 . S
C1065 C1063 1.390 . S
C1065 C1066 1.387 . S
C1065 H1068 0.950 . S
C1066 C1065 1.387 . S
C1066 C1069 1.387 . S
H1067 C1063 0.950 . S
H1068 C1065 0.950 . S
C1069 C1060 1.390 . S
C1069 H1062 0.950 . S
C1069 C1066 1.387 . S
C1070 C1071 1.387 . S
C1070 H1074 0.950 . S
C1070 C1079 1.390 . S
C1071 C1070 1.387 . S
C1071 C1073 1.387 . S
H1072 C1079 0.950 . S
C1073 C1071 1.387 . S
C1073 C1075 1.390 . S
C1073 H1077 0.950 . S
H1074 C1070 0.950 . S
C1075 C1073 1.390 . S
C1075 C1076 1.387 . S
C1075 H1078 0.950 . S
C1076 C1075 1.387 . S
C1076 C1079 1.387 . S
H1077 C1073 0.950 . S
H1078 C1075 0.950 . S
C1079 C1070 1.390 . S
C1079 H1072 0.950 . S
C1079 C1076 1.387 . S
C1080 C1081 1.387 . S
C1080 H1084 0.950 . S
C1080 C1089 1.390 . S
C1081 C1080 1.387 . S
C1081 C1083 1.387 . S
H1082 C1089 0.950 . S
C1083 C1081 1.387 . S
C1083 C1085 1.390 . S
C1083 H1087 0.950 . S
H1084 C1080 0.950 . S
C1085 C1083 1.390 . S
C1085 C1086 1.387 . S
C1085 H1088 0.950 . S
C1086 C1085 1.387 . S
C1086 C1089 1.387 . S
H1087 C1083 0.950 . S
H1088 C1085 0.950 . S
C1089 C1080 1.390 . S
C1089 H1082 0.950 . S
C1089 C1086 1.387 . S
C1090 C1091 1.387 . S
C1090 H1094 0.950 . S
C1090 C1099 1.390 . S
C1091 C1090 1.387 . S
C1091 C1093 1.387 . S
H1092 C1099 0.950 . S
C1093 C1091 1.387 . S
C1093 C1095 1.390 . S
C1093 H1097 0.950 . S
H1094 C1090 0.950 . S
C1095 C1093 1.390 . S
C1095 C1096 1.387 . S
C1095 H1098 0.950 . S
C1096 C1095 1.387 . S
C1096 C1099 1.387 . S
H1097 C1093 0.950 . S
H1098 C1095 0.950 . S
C1099 C1090 1.390 . S
C1099 H1092 0.950 . S
C1099 C1096 1.387 . S
C1100 C1101 1.387 . S
C1100 H1104 0.950 . S
C1100 C1109 1.390 . S
C1101 C1100 1.387 . S
C1101 C1103 1.387 . S
H1102 C1109 0.950 . S
C1103 C1101 1.387 . S
C1103 C1105 1.390 . S
C1103 H1107 0.950 . S
H1104 C1100 0.950 . S
C1105 C1103 1.390 . S
C1105 C1106 1.387 . S
C1105 H1108 0.950 . S
C1106 C1105 1.387 . S
C1106 C1109 1.387 . S
H1107 C1103 0.950 . S
H1108 C1105 0.950 . S
C1109 C1100 1.390 . S
C1109 H1102 0.950 . S
C1109 C1106 1.387 . S
C1110 C1111 1.387 . S
C1110 H1114 0.950 . S
C1110 C1119 1.390 . S
C1111 C1110 1.387 . S
C1111 C1113 1.387 . S
H1112 C1119 0.950 . S
C1113 C1111 1.387 . S
C1113 C1115 1.390 . S
C1113 H1117 0.950 . S
H1114 C1110 0.950 . S
C1115 C1113 1.390 . S
C1115 C1116 1.387 . S
C1115 H1118 0.950 . S
C1116 C1115 1.387 . S
C1116 C1119 1.387 . S
H1117 C1113 0.950 . S
H1118 C1115 0.950 . S
C1119 C1110 1.390 . S
C1119 H1112 0.950 . S
C1119 C1116 1.387 . S
C641 C131 1.915 . S
C646 C19 1.919 . S
C651 C2 0.915 . S
C656 C56 0.850 . S
C661 C90 1.749 . S
C666 C59 1.753 . S
C671 C127 1.550 . S
C676 C87 1.555 . S
C681 C167 2.156 . S
C686 C202 2.198 . S
C691 C219 1.697 . S
C696 C259 1.674 . S
C701 C256 1.160 . S
C706 C287 1.132 . S
C711 C171 2.084 . S
C716 C290 2.149 . S
C721 C376 1.745 . S
C726 C16 1.699 . S
C731 C402 2.318 . S
C736 C42 2.338 . S
C741 C91 4.389 . S
C746 C531 4.398 . S
C751 C330 1.027 . S
C756 C130 1.067 . S
C761 C450 1.179 . S
C766 C170 1.127 . S
C771 C571 3.062 . S
C776 C216 3.032 . S
C781 C242 1.680 . S
C786 C482 1.560 . S
C791 C611 4.248 . S
C796 C291 4.200 . S
C801 C331 1.900 . S
C806 C530 1.932 . S
C811 C362 1.321 . S
C816 C327 1.312 . S
C821 C419 0.940 . S
C826 C379 0.936 . S
C831 C570 1.977 . S
C836 C451 2.010 . S
C841 C499 0.865 . S
C846 C610 0.939 . S
C851 C442 1.915 . S
C856 C10 1.919 . S
C861 C487 0.849 . S
C866 C11 0.912 . S
C871 C490 1.753 . S
C876 C99 1.749 . S
C881 C96 1.555 . S
C886 C456 1.550 . S
C891 C371 2.198 . S
C896 C176 2.157 . S
C901 C370 1.698 . S
C906 C250 1.675 . S
C911 C536 1.132 . S
C916 C247 1.159 . S
C921 C162 2.086 . S
C926 C539 2.149 . S
C931 C207 1.746 . S
C936 C7 1.697 . S
C941 C411 2.318 . S
C946 C491 2.338 . S
C951 C82 4.389 . S
C956 C282 4.397 . S
C961 C339 1.029 . S
C966 C459 1.066 . S
C971 C139 1.179 . S
C976 C179 1.128 . S
C981 C367 3.030 . S
C986 C562 3.062 . S
C991 C251 1.679 . S
C996 C51 1.559 . S
C1001 C602 4.248 . S
C1006 C522 4.200 . S
C1011 C322 1.898 . S
C1016 C299 1.932 . S
C1021 C336 1.316 . S
C1026 C211 1.324 . S
C1031 C410 0.938 . S
C1036 C210 0.933 . S
C1041 C122 2.010 . S
C1046 C579 1.978 . S
C1051 C50 0.873 . S
C1056 C619 0.941 . S
C1061 C496 0.904 . S
C1066 C567 0.831 . S
C1071 C447 1.664 . S
C1076 C607 1.640 . S
C1081 C416 0.922 . S
C1086 C527 0.892 . S
C1091 C576 0.826 . S
C1096 C47 0.903 . S
C1101 C136 1.665 . S
C1106 C616 1.641 . S
C1111 C296 0.896 . S
C1116 C407 0.925 . S
