# Generated by pormake.
# Topology crb, (4)-cn, num edge types: 1
# Building blocks:
#     Node 0, Type 0, BuildingBlock: CEKHIL_clean_sbu_0, # of connection points: 4
#     Node 1, Type 0, BuildingBlock: CEKHIL_clean_sbu_0, # of connection points: 4
#     Node 2, Type 0, BuildingBlock: CEKHIL_clean_sbu_0, # of connection points: 4
#     Node 3, Type 0, BuildingBlock: CEKHIL_clean_sbu_0, # of connection points: 4
#     Node 4, Type 0, BuildingBlock: CEKHIL_clean_sbu_0, # of connection points: 4
#     Node 5, Type 0, BuildingBlock: CEKHIL_clean_sbu_0, # of connection points: 4
#     Node 6, Type 0, BuildingBlock: CEKHIL_clean_sbu_0, # of connection points: 4
#     Node 7, Type 0, BuildingBlock: CEKHIL_clean_sbu_0, # of connection points: 4
#     Edge 8, Type (0, 0), BuildingBlock: MIFKUJ_clean_linker_0, # of connection points: 2
#     Edge 9, Type (0, 0), BuildingBlock: MIFKUJ_clean_linker_0, # of connection points: 2
#     Edge 10, Type (0, 0), BuildingBlock: MIFKUJ_clean_linker_0, # of connection points: 2
#     Edge 11, Type (0, 0), BuildingBlock: MIFKUJ_clean_linker_0, # of connection points: 2
#     Edge 12, Type (0, 0), BuildingBlock: MIFKUJ_clean_linker_0, # of connection points: 2
#     Edge 13, Type (0, 0), BuildingBlock: MIFKUJ_clean_linker_0, # of connection points: 2
#     Edge 14, Type (0, 0), BuildingBlock: MIFKUJ_clean_linker_0, # of connection points: 2
#     Edge 15, Type (0, 0), BuildingBlock: MIFKUJ_clean_linker_0, # of connection points: 2
#     Edge 16, Type (0, 0), BuildingBlock: MIFKUJ_clean_linker_0, # of connection points: 2
#     Edge 17, Type (0, 0), BuildingBlock: MIFKUJ_clean_linker_0, # of connection points: 2
#     Edge 18, Type (0, 0), BuildingBlock: MIFKUJ_clean_linker_0, # of connection points: 2
#     Edge 19, Type (0, 0), BuildingBlock: MIFKUJ_clean_linker_0, # of connection points: 2
#     Edge 20, Type (0, 0), BuildingBlock: MIFKUJ_clean_linker_0, # of connection points: 2
#     Edge 21, Type (0, 0), BuildingBlock: MIFKUJ_clean_linker_0, # of connection points: 2
#     Edge 22, Type (0, 0), BuildingBlock: MIFKUJ_clean_linker_0, # of connection points: 2
#     Edge 23, Type (0, 0), BuildingBlock: MIFKUJ_clean_linker_0, # of connection points: 2
# Relax obj value: 0.118
# Max RMSD: 0.159
# Mean RMSD: 0.159
data_MOF--net-crb--node1-CEKHIL_clean_sbu_0--edge1-MIFKUJ_clean_linker_0
_symmetry_space_group_name_H-M    P1
_symmetry_Int_Tables_number       1
_symmetry_cell_setting            triclinic
loop_
_symmetry_equiv_pos_as_xyz
'x, y, z'
_cell_length_a     56.996572
_cell_length_b     55.72755
_cell_length_c     29.92218
_cell_angle_alpha  90.015806
_cell_angle_beta   89.997769
_cell_angle_gamma 89.999555
loop_
_atom_site_label
_atom_site_type_symbol
_atom_site_fract_x
_atom_site_fract_y
_atom_site_fract_z
_atom_type_partial_charge
Co0 Co 0.32814 0.33054 0.02205 0.0
O1 O 0.2972 0.32809 0.04871 0.0
O2 O 0.32752 0.30518 0.06627 0.0
C3 C 0.33009 0.37105 0.02673 0.0
O4 O 0.36319 0.32848 0.00643 0.0
Co5 Co 0.33972 0.35826 0.93522 0.0
O6 O 0.3718 0.3591 0.96072 0.0
C7 C 0.31778 0.31011 0.92933 0.0
C8 C 0.30586 0.31122 0.07372 0.0
C9 C 0.3781 0.34277 0.98793 0.0
O10 O 0.31894 0.30741 0.97219 0.0
O11 O 0.32438 0.32916 0.90901 0.0
O12 O 0.3349 0.35785 0.06137 0.0
O13 O 0.32315 0.35957 0.99169 0.0
Co14 Co 0.67611 0.33366 0.03434 0.0
O15 O 0.70646 0.33075 0.00558 0.0
O16 O 0.67634 0.30664 0.99364 0.0
C17 C 0.67271 0.37381 0.02418 0.0
O18 O 0.64162 0.33148 0.05346 0.0
Co19 Co 0.66648 0.36491 0.11818 0.0
O20 O 0.63337 0.36272 0.09814 0.0
C21 C 0.69276 0.31915 0.12697 0.0
C22 C 0.69768 0.31278 0.98352 0.0
C23 C 0.62684 0.34552 0.073 0.0
O24 O 0.68724 0.31301 0.0866 0.0
O25 O 0.68757 0.33964 0.14367 0.0
O26 O 0.66757 0.35912 0.99186 0.0
O27 O 0.68099 0.36395 0.0598 0.0
Co28 Co 0.67541 0.67133 0.03006 0.0
O29 O 0.70574 0.67305 0.05944 0.0
O30 O 0.67542 0.69634 0.07477 0.0
C31 C 0.6715 0.63092 0.03313 0.0
O32 O 0.64104 0.67437 0.01115 0.0
Co33 Co 0.66698 0.6449 0.94011 0.0
O34 O 0.63324 0.64943 0.9541 0.0
C35 C 0.69394 0.68999 0.94181 0.0
C36 C 0.69685 0.69008 0.08386 0.0
C37 C 0.62653 0.66395 0.98443 0.0
O38 O 0.68657 0.69449 0.98178 0.0
O39 O 0.69009 0.67011 0.9217 0.0
O40 O 0.66674 0.64396 0.06802 0.0
O41 O 0.6802 0.64236 0.99954 0.0
Co42 Co 0.32741 0.66994 0.03413 0.0
O43 O 0.29644 0.67459 0.00827 0.0
O44 O 0.32765 0.6965 0.99264 0.0
C45 C 0.32812 0.62955 0.02488 0.0
O46 O 0.36259 0.6704 0.04896 0.0
Co47 Co 0.33864 0.63867 0.11709 0.0
O48 O 0.37169 0.64108 0.09725 0.0
C49 C 0.3147 0.68569 0.12827 0.0
C50 C 0.30578 0.69166 0.98456 0.0
C51 C 0.37778 0.65737 0.06982 0.0
O52 O 0.31897 0.69152 0.08713 0.0
O53 O 0.3196 0.66498 0.14424 0.0
O54 O 0.33308 0.64364 0.99157 0.0
O55 O 0.32175 0.64014 0.06115 0.0
Co56 Co 0.82812 0.83293 0.53014 0.0
O57 O 0.79808 0.83105 0.56037 0.0
O58 O 0.82865 0.80794 0.57495 0.0
C59 C 0.83151 0.87325 0.53326 0.0
O60 O 0.86233 0.83023 0.51061 0.0
Co61 Co 0.83611 0.85921 0.44046 0.0
O62 O 0.87009 0.85424 0.45214 0.0
C63 C 0.80941 0.81398 0.44226 0.0
C64 C 0.80725 0.81409 0.58456 0.0
C65 C 0.87677 0.84017 0.48318 0.0
O66 O 0.81677 0.80964 0.48228 0.0
O67 O 0.81316 0.83383 0.42201 0.0
O68 O 0.83723 0.86023 0.56762 0.0
O69 O 0.82256 0.86188 0.49981 0.0
Co70 Co 0.17591 0.83225 0.53421 0.0
O71 O 0.20729 0.82927 0.50939 0.0
O72 O 0.17694 0.80689 0.49025 0.0
C73 C 0.17378 0.87276 0.52885 0.0
O74 O 0.14066 0.83039 0.54732 0.0
Co75 Co 0.16307 0.86053 0.62008 0.0
O76 O 0.1302 0.85714 0.59976 0.0
C77 C 0.18617 0.81298 0.62774 0.0
C78 C 0.19877 0.81255 0.48376 0.0
C79 C 0.12494 0.84185 0.56979 0.0
O80 O 0.18427 0.80931 0.58516 0.0
O81 O 0.18014 0.83266 0.64659 0.0
O82 O 0.16981 0.85939 0.49405 0.0
O83 O 0.18032 0.86148 0.56435 0.0
Co84 Co 0.17447 0.1709 0.52234 0.0
O85 O 0.20577 0.17446 0.54725 0.0
O86 O 0.17525 0.19707 0.56463 0.0
C87 C 0.17221 0.13057 0.53044 0.0
O88 O 0.13927 0.17237 0.50848 0.0
Co89 Co 0.16239 0.14117 0.4378 0.0
O90 O 0.12917 0.1462 0.45466 0.0
C91 C 0.18867 0.18679 0.42934 0.0
C92 C 0.1971 0.19165 0.57161 0.0
C93 C 0.12375 0.16134 0.48478 0.0
O94 O 0.18336 0.19265 0.46997 0.0
O95 O 0.18363 0.16629 0.41261 0.0
O96 O 0.16814 0.14461 0.56427 0.0
O97 O 0.17899 0.14111 0.49433 0.0
Co98 Co 0.82607 0.16888 0.53422 0.0
O99 O 0.79549 0.17159 0.5062 0.0
O100 O 0.82516 0.19642 0.49489 0.0
C101 C 0.83014 0.12894 0.52244 0.0
O102 O 0.86068 0.17133 0.55199 0.0
Co103 Co 0.83679 0.13696 0.61667 0.0
O104 O 0.87016 0.1425 0.60127 0.0
C105 C 0.81143 0.18297 0.62887 0.0
C106 C 0.80389 0.19002 0.48493 0.0
C107 C 0.87593 0.15925 0.57449 0.0
O108 O 0.81525 0.18891 0.58768 0.0
O109 O 0.81707 0.16245 0.64484 0.0
O110 O 0.83477 0.14407 0.49055 0.0
O111 O 0.82187 0.13822 0.55861 0.0
H112 H 0.33927 0.40105 0.09738 0.0
H113 H 0.34079 0.44508 0.0963 0.0
H114 H 0.32794 0.44461 0.95426 0.0
H115 H 0.32643 0.40085 0.95506 0.0
H116 H 0.36207 0.47716 0.97766 0.0
H117 H 0.28377 0.45566 0.0248 0.0
H118 H 0.25471 0.43537 0.07277 0.0
H119 H 0.28112 0.47307 0.1874 0.0
H120 H 0.31056 0.49335 0.14017 0.0
H121 H 0.33001 0.60039 0.95087 0.0
H122 H 0.3312 0.55636 0.94964 0.0
H123 H 0.3333 0.55532 0.09384 0.0
H124 H 0.33096 0.59888 0.09516 0.0
H125 H 0.30473 0.52301 0.06857 0.0
H126 H 0.38195 0.54553 0.02393 0.0
H127 H 0.41087 0.56685 0.97806 0.0
H128 H 0.38924 0.52702 0.86231 0.0
H129 H 0.35924 0.50614 0.90733 0.0
C130 C 0.33695 0.41035 0.06592 0.0
C131 C 0.3326 0.39749 0.02638 0.0
C132 C 0.33775 0.43548 0.06535 0.0
C133 C 0.33425 0.44813 0.02523 0.0
C134 C 0.33067 0.43525 0.98556 0.0
C135 C 0.32973 0.41021 0.98615 0.0
C136 C 0.33352 0.47478 0.02455 0.0
C137 C 0.3494 0.48723 0.99718 0.0
C138 C 0.3173 0.4879 0.05068 0.0
C139 C 0.29951 0.47583 0.07903 0.0
C140 C 0.28349 0.45949 0.06029 0.0
C141 C 0.26694 0.44801 0.08734 0.0
C142 C 0.26611 0.45288 0.13312 0.0
C143 C 0.2818 0.46929 0.15194 0.0
C144 C 0.29841 0.48079 0.12505 0.0
C145 C 0.33085 0.5907 0.98221 0.0
C146 C 0.33045 0.6031 0.02307 0.0
C147 C 0.33159 0.56553 0.98153 0.0
C148 C 0.33256 0.55238 0.0217 0.0
C149 C 0.33243 0.56491 0.06239 0.0
C150 C 0.33124 0.58991 0.06308 0.0
C151 C 0.33345 0.52562 0.0219 0.0
C152 C 0.31751 0.51307 0.04908 0.0
C153 C 0.3498 0.51244 0.99595 0.0
C154 C 0.36817 0.52447 0.96893 0.0
C155 C 0.38321 0.54142 0.98863 0.0
C156 C 0.39983 0.55344 0.96273 0.0
C157 C 0.40205 0.54825 0.91724 0.0
C158 C 0.38752 0.53104 0.89755 0.0
C159 C 0.37062 0.51917 0.92322 0.0
H160 H 0.41501 0.55758 0.89729 0.0
H161 H 0.25328 0.44398 0.15401 0.0
H162 H 0.4026 0.30221 0.0121 0.0
H163 H 0.44492 0.29867 0.02537 0.0
H164 H 0.45292 0.37466 1.00166 0.0
H165 H 0.41113 0.37788 0.98593 0.0
H166 H 0.48641 0.35474 0.96351 0.0
H167 H 0.45409 0.34548 0.11104 0.0
H168 H 0.42927 0.32747 0.16966 0.0
H169 H 0.46366 0.25963 0.15118 0.0
H170 H 0.4885 0.27718 0.09205 0.0
H171 H 0.5921 0.37877 0.08229 0.0
H172 H 0.55023 0.37404 0.06701 0.0
H173 H 0.56142 0.29989 0.03211 0.0
H174 H 0.60369 0.30459 0.04631 0.0
H175 H 0.51974 0.31435 0.09689 0.0
H176 H 0.5541 0.32765 0.95051 0.0
H177 H 0.57968 0.34933 0.89772 0.0
H178 H 0.54114 0.41431 0.92145 0.0
H179 H 0.51555 0.39307 0.97493 0.0
C180 C 0.41345 0.31812 0.0098 0.0
C181 C 0.40353 0.3403 0.99779 0.0
C182 C 0.43766 0.31614 0.01766 0.0
C183 C 0.45232 0.33645 0.0151 0.0
C184 C 0.44223 0.35863 0.0036 0.0
C185 C 0.41823 0.36048 0.99471 0.0
C186 C 0.47819 0.33489 0.02346 0.0
C187 C 0.49352 0.34601 0.99294 0.0
C188 C 0.48787 0.32316 0.06133 0.0
C189 C 0.47294 0.31257 0.09677 0.0
C190 C 0.45622 0.32668 0.11925 0.0
C191 C 0.44218 0.31656 0.1526 0.0
C192 C 0.44484 0.2924 0.16403 0.0
C193 C 0.46159 0.27833 0.14222 0.0
C194 C 0.47566 0.28835 0.10881 0.0
C195 C 0.5857 0.36137 0.0717 0.0
C196 C 0.60128 0.34203 0.06559 0.0
C197 C 0.56176 0.35873 0.06292 0.0
C198 C 0.55276 0.33662 0.04853 0.0
C199 C 0.56806 0.31708 0.04335 0.0
C200 C 0.59218 0.31983 0.05129 0.0
C201 C 0.52745 0.33449 0.03741 0.0
C202 C 0.51239 0.32276 0.06734 0.0
C203 C 0.51791 0.34611 0.99961 0.0
C204 C 0.53305 0.35882 0.967 0.0
C205 C 0.55121 0.3466 0.94475 0.0
C206 C 0.56568 0.3588 0.91465 0.0
C207 C 0.56208 0.3832 0.90631 0.0
C208 C 0.54393 0.39542 0.92796 0.0
C209 C 0.52942 0.3833 0.95813 0.0
H210 H 0.57331 0.39261 0.88302 0.0
H211 H 0.43395 0.28461 0.18987 0.0
H212 H 0.67634 0.40588 0.09224 0.0
H213 H 0.67119 0.44923 0.08949 0.0
H214 H 0.65481 0.44489 0.94903 0.0
H215 H 0.65986 0.40107 0.95155 0.0
H216 H 0.68818 0.4801 0.96978 0.0
H217 H 0.61203 0.45652 0.02007 0.0
H218 H 0.58412 0.43452 0.06784 0.0
H219 H 0.60992 0.47182 0.1834 0.0
H220 H 0.63831 0.49374 0.13645 0.0
H221 H 0.66468 0.6038 0.95865 0.0
H222 H 0.65968 0.56044 0.95388 0.0
H223 H 0.6642 0.5553 0.09755 0.0
H224 H 0.66788 0.59909 0.10251 0.0
H225 H 0.63377 0.52428 0.06978 0.0
H226 H 0.71247 0.54385 0.02365 0.0
H227 H 0.74265 0.56452 0.97881 0.0
H228 H 0.71418 0.53383 0.85885 0.0
H229 H 0.68365 0.5132 0.90296 0.0
C230 C 0.67145 0.41404 0.06074 0.0
C231 C 0.66848 0.40001 0.02207 0.0
C232 C 0.66843 0.43886 0.05931 0.0
C233 C 0.66241 0.45029 0.01918 0.0
C234 C 0.65937 0.43639 0.9804 0.0
C235 C 0.6622 0.41139 0.98189 0.0
C236 C 0.66032 0.47687 0.01788 0.0
C237 C 0.67595 0.4898 0.99091 0.0
C238 C 0.64483 0.48946 0.04649 0.0
C239 C 0.62742 0.47668 0.07473 0.0
C240 C 0.61186 0.45994 0.05571 0.0
C241 C 0.59594 0.44748 0.08264 0.0
C242 C 0.59527 0.45175 0.12863 0.0
C243 C 0.61047 0.46853 0.14777 0.0
C244 C 0.62646 0.481 0.12099 0.0
C245 C 0.66441 0.59348 0.98928 0.0
C246 C 0.66691 0.60481 0.03096 0.0
C247 C 0.66168 0.56861 0.9865 0.0
C248 C 0.66222 0.55438 0.02524 0.0
C249 C 0.66386 0.5658 0.0671 0.0
C250 C 0.66602 0.59082 0.06995 0.0
C251 C 0.66187 0.52766 0.02198 0.0
C252 C 0.64582 0.51466 0.0482 0.0
C253 C 0.6772 0.51494 0.99305 0.0
C254 C 0.69565 0.52718 0.96655 0.0
C255 C 0.71257 0.54163 0.98768 0.0
C256 C 0.72974 0.55332 0.96241 0.0
C257 C 0.73029 0.55054 0.916 0.0
C258 C 0.71371 0.536 0.89479 0.0
C259 C 0.69648 0.52428 0.91991 0.0
H260 H 0.74359 0.55962 0.8965 0.0
H261 H 0.58295 0.44208 0.14944 0.0
H262 H 0.39883 0.68868 0.0108 0.0
H263 H 0.44079 0.69283 0.99465 0.0
H264 H 0.45652 0.63901 0.09372 0.0
H265 H 0.41484 0.6345 0.10963 0.0
H266 H 0.47878 0.70578 0.04204 0.0
H267 H 0.50069 0.60536 0.06242 0.0
H268 H 0.48369 0.56532 0.04841 0.0
H269 H 0.43936 0.59501 0.94633 0.0
H270 H 0.4559 0.63518 0.96018 0.0
H271 H 0.60371 0.68646 0.05386 0.0
H272 H 0.56134 0.68925 0.06624 0.0
H273 H 0.54893 0.65379 0.94029 0.0
H274 H 0.59107 0.6505 0.9281 0.0
H275 H 0.52446 0.63313 1.00204 0.0
H276 H 0.53705 0.71452 0.95714 0.0
H277 H 0.55528 0.75462 0.95949 0.0
H278 H 0.53103 0.76436 0.09414 0.0
H279 H 0.51291 0.72415 0.09281 0.0
C280 C 0.41121 0.67777 0.02932 0.0
C281 C 0.40331 0.66113 0.06136 0.0
C282 C 0.43523 0.68023 0.02007 0.0
C283 C 0.45186 0.66601 0.04249 0.0
C284 C 0.44406 0.64989 0.07533 0.0
C285 C 0.42013 0.6474 0.08455 0.0
C286 C 0.47731 0.66759 0.03114 0.0
C287 C 0.48879 0.6899 0.0333 0.0
C288 C 0.49043 0.64701 0.01912 0.0
C289 C 0.47936 0.62324 0.01262 0.0
C290 C 0.48718 0.60332 0.03725 0.0
C291 C 0.47761 0.58062 0.02938 0.0
C292 C 0.4604 0.57761 0.99663 0.0
C293 C 0.45254 0.59735 0.97198 0.0
C294 C 0.46191 0.62012 0.97999 0.0
C295 C 0.59197 0.67954 0.0285 0.0
C296 C 0.60089 0.66811 0.99009 0.0
C297 C 0.5677 0.68124 0.03557 0.0
C298 C 0.55184 0.67178 0.00418 0.0
C299 C 0.56075 0.66112 0.96516 0.0
C300 C 0.58492 0.65928 0.95821 0.0
C301 C 0.5261 0.67127 0.01313 0.0
C302 C 0.51456 0.64908 0.01084 0.0
C303 C 0.51297 0.69205 0.02413 0.0
C304 C 0.52382 0.71622 0.02501 0.0
C305 C 0.53577 0.72513 0.98738 0.0
C306 C 0.54605 0.7479 0.9885 0.0
C307 C 0.54437 0.762 0.02698 0.0
C308 C 0.53234 0.7534 0.06438 0.0
C309 C 0.52204 0.73063 0.06345 0.0
H310 H 0.55234 0.77963 0.02778 0.0
H311 H 0.45326 0.55994 0.99022 0.0
H312 H 0.8007 0.90648 0.50424 0.0
H313 H 0.80631 0.94977 0.49887 0.0
H314 H 0.87704 0.94193 0.54879 0.0
H315 H 0.87047 0.89863 0.55788 0.0
H316 H 0.86259 0.97936 0.58099 0.0
H317 H 0.86161 0.95323 0.43126 0.0
H318 H 0.8478 0.93172 0.36421 0.0
H319 H 0.78437 0.97329 0.36443 0.0
H320 H 0.79764 0.99482 0.43186 0.0
H321 H 0.85199 0.10398 0.45464 0.0
H322 H 0.85948 0.06053 0.45146 0.0
H323 H 0.82586 0.05194 0.57968 0.0
H324 H 0.81892 0.0949 0.58347 0.0
H325 H 0.83206 0.02309 0.44879 0.0
H326 H 0.84982 0.00932 0.64062 0.0
H327 H 0.86987 0.03101 0.70148 0.0
H328 H 0.91165 0.06915 0.60552 0.0
H329 H 0.89217 0.04743 0.54414 0.0
C330 C 0.81737 0.9141 0.5143 0.0
C331 C 0.83516 0.89938 0.53145 0.0
C332 C 0.82073 0.93883 0.51067 0.0
C333 C 0.84241 0.94929 0.52194 0.0
C334 C 0.86017 0.93447 0.53959 0.0
C335 C 0.85646 0.90974 0.54481 0.0
C336 C 0.84608 0.97571 0.51648 0.0
C337 C 0.85605 0.9888 0.55187 0.0
C338 C 0.83858 0.98827 0.47771 0.0
C339 C 0.8306 0.97557 0.43679 0.0
C340 C 0.84467 0.95771 0.41714 0.0
C341 C 0.83694 0.94551 0.37905 0.0
C342 C 0.81521 0.95111 0.36011 0.0
C343 C 0.8012 0.96897 0.37914 0.0
C344 C 0.80884 0.98121 0.41725 0.0
C345 C 0.84635 0.09277 0.48217 0.0
C346 C 0.83497 0.10288 0.51938 0.0
C347 C 0.8506 0.06797 0.48032 0.0
C348 C 0.84358 0.05296 0.51568 0.0
C349 C 0.83199 0.06313 0.55248 0.0
C350 C 0.82789 0.08776 0.55446 0.0
C351 C 0.84741 0.02653 0.51417 0.0
C352 C 0.83891 0.0135 0.47749 0.0
C353 C 0.85732 0.01398 0.55073 0.0
C354 C 0.86939 0.02681 0.58772 0.0
C355 C 0.86339 0.0222 0.63249 0.0
C356 C 0.87464 0.03454 0.6671 0.0
C357 C 0.89198 0.05148 0.65738 0.0
C358 C 0.89817 0.05608 0.61302 0.0
C359 C 0.88701 0.04377 0.57831 0.0
H360 H 0.90064 0.06103 0.68422 0.0
H361 H 0.80925 0.94164 0.33065 0.0
H362 H 0.10531 0.82364 0.4932 0.0
H363 H 0.06344 0.81959 0.47564 0.0
H364 H 0.0457 0.84618 0.60664 0.0
H365 H 0.08738 0.85066 0.62421 0.0
H366 H 0.01925 0.80428 0.57731 0.0
H367 H 0.04291 0.88362 0.52607 0.0
H368 H 0.06745 0.91123 0.48176 0.0
H369 H 0.04616 0.87575 0.36098 0.0
H370 H 0.02175 0.84769 0.40468 0.0
H371 H 0.89999 0.83608 0.56205 0.0
H372 H 0.9422 0.83315 0.57407 0.0
H373 H 0.95333 0.83153 0.43131 0.0
H374 H 0.91105 0.83638 0.41943 0.0
H375 H 0.98447 0.85743 0.46204 0.0
H376 H 0.95932 0.77967 0.50761 0.0
H377 H 0.93583 0.74959 0.54823 0.0
H378 H 0.96072 0.77737 0.6734 0.0
H379 H 0.98414 0.80782 0.63357 0.0
C380 C 0.09251 0.8284 0.51843 0.0
C381 C 0.09971 0.83755 0.56008 0.0
C382 C 0.06859 0.82614 0.50828 0.0
C383 C 0.05148 0.83267 0.53979 0.0
C384 C 0.05862 0.84102 0.58187 0.0
C385 C 0.08247 0.84366 0.59177 0.0
C386 C 0.02609 0.83173 0.52858 0.0
C387 C 0.01153 0.81596 0.55232 0.0
C388 C 0.01623 0.84638 0.4949 0.0
C389 C 0.03072 0.8634 0.46867 0.0
C390 C 0.04362 0.88158 0.4901 0.0
C391 C 0.05747 0.89733 0.46509 0.0
C392 C 0.05842 0.8952 0.41859 0.0
C393 C 0.04545 0.87736 0.397 0.0
C394 C 0.03159 0.86154 0.42187 0.0
C395 C 0.91145 0.83484 0.53325 0.0
C396 C 0.90223 0.83625 0.4898 0.0
C397 C 0.93566 0.83298 0.54011 0.0
C398 C 0.95121 0.83148 0.50367 0.0
C399 C 0.94188 0.83259 0.46013 0.0
C400 C 0.91769 0.83525 0.45329 0.0
C401 C 0.97717 0.82998 0.51104 0.0
C402 C 0.99197 0.84538 0.48666 0.0
C403 C 0.98732 0.81453 0.54347 0.0
C404 C 0.97335 0.79615 0.56758 0.0
C405 C 0.95968 0.77946 0.54381 0.0
C406 C 0.94639 0.76233 0.56669 0.0
C407 C 0.94674 0.7616 0.61336 0.0
C408 C 0.96045 0.77796 0.63725 0.0
C409 C 0.97376 0.79514 0.61453 0.0
H410 H 0.93643 0.74833 0.63102 0.0
H411 H 0.06916 0.90741 0.39929 0.0
H412 H 0.17049 0.09963 0.46015 0.0
H413 H 0.16718 0.05598 0.46216 0.0
H414 H 0.16375 0.05798 0.60607 0.0
H415 H 0.16677 0.10197 0.60431 0.0
H416 H 0.197 0.02501 0.57107 0.0
H417 H 0.11589 0.04527 0.55195 0.0
H418 H 0.08237 0.06568 0.51637 0.0
H419 H 0.09721 0.0298 0.39254 0.0
H420 H 0.13107 0.00946 0.42719 0.0
H421 H 0.17388 0.90241 0.60105 0.0
H422 H 0.17037 0.94596 0.60225 0.0
H423 H 0.16318 0.94667 0.45872 0.0
H424 H 0.16597 0.9027 0.45746 0.0
H425 H 0.13426 0.97864 0.49509 0.0
H426 H 0.21583 0.96033 0.51013 0.0
H427 H 0.25077 0.9407 0.54215 0.0
H428 H 0.23683 0.97362 0.66918 0.0
H429 H 0.20161 0.9932 0.63805 0.0
C430 C 0.16881 0.09085 0.49227 0.0
C431 C 0.16888 0.10425 0.53211 0.0
C432 C 0.16685 0.06588 0.49332 0.0
C433 C 0.1651 0.05375 0.53423 0.0
C434 C 0.16503 0.06704 0.57414 0.0
C435 C 0.16668 0.09213 0.57309 0.0
C436 C 0.1644 0.02712 0.53506 0.0
C437 C 0.18307 0.01483 0.55522 0.0
C438 C 0.14664 0.01394 0.51293 0.0
C439 C 0.12616 0.02599 0.49208 0.0
C440 C 0.11213 0.04188 0.51703 0.0
C441 C 0.09305 0.05341 0.49704 0.0
C442 C 0.0877 0.04908 0.45219 0.0
C443 C 0.10139 0.03316 0.42727 0.0
C444 C 0.12052 0.0216 0.44708 0.0
C445 C 0.17141 0.91177 0.56969 0.0
C446 C 0.1704 0.89911 0.52908 0.0
C447 C 0.16952 0.93673 0.57043 0.0
C448 C 0.16701 0.94971 0.53051 0.0
C449 C 0.16523 0.93707 0.48995 0.0
C450 C 0.16688 0.91197 0.48924 0.0
C451 C 0.16686 0.97643 0.53128 0.0
C452 C 0.14812 0.98876 0.51125 0.0
C453 C 0.18474 0.98973 0.55305 0.0
C454 C 0.20595 0.97804 0.57186 0.0
C455 C 0.22012 0.96324 0.54498 0.0
C456 C 0.23999 0.95215 0.56295 0.0
C457 C 0.24598 0.95586 0.6077 0.0
C458 C 0.23215 0.97073 0.63454 0.0
C459 C 0.21224 0.98185 0.61674 0.0
H460 H 0.26137 0.94726 0.62156 0.0
H461 H 0.07292 0.05803 0.43678 0.0
H462 H 0.89721 0.17776 0.50016 0.0
H463 H 0.93944 0.18155 0.48595 0.0
H464 H 0.95418 0.15577 0.61878 0.0
H465 H 0.91203 0.15126 0.63288 0.0
H466 H 0.98195 0.19957 0.58326 0.0
H467 H 0.95969 0.1169 0.55176 0.0
H468 H 0.93486 0.08644 0.51514 0.0
H469 H 0.95426 0.11403 0.38633 0.0
H470 H 0.97888 0.14495 0.4223 0.0
H471 H 0.10294 0.17011 0.56532 0.0
H472 H 0.06098 0.17268 0.58146 0.0
H473 H 0.04567 0.1655 0.44073 0.0
H474 H 0.08756 0.16122 0.42511 0.0
H475 H 0.01702 0.13979 0.48011 0.0
H476 H 0.04019 0.22111 0.50686 0.0
H477 H 0.06329 0.2541 0.53976 0.0
H478 H 0.04127 0.23299 0.67124 0.0
H479 H 0.01826 0.19968 0.63916 0.0
C480 C 0.90942 0.17323 0.52658 0.0
C481 C 0.90127 0.16416 0.56763 0.0
C482 C 0.93352 0.17536 0.51837 0.0
C483 C 0.94988 0.16893 0.55133 0.0
C484 C 0.94181 0.16089 0.593 0.0
C485 C 0.91774 0.15825 0.6009 0.0
C486 C 0.97538 0.16901 0.54127 0.0
C487 C 0.98978 0.18642 0.56105 0.0
C488 C 0.98533 0.15225 0.51135 0.0
C489 C 0.9709 0.13339 0.48972 0.0
C490 C 0.95849 0.1166 0.51564 0.0
C491 C 0.94449 0.09923 0.49501 0.0
C492 C 0.94293 0.09834 0.44844 0.0
C493 C 0.95545 0.11477 0.42241 0.0
C494 C 0.96944 0.13221 0.4429 0.0
C495 C 0.09059 0.16938 0.53782 0.0
C496 C 0.09852 0.16557 0.49393 0.0
C497 C 0.06653 0.17099 0.54702 0.0
C498 C 0.04988 0.16972 0.51231 0.0
C499 C 0.05796 0.16648 0.46827 0.0
C500 C 0.08195 0.16416 0.45927 0.0
C501 C 0.0241 0.17057 0.5219 0.0
C502 C 0.00947 0.15319 0.50212 0.0
C503 C 0.01391 0.1877 0.55123 0.0
C504 C 0.02767 0.20777 0.57061 0.0
C505 C 0.04039 0.22341 0.5428 0.0
C506 C 0.05345 0.24218 0.56131 0.0
C507 C 0.05379 0.2456 0.60757 0.0
C508 C 0.04101 0.2303 0.63541 0.0
C509 C 0.02794 0.21149 0.61709 0.0
H510 H 0.06391 0.26014 0.62182 0.0
H511 H 0.93207 0.0849 0.43252 0.0
H512 H 0.21192 0.17547 0.35311 0.0
H513 H 0.23194 0.2017 0.30121 0.0
H514 H 0.2153 0.26283 0.38361 0.0
H515 H 0.19476 0.23624 0.43689 0.0
H516 H 0.20653 0.26881 0.28759 0.0
H517 H 0.26935 0.2456 0.38463 0.0
H518 H 0.29293 0.21686 0.4283 0.0
H519 H 0.31069 0.17881 0.30817 0.0
H520 H 0.28695 0.20711 0.26383 0.0
H521 H 0.27674 0.33468 0.13106 0.0
H522 H 0.25804 0.31885 0.19843 0.0
H523 H 0.28542 0.24841 0.16806 0.0
H524 H 0.30584 0.26489 0.10302 0.0
H525 H 0.2898 0.25331 0.2491 0.0
H526 H 0.22273 0.27053 0.15383 0.0
H527 H 0.19717 0.29644 0.10798 0.0
H528 H 0.18558 0.34266 0.2207 0.0
H529 H 0.21125 0.31713 0.26708 0.0
C530 C 0.21237 0.19447 0.36065 0.0
C531 C 0.20155 0.20368 0.3994 0.0
C532 C 0.22401 0.20947 0.33078 0.0
C533 C 0.2253 0.23421 0.33854 0.0
C534 C 0.21454 0.24373 0.37703 0.0
C535 C 0.20293 0.22853 0.40752 0.0
C536 C 0.23782 0.24955 0.30545 0.0
C537 C 0.22488 0.26588 0.27968 0.0
C538 C 0.2616 0.24525 0.29442 0.0
C539 C 0.27629 0.22846 0.32092 0.0
C540 C 0.2782 0.23104 0.36754 0.0
C541 C 0.2916 0.21482 0.39242 0.0
C542 C 0.30328 0.19601 0.37103 0.0
C543 C 0.30164 0.1934 0.3247 0.0
C544 C 0.28825 0.20956 0.29966 0.0
C545 C 0.27853 0.31577 0.13868 0.0
C546 C 0.29254 0.30093 0.11164 0.0
C547 C 0.2677 0.30663 0.17717 0.0
C548 C 0.26974 0.28218 0.18841 0.0
C549 C 0.28348 0.26733 0.16065 0.0
C550 C 0.29504 0.27667 0.12317 0.0
C551 C 0.25829 0.272 0.22947 0.0
C552 C 0.27151 0.25662 0.25698 0.0
C553 C 0.23464 0.27688 0.24154 0.0
C554 C 0.21909 0.29208 0.21374 0.0
C555 C 0.21482 0.28629 0.16873 0.0
C556 C 0.20031 0.30089 0.14268 0.0
C557 C 0.18982 0.32122 0.16138 0.0
C558 C 0.19374 0.32693 0.20623 0.0
C559 C 0.20825 0.3124 0.23242 0.0
H560 H 0.1786 0.33251 0.14114 0.0
H561 H 0.31363 0.18346 0.39036 0.0
H562 H 0.69619 0.26945 0.12306 0.0
H563 H 0.71591 0.24299 0.17748 0.0
H564 H 0.7385 0.305 0.25218 0.0
H565 H 0.71926 0.33115 0.1988 0.0
H566 H 0.77363 0.27208 0.24352 0.0
H567 H 0.68987 0.27238 0.28286 0.0
H568 H 0.64826 0.2641 0.26615 0.0
H569 H 0.66454 0.18989 0.24299 0.0
H570 H 0.70631 0.19782 0.25909 0.0
H571 H 0.80552 0.23696 0.4592 0.0
H572 H 0.78663 0.25536 0.39436 0.0
H573 H 0.75602 0.18699 0.35941 0.0
H574 H 0.77341 0.16913 0.42644 0.0
H575 H 0.72645 0.21737 0.33839 0.0
H576 H 0.80807 0.21369 0.30548 0.0
H577 H 0.8505 0.2196 0.31735 0.0
H578 H 0.84051 0.29596 0.32051 0.0
H579 H 0.79797 0.2905 0.30922 0.0
C580 C 0.70557 0.27736 0.15087 0.0
C581 C 0.7059 0.30243 0.1567 0.0
C582 C 0.71673 0.26225 0.18206 0.0
C583 C 0.72855 0.27201 0.21923 0.0
C584 C 0.72953 0.297 0.22395 0.0
C585 C 0.71833 0.31195 0.19334 0.0
C586 C 0.73948 0.25676 0.25451 0.0
C587 C 0.76333 0.26012 0.26437 0.0
C588 C 0.72632 0.24047 0.28072 0.0
C589 C 0.7012 0.23574 0.27173 0.0
C590 C 0.68458 0.25434 0.27396 0.0
C591 C 0.66097 0.2497 0.26463 0.0
C592 C 0.65377 0.2265 0.25339 0.0
C593 C 0.67015 0.20786 0.25162 0.0
C594 C 0.69378 0.21241 0.26087 0.0
C595 C 0.79451 0.22598 0.43793 0.0
C596 C 0.79093 0.20164 0.44784 0.0
C597 C 0.78393 0.23641 0.40041 0.0
C598 C 0.77045 0.22248 0.37064 0.0
C599 C 0.76639 0.19823 0.38136 0.0
C600 C 0.77633 0.188 0.41977 0.0
C601 C 0.76064 0.23319 0.32859 0.0
C602 C 0.73701 0.22896 0.31735 0.0
C603 C 0.77418 0.24829 0.30036 0.0
C604 C 0.7998 0.25166 0.3068 0.0
C605 C 0.8149 0.23174 0.30893 0.0
C606 C 0.83897 0.23501 0.31554 0.0
C607 C 0.84818 0.25814 0.31976 0.0
C608 C 0.83335 0.27805 0.31726 0.0
C609 C 0.80926 0.27488 0.31068 0.0
H610 H 0.86682 0.26063 0.32491 0.0
H611 H 0.63549 0.22295 0.24616 0.0
H612 H 0.82225 0.76767 0.4231 0.0
H613 H 0.80373 0.74111 0.36738 0.0
H614 H 0.74875 0.79321 0.34778 0.0
H615 H 0.76744 0.81982 0.40219 0.0
H616 H 0.7327 0.74433 0.34913 0.0
H617 H 0.79222 0.79481 0.27996 0.0
H618 H 0.83251 0.81033 0.27159 0.0
H619 H 0.8578 0.73892 0.24729 0.0
H620 H 0.81767 0.72294 0.2562 0.0
H621 H 0.68301 0.72725 0.13723 0.0
H622 H 0.70287 0.74332 0.20302 0.0
H623 H 0.75946 0.69292 0.1842 0.0
H624 H 0.73983 0.67707 0.1175 0.0
H625 H 0.77682 0.73492 0.2072 0.0
H626 H 0.71747 0.68442 0.26631 0.0
H627 H 0.67776 0.66766 0.27605 0.0
H628 H 0.65279 0.73611 0.32166 0.0
H629 H 0.69228 0.75339 0.31158 0.0
C630 C 0.80587 0.77305 0.40774 0.0
C631 C 0.79615 0.79567 0.41702 0.0
C632 C 0.79541 0.758 0.37574 0.0
C633 C 0.77492 0.76526 0.35324 0.0
C634 C 0.76448 0.7872 0.36474 0.0
C635 C 0.77515 0.80238 0.39585 0.0
C636 C 0.76522 0.75127 0.31509 0.0
C637 C 0.74229 0.74228 0.31804 0.0
C638 C 0.77797 0.74805 0.27493 0.0
C639 C 0.80203 0.75766 0.26932 0.0
C640 C 0.80642 0.7824 0.27324 0.0
C641 C 0.82921 0.79128 0.26833 0.0
C642 C 0.84772 0.77561 0.25907 0.0
C643 C 0.84346 0.75103 0.25457 0.0
C644 C 0.8207 0.74205 0.25954 0.0
C645 C 0.69974 0.71964 0.14688 0.0
C646 C 0.70978 0.7008 0.12212 0.0
C647 C 0.71102 0.72873 0.18481 0.0
C648 C 0.73248 0.71903 0.19933 0.0
C649 C 0.74287 0.70064 0.17395 0.0
C650 C 0.73163 0.69159 0.13577 0.0
C651 C 0.74399 0.72829 0.24075 0.0
C652 C 0.76727 0.73649 0.23843 0.0
C653 C 0.73163 0.73053 0.2817 0.0
C654 C 0.70781 0.72025 0.28783 0.0
C655 C 0.70347 0.69596 0.27809 0.0
C656 C 0.68101 0.68635 0.28373 0.0
C657 C 0.66276 0.70083 0.29938 0.0
C658 C 0.66694 0.72493 0.30951 0.0
C659 C 0.68937 0.73463 0.30388 0.0
H660 H 0.64538 0.69336 0.30373 0.0
H661 H 0.86535 0.78252 0.25525 0.0
H662 H 0.18432 0.77854 0.42401 0.0
H663 H 0.20576 0.76246 0.35996 0.0
H664 H 0.26523 0.80687 0.39316 0.0
H665 H 0.24391 0.82287 0.4578 0.0
H666 H 0.22354 0.78242 0.2854 0.0
H667 H 0.31533 0.77636 0.36441 0.0
H668 H 0.33376 0.77216 0.43867 0.0
H669 H 0.27251 0.73571 0.48744 0.0
H670 H 0.25388 0.73943 0.41336 0.0
H671 H 0.30417 0.73431 0.1172 0.0
H672 H 0.28656 0.76143 0.17321 0.0
H673 H 0.2822 0.70269 0.26663 0.0
H674 H 0.29958 0.6761 0.21247 0.0
H675 H 0.2994 0.74051 0.30731 0.0
H676 H 0.23414 0.72332 0.2071 0.0
H677 H 0.21392 0.72378 0.13419 0.0
H678 H 0.21904 0.80063 0.12997 0.0
H679 H 0.23954 0.80058 0.20265 0.0
C680 C 0.20202 0.78481 0.41793 0.0
C681 C 0.21246 0.80186 0.44637 0.0
C682 C 0.21419 0.77574 0.38096 0.0
C683 C 0.23714 0.7834 0.37155 0.0
C684 C 0.24762 0.8005 0.39981 0.0
C685 C 0.23543 0.80959 0.43689 0.0
C686 C 0.25024 0.77273 0.33312 0.0
C687 C 0.24024 0.77344 0.29014 0.0
C688 C 0.27204 0.76097 0.33899 0.0
C689 C 0.28312 0.75847 0.38355 0.0
C690 C 0.30584 0.76742 0.39099 0.0
C691 C 0.31631 0.76512 0.43303 0.0
C692 C 0.30427 0.75377 0.4678 0.0
C693 C 0.28178 0.7446 0.46054 0.0
C694 C 0.27124 0.74682 0.41856 0.0
C695 C 0.29944 0.72725 0.1497 0.0
C696 C 0.30356 0.70296 0.1601 0.0
C697 C 0.28935 0.74276 0.18168 0.0
C698 C 0.28316 0.73415 0.22442 0.0
C699 C 0.28706 0.70993 0.23431 0.0
C700 C 0.29703 0.69464 0.20286 0.0
C701 C 0.27249 0.74968 0.25969 0.0
C702 C 0.28298 0.74997 0.30223 0.0
C703 C 0.25096 0.76191 0.25351 0.0
C704 C 0.23861 0.76192 0.20997 0.0
C705 C 0.23111 0.74029 0.19043 0.0
C706 C 0.21957 0.74048 0.1492 0.0
C707 C 0.21527 0.76222 0.12738 0.0
C708 C 0.22243 0.78381 0.14684 0.0
C709 C 0.234 0.78371 0.18805 0.0
H710 H 0.20633 0.76233 0.09547 0.0
H711 H 0.31241 0.75202 0.50032 0.0
H712 H 0.17586 0.80637 0.71514 0.0
H713 H 0.19687 0.7822 0.76963 0.0
H714 H 0.24063 0.75342 0.66508 0.0
H715 H 0.21944 0.77797 0.6095 0.0
H716 H 0.22744 0.71902 0.73611 0.0
H717 H 0.26329 0.79593 0.71828 0.0
H718 H 0.26391 0.84003 0.71165 0.0
H719 H 0.23479 0.84657 0.84345 0.0
H720 H 0.23365 0.80248 0.85058 0.0
H721 H 0.32258 0.72533 0.92648 0.0
H722 H 0.30318 0.74212 0.86085 0.0
H723 H 0.24074 0.70159 0.89149 0.0
H724 H 0.26034 0.68424 0.95686 0.0
H725 H 0.26733 0.7695 0.84978 0.0
H726 H 0.21129 0.6876 0.79514 0.0
H727 H 0.21303 0.64339 0.79784 0.0
H728 H 0.28823 0.6462 0.80465 0.0
H729 H 0.28696 0.69039 0.80136 0.0
C730 C 0.1897 0.79464 0.70335 0.0
C731 C 0.19617 0.79438 0.65793 0.0
C732 C 0.20169 0.78078 0.73469 0.0
C733 C 0.22057 0.7663 0.72164 0.0
C734 C 0.22612 0.76455 0.67589 0.0
C735 C 0.21399 0.77852 0.64416 0.0
C736 C 0.23548 0.75505 0.75679 0.0
C737 C 0.23626 0.72999 0.7609 0.0
C738 C 0.24735 0.76936 0.78873 0.0
C739 C 0.24822 0.79589 0.78481 0.0
C740 C 0.25686 0.80677 0.74572 0.0
C741 C 0.25732 0.83177 0.74189 0.0
C742 C 0.24935 0.84609 0.77708 0.0
C743 C 0.24094 0.83545 0.81621 0.0
C744 C 0.2404 0.81045 0.82018 0.0
C745 C 0.30467 0.72005 0.91948 0.0
C746 C 0.29303 0.70342 0.94706 0.0
C747 C 0.29358 0.72966 0.88177 0.0
C748 C 0.27056 0.72292 0.87056 0.0
C749 C 0.25867 0.70674 0.8987 0.0
C750 C 0.26982 0.69701 0.9364 0.0
C751 C 0.25896 0.7333 0.83007 0.0
C752 C 0.25871 0.75836 0.825 0.0
C753 C 0.24802 0.71891 0.7969 0.0
C754 C 0.24899 0.69232 0.79845 0.0
C755 C 0.2282 0.67878 0.79704 0.0
C756 C 0.2291 0.65372 0.7987 0.0
C757 C 0.25072 0.642 0.80156 0.0
C758 C 0.27149 0.6553 0.80261 0.0
C759 C 0.27069 0.68036 0.8009 0.0
H760 H 0.25138 0.6226 0.80288 0.0
H761 H 0.24972 0.86544 0.77405 0.0
H762 H 0.33776 0.29021 0.8563 0.0
H763 H 0.31849 0.26613 0.79878 0.0
H764 H 0.25506 0.26505 0.87751 0.0
H765 H 0.27491 0.28823 0.93639 0.0
H766 H 0.25786 0.22472 0.83284 0.0
H767 H 0.26432 0.30707 0.79256 0.0
H768 H 0.28405 0.34583 0.77966 0.0
H769 H 0.3269 0.31369 0.67791 0.0
H770 H 0.30765 0.27462 0.69067 0.0
H771 H 0.17985 0.21599 0.64348 0.0
H772 H 0.20165 0.23239 0.70706 0.0
H773 H 0.26666 0.20975 0.64683 0.0
H774 H 0.24487 0.19257 0.58351 0.0
H775 H 0.26262 0.26129 0.68184 0.0
H776 H 0.25246 0.17809 0.72404 0.0
H777 H 0.22916 0.14154 0.73755 0.0
H778 H 0.18841 0.17877 0.83638 0.0
H779 H 0.21125 0.21569 0.82292 0.0
C780 C 0.31993 0.28417 0.86191 0.0
C781 C 0.30782 0.291 0.90076 0.0
C782 C 0.30881 0.27064 0.82878 0.0
C783 C 0.28502 0.26439 0.83294 0.0
C784 C 0.27335 0.26978 0.87322 0.0
C785 C 0.28471 0.28292 0.90698 0.0
C786 C 0.2721 0.25387 0.79407 0.0
C787 C 0.25878 0.23288 0.79999 0.0
C788 C 0.27316 0.26438 0.75087 0.0
C789 C 0.28471 0.28787 0.74289 0.0
C790 C 0.27807 0.30823 0.76765 0.0
C791 C 0.28915 0.33026 0.76034 0.0
C792 C 0.30676 0.33221 0.72807 0.0
C793 C 0.31328 0.31214 0.70295 0.0
C794 C 0.30228 0.29005 0.71018 0.0
C795 C 0.1988 0.2146 0.64357 0.0
C796 C 0.21065 0.20303 0.60834 0.0
C797 C 0.21121 0.22387 0.68008 0.0
C798 C 0.23574 0.22216 0.68179 0.0
C799 C 0.24771 0.21118 0.64619 0.0
C800 C 0.23526 0.20141 0.61006 0.0
C801 C 0.24881 0.23208 0.72065 0.0
C802 C 0.26195 0.25309 0.7147 0.0
C803 C 0.24709 0.22192 0.76388 0.0
C804 C 0.23339 0.19973 0.7721 0.0
C805 C 0.23837 0.17856 0.74831 0.0
C806 C 0.22528 0.15776 0.75604 0.0
C807 C 0.20727 0.15785 0.78771 0.0
C808 C 0.20235 0.17874 0.81181 0.0
C809 C 0.21537 0.1996 0.80416 0.0
H810 H 0.19716 0.14172 0.79366 0.0
H811 H 0.31532 0.34928 0.72245 0.0
H812 H 0.73812 0.32799 0.94314 0.0
H813 H 0.75752 0.3108 0.87761 0.0
H814 H 0.70613 0.25397 0.87408 0.0
H815 H 0.6862 0.27161 0.93855 0.0
H816 H 0.77899 0.27159 0.86153 0.0
H817 H 0.69677 0.23347 0.77362 0.0
H818 H 0.65478 0.24324 0.76485 0.0
H819 H 0.66983 0.31793 0.78557 0.0
H820 H 0.7119 0.30859 0.79433 0.0
H821 H 0.80725 0.17775 0.71897 0.0
H822 H 0.78894 0.20429 0.77253 0.0
H823 H 0.77189 0.25409 0.66723 0.0
H824 H 0.7903 0.22708 0.61211 0.0
H825 H 0.73469 0.2471 0.7262 0.0
H826 H 0.81527 0.26801 0.73735 0.0
H827 H 0.85783 0.26088 0.74367 0.0
H828 H 0.84755 0.2267 0.87076 0.0
H829 H 0.80488 0.23331 0.86492 0.0
C830 C 0.73098 0.31178 0.92849 0.0
C831 C 0.71057 0.3012 0.94608 0.0
C832 C 0.74208 0.30197 0.89088 0.0
C833 C 0.73311 0.28129 0.87007 0.0
C834 C 0.7131 0.27031 0.8885 0.0
C835 C 0.70182 0.28027 0.92576 0.0
C836 C 0.74503 0.27085 0.82997 0.0
C837 C 0.76927 0.26639 0.83191 0.0
C838 C 0.73262 0.26451 0.79058 0.0
C839 C 0.70743 0.27031 0.78483 0.0
C840 C 0.69111 0.25198 0.7761 0.0
C841 C 0.6673 0.25744 0.77125 0.0
C842 C 0.65964 0.28119 0.77472 0.0
C843 C 0.67578 0.29953 0.78302 0.0
C844 C 0.69959 0.29416 0.78804 0.0
C845 C 0.79969 0.19431 0.70666 0.0
C846 C 0.80038 0.20019 0.66082 0.0
C847 C 0.78927 0.20959 0.73769 0.0
C848 C 0.77928 0.23136 0.72419 0.0
C849 C 0.7796 0.2374 0.67848 0.0
C850 C 0.79021 0.222 0.64704 0.0
C851 C 0.76842 0.24729 0.75851 0.0
C852 C 0.74442 0.25266 0.75559 0.0
C853 C 0.78113 0.25492 0.79667 0.0
C854 C 0.80683 0.25106 0.80056 0.0
C855 C 0.82206 0.25884 0.76652 0.0
C856 C 0.84621 0.25491 0.77004 0.0
C857 C 0.85539 0.24332 0.80757 0.0
C858 C 0.84042 0.23568 0.84171 0.0
C859 C 0.81625 0.23955 0.83834 0.0
H860 H 0.87409 0.24028 0.81022 0.0
H861 H 0.64121 0.28537 0.77094 0.0
H862 H 0.7346 0.68285 0.89783 0.0
H863 H 0.75369 0.70965 0.84442 0.0
H864 H 0.70193 0.76414 0.87177 0.0
H865 H 0.68295 0.7373 0.92652 0.0
H866 H 0.70775 0.75173 0.77849 0.0
H867 H 0.75453 0.77613 0.90251 0.0
H868 H 0.77933 0.77044 0.96917 0.0
H869 H 0.83055 0.73324 0.88997 0.0
H870 H 0.8059 0.73838 0.82291 0.0
H871 H 0.76559 0.82853 0.62158 0.0
H872 H 0.74609 0.81226 0.68783 0.0
H873 H 0.80047 0.75882 0.70042 0.0
H874 H 0.82039 0.7755 0.63511 0.0
H875 H 0.79143 0.77617 0.77905 0.0
H876 H 0.74366 0.74635 0.6587 0.0
H877 H 0.7189 0.74918 0.59131 0.0
H878 H 0.6698 0.79349 0.66233 0.0
H879 H 0.69444 0.79116 0.73002 0.0
C880 C 0.72765 0.70079 0.89334 0.0
C881 C 0.70743 0.70811 0.91649 0.0
C882 C 0.73855 0.71607 0.86277 0.0
C883 C 0.72926 0.7389 0.85408 0.0
C884 C 0.70942 0.74661 0.87811 0.0
C885 C 0.69873 0.7314 0.90959 0.0
C886 C 0.73945 0.75359 0.81736 0.0
C887 C 0.72589 0.75763 0.77894 0.0
C888 C 0.76331 0.76058 0.81747 0.0
C889 C 0.77827 0.75751 0.8577 0.0
C890 C 0.771 0.76656 0.89935 0.0
C891 C 0.78505 0.76347 0.93721 0.0
C892 C 0.80648 0.75145 0.93382 0.0
C893 C 0.81394 0.74254 0.89254 0.0
C894 C 0.79995 0.74557 0.85458 0.0
C895 C 0.77331 0.8132 0.63828 0.0
C896 C 0.79451 0.80326 0.62291 0.0
C897 C 0.76209 0.80386 0.67618 0.0
C898 C 0.77163 0.78411 0.69913 0.0
C899 C 0.79274 0.77409 0.68355 0.0
C900 C 0.80406 0.78357 0.64597 0.0
C901 C 0.75987 0.77395 0.73959 0.0
C902 C 0.77318 0.77067 0.7787 0.0
C903 C 0.73583 0.76736 0.7399 0.0
C904 C 0.72103 0.76882 0.69924 0.0
C905 C 0.72768 0.75686 0.65983 0.0
C906 C 0.71365 0.75834 0.6216 0.0
C907 C 0.69283 0.77157 0.62249 0.0
C908 C 0.68596 0.78329 0.66166 0.0
C909 C 0.69994 0.78189 0.69997 0.0
H910 H 0.68199 0.77269 0.59287 0.0
H911 H 0.81734 0.74907 0.96317 0.0
loop_
_geom_bond_atom_site_label_1
_geom_bond_atom_site_label_2
_geom_bond_distance
_geom_bond_site_symmetry_2
_ccdc_geom_bond_type
Co0 O1 2.216 . S
Co0 O2 2.091 . S
Co0 O4 2.004 . S
Co0 O10 2.021 . S
Co0 O12 2.137 . S
Co0 O13 2.244 . S
O1 Co0 2.216 . S
O1 C8 1.247 . S
O2 Co0 2.091 . S
O2 C8 1.261 . S
C3 O12 1.247 . S
C3 O13 1.272 . S
O4 Co0 2.004 . S
O4 C9 1.259 . S
Co5 O6 2.061 . S
Co5 O11 2.052 . S
Co5 O13 2.135 1_556 S
O6 Co5 2.061 . S
O6 C9 1.235 1_556 S
C7 O10 1.238 1_556 S
C7 O11 1.241 . S
C8 O1 1.247 . S
C8 O2 1.261 . S
C9 O4 1.259 . S
C9 O6 1.235 1_554 S
O10 Co0 2.021 . S
O10 C7 1.238 1_554 S
O11 Co5 2.052 . S
O11 C7 1.241 . S
O12 Co0 2.137 . S
O12 C3 1.247 . S
O13 Co0 2.244 . S
O13 C3 1.272 . S
O13 Co5 2.135 1_554 S
Co14 O15 2.216 . S
Co14 O16 2.091 . S
Co14 O18 2.004 1_556 S
Co14 O24 2.021 1_556 S
Co14 O26 2.137 . S
Co14 O27 2.244 1_556 S
O15 Co14 2.216 . S
O15 C22 1.247 . S
O16 Co14 2.091 . S
O16 C22 1.261 . S
C17 O26 1.247 1_554 S
C17 O27 1.272 . S
O18 Co14 2.004 1_554 S
O18 C23 1.259 . S
Co19 O20 2.061 . S
Co19 O25 2.052 . S
Co19 O27 2.135 . S
O20 Co19 2.061 . S
O20 C23 1.235 . S
C21 O24 1.238 . S
C21 O25 1.241 . S
C22 O15 1.247 . S
C22 O16 1.261 . S
C23 O18 1.259 . S
C23 O20 1.235 . S
O24 Co14 2.021 1_554 S
O24 C21 1.238 . S
O25 Co19 2.052 . S
O25 C21 1.241 . S
O26 Co14 2.137 . S
O26 C17 1.247 1_556 S
O27 Co14 2.244 1_554 S
O27 C17 1.272 . S
O27 Co19 2.135 . S
Co28 O29 2.216 . S
Co28 O30 2.091 . S
Co28 O32 2.004 . S
Co28 O38 2.021 . S
Co28 O40 2.137 . S
Co28 O41 2.244 . S
O29 Co28 2.216 . S
O29 C36 1.247 . S
O30 Co28 2.091 . S
O30 C36 1.261 . S
C31 O40 1.247 . S
C31 O41 1.272 . S
O32 Co28 2.004 . S
O32 C37 1.259 . S
Co33 O34 2.061 . S
Co33 O39 2.052 . S
Co33 O41 2.135 1_556 S
O34 Co33 2.061 . S
O34 C37 1.235 1_556 S
C35 O38 1.238 1_556 S
C35 O39 1.241 . S
C36 O29 1.247 . S
C36 O30 1.261 . S
C37 O32 1.259 . S
C37 O34 1.235 1_554 S
O38 Co28 2.021 . S
O38 C35 1.238 1_554 S
O39 Co33 2.052 . S
O39 C35 1.241 . S
O40 Co28 2.137 . S
O40 C31 1.247 . S
O41 Co28 2.244 . S
O41 C31 1.272 . S
O41 Co33 2.135 1_554 S
Co42 O43 2.216 . S
Co42 O44 2.091 . S
Co42 O46 2.004 1_556 S
Co42 O52 2.021 1_556 S
Co42 O54 2.137 . S
Co42 O55 2.244 1_556 S
O43 Co42 2.216 . S
O43 C50 1.247 . S
O44 Co42 2.091 . S
O44 C50 1.261 . S
C45 O54 1.247 1_554 S
C45 O55 1.272 . S
O46 Co42 2.004 1_554 S
O46 C51 1.259 . S
Co47 O48 2.061 . S
Co47 O53 2.052 . S
Co47 O55 2.135 . S
O48 Co47 2.061 . S
O48 C51 1.235 . S
C49 O52 1.238 . S
C49 O53 1.241 . S
C50 O43 1.247 . S
C50 O44 1.261 . S
C51 O46 1.259 . S
C51 O48 1.235 . S
O52 Co42 2.021 1_554 S
O52 C49 1.238 . S
O53 Co47 2.052 . S
O53 C49 1.241 . S
O54 Co42 2.137 . S
O54 C45 1.247 1_556 S
O55 Co42 2.244 1_554 S
O55 C45 1.272 . S
O55 Co47 2.135 . S
Co56 O57 2.216 . S
Co56 O58 2.091 . S
Co56 O60 2.004 . S
Co56 O66 2.021 . S
Co56 O68 2.137 . S
Co56 O69 2.244 . S
O57 Co56 2.216 . S
O57 C64 1.247 . S
O58 Co56 2.091 . S
O58 C64 1.261 . S
C59 O68 1.247 . S
C59 O69 1.272 . S
O60 Co56 2.004 . S
O60 C65 1.259 . S
Co61 O62 2.061 . S
Co61 O67 2.052 . S
Co61 O69 2.135 . S
O62 Co61 2.061 . S
O62 C65 1.235 . S
C63 O66 1.238 . S
C63 O67 1.241 . S
C64 O57 1.247 . S
C64 O58 1.261 . S
C65 O60 1.259 . S
C65 O62 1.235 . S
O66 Co56 2.021 . S
O66 C63 1.238 . S
O67 Co61 2.052 . S
O67 C63 1.241 . S
O68 Co56 2.137 . S
O68 C59 1.247 . S
O69 Co56 2.244 . S
O69 C59 1.272 . S
O69 Co61 2.135 . S
Co70 O71 2.216 . S
Co70 O72 2.091 . S
Co70 O74 2.004 . S
Co70 O80 2.021 . S
Co70 O82 2.137 . S
Co70 O83 2.244 . S
O71 Co70 2.216 . S
O71 C78 1.247 . S
O72 Co70 2.091 . S
O72 C78 1.261 . S
C73 O82 1.247 . S
C73 O83 1.272 . S
O74 Co70 2.004 . S
O74 C79 1.259 . S
Co75 O76 2.061 . S
Co75 O81 2.052 . S
Co75 O83 2.135 . S
O76 Co75 2.061 . S
O76 C79 1.235 . S
C77 O80 1.238 . S
C77 O81 1.241 . S
C78 O71 1.247 . S
C78 O72 1.261 . S
C79 O74 1.259 . S
C79 O76 1.235 . S
O80 Co70 2.021 . S
O80 C77 1.238 . S
O81 Co75 2.052 . S
O81 C77 1.241 . S
O82 Co70 2.137 . S
O82 C73 1.247 . S
O83 Co70 2.244 . S
O83 C73 1.272 . S
O83 Co75 2.135 . S
Co84 O85 2.216 . S
Co84 O86 2.091 . S
Co84 O88 2.004 . S
Co84 O94 2.021 . S
Co84 O96 2.137 . S
Co84 O97 2.244 . S
O85 Co84 2.216 . S
O85 C92 1.247 . S
O86 Co84 2.091 . S
O86 C92 1.261 . S
C87 O96 1.247 . S
C87 O97 1.272 . S
O88 Co84 2.004 . S
O88 C93 1.259 . S
Co89 O90 2.061 . S
Co89 O95 2.052 . S
Co89 O97 2.135 . S
O90 Co89 2.061 . S
O90 C93 1.235 . S
C91 O94 1.238 . S
C91 O95 1.241 . S
C92 O85 1.247 . S
C92 O86 1.261 . S
C93 O88 1.259 . S
C93 O90 1.235 . S
O94 Co84 2.021 . S
O94 C91 1.238 . S
O95 Co89 2.052 . S
O95 C91 1.241 . S
O96 Co84 2.137 . S
O96 C87 1.247 . S
O97 Co84 2.244 . S
O97 C87 1.272 . S
O97 Co89 2.135 . S
Co98 O99 2.216 . S
Co98 O100 2.091 . S
Co98 O102 2.004 . S
Co98 O108 2.021 . S
Co98 O110 2.137 . S
Co98 O111 2.244 . S
O99 Co98 2.216 . S
O99 C106 1.247 . S
O100 Co98 2.091 . S
O100 C106 1.261 . S
C101 O110 1.247 . S
C101 O111 1.272 . S
O102 Co98 2.004 . S
O102 C107 1.259 . S
Co103 O104 2.061 . S
Co103 O109 2.052 . S
Co103 O111 2.135 . S
O104 Co103 2.061 . S
O104 C107 1.235 . S
C105 O108 1.238 . S
C105 O109 1.241 . S
C106 O99 1.247 . S
C106 O100 1.261 . S
C107 O102 1.259 . S
C107 O104 1.235 . S
O108 Co98 2.021 . S
O108 C105 1.238 . S
O109 Co103 2.052 . S
O109 C105 1.241 . S
O110 Co98 2.137 . S
O110 C101 1.247 . S
O111 Co98 2.244 . S
O111 C101 1.272 . S
O111 Co103 2.135 . S
H112 C130 0.951 . S
H113 C132 0.951 . S
H114 C134 0.950 . S
H115 C135 0.950 1_556 S
H116 C137 0.940 1_556 S
H117 C140 0.950 . S
H118 C141 0.950 . S
H119 C143 0.950 . S
H120 C144 0.950 . S
H121 C145 0.951 . S
H122 C147 0.951 . S
H123 C149 0.950 . S
H124 C150 0.950 . S
H125 C152 0.950 . S
H126 C155 0.950 1_554 S
H127 C156 0.950 . S
H128 C158 0.950 . S
H129 C159 0.950 . S
C130 H112 0.951 . S
C130 C131 1.366 . S
C130 C132 1.388 . S
C131 C130 1.366 . S
C131 C135 1.385 . S
C132 H113 0.951 . S
C132 C130 1.388 . S
C132 C133 1.366 . S
C133 C132 1.366 . S
C133 C134 1.414 1_554 S
C133 C136 1.499 . S
C134 H114 0.950 . S
C134 C133 1.414 1_556 S
C134 C135 1.374 1_556 S
C135 H115 0.950 1_554 S
C135 C131 1.385 . S
C135 C134 1.374 1_554 S
C136 C133 1.499 . S
C136 C137 1.385 . S
C136 C138 1.389 . S
C137 H116 0.940 1_554 S
C137 C136 1.385 . S
C137 C153 1.375 1_554 S
C138 C136 1.389 . S
C138 C139 1.524 . S
C138 C152 1.377 . S
C139 C138 1.524 . S
C139 C140 1.397 . S
C139 C144 1.363 . S
C140 H117 0.950 . S
C140 C139 1.397 . S
C140 C141 1.334 . S
C141 H118 0.950 . S
C141 C140 1.334 . S
C141 C142 1.287 . S
C142 C141 1.287 . S
C142 C143 1.524 . S
C142 H161 0.913 . S
C143 H119 0.950 . S
C143 C142 1.524 . S
C143 C144 1.415 . S
C144 H120 0.950 . S
C144 C139 1.363 . S
C144 C143 1.415 . S
C145 H121 0.951 . S
C145 C146 1.366 1_556 S
C145 C147 1.388 . S
C146 C145 1.366 1_554 S
C146 C150 1.385 . S
C147 H122 0.951 . S
C147 C145 1.388 . S
C147 C148 1.366 1_556 S
C148 C147 1.366 1_554 S
C148 C149 1.414 . S
C148 C151 1.499 . S
C149 H123 0.950 . S
C149 C148 1.414 . S
C149 C150 1.374 . S
C150 H124 0.950 . S
C150 C146 1.385 . S
C150 C149 1.374 . S
C151 C148 1.499 . S
C151 C152 1.373 . S
C151 C153 1.389 1_554 S
C152 H125 0.950 . S
C152 C138 1.377 . S
C152 C151 1.373 . S
C153 C137 1.375 1_556 S
C153 C151 1.389 1_556 S
C153 C154 1.524 . S
C154 C153 1.524 . S
C154 C155 1.397 . S
C154 C159 1.363 . S
C155 H126 0.950 1_556 S
C155 C154 1.397 . S
C155 C156 1.334 . S
C156 H127 0.950 . S
C156 C155 1.334 . S
C156 C157 1.287 . S
C157 C156 1.287 . S
C157 C158 1.524 . S
C157 H160 0.999 . S
C158 H128 0.950 . S
C158 C157 1.524 . S
C158 C159 1.415 . S
C159 H129 0.950 . S
C159 C154 1.363 . S
C159 C158 1.415 . S
H160 C157 0.999 . S
H161 C142 0.913 . S
H162 C180 0.951 . S
H163 C182 0.951 . S
H164 C184 0.950 . S
H165 C185 0.950 . S
H166 C187 0.950 . S
H167 C190 0.950 . S
H168 C191 0.950 . S
H169 C193 0.950 . S
H170 C194 0.950 . S
H171 C195 0.951 . S
H172 C197 0.951 . S
H173 C199 0.950 . S
H174 C200 0.950 . S
H175 C202 0.950 . S
H176 C205 0.950 . S
H177 C206 0.950 . S
H178 C208 0.950 . S
H179 C209 0.950 . S
C180 H162 0.951 . S
C180 C181 1.366 . S
C180 C182 1.388 . S
C181 C180 1.366 . S
C181 C185 1.385 . S
C182 H163 0.951 . S
C182 C180 1.388 . S
C182 C183 1.366 . S
C183 C182 1.366 . S
C183 C184 1.414 . S
C183 C186 1.499 . S
C184 H164 0.950 . S
C184 C183 1.414 . S
C184 C185 1.374 . S
C185 H165 0.950 . S
C185 C181 1.385 . S
C185 C184 1.374 . S
C186 C183 1.499 . S
C186 C187 1.373 1_554 S
C186 C188 1.389 . S
C187 H166 0.950 . S
C187 C186 1.373 1_556 S
C187 C203 1.377 . S
C188 C186 1.389 . S
C188 C189 1.524 . S
C188 C202 1.377 . S
C189 C188 1.524 . S
C189 C190 1.397 . S
C189 C194 1.363 . S
C190 H167 0.950 . S
C190 C189 1.397 . S
C190 C191 1.334 . S
C191 H168 0.950 . S
C191 C190 1.334 . S
C191 C192 1.287 . S
C192 C191 1.287 . S
C192 C193 1.524 . S
C192 H211 0.913 . S
C193 H169 0.950 . S
C193 C192 1.524 . S
C193 C194 1.415 . S
C194 H170 0.950 . S
C194 C189 1.363 . S
C194 C193 1.415 . S
C195 H171 0.951 . S
C195 C196 1.366 . S
C195 C197 1.388 . S
C196 C195 1.366 . S
C196 C200 1.385 . S
C197 H172 0.951 . S
C197 C195 1.388 . S
C197 C198 1.366 . S
C198 C197 1.366 . S
C198 C199 1.414 . S
C198 C201 1.499 . S
C199 H173 0.950 . S
C199 C198 1.414 . S
C199 C200 1.374 . S
C200 H174 0.950 . S
C200 C196 1.385 . S
C200 C199 1.374 . S
C201 C198 1.499 . S
C201 C202 1.373 . S
C201 C203 1.389 1_554 S
C202 H175 0.950 . S
C202 C188 1.377 . S
C202 C201 1.373 . S
C203 C187 1.377 . S
C203 C201 1.389 1_556 S
C203 C204 1.524 . S
C204 C203 1.524 . S
C204 C205 1.397 . S
C204 C209 1.363 . S
C205 H176 0.950 . S
C205 C204 1.397 . S
C205 C206 1.334 . S
C206 H177 0.950 . S
C206 C205 1.334 . S
C206 C207 1.287 . S
C207 C206 1.287 . S
C207 C208 1.524 . S
C207 H210 0.999 . S
C208 H178 0.950 . S
C208 C207 1.524 . S
C208 C209 1.415 . S
C209 H179 0.950 . S
C209 C204 1.363 . S
C209 C208 1.415 . S
H210 C207 0.999 . S
H211 C192 0.913 . S
H212 C230 0.951 . S
H213 C232 0.951 . S
H214 C234 0.950 . S
H215 C235 0.950 . S
H216 C237 0.950 . S
H217 C240 0.950 . S
H218 C241 0.950 . S
H219 C243 0.950 . S
H220 C244 0.950 . S
H221 C245 0.951 1_556 S
H222 C247 0.951 1_556 S
H223 C249 0.950 . S
H224 C250 0.950 . S
H225 C252 0.950 . S
H226 C255 0.950 . S
H227 C256 0.950 . S
H228 C258 0.950 . S
H229 C259 0.950 . S
C230 H212 0.951 . S
C230 C231 1.366 . S
C230 C232 1.388 . S
C231 C230 1.366 . S
C231 C235 1.385 1_554 S
C232 H213 0.951 . S
C232 C230 1.388 . S
C232 C233 1.366 . S
C233 C232 1.366 . S
C233 C234 1.414 1_554 S
C233 C236 1.499 . S
C234 H214 0.950 . S
C234 C233 1.414 1_556 S
C234 C235 1.374 . S
C235 H215 0.950 . S
C235 C231 1.385 1_556 S
C235 C234 1.374 . S
C236 C233 1.499 . S
C236 C237 1.373 1_554 S
C236 C238 1.389 . S
C237 H216 0.950 . S
C237 C236 1.373 1_556 S
C237 C253 1.377 . S
C238 C236 1.389 . S
C238 C239 1.524 . S
C238 C252 1.377 . S
C239 C238 1.524 . S
C239 C240 1.397 . S
C239 C244 1.363 . S
C240 H217 0.950 . S
C240 C239 1.397 . S
C240 C241 1.334 . S
C241 H218 0.950 . S
C241 C240 1.334 . S
C241 C242 1.287 . S
C242 C241 1.287 . S
C242 C243 1.524 . S
C242 H261 0.913 . S
C243 H219 0.950 . S
C243 C242 1.524 . S
C243 C244 1.415 . S
C244 H220 0.950 . S
C244 C239 1.363 . S
C244 C243 1.415 . S
C245 H221 0.951 1_554 S
C245 C246 1.366 . S
C245 C247 1.388 . S
C246 C245 1.366 . S
C246 C250 1.385 . S
C247 H222 0.951 1_554 S
C247 C245 1.388 . S
C247 C248 1.366 . S
C248 C247 1.366 . S
C248 C249 1.414 . S
C248 C251 1.499 . S
C249 H223 0.950 . S
C249 C248 1.414 . S
C249 C250 1.374 . S
C250 H224 0.950 . S
C250 C246 1.385 . S
C250 C249 1.374 . S
C251 C248 1.499 . S
C251 C252 1.373 . S
C251 C253 1.389 1_554 S
C252 H225 0.950 . S
C252 C238 1.377 . S
C252 C251 1.373 . S
C253 C237 1.377 . S
C253 C251 1.389 1_556 S
C253 C254 1.524 . S
C254 C253 1.524 . S
C254 C255 1.397 . S
C254 C259 1.363 . S
C255 H226 0.950 . S
C255 C254 1.397 . S
C255 C256 1.334 . S
C256 H227 0.950 . S
C256 C255 1.334 . S
C256 C257 1.287 . S
C257 C256 1.287 . S
C257 C258 1.524 . S
C257 H260 0.999 . S
C258 H228 0.950 . S
C258 C257 1.524 . S
C258 C259 1.415 . S
C259 H229 0.950 . S
C259 C254 1.363 . S
C259 C258 1.415 . S
H260 C257 0.999 . S
H261 C242 0.913 . S
H262 C280 0.951 . S
H263 C282 0.951 . S
H264 C284 0.950 . S
H265 C285 0.950 . S
H266 C287 0.950 . S
H267 C290 0.950 . S
H268 C291 0.950 . S
H269 C293 0.950 . S
H270 C294 0.950 . S
H271 C295 0.951 . S
H272 C297 0.951 . S
H273 C299 0.950 . S
H274 C300 0.950 . S
H275 C302 0.950 . S
H276 C305 0.950 1_556 S
H277 C306 0.950 1_556 S
H278 C308 0.950 . S
H279 C309 0.950 . S
C280 H262 0.951 . S
C280 C281 1.366 1_556 S
C280 C282 1.388 . S
C281 C280 1.366 1_554 S
C281 C285 1.385 . S
C282 H263 0.951 . S
C282 C280 1.388 . S
C282 C283 1.366 1_556 S
C283 C282 1.366 1_554 S
C283 C284 1.414 . S
C283 C286 1.499 . S
C284 H264 0.950 . S
C284 C283 1.414 . S
C284 C285 1.374 . S
C285 H265 0.950 . S
C285 C281 1.385 . S
C285 C284 1.374 . S
C286 C283 1.499 . S
C286 C287 1.373 . S
C286 C288 1.389 . S
C287 H266 0.950 . S
C287 C286 1.373 . S
C287 C303 1.377 . S
C288 C286 1.389 . S
C288 C289 1.524 . S
C288 C302 1.377 . S
C289 C288 1.524 . S
C289 C290 1.397 . S
C289 C294 1.363 1_554 S
C290 H267 0.950 . S
C290 C289 1.397 . S
C290 C291 1.334 . S
C291 H268 0.950 . S
C291 C290 1.334 . S
C291 C292 1.287 . S
C292 C291 1.287 . S
C292 C293 1.524 1_554 S
C292 H311 0.913 . S
C293 H269 0.950 . S
C293 C292 1.524 1_556 S
C293 C294 1.415 . S
C294 H270 0.950 . S
C294 C289 1.363 1_556 S
C294 C293 1.415 . S
C295 H271 0.951 . S
C295 C296 1.366 . S
C295 C297 1.388 . S
C296 C295 1.366 . S
C296 C300 1.385 1_554 S
C297 H272 0.951 . S
C297 C295 1.388 . S
C297 C298 1.366 . S
C298 C297 1.366 . S
C298 C299 1.414 1_554 S
C298 C301 1.499 . S
C299 H273 0.950 . S
C299 C298 1.414 1_556 S
C299 C300 1.374 . S
C300 H274 0.950 . S
C300 C296 1.385 1_556 S
C300 C299 1.374 . S
C301 C298 1.499 . S
C301 C302 1.373 . S
C301 C303 1.389 . S
C302 H275 0.950 . S
C302 C288 1.377 . S
C302 C301 1.373 . S
C303 C287 1.377 . S
C303 C301 1.389 . S
C303 C304 1.524 . S
C304 C303 1.524 . S
C304 C305 1.397 . S
C304 C309 1.363 . S
C305 H276 0.950 1_554 S
C305 C304 1.397 . S
C305 C306 1.334 . S
C306 H277 0.950 1_554 S
C306 C305 1.334 . S
C306 C307 1.287 . S
C307 C306 1.287 . S
C307 C308 1.524 . S
C307 H310 0.999 . S
C308 H278 0.950 . S
C308 C307 1.524 . S
C308 C309 1.415 . S
C309 H279 0.950 . S
C309 C304 1.363 . S
C309 C308 1.415 . S
H310 C307 0.999 . S
H311 C292 0.913 . S
H312 C330 0.951 . S
H313 C332 0.951 . S
H314 C334 0.950 . S
H315 C335 0.950 . S
H316 C337 0.950 . S
H317 C340 0.950 . S
H318 C341 0.950 . S
H319 C343 0.950 . S
H320 C344 0.950 . S
H321 C345 0.951 . S
H322 C347 0.951 . S
H323 C349 0.950 . S
H324 C350 0.950 . S
H325 C352 0.950 . S
H326 C355 0.950 . S
H327 C356 0.950 . S
H328 C358 0.950 . S
H329 C359 0.950 . S
C330 H312 0.951 . S
C330 C331 1.366 . S
C330 C332 1.388 . S
C331 C330 1.366 . S
C331 C335 1.385 . S
C332 H313 0.951 . S
C332 C330 1.388 . S
C332 C333 1.366 . S
C333 C332 1.366 . S
C333 C334 1.414 . S
C333 C336 1.499 . S
C334 H314 0.950 . S
C334 C333 1.414 . S
C334 C335 1.374 . S
C335 H315 0.950 . S
C335 C331 1.385 . S
C335 C334 1.374 . S
C336 C333 1.499 . S
C336 C337 1.373 . S
C336 C338 1.389 . S
C337 H316 0.950 . S
C337 C336 1.373 . S
C337 C353 1.377 1_565 S
C338 C336 1.389 . S
C338 C339 1.524 . S
C338 C352 1.377 1_565 S
C339 C338 1.524 . S
C339 C340 1.397 . S
C339 C344 1.363 . S
C340 H317 0.950 . S
C340 C339 1.397 . S
C340 C341 1.334 . S
C341 H318 0.950 . S
C341 C340 1.334 . S
C341 C342 1.287 . S
C342 C341 1.287 . S
C342 C343 1.524 . S
C342 H361 0.913 . S
C343 H319 0.950 . S
C343 C342 1.524 . S
C343 C344 1.415 . S
C344 H320 0.950 . S
C344 C339 1.363 . S
C344 C343 1.415 . S
C345 H321 0.951 . S
C345 C346 1.366 . S
C345 C347 1.388 . S
C346 C345 1.366 . S
C346 C350 1.385 . S
C347 H322 0.951 . S
C347 C345 1.388 . S
C347 C348 1.366 . S
C348 C347 1.366 . S
C348 C349 1.414 . S
C348 C351 1.499 . S
C349 H323 0.950 . S
C349 C348 1.414 . S
C349 C350 1.374 . S
C350 H324 0.950 . S
C350 C346 1.385 . S
C350 C349 1.374 . S
C351 C348 1.499 . S
C351 C352 1.373 . S
C351 C353 1.389 . S
C352 H325 0.950 . S
C352 C338 1.377 1_545 S
C352 C351 1.373 . S
C353 C337 1.377 1_545 S
C353 C351 1.389 . S
C353 C354 1.524 . S
C354 C353 1.524 . S
C354 C355 1.397 . S
C354 C359 1.363 . S
C355 H326 0.950 . S
C355 C354 1.397 . S
C355 C356 1.334 . S
C356 H327 0.950 . S
C356 C355 1.334 . S
C356 C357 1.287 . S
C357 C356 1.287 . S
C357 C358 1.524 . S
C357 H360 0.999 . S
C358 H328 0.950 . S
C358 C357 1.524 . S
C358 C359 1.415 . S
C359 H329 0.950 . S
C359 C354 1.363 . S
C359 C358 1.415 . S
H360 C357 0.999 . S
H361 C342 0.913 . S
H362 C380 0.951 . S
H363 C382 0.951 . S
H364 C384 0.950 . S
H365 C385 0.950 . S
H366 C387 0.950 . S
H367 C390 0.950 . S
H368 C391 0.950 . S
H369 C393 0.950 . S
H370 C394 0.950 . S
H371 C395 0.951 . S
H372 C397 0.951 . S
H373 C399 0.950 . S
H374 C400 0.950 . S
H375 C402 0.950 . S
H376 C405 0.950 . S
H377 C406 0.950 . S
H378 C408 0.950 . S
H379 C409 0.950 . S
C380 H362 0.951 . S
C380 C381 1.366 . S
C380 C382 1.388 . S
C381 C380 1.366 . S
C381 C385 1.385 . S
C382 H363 0.951 . S
C382 C380 1.388 . S
C382 C383 1.366 . S
C383 C382 1.366 . S
C383 C384 1.414 . S
C383 C386 1.499 . S
C384 H364 0.950 . S
C384 C383 1.414 . S
C384 C385 1.374 . S
C385 H365 0.950 . S
C385 C381 1.385 . S
C385 C384 1.374 . S
C386 C383 1.499 . S
C386 C387 1.373 . S
C386 C388 1.389 . S
C387 H366 0.950 . S
C387 C386 1.373 . S
C387 C403 1.377 1_455 S
C388 C386 1.389 . S
C388 C389 1.524 . S
C388 C402 1.377 1_455 S
C389 C388 1.524 . S
C389 C390 1.397 . S
C389 C394 1.363 . S
C390 H367 0.950 . S
C390 C389 1.397 . S
C390 C391 1.334 . S
C391 H368 0.950 . S
C391 C390 1.334 . S
C391 C392 1.287 . S
C392 C391 1.287 . S
C392 C393 1.524 . S
C392 H411 0.913 . S
C393 H369 0.950 . S
C393 C392 1.524 . S
C393 C394 1.415 . S
C394 H370 0.950 . S
C394 C389 1.363 . S
C394 C393 1.415 . S
C395 H371 0.951 . S
C395 C396 1.366 . S
C395 C397 1.388 . S
C396 C395 1.366 . S
C396 C400 1.385 . S
C397 H372 0.951 . S
C397 C395 1.388 . S
C397 C398 1.366 . S
C398 C397 1.366 . S
C398 C399 1.414 . S
C398 C401 1.499 . S
C399 H373 0.950 . S
C399 C398 1.414 . S
C399 C400 1.374 . S
C400 H374 0.950 . S
C400 C396 1.385 . S
C400 C399 1.374 . S
C401 C398 1.499 . S
C401 C402 1.373 . S
C401 C403 1.389 . S
C402 H375 0.950 . S
C402 C388 1.377 1_655 S
C402 C401 1.373 . S
C403 C387 1.377 1_655 S
C403 C401 1.389 . S
C403 C404 1.524 . S
C404 C403 1.524 . S
C404 C405 1.397 . S
C404 C409 1.363 . S
C405 H376 0.950 . S
C405 C404 1.397 . S
C405 C406 1.334 . S
C406 H377 0.950 . S
C406 C405 1.334 . S
C406 C407 1.287 . S
C407 C406 1.287 . S
C407 C408 1.524 . S
C407 H410 0.999 . S
C408 H378 0.950 . S
C408 C407 1.524 . S
C408 C409 1.415 . S
C409 H379 0.950 . S
C409 C404 1.363 . S
C409 C408 1.415 . S
H410 C407 0.999 . S
H411 C392 0.913 . S
H412 C430 0.951 . S
H413 C432 0.951 . S
H414 C434 0.950 . S
H415 C435 0.950 . S
H416 C437 0.950 . S
H417 C440 0.950 . S
H418 C441 0.950 . S
H419 C443 0.950 . S
H420 C444 0.950 . S
H421 C445 0.951 . S
H422 C447 0.951 . S
H423 C449 0.950 . S
H424 C450 0.950 . S
H425 C452 0.950 . S
H426 C455 0.950 . S
H427 C456 0.950 . S
H428 C458 0.950 . S
H429 C459 0.950 . S
C430 H412 0.951 . S
C430 C431 1.366 . S
C430 C432 1.388 . S
C431 C430 1.366 . S
C431 C435 1.385 . S
C432 H413 0.951 . S
C432 C430 1.388 . S
C432 C433 1.366 . S
C433 C432 1.366 . S
C433 C434 1.414 . S
C433 C436 1.499 . S
C434 H414 0.950 . S
C434 C433 1.414 . S
C434 C435 1.374 . S
C435 H415 0.950 . S
C435 C431 1.385 . S
C435 C434 1.374 . S
C436 C433 1.499 . S
C436 C437 1.373 . S
C436 C438 1.389 . S
C437 H416 0.950 . S
C437 C436 1.373 . S
C437 C453 1.377 1_545 S
C438 C436 1.389 . S
C438 C439 1.524 . S
C438 C452 1.377 1_545 S
C439 C438 1.524 . S
C439 C440 1.397 . S
C439 C444 1.363 . S
C440 H417 0.950 . S
C440 C439 1.397 . S
C440 C441 1.334 . S
C441 H418 0.950 . S
C441 C440 1.334 . S
C441 C442 1.287 . S
C442 C441 1.287 . S
C442 C443 1.524 . S
C442 H461 0.913 . S
C443 H419 0.950 . S
C443 C442 1.524 . S
C443 C444 1.415 . S
C444 H420 0.950 . S
C444 C439 1.363 . S
C444 C443 1.415 . S
C445 H421 0.951 . S
C445 C446 1.366 . S
C445 C447 1.388 . S
C446 C445 1.366 . S
C446 C450 1.385 . S
C447 H422 0.951 . S
C447 C445 1.388 . S
C447 C448 1.366 . S
C448 C447 1.366 . S
C448 C449 1.414 . S
C448 C451 1.499 . S
C449 H423 0.950 . S
C449 C448 1.414 . S
C449 C450 1.374 . S
C450 H424 0.950 . S
C450 C446 1.385 . S
C450 C449 1.374 . S
C451 C448 1.499 . S
C451 C452 1.373 . S
C451 C453 1.389 . S
C452 H425 0.950 . S
C452 C438 1.377 1_565 S
C452 C451 1.373 . S
C453 C437 1.377 1_565 S
C453 C451 1.389 . S
C453 C454 1.524 . S
C454 C453 1.524 . S
C454 C455 1.397 . S
C454 C459 1.363 . S
C455 H426 0.950 . S
C455 C454 1.397 . S
C455 C456 1.334 . S
C456 H427 0.950 . S
C456 C455 1.334 . S
C456 C457 1.287 . S
C457 C456 1.287 . S
C457 C458 1.524 . S
C457 H460 0.999 . S
C458 H428 0.950 . S
C458 C457 1.524 . S
C458 C459 1.415 . S
C459 H429 0.950 . S
C459 C454 1.363 . S
C459 C458 1.415 . S
H460 C457 0.999 . S
H461 C442 0.913 . S
H462 C480 0.951 . S
H463 C482 0.951 . S
H464 C484 0.950 . S
H465 C485 0.950 . S
H466 C487 0.950 . S
H467 C490 0.950 . S
H468 C491 0.950 . S
H469 C493 0.950 . S
H470 C494 0.950 . S
H471 C495 0.951 . S
H472 C497 0.951 . S
H473 C499 0.950 . S
H474 C500 0.950 . S
H475 C502 0.950 . S
H476 C505 0.950 . S
H477 C506 0.950 . S
H478 C508 0.950 . S
H479 C509 0.950 . S
C480 H462 0.951 . S
C480 C481 1.366 . S
C480 C482 1.388 . S
C481 C480 1.366 . S
C481 C485 1.385 . S
C482 H463 0.951 . S
C482 C480 1.388 . S
C482 C483 1.366 . S
C483 C482 1.366 . S
C483 C484 1.414 . S
C483 C486 1.499 . S
C484 H464 0.950 . S
C484 C483 1.414 . S
C484 C485 1.374 . S
C485 H465 0.950 . S
C485 C481 1.385 . S
C485 C484 1.374 . S
C486 C483 1.499 . S
C486 C487 1.373 . S
C486 C488 1.389 . S
C487 H466 0.950 . S
C487 C486 1.373 . S
C487 C503 1.377 1_655 S
C488 C486 1.389 . S
C488 C489 1.524 . S
C488 C502 1.377 1_655 S
C489 C488 1.524 . S
C489 C490 1.397 . S
C489 C494 1.363 . S
C490 H467 0.950 . S
C490 C489 1.397 . S
C490 C491 1.334 . S
C491 H468 0.950 . S
C491 C490 1.334 . S
C491 C492 1.287 . S
C492 C491 1.287 . S
C492 C493 1.524 . S
C492 H511 0.913 . S
C493 H469 0.950 . S
C493 C492 1.524 . S
C493 C494 1.415 . S
C494 H470 0.950 . S
C494 C489 1.363 . S
C494 C493 1.415 . S
C495 H471 0.951 . S
C495 C496 1.366 . S
C495 C497 1.388 . S
C496 C495 1.366 . S
C496 C500 1.385 . S
C497 H472 0.951 . S
C497 C495 1.388 . S
C497 C498 1.366 . S
C498 C497 1.366 . S
C498 C499 1.414 . S
C498 C501 1.499 . S
C499 H473 0.950 . S
C499 C498 1.414 . S
C499 C500 1.374 . S
C500 H474 0.950 . S
C500 C496 1.385 . S
C500 C499 1.374 . S
C501 C498 1.499 . S
C501 C502 1.373 . S
C501 C503 1.389 . S
C502 H475 0.950 . S
C502 C488 1.377 1_455 S
C502 C501 1.373 . S
C503 C487 1.377 1_455 S
C503 C501 1.389 . S
C503 C504 1.524 . S
C504 C503 1.524 . S
C504 C505 1.397 . S
C504 C509 1.363 . S
C505 H476 0.950 . S
C505 C504 1.397 . S
C505 C506 1.334 . S
C506 H477 0.950 . S
C506 C505 1.334 . S
C506 C507 1.287 . S
C507 C506 1.287 . S
C507 C508 1.524 . S
C507 H510 0.999 . S
C508 H478 0.950 . S
C508 C507 1.524 . S
C508 C509 1.415 . S
C509 H479 0.950 . S
C509 C504 1.363 . S
C509 C508 1.415 . S
H510 C507 0.999 . S
H511 C492 0.913 . S
H512 C530 0.951 . S
H513 C532 0.951 . S
H514 C534 0.950 . S
H515 C535 0.950 . S
H516 C537 0.950 . S
H517 C540 0.950 . S
H518 C541 0.950 . S
H519 C543 0.950 . S
H520 C544 0.950 . S
H521 C545 0.951 . S
H522 C547 0.951 . S
H523 C549 0.950 . S
H524 C550 0.950 . S
H525 C552 0.950 . S
H526 C555 0.950 . S
H527 C556 0.950 . S
H528 C558 0.950 . S
H529 C559 0.950 . S
C530 H512 0.951 . S
C530 C531 1.366 . S
C530 C532 1.388 . S
C531 C530 1.366 . S
C531 C535 1.385 . S
C532 H513 0.951 . S
C532 C530 1.388 . S
C532 C533 1.366 . S
C533 C532 1.366 . S
C533 C534 1.414 . S
C533 C536 1.499 . S
C534 H514 0.950 . S
C534 C533 1.414 . S
C534 C535 1.374 . S
C535 H515 0.950 . S
C535 C531 1.385 . S
C535 C534 1.374 . S
C536 C533 1.499 . S
C536 C537 1.373 . S
C536 C538 1.389 . S
C537 H516 0.950 . S
C537 C536 1.373 . S
C537 C553 1.377 . S
C538 C536 1.389 . S
C538 C539 1.524 . S
C538 C552 1.377 . S
C539 C538 1.524 . S
C539 C540 1.397 . S
C539 C544 1.363 . S
C540 H517 0.950 . S
C540 C539 1.397 . S
C540 C541 1.334 . S
C541 H518 0.950 . S
C541 C540 1.334 . S
C541 C542 1.287 . S
C542 C541 1.287 . S
C542 C543 1.524 . S
C542 H561 0.913 . S
C543 H519 0.950 . S
C543 C542 1.524 . S
C543 C544 1.415 . S
C544 H520 0.950 . S
C544 C539 1.363 . S
C544 C543 1.415 . S
C545 H521 0.951 . S
C545 C546 1.366 . S
C545 C547 1.388 . S
C546 C545 1.366 . S
C546 C550 1.385 . S
C547 H522 0.951 . S
C547 C545 1.388 . S
C547 C548 1.366 . S
C548 C547 1.366 . S
C548 C549 1.414 . S
C548 C551 1.499 . S
C549 H523 0.950 . S
C549 C548 1.414 . S
C549 C550 1.374 . S
C550 H524 0.950 . S
C550 C546 1.385 . S
C550 C549 1.374 . S
C551 C548 1.499 . S
C551 C552 1.373 . S
C551 C553 1.389 . S
C552 H525 0.950 . S
C552 C538 1.377 . S
C552 C551 1.373 . S
C553 C537 1.377 . S
C553 C551 1.389 . S
C553 C554 1.524 . S
C554 C553 1.524 . S
C554 C555 1.397 . S
C554 C559 1.363 . S
C555 H526 0.950 . S
C555 C554 1.397 . S
C555 C556 1.334 . S
C556 H527 0.950 . S
C556 C555 1.334 . S
C556 C557 1.287 . S
C557 C556 1.287 . S
C557 C558 1.524 . S
C557 H560 0.999 . S
C558 H528 0.950 . S
C558 C557 1.524 . S
C558 C559 1.415 . S
C559 H529 0.950 . S
C559 C554 1.363 . S
C559 C558 1.415 . S
H560 C557 0.999 . S
H561 C542 0.913 . S
H562 C580 0.951 . S
H563 C582 0.951 . S
H564 C584 0.950 . S
H565 C585 0.950 . S
H566 C587 0.950 . S
H567 C590 0.950 . S
H568 C591 0.950 . S
H569 C593 0.950 . S
H570 C594 0.950 . S
H571 C595 0.951 . S
H572 C597 0.951 . S
H573 C599 0.950 . S
H574 C600 0.950 . S
H575 C602 0.950 . S
H576 C605 0.950 . S
H577 C606 0.950 . S
H578 C608 0.950 . S
H579 C609 0.950 . S
C580 H562 0.951 . S
C580 C581 1.366 . S
C580 C582 1.388 . S
C581 C580 1.366 . S
C581 C585 1.385 . S
C582 H563 0.951 . S
C582 C580 1.388 . S
C582 C583 1.366 . S
C583 C582 1.366 . S
C583 C584 1.414 . S
C583 C586 1.499 . S
C584 H564 0.950 . S
C584 C583 1.414 . S
C584 C585 1.374 . S
C585 H565 0.950 . S
C585 C581 1.385 . S
C585 C584 1.374 . S
C586 C583 1.499 . S
C586 C587 1.373 . S
C586 C588 1.389 . S
C587 H566 0.950 . S
C587 C586 1.373 . S
C587 C603 1.377 . S
C588 C586 1.389 . S
C588 C589 1.524 . S
C588 C602 1.377 . S
C589 C588 1.524 . S
C589 C590 1.397 . S
C589 C594 1.363 . S
C590 H567 0.950 . S
C590 C589 1.397 . S
C590 C591 1.334 . S
C591 H568 0.950 . S
C591 C590 1.334 . S
C591 C592 1.287 . S
C592 C591 1.287 . S
C592 C593 1.524 . S
C592 H611 0.913 . S
C593 H569 0.950 . S
C593 C592 1.524 . S
C593 C594 1.415 . S
C594 H570 0.950 . S
C594 C589 1.363 . S
C594 C593 1.415 . S
C595 H571 0.951 . S
C595 C596 1.366 . S
C595 C597 1.388 . S
C596 C595 1.366 . S
C596 C600 1.385 . S
C597 H572 0.951 . S
C597 C595 1.388 . S
C597 C598 1.366 . S
C598 C597 1.366 . S
C598 C599 1.414 . S
C598 C601 1.499 . S
C599 H573 0.950 . S
C599 C598 1.414 . S
C599 C600 1.374 . S
C600 H574 0.950 . S
C600 C596 1.385 . S
C600 C599 1.374 . S
C601 C598 1.499 . S
C601 C602 1.373 . S
C601 C603 1.389 . S
C602 H575 0.950 . S
C602 C588 1.377 . S
C602 C601 1.373 . S
C603 C587 1.377 . S
C603 C601 1.389 . S
C603 C604 1.524 . S
C604 C603 1.524 . S
C604 C605 1.397 . S
C604 C609 1.363 . S
C605 H576 0.950 . S
C605 C604 1.397 . S
C605 C606 1.334 . S
C606 H577 0.950 . S
C606 C605 1.334 . S
C606 C607 1.287 . S
C607 C606 1.287 . S
C607 C608 1.524 . S
C607 H610 0.999 . S
C608 H578 0.950 . S
C608 C607 1.524 . S
C608 C609 1.415 . S
C609 H579 0.950 . S
C609 C604 1.363 . S
C609 C608 1.415 . S
H610 C607 0.999 . S
H611 C592 0.913 . S
H612 C630 0.951 . S
H613 C632 0.951 . S
H614 C634 0.950 . S
H615 C635 0.950 . S
H616 C637 0.950 . S
H617 C640 0.950 . S
H618 C641 0.950 . S
H619 C643 0.950 . S
H620 C644 0.950 . S
H621 C645 0.951 . S
H622 C647 0.951 . S
H623 C649 0.950 . S
H624 C650 0.950 . S
H625 C652 0.950 . S
H626 C655 0.950 . S
H627 C656 0.950 . S
H628 C658 0.950 . S
H629 C659 0.950 . S
C630 H612 0.951 . S
C630 C631 1.366 . S
C630 C632 1.388 . S
C631 C630 1.366 . S
C631 C635 1.385 . S
C632 H613 0.951 . S
C632 C630 1.388 . S
C632 C633 1.366 . S
C633 C632 1.366 . S
C633 C634 1.414 . S
C633 C636 1.499 . S
C634 H614 0.950 . S
C634 C633 1.414 . S
C634 C635 1.374 . S
C635 H615 0.950 . S
C635 C631 1.385 . S
C635 C634 1.374 . S
C636 C633 1.499 . S
C636 C637 1.373 . S
C636 C638 1.389 . S
C637 H616 0.950 . S
C637 C636 1.373 . S
C637 C653 1.377 . S
C638 C636 1.389 . S
C638 C639 1.524 . S
C638 C652 1.377 . S
C639 C638 1.524 . S
C639 C640 1.397 . S
C639 C644 1.363 . S
C640 H617 0.950 . S
C640 C639 1.397 . S
C640 C641 1.334 . S
C641 H618 0.950 . S
C641 C640 1.334 . S
C641 C642 1.287 . S
C642 C641 1.287 . S
C642 C643 1.524 . S
C642 H661 0.913 . S
C643 H619 0.950 . S
C643 C642 1.524 . S
C643 C644 1.415 . S
C644 H620 0.950 . S
C644 C639 1.363 . S
C644 C643 1.415 . S
C645 H621 0.951 . S
C645 C646 1.366 . S
C645 C647 1.388 . S
C646 C645 1.366 . S
C646 C650 1.385 . S
C647 H622 0.951 . S
C647 C645 1.388 . S
C647 C648 1.366 . S
C648 C647 1.366 . S
C648 C649 1.414 . S
C648 C651 1.499 . S
C649 H623 0.950 . S
C649 C648 1.414 . S
C649 C650 1.374 . S
C650 H624 0.950 . S
C650 C646 1.385 . S
C650 C649 1.374 . S
C651 C648 1.499 . S
C651 C652 1.373 . S
C651 C653 1.389 . S
C652 H625 0.950 . S
C652 C638 1.377 . S
C652 C651 1.373 . S
C653 C637 1.377 . S
C653 C651 1.389 . S
C653 C654 1.524 . S
C654 C653 1.524 . S
C654 C655 1.397 . S
C654 C659 1.363 . S
C655 H626 0.950 . S
C655 C654 1.397 . S
C655 C656 1.334 . S
C656 H627 0.950 . S
C656 C655 1.334 . S
C656 C657 1.287 . S
C657 C656 1.287 . S
C657 C658 1.524 . S
C657 H660 0.999 . S
C658 H628 0.950 . S
C658 C657 1.524 . S
C658 C659 1.415 . S
C659 H629 0.950 . S
C659 C654 1.363 . S
C659 C658 1.415 . S
H660 C657 0.999 . S
H661 C642 0.913 . S
H662 C680 0.951 . S
H663 C682 0.951 . S
H664 C684 0.950 . S
H665 C685 0.950 . S
H666 C687 0.950 . S
H667 C690 0.950 . S
H668 C691 0.950 . S
H669 C693 0.950 . S
H670 C694 0.950 . S
H671 C695 0.951 . S
H672 C697 0.951 . S
H673 C699 0.950 . S
H674 C700 0.950 . S
H675 C702 0.950 . S
H676 C705 0.950 . S
H677 C706 0.950 . S
H678 C708 0.950 . S
H679 C709 0.950 . S
C680 H662 0.951 . S
C680 C681 1.366 . S
C680 C682 1.388 . S
C681 C680 1.366 . S
C681 C685 1.385 . S
C682 H663 0.951 . S
C682 C680 1.388 . S
C682 C683 1.366 . S
C683 C682 1.366 . S
C683 C684 1.414 . S
C683 C686 1.499 . S
C684 H664 0.950 . S
C684 C683 1.414 . S
C684 C685 1.374 . S
C685 H665 0.950 . S
C685 C681 1.385 . S
C685 C684 1.374 . S
C686 C683 1.499 . S
C686 C687 1.373 . S
C686 C688 1.389 . S
C687 H666 0.950 . S
C687 C686 1.373 . S
C687 C703 1.377 . S
C688 C686 1.389 . S
C688 C689 1.524 . S
C688 C702 1.377 . S
C689 C688 1.524 . S
C689 C690 1.397 . S
C689 C694 1.363 . S
C690 H667 0.950 . S
C690 C689 1.397 . S
C690 C691 1.334 . S
C691 H668 0.950 . S
C691 C690 1.334 . S
C691 C692 1.287 . S
C692 C691 1.287 . S
C692 C693 1.524 . S
C692 H711 0.913 . S
C693 H669 0.950 . S
C693 C692 1.524 . S
C693 C694 1.415 . S
C694 H670 0.950 . S
C694 C689 1.363 . S
C694 C693 1.415 . S
C695 H671 0.951 . S
C695 C696 1.366 . S
C695 C697 1.388 . S
C696 C695 1.366 . S
C696 C700 1.385 . S
C697 H672 0.951 . S
C697 C695 1.388 . S
C697 C698 1.366 . S
C698 C697 1.366 . S
C698 C699 1.414 . S
C698 C701 1.499 . S
C699 H673 0.950 . S
C699 C698 1.414 . S
C699 C700 1.374 . S
C700 H674 0.950 . S
C700 C696 1.385 . S
C700 C699 1.374 . S
C701 C698 1.499 . S
C701 C702 1.373 . S
C701 C703 1.389 . S
C702 H675 0.950 . S
C702 C688 1.377 . S
C702 C701 1.373 . S
C703 C687 1.377 . S
C703 C701 1.389 . S
C703 C704 1.524 . S
C704 C703 1.524 . S
C704 C705 1.397 . S
C704 C709 1.363 . S
C705 H676 0.950 . S
C705 C704 1.397 . S
C705 C706 1.334 . S
C706 H677 0.950 . S
C706 C705 1.334 . S
C706 C707 1.287 . S
C707 C706 1.287 . S
C707 C708 1.524 . S
C707 H710 0.999 . S
C708 H678 0.950 . S
C708 C707 1.524 . S
C708 C709 1.415 . S
C709 H679 0.950 . S
C709 C704 1.363 . S
C709 C708 1.415 . S
H710 C707 0.999 . S
H711 C692 0.913 . S
H712 C730 0.951 . S
H713 C732 0.951 . S
H714 C734 0.950 . S
H715 C735 0.950 . S
H716 C737 0.950 . S
H717 C740 0.950 . S
H718 C741 0.950 . S
H719 C743 0.950 . S
H720 C744 0.950 . S
H721 C745 0.951 . S
H722 C747 0.951 . S
H723 C749 0.950 . S
H724 C750 0.950 . S
H725 C752 0.950 . S
H726 C755 0.950 . S
H727 C756 0.950 . S
H728 C758 0.950 . S
H729 C759 0.950 . S
C730 H712 0.951 . S
C730 C731 1.366 . S
C730 C732 1.388 . S
C731 C730 1.366 . S
C731 C735 1.385 . S
C732 H713 0.951 . S
C732 C730 1.388 . S
C732 C733 1.366 . S
C733 C732 1.366 . S
C733 C734 1.414 . S
C733 C736 1.499 . S
C734 H714 0.950 . S
C734 C733 1.414 . S
C734 C735 1.374 . S
C735 H715 0.950 . S
C735 C731 1.385 . S
C735 C734 1.374 . S
C736 C733 1.499 . S
C736 C737 1.373 . S
C736 C738 1.389 . S
C737 H716 0.950 . S
C737 C736 1.373 . S
C737 C753 1.377 . S
C738 C736 1.389 . S
C738 C739 1.524 . S
C738 C752 1.377 . S
C739 C738 1.524 . S
C739 C740 1.397 . S
C739 C744 1.363 . S
C740 H717 0.950 . S
C740 C739 1.397 . S
C740 C741 1.334 . S
C741 H718 0.950 . S
C741 C740 1.334 . S
C741 C742 1.287 . S
C742 C741 1.287 . S
C742 C743 1.524 . S
C742 H761 0.913 . S
C743 H719 0.950 . S
C743 C742 1.524 . S
C743 C744 1.415 . S
C744 H720 0.950 . S
C744 C739 1.363 . S
C744 C743 1.415 . S
C745 H721 0.951 . S
C745 C746 1.366 . S
C745 C747 1.388 . S
C746 C745 1.366 . S
C746 C750 1.385 . S
C747 H722 0.951 . S
C747 C745 1.388 . S
C747 C748 1.366 . S
C748 C747 1.366 . S
C748 C749 1.414 . S
C748 C751 1.499 . S
C749 H723 0.950 . S
C749 C748 1.414 . S
C749 C750 1.374 . S
C750 H724 0.950 . S
C750 C746 1.385 . S
C750 C749 1.374 . S
C751 C748 1.499 . S
C751 C752 1.373 . S
C751 C753 1.389 . S
C752 H725 0.950 . S
C752 C738 1.377 . S
C752 C751 1.373 . S
C753 C737 1.377 . S
C753 C751 1.389 . S
C753 C754 1.524 . S
C754 C753 1.524 . S
C754 C755 1.397 . S
C754 C759 1.363 . S
C755 H726 0.950 . S
C755 C754 1.397 . S
C755 C756 1.334 . S
C756 H727 0.950 . S
C756 C755 1.334 . S
C756 C757 1.287 . S
C757 C756 1.287 . S
C757 C758 1.524 . S
C757 H760 0.999 . S
C758 H728 0.950 . S
C758 C757 1.524 . S
C758 C759 1.415 . S
C759 H729 0.950 . S
C759 C754 1.363 . S
C759 C758 1.415 . S
H760 C757 0.999 . S
H761 C742 0.913 . S
H762 C780 0.951 . S
H763 C782 0.951 . S
H764 C784 0.950 . S
H765 C785 0.950 . S
H766 C787 0.950 . S
H767 C790 0.950 . S
H768 C791 0.950 . S
H769 C793 0.950 . S
H770 C794 0.950 . S
H771 C795 0.951 . S
H772 C797 0.951 . S
H773 C799 0.950 . S
H774 C800 0.950 . S
H775 C802 0.950 . S
H776 C805 0.950 . S
H777 C806 0.950 . S
H778 C808 0.950 . S
H779 C809 0.950 . S
C780 H762 0.951 . S
C780 C781 1.366 . S
C780 C782 1.388 . S
C781 C780 1.366 . S
C781 C785 1.385 . S
C782 H763 0.951 . S
C782 C780 1.388 . S
C782 C783 1.366 . S
C783 C782 1.366 . S
C783 C784 1.414 . S
C783 C786 1.499 . S
C784 H764 0.950 . S
C784 C783 1.414 . S
C784 C785 1.374 . S
C785 H765 0.950 . S
C785 C781 1.385 . S
C785 C784 1.374 . S
C786 C783 1.499 . S
C786 C787 1.373 . S
C786 C788 1.389 . S
C787 H766 0.950 . S
C787 C786 1.373 . S
C787 C803 1.377 . S
C788 C786 1.389 . S
C788 C789 1.524 . S
C788 C802 1.377 . S
C789 C788 1.524 . S
C789 C790 1.397 . S
C789 C794 1.363 . S
C790 H767 0.950 . S
C790 C789 1.397 . S
C790 C791 1.334 . S
C791 H768 0.950 . S
C791 C790 1.334 . S
C791 C792 1.287 . S
C792 C791 1.287 . S
C792 C793 1.524 . S
C792 H811 0.913 . S
C793 H769 0.950 . S
C793 C792 1.524 . S
C793 C794 1.415 . S
C794 H770 0.950 . S
C794 C789 1.363 . S
C794 C793 1.415 . S
C795 H771 0.951 . S
C795 C796 1.366 . S
C795 C797 1.388 . S
C796 C795 1.366 . S
C796 C800 1.385 . S
C797 H772 0.951 . S
C797 C795 1.388 . S
C797 C798 1.366 . S
C798 C797 1.366 . S
C798 C799 1.414 . S
C798 C801 1.499 . S
C799 H773 0.950 . S
C799 C798 1.414 . S
C799 C800 1.374 . S
C800 H774 0.950 . S
C800 C796 1.385 . S
C800 C799 1.374 . S
C801 C798 1.499 . S
C801 C802 1.373 . S
C801 C803 1.389 . S
C802 H775 0.950 . S
C802 C788 1.377 . S
C802 C801 1.373 . S
C803 C787 1.377 . S
C803 C801 1.389 . S
C803 C804 1.524 . S
C804 C803 1.524 . S
C804 C805 1.397 . S
C804 C809 1.363 . S
C805 H776 0.950 . S
C805 C804 1.397 . S
C805 C806 1.334 . S
C806 H777 0.950 . S
C806 C805 1.334 . S
C806 C807 1.287 . S
C807 C806 1.287 . S
C807 C808 1.524 . S
C807 H810 0.999 . S
C808 H778 0.950 . S
C808 C807 1.524 . S
C808 C809 1.415 . S
C809 H779 0.950 . S
C809 C804 1.363 . S
C809 C808 1.415 . S
H810 C807 0.999 . S
H811 C792 0.913 . S
H812 C830 0.951 . S
H813 C832 0.951 . S
H814 C834 0.950 . S
H815 C835 0.950 . S
H816 C837 0.950 . S
H817 C840 0.950 . S
H818 C841 0.950 . S
H819 C843 0.950 . S
H820 C844 0.950 . S
H821 C845 0.951 . S
H822 C847 0.951 . S
H823 C849 0.950 . S
H824 C850 0.950 . S
H825 C852 0.950 . S
H826 C855 0.950 . S
H827 C856 0.950 . S
H828 C858 0.950 . S
H829 C859 0.950 . S
C830 H812 0.951 . S
C830 C831 1.366 . S
C830 C832 1.388 . S
C831 C830 1.366 . S
C831 C835 1.385 . S
C832 H813 0.951 . S
C832 C830 1.388 . S
C832 C833 1.366 . S
C833 C832 1.366 . S
C833 C834 1.414 . S
C833 C836 1.499 . S
C834 H814 0.950 . S
C834 C833 1.414 . S
C834 C835 1.374 . S
C835 H815 0.950 . S
C835 C831 1.385 . S
C835 C834 1.374 . S
C836 C833 1.499 . S
C836 C837 1.373 . S
C836 C838 1.389 . S
C837 H816 0.950 . S
C837 C836 1.373 . S
C837 C853 1.377 . S
C838 C836 1.389 . S
C838 C839 1.524 . S
C838 C852 1.377 . S
C839 C838 1.524 . S
C839 C840 1.397 . S
C839 C844 1.363 . S
C840 H817 0.950 . S
C840 C839 1.397 . S
C840 C841 1.334 . S
C841 H818 0.950 . S
C841 C840 1.334 . S
C841 C842 1.287 . S
C842 C841 1.287 . S
C842 C843 1.524 . S
C842 H861 0.913 . S
C843 H819 0.950 . S
C843 C842 1.524 . S
C843 C844 1.415 . S
C844 H820 0.950 . S
C844 C839 1.363 . S
C844 C843 1.415 . S
C845 H821 0.951 . S
C845 C846 1.366 . S
C845 C847 1.388 . S
C846 C845 1.366 . S
C846 C850 1.385 . S
C847 H822 0.951 . S
C847 C845 1.388 . S
C847 C848 1.366 . S
C848 C847 1.366 . S
C848 C849 1.414 . S
C848 C851 1.499 . S
C849 H823 0.950 . S
C849 C848 1.414 . S
C849 C850 1.374 . S
C850 H824 0.950 . S
C850 C846 1.385 . S
C850 C849 1.374 . S
C851 C848 1.499 . S
C851 C852 1.373 . S
C851 C853 1.389 . S
C852 H825 0.950 . S
C852 C838 1.377 . S
C852 C851 1.373 . S
C853 C837 1.377 . S
C853 C851 1.389 . S
C853 C854 1.524 . S
C854 C853 1.524 . S
C854 C855 1.397 . S
C854 C859 1.363 . S
C855 H826 0.950 . S
C855 C854 1.397 . S
C855 C856 1.334 . S
C856 H827 0.950 . S
C856 C855 1.334 . S
C856 C857 1.287 . S
C857 C856 1.287 . S
C857 C858 1.524 . S
C857 H860 0.999 . S
C858 H828 0.950 . S
C858 C857 1.524 . S
C858 C859 1.415 . S
C859 H829 0.950 . S
C859 C854 1.363 . S
C859 C858 1.415 . S
H860 C857 0.999 . S
H861 C842 0.913 . S
H862 C880 0.951 . S
H863 C882 0.951 . S
H864 C884 0.950 . S
H865 C885 0.950 . S
H866 C887 0.950 . S
H867 C890 0.950 . S
H868 C891 0.950 . S
H869 C893 0.950 . S
H870 C894 0.950 . S
H871 C895 0.951 . S
H872 C897 0.951 . S
H873 C899 0.950 . S
H874 C900 0.950 . S
H875 C902 0.950 . S
H876 C905 0.950 . S
H877 C906 0.950 . S
H878 C908 0.950 . S
H879 C909 0.950 . S
C880 H862 0.951 . S
C880 C881 1.366 . S
C880 C882 1.388 . S
C881 C880 1.366 . S
C881 C885 1.385 . S
C882 H863 0.951 . S
C882 C880 1.388 . S
C882 C883 1.366 . S
C883 C882 1.366 . S
C883 C884 1.414 . S
C883 C886 1.499 . S
C884 H864 0.950 . S
C884 C883 1.414 . S
C884 C885 1.374 . S
C885 H865 0.950 . S
C885 C881 1.385 . S
C885 C884 1.374 . S
C886 C883 1.499 . S
C886 C887 1.373 . S
C886 C888 1.389 . S
C887 H866 0.950 . S
C887 C886 1.373 . S
C887 C903 1.377 . S
C888 C886 1.389 . S
C888 C889 1.524 . S
C888 C902 1.377 . S
C889 C888 1.524 . S
C889 C890 1.397 . S
C889 C894 1.363 . S
C890 H867 0.950 . S
C890 C889 1.397 . S
C890 C891 1.334 . S
C891 H868 0.950 . S
C891 C890 1.334 . S
C891 C892 1.287 . S
C892 C891 1.287 . S
C892 C893 1.524 . S
C892 H911 0.913 . S
C893 H869 0.950 . S
C893 C892 1.524 . S
C893 C894 1.415 . S
C894 H870 0.950 . S
C894 C889 1.363 . S
C894 C893 1.415 . S
C895 H871 0.951 . S
C895 C896 1.366 . S
C895 C897 1.388 . S
C896 C895 1.366 . S
C896 C900 1.385 . S
C897 H872 0.951 . S
C897 C895 1.388 . S
C897 C898 1.366 . S
C898 C897 1.366 . S
C898 C899 1.414 . S
C898 C901 1.499 . S
C899 H873 0.950 . S
C899 C898 1.414 . S
C899 C900 1.374 . S
C900 H874 0.950 . S
C900 C896 1.385 . S
C900 C899 1.374 . S
C901 C898 1.499 . S
C901 C902 1.373 . S
C901 C903 1.389 . S
C902 H875 0.950 . S
C902 C888 1.377 . S
C902 C901 1.373 . S
C903 C887 1.377 . S
C903 C901 1.389 . S
C903 C904 1.524 . S
C904 C903 1.524 . S
C904 C905 1.397 . S
C904 C909 1.363 . S
C905 H876 0.950 . S
C905 C904 1.397 . S
C905 C906 1.334 . S
C906 H877 0.950 . S
C906 C905 1.334 . S
C906 C907 1.287 . S
C907 C906 1.287 . S
C907 C908 1.524 . S
C907 H910 0.999 . S
C908 H878 0.950 . S
C908 C907 1.524 . S
C908 C909 1.415 . S
C909 H879 0.950 . S
C909 C904 1.363 . S
C909 C908 1.415 . S
H910 C907 0.999 . S
H911 C892 0.913 . S
C131 C3 1.515 . S
C146 C45 1.515 . S
C181 C9 1.517 . S
C196 C23 1.517 . S
C231 C17 1.515 . S
C246 C31 1.515 . S
C281 C51 1.517 . S
C296 C37 1.516 . S
C331 C59 1.515 . S
C346 C101 1.515 . S
C381 C79 1.517 . S
C396 C65 1.516 . S
C431 C87 1.515 . S
C446 C73 1.515 . S
C481 C107 1.517 . S
C496 C93 1.516 . S
C531 C91 1.447 . S
C546 C8 1.476 . S
C581 C21 1.446 . S
C596 C106 1.476 . S
C631 C63 1.447 . S
C646 C36 1.476 . S
C681 C78 1.476 . S
C696 C49 1.446 . S
C731 C77 1.447 . S
C746 C50 1.476 . S
C781 C7 1.447 . S
C796 C92 1.476 . S
C831 C22 1.477 . S
C846 C105 1.447 . S
C881 C35 1.446 . S
C896 C64 1.476 . S
