# Generated by pormake.
# Topology sma, (6)-cn, num edge types: 1
# Building blocks:
#     Node 0, Type 0, BuildingBlock: INOVEN_clean_sbu_0, # of connection points: 6
#     Node 1, Type 0, BuildingBlock: INOVEN_clean_sbu_0, # of connection points: 6
#     Node 2, Type 0, BuildingBlock: INOVEN_clean_sbu_0, # of connection points: 6
#     Edge 3, Type (0, 0), BuildingBlock: MIFKUJ_clean_linker_0, # of connection points: 2
#     Edge 4, Type (0, 0), BuildingBlock: MIFKUJ_clean_linker_0, # of connection points: 2
#     Edge 5, Type (0, 0), BuildingBlock: MIFKUJ_clean_linker_0, # of connection points: 2
#     Edge 6, Type (0, 0), BuildingBlock: MIFKUJ_clean_linker_0, # of connection points: 2
#     Edge 7, Type (0, 0), BuildingBlock: MIFKUJ_clean_linker_0, # of connection points: 2
#     Edge 8, Type (0, 0), BuildingBlock: MIFKUJ_clean_linker_0, # of connection points: 2
#     Edge 9, Type (0, 0), BuildingBlock: MIFKUJ_clean_linker_0, # of connection points: 2
#     Edge 10, Type (0, 0), BuildingBlock: MIFKUJ_clean_linker_0, # of connection points: 2
#     Edge 11, Type (0, 0), BuildingBlock: MIFKUJ_clean_linker_0, # of connection points: 2
# Relax obj value: 0.121
# Max RMSD: 0.250
# Mean RMSD: 0.204
data_MOF--net-sma--node1-INOVEN_clean_sbu_0--edge1-MIFKUJ_clean_linker_0
_symmetry_space_group_name_H-M    P1
_symmetry_Int_Tables_number       1
_symmetry_cell_setting            triclinic
loop_
_symmetry_equiv_pos_as_xyz
'x, y, z'
_cell_length_a     49.70651
_cell_length_b     56.458902
_cell_length_c     17.332083
_cell_angle_alpha  95.362339
_cell_angle_beta   89.095834
_cell_angle_gamma 136.33689
loop_
_atom_site_label
_atom_site_type_symbol
_atom_site_fract_x
_atom_site_fract_y
_atom_site_fract_z
_atom_type_partial_charge
Gd0 Gd 0.11408 0.63113 0.19589 0.0
Gd1 Gd 0.06424 0.64598 0.20538 0.0
C2 C 0.16022 0.70943 0.19916 0.0
C3 C 0.14371 0.6088 0.15524 0.0
C4 C 0.18014 0.61862 0.13942 0.0
C5 C 0.19465 0.61167 0.19125 0.0
C6 C 0.19803 0.631 0.06927 0.0
C7 C 0.24274 0.6275 0.10171 0.0
C8 C 0.22903 0.6355 0.05082 0.0
C9 C 0.22554 0.61614 0.17283 0.0
C10 C 0.11986 0.66098 0.33221 0.0
C11 C 1.0201 0.56933 0.22795 0.0
C12 C 1.03439 0.66925 0.22404 0.0
C13 C 1.0017 0.66316 0.19403 0.0
C14 C 0.99271 0.65853 0.11384 0.0
C15 C 0.98151 0.66525 0.24647 0.0
C16 C 0.9454 0.6601 0.13949 0.0
C17 C 0.9537 0.66368 0.21967 0.0
C18 C 0.96493 0.65701 0.08695 0.0
C19 C 0.06366 0.62046 0.06479 0.0
O20 O 0.16074 0.68684 0.17407 0.0
O21 O 0.12787 0.69935 0.2228 0.0
O22 O 0.13834 0.61298 0.22747 0.0
O23 O 0.1302 0.61486 0.10535 0.0
O24 O 0.14812 0.66567 0.30745 0.0
O25 O 0.08896 0.63796 0.28866 0.0
O26 O 1.01894 0.59212 0.23967 0.0
O27 O 1.05176 0.57814 0.20466 0.0
O28 O 0.06148 0.68061 0.17674 0.0
O29 O 1.02637 0.64709 0.26693 0.0
O30 O 1.03386 0.61318 0.0897 0.0
O31 O 0.09202 0.64199 0.11432 0.0
H32 H 0.18132 0.60178 0.24538 0.0
H33 H 0.18737 0.63623 0.02742 0.0
H34 H 0.24124 0.64401 -0.00474 0.0
H35 H 0.23565 0.61025 0.21414 0.0
H36 H 1.00788 0.65698 0.07177 0.0
H37 H 0.98793 0.66895 0.30851 0.0
H38 H 0.93888 0.66551 0.26205 0.0
H39 H 0.95975 0.65458 0.02488 0.0
Gd40 Gd 0.62023 0.13693 0.39494 0.0
Gd41 Gd 0.57603 0.15463 0.35806 0.0
C42 C 0.52442 0.07441 0.35746 0.0
C43 C 0.6459 0.11592 0.45944 0.0
C44 C 0.63549 0.08479 0.47628 0.0
C45 C 0.63393 0.06461 0.41809 0.0
C46 C 0.63113 0.07722 0.55337 0.0
C47 C 0.62594 1.03123 0.51446 0.0
C48 C 0.62632 0.05077 0.57222 0.0
C49 C 0.62913 1.03815 0.43693 0.0
C50 C 0.60932 0.13574 0.24233 0.0
C51 C 0.67207 0.21553 0.3702 0.0
C52 C 0.54985 0.17834 0.31732 0.0
C53 C 0.55328 0.20549 0.35312 0.0
C54 C 0.51924 0.19652 0.36963 0.0
C55 C 0.58979 0.23964 0.37543 0.0
C56 C 0.55796 0.25484 0.43256 0.0
C57 C 0.59209 0.26407 0.41433 0.0
C58 C 0.52152 0.22081 0.40904 0.0
C59 C 0.58519 0.15252 0.50924 0.0
O60 O 0.55575 0.08468 0.39186 0.0
O61 O 0.52688 0.09671 0.32761 0.0
O62 O 0.65118 0.12307 0.38758 0.0
O63 O 0.62893 0.12294 0.497 0.0
O64 O 0.64008 0.14565 0.27418 0.0
O65 O 0.58531 0.12585 0.29236 0.0
O66 O 0.63913 0.20436 0.34436 0.0
O67 O 0.67223 0.19508 0.40171 0.0
O68 O 0.52974 0.15122 0.35445 0.0
O69 O 0.58114 0.18818 0.29047 0.0
O70 O 0.5561 0.1453 0.47897 0.0
O71 O 0.6098 0.16436 0.45976 0.0
H72 H 0.63734 0.06974 0.35811 0.0
H73 H 0.63268 0.09254 0.59974 0.0
H74 H 0.6244 0.04657 0.63264 0.0
H75 H 0.62832 1.02333 0.39064 0.0
H76 H 0.49072 0.17042 0.35318 0.0
H77 H 0.61661 0.24736 0.36422 0.0
H78 H 0.62064 0.28994 0.4321 0.0
H79 H 0.49465 0.2129 0.4211 0.0
Gd80 Gd 0.63031 0.68856 0.88529 0.0
Gd81 Gd 0.57498 0.61217 0.91005 0.0
C82 C 0.53718 0.63932 0.90993 0.0
C83 C 0.66116 0.7444 0.82955 0.0
C84 C 0.65011 0.76081 0.80166 0.0
C85 C 0.64474 0.77746 0.85422 0.0
C86 C 0.64793 0.76234 0.72172 0.0
C87 C 0.63684 0.79796 0.74775 0.0
C88 C 0.64131 0.78059 0.6951 0.0
C89 C 0.63812 0.79571 0.82762 0.0
C90 C 0.6235 0.67749 0.03558 0.0
C91 C 0.66986 0.66341 0.90555 0.0
C92 C 0.54383 0.55334 0.94419 0.0
C93 C 0.54929 0.53192 0.91199 0.0
C94 C 0.56443 0.5368 0.83915 0.0
C95 C 0.53906 0.5063 0.95271 0.0
C96 C 0.55764 0.48967 0.84644 0.0
C97 C 0.54321 0.48541 0.92039 0.0
C98 C 0.56834 0.51585 0.80661 0.0
C99 C 0.58019 0.62524 0.7627 0.0
O100 O 0.569 0.66566 0.87674 0.0
O101 O 0.53512 0.61735 0.94026 0.0
O102 O 0.66073 0.74189 0.90398 0.0
O103 O 0.64861 0.71726 0.78651 0.0
O104 O 0.65581 0.70436 0.00823 0.0
O105 O 0.59654 0.65818 -0.01802 0.0
O106 O 0.6348 0.63341 0.91889 0.0
O107 O 0.6761 0.68912 0.88606 0.0
O108 O 0.52675 0.55636 0.89574 0.0
O109 O 0.57395 0.58274 -0.01486 0.0
O110 O 0.54825 0.59786 0.78876 0.0
O111 O 0.60777 0.64257 0.81424 0.0
H112 H 0.64657 0.77716 0.91624 0.0
H113 H 0.65214 0.74998 0.67966 0.0
H114 H 0.63996 0.78127 0.63313 0.0
H115 H 0.63533 0.80904 0.87008 0.0
H116 H 0.57273 0.55656 0.80673 0.0
H117 H 0.52767 0.50231 0.00932 0.0
H118 H 0.53537 0.4661 0.95378 0.0
H119 H 0.57892 0.51977 0.7492 0.0
H120 H 0.2463 0.58246 0.1262 0.0
H121 H 0.29639 0.58553 0.09088 0.0
H122 H 0.35926 0.67973 -0.00948 0.0
H123 H 0.30908 0.67686 0.02591 0.0
H124 H 0.35836 0.63852 0.8979 0.0
H125 H 0.38999 0.6803 0.16882 0.0
H126 H 0.37787 0.67924 0.30759 0.0
H127 H 0.34759 0.58622 0.30916 0.0
H128 H 0.35899 0.58644 0.17005 0.0
H129 H 0.53465 0.68376 0.8706 0.0
H130 H 0.48537 0.68248 0.89983 0.0
H131 H 0.41908 0.58893 0.00618 0.0
H132 H 0.46866 0.59044 0.9787 0.0
H133 H 0.42336 0.63206 0.09563 0.0
H134 H 0.39103 0.59011 0.82313 0.0
H135 H 0.40478 0.59236 0.68514 0.0
H136 H 0.43781 0.68682 0.68723 0.0
H137 H 0.42478 0.6854 0.8256 0.0
C138 C 0.27098 0.60412 0.09748 0.0
C139 C 0.27368 0.62961 0.07975 0.0
C140 C 0.29966 0.60579 0.07706 0.0
C141 C 0.33209 0.63315 0.03892 0.0
C142 C 0.33462 0.65836 0.01995 0.0
C143 C 0.30582 0.65665 0.04019 0.0
C144 C 0.36315 0.63525 0.01889 0.0
C145 C 0.37295 0.63759 0.94141 0.0
C146 C 0.38186 0.63342 0.07509 0.0
C147 C 0.37499 0.63322 0.15879 0.0
C148 C 0.38044 0.65946 0.19859 0.0
C149 C 0.37375 0.65904 0.27734 0.0
C150 C 0.36187 0.63263 0.31711 0.0
C151 C 0.35674 0.60663 0.27825 0.0
C152 C 0.36334 0.60691 0.19946 0.0
C153 C 0.50943 0.6627 0.8996 0.0
C154 C 0.50569 0.63714 0.92204 0.0
C155 C 0.48112 0.66195 0.91612 0.0
C156 C 0.44812 0.63542 0.95471 0.0
C157 C 0.44418 0.60971 0.97644 0.0
C158 C 0.47254 0.61052 0.96027 0.0
C159 C 0.41827 0.63489 0.9745 0.0
C160 C 0.40877 0.63296 0.05206 0.0
C161 C 0.39994 0.63716 0.9184 0.0
C162 C 0.40726 0.63781 0.83492 0.0
C163 C 0.40145 0.61148 0.79429 0.0
C164 C 0.40909 0.61259 0.716 0.0
C165 C 0.42225 0.63976 0.6775 0.0
C166 C 0.42766 0.66581 0.71715 0.0
C167 C 0.42011 0.66485 0.79549 0.0
H168 H 0.42818 0.64059 0.6169 0.0
H169 H 0.35672 0.63235 0.37809 0.0
H170 H 0.74694 0.24519 0.36809 0.0
H171 H 0.80688 0.30429 0.34419 0.0
H172 H 0.74205 0.32818 0.33135 0.0
H173 H 0.68221 0.26905 0.35158 0.0
H174 H 0.78696 0.35479 0.22302 0.0
H175 H 0.81013 0.35774 0.49375 0.0
H176 H 0.81677 0.33891 0.60803 0.0
H177 H 0.90995 0.35797 0.50895 0.0
H178 H 0.90353 0.37652 0.39361 0.0
H179 H 0.94667 0.53861 0.25947 0.0
H180 H 0.88958 0.47895 0.28429 0.0
H181 H 0.95629 0.45696 0.25563 0.0
H182 H 1.01361 0.51665 0.23074 0.0
H183 H 0.9124 0.42932 0.38186 0.0
H184 H 0.88973 0.42879 0.11305 0.0
H185 H 0.88304 0.44888 0.00192 0.0
H186 H 0.7881 0.42646 0.10276 0.0
H187 H 0.79458 0.40668 0.21508 0.0
C188 C 0.74556 0.26315 0.36084 0.0
C189 C 0.70957 0.25218 0.36193 0.0
C190 C 0.78001 0.29715 0.34741 0.0
C191 C 0.77958 0.32135 0.3366 0.0
C192 C 0.74363 0.31037 0.33894 0.0
C193 C 0.70923 0.27637 0.35094 0.0
C194 C 0.81591 0.3577 0.32072 0.0
C195 C 0.81413 0.37109 0.25876 0.0
C196 C 0.85211 0.37923 0.36542 0.0
C197 C 0.85606 0.36816 0.43472 0.0
C198 C 0.83184 0.35768 0.49611 0.0
C199 C 0.8356 0.3471 0.5611 0.0
C200 C 0.86369 0.34715 0.56565 0.0
C201 C 0.88816 0.35789 0.5053 0.0
C202 C 0.8845 0.36846 0.44014 0.0
C203 C 0.94933 0.52117 0.25829 0.0
C204 C 0.98498 0.5327 0.24266 0.0
C205 C 0.91647 0.48688 0.27232 0.0
C206 C 0.91828 0.46309 0.27133 0.0
C207 C 0.95395 0.47463 0.25675 0.0
C208 C 0.98675 0.50886 0.24212 0.0
C209 C 0.883 0.42629 0.28527 0.0
C210 C 0.88509 0.41287 0.34647 0.0
C211 C 0.84695 0.40482 0.24048 0.0
C212 C 0.84289 0.41656 0.17283 0.0
C213 C 0.86762 0.42839 0.11182 0.0
C214 C 0.86383 0.43968 0.04856 0.0
C215 C 0.83523 0.43903 0.04537 0.0
C216 C 0.81028 0.427 0.10535 0.0
C217 C 0.81397 0.41571 0.16879 0.0
H218 H 0.83234 0.44778 -0.00365 0.0
H219 H 0.86655 0.33895 0.61601 0.0
H220 H 0.66557 1.01748 0.45473 0.0
H221 H 0.66395 0.97579 0.49149 0.0
H222 H 0.58096 0.94372 0.65968 0.0
H223 H 0.58229 0.98536 0.62293 0.0
H224 H 0.63609 0.95191 0.72186 0.0
H225 H 0.55358 0.8929 0.48543 0.0
H226 H 0.53553 0.88563 0.34701 0.0
H227 H 0.63056 0.90092 0.28213 0.0
H228 H 0.64953 0.90877 0.42028 0.0
H229 H 0.58997 0.80473 0.80119 0.0
H230 H 0.58547 0.84211 0.76013 0.0
H231 H 0.669 0.87733 0.59055 0.0
H232 H 0.67379 0.84016 0.63147 0.0
H233 H 0.61128 0.86609 0.52925 0.0
H234 H 0.69495 0.92685 0.76526 0.0
H235 H 0.71336 0.93439 0.90358 0.0
H236 H 0.6163 0.91601 0.96899 0.0
H237 H 0.59698 0.90787 0.83091 0.0
C238 C 0.64645 1.00122 0.4987 0.0
C239 C 0.62388 1.0048 0.53542 0.0
C240 C 0.64562 0.97735 0.51985 0.0
C241 C 0.62198 0.95617 0.57786 0.0
C242 C 0.59948 0.9597 0.6148 0.0
C243 C 0.60034 0.98364 0.59378 0.0
C244 C 0.62151 0.93102 0.60125 0.0
C245 C 0.63002 0.93279 0.67982 0.0
C246 C 0.61455 0.90649 0.54642 0.0
C247 C 0.60319 0.90175 0.46328 0.0
C248 C 0.57082 0.89499 0.44169 0.0
C249 C 0.56039 0.89072 0.36326 0.0
C250 C 0.58194 0.8929 0.30582 0.0
C251 C 0.61392 0.89928 0.32669 0.0
C252 C 0.6245 0.90361 0.40504 0.0
C253 C 0.60757 0.82054 0.75542 0.0
C254 C 0.63242 0.81944 0.72007 0.0
C255 C 0.60494 0.84194 0.73189 0.0
C256 C 0.62731 0.86304 0.67285 0.0
C257 C 0.6514 0.86137 0.63618 0.0
C258 C 0.654 0.83993 0.65954 0.0
C259 C 0.62595 0.88706 0.64979 0.0
C260 C 0.61716 0.88512 0.5713 0.0
C261 C 0.63268 0.91145 0.70466 0.0
C262 C 0.64428 0.91638 0.78771 0.0
C263 C 0.67734 0.92414 0.80911 0.0
C264 C 0.68797 0.92857 0.88747 0.0
C265 C 0.66594 0.92558 0.94503 0.0
C266 C 0.63329 0.91825 0.92433 0.0
C267 C 0.6225 0.91375 0.84604 0.0
H268 H 0.67423 0.92903 0.00567 0.0
H269 H 0.57382 0.88957 0.24514 0.0
H270 H 0.67612 0.6229 0.83358 0.0
H271 H 0.72526 0.62423 0.86225 0.0
H272 H 0.78381 0.71175 0.03609 0.0
H273 H 0.73632 0.71206 0.00218 0.0
H274 H 0.83615 0.72009 0.97804 0.0
H275 H 0.71345 0.61907 0.07145 0.0
H276 H 0.64327 0.56391 0.05929 0.0
H277 H 0.6646 0.51904 0.8913 0.0
H278 H 0.73483 0.57403 0.90179 0.0
H279 H 0.93559 0.69988 0.20216 0.0
H280 H 0.89048 0.70107 0.15606 0.0
H281 H 0.84748 0.62394 0.96476 0.0
H282 H 0.89169 0.6217 0.0121 0.0
H283 H 0.78798 0.60976 0.02693 0.0
H284 H 0.91128 0.71032 0.93973 0.0
H285 H 0.98147 0.76526 0.95441 0.0
H286 H 0.95855 0.8108 0.11481 0.0
H287 H 0.88826 0.75597 0.10188 0.0
C288 C 0.7001 0.64291 0.87657 0.0
C289 C 0.70269 0.66757 0.91521 0.0
C290 C 0.72789 0.64334 0.89403 0.0
C291 C 0.75781 0.66731 0.95361 0.0
C292 C 0.7611 0.69278 -0.00976 0.0
C293 C 0.73402 0.69308 0.97075 0.0
C294 C 0.78498 0.66544 0.97904 0.0
C295 C 0.82536 0.69596 -0.0103 0.0
C296 C 0.77153 0.63391 -0.0073 0.0
C297 C 0.72936 0.60074 -0.01293 0.0
C298 C 0.70314 0.59748 0.03172 0.0
C299 C 0.66337 0.56625 0.02511 0.0
C300 C 0.64953 0.53802 0.97461 0.0
C301 C 0.67539 0.54094 0.93046 0.0
C302 C 0.71518 0.5721 0.93678 0.0
C303 C 0.91629 0.68282 0.15074 0.0
C304 C 0.91748 0.66065 0.11109 0.0
C305 C 0.89072 0.68385 0.12383 0.0
C306 C 0.86577 0.66296 0.05612 0.0
C307 C 0.86648 0.64047 0.01689 0.0
C308 C 0.89209 0.63943 0.04377 0.0
C309 C 0.83884 0.66442 0.02673 0.0
C310 C 0.79859 0.63384 0.01528 0.0
C311 C 0.85233 0.69587 0.01295 0.0
C312 C 0.89455 0.72894 0.02032 0.0
C313 C 0.92124 0.73198 0.97853 0.0
C314 C 0.96104 0.76311 -0.01353 0.0
C315 C 0.97447 0.79148 0.03564 0.0
C316 C 0.94811 0.7888 0.0768 0.0
C317 C 0.90828 0.75771 0.06912 0.0
H318 H 1.0053 0.81556 0.04174 0.0
H319 H 0.61882 0.51381 0.96998 0.0
H320 H 0.51269 1.0189 0.36167 0.0
H321 H 0.45132 0.95729 0.33283 0.0
H322 H 0.38976 0.98305 0.2958 0.0
H323 H 0.45105 0.04465 0.3229 0.0
H324 H 0.3516 0.9274 0.39085 0.0
H325 H 0.4091 0.96221 0.14477 0.0
H326 H 0.46248 0.9885 0.05829 0.0
H327 H 0.46141 0.91392 0.09834 0.0
H328 H 0.40848 0.88756 0.18625 0.0
H329 H 0.17068 0.76451 0.22511 0.0
H330 H 0.2321 0.82594 0.24893 0.0
H331 H 0.29656 0.80151 0.22305 0.0
H332 H 0.23519 0.74011 0.19617 0.0
H333 H 0.33459 0.85717 0.16098 0.0
H334 H 0.28153 0.82338 0.4079 0.0
H335 H 0.232 0.79784 0.50355 0.0
H336 H 0.22772 0.86957 0.47144 0.0
H337 H 0.27722 0.89553 0.37523 0.0
C338 C 0.48608 1.01148 0.34781 0.0
C339 C 0.48691 1.03684 0.34448 0.0
C340 C 0.451 0.97621 0.33104 0.0
C341 C 0.41584 0.96544 0.31175 0.0
C342 C 0.41643 0.99065 0.31045 0.0
C343 C 0.45158 1.02591 0.32578 0.0
C344 C 0.37857 0.92798 0.29179 0.0
C345 C 0.34767 0.91213 0.34004 0.0
C346 C 0.37377 0.90771 0.22681 0.0
C347 C 0.40508 0.92312 0.17276 0.0
C348 C 0.42045 0.95157 0.13565 0.0
C349 C 0.45061 0.96648 0.0863 0.0
C350 C 0.4654 0.95295 0.073 0.0
C351 C 0.44996 0.92441 0.1088 0.0
C352 C 0.41987 0.90946 0.15836 0.0
C353 C 0.19791 0.77217 0.22394 0.0
C354 C 0.19777 0.74714 0.20885 0.0
C355 C 0.23319 0.80745 0.23823 0.0
C356 C 0.2694 0.81874 0.23969 0.0
C357 C 0.26929 0.7938 0.22261 0.0
C358 C 0.23401 0.75853 0.20722 0.0
C359 C 0.30716 0.8563 0.25999 0.0
C360 C 0.33829 0.87227 0.21186 0.0
C361 C 0.31248 0.87661 0.32597 0.0
C362 C 0.28277 0.86115 0.3838 0.0
C363 C 0.26983 0.83356 0.42085 0.0
C364 C 0.24178 0.81901 0.47521 0.0
C365 C 0.22653 0.83191 0.49327 0.0
C366 C 0.23948 0.85954 0.45727 0.0
C367 C 0.26761 0.87424 0.40294 0.0
H368 H 0.20478 0.82058 0.53534 0.0
H369 H 0.48877 0.96453 0.03483 0.0
H370 H 0.61305 0.50608 0.75118 0.0
H371 H 0.61468 0.46727 0.68329 0.0
H372 H 0.51258 0.38243 0.79317 0.0
H373 H 0.50933 0.42052 0.85842 0.0
H374 H 0.57439 0.38681 0.79179 0.0
H375 H 0.49854 0.38526 0.61809 0.0
H376 H 0.48544 0.41114 0.54175 0.0
H377 H 0.58521 0.45718 0.41274 0.0
H378 H 0.59929 0.432 0.48927 0.0
H379 H 0.51472 0.24409 0.55247 0.0
H380 H 0.51777 0.28535 0.62508 0.0
H381 H 0.60958 0.36461 0.48804 0.0
H382 H 0.60629 0.32323 0.41426 0.0
H383 H 0.55532 0.36477 0.50388 0.0
H384 H 0.63073 0.3656 0.67258 0.0
H385 H 0.64564 0.34113 0.74917 0.0
H386 H 0.54959 0.29829 0.88781 0.0
H387 H 0.53371 0.32208 0.81122 0.0
C388 C 0.59055 0.47911 0.76046 0.0
C389 C 0.56071 0.46657 0.80993 0.0
C390 C 0.59179 0.45699 0.72194 0.0
C391 C 0.5636 0.42187 0.73265 0.0
C392 C 0.53469 0.40945 0.7841 0.0
C393 C 0.53305 0.43144 0.8218 0.0
C394 C 0.56359 0.39792 0.68831 0.0
C395 C 0.56975 0.38164 0.72892 0.0
C396 C 0.5586 0.39189 0.60611 0.0
C397 C 0.55025 0.4071 0.56007 0.0
C398 C 0.51794 0.4012 0.57401 0.0
C399 C 0.51028 0.41568 0.53059 0.0
C400 C 0.53455 0.43589 0.4726 0.0
C401 C 0.56649 0.44159 0.4578 0.0
C402 C 0.57431 0.4272 0.50116 0.0
C403 C 0.53543 0.27024 0.53737 0.0
C404 C 0.56022 0.28028 0.47731 0.0
C405 C 0.53739 0.29393 0.57949 0.0
C406 C 0.56416 0.32827 0.56267 0.0
C407 C 0.58876 0.33833 0.50236 0.0
C408 C 0.58702 0.31469 0.46053 0.0
C409 C 0.56595 0.3534 0.60729 0.0
C410 C 0.5601 0.36995 0.56673 0.0
C411 C 0.57148 0.35982 0.68954 0.0
C412 C 0.58077 0.34531 0.73557 0.0
C413 C 0.61254 0.35068 0.7189 0.0
C414 C 0.62122 0.33698 0.76242 0.0
C415 C 0.5985 0.31808 0.82318 0.0
C416 C 0.56711 0.31289 0.84063 0.0
C417 C 0.55828 0.3265 0.79722 0.0
H418 H 0.60529 0.30752 0.85685 0.0
H419 H 0.52855 0.44705 0.43899 0.0
H420 H 0.12991 0.64713 0.00298 0.0
H421 H 0.15094 0.67074 0.87957 0.0
H422 H 1.03486 0.62159 0.81672 0.0
H423 H 1.01384 0.59873 0.94207 0.0
H424 H 0.13349 0.65015 0.7326 0.0
H425 H 1.04033 0.6771 0.73682 0.0
H426 H 1.01046 0.68574 0.83383 0.0
H427 H 0.09692 0.72254 0.01011 0.0
H428 H 0.12781 0.7148 0.91393 0.0
H429 H 0.0615 0.6463 0.40573 0.0
H430 H 0.06688 0.66572 0.5413 0.0
H431 H 0.19239 0.7405 0.54645 0.0
H432 H 0.18718 0.7207 0.41068 0.0
H433 H 0.1072 0.71689 0.67634 0.0
H434 H 0.21442 0.7144 0.63941 0.0
H435 H 0.2398 0.70125 0.54081 0.0
H436 H 0.12324 0.61345 0.43771 0.0
H437 H 0.09735 0.62616 0.53591 0.0
C438 C 0.10846 0.64032 0.96183 0.0
C439 C 0.07058 0.62194 -0.01754 0.0
C440 C 0.12065 0.65411 0.89171 0.0
C441 C 0.09485 0.64914 0.84126 0.0
C442 C 1.05548 0.62673 0.8569 0.0
C443 C 1.04335 0.61322 0.92767 0.0
C444 C 0.1097 0.6687 0.77422 0.0
C445 C 0.12876 0.66558 0.72154 0.0
C446 C 0.10365 0.68898 0.76047 0.0
C447 C 0.08626 0.69517 0.81808 0.0
C448 C 1.05322 0.68737 0.79607 0.0
C449 C 1.03606 0.69205 0.85098 0.0
C450 C 1.05175 0.70462 0.92809 0.0
C451 C 0.08477 0.71276 0.95038 0.0
C452 C 0.10213 0.70824 0.89567 0.0
C453 C 0.09032 0.66795 0.4348 0.0
C454 C 0.12382 0.68068 0.40052 0.0
C455 C 0.09344 0.67953 0.51186 0.0
C456 C 0.12997 0.70343 0.5541 0.0
C457 C 0.16397 0.72154 0.51459 0.0
C458 C 0.16088 0.70968 0.43772 0.0
C459 C 0.13027 0.69771 0.63472 0.0
C460 C 0.11367 0.70298 0.68986 0.0
C461 C 0.13891 0.67964 0.65181 0.0
C462 C 0.15411 0.67131 0.59436 0.0
C463 C 0.19431 0.69223 0.59584 0.0
C464 C 0.20875 0.68489 0.54001 0.0
C465 C 0.18315 0.65655 0.48296 0.0
C466 C 0.14302 0.63536 0.48193 0.0
C467 C 0.12846 0.6426 0.53761 0.0
H468 H 0.19439 0.651 0.43961 0.0
H469 H 1.03832 0.70809 0.97054 0.0
H470 H 0.53437 0.08413 0.17884 0.0
H471 H 0.51251 0.05726 0.04454 0.0
H472 H 0.63274 0.12661 -0.01163 0.0
H473 H 0.65467 0.1526 0.12358 0.0
H474 H 0.52307 0.08758 0.93206 0.0
H475 H 0.64571 0.09692 0.83726 0.0
H476 H 0.67559 0.07991 0.88498 0.0
H477 H 0.57766 1.00822 0.01971 0.0
H478 H 0.54674 1.02425 0.97182 0.0
H479 H 0.63945 0.17324 0.61756 0.0
H480 H 0.62751 0.14177 0.7249 0.0
H481 H 0.50652 0.05607 0.63911 0.0
H482 H 0.51814 0.08752 0.53294 0.0
H483 H 0.58969 0.07216 0.75355 0.0
H484 H 0.45782 1.04372 0.78948 0.0
H485 H 0.42582 0.059 0.74217 0.0
H486 H 0.53797 0.16342 0.73325 0.0
H487 H 0.57047 0.14873 0.78122 0.0
C488 C 0.55613 0.09353 0.13789 0.0
C489 C 0.59626 0.12083 0.16086 0.0
C490 C 0.54356 0.0778 0.06151 0.0
C491 C 0.57092 0.08946 0.00677 0.0
C492 C 0.61104 0.11642 0.03011 0.0
C493 C 0.62361 0.13179 0.10683 0.0
C494 C 0.55839 0.07839 0.92323 0.0
C495 C 0.53629 0.08267 0.89314 0.0
C496 C 0.5752 0.07162 0.87214 0.0
C497 C 0.59387 0.06191 0.9009 0.0
C498 C 0.63032 0.07731 0.87652 0.0
C499 C 0.64751 0.06788 0.90378 0.0
C500 C 0.62857 1.04303 0.9554 0.0
C501 C 0.59236 1.02753 0.97986 0.0
C502 C 0.57502 1.03683 0.95276 0.0
C503 C 0.61057 0.14749 0.62138 0.0
C504 C 0.57948 0.13303 0.56913 0.0
C505 C 0.60392 0.12931 0.68137 0.0
C506 C 0.56614 0.09672 0.68937 0.0
C507 C 0.53582 0.08114 0.63332 0.0
C508 C 0.54237 0.09938 0.57391 0.0
C509 C 0.55701 0.0838 0.76519 0.0
C510 C 0.57483 0.075 0.79309 0.0
C511 C 0.53565 0.0857 0.81467 0.0
C512 C 0.51644 0.09506 0.78817 0.0
C513 C 0.47554 0.06994 0.77768 0.0
C514 C 0.45735 0.07849 0.75072 0.0
C515 C 0.47985 0.11214 0.73452 0.0
C516 C 0.52058 0.13736 0.74566 0.0
C517 C 0.53889 0.12895 0.77276 0.0
H518 H 0.46572 0.11868 0.71346 0.0
H519 H 0.64194 1.03578 0.97641 0.0
H520 H 0.5235 0.61958 0.71839 0.0
H521 H 0.52373 0.6448 0.61037 0.0
H522 H 0.63789 0.69093 0.55927 0.0
H523 H 0.63815 0.66663 0.66852 0.0
H524 H 0.62729 0.73146 0.5257 0.0
H525 H 0.55516 0.60686 0.48033 0.0
H526 H 0.50179 0.54694 0.51203 0.0
H527 H 0.41885 0.54961 0.47416 0.0
H528 H 0.4719 0.60965 0.44275 0.0
H529 H 0.67216 0.70973 0.16721 0.0
H530 H 0.65713 0.71546 0.2985 0.0
H531 H 0.5417 0.66147 0.20996 0.0
H532 H 0.55585 0.65416 0.08058 0.0
H533 H 0.5348 0.63272 0.32043 0.0
H534 H 0.60855 0.74734 0.29762 0.0
H535 H 0.66209 0.80681 0.26449 0.0
H536 H 0.74129 0.82577 0.42866 0.0
H537 H 0.6885 0.76626 0.46192 0.0
C538 C 0.54867 0.63534 0.68414 0.0
C539 C 0.58043 0.64061 0.69946 0.0
C540 C 0.54905 0.65016 0.62368 0.0
C541 C 0.58071 0.6695 0.57695 0.0
C542 C 0.61333 0.67629 0.59524 0.0
C543 C 0.61319 0.66192 0.65633 0.0
C544 C 0.57717 0.67648 0.50035 0.0
C545 C 0.6069 0.71019 0.48029 0.0
C546 C 0.54919 0.64877 0.44242 0.0
C547 C 0.51735 0.61262 0.45985 0.0
C548 C 0.52551 0.59458 0.47885 0.0
C549 C 0.49537 0.56067 0.49682 0.0
C550 C 0.45696 0.5445 0.49524 0.0
C551 C 0.44861 0.56218 0.47545 0.0
C552 C 0.47867 0.59613 0.45756 0.0
C553 C 0.64365 0.69912 0.17628 0.0
C554 C 0.61488 0.68075 0.11461 0.0
C555 C 0.63531 0.70301 0.25071 0.0
C556 C 0.59844 0.68938 0.26376 0.0
C557 C 0.57032 0.67227 0.20122 0.0
C558 C 0.57831 0.66769 0.12749 0.0
C559 C 0.58716 0.68761 0.34394 0.0
C560 C 0.55429 0.65472 0.36485 0.0
C561 C 0.61216 0.71623 0.40211 0.0
C562 C 0.6444 0.75216 0.38225 0.0
C563 C 0.63744 0.76407 0.32633 0.0
C564 C 0.66768 0.79783 0.30755 0.0
C565 C 0.70507 0.82005 0.34445 0.0
C566 C 0.71229 0.80854 0.40022 0.0
C567 C 0.68217 0.77479 0.41919 0.0
H568 H 0.72844 0.84619 0.32985 0.0
H569 H 0.43366 0.51825 0.50924 0.0
loop_
_geom_bond_atom_site_label_1
_geom_bond_atom_site_label_2
_geom_bond_distance
_geom_bond_site_symmetry_2
_ccdc_geom_bond_type
Gd0 C3 2.818 . S
Gd0 O20 2.377 . S
Gd0 O22 2.448 . S
Gd0 O23 2.506 . S
Gd0 O24 2.435 . S
Gd0 O25 2.717 . S
Gd0 O27 2.395 1_455 S
Gd0 O31 2.327 . S
Gd1 C12 2.818 1_455 S
Gd1 O21 2.395 . S
Gd1 O25 2.327 . S
Gd1 O26 2.377 1_455 S
Gd1 O28 2.448 1_455 S
Gd1 O29 2.506 1_455 S
Gd1 O30 2.435 . S
Gd1 O31 2.717 . S
C2 O20 1.240 . S
C2 O21 1.240 . S
C3 Gd0 2.818 . S
C3 C4 1.510 . S
C3 O22 1.249 . S
C3 O23 1.252 . S
C4 C3 1.510 . S
C4 C5 1.404 . S
C4 C6 1.352 . S
C5 C4 1.404 . S
C5 C9 1.389 . S
C5 H32 0.930 . S
C6 C4 1.352 . S
C6 C8 1.374 . S
C6 H33 0.931 . S
C7 C8 1.359 . S
C7 C9 1.364 . S
C8 C6 1.374 . S
C8 C7 1.359 . S
C8 H34 0.931 . S
C9 C5 1.389 . S
C9 C7 1.364 . S
C9 H35 0.931 . S
C10 O24 1.256 . S
C10 O25 1.257 . S
C11 O26 1.240 . S
C11 O27 1.240 . S
C12 Gd1 2.818 1_655 S
C12 C13 1.510 . S
C12 O28 1.249 . S
C12 O29 1.252 . S
C13 C12 1.510 . S
C13 C14 1.404 . S
C13 C15 1.352 . S
C14 C13 1.404 . S
C14 C18 1.389 . S
C14 H36 0.930 . S
C15 C13 1.352 . S
C15 C17 1.374 . S
C15 H37 0.931 . S
C16 C17 1.359 . S
C16 C18 1.364 . S
C17 C15 1.374 . S
C17 C16 1.359 . S
C17 H38 0.931 . S
C18 C14 1.389 . S
C18 C16 1.364 . S
C18 H39 0.931 . S
C19 O30 1.256 . S
C19 O31 1.257 . S
O20 Gd0 2.377 . S
O20 C2 1.240 . S
O21 Gd1 2.395 . S
O21 C2 1.240 . S
O22 Gd0 2.448 . S
O22 C3 1.249 . S
O23 Gd0 2.506 . S
O23 C3 1.252 . S
O24 Gd0 2.435 . S
O24 C10 1.256 . S
O25 Gd0 2.717 . S
O25 Gd1 2.327 . S
O25 C10 1.257 . S
O26 Gd1 2.377 1_655 S
O26 C11 1.240 . S
O27 Gd0 2.395 1_655 S
O27 C11 1.240 . S
O28 Gd1 2.448 1_655 S
O28 C12 1.249 . S
O29 Gd1 2.506 1_655 S
O29 C12 1.252 . S
O30 Gd1 2.435 . S
O30 C19 1.256 . S
O31 Gd0 2.327 . S
O31 Gd1 2.717 . S
O31 C19 1.257 . S
H32 C5 0.930 . S
H33 C6 0.931 . S
H34 C8 0.931 . S
H35 C9 0.931 . S
H36 C14 0.930 . S
H37 C15 0.931 . S
H38 C17 0.931 . S
H39 C18 0.931 . S
Gd40 C43 2.818 . S
Gd40 O60 2.377 . S
Gd40 O62 2.448 . S
Gd40 O63 2.506 . S
Gd40 O64 2.435 . S
Gd40 O65 2.717 . S
Gd40 O67 2.395 . S
Gd40 O71 2.327 . S
Gd41 C52 2.818 . S
Gd41 O61 2.395 . S
Gd41 O65 2.327 . S
Gd41 O66 2.377 . S
Gd41 O68 2.448 . S
Gd41 O69 2.506 . S
Gd41 O70 2.435 . S
Gd41 O71 2.717 . S
C42 O60 1.240 . S
C42 O61 1.240 . S
C43 Gd40 2.818 . S
C43 C44 1.510 . S
C43 O62 1.249 . S
C43 O63 1.252 . S
C44 C43 1.510 . S
C44 C45 1.404 1_545 S
C44 C46 1.352 1_545 S
C45 C44 1.404 1_565 S
C45 C49 1.389 . S
C45 H72 0.930 1_565 S
C46 C44 1.352 1_565 S
C46 C48 1.374 . S
C46 H73 0.931 . S
C47 C48 1.359 . S
C47 C49 1.364 . S
C48 C46 1.374 . S
C48 C47 1.359 . S
C48 H74 0.931 . S
C49 C45 1.389 . S
C49 C47 1.364 . S
C49 H75 0.931 . S
C50 O64 1.256 . S
C50 O65 1.257 . S
C51 O66 1.240 . S
C51 O67 1.240 . S
C52 Gd41 2.818 . S
C52 C53 1.510 . S
C52 O68 1.249 . S
C52 O69 1.252 . S
C53 C52 1.510 . S
C53 C54 1.404 . S
C53 C55 1.352 . S
C54 C53 1.404 . S
C54 C58 1.389 . S
C54 H76 0.930 . S
C55 C53 1.352 . S
C55 C57 1.374 . S
C55 H77 0.931 . S
C56 C57 1.359 . S
C56 C58 1.364 . S
C57 C55 1.374 . S
C57 C56 1.359 . S
C57 H78 0.931 . S
C58 C54 1.389 . S
C58 C56 1.364 . S
C58 H79 0.931 . S
C59 O70 1.256 . S
C59 O71 1.257 . S
O60 Gd40 2.377 . S
O60 C42 1.240 . S
O61 Gd41 2.395 . S
O61 C42 1.240 . S
O62 Gd40 2.448 . S
O62 C43 1.249 . S
O63 Gd40 2.506 . S
O63 C43 1.252 . S
O64 Gd40 2.435 . S
O64 C50 1.256 . S
O65 Gd40 2.717 . S
O65 Gd41 2.327 . S
O65 C50 1.257 . S
O66 Gd41 2.377 . S
O66 C51 1.240 . S
O67 Gd40 2.395 . S
O67 C51 1.240 . S
O68 Gd41 2.448 . S
O68 C52 1.249 . S
O69 Gd41 2.506 . S
O69 C52 1.252 . S
O70 Gd41 2.435 . S
O70 C59 1.256 . S
O71 Gd40 2.327 . S
O71 Gd41 2.717 . S
O71 C59 1.257 . S
H72 C45 0.930 1_545 S
H73 C46 0.931 . S
H74 C48 0.931 . S
H75 C49 0.931 . S
H76 C54 0.930 . S
H77 C55 0.931 . S
H78 C57 0.931 . S
H79 C58 0.931 . S
Gd80 C83 2.818 . S
Gd80 O100 2.377 . S
Gd80 O102 2.448 . S
Gd80 O103 2.506 . S
Gd80 O104 2.435 1_556 S
Gd80 O105 2.717 . S
Gd80 O107 2.395 . S
Gd80 O111 2.327 . S
Gd81 C92 2.818 . S
Gd81 O101 2.395 . S
Gd81 O105 2.327 . S
Gd81 O106 2.377 . S
Gd81 O108 2.448 . S
Gd81 O109 2.506 . S
Gd81 O110 2.435 . S
Gd81 O111 2.717 . S
C82 O100 1.240 . S
C82 O101 1.240 . S
C83 Gd80 2.818 . S
C83 C84 1.510 . S
C83 O102 1.249 . S
C83 O103 1.252 . S
C84 C83 1.510 . S
C84 C85 1.404 . S
C84 C86 1.352 . S
C85 C84 1.404 . S
C85 C89 1.389 . S
C85 H112 0.930 . S
C86 C84 1.352 . S
C86 C88 1.374 . S
C86 H113 0.931 . S
C87 C88 1.359 . S
C87 C89 1.364 . S
C88 C86 1.374 . S
C88 C87 1.359 . S
C88 H114 0.931 . S
C89 C85 1.389 . S
C89 C87 1.364 . S
C89 H115 0.931 . S
C90 O104 1.256 . S
C90 O105 1.257 1_554 S
C91 O106 1.240 . S
C91 O107 1.240 . S
C92 Gd81 2.818 . S
C92 C93 1.510 . S
C92 O108 1.249 . S
C92 O109 1.252 . S
C93 C92 1.510 . S
C93 C94 1.404 . S
C93 C95 1.352 . S
C94 C93 1.404 . S
C94 C98 1.389 . S
C94 H116 0.930 . S
C95 C93 1.352 . S
C95 C97 1.374 . S
C95 H117 0.931 . S
C96 C97 1.359 . S
C96 C98 1.364 . S
C97 C95 1.374 . S
C97 C96 1.359 . S
C97 H118 0.931 . S
C98 C94 1.389 . S
C98 C96 1.364 . S
C98 H119 0.931 . S
C99 O110 1.256 . S
C99 O111 1.257 . S
O100 Gd80 2.377 . S
O100 C82 1.240 . S
O101 Gd81 2.395 . S
O101 C82 1.240 . S
O102 Gd80 2.448 . S
O102 C83 1.249 . S
O103 Gd80 2.506 . S
O103 C83 1.252 . S
O104 Gd80 2.435 1_554 S
O104 C90 1.256 . S
O105 Gd80 2.717 . S
O105 Gd81 2.327 . S
O105 C90 1.257 1_556 S
O106 Gd81 2.377 . S
O106 C91 1.240 . S
O107 Gd80 2.395 . S
O107 C91 1.240 . S
O108 Gd81 2.448 . S
O108 C92 1.249 . S
O109 Gd81 2.506 . S
O109 C92 1.252 . S
O110 Gd81 2.435 . S
O110 C99 1.256 . S
O111 Gd80 2.327 . S
O111 Gd81 2.717 . S
O111 C99 1.257 . S
H112 C85 0.930 . S
H113 C86 0.931 . S
H114 C88 0.931 . S
H115 C89 0.931 . S
H116 C94 0.930 . S
H117 C95 0.931 . S
H118 C97 0.931 . S
H119 C98 0.931 . S
H120 C138 0.951 . S
H121 C140 0.951 . S
H122 C142 0.950 . S
H123 C143 0.950 . S
H124 C145 0.950 . S
H125 C148 0.950 . S
H126 C149 0.950 . S
H127 C151 0.950 . S
H128 C152 0.950 . S
H129 C153 0.951 . S
H130 C155 0.951 . S
H131 C157 0.950 . S
H132 C158 0.950 . S
H133 C160 0.950 . S
H134 C163 0.950 . S
H135 C164 0.950 . S
H136 C166 0.950 . S
H137 C167 0.950 . S
C138 H120 0.951 . S
C138 C139 1.366 . S
C138 C140 1.388 . S
C139 C138 1.366 . S
C139 C143 1.385 . S
C140 H121 0.951 . S
C140 C138 1.388 . S
C140 C141 1.366 . S
C141 C140 1.366 . S
C141 C142 1.414 . S
C141 C144 1.499 . S
C142 H122 0.950 . S
C142 C141 1.414 . S
C142 C143 1.374 . S
C143 H123 0.950 . S
C143 C139 1.385 . S
C143 C142 1.374 . S
C144 C141 1.499 . S
C144 C145 1.373 1_554 S
C144 C146 1.389 . S
C145 H124 0.950 . S
C145 C144 1.373 1_556 S
C145 C161 1.377 . S
C146 C144 1.389 . S
C146 C147 1.524 . S
C146 C160 1.377 . S
C147 C146 1.524 . S
C147 C148 1.397 . S
C147 C152 1.363 . S
C148 H125 0.950 . S
C148 C147 1.397 . S
C148 C149 1.334 . S
C149 H126 0.950 . S
C149 C148 1.334 . S
C149 C150 1.287 . S
C150 C149 1.287 . S
C150 C151 1.524 . S
C150 H169 0.913 . S
C151 H127 0.950 . S
C151 C150 1.524 . S
C151 C152 1.415 . S
C152 H128 0.950 . S
C152 C147 1.363 . S
C152 C151 1.415 . S
C153 H129 0.951 . S
C153 C154 1.366 . S
C153 C155 1.388 . S
C154 C153 1.366 . S
C154 C158 1.385 . S
C155 H130 0.951 . S
C155 C153 1.388 . S
C155 C156 1.366 . S
C156 C155 1.366 . S
C156 C157 1.414 . S
C156 C159 1.499 . S
C157 H131 0.950 . S
C157 C156 1.414 . S
C157 C158 1.374 . S
C158 H132 0.950 . S
C158 C154 1.385 . S
C158 C157 1.374 . S
C159 C156 1.499 . S
C159 C160 1.373 1_556 S
C159 C161 1.389 . S
C160 H133 0.950 . S
C160 C146 1.377 . S
C160 C159 1.373 1_554 S
C161 C145 1.377 . S
C161 C159 1.389 . S
C161 C162 1.524 . S
C162 C161 1.524 . S
C162 C163 1.397 . S
C162 C167 1.363 . S
C163 H134 0.950 . S
C163 C162 1.397 . S
C163 C164 1.334 . S
C164 H135 0.950 . S
C164 C163 1.334 . S
C164 C165 1.287 . S
C165 C164 1.287 . S
C165 C166 1.524 . S
C165 H168 0.999 . S
C166 H136 0.950 . S
C166 C165 1.524 . S
C166 C167 1.415 . S
C167 H137 0.950 . S
C167 C162 1.363 . S
C167 C166 1.415 . S
H168 C165 0.999 . S
H169 C150 0.913 . S
H170 C188 0.951 . S
H171 C190 0.951 . S
H172 C192 0.950 . S
H173 C193 0.950 . S
H174 C195 0.950 . S
H175 C198 0.950 . S
H176 C199 0.950 . S
H177 C201 0.950 . S
H178 C202 0.950 . S
H179 C203 0.951 . S
H180 C205 0.951 . S
H181 C207 0.950 . S
H182 C208 0.950 . S
H183 C210 0.950 . S
H184 C213 0.950 . S
H185 C214 0.950 . S
H186 C216 0.950 1_556 S
H187 C217 0.950 . S
C188 H170 0.951 . S
C188 C189 1.366 . S
C188 C190 1.388 . S
C189 C188 1.366 . S
C189 C193 1.385 . S
C190 H171 0.951 . S
C190 C188 1.388 . S
C190 C191 1.366 . S
C191 C190 1.366 . S
C191 C192 1.414 . S
C191 C194 1.499 . S
C192 H172 0.950 . S
C192 C191 1.414 . S
C192 C193 1.374 . S
C193 H173 0.950 . S
C193 C189 1.385 . S
C193 C192 1.374 . S
C194 C191 1.499 . S
C194 C195 1.373 . S
C194 C196 1.389 . S
C195 H174 0.950 . S
C195 C194 1.373 . S
C195 C211 1.377 . S
C196 C194 1.389 . S
C196 C197 1.524 . S
C196 C210 1.377 . S
C197 C196 1.524 . S
C197 C198 1.397 . S
C197 C202 1.363 . S
C198 H175 0.950 . S
C198 C197 1.397 . S
C198 C199 1.334 . S
C199 H176 0.950 . S
C199 C198 1.334 . S
C199 C200 1.287 . S
C200 C199 1.287 . S
C200 C201 1.524 . S
C200 H219 0.913 . S
C201 H177 0.950 . S
C201 C200 1.524 . S
C201 C202 1.415 . S
C202 H178 0.950 . S
C202 C197 1.363 . S
C202 C201 1.415 . S
C203 H179 0.951 . S
C203 C204 1.366 . S
C203 C205 1.388 . S
C204 C203 1.366 . S
C204 C208 1.385 . S
C205 H180 0.951 . S
C205 C203 1.388 . S
C205 C206 1.366 . S
C206 C205 1.366 . S
C206 C207 1.414 . S
C206 C209 1.499 . S
C207 H181 0.950 . S
C207 C206 1.414 . S
C207 C208 1.374 . S
C208 H182 0.950 . S
C208 C204 1.385 . S
C208 C207 1.374 . S
C209 C206 1.499 . S
C209 C210 1.373 . S
C209 C211 1.389 . S
C210 H183 0.950 . S
C210 C196 1.377 . S
C210 C209 1.373 . S
C211 C195 1.377 . S
C211 C209 1.389 . S
C211 C212 1.524 . S
C212 C211 1.524 . S
C212 C213 1.397 . S
C212 C217 1.363 . S
C213 H184 0.950 . S
C213 C212 1.397 . S
C213 C214 1.334 . S
C214 H185 0.950 . S
C214 C213 1.334 . S
C214 C215 1.287 1_554 S
C215 C214 1.287 1_556 S
C215 C216 1.524 1_556 S
C215 H218 0.999 . S
C216 H186 0.950 1_554 S
C216 C215 1.524 1_554 S
C216 C217 1.415 . S
C217 H187 0.950 . S
C217 C212 1.363 . S
C217 C216 1.415 . S
H218 C215 0.999 . S
H219 C200 0.913 . S
H220 C238 0.951 . S
H221 C240 0.951 . S
H222 C242 0.950 . S
H223 C243 0.950 . S
H224 C245 0.950 . S
H225 C248 0.950 . S
H226 C249 0.950 . S
H227 C251 0.950 . S
H228 C252 0.950 . S
H229 C253 0.951 . S
H230 C255 0.951 . S
H231 C257 0.950 . S
H232 C258 0.950 . S
H233 C260 0.950 . S
H234 C263 0.950 . S
H235 C264 0.950 . S
H236 C266 0.950 1_554 S
H237 C267 0.950 . S
C238 H220 0.951 . S
C238 C239 1.366 . S
C238 C240 1.388 . S
C239 C238 1.366 . S
C239 C243 1.385 . S
C240 H221 0.951 . S
C240 C238 1.388 . S
C240 C241 1.366 . S
C241 C240 1.366 . S
C241 C242 1.414 . S
C241 C244 1.499 . S
C242 H222 0.950 . S
C242 C241 1.414 . S
C242 C243 1.374 . S
C243 H223 0.950 . S
C243 C239 1.385 . S
C243 C242 1.374 . S
C244 C241 1.499 . S
C244 C245 1.373 . S
C244 C246 1.389 . S
C245 H224 0.950 . S
C245 C244 1.373 . S
C245 C261 1.377 . S
C246 C244 1.389 . S
C246 C247 1.524 . S
C246 C260 1.377 . S
C247 C246 1.524 . S
C247 C248 1.397 . S
C247 C252 1.363 . S
C248 H225 0.950 . S
C248 C247 1.397 . S
C248 C249 1.334 . S
C249 H226 0.950 . S
C249 C248 1.334 . S
C249 C250 1.287 . S
C250 C249 1.287 . S
C250 C251 1.524 . S
C250 H269 0.913 . S
C251 H227 0.950 . S
C251 C250 1.524 . S
C251 C252 1.415 . S
C252 H228 0.950 . S
C252 C247 1.363 . S
C252 C251 1.415 . S
C253 H229 0.951 . S
C253 C254 1.366 . S
C253 C255 1.388 . S
C254 C253 1.366 . S
C254 C258 1.385 . S
C255 H230 0.951 . S
C255 C253 1.388 . S
C255 C256 1.366 . S
C256 C255 1.366 . S
C256 C257 1.414 . S
C256 C259 1.499 . S
C257 H231 0.950 . S
C257 C256 1.414 . S
C257 C258 1.374 . S
C258 H232 0.950 . S
C258 C254 1.385 . S
C258 C257 1.374 . S
C259 C256 1.499 . S
C259 C260 1.373 . S
C259 C261 1.389 . S
C260 H233 0.950 . S
C260 C246 1.377 . S
C260 C259 1.373 . S
C261 C245 1.377 . S
C261 C259 1.389 . S
C261 C262 1.524 . S
C262 C261 1.524 . S
C262 C263 1.397 . S
C262 C267 1.363 . S
C263 H234 0.950 . S
C263 C262 1.397 . S
C263 C264 1.334 . S
C264 H235 0.950 . S
C264 C263 1.334 . S
C264 C265 1.287 . S
C265 C264 1.287 . S
C265 C266 1.524 . S
C265 H268 0.999 1_556 S
C266 H236 0.950 1_556 S
C266 C265 1.524 . S
C266 C267 1.415 . S
C267 H237 0.950 . S
C267 C262 1.363 . S
C267 C266 1.415 . S
H268 C265 0.999 1_554 S
H269 C250 0.913 . S
H270 C288 0.951 . S
H271 C290 0.951 . S
H272 C292 0.950 . S
H273 C293 0.950 1_554 S
H274 C295 0.950 . S
H275 C298 0.950 1_554 S
H276 C299 0.950 . S
H277 C301 0.950 . S
H278 C302 0.950 . S
H279 C303 0.951 . S
H280 C305 0.951 . S
H281 C307 0.951 . S
H282 C308 0.950 . S
H283 C310 0.950 . S
H284 C313 0.950 . S
H285 C314 0.950 . S
H286 C316 0.950 . S
H287 C317 0.950 . S
C288 H270 0.951 . S
C288 C289 1.366 . S
C288 C290 1.388 . S
C289 C288 1.366 . S
C289 C293 1.385 . S
C290 H271 0.951 . S
C290 C288 1.388 . S
C290 C291 1.366 . S
C291 C290 1.366 . S
C291 C292 1.414 1_556 S
C291 C294 1.499 1_556 S
C292 H272 0.950 . S
C292 C291 1.414 1_554 S
C292 C293 1.374 1_554 S
C293 H273 0.950 1_556 S
C293 C289 1.385 . S
C293 C292 1.374 1_556 S
C294 C291 1.499 1_554 S
C294 C295 1.373 . S
C294 C296 1.389 1_554 S
C295 H274 0.950 . S
C295 C294 1.373 . S
C295 C311 1.377 . S
C296 C294 1.389 1_556 S
C296 C297 1.524 . S
C296 C310 1.377 1_556 S
C297 C296 1.524 . S
C297 C298 1.397 . S
C297 C302 1.363 . S
C298 H275 0.950 1_556 S
C298 C297 1.397 . S
C298 C299 1.334 . S
C299 H276 0.950 . S
C299 C298 1.334 . S
C299 C300 1.287 . S
C300 C299 1.287 . S
C300 C301 1.524 . S
C300 H319 0.913 . S
C301 H277 0.950 . S
C301 C300 1.524 . S
C301 C302 1.415 . S
C302 H278 0.950 . S
C302 C297 1.363 . S
C302 C301 1.415 . S
C303 H279 0.951 . S
C303 C304 1.366 . S
C303 C305 1.388 . S
C304 C303 1.366 . S
C304 C308 1.385 . S
C305 H280 0.951 . S
C305 C303 1.388 . S
C305 C306 1.366 . S
C306 C305 1.366 . S
C306 C307 1.414 . S
C306 C309 1.499 . S
C307 H281 0.951 . S
C307 C306 1.414 . S
C307 C308 1.374 . S
C308 H282 0.950 . S
C308 C304 1.385 . S
C308 C307 1.374 . S
C309 C306 1.499 . S
C309 C310 1.373 . S
C309 C311 1.389 . S
C310 H283 0.950 . S
C310 C296 1.377 1_554 S
C310 C309 1.373 . S
C311 C295 1.377 . S
C311 C309 1.389 . S
C311 C312 1.524 . S
C312 C311 1.524 . S
C312 C313 1.397 . S
C312 C317 1.363 . S
C313 H284 0.950 . S
C313 C312 1.397 . S
C313 C314 1.334 . S
C314 H285 0.950 . S
C314 C313 1.334 . S
C314 C315 1.287 . S
C315 C314 1.287 . S
C315 C316 1.524 . S
C315 H318 0.999 . S
C316 H286 0.950 . S
C316 C315 1.524 . S
C316 C317 1.415 . S
C317 H287 0.950 . S
C317 C312 1.363 . S
C317 C316 1.415 . S
H318 C315 0.999 . S
H319 C300 0.913 . S
H320 C338 0.951 . S
H321 C340 0.951 . S
H322 C342 0.950 . S
H323 C343 0.950 . S
H324 C345 0.950 . S
H325 C348 0.950 . S
H326 C349 0.950 . S
H327 C351 0.950 . S
H328 C352 0.950 . S
H329 C353 0.951 . S
H330 C355 0.951 . S
H331 C357 0.950 . S
H332 C358 0.950 . S
H333 C360 0.950 . S
H334 C363 0.950 . S
H335 C364 0.950 . S
H336 C366 0.950 . S
H337 C367 0.950 . S
C338 H320 0.951 . S
C338 C339 1.366 . S
C338 C340 1.388 . S
C339 C338 1.366 . S
C339 C343 1.385 . S
C340 H321 0.951 . S
C340 C338 1.388 . S
C340 C341 1.366 . S
C341 C340 1.366 . S
C341 C342 1.414 . S
C341 C344 1.499 . S
C342 H322 0.950 . S
C342 C341 1.414 . S
C342 C343 1.374 . S
C343 H323 0.950 . S
C343 C339 1.385 . S
C343 C342 1.374 . S
C344 C341 1.499 . S
C344 C345 1.373 . S
C344 C346 1.389 . S
C345 H324 0.950 . S
C345 C344 1.373 . S
C345 C361 1.377 . S
C346 C344 1.389 . S
C346 C347 1.524 . S
C346 C360 1.377 . S
C347 C346 1.524 . S
C347 C348 1.397 . S
C347 C352 1.363 . S
C348 H325 0.950 . S
C348 C347 1.397 . S
C348 C349 1.334 . S
C349 H326 0.950 . S
C349 C348 1.334 . S
C349 C350 1.287 . S
C350 C349 1.287 . S
C350 C351 1.524 . S
C350 H369 0.913 . S
C351 H327 0.950 . S
C351 C350 1.524 . S
C351 C352 1.415 . S
C352 H328 0.950 . S
C352 C347 1.363 . S
C352 C351 1.415 . S
C353 H329 0.951 . S
C353 C354 1.366 . S
C353 C355 1.388 . S
C354 C353 1.366 . S
C354 C358 1.385 . S
C355 H330 0.951 . S
C355 C353 1.388 . S
C355 C356 1.366 . S
C356 C355 1.366 . S
C356 C357 1.414 . S
C356 C359 1.499 . S
C357 H331 0.950 . S
C357 C356 1.414 . S
C357 C358 1.374 . S
C358 H332 0.950 . S
C358 C354 1.385 . S
C358 C357 1.374 . S
C359 C356 1.499 . S
C359 C360 1.373 . S
C359 C361 1.389 . S
C360 H333 0.950 . S
C360 C346 1.377 . S
C360 C359 1.373 . S
C361 C345 1.377 . S
C361 C359 1.389 . S
C361 C362 1.524 . S
C362 C361 1.524 . S
C362 C363 1.397 . S
C362 C367 1.363 . S
C363 H334 0.950 . S
C363 C362 1.397 . S
C363 C364 1.334 . S
C364 H335 0.950 . S
C364 C363 1.334 . S
C364 C365 1.287 . S
C365 C364 1.287 . S
C365 C366 1.524 . S
C365 H368 0.999 . S
C366 H336 0.950 . S
C366 C365 1.524 . S
C366 C367 1.415 . S
C367 H337 0.950 . S
C367 C362 1.363 . S
C367 C366 1.415 . S
H368 C365 0.999 . S
H369 C350 0.913 . S
H370 C388 0.951 . S
H371 C390 0.951 . S
H372 C392 0.950 . S
H373 C393 0.950 . S
H374 C395 0.950 . S
H375 C398 0.950 . S
H376 C399 0.950 . S
H377 C401 0.950 . S
H378 C402 0.950 . S
H379 C403 0.951 . S
H380 C405 0.951 . S
H381 C407 0.950 . S
H382 C408 0.950 . S
H383 C410 0.950 . S
H384 C413 0.950 . S
H385 C414 0.950 . S
H386 C416 0.950 . S
H387 C417 0.950 . S
C388 H370 0.951 . S
C388 C389 1.366 . S
C388 C390 1.388 . S
C389 C388 1.366 . S
C389 C393 1.385 . S
C390 H371 0.951 . S
C390 C388 1.388 . S
C390 C391 1.366 . S
C391 C390 1.366 . S
C391 C392 1.414 . S
C391 C394 1.499 . S
C392 H372 0.950 . S
C392 C391 1.414 . S
C392 C393 1.374 . S
C393 H373 0.950 . S
C393 C389 1.385 . S
C393 C392 1.374 . S
C394 C391 1.499 . S
C394 C395 1.373 . S
C394 C396 1.389 . S
C395 H374 0.950 . S
C395 C394 1.373 . S
C395 C411 1.377 . S
C396 C394 1.389 . S
C396 C397 1.524 . S
C396 C410 1.377 . S
C397 C396 1.524 . S
C397 C398 1.397 . S
C397 C402 1.363 . S
C398 H375 0.950 . S
C398 C397 1.397 . S
C398 C399 1.334 . S
C399 H376 0.950 . S
C399 C398 1.334 . S
C399 C400 1.287 . S
C400 C399 1.287 . S
C400 C401 1.524 . S
C400 H419 0.913 . S
C401 H377 0.950 . S
C401 C400 1.524 . S
C401 C402 1.415 . S
C402 H378 0.950 . S
C402 C397 1.363 . S
C402 C401 1.415 . S
C403 H379 0.951 . S
C403 C404 1.366 . S
C403 C405 1.388 . S
C404 C403 1.366 . S
C404 C408 1.385 . S
C405 H380 0.951 . S
C405 C403 1.388 . S
C405 C406 1.366 . S
C406 C405 1.366 . S
C406 C407 1.414 . S
C406 C409 1.499 . S
C407 H381 0.950 . S
C407 C406 1.414 . S
C407 C408 1.374 . S
C408 H382 0.950 . S
C408 C404 1.385 . S
C408 C407 1.374 . S
C409 C406 1.499 . S
C409 C410 1.373 . S
C409 C411 1.389 . S
C410 H383 0.950 . S
C410 C396 1.377 . S
C410 C409 1.373 . S
C411 C395 1.377 . S
C411 C409 1.389 . S
C411 C412 1.524 . S
C412 C411 1.524 . S
C412 C413 1.397 . S
C412 C417 1.363 . S
C413 H384 0.950 . S
C413 C412 1.397 . S
C413 C414 1.334 . S
C414 H385 0.950 . S
C414 C413 1.334 . S
C414 C415 1.287 . S
C415 C414 1.287 . S
C415 C416 1.524 . S
C415 H418 0.999 . S
C416 H386 0.950 . S
C416 C415 1.524 . S
C416 C417 1.415 . S
C417 H387 0.950 . S
C417 C412 1.363 . S
C417 C416 1.415 . S
H418 C415 0.999 . S
H419 C400 0.913 . S
H420 C438 0.951 1_554 S
H421 C440 0.951 . S
H422 C442 0.950 . S
H423 C443 0.950 . S
H424 C445 0.950 . S
H425 C448 0.950 . S
H426 C449 0.950 . S
H427 C451 0.950 . S
H428 C452 0.950 . S
H429 C453 0.951 . S
H430 C455 0.951 . S
H431 C457 0.950 . S
H432 C458 0.950 . S
H433 C460 0.950 . S
H434 C463 0.950 . S
H435 C464 0.950 . S
H436 C466 0.950 . S
H437 C467 0.950 . S
C438 H420 0.951 1_556 S
C438 C439 1.366 1_556 S
C438 C440 1.388 . S
C439 C438 1.366 1_554 S
C439 C443 1.385 1_554 S
C440 H421 0.951 . S
C440 C438 1.388 . S
C440 C441 1.366 . S
C441 C440 1.366 . S
C441 C442 1.414 . S
C441 C444 1.499 . S
C442 H422 0.950 . S
C442 C441 1.414 . S
C442 C443 1.374 . S
C443 H423 0.950 . S
C443 C439 1.385 1_556 S
C443 C442 1.374 . S
C444 C441 1.499 . S
C444 C445 1.373 . S
C444 C446 1.389 1_455 S
C445 H424 0.950 . S
C445 C444 1.373 . S
C445 C461 1.377 . S
C446 C444 1.389 1_655 S
C446 C447 1.524 . S
C446 C460 1.377 . S
C447 C446 1.524 . S
C447 C448 1.397 . S
C447 C452 1.363 . S
C448 H425 0.950 . S
C448 C447 1.397 . S
C448 C449 1.334 . S
C449 H426 0.950 . S
C449 C448 1.334 . S
C449 C450 1.287 . S
C450 C449 1.287 . S
C450 C451 1.524 . S
C450 H469 0.913 . S
C451 H427 0.950 . S
C451 C450 1.524 . S
C451 C452 1.415 . S
C452 H428 0.950 . S
C452 C447 1.363 . S
C452 C451 1.415 . S
C453 H429 0.951 . S
C453 C454 1.366 . S
C453 C455 1.388 . S
C454 C453 1.366 . S
C454 C458 1.385 . S
C455 H430 0.951 . S
C455 C453 1.388 . S
C455 C456 1.366 . S
C456 C455 1.366 . S
C456 C457 1.414 . S
C456 C459 1.499 . S
C457 H431 0.950 . S
C457 C456 1.414 . S
C457 C458 1.374 . S
C458 H432 0.950 . S
C458 C454 1.385 . S
C458 C457 1.374 . S
C459 C456 1.499 . S
C459 C460 1.373 1_455 S
C459 C461 1.389 . S
C460 H433 0.950 . S
C460 C446 1.377 . S
C460 C459 1.373 1_655 S
C461 C445 1.377 . S
C461 C459 1.389 . S
C461 C462 1.524 . S
C462 C461 1.524 . S
C462 C463 1.397 . S
C462 C467 1.363 . S
C463 H434 0.950 . S
C463 C462 1.397 . S
C463 C464 1.334 . S
C464 H435 0.950 . S
C464 C463 1.334 . S
C464 C465 1.287 . S
C465 C464 1.287 . S
C465 C466 1.524 . S
C465 H468 0.999 . S
C466 H436 0.950 . S
C466 C465 1.524 . S
C466 C467 1.415 . S
C467 H437 0.950 . S
C467 C462 1.363 . S
C467 C466 1.415 . S
H468 C465 0.999 . S
H469 C450 0.913 . S
H470 C488 0.951 . S
H471 C490 0.951 . S
H472 C492 0.950 . S
H473 C493 0.950 . S
H474 C495 0.950 . S
H475 C498 0.950 . S
H476 C499 0.950 . S
H477 C501 0.950 1_565 S
H478 C502 0.950 1_556 S
H479 C503 0.951 . S
H480 C505 0.951 . S
H481 C507 0.950 . S
H482 C508 0.950 . S
H483 C510 0.950 . S
H484 C513 0.950 . S
H485 C514 0.950 . S
H486 C516 0.950 . S
H487 C517 0.950 . S
C488 H470 0.951 . S
C488 C489 1.366 . S
C488 C490 1.388 . S
C489 C488 1.366 . S
C489 C493 1.385 . S
C490 H471 0.951 . S
C490 C488 1.388 . S
C490 C491 1.366 . S
C491 C490 1.366 . S
C491 C492 1.414 . S
C491 C494 1.499 . S
C492 H472 0.950 . S
C492 C491 1.414 . S
C492 C493 1.374 . S
C493 H473 0.950 . S
C493 C489 1.385 . S
C493 C492 1.374 . S
C494 C491 1.499 . S
C494 C495 1.373 . S
C494 C496 1.389 . S
C495 H474 0.950 . S
C495 C494 1.373 . S
C495 C511 1.377 1_554 S
C496 C494 1.389 . S
C496 C497 1.524 . S
C496 C510 1.377 1_554 S
C497 C496 1.524 . S
C497 C498 1.397 . S
C497 C502 1.363 . S
C498 H475 0.950 . S
C498 C497 1.397 . S
C498 C499 1.334 . S
C499 H476 0.950 . S
C499 C498 1.334 . S
C499 C500 1.287 . S
C500 C499 1.287 . S
C500 C501 1.524 . S
C500 H519 0.913 . S
C501 H477 0.950 1_545 S
C501 C500 1.524 . S
C501 C502 1.415 . S
C502 H478 0.950 1_554 S
C502 C497 1.363 . S
C502 C501 1.415 . S
C503 H479 0.951 . S
C503 C504 1.366 . S
C503 C505 1.388 . S
C504 C503 1.366 . S
C504 C508 1.385 . S
C505 H480 0.951 . S
C505 C503 1.388 . S
C505 C506 1.366 . S
C506 C505 1.366 . S
C506 C507 1.414 . S
C506 C509 1.499 . S
C507 H481 0.950 . S
C507 C506 1.414 . S
C507 C508 1.374 . S
C508 H482 0.950 . S
C508 C504 1.385 . S
C508 C507 1.374 . S
C509 C506 1.499 . S
C509 C510 1.373 . S
C509 C511 1.389 . S
C510 H483 0.950 . S
C510 C496 1.377 1_556 S
C510 C509 1.373 . S
C511 C495 1.377 1_556 S
C511 C509 1.389 . S
C511 C512 1.524 . S
C512 C511 1.524 . S
C512 C513 1.397 . S
C512 C517 1.363 . S
C513 H484 0.950 . S
C513 C512 1.397 . S
C513 C514 1.334 . S
C514 H485 0.950 . S
C514 C513 1.334 . S
C514 C515 1.287 . S
C515 C514 1.287 . S
C515 C516 1.524 . S
C515 H518 0.999 . S
C516 H486 0.950 . S
C516 C515 1.524 . S
C516 C517 1.415 . S
C517 H487 0.950 . S
C517 C512 1.363 . S
C517 C516 1.415 . S
H518 C515 0.999 . S
H519 C500 0.913 . S
H520 C538 0.951 . S
H521 C540 0.951 . S
H522 C542 0.950 . S
H523 C543 0.950 . S
H524 C545 0.950 . S
H525 C548 0.950 . S
H526 C549 0.950 . S
H527 C551 0.950 . S
H528 C552 0.950 . S
H529 C553 0.951 . S
H530 C555 0.951 . S
H531 C557 0.950 . S
H532 C558 0.950 . S
H533 C560 0.950 . S
H534 C563 0.950 . S
H535 C564 0.950 . S
H536 C566 0.950 . S
H537 C567 0.950 . S
C538 H520 0.951 . S
C538 C539 1.366 . S
C538 C540 1.388 . S
C539 C538 1.366 . S
C539 C543 1.385 . S
C540 H521 0.951 . S
C540 C538 1.388 . S
C540 C541 1.366 . S
C541 C540 1.366 . S
C541 C542 1.414 . S
C541 C544 1.499 . S
C542 H522 0.950 . S
C542 C541 1.414 . S
C542 C543 1.374 . S
C543 H523 0.950 . S
C543 C539 1.385 . S
C543 C542 1.374 . S
C544 C541 1.499 . S
C544 C545 1.373 . S
C544 C546 1.389 . S
C545 H524 0.950 . S
C545 C544 1.373 . S
C545 C561 1.377 . S
C546 C544 1.389 . S
C546 C547 1.524 . S
C546 C560 1.377 . S
C547 C546 1.524 . S
C547 C548 1.397 . S
C547 C552 1.363 . S
C548 H525 0.950 . S
C548 C547 1.397 . S
C548 C549 1.334 . S
C549 H526 0.950 . S
C549 C548 1.334 . S
C549 C550 1.287 . S
C550 C549 1.287 . S
C550 C551 1.524 . S
C550 H569 0.913 . S
C551 H527 0.950 . S
C551 C550 1.524 . S
C551 C552 1.415 . S
C552 H528 0.950 . S
C552 C547 1.363 . S
C552 C551 1.415 . S
C553 H529 0.951 . S
C553 C554 1.366 . S
C553 C555 1.388 . S
C554 C553 1.366 . S
C554 C558 1.385 . S
C555 H530 0.951 . S
C555 C553 1.388 . S
C555 C556 1.366 . S
C556 C555 1.366 . S
C556 C557 1.414 . S
C556 C559 1.499 . S
C557 H531 0.950 . S
C557 C556 1.414 . S
C557 C558 1.374 . S
C558 H532 0.950 . S
C558 C554 1.385 . S
C558 C557 1.374 . S
C559 C556 1.499 . S
C559 C560 1.373 . S
C559 C561 1.389 . S
C560 H533 0.950 . S
C560 C546 1.377 . S
C560 C559 1.373 . S
C561 C545 1.377 . S
C561 C559 1.389 . S
C561 C562 1.524 . S
C562 C561 1.524 . S
C562 C563 1.397 . S
C562 C567 1.363 . S
C563 H534 0.950 . S
C563 C562 1.397 . S
C563 C564 1.334 . S
C564 H535 0.950 . S
C564 C563 1.334 . S
C564 C565 1.287 . S
C565 C564 1.287 . S
C565 C566 1.524 . S
C565 H568 0.999 . S
C566 H536 0.950 . S
C566 C565 1.524 . S
C566 C567 1.415 . S
C567 H537 0.950 . S
C567 C562 1.363 . S
C567 C566 1.415 . S
H568 C565 0.999 . S
H569 C550 0.913 . S
C139 C7 2.169 . S
C154 C82 2.158 . S
C189 C51 3.126 . S
C204 C11 3.095 . S
C239 C47 1.596 . S
C254 C87 1.596 . S
C289 C91 2.570 . S
C304 C16 2.485 . S
C339 C42 2.696 1_565 S
C354 C2 2.677 . S
C389 C96 1.491 . S
C404 C56 1.482 . S
C439 C19 0.415 . S
C454 C10 0.415 . S
C489 C50 0.375 . S
C504 C59 0.375 . S
C539 C99 0.371 . S
C554 C90 0.371 . S
