# Generated by pormake.
# Topology ghw, (5)-cn, num edge types: 1
# Building blocks:
#     Node 0, Type 0, BuildingBlock: XOMCOT_clean_sbu_0, # of connection points: 5
#     Node 1, Type 0, BuildingBlock: XOMCOT_clean_sbu_0, # of connection points: 5
#     Node 2, Type 0, BuildingBlock: XOMCOT_clean_sbu_0, # of connection points: 5
#     Node 3, Type 0, BuildingBlock: XOMCOT_clean_sbu_0, # of connection points: 5
#     Node 4, Type 0, BuildingBlock: XOMCOT_clean_sbu_0, # of connection points: 5
#     Node 5, Type 0, BuildingBlock: XOMCOT_clean_sbu_0, # of connection points: 5
#     Node 6, Type 0, BuildingBlock: XOMCOT_clean_sbu_0, # of connection points: 5
#     Node 7, Type 0, BuildingBlock: XOMCOT_clean_sbu_0, # of connection points: 5
#     Node 8, Type 0, BuildingBlock: XOMCOT_clean_sbu_0, # of connection points: 5
#     Node 9, Type 0, BuildingBlock: XOMCOT_clean_sbu_0, # of connection points: 5
#     Node 10, Type 0, BuildingBlock: XOMCOT_clean_sbu_0, # of connection points: 5
#     Node 11, Type 0, BuildingBlock: XOMCOT_clean_sbu_0, # of connection points: 5
#     Node 12, Type 0, BuildingBlock: XOMCOT_clean_sbu_0, # of connection points: 5
#     Node 13, Type 0, BuildingBlock: XOMCOT_clean_sbu_0, # of connection points: 5
#     Node 14, Type 0, BuildingBlock: XOMCOT_clean_sbu_0, # of connection points: 5
#     Node 15, Type 0, BuildingBlock: XOMCOT_clean_sbu_0, # of connection points: 5
#     Edge 16, Type (0, 0), BuildingBlock: CIFDUS_clean_linker_0, # of connection points: 2
#     Edge 17, Type (0, 0), BuildingBlock: CIFDUS_clean_linker_0, # of connection points: 2
#     Edge 18, Type (0, 0), BuildingBlock: CIFDUS_clean_linker_0, # of connection points: 2
#     Edge 19, Type (0, 0), BuildingBlock: CIFDUS_clean_linker_0, # of connection points: 2
#     Edge 20, Type (0, 0), BuildingBlock: CIFDUS_clean_linker_0, # of connection points: 2
#     Edge 21, Type (0, 0), BuildingBlock: CIFDUS_clean_linker_0, # of connection points: 2
#     Edge 22, Type (0, 0), BuildingBlock: CIFDUS_clean_linker_0, # of connection points: 2
#     Edge 23, Type (0, 0), BuildingBlock: CIFDUS_clean_linker_0, # of connection points: 2
#     Edge 24, Type (0, 0), BuildingBlock: CIFDUS_clean_linker_0, # of connection points: 2
#     Edge 25, Type (0, 0), BuildingBlock: CIFDUS_clean_linker_0, # of connection points: 2
#     Edge 26, Type (0, 0), BuildingBlock: CIFDUS_clean_linker_0, # of connection points: 2
#     Edge 27, Type (0, 0), BuildingBlock: CIFDUS_clean_linker_0, # of connection points: 2
#     Edge 28, Type (0, 0), BuildingBlock: CIFDUS_clean_linker_0, # of connection points: 2
#     Edge 29, Type (0, 0), BuildingBlock: CIFDUS_clean_linker_0, # of connection points: 2
#     Edge 30, Type (0, 0), BuildingBlock: CIFDUS_clean_linker_0, # of connection points: 2
#     Edge 31, Type (0, 0), BuildingBlock: CIFDUS_clean_linker_0, # of connection points: 2
#     Edge 32, Type (0, 0), BuildingBlock: CIFDUS_clean_linker_0, # of connection points: 2
#     Edge 33, Type (0, 0), BuildingBlock: CIFDUS_clean_linker_0, # of connection points: 2
#     Edge 34, Type (0, 0), BuildingBlock: CIFDUS_clean_linker_0, # of connection points: 2
#     Edge 35, Type (0, 0), BuildingBlock: CIFDUS_clean_linker_0, # of connection points: 2
#     Edge 36, Type (0, 0), BuildingBlock: CIFDUS_clean_linker_0, # of connection points: 2
#     Edge 37, Type (0, 0), BuildingBlock: CIFDUS_clean_linker_0, # of connection points: 2
#     Edge 38, Type (0, 0), BuildingBlock: CIFDUS_clean_linker_0, # of connection points: 2
#     Edge 39, Type (0, 0), BuildingBlock: CIFDUS_clean_linker_0, # of connection points: 2
#     Edge 40, Type (0, 0), BuildingBlock: CIFDUS_clean_linker_0, # of connection points: 2
#     Edge 41, Type (0, 0), BuildingBlock: CIFDUS_clean_linker_0, # of connection points: 2
#     Edge 42, Type (0, 0), BuildingBlock: CIFDUS_clean_linker_0, # of connection points: 2
#     Edge 43, Type (0, 0), BuildingBlock: CIFDUS_clean_linker_0, # of connection points: 2
#     Edge 44, Type (0, 0), BuildingBlock: CIFDUS_clean_linker_0, # of connection points: 2
#     Edge 45, Type (0, 0), BuildingBlock: CIFDUS_clean_linker_0, # of connection points: 2
#     Edge 46, Type (0, 0), BuildingBlock: CIFDUS_clean_linker_0, # of connection points: 2
#     Edge 47, Type (0, 0), BuildingBlock: CIFDUS_clean_linker_0, # of connection points: 2
#     Edge 48, Type (0, 0), BuildingBlock: CIFDUS_clean_linker_0, # of connection points: 2
#     Edge 49, Type (0, 0), BuildingBlock: CIFDUS_clean_linker_0, # of connection points: 2
#     Edge 50, Type (0, 0), BuildingBlock: CIFDUS_clean_linker_0, # of connection points: 2
#     Edge 51, Type (0, 0), BuildingBlock: CIFDUS_clean_linker_0, # of connection points: 2
#     Edge 52, Type (0, 0), BuildingBlock: CIFDUS_clean_linker_0, # of connection points: 2
#     Edge 53, Type (0, 0), BuildingBlock: CIFDUS_clean_linker_0, # of connection points: 2
#     Edge 54, Type (0, 0), BuildingBlock: CIFDUS_clean_linker_0, # of connection points: 2
#     Edge 55, Type (0, 0), BuildingBlock: CIFDUS_clean_linker_0, # of connection points: 2
# Relax obj value: 0.170
# Max RMSD: 0.204
# Mean RMSD: 0.204
data_MOF--net-ghw--node1-XOMCOT_clean_sbu_0--edge1-CIFDUS_clean_linker_0
_symmetry_space_group_name_H-M    P1
_symmetry_Int_Tables_number       1
_symmetry_cell_setting            triclinic
loop_
_symmetry_equiv_pos_as_xyz
'x, y, z'
_cell_length_a     29.496856
_cell_length_b     34.937908
_cell_length_c     31.090354
_cell_angle_alpha  90.006888
_cell_angle_beta   90.801272
_cell_angle_gamma 89.842499
loop_
_atom_site_label
_atom_site_type_symbol
_atom_site_fract_x
_atom_site_fract_y
_atom_site_fract_z
_atom_type_partial_charge
Co0 Co 0.13216 0.13623 0.41346 0.0
C1 C 0.2241 0.10017 0.41397 0.0
C2 C 0.18795 0.08889 0.47179 0.0
C3 C 0.23129 0.07465 0.4765 0.0
N4 N 0.183 0.10432 0.43222 0.0
N5 N 0.25411 0.08191 0.44014 0.0
H6 H 0.23342 0.11308 0.38392 0.0
H7 H 0.16252 0.08974 0.49649 0.0
C8 C 0.08775 0.06393 0.44582 0.0
O9 O 0.11897 0.04286 0.42747 0.0
N10 N 0.08169 0.16834 0.3958 0.0
C11 C 0.07774 0.18863 0.35911 0.0
C12 C 0.03454 0.20378 0.35646 0.0
C13 C 0.04123 0.17179 0.41522 0.0
N14 N 0.01155 0.19304 0.39172 0.0
C15 C 0.1607 0.11971 0.32801 0.0
C16 C 0.0883 0.07467 0.30295 0.0
C17 C 0.12124 0.08375 0.27232 0.0
C18 C 0.15783 0.10657 0.28576 0.0
C19 C 0.09215 0.08901 0.34503 0.0
N20 N 0.12869 0.11055 0.35754 0.0
H21 H 0.18767 0.13925 0.336 0.0
H22 H 0.06447 0.08414 0.36659 0.0
H23 H 0.10392 0.19121 0.33529 0.0
H24 H 0.03306 0.15775 0.44509 0.0
O25 O 0.17425 0.17673 0.39945 0.0
O26 O 0.143 0.16859 0.46304 0.0
O27 O 0.08777 0.10026 0.44126 0.0
C28 C 0.17081 0.1878 0.43919 0.0
H29 H 0.24539 0.06151 0.50525 0.0
H30 H 0.02094 0.22087 0.33025 0.0
H31 H 0.05899 0.0576 0.29434 0.0
H32 H 0.18307 0.11627 0.26333 0.0
Co33 Co 0.12255 0.13371 0.8731 0.0
C34 C 0.03148 0.09761 0.88111 0.0
C35 C 0.06308 0.08347 0.82158 0.0
C36 C 0.02012 0.0681 0.82138 0.0
N37 N 0.07059 0.10147 0.85939 0.0
N38 N 1.00024 0.07709 0.85888 0.0
H39 H 0.02436 0.11184 0.91099 0.0
H40 H 0.08665 0.08278 0.79525 0.0
C41 C 0.16296 0.05769 0.84839 0.0
O42 O 0.13206 0.0402 0.87118 0.0
N43 N 0.17417 0.16609 0.88656 0.0
C44 C 0.17634 0.19169 0.91894 0.0
C45 C 0.2204 0.20422 0.92349 0.0
C46 C 0.21694 0.1636 0.8716 0.0
N47 N 0.24594 0.18647 0.89382 0.0
C48 C 0.09711 0.12493 0.9612 0.0
C49 C 0.16713 0.07731 0.98703 0.0
C50 C 0.13499 0.08841 1.01762 0.0
C51 C 0.09993 0.11297 1.00397 0.0
C52 C 0.16347 0.09059 0.94456 0.0
N53 N 0.1275 0.11268 0.93144 0.0
H54 H 0.07107 0.14532 0.95258 0.0
H55 H 0.19059 0.08393 0.92293 0.0
H56 H 0.14825 0.19937 0.93922 0.0
H57 H 0.22724 0.14406 0.84656 0.0
O58 O 0.08139 0.17605 0.88364 0.0
O59 O 0.11049 0.16209 0.82044 0.0
O60 O 0.16477 0.09423 0.84787 0.0
C61 C 0.08345 0.18358 0.84275 0.0
H62 H 1.0043 0.05263 0.79504 0.0
H63 H 0.23288 0.22423 0.94743 0.0
H64 H 0.19548 0.05903 0.99577 0.0
H65 H 0.07562 0.12435 0.02642 0.0
Co66 Co 0.88403 0.86912 0.63118 0.0
C67 C 0.79918 0.91303 0.64453 0.0
C68 C 0.82481 0.92149 0.58118 0.0
C69 C 0.78452 0.94133 0.58469 0.0
N70 N 0.83438 0.90429 0.61906 0.0
N71 N 0.7685 0.93598 0.6247 0.0
H72 H 0.79425 0.90097 0.67593 0.0
H73 H 0.84534 0.91922 0.55273 0.0
C74 C 0.92947 0.9426 0.60233 0.0
O75 O 0.89849 0.96361 0.62111 0.0
N76 N 0.93326 0.83388 0.64331 0.0
C77 C 0.93735 0.81105 0.67811 0.0
C78 C 0.98138 0.79781 0.68096 0.0
C79 C 0.97441 0.83344 0.6249 0.0
N80 N 1.00456 0.81207 0.64753 0.0
C81 C 0.862 0.87572 0.72053 0.0
C82 C 0.93014 0.92552 0.74484 0.0
C83 C 0.89924 0.91352 0.77603 0.0
C84 C 0.86518 0.88785 0.76323 0.0
C85 C 0.92587 0.91243 0.70231 0.0
N86 N 0.89087 0.88904 0.69001 0.0
H87 H 0.83611 0.85518 0.71217 0.0
H88 H 0.95174 0.92048 0.68003 0.0
H89 H 0.91108 0.80642 0.70143 0.0
H90 H 0.98312 0.85054 0.59731 0.0
O91 O 0.84006 0.82858 0.64063 0.0
O92 O 0.87017 0.84252 0.57794 0.0
O93 O 0.92919 0.90619 0.60618 0.0
C94 C 0.84211 0.82164 0.59955 0.0
H95 H 0.76798 0.9577 0.55941 0.0
H96 H 0.9958 0.78055 0.70667 0.0
H97 H 0.95772 0.94464 0.75316 0.0
H98 H 0.84172 0.87621 0.78626 0.0
Co99 Co 0.88329 0.89128 0.17646 0.0
C100 C 0.9743 0.92832 0.17795 0.0
C101 C 0.93896 0.9354 0.23715 0.0
C102 C 0.98254 0.9486 0.24289 0.0
N103 N 0.93359 0.9228 0.19634 0.0
N104 N 1.00458 0.94416 0.20559 0.0
H105 H 0.9833 0.91794 0.14655 0.0
H106 H 0.91372 0.93286 0.26189 0.0
C107 C 0.84018 0.96593 0.20507 0.0
O108 O 0.87486 0.98607 0.19189 0.0
N109 N 0.83288 0.85969 0.15799 0.0
C110 C 0.82933 0.83773 0.12246 0.0
C111 C 0.78472 0.82616 0.11767 0.0
C112 C 0.79093 0.86062 0.17457 0.0
N113 N 0.76063 0.84109 0.15025 0.0
C114 C 0.91694 0.89961 0.09116 0.0
C115 C 0.84968 0.94731 0.05938 0.0
C116 C 0.88201 0.9329 0.03072 0.0
C117 C 0.91626 0.90911 0.04758 0.0
C118 C 0.85135 0.93675 0.10294 0.0
N119 N 0.885 0.91336 0.11859 0.0
H120 H 0.94222 0.87943 0.10221 0.0
H121 H 0.82403 0.94595 0.12314 0.0
H122 H 0.85653 0.83236 0.10027 0.0
H123 H 0.78232 0.87636 0.20318 0.0
O124 O 0.92512 0.84884 0.16918 0.0
O125 O 0.88854 0.86209 0.22901 0.0
O126 O 0.83837 0.92994 0.19833 0.0
C127 C 0.91789 0.84078 0.20934 0.0
H128 H 0.99764 0.95868 0.27272 0.0
H129 H 0.77059 0.81023 0.09082 0.0
H130 H 0.82235 0.96564 0.04812 0.0
H131 H 0.94112 0.89596 0.02694 0.0
Co132 Co 0.1335 0.65672 0.91199 0.0
C133 C 0.21496 0.61384 0.88561 0.0
C134 C 0.19323 0.59778 0.94857 0.0
C135 C 0.23395 0.58016 0.94085 0.0
N136 N 0.18071 0.61817 0.91357 0.0
N137 N 0.24805 0.59063 0.90143 0.0
H138 H 0.21736 0.63006 0.85609 0.0
H139 H 0.17489 0.59717 0.97845 0.0
C140 C 0.08403 0.58269 0.93569 0.0
O141 O 0.11621 0.56065 0.92061 0.0
N142 N 0.08616 0.69563 0.91123 0.0
C143 C 0.08898 0.73347 0.91968 0.0
C144 C 0.0462 0.74933 0.91643 0.0
C145 C 0.04185 0.68926 0.90257 0.0
N146 N 0.01658 0.7214 0.90593 0.0
C147 C 0.12814 0.6806 0.82615 0.0
C148 C 0.11172 0.61137 0.78612 0.0
C149 C 0.1173 0.64428 0.76066 0.0
C150 C 0.12589 0.67905 0.7816 0.0
C151 C 0.11465 0.61416 0.83128 0.0
N152 N 0.12281 0.64862 0.85068 0.0
H153 H 0.1351 0.70787 0.84112 0.0
H154 H 0.11119 0.5886 0.85006 0.0
H155 H 0.11965 0.74878 0.92795 0.0
H156 H 0.0284 0.66158 0.89358 0.0
O157 O 0.1802 0.69472 0.90663 0.0
O158 O 0.15353 0.67388 0.96861 0.0
O159 O 0.08558 0.61905 0.93123 0.0
C160 C 0.18197 0.69573 0.94836 0.0
H161 H 0.25261 0.5625 0.96356 0.0
H162 H 0.03749 0.77895 0.92242 0.0
H163 H 0.10503 0.58384 0.77138 0.0
H164 H 0.13179 0.70514 0.76375 0.0
Co165 Co 0.13951 0.65359 0.35357 0.0
C166 C 0.05591 0.60716 0.36631 0.0
C167 C 0.08212 0.60061 0.30291 0.0
C168 C 0.04156 0.58112 0.30509 0.0
N169 N 0.09124 0.61693 0.34145 0.0
N170 N 0.02534 0.58525 0.34512 0.0
H171 H 0.05053 0.61758 0.39835 0.0
H172 H 0.1028 0.60376 0.27468 0.0
C173 C 0.18686 0.57865 0.33509 0.0
O174 O 0.1536 0.55892 0.35178 0.0
N175 N 0.1879 0.69018 0.3651 0.0
C176 C 0.18468 0.72838 0.37069 0.0
C177 C 0.22749 0.74298 0.37826 0.0
C178 C 0.23261 0.68221 0.36983 0.0
N179 N 0.25765 0.71387 0.37757 0.0
C180 C 0.1085 0.6561 0.43969 0.0
C181 C 0.1753 0.61223 0.47848 0.0
C182 C 0.14104 0.62795 0.50424 0.0
C183 C 0.10689 0.64936 0.48362 0.0
C184 C 0.17467 0.61854 0.43372 0.0
N185 N 0.14095 0.63985 0.41466 0.0
H186 H 0.08224 0.67384 0.42578 0.0
H187 H 0.20215 0.60726 0.41504 0.0
H188 H 0.15358 0.7448 0.36941 0.0
H189 H 0.24667 0.65368 0.3688 0.0
O190 O 0.09405 0.69362 0.35509 0.0
O191 O 0.1299 0.67533 0.29663 0.0
O192 O 0.18679 0.61511 0.33658 0.0
C193 C 0.09921 0.69702 0.31386 0.0
H194 H 0.02474 0.56605 0.279 0.0
H195 H 0.2357 0.77282 0.38336 0.0
H196 H 0.20307 0.59613 0.49274 0.0
H197 H 0.0787 0.66126 0.50111 0.0
Co198 Co 0.88122 0.39018 0.1196 0.0
C199 C 0.79076 0.42778 0.12405 0.0
C200 C 0.82466 0.44067 0.06536 0.0
C201 C 0.78164 0.45601 0.0632 0.0
N202 N 0.83073 0.42346 0.10384 0.0
N203 N 0.76025 0.44775 0.10012 0.0
H204 H 0.7826 0.4141 0.15399 0.0
H205 H 0.84922 0.44065 0.03985 0.0
C206 C 0.92519 0.46573 0.09533 0.0
O207 O 0.89147 0.48574 0.11101 0.0
N208 N 0.93145 0.35672 0.1347 0.0
C209 C 0.93453 0.33333 0.16908 0.0
C210 C 0.97829 0.31945 0.17227 0.0
C211 C 0.97301 0.35619 0.11701 0.0
N212 N 1.00248 0.33398 0.13958 0.0
C213 C 0.8502 0.39377 0.20653 0.0
C214 C 0.91634 0.44189 0.23903 0.0
C215 C 0.88454 0.4266 0.26755 0.0
C216 C 0.85102 0.40239 0.2504 0.0
C217 C 0.91457 0.4322 0.19523 0.0
N218 N 0.88123 0.40889 0.17912 0.0
H219 H 0.82533 0.37352 0.19504 0.0
H220 H 0.94141 0.44232 0.17512 0.0
H221 H 0.90743 0.32795 0.19132 0.0
H222 H 0.98214 0.37313 0.08938 0.0
O223 O 0.8388 0.34781 0.12421 0.0
O224 O 0.87424 0.3644 0.06493 0.0
O225 O 0.92644 0.42937 0.09953 0.0
C226 C 0.84517 0.34211 0.08335 0.0
H227 H 0.76678 0.47081 0.03585 0.0
H228 H 0.99153 0.30077 0.19725 0.0
H229 H 0.94318 0.46051 0.25049 0.0
H230 H 0.82667 0.38855 0.27093 0.0
Co231 Co 0.88321 0.36958 0.66833 0.0
C232 C 0.96984 0.41086 0.6556 0.0
C233 C 0.94483 0.4186 0.71932 0.0
C234 C 0.98666 0.43599 0.71677 0.0
N235 N 0.9341 0.40316 0.68073 0.0
N236 N 1.00215 0.43111 0.67655 0.0
H237 H 0.97402 0.39979 0.6236 0.0
H238 H 0.9243 0.41626 0.74775 0.0
C239 C 0.84042 0.4444 0.69732 0.0
O240 O 0.87163 0.46447 0.67781 0.0
N241 N 0.83249 0.33596 0.65612 0.0
C242 C 0.82965 0.31003 0.62414 0.0
C243 C 0.78496 0.29906 0.61906 0.0
C244 C 0.78972 0.34 0.67032 0.0
N245 N 0.75975 0.31836 0.64784 0.0
C246 C 0.9052 0.37599 0.57916 0.0
C247 C 0.83685 0.42568 0.55433 0.0
C248 C 0.86748 0.41295 0.52314 0.0
C249 C 0.90171 0.38746 0.53627 0.0
C250 C 0.84158 0.41339 0.59721 0.0
N251 N 0.8766 0.38991 0.60966 0.0
H252 H 0.93107 0.35536 0.58756 0.0
H253 H 0.81601 0.42196 0.61965 0.0
H254 H 0.85746 0.30181 0.60377 0.0
H255 H 0.78027 0.35968 0.69531 0.0
O256 O 0.92567 0.32811 0.65778 0.0
O257 O 0.897 0.34193 0.72115 0.0
O258 O 0.83991 0.40795 0.69409 0.0
C259 C 0.92436 0.32084 0.69876 0.0
H260 H 1.0047 0.4502 0.74274 0.0
H261 H 0.77175 0.28057 0.59396 0.0
H262 H 0.80912 0.44467 0.54571 0.0
H263 H 0.92498 0.3753 0.51332 0.0
Co264 Co 0.63676 0.14657 0.93582 0.0
C265 C 0.72631 0.10634 0.93263 0.0
C266 C 0.69197 0.0961 0.99167 0.0
C267 C 0.7341 0.0789 0.99405 0.0
N268 N 0.68679 0.113 0.95287 0.0
N269 N 0.75556 0.08535 0.95675 0.0
H270 H 0.73532 0.11851 0.90223 0.0
H271 H 0.66727 0.09719 1.01703 0.0
C272 C 0.59215 0.07053 0.95531 0.0
O273 O 0.62698 0.05112 0.94088 0.0
N274 N 0.58668 0.17989 0.91957 0.0
C275 C 0.58362 0.20187 0.88401 0.0
C276 C 0.53904 0.21306 0.87807 0.0
C277 C 0.54422 0.17879 0.9353 0.0
N278 N 0.51435 0.19838 0.91028 0.0
C279 C 0.67211 0.14214 0.85075 0.0
C280 C 0.60361 0.09894 0.81408 0.0
C281 C 0.63886 0.11179 0.7878 0.0
C282 C 0.67378 0.13311 0.80719 0.0
C283 C 0.60392 0.1078 0.8581 0.0
N284 N 0.63852 0.12851 0.87627 0.0
H285 H 0.69768 0.16108 0.86365 0.0
H286 H 0.57496 0.09962 0.8767 0.0
H287 H 0.61119 0.20726 0.86228 0.0
H288 H 0.5347 0.16185 0.96283 0.0
O289 O 0.67908 0.18889 0.93252 0.0
O290 O 0.64214 0.17206 0.99093 0.0
O291 O 0.59124 0.10699 0.9534 0.0
C292 C 0.67175 0.19439 0.97324 0.0
H293 H 0.74822 0.06372 0.02149 0.0
H294 H 0.52553 0.22947 0.85126 0.0
H295 H 0.57494 0.08359 0.80057 0.0
H296 H 0.70204 0.14363 0.78882 0.0
Co297 Co 0.62458 0.15271 0.38447 0.0
C298 C 0.53539 0.11188 0.38729 0.0
C299 C 0.57403 0.0969 0.33203 0.0
C300 C 0.53226 0.0796 0.32857 0.0
N301 N 0.57654 0.11662 0.36933 0.0
N302 N 0.50795 0.08908 0.36338 0.0
H303 H 0.52388 0.12716 0.41512 0.0
H304 H 0.60001 0.09663 0.30784 0.0
C305 C 0.67598 0.08054 0.36196 0.0
O306 O 0.64648 0.05909 0.38202 0.0
N307 N 0.67272 0.18853 0.39799 0.0
C308 C 0.6781 0.20933 0.43421 0.0
C309 C 0.72209 0.22278 0.43608 0.0
C310 C 0.71292 0.19045 0.37791 0.0
N311 N 0.74395 0.21064 0.40072 0.0
C312 C 0.5959 0.14129 0.47096 0.0
C313 C 0.67606 0.11053 0.50249 0.0
C314 C 0.64123 0.1191 0.53106 0.0
C315 C 0.60055 0.13397 0.51484 0.0
C316 C 0.66967 0.11756 0.45844 0.0
N317 N 0.62978 0.1327 0.443 0.0
H318 H 0.56633 0.15686 0.46035 0.0
H319 H 0.69819 0.11363 0.43755 0.0
H320 H 0.65298 0.21211 0.45904 0.0
H321 H 0.72043 0.17485 0.34882 0.0
O322 O 0.57946 0.19213 0.39361 0.0
O323 O 0.61189 0.17939 0.33135 0.0
O324 O 0.67189 0.11683 0.36159 0.0
C325 C 0.58251 0.19938 0.35272 0.0
H326 H 0.52018 0.06259 0.30169 0.0
H327 H 0.73736 0.23868 0.4624 0.0
H328 H 0.70867 0.10048 0.51437 0.0
H329 H 0.57378 0.14259 0.53636 0.0
Co330 Co 0.37268 0.87916 0.1308 0.0
C331 C 0.28706 0.92303 0.14049 0.0
C332 C 0.31052 0.92318 0.07558 0.0
C333 C 0.26854 0.94012 0.07627 0.0
N334 N 0.32265 0.91307 0.11593 0.0
N335 N 0.25336 0.93998 0.1171 0.0
H336 H 0.28504 0.91586 0.1742 0.0
H337 H 0.33014 0.91718 0.04721 0.0
C338 C 0.41662 0.95146 0.09536 0.0
O339 O 0.37956 0.97168 0.10065 0.0
N340 N 0.42238 0.8441 0.14495 0.0
C341 C 0.41995 0.80598 0.1518 0.0
C342 C 0.46318 0.7913 0.15579 0.0
C343 C 0.46728 0.85198 0.1457 0.0
N344 N 0.49294 0.82023 0.15171 0.0
C345 C 0.36479 0.8726 0.22063 0.0
C346 C 0.37463 0.94877 0.24278 0.0
C347 C 0.36162 0.92246 0.27432 0.0
C348 C 0.35786 0.88385 0.26294 0.0
C349 C 0.38082 0.93627 0.20031 0.0
N350 N 0.37474 0.89865 0.18952 0.0
H351 H 0.36065 0.84276 0.21256 0.0
H352 H 0.38894 0.95716 0.17641 0.0
H353 H 0.38909 0.78946 0.15299 0.0
H354 H 0.48119 0.88012 0.14065 0.0
O355 O 0.32837 0.83933 0.13916 0.0
O356 O 0.36207 0.85174 0.07748 0.0
O357 O 0.41923 0.91684 0.10868 0.0
C358 C 0.33268 0.83154 0.09855 0.0
H359 H 0.24972 0.94944 0.04808 0.0
H360 H 0.47196 0.76153 0.16086 0.0
H361 H 0.37835 0.97884 0.25052 0.0
H362 H 0.34908 0.86241 0.28658 0.0
Co363 Co 0.39106 0.8926 0.66718 0.0
C364 C 0.4791 0.93249 0.65672 0.0
C365 C 0.45107 0.94305 0.71867 0.0
C366 C 0.49335 0.95989 0.71713 0.0
N367 N 0.4419 0.92623 0.68043 0.0
N368 N 0.51063 0.95331 0.67791 0.0
H369 H 0.48528 0.91968 0.62596 0.0
H370 H 0.42925 0.9419 0.74631 0.0
C371 C 0.34876 0.9673 0.69243 0.0
O372 O 0.37908 0.98507 0.66922 0.0
N373 N 0.34101 0.85871 0.65421 0.0
C374 C 0.33934 0.83347 0.62147 0.0
C375 C 0.2965 0.81802 0.61912 0.0
C376 C 0.29932 0.85811 0.67162 0.0
N377 N 0.27136 0.83359 0.65057 0.0
C378 C 0.41527 0.90347 0.57911 0.0
C379 C 0.34269 0.94876 0.55427 0.0
C380 C 0.37692 0.9412 0.52461 0.0
C381 C 0.41317 0.91782 0.53737 0.0
C382 C 0.34679 0.93451 0.59638 0.0
N383 N 0.38419 0.91388 0.60911 0.0
H384 H 0.44182 0.8833 0.5869 0.0
H385 H 0.31913 0.93922 0.61809 0.0
H386 H 0.36691 0.82771 0.59982 0.0
H387 H 0.28898 0.87641 0.6978 0.0
O388 O 0.43357 0.85161 0.6555 0.0
O389 O 0.40492 0.86414 0.71932 0.0
O390 O 0.3477 0.93074 0.69316 0.0
C391 C 0.43205 0.8434 0.69623 0.0
H392 H 0.51058 0.97466 0.74321 0.0
H393 H 0.28455 0.7974 0.59561 0.0
H394 H 0.3129 0.96509 0.54485 0.0
H395 H 0.43885 0.90933 0.51464 0.0
Co396 Co 0.64896 0.63925 0.41291 0.0
C397 C 0.73318 0.59869 0.39067 0.0
C398 C 0.71562 0.58917 0.45645 0.0
C399 C 0.75723 0.57268 0.44925 0.0
N400 N 0.70005 0.60471 0.41944 0.0
N401 N 0.76862 0.57898 0.4079 0.0
H402 H 0.73278 0.6112 0.35886 0.0
H403 H 0.69852 0.59083 0.48695 0.0
C404 C 0.60615 0.56443 0.4447 0.0
O405 O 0.64201 0.54367 0.43598 0.0
N406 N 0.5977 0.67404 0.40612 0.0
C407 C 0.59579 0.71232 0.41161 0.0
C408 C 0.55165 0.7244 0.40498 0.0
C409 C 0.55483 0.66362 0.39567 0.0
N410 N 0.52585 0.6937 0.39505 0.0
C411 C 0.65101 0.65154 0.32257 0.0
C412 C 0.62585 0.57913 0.29572 0.0
C413 C 0.63706 0.60649 0.26468 0.0
C414 C 0.64959 0.64313 0.27864 0.0
C415 C 0.6286 0.58852 0.33957 0.0
N416 N 0.64131 0.62436 0.3526 0.0
H417 H 0.66022 0.68012 0.33252 0.0
H418 H 0.62089 0.56667 0.36248 0.0
H419 H 0.62412 0.73048 0.42004 0.0
H420 H 0.5449 0.63435 0.38941 0.0
O421 O 0.69211 0.68059 0.40599 0.0
O422 O 0.6645 0.66205 0.46829 0.0
O423 O 0.60434 0.59993 0.43469 0.0
C424 C 0.69187 0.68444 0.44763 0.0
H425 H 0.77807 0.55854 0.47335 0.0
H426 H 0.53965 0.75363 0.40709 0.0
H427 H 0.61588 0.5505 0.28622 0.0
H428 H 0.65766 0.66535 0.25571 0.0
Co429 Co 0.62746 0.64919 0.86362 0.0
C430 C 0.5402 0.60768 0.87351 0.0
C431 C 0.56823 0.60003 0.81094 0.0
C432 C 0.52595 0.58333 0.81133 0.0
N433 N 0.57734 0.61508 0.8501 0.0
N434 N 0.50854 0.58817 0.85078 0.0
H435 H 0.53446 0.61868 0.90531 0.0
H436 H 0.58998 0.60262 0.78338 0.0
C437 C 0.67199 0.57554 0.83472 0.0
O438 O 0.64178 0.55522 0.85529 0.0
N439 N 0.67792 0.68329 0.87622 0.0
C440 C 0.67715 0.72033 0.88866 0.0
C441 C 0.72114 0.73233 0.8964 0.0
C442 C 0.72222 0.67345 0.87685 0.0
N443 N 0.74925 0.70259 0.88923 0.0
C444 C 0.60457 0.64018 0.95229 0.0
C445 C 0.67825 0.59657 0.9779 0.0
C446 C 0.64705 0.60822 1.00895 0.0
C447 C 0.60958 0.62989 0.99546 0.0
C448 C 0.67136 0.60673 0.93458 0.0
N449 N 0.63446 0.62803 0.92191 0.0
H450 H 0.57702 0.65914 0.94379 0.0
H451 H 0.6971 0.59882 0.91205 0.0
H452 H 0.64693 0.73743 0.89276 0.0
H453 H 0.73482 0.64534 0.86884 0.0
O454 O 0.58406 0.68957 0.87532 0.0
O455 O 0.61308 0.67765 0.81155 0.0
O456 O 0.67128 0.61202 0.83683 0.0
C457 C 0.58535 0.69782 0.83458 0.0
H458 H 0.50872 0.56995 0.78431 0.0
H459 H 0.73147 0.7603 0.90778 0.0
H460 H 0.7083 0.5805 0.98716 0.0
H461 H 0.5855 0.64068 1.01854 0.0
Co462 Co 0.37528 0.37326 0.60861 0.0
C463 C 0.29438 0.41745 0.63146 0.0
C464 C 0.31238 0.42701 0.56581 0.0
C465 C 0.27119 0.44423 0.57302 0.0
N466 N 0.3274 0.41093 0.60275 0.0
N467 N 0.2595 0.4378 0.61425 0.0
H468 H 0.29398 0.40429 0.66293 0.0
H469 H 0.32921 0.42475 0.53522 0.0
C470 C 0.42317 0.44555 0.57729 0.0
O471 O 0.38907 0.46762 0.58799 0.0
N472 N 0.42279 0.33465 0.61473 0.0
C473 C 0.41827 0.29622 0.61543 0.0
C474 C 0.46052 0.27975 0.62002 0.0
C475 C 0.46782 0.34086 0.61961 0.0
N476 N 0.49176 0.30781 0.62252 0.0
C477 C 0.37348 0.36037 0.69794 0.0
C478 C 0.39971 0.43186 0.72663 0.0
C479 C 0.38613 0.40451 0.757 0.0
C480 C 0.37276 0.36841 0.7417 0.0
C481 C 0.39872 0.42286 0.68256 0.0
N482 N 0.38513 0.38752 0.66867 0.0
H483 H 0.36334 0.33218 0.68747 0.0
H484 H 0.40838 0.4446 0.66022 0.0
H485 H 0.38665 0.2808 0.61304 0.0
H486 H 0.48287 0.36901 0.62064 0.0
O487 O 0.32861 0.33555 0.61725 0.0
O488 O 0.35617 0.35091 0.5538 0.0
O489 O 0.42293 0.40972 0.58598 0.0
C490 C 0.32746 0.33081 0.57584 0.0
H491 H 0.25052 0.45856 0.54891 0.0
H492 H 0.46749 0.24937 0.62188 0.0
H493 H 0.41105 0.45996 0.73663 0.0
H494 H 0.36076 0.34634 0.76309 0.0
Co495 Co 0.39264 0.37926 0.16383 0.0
C496 C 0.48252 0.41947 0.16228 0.0
C497 C 0.44567 0.43074 0.21969 0.0
C498 C 0.48762 0.44784 0.22339 0.0
N499 N 0.44211 0.41324 0.18108 0.0
N500 N 0.5107 0.44072 0.18715 0.0
H501 H 0.493 0.40682 0.13257 0.0
H502 H 0.42003 0.42996 0.2442 0.0
C503 C 0.3466 0.45449 0.18333 0.0
O504 O 0.37975 0.47387 0.16592 0.0
N505 N 0.34298 0.34563 0.14807 0.0
C506 C 0.33907 0.3239 0.11239 0.0
C507 C 0.2948 0.31145 0.10853 0.0
C508 C 0.30148 0.34538 0.16586 0.0
N509 N 0.27123 0.32514 0.14212 0.0
C510 C 0.42822 0.38458 0.07979 0.0
C511 C 0.35493 0.41966 0.03995 0.0
C512 C 0.39017 0.40515 1.01476 0.0
C513 C 0.42786 0.38906 0.03553 0.0
C514 C 0.35717 0.41545 0.08503 0.0
N515 N 0.39351 0.39766 0.10444 0.0
H516 H 0.45526 0.36764 0.09347 0.0
H517 H 0.32809 0.42371 0.10358 0.0
H518 H 0.36573 0.31934 0.08941 0.0
H519 H 0.29281 0.36173 0.19412 0.0
O520 O 0.43514 0.33762 0.15839 0.0
O521 O 0.40008 0.35281 0.21847 0.0
O522 O 0.34664 0.41804 0.18268 0.0
C523 C 0.42929 0.33108 0.199 0.0
H524 H 0.50054 0.4633 0.2511 0.0
H525 H 0.28069 0.29476 0.08226 0.0
H526 H 0.32469 0.43155 0.02491 0.0
H527 H 0.4556 0.37715 1.01729 0.0
H528 H 0.2961 0.07291 0.3642 0.0
H529 H 0.32103 0.08051 0.50099 0.0
H530 H 0.4025 0.07991 0.48929 0.0
H531 H 0.46676 0.08342 0.43993 0.0
H532 H 0.44201 0.07725 0.30307 0.0
H533 H 0.36084 0.07076 0.31506 0.0
C534 C 0.31937 0.0744 0.39143 0.0
C535 C 0.30222 0.07736 0.43334 0.0
C536 C 0.36639 0.07455 0.38446 0.0
C537 C 0.33298 0.07819 0.46836 0.0
C538 C 0.37973 0.07815 0.4617 0.0
C539 C 0.44359 0.08067 0.41275 0.0
C540 C 0.46054 0.08146 0.37067 0.0
C541 C 0.39679 0.07738 0.41985 0.0
C542 C 0.43011 0.07673 0.33582 0.0
C543 C 0.38354 0.07327 0.34263 0.0
H544 H 0.94351 0.2029 0.33364 0.0
H545 H 0.97238 0.19759 0.46986 0.0
H546 H 0.89174 0.2051 0.485 0.0
H547 H 0.81246 0.21007 0.45938 0.0
H548 H 0.78368 0.21382 0.32314 0.0
H549 H 0.86475 0.21044 0.30813 0.0
C550 C 0.93231 0.20397 0.36665 0.0
C551 C 0.96414 0.19964 0.40054 0.0
C552 C 0.88578 0.20792 0.37511 0.0
C553 C 0.94869 0.20041 0.44314 0.0
C554 C 0.90255 0.20487 0.45183 0.0
C555 C 0.82398 0.21086 0.42645 0.0
C556 C 0.79198 0.21231 0.3924 0.0
C557 C 0.8707 0.20825 0.41806 0.0
C558 C 0.80755 0.2125 0.34987 0.0
C559 C 0.85391 0.21058 0.34129 0.0
H560 H 0.45258 0.19289 0.84575 0.0
H561 H 0.46654 0.2035 0.98332 0.0
H562 H 0.38395 0.20189 0.99047 0.0
H563 H 0.3078 0.19603 0.95761 0.0
H564 H 0.29376 0.18191 0.82039 0.0
H565 H 0.3762 0.18612 0.8129 0.0
C566 C 0.43743 0.19528 0.8772 0.0
C567 C 0.46559 0.19868 0.91399 0.0
C568 C 0.38993 0.19343 0.88105 0.0
C569 C 0.44556 0.20085 0.95463 0.0
C570 C 0.39837 0.19996 0.95867 0.0
C571 C 0.32277 0.19424 0.92603 0.0
C572 C 0.2946 0.18894 0.88953 0.0
C573 C 0.37022 0.19607 0.92213 0.0
C574 C 0.31466 0.18582 0.84895 0.0
C575 C 0.36178 0.18837 0.84468 0.0
H576 H 0.96639 0.07184 0.93892 0.0
H577 H 0.92811 0.06932 0.80449 0.0
H578 H 0.84832 0.06727 0.82348 0.0
H579 H 0.78918 0.07298 0.87789 0.0
H580 H 0.82692 0.07787 1.01226 0.0
H581 H 0.90684 0.0717 0.99377 0.0
C582 C 0.94058 0.07078 0.9138 0.0
C583 C 0.95342 0.07139 0.87031 0.0
C584 C 0.89454 0.07019 0.92494 0.0
C585 C 0.91948 0.06887 0.83819 0.0
C586 C 0.87369 0.06796 0.84902 0.0
C587 C 0.81489 0.07262 0.90313 0.0
C588 C 0.80203 0.07663 0.94634 0.0
C589 C 0.86082 0.06971 0.89222 0.0
C590 C 0.83572 0.07492 0.97876 0.0
C591 C 0.88153 0.07166 0.96817 0.0
H592 H 0.69271 0.95491 0.57934 0.0
H593 H 0.74626 0.94393 0.70866 0.0
H594 H 0.67058 0.95291 0.7375 0.0
H595 H 0.58792 0.95555 0.72547 0.0
H596 H 0.53492 0.96751 0.59625 0.0
H597 H 0.61171 0.96741 0.56802 0.0
C598 C 0.68818 0.95526 0.61384 0.0
C599 C 0.72516 0.94757 0.6416 0.0
C600 C 0.64446 0.96036 0.6303 0.0
C601 C 0.71828 0.94842 0.68634 0.0
C602 C 0.67497 0.95379 0.70296 0.0
C603 C 0.59325 0.95902 0.69129 0.0
C604 C 0.55577 0.96068 0.66291 0.0
C605 C 0.63756 0.95842 0.67518 0.0
C606 C 0.56326 0.96527 0.61863 0.0
C607 C 0.60714 0.96524 0.60247 0.0
H608 H 0.06918 0.81731 0.70916 0.0
H609 H 0.04822 0.80619 0.57237 0.0
H610 H 0.13016 0.80997 0.56117 0.0
H611 H 0.20719 0.81985 0.59015 0.0
H612 H 0.22799 0.83472 0.7266 0.0
H613 H 0.14666 0.8263 0.73831 0.0
C614 C 0.08273 0.8151 0.67702 0.0
C615 C 0.05288 0.81118 0.64158 0.0
C616 C 0.12971 0.81841 0.67085 0.0
C617 C 0.07067 0.80922 0.6 0.0
C618 C 0.11741 0.81143 0.59366 0.0
C619 C 0.194 0.82076 0.62248 0.0
C620 C 0.22361 0.82775 0.65751 0.0
C621 C 0.14719 0.81653 0.6288 0.0
C622 C 0.20583 0.82965 0.69914 0.0
C623 C 0.1594 0.82469 0.70583 0.0
H624 H 0.70109 0.78505 0.12989 0.0
H625 H 0.71031 0.90039 0.17822 0.0
H626 H 0.6282 0.9038 0.1842 0.0
H627 H 0.55332 0.87454 0.17466 0.0
H628 H 0.54293 0.75944 0.12552 0.0
H629 H 0.62541 0.75527 0.12112 0.0
C630 C 0.68498 0.81084 0.14171 0.0
C631 C 0.71193 0.84223 0.15415 0.0
C632 C 0.63739 0.81266 0.14492 0.0
C633 C 0.69059 0.87549 0.16952 0.0
C634 C 0.6435 0.8776 0.17255 0.0
C635 C 0.56905 0.84862 0.16279 0.0
C636 C 0.5418 0.81743 0.15043 0.0
C637 C 0.61653 0.84642 0.16026 0.0
C638 C 0.56296 0.78378 0.13577 0.0
C639 C 0.6102 0.78144 0.13295 0.0
H640 H 0.04537 0.97313 0.13643 0.0
H641 H 0.07123 0.92176 0.26022 0.0
H642 H 0.15244 0.91895 0.24543 0.0
H643 H 0.21427 0.92501 0.19433 0.0
H644 H 0.18872 0.9794 0.07135 0.0
H645 H 0.10947 0.98694 0.08887 0.0
C646 C 0.06905 0.96174 0.16019 0.0
C647 C 0.05257 0.94732 0.19907 0.0
C648 C 0.11561 0.96027 0.15145 0.0
C649 C 0.08333 0.93315 0.23011 0.0
C650 C 0.12966 0.93132 0.22154 0.0
C651 C 0.19191 0.93897 0.17134 0.0
C652 C 0.20797 0.95002 0.13066 0.0
C653 C 0.14605 0.94393 0.18183 0.0
C654 C 0.17771 0.96889 0.10215 0.0
C655 C 0.13208 0.97361 0.11224 0.0
H656 H 0.32497 0.57257 0.94536 0.0
H657 H 0.27231 0.59522 0.8176 0.0
H658 H 0.34916 0.59265 0.78929 0.0
H659 H 0.43187 0.5902 0.80234 0.0
H660 H 0.48324 0.56828 0.93051 0.0
H661 H 0.40595 0.56347 0.95707 0.0
C662 C 0.3298 0.57615 0.91116 0.0
C663 C 0.29261 0.58459 0.88383 0.0
C664 C 0.37399 0.57494 0.89521 0.0
C665 C 0.30026 0.58948 0.8396 0.0
C666 C 0.34422 0.58785 0.82334 0.0
C667 C 0.42608 0.58358 0.83586 0.0
C668 C 0.46318 0.58003 0.86458 0.0
C669 C 0.38146 0.58156 0.85105 0.0
C670 C 0.45517 0.57174 0.90801 0.0
C671 C 0.41104 0.56897 0.92316 0.0
H672 H 0.80943 0.75985 0.87809 0.0
H673 H 0.79829 0.64134 0.91526 0.0
H674 H 0.88036 0.63676 0.92348 0.0
H675 H 0.95522 0.66602 0.91992 0.0
H676 H 0.96792 0.78427 0.88232 0.0
H677 H 0.88545 0.78959 0.87519 0.0
C678 C 0.82504 0.73318 0.88829 0.0
C679 C 0.79774 0.7009 0.89562 0.0
C680 C 0.87253 0.73069 0.89292 0.0
C681 C 0.81849 0.6664 0.90858 0.0
C682 C 0.86545 0.6638 0.91353 0.0
C683 C 0.94012 0.69286 0.90968 0.0
C684 C 0.96791 0.7246 0.90143 0.0
C685 C 0.89281 0.69563 0.90546 0.0
C686 C 0.94742 0.75943 0.88918 0.0
C687 C 0.90022 0.76245 0.88493 0.0
H688 H 0.46303 0.74425 0.42317 0.0
H689 H 0.47871 0.64096 0.34862 0.0
H690 H 0.3969 0.638 0.33683 0.0
H691 H 0.32076 0.66469 0.34739 0.0
H692 H 0.30488 0.76794 0.42193 0.0
H693 H 0.38684 0.77142 0.43298 0.0
C694 C 0.44874 0.7213 0.40394 0.0
C695 C 0.47737 0.69281 0.387 0.0
C696 C 0.40146 0.71981 0.39709 0.0
C697 C 0.45776 0.66301 0.36266 0.0
C698 C 0.41086 0.66138 0.35567 0.0
C699 C 0.33506 0.68778 0.36642 0.0
C700 C 0.30632 0.71593 0.38388 0.0
C701 C 0.38234 0.68951 0.37289 0.0
C702 C 0.32592 0.74605 0.4077 0.0
C703 C 0.3729 0.74796 0.41426 0.0
H704 H 0.84852 0.56393 0.44888 0.0
H705 H 0.78824 0.5787 0.32254 0.0
H706 H 0.86334 0.5776 0.29075 0.0
H707 H 0.94657 0.5803 0.29997 0.0
H708 H 1.00569 0.56552 0.4265 0.0
H709 H 0.93041 0.55791 0.45689 0.0
C710 C 0.85129 0.56618 0.41432 0.0
C711 C 0.81233 0.57245 0.38848 0.0
C712 C 0.89461 0.56572 0.39621 0.0
C713 C 0.81744 0.57507 0.34359 0.0
C714 C 0.86048 0.57423 0.32526 0.0
C715 C 0.94298 0.57453 0.334 0.0
C716 C 0.98163 0.57416 0.36108 0.0
C717 C 0.89941 0.57084 0.35142 0.0
C718 C 0.97639 0.56674 0.40517 0.0
C719 C 0.93337 0.56235 0.42254 0.0
H720 H 0.5482 0.45169 0.10968 0.0
H721 H 0.57936 0.44845 0.24555 0.0
H722 H 0.66011 0.45417 0.23055 0.0
H723 H 0.72234 0.45354 0.17847 0.0
H724 H 0.69066 0.45441 0.04254 0.0
H725 H 0.60998 0.45652 0.05791 0.0
C726 C 0.57266 0.45229 0.13601 0.0
C727 C 0.55769 0.44895 0.17863 0.0
C728 C 0.61911 0.45497 0.12712 0.0
C729 C 0.58978 0.45094 0.21245 0.0
C730 C 0.63608 0.45394 0.20387 0.0
C731 C 0.69779 0.45425 0.15222 0.0
C732 C 0.71278 0.45325 0.1094 0.0
C733 C 0.6512 0.45488 0.16128 0.0
C734 C 0.6804 0.45523 0.07579 0.0
C735 C 0.63409 0.45617 0.08455 0.0
H736 H 0.20559 0.32588 0.08072 0.0
H737 H 0.22794 0.32151 0.21789 0.0
H738 H 0.14601 0.32217 0.22938 0.0
H739 H 0.06801 0.32633 0.20044 0.0
H740 H 0.04561 0.33358 0.06341 0.0
H741 H 0.12739 0.32944 0.05171 0.0
C742 C 0.19247 0.32452 0.11307 0.0
C743 C 0.22285 0.3234 0.14844 0.0
C744 C 0.14528 0.32567 0.1194 0.0
C745 C 0.20529 0.32251 0.19021 0.0
C746 C 0.15845 0.32284 0.19676 0.0
C747 C 0.08099 0.32649 0.16801 0.0
C748 C 0.05066 0.33007 0.13281 0.0
C749 C 0.12812 0.32473 0.16162 0.0
C750 C 0.06819 0.33107 0.09102 0.0
C751 C 0.11495 0.32859 0.08434 0.0
H752 H 0.55212 0.35858 0.65533 0.0
H753 H 0.54186 0.24641 0.59792 0.0
H754 H 0.62393 0.23882 0.60283 0.0
H755 H 0.69925 0.26483 0.62137 0.0
H756 H 0.70904 0.37817 0.67612 0.0
H757 H 0.62701 0.38421 0.67444 0.0
C758 C 0.56773 0.33258 0.64357 0.0
C759 C 0.54047 0.30323 0.62619 0.0
C760 C 0.61516 0.32847 0.64612 0.0
C761 C 0.56162 0.26941 0.61192 0.0
C762 C 0.60875 0.26508 0.61446 0.0
C763 C 0.6835 0.29088 0.63285 0.0
C764 C 0.71077 0.32085 0.64894 0.0
C765 C 0.63593 0.29454 0.63124 0.0
C766 C 0.6894 0.35422 0.66421 0.0
C767 C 0.64224 0.35794 0.66291 0.0
H768 H 0.08114 0.43609 0.72141 0.0
H769 H 0.02229 0.4476 0.59428 0.0
H770 H 0.09759 0.45442 0.56386 0.0
H771 H 0.17959 0.45002 0.57241 0.0
H772 H 0.23953 0.43921 0.69934 0.0
H773 H 0.1642 0.43952 0.73081 0.0
C774 C 0.08476 0.44089 0.68721 0.0
C775 C 0.04615 0.44065 0.66006 0.0
C776 C 0.12831 0.44445 0.66981 0.0
C777 C 0.0515 0.44678 0.61573 0.0
C778 C 0.09455 0.45081 0.59833 0.0
C779 C 0.17661 0.44854 0.60701 0.0
C780 C 0.21555 0.44379 0.63324 0.0
C781 C 0.13322 0.44857 0.62491 0.0
C782 C 0.2103 0.44187 0.67813 0.0
C783 C 0.16716 0.44221 0.69624 0.0
H784 H 0.18743 0.06789 0.21372 0.0
H785 H 0.04192 0.07686 0.22495 0.0
H786 H 0.0335 0.07245 0.1472 0.0
H787 H 0.0675 0.07573 0.07578 0.0
H788 H 0.21344 0.07643 0.06505 0.0
H789 H 0.22125 0.06727 0.14227 0.0
C790 C 0.15377 0.06908 0.19935 0.0
C791 C 0.11554 0.07371 0.22569 0.0
C792 C 0.14915 0.06877 0.1543 0.0
C793 C 0.07219 0.07332 0.20609 0.0
C794 C 0.06728 0.0713 0.16133 0.0
C795 C 0.10113 0.07416 0.09017 0.0
C796 C 0.13973 0.07758 0.0641 0.0
C797 C 0.10559 0.07071 0.13509 0.0
C798 C 0.18289 0.07379 0.08366 0.0
C799 C 0.1875 0.06893 0.12814 0.0
H800 H 0.94999 0.94035 0.97186 0.0
H801 H 0.80405 0.9383 0.98154 0.0
H802 H 0.79683 0.93746 0.90351 0.0
H803 H 0.83157 0.92912 0.83282 0.0
H804 H 0.97742 0.92456 0.8236 0.0
H805 H 0.98477 0.93626 0.90067 0.0
C806 C 0.91652 0.9397 0.95704 0.0
C807 C 0.87771 0.93877 0.98309 0.0
C808 C 0.9125 0.93763 0.91193 0.0
C809 C 0.83469 0.93927 0.96284 0.0
C810 C 0.83046 0.93834 0.91798 0.0
C811 C 0.86504 0.93061 0.84758 0.0
C812 C 0.90382 0.92532 0.82217 0.0
C813 C 0.8691 0.93615 0.89229 0.0
C814 C 0.94686 0.92863 0.84195 0.0
C815 C 0.95114 0.93502 0.88625 0.0
H816 H 0.11062 0.67963 0.56285 0.0
H817 H 0.17174 0.5674 0.55483 0.0
H818 H 0.16898 0.56161 0.63329 0.0
H819 H 0.14923 0.58927 0.70465 0.0
H820 H 0.07879 0.69789 0.70814 0.0
H821 H 0.08368 0.70333 0.63068 0.0
C822 C 0.12229 0.65324 0.57764 0.0
C823 C 0.14085 0.62384 0.55226 0.0
C824 C 0.11875 0.64937 0.62226 0.0
C825 C 0.15764 0.59081 0.57316 0.0
C826 C 0.15564 0.58729 0.61813 0.0
C827 C 0.13422 0.61375 0.68839 0.0
C828 C 0.11472 0.64359 0.71266 0.0
C829 C 0.13611 0.61643 0.64309 0.0
C830 C 0.09536 0.67504 0.69075 0.0
C831 C 0.09792 0.67817 0.64627 0.0
H832 H 0.93463 0.42796 0.46584 0.0
H833 H 0.78898 0.42179 0.47536 0.0
H834 H 0.78134 0.43066 0.39773 0.0
H835 H 0.81614 0.43306 0.32629 0.0
H836 H 0.96214 0.43336 0.3169 0.0
H837 H 0.96921 0.43457 0.39493 0.0
C838 C 0.90114 0.42854 0.45102 0.0
C839 C 0.8625 0.42358 0.47667 0.0
C840 C 0.89698 0.43251 0.4061 0.0
C841 C 0.8194 0.42564 0.45679 0.0
C842 C 0.81498 0.43039 0.41219 0.0
C843 C 0.84959 0.43333 0.34118 0.0
C844 C 0.88849 0.4326 0.31521 0.0
C845 C 0.85358 0.43268 0.38638 0.0
C846 C 0.93143 0.4342 0.33553 0.0
C847 C 0.9356 0.43449 0.38039 0.0
H848 H 0.61584 0.06626 0.59055 0.0
H849 H 0.68285 0.1748 0.57577 0.0
H850 H 0.68779 0.18232 0.65387 0.0
H851 H 0.66896 0.16006 0.72544 0.0
H852 H 0.60612 0.04956 0.74214 0.0
H853 H 0.60242 0.04132 0.66409 0.0
C854 C 0.63224 0.09109 0.60473 0.0
C855 C 0.64949 0.1198 0.5779 0.0
C856 C 0.63503 0.09514 0.64977 0.0
C857 C 0.67009 0.15219 0.59613 0.0
C858 C 0.67259 0.15658 0.64066 0.0
C859 C 0.65554 0.13357 0.71246 0.0
C860 C 0.63802 0.10549 0.74018 0.0
C861 C 0.65472 0.12845 0.66774 0.0
C862 C 0.61933 0.07204 0.72193 0.0
C863 C 0.6176 0.06705 0.67721 0.0
H864 H 0.41376 0.96549 0.32902 0.0
H865 H 0.2867 0.90514 0.31986 0.0
H866 H 0.27588 0.91233 0.39712 0.0
H867 H 0.30871 0.92588 0.46842 0.0
H868 H 0.43825 0.98194 0.47868 0.0
H869 H 0.44149 0.98743 0.40023 0.0
C870 C 0.38323 0.95483 0.34389 0.0
C871 C 0.35148 0.9342 0.31904 0.0
C872 C 0.37786 0.95809 0.38868 0.0
C873 C 0.31199 0.92052 0.33859 0.0
C874 C 0.30578 0.92462 0.38274 0.0
C875 C 0.3369 0.94035 0.45342 0.0
C876 C 0.3733 0.95325 0.47902 0.0
C877 C 0.33938 0.94188 0.40836 0.0
C878 C 0.40999 0.97158 0.45937 0.0
C879 C 0.41196 0.97449 0.41458 0.0
H880 H 0.58865 0.57995 0.06836 0.0
H881 H 0.72428 0.62354 0.05458 0.0
H882 H 0.73445 0.62433 0.13276 0.0
H883 H 0.70188 0.61909 0.20509 0.0
H884 H 0.56715 0.57384 0.21937 0.0
H885 H 0.55966 0.56671 0.14119 0.0
C886 C 0.62064 0.58905 0.08257 0.0
C887 C 0.65554 0.602 0.05574 0.0
C888 C 0.62623 0.58946 0.12764 0.0
C889 C 0.697 0.6133 0.07448 0.0
C890 C 0.70269 0.61406 0.11922 0.0
C891 C 0.67104 0.6074 0.19102 0.0
C892 C 0.63482 0.59763 0.21786 0.0
C893 C 0.6671 0.60326 0.1461 0.0
C894 C 0.59541 0.58172 0.19937 0.0
C895 C 0.59106 0.57782 0.15466 0.0
H896 H 0.40306 0.35459 0.82236 0.0
H897 H 0.36915 0.47319 0.79903 0.0
H898 H 0.36609 0.48444 0.87668 0.0
H899 H 0.37236 0.45962 0.95218 0.0
H900 H 0.39872 0.33917 0.97143 0.0
H901 H 0.40275 0.32931 0.89432 0.0
C902 C 0.39375 0.38281 0.83374 0.0
C903 C 0.38577 0.41272 0.80429 0.0
C904 C 0.39004 0.38867 0.87805 0.0
C905 C 0.37593 0.44947 0.82059 0.0
C906 C 0.37363 0.45588 0.86513 0.0
C907 C 0.3783 0.43124 0.93925 0.0
C908 C 0.38593 0.40026 0.96747 0.0
C909 C 0.38034 0.42556 0.89429 0.0
C910 C 0.39353 0.36357 0.95039 0.0
C911 C 0.39592 0.35787 0.90629 0.0
H912 H 0.31571 0.31378 0.49034 0.0
H913 H 0.2654 0.28721 0.61658 0.0
H914 H 0.21118 0.24243 0.58537 0.0
H915 H 0.17899 0.20937 0.52274 0.0
H916 H 0.22936 0.23426 0.39623 0.0
H917 H 0.28208 0.28116 0.42689 0.0
C918 C 0.29285 0.29818 0.51094 0.0
C919 C 0.29483 0.3038 0.55575 0.0
C920 C 0.26155 0.27219 0.49274 0.0
C921 C 0.26483 0.28343 0.582 0.0
C922 C 0.23366 0.25778 0.56419 0.0
C923 C 0.20119 0.22529 0.50179 0.0
C924 C 0.20012 0.21836 0.45727 0.0
C925 C 0.23181 0.2518 0.51967 0.0
C926 C 0.22939 0.23909 0.43065 0.0
C927 C 0.25968 0.26585 0.44817 0.0
H928 H 0.92966 0.01518 0.56981 0.0
H929 H 1.00759 0.91048 0.57263 0.0
H930 H 0.06224 0.938 0.52357 0.0
H931 H 0.08798 0.99168 0.4791 0.0
H932 H 0.01039 0.09657 0.4765 0.0
H933 H 0.95578 0.06911 0.52577 0.0
C934 C 0.95879 0.99848 0.56 0.0
C935 C 0.96427 0.96071 0.57495 0.0
C936 C 0.99014 0.01445 0.5314 0.0
C937 C 1.00216 0.93947 0.56153 0.0
C938 C 0.03355 0.95521 0.53338 0.0
C939 C 0.05897 1.00845 0.48905 0.0
C940 C 0.0534 0.04614 0.47393 0.0
C941 C 0.02774 0.99257 0.51781 0.0
C942 C 0.01573 0.06753 0.48759 0.0
C943 C 0.9844 0.05185 0.51589 0.0
H944 H 0.28425 0.93994 0.74639 0.0
H945 H 0.34018 0.04509 0.69732 0.0
H946 H 0.2884 0.08209 0.74169 0.0
H947 H 0.22743 0.08477 0.79444 0.0
H948 H 0.17129 0.97975 0.84358 0.0
H949 H 0.22311 0.94265 0.79923 0.0
C950 C 0.28506 0.97095 0.74523 0.0
C951 C 0.31613 0.98963 0.7184 0.0
C952 C 0.25526 0.99214 0.77099 0.0
C953 C 0.31667 0.02987 0.71754 0.0
C954 C 0.28708 0.05111 0.74299 0.0
C955 C 0.22657 0.05376 0.79566 0.0
C956 C 0.19547 0.03515 0.82249 0.0
C957 C 0.25633 0.03256 0.76991 0.0
C958 C 0.19485 0.99491 0.82336 0.0
C959 C 0.22446 0.97363 0.79792 0.0
H960 H 0.93843 0.30781 0.78446 0.0
H961 H 0.98075 0.27029 0.65901 0.0
H962 H 0.03479 0.22572 0.69222 0.0
H963 H 0.07025 0.19721 0.757 0.0
H964 H 0.02784 0.23474 0.88241 0.0
H965 H 0.97416 0.27957 0.84919 0.0
C966 C 0.95924 0.28969 0.76437 0.0
C967 C 0.95526 0.29229 0.71925 0.0
C968 C 0.99064 0.2643 0.78371 0.0
C969 C 0.98289 0.26883 0.69378 0.0
C970 C 0.01397 0.24338 0.71277 0.0
C971 C 0.04954 0.21542 0.77707 0.0
C972 C 0.05331 0.21267 0.8222 0.0
C973 C 0.01829 0.24095 0.75771 0.0
C974 C 0.02584 0.23629 0.84764 0.0
C975 C 0.99495 0.26188 0.82865 0.0
H976 H 0.83321 0.80793 0.51367 0.0
H977 H 0.78308 0.77157 0.63672 0.0
H978 H 0.73188 0.7263 0.60087 0.0
H979 H 0.70091 0.69712 0.53424 0.0
H980 H 0.75098 0.7344 0.41144 0.0
H981 H 0.80228 0.77916 0.44744 0.0
C982 C 0.81127 0.78998 0.53272 0.0
C983 C 0.81222 0.79309 0.5779 0.0
C984 C 0.78162 0.76422 0.51185 0.0
C985 C 0.78322 0.76975 0.60195 0.0
C986 C 0.75383 0.74387 0.58143 0.0
C987 C 0.72295 0.71512 0.51536 0.0
C988 C 0.72193 0.71235 0.47011 0.0
C989 C 0.7526 0.74091 0.53636 0.0
C990 C 0.75089 0.73588 0.44624 0.0
C991 C 0.78037 0.7615 0.46683 0.0
H992 H 0.67539 1.01126 0.32245 0.0
H993 H 0.7576 0.11173 0.34241 0.0
H994 H 0.81487 0.08635 0.29403 0.0
H995 H 0.84151 0.03554 0.24539 0.0
H996 H 0.75817 0.93578 0.22507 0.0
H997 H 0.70155 0.96099 0.27349 0.0
C998 C 0.70611 0.02733 0.3166 0.0
C999 C 0.7123 0.0632 0.33607 0.0
C1000 C 0.73856 1.01289 0.28813 0.0
C1001 C 0.75196 0.08405 0.32765 0.0
C1002 C 0.78471 0.0696 0.29991 0.0
C1003 C 0.81075 0.01953 0.2512 0.0
C1004 C 0.80424 0.98372 0.23142 0.0
C1005 C 0.77823 0.03416 0.27962 0.0
C1006 C 0.76427 0.96329 0.23975 0.0
C1007 C 0.7318 0.97765 0.26767 0.0
H1008 H 0.99081 0.80048 0.18065 0.0
H1009 H 0.90689 0.81694 0.29182 0.0
H1010 H 0.95592 0.77438 0.33386 0.0
H1011 H 0.02377 0.73415 0.33993 0.0
H1012 H 0.10794 0.71682 0.22921 0.0
H1013 H 0.05788 0.75825 0.18621 0.0
C1014 C 0.98299 0.79439 0.21393 0.0
C1015 C 0.94518 0.81185 0.23302 0.0
C1016 C 0.01166 0.77011 0.23815 0.0
C1017 C 0.9357 0.80387 0.27628 0.0
C1018 C 0.96384 0.77964 0.30044 0.0
C1019 C 0.03132 0.73954 0.30643 0.0
C1020 C 0.06975 0.72272 0.28789 0.0
C1021 C 1.00219 0.763 0.28187 0.0
C1022 C 0.07869 0.7296 0.2443 0.0
C1023 C 0.05001 0.75321 0.21968 0.0
H1024 H 0.32747 0.81499 1.01338 0.0
H1025 H 0.27307 0.78287 0.13628 0.0
H1026 H 0.22218 0.73721 0.10101 0.0
H1027 H 0.19131 0.7078 0.03478 0.0
H1028 H 0.24542 0.74112 0.91207 0.0
H1029 H 0.29807 0.78473 0.94771 0.0
C1030 C 0.30473 0.79779 0.03247 0.0
C1031 C 0.30404 0.80232 0.07732 0.0
C1032 C 0.27526 0.77188 1.01199 0.0
C1033 C 0.27423 0.77995 0.10163 0.0
C1034 C 0.24505 0.75385 0.0815 0.0
C1035 C 0.21473 0.72453 1.01592 0.0
C1036 C 0.21428 0.7213 0.97088 0.0
C1037 C 0.24495 0.74982 0.03663 0.0
C1038 C 0.24488 0.74314 0.94683 0.0
C1039 C 0.2751 0.76811 0.96715 0.0
H1040 H 0.0862 0.51366 0.97553 0.0
H1041 H 1.00288 0.6144 0.95902 0.0
H1042 H 0.94715 0.58814 1.00851 0.0
H1043 H 0.92209 0.53617 0.05671 0.0
H1044 H 1.00762 0.43675 0.07407 0.0
H1045 H 0.06254 0.4631 0.0246 0.0
C1046 C 0.05564 0.52976 0.98235 0.0
C1047 C 0.04855 0.56577 0.96316 0.0
C1048 C 0.02429 0.51489 1.01151 0.0
C1049 C 0.00909 0.5865 0.9731 0.0
C1050 C 0.97728 0.57157 1.00158 0.0
C1051 C 0.953 0.52051 0.05006 0.0
C1052 C 0.96047 0.48438 0.06903 0.0
C1053 C 0.98464 0.53584 0.02121 0.0
C1054 C 1.00064 0.4644 0.05973 0.0
C1055 C 0.03216 0.47944 0.03133 0.0
H1056 H 0.18372 0.50797 0.2985 0.0
H1057 H 0.26975 0.60685 0.31392 0.0
H1058 H 0.32577 0.57827 0.26665 0.0
H1059 H 0.35023 0.52531 0.22005 0.0
H1060 H 0.26345 0.42698 0.20384 0.0
H1061 H 0.20781 0.45538 0.25157 0.0
C1062 C 0.21499 0.52303 0.29196 0.0
C1063 C 0.22261 0.55936 0.31002 0.0
C1064 C 0.24674 0.50676 0.26398 0.0
C1065 C 0.26302 0.57878 0.3006 0.0
C1066 C 0.29504 0.56254 0.27335 0.0
C1067 C 0.31888 0.51035 0.22654 0.0
C1068 C 0.31108 0.47409 0.20838 0.0
C1069 C 0.28709 0.5267 0.25448 0.0
C1070 C 0.27048 0.45486 0.21756 0.0
C1071 C 0.23862 0.47103 0.24497 0.0
H1072 H 0.77167 0.30102 0.10904 0.0
H1073 H 0.85749 0.32088 1.00005 0.0
H1074 H 0.81076 0.27816 0.95609 0.0
H1075 H 0.74515 0.2354 0.94815 0.0
H1076 H 0.6592 0.21518 0.05691 0.0
H1077 H 0.70594 0.25793 0.10108 0.0
C1078 C 0.78034 0.29575 0.07577 0.0
C1079 C 0.8182 0.31405 0.05799 0.0
C1080 C 0.75298 0.27133 0.05041 0.0
C1081 C 0.82866 0.30714 1.01467 0.0
C1082 C 0.80184 0.28278 0.9894 0.0
C1083 C 0.73642 0.24056 0.98142 0.0
C1084 C 0.69854 0.22224 0.99907 0.0
C1085 C 0.76376 0.26489 1.00682 0.0
C1086 C 0.68805 0.229 0.04241 0.0
C1087 C 0.71487 0.25336 0.06778 0.0
H1088 H 0.83113 0.52093 0.71432 0.0
H1089 H 0.77101 0.41109 0.74098 0.0
H1090 H 0.7143 0.44153 0.78546 0.0
H1091 H 0.68148 0.49927 0.81764 0.0
H1092 H 0.74195 0.60921 0.79223 0.0
H1093 H 0.7986 0.57881 0.74714 0.0
C1094 C 0.80555 0.50364 0.72971 0.0
C1095 C 0.80536 0.46369 0.72371 0.0
C1096 C 0.77304 0.52135 0.75593 0.0
C1097 C 0.77198 0.44186 0.74433 0.0
C1098 C 0.73947 0.45925 0.77012 0.0
C1099 C 0.70711 0.5166 0.80239 0.0
C1100 C 0.70726 0.5565 0.80848 0.0
C1101 C 0.73969 0.49896 0.77627 0.0
C1102 C 0.74082 0.57843 0.78824 0.0
C1103 C 0.77332 0.56108 0.76231 0.0
H1104 H 0.41668 0.0186 0.05173 0.0
H1105 H 0.50194 0.92169 0.08322 0.0
H1106 H 0.56304 0.94873 0.04069 0.0
H1107 H 0.59278 1.00076 0.99509 0.0
H1108 H 0.50602 0.09668 0.9635 0.0
H1109 H 0.445 0.06891 1.005 0.0
C1110 C 0.44867 1.00339 0.0496 0.0
C1111 C 0.4547 0.96832 0.07115 0.0
C1112 C 0.48341 0.01881 0.02464 0.0
C1113 C 0.49633 0.94889 0.06739 0.0
C1114 C 0.5313 0.96426 0.04284 0.0
C1115 C 0.56031 0.01526 0.99688 0.0
C1116 C 0.55411 0.05087 0.97646 0.0
C1117 C 0.52523 0.99923 0.02126 0.0
C1118 C 0.51193 0.06949 0.97933 0.0
C1119 C 0.47694 0.05363 1.00308 0.0
H1120 H 0.43742 0.31982 0.28573 0.0
H1121 H 0.48601 0.27892 0.16367 0.0
H1122 H 0.53832 0.23548 0.20046 0.0
H1123 H 0.57152 0.20987 0.26696 0.0
H1124 H 0.52336 0.24971 0.3895 0.0
H1125 H 0.46998 0.29294 0.35292 0.0
C1126 C 0.45914 0.3011 0.26725 0.0
C1127 C 0.45773 0.30259 0.22203 0.0
C1128 C 0.4896 0.27629 0.28867 0.0
C1129 C 0.48635 0.27837 0.19851 0.0
C1130 C 0.51644 0.25357 0.2195 0.0
C1131 C 0.54955 0.22817 0.28571 0.0
C1132 C 0.55165 0.2268 0.33085 0.0
C1133 C 0.51867 0.25255 0.26452 0.0
C1134 C 0.52256 0.25037 0.35466 0.0
C1135 C 0.49192 0.275 0.33377 0.0
H1136 H 0.44318 0.82579 0.78118 0.0
H1137 H 0.48867 0.79439 0.65464 0.0
H1138 H 0.54067 0.7473 0.68613 0.0
H1139 H 0.57379 0.71515 0.74966 0.0
H1140 H 0.52834 0.74651 0.87622 0.0
H1141 H 0.47615 0.79349 0.84474 0.0
C1142 C 0.46428 0.80849 0.76048 0.0
C1143 C 0.46186 0.81357 0.71559 0.0
C1144 C 0.49443 0.78157 0.77884 0.0
C1145 C 0.4897 0.79105 0.68928 0.0
C1146 C 0.51959 0.76414 0.70727 0.0
C1147 C 0.55264 0.7324 0.77037 0.0
C1148 C 0.55515 0.72738 0.81526 0.0
C1149 C 0.52241 0.75925 0.75202 0.0
C1150 C 0.52722 0.74981 0.84158 0.0
C1151 C 0.49725 0.77667 0.82359 0.0
H1152 H 0.60006 0.492 0.47716 0.0
H1153 H 0.52495 0.59775 0.46382 0.0
H1154 H 0.46267 0.57062 0.50432 0.0
H1155 H 0.42956 0.51732 0.54412 0.0
H1156 H 0.50387 0.4112 0.55716 0.0
H1157 H 0.56639 0.43821 0.51652 0.0
C1158 C 0.56998 0.50907 0.48286 0.0
C1159 C 0.56736 0.5469 0.46731 0.0
C1160 C 0.53418 0.49335 0.50647 0.0
C1161 C 0.52807 0.56857 0.47527 0.0
C1162 C 0.49237 0.55311 0.49858 0.0
C1163 C 0.45949 0.50008 0.53833 0.0
C1164 C 0.46196 0.46231 0.55398 0.0
C1165 C 0.49515 0.51563 0.51453 0.0
C1166 C 0.50097 0.44039 0.54571 0.0
C1167 C 0.53677 0.45579 0.52233 0.0
loop_
_geom_bond_atom_site_label_1
_geom_bond_atom_site_label_2
_geom_bond_distance
_geom_bond_site_symmetry_2
_ccdc_geom_bond_type
Co0 N4 2.148 . S
Co0 N10 2.128 . S
Co0 N20 2.194 . S
Co0 O25 2.351 . S
Co0 O26 2.155 . S
Co0 O27 2.096 . S
C1 N4 1.301 . S
C1 N5 1.328 . S
C1 H6 0.930 . S
C2 C3 1.333 . S
C2 N4 1.317 . S
C2 H7 0.930 . S
C3 C2 1.333 . S
C3 N5 1.350 . S
C3 H29 0.931 . S
N4 Co0 2.148 . S
N4 C1 1.301 . S
N4 C2 1.317 . S
N5 C1 1.328 . S
N5 C3 1.350 . S
H6 C1 0.930 . S
H7 C2 0.930 . S
C8 O9 1.224 . S
C8 O27 1.247 . S
O9 C8 1.224 . S
N10 Co0 2.128 . S
N10 C11 1.355 . S
N10 C13 1.311 . S
C11 N10 1.355 . S
C11 C12 1.363 . S
C11 H23 0.929 . S
C12 C11 1.363 . S
C12 N14 1.375 1_455 S
C12 H30 0.931 1_455 S
C13 N10 1.311 . S
C13 N14 1.347 1_455 S
C13 H24 0.929 . S
N14 C12 1.375 1_655 S
N14 C13 1.347 1_655 S
C15 C18 1.365 . S
C15 N20 1.328 . S
C15 H21 0.929 . S
C16 C17 1.362 . S
C16 C19 1.378 . S
C16 H31 0.929 . S
C17 C16 1.362 . S
C17 C18 1.366 . S
C18 C15 1.365 . S
C18 C17 1.366 . S
C18 H32 0.930 . S
C19 C16 1.378 . S
C19 N20 1.315 . S
C19 H22 0.930 . S
N20 Co0 2.194 . S
N20 C15 1.328 . S
N20 C19 1.315 . S
H21 C15 0.929 . S
H22 C19 0.930 . S
H23 C11 0.929 . S
H24 C13 0.929 . S
O25 Co0 2.351 . S
O25 C28 1.244 . S
O26 Co0 2.155 . S
O26 C28 1.240 . S
O27 Co0 2.096 . S
O27 C8 1.247 . S
C28 O25 1.244 . S
C28 O26 1.240 . S
H29 C3 0.931 . S
H30 C12 0.931 1_655 S
H31 C16 0.929 . S
H32 C18 0.930 . S
Co33 N37 2.148 . S
Co33 N43 2.128 . S
Co33 N53 2.194 . S
Co33 O58 2.351 . S
Co33 O59 2.155 . S
Co33 O60 2.096 . S
C34 N37 1.301 . S
C34 N38 1.328 1_455 S
C34 H39 0.930 . S
C35 C36 1.333 . S
C35 N37 1.317 . S
C35 H40 0.930 . S
C36 C35 1.333 . S
C36 N38 1.350 1_455 S
C36 H62 0.931 1_455 S
N37 Co33 2.148 . S
N37 C34 1.301 . S
N37 C35 1.317 . S
N38 C34 1.328 1_655 S
N38 C36 1.350 1_655 S
H39 C34 0.930 . S
H40 C35 0.930 . S
C41 O42 1.224 . S
C41 O60 1.247 . S
O42 C41 1.224 . S
N43 Co33 2.128 . S
N43 C44 1.355 . S
N43 C46 1.311 . S
C44 N43 1.355 . S
C44 C45 1.363 . S
C44 H56 0.929 . S
C45 C44 1.363 . S
C45 N47 1.375 . S
C45 H63 0.931 . S
C46 N43 1.311 . S
C46 N47 1.347 . S
C46 H57 0.929 . S
N47 C45 1.375 . S
N47 C46 1.347 . S
C48 C51 1.365 . S
C48 N53 1.328 . S
C48 H54 0.929 . S
C49 C50 1.362 1_556 S
C49 C52 1.378 . S
C49 H64 0.929 . S
C50 C49 1.362 1_554 S
C50 C51 1.366 1_554 S
C51 C48 1.365 . S
C51 C50 1.366 1_556 S
C51 H65 0.930 1_556 S
C52 C49 1.378 . S
C52 N53 1.315 . S
C52 H55 0.930 . S
N53 Co33 2.194 . S
N53 C48 1.328 . S
N53 C52 1.315 . S
H54 C48 0.929 . S
H55 C52 0.930 . S
H56 C44 0.929 . S
H57 C46 0.929 . S
O58 Co33 2.351 . S
O58 C61 1.244 . S
O59 Co33 2.155 . S
O59 C61 1.240 . S
O60 Co33 2.096 . S
O60 C41 1.247 . S
C61 O58 1.244 . S
C61 O59 1.240 . S
H62 C36 0.931 1_655 S
H63 C45 0.931 . S
H64 C49 0.929 . S
H65 C51 0.930 1_554 S
Co66 N70 2.148 . S
Co66 N76 2.128 . S
Co66 N86 2.194 . S
Co66 O91 2.351 . S
Co66 O92 2.155 . S
Co66 O93 2.096 . S
C67 N70 1.301 . S
C67 N71 1.328 . S
C67 H72 0.930 . S
C68 C69 1.333 . S
C68 N70 1.317 . S
C68 H73 0.930 . S
C69 C68 1.333 . S
C69 N71 1.350 . S
C69 H95 0.931 . S
N70 Co66 2.148 . S
N70 C67 1.301 . S
N70 C68 1.317 . S
N71 C67 1.328 . S
N71 C69 1.350 . S
H72 C67 0.930 . S
H73 C68 0.930 . S
C74 O75 1.224 . S
C74 O93 1.247 . S
O75 C74 1.224 . S
N76 Co66 2.128 . S
N76 C77 1.355 . S
N76 C79 1.311 . S
C77 N76 1.355 . S
C77 C78 1.363 . S
C77 H89 0.929 . S
C78 C77 1.363 . S
C78 N80 1.375 1_655 S
C78 H96 0.931 1_655 S
C79 N76 1.311 . S
C79 N80 1.347 1_655 S
C79 H90 0.929 . S
N80 C78 1.375 1_455 S
N80 C79 1.347 1_455 S
C81 C84 1.365 . S
C81 N86 1.328 . S
C81 H87 0.929 . S
C82 C83 1.362 . S
C82 C85 1.378 . S
C82 H97 0.929 . S
C83 C82 1.362 . S
C83 C84 1.366 . S
C84 C81 1.365 . S
C84 C83 1.366 . S
C84 H98 0.930 . S
C85 C82 1.378 . S
C85 N86 1.315 . S
C85 H88 0.930 . S
N86 Co66 2.194 . S
N86 C81 1.328 . S
N86 C85 1.315 . S
H87 C81 0.929 . S
H88 C85 0.930 . S
H89 C77 0.929 . S
H90 C79 0.929 . S
O91 Co66 2.351 . S
O91 C94 1.244 . S
O92 Co66 2.155 . S
O92 C94 1.240 . S
O93 Co66 2.096 . S
O93 C74 1.247 . S
C94 O91 1.244 . S
C94 O92 1.240 . S
H95 C69 0.931 . S
H96 C78 0.931 1_455 S
H97 C82 0.929 . S
H98 C84 0.930 . S
Co99 N103 2.148 . S
Co99 N109 2.128 . S
Co99 N119 2.194 . S
Co99 O124 2.351 . S
Co99 O125 2.155 . S
Co99 O126 2.096 . S
C100 N103 1.301 . S
C100 N104 1.328 1_655 S
C100 H105 0.930 . S
C101 C102 1.333 . S
C101 N103 1.317 . S
C101 H106 0.930 . S
C102 C101 1.333 . S
C102 N104 1.350 1_655 S
C102 H128 0.931 1_655 S
N103 Co99 2.148 . S
N103 C100 1.301 . S
N103 C101 1.317 . S
N104 C100 1.328 1_455 S
N104 C102 1.350 1_455 S
H105 C100 0.930 . S
H106 C101 0.930 . S
C107 O108 1.224 . S
C107 O126 1.247 . S
O108 C107 1.224 . S
N109 Co99 2.128 . S
N109 C110 1.355 . S
N109 C112 1.311 . S
C110 N109 1.355 . S
C110 C111 1.363 . S
C110 H122 0.929 . S
C111 C110 1.363 . S
C111 N113 1.375 . S
C111 H129 0.931 . S
C112 N109 1.311 . S
C112 N113 1.347 . S
C112 H123 0.929 . S
N113 C111 1.375 . S
N113 C112 1.347 . S
C114 C117 1.365 . S
C114 N119 1.328 . S
C114 H120 0.929 . S
C115 C116 1.362 1_554 S
C115 C118 1.378 . S
C115 H130 0.929 . S
C116 C115 1.362 1_556 S
C116 C117 1.366 1_556 S
C117 C114 1.365 . S
C117 C116 1.366 1_554 S
C117 H131 0.930 1_554 S
C118 C115 1.378 . S
C118 N119 1.315 . S
C118 H121 0.930 . S
N119 Co99 2.194 . S
N119 C114 1.328 . S
N119 C118 1.315 . S
H120 C114 0.929 . S
H121 C118 0.930 . S
H122 C110 0.929 . S
H123 C112 0.929 . S
O124 Co99 2.351 . S
O124 C127 1.244 . S
O125 Co99 2.155 . S
O125 C127 1.240 . S
O126 Co99 2.096 . S
O126 C107 1.247 . S
C127 O124 1.244 . S
C127 O125 1.240 . S
H128 C102 0.931 1_455 S
H129 C111 0.931 . S
H130 C115 0.929 . S
H131 C117 0.930 1_556 S
Co132 N136 2.148 . S
Co132 N142 2.128 . S
Co132 N152 2.194 . S
Co132 O157 2.351 . S
Co132 O158 2.155 . S
Co132 O159 2.096 . S
C133 N136 1.301 . S
C133 N137 1.328 . S
C133 H138 0.930 . S
C134 C135 1.333 . S
C134 N136 1.317 . S
C134 H139 0.930 . S
C135 C134 1.333 . S
C135 N137 1.350 . S
C135 H161 0.931 . S
N136 Co132 2.148 . S
N136 C133 1.301 . S
N136 C134 1.317 . S
N137 C133 1.328 . S
N137 C135 1.350 . S
H138 C133 0.930 . S
H139 C134 0.930 . S
C140 O141 1.224 . S
C140 O159 1.247 . S
O141 C140 1.224 . S
N142 Co132 2.128 . S
N142 C143 1.355 . S
N142 C145 1.311 . S
C143 N142 1.355 . S
C143 C144 1.363 . S
C143 H155 0.929 . S
C144 C143 1.363 . S
C144 N146 1.375 1_455 S
C144 H162 0.931 1_455 S
C145 N142 1.311 . S
C145 N146 1.347 1_455 S
C145 H156 0.929 . S
N146 C144 1.375 1_655 S
N146 C145 1.347 1_655 S
C147 C150 1.365 . S
C147 N152 1.328 . S
C147 H153 0.929 . S
C148 C149 1.362 . S
C148 C151 1.378 . S
C148 H163 0.929 . S
C149 C148 1.362 . S
C149 C150 1.366 . S
C150 C147 1.365 . S
C150 C149 1.366 . S
C150 H164 0.930 . S
C151 C148 1.378 . S
C151 N152 1.315 . S
C151 H154 0.930 . S
N152 Co132 2.194 . S
N152 C147 1.328 . S
N152 C151 1.315 . S
H153 C147 0.929 . S
H154 C151 0.930 . S
H155 C143 0.929 . S
H156 C145 0.929 . S
O157 Co132 2.351 . S
O157 C160 1.244 . S
O158 Co132 2.155 . S
O158 C160 1.240 . S
O159 Co132 2.096 . S
O159 C140 1.247 . S
C160 O157 1.244 . S
C160 O158 1.240 . S
H161 C135 0.931 . S
H162 C144 0.931 1_655 S
H163 C148 0.929 . S
H164 C150 0.930 . S
Co165 N169 2.148 . S
Co165 N175 2.128 . S
Co165 N185 2.194 . S
Co165 O190 2.351 . S
Co165 O191 2.155 . S
Co165 O192 2.096 . S
C166 N169 1.301 . S
C166 N170 1.328 1_455 S
C166 H171 0.930 . S
C167 C168 1.333 . S
C167 N169 1.317 . S
C167 H172 0.930 . S
C168 C167 1.333 . S
C168 N170 1.350 1_455 S
C168 H194 0.931 1_455 S
N169 Co165 2.148 . S
N169 C166 1.301 . S
N169 C167 1.317 . S
N170 C166 1.328 1_655 S
N170 C168 1.350 1_655 S
H171 C166 0.930 . S
H172 C167 0.930 . S
C173 O174 1.224 . S
C173 O192 1.247 . S
O174 C173 1.224 . S
N175 Co165 2.128 . S
N175 C176 1.355 . S
N175 C178 1.311 . S
C176 N175 1.355 . S
C176 C177 1.363 . S
C176 H188 0.929 . S
C177 C176 1.363 . S
C177 N179 1.375 . S
C177 H195 0.931 . S
C178 N175 1.311 . S
C178 N179 1.347 . S
C178 H189 0.929 . S
N179 C177 1.375 . S
N179 C178 1.347 . S
C180 C183 1.365 . S
C180 N185 1.328 . S
C180 H186 0.929 . S
C181 C182 1.362 . S
C181 C184 1.378 . S
C181 H196 0.929 . S
C182 C181 1.362 . S
C182 C183 1.366 . S
C183 C180 1.365 . S
C183 C182 1.366 . S
C183 H197 0.930 . S
C184 C181 1.378 . S
C184 N185 1.315 . S
C184 H187 0.930 . S
N185 Co165 2.194 . S
N185 C180 1.328 . S
N185 C184 1.315 . S
H186 C180 0.929 . S
H187 C184 0.930 . S
H188 C176 0.929 . S
H189 C178 0.929 . S
O190 Co165 2.351 . S
O190 C193 1.244 . S
O191 Co165 2.155 . S
O191 C193 1.240 . S
O192 Co165 2.096 . S
O192 C173 1.247 . S
C193 O190 1.244 . S
C193 O191 1.240 . S
H194 C168 0.931 1_655 S
H195 C177 0.931 . S
H196 C181 0.929 . S
H197 C183 0.930 . S
Co198 N202 2.148 . S
Co198 N208 2.128 . S
Co198 N218 2.194 . S
Co198 O223 2.351 . S
Co198 O224 2.155 . S
Co198 O225 2.096 . S
C199 N202 1.301 . S
C199 N203 1.328 . S
C199 H204 0.930 . S
C200 C201 1.333 . S
C200 N202 1.317 . S
C200 H205 0.930 . S
C201 C200 1.333 . S
C201 N203 1.350 . S
C201 H227 0.931 . S
N202 Co198 2.148 . S
N202 C199 1.301 . S
N202 C200 1.317 . S
N203 C199 1.328 . S
N203 C201 1.350 . S
H204 C199 0.930 . S
H205 C200 0.930 . S
C206 O207 1.224 . S
C206 O225 1.247 . S
O207 C206 1.224 . S
N208 Co198 2.128 . S
N208 C209 1.355 . S
N208 C211 1.311 . S
C209 N208 1.355 . S
C209 C210 1.363 . S
C209 H221 0.929 . S
C210 C209 1.363 . S
C210 N212 1.375 1_655 S
C210 H228 0.931 1_655 S
C211 N208 1.311 . S
C211 N212 1.347 1_655 S
C211 H222 0.929 . S
N212 C210 1.375 1_455 S
N212 C211 1.347 1_455 S
C213 C216 1.365 . S
C213 N218 1.328 . S
C213 H219 0.929 . S
C214 C215 1.362 . S
C214 C217 1.378 . S
C214 H229 0.929 . S
C215 C214 1.362 . S
C215 C216 1.366 . S
C216 C213 1.365 . S
C216 C215 1.366 . S
C216 H230 0.930 . S
C217 C214 1.378 . S
C217 N218 1.315 . S
C217 H220 0.930 . S
N218 Co198 2.194 . S
N218 C213 1.328 . S
N218 C217 1.315 . S
H219 C213 0.929 . S
H220 C217 0.930 . S
H221 C209 0.929 . S
H222 C211 0.929 . S
O223 Co198 2.351 . S
O223 C226 1.244 . S
O224 Co198 2.155 . S
O224 C226 1.240 . S
O225 Co198 2.096 . S
O225 C206 1.247 . S
C226 O223 1.244 . S
C226 O224 1.240 . S
H227 C201 0.931 . S
H228 C210 0.931 1_455 S
H229 C214 0.929 . S
H230 C216 0.930 . S
Co231 N235 2.148 . S
Co231 N241 2.128 . S
Co231 N251 2.194 . S
Co231 O256 2.351 . S
Co231 O257 2.155 . S
Co231 O258 2.096 . S
C232 N235 1.301 . S
C232 N236 1.328 1_655 S
C232 H237 0.930 . S
C233 C234 1.333 . S
C233 N235 1.317 . S
C233 H238 0.930 . S
C234 C233 1.333 . S
C234 N236 1.350 1_655 S
C234 H260 0.931 1_655 S
N235 Co231 2.148 . S
N235 C232 1.301 . S
N235 C233 1.317 . S
N236 C232 1.328 1_455 S
N236 C234 1.350 1_455 S
H237 C232 0.930 . S
H238 C233 0.930 . S
C239 O240 1.224 . S
C239 O258 1.247 . S
O240 C239 1.224 . S
N241 Co231 2.128 . S
N241 C242 1.355 . S
N241 C244 1.311 . S
C242 N241 1.355 . S
C242 C243 1.363 . S
C242 H254 0.929 . S
C243 C242 1.363 . S
C243 N245 1.375 . S
C243 H261 0.931 . S
C244 N241 1.311 . S
C244 N245 1.347 . S
C244 H255 0.929 . S
N245 C243 1.375 . S
N245 C244 1.347 . S
C246 C249 1.365 . S
C246 N251 1.328 . S
C246 H252 0.929 . S
C247 C248 1.362 . S
C247 C250 1.378 . S
C247 H262 0.929 . S
C248 C247 1.362 . S
C248 C249 1.366 . S
C249 C246 1.365 . S
C249 C248 1.366 . S
C249 H263 0.930 . S
C250 C247 1.378 . S
C250 N251 1.315 . S
C250 H253 0.930 . S
N251 Co231 2.194 . S
N251 C246 1.328 . S
N251 C250 1.315 . S
H252 C246 0.929 . S
H253 C250 0.930 . S
H254 C242 0.929 . S
H255 C244 0.929 . S
O256 Co231 2.351 . S
O256 C259 1.244 . S
O257 Co231 2.155 . S
O257 C259 1.240 . S
O258 Co231 2.096 . S
O258 C239 1.247 . S
C259 O256 1.244 . S
C259 O257 1.240 . S
H260 C234 0.931 1_455 S
H261 C243 0.931 . S
H262 C247 0.929 . S
H263 C249 0.930 . S
Co264 N268 2.148 . S
Co264 N274 2.128 . S
Co264 N284 2.194 . S
Co264 O289 2.351 . S
Co264 O290 2.155 . S
Co264 O291 2.096 . S
C265 N268 1.301 . S
C265 N269 1.328 . S
C265 H270 0.930 . S
C266 C267 1.333 . S
C266 N268 1.317 . S
C266 H271 0.930 . S
C267 C266 1.333 . S
C267 N269 1.350 . S
C267 H293 0.931 . S
N268 Co264 2.148 . S
N268 C265 1.301 . S
N268 C266 1.317 . S
N269 C265 1.328 . S
N269 C267 1.350 . S
H270 C265 0.930 . S
H271 C266 0.930 . S
C272 O273 1.224 . S
C272 O291 1.247 . S
O273 C272 1.224 . S
N274 Co264 2.128 . S
N274 C275 1.355 . S
N274 C277 1.311 . S
C275 N274 1.355 . S
C275 C276 1.363 . S
C275 H287 0.929 . S
C276 C275 1.363 . S
C276 N278 1.375 . S
C276 H294 0.931 . S
C277 N274 1.311 . S
C277 N278 1.347 . S
C277 H288 0.929 . S
N278 C276 1.375 . S
N278 C277 1.347 . S
C279 C282 1.365 . S
C279 N284 1.328 . S
C279 H285 0.929 . S
C280 C281 1.362 . S
C280 C283 1.378 . S
C280 H295 0.929 . S
C281 C280 1.362 . S
C281 C282 1.366 . S
C282 C279 1.365 . S
C282 C281 1.366 . S
C282 H296 0.930 . S
C283 C280 1.378 . S
C283 N284 1.315 . S
C283 H286 0.930 . S
N284 Co264 2.194 . S
N284 C279 1.328 . S
N284 C283 1.315 . S
H285 C279 0.929 . S
H286 C283 0.930 . S
H287 C275 0.929 . S
H288 C277 0.929 . S
O289 Co264 2.351 . S
O289 C292 1.244 . S
O290 Co264 2.155 . S
O290 C292 1.240 . S
O291 Co264 2.096 . S
O291 C272 1.247 . S
C292 O289 1.244 . S
C292 O290 1.240 . S
H293 C267 0.931 . S
H294 C276 0.931 . S
H295 C280 0.929 . S
H296 C282 0.930 . S
Co297 N301 2.148 . S
Co297 N307 2.128 . S
Co297 N317 2.194 . S
Co297 O322 2.351 . S
Co297 O323 2.155 . S
Co297 O324 2.096 . S
C298 N301 1.301 . S
C298 N302 1.328 . S
C298 H303 0.930 . S
C299 C300 1.333 . S
C299 N301 1.317 . S
C299 H304 0.930 . S
C300 C299 1.333 . S
C300 N302 1.350 . S
C300 H326 0.931 . S
N301 Co297 2.148 . S
N301 C298 1.301 . S
N301 C299 1.317 . S
N302 C298 1.328 . S
N302 C300 1.350 . S
H303 C298 0.930 . S
H304 C299 0.930 . S
C305 O306 1.224 . S
C305 O324 1.247 . S
O306 C305 1.224 . S
N307 Co297 2.128 . S
N307 C308 1.355 . S
N307 C310 1.311 . S
C308 N307 1.355 . S
C308 C309 1.363 . S
C308 H320 0.929 . S
C309 C308 1.363 . S
C309 N311 1.375 . S
C309 H327 0.931 . S
C310 N307 1.311 . S
C310 N311 1.347 . S
C310 H321 0.929 . S
N311 C309 1.375 . S
N311 C310 1.347 . S
C312 C315 1.365 . S
C312 N317 1.328 . S
C312 H318 0.929 . S
C313 C314 1.362 . S
C313 C316 1.378 . S
C313 H328 0.929 . S
C314 C313 1.362 . S
C314 C315 1.366 . S
C315 C312 1.365 . S
C315 C314 1.366 . S
C315 H329 0.930 . S
C316 C313 1.378 . S
C316 N317 1.315 . S
C316 H319 0.930 . S
N317 Co297 2.194 . S
N317 C312 1.328 . S
N317 C316 1.315 . S
H318 C312 0.929 . S
H319 C316 0.930 . S
H320 C308 0.929 . S
H321 C310 0.929 . S
O322 Co297 2.351 . S
O322 C325 1.244 . S
O323 Co297 2.155 . S
O323 C325 1.240 . S
O324 Co297 2.096 . S
O324 C305 1.247 . S
C325 O322 1.244 . S
C325 O323 1.240 . S
H326 C300 0.931 . S
H327 C309 0.931 . S
H328 C313 0.929 . S
H329 C315 0.930 . S
Co330 N334 2.148 . S
Co330 N340 2.128 . S
Co330 N350 2.194 . S
Co330 O355 2.351 . S
Co330 O356 2.155 . S
Co330 O357 2.096 . S
C331 N334 1.301 . S
C331 N335 1.328 . S
C331 H336 0.930 . S
C332 C333 1.333 . S
C332 N334 1.317 . S
C332 H337 0.930 . S
C333 C332 1.333 . S
C333 N335 1.350 . S
C333 H359 0.931 . S
N334 Co330 2.148 . S
N334 C331 1.301 . S
N334 C332 1.317 . S
N335 C331 1.328 . S
N335 C333 1.350 . S
H336 C331 0.930 . S
H337 C332 0.930 . S
C338 O339 1.224 . S
C338 O357 1.247 . S
O339 C338 1.224 . S
N340 Co330 2.128 . S
N340 C341 1.355 . S
N340 C343 1.311 . S
C341 N340 1.355 . S
C341 C342 1.363 . S
C341 H353 0.929 . S
C342 C341 1.363 . S
C342 N344 1.375 . S
C342 H360 0.931 . S
C343 N340 1.311 . S
C343 N344 1.347 . S
C343 H354 0.929 . S
N344 C342 1.375 . S
N344 C343 1.347 . S
C345 C348 1.365 . S
C345 N350 1.328 . S
C345 H351 0.929 . S
C346 C347 1.362 . S
C346 C349 1.378 . S
C346 H361 0.929 . S
C347 C346 1.362 . S
C347 C348 1.366 . S
C348 C345 1.365 . S
C348 C347 1.366 . S
C348 H362 0.930 . S
C349 C346 1.378 . S
C349 N350 1.315 . S
C349 H352 0.930 . S
N350 Co330 2.194 . S
N350 C345 1.328 . S
N350 C349 1.315 . S
H351 C345 0.929 . S
H352 C349 0.930 . S
H353 C341 0.929 . S
H354 C343 0.929 . S
O355 Co330 2.351 . S
O355 C358 1.244 . S
O356 Co330 2.155 . S
O356 C358 1.240 . S
O357 Co330 2.096 . S
O357 C338 1.247 . S
C358 O355 1.244 . S
C358 O356 1.240 . S
H359 C333 0.931 . S
H360 C342 0.931 . S
H361 C346 0.929 . S
H362 C348 0.930 . S
Co363 N367 2.148 . S
Co363 N373 2.128 . S
Co363 N383 2.194 . S
Co363 O388 2.351 . S
Co363 O389 2.155 . S
Co363 O390 2.096 . S
C364 N367 1.301 . S
C364 N368 1.328 . S
C364 H369 0.930 . S
C365 C366 1.333 . S
C365 N367 1.317 . S
C365 H370 0.930 . S
C366 C365 1.333 . S
C366 N368 1.350 . S
C366 H392 0.931 . S
N367 Co363 2.148 . S
N367 C364 1.301 . S
N367 C365 1.317 . S
N368 C364 1.328 . S
N368 C366 1.350 . S
H369 C364 0.930 . S
H370 C365 0.930 . S
C371 O372 1.224 . S
C371 O390 1.247 . S
O372 C371 1.224 . S
N373 Co363 2.128 . S
N373 C374 1.355 . S
N373 C376 1.311 . S
C374 N373 1.355 . S
C374 C375 1.363 . S
C374 H386 0.929 . S
C375 C374 1.363 . S
C375 N377 1.375 . S
C375 H393 0.931 . S
C376 N373 1.311 . S
C376 N377 1.347 . S
C376 H387 0.929 . S
N377 C375 1.375 . S
N377 C376 1.347 . S
C378 C381 1.365 . S
C378 N383 1.328 . S
C378 H384 0.929 . S
C379 C380 1.362 . S
C379 C382 1.378 . S
C379 H394 0.929 . S
C380 C379 1.362 . S
C380 C381 1.366 . S
C381 C378 1.365 . S
C381 C380 1.366 . S
C381 H395 0.930 . S
C382 C379 1.378 . S
C382 N383 1.315 . S
C382 H385 0.930 . S
N383 Co363 2.194 . S
N383 C378 1.328 . S
N383 C382 1.315 . S
H384 C378 0.929 . S
H385 C382 0.930 . S
H386 C374 0.929 . S
H387 C376 0.929 . S
O388 Co363 2.351 . S
O388 C391 1.244 . S
O389 Co363 2.155 . S
O389 C391 1.240 . S
O390 Co363 2.096 . S
O390 C371 1.247 . S
C391 O388 1.244 . S
C391 O389 1.240 . S
H392 C366 0.931 . S
H393 C375 0.931 . S
H394 C379 0.929 . S
H395 C381 0.930 . S
Co396 N400 2.148 . S
Co396 N406 2.128 . S
Co396 N416 2.194 . S
Co396 O421 2.351 . S
Co396 O422 2.155 . S
Co396 O423 2.096 . S
C397 N400 1.301 . S
C397 N401 1.328 . S
C397 H402 0.930 . S
C398 C399 1.333 . S
C398 N400 1.317 . S
C398 H403 0.930 . S
C399 C398 1.333 . S
C399 N401 1.350 . S
C399 H425 0.931 . S
N400 Co396 2.148 . S
N400 C397 1.301 . S
N400 C398 1.317 . S
N401 C397 1.328 . S
N401 C399 1.350 . S
H402 C397 0.930 . S
H403 C398 0.930 . S
C404 O405 1.224 . S
C404 O423 1.247 . S
O405 C404 1.224 . S
N406 Co396 2.128 . S
N406 C407 1.355 . S
N406 C409 1.311 . S
C407 N406 1.355 . S
C407 C408 1.363 . S
C407 H419 0.929 . S
C408 C407 1.363 . S
C408 N410 1.375 . S
C408 H426 0.931 . S
C409 N406 1.311 . S
C409 N410 1.347 . S
C409 H420 0.929 . S
N410 C408 1.375 . S
N410 C409 1.347 . S
C411 C414 1.365 . S
C411 N416 1.328 . S
C411 H417 0.929 . S
C412 C413 1.362 . S
C412 C415 1.378 . S
C412 H427 0.929 . S
C413 C412 1.362 . S
C413 C414 1.366 . S
C414 C411 1.365 . S
C414 C413 1.366 . S
C414 H428 0.930 . S
C415 C412 1.378 . S
C415 N416 1.315 . S
C415 H418 0.930 . S
N416 Co396 2.194 . S
N416 C411 1.328 . S
N416 C415 1.315 . S
H417 C411 0.929 . S
H418 C415 0.930 . S
H419 C407 0.929 . S
H420 C409 0.929 . S
O421 Co396 2.351 . S
O421 C424 1.244 . S
O422 Co396 2.155 . S
O422 C424 1.240 . S
O423 Co396 2.096 . S
O423 C404 1.247 . S
C424 O421 1.244 . S
C424 O422 1.240 . S
H425 C399 0.931 . S
H426 C408 0.931 . S
H427 C412 0.929 . S
H428 C414 0.930 . S
Co429 N433 2.148 . S
Co429 N439 2.128 . S
Co429 N449 2.194 . S
Co429 O454 2.351 . S
Co429 O455 2.155 . S
Co429 O456 2.096 . S
C430 N433 1.301 . S
C430 N434 1.328 . S
C430 H435 0.930 . S
C431 C432 1.333 . S
C431 N433 1.317 . S
C431 H436 0.930 . S
C432 C431 1.333 . S
C432 N434 1.350 . S
C432 H458 0.931 . S
N433 Co429 2.148 . S
N433 C430 1.301 . S
N433 C431 1.317 . S
N434 C430 1.328 . S
N434 C432 1.350 . S
H435 C430 0.930 . S
H436 C431 0.930 . S
C437 O438 1.224 . S
C437 O456 1.247 . S
O438 C437 1.224 . S
N439 Co429 2.128 . S
N439 C440 1.355 . S
N439 C442 1.311 . S
C440 N439 1.355 . S
C440 C441 1.363 . S
C440 H452 0.929 . S
C441 C440 1.363 . S
C441 N443 1.375 . S
C441 H459 0.931 . S
C442 N439 1.311 . S
C442 N443 1.347 . S
C442 H453 0.929 . S
N443 C441 1.375 . S
N443 C442 1.347 . S
C444 C447 1.365 . S
C444 N449 1.328 . S
C444 H450 0.929 . S
C445 C446 1.362 1_556 S
C445 C448 1.378 . S
C445 H460 0.929 . S
C446 C445 1.362 1_554 S
C446 C447 1.366 1_554 S
C447 C444 1.365 . S
C447 C446 1.366 1_556 S
C447 H461 0.930 1_556 S
C448 C445 1.378 . S
C448 N449 1.315 . S
C448 H451 0.930 . S
N449 Co429 2.194 . S
N449 C444 1.328 . S
N449 C448 1.315 . S
H450 C444 0.929 . S
H451 C448 0.930 . S
H452 C440 0.929 . S
H453 C442 0.929 . S
O454 Co429 2.351 . S
O454 C457 1.244 . S
O455 Co429 2.155 . S
O455 C457 1.240 . S
O456 Co429 2.096 . S
O456 C437 1.247 . S
C457 O454 1.244 . S
C457 O455 1.240 . S
H458 C432 0.931 . S
H459 C441 0.931 . S
H460 C445 0.929 . S
H461 C447 0.930 1_554 S
Co462 N466 2.148 . S
Co462 N472 2.128 . S
Co462 N482 2.194 . S
Co462 O487 2.351 . S
Co462 O488 2.155 . S
Co462 O489 2.096 . S
C463 N466 1.301 . S
C463 N467 1.328 . S
C463 H468 0.930 . S
C464 C465 1.333 . S
C464 N466 1.317 . S
C464 H469 0.930 . S
C465 C464 1.333 . S
C465 N467 1.350 . S
C465 H491 0.931 . S
N466 Co462 2.148 . S
N466 C463 1.301 . S
N466 C464 1.317 . S
N467 C463 1.328 . S
N467 C465 1.350 . S
H468 C463 0.930 . S
H469 C464 0.930 . S
C470 O471 1.224 . S
C470 O489 1.247 . S
O471 C470 1.224 . S
N472 Co462 2.128 . S
N472 C473 1.355 . S
N472 C475 1.311 . S
C473 N472 1.355 . S
C473 C474 1.363 . S
C473 H485 0.929 . S
C474 C473 1.363 . S
C474 N476 1.375 . S
C474 H492 0.931 . S
C475 N472 1.311 . S
C475 N476 1.347 . S
C475 H486 0.929 . S
N476 C474 1.375 . S
N476 C475 1.347 . S
C477 C480 1.365 . S
C477 N482 1.328 . S
C477 H483 0.929 . S
C478 C479 1.362 . S
C478 C481 1.378 . S
C478 H493 0.929 . S
C479 C478 1.362 . S
C479 C480 1.366 . S
C480 C477 1.365 . S
C480 C479 1.366 . S
C480 H494 0.930 . S
C481 C478 1.378 . S
C481 N482 1.315 . S
C481 H484 0.930 . S
N482 Co462 2.194 . S
N482 C477 1.328 . S
N482 C481 1.315 . S
H483 C477 0.929 . S
H484 C481 0.930 . S
H485 C473 0.929 . S
H486 C475 0.929 . S
O487 Co462 2.351 . S
O487 C490 1.244 . S
O488 Co462 2.155 . S
O488 C490 1.240 . S
O489 Co462 2.096 . S
O489 C470 1.247 . S
C490 O487 1.244 . S
C490 O488 1.240 . S
H491 C465 0.931 . S
H492 C474 0.931 . S
H493 C478 0.929 . S
H494 C480 0.930 . S
Co495 N499 2.148 . S
Co495 N505 2.128 . S
Co495 N515 2.194 . S
Co495 O520 2.351 . S
Co495 O521 2.155 . S
Co495 O522 2.096 . S
C496 N499 1.301 . S
C496 N500 1.328 . S
C496 H501 0.930 . S
C497 C498 1.333 . S
C497 N499 1.317 . S
C497 H502 0.930 . S
C498 C497 1.333 . S
C498 N500 1.350 . S
C498 H524 0.931 . S
N499 Co495 2.148 . S
N499 C496 1.301 . S
N499 C497 1.317 . S
N500 C496 1.328 . S
N500 C498 1.350 . S
H501 C496 0.930 . S
H502 C497 0.930 . S
C503 O504 1.224 . S
C503 O522 1.247 . S
O504 C503 1.224 . S
N505 Co495 2.128 . S
N505 C506 1.355 . S
N505 C508 1.311 . S
C506 N505 1.355 . S
C506 C507 1.363 . S
C506 H518 0.929 . S
C507 C506 1.363 . S
C507 N509 1.375 . S
C507 H525 0.931 . S
C508 N505 1.311 . S
C508 N509 1.347 . S
C508 H519 0.929 . S
N509 C507 1.375 . S
N509 C508 1.347 . S
C510 C513 1.365 . S
C510 N515 1.328 . S
C510 H516 0.929 . S
C511 C512 1.362 1_554 S
C511 C514 1.378 . S
C511 H526 0.929 . S
C512 C511 1.362 1_556 S
C512 C513 1.366 1_556 S
C513 C510 1.365 . S
C513 C512 1.366 1_554 S
C513 H527 0.930 1_554 S
C514 C511 1.378 . S
C514 N515 1.315 . S
C514 H517 0.930 . S
N515 Co495 2.194 . S
N515 C510 1.328 . S
N515 C514 1.315 . S
H516 C510 0.929 . S
H517 C514 0.930 . S
H518 C506 0.929 . S
H519 C508 0.929 . S
O520 Co495 2.351 . S
O520 C523 1.244 . S
O521 Co495 2.155 . S
O521 C523 1.240 . S
O522 Co495 2.096 . S
O522 C503 1.247 . S
C523 O520 1.244 . S
C523 O521 1.240 . S
H524 C498 0.931 . S
H525 C507 0.931 . S
H526 C511 0.929 . S
H527 C513 0.930 1_556 S
H528 C534 0.930 . S
H529 C537 0.930 . S
H530 C538 0.930 . S
H531 C539 0.930 . S
H532 C542 0.930 . S
H533 C543 0.930 . S
C534 H528 0.930 . S
C534 C535 1.355 . S
C534 C536 1.415 . S
C535 C534 1.355 . S
C535 C537 1.419 . S
C536 C534 1.415 . S
C536 C541 1.425 . S
C536 C543 1.409 . S
C537 H529 0.930 . S
C537 C535 1.419 . S
C537 C538 1.362 . S
C538 H530 0.930 . S
C538 C537 1.362 . S
C538 C541 1.409 . S
C539 H531 0.930 . S
C539 C540 1.355 . S
C539 C541 1.415 . S
C540 C539 1.355 . S
C540 C542 1.419 . S
C541 C536 1.425 . S
C541 C538 1.409 . S
C541 C539 1.415 . S
C542 H532 0.930 . S
C542 C540 1.419 . S
C542 C543 1.362 . S
C543 H533 0.930 . S
C543 C536 1.409 . S
C543 C542 1.362 . S
H544 C550 0.930 . S
H545 C553 0.930 . S
H546 C554 0.930 . S
H547 C555 0.930 . S
H548 C558 0.930 . S
H549 C559 0.930 . S
C550 H544 0.930 . S
C550 C551 1.355 . S
C550 C552 1.415 . S
C551 C550 1.355 . S
C551 C553 1.419 . S
C552 C550 1.415 . S
C552 C557 1.425 . S
C552 C559 1.409 . S
C553 H545 0.930 . S
C553 C551 1.419 . S
C553 C554 1.362 . S
C554 H546 0.930 . S
C554 C553 1.362 . S
C554 C557 1.409 . S
C555 H547 0.930 . S
C555 C556 1.355 . S
C555 C557 1.415 . S
C556 C555 1.355 . S
C556 C558 1.419 . S
C557 C552 1.425 . S
C557 C554 1.409 . S
C557 C555 1.415 . S
C558 H548 0.930 . S
C558 C556 1.419 . S
C558 C559 1.362 . S
C559 H549 0.930 . S
C559 C552 1.409 . S
C559 C558 1.362 . S
H560 C566 0.930 . S
H561 C569 0.930 . S
H562 C570 0.930 . S
H563 C571 0.930 . S
H564 C574 0.930 . S
H565 C575 0.930 . S
C566 H560 0.930 . S
C566 C567 1.355 . S
C566 C568 1.415 . S
C567 C566 1.355 . S
C567 C569 1.419 . S
C568 C566 1.415 . S
C568 C573 1.425 . S
C568 C575 1.409 . S
C569 H561 0.930 . S
C569 C567 1.419 . S
C569 C570 1.362 . S
C570 H562 0.930 . S
C570 C569 1.362 . S
C570 C573 1.409 . S
C571 H563 0.930 . S
C571 C572 1.355 . S
C571 C573 1.415 . S
C572 C571 1.355 . S
C572 C574 1.419 . S
C573 C568 1.425 . S
C573 C570 1.409 . S
C573 C571 1.415 . S
C574 H564 0.930 . S
C574 C572 1.419 . S
C574 C575 1.362 . S
C575 H565 0.930 . S
C575 C568 1.409 . S
C575 C574 1.362 . S
H576 C582 0.930 . S
H577 C585 0.930 . S
H578 C586 0.930 . S
H579 C587 0.930 . S
H580 C590 0.930 . S
H581 C591 0.930 . S
C582 H576 0.930 . S
C582 C583 1.355 . S
C582 C584 1.415 . S
C583 C582 1.355 . S
C583 C585 1.419 . S
C584 C582 1.415 . S
C584 C589 1.425 . S
C584 C591 1.409 . S
C585 H577 0.930 . S
C585 C583 1.419 . S
C585 C586 1.362 . S
C586 H578 0.930 . S
C586 C585 1.362 . S
C586 C589 1.409 . S
C587 H579 0.930 . S
C587 C588 1.355 . S
C587 C589 1.415 . S
C588 C587 1.355 . S
C588 C590 1.419 . S
C589 C584 1.425 . S
C589 C586 1.409 . S
C589 C587 1.415 . S
C590 H580 0.930 . S
C590 C588 1.419 . S
C590 C591 1.362 . S
C591 H581 0.930 . S
C591 C584 1.409 . S
C591 C590 1.362 . S
H592 C598 0.930 . S
H593 C601 0.930 . S
H594 C602 0.930 . S
H595 C603 0.930 . S
H596 C606 0.930 . S
H597 C607 0.930 . S
C598 H592 0.930 . S
C598 C599 1.355 . S
C598 C600 1.415 . S
C599 C598 1.355 . S
C599 C601 1.419 . S
C600 C598 1.415 . S
C600 C605 1.425 . S
C600 C607 1.409 . S
C601 H593 0.930 . S
C601 C599 1.419 . S
C601 C602 1.362 . S
C602 H594 0.930 . S
C602 C601 1.362 . S
C602 C605 1.409 . S
C603 H595 0.930 . S
C603 C604 1.355 . S
C603 C605 1.415 . S
C604 C603 1.355 . S
C604 C606 1.419 . S
C605 C600 1.425 . S
C605 C602 1.409 . S
C605 C603 1.415 . S
C606 H596 0.930 . S
C606 C604 1.419 . S
C606 C607 1.362 . S
C607 H597 0.930 . S
C607 C600 1.409 . S
C607 C606 1.362 . S
H608 C614 0.930 . S
H609 C617 0.930 . S
H610 C618 0.930 . S
H611 C619 0.930 . S
H612 C622 0.930 . S
H613 C623 0.930 . S
C614 H608 0.930 . S
C614 C615 1.355 . S
C614 C616 1.415 . S
C615 C614 1.355 . S
C615 C617 1.419 . S
C616 C614 1.415 . S
C616 C621 1.425 . S
C616 C623 1.409 . S
C617 H609 0.930 . S
C617 C615 1.419 . S
C617 C618 1.362 . S
C618 H610 0.930 . S
C618 C617 1.362 . S
C618 C621 1.409 . S
C619 H611 0.930 . S
C619 C620 1.355 . S
C619 C621 1.415 . S
C620 C619 1.355 . S
C620 C622 1.419 . S
C621 C616 1.425 . S
C621 C618 1.409 . S
C621 C619 1.415 . S
C622 H612 0.930 . S
C622 C620 1.419 . S
C622 C623 1.362 . S
C623 H613 0.930 . S
C623 C616 1.409 . S
C623 C622 1.362 . S
H624 C630 0.930 . S
H625 C633 0.930 . S
H626 C634 0.930 . S
H627 C635 0.930 . S
H628 C638 0.930 . S
H629 C639 0.930 . S
C630 H624 0.930 . S
C630 C631 1.355 . S
C630 C632 1.415 . S
C631 C630 1.355 . S
C631 C633 1.419 . S
C632 C630 1.415 . S
C632 C637 1.425 . S
C632 C639 1.409 . S
C633 H625 0.930 . S
C633 C631 1.419 . S
C633 C634 1.362 . S
C634 H626 0.930 . S
C634 C633 1.362 . S
C634 C637 1.409 . S
C635 H627 0.930 . S
C635 C636 1.355 . S
C635 C637 1.415 . S
C636 C635 1.355 . S
C636 C638 1.419 . S
C637 C632 1.425 . S
C637 C634 1.409 . S
C637 C635 1.415 . S
C638 H628 0.930 . S
C638 C636 1.419 . S
C638 C639 1.362 . S
C639 H629 0.930 . S
C639 C632 1.409 . S
C639 C638 1.362 . S
H640 C646 0.930 . S
H641 C649 0.930 . S
H642 C650 0.930 . S
H643 C651 0.930 . S
H644 C654 0.930 . S
H645 C655 0.930 . S
C646 H640 0.930 . S
C646 C647 1.355 . S
C646 C648 1.415 . S
C647 C646 1.355 . S
C647 C649 1.419 . S
C648 C646 1.415 . S
C648 C653 1.425 . S
C648 C655 1.409 . S
C649 H641 0.930 . S
C649 C647 1.419 . S
C649 C650 1.362 . S
C650 H642 0.930 . S
C650 C649 1.362 . S
C650 C653 1.409 . S
C651 H643 0.930 . S
C651 C652 1.355 . S
C651 C653 1.415 . S
C652 C651 1.355 . S
C652 C654 1.419 . S
C653 C648 1.425 . S
C653 C650 1.409 . S
C653 C651 1.415 . S
C654 H644 0.930 . S
C654 C652 1.419 . S
C654 C655 1.362 . S
C655 H645 0.930 . S
C655 C648 1.409 . S
C655 C654 1.362 . S
H656 C662 0.930 . S
H657 C665 0.930 . S
H658 C666 0.930 . S
H659 C667 0.930 . S
H660 C670 0.930 . S
H661 C671 0.930 . S
C662 H656 0.930 . S
C662 C663 1.355 . S
C662 C664 1.415 . S
C663 C662 1.355 . S
C663 C665 1.419 . S
C664 C662 1.415 . S
C664 C669 1.425 . S
C664 C671 1.409 . S
C665 H657 0.930 . S
C665 C663 1.419 . S
C665 C666 1.362 . S
C666 H658 0.930 . S
C666 C665 1.362 . S
C666 C669 1.409 . S
C667 H659 0.930 . S
C667 C668 1.355 . S
C667 C669 1.415 . S
C668 C667 1.355 . S
C668 C670 1.419 . S
C669 C664 1.425 . S
C669 C666 1.409 . S
C669 C667 1.415 . S
C670 H660 0.930 . S
C670 C668 1.419 . S
C670 C671 1.362 . S
C671 H661 0.930 . S
C671 C664 1.409 . S
C671 C670 1.362 . S
H672 C678 0.930 . S
H673 C681 0.930 . S
H674 C682 0.930 . S
H675 C683 0.930 . S
H676 C686 0.930 . S
H677 C687 0.930 . S
C678 H672 0.930 . S
C678 C679 1.355 . S
C678 C680 1.415 . S
C679 C678 1.355 . S
C679 C681 1.419 . S
C680 C678 1.415 . S
C680 C685 1.425 . S
C680 C687 1.409 . S
C681 H673 0.930 . S
C681 C679 1.419 . S
C681 C682 1.362 . S
C682 H674 0.930 . S
C682 C681 1.362 . S
C682 C685 1.409 . S
C683 H675 0.930 . S
C683 C684 1.355 . S
C683 C685 1.415 . S
C684 C683 1.355 . S
C684 C686 1.419 . S
C685 C680 1.425 . S
C685 C682 1.409 . S
C685 C683 1.415 . S
C686 H676 0.930 . S
C686 C684 1.419 . S
C686 C687 1.362 . S
C687 H677 0.930 . S
C687 C680 1.409 . S
C687 C686 1.362 . S
H688 C694 0.930 . S
H689 C697 0.930 . S
H690 C698 0.930 . S
H691 C699 0.930 . S
H692 C702 0.930 . S
H693 C703 0.930 . S
C694 H688 0.930 . S
C694 C695 1.355 . S
C694 C696 1.415 . S
C695 C694 1.355 . S
C695 C697 1.419 . S
C696 C694 1.415 . S
C696 C701 1.425 . S
C696 C703 1.409 . S
C697 H689 0.930 . S
C697 C695 1.419 . S
C697 C698 1.362 . S
C698 H690 0.930 . S
C698 C697 1.362 . S
C698 C701 1.409 . S
C699 H691 0.930 . S
C699 C700 1.355 . S
C699 C701 1.415 . S
C700 C699 1.355 . S
C700 C702 1.419 . S
C701 C696 1.425 . S
C701 C698 1.409 . S
C701 C699 1.415 . S
C702 H692 0.930 . S
C702 C700 1.419 . S
C702 C703 1.362 . S
C703 H693 0.930 . S
C703 C696 1.409 . S
C703 C702 1.362 . S
H704 C710 0.930 . S
H705 C713 0.930 . S
H706 C714 0.930 . S
H707 C715 0.930 . S
H708 C718 0.930 . S
H709 C719 0.930 . S
C710 H704 0.930 . S
C710 C711 1.355 . S
C710 C712 1.415 . S
C711 C710 1.355 . S
C711 C713 1.419 . S
C712 C710 1.415 . S
C712 C717 1.425 . S
C712 C719 1.409 . S
C713 H705 0.930 . S
C713 C711 1.419 . S
C713 C714 1.362 . S
C714 H706 0.930 . S
C714 C713 1.362 . S
C714 C717 1.409 . S
C715 H707 0.930 . S
C715 C716 1.355 . S
C715 C717 1.415 . S
C716 C715 1.355 . S
C716 C718 1.419 . S
C717 C712 1.425 . S
C717 C714 1.409 . S
C717 C715 1.415 . S
C718 H708 0.930 . S
C718 C716 1.419 . S
C718 C719 1.362 . S
C719 H709 0.930 . S
C719 C712 1.409 . S
C719 C718 1.362 . S
H720 C726 0.930 . S
H721 C729 0.930 . S
H722 C730 0.930 . S
H723 C731 0.930 . S
H724 C734 0.930 . S
H725 C735 0.930 . S
C726 H720 0.930 . S
C726 C727 1.355 . S
C726 C728 1.415 . S
C727 C726 1.355 . S
C727 C729 1.419 . S
C728 C726 1.415 . S
C728 C733 1.425 . S
C728 C735 1.409 . S
C729 H721 0.930 . S
C729 C727 1.419 . S
C729 C730 1.362 . S
C730 H722 0.930 . S
C730 C729 1.362 . S
C730 C733 1.409 . S
C731 H723 0.930 . S
C731 C732 1.355 . S
C731 C733 1.415 . S
C732 C731 1.355 . S
C732 C734 1.419 . S
C733 C728 1.425 . S
C733 C730 1.409 . S
C733 C731 1.415 . S
C734 H724 0.930 . S
C734 C732 1.419 . S
C734 C735 1.362 . S
C735 H725 0.930 . S
C735 C728 1.409 . S
C735 C734 1.362 . S
H736 C742 0.930 . S
H737 C745 0.930 . S
H738 C746 0.930 . S
H739 C747 0.930 . S
H740 C750 0.930 . S
H741 C751 0.930 . S
C742 H736 0.930 . S
C742 C743 1.355 . S
C742 C744 1.415 . S
C743 C742 1.355 . S
C743 C745 1.419 . S
C744 C742 1.415 . S
C744 C749 1.425 . S
C744 C751 1.409 . S
C745 H737 0.930 . S
C745 C743 1.419 . S
C745 C746 1.362 . S
C746 H738 0.930 . S
C746 C745 1.362 . S
C746 C749 1.409 . S
C747 H739 0.930 . S
C747 C748 1.355 . S
C747 C749 1.415 . S
C748 C747 1.355 . S
C748 C750 1.419 . S
C749 C744 1.425 . S
C749 C746 1.409 . S
C749 C747 1.415 . S
C750 H740 0.930 . S
C750 C748 1.419 . S
C750 C751 1.362 . S
C751 H741 0.930 . S
C751 C744 1.409 . S
C751 C750 1.362 . S
H752 C758 0.930 . S
H753 C761 0.930 . S
H754 C762 0.930 . S
H755 C763 0.930 . S
H756 C766 0.930 . S
H757 C767 0.930 . S
C758 H752 0.930 . S
C758 C759 1.355 . S
C758 C760 1.415 . S
C759 C758 1.355 . S
C759 C761 1.419 . S
C760 C758 1.415 . S
C760 C765 1.425 . S
C760 C767 1.409 . S
C761 H753 0.930 . S
C761 C759 1.419 . S
C761 C762 1.362 . S
C762 H754 0.930 . S
C762 C761 1.362 . S
C762 C765 1.409 . S
C763 H755 0.930 . S
C763 C764 1.355 . S
C763 C765 1.415 . S
C764 C763 1.355 . S
C764 C766 1.419 . S
C765 C760 1.425 . S
C765 C762 1.409 . S
C765 C763 1.415 . S
C766 H756 0.930 . S
C766 C764 1.419 . S
C766 C767 1.362 . S
C767 H757 0.930 . S
C767 C760 1.409 . S
C767 C766 1.362 . S
H768 C774 0.930 . S
H769 C777 0.930 . S
H770 C778 0.930 . S
H771 C779 0.930 . S
H772 C782 0.930 . S
H773 C783 0.930 . S
C774 H768 0.930 . S
C774 C775 1.355 . S
C774 C776 1.415 . S
C775 C774 1.355 . S
C775 C777 1.419 . S
C776 C774 1.415 . S
C776 C781 1.425 . S
C776 C783 1.409 . S
C777 H769 0.930 . S
C777 C775 1.419 . S
C777 C778 1.362 . S
C778 H770 0.930 . S
C778 C777 1.362 . S
C778 C781 1.409 . S
C779 H771 0.930 . S
C779 C780 1.355 . S
C779 C781 1.415 . S
C780 C779 1.355 . S
C780 C782 1.419 . S
C781 C776 1.425 . S
C781 C778 1.409 . S
C781 C779 1.415 . S
C782 H772 0.930 . S
C782 C780 1.419 . S
C782 C783 1.362 . S
C783 H773 0.930 . S
C783 C776 1.409 . S
C783 C782 1.362 . S
H784 C790 0.930 . S
H785 C793 0.930 . S
H786 C794 0.930 . S
H787 C795 0.930 . S
H788 C798 0.930 . S
H789 C799 0.930 . S
C790 H784 0.930 . S
C790 C791 1.355 . S
C790 C792 1.415 . S
C791 C790 1.355 . S
C791 C793 1.419 . S
C792 C790 1.415 . S
C792 C797 1.425 . S
C792 C799 1.409 . S
C793 H785 0.930 . S
C793 C791 1.419 . S
C793 C794 1.362 . S
C794 H786 0.930 . S
C794 C793 1.362 . S
C794 C797 1.409 . S
C795 H787 0.930 . S
C795 C796 1.355 . S
C795 C797 1.415 . S
C796 C795 1.355 . S
C796 C798 1.419 . S
C797 C792 1.425 . S
C797 C794 1.409 . S
C797 C795 1.415 . S
C798 H788 0.930 . S
C798 C796 1.419 . S
C798 C799 1.362 . S
C799 H789 0.930 . S
C799 C792 1.409 . S
C799 C798 1.362 . S
H800 C806 0.930 . S
H801 C809 0.930 . S
H802 C810 0.930 . S
H803 C811 0.930 . S
H804 C814 0.930 . S
H805 C815 0.930 . S
C806 H800 0.930 . S
C806 C807 1.355 . S
C806 C808 1.415 . S
C807 C806 1.355 . S
C807 C809 1.419 . S
C808 C806 1.415 . S
C808 C813 1.425 . S
C808 C815 1.409 . S
C809 H801 0.930 . S
C809 C807 1.419 . S
C809 C810 1.362 . S
C810 H802 0.930 . S
C810 C809 1.362 . S
C810 C813 1.409 . S
C811 H803 0.930 . S
C811 C812 1.355 . S
C811 C813 1.415 . S
C812 C811 1.355 . S
C812 C814 1.419 . S
C813 C808 1.425 . S
C813 C810 1.409 . S
C813 C811 1.415 . S
C814 H804 0.930 . S
C814 C812 1.419 . S
C814 C815 1.362 . S
C815 H805 0.930 . S
C815 C808 1.409 . S
C815 C814 1.362 . S
H816 C822 0.930 . S
H817 C825 0.930 . S
H818 C826 0.930 . S
H819 C827 0.930 . S
H820 C830 0.930 . S
H821 C831 0.930 . S
C822 H816 0.930 . S
C822 C823 1.355 . S
C822 C824 1.415 . S
C823 C822 1.355 . S
C823 C825 1.419 . S
C824 C822 1.415 . S
C824 C829 1.425 . S
C824 C831 1.409 . S
C825 H817 0.930 . S
C825 C823 1.419 . S
C825 C826 1.362 . S
C826 H818 0.930 . S
C826 C825 1.362 . S
C826 C829 1.409 . S
C827 H819 0.930 . S
C827 C828 1.355 . S
C827 C829 1.415 . S
C828 C827 1.355 . S
C828 C830 1.419 . S
C829 C824 1.425 . S
C829 C826 1.409 . S
C829 C827 1.415 . S
C830 H820 0.930 . S
C830 C828 1.419 . S
C830 C831 1.362 . S
C831 H821 0.930 . S
C831 C824 1.409 . S
C831 C830 1.362 . S
H832 C838 0.930 . S
H833 C841 0.930 . S
H834 C842 0.930 . S
H835 C843 0.930 . S
H836 C846 0.930 . S
H837 C847 0.930 . S
C838 H832 0.930 . S
C838 C839 1.355 . S
C838 C840 1.415 . S
C839 C838 1.355 . S
C839 C841 1.419 . S
C840 C838 1.415 . S
C840 C845 1.425 . S
C840 C847 1.409 . S
C841 H833 0.930 . S
C841 C839 1.419 . S
C841 C842 1.362 . S
C842 H834 0.930 . S
C842 C841 1.362 . S
C842 C845 1.409 . S
C843 H835 0.930 . S
C843 C844 1.355 . S
C843 C845 1.415 . S
C844 C843 1.355 . S
C844 C846 1.419 . S
C845 C840 1.425 . S
C845 C842 1.409 . S
C845 C843 1.415 . S
C846 H836 0.930 . S
C846 C844 1.419 . S
C846 C847 1.362 . S
C847 H837 0.930 . S
C847 C840 1.409 . S
C847 C846 1.362 . S
H848 C854 0.930 . S
H849 C857 0.930 . S
H850 C858 0.930 . S
H851 C859 0.930 . S
H852 C862 0.930 . S
H853 C863 0.930 . S
C854 H848 0.930 . S
C854 C855 1.355 . S
C854 C856 1.415 . S
C855 C854 1.355 . S
C855 C857 1.419 . S
C856 C854 1.415 . S
C856 C861 1.425 . S
C856 C863 1.409 . S
C857 H849 0.930 . S
C857 C855 1.419 . S
C857 C858 1.362 . S
C858 H850 0.930 . S
C858 C857 1.362 . S
C858 C861 1.409 . S
C859 H851 0.930 . S
C859 C860 1.355 . S
C859 C861 1.415 . S
C860 C859 1.355 . S
C860 C862 1.419 . S
C861 C856 1.425 . S
C861 C858 1.409 . S
C861 C859 1.415 . S
C862 H852 0.930 . S
C862 C860 1.419 . S
C862 C863 1.362 . S
C863 H853 0.930 . S
C863 C856 1.409 . S
C863 C862 1.362 . S
H864 C870 0.930 . S
H865 C873 0.930 . S
H866 C874 0.930 . S
H867 C875 0.930 . S
H868 C878 0.930 . S
H869 C879 0.930 . S
C870 H864 0.930 . S
C870 C871 1.355 . S
C870 C872 1.415 . S
C871 C870 1.355 . S
C871 C873 1.419 . S
C872 C870 1.415 . S
C872 C877 1.425 . S
C872 C879 1.409 . S
C873 H865 0.930 . S
C873 C871 1.419 . S
C873 C874 1.362 . S
C874 H866 0.930 . S
C874 C873 1.362 . S
C874 C877 1.409 . S
C875 H867 0.930 . S
C875 C876 1.355 . S
C875 C877 1.415 . S
C876 C875 1.355 . S
C876 C878 1.419 . S
C877 C872 1.425 . S
C877 C874 1.409 . S
C877 C875 1.415 . S
C878 H868 0.930 . S
C878 C876 1.419 . S
C878 C879 1.362 . S
C879 H869 0.930 . S
C879 C872 1.409 . S
C879 C878 1.362 . S
H880 C886 0.930 . S
H881 C889 0.930 . S
H882 C890 0.930 . S
H883 C891 0.930 . S
H884 C894 0.930 . S
H885 C895 0.930 . S
C886 H880 0.930 . S
C886 C887 1.355 . S
C886 C888 1.415 . S
C887 C886 1.355 . S
C887 C889 1.419 . S
C888 C886 1.415 . S
C888 C893 1.425 . S
C888 C895 1.409 . S
C889 H881 0.930 . S
C889 C887 1.419 . S
C889 C890 1.362 . S
C890 H882 0.930 . S
C890 C889 1.362 . S
C890 C893 1.409 . S
C891 H883 0.930 . S
C891 C892 1.355 . S
C891 C893 1.415 . S
C892 C891 1.355 . S
C892 C894 1.419 . S
C893 C888 1.425 . S
C893 C890 1.409 . S
C893 C891 1.415 . S
C894 H884 0.930 . S
C894 C892 1.419 . S
C894 C895 1.362 . S
C895 H885 0.930 . S
C895 C888 1.409 . S
C895 C894 1.362 . S
H896 C902 0.930 . S
H897 C905 0.930 . S
H898 C906 0.930 . S
H899 C907 0.930 . S
H900 C910 0.930 . S
H901 C911 0.930 . S
C902 H896 0.930 . S
C902 C903 1.355 . S
C902 C904 1.415 . S
C903 C902 1.355 . S
C903 C905 1.419 . S
C904 C902 1.415 . S
C904 C909 1.425 . S
C904 C911 1.409 . S
C905 H897 0.930 . S
C905 C903 1.419 . S
C905 C906 1.362 . S
C906 H898 0.930 . S
C906 C905 1.362 . S
C906 C909 1.409 . S
C907 H899 0.930 . S
C907 C908 1.355 . S
C907 C909 1.415 . S
C908 C907 1.355 . S
C908 C910 1.419 . S
C909 C904 1.425 . S
C909 C906 1.409 . S
C909 C907 1.415 . S
C910 H900 0.930 . S
C910 C908 1.419 . S
C910 C911 1.362 . S
C911 H901 0.930 . S
C911 C904 1.409 . S
C911 C910 1.362 . S
H912 C918 0.930 . S
H913 C921 0.930 . S
H914 C922 0.930 . S
H915 C923 0.930 . S
H916 C926 0.930 . S
H917 C927 0.930 . S
C918 H912 0.930 . S
C918 C919 1.355 . S
C918 C920 1.415 . S
C919 C918 1.355 . S
C919 C921 1.419 . S
C920 C918 1.415 . S
C920 C925 1.425 . S
C920 C927 1.409 . S
C921 H913 0.930 . S
C921 C919 1.419 . S
C921 C922 1.362 . S
C922 H914 0.930 . S
C922 C921 1.362 . S
C922 C925 1.409 . S
C923 H915 0.930 . S
C923 C924 1.355 . S
C923 C925 1.415 . S
C924 C923 1.355 . S
C924 C926 1.419 . S
C925 C920 1.425 . S
C925 C922 1.409 . S
C925 C923 1.415 . S
C926 H916 0.930 . S
C926 C924 1.419 . S
C926 C927 1.362 . S
C927 H917 0.930 . S
C927 C920 1.409 . S
C927 C926 1.362 . S
H928 C934 0.930 . S
H929 C937 0.930 . S
H930 C938 0.930 . S
H931 C939 0.930 . S
H932 C942 0.930 . S
H933 C943 0.930 . S
C934 H928 0.930 . S
C934 C935 1.355 . S
C934 C936 1.415 1_565 S
C935 C934 1.355 . S
C935 C937 1.419 . S
C936 C934 1.415 1_545 S
C936 C941 1.425 1_645 S
C936 C943 1.409 . S
C937 H929 0.930 . S
C937 C935 1.419 . S
C937 C938 1.362 1_655 S
C938 H930 0.930 . S
C938 C937 1.362 1_455 S
C938 C941 1.409 . S
C939 H931 0.930 . S
C939 C940 1.355 . S
C939 C941 1.415 1_545 S
C940 C939 1.355 . S
C940 C942 1.419 . S
C941 C936 1.425 1_465 S
C941 C938 1.409 . S
C941 C939 1.415 1_565 S
C942 H932 0.930 . S
C942 C940 1.419 . S
C942 C943 1.362 1_455 S
C943 H933 0.930 . S
C943 C936 1.409 . S
C943 C942 1.362 1_655 S
H944 C950 0.930 . S
H945 C953 0.930 . S
H946 C954 0.930 1_545 S
H947 C955 0.930 . S
H948 C958 0.930 . S
H949 C959 0.930 1_565 S
C950 H944 0.930 . S
C950 C951 1.355 . S
C950 C952 1.415 . S
C951 C950 1.355 . S
C951 C953 1.419 . S
C952 C950 1.415 . S
C952 C957 1.425 1_565 S
C952 C959 1.409 1_565 S
C953 H945 0.930 . S
C953 C951 1.419 . S
C953 C954 1.362 . S
C954 H946 0.930 1_565 S
C954 C953 1.362 . S
C954 C957 1.409 1_565 S
C955 H947 0.930 . S
C955 C956 1.355 . S
C955 C957 1.415 . S
C956 C955 1.355 . S
C956 C958 1.419 . S
C957 C952 1.425 1_545 S
C957 C954 1.409 1_545 S
C957 C955 1.415 . S
C958 H948 0.930 . S
C958 C956 1.419 . S
C958 C959 1.362 . S
C959 H949 0.930 1_545 S
C959 C952 1.409 1_545 S
C959 C958 1.362 . S
H960 C966 0.930 . S
H961 C969 0.930 . S
H962 C970 0.930 . S
H963 C971 0.930 . S
H964 C974 0.930 . S
H965 C975 0.930 . S
C966 H960 0.930 . S
C966 C967 1.355 . S
C966 C968 1.415 1_655 S
C967 C966 1.355 . S
C967 C969 1.419 . S
C968 C966 1.415 1_455 S
C968 C973 1.425 1_455 S
C968 C975 1.409 . S
C969 H961 0.930 . S
C969 C967 1.419 . S
C969 C970 1.362 . S
C970 H962 0.930 . S
C970 C969 1.362 . S
C970 C973 1.409 . S
C971 H963 0.930 . S
C971 C972 1.355 . S
C971 C973 1.415 1_455 S
C972 C971 1.355 . S
C972 C974 1.419 . S
C973 C968 1.425 1_655 S
C973 C970 1.409 . S
C973 C971 1.415 1_655 S
C974 H964 0.930 . S
C974 C972 1.419 . S
C974 C975 1.362 . S
C975 H965 0.930 . S
C975 C968 1.409 . S
C975 C974 1.362 . S
H976 C982 0.930 . S
H977 C985 0.930 . S
H978 C986 0.930 . S
H979 C987 0.930 . S
H980 C990 0.930 . S
H981 C991 0.930 . S
C982 H976 0.930 . S
C982 C983 1.355 . S
C982 C984 1.415 . S
C983 C982 1.355 . S
C983 C985 1.419 . S
C984 C982 1.415 . S
C984 C989 1.425 . S
C984 C991 1.409 . S
C985 H977 0.930 . S
C985 C983 1.419 . S
C985 C986 1.362 . S
C986 H978 0.930 . S
C986 C985 1.362 . S
C986 C989 1.409 . S
C987 H979 0.930 . S
C987 C988 1.355 . S
C987 C989 1.415 . S
C988 C987 1.355 . S
C988 C990 1.419 . S
C989 C984 1.425 . S
C989 C986 1.409 . S
C989 C987 1.415 . S
C990 H980 0.930 . S
C990 C988 1.419 . S
C990 C991 1.362 . S
C991 H981 0.930 . S
C991 C984 1.409 . S
C991 C990 1.362 . S
H992 C998 0.930 1_565 S
H993 C1001 0.930 . S
H994 C1002 0.930 . S
H995 C1003 0.930 1_545 S
H996 C1006 0.930 . S
H997 C1007 0.930 . S
C998 H992 0.930 1_545 S
C998 C999 1.355 . S
C998 C1000 1.415 1_545 S
C999 C998 1.355 . S
C999 C1001 1.419 . S
C1000 C998 1.415 1_565 S
C1000 C1005 1.425 1_565 S
C1000 C1007 1.409 . S
C1001 H993 0.930 . S
C1001 C999 1.419 . S
C1001 C1002 1.362 . S
C1002 H994 0.930 . S
C1002 C1001 1.362 . S
C1002 C1005 1.409 . S
C1003 H995 0.930 1_565 S
C1003 C1004 1.355 . S
C1003 C1005 1.415 1_565 S
C1004 C1003 1.355 . S
C1004 C1006 1.419 . S
C1005 C1000 1.425 1_545 S
C1005 C1002 1.409 . S
C1005 C1003 1.415 1_545 S
C1006 H996 0.930 . S
C1006 C1004 1.419 . S
C1006 C1007 1.362 . S
C1007 H997 0.930 . S
C1007 C1000 1.409 . S
C1007 C1006 1.362 . S
H1008 C1014 0.930 . S
H1009 C1017 0.930 . S
H1010 C1018 0.930 . S
H1011 C1019 0.930 . S
H1012 C1022 0.930 . S
H1013 C1023 0.930 . S
C1014 H1008 0.930 . S
C1014 C1015 1.355 . S
C1014 C1016 1.415 1_655 S
C1015 C1014 1.355 . S
C1015 C1017 1.419 . S
C1016 C1014 1.415 1_455 S
C1016 C1021 1.425 1_455 S
C1016 C1023 1.409 . S
C1017 H1009 0.930 . S
C1017 C1015 1.419 . S
C1017 C1018 1.362 . S
C1018 H1010 0.930 . S
C1018 C1017 1.362 . S
C1018 C1021 1.409 . S
C1019 H1011 0.930 . S
C1019 C1020 1.355 . S
C1019 C1021 1.415 1_455 S
C1020 C1019 1.355 . S
C1020 C1022 1.419 . S
C1021 C1016 1.425 1_655 S
C1021 C1018 1.409 . S
C1021 C1019 1.415 1_655 S
C1022 H1012 0.930 . S
C1022 C1020 1.419 . S
C1022 C1023 1.362 . S
C1023 H1013 0.930 . S
C1023 C1016 1.409 . S
C1023 C1022 1.362 . S
H1024 C1030 0.930 . S
H1025 C1033 0.930 . S
H1026 C1034 0.930 . S
H1027 C1035 0.930 . S
H1028 C1038 0.930 . S
H1029 C1039 0.930 . S
C1030 H1024 0.930 . S
C1030 C1031 1.355 . S
C1030 C1032 1.415 1_554 S
C1031 C1030 1.355 . S
C1031 C1033 1.419 . S
C1032 C1030 1.415 1_556 S
C1032 C1037 1.425 1_556 S
C1032 C1039 1.409 . S
C1033 H1025 0.930 . S
C1033 C1031 1.419 . S
C1033 C1034 1.362 . S
C1034 H1026 0.930 . S
C1034 C1033 1.362 . S
C1034 C1037 1.409 . S
C1035 H1027 0.930 . S
C1035 C1036 1.355 . S
C1035 C1037 1.415 1_556 S
C1036 C1035 1.355 . S
C1036 C1038 1.419 . S
C1037 C1032 1.425 1_554 S
C1037 C1034 1.409 . S
C1037 C1035 1.415 1_554 S
C1038 H1028 0.930 . S
C1038 C1036 1.419 . S
C1038 C1039 1.362 . S
C1039 H1029 0.930 . S
C1039 C1032 1.409 . S
C1039 C1038 1.362 . S
H1040 C1046 0.930 . S
H1041 C1049 0.930 . S
H1042 C1050 0.930 . S
H1043 C1051 0.930 . S
H1044 C1054 0.930 . S
H1045 C1055 0.930 . S
C1046 H1040 0.930 . S
C1046 C1047 1.355 . S
C1046 C1048 1.415 . S
C1047 C1046 1.355 . S
C1047 C1049 1.419 . S
C1048 C1046 1.415 . S
C1048 C1053 1.425 1_456 S
C1048 C1055 1.409 1_556 S
C1049 H1041 0.930 . S
C1049 C1047 1.419 . S
C1049 C1050 1.362 1_455 S
C1050 H1042 0.930 . S
C1050 C1049 1.362 1_655 S
C1050 C1053 1.409 1_556 S
C1051 H1043 0.930 . S
C1051 C1052 1.355 . S
C1051 C1053 1.415 . S
C1052 C1051 1.355 . S
C1052 C1054 1.419 . S
C1053 C1048 1.425 1_654 S
C1053 C1050 1.409 1_554 S
C1053 C1051 1.415 . S
C1054 H1044 0.930 . S
C1054 C1052 1.419 . S
C1054 C1055 1.362 1_655 S
C1055 H1045 0.930 . S
C1055 C1048 1.409 1_554 S
C1055 C1054 1.362 1_455 S
H1056 C1062 0.930 . S
H1057 C1065 0.930 . S
H1058 C1066 0.930 . S
H1059 C1067 0.930 . S
H1060 C1070 0.930 . S
H1061 C1071 0.930 . S
C1062 H1056 0.930 . S
C1062 C1063 1.355 . S
C1062 C1064 1.415 . S
C1063 C1062 1.355 . S
C1063 C1065 1.419 . S
C1064 C1062 1.415 . S
C1064 C1069 1.425 . S
C1064 C1071 1.409 . S
C1065 H1057 0.930 . S
C1065 C1063 1.419 . S
C1065 C1066 1.362 . S
C1066 H1058 0.930 . S
C1066 C1065 1.362 . S
C1066 C1069 1.409 . S
C1067 H1059 0.930 . S
C1067 C1068 1.355 . S
C1067 C1069 1.415 . S
C1068 C1067 1.355 . S
C1068 C1070 1.419 . S
C1069 C1064 1.425 . S
C1069 C1066 1.409 . S
C1069 C1067 1.415 . S
C1070 H1060 0.930 . S
C1070 C1068 1.419 . S
C1070 C1071 1.362 . S
C1071 H1061 0.930 . S
C1071 C1064 1.409 . S
C1071 C1070 1.362 . S
H1072 C1078 0.930 . S
H1073 C1081 0.930 . S
H1074 C1082 0.930 . S
H1075 C1083 0.930 . S
H1076 C1086 0.930 . S
H1077 C1087 0.930 . S
C1078 H1072 0.930 . S
C1078 C1079 1.355 . S
C1078 C1080 1.415 . S
C1079 C1078 1.355 . S
C1079 C1081 1.419 . S
C1080 C1078 1.415 . S
C1080 C1085 1.425 1_554 S
C1080 C1087 1.409 . S
C1081 H1073 0.930 . S
C1081 C1079 1.419 . S
C1081 C1082 1.362 1_554 S
C1082 H1074 0.930 . S
C1082 C1081 1.362 1_556 S
C1082 C1085 1.409 . S
C1083 H1075 0.930 . S
C1083 C1084 1.355 . S
C1083 C1085 1.415 . S
C1084 C1083 1.355 . S
C1084 C1086 1.419 . S
C1085 C1080 1.425 1_556 S
C1085 C1082 1.409 . S
C1085 C1083 1.415 . S
C1086 H1076 0.930 . S
C1086 C1084 1.419 . S
C1086 C1087 1.362 1_556 S
C1087 H1077 0.930 . S
C1087 C1080 1.409 . S
C1087 C1086 1.362 1_554 S
H1088 C1094 0.930 . S
H1089 C1097 0.930 . S
H1090 C1098 0.930 . S
H1091 C1099 0.930 . S
H1092 C1102 0.930 . S
H1093 C1103 0.930 . S
C1094 H1088 0.930 . S
C1094 C1095 1.355 . S
C1094 C1096 1.415 . S
C1095 C1094 1.355 . S
C1095 C1097 1.419 . S
C1096 C1094 1.415 . S
C1096 C1101 1.425 . S
C1096 C1103 1.409 . S
C1097 H1089 0.930 . S
C1097 C1095 1.419 . S
C1097 C1098 1.362 . S
C1098 H1090 0.930 . S
C1098 C1097 1.362 . S
C1098 C1101 1.409 . S
C1099 H1091 0.930 . S
C1099 C1100 1.355 . S
C1099 C1101 1.415 . S
C1100 C1099 1.355 . S
C1100 C1102 1.419 . S
C1101 C1096 1.425 . S
C1101 C1098 1.409 . S
C1101 C1099 1.415 . S
C1102 H1092 0.930 . S
C1102 C1100 1.419 . S
C1102 C1103 1.362 . S
C1103 H1093 0.930 . S
C1103 C1096 1.409 . S
C1103 C1102 1.362 . S
H1104 C1110 0.930 . S
H1105 C1113 0.930 . S
H1106 C1114 0.930 . S
H1107 C1115 0.930 . S
H1108 C1118 0.930 . S
H1109 C1119 0.930 . S
C1110 H1104 0.930 . S
C1110 C1111 1.355 1_545 S
C1110 C1112 1.415 . S
C1111 C1110 1.355 1_565 S
C1111 C1113 1.419 . S
C1112 C1110 1.415 . S
C1112 C1117 1.425 1_544 S
C1112 C1119 1.409 . S
C1113 H1105 0.930 . S
C1113 C1111 1.419 . S
C1113 C1114 1.362 1_554 S
C1114 H1106 0.930 . S
C1114 C1113 1.362 1_556 S
C1114 C1117 1.409 . S
C1115 H1107 0.930 . S
C1115 C1116 1.355 1_565 S
C1115 C1117 1.415 . S
C1116 C1115 1.355 1_545 S
C1116 C1118 1.419 . S
C1117 C1112 1.425 1_566 S
C1117 C1114 1.409 . S
C1117 C1115 1.415 . S
C1118 H1108 0.930 . S
C1118 C1116 1.419 . S
C1118 C1119 1.362 1_556 S
C1119 H1109 0.930 . S
C1119 C1112 1.409 . S
C1119 C1118 1.362 1_554 S
H1120 C1126 0.930 . S
H1121 C1129 0.930 . S
H1122 C1130 0.930 . S
H1123 C1131 0.930 . S
H1124 C1134 0.930 . S
H1125 C1135 0.930 . S
C1126 H1120 0.930 . S
C1126 C1127 1.355 . S
C1126 C1128 1.415 . S
C1127 C1126 1.355 . S
C1127 C1129 1.419 . S
C1128 C1126 1.415 . S
C1128 C1133 1.425 . S
C1128 C1135 1.409 . S
C1129 H1121 0.930 . S
C1129 C1127 1.419 . S
C1129 C1130 1.362 . S
C1130 H1122 0.930 . S
C1130 C1129 1.362 . S
C1130 C1133 1.409 . S
C1131 H1123 0.930 . S
C1131 C1132 1.355 . S
C1131 C1133 1.415 . S
C1132 C1131 1.355 . S
C1132 C1134 1.419 . S
C1133 C1128 1.425 . S
C1133 C1130 1.409 . S
C1133 C1131 1.415 . S
C1134 H1124 0.930 . S
C1134 C1132 1.419 . S
C1134 C1135 1.362 . S
C1135 H1125 0.930 . S
C1135 C1128 1.409 . S
C1135 C1134 1.362 . S
H1136 C1142 0.930 . S
H1137 C1145 0.930 . S
H1138 C1146 0.930 . S
H1139 C1147 0.930 . S
H1140 C1150 0.930 . S
H1141 C1151 0.930 . S
C1142 H1136 0.930 . S
C1142 C1143 1.355 . S
C1142 C1144 1.415 . S
C1143 C1142 1.355 . S
C1143 C1145 1.419 . S
C1144 C1142 1.415 . S
C1144 C1149 1.425 . S
C1144 C1151 1.409 . S
C1145 H1137 0.930 . S
C1145 C1143 1.419 . S
C1145 C1146 1.362 . S
C1146 H1138 0.930 . S
C1146 C1145 1.362 . S
C1146 C1149 1.409 . S
C1147 H1139 0.930 . S
C1147 C1148 1.355 . S
C1147 C1149 1.415 . S
C1148 C1147 1.355 . S
C1148 C1150 1.419 . S
C1149 C1144 1.425 . S
C1149 C1146 1.409 . S
C1149 C1147 1.415 . S
C1150 H1140 0.930 . S
C1150 C1148 1.419 . S
C1150 C1151 1.362 . S
C1151 H1141 0.930 . S
C1151 C1144 1.409 . S
C1151 C1150 1.362 . S
H1152 C1158 0.930 . S
H1153 C1161 0.930 . S
H1154 C1162 0.930 . S
H1155 C1163 0.930 . S
H1156 C1166 0.930 . S
H1157 C1167 0.930 . S
C1158 H1152 0.930 . S
C1158 C1159 1.355 . S
C1158 C1160 1.415 . S
C1159 C1158 1.355 . S
C1159 C1161 1.419 . S
C1160 C1158 1.415 . S
C1160 C1165 1.425 . S
C1160 C1167 1.409 . S
C1161 H1153 0.930 . S
C1161 C1159 1.419 . S
C1161 C1162 1.362 . S
C1162 H1154 0.930 . S
C1162 C1161 1.362 . S
C1162 C1165 1.409 . S
C1163 H1155 0.930 . S
C1163 C1164 1.355 . S
C1163 C1165 1.415 . S
C1164 C1163 1.355 . S
C1164 C1166 1.419 . S
C1165 C1160 1.425 . S
C1165 C1162 1.409 . S
C1165 C1163 1.415 . S
C1166 H1156 0.930 . S
C1166 C1164 1.419 . S
C1166 C1167 1.362 . S
C1167 H1157 0.930 . S
C1167 C1160 1.409 . S
C1167 C1166 1.362 . S
C535 N5 0.847 . S
C540 N302 0.882 . S
C551 N14 0.981 . S
C556 N311 0.975 . S
C567 N278 0.975 . S
C572 N47 0.981 . S
C583 N38 0.858 . S
C588 N269 0.874 . S
C599 N71 0.853 . S
C604 N368 0.875 . S
C615 N80 0.975 . S
C620 N377 0.946 . S
C631 N113 0.912 . S
C636 N344 0.889 . S
C647 N104 0.882 . S
C652 N335 0.847 . S
C663 N137 0.870 . S
C668 N434 0.858 . S
C679 N443 0.926 . S
C684 N146 0.895 . S
C695 N410 0.932 . S
C700 N179 0.899 . S
C711 N401 0.870 . S
C716 N170 0.858 . S
C727 N500 0.873 . S
C732 N203 0.859 . S
C743 N509 0.981 . S
C748 N212 0.974 . S
C759 N476 0.908 . S
C764 N245 0.944 . S
C775 N236 0.849 . S
C780 N467 0.879 . S
C791 C17 1.217 . S
C796 C50 1.217 . S
C807 C116 1.219 . S
C812 C83 1.219 . S
C823 C182 1.214 . S
C828 C149 1.214 . S
C839 C248 1.220 . S
C844 C215 1.220 . S
C855 C314 1.202 . S
C860 C281 1.202 . S
C871 C347 1.200 . S
C876 C380 1.200 . S
C887 C446 1.217 . S
C892 C413 1.217 . S
C903 C479 1.202 . S
C908 C512 1.202 . S
C919 C490 1.785 . S
C924 C28 1.785 . S
C935 C74 1.795 . S
C940 C8 1.795 . S
C951 C371 1.805 . S
C956 C41 1.805 . S
C967 C259 1.823 . S
C972 C61 1.823 . S
C983 C94 1.821 . S
C988 C424 1.821 . S
C999 C305 1.803 . S
C1004 C107 1.803 . S
C1015 C127 1.824 . S
C1020 C193 1.824 . S
C1031 C358 1.777 . S
C1036 C160 1.777 . S
C1047 C140 1.794 . S
C1052 C206 1.794 . S
C1063 C173 1.821 . S
C1068 C503 1.821 . S
C1079 C226 1.777 . S
C1084 C292 1.777 . S
C1095 C239 1.793 . S
C1100 C437 1.793 . S
C1111 C338 1.808 . S
C1116 C272 1.808 . S
C1127 C523 1.786 . S
C1132 C325 1.786 . S
C1143 C391 1.824 . S
C1148 C457 1.824 . S
C1159 C404 1.809 . S
C1164 C470 1.809 . S
