# Generated by pormake.
# Topology sow, (4)-cn, num edge types: 1
# Building blocks:
#     Node 0, Type 0, BuildingBlock: KOZSID_clean_sbu_0, # of connection points: 4
#     Node 1, Type 0, BuildingBlock: KOZSID_clean_sbu_0, # of connection points: 4
#     Node 2, Type 0, BuildingBlock: KOZSID_clean_sbu_0, # of connection points: 4
#     Node 3, Type 0, BuildingBlock: KOZSID_clean_sbu_0, # of connection points: 4
#     Node 4, Type 0, BuildingBlock: KOZSID_clean_sbu_0, # of connection points: 4
#     Node 5, Type 0, BuildingBlock: KOZSID_clean_sbu_0, # of connection points: 4
#     Node 6, Type 0, BuildingBlock: KOZSID_clean_sbu_0, # of connection points: 4
#     Node 7, Type 0, BuildingBlock: KOZSID_clean_sbu_0, # of connection points: 4
#     Edge 8, Type (0, 0), BuildingBlock: XUDNAN_clean_linker_2, # of connection points: 2
#     Edge 9, Type (0, 0), BuildingBlock: XUDNAN_clean_linker_2, # of connection points: 2
#     Edge 10, Type (0, 0), BuildingBlock: XUDNAN_clean_linker_2, # of connection points: 2
#     Edge 11, Type (0, 0), BuildingBlock: XUDNAN_clean_linker_2, # of connection points: 2
#     Edge 12, Type (0, 0), BuildingBlock: XUDNAN_clean_linker_2, # of connection points: 2
#     Edge 13, Type (0, 0), BuildingBlock: XUDNAN_clean_linker_2, # of connection points: 2
#     Edge 14, Type (0, 0), BuildingBlock: XUDNAN_clean_linker_2, # of connection points: 2
#     Edge 15, Type (0, 0), BuildingBlock: XUDNAN_clean_linker_2, # of connection points: 2
#     Edge 16, Type (0, 0), BuildingBlock: XUDNAN_clean_linker_2, # of connection points: 2
#     Edge 17, Type (0, 0), BuildingBlock: XUDNAN_clean_linker_2, # of connection points: 2
#     Edge 18, Type (0, 0), BuildingBlock: XUDNAN_clean_linker_2, # of connection points: 2
#     Edge 19, Type (0, 0), BuildingBlock: XUDNAN_clean_linker_2, # of connection points: 2
#     Edge 20, Type (0, 0), BuildingBlock: XUDNAN_clean_linker_2, # of connection points: 2
#     Edge 21, Type (0, 0), BuildingBlock: XUDNAN_clean_linker_2, # of connection points: 2
#     Edge 22, Type (0, 0), BuildingBlock: XUDNAN_clean_linker_2, # of connection points: 2
#     Edge 23, Type (0, 0), BuildingBlock: XUDNAN_clean_linker_2, # of connection points: 2
# Relax obj value: 0.062
# Max RMSD: 0.253
# Mean RMSD: 0.221
data_MOF--net-sow--node1-KOZSID_clean_sbu_0--edge1-XUDNAN_clean_linker_2
_symmetry_space_group_name_H-M    P1
_symmetry_Int_Tables_number       1
_symmetry_cell_setting            triclinic
loop_
_symmetry_equiv_pos_as_xyz
'x, y, z'
_cell_length_a     55.816597
_cell_length_b     22.292513
_cell_length_c     24.945342
_cell_angle_alpha  90.194442
_cell_angle_beta   90.064043
_cell_angle_gamma 90.124781
loop_
_atom_site_label
_atom_site_type_symbol
_atom_site_fract_x
_atom_site_fract_y
_atom_site_fract_z
_atom_type_partial_charge
C0 C 0.11328 0.15011 0.19728 0.0
C1 C 0.10888 0.09743 0.22521 0.0
C2 C 0.12991 0.06531 0.22494 0.0
C3 C 0.14594 0.0993 0.19632 0.0
N4 N 0.13621 0.15072 0.17887 0.0
Co5 Co 0.15118 0.20796 0.12833 0.0
N6 N 0.17523 0.14843 0.10385 0.0
C7 C 0.18148 0.09862 0.13085 0.0
C8 C 0.19941 0.06706 0.10589 0.0
C9 C 0.20498 0.09949 0.06086 0.0
C10 C 0.19002 0.14915 0.06065 0.0
N11 N 0.16557 0.26579 0.07727 0.0
C12 C 0.18064 0.25651 0.03539 0.0
C13 C 0.18598 0.31032 0.01001 0.0
C14 C 0.17465 0.35472 0.0383 0.0
C15 C 0.16276 0.32581 0.07879 0.0
N16 N 0.12789 0.26814 0.15397 0.0
C17 C 0.13018 0.328 0.15054 0.0
C18 C 0.11145 0.35805 0.17412 0.0
C19 C 0.09648 0.31405 0.1932 0.0
C20 C 0.10691 0.25965 0.1796 0.0
N21 N 0.17374 0.23442 0.18483 0.0
C22 C 0.2059 0.25918 0.26989 0.0
C23 C 0.21406 0.25314 0.21682 0.0
C24 C 0.19775 0.24117 0.17501 0.0
C25 C 0.18106 0.25539 0.27844 0.0
C26 C 0.16548 0.24262 0.23593 0.0
N27 N 0.12811 0.17938 0.07365 0.0
C28 C 0.08965 0.19269 0.0306 0.0
C29 C 0.08666 0.13031 0.02598 0.0
C30 C 0.10578 0.09369 0.04099 0.0
C31 C 0.12614 0.11883 0.06482 0.0
C32 C 0.11077 0.21639 0.0534 0.0
H33 H 0.13929 0.08818 0.08008 0.0
H34 H 0.11226 0.26441 0.05816 0.0
H35 H 0.20471 0.23564 0.135 0.0
H36 H 0.14667 0.23797 0.24486 0.0
C37 C 0.16753 0.07852 0.17413 0.0
C38 C 0.09636 0.20062 0.19003 0.0
C39 C 0.19199 0.19877 0.02203 0.0
C40 C 0.14693 0.35268 0.11523 0.0
H41 H 0.09234 0.08214 0.24278 0.0
H42 H 0.13256 0.02046 0.24031 0.0
H43 H 0.2071 0.02471 0.11812 0.0
H44 H 0.21875 0.0884 0.03198 0.0
H45 H 0.19724 0.31723 0.97531 0.0
H46 H 0.17474 0.40228 0.02971 0.0
H47 H 0.10828 0.40593 0.17451 0.0
H48 H 0.07956 0.32102 0.21339 0.0
H49 H 0.23299 0.25552 0.20767 0.0
H50 H 0.17353 0.26149 0.31804 0.0
H51 H 0.07545 0.22276 0.01845 0.0
H52 H 0.10433 0.04531 0.038 0.0
C53 C 0.41163 0.38721 0.72378 0.0
C54 C 0.41516 0.44031 0.75183 0.0
C55 C 0.39849 0.47997 0.73324 0.0
C56 C 0.38581 0.449 0.69492 0.0
N57 N 0.393 0.39153 0.68878 0.0
Co58 Co 0.38133 0.3334 0.63288 0.0
N59 N 0.3573 0.39209 0.60391 0.0
C60 C 0.35291 0.44773 0.62321 0.0
C61 C 0.3342 0.47602 0.59817 0.0
C62 C 0.32583 0.43557 0.56129 0.0
C63 C 0.34003 0.3849 0.5658 0.0
N64 N 0.37078 0.27644 0.57501 0.0
C65 C 0.35332 0.28156 0.53735 0.0
C66 C 0.35243 0.23162 0.50405 0.0
C67 C 0.36964 0.19314 0.52182 0.0
C68 C 0.38011 0.22178 0.56459 0.0
N69 N 0.40411 0.27305 0.6637 0.0
C70 C 0.40697 0.2157 0.64718 0.0
C71 C 0.42392 0.18475 0.67555 0.0
C72 C 0.43263 0.22491 0.71207 0.0
C73 C 0.42047 0.27838 0.70374 0.0
N74 N 0.35589 0.30268 0.68209 0.0
C75 C 0.31892 0.26075 0.75078 0.0
C76 C 0.33078 0.2219 0.71534 0.0
C77 C 0.34906 0.24352 0.68178 0.0
C78 C 0.32617 0.32087 0.75121 0.0
C79 C 0.34443 0.34062 0.71701 0.0
N80 N 0.407 0.36504 0.58444 0.0
C81 C 0.44673 0.35507 0.5459 0.0
C82 C 0.44758 0.41623 0.53358 0.0
C83 C 0.42712 0.45031 0.54391 0.0
C84 C 0.40727 0.4242 0.56918 0.0
C85 C 0.42629 0.33036 0.57011 0.0
H86 H 0.3927 0.45359 0.57742 0.0
H87 H 0.42679 0.28334 0.57812 0.0
H88 H 0.35739 0.21162 0.65576 0.0
H89 H 0.34879 0.3871 0.71928 0.0
C90 C 0.36704 0.47224 0.66417 0.0
C91 C 0.4267 0.33426 0.73118 0.0
C92 C 0.33616 0.33071 0.53367 0.0
C93 C 0.3962 0.19536 0.60005 0.0
H94 H 0.42859 0.44948 0.78213 0.0
H95 H 0.39611 0.52615 0.74565 0.0
H96 H 0.32734 0.52054 0.60611 0.0
H97 H 0.31087 0.44232 0.53435 0.0
H98 H 0.34008 0.22313 0.47139 0.0
H99 H 0.37334 0.14846 0.50688 0.0
H100 H 0.43013 0.13943 0.66858 0.0
H101 H 0.44707 0.2164 0.73997 0.0
H102 H 0.32617 0.17473 0.71368 0.0
H103 H 0.31744 0.35325 0.77706 0.0
H104 H 0.46193 0.32641 0.53749 0.0
H105 H 0.4268 0.49781 0.53492 0.0
C106 C 0.61446 0.35781 0.81901 0.0
C107 C 0.60929 0.41252 0.7952 0.0
C108 C 0.62922 0.44772 0.80096 0.0
C109 C 0.64529 0.41338 0.82873 0.0
N110 N 0.63716 0.35754 0.83941 0.0
Co111 Co 0.65147 0.29966 0.89194 0.0
N112 N 0.67655 0.35834 0.91547 0.0
C113 C 0.68168 0.41111 0.89157 0.0
C114 C 0.70061 0.44084 0.9147 0.0
C115 C 0.70806 0.40463 0.95557 0.0
C116 C 0.69309 0.35484 0.95533 0.0
N117 N 0.66405 0.24294 0.94731 0.0
C118 C 0.68078 0.25118 0.9862 0.0
C119 C 0.68276 0.20085 0.01861 0.0
C120 C 0.66701 0.15924 0.99902 0.0
C121 C 0.6561 0.18652 0.95637 0.0
N122 N 0.62727 0.24008 0.86648 0.0
C123 C 0.62635 0.18124 0.87858 0.0
C124 C 0.60753 0.15183 0.8546 0.0
C125 C 0.59536 0.19514 0.82705 0.0
C126 C 0.60737 0.24867 0.8365 0.0
N127 N 0.67483 0.26818 0.83712 0.0
C128 C 0.71108 0.2275 0.765 0.0
C129 C 0.70143 0.18986 0.80443 0.0
C130 C 0.6837 0.21083 0.83965 0.0
C131 C 0.70141 0.28521 0.76126 0.0
C132 C 0.6834 0.30405 0.79671 0.0
N133 N 0.62842 0.33187 0.945 0.0
C134 C 0.58873 0.32235 0.98238 0.0
C135 C 0.58578 0.38459 0.97999 0.0
C136 C 0.60579 0.41991 0.96885 0.0
C137 C 0.62709 0.39266 0.95281 0.0
C138 C 0.61035 0.29675 0.96498 0.0
H139 H 0.64137 0.42196 0.94145 0.0
H140 H 0.61138 0.24864 0.96296 0.0
H141 H 0.6777 0.1795 0.86876 0.0
H142 H 0.67702 0.34834 0.79061 0.0
C143 C 0.66637 0.43491 0.85259 0.0
C144 C 0.59737 0.30755 0.82403 0.0
C145 C 0.6954 0.30526 0.99339 0.0
C146 C 0.63941 0.15936 0.92209 0.0
H147 H 0.59267 0.42738 0.7777 0.0
H148 H 0.63103 0.49441 0.78987 0.0
H149 H 0.70769 0.48446 0.90415 0.0
H150 H 0.72274 0.414 0.98274 0.0
H151 H 0.69447 0.19452 0.0527 0.0
H152 H 0.66402 0.11427 0.01385 0.0
H153 H 0.60199 0.10576 0.86052 0.0
H154 H 0.57852 0.18908 0.80611 0.0
H155 H 0.70748 0.14401 0.80849 0.0
H156 H 0.70802 0.31682 0.73192 0.0
H157 H 0.57371 0.29353 0.99202 0.0
H158 H 0.60434 0.46836 0.96755 0.0
C159 C 0.91217 0.12638 0.29718 0.0
C160 C 0.91639 0.07501 0.26717 0.0
C161 C 0.90052 0.03268 0.28472 0.0
C162 C 0.8876 0.0605 0.32436 0.0
N163 N 0.89391 0.11839 0.33249 0.0
Co164 Co 0.88149 0.17298 0.39018 0.0
N165 N 0.85862 0.11031 0.41752 0.0
C166 C 0.85504 0.05506 0.39635 0.0
C167 C 0.83733 0.02302 0.42138 0.0
C168 C 0.82886 0.06023 0.46058 0.0
C169 C 0.84207 0.11292 0.45751 0.0
N170 N 0.86998 0.22669 0.44953 0.0
C171 C 0.85309 0.21771 0.48791 0.0
C172 C 0.85146 0.26651 0.52246 0.0
C173 C 0.86757 0.30806 0.50491 0.0
C174 C 0.87822 0.2823 0.4611 0.0
N175 N 0.90322 0.23703 0.36121 0.0
C176 C 0.90532 0.29391 0.3796 0.0
C177 C 0.92165 0.32782 0.3521 0.0
C178 C 0.93076 0.29021 0.3141 0.0
C179 C 0.91941 0.2352 0.32073 0.0
N180 N 0.85559 0.20255 0.34179 0.0
C181 C 0.81916 0.24382 0.27154 0.0
C182 C 0.83084 0.28298 0.30716 0.0
C183 C 0.84875 0.26161 0.34169 0.0
C184 C 0.82613 0.18358 0.27216 0.0
C185 C 0.84419 0.16422 0.30698 0.0
N186 N 0.90776 0.14254 0.43758 0.0
C187 C 0.94744 0.15537 0.47606 0.0
C188 C 0.94934 0.09384 0.4861 0.0
C189 C 0.92944 0.05792 0.47465 0.0
C190 C 0.9091 0.08281 0.45057 0.0
C191 C 0.92648 0.17878 0.45303 0.0
H192 H 0.89505 0.05208 0.44131 0.0
H193 H 0.92613 0.22617 0.44684 0.0
H194 H 0.85689 0.29369 0.36791 0.0
H195 H 0.84853 0.11781 0.30503 0.0
C196 C 0.86939 0.03382 0.35449 0.0
C197 C 0.92624 0.18131 0.29116 0.0
C198 C 0.83803 0.16428 0.49312 0.0
C199 C 0.89409 0.31151 0.42692 0.0
H200 H 0.92973 0.06875 0.23619 0.0
H201 H 0.8988 0.98688 0.27068 0.0
H202 H 0.8313 0.97794 0.41225 0.0
H203 H 0.81452 0.04984 0.48822 0.0
H204 H 0.83963 0.27195 0.55647 0.0
H205 H 0.87067 0.35244 0.52126 0.0
H206 H 0.92714 0.37353 0.36038 0.0
H207 H 0.94489 0.30147 0.28622 0.0
H208 H 0.82645 0.33024 0.30815 0.0
H209 H 0.81747 0.15085 0.24644 0.0
H210 H 0.96217 0.18533 0.48546 0.0
H211 H 0.92993 0.01004 0.48186 0.0
C212 C 0.9041 0.99288 1.00022 0.0
C213 C 0.90378 0.05423 0.00962 0.0
C214 C 0.88182 0.07437 0.99245 0.0
C215 C 0.87002 0.02451 0.9733 0.0
N216 N 0.88313 0.97437 0.97819 0.0
Co217 Co 0.87452 0.89365 0.95079 0.0
N218 N 0.85121 0.92717 0.89858 0.0
C219 C 0.84207 0.98305 0.90052 0.0
C220 C 0.82552 0.99355 0.86104 0.0
C221 C 0.82373 0.94066 0.8332 0.0
C222 C 0.83942 0.90038 0.8572 0.0
N223 N 0.86605 0.81226 0.92483 0.0
C224 C 0.85321 0.79486 0.88134 0.0
C225 C 0.85214 0.73262 0.87813 0.0
C226 C 0.86363 0.71076 0.92249 0.0
C227 C 0.87144 0.76047 0.94997 0.0
N228 N 0.89844 0.86172 1.00196 0.0
C229 C 0.89992 0.80525 0.0202 0.0
C230 C 0.91991 0.79651 0.05159 0.0
C231 C 0.93174 0.85077 0.05238 0.0
C232 C 0.91826 0.88943 0.02133 0.0
N233 N 0.84897 0.88615 0.00489 0.0
C234 C 0.81398 0.84889 0.07872 0.0
C235 C 0.83641 0.86992 0.09649 0.0
C236 C 0.85355 0.8894 0.05883 0.0
C237 C 0.80885 0.85309 0.02403 0.0
C238 C 0.82651 0.87007 0.98819 0.0
N239 N 0.89971 0.89941 0.89697 0.0
C240 C 0.93525 0.85711 0.85864 0.0
C241 C 0.9406 0.91144 0.83295 0.0
C242 C 0.92381 0.95815 0.83688 0.0
C243 C 0.90352 0.95126 0.86919 0.0
C244 C 0.9148 0.85202 0.88991 0.0
H245 H 0.89143 0.98863 0.87334 0.0
H246 H 0.91206 0.81059 0.91097 0.0
H247 H 0.87087 0.90407 0.07319 0.0
H248 H 0.82195 0.86653 0.94669 0.0
C249 C 0.85074 0.02554 0.93738 0.0
C250 C 0.92431 0.95246 0.01118 0.0
C251 C 0.83889 0.83506 0.84706 0.0
C252 C 0.88643 0.75995 0.99529 0.0
H253 H 0.91797 0.0822 0.02531 0.0
H254 H 0.87608 0.12062 0.98985 0.0
H255 H 0.81576 0.03459 0.85358 0.0
H256 H 0.81131 0.93224 0.80076 0.0
H257 H 0.84323 0.70577 0.84783 0.0
H258 H 0.86631 0.66416 0.93291 0.0
H259 H 0.92619 0.75465 0.06833 0.0
H260 H 0.94858 0.8605 0.07218 0.0
H261 H 0.84112 0.86879 0.13858 0.0
H262 H 0.79149 0.84042 0.00813 0.0
H263 H 0.9475 0.8196 0.85838 0.0
H264 H 0.9265 0.00035 0.81644 0.0
C265 C 0.62898 0.55683 0.49142 0.0
C266 C 0.62924 0.49584 0.5027 0.0
C267 C 0.65243 0.47679 0.49556 0.0
C268 C 0.66505 0.52662 0.47967 0.0
N269 N 0.65113 0.57563 0.47695 0.0
Co270 Co 0.66069 0.65496 0.44908 0.0
N271 N 0.6875 0.62005 0.40804 0.0
C272 C 0.69792 0.56681 0.41793 0.0
C273 C 0.71708 0.55574 0.38493 0.0
C274 C 0.7189 0.60545 0.35283 0.0
C275 C 0.70057 0.64411 0.36788 0.0
N276 N 0.67011 0.73486 0.42203 0.0
C277 C 0.68436 0.74951 0.38016 0.0
C278 C 0.68576 0.81143 0.37473 0.0
C279 C 0.67256 0.83583 0.4158 0.0
C280 C 0.66357 0.7878 0.44368 0.0
N281 N 0.63364 0.68859 0.49006 0.0
C282 C 0.63096 0.74587 0.5057 0.0
C283 C 0.60918 0.75539 0.53014 0.0
C284 C 0.59759 0.70072 0.52911 0.0
C285 C 0.61297 0.66097 0.5039 0.0
N286 N 0.68216 0.66716 0.51057 0.0
C287 C 0.71278 0.69278 0.59776 0.0
C288 C 0.72063 0.69843 0.54458 0.0
C289 C 0.70505 0.68686 0.50211 0.0
C290 C 0.68915 0.67222 0.60586 0.0
C291 C 0.67436 0.65866 0.5619 0.0
N292 N 0.63933 0.6435 0.38795 0.0
C293 C 0.60366 0.67562 0.34284 0.0
C294 C 0.60032 0.61805 0.32081 0.0
C295 C 0.6187 0.57582 0.32851 0.0
C296 C 0.63796 0.58932 0.36242 0.0
C297 C 0.62336 0.68753 0.37541 0.0
H298 H 0.65093 0.55473 0.37059 0.0
H299 H 0.62455 0.73111 0.39402 0.0
H300 H 0.71165 0.69461 0.46224 0.0
H301 H 0.65642 0.64249 0.56942 0.0
C302 C 0.68718 0.52562 0.45301 0.0
C303 C 0.60802 0.59704 0.49418 0.0
C304 C 0.69781 0.70567 0.34769 0.0
C305 C 0.64591 0.79038 0.48392 0.0
H306 H 0.61441 0.46704 0.51303 0.0
H307 H 0.65878 0.43098 0.49715 0.0
H308 H 0.72812 0.51592 0.38359 0.0
H309 H 0.73254 0.61293 0.32278 0.0
H310 H 0.69524 0.83666 0.34448 0.0
H311 H 0.66915 0.88294 0.42304 0.0
H312 H 0.60181 0.79778 0.54341 0.0
H313 H 0.57975 0.69141 0.54393 0.0
H314 H 0.73874 0.7118 0.535 0.0
H315 H 0.68174 0.66751 0.64565 0.0
H316 H 0.59037 0.71051 0.33899 0.0
H317 H 0.61788 0.53169 0.31045 0.0
C318 C 0.40385 0.51442 0.00682 0.0
C319 C 0.40447 0.45284 0.99898 0.0
C320 C 0.38262 0.43115 0.01541 0.0
C321 C 0.36995 0.48061 0.03216 0.0
N322 N 0.38245 0.5318 0.02681 0.0
Co323 Co 0.37197 0.61313 0.04817 0.0
N324 N 0.34726 0.58037 0.09727 0.0
C325 C 0.3388 0.52366 0.09666 0.0
C326 C 0.32138 0.51389 0.1344 0.0
C327 C 0.31835 0.56803 0.15962 0.0
C328 C 0.33408 0.60815 0.13558 0.0
N329 N 0.3616 0.69503 0.06904 0.0
C330 C 0.34697 0.71334 0.10922 0.0
C331 C 0.34364 0.77507 0.10752 0.0
C332 C 0.3562 0.79569 0.06414 0.0
C333 C 0.36652 0.74573 0.04182 0.0
N334 N 0.39673 0.64502 0.99885 0.0
C335 C 0.39763 0.70059 0.97823 0.0
C336 C 0.41783 0.70997 0.9479 0.0
C337 C 0.43035 0.65701 0.94988 0.0
C338 C 0.41696 0.6181 0.98121 0.0
N339 N 0.34856 0.61363 0.9896 0.0
C340 C 0.31618 0.6249 0.90379 0.0
C341 C 0.30915 0.63726 0.95669 0.0
C342 C 0.32559 0.63225 0.99856 0.0
C343 C 0.3397 0.60439 0.89545 0.0
C344 C 0.35538 0.5981 0.93882 0.0
N345 N 0.39561 0.61271 0.10589 0.0
C346 C 0.43284 0.65229 0.13888 0.0
C347 C 0.4371 0.59978 0.16851 0.0
C348 C 0.41875 0.5564 0.16958 0.0
C349 C 0.39838 0.56331 0.13749 0.0
C350 C 0.4118 0.65849 0.10939 0.0
H351 H 0.38552 0.52722 0.13615 0.0
H352 H 0.40952 0.6987 0.08614 0.0
H353 H 0.31969 0.64451 0.03808 0.0
H354 H 0.37328 0.58221 0.93098 0.0
C355 C 0.34937 0.47959 0.06419 0.0
C356 C 0.42335 0.55576 0.99344 0.0
C357 C 0.33332 0.67336 0.14467 0.0
C358 C 0.3827 0.74547 0.99882 0.0
H359 H 0.41926 0.42645 0.98383 0.0
H360 H 0.37727 0.38456 0.01809 0.0
H361 H 0.31212 0.47229 0.14294 0.0
H362 H 0.30544 0.57747 0.19085 0.0
H363 H 0.33263 0.8021 0.13383 0.0
H364 H 0.35773 0.84167 0.05075 0.0
H365 H 0.42364 0.75153 0.92969 0.0
H366 H 0.44755 0.6487 0.93142 0.0
H367 H 0.2911 0.65126 0.96616 0.0
H368 H 0.34637 0.59469 0.85567 0.0
H369 H 0.44598 0.68768 0.13554 0.0
H370 H 0.42022 0.5162 0.19346 0.0
C371 C 0.13199 0.9502 0.5209 0.0
C372 C 0.13406 0.01205 0.51689 0.0
C373 C 0.15782 0.0256 0.52575 0.0
C374 C 0.1689 0.97158 0.53508 0.0
N375 N 0.15354 0.92526 0.53208 0.0
Co376 Co 0.16061 0.84059 0.54941 0.0
N377 N 0.18892 0.86317 0.59278 0.0
C378 C 0.20082 0.91566 0.58917 0.0
C379 C 0.22074 0.91775 0.62135 0.0
C380 C 0.22157 0.86293 0.64609 0.0
C381 C 0.2019 0.83023 0.62785 0.0
N382 N 0.16709 0.75555 0.56643 0.0
C383 C 0.18096 0.73165 0.60543 0.0
C384 C 0.1793 0.6694 0.60462 0.0
C385 C 0.16485 0.65428 0.56212 0.0
C386 C 0.15809 0.7078 0.53981 0.0
N387 N 0.13234 0.81915 0.50565 0.0
C388 C 0.1276 0.76556 0.48326 0.0
C389 C 0.10558 0.76441 0.45832 0.0
C390 C 0.09598 0.82059 0.46623 0.0
C391 C 0.11271 0.85271 0.49571 0.0
N392 N 0.18124 0.83366 0.48615 0.0
C393 C 0.21053 0.81697 0.39582 0.0
C394 C 0.18889 0.84892 0.39208 0.0
C395 C 0.17451 0.85675 0.43771 0.0
C396 C 0.21718 0.79457 0.44601 0.0
C397 C 0.20249 0.80359 0.4903 0.0
N398 N 0.1402 0.84704 0.61237 0.0
C399 C 0.10381 0.81668 0.65528 0.0
C400 C 0.10298 0.87092 0.68425 0.0
C401 C 0.12308 0.90892 0.68128 0.0
C402 C 0.14139 0.8964 0.64481 0.0
C403 C 0.12262 0.80547 0.62021 0.0
H404 H 0.15569 0.9286 0.64043 0.0
H405 H 0.12182 0.76534 0.59612 0.0
H406 H 0.15782 0.8808 0.4338 0.0
H407 H 0.20826 0.78493 0.52782 0.0
C408 C 0.19111 0.96406 0.56051 0.0
C409 C 0.10985 0.91494 0.51382 0.0
C410 C 0.19788 0.76607 0.63924 0.0
C411 C 0.14057 0.71507 0.49981 0.0
H412 H 0.12002 0.04436 0.50996 0.0
H413 H 0.1656 0.06995 0.52932 0.0
H414 H 0.23304 0.95488 0.62679 0.0
H415 H 0.23551 0.8484 0.6732 0.0
H416 H 0.1879 0.63792 0.6313 0.0
H417 H 0.15933 0.60964 0.55011 0.0
H418 H 0.09669 0.72605 0.44042 0.0
H419 H 0.0785 0.83571 0.45327 0.0
H420 H 0.18304 0.86763 0.35428 0.0
H421 H 0.23335 0.76847 0.45112 0.0
H422 H 0.0892 0.78487 0.65525 0.0
H423 H 0.12434 0.94959 0.70486 0.0
H424 H 0.30841 0.29526 0.85494 0.0
H425 H 0.28356 0.17844 0.72679 0.0
H426 H 0.24971 0.14597 0.78347 0.0
H427 H 0.29228 0.19772 0.96555 0.0
H428 H 0.28296 0.25876 0.00821 0.0
H429 H 0.30584 0.27075 0.95847 0.0
H430 H 0.28108 0.35772 0.91799 0.0
H431 H 0.25814 0.34602 0.96759 0.0
H432 H 0.25057 0.34414 0.89735 0.0
H433 H 0.21702 0.12973 0.85338 0.0
H434 H 0.18883 0.13163 0.93036 0.0
H435 H 0.23517 0.25777 0.01283 0.0
C436 C 0.29587 0.26289 0.83859 0.0
C437 C 0.29887 0.23941 0.78609 0.0
C438 C 0.28204 0.19656 0.76695 0.0
C439 C 0.26261 0.17803 0.79884 0.0
C440 C 0.26014 0.20242 0.85011 0.0
C441 C 0.27639 0.24381 0.86992 0.0
C442 C 0.26945 0.26416 0.92594 0.0
C443 C 0.28878 0.24679 0.96696 0.0
C444 C 0.26452 0.33203 0.92727 0.0
C445 C 0.24662 0.22835 0.93437 0.0
C446 C 0.24153 0.19288 0.89021 0.0
C447 C 0.22093 0.15719 0.88817 0.0
C448 C 0.20503 0.15844 0.93197 0.0
C449 C 0.20973 0.19521 0.97709 0.0
C450 C 0.23107 0.22959 0.97857 0.0
H451 H 0.24981 0.31993 0.2747 0.0
H452 H 0.20112 0.21323 0.37143 0.0
H453 H 0.22775 0.22565 0.44903 0.0
H454 H 0.30399 0.25789 0.33185 0.0
H455 H 0.32037 0.32759 0.32951 0.0
H456 H 0.29696 0.31292 0.28144 0.0
H457 H 0.2759 0.41154 0.30937 0.0
H458 H 0.29917 0.42628 0.35782 0.0
H459 H 0.26829 0.42375 0.37878 0.0
H460 H 0.25972 0.24758 0.51687 0.0
H461 H 0.29621 0.27388 0.56856 0.0
H462 H 0.3255 0.36336 0.42938 0.0
C463 C 0.24473 0.29895 0.31206 0.0
C464 C 0.22286 0.2665 0.31653 0.0
C465 C 0.21719 0.23994 0.36666 0.0
C466 C 0.23236 0.24631 0.41122 0.0
C467 C 0.25348 0.27899 0.40556 0.0
C468 C 0.25984 0.30452 0.35721 0.0
C469 C 0.28406 0.3357 0.36189 0.0
C470 C 0.30243 0.30679 0.32392 0.0
C471 C 0.2817 0.40334 0.35134 0.0
C472 C 0.29025 0.32356 0.4203 0.0
C473 C 0.27224 0.29098 0.44472 0.0
C474 C 0.27388 0.27332 0.49822 0.0
C475 C 0.29457 0.28859 0.52737 0.0
C476 C 0.31338 0.32121 0.50315 0.0
C477 C 0.31114 0.3392 0.44898 0.0
H478 H 0.8087 0.20501 0.16843 0.0
H479 H 0.78494 0.33028 0.29098 0.0
H480 H 0.75228 0.36342 0.23145 0.0
H481 H 0.79496 0.29703 0.05318 0.0
H482 H 0.78464 0.23469 0.01309 0.0
H483 H 0.80703 0.22311 0.06408 0.0
H484 H 0.7804 0.14151 0.10781 0.0
H485 H 0.75797 0.15275 0.05691 0.0
H486 H 0.75009 0.15962 0.1267 0.0
H487 H 0.7209 0.38042 0.15944 0.0
H488 H 0.69326 0.37794 0.08146 0.0
H489 H 0.73676 0.24038 0.00706 0.0
C490 C 0.79663 0.23926 0.18308 0.0
C491 C 0.79967 0.26506 0.23474 0.0
C492 C 0.78347 0.31039 0.25147 0.0
C493 C 0.76469 0.32934 0.21797 0.0
C494 C 0.76218 0.30263 0.16764 0.0
C495 C 0.77771 0.2585 0.15028 0.0
C496 C 0.77066 0.23561 0.09507 0.0
C497 C 0.7905 0.24839 0.05393 0.0
C498 C 0.76441 0.16839 0.09675 0.0
C499 C 0.74861 0.27336 0.08425 0.0
C500 C 0.74407 0.31201 0.12649 0.0
C501 C 0.72437 0.35048 0.12611 0.0
C502 C 0.70879 0.34891 0.08177 0.0
C503 C 0.71294 0.30904 0.03857 0.0
C504 C 0.73326 0.27133 0.03967 0.0
H505 H 0.7214 0.26138 0.65987 0.0
H506 H 0.74761 0.14862 0.78905 0.0
H507 H 0.781 0.11597 0.73192 0.0
H508 H 0.73785 0.16479 0.54939 0.0
H509 H 0.74724 0.22566 0.50687 0.0
H510 H 0.72434 0.23777 0.55656 0.0
H511 H 0.74911 0.32504 0.59747 0.0
H512 H 0.77202 0.31336 0.54776 0.0
H513 H 0.77963 0.31181 0.61798 0.0
H514 H 0.81264 0.09699 0.66141 0.0
H515 H 0.84063 0.09724 0.58423 0.0
H516 H 0.7954 0.22537 0.50247 0.0
C517 C 0.73413 0.23005 0.67658 0.0
C518 C 0.73134 0.2073 0.72938 0.0
C519 C 0.74862 0.16584 0.74861 0.0
C520 C 0.76791 0.14722 0.71648 0.0
C521 C 0.77005 0.17061 0.66497 0.0
C522 C 0.75371 0.21143 0.64522 0.0
C523 C 0.7607 0.23158 0.5892 0.0
C524 C 0.74138 0.21388 0.54808 0.0
C525 C 0.76566 0.29947 0.58806 0.0
C526 C 0.78354 0.1959 0.58066 0.0
C527 C 0.78853 0.16065 0.62476 0.0
C528 C 0.80885 0.12429 0.62664 0.0
C529 C 0.8246 0.1245 0.58267 0.0
C530 C 0.82003 0.16089 0.53749 0.0
C531 C 0.79915 0.19675 0.53644 0.0
H532 H 0.80263 0.87404 0.18563 0.0
H533 H 0.78564 0.75266 0.05408 0.0
H534 H 0.75326 0.70846 0.10689 0.0
H535 H 0.79253 0.75989 0.28955 0.0
H536 H 0.78041 0.81292 0.33694 0.0
H537 H 0.8022 0.8371 0.28831 0.0
H538 H 0.7728 0.91905 0.2558 0.0
H539 H 0.75076 0.89443 0.30372 0.0
H540 H 0.74323 0.89772 0.23351 0.0
H541 H 0.72102 0.6811 0.16997 0.0
H542 H 0.69446 0.66089 0.24713 0.0
H543 H 0.7346 0.78898 0.34298 0.0
C544 C 0.79226 0.83785 0.16813 0.0
C545 C 0.79624 0.81879 0.11461 0.0
C546 C 0.78238 0.77042 0.09385 0.0
C547 C 0.76398 0.74442 0.12371 0.0
C548 C 0.75991 0.76573 0.1752 0.0
C549 C 0.77398 0.8101 0.19803 0.0
C550 C 0.76626 0.82209 0.25547 0.0
C551 C 0.78656 0.80709 0.2949 0.0
C552 C 0.75776 0.8872 0.26251 0.0
C553 C 0.74552 0.77818 0.26059 0.0
C554 C 0.74203 0.74684 0.21341 0.0
C555 C 0.72364 0.70499 0.20736 0.0
C556 C 0.70859 0.69402 0.25113 0.0
C557 C 0.7122 0.72419 0.3004 0.0
C558 C 0.73101 0.7666 0.30523 0.0
H559 H 0.75163 0.77162 0.59884 0.0
H560 H 0.71184 0.65014 0.70237 0.0
H561 H 0.73835 0.67738 0.77718 0.0
H562 H 0.80932 0.72808 0.6501 0.0
H563 H 0.82199 0.80208 0.64303 0.0
H564 H 0.79846 0.7776 0.59856 0.0
H565 H 0.77318 0.87037 0.62521 0.0
H566 H 0.79656 0.89496 0.67005 0.0
H567 H 0.76658 0.88397 0.69493 0.0
H568 H 0.76843 0.72108 0.84219 0.0
H569 H 0.80274 0.76762 0.8893 0.0
H570 H 0.827 0.84594 0.74003 0.0
C571 C 0.74845 0.74946 0.63663 0.0
C572 C 0.7291 0.70867 0.64375 0.0
C573 C 0.72583 0.68274 0.69521 0.0
C574 C 0.74102 0.69753 0.73822 0.0
C575 C 0.75986 0.73734 0.72926 0.0
C576 C 0.76389 0.76207 0.67949 0.0
C577 C 0.78632 0.8007 0.67954 0.0
C578 C 0.80513 0.77559 0.6405 0.0
C579 C 0.78029 0.86639 0.66667 0.0
C580 C 0.79428 0.79387 0.73726 0.0
C581 C 0.77846 0.75815 0.7655 0.0
C582 C 0.7812 0.74803 0.82021 0.0
C583 C 0.80078 0.77439 0.84653 0.0
C584 C 0.81787 0.80889 0.81794 0.0
C585 C 0.81444 0.8189 0.76259 0.0
H586 H 0.27918 0.70729 0.89641 0.0
H587 H 0.31455 0.56559 0.80605 0.0
H588 H 0.28835 0.58654 0.72913 0.0
H589 H 0.21933 0.6708 0.84805 0.0
H590 H 0.20997 0.74813 0.84736 0.0
H591 H 0.23216 0.7236 0.89492 0.0
H592 H 0.26144 0.80522 0.86057 0.0
H593 H 0.23941 0.82978 0.81271 0.0
H594 H 0.2688 0.80785 0.79025 0.0
H595 H 0.26052 0.62881 0.65939 0.0
H596 H 0.22971 0.68074 0.60569 0.0
H597 H 0.20824 0.78279 0.74571 0.0
C598 C 0.28128 0.67943 0.86116 0.0
C599 C 0.29938 0.63498 0.85786 0.0
C600 C 0.30146 0.60106 0.80978 0.0
C601 C 0.28645 0.6122 0.76578 0.0
C602 C 0.26901 0.65644 0.77064 0.0
C603 C 0.26604 0.68873 0.81743 0.0
C604 C 0.24547 0.73271 0.81276 0.0
C605 C 0.22555 0.7179 0.85317 0.0
C606 C 0.25432 0.79773 0.81947 0.0
C607 C 0.23745 0.72045 0.75577 0.0
C608 C 0.25153 0.67696 0.73192 0.0
C609 C 0.2489 0.66154 0.67809 0.0
C610 C 0.23126 0.69091 0.64805 0.0
C611 C 0.21594 0.73371 0.67228 0.0
C612 C 0.2192 0.74876 0.7268 0.0
H613 H 0.33139 0.72235 0.24586 0.0
H614 H 0.2879 0.68072 0.10671 0.0
H615 H 0.252 0.72018 0.1531 0.0
H616 H 0.28844 0.68041 0.34374 0.0
H617 H 0.29584 0.73984 0.39009 0.0
H618 H 0.31824 0.71176 0.34471 0.0
H619 H 0.32519 0.81925 0.30854 0.0
H620 H 0.30274 0.84767 0.35382 0.0
H621 H 0.30016 0.86136 0.28287 0.0
H622 H 0.22054 0.75845 0.21666 0.0
H623 H 0.19567 0.79083 0.29311 0.0
H624 H 0.25986 0.81171 0.39007 0.0
C625 C 0.31429 0.72213 0.22532 0.0
C626 C 0.31218 0.69855 0.17302 0.0
C627 C 0.28965 0.69861 0.14696 0.0
C628 C 0.26926 0.72104 0.17289 0.0
C629 C 0.27178 0.74369 0.22473 0.0
C630 C 0.29372 0.74458 0.25065 0.0
C631 C 0.29133 0.76943 0.307 0.0
C632 C 0.2989 0.72256 0.34884 0.0
C633 C 0.30571 0.82791 0.31341 0.0
C634 C 0.26459 0.78113 0.30905 0.0
C635 C 0.25367 0.76641 0.26109 0.0
C636 C 0.22894 0.77085 0.25423 0.0
C637 C 0.21494 0.78976 0.29787 0.0
C638 C 0.22568 0.80399 0.34787 0.0
C639 C 0.25094 0.80068 0.35275 0.0
H640 H 0.06755 0.15148 0.27016 0.0
H641 H 0.06427 0.24677 0.11929 0.0
H642 H 0.02024 0.25044 0.12606 0.0
H643 H 1.01461 0.05728 0.24046 0.0
H644 H 1.00474 0.05617 0.30888 0.0
H645 H 0.03639 0.06128 0.29348 0.0
H646 H 0.0402 0.15926 0.34989 0.0
H647 H 1.00872 0.158 0.36628 0.0
H648 H 0.02146 0.22238 0.33392 0.0
H649 H 0.97566 0.24228 0.1498 0.0
H650 H 0.93578 0.23009 0.19269 0.0
H651 H 0.96865 0.13413 0.32401 0.0
C652 C 0.05771 0.16959 0.23665 0.0
C653 C 0.06959 0.1958 0.19261 0.0
C654 C 0.05565 0.22473 0.15271 0.0
C655 C 0.03056 0.22707 0.15616 0.0
C656 C 0.01942 0.19898 0.1992 0.0
C657 C 0.03259 0.17041 0.23841 0.0
C658 C 1.01642 0.1446 0.28103 0.0
C659 C 0.01818 0.07578 0.28116 0.0
C660 C 0.02206 0.17259 0.33607 0.0
C661 C 0.99216 0.16423 0.26082 0.0
C662 C 0.99413 0.19493 0.21302 0.0
C663 C 0.97399 0.21805 0.18712 0.0
C664 C 0.95145 0.21073 0.21149 0.0
C665 C 0.94932 0.18092 0.26128 0.0
C666 C 0.96987 0.15653 0.28563 0.0
H667 H 0.46897 0.38102 0.69613 0.0
H668 H 0.43653 0.29273 0.83214 0.0
H669 H 0.47652 0.28362 0.87521 0.0
H670 H 0.52015 0.29417 0.68611 0.0
H671 H 0.53947 0.35581 0.66834 0.0
H672 H 0.50785 0.35928 0.65413 0.0
H673 H 0.50575 0.46145 0.71135 0.0
H674 H 0.53768 0.45453 0.72371 0.0
H675 H 0.51696 0.46057 0.77852 0.0
H676 H 0.52114 0.27344 0.89719 0.0
H677 H 0.56524 0.26688 0.89813 0.0
H678 H 0.56819 0.35794 0.74525 0.0
C679 C 0.47031 0.36132 0.73567 0.0
C680 C 0.44981 0.33805 0.76123 0.0
C681 C 0.45211 0.31147 0.81243 0.0
C682 C 0.47473 0.30599 0.83698 0.0
C683 C 0.49483 0.32777 0.80991 0.0
C684 C 0.49271 0.35555 0.7607 0.0
C685 C 0.51704 0.37267 0.7388 0.0
C686 C 0.52139 0.34386 0.68355 0.0
C687 C 0.51955 0.44132 0.73781 0.0
C688 C 0.53337 0.34627 0.7809 0.0
C689 C 0.52025 0.32209 0.82252 0.0
C690 C 0.53148 0.29346 0.8652 0.0
C691 C 0.55663 0.29009 0.86543 0.0
C692 C 0.57055 0.31495 0.82331 0.0
C693 C 0.55849 0.3423 0.78 0.0
H694 H 0.06573 0.79982 0.72237 0.0
H695 H 0.08762 0.98675 0.70749 0.0
H696 H 0.04901 0.01795 0.74477 0.0
H697 H 1.00722 0.8286 0.66999 0.0
H698 H 0.99321 0.77167 0.71052 0.0
H699 H 0.02396 0.76337 0.69012 0.0
H700 H 0.0369 0.7521 0.78954 0.0
H701 H 1.00619 0.76003 0.81027 0.0
H702 H 0.02881 0.80944 0.83731 0.0
H703 H 1.00755 0.02821 0.78665 0.0
H704 H 0.96667 0.01666 0.82194 0.0
H705 H 0.96953 0.82568 0.78576 0.0
C706 C 0.06273 0.84749 0.72598 0.0
C707 C 0.08043 0.89022 0.71192 0.0
C708 C 0.07514 0.95215 0.71934 0.0
C709 C 0.05295 0.97073 0.73988 0.0
C710 C 0.03584 0.9272 0.75135 0.0
C711 C 0.04038 0.86698 0.74373 0.0
C712 C 0.01841 0.82923 0.75437 0.0
C713 C 1.01022 0.79629 0.7032 0.0
C714 C 0.02286 0.78511 0.80062 0.0
C715 C 1.00089 0.87758 0.77026 0.0
C716 C 1.01131 0.93372 0.76927 0.0
C717 C 0.99902 0.98457 0.7864 0.0
C718 C 0.97557 0.97753 0.8058 0.0
C719 C 0.9644 0.92018 0.80669 0.0
C720 C 0.97728 0.87015 0.78701 0.0
H721 H 0.47112 0.68393 0.20124 0.0
H722 H 0.45844 0.49108 0.19544 0.0
H723 H 0.49814 0.47447 0.23456 0.0
H724 H 0.53136 0.67128 0.15313 0.0
H725 H 0.54189 0.73428 0.19215 0.0
H726 H 0.51122 0.73163 0.16979 0.0
H727 H 0.49662 0.74393 0.26794 0.0
H728 H 0.52723 0.74685 0.29061 0.0
H729 H 0.50693 0.69216 0.31828 0.0
H730 H 0.53949 0.47972 0.27778 0.0
H731 H 0.57912 0.50552 0.31389 0.0
H732 H 0.56735 0.69209 0.27015 0.0
C733 C 0.47641 0.63785 0.20705 0.0
C734 C 0.46089 0.58918 0.19509 0.0
C735 C 0.46914 0.52995 0.20557 0.0
C736 C 0.49198 0.51972 0.22729 0.0
C737 C 0.5068 0.56885 0.23705 0.0
C738 C 0.49943 0.6266 0.22642 0.0
C739 C 0.51925 0.67152 0.23678 0.0
C740 C 0.52635 0.70408 0.18487 0.0
C741 C 0.51207 0.71624 0.28103 0.0
C742 C 0.5389 0.63006 0.25556 0.0
C743 C 0.5313 0.57115 0.2564 0.0
C744 C 0.54583 0.52558 0.27609 0.0
C745 C 0.5686 0.54084 0.29594 0.0
C746 C 0.57703 0.60111 0.29476 0.0
C747 C 0.56186 0.6457 0.27294 0.0
H748 H 0.04258 0.14774 0.07168 0.0
H749 H 0.07839 0.04656 0.9472 0.0
H750 H 0.04068 0.99113 0.92871 0.0
H751 H 1.00777 0.02115 0.12181 0.0
H752 H 0.98335 0.07 0.13987 0.0
H753 H 1.01361 0.09819 0.1381 0.0
H754 H 0.99725 0.18189 0.07167 0.0
H755 H 0.96803 0.14756 0.07298 0.0
H756 H 0.98331 0.15811 0.01007 0.0
H757 H 0.99935 0.94213 0.92824 0.0
H758 H 0.95782 0.90735 0.94327 0.0
H759 H 0.94929 0.03853 0.06988 0.0
C760 C 0.0423 0.11503 0.03976 0.0
C761 C 0.06332 0.10238 0.01022 0.0
C762 C 0.06244 0.05753 0.96986 0.0
C763 C 0.04112 0.02571 0.95926 0.0
C764 C 0.02083 0.03854 0.98993 0.0
C765 C 0.02127 0.08212 0.02944 0.0
C766 C 0.9975 0.08476 0.05895 0.0
C767 C 1.00071 0.06756 0.11819 0.0
C768 C 0.98583 0.14676 0.05308 0.0
C769 C 0.98338 0.03706 0.02911 0.0
C770 C 0.99721 0.01051 0.98969 0.0
C771 C 0.98833 0.96349 0.95842 0.0
C772 C 0.96466 0.9441 0.967 0.0
C773 C 0.94986 0.97211 0.00568 0.0
C774 C 0.95966 0.01825 0.03803 0.0
H775 H 0.58443 0.51349 0.55621 0.0
H776 H 0.57376 0.63489 0.42351 0.0
H777 H 0.53204 0.59821 0.41335 0.0
H778 H 0.54989 0.38738 0.50118 0.0
H779 H 0.5381 0.36703 0.5658 0.0
H780 H 0.56724 0.40155 0.56092 0.0
H781 H 0.55401 0.48218 0.62713 0.0
H782 H 0.52371 0.45462 0.62989 0.0
H783 H 0.52918 0.5308 0.61095 0.0
H784 H 0.48989 0.55065 0.42334 0.0
H785 H 0.45283 0.49739 0.45097 0.0
H786 H 0.49296 0.40263 0.57267 0.0
C787 C 0.57378 0.53037 0.52333 0.0
C788 C 0.58283 0.57482 0.48876 0.0
C789 C 0.56744 0.59944 0.44934 0.0
C790 C 0.5437 0.57881 0.44332 0.0
C791 C 0.53558 0.53335 0.47715 0.0
C792 C 0.55035 0.50927 0.51601 0.0
C793 C 0.53723 0.46342 0.54931 0.0
C794 C 0.54881 0.40116 0.54399 0.0
C795 C 0.53607 0.48414 0.60787 0.0
C796 C 0.51269 0.46481 0.52354 0.0
C797 C 0.5119 0.50582 0.48217 0.0
C798 C 0.4905 0.51786 0.45521 0.0
C799 C 0.46951 0.48753 0.47127 0.0
C800 C 0.47004 0.44516 0.51358 0.0
C801 C 0.49207 0.43353 0.53939 0.0
H802 H 0.4571 0.51687 0.06496 0.0
H803 H 0.44339 0.5386 0.89513 0.0
H804 H 0.48358 0.49784 0.87449 0.0
H805 H 0.52128 0.55523 0.06052 0.0
H806 H 0.52853 0.50115 0.11156 0.0
H807 H 0.49936 0.53558 0.11023 0.0
H808 H 0.48078 0.42796 0.10868 0.0
H809 H 0.51018 0.39488 0.10677 0.0
H810 H 0.48868 0.37729 0.05503 0.0
H811 H 0.52552 0.46132 0.87259 0.0
H812 H 0.56585 0.41991 0.88782 0.0
H813 H 0.55205 0.4117 0.05856 0.0
C814 C 0.46276 0.5132 0.02355 0.0
C815 C 0.44757 0.53194 0.98147 0.0
C816 C 0.45513 0.52569 0.92769 0.0
C817 C 0.47783 0.50252 0.91572 0.0
C818 C 0.4926 0.48528 0.95805 0.0
C819 C 0.4854 0.48981 0.01088 0.0
C820 C 0.50473 0.4668 0.04852 0.0
C821 C 0.51404 0.51766 0.08487 0.0
C822 C 0.49554 0.41355 0.08169 0.0
C823 C 0.52372 0.44748 0.00845 0.0
C824 C 0.51642 0.45993 0.95663 0.0
C825 C 0.53125 0.45021 0.91273 0.0
C826 C 0.55405 0.42651 0.92175 0.0
C827 C 0.56165 0.41103 0.97399 0.0
C828 C 0.54636 0.4219 0.0181 0.0
H829 H 0.08744 0.00802 0.46135 0.0
H830 H 0.076 0.87361 0.58316 0.0
H831 H 0.03478 0.91072 0.59732 0.0
H832 H 0.05146 0.13028 0.51943 0.0
H833 H 0.03964 0.15159 0.45501 0.0
H834 H 0.06908 0.11894 0.45973 0.0
H835 H 0.05638 0.04063 0.39084 0.0
H836 H 0.02554 0.06408 0.38908 0.0
H837 H 0.03259 0.98837 0.40616 0.0
H838 H 0.99313 0.95831 0.59152 0.0
H839 H 0.95557 0.01 0.5658 0.0
H840 H 0.99464 0.11361 0.44807 0.0
C841 C 0.07668 0.98831 0.49279 0.0
C842 C 0.08542 0.94 0.52338 0.0
C843 C 0.07001 0.91222 0.56097 0.0
C844 C 0.04651 0.93296 0.56909 0.0
C845 C 0.0385 0.98134 0.53868 0.0
C846 C 0.05322 0.00861 0.5014 0.0
C847 C 0.03962 0.0548 0.46941 0.0
C848 C 0.05061 0.11763 0.47631 0.0
C849 C 0.03858 0.03578 0.41031 0.0
C850 C 1.01508 0.05078 0.49504 0.0
C851 C 1.01466 0.0077 0.53471 0.0
C852 C 0.99342 0.99272 0.56101 0.0
C853 C 0.97214 0.02218 0.54603 0.0
C854 C 0.9722 0.06648 0.50534 0.0
C855 C 0.99411 0.08117 0.48019 0.0
loop_
_geom_bond_atom_site_label_1
_geom_bond_atom_site_label_2
_geom_bond_distance
_geom_bond_site_symmetry_2
_ccdc_geom_bond_type
C0 C1 1.443 . S
C0 N4 1.376 . S
C0 C38 1.389 . S
C1 C0 1.443 . S
C1 C2 1.340 . S
C1 H41 0.951 . S
C2 C1 1.340 . S
C2 C3 1.439 . S
C2 H42 0.950 . S
C3 C2 1.439 . S
C3 N4 1.374 . S
C3 C37 1.395 . S
N4 C0 1.376 . S
N4 C3 1.374 . S
N4 Co5 2.008 . S
Co5 N4 2.008 . S
Co5 N6 1.995 . S
Co5 N11 2.008 . S
Co5 N16 1.995 . S
Co5 N21 2.282 . S
Co5 N27 2.282 . S
N6 Co5 1.995 . S
N6 C7 1.376 . S
N6 C10 1.383 . S
C7 N6 1.376 . S
C7 C8 1.446 . S
C7 C37 1.391 . S
C8 C7 1.446 . S
C8 C9 1.339 . S
C8 H43 0.949 . S
C9 C8 1.339 . S
C9 C10 1.439 . S
C9 H44 0.950 . S
C10 N6 1.383 . S
C10 C9 1.439 . S
C10 C39 1.392 . S
N11 Co5 2.008 . S
N11 C12 1.376 . S
N11 C15 1.374 . S
C12 N11 1.376 . S
C12 C13 1.443 . S
C12 C39 1.389 . S
C13 C12 1.443 . S
C13 C14 1.340 . S
C13 H45 0.951 . S
C14 C13 1.340 . S
C14 C15 1.439 . S
C14 H46 0.950 . S
C15 N11 1.374 . S
C15 C14 1.439 . S
C15 C40 1.395 . S
N16 Co5 1.995 . S
N16 C17 1.376 . S
N16 C20 1.383 . S
C17 N16 1.376 . S
C17 C18 1.446 . S
C17 C40 1.391 . S
C18 C17 1.446 . S
C18 C19 1.339 . S
C18 H47 0.949 . S
C19 C18 1.339 . S
C19 C20 1.439 . S
C19 H48 0.950 . S
C20 N16 1.383 . S
C20 C19 1.439 . S
C20 C38 1.392 . S
N21 Co5 2.282 . S
N21 C24 1.332 . S
N21 C26 1.332 . S
C22 C23 1.386 . S
C22 C25 1.388 . S
C23 C22 1.386 . S
C23 C24 1.382 . S
C23 H49 0.950 . S
C24 N21 1.332 . S
C24 C23 1.382 . S
C24 H35 0.952 . S
C25 C22 1.388 . S
C25 C26 1.382 . S
C25 H50 0.950 . S
C26 N21 1.332 . S
C26 C25 1.382 . S
C26 H36 0.948 . S
N27 Co5 2.282 . S
N27 C31 1.332 . S
N27 C32 1.332 . S
C28 C29 1.388 . S
C28 C32 1.382 . S
C28 H51 0.950 . S
C29 C28 1.388 . S
C29 C30 1.386 . S
C30 C29 1.386 . S
C30 C31 1.382 . S
C30 H52 0.950 . S
C31 N27 1.332 . S
C31 C30 1.382 . S
C31 H33 0.952 . S
C32 N27 1.332 . S
C32 C28 1.382 . S
C32 H34 0.948 . S
H33 C31 0.952 . S
H34 C32 0.948 . S
H35 C24 0.952 . S
H36 C26 0.948 . S
C37 C3 1.395 . S
C37 C7 1.391 . S
C38 C0 1.389 . S
C38 C20 1.392 . S
C39 C10 1.392 . S
C39 C12 1.389 . S
C40 C15 1.395 . S
C40 C17 1.391 . S
H41 C1 0.951 . S
H42 C2 0.950 . S
H43 C8 0.949 . S
H44 C9 0.950 . S
H45 C13 0.951 . S
H46 C14 0.950 . S
H47 C18 0.949 . S
H48 C19 0.950 . S
H49 C23 0.950 . S
H50 C25 0.950 . S
H51 C28 0.950 . S
H52 C30 0.950 . S
C53 C54 1.443 . S
C53 N57 1.376 . S
C53 C91 1.389 . S
C54 C53 1.443 . S
C54 C55 1.340 . S
C54 H94 0.951 . S
C55 C54 1.340 . S
C55 C56 1.439 . S
C55 H95 0.950 . S
C56 C55 1.439 . S
C56 N57 1.374 . S
C56 C90 1.395 . S
N57 C53 1.376 . S
N57 C56 1.374 . S
N57 Co58 2.008 . S
Co58 N57 2.008 . S
Co58 N59 1.995 . S
Co58 N64 2.008 . S
Co58 N69 1.995 . S
Co58 N74 2.282 . S
Co58 N80 2.282 . S
N59 Co58 1.995 . S
N59 C60 1.376 . S
N59 C63 1.383 . S
C60 N59 1.376 . S
C60 C61 1.446 . S
C60 C90 1.391 . S
C61 C60 1.446 . S
C61 C62 1.339 . S
C61 H96 0.949 . S
C62 C61 1.339 . S
C62 C63 1.439 . S
C62 H97 0.950 . S
C63 N59 1.383 . S
C63 C62 1.439 . S
C63 C92 1.392 . S
N64 Co58 2.008 . S
N64 C65 1.376 . S
N64 C68 1.374 . S
C65 N64 1.376 . S
C65 C66 1.443 . S
C65 C92 1.389 . S
C66 C65 1.443 . S
C66 C67 1.340 . S
C66 H98 0.951 . S
C67 C66 1.340 . S
C67 C68 1.439 . S
C67 H99 0.950 . S
C68 N64 1.374 . S
C68 C67 1.439 . S
C68 C93 1.395 . S
N69 Co58 1.995 . S
N69 C70 1.376 . S
N69 C73 1.383 . S
C70 N69 1.376 . S
C70 C71 1.446 . S
C70 C93 1.391 . S
C71 C70 1.446 . S
C71 C72 1.339 . S
C71 H100 0.949 . S
C72 C71 1.339 . S
C72 C73 1.439 . S
C72 H101 0.950 . S
C73 N69 1.383 . S
C73 C72 1.439 . S
C73 C91 1.392 . S
N74 Co58 2.282 . S
N74 C77 1.332 . S
N74 C79 1.332 . S
C75 C76 1.386 . S
C75 C78 1.388 . S
C76 C75 1.386 . S
C76 C77 1.382 . S
C76 H102 0.950 . S
C77 N74 1.332 . S
C77 C76 1.382 . S
C77 H88 0.952 . S
C78 C75 1.388 . S
C78 C79 1.382 . S
C78 H103 0.950 . S
C79 N74 1.332 . S
C79 C78 1.382 . S
C79 H89 0.948 . S
N80 Co58 2.282 . S
N80 C84 1.332 . S
N80 C85 1.332 . S
C81 C82 1.388 . S
C81 C85 1.382 . S
C81 H104 0.950 . S
C82 C81 1.388 . S
C82 C83 1.386 . S
C83 C82 1.386 . S
C83 C84 1.382 . S
C83 H105 0.950 . S
C84 N80 1.332 . S
C84 C83 1.382 . S
C84 H86 0.952 . S
C85 N80 1.332 . S
C85 C81 1.382 . S
C85 H87 0.948 . S
H86 C84 0.952 . S
H87 C85 0.948 . S
H88 C77 0.952 . S
H89 C79 0.948 . S
C90 C56 1.395 . S
C90 C60 1.391 . S
C91 C53 1.389 . S
C91 C73 1.392 . S
C92 C63 1.392 . S
C92 C65 1.389 . S
C93 C68 1.395 . S
C93 C70 1.391 . S
H94 C54 0.951 . S
H95 C55 0.950 . S
H96 C61 0.949 . S
H97 C62 0.950 . S
H98 C66 0.951 . S
H99 C67 0.950 . S
H100 C71 0.949 . S
H101 C72 0.950 . S
H102 C76 0.950 . S
H103 C78 0.950 . S
H104 C81 0.950 . S
H105 C83 0.950 . S
C106 C107 1.443 . S
C106 N110 1.376 . S
C106 C144 1.389 . S
C107 C106 1.443 . S
C107 C108 1.340 . S
C107 H147 0.951 . S
C108 C107 1.340 . S
C108 C109 1.439 . S
C108 H148 0.950 . S
C109 C108 1.439 . S
C109 N110 1.374 . S
C109 C143 1.395 . S
N110 C106 1.376 . S
N110 C109 1.374 . S
N110 Co111 2.008 . S
Co111 N110 2.008 . S
Co111 N112 1.995 . S
Co111 N117 2.008 . S
Co111 N122 1.995 . S
Co111 N127 2.282 . S
Co111 N133 2.282 . S
N112 Co111 1.995 . S
N112 C113 1.376 . S
N112 C116 1.383 . S
C113 N112 1.376 . S
C113 C114 1.446 . S
C113 C143 1.391 . S
C114 C113 1.446 . S
C114 C115 1.339 . S
C114 H149 0.949 . S
C115 C114 1.339 . S
C115 C116 1.439 . S
C115 H150 0.950 . S
C116 N112 1.383 . S
C116 C115 1.439 . S
C116 C145 1.392 . S
N117 Co111 2.008 . S
N117 C118 1.376 . S
N117 C121 1.374 . S
C118 N117 1.376 . S
C118 C119 1.443 . S
C118 C145 1.389 . S
C119 C118 1.443 . S
C119 C120 1.340 . S
C119 H151 0.951 . S
C120 C119 1.340 . S
C120 C121 1.439 . S
C120 H152 0.950 . S
C121 N117 1.374 . S
C121 C120 1.439 . S
C121 C146 1.395 . S
N122 Co111 1.995 . S
N122 C123 1.376 . S
N122 C126 1.383 . S
C123 N122 1.376 . S
C123 C124 1.446 . S
C123 C146 1.391 . S
C124 C123 1.446 . S
C124 C125 1.339 . S
C124 H153 0.949 . S
C125 C124 1.339 . S
C125 C126 1.439 . S
C125 H154 0.950 . S
C126 N122 1.383 . S
C126 C125 1.439 . S
C126 C144 1.392 . S
N127 Co111 2.282 . S
N127 C130 1.332 . S
N127 C132 1.332 . S
C128 C129 1.386 . S
C128 C131 1.388 . S
C129 C128 1.386 . S
C129 C130 1.382 . S
C129 H155 0.950 . S
C130 N127 1.332 . S
C130 C129 1.382 . S
C130 H141 0.952 . S
C131 C128 1.388 . S
C131 C132 1.382 . S
C131 H156 0.950 . S
C132 N127 1.332 . S
C132 C131 1.382 . S
C132 H142 0.948 . S
N133 Co111 2.282 . S
N133 C137 1.332 . S
N133 C138 1.332 . S
C134 C135 1.388 . S
C134 C138 1.382 . S
C134 H157 0.950 . S
C135 C134 1.388 . S
C135 C136 1.386 . S
C136 C135 1.386 . S
C136 C137 1.382 . S
C136 H158 0.950 . S
C137 N133 1.332 . S
C137 C136 1.382 . S
C137 H139 0.952 . S
C138 N133 1.332 . S
C138 C134 1.382 . S
C138 H140 0.948 . S
H139 C137 0.952 . S
H140 C138 0.948 . S
H141 C130 0.952 . S
H142 C132 0.948 . S
C143 C109 1.395 . S
C143 C113 1.391 . S
C144 C106 1.389 . S
C144 C126 1.392 . S
C145 C116 1.392 . S
C145 C118 1.389 . S
C146 C121 1.395 . S
C146 C123 1.391 . S
H147 C107 0.951 . S
H148 C108 0.950 . S
H149 C114 0.949 . S
H150 C115 0.950 . S
H151 C119 0.951 . S
H152 C120 0.950 . S
H153 C124 0.949 . S
H154 C125 0.950 . S
H155 C129 0.950 . S
H156 C131 0.950 . S
H157 C134 0.950 . S
H158 C136 0.950 . S
C159 C160 1.443 . S
C159 N163 1.376 . S
C159 C197 1.389 . S
C160 C159 1.443 . S
C160 C161 1.340 . S
C160 H200 0.951 . S
C161 C160 1.340 . S
C161 C162 1.439 . S
C161 H201 0.950 . S
C162 C161 1.439 . S
C162 N163 1.374 . S
C162 C196 1.395 . S
N163 C159 1.376 . S
N163 C162 1.374 . S
N163 Co164 2.008 . S
Co164 N163 2.008 . S
Co164 N165 1.995 . S
Co164 N170 2.008 . S
Co164 N175 1.995 . S
Co164 N180 2.282 . S
Co164 N186 2.282 . S
N165 Co164 1.995 . S
N165 C166 1.376 . S
N165 C169 1.383 . S
C166 N165 1.376 . S
C166 C167 1.446 . S
C166 C196 1.391 . S
C167 C166 1.446 . S
C167 C168 1.339 . S
C167 H202 0.949 . S
C168 C167 1.339 . S
C168 C169 1.439 . S
C168 H203 0.950 . S
C169 N165 1.383 . S
C169 C168 1.439 . S
C169 C198 1.392 . S
N170 Co164 2.008 . S
N170 C171 1.376 . S
N170 C174 1.374 . S
C171 N170 1.376 . S
C171 C172 1.443 . S
C171 C198 1.389 . S
C172 C171 1.443 . S
C172 C173 1.340 . S
C172 H204 0.951 . S
C173 C172 1.340 . S
C173 C174 1.439 . S
C173 H205 0.950 . S
C174 N170 1.374 . S
C174 C173 1.439 . S
C174 C199 1.395 . S
N175 Co164 1.995 . S
N175 C176 1.376 . S
N175 C179 1.383 . S
C176 N175 1.376 . S
C176 C177 1.446 . S
C176 C199 1.391 . S
C177 C176 1.446 . S
C177 C178 1.339 . S
C177 H206 0.949 . S
C178 C177 1.339 . S
C178 C179 1.439 . S
C178 H207 0.950 . S
C179 N175 1.383 . S
C179 C178 1.439 . S
C179 C197 1.392 . S
N180 Co164 2.282 . S
N180 C183 1.332 . S
N180 C185 1.332 . S
C181 C182 1.386 . S
C181 C184 1.388 . S
C182 C181 1.386 . S
C182 C183 1.382 . S
C182 H208 0.950 . S
C183 N180 1.332 . S
C183 C182 1.382 . S
C183 H194 0.952 . S
C184 C181 1.388 . S
C184 C185 1.382 . S
C184 H209 0.950 . S
C185 N180 1.332 . S
C185 C184 1.382 . S
C185 H195 0.948 . S
N186 Co164 2.282 . S
N186 C190 1.332 . S
N186 C191 1.332 . S
C187 C188 1.388 . S
C187 C191 1.382 . S
C187 H210 0.950 . S
C188 C187 1.388 . S
C188 C189 1.386 . S
C189 C188 1.386 . S
C189 C190 1.382 . S
C189 H211 0.950 . S
C190 N186 1.332 . S
C190 C189 1.382 . S
C190 H192 0.952 . S
C191 N186 1.332 . S
C191 C187 1.382 . S
C191 H193 0.948 . S
H192 C190 0.952 . S
H193 C191 0.948 . S
H194 C183 0.952 . S
H195 C185 0.948 . S
C196 C162 1.395 . S
C196 C166 1.391 . S
C197 C159 1.389 . S
C197 C179 1.392 . S
C198 C169 1.392 . S
C198 C171 1.389 . S
C199 C174 1.395 . S
C199 C176 1.391 . S
H200 C160 0.951 . S
H201 C161 0.950 . S
H202 C167 0.949 . S
H203 C168 0.950 . S
H204 C172 0.951 . S
H205 C173 0.950 . S
H206 C177 0.949 . S
H207 C178 0.950 . S
H208 C182 0.950 . S
H209 C184 0.950 . S
H210 C187 0.950 . S
H211 C189 0.950 . S
C212 C213 1.443 . S
C212 N216 1.376 . S
C212 C250 1.389 1_556 S
C213 C212 1.443 . S
C213 C214 1.340 . S
C213 H253 0.950 1_556 S
C214 C213 1.340 . S
C214 C215 1.439 . S
C214 H254 0.950 1_565 S
C215 C214 1.439 . S
C215 N216 1.374 . S
C215 C249 1.395 . S
N216 C212 1.376 . S
N216 C215 1.374 . S
N216 Co217 2.008 . S
Co217 N216 2.008 . S
Co217 N218 1.995 . S
Co217 N223 2.008 . S
Co217 N228 1.995 . S
Co217 N233 2.282 1_556 S
Co217 N239 2.282 . S
N218 Co217 1.995 . S
N218 C219 1.376 . S
N218 C222 1.383 . S
C219 N218 1.376 . S
C219 C220 1.446 . S
C219 C249 1.391 . S
C220 C219 1.446 . S
C220 C221 1.339 . S
C220 H255 0.949 . S
C221 C220 1.339 . S
C221 C222 1.439 . S
C221 H256 0.950 . S
C222 N218 1.383 . S
C222 C221 1.439 . S
C222 C251 1.392 . S
N223 Co217 2.008 . S
N223 C224 1.376 . S
N223 C227 1.374 . S
C224 N223 1.376 . S
C224 C225 1.443 . S
C224 C251 1.389 . S
C225 C224 1.443 . S
C225 C226 1.340 . S
C225 H257 0.951 . S
C226 C225 1.340 . S
C226 C227 1.439 . S
C226 H258 0.950 . S
C227 N223 1.374 . S
C227 C226 1.439 . S
C227 C252 1.395 . S
N228 Co217 1.995 . S
N228 C229 1.376 1_556 S
N228 C232 1.383 1_556 S
C229 N228 1.376 1_554 S
C229 C230 1.446 . S
C229 C252 1.391 1_554 S
C230 C229 1.446 . S
C230 C231 1.339 . S
C230 H259 0.949 . S
C231 C230 1.339 . S
C231 C232 1.439 . S
C231 H260 0.950 . S
C232 N228 1.383 1_554 S
C232 C231 1.439 . S
C232 C250 1.392 . S
N233 Co217 2.282 1_554 S
N233 C236 1.332 . S
N233 C238 1.332 . S
C234 C235 1.386 . S
C234 C237 1.388 . S
C235 C234 1.386 . S
C235 C236 1.382 . S
C235 H261 0.950 . S
C236 N233 1.332 . S
C236 C235 1.382 . S
C236 H247 0.952 . S
C237 C234 1.388 . S
C237 C238 1.382 . S
C237 H262 0.950 . S
C238 N233 1.332 . S
C238 C237 1.382 . S
C238 H248 0.948 1_554 S
N239 Co217 2.282 . S
N239 C243 1.332 . S
N239 C244 1.332 . S
C240 C241 1.388 . S
C240 C244 1.382 . S
C240 H263 0.950 . S
C241 C240 1.388 . S
C241 C242 1.386 . S
C242 C241 1.386 . S
C242 C243 1.382 . S
C242 H264 0.950 . S
C243 N239 1.332 . S
C243 C242 1.382 . S
C243 H245 0.952 . S
C244 N239 1.332 . S
C244 C240 1.382 . S
C244 H246 0.948 . S
H245 C243 0.952 . S
H246 C244 0.948 . S
H247 C236 0.952 . S
H248 C238 0.948 1_556 S
C249 C215 1.395 . S
C249 C219 1.391 . S
C250 C212 1.389 1_554 S
C250 C232 1.392 . S
C251 C222 1.392 . S
C251 C224 1.389 . S
C252 C227 1.395 . S
C252 C229 1.391 1_556 S
H253 C213 0.950 1_554 S
H254 C214 0.950 1_545 S
H255 C220 0.949 . S
H256 C221 0.950 . S
H257 C225 0.951 . S
H258 C226 0.950 . S
H259 C230 0.949 . S
H260 C231 0.950 . S
H261 C235 0.950 . S
H262 C237 0.950 . S
H263 C240 0.950 . S
H264 C242 0.950 . S
C265 C266 1.443 . S
C265 N269 1.376 . S
C265 C303 1.389 . S
C266 C265 1.443 . S
C266 C267 1.340 . S
C266 H306 0.951 . S
C267 C266 1.340 . S
C267 C268 1.439 . S
C267 H307 0.950 . S
C268 C267 1.439 . S
C268 N269 1.374 . S
C268 C302 1.395 . S
N269 C265 1.376 . S
N269 C268 1.374 . S
N269 Co270 2.008 . S
Co270 N269 2.008 . S
Co270 N271 1.995 . S
Co270 N276 2.008 . S
Co270 N281 1.995 . S
Co270 N286 2.282 . S
Co270 N292 2.282 . S
N271 Co270 1.995 . S
N271 C272 1.376 . S
N271 C275 1.383 . S
C272 N271 1.376 . S
C272 C273 1.446 . S
C272 C302 1.391 . S
C273 C272 1.446 . S
C273 C274 1.339 . S
C273 H308 0.949 . S
C274 C273 1.339 . S
C274 C275 1.439 . S
C274 H309 0.950 . S
C275 N271 1.383 . S
C275 C274 1.439 . S
C275 C304 1.392 . S
N276 Co270 2.008 . S
N276 C277 1.376 . S
N276 C280 1.374 . S
C277 N276 1.376 . S
C277 C278 1.443 . S
C277 C304 1.389 . S
C278 C277 1.443 . S
C278 C279 1.340 . S
C278 H310 0.951 . S
C279 C278 1.340 . S
C279 C280 1.439 . S
C279 H311 0.950 . S
C280 N276 1.374 . S
C280 C279 1.439 . S
C280 C305 1.395 . S
N281 Co270 1.995 . S
N281 C282 1.376 . S
N281 C285 1.383 . S
C282 N281 1.376 . S
C282 C283 1.446 . S
C282 C305 1.391 . S
C283 C282 1.446 . S
C283 C284 1.339 . S
C283 H312 0.949 . S
C284 C283 1.339 . S
C284 C285 1.439 . S
C284 H313 0.950 . S
C285 N281 1.383 . S
C285 C284 1.439 . S
C285 C303 1.392 . S
N286 Co270 2.282 . S
N286 C289 1.332 . S
N286 C291 1.332 . S
C287 C288 1.386 . S
C287 C290 1.388 . S
C288 C287 1.386 . S
C288 C289 1.382 . S
C288 H314 0.950 . S
C289 N286 1.332 . S
C289 C288 1.382 . S
C289 H300 0.952 . S
C290 C287 1.388 . S
C290 C291 1.382 . S
C290 H315 0.950 . S
C291 N286 1.332 . S
C291 C290 1.382 . S
C291 H301 0.948 . S
N292 Co270 2.282 . S
N292 C296 1.332 . S
N292 C297 1.332 . S
C293 C294 1.388 . S
C293 C297 1.382 . S
C293 H316 0.950 . S
C294 C293 1.388 . S
C294 C295 1.386 . S
C295 C294 1.386 . S
C295 C296 1.382 . S
C295 H317 0.950 . S
C296 N292 1.332 . S
C296 C295 1.382 . S
C296 H298 0.952 . S
C297 N292 1.332 . S
C297 C293 1.382 . S
C297 H299 0.948 . S
H298 C296 0.952 . S
H299 C297 0.948 . S
H300 C289 0.952 . S
H301 C291 0.948 . S
C302 C268 1.395 . S
C302 C272 1.391 . S
C303 C265 1.389 . S
C303 C285 1.392 . S
C304 C275 1.392 . S
C304 C277 1.389 . S
C305 C280 1.395 . S
C305 C282 1.391 . S
H306 C266 0.951 . S
H307 C267 0.950 . S
H308 C273 0.949 . S
H309 C274 0.950 . S
H310 C278 0.951 . S
H311 C279 0.950 . S
H312 C283 0.949 . S
H313 C284 0.950 . S
H314 C288 0.950 . S
H315 C290 0.950 . S
H316 C293 0.950 . S
H317 C295 0.950 . S
C318 C319 1.443 . S
C318 N322 1.376 . S
C318 C356 1.389 1_554 S
C319 C318 1.443 . S
C319 C320 1.340 . S
C319 H359 0.950 1_554 S
C320 C319 1.340 . S
C320 C321 1.439 . S
C320 H360 0.950 . S
C321 C320 1.439 . S
C321 N322 1.374 . S
C321 C355 1.395 . S
N322 C318 1.376 . S
N322 C321 1.374 . S
N322 Co323 2.008 . S
Co323 N322 2.008 . S
Co323 N324 1.995 . S
Co323 N329 2.008 . S
Co323 N334 1.995 . S
Co323 N339 2.282 1_554 S
Co323 N345 2.282 . S
N324 Co323 1.995 . S
N324 C325 1.376 . S
N324 C328 1.383 . S
C325 N324 1.376 . S
C325 C326 1.446 . S
C325 C355 1.391 . S
C326 C325 1.446 . S
C326 C327 1.339 . S
C326 H361 0.949 . S
C327 C326 1.339 . S
C327 C328 1.439 . S
C327 H362 0.950 . S
C328 N324 1.383 . S
C328 C327 1.439 . S
C328 C357 1.392 . S
N329 Co323 2.008 . S
N329 C330 1.376 . S
N329 C333 1.374 . S
C330 N329 1.376 . S
C330 C331 1.443 . S
C330 C357 1.389 . S
C331 C330 1.443 . S
C331 C332 1.340 . S
C331 H363 0.951 . S
C332 C331 1.340 . S
C332 C333 1.439 . S
C332 H364 0.950 . S
C333 N329 1.374 . S
C333 C332 1.439 . S
C333 C358 1.395 . S
N334 Co323 1.995 . S
N334 C335 1.376 1_554 S
N334 C338 1.383 1_554 S
C335 N334 1.376 1_556 S
C335 C336 1.446 . S
C335 C358 1.391 1_556 S
C336 C335 1.446 . S
C336 C337 1.339 . S
C336 H365 0.949 . S
C337 C336 1.339 . S
C337 C338 1.439 . S
C337 H366 0.950 . S
C338 N334 1.383 1_556 S
C338 C337 1.439 . S
C338 C356 1.392 . S
N339 Co323 2.282 1_556 S
N339 C342 1.332 . S
N339 C344 1.332 . S
C340 C341 1.386 . S
C340 C343 1.388 . S
C341 C340 1.386 . S
C341 C342 1.382 . S
C341 H367 0.950 . S
C342 N339 1.332 . S
C342 C341 1.382 . S
C342 H353 0.952 . S
C343 C340 1.388 . S
C343 C344 1.382 . S
C343 H368 0.950 . S
C344 N339 1.332 . S
C344 C343 1.382 . S
C344 H354 0.948 1_556 S
N345 Co323 2.282 . S
N345 C349 1.332 . S
N345 C350 1.332 . S
C346 C347 1.388 . S
C346 C350 1.382 . S
C346 H369 0.950 . S
C347 C346 1.388 . S
C347 C348 1.386 . S
C348 C347 1.386 . S
C348 C349 1.382 . S
C348 H370 0.950 . S
C349 N345 1.332 . S
C349 C348 1.382 . S
C349 H351 0.952 . S
C350 N345 1.332 . S
C350 C346 1.382 . S
C350 H352 0.948 . S
H351 C349 0.952 . S
H352 C350 0.948 . S
H353 C342 0.952 . S
H354 C344 0.948 1_554 S
C355 C321 1.395 . S
C355 C325 1.391 . S
C356 C318 1.389 1_556 S
C356 C338 1.392 . S
C357 C328 1.392 . S
C357 C330 1.389 . S
C358 C333 1.395 . S
C358 C335 1.391 1_554 S
H359 C319 0.950 1_556 S
H360 C320 0.950 . S
H361 C326 0.949 . S
H362 C327 0.950 . S
H363 C331 0.951 . S
H364 C332 0.950 . S
H365 C336 0.949 . S
H366 C337 0.950 . S
H367 C341 0.950 . S
H368 C343 0.950 . S
H369 C346 0.950 . S
H370 C348 0.950 . S
C371 C372 1.443 . S
C371 N375 1.376 . S
C371 C409 1.389 . S
C372 C371 1.443 . S
C372 C373 1.340 . S
C372 H412 0.951 . S
C373 C372 1.340 . S
C373 C374 1.439 . S
C373 H413 0.950 1_565 S
C374 C373 1.439 . S
C374 N375 1.374 . S
C374 C408 1.395 . S
N375 C371 1.376 . S
N375 C374 1.374 . S
N375 Co376 2.008 . S
Co376 N375 2.008 . S
Co376 N377 1.995 . S
Co376 N382 2.008 . S
Co376 N387 1.995 . S
Co376 N392 2.282 . S
Co376 N398 2.282 . S
N377 Co376 1.995 . S
N377 C378 1.376 . S
N377 C381 1.383 . S
C378 N377 1.376 . S
C378 C379 1.446 . S
C378 C408 1.391 . S
C379 C378 1.446 . S
C379 C380 1.339 . S
C379 H414 0.949 . S
C380 C379 1.339 . S
C380 C381 1.439 . S
C380 H415 0.950 . S
C381 N377 1.383 . S
C381 C380 1.439 . S
C381 C410 1.392 . S
N382 Co376 2.008 . S
N382 C383 1.376 . S
N382 C386 1.374 . S
C383 N382 1.376 . S
C383 C384 1.443 . S
C383 C410 1.389 . S
C384 C383 1.443 . S
C384 C385 1.340 . S
C384 H416 0.951 . S
C385 C384 1.340 . S
C385 C386 1.439 . S
C385 H417 0.950 . S
C386 N382 1.374 . S
C386 C385 1.439 . S
C386 C411 1.395 . S
N387 Co376 1.995 . S
N387 C388 1.376 . S
N387 C391 1.383 . S
C388 N387 1.376 . S
C388 C389 1.446 . S
C388 C411 1.391 . S
C389 C388 1.446 . S
C389 C390 1.339 . S
C389 H418 0.949 . S
C390 C389 1.339 . S
C390 C391 1.439 . S
C390 H419 0.950 . S
C391 N387 1.383 . S
C391 C390 1.439 . S
C391 C409 1.392 . S
N392 Co376 2.282 . S
N392 C395 1.332 . S
N392 C397 1.332 . S
C393 C394 1.386 . S
C393 C396 1.388 . S
C394 C393 1.386 . S
C394 C395 1.382 . S
C394 H420 0.950 . S
C395 N392 1.332 . S
C395 C394 1.382 . S
C395 H406 0.952 . S
C396 C393 1.388 . S
C396 C397 1.382 . S
C396 H421 0.950 . S
C397 N392 1.332 . S
C397 C396 1.382 . S
C397 H407 0.948 . S
N398 Co376 2.282 . S
N398 C402 1.332 . S
N398 C403 1.332 . S
C399 C400 1.388 . S
C399 C403 1.382 . S
C399 H422 0.950 . S
C400 C399 1.388 . S
C400 C401 1.386 . S
C401 C400 1.386 . S
C401 C402 1.382 . S
C401 H423 0.950 . S
C402 N398 1.332 . S
C402 C401 1.382 . S
C402 H404 0.952 . S
C403 N398 1.332 . S
C403 C399 1.382 . S
C403 H405 0.948 . S
H404 C402 0.952 . S
H405 C403 0.948 . S
H406 C395 0.952 . S
H407 C397 0.948 . S
C408 C374 1.395 . S
C408 C378 1.391 . S
C409 C371 1.389 . S
C409 C391 1.392 . S
C410 C381 1.392 . S
C410 C383 1.389 . S
C411 C386 1.395 . S
C411 C388 1.391 . S
H412 C372 0.951 . S
H413 C373 0.950 1_545 S
H414 C379 0.949 . S
H415 C380 0.950 . S
H416 C384 0.951 . S
H417 C385 0.950 . S
H418 C389 0.949 . S
H419 C390 0.950 . S
H420 C394 0.950 . S
H421 C396 0.950 . S
H422 C399 0.950 . S
H423 C401 0.950 . S
H424 C436 0.930 . S
H425 C438 0.930 . S
H426 C439 0.930 . S
H427 C443 0.959 . S
H428 C443 0.959 1_554 S
H429 C443 0.961 . S
H430 C444 0.960 . S
H431 C444 0.961 . S
H432 C444 0.959 . S
H433 C447 0.929 . S
H434 C448 0.931 . S
H435 C450 0.930 . S
C436 H424 0.930 . S
C436 C437 1.399 . S
C436 C441 1.399 . S
C437 C436 1.399 . S
C437 C438 1.376 . S
C438 H425 0.930 . S
C438 C437 1.376 . S
C438 C439 1.388 . S
C439 H426 0.930 . S
C439 C438 1.388 . S
C439 C440 1.390 . S
C440 C439 1.390 . S
C440 C441 1.394 . S
C440 C446 1.465 . S
C441 C436 1.399 . S
C441 C440 1.394 . S
C441 C442 1.516 . S
C442 C441 1.516 . S
C442 C443 1.502 . S
C442 C444 1.561 . S
C442 C445 1.526 . S
C443 H427 0.959 . S
C443 H428 0.959 1_556 S
C443 H429 0.961 . S
C443 C442 1.502 . S
C444 H430 0.960 . S
C444 H431 0.961 . S
C444 H432 0.959 . S
C444 C442 1.561 . S
C445 C442 1.526 . S
C445 C446 1.396 . S
C445 C450 1.390 1_556 S
C446 C440 1.465 . S
C446 C445 1.396 . S
C446 C447 1.399 . S
C447 H433 0.929 . S
C447 C446 1.399 . S
C447 C448 1.385 . S
C448 H434 0.931 . S
C448 C447 1.385 . S
C448 C449 1.389 1_556 S
C449 C448 1.389 1_554 S
C449 C450 1.387 . S
C450 H435 0.930 . S
C450 C445 1.390 1_554 S
C450 C449 1.387 . S
H451 C463 0.930 . S
H452 C465 0.930 . S
H453 C466 0.930 . S
H454 C470 0.959 . S
H455 C470 0.959 . S
H456 C470 0.961 . S
H457 C471 0.960 . S
H458 C471 0.961 . S
H459 C471 0.959 . S
H460 C474 0.929 . S
H461 C475 0.931 . S
H462 C477 0.930 . S
C463 H451 0.930 . S
C463 C464 1.399 . S
C463 C468 1.399 . S
C464 C463 1.399 . S
C464 C465 1.376 . S
C465 H452 0.930 . S
C465 C464 1.376 . S
C465 C466 1.388 . S
C466 H453 0.930 . S
C466 C465 1.388 . S
C466 C467 1.390 . S
C467 C466 1.390 . S
C467 C468 1.394 . S
C467 C473 1.465 . S
C468 C463 1.399 . S
C468 C467 1.394 . S
C468 C469 1.516 . S
C469 C468 1.516 . S
C469 C470 1.502 . S
C469 C471 1.561 . S
C469 C472 1.526 . S
C470 H454 0.959 . S
C470 H455 0.959 . S
C470 H456 0.961 . S
C470 C469 1.502 . S
C471 H457 0.960 . S
C471 H458 0.961 . S
C471 H459 0.959 . S
C471 C469 1.561 . S
C472 C469 1.526 . S
C472 C473 1.396 . S
C472 C477 1.390 . S
C473 C467 1.465 . S
C473 C472 1.396 . S
C473 C474 1.399 . S
C474 H460 0.929 . S
C474 C473 1.399 . S
C474 C475 1.385 . S
C475 H461 0.931 . S
C475 C474 1.385 . S
C475 C476 1.389 . S
C476 C475 1.389 . S
C476 C477 1.387 . S
C477 H462 0.930 . S
C477 C472 1.390 . S
C477 C476 1.387 . S
H478 C490 0.930 . S
H479 C492 0.930 . S
H480 C493 0.930 . S
H481 C497 0.959 . S
H482 C497 0.959 . S
H483 C497 0.961 . S
H484 C498 0.960 . S
H485 C498 0.961 . S
H486 C498 0.959 . S
H487 C501 0.929 . S
H488 C502 0.931 . S
H489 C504 0.930 . S
C490 H478 0.930 . S
C490 C491 1.399 . S
C490 C495 1.399 . S
C491 C490 1.399 . S
C491 C492 1.376 . S
C492 H479 0.930 . S
C492 C491 1.376 . S
C492 C493 1.388 . S
C493 H480 0.930 . S
C493 C492 1.388 . S
C493 C494 1.390 . S
C494 C493 1.390 . S
C494 C495 1.394 . S
C494 C500 1.465 . S
C495 C490 1.399 . S
C495 C494 1.394 . S
C495 C496 1.516 . S
C496 C495 1.516 . S
C496 C497 1.502 . S
C496 C498 1.561 . S
C496 C499 1.526 . S
C497 H481 0.959 . S
C497 H482 0.959 . S
C497 H483 0.961 . S
C497 C496 1.502 . S
C498 H484 0.960 . S
C498 H485 0.961 . S
C498 H486 0.959 . S
C498 C496 1.561 . S
C499 C496 1.526 . S
C499 C500 1.396 . S
C499 C504 1.390 . S
C500 C494 1.465 . S
C500 C499 1.396 . S
C500 C501 1.399 . S
C501 H487 0.929 . S
C501 C500 1.399 . S
C501 C502 1.385 . S
C502 H488 0.931 . S
C502 C501 1.385 . S
C502 C503 1.389 1_554 S
C503 C502 1.389 1_556 S
C503 C504 1.387 1_556 S
C504 H489 0.930 . S
C504 C499 1.390 . S
C504 C503 1.387 1_554 S
H505 C517 0.930 . S
H506 C519 0.930 . S
H507 C520 0.930 . S
H508 C524 0.959 . S
H509 C524 0.959 . S
H510 C524 0.961 . S
H511 C525 0.960 . S
H512 C525 0.961 . S
H513 C525 0.959 . S
H514 C528 0.929 . S
H515 C529 0.931 . S
H516 C531 0.930 . S
C517 H505 0.930 . S
C517 C518 1.399 . S
C517 C522 1.399 . S
C518 C517 1.399 . S
C518 C519 1.376 . S
C519 H506 0.930 . S
C519 C518 1.376 . S
C519 C520 1.388 . S
C520 H507 0.930 . S
C520 C519 1.388 . S
C520 C521 1.390 . S
C521 C520 1.390 . S
C521 C522 1.394 . S
C521 C527 1.465 . S
C522 C517 1.399 . S
C522 C521 1.394 . S
C522 C523 1.516 . S
C523 C522 1.516 . S
C523 C524 1.502 . S
C523 C525 1.561 . S
C523 C526 1.526 . S
C524 H508 0.959 . S
C524 H509 0.959 . S
C524 H510 0.961 . S
C524 C523 1.502 . S
C525 H511 0.960 . S
C525 H512 0.961 . S
C525 H513 0.959 . S
C525 C523 1.561 . S
C526 C523 1.526 . S
C526 C527 1.396 . S
C526 C531 1.390 . S
C527 C521 1.465 . S
C527 C526 1.396 . S
C527 C528 1.399 . S
C528 H514 0.929 . S
C528 C527 1.399 . S
C528 C529 1.385 . S
C529 H515 0.931 . S
C529 C528 1.385 . S
C529 C530 1.389 . S
C530 C529 1.389 . S
C530 C531 1.387 . S
C531 H516 0.930 . S
C531 C526 1.390 . S
C531 C530 1.387 . S
H532 C544 0.930 . S
H533 C546 0.930 . S
H534 C547 0.930 . S
H535 C551 0.959 . S
H536 C551 0.959 . S
H537 C551 0.961 . S
H538 C552 0.960 . S
H539 C552 0.961 . S
H540 C552 0.959 . S
H541 C555 0.929 . S
H542 C556 0.931 . S
H543 C558 0.930 . S
C544 H532 0.930 . S
C544 C545 1.399 . S
C544 C549 1.399 . S
C545 C544 1.399 . S
C545 C546 1.376 . S
C546 H533 0.930 . S
C546 C545 1.376 . S
C546 C547 1.388 . S
C547 H534 0.930 . S
C547 C546 1.388 . S
C547 C548 1.390 . S
C548 C547 1.390 . S
C548 C549 1.394 . S
C548 C554 1.465 . S
C549 C544 1.399 . S
C549 C548 1.394 . S
C549 C550 1.516 . S
C550 C549 1.516 . S
C550 C551 1.502 . S
C550 C552 1.561 . S
C550 C553 1.526 . S
C551 H535 0.959 . S
C551 H536 0.959 . S
C551 H537 0.961 . S
C551 C550 1.502 . S
C552 H538 0.960 . S
C552 H539 0.961 . S
C552 H540 0.959 . S
C552 C550 1.561 . S
C553 C550 1.526 . S
C553 C554 1.396 . S
C553 C558 1.390 . S
C554 C548 1.465 . S
C554 C553 1.396 . S
C554 C555 1.399 . S
C555 H541 0.929 . S
C555 C554 1.399 . S
C555 C556 1.385 . S
C556 H542 0.931 . S
C556 C555 1.385 . S
C556 C557 1.389 . S
C557 C556 1.389 . S
C557 C558 1.387 . S
C558 H543 0.930 . S
C558 C553 1.390 . S
C558 C557 1.387 . S
H559 C571 0.930 . S
H560 C573 0.930 . S
H561 C574 0.930 . S
H562 C578 0.959 . S
H563 C578 0.959 . S
H564 C578 0.961 . S
H565 C579 0.960 . S
H566 C579 0.961 . S
H567 C579 0.959 . S
H568 C582 0.929 . S
H569 C583 0.931 . S
H570 C585 0.930 . S
C571 H559 0.930 . S
C571 C572 1.399 . S
C571 C576 1.399 . S
C572 C571 1.399 . S
C572 C573 1.376 . S
C573 H560 0.930 . S
C573 C572 1.376 . S
C573 C574 1.388 . S
C574 H561 0.930 . S
C574 C573 1.388 . S
C574 C575 1.390 . S
C575 C574 1.390 . S
C575 C576 1.394 . S
C575 C581 1.465 . S
C576 C571 1.399 . S
C576 C575 1.394 . S
C576 C577 1.516 . S
C577 C576 1.516 . S
C577 C578 1.502 . S
C577 C579 1.561 . S
C577 C580 1.526 . S
C578 H562 0.959 . S
C578 H563 0.959 . S
C578 H564 0.961 . S
C578 C577 1.502 . S
C579 H565 0.960 . S
C579 H566 0.961 . S
C579 H567 0.959 . S
C579 C577 1.561 . S
C580 C577 1.526 . S
C580 C581 1.396 . S
C580 C585 1.390 . S
C581 C575 1.465 . S
C581 C580 1.396 . S
C581 C582 1.399 . S
C582 H568 0.929 . S
C582 C581 1.399 . S
C582 C583 1.385 . S
C583 H569 0.931 . S
C583 C582 1.385 . S
C583 C584 1.389 . S
C584 C583 1.389 . S
C584 C585 1.387 . S
C585 H570 0.930 . S
C585 C580 1.390 . S
C585 C584 1.387 . S
H586 C598 0.930 . S
H587 C600 0.930 . S
H588 C601 0.930 . S
H589 C605 0.959 . S
H590 C605 0.959 . S
H591 C605 0.961 . S
H592 C606 0.960 . S
H593 C606 0.961 . S
H594 C606 0.959 . S
H595 C609 0.929 . S
H596 C610 0.931 . S
H597 C612 0.930 . S
C598 H586 0.930 . S
C598 C599 1.399 . S
C598 C603 1.399 . S
C599 C598 1.399 . S
C599 C600 1.376 . S
C600 H587 0.930 . S
C600 C599 1.376 . S
C600 C601 1.388 . S
C601 H588 0.930 . S
C601 C600 1.388 . S
C601 C602 1.390 . S
C602 C601 1.390 . S
C602 C603 1.394 . S
C602 C608 1.465 . S
C603 C598 1.399 . S
C603 C602 1.394 . S
C603 C604 1.516 . S
C604 C603 1.516 . S
C604 C605 1.502 . S
C604 C606 1.561 . S
C604 C607 1.526 . S
C605 H589 0.959 . S
C605 H590 0.959 . S
C605 H591 0.961 . S
C605 C604 1.502 . S
C606 H592 0.960 . S
C606 H593 0.961 . S
C606 H594 0.959 . S
C606 C604 1.561 . S
C607 C604 1.526 . S
C607 C608 1.396 . S
C607 C612 1.390 . S
C608 C602 1.465 . S
C608 C607 1.396 . S
C608 C609 1.399 . S
C609 H595 0.929 . S
C609 C608 1.399 . S
C609 C610 1.385 . S
C610 H596 0.931 . S
C610 C609 1.385 . S
C610 C611 1.389 . S
C611 C610 1.389 . S
C611 C612 1.387 . S
C612 H597 0.930 . S
C612 C607 1.390 . S
C612 C611 1.387 . S
H613 C625 0.930 . S
H614 C627 0.930 . S
H615 C628 0.930 . S
H616 C632 0.959 . S
H617 C632 0.959 . S
H618 C632 0.961 . S
H619 C633 0.960 . S
H620 C633 0.961 . S
H621 C633 0.959 . S
H622 C636 0.929 . S
H623 C637 0.931 . S
H624 C639 0.930 . S
C625 H613 0.930 . S
C625 C626 1.399 . S
C625 C630 1.399 . S
C626 C625 1.399 . S
C626 C627 1.376 . S
C627 H614 0.930 . S
C627 C626 1.376 . S
C627 C628 1.388 . S
C628 H615 0.930 . S
C628 C627 1.388 . S
C628 C629 1.390 . S
C629 C628 1.390 . S
C629 C630 1.394 . S
C629 C635 1.465 . S
C630 C625 1.399 . S
C630 C629 1.394 . S
C630 C631 1.516 . S
C631 C630 1.516 . S
C631 C632 1.502 . S
C631 C633 1.561 . S
C631 C634 1.526 . S
C632 H616 0.959 . S
C632 H617 0.959 . S
C632 H618 0.961 . S
C632 C631 1.502 . S
C633 H619 0.960 . S
C633 H620 0.961 . S
C633 H621 0.959 . S
C633 C631 1.561 . S
C634 C631 1.526 . S
C634 C635 1.396 . S
C634 C639 1.390 . S
C635 C629 1.465 . S
C635 C634 1.396 . S
C635 C636 1.399 . S
C636 H622 0.929 . S
C636 C635 1.399 . S
C636 C637 1.385 . S
C637 H623 0.931 . S
C637 C636 1.385 . S
C637 C638 1.389 . S
C638 C637 1.389 . S
C638 C639 1.387 . S
C639 H624 0.930 . S
C639 C634 1.390 . S
C639 C638 1.387 . S
H640 C652 0.930 . S
H641 C654 0.930 . S
H642 C655 0.930 . S
H643 C659 0.959 . S
H644 C659 0.959 . S
H645 C659 0.961 1_455 S
H646 C660 0.960 . S
H647 C660 0.961 1_655 S
H648 C660 0.959 . S
H649 C663 0.929 . S
H650 C664 0.931 . S
H651 C666 0.930 . S
C652 H640 0.930 . S
C652 C653 1.399 . S
C652 C657 1.399 . S
C653 C652 1.399 . S
C653 C654 1.376 . S
C654 H641 0.930 . S
C654 C653 1.376 . S
C654 C655 1.388 . S
C655 H642 0.930 . S
C655 C654 1.388 . S
C655 C656 1.390 . S
C656 C655 1.390 . S
C656 C657 1.394 . S
C656 C662 1.465 1_455 S
C657 C652 1.399 . S
C657 C656 1.394 . S
C657 C658 1.511 1_455 S
C658 C657 1.511 1_655 S
C658 C659 1.502 . S
C658 C660 1.561 1_655 S
C658 C661 1.531 . S
C659 H643 0.959 . S
C659 H644 0.959 . S
C659 H645 0.961 1_655 S
C659 C658 1.502 . S
C660 H646 0.960 . S
C660 H647 0.961 1_455 S
C660 H648 0.959 . S
C660 C658 1.561 1_455 S
C661 C658 1.531 . S
C661 C662 1.396 . S
C661 C666 1.390 . S
C662 C656 1.465 1_655 S
C662 C661 1.396 . S
C662 C663 1.399 . S
C663 H649 0.929 . S
C663 C662 1.399 . S
C663 C664 1.385 . S
C664 H650 0.931 . S
C664 C663 1.385 . S
C664 C665 1.389 . S
C665 C664 1.389 . S
C665 C666 1.387 . S
C666 H651 0.930 . S
C666 C661 1.390 . S
C666 C665 1.387 . S
H667 C679 0.930 . S
H668 C681 0.930 . S
H669 C682 0.930 . S
H670 C686 0.959 . S
H671 C686 0.959 . S
H672 C686 0.961 . S
H673 C687 0.960 . S
H674 C687 0.961 . S
H675 C687 0.959 . S
H676 C690 0.929 . S
H677 C691 0.931 . S
H678 C693 0.930 . S
C679 H667 0.930 . S
C679 C680 1.399 . S
C679 C684 1.399 . S
C680 C679 1.399 . S
C680 C681 1.376 . S
C681 H668 0.930 . S
C681 C680 1.376 . S
C681 C682 1.388 . S
C682 H669 0.930 . S
C682 C681 1.388 . S
C682 C683 1.390 . S
C683 C682 1.390 . S
C683 C684 1.394 . S
C683 C689 1.465 . S
C684 C679 1.399 . S
C684 C683 1.394 . S
C684 C685 1.516 . S
C685 C684 1.516 . S
C685 C686 1.502 . S
C685 C687 1.561 . S
C685 C688 1.526 . S
C686 H670 0.959 . S
C686 H671 0.959 . S
C686 H672 0.961 . S
C686 C685 1.502 . S
C687 H673 0.960 . S
C687 H674 0.961 . S
C687 H675 0.959 . S
C687 C685 1.561 . S
C688 C685 1.526 . S
C688 C689 1.396 . S
C688 C693 1.390 . S
C689 C683 1.465 . S
C689 C688 1.396 . S
C689 C690 1.399 . S
C690 H676 0.929 . S
C690 C689 1.399 . S
C690 C691 1.385 . S
C691 H677 0.931 . S
C691 C690 1.385 . S
C691 C692 1.389 . S
C692 C691 1.389 . S
C692 C693 1.387 . S
C693 H678 0.930 . S
C693 C688 1.390 . S
C693 C692 1.387 . S
H694 C706 0.930 . S
H695 C708 0.930 . S
H696 C709 0.930 . S
H697 C713 0.959 . S
H698 C713 0.959 . S
H699 C713 0.961 1_455 S
H700 C714 0.960 . S
H701 C714 0.961 1_655 S
H702 C714 0.959 . S
H703 C717 0.929 . S
H704 C718 0.931 . S
H705 C720 0.930 . S
C706 H694 0.930 . S
C706 C707 1.399 . S
C706 C711 1.399 . S
C707 C706 1.399 . S
C707 C708 1.376 . S
C708 H695 0.930 . S
C708 C707 1.376 . S
C708 C709 1.388 . S
C709 H696 0.930 . S
C709 C708 1.388 . S
C709 C710 1.390 . S
C710 C709 1.390 . S
C710 C711 1.394 . S
C710 C716 1.465 1_455 S
C711 C706 1.399 . S
C711 C710 1.394 . S
C711 C712 1.534 . S
C712 C711 1.534 . S
C712 C713 1.494 1_455 S
C712 C714 1.570 . S
C712 C715 1.508 1_455 S
C713 H697 0.959 . S
C713 H698 0.959 . S
C713 H699 0.961 1_655 S
C713 C712 1.494 1_655 S
C714 H700 0.960 . S
C714 H701 0.961 1_455 S
C714 H702 0.959 . S
C714 C712 1.570 . S
C715 C712 1.508 1_655 S
C715 C716 1.396 . S
C715 C720 1.390 . S
C716 C710 1.465 1_655 S
C716 C715 1.396 . S
C716 C717 1.399 . S
C717 H703 0.929 . S
C717 C716 1.399 . S
C717 C718 1.385 . S
C718 H704 0.931 . S
C718 C717 1.385 . S
C718 C719 1.389 . S
C719 C718 1.389 . S
C719 C720 1.387 . S
C720 H705 0.930 . S
C720 C715 1.390 . S
C720 C719 1.387 . S
H721 C733 0.930 . S
H722 C735 0.930 . S
H723 C736 0.930 . S
H724 C740 0.959 . S
H725 C740 0.959 . S
H726 C740 0.961 . S
H727 C741 0.960 . S
H728 C741 0.961 . S
H729 C741 0.959 . S
H730 C744 0.929 . S
H731 C745 0.931 . S
H732 C747 0.930 . S
C733 H721 0.930 . S
C733 C734 1.399 . S
C733 C738 1.399 . S
C734 C733 1.399 . S
C734 C735 1.376 . S
C735 H722 0.930 . S
C735 C734 1.376 . S
C735 C736 1.388 . S
C736 H723 0.930 . S
C736 C735 1.388 . S
C736 C737 1.390 . S
C737 C736 1.390 . S
C737 C738 1.394 . S
C737 C743 1.465 . S
C738 C733 1.399 . S
C738 C737 1.394 . S
C738 C739 1.516 . S
C739 C738 1.516 . S
C739 C740 1.502 . S
C739 C741 1.561 . S
C739 C742 1.526 . S
C740 H724 0.959 . S
C740 H725 0.959 . S
C740 H726 0.961 . S
C740 C739 1.502 . S
C741 H727 0.960 . S
C741 H728 0.961 . S
C741 H729 0.959 . S
C741 C739 1.561 . S
C742 C739 1.526 . S
C742 C743 1.396 . S
C742 C747 1.390 . S
C743 C737 1.465 . S
C743 C742 1.396 . S
C743 C744 1.399 . S
C744 H730 0.929 . S
C744 C743 1.399 . S
C744 C745 1.385 . S
C745 H731 0.931 . S
C745 C744 1.385 . S
C745 C746 1.389 . S
C746 C745 1.389 . S
C746 C747 1.387 . S
C747 H732 0.930 . S
C747 C742 1.390 . S
C747 C746 1.387 . S
H748 C760 0.930 . S
H749 C762 0.930 . S
H750 C763 0.930 1_565 S
H751 C767 0.959 . S
H752 C767 0.959 . S
H753 C767 0.961 . S
H754 C768 0.960 . S
H755 C768 0.961 . S
H756 C768 0.959 1_556 S
H757 C771 0.929 . S
H758 C772 0.931 . S
H759 C774 0.930 . S
C760 H748 0.930 . S
C760 C761 1.399 . S
C760 C765 1.399 1_455 S
C761 C760 1.399 . S
C761 C762 1.376 1_554 S
C762 H749 0.930 . S
C762 C761 1.376 1_556 S
C762 C763 1.388 . S
C763 H750 0.930 1_545 S
C763 C762 1.388 . S
C763 C764 1.390 1_556 S
C764 C763 1.390 1_554 S
C764 C765 1.394 1_455 S
C764 C770 1.465 1_445 S
C765 C760 1.399 1_655 S
C765 C764 1.394 1_655 S
C765 C766 1.516 . S
C766 C765 1.516 . S
C766 C767 1.502 . S
C766 C768 1.561 . S
C766 C769 1.526 1_545 S
C767 H751 0.959 . S
C767 H752 0.959 . S
C767 H753 0.961 . S
C767 C766 1.502 . S
C768 H754 0.960 . S
C768 H755 0.961 . S
C768 H756 0.959 1_554 S
C768 C766 1.561 . S
C769 C766 1.526 1_565 S
C769 C770 1.396 . S
C769 C774 1.390 . S
C770 C764 1.465 1_665 S
C770 C769 1.396 . S
C770 C771 1.399 1_554 S
C771 H757 0.929 . S
C771 C770 1.399 1_556 S
C771 C772 1.385 . S
C772 H758 0.931 . S
C772 C771 1.385 . S
C772 C773 1.389 1_556 S
C773 C772 1.389 1_554 S
C773 C774 1.387 . S
C774 H759 0.930 . S
C774 C769 1.390 . S
C774 C773 1.387 . S
H775 C787 0.930 . S
H776 C789 0.930 . S
H777 C790 0.930 . S
H778 C794 0.959 . S
H779 C794 0.959 . S
H780 C794 0.961 . S
H781 C795 0.960 . S
H782 C795 0.961 . S
H783 C795 0.959 . S
H784 C798 0.929 . S
H785 C799 0.931 . S
H786 C801 0.930 . S
C787 H775 0.930 . S
C787 C788 1.399 . S
C787 C792 1.399 . S
C788 C787 1.399 . S
C788 C789 1.376 . S
C789 H776 0.930 . S
C789 C788 1.376 . S
C789 C790 1.388 . S
C790 H777 0.930 . S
C790 C789 1.388 . S
C790 C791 1.390 . S
C791 C790 1.390 . S
C791 C792 1.394 . S
C791 C797 1.465 . S
C792 C787 1.399 . S
C792 C791 1.394 . S
C792 C793 1.516 . S
C793 C792 1.516 . S
C793 C794 1.502 . S
C793 C795 1.561 . S
C793 C796 1.526 . S
C794 H778 0.959 . S
C794 H779 0.959 . S
C794 H780 0.961 . S
C794 C793 1.502 . S
C795 H781 0.960 . S
C795 H782 0.961 . S
C795 H783 0.959 . S
C795 C793 1.561 . S
C796 C793 1.526 . S
C796 C797 1.396 . S
C796 C801 1.390 . S
C797 C791 1.465 . S
C797 C796 1.396 . S
C797 C798 1.399 . S
C798 H784 0.929 . S
C798 C797 1.399 . S
C798 C799 1.385 . S
C799 H785 0.931 . S
C799 C798 1.385 . S
C799 C800 1.389 . S
C800 C799 1.389 . S
C800 C801 1.387 . S
C801 H786 0.930 . S
C801 C796 1.390 . S
C801 C800 1.387 . S
H802 C814 0.930 . S
H803 C816 0.930 . S
H804 C817 0.930 . S
H805 C821 0.959 . S
H806 C821 0.959 . S
H807 C821 0.961 . S
H808 C822 0.960 . S
H809 C822 0.961 . S
H810 C822 0.959 . S
H811 C825 0.929 . S
H812 C826 0.931 . S
H813 C828 0.930 . S
C814 H802 0.930 . S
C814 C815 1.399 1_554 S
C814 C819 1.399 1_554 S
C815 C814 1.399 1_556 S
C815 C816 1.376 . S
C816 H803 0.930 . S
C816 C815 1.376 . S
C816 C817 1.388 . S
C817 H804 0.930 . S
C817 C816 1.388 . S
C817 C818 1.390 . S
C818 C817 1.390 . S
C818 C819 1.394 . S
C818 C824 1.465 . S
C819 C814 1.399 1_556 S
C819 C818 1.394 . S
C819 C820 1.516 1_556 S
C820 C819 1.516 1_554 S
C820 C821 1.502 . S
C820 C822 1.561 . S
C820 C823 1.526 . S
C821 H805 0.959 . S
C821 H806 0.959 . S
C821 H807 0.961 . S
C821 C820 1.502 . S
C822 H808 0.960 . S
C822 H809 0.961 . S
C822 H810 0.959 . S
C822 C820 1.561 . S
C823 C820 1.526 . S
C823 C824 1.396 1_554 S
C823 C828 1.390 . S
C824 C818 1.465 . S
C824 C823 1.396 1_556 S
C824 C825 1.399 . S
C825 H811 0.929 . S
C825 C824 1.399 . S
C825 C826 1.385 . S
C826 H812 0.931 . S
C826 C825 1.385 . S
C826 C827 1.389 . S
C827 C826 1.389 . S
C827 C828 1.387 1_556 S
C828 H813 0.930 . S
C828 C823 1.390 . S
C828 C827 1.387 1_554 S
H829 C841 0.930 . S
H830 C843 0.930 . S
H831 C844 0.930 . S
H832 C848 0.959 . S
H833 C848 0.959 . S
H834 C848 0.961 . S
H835 C849 0.960 1_565 S
H836 C849 0.961 . S
H837 C849 0.959 1_665 S
H838 C852 0.929 . S
H839 C853 0.931 . S
H840 C855 0.930 . S
C841 H829 0.930 . S
C841 C842 1.399 . S
C841 C846 1.399 . S
C842 C841 1.399 . S
C842 C843 1.376 . S
C843 H830 0.930 . S
C843 C842 1.376 . S
C843 C844 1.388 . S
C844 H831 0.930 . S
C844 C843 1.388 . S
C844 C845 1.390 . S
C845 C844 1.390 . S
C845 C846 1.394 . S
C845 C851 1.456 1_465 S
C846 C841 1.399 . S
C846 C845 1.394 . S
C846 C847 1.516 1_565 S
C847 C846 1.516 1_545 S
C847 C848 1.502 . S
C847 C849 1.561 . S
C847 C850 1.526 . S
C848 H832 0.959 . S
C848 H833 0.959 . S
C848 H834 0.961 . S
C848 C847 1.502 . S
C849 H835 0.960 1_545 S
C849 H836 0.961 . S
C849 H837 0.959 1_445 S
C849 C847 1.561 . S
C850 C847 1.526 . S
C850 C851 1.395 1_455 S
C850 C855 1.390 1_455 S
C851 C845 1.456 1_645 S
C851 C850 1.395 1_655 S
C851 C852 1.408 . S
C852 H838 0.929 . S
C852 C851 1.408 . S
C852 C853 1.385 . S
C853 H839 0.931 . S
C853 C852 1.385 . S
C853 C854 1.389 . S
C854 C853 1.389 . S
C854 C855 1.387 . S
C855 H840 0.930 . S
C855 C850 1.390 1_655 S
C855 C854 1.387 . S
C437 C75 2.172 . S
C449 C39 2.200 . S
C464 C22 2.140 . S
C476 C92 2.222 . S
C491 C181 2.187 . S
C503 C145 2.204 . S
C518 C128 2.181 . S
C530 C198 2.201 . S
C545 C234 1.906 . S
C557 C304 1.843 . S
C572 C287 1.890 . S
C584 C251 1.888 . S
C599 C340 1.888 . S
C611 C410 1.889 . S
C626 C357 1.864 . S
C638 C393 1.896 . S
C653 C38 1.028 . S
C665 C197 0.988 . S
C680 C91 1.043 . S
C692 C144 0.967 . S
C707 C400 0.568 . S
C719 C241 0.539 . S
C734 C347 0.565 . S
C746 C294 0.543 . S
C761 C29 2.011 . S
C773 C250 2.002 . S
C788 C303 2.034 . S
C800 C82 1.975 . S
C815 C356 2.006 . S
C827 C135 1.981 . S
C842 C409 2.004 . S
C854 C188 2.010 . S
