# Generated by pormake.
# Topology unc, (4)-cn, num edge types: 1
# Building blocks:
#     Node 0, Type 0, BuildingBlock: NAHDIM_clean_sbu_0, # of connection points: 4
#     Node 1, Type 0, BuildingBlock: NAHDIM_clean_sbu_0, # of connection points: 4
#     Node 2, Type 0, BuildingBlock: NAHDIM_clean_sbu_0, # of connection points: 4
#     Node 3, Type 0, BuildingBlock: NAHDIM_clean_sbu_0, # of connection points: 4
#     Edge 4, Type (0, 0), BuildingBlock: ZUJKAS_clean_linker_0, # of connection points: 2
#     Edge 5, Type (0, 0), BuildingBlock: ZUJKAS_clean_linker_0, # of connection points: 2
#     Edge 6, Type (0, 0), BuildingBlock: ZUJKAS_clean_linker_0, # of connection points: 2
#     Edge 7, Type (0, 0), BuildingBlock: ZUJKAS_clean_linker_0, # of connection points: 2
#     Edge 8, Type (0, 0), BuildingBlock: ZUJKAS_clean_linker_0, # of connection points: 2
#     Edge 9, Type (0, 0), BuildingBlock: ZUJKAS_clean_linker_0, # of connection points: 2
#     Edge 10, Type (0, 0), BuildingBlock: ZUJKAS_clean_linker_0, # of connection points: 2
#     Edge 11, Type (0, 0), BuildingBlock: ZUJKAS_clean_linker_0, # of connection points: 2
# Relax obj value: 0.113
# Max RMSD: 0.175
# Mean RMSD: 0.175
data_MOF--net-unc--node1-NAHDIM_clean_sbu_0--edge1-ZUJKAS_clean_linker_0
_symmetry_space_group_name_H-M    P1
_symmetry_Int_Tables_number       1
_symmetry_cell_setting            triclinic
loop_
_symmetry_equiv_pos_as_xyz
'x, y, z'
_cell_length_a     38.906602
_cell_length_b     38.889132
_cell_length_c     27.946597
_cell_angle_alpha  90.082489
_cell_angle_beta   90.020193
_cell_angle_gamma 96.012524
loop_
_atom_site_label
_atom_site_type_symbol
_atom_site_fract_x
_atom_site_fract_y
_atom_site_fract_z
_atom_type_partial_charge
C0 C 0.95662 0.71694 0.95038 0.0
O1 O 0.98334 0.71265 0.9231 0.0
O2 O 0.0119 0.65234 0.96409 0.0
Zn3 Zn -0.0019 0.68441 0.01546 0.0
O4 O 0.03623 0.72253 0.02695 0.0
C5 C 0.97205 0.62743 0.07475 0.0
O6 O 0.96102 0.6144 0.03343 0.0
O7 O 0.95638 0.70611 -0.00673 0.0
C8 C 0.05891 0.72071 0.05932 0.0
O9 O 0.05795 0.69279 0.08591 0.0
C10 C 0.04217 0.64314 0.96027 0.0
O11 O 0.06605 0.65478 0.99117 0.0
O12 O 0.98796 0.65764 0.07598 0.0
C13 C 0.31357 0.09166 0.28657 0.0
O14 O 0.31204 0.0623 0.31008 0.0
O15 O 0.38053 0.03736 0.28197 0.0
Zn16 Zn 0.35334 0.05334 0.22644 0.0
O17 O 0.31698 0.01533 0.20682 0.0
C18 C 0.40668 0.04375 0.16058 0.0
O19 O 0.40541 0.01464 0.18456 0.0
O20 O 0.33035 0.09456 0.24755 0.0
C21 C 0.30946 0.00874 0.16329 0.0
O22 O 0.32547 0.02763 0.12951 0.0
C23 C 0.38223 0.00563 0.2915 0.0
O24 O 0.36534 0.98177 0.26465 0.0
O25 O 0.38605 0.0657 0.17182 0.0
C26 C 0.09929 0.33763 0.46886 0.0
O27 O 0.09473 0.36729 0.44865 0.0
O28 O 0.02439 0.38003 0.46748 0.0
Zn29 Zn 0.03761 0.34987 0.52109 0.0
O30 O -0.00222 0.31401 0.53427 0.0
C31 C 0.07033 0.40606 0.57693 0.0
O32 O 0.08599 0.41393 0.53615 0.0
O33 O 0.07847 0.32565 0.50125 0.0
C34 C 0.97688 0.31629 0.56877 0.0
O35 O 0.98119 0.3431 0.5976 0.0
C36 C 0.0042 0.40325 0.47396 0.0
O37 O 0.99131 0.40742 0.51677 0.0
O38 O 0.04891 0.37913 0.57933 0.0
C39 C 0.71925 0.94739 0.78348 0.0
O40 O 0.71845 0.97676 0.80657 0.0
O41 O 0.65176 0.00013 0.77499 0.0
Zn42 Zn 0.67899 0.98292 0.72066 0.0
O43 O 0.71468 0.02121 0.70048 0.0
C44 C 0.61524 0.95916 0.67334 0.0
O45 O 0.60362 0.95723 0.71748 0.0
O46 O 0.70335 0.94317 0.74386 0.0
C47 C 0.71104 0.04014 0.66419 0.0
O48 O 0.683 0.0345 0.63792 0.0
C49 C 0.636 0.02702 0.77139 0.0
O50 O 0.63752 0.04428 0.73094 0.0
O51 O 0.64707 0.96853 0.66594 0.0
H52 H 0.99124 0.64701 0.16569 0.0
H53 H 0.9915 0.61021 0.23649 0.0
H54 H 0.94701 0.52288 0.15397 0.0
H55 H 0.94612 0.55956 0.08302 0.0
H56 H 0.91872 0.52701 0.24727 0.0
H57 H 0.06235 0.53917 0.24824 0.0
H58 H 0.04374 0.57952 0.24994 0.0
H59 H 0.03776 0.5523 0.19794 0.0
C60 C 0.98119 0.62005 0.16265 0.0
C61 C 0.96903 0.60609 0.11858 0.0
C62 C 0.98147 0.59907 0.20311 0.0
C63 C 0.96986 0.56376 0.20013 0.0
C64 C 0.95622 0.55007 0.15685 0.0
H65 H 0.02502 0.39958 0.38106 0.0
H66 H 0.01405 0.4383 0.31545 0.0
C67 C 0.95581 0.57106 0.11635 0.0
C68 C 0.97362 0.54069 0.24139 0.0
H69 H 0.03403 0.50852 0.3123 0.0
C70 C 0.94388 0.52295 0.26164 0.0
C71 C 0.00655 0.53519 0.25949 0.0
C72 C 0.03948 0.55227 0.23761 0.0
C73 C 0.94622 0.49989 0.29985 0.0
C74 C 0.97914 0.49489 0.31845 0.0
C75 C 0.00882 0.51261 0.29809 0.0
C76 C 0.98371 0.47052 0.35797 0.0
C77 C 0.91359 0.48045 0.3192 0.0
C78 C 0.97024 0.47583 0.40364 0.0
C79 C 0.97638 0.45364 0.44131 0.0
C80 C -0.00365 0.42597 0.43392 0.0
C81 C 0.00956 0.42064 0.38799 0.0
C82 C 0.00333 0.44274 0.35043 0.0
H83 H 0.89157 0.48103 0.29399 0.0
H84 H 0.91748 0.45308 0.32664 0.0
H85 H 0.90652 0.49256 0.3533 0.0
H86 H 0.95559 0.49753 0.41038 0.0
H87 H 0.96598 0.45852 0.47632 0.0
H88 H 0.41086 0.04682 0.36313 0.0
H89 H 0.45055 0.03156 0.4254 0.0
H90 H 0.44528 0.92757 0.3699 0.0
H91 H 0.40462 0.94236 0.30821 0.0
H92 H 0.44308 0.9279 0.46628 0.0
H93 H 0.55124 0.02074 0.40434 0.0
H94 H 0.51338 0.0418 0.41682 0.0
H95 H 0.51258 0.01037 0.36931 0.0
C96 C 0.41809 0.02068 0.36419 0.0
C97 C 0.40488 -0.00413 0.33052 0.0
C98 C 0.44095 0.01206 0.39962 0.0
C99 C 0.45156 0.97869 0.40149 0.0
C100 C 0.43765 0.95356 0.3688 0.0
H101 H 0.6307 0.94997 0.57915 0.0
H102 H 0.59102 0.9481 0.51108 0.0
C103 C 0.41442 0.96205 0.33362 0.0
C104 C 0.47712 0.97019 0.43774 0.0
H105 H 0.55644 -0.00192 0.48336 0.0
C106 C 0.46805 0.94295 0.46974 0.0
C107 C 0.51003 0.98926 0.44145 0.0
C108 C 0.52255 0.0169 0.4058 0.0
C109 C 0.49044 0.93531 0.50675 0.0
C110 C 0.52227 0.95611 0.5126 0.0
C111 C 0.53188 0.98235 0.47929 0.0
C112 C 0.54538 0.95246 0.55408 0.0
C113 C 0.47974 0.90498 0.53897 0.0
C114 C 0.53289 0.95504 0.60094 0.0
C115 C 0.55542 0.95558 0.6399 0.0
C116 C 0.59101 0.95436 0.63264 0.0
C117 C 0.6034 0.95103 0.58582 0.0
C118 C 0.58077 0.94996 0.54692 0.0
H119 H 0.46207 0.8851 0.52014 0.0
H120 H 0.50247 0.8927 0.5521 0.0
H121 H 0.46561 0.91402 0.57027 0.0
H122 H 0.50593 0.95804 0.60738 0.0
H123 H 0.54513 0.9585 0.67551 0.0
H124 H 0.1047 0.6205 0.93864 0.0
H125 H 0.11772 0.58214 0.87293 0.0
H126 H 0.011 0.57399 0.82855 0.0
H127 H -0.00216 0.61256 0.89338 0.0
H128 H 0.09031 0.51462 0.8543 0.0
H129 H 0.0627 0.6011 0.70503 0.0
H130 H 0.06842 0.61621 0.76592 0.0
H131 H 0.0276 0.59452 0.74676 0.0
C132 C 0.08404 0.61065 0.91476 0.0
C133 C 0.05028 0.61974 0.92105 0.0
C134 C 0.09153 0.58875 0.87729 0.0
C135 C 0.06545 0.57578 0.84543 0.0
C136 C 0.03167 0.58441 0.85206 0.0
H137 H 0.03897 0.39906 0.66431 0.0
H138 H 0.04342 0.44042 0.73029 0.0
C139 C 0.02417 0.6063 0.88935 0.0
C140 C 0.07306 0.55235 0.80595 0.0
H141 H 0.06469 0.54132 0.68526 0.0
C142 C 0.08516 0.5206 0.81725 0.0
C143 C 0.06693 0.56049 0.75759 0.0
C144 C 0.05604 0.59509 0.74298 0.0
C145 C 0.08963 0.496 0.7816 0.0
C146 C 0.08122 0.50323 0.73367 0.0
C147 C 0.07078 0.53567 0.72212 0.0
C148 C 0.08106 0.47693 0.6953 0.0
C149 C 0.10308 0.46244 0.79566 0.0
C150 C 0.10044 0.48391 0.65345 0.0
C151 C 0.09773 0.46042 0.61539 0.0
C152 C 0.07539 0.42965 0.61847 0.0
C153 C 0.05654 0.42245 0.66085 0.0
C154 C 0.05924 0.44595 0.69879 0.0
H155 H 0.11843 0.46534 0.82923 0.0
H156 H 0.0809 0.44262 0.802 0.0
H157 H 0.11943 0.45291 0.76699 0.0
H158 H 0.11725 0.50781 0.64995 0.0
H159 H 0.11257 0.46675 0.58324 0.0
H160 H 0.41206 0.09785 0.09711 0.0
H161 H 0.45253 0.10713 0.02986 0.0
H162 H 0.4973 0.01389 0.06695 0.0
H163 H 0.45729 0.00441 0.13395 0.0
H164 H 0.54597 0.07584 0.04759 0.0
H165 H 0.44654 0.04514 0.90573 0.0
H166 H 0.43847 0.07641 0.95084 0.0
H167 H 0.43918 0.03191 0.9671 0.0
C168 C 0.4306 0.07939 0.09098 0.0
C169 C 0.43138 0.0503 0.12069 0.0
C170 C 0.45359 0.0847 0.05255 0.0
C171 C 0.47764 0.06104 0.04345 0.0
C172 C 0.47886 0.03239 0.0735 0.0
H173 H 0.6291 -0.00245 0.85975 0.0
H174 H 0.59222 0.01288 0.92515 0.0
C175 C 0.45589 0.02698 0.11166 0.0
C176 C 0.50137 0.06531 0.0022 0.0
H177 H 0.50452 0.05324 0.88144 0.0
C178 C 0.53695 0.07144 0.01113 0.0
C179 C 0.48938 0.05983 0.95479 0.0
C180 C 0.45134 0.05278 0.94366 0.0
C181 C 0.56105 0.07085 0.97394 0.0
C182 C 0.54915 0.06319 0.92692 0.0
C183 C 0.51351 0.05899 0.91761 0.0
C184 C 0.57307 0.05581 0.888 0.0
C185 C 0.59903 0.07773 0.9855 0.0
C186 C 0.57402 0.07446 0.84501 0.0
C187 C 0.59499 0.06559 0.80723 0.0
C188 C 0.61502 0.03768 0.8118 0.0
C189 C 0.61411 0.01925 0.85509 0.0
C190 C 0.59324 0.02816 0.8927 0.0
H191 H 0.60335 0.09413 0.01798 0.0
H192 H 0.60955 0.05281 0.99272 0.0
H193 H 0.61367 0.09065 0.95525 0.0
H194 H 0.55834 0.09567 0.84057 0.0
H195 H 0.59506 0.08023 0.77429 0.0
H196 H 0.29152 0.98374 0.07419 0.0
H197 H 0.24869 0.93517 0.05414 0.0
H198 H 0.22588 0.91933 0.20394 0.0
H199 H 0.26854 0.9678 0.22445 0.0
H200 H 0.24741 0.86436 0.0883 0.0
H201 H 0.13037 0.92678 0.13851 0.0
H202 H 0.17168 0.95118 0.12721 0.0
H203 H 0.16392 0.92889 0.18302 0.0
C204 C 0.27729 0.97003 0.10288 0.0
C205 C 0.28333 0.97971 0.15091 0.0
C206 C 0.25291 0.94228 0.09134 0.0
C207 C 0.23397 0.92401 0.12755 0.0
C208 C 0.23996 0.93348 0.17549 0.0
H209 H 0.1132 0.72416 0.12199 0.0
H210 H 0.1565 0.77338 0.13659 0.0
C211 C 0.26443 0.96109 0.1871 0.0
C212 C 0.20833 0.89456 0.11534 0.0
H213 H 0.12223 0.86691 0.12019 0.0
C214 C 0.22002 0.86489 0.09506 0.0
C215 C 0.17266 0.8956 0.12388 0.0
C216 C 0.15872 0.92739 0.14399 0.0
C217 C 0.19691 0.83581 0.08395 0.0
C218 C 0.16135 0.83651 0.09373 0.0
C219 C 0.14959 0.86645 0.11311 0.0
C220 C 0.13582 0.80644 0.08401 0.0
C221 C 0.2106 0.8047 0.06146 0.0
C222 C 0.10969 0.80899 0.05006 0.0
C223 C 0.08492 0.78098 0.04164 0.0
C224 C 0.08569 0.75002 0.06741 0.0
C225 C 0.11193 0.7476 0.10147 0.0
C226 C 0.13679 0.7756 0.10971 0.0
H227 H 0.23697 0.81107 0.04656 0.0
H228 H 0.21187 0.78436 0.08902 0.0
H229 H 0.1932 0.79388 0.03242 0.0
H230 H 0.10849 0.83268 0.03006 0.0
H231 H 0.06501 0.78374 0.01524 0.0
H232 H 0.31083 0.15561 0.24662 0.0
H233 H 0.28069 0.20315 0.27772 0.0
H234 H 0.24585 0.14072 0.39922 0.0
H235 H 0.27611 0.09333 0.36887 0.0
H236 H 0.21023 0.20189 0.29565 0.0
H237 H 0.28574 0.23139 0.46149 0.0
H238 H 0.30101 0.20601 0.41328 0.0
H239 H 0.27018 0.18648 0.45574 0.0
C240 C 0.29696 0.1521 0.28015 0.0
C241 C 0.29592 0.12072 0.30535 0.0
C242 C 0.2798 0.17928 0.29785 0.0
C243 C 0.26158 0.17563 0.34116 0.0
C244 C 0.26046 0.14435 0.3663 0.0
H245 H 0.11542 0.2755 0.50295 0.0
H246 H 0.15765 0.23942 0.47057 0.0
C247 C 0.27756 0.11719 0.34868 0.0
C248 C 0.24199 0.20366 0.35887 0.0
H249 H 0.23091 0.25409 0.45658 0.0
C250 C 0.21503 0.21373 0.33051 0.0
C251 C 0.24842 0.21899 0.40436 0.0
C252 C 0.27813 0.21044 0.43531 0.0
C253 C 0.19325 0.23761 0.34737 0.0
C254 C 0.199 0.25211 0.39349 0.0
C255 C 0.22658 0.24282 0.42128 0.0
C256 C 0.17534 0.27533 0.41457 0.0
C257 C 0.16335 0.24603 0.31661 0.0
C258 C 0.17194 0.3078 0.39438 0.0
C259 C 0.14778 0.32851 0.41276 0.0
C260 C 0.12672 0.31707 0.45169 0.0
C261 C 0.1311 0.28501 0.47279 0.0
C262 C 0.15526 0.26438 0.45443 0.0
H263 H 0.15865 0.22774 0.28616 0.0
H264 H 0.13932 0.24546 0.33815 0.0
H265 H 0.16906 0.27247 0.30182 0.0
H266 H 0.18764 0.31689 0.36404 0.0
H267 H 0.14519 0.35316 0.39588 0.0
H268 H 0.71323 0.08354 0.58699 0.0
H269 H 0.75806 0.13038 0.56758 0.0
H270 H 0.81389 0.1083 0.69535 0.0
H271 H 0.76966 0.06114 0.71463 0.0
H272 H 0.78014 0.189 0.61967 0.0
H273 H 0.88758 0.10804 0.59187 0.0
H274 H 0.84295 0.09003 0.59476 0.0
H275 H 0.86669 0.10117 0.64882 0.0
C276 C 0.73514 0.08854 0.61084 0.0
C277 C 0.738 0.06847 0.65219 0.0
C278 C 0.76068 0.11532 0.59971 0.0
C279 C 0.78953 0.12241 0.62963 0.0
C280 C 0.79222 0.10274 0.67122 0.0
H281 H 0.9316 0.30926 0.64388 0.0
H282 H 0.88524 0.26276 0.65718 0.0
C283 C 0.7668 0.0759 0.68229 0.0
C284 C 0.81648 0.15089 0.61798 0.0
H285 H 0.90295 0.16883 0.59758 0.0
C286 C 0.80697 0.18462 0.61453 0.0
C287 C 0.85135 0.14498 0.61069 0.0
C288 C 0.86277 0.10906 0.61123 0.0
C289 C 0.83159 0.21279 0.60501 0.0
C290 C 0.8667 0.20704 0.59974 0.0
C291 C 0.87606 0.1732 0.60215 0.0
C292 C 0.8942 0.23568 0.59135 0.0
C293 C 0.8197 0.24832 0.60006 0.0
C294 C 0.91512 0.23544 0.55051 0.0
C295 C 0.94186 0.26172 0.54309 0.0
C296 C 0.94822 0.28876 0.57645 0.0
C297 C 0.92721 0.28895 0.61734 0.0
C298 C 0.90056 0.26251 0.62486 0.0
H299 H 0.79168 0.24693 0.59165 0.0
H300 H 0.82411 0.2625 0.63437 0.0
H301 H 0.83434 0.2634 0.57159 0.0
H302 H 0.91073 0.21487 0.52433 0.0
H303 H 0.95755 0.2608 0.5112 0.0
H304 H 0.72907 0.88499 0.74292 0.0
H305 H 0.76572 0.84221 0.77266 0.0
H306 H 0.792 0.90595 0.89644 0.0
H307 H 0.75582 0.94899 0.86687 0.0
H308 H 0.84893 0.88499 0.84856 0.0
H309 H 0.75089 0.77372 0.88485 0.0
H310 H 0.74887 0.79189 0.82595 0.0
H311 H 0.7397 0.8173 0.87723 0.0
C312 C 0.74238 0.88974 0.77671 0.0
C313 C 0.73961 0.92042 0.80249 0.0
C314 C 0.76312 0.86517 0.79377 0.0
C315 C 0.78121 0.87079 0.83698 0.0
C316 C 0.77809 0.90112 0.8631 0.0
H317 H 0.8998 0.73428 -0.00097 0.0
H318 H 0.85608 0.77034 0.97048 0.0
C319 C 0.75742 0.92567 0.8461 0.0
C320 C 0.80527 0.84628 0.85351 0.0
H321 H 0.80988 0.763 0.88942 0.0
C322 C 0.8404 0.85834 0.85761 0.0
C323 C 0.79393 0.81165 0.86562 0.0
C324 C 0.75625 0.79784 0.86366 0.0
C325 C 0.86466 0.83658 0.87306 0.0
C326 C 0.8535 0.8017 0.88397 0.0
C327 C 0.8183 0.7897 0.88052 0.0
C328 C 0.87816 0.77761 0.89974 0.0
C329 C 0.90197 0.85122 0.87827 0.0
C330 C 0.90443 0.76913 0.86892 0.0
C331 C 0.92945 0.74867 0.88508 0.0
C332 C 0.92852 0.73621 0.93232 0.0
C333 C 0.90133 0.74363 0.96252 0.0
C334 C 0.8763 0.76414 0.94629 0.0
H335 H 0.90483 0.87994 0.87933 0.0
H336 H 0.91347 0.84148 0.91133 0.0
H337 H 0.91693 0.843 0.84724 0.0
H338 H 0.90591 0.77886 0.8326 0.0
H339 H 0.94986 0.74319 0.86077 0.0
loop_
_geom_bond_atom_site_label_1
_geom_bond_atom_site_label_2
_geom_bond_distance
_geom_bond_site_symmetry_2
_ccdc_geom_bond_type
C0 O1 1.160 . S
C0 O7 1.185 1_556 S
O1 C0 1.160 . S
O2 Zn3 1.899 1_556 S
O2 C10 1.284 . S
Zn3 O2 1.899 1_554 S
Zn3 O4 2.032 . S
Zn3 O7 2.086 1_455 S
Zn3 O12 1.977 1_455 S
O4 Zn3 2.032 . S
O4 C8 1.278 . S
C5 O6 1.203 . S
C5 O12 1.267 1_455 S
O6 C5 1.203 . S
O7 C0 1.185 1_554 S
O7 Zn3 2.086 1_655 S
C8 O4 1.278 . S
C8 O9 1.211 . S
O9 C8 1.211 . S
C10 O2 1.284 . S
C10 O11 1.273 . S
O11 C10 1.273 . S
O12 Zn3 1.977 1_655 S
O12 C5 1.267 1_655 S
C13 O14 1.160 . S
C13 O20 1.185 . S
O14 C13 1.160 . S
O15 Zn16 1.899 . S
O15 C23 1.284 . S
Zn16 O15 1.899 . S
Zn16 O17 2.032 . S
Zn16 O20 2.086 . S
Zn16 O25 1.977 . S
O17 Zn16 2.032 . S
O17 C21 1.278 1_545 S
C18 O19 1.203 . S
C18 O25 1.267 . S
O19 C18 1.203 . S
O20 C13 1.185 . S
O20 Zn16 2.086 . S
C21 O17 1.278 1_565 S
C21 O22 1.211 . S
O22 C21 1.211 . S
C23 O15 1.284 . S
C23 O24 1.273 1_545 S
O24 C23 1.273 1_565 S
O25 Zn16 1.977 . S
O25 C18 1.267 . S
C26 O27 1.160 . S
C26 O33 1.185 . S
O27 C26 1.160 . S
O28 Zn29 1.899 . S
O28 C36 1.284 . S
Zn29 O28 1.899 . S
Zn29 O30 2.032 . S
Zn29 O33 2.086 . S
Zn29 O38 1.977 . S
O30 Zn29 2.032 . S
O30 C34 1.278 1_455 S
C31 O32 1.203 . S
C31 O38 1.267 . S
O32 C31 1.203 . S
O33 C26 1.185 . S
O33 Zn29 2.086 . S
C34 O30 1.278 1_655 S
C34 O35 1.211 . S
O35 C34 1.211 . S
C36 O28 1.284 . S
C36 O37 1.273 1_455 S
O37 C36 1.273 1_655 S
O38 Zn29 1.977 . S
O38 C31 1.267 . S
C39 O40 1.160 . S
C39 O46 1.185 . S
O40 C39 1.160 . S
O41 Zn42 1.899 . S
O41 C49 1.284 . S
Zn42 O41 1.899 . S
Zn42 O43 2.032 . S
Zn42 O46 2.086 1_545 S
Zn42 O51 1.977 1_545 S
O43 Zn42 2.032 . S
O43 C47 1.278 . S
C44 O45 1.203 . S
C44 O51 1.267 1_545 S
O45 C44 1.203 . S
O46 C39 1.185 . S
O46 Zn42 2.086 1_565 S
C47 O43 1.278 . S
C47 O48 1.211 . S
O48 C47 1.211 . S
C49 O41 1.284 . S
C49 O50 1.273 . S
O50 C49 1.273 . S
O51 Zn42 1.977 1_565 S
O51 C44 1.267 1_565 S
H52 C60 0.929 . S
H53 C62 0.930 . S
H54 C64 0.930 . S
H55 C67 0.929 . S
H56 C70 0.930 . S
H57 C72 0.960 . S
H58 C72 0.960 . S
H59 C72 0.960 . S
C60 H52 0.929 . S
C60 C61 1.377 1_655 S
C60 C62 1.384 . S
C61 C60 1.377 1_455 S
C61 C67 1.390 . S
C62 H53 0.930 . S
C62 C60 1.384 . S
C62 C63 1.372 1_655 S
C63 C62 1.372 1_455 S
C63 C64 1.400 . S
C63 C68 1.490 . S
C64 H54 0.930 . S
C64 C63 1.400 . S
C64 C67 1.386 . S
H65 C81 0.930 . S
H66 C82 0.931 . S
C67 H55 0.929 . S
C67 C61 1.390 . S
C67 C64 1.386 . S
C68 C63 1.490 . S
C68 C70 1.395 1_455 S
C68 C71 1.403 . S
H69 C75 0.930 . S
C70 H56 0.930 . S
C70 C68 1.395 1_655 S
C70 C73 1.403 . S
C71 C68 1.403 . S
C71 C72 1.524 . S
C71 C75 1.400 . S
C72 H57 0.960 . S
C72 H58 0.960 . S
C72 H59 0.960 . S
C72 C71 1.524 . S
C73 C70 1.403 . S
C73 C74 1.392 1_655 S
C73 C77 1.495 . S
C74 C73 1.392 1_455 S
C74 C75 1.385 . S
C74 C76 1.478 . S
C75 H69 0.930 . S
C75 C71 1.400 . S
C75 C74 1.385 . S
C76 C74 1.478 . S
C76 C78 1.379 1_455 S
C76 C82 1.383 . S
C77 C73 1.495 . S
C77 H83 0.959 . S
C77 H84 0.961 . S
C77 H85 0.960 . S
C78 C76 1.379 1_655 S
C78 C79 1.393 1_655 S
C78 H86 0.934 . S
C79 C78 1.393 1_455 S
C79 C80 1.383 . S
C79 H87 0.927 1_455 S
C80 C79 1.383 . S
C80 C81 1.377 . S
C81 H65 0.930 . S
C81 C80 1.377 . S
C81 C82 1.379 . S
C82 H66 0.931 . S
C82 C76 1.383 . S
C82 C81 1.379 . S
H83 C77 0.959 . S
H84 C77 0.961 . S
H85 C77 0.960 . S
H86 C78 0.934 . S
H87 C79 0.927 1_655 S
H88 C96 0.929 . S
H89 C98 0.930 . S
H90 C100 0.930 . S
H91 C103 0.929 . S
H92 C106 0.929 1_565 S
H93 C108 0.960 . S
H94 C108 0.960 . S
H95 C108 0.960 . S
C96 H88 0.929 . S
C96 C97 1.377 . S
C96 C98 1.384 . S
C97 C96 1.377 . S
C97 C103 1.390 1_545 S
C98 H89 0.930 . S
C98 C96 1.384 . S
C98 C99 1.372 . S
C99 C98 1.372 . S
C99 C100 1.400 1_545 S
C99 C104 1.490 . S
C100 H90 0.930 . S
C100 C99 1.400 1_565 S
C100 C103 1.386 . S
H101 C117 0.930 . S
H102 C118 0.931 . S
C103 H91 0.929 . S
C103 C97 1.390 1_565 S
C103 C100 1.386 . S
C104 C99 1.490 . S
C104 C106 1.396 . S
C104 C107 1.403 . S
H105 C111 0.930 . S
C106 H92 0.929 1_545 S
C106 C104 1.396 . S
C106 C109 1.403 1_545 S
C107 C104 1.403 . S
C107 C108 1.524 . S
C107 C111 1.400 . S
C108 H93 0.960 . S
C108 H94 0.960 . S
C108 H95 0.960 . S
C108 C107 1.524 . S
C109 C106 1.403 1_565 S
C109 C110 1.392 1_565 S
C109 C113 1.495 . S
C110 C109 1.392 1_545 S
C110 C111 1.385 . S
C110 C112 1.478 . S
C111 H105 0.930 . S
C111 C107 1.400 . S
C111 C110 1.385 . S
C112 C110 1.478 . S
C112 C114 1.381 . S
C112 C118 1.383 1_545 S
C113 C109 1.495 . S
C113 H119 0.959 . S
C113 H120 0.961 . S
C113 H121 0.960 . S
C114 C112 1.381 . S
C114 C115 1.394 . S
C114 H122 0.930 . S
C115 C114 1.394 . S
C115 C116 1.374 1_545 S
C115 H123 0.929 . S
C116 C115 1.374 1_565 S
C116 C117 1.385 . S
C117 H101 0.930 . S
C117 C116 1.385 . S
C117 C118 1.379 . S
C118 H102 0.931 . S
C118 C112 1.383 1_565 S
C118 C117 1.379 . S
H119 C113 0.959 . S
H120 C113 0.961 . S
H121 C113 0.960 . S
H122 C114 0.930 . S
H123 C115 0.929 . S
H124 C132 0.929 . S
H125 C134 0.930 . S
H126 C136 0.930 . S
H127 C139 0.929 1_655 S
H128 C142 0.930 . S
H129 C144 0.960 . S
H130 C144 0.960 . S
H131 C144 0.960 . S
C132 H124 0.929 . S
C132 C133 1.377 . S
C132 C134 1.384 . S
C133 C132 1.377 . S
C133 C139 1.390 . S
C134 H125 0.930 . S
C134 C132 1.384 . S
C134 C135 1.372 . S
C135 C134 1.372 . S
C135 C136 1.400 . S
C135 C140 1.490 . S
C136 H126 0.930 . S
C136 C135 1.400 . S
C136 C139 1.386 . S
H137 C153 0.930 . S
H138 C154 0.931 . S
C139 H127 0.929 1_455 S
C139 C133 1.390 . S
C139 C136 1.386 . S
C140 C135 1.490 . S
C140 C142 1.395 . S
C140 C143 1.403 . S
H141 C147 0.930 1_655 S
C142 H128 0.930 . S
C142 C140 1.395 . S
C142 C145 1.403 . S
C143 C140 1.403 . S
C143 C144 1.524 1_455 S
C143 C147 1.400 . S
C144 H129 0.960 . S
C144 H130 0.960 . S
C144 H131 0.960 . S
C144 C143 1.524 1_655 S
C145 C142 1.403 . S
C145 C146 1.392 . S
C145 C149 1.495 . S
C146 C145 1.392 . S
C146 C147 1.385 . S
C146 C148 1.478 . S
C147 H141 0.930 1_455 S
C147 C143 1.400 . S
C147 C146 1.385 . S
C148 C146 1.478 . S
C148 C150 1.381 . S
C148 C154 1.383 . S
C149 C145 1.495 . S
C149 H155 0.959 . S
C149 H156 0.961 . S
C149 H157 0.960 . S
C150 C148 1.381 . S
C150 C151 1.394 . S
C150 H158 0.930 . S
C151 C150 1.394 . S
C151 C152 1.383 . S
C151 H159 0.929 . S
C152 C151 1.383 . S
C152 C153 1.377 . S
C153 H137 0.930 . S
C153 C152 1.377 . S
C153 C154 1.379 . S
C154 H138 0.931 . S
C154 C148 1.383 . S
C154 C153 1.379 . S
H155 C149 0.959 . S
H156 C149 0.961 . S
H157 C149 0.960 . S
H158 C150 0.930 . S
H159 C151 0.929 . S
H160 C168 0.929 . S
H161 C170 0.930 . S
H162 C172 0.930 1_565 S
H163 C175 0.929 1_565 S
H164 C178 0.930 . S
H165 C180 0.972 . S
H166 C180 0.945 1_545 S
H167 C180 0.974 1_554 S
C168 H160 0.929 . S
C168 C169 1.377 . S
C168 C170 1.384 . S
C169 C168 1.377 . S
C169 C175 1.390 . S
C170 H161 0.930 . S
C170 C168 1.384 . S
C170 C171 1.372 . S
C171 C170 1.372 . S
C171 C172 1.400 . S
C171 C176 1.490 . S
C172 H162 0.930 1_545 S
C172 C171 1.400 . S
C172 C175 1.386 . S
H173 C189 0.930 1_565 S
H174 C190 0.931 1_565 S
C175 H163 0.929 1_545 S
C175 C169 1.390 . S
C175 C172 1.386 . S
C176 C171 1.490 . S
C176 C178 1.395 . S
C176 C179 1.403 1_554 S
H177 C183 0.930 . S
C178 H164 0.930 . S
C178 C176 1.395 . S
C178 C181 1.403 1_554 S
C179 C176 1.403 1_556 S
C179 C180 1.513 1_545 S
C179 C183 1.400 . S
C180 H165 0.972 . S
C180 H166 0.945 1_565 S
C180 H167 0.974 1_556 S
C180 C179 1.513 1_565 S
C181 C178 1.403 1_556 S
C181 C182 1.392 . S
C181 C185 1.495 1_556 S
C182 C181 1.392 . S
C182 C183 1.385 . S
C182 C184 1.478 . S
C183 H177 0.930 . S
C183 C179 1.400 . S
C183 C182 1.385 . S
C184 C182 1.478 . S
C184 C186 1.381 . S
C184 C190 1.383 . S
C185 C181 1.495 1_554 S
C185 H191 0.959 . S
C185 H192 0.961 . S
C185 H193 0.960 1_554 S
C186 C184 1.381 . S
C186 C187 1.394 . S
C186 H194 0.930 . S
C187 C186 1.394 . S
C187 C188 1.383 . S
C187 H195 0.929 . S
C188 C187 1.383 . S
C188 C189 1.377 . S
C189 H173 0.930 1_545 S
C189 C188 1.377 . S
C189 C190 1.379 . S
C190 H174 0.931 1_545 S
C190 C184 1.383 . S
C190 C189 1.379 . S
H191 C185 0.959 . S
H192 C185 0.961 . S
H193 C185 0.960 1_556 S
H194 C186 0.930 . S
H195 C187 0.929 . S
H196 C204 0.929 . S
H197 C206 0.930 . S
H198 C208 0.930 . S
H199 C211 0.929 . S
H200 C214 0.930 . S
H201 C216 0.960 . S
H202 C216 0.960 . S
H203 C216 0.960 . S
C204 H196 0.929 . S
C204 C205 1.377 . S
C204 C206 1.384 . S
C205 C204 1.377 . S
C205 C211 1.390 . S
C206 H197 0.930 . S
C206 C204 1.384 . S
C206 C207 1.372 . S
C207 C206 1.372 . S
C207 C208 1.400 . S
C207 C212 1.490 . S
C208 H198 0.930 . S
C208 C207 1.400 . S
C208 C211 1.386 . S
H209 C225 0.930 . S
H210 C226 0.931 . S
C211 H199 0.929 . S
C211 C205 1.390 . S
C211 C208 1.386 . S
C212 C207 1.490 . S
C212 C214 1.395 . S
C212 C215 1.403 . S
H213 C219 0.930 . S
C214 H200 0.930 . S
C214 C212 1.395 . S
C214 C217 1.403 . S
C215 C212 1.403 . S
C215 C216 1.524 . S
C215 C219 1.400 . S
C216 H201 0.960 . S
C216 H202 0.960 . S
C216 H203 0.960 . S
C216 C215 1.524 . S
C217 C214 1.403 . S
C217 C218 1.392 . S
C217 C221 1.495 . S
C218 C217 1.392 . S
C218 C219 1.385 . S
C218 C220 1.478 . S
C219 H213 0.930 . S
C219 C215 1.400 . S
C219 C218 1.385 . S
C220 C218 1.478 . S
C220 C222 1.381 . S
C220 C226 1.383 . S
C221 C217 1.495 . S
C221 H227 0.959 . S
C221 H228 0.961 . S
C221 H229 0.960 . S
C222 C220 1.381 . S
C222 C223 1.394 . S
C222 H230 0.930 . S
C223 C222 1.394 . S
C223 C224 1.383 . S
C223 H231 0.929 1_554 S
C224 C223 1.383 . S
C224 C225 1.377 . S
C225 H209 0.930 . S
C225 C224 1.377 . S
C225 C226 1.379 . S
C226 H210 0.931 . S
C226 C220 1.383 . S
C226 C225 1.379 . S
H227 C221 0.959 . S
H228 C221 0.961 . S
H229 C221 0.960 . S
H230 C222 0.930 . S
H231 C223 0.929 1_556 S
H232 C240 0.929 . S
H233 C242 0.930 . S
H234 C244 0.930 . S
H235 C247 0.929 . S
H236 C250 0.930 . S
H237 C252 0.960 . S
H238 C252 0.960 . S
H239 C252 0.960 . S
C240 H232 0.929 . S
C240 C241 1.377 . S
C240 C242 1.384 . S
C241 C240 1.377 . S
C241 C247 1.390 . S
C242 H233 0.930 . S
C242 C240 1.384 . S
C242 C243 1.372 . S
C243 C242 1.372 . S
C243 C244 1.400 . S
C243 C248 1.490 . S
C244 H234 0.930 . S
C244 C243 1.400 . S
C244 C247 1.386 . S
H245 C261 0.930 . S
H246 C262 0.931 . S
C247 H235 0.929 . S
C247 C241 1.390 . S
C247 C244 1.386 . S
C248 C243 1.490 . S
C248 C250 1.395 . S
C248 C251 1.403 . S
H249 C255 0.930 . S
C250 H236 0.930 . S
C250 C248 1.395 . S
C250 C253 1.403 . S
C251 C248 1.403 . S
C251 C252 1.524 . S
C251 C255 1.400 . S
C252 H237 0.960 . S
C252 H238 0.960 . S
C252 H239 0.960 . S
C252 C251 1.524 . S
C253 C250 1.403 . S
C253 C254 1.392 . S
C253 C257 1.495 . S
C254 C253 1.392 . S
C254 C255 1.385 . S
C254 C256 1.478 . S
C255 H249 0.930 . S
C255 C251 1.400 . S
C255 C254 1.385 . S
C256 C254 1.478 . S
C256 C258 1.381 . S
C256 C262 1.383 . S
C257 C253 1.495 . S
C257 H263 0.959 . S
C257 H264 0.961 . S
C257 H265 0.960 . S
C258 C256 1.381 . S
C258 C259 1.394 . S
C258 H266 0.930 . S
C259 C258 1.394 . S
C259 C260 1.383 . S
C259 H267 0.929 . S
C260 C259 1.383 . S
C260 C261 1.377 . S
C261 H245 0.930 . S
C261 C260 1.377 . S
C261 C262 1.379 . S
C262 H246 0.931 . S
C262 C256 1.383 . S
C262 C261 1.379 . S
H263 C257 0.959 . S
H264 C257 0.961 . S
H265 C257 0.960 . S
H266 C258 0.930 . S
H267 C259 0.929 . S
H268 C276 0.929 . S
H269 C278 0.930 . S
H270 C280 0.930 . S
H271 C283 0.929 . S
H272 C286 0.930 . S
H273 C288 0.960 . S
H274 C288 0.960 . S
H275 C288 0.960 . S
C276 H268 0.929 . S
C276 C277 1.377 . S
C276 C278 1.384 . S
C277 C276 1.377 . S
C277 C283 1.390 . S
C278 H269 0.930 . S
C278 C276 1.384 . S
C278 C279 1.372 . S
C279 C278 1.372 . S
C279 C280 1.400 . S
C279 C284 1.490 . S
C280 H270 0.930 . S
C280 C279 1.400 . S
C280 C283 1.386 . S
H281 C297 0.930 . S
H282 C298 0.931 . S
C283 H271 0.929 . S
C283 C277 1.390 . S
C283 C280 1.386 . S
C284 C279 1.490 . S
C284 C286 1.395 . S
C284 C287 1.403 . S
H285 C291 0.930 . S
C286 H272 0.930 . S
C286 C284 1.395 . S
C286 C289 1.403 . S
C287 C284 1.403 . S
C287 C288 1.524 . S
C287 C291 1.400 . S
C288 H273 0.960 . S
C288 H274 0.960 . S
C288 H275 0.960 . S
C288 C287 1.524 . S
C289 C286 1.403 . S
C289 C290 1.392 . S
C289 C293 1.495 . S
C290 C289 1.392 . S
C290 C291 1.385 . S
C290 C292 1.478 . S
C291 H285 0.930 . S
C291 C287 1.400 . S
C291 C290 1.385 . S
C292 C290 1.478 . S
C292 C294 1.381 . S
C292 C298 1.383 . S
C293 C289 1.495 . S
C293 H299 0.959 . S
C293 H300 0.961 . S
C293 H301 0.960 . S
C294 C292 1.381 . S
C294 C295 1.394 . S
C294 H302 0.930 . S
C295 C294 1.394 . S
C295 C296 1.383 . S
C295 H303 0.929 . S
C296 C295 1.383 . S
C296 C297 1.377 . S
C297 H281 0.930 . S
C297 C296 1.377 . S
C297 C298 1.379 . S
C298 H282 0.931 . S
C298 C292 1.383 . S
C298 C297 1.379 . S
H299 C293 0.959 . S
H300 C293 0.961 . S
H301 C293 0.960 . S
H302 C294 0.930 . S
H303 C295 0.929 . S
H304 C312 0.929 . S
H305 C314 0.930 . S
H306 C316 0.930 . S
H307 C319 0.929 . S
H308 C322 0.930 . S
H309 C324 0.960 . S
H310 C324 0.960 . S
H311 C324 0.960 . S
C312 H304 0.929 . S
C312 C313 1.377 . S
C312 C314 1.384 . S
C313 C312 1.377 . S
C313 C319 1.390 . S
C314 H305 0.930 . S
C314 C312 1.384 . S
C314 C315 1.372 . S
C315 C314 1.372 . S
C315 C316 1.400 . S
C315 C320 1.490 . S
C316 H306 0.930 . S
C316 C315 1.400 . S
C316 C319 1.386 . S
H317 C333 0.930 1_554 S
H318 C334 0.931 . S
C319 H307 0.929 . S
C319 C313 1.390 . S
C319 C316 1.386 . S
C320 C315 1.490 . S
C320 C322 1.395 . S
C320 C323 1.403 . S
H321 C327 0.930 . S
C322 H308 0.930 . S
C322 C320 1.395 . S
C322 C325 1.403 . S
C323 C320 1.403 . S
C323 C324 1.524 . S
C323 C327 1.400 . S
C324 H309 0.960 . S
C324 H310 0.960 . S
C324 H311 0.960 . S
C324 C323 1.524 . S
C325 C322 1.403 . S
C325 C326 1.392 . S
C325 C329 1.495 . S
C326 C325 1.392 . S
C326 C327 1.385 . S
C326 C328 1.478 . S
C327 H321 0.930 . S
C327 C323 1.400 . S
C327 C326 1.385 . S
C328 C326 1.478 . S
C328 C330 1.381 . S
C328 C334 1.383 . S
C329 C325 1.495 . S
C329 H335 0.959 . S
C329 H336 0.961 . S
C329 H337 0.960 . S
C330 C328 1.381 . S
C330 C331 1.394 . S
C330 H338 0.930 . S
C331 C330 1.394 . S
C331 C332 1.383 . S
C331 H339 0.929 . S
C332 C331 1.383 . S
C332 C333 1.377 . S
C333 H317 0.930 1_556 S
C333 C332 1.377 . S
C333 C334 1.379 . S
C334 H318 0.931 . S
C334 C328 1.383 . S
C334 C333 1.379 . S
H335 C329 0.959 . S
H336 C329 0.961 . S
H337 C329 0.960 . S
H338 C330 0.930 . S
H339 C331 0.929 . S
C61 C5 0.979 . S
C80 C36 0.997 . S
C97 C23 1.009 . S
C116 C44 0.962 1_565 S
C133 C10 1.008 . S
C152 C31 1.013 . S
C169 C18 0.985 . S
C188 C49 1.001 . S
C205 C21 1.434 . S
C224 C8 1.436 . S
C241 C13 1.418 . S
C260 C26 1.397 . S
C277 C47 1.431 . S
C296 C34 1.420 . S
C313 C39 1.419 . S
C332 C0 1.403 . S
