# Generated by pormake.
# Topology zfe, (5)-cn, num edge types: 1
# Building blocks:
#     Node 0, Type 0, BuildingBlock: XOMCOT_clean_sbu_1, # of connection points: 5
#     Node 1, Type 0, BuildingBlock: XOMCOT_clean_sbu_1, # of connection points: 5
#     Node 2, Type 0, BuildingBlock: XOMCOT_clean_sbu_1, # of connection points: 5
#     Node 3, Type 0, BuildingBlock: XOMCOT_clean_sbu_1, # of connection points: 5
#     Node 4, Type 0, BuildingBlock: XOMCOT_clean_sbu_1, # of connection points: 5
#     Node 5, Type 0, BuildingBlock: XOMCOT_clean_sbu_1, # of connection points: 5
#     Node 6, Type 0, BuildingBlock: XOMCOT_clean_sbu_1, # of connection points: 5
#     Node 7, Type 0, BuildingBlock: XOMCOT_clean_sbu_1, # of connection points: 5
#     Node 8, Type 0, BuildingBlock: XOMCOT_clean_sbu_1, # of connection points: 5
#     Node 9, Type 0, BuildingBlock: XOMCOT_clean_sbu_1, # of connection points: 5
#     Node 10, Type 0, BuildingBlock: XOMCOT_clean_sbu_1, # of connection points: 5
#     Node 11, Type 0, BuildingBlock: XOMCOT_clean_sbu_1, # of connection points: 5
#     Node 12, Type 0, BuildingBlock: XOMCOT_clean_sbu_1, # of connection points: 5
#     Node 13, Type 0, BuildingBlock: XOMCOT_clean_sbu_1, # of connection points: 5
#     Node 14, Type 0, BuildingBlock: XOMCOT_clean_sbu_1, # of connection points: 5
#     Node 15, Type 0, BuildingBlock: XOMCOT_clean_sbu_1, # of connection points: 5
#     Edge 16, Type (0, 0), BuildingBlock: KIFKEQ_clean_linker_1, # of connection points: 2
#     Edge 17, Type (0, 0), BuildingBlock: KIFKEQ_clean_linker_1, # of connection points: 2
#     Edge 18, Type (0, 0), BuildingBlock: KIFKEQ_clean_linker_1, # of connection points: 2
#     Edge 19, Type (0, 0), BuildingBlock: KIFKEQ_clean_linker_1, # of connection points: 2
#     Edge 20, Type (0, 0), BuildingBlock: KIFKEQ_clean_linker_1, # of connection points: 2
#     Edge 21, Type (0, 0), BuildingBlock: KIFKEQ_clean_linker_1, # of connection points: 2
#     Edge 22, Type (0, 0), BuildingBlock: KIFKEQ_clean_linker_1, # of connection points: 2
#     Edge 23, Type (0, 0), BuildingBlock: KIFKEQ_clean_linker_1, # of connection points: 2
#     Edge 24, Type (0, 0), BuildingBlock: KIFKEQ_clean_linker_1, # of connection points: 2
#     Edge 25, Type (0, 0), BuildingBlock: KIFKEQ_clean_linker_1, # of connection points: 2
#     Edge 26, Type (0, 0), BuildingBlock: KIFKEQ_clean_linker_1, # of connection points: 2
#     Edge 27, Type (0, 0), BuildingBlock: KIFKEQ_clean_linker_1, # of connection points: 2
#     Edge 28, Type (0, 0), BuildingBlock: KIFKEQ_clean_linker_1, # of connection points: 2
#     Edge 29, Type (0, 0), BuildingBlock: KIFKEQ_clean_linker_1, # of connection points: 2
#     Edge 30, Type (0, 0), BuildingBlock: KIFKEQ_clean_linker_1, # of connection points: 2
#     Edge 31, Type (0, 0), BuildingBlock: KIFKEQ_clean_linker_1, # of connection points: 2
#     Edge 32, Type (0, 0), BuildingBlock: KIFKEQ_clean_linker_1, # of connection points: 2
#     Edge 33, Type (0, 0), BuildingBlock: KIFKEQ_clean_linker_1, # of connection points: 2
#     Edge 34, Type (0, 0), BuildingBlock: KIFKEQ_clean_linker_1, # of connection points: 2
#     Edge 35, Type (0, 0), BuildingBlock: KIFKEQ_clean_linker_1, # of connection points: 2
#     Edge 36, Type (0, 0), BuildingBlock: KIFKEQ_clean_linker_1, # of connection points: 2
#     Edge 37, Type (0, 0), BuildingBlock: KIFKEQ_clean_linker_1, # of connection points: 2
#     Edge 38, Type (0, 0), BuildingBlock: KIFKEQ_clean_linker_1, # of connection points: 2
#     Edge 39, Type (0, 0), BuildingBlock: KIFKEQ_clean_linker_1, # of connection points: 2
#     Edge 40, Type (0, 0), BuildingBlock: KIFKEQ_clean_linker_1, # of connection points: 2
#     Edge 41, Type (0, 0), BuildingBlock: KIFKEQ_clean_linker_1, # of connection points: 2
#     Edge 42, Type (0, 0), BuildingBlock: KIFKEQ_clean_linker_1, # of connection points: 2
#     Edge 43, Type (0, 0), BuildingBlock: KIFKEQ_clean_linker_1, # of connection points: 2
#     Edge 44, Type (0, 0), BuildingBlock: KIFKEQ_clean_linker_1, # of connection points: 2
#     Edge 45, Type (0, 0), BuildingBlock: KIFKEQ_clean_linker_1, # of connection points: 2
#     Edge 46, Type (0, 0), BuildingBlock: KIFKEQ_clean_linker_1, # of connection points: 2
#     Edge 47, Type (0, 0), BuildingBlock: KIFKEQ_clean_linker_1, # of connection points: 2
#     Edge 48, Type (0, 0), BuildingBlock: KIFKEQ_clean_linker_1, # of connection points: 2
#     Edge 49, Type (0, 0), BuildingBlock: KIFKEQ_clean_linker_1, # of connection points: 2
#     Edge 50, Type (0, 0), BuildingBlock: KIFKEQ_clean_linker_1, # of connection points: 2
#     Edge 51, Type (0, 0), BuildingBlock: KIFKEQ_clean_linker_1, # of connection points: 2
#     Edge 52, Type (0, 0), BuildingBlock: KIFKEQ_clean_linker_1, # of connection points: 2
#     Edge 53, Type (0, 0), BuildingBlock: KIFKEQ_clean_linker_1, # of connection points: 2
#     Edge 54, Type (0, 0), BuildingBlock: KIFKEQ_clean_linker_1, # of connection points: 2
#     Edge 55, Type (0, 0), BuildingBlock: KIFKEQ_clean_linker_1, # of connection points: 2
# Relax obj value: 0.183
# Max RMSD: 0.152
# Mean RMSD: 0.152
data_MOF--net-zfe--node1-XOMCOT_clean_sbu_1--edge1-KIFKEQ_clean_linker_1
_symmetry_space_group_name_H-M    P1
_symmetry_Int_Tables_number       1
_symmetry_cell_setting            triclinic
loop_
_symmetry_equiv_pos_as_xyz
'x, y, z'
_cell_length_a     55.123114
_cell_length_b     55.160394
_cell_length_c     27.891659
_cell_angle_alpha  89.966881
_cell_angle_beta   89.95783
_cell_angle_gamma 90.01586
loop_
_atom_site_label
_atom_site_type_symbol
_atom_site_fract_x
_atom_site_fract_y
_atom_site_fract_z
_atom_type_partial_charge
C0 C 0.08994 0.24845 0.99451 0.0
C1 C 0.10771 0.26579 0.98953 0.0
N2 N 0.10031 0.28612 1.01196 0.0
N3 N 0.07144 0.25762 1.02043 0.0
C4 C 0.07805 0.2808 0.02955 0.0
H5 H 0.09065 0.23012 0.98085 0.0
Co6 Co 0.04325 0.24049 0.0372 0.0
C7 C 0.05 0.26872 0.13453 0.0
O8 O 0.07306 0.2746 0.13235 0.0
N9 N 0.01496 0.2234 0.05524 0.0
C10 C 0.98972 0.2045 0.10512 0.0
C11 C 0.01197 0.21511 0.10053 0.0
C12 C 0.99422 0.21689 0.03242 0.0
N13 N 0.97853 0.20561 0.06248 0.0
O14 O 0.02431 0.26453 1.0034 0.0
H15 H 0.02527 0.21662 0.12885 0.0
H16 H 0.99055 0.22052 0.995 0.0
O17 O 0.04012 0.25717 0.09984 0.0
C18 C 0.0251 0.25689 0.96 0.0
O19 O 0.03564 0.23597 0.95147 0.0
N20 N 0.06228 0.21527 0.06209 0.0
C21 C 0.09402 0.17596 0.07049 0.0
C22 C 0.09654 0.19647 0.10014 0.0
C23 C 0.08046 0.21607 0.09526 0.0
C24 C 0.05925 0.19524 0.03416 0.0
C25 C 0.07472 0.17546 0.03787 0.0
H26 H 0.08354 0.23217 0.11607 0.0
H27 H 0.04545 0.19519 1.00663 0.0
H28 H 0.06676 0.29358 0.04873 0.0
H29 H 0.12512 0.2633 0.97225 0.0
H30 H 0.98244 0.19607 0.13714 0.0
H31 H 0.11119 0.19765 0.12589 0.0
H32 H 0.07228 0.16046 1.01331 0.0
C33 C 0.7625 0.08809 0.99294 0.0
C34 C 0.74481 0.10547 0.9877 0.0
N35 N 0.72492 0.09819 1.01185 0.0
N36 N 0.75398 0.06995 1.02066 0.0
C37 C 0.73083 0.07637 0.0307 0.0
H38 H 0.78066 0.08885 0.97832 0.0
Co39 Co 0.77182 0.04246 0.03906 0.0
C40 C 0.74385 0.05018 0.13606 0.0
O41 O 0.73906 0.07347 0.13381 0.0
N42 N 0.78957 0.01486 0.05939 0.0
C43 C 0.81061 0.99287 0.11165 0.0
C44 C 0.79969 0.01462 0.1035 0.0
C45 C 0.79467 0.99255 0.04132 0.0
N46 N 0.80738 0.97872 0.07292 0.0
O47 O 0.74837 0.02249 1.00556 0.0
H48 H 0.79908 0.02945 0.1288 0.0
H49 H 0.78881 0.98644 1.00634 0.0
O50 O 0.75493 0.03961 0.10157 0.0
C51 C 0.75663 0.02427 0.96264 0.0
O52 O 0.77784 0.03471 0.95654 0.0
N53 N 0.79665 0.06271 0.06261 0.0
C54 C 0.83553 0.09523 0.06817 0.0
C55 C 0.81491 0.09815 0.09741 0.0
C56 C 0.79553 0.08169 0.09392 0.0
C57 C 0.8168 0.05937 0.03502 0.0
C58 C 0.83636 0.07521 0.03736 0.0
H59 H 0.77941 0.0851 0.11433 0.0
H60 H 0.8172 0.0449 1.00893 0.0
H61 H 0.71853 0.06531 0.05157 0.0
H62 H 0.74679 0.1226 0.96916 0.0
H63 H 0.82052 0.98806 0.14374 0.0
H64 H 0.81346 0.11335 0.12179 0.0
H65 H 0.85147 0.07242 1.01317 0.0
C66 C 0.92448 0.76013 0.98712 0.0
C67 C 0.9073 0.7423 0.98084 0.0
N68 N 0.91418 0.72255 1.00585 0.0
N69 N 0.94203 0.75185 1.01651 0.0
C70 C 0.93559 0.72869 1.02621 0.0
H71 H 0.92388 0.77828 0.97246 0.0
Co72 Co 0.96881 0.76995 0.03755 0.0
C73 C 0.96125 0.74032 0.13351 0.0
O74 O 0.93823 0.73432 0.1312 0.0
N75 N 0.99596 0.78775 0.05977 0.0
C76 C 0.01931 0.80667 0.11303 0.0
C77 C 0.99752 0.79547 0.10569 0.0
C78 C 0.0171 0.79511 0.03946 0.0
N79 N 0.03166 0.80645 0.07153 0.0
O80 O 0.98956 0.74724 1.00459 0.0
H81 H 0.98354 0.79315 0.13253 0.0
H82 H 0.02189 0.79203 1.00234 0.0
O83 O 0.97105 0.75235 0.09931 0.0
C84 C 0.99022 0.7555 0.96165 0.0
O85 O 0.97994 0.77652 0.95292 0.0
N86 N 0.94771 0.79393 0.06239 0.0
C87 C 0.91256 0.83068 0.06748 0.0
C88 C 0.90848 0.8078 0.08852 0.0
C89 C 0.92637 0.78972 0.08586 0.0
C90 C 0.95224 0.81626 0.04336 0.0
C91 C 0.93538 0.83495 0.04677 0.0
H92 H 0.92201 0.77183 0.09853 0.0
H93 H 0.96854 0.81937 1.02268 0.0
H94 H 0.94637 0.71653 0.04788 0.0
H95 H 0.8905 0.74416 0.9611 0.0
H96 H 0.02546 0.81486 0.14614 0.0
H97 H 0.89114 0.80326 0.10435 0.0
H98 H 0.94003 0.85234 0.03136 0.0
C99 C 0.24809 0.92188 0.99567 0.0
C100 C 0.26588 0.90463 0.98996 0.0
N101 N 0.28627 0.91264 1.01135 0.0
N102 N 0.25705 0.94065 1.02104 0.0
C103 C 0.28053 0.93475 0.02903 0.0
H104 H 0.22961 0.92061 0.98291 0.0
Co105 Co 0.23958 0.96839 0.03888 0.0
C106 C 0.2687 0.96127 0.13489 0.0
O107 O 0.27465 0.93827 0.13187 0.0
N108 N 0.22216 0.99624 0.05803 0.0
C109 C 0.20318 0.0208 0.10902 0.0
C110 C 0.21404 0.99873 0.10354 0.0
C111 C 0.21533 0.01709 0.036 0.0
N112 N 0.20399 0.03238 0.06672 0.0
O113 O 0.26321 0.9879 1.00524 0.0
H114 H 0.2159 0.98524 0.13144 0.0
H115 H 0.21882 0.02115 0.99867 0.0
O116 O 0.25671 0.97133 0.10099 0.0
C117 C 0.25551 0.9875 0.96189 0.0
O118 O 0.23466 0.97689 0.95306 0.0
N119 N 0.21475 0.94882 0.06384 0.0
C120 C 0.17555 0.91694 0.0732 0.0
C121 C 0.19599 0.9149 0.10325 0.0
C122 C 0.21555 0.93104 0.09784 0.0
C123 C 0.19482 0.95137 0.03544 0.0
C124 C 0.17512 0.93579 0.03952 0.0
H125 H 0.23153 0.92843 0.11929 0.0
H126 H 0.19475 0.96494 1.00745 0.0
H127 H 0.29318 0.9464 0.04763 0.0
H128 H 0.26366 0.88713 0.97298 0.0
H129 H 0.19485 0.02769 0.14143 0.0
H130 H 0.19712 0.90066 0.12988 0.0
H131 H 0.16021 0.93786 1.0146 0.0
C132 C 0.0894 0.76197 0.59234 0.0
C133 C 0.10689 0.74439 0.59784 0.0
N134 N 0.09915 0.72399 0.57616 0.0
N135 N 0.07075 0.75286 0.56683 0.0
C136 C 0.07696 0.7295 0.55853 0.0
H137 H 0.09044 0.78041 0.60533 0.0
Co138 Co 0.04284 0.77017 0.5492 0.0
C139 C 0.04986 0.74111 0.453 0.0
O140 O 0.07293 0.73531 0.45567 0.0
N141 N 0.01485 0.78745 0.5303 0.0
C142 C 0.99012 0.80636 0.47953 0.0
C143 C 0.01216 0.79539 0.48471 0.0
C144 C 0.99416 0.79453 0.55268 0.0
N145 N 0.97878 0.80583 0.52209 0.0
O146 O 0.02349 0.74649 0.58309 0.0
H147 H 0.02553 0.79342 0.45659 0.0
H148 H 0.99032 0.79131 0.5902 0.0
O149 O 0.03985 0.75301 0.48709 0.0
C150 C 0.02399 0.7542 0.62642 0.0
O151 O 0.03462 0.77504 0.63513 0.0
N152 N 0.06224 0.79507 0.52405 0.0
C153 C 0.09386 0.83444 0.51443 0.0
C154 C 0.09608 0.81396 0.48457 0.0
C155 C 0.08005 0.79432 0.49009 0.0
C156 C 0.05954 0.81502 0.5523 0.0
C157 C 0.07498 0.83482 0.54806 0.0
H158 H 0.0828 0.77831 0.46882 0.0
H159 H 0.04596 0.81506 0.5803 0.0
H160 H 0.06547 0.71676 0.53976 0.0
H161 H 0.12436 0.74678 0.61488 0.0
H162 H 0.98311 0.81463 0.44716 0.0
H163 H 0.11037 0.81287 0.45802 0.0
H164 H 0.07279 0.84976 0.57284 0.0
C165 C 0.24947 0.08624 0.6002 0.0
C166 C 0.26726 0.10344 0.60682 0.0
N167 N 0.28726 0.09641 0.58271 0.0
N168 N 0.25802 0.06855 0.5715 0.0
C169 C 0.28129 0.07492 0.56254 0.0
H170 H 0.23118 0.08692 0.61422 0.0
Co171 Co 0.24014 0.04164 0.55053 0.0
C172 C 0.27014 0.04916 0.45501 0.0
O173 O 0.27647 0.07207 0.4577 0.0
N174 N 0.22248 0.01439 0.52839 0.0
C175 C 0.20368 0.99093 0.47517 0.0
C176 C 0.21483 0.01274 0.48243 0.0
C177 C 0.2151 0.99329 0.5488 0.0
N178 N 0.20384 0.97867 0.51675 0.0
O179 O 0.26293 0.02109 0.5837 0.0
H180 H 0.21717 0.02667 0.45552 0.0
H181 H 0.21812 0.98858 0.58598 0.0
O182 O 0.25785 0.03945 0.48893 0.0
C183 C 0.25462 0.02043 0.6266 0.0
O184 O 0.23351 0.0306 0.6352 0.0
N185 N 0.21611 0.06248 0.52545 0.0
C186 C 0.17914 0.09729 0.51935 0.0
C187 C 0.20182 0.10117 0.4973 0.0
C188 C 0.22006 0.08346 0.50061 0.0
C189 C 0.19395 0.05812 0.54543 0.0
C190 C 0.17516 0.07485 0.5417 0.0
H191 H 0.23784 0.08767 0.48708 0.0
H192 H 0.19111 0.04209 0.56703 0.0
H193 H 0.29366 0.06402 0.54155 0.0
H194 H 0.26523 0.12031 0.62618 0.0
H195 H 0.19556 0.98471 0.44204 0.0
H196 H 0.20606 0.11825 0.48014 0.0
H197 H 0.15791 0.07043 0.55806 0.0
C198 C 0.92476 0.25102 0.60333 0.0
C199 C 0.90798 0.26925 0.60893 0.0
N200 N 0.91496 0.28835 0.58211 0.0
N201 N 0.9422 0.25837 0.57269 0.0
C202 C 0.93605 0.28143 0.56133 0.0
H203 H 0.92397 0.23324 0.61961 0.0
Co204 Co 0.96818 0.23888 0.55269 0.0
C205 C 0.96102 0.26649 0.45444 0.0
O206 O 0.93836 0.27371 0.4574 0.0
N207 N 0.9943 0.21934 0.53112 0.0
C208 C 0.01425 0.19621 0.47909 0.0
C209 C 0.99295 0.20782 0.48845 0.0
C210 C 0.01707 0.21442 0.54696 0.0
N211 N 0.02967 0.20043 0.5155 0.0
O212 O 0.99007 0.26167 0.58243 0.0
H213 H 0.97746 0.20816 0.46473 0.0
H214 H 0.02448 0.22142 0.58007 0.0
O215 O 0.97061 0.25466 0.48909 0.0
C216 C 0.99119 0.25404 0.6258 0.0
O217 O 0.98077 0.23329 0.63626 0.0
N218 N 0.94606 0.21511 0.53217 0.0
C219 C 0.91099 0.17855 0.52955 0.0
C220 C 0.90953 0.19857 0.4984 0.0
C221 C 0.92721 0.2169 0.50064 0.0
C222 C 0.9481 0.19535 0.56126 0.0
C223 C 0.93094 0.17688 0.56038 0.0
H224 H 0.925 0.23284 0.47892 0.0
H225 H 0.96272 0.19441 0.587 0.0
H226 H 0.94679 0.29296 0.53824 0.0
H227 H 0.89137 0.2681 0.62951 0.0
H228 H 0.01794 0.18532 0.44767 0.0
H229 H 0.89429 0.20061 0.47426 0.0
H230 H 0.93303 0.16163 0.5845 0.0
C231 C 0.765 0.91899 0.59001 0.0
C232 C 0.7479 0.90099 0.59506 0.0
N233 N 0.72711 0.90856 0.5746 0.0
N234 N 0.75517 0.93782 0.56605 0.0
C235 C 0.73189 0.93113 0.55815 0.0
H236 H 0.78358 0.91826 0.60236 0.0
Co237 Co 0.77134 0.96676 0.55012 0.0
C238 C 0.74253 0.95958 0.45425 0.0
O239 O 0.73838 0.93616 0.45615 0.0
N240 N 0.78732 0.99583 0.53264 0.0
C241 C 0.80465 0.02215 0.48273 0.0
C242 C 0.79471 0.99959 0.48697 0.0
C243 C 0.79361 0.0165 0.55596 0.0
N244 N 0.80397 0.03285 0.52591 0.0
O245 O 0.7473 0.9845 0.58694 0.0
H246 H 0.79308 0.98659 0.45813 0.0
H247 H 0.7904 0.01965 0.59372 0.0
O248 O 0.75358 0.97025 0.48864 0.0
C249 C 0.75585 0.98158 0.62937 0.0
O250 O 0.77727 0.97132 0.63366 0.0
N251 N 0.79691 0.9488 0.52292 0.0
C252 C 0.83654 0.91742 0.51445 0.0
C253 C 0.8159 0.91451 0.48534 0.0
C254 C 0.79616 0.93041 0.49022 0.0
C255 C 0.81723 0.95241 0.54983 0.0
C256 C 0.83718 0.93714 0.54603 0.0
H257 H 0.78 0.92681 0.47013 0.0
H258 H 0.81736 0.96635 0.57705 0.0
H259 H 0.71868 0.94257 0.54054 0.0
H260 H 0.75082 0.88334 0.61102 0.0
H261 H 0.81229 0.03 0.45047 0.0
H262 H 0.81464 0.89958 0.46028 0.0
H263 H 0.85234 0.93993 0.57007 0.0
C264 C 0.58913 0.74695 0.49006 0.0
C265 C 0.60695 0.76421 0.48473 0.0
N266 N 0.60001 0.78436 0.50829 0.0
N267 N 0.57106 0.75601 0.51728 0.0
C268 C 0.57796 0.77905 0.52688 0.0
H269 H 0.58951 0.72874 0.47572 0.0
Co270 Co 0.54299 0.73891 0.53481 0.0
C271 C 0.55032 0.76704 0.63219 0.0
O272 O 0.57346 0.77261 0.62987 0.0
N273 N 0.51479 0.72186 0.55363 0.0
C274 C 0.49002 0.70292 0.60436 0.0
C275 C 0.51243 0.71308 0.59869 0.0
C276 C 0.49346 0.7162 0.53207 0.0
N277 N 0.47806 0.70488 0.56266 0.0
O278 O 0.52389 0.76304 0.50158 0.0
H279 H 0.52619 0.71414 0.62622 0.0
H280 H 0.4891 0.72064 0.49528 0.0
O281 O 0.54024 0.7556 0.59757 0.0
C282 C 0.52419 0.75539 0.45816 0.0
O283 O 0.53431 0.7343 0.44931 0.0
N284 N 0.5622 0.71362 0.55903 0.0
C285 C 0.59396 0.67424 0.56632 0.0
C286 C 0.5967 0.6947 0.59605 0.0
C287 C 0.58061 0.71434 0.5917 0.0
C288 C 0.55898 0.69366 0.53101 0.0
C289 C 0.57446 0.67385 0.53416 0.0
H290 H 0.58384 0.73039 0.61257 0.0
H291 H 0.54498 0.69367 0.50386 0.0
H292 H 0.56704 0.79175 0.54704 0.0
H293 H 0.62411 0.76179 0.46644 0.0
H294 H 0.48307 0.69441 0.63658 0.0
H295 H 0.61149 0.69581 0.62148 0.0
H296 H 0.57185 0.65891 0.50954 0.0
C297 C 0.2598 0.58613 0.4863 0.0
C298 C 0.24184 0.60318 0.48036 0.0
N299 N 0.22256 0.59656 0.50703 0.0
N300 N 0.25206 0.56888 0.51694 0.0
C301 C 0.22907 0.57543 0.52806 0.0
H302 H 0.27766 0.58661 0.47024 0.0
Co303 Co 0.27109 0.54272 0.53743 0.0
C304 C 0.24259 0.55007 0.63467 0.0
O305 O 0.23692 0.57316 0.63254 0.0
N306 N 0.2903 0.51653 0.55948 0.0
C307 C 0.31292 0.49668 0.61254 0.0
C308 C 0.29918 0.51681 0.60466 0.0
C309 C 0.29907 0.49562 0.54048 0.0
N310 N 0.3131 0.48333 0.57227 0.0
O311 O 0.24867 0.5211 0.50562 0.0
H312 H 0.2961 0.53105 0.63059 0.0
H313 H 0.29572 0.48979 0.50405 0.0
O314 O 0.25411 0.54002 0.60009 0.0
C315 C 0.25694 0.52011 0.46266 0.0
O316 O 0.27791 0.53043 0.4536 0.0
N317 N 0.29478 0.56449 0.5598 0.0
C318 C 0.33148 0.59937 0.56318 0.0
C319 C 0.3116 0.60061 0.59468 0.0
C320 C 0.29319 0.58303 0.59207 0.0
C321 C 0.31456 0.56255 0.53069 0.0
C322 C 0.33307 0.57965 0.53184 0.0
H323 H 0.27741 0.58516 0.61413 0.0
H324 H 0.31541 0.54815 0.50448 0.0
H325 H 0.2173 0.56497 0.55117 0.0
H326 H 0.24331 0.61972 0.45966 0.0
H327 H 0.32204 0.49216 0.64573 0.0
H328 H 0.30969 0.61565 0.61933 0.0
H329 H 0.34825 0.57775 0.50744 0.0
C330 C 0.42368 0.25846 0.49452 0.0
C331 C 0.40682 0.24035 0.48852 0.0
N332 N 0.4138 0.221 0.51456 0.0
N333 N 0.44119 0.25078 0.52464 0.0
C334 C 0.43498 0.22764 0.53529 0.0
H335 H 0.42292 0.27636 0.47881 0.0
Co336 Co 0.46721 0.27016 0.54476 0.0
C337 C 0.46052 0.24143 0.64194 0.0
O338 O 0.43774 0.23457 0.63934 0.0
N339 N 0.49321 0.28978 0.56617 0.0
C340 C 0.51303 0.31302 0.61817 0.0
C341 C 0.49311 0.29884 0.6112 0.0
C342 C 0.51376 0.29894 0.54627 0.0
N343 N 0.52604 0.31335 0.5774 0.0
O344 O 0.4891 0.24785 0.51351 0.0
H345 H 0.47912 0.2956 0.63762 0.0
H346 H 0.5193 0.29565 0.50962 0.0
O347 O 0.47004 0.25351 0.60751 0.0
C348 C 0.4897 0.25556 0.47016 0.0
O349 O 0.47865 0.27603 0.46011 0.0
N350 N 0.44526 0.29356 0.56701 0.0
C351 C 0.4106 0.33033 0.57208 0.0
C352 C 0.40989 0.3107 0.60427 0.0
C353 C 0.42736 0.2922 0.60076 0.0
C354 C 0.44661 0.313 0.53697 0.0
C355 C 0.42958 0.33151 0.53888 0.0
H356 H 0.42582 0.27662 0.6237 0.0
H357 H 0.46057 0.31363 0.50977 0.0
H358 H 0.44573 0.21586 0.55781 0.0
H359 H 0.39016 0.24174 0.46819 0.0
H360 H 0.51763 0.32238 0.65104 0.0
H361 H 0.39547 0.30919 0.63048 0.0
H362 H 0.43111 0.34652 0.51398 0.0
C363 C 0.75005 0.42056 0.49157 0.0
C364 C 0.768 0.40344 0.48652 0.0
N365 N 0.78806 0.41149 0.509 0.0
N366 N 0.75855 0.43931 0.5176 0.0
C367 C 0.78197 0.43351 0.52669 0.0
H368 H 0.73175 0.4192 0.47787 0.0
Co369 Co 0.74028 0.46672 0.53466 0.0
C370 C 0.76897 0.46086 0.63159 0.0
O371 O 0.77536 0.43795 0.62927 0.0
N372 N 0.72202 0.4942 0.553 0.0
C373 C 0.7022 0.51838 0.60346 0.0
C374 C 0.71339 0.49646 0.59819 0.0
C375 C 0.7152 0.51505 0.53094 0.0
N376 N 0.70334 0.5301 0.56136 0.0
O377 O 0.76348 0.48672 0.50081 0.0
H378 H 0.71525 0.48297 0.6261 0.0
H379 H 0.71918 0.51933 0.4939 0.0
O380 O 0.75703 0.47049 0.59712 0.0
C381 C 0.75594 0.48561 0.45737 0.0
O382 O 0.73549 0.4742 0.44875 0.0
N383 N 0.71589 0.44658 0.5595 0.0
C384 C 0.67799 0.41325 0.56773 0.0
C385 C 0.69781 0.41244 0.59944 0.0
C386 C 0.71684 0.42923 0.59439 0.0
C387 C 0.69625 0.44815 0.53003 0.0
C388 C 0.67716 0.43179 0.53354 0.0
H389 H 0.73256 0.42745 0.61685 0.0
H390 H 0.69594 0.4616 0.50184 0.0
H391 H 0.79433 0.44519 0.546 0.0
H392 H 0.76609 0.38599 0.46922 0.0
H393 H 0.69355 0.52513 0.63567 0.0
H394 H 0.6991 0.39834 0.62635 0.0
H395 H 0.66205 0.43339 0.50893 0.0
C396 C 0.58994 0.26117 0.10132 0.0
C397 C 0.60743 0.24357 0.10619 0.0
N398 N 0.59978 0.22343 0.08345 0.0
N399 N 0.57136 0.25236 0.07518 0.0
C400 C 0.57763 0.22911 0.06581 0.0
H401 H 0.5909 0.27943 0.11528 0.0
Co402 Co 0.54351 0.27006 0.05858 0.0
C403 C 0.54973 0.24172 0.96131 0.0
O404 O 0.57278 0.23578 0.96342 0.0
N405 N 0.5156 0.28777 0.04077 0.0
C406 C 0.49073 0.30711 0.99092 0.0
C407 C 0.5129 0.29634 0.99564 0.0
C408 C 0.49477 0.29422 0.06337 0.0
N409 N 0.4793 0.30577 0.03332 0.0
O410 O 0.52407 0.24639 0.09242 0.0
H411 H 0.52627 0.29477 0.96742 0.0
H412 H 0.49081 0.29022 0.10055 0.0
O413 O 0.53992 0.25339 0.99595 0.0
C414 C 0.52516 0.25381 0.13594 0.0
O415 O 0.53622 0.27443 0.14469 0.0
N416 N 0.56309 0.29491 0.03374 0.0
C417 C 0.5958 0.33335 1.02569 0.0
C418 C 0.59689 0.31363 0.99378 0.0
C419 C 0.58041 0.29433 0.99874 0.0
C420 C 0.56122 0.31445 0.06337 0.0
C421 C 0.57727 0.3338 0.05995 0.0
H422 H 0.58244 0.2787 0.97615 0.0
H423 H 0.5478 0.31447 0.09165 0.0
H424 H 0.56622 0.21655 0.0464 0.0
H425 H 0.62485 0.24575 0.12356 0.0
H426 H 0.4836 0.31565 0.95892 0.0
H427 H 0.611 0.31262 0.96682 0.0
H428 H 0.57546 0.34881 0.08473 0.0
C429 C 0.75129 0.58768 0.09691 0.0
C430 C 0.76951 0.60444 0.10268 0.0
N431 N 0.78893 0.59712 0.07716 0.0
N432 N 0.75896 0.5699 0.06744 0.0
C433 C 0.7822 0.57584 0.057 0.0
H434 H 0.73331 0.58871 0.11231 0.0
Co435 Co 0.73946 0.54387 0.04771 0.0
C436 C 0.76844 0.55012 0.9508 0.0
O437 O 0.7753 0.57289 0.95338 0.0
N438 N 0.71972 0.51789 0.0267 0.0
C439 C 0.69643 0.49795 0.97497 0.0
C440 C 0.71078 0.51778 0.98158 0.0
C441 C 0.71033 0.49756 0.04702 0.0
N442 N 0.69589 0.48522 1.01605 0.0
O443 O 0.7616 0.52204 0.07956 0.0
H444 H 0.7142 0.53157 0.95485 0.0
H445 H 0.71347 0.49224 0.08384 0.0
O446 O 0.75625 0.54064 0.98514 0.0
C447 C 0.7539 0.52181 0.12295 0.0
O448 O 0.73355 0.53314 0.13276 0.0
N449 N 0.71618 0.56581 1.02483 0.0
C450 C 0.67943 0.60045 1.01846 0.0
C451 C 0.69906 0.60079 0.98621 0.0
C452 C 0.71754 0.58334 0.99036 0.0
C453 C 0.69675 0.56481 0.05497 0.0
C454 C 0.67825 0.58183 0.05243 0.0
H455 H 0.73307 0.58459 0.96721 0.0
H456 H 0.69609 0.55112 0.08268 0.0
H457 H 0.794 0.56484 0.03497 0.0
H458 H 0.76815 0.62127 0.12244 0.0
H459 H 0.6871 0.49322 0.94214 0.0
H460 H 0.70057 0.61491 0.95938 0.0
H461 H 0.66323 0.58058 0.0774 0.0
C462 C 0.42455 0.75305 0.10068 0.0
C463 C 0.40776 0.77121 0.10684 0.0
N464 N 0.41457 0.7904 0.08012 0.0
N465 N 0.44183 0.76054 0.06982 0.0
C466 C 0.43557 0.78361 0.05886 0.0
H467 H 0.42387 0.73521 0.11674 0.0
Co468 Co 0.46758 0.74095 0.04921 0.0
C469 C 0.46114 0.76975 0.95187 0.0
O470 O 0.43848 0.77698 0.95434 0.0
N471 N 0.49331 0.72114 0.02724 0.0
C472 C 0.51273 0.69783 0.97472 0.0
C473 C 0.4927 0.71175 0.98249 0.0
C474 C 0.51431 0.71249 0.0461 0.0
N475 N 0.52635 0.69805 1.01466 0.0
O476 O 0.48976 0.76302 0.08026 0.0
H477 H 0.47838 0.71475 0.95669 0.0
H478 H 0.52042 0.71628 0.08218 0.0
O479 O 0.4704 0.75756 0.9864 0.0
C480 C 0.49064 0.75506 0.12342 0.0
O481 O 0.47971 0.73449 0.13325 0.0
N482 N 0.44529 0.71781 0.0272 0.0
C483 C 0.4103 0.68135 1.02184 0.0
C484 C 0.4096 0.70122 0.99023 0.0
C485 C 0.42723 0.71956 0.9939 0.0
C486 C 0.44657 0.6982 0.05678 0.0
C487 C 0.42938 0.67982 0.0547 0.0
H488 H 0.42571 0.73531 0.97145 0.0
H489 H 0.46064 0.69728 0.08369 0.0
H490 H 0.44617 0.79527 0.03576 0.0
H491 H 0.39124 0.76995 0.12767 0.0
H492 H 0.51705 0.6884 0.94177 0.0
H493 H 0.39509 0.70302 0.96433 0.0
H494 H 0.43089 0.66463 0.07915 0.0
C495 C 0.26185 0.42389 0.10144 0.0
C496 C 0.24421 0.40646 0.10721 0.0
N497 N 0.22469 0.41292 0.08109 0.0
N498 N 0.25366 0.44121 0.07145 0.0
C499 C 0.23075 0.43431 0.06055 0.0
H500 H 0.27978 0.42365 0.11713 0.0
Co501 Co 0.27179 0.46808 0.05123 0.0
C502 C 0.24381 0.45958 0.95393 0.0
O503 O 0.2391 0.43627 0.95611 0.0
N504 N 0.29003 0.49503 0.02927 0.0
C505 C 0.31191 0.51577 0.97624 0.0
C506 C 0.29855 0.49535 0.9838 0.0
C507 C 0.29866 0.51587 0.04883 0.0
N508 N 0.31225 0.52869 1.01706 0.0
O509 O 0.24858 0.48881 0.08311 0.0
H510 H 0.29569 0.48122 0.95755 0.0
H511 H 0.2957 0.52119 0.0857 0.0
O512 O 0.25479 0.47015 0.98854 0.0
C513 C 0.25684 0.48994 0.12604 0.0
O514 O 0.27811 0.4802 0.1349 0.0
N515 N 0.29637 0.44726 0.02882 0.0
C516 C 0.33523 0.41466 1.02446 0.0
C517 C 0.31461 0.41148 0.99534 0.0
C518 C 0.29524 0.42799 0.99823 0.0
C519 C 0.31643 0.45075 0.05649 0.0
C520 C 0.33599 0.43488 0.05473 0.0
H521 H 0.27914 0.42444 0.97787 0.0
H522 H 0.31678 0.4654 0.0822 0.0
H523 H 0.21872 0.44471 0.0379 0.0
H524 H 0.24604 0.38982 0.12746 0.0
H525 H 0.3208 0.5207 0.94301 0.0
H526 H 0.31319 0.39608 0.97144 0.0
H527 H 0.35105 0.43788 0.0789 0.0
H528 H 0.13427 0.30517 0.95278 0.0
H529 H 0.09918 0.31586 0.08946 0.0
H530 H 0.16187 0.33865 0.96997 0.0
H531 H 0.12662 0.34964 0.10653 0.0
H532 H 0.20357 0.38114 0.1423 0.0
H533 H 0.17064 0.35292 0.12461 0.0
H534 H 0.16443 0.38312 0.9823 0.0
H535 H 0.19762 0.41114 0.99989 0.0
C536 C 0.1323 0.31484 0.98631 0.0
C537 C 0.11461 0.30772 1.01985 0.0
C538 C 0.14798 0.33419 0.99602 0.0
C539 C 0.14654 0.34679 0.03975 0.0
C540 C 0.12835 0.34017 0.07269 0.0
C541 C 0.11247 0.32096 0.06273 0.0
C542 C 0.19505 0.38188 0.10738 0.0
C543 C 0.20336 0.39831 0.07245 0.0
C544 C 0.17603 0.36584 0.09735 0.0
C545 C 0.16495 0.36566 0.05193 0.0
C546 C 0.17271 0.38263 1.01749 0.0
C547 C 0.19159 0.39885 0.02772 0.0
H548 H 0.69673 0.09812 0.09168 0.0
H549 H 0.7043 0.13082 0.9519 0.0
H550 H 0.6631 0.12555 0.1097 0.0
H551 H 0.67089 0.15841 0.97 0.0
H552 H 0.59897 0.1946 1.00466 0.0
H553 H 0.62646 0.16097 0.98663 0.0
H554 H 0.66056 0.17 0.12478 0.0
H555 H 0.63297 0.20339 0.14283 0.0
C556 C 0.69095 0.11086 0.06448 0.0
C557 C 0.7033 0.11237 1.02043 0.0
C558 C 0.67181 0.12673 0.07497 0.0
C559 C 0.66437 0.14428 0.04141 0.0
C560 C 0.67602 0.14502 0.99655 0.0
C561 C 0.69531 0.12935 0.9863 0.0
C562 C 0.61201 0.18907 0.03152 0.0
C563 C 0.61387 0.20176 0.07509 0.0
C564 C 0.62791 0.16995 1.02103 0.0
C565 C 0.64581 0.16287 0.05415 0.0
C566 C 0.6469 0.17485 0.09859 0.0
C567 C 0.63121 0.19412 0.10881 0.0
H568 H 0.81644 0.59761 0.99631 0.0
H569 H 0.81057 0.62873 0.13773 0.0
H570 H 0.85003 0.62508 0.97807 0.0
H571 H 0.84376 0.65645 0.11935 0.0
H572 H 0.91455 0.69362 0.08474 0.0
H573 H 0.8873 0.65986 0.10211 0.0
H574 H 0.85349 0.66904 0.96369 0.0
H575 H 0.88109 0.70244 0.94597 0.0
C576 C 0.82258 0.61001 1.0238 0.0
C577 C 0.81069 0.61107 0.0684 0.0
C578 C 0.84167 0.62594 1.01318 0.0
C579 C 0.84951 0.64312 0.0471 0.0
C580 C 0.83835 0.64337 0.09246 0.0
C581 C 0.81916 0.62761 0.1029 0.0
C582 C 0.90166 0.68815 0.0576 0.0
C583 C 0.89994 0.70091 1.01404 0.0
C584 C 0.88585 0.66891 0.06776 0.0
C585 C 0.86806 0.66181 0.03446 0.0
C586 C 0.86706 0.67388 0.99006 0.0
C587 C 0.88274 0.69321 0.98005 0.0
H588 H 0.30537 0.87856 0.95257 0.0
H589 H 0.31706 0.91532 0.08712 0.0
H590 H 0.33962 0.85187 0.96933 0.0
H591 H 0.35162 0.88885 0.10364 0.0
H592 H 0.38403 0.8127 0.14196 0.0
H593 H 0.35567 0.84539 0.12388 0.0
H594 H 0.38416 0.8497 0.97988 0.0
H595 H 0.41232 0.81668 0.9979 0.0
C596 C 0.31543 0.88111 0.98549 0.0
C597 C 0.30833 0.89896 1.01864 0.0
C598 C 0.33522 0.86596 0.99493 0.0
C599 C 0.34833 0.86812 0.03796 0.0
C600 C 0.34177 0.88655 0.07036 0.0
C601 C 0.32209 0.90187 0.06069 0.0
C602 C 0.3844 0.82078 0.1066 0.0
C603 C 0.40032 0.81193 0.07131 0.0
C604 C 0.36828 0.83967 0.09632 0.0
C605 C 0.36752 0.8501 0.05031 0.0
C606 C 0.38411 0.8419 1.01553 0.0
C607 C 0.40042 0.82314 1.02599 0.0
H608 H 0.13327 0.70506 0.63505 0.0
H609 H 0.09714 0.69356 0.49977 0.0
H610 H 0.16044 0.6712 0.61809 0.0
H611 H 0.1241 0.6594 0.48301 0.0
H612 H 0.20065 0.62755 0.44548 0.0
H613 H 0.16781 0.65579 0.46348 0.0
H614 H 0.1629 0.62671 0.60692 0.0
H615 H 0.19604 0.59868 0.589 0.0
C616 C 0.13096 0.69512 0.60191 0.0
C617 C 0.11313 0.70215 0.56865 0.0
C618 C 0.14639 0.67556 0.59235 0.0
C619 C 0.14454 0.66263 0.54906 0.0
C620 C 0.12617 0.66912 0.51649 0.0
C621 C 0.11055 0.68856 0.52629 0.0
C622 C 0.19242 0.62704 0.48071 0.0
C623 C 0.2011 0.61096 0.51587 0.0
C624 C 0.17344 0.64309 0.49093 0.0
C625 C 0.16278 0.64362 0.53675 0.0
C626 C 0.17087 0.62693 0.57142 0.0
C627 C 0.18971 0.6107 0.56101 0.0
H628 H 0.41243 0.19378 0.59572 0.0
H629 H 0.38262 0.19932 0.45314 0.0
H630 H 0.38466 0.16035 0.61335 0.0
H631 H 0.35461 0.1663 0.47089 0.0
H632 H 0.31697 0.0957 0.50494 0.0
H633 H 0.35098 0.12282 0.48851 0.0
H634 H 0.34051 0.15708 0.62613 0.0
H635 H 0.30685 0.12963 0.64292 0.0
C636 C 0.40026 0.18761 0.56787 0.0
C637 C 0.39965 0.19935 0.5231 0.0
C638 C 0.38416 0.16861 0.57813 0.0
C639 C 0.36726 0.16072 0.54367 0.0
C640 C 0.36746 0.17175 0.49819 0.0
C641 C 0.38339 0.19084 0.48811 0.0
C642 C 0.32221 0.10867 0.53212 0.0
C643 C 0.30902 0.11056 0.57517 0.0
C644 C 0.34158 0.12439 0.52249 0.0
C645 C 0.3484 0.14227 0.55583 0.0
C646 C 0.3359 0.14344 0.59975 0.0
C647 C 0.31642 0.12785 0.60922 0.0
H648 H 0.80808 0.37789 0.4504 0.0
H649 H 0.81779 0.41372 0.58651 0.0
H650 H 0.84196 0.35098 0.46847 0.0
H651 H 0.85203 0.38703 0.60439 0.0
H652 H 0.88378 0.31063 0.64283 0.0
H653 H 0.85587 0.34358 0.62395 0.0
H654 H 0.8861 0.34825 0.48138 0.0
H655 H 0.91376 0.31494 0.50013 0.0
C656 C 0.81764 0.3802 0.48396 0.0
C657 C 0.81007 0.39784 0.51714 0.0
C658 C 0.83723 0.36491 0.49417 0.0
C659 C 0.84968 0.36672 0.53803 0.0
C660 C 0.8427 0.38498 0.57049 0.0
C661 C 0.82321 0.40044 0.56005 0.0
C662 C 0.88461 0.31882 0.6076 0.0
C663 C 0.90088 0.30997 0.5729 0.0
C664 C 0.86875 0.33788 0.59687 0.0
C665 C 0.86861 0.34851 0.55102 0.0
C666 C 0.88555 0.34031 0.51689 0.0
C667 C 0.90158 0.32136 0.52778 0.0
H668 H 0.63234 0.80454 0.44716 0.0
H669 H 0.60121 0.81228 0.58825 0.0
H670 H 0.6606 0.83757 0.46421 0.0
H671 H 0.62945 0.84542 0.6054 0.0
H672 H 0.70863 0.87441 0.63392 0.0
H673 H 0.67484 0.84694 0.61753 0.0
H674 H 0.66296 0.88242 0.48157 0.0
H675 H 0.69684 0.90987 0.49803 0.0
C676 C 0.63137 0.81349 0.48163 0.0
C677 C 0.61461 0.80571 0.5164 0.0
C678 C 0.64743 0.83253 0.4913 0.0
C679 C 0.64735 0.84407 0.53625 0.0
C680 C 0.63009 0.83679 0.57056 0.0
C681 C 0.61377 0.81795 0.5606 0.0
C682 C 0.69864 0.87648 0.60076 0.0
C683 C 0.70549 0.89424 0.56721 0.0
C684 C 0.67917 0.86087 0.59151 0.0
C685 C 0.66626 0.86243 0.54815 0.0
C686 C 0.67265 0.88065 0.51516 0.0
C687 C 0.69193 0.89651 0.52475 0.0
H688 H 0.1729 0.04455 0.99591 0.0
H689 H 0.2101 0.07227 0.12005 0.0
H690 H 0.14752 0.08118 0.99378 0.0
H691 H 0.18503 0.10879 0.11822 0.0
H692 H 0.14362 0.17888 0.07946 0.0
H693 H 0.17318 0.14603 0.07186 0.0
H694 H 0.11488 0.09482 0.05154 0.0
H695 H 0.08538 0.12732 0.06038 0.0
C696 C 0.17613 0.05887 1.02167 0.0
C697 C 0.19335 0.05574 0.0581 0.0
C698 C 0.16148 0.07964 1.02093 0.0
C699 C 0.16411 0.09772 0.05624 0.0
C700 C 0.18261 0.09528 0.09046 0.0
C701 C 0.19694 0.07443 0.09154 0.0
C702 C 0.13708 0.16057 0.07419 0.0
C703 C 0.11207 0.15582 0.07041 0.0
C704 C 0.15404 0.1418 0.06933 0.0
C705 C 0.14636 0.11792 0.06018 0.0
C706 C 0.1214 0.11312 0.05726 0.0
C707 C 0.10448 0.13177 0.06259 0.0
H708 H 0.96718 0.17384 0.99243 0.0
H709 H 0.93792 0.21265 0.11323 0.0
H710 H 0.93057 0.1484 0.98998 0.0
H711 H 0.9014 0.18754 0.11106 0.0
H712 H 0.83205 0.14492 0.07309 0.0
H713 H 0.86469 0.17465 0.06418 0.0
H714 H 0.91661 0.11659 0.04913 0.0
H715 H 0.88432 0.08695 0.05926 0.0
C716 C 0.95251 0.17743 1.01727 0.0
C717 C 0.95519 0.19512 0.05293 0.0
C718 C 0.93175 0.16274 1.01638 0.0
C719 C 0.91325 0.1658 0.05076 0.0
C720 C 0.91523 0.18479 0.08401 0.0
C721 C 0.93607 0.19916 0.08526 0.0
C722 C 0.85047 0.13848 0.06864 0.0
C723 C 0.85549 0.11348 0.0668 0.0
C724 C 0.86912 0.15553 0.06304 0.0
C725 C 0.89314 0.14795 0.05506 0.0
C726 C 0.8982 0.12301 0.05391 0.0
C727 C 0.87966 0.10602 0.05998 0.0
H728 H 0.90553 0.86524 0.99728 0.0
H729 H 0.87434 0.839 0.12986 0.0
H730 H 0.87699 0.89826 0.99629 0.0
H731 H 0.8437 0.87034 0.12552 0.0
H732 H 0.81641 0.94715 0.14489 0.0
H733 H 0.83892 0.90999 0.14052 0.0
H734 H 0.83969 0.91518 0.98564 0.0
H735 H 0.81892 0.95425 0.99087 0.0
C736 C 0.8926 0.86637 0.02639 0.0
C737 C 0.89307 0.84964 0.06466 0.0
C738 C 0.8756 0.88516 1.02504 0.0
C739 C 0.85793 0.88751 0.06112 0.0
C740 C 0.85739 0.86984 0.09773 0.0
C741 C 0.87487 0.85142 0.09984 0.0
C742 C 0.82153 0.94059 0.10977 0.0
C743 C 0.81654 0.95425 0.06831 0.0
C744 C 0.83414 0.91875 0.10713 0.0
C745 C 0.84165 0.90932 0.06273 0.0
C746 C 0.83496 0.92206 1.02075 0.0
C747 C 0.82267 0.94435 1.02354 0.0
H748 H 0.12695 0.92547 0.06096 0.0
H749 H 0.17811 0.86755 0.08687 0.0
H750 H 0.09437 0.89594 0.05372 0.0
H751 H 0.1451 0.83802 0.08121 0.0
H752 H 0.07029 0.80265 0.12952 0.0
H753 H 0.10679 0.82783 0.12791 0.0
H754 H 0.08172 0.86171 0.99743 0.0
H755 H 0.04514 0.83622 0.99922 0.0
C756 C 0.13132 0.90644 0.065 0.0
C757 C 0.1553 0.89896 0.07414 0.0
C758 C 0.11261 0.88951 0.06067 0.0
C759 C 0.11725 0.86464 0.06608 0.0
C760 C 0.14101 0.85709 0.07672 0.0
C761 C 0.15987 0.87405 0.08046 0.0
C762 C 0.07294 0.8151 0.09993 0.0
C763 C 0.05498 0.81761 0.06454 0.0
C764 C 0.09381 0.82946 0.09894 0.0
C765 C 0.09698 0.84693 0.06287 0.0
C766 C 0.0796 0.84855 1.02597 0.0
C767 C 0.05885 0.83385 0.0266 0.0
H768 H 0.17354 0.96541 0.58836 0.0
H769 H 0.20821 0.93987 0.45947 0.0
H770 H 0.14811 0.92879 0.58991 0.0
H771 H 0.1831 0.90334 0.46084 0.0
H772 H 0.14333 0.8321 0.50156 0.0
H773 H 0.17269 0.86524 0.50745 0.0
H774 H 0.11434 0.91573 0.53323 0.0
H775 H 0.08499 0.88299 0.52585 0.0
C776 C 0.17616 0.95161 0.56126 0.0
C777 C 0.19271 0.95536 0.52378 0.0
C778 C 0.1615 0.93084 0.56175 0.0
C779 C 0.16346 0.91333 0.52515 0.0
C780 C 0.18121 0.91641 0.48957 0.0
C781 C 0.19554 0.93729 0.48872 0.0
C782 C 0.13671 0.85032 0.50763 0.0
C783 C 0.11174 0.85477 0.51344 0.0
C784 C 0.15356 0.86925 0.5115 0.0
C785 C 0.14584 0.893 0.52174 0.0
C786 C 0.1209 0.89752 0.5266 0.0
C787 C 0.10408 0.87872 0.52217 0.0
H788 H 0.05684 0.19238 0.59575 0.0
H789 H 0.05877 0.18799 0.44127 0.0
H790 H 0.09627 0.17222 0.5994 0.0
H791 H 0.09647 0.16619 0.44472 0.0
H792 H 0.16907 0.13333 0.45331 0.0
H793 H 0.13708 0.1635 0.45638 0.0
H794 H 0.11276 0.13419 0.59203 0.0
H795 H 0.1462 0.10603 0.5915 0.0
C796 C 0.06567 0.18724 0.56262 0.0
C797 C 0.05423 0.19129 0.51835 0.0
C798 C 0.08818 0.17533 0.56461 0.0
C799 C 0.09964 0.16699 0.52238 0.0
C800 C 0.08865 0.17233 0.47816 0.0
C801 C 0.06654 0.18452 0.4762 0.0
C802 C 0.15727 0.13362 0.48433 0.0
C803 C 0.16009 0.11663 0.52152 0.0
C804 C 0.13855 0.1508 0.48582 0.0
C805 C 0.12174 0.15117 0.52401 0.0
C806 C 0.12521 0.1348 0.56203 0.0
C807 C 0.14422 0.11806 0.56109 0.0
H808 H 0.79593 0.07319 0.47488 0.0
H809 H 0.83481 0.04548 0.597 0.0
H810 H 0.8189 0.11092 0.47888 0.0
H811 H 0.85863 0.08298 0.60056 0.0
H812 H 0.89011 0.15882 0.60937 0.0
H813 H 0.86076 0.12583 0.61381 0.0
H814 H 0.85923 0.12234 0.45903 0.0
H815 H 0.88827 0.15567 0.45481 0.0
C816 C 0.80917 0.07548 0.50318 0.0
C817 C 0.81368 0.05653 0.53562 0.0
C818 C 0.82255 0.09694 0.50517 0.0
C819 C 0.84104 0.09988 0.53936 0.0
C820 C 0.84447 0.08146 0.57384 0.0
C821 C 0.83082 0.06 0.57207 0.0
C822 C 0.88344 0.15101 0.57628 0.0
C823 C 0.89168 0.15971 0.53168 0.0
C824 C 0.86664 0.13206 0.57885 0.0
C825 C 0.85764 0.12125 0.53687 0.0
C826 C 0.86543 0.13042 0.4922 0.0
C827 C 0.88215 0.1495 0.48965 0.0
H828 H 0.96763 0.83821 0.59124 0.0
H829 H 0.9383 0.79919 0.47083 0.0
H830 H 0.93136 0.86414 0.59275 0.0
H831 H 0.90216 0.8248 0.47199 0.0
H832 H 0.83304 0.86782 0.5088 0.0
H833 H 0.86553 0.83802 0.51791 0.0
H834 H 0.91758 0.89594 0.53384 0.0
H835 H 0.88537 0.92568 0.52362 0.0
C836 C 0.95302 0.83471 0.56625 0.0
C837 C 0.95559 0.81678 0.53101 0.0
C838 C 0.93246 0.84968 0.56659 0.0
C839 C 0.91405 0.84669 0.53205 0.0
C840 C 0.91592 0.82752 0.49916 0.0
C841 C 0.93656 0.81286 0.49847 0.0
C842 C 0.85146 0.87422 0.5134 0.0
C843 C 0.85653 0.8992 0.51546 0.0
C844 C 0.87003 0.85713 0.51913 0.0
C845 C 0.89405 0.86463 0.52744 0.0
C846 C 0.89917 0.88957 0.52876 0.0
C847 C 0.88069 0.90662 0.52261 0.0
H848 H 0.70959 0.56989 0.61491 0.0
H849 H 0.67232 0.54252 0.49056 0.0
H850 H 0.68469 0.60652 0.61327 0.0
H851 H 0.64709 0.57926 0.48864 0.0
H852 H 0.58513 0.62564 0.55559 0.0
H853 H 0.61448 0.59303 0.5464 0.0
H854 H 0.67302 0.64391 0.5671 0.0
H855 H 0.64363 0.67689 0.575 0.0
C856 C 0.69646 0.57215 0.58638 0.0
C857 C 0.69282 0.55353 0.5528 0.0
C858 C 0.68221 0.59307 0.58541 0.0
C859 C 0.66373 0.59565 0.55119 0.0
C860 C 0.66103 0.57763 0.51578 0.0
C861 C 0.6756 0.55679 0.5164 0.0
C862 C 0.60425 0.63001 0.55776 0.0
C863 C 0.61195 0.65401 0.5658 0.0
C864 C 0.62108 0.61129 0.55225 0.0
C865 C 0.64608 0.61595 0.55522 0.0
C866 C 0.65386 0.63978 0.56454 0.0
C867 C 0.63699 0.65862 0.56956 0.0
H868 H 0.35557 0.62085 0.63776 0.0
H869 H 0.34969 0.62153 0.4835 0.0
H870 H 0.38899 0.64978 0.6331 0.0
H871 H 0.38262 0.65092 0.47861 0.0
H872 H 0.46331 0.67589 0.49034 0.0
H873 H 0.42543 0.65267 0.48821 0.0
H874 H 0.40093 0.68996 0.61571 0.0
H875 H 0.43915 0.7122 0.61832 0.0
C876 C 0.36115 0.62754 0.60293 0.0
C877 C 0.3502 0.61873 0.56105 0.0
C878 C 0.38026 0.64422 0.60013 0.0
C879 C 0.38867 0.6527 0.55536 0.0
C880 C 0.37703 0.64449 0.5136 0.0
C881 C 0.35809 0.62768 0.51642 0.0
C882 C 0.44945 0.67947 0.51695 0.0
C883 C 0.45404 0.69567 0.55454 0.0
C884 C 0.42777 0.66617 0.51597 0.0
C885 C 0.4102 0.66907 0.55238 0.0
C886 C 0.41424 0.6867 0.58789 0.0
C887 C 0.43596 0.69967 0.58912 0.0
H888 H 0.3004 0.44391 0.51897 0.0
H889 H 0.35585 0.47197 0.61295 0.0
H890 H 0.32098 0.40426 0.51876 0.0
H891 H 0.3759 0.43286 0.61343 0.0
H892 H 0.39285 0.3557 0.6487 0.0
H893 H 0.36693 0.39171 0.64645 0.0
H894 H 0.36082 0.38506 0.49268 0.0
H895 H 0.38643 0.34891 0.49507 0.0
C896 C 0.31704 0.44169 0.53907 0.0
C897 C 0.32627 0.46092 0.5666 0.0
C898 C 0.32872 0.41903 0.53926 0.0
C899 C 0.3497 0.4153 0.56717 0.0
C900 C 0.35936 0.43488 0.59288 0.0
C901 C 0.34788 0.45735 0.59242 0.0
C902 C 0.38552 0.36163 0.61464 0.0
C903 C 0.39191 0.34972 0.57206 0.0
C904 C 0.37086 0.38234 0.61322 0.0
C905 C 0.36214 0.3914 0.56924 0.0
C906 C 0.36723 0.37854 0.52705 0.0
C907 C 0.38204 0.35796 0.52843 0.0
H908 H 0.53697 0.35635 0.61755 0.0
H909 H 0.56506 0.30163 0.52194 0.0
H910 H 0.57555 0.37745 0.61552 0.0
H911 H 0.60414 0.32324 0.51925 0.0
H912 H 0.65815 0.38901 0.492 0.0
H913 H 0.62215 0.36316 0.49191 0.0
H914 H 0.61733 0.36995 0.64585 0.0
H915 H 0.65317 0.39614 0.64582 0.0
C916 C 0.55148 0.34876 0.59615 0.0
C917 C 0.54808 0.32705 0.57058 0.0
C918 C 0.57365 0.36084 0.59514 0.0
C919 C 0.5931 0.35172 0.5682 0.0
C920 C 0.5895 0.33061 0.54064 0.0
C921 C 0.56715 0.31833 0.54189 0.0
C922 C 0.64948 0.38481 0.52588 0.0
C923 C 0.65825 0.39489 0.5689 0.0
C924 C 0.629 0.36984 0.52581 0.0
C925 C 0.61672 0.36476 0.56874 0.0
C926 C 0.62622 0.37385 0.61206 0.0
C927 C 0.64684 0.38867 0.61217 0.0
H928 H 0.70734 0.44627 0.07182 0.0
H929 H 0.65269 0.47461 0.97634 0.0
H930 H 0.68547 0.40736 0.07472 0.0
H931 H 0.63131 0.4362 0.97859 0.0
H932 H 0.61267 0.35852 0.94784 0.0
H933 H 0.6387 0.39446 0.94809 0.0
H934 H 0.64548 0.38941 0.10199 0.0
H935 H 0.61979 0.35331 0.10163 0.0
C936 C 0.69059 0.44429 0.05198 0.0
C937 C 0.68197 0.46335 1.02324 0.0
C938 C 0.67816 0.42203 0.05335 0.0
C939 C 0.65699 0.41854 1.02585 0.0
C940 C 0.64795 0.43801 0.99893 0.0
C941 C 0.66019 0.46009 0.9978 0.0
C942 C 0.62008 0.36484 0.98155 0.0
C943 C 0.61393 0.35331 1.02472 0.0
C944 C 0.63482 0.38552 0.98181 0.0
C945 C 0.64388 0.39496 1.0252 0.0
C946 C 0.63882 0.3826 0.06805 0.0
C947 C 0.62394 0.36206 0.06782 0.0
H948 H 0.56584 0.71106 0.06758 0.0
H949 H 0.53785 0.6552 0.97448 0.0
H950 H 0.60547 0.69047 0.06842 0.0
H951 H 0.57697 0.63513 0.97463 0.0
H952 H 0.65422 0.61754 0.94102 0.0
H953 H 0.61825 0.64353 0.94206 0.0
H954 H 0.62453 0.65095 0.09566 0.0
H955 H 0.66066 0.62529 0.09447 0.0
C956 C 0.56807 0.69434 0.04777 0.0
C957 C 0.54885 0.68499 1.02034 0.0
C958 C 0.59073 0.68265 0.04795 0.0
C959 C 0.59449 0.66152 1.02053 0.0
C960 C 0.57493 0.65179 0.99482 0.0
C961 C 0.55245 0.66328 0.9949 0.0
C962 C 0.64822 0.62517 0.97478 0.0
C963 C 0.66003 0.61913 1.01768 0.0
C964 C 0.62753 0.63987 0.97551 0.0
C965 C 0.61836 0.64899 1.01909 0.0
C966 C 0.63113 0.64423 0.06157 0.0
C967 C 0.65169 0.62939 0.06089 0.0
H968 H 0.35479 0.54048 0.97586 0.0
H969 H 0.29991 0.5675 0.07243 0.0
H970 H 0.37493 0.57955 0.9767 0.0
H971 H 0.32058 0.60711 0.07397 0.0
H972 H 0.38644 0.66197 0.09861 0.0
H973 H 0.36066 0.62592 0.09996 0.0
H974 H 0.36587 0.62107 0.94579 0.0
H975 H 0.39197 0.65696 0.94455 0.0
C976 C 0.34696 0.55486 0.99723 0.0
C977 C 0.32548 0.55103 1.02339 0.0
C978 C 0.35848 0.57731 0.99754 0.0
C979 C 0.34901 0.5966 1.02437 0.0
C980 C 0.32817 0.59258 0.0526 0.0
C981 C 0.31644 0.56994 0.05203 0.0
C982 C 0.38183 0.65333 0.06495 0.0
C983 C 0.3915 0.66204 1.02147 0.0
C984 C 0.36692 0.63282 0.06575 0.0
C985 C 0.36152 0.62048 1.02311 0.0
C986 C 0.37004 0.63003 0.97935 0.0
C987 C 0.3848 0.65067 0.97852 0.0
H988 H 0.46743 0.33782 0.10252 0.0
H989 H 0.43888 0.2979 0.98256 0.0
H990 H 0.43054 0.36286 0.10411 0.0
H991 H 0.40206 0.32258 0.98391 0.0
H992 H 0.33214 0.36488 1.02077 0.0
H993 H 0.36503 0.33548 0.03042 0.0
H994 H 0.41647 0.39408 0.04379 0.0
H995 H 0.38396 0.42337 0.03287 0.0
C996 C 0.45285 0.3339 0.07771 0.0
C997 C 0.45581 0.316 0.04253 0.0
C998 C 0.43193 0.34834 0.07811 0.0
C999 C 0.41353 0.34486 0.04371 0.0
C1000 C 0.4158 0.32567 1.01097 0.0
C1001 C 0.43681 0.31153 1.01018 0.0
C1002 C 0.3505 0.3715 1.02501 0.0
C1003 C 0.35532 0.39655 1.02619 0.0
C1004 C 0.3693 0.35465 0.03103 0.0
C1005 C 0.39326 0.36248 0.03881 0.0
C1006 C 0.39811 0.38747 0.03921 0.0
C1007 C 0.37944 0.40426 0.03271 0.0
H1008 H 0.00823 0.25385 0.43414 0.0
H1009 H 0.9445 0.2855 0.36947 0.0
H1010 H 0.02929 0.25611 0.35725 0.0
H1011 H 0.96567 0.28803 0.29279 0.0
H1012 H 1.00151 0.26083 0.15233 0.0
H1013 H 0.98051 0.26163 0.22937 0.0
H1014 H 0.04674 0.28404 0.29897 0.0
H1015 H 0.06785 0.28285 0.22209 0.0
C1016 C 0.99874 0.26149 0.4037 0.0
C1017 C 0.97457 0.26943 0.40829 0.0
C1018 C 0.01089 0.2629 0.3595 0.0
C1019 C 0.99923 0.2722 0.31846 0.0
C1020 C 0.97518 0.28046 0.32328 0.0
C1021 C 0.96307 0.27917 0.36751 0.0
C1022 C 0.01161 0.26606 0.18396 0.0
C1023 C 0.03649 0.27164 0.18073 0.0
C1024 C 0.99949 0.26665 0.22827 0.0
C1025 C 0.01189 0.27276 0.27075 0.0
C1026 C 0.03663 0.27889 0.26729 0.0
C1027 C 0.04872 0.27842 0.22296 0.0
H1028 H 0.74706 0.94123 0.36409 0.0
H1029 H 0.73164 0.00755 0.43966 0.0
H1030 H 0.7465 0.96278 0.28849 0.0
H1031 H 0.72863 0.02911 0.36376 0.0
H1032 H 0.74786 0.06851 0.22637 0.0
H1033 H 0.74655 0.04696 0.302 0.0
H1034 H 0.72931 0.98065 0.22611 0.0
H1035 H 0.73308 1.00219 0.15034 0.0
C1036 C 0.74283 0.96041 0.36434 0.0
C1037 C 0.73928 0.97264 0.40795 0.0
C1038 C 0.74232 0.97293 0.32057 0.0
C1039 C 0.73748 0.99807 0.31868 0.0
C1040 C 0.73311 0.01004 0.36272 0.0
C1041 C 0.73446 0.99761 0.40664 0.0
C1042 C 0.74366 0.04932 0.22601 0.0
C1043 C 0.74051 0.03709 0.1823 0.0
C1044 C 0.7427 0.03681 0.26977 0.0
C1045 C 0.73777 0.01168 0.27149 0.0
C1046 C 0.73383 0.9997 0.22731 0.0
C1047 C 0.73565 0.01212 0.18345 0.0
H1048 H 0.94392 0.72333 0.21955 0.0
H1049 H 0.00947 0.74933 0.15203 0.0
H1050 H 0.96501 0.72101 0.29622 0.0
H1051 H 0.0304 0.7476 0.22894 0.0
H1052 H 0.06753 0.72418 0.36718 0.0
H1053 H 0.04655 0.72145 0.29041 0.0
H1054 H 0.98086 0.74764 0.35703 0.0
H1055 H 1.00166 0.74979 0.43399 0.0
C1056 C 0.96288 0.72843 0.22087 0.0
C1057 C 0.97486 0.7367 0.17935 0.0
C1058 C 0.97496 0.7273 0.26511 0.0
C1059 C 0.99944 0.73431 0.26923 0.0
C1060 C 0.01163 0.74186 0.22736 0.0
C1061 C 0.99954 0.74302 0.18312 0.0
C1062 C 0.04853 0.72912 0.36568 0.0
C1063 C 0.03641 0.73736 0.40703 0.0
C1064 C 0.03652 0.72775 0.32138 0.0
C1065 C 0.01197 0.73448 0.31707 0.0
C1066 C 0.99967 0.74207 0.35876 0.0
C1067 C 0.0117 0.74348 0.40303 0.0
H1068 H 0.26105 1.00103 0.43622 0.0
H1069 H 0.28698 0.06665 0.36899 0.0
H1070 H 0.2626 0.98026 0.35913 0.0
H1071 H 0.28911 0.04571 0.29212 0.0
H1072 H 0.28592 0.94347 0.22036 0.0
H1073 H 0.28879 0.96429 0.2973 0.0
H1074 H 0.26213 0.02997 0.23156 0.0
H1075 H 0.25979 0.00933 0.15446 0.0
C1076 C 0.2673 0.01101 0.40514 0.0
C1077 C 0.27366 0.03566 0.40904 0.0
C1078 C 0.26836 0.99901 0.36081 0.0
C1079 C 0.27584 0.01127 0.31898 0.0
C1080 C 0.28288 0.03573 0.32322 0.0
C1081 C 0.28186 0.04771 0.36756 0.0
C1082 C 0.28091 0.96243 0.2221 0.0
C1083 C 0.27248 0.97461 0.18096 0.0
C1084 C 0.28236 0.97435 0.26648 0.0
C1085 C 0.27555 0.99885 0.27107 0.0
C1086 C 0.26777 0.0112 0.22959 0.0
C1087 C 0.26626 0.99926 0.18524 0.0
H1088 H 0.96231 0.72615 0.90737 0.0
H1089 H 0.03427 0.756 0.91801 0.0
H1090 H 0.96941 0.71647 0.82283 0.0
H1091 H 0.0416 0.74636 0.83372 0.0
H1092 H 0.05262 0.72633 0.68204 0.0
H1093 H 0.0456 0.71741 0.76689 0.0
H1094 H 0.97237 0.74432 0.75365 0.0
H1095 H 0.97961 0.75315 0.66892 0.0
C1096 C 0.98013 0.72944 0.89223 0.0
C1097 C 0.99801 0.74118 0.91963 0.0
C1098 C 0.98406 0.72429 0.84354 0.0
C1099 C 0.00601 0.73077 0.82109 0.0
C1100 C 0.02458 0.74077 0.84971 0.0
C1101 C 0.02052 0.74613 0.89828 0.0
C1102 C 0.03463 0.72907 0.69676 0.0
C1103 C 0.01644 0.7398 0.66853 0.0
C1104 C 0.03072 0.72438 0.74562 0.0
C1105 C 0.0085 0.73036 0.7675 0.0
C1106 C 0.98962 0.73918 0.73813 0.0
C1107 C 0.99364 0.74405 0.68931 0.0
H1108 H 0.25429 0.97653 0.67061 0.0
H1109 H 0.28383 0.04859 0.68068 0.0
H1110 H 0.26389 0.96945 0.755 0.0
H1111 H 0.29347 0.04175 0.76533 0.0
H1112 H 0.28379 0.95894 0.9069 0.0
H1113 H 0.29287 0.9658 0.82206 0.0
H1114 H 0.26536 0.03881 0.83427 0.0
H1115 H 0.25635 0.03174 0.91898 0.0
C1116 C 0.26409 0.99035 0.69025 0.0
C1117 C 0.26896 0.01282 0.66871 0.0
C1118 C 0.26943 0.98643 0.73887 0.0
C1119 C 0.27931 1.00511 0.76735 0.0
C1120 C 0.28573 0.02702 0.74472 0.0
C1121 C 0.28061 0.03081 0.69599 0.0
C1122 C 0.28094 0.97687 0.89197 0.0
C1123 C 0.26999 0.99504 0.91988 0.0
C1124 C 0.28573 0.98067 0.84311 0.0
C1125 C 0.27964 1.00278 0.82095 0.0
C1126 C 0.27059 0.02165 0.85003 0.0
C1127 C 0.26562 0.01773 0.89884 0.0
H1128 H 0.98071 0.25908 0.91767 0.0
H1129 H 0.05449 0.2837 0.90382 0.0
H1130 H 0.97374 0.26767 0.83275 0.0
H1131 H 0.04774 0.29235 0.81882 0.0
H1132 H 0.96437 0.28511 0.67848 0.0
H1133 H 0.97172 0.29525 0.76271 0.0
H1134 H 0.04289 0.26299 0.75283 0.0
H1135 H 0.03529 0.25284 0.66892 0.0
C1136 C 0.99501 0.26767 0.89708 0.0
C1137 C 0.01792 0.27135 0.91772 0.0
C1138 C 0.99114 0.27239 0.84814 0.0
C1139 C 0.01028 0.28049 0.81854 0.0
C1140 C 0.03266 0.28594 0.84026 0.0
C1141 C 0.03642 0.2814 0.88921 0.0
C1142 C 0.98207 0.28142 0.69371 0.0
C1143 C 0.99955 0.26884 0.6667 0.0
C1144 C 0.98613 0.28682 0.74225 0.0
C1145 C 0.00783 0.27979 0.76495 0.0
C1146 C 0.02609 0.269 0.73664 0.0
C1147 C 0.02188 0.26337 0.68826 0.0
H1148 H 0.72988 0.02236 0.65725 0.0
H1149 H 0.75265 0.95157 0.70454 0.0
H1150 H 0.71869 0.03264 0.74002 0.0
H1151 H 0.74298 0.96183 0.7864 0.0
H1152 H 0.7327 0.98213 0.93605 0.0
H1153 H 0.72118 0.97129 0.8538 0.0
H1154 H 0.7403 0.0436 0.80688 0.0
H1155 H 0.75025 0.05433 0.88843 0.0
C1156 C 0.73178 0.00877 0.68504 0.0
C1157 C 0.74231 0.98626 0.67448 0.0
C1158 C 0.72577 0.01471 0.7328 0.0
C1159 C 0.73041 0.99834 0.77091 0.0
C1160 C 0.73886 0.97505 0.75894 0.0
C1161 C 0.74464 0.96916 0.71161 0.0
C1162 C 0.73332 0.99587 0.90834 0.0
C1163 C 0.74249 0.01901 0.9186 0.0
C1164 C 0.72715 0.98963 0.86084 0.0
C1165 C 0.73035 0.00632 0.82265 0.0
C1166 C 0.73734 0.0301 0.83443 0.0
C1167 C 0.74324 0.0363 0.88156 0.0
H1168 H 0.50863 0.75765 0.93283 0.0
H1169 H 0.44465 0.78742 0.86574 0.0
H1170 H 0.52972 0.75866 0.8559 0.0
H1171 H 0.46586 0.78876 0.78899 0.0
H1172 H 0.50189 0.75903 0.65071 0.0
H1173 H 0.48089 0.76124 0.72764 0.0
H1174 H 0.54701 0.78535 0.79543 0.0
H1175 H 0.56812 0.78276 0.71872 0.0
C1176 C 0.49909 0.76463 0.90184 0.0
C1177 C 0.47482 0.77236 0.90578 0.0
C1178 C 0.51127 0.76533 0.85759 0.0
C1179 C 0.49954 0.7737 0.81586 0.0
C1180 C 0.47543 0.78187 0.82004 0.0
C1181 C 0.46329 0.78128 0.86431 0.0
C1182 C 0.51197 0.76493 0.68191 0.0
C1183 C 0.53682 0.77058 0.67824 0.0
C1184 C 0.49984 0.76633 0.72615 0.0
C1185 C 0.5122 0.77336 0.76813 0.0
C1186 C 0.53692 0.77952 0.76419 0.0
C1187 C 0.54901 0.77822 0.71994 0.0
H1188 H 0.23267 0.50747 0.93894 0.0
H1189 H 0.24899 0.44127 0.86379 0.0
H1190 H 0.22935 0.52887 0.86296 0.0
H1191 H 0.24816 0.46269 0.78803 0.0
H1192 H 0.23383 0.50165 0.64939 0.0
H1193 H 0.23107 0.48008 0.72529 0.0
H1194 H 0.24602 0.54711 0.80066 0.0
H1195 H 0.24629 0.56857 0.72494 0.0
C1196 C 0.23568 0.49753 0.90598 0.0
C1197 C 0.2408 0.47262 0.90747 0.0
C1198 C 0.23414 0.50988 0.86196 0.0
C1199 C 0.23862 0.49791 0.81793 0.0
C1200 C 0.24387 0.47286 0.82004 0.0
C1201 C 0.24455 0.4604 0.86391 0.0
C1202 C 0.23611 0.51172 0.68242 0.0
C1203 C 0.23998 0.53686 0.68106 0.0
C1204 C 0.23489 0.49929 0.7264 0.0
C1205 C 0.23846 0.51146 0.77054 0.0
C1206 C 0.24247 0.53675 0.76856 0.0
C1207 C 0.24283 0.54924 0.7247 0.0
H1208 H 0.56715 0.22573 0.87464 0.0
H1209 H 0.50145 0.25066 0.94309 0.0
H1210 H 0.54597 0.22369 0.798 0.0
H1211 H 0.48038 0.249 0.86624 0.0
H1212 H 0.44361 0.22389 0.72793 0.0
H1213 H 0.46478 0.22193 0.80464 0.0
H1214 H 0.52926 0.25092 0.73791 0.0
H1215 H 0.50822 0.25255 0.66103 0.0
C1216 C 0.54814 0.23064 0.87354 0.0
C1217 C 0.53612 0.23847 0.91534 0.0
C1218 C 0.53601 0.22967 0.82933 0.0
C1219 C 0.51143 0.23633 0.82554 0.0
C1220 C 0.49923 0.24352 0.86762 0.0
C1221 C 0.51139 0.24461 0.91181 0.0
C1222 C 0.46238 0.22965 0.72939 0.0
C1223 C 0.47411 0.23844 0.688 0.0
C1224 C 0.47449 0.22871 0.77364 0.0
C1225 C 0.49876 0.23638 0.77785 0.0
C1226 C 0.51067 0.24463 0.73618 0.0
C1227 C 0.49852 0.24569 0.69197 0.0
H1228 H 0.78515 0.44359 0.71823 0.0
H1229 H 0.75942 0.50896 0.64989 0.0
H1230 H 0.78694 0.46477 0.79492 0.0
H1231 H 0.76091 0.53004 0.72675 0.0
H1232 H 0.75745 0.5024 0.93179 0.0
H1233 H 0.75929 0.48131 0.85497 0.0
H1234 H 0.78817 0.5458 0.78823 0.0
H1235 H 0.78607 0.56699 0.86489 0.0
C1236 C 0.78002 0.46253 0.71937 0.0
C1237 C 0.77205 0.47446 0.67759 0.0
C1238 C 0.78086 0.47465 0.76359 0.0
C1239 C 0.77394 0.49914 0.76739 0.0
C1240 C 0.76659 0.51127 0.72534 0.0
C1241 C 0.76561 0.4991 0.68115 0.0
C1242 C 0.76435 0.51208 0.90087 0.0
C1243 C 0.77153 0.5365 0.90481 0.0
C1244 C 0.76553 0.49991 0.8567 0.0
C1245 C 0.7738 0.51181 0.81505 0.0
C1246 C 0.78139 0.53609 0.81923 0.0
C1247 C 0.78036 0.54822 0.86344 0.0
H1248 H 0.55413 0.22682 0.19244 0.0
H1249 H 0.48053 0.25178 0.1776 0.0
H1250 H 0.54693 0.218 0.27723 0.0
H1251 H 0.47312 0.24305 0.26235 0.0
H1252 H 0.46287 0.22513 0.4162 0.0
H1253 H 0.47055 0.21536 0.33191 0.0
H1254 H 0.54196 0.24698 0.34365 0.0
H1255 H 0.53404 0.25671 0.42768 0.0
C1256 C 0.536 0.22918 0.20678 0.0
C1257 C 0.51769 0.23936 0.17806 0.0
C1258 C 0.53198 0.22454 0.25562 0.0
C1259 C 0.50952 0.23004 0.27703 0.0
C1260 C 0.49057 0.23829 0.24719 0.0
C1261 C 0.49469 0.2431 0.19835 0.0
C1262 C 0.48068 0.22876 0.40134 0.0
C1263 C 0.49814 0.24103 0.42892 0.0
C1264 C 0.48493 0.22358 0.35277 0.0
C1265 C 0.5068 0.23054 0.33059 0.0
C1266 C 0.52502 0.24103 0.35943 0.0
C1267 C 0.52063 0.24642 0.40788 0.0
H1268 H 0.78317 0.45711 0.4004 0.0
H1269 H 0.7573 0.5303 0.41599 0.0
H1270 H 0.79179 0.46458 0.31562 0.0
H1271 H 0.76584 0.53799 0.33125 0.0
H1272 H 0.75307 0.47739 0.16511 0.0
H1273 H 0.76274 0.46937 0.24915 0.0
H1274 H 0.79358 0.54105 0.2618 0.0
H1275 H 0.78387 0.54883 0.17754 0.0
C1276 C 0.78056 0.47522 0.38621 0.0
C1277 C 0.77019 0.49333 0.41515 0.0
C1278 C 0.78508 0.47939 0.33738 0.0
C1279 C 0.77929 0.50181 0.31619 0.0
C1280 C 0.77082 0.52057 0.34623 0.0
C1281 C 0.76613 0.5163 0.39506 0.0
C1282 C 0.76317 0.49086 0.18513 0.0
C1283 C 0.76837 0.51344 0.16435 0.0
C1284 C 0.76853 0.48641 0.23358 0.0
C1285 C 0.77878 0.50466 0.26266 0.0
C1286 C 0.78554 0.52664 0.24076 0.0
C1287 C 0.78038 0.53096 0.1922 0.0
H1288 H 0.55388 0.78227 0.40272 0.0
H1289 H 0.47991 0.75806 0.41548 0.0
H1290 H 0.54735 0.79144 0.31785 0.0
H1291 H 0.47316 0.76721 0.33071 0.0
H1292 H 0.53467 0.75303 0.16673 0.0
H1293 H 0.5423 0.76247 0.25097 0.0
H1294 H 0.47147 0.79544 0.2615 0.0
H1295 H 0.4641 0.78601 0.17696 0.0
C1296 C 0.53582 0.78017 0.38793 0.0
C1297 C 0.5172 0.7701 0.41608 0.0
C1298 C 0.53218 0.78501 0.33905 0.0
C1299 C 0.5098 0.77986 0.31705 0.0
C1300 C 0.49056 0.77171 0.34633 0.0
C1301 C 0.4943 0.76667 0.39518 0.0
C1302 C 0.52136 0.76356 0.18632 0.0
C1303 C 0.49912 0.76944 0.16483 0.0
C1304 C 0.52558 0.76879 0.23489 0.0
C1305 C 0.5074 0.77957 0.26343 0.0
C1306 C 0.48581 0.787 0.24086 0.0
C1307 C 0.48175 0.78201 0.19214 0.0
H1308 H 0.22816 0.46099 0.17969 0.0
H1309 H 0.25634 0.53364 0.17102 0.0
H1310 H 0.21914 0.46689 0.26487 0.0
H1311 H 0.24718 0.53982 0.25595 0.0
H1312 H 0.25774 0.47647 0.4175 0.0
H1313 H 0.24847 0.47003 0.33273 0.0
H1314 H 0.21806 0.542 0.32442 0.0
H1315 H 0.2272 0.54817 0.40948 0.0
C1316 C 0.23114 0.47871 0.1954 0.0
C1317 C 0.24228 0.49712 0.16827 0.0
C1318 C 0.22638 0.48196 0.24447 0.0
C1319 C 0.23258 0.50377 0.26763 0.0
C1320 C 0.24185 0.52288 0.23941 0.0
C1321 C 0.24689 0.51948 0.19046 0.0
C1322 C 0.24777 0.49033 0.39825 0.0
C1323 C 0.24251 0.51251 0.42057 0.0
C1324 C 0.24266 0.48678 0.34939 0.0
C1325 C 0.23267 0.50558 0.32137 0.0
C1326 C 0.22586 0.52717 0.34468 0.0
C1327 C 0.23069 0.53056 0.39367 0.0
loop_
_geom_bond_atom_site_label_1
_geom_bond_atom_site_label_2
_geom_bond_distance
_geom_bond_site_symmetry_2
_ccdc_geom_bond_type
C0 C1 1.351 . S
C0 N3 1.368 . S
C0 H5 0.931 . S
C1 C0 1.351 . S
C1 N2 1.373 1_556 S
C1 H29 0.930 . S
N2 C1 1.373 1_554 S
N2 C4 1.340 . S
N3 C0 1.368 . S
N3 C4 1.321 1_556 S
N3 Co6 2.135 1_556 S
C4 N2 1.340 . S
C4 N3 1.321 1_554 S
C4 H28 0.930 . S
H5 C0 0.931 . S
Co6 N3 2.135 1_554 S
Co6 N9 2.121 1_455 S
Co6 O14 2.055 1_554 S
Co6 O17 2.039 . S
Co6 N20 2.140 . S
C7 O8 1.227 . S
C7 O17 1.265 . S
O8 C7 1.227 . S
N9 Co6 2.121 1_655 S
N9 C11 1.375 . S
N9 C12 1.313 1_554 S
C10 C11 1.338 . S
C10 N13 1.377 . S
C10 H30 0.930 . S
C11 N9 1.375 . S
C11 C10 1.338 . S
C11 H15 0.931 1_655 S
C12 N9 1.313 1_556 S
C12 N13 1.344 1_556 S
C12 H16 0.930 . S
N13 C10 1.377 . S
N13 C12 1.344 1_554 S
O14 Co6 2.055 1_556 S
O14 C18 1.253 . S
H15 C11 0.931 1_455 S
H16 C12 0.930 . S
O17 Co6 2.039 . S
O17 C7 1.265 . S
C18 O14 1.253 . S
C18 O19 1.227 . S
O19 C18 1.227 . S
N20 Co6 2.140 . S
N20 C23 1.346 . S
N20 C24 1.345 1_554 S
C21 C22 1.387 . S
C21 C25 1.391 1_554 S
C22 C21 1.387 . S
C22 C23 1.369 . S
C22 H31 0.929 . S
C23 N20 1.346 . S
C23 C22 1.369 . S
C23 H26 0.928 . S
C24 N20 1.345 1_556 S
C24 C25 1.371 . S
C24 H27 0.931 . S
C25 C21 1.391 1_556 S
C25 C24 1.371 . S
C25 H32 0.930 . S
H26 C23 0.928 . S
H27 C24 0.931 . S
H28 C4 0.930 . S
H29 C1 0.930 . S
H30 C10 0.930 . S
H31 C22 0.929 . S
H32 C25 0.930 . S
C33 C34 1.351 . S
C33 N36 1.368 . S
C33 H38 0.931 . S
C34 C33 1.351 . S
C34 N35 1.373 1_556 S
C34 H62 0.930 . S
N35 C34 1.373 1_554 S
N35 C37 1.340 . S
N36 C33 1.368 . S
N36 C37 1.321 1_556 S
N36 Co39 2.135 1_556 S
C37 N35 1.340 . S
C37 N36 1.321 1_554 S
C37 H61 0.930 . S
H38 C33 0.931 . S
Co39 N36 2.135 1_554 S
Co39 N42 2.121 1_545 S
Co39 O47 2.055 1_554 S
Co39 O50 2.039 . S
Co39 N53 2.140 . S
C40 O41 1.227 . S
C40 O50 1.265 . S
O41 C40 1.227 . S
N42 Co39 2.121 1_565 S
N42 C44 1.375 . S
N42 C45 1.313 1_554 S
C43 C44 1.338 . S
C43 N46 1.377 . S
C43 H63 0.930 . S
C44 N42 1.375 . S
C44 C43 1.338 . S
C44 H48 0.931 1_565 S
C45 N42 1.313 1_556 S
C45 N46 1.344 1_556 S
C45 H49 0.930 . S
N46 C43 1.377 . S
N46 C45 1.344 1_554 S
O47 Co39 2.055 1_556 S
O47 C51 1.253 . S
H48 C44 0.931 1_545 S
H49 C45 0.930 . S
O50 Co39 2.039 . S
O50 C40 1.265 . S
C51 O47 1.253 . S
C51 O52 1.227 . S
O52 C51 1.227 . S
N53 Co39 2.140 . S
N53 C56 1.346 . S
N53 C57 1.345 1_554 S
C54 C55 1.387 . S
C54 C58 1.391 1_554 S
C55 C54 1.387 . S
C55 C56 1.369 . S
C55 H64 0.929 . S
C56 N53 1.346 . S
C56 C55 1.369 . S
C56 H59 0.928 . S
C57 N53 1.345 1_556 S
C57 C58 1.371 . S
C57 H60 0.931 . S
C58 C54 1.391 1_556 S
C58 C57 1.371 . S
C58 H65 0.930 . S
H59 C56 0.928 . S
H60 C57 0.931 . S
H61 C37 0.930 . S
H62 C34 0.930 . S
H63 C43 0.930 . S
H64 C55 0.929 . S
H65 C58 0.930 . S
C66 C67 1.351 . S
C66 N69 1.368 . S
C66 H71 0.931 . S
C67 C66 1.351 . S
C67 N68 1.373 1_556 S
C67 H95 0.930 . S
N68 C67 1.373 1_554 S
N68 C70 1.340 . S
N69 C66 1.368 . S
N69 C70 1.321 1_556 S
N69 Co72 2.135 1_556 S
C70 N68 1.340 . S
C70 N69 1.321 1_554 S
C70 H94 0.930 . S
H71 C66 0.931 . S
Co72 N69 2.135 1_554 S
Co72 N75 2.121 1_655 S
Co72 O80 2.055 1_554 S
Co72 O83 2.039 . S
Co72 N86 2.140 . S
C73 O74 1.227 . S
C73 O83 1.265 . S
O74 C73 1.227 . S
N75 Co72 2.121 1_455 S
N75 C77 1.375 . S
N75 C78 1.313 1_554 S
C76 C77 1.338 . S
C76 N79 1.377 . S
C76 H96 0.930 . S
C77 N75 1.375 . S
C77 C76 1.338 . S
C77 H81 0.931 1_455 S
C78 N75 1.313 1_556 S
C78 N79 1.344 1_556 S
C78 H82 0.930 . S
N79 C76 1.377 . S
N79 C78 1.344 1_554 S
O80 Co72 2.055 1_556 S
O80 C84 1.253 . S
H81 C77 0.931 1_655 S
H82 C78 0.930 . S
O83 Co72 2.039 . S
O83 C73 1.265 . S
C84 O80 1.253 . S
C84 O85 1.227 . S
O85 C84 1.227 . S
N86 Co72 2.140 . S
N86 C89 1.346 . S
N86 C90 1.345 1_554 S
C87 C88 1.387 . S
C87 C91 1.391 1_554 S
C88 C87 1.387 . S
C88 C89 1.369 . S
C88 H97 0.929 . S
C89 N86 1.346 . S
C89 C88 1.369 . S
C89 H92 0.928 . S
C90 N86 1.345 1_556 S
C90 C91 1.371 . S
C90 H93 0.931 . S
C91 C87 1.391 1_556 S
C91 C90 1.371 . S
C91 H98 0.930 . S
H92 C89 0.928 . S
H93 C90 0.931 . S
H94 C70 0.930 . S
H95 C67 0.930 . S
H96 C76 0.930 . S
H97 C88 0.929 . S
H98 C91 0.930 . S
C99 C100 1.351 . S
C99 N102 1.368 . S
C99 H104 0.931 . S
C100 C99 1.351 . S
C100 N101 1.373 1_556 S
C100 H128 0.930 . S
N101 C100 1.373 1_554 S
N101 C103 1.340 . S
N102 C99 1.368 . S
N102 C103 1.321 1_556 S
N102 Co105 2.135 1_556 S
C103 N101 1.340 . S
C103 N102 1.321 1_554 S
C103 H127 0.930 . S
H104 C99 0.931 . S
Co105 N102 2.135 1_554 S
Co105 N108 2.121 1_565 S
Co105 O113 2.055 1_554 S
Co105 O116 2.039 . S
Co105 N119 2.140 . S
C106 O107 1.227 . S
C106 O116 1.265 . S
O107 C106 1.227 . S
N108 Co105 2.121 1_545 S
N108 C110 1.375 . S
N108 C111 1.313 1_554 S
C109 C110 1.338 . S
C109 N112 1.377 . S
C109 H129 0.930 . S
C110 N108 1.375 . S
C110 C109 1.338 . S
C110 H114 0.931 1_545 S
C111 N108 1.313 1_556 S
C111 N112 1.344 1_556 S
C111 H115 0.930 . S
N112 C109 1.377 . S
N112 C111 1.344 1_554 S
O113 Co105 2.055 1_556 S
O113 C117 1.253 . S
H114 C110 0.931 1_565 S
H115 C111 0.930 . S
O116 Co105 2.039 . S
O116 C106 1.265 . S
C117 O113 1.253 . S
C117 O118 1.227 . S
O118 C117 1.227 . S
N119 Co105 2.140 . S
N119 C122 1.346 . S
N119 C123 1.345 1_554 S
C120 C121 1.387 . S
C120 C124 1.391 1_554 S
C121 C120 1.387 . S
C121 C122 1.369 . S
C121 H130 0.929 . S
C122 N119 1.346 . S
C122 C121 1.369 . S
C122 H125 0.928 . S
C123 N119 1.345 1_556 S
C123 C124 1.371 . S
C123 H126 0.931 . S
C124 C120 1.391 1_556 S
C124 C123 1.371 . S
C124 H131 0.930 . S
H125 C122 0.928 . S
H126 C123 0.931 . S
H127 C103 0.930 . S
H128 C100 0.930 . S
H129 C109 0.930 . S
H130 C121 0.929 . S
H131 C124 0.930 . S
C132 C133 1.351 . S
C132 N135 1.368 . S
C132 H137 0.931 . S
C133 C132 1.351 . S
C133 N134 1.373 . S
C133 H161 0.930 . S
N134 C133 1.373 . S
N134 C136 1.340 . S
N135 C132 1.368 . S
N135 C136 1.321 . S
N135 Co138 2.135 . S
C136 N134 1.340 . S
C136 N135 1.321 . S
C136 H160 0.930 . S
H137 C132 0.931 . S
Co138 N135 2.135 . S
Co138 N141 2.121 1_455 S
Co138 O146 2.055 . S
Co138 O149 2.039 . S
Co138 N152 2.140 . S
C139 O140 1.227 . S
C139 O149 1.265 . S
O140 C139 1.227 . S
N141 Co138 2.121 1_655 S
N141 C143 1.375 . S
N141 C144 1.313 . S
C142 C143 1.338 . S
C142 N145 1.377 . S
C142 H162 0.930 . S
C143 N141 1.375 . S
C143 C142 1.338 . S
C143 H147 0.931 1_655 S
C144 N141 1.313 . S
C144 N145 1.344 . S
C144 H148 0.930 . S
N145 C142 1.377 . S
N145 C144 1.344 . S
O146 Co138 2.055 . S
O146 C150 1.253 . S
H147 C143 0.931 1_455 S
H148 C144 0.930 . S
O149 Co138 2.039 . S
O149 C139 1.265 . S
C150 O146 1.253 . S
C150 O151 1.227 . S
O151 C150 1.227 . S
N152 Co138 2.140 . S
N152 C155 1.346 . S
N152 C156 1.345 . S
C153 C154 1.387 . S
C153 C157 1.391 . S
C154 C153 1.387 . S
C154 C155 1.369 . S
C154 H163 0.929 . S
C155 N152 1.346 . S
C155 C154 1.369 . S
C155 H158 0.928 . S
C156 N152 1.345 . S
C156 C157 1.371 . S
C156 H159 0.931 . S
C157 C153 1.391 . S
C157 C156 1.371 . S
C157 H164 0.930 . S
H158 C155 0.928 . S
H159 C156 0.931 . S
H160 C136 0.930 . S
H161 C133 0.930 . S
H162 C142 0.930 . S
H163 C154 0.929 . S
H164 C157 0.930 . S
C165 C166 1.351 . S
C165 N168 1.368 . S
C165 H170 0.931 . S
C166 C165 1.351 . S
C166 N167 1.373 . S
C166 H194 0.930 . S
N167 C166 1.373 . S
N167 C169 1.340 . S
N168 C165 1.368 . S
N168 C169 1.321 . S
N168 Co171 2.135 . S
C169 N167 1.340 . S
C169 N168 1.321 . S
C169 H193 0.930 . S
H170 C165 0.931 . S
Co171 N168 2.135 . S
Co171 N174 2.121 1_545 S
Co171 O179 2.055 . S
Co171 O182 2.039 . S
Co171 N185 2.140 . S
C172 O173 1.227 . S
C172 O182 1.265 . S
O173 C172 1.227 . S
N174 Co171 2.121 1_565 S
N174 C176 1.375 . S
N174 C177 1.313 . S
C175 C176 1.338 . S
C175 N178 1.377 . S
C175 H195 0.930 . S
C176 N174 1.375 . S
C176 C175 1.338 . S
C176 H180 0.931 1_565 S
C177 N174 1.313 . S
C177 N178 1.344 . S
C177 H181 0.930 . S
N178 C175 1.377 . S
N178 C177 1.344 . S
O179 Co171 2.055 . S
O179 C183 1.253 . S
H180 C176 0.931 1_545 S
H181 C177 0.930 . S
O182 Co171 2.039 . S
O182 C172 1.265 . S
C183 O179 1.253 . S
C183 O184 1.227 . S
O184 C183 1.227 . S
N185 Co171 2.140 . S
N185 C188 1.346 . S
N185 C189 1.345 . S
C186 C187 1.387 . S
C186 C190 1.391 . S
C187 C186 1.387 . S
C187 C188 1.369 . S
C187 H196 0.929 . S
C188 N185 1.346 . S
C188 C187 1.369 . S
C188 H191 0.928 . S
C189 N185 1.345 . S
C189 C190 1.371 . S
C189 H192 0.931 . S
C190 C186 1.391 . S
C190 C189 1.371 . S
C190 H197 0.930 . S
H191 C188 0.928 . S
H192 C189 0.931 . S
H193 C169 0.930 . S
H194 C166 0.930 . S
H195 C175 0.930 . S
H196 C187 0.929 . S
H197 C190 0.930 . S
C198 C199 1.351 . S
C198 N201 1.368 . S
C198 H203 0.931 . S
C199 C198 1.351 . S
C199 N200 1.373 . S
C199 H227 0.930 . S
N200 C199 1.373 . S
N200 C202 1.340 . S
N201 C198 1.368 . S
N201 C202 1.321 . S
N201 Co204 2.135 . S
C202 N200 1.340 . S
C202 N201 1.321 . S
C202 H226 0.930 . S
H203 C198 0.931 . S
Co204 N201 2.135 . S
Co204 N207 2.121 1_655 S
Co204 O212 2.055 . S
Co204 O215 2.039 . S
Co204 N218 2.140 . S
C205 O206 1.227 . S
C205 O215 1.265 . S
O206 C205 1.227 . S
N207 Co204 2.121 1_455 S
N207 C209 1.375 . S
N207 C210 1.313 . S
C208 C209 1.338 . S
C208 N211 1.377 . S
C208 H228 0.930 . S
C209 N207 1.375 . S
C209 C208 1.338 . S
C209 H213 0.931 1_455 S
C210 N207 1.313 . S
C210 N211 1.344 . S
C210 H214 0.930 . S
N211 C208 1.377 . S
N211 C210 1.344 . S
O212 Co204 2.055 . S
O212 C216 1.253 . S
H213 C209 0.931 1_655 S
H214 C210 0.930 . S
O215 Co204 2.039 . S
O215 C205 1.265 . S
C216 O212 1.253 . S
C216 O217 1.227 . S
O217 C216 1.227 . S
N218 Co204 2.140 . S
N218 C221 1.346 . S
N218 C222 1.345 . S
C219 C220 1.387 . S
C219 C223 1.391 . S
C220 C219 1.387 . S
C220 C221 1.369 . S
C220 H229 0.929 . S
C221 N218 1.346 . S
C221 C220 1.369 . S
C221 H224 0.928 . S
C222 N218 1.345 . S
C222 C223 1.371 . S
C222 H225 0.931 . S
C223 C219 1.391 . S
C223 C222 1.371 . S
C223 H230 0.930 . S
H224 C221 0.928 . S
H225 C222 0.931 . S
H226 C202 0.930 . S
H227 C199 0.930 . S
H228 C208 0.930 . S
H229 C220 0.929 . S
H230 C223 0.930 . S
C231 C232 1.351 . S
C231 N234 1.368 . S
C231 H236 0.931 . S
C232 C231 1.351 . S
C232 N233 1.373 . S
C232 H260 0.930 . S
N233 C232 1.373 . S
N233 C235 1.340 . S
N234 C231 1.368 . S
N234 C235 1.321 . S
N234 Co237 2.135 . S
C235 N233 1.340 . S
C235 N234 1.321 . S
C235 H259 0.930 . S
H236 C231 0.931 . S
Co237 N234 2.135 . S
Co237 N240 2.121 1_565 S
Co237 O245 2.055 . S
Co237 O248 2.039 . S
Co237 N251 2.140 . S
C238 O239 1.227 . S
C238 O248 1.265 . S
O239 C238 1.227 . S
N240 Co237 2.121 1_545 S
N240 C242 1.375 . S
N240 C243 1.313 . S
C241 C242 1.338 . S
C241 N244 1.377 . S
C241 H261 0.930 . S
C242 N240 1.375 . S
C242 C241 1.338 . S
C242 H246 0.931 1_545 S
C243 N240 1.313 . S
C243 N244 1.344 . S
C243 H247 0.930 . S
N244 C241 1.377 . S
N244 C243 1.344 . S
O245 Co237 2.055 . S
O245 C249 1.253 . S
H246 C242 0.931 1_565 S
H247 C243 0.930 . S
O248 Co237 2.039 . S
O248 C238 1.265 . S
C249 O245 1.253 . S
C249 O250 1.227 . S
O250 C249 1.227 . S
N251 Co237 2.140 . S
N251 C254 1.346 . S
N251 C255 1.345 . S
C252 C253 1.387 . S
C252 C256 1.391 . S
C253 C252 1.387 . S
C253 C254 1.369 . S
C253 H262 0.929 . S
C254 N251 1.346 . S
C254 C253 1.369 . S
C254 H257 0.928 . S
C255 N251 1.345 . S
C255 C256 1.371 . S
C255 H258 0.931 . S
C256 C252 1.391 . S
C256 C255 1.371 . S
C256 H263 0.930 . S
H257 C254 0.928 . S
H258 C255 0.931 . S
H259 C235 0.930 . S
H260 C232 0.930 . S
H261 C241 0.930 . S
H262 C253 0.929 . S
H263 C256 0.930 . S
C264 C265 1.351 . S
C264 N267 1.368 . S
C264 H269 0.931 . S
C265 C264 1.351 . S
C265 N266 1.373 . S
C265 H293 0.930 . S
N266 C265 1.373 . S
N266 C268 1.340 . S
N267 C264 1.368 . S
N267 C268 1.321 . S
N267 Co270 2.135 . S
C268 N266 1.340 . S
C268 N267 1.321 . S
C268 H292 0.930 . S
H269 C264 0.931 . S
Co270 N267 2.135 . S
Co270 N273 2.121 . S
Co270 O278 2.055 . S
Co270 O281 2.039 . S
Co270 N284 2.140 . S
C271 O272 1.227 . S
C271 O281 1.265 . S
O272 C271 1.227 . S
N273 Co270 2.121 . S
N273 C275 1.375 . S
N273 C276 1.313 . S
C274 C275 1.338 . S
C274 N277 1.377 . S
C274 H294 0.930 . S
C275 N273 1.375 . S
C275 C274 1.338 . S
C275 H279 0.931 . S
C276 N273 1.313 . S
C276 N277 1.344 . S
C276 H280 0.930 . S
N277 C274 1.377 . S
N277 C276 1.344 . S
O278 Co270 2.055 . S
O278 C282 1.253 . S
H279 C275 0.931 . S
H280 C276 0.930 . S
O281 Co270 2.039 . S
O281 C271 1.265 . S
C282 O278 1.253 . S
C282 O283 1.227 . S
O283 C282 1.227 . S
N284 Co270 2.140 . S
N284 C287 1.346 . S
N284 C288 1.345 . S
C285 C286 1.387 . S
C285 C289 1.391 . S
C286 C285 1.387 . S
C286 C287 1.369 . S
C286 H295 0.929 . S
C287 N284 1.346 . S
C287 C286 1.369 . S
C287 H290 0.928 . S
C288 N284 1.345 . S
C288 C289 1.371 . S
C288 H291 0.931 . S
C289 C285 1.391 . S
C289 C288 1.371 . S
C289 H296 0.930 . S
H290 C287 0.928 . S
H291 C288 0.931 . S
H292 C268 0.930 . S
H293 C265 0.930 . S
H294 C274 0.930 . S
H295 C286 0.929 . S
H296 C289 0.930 . S
C297 C298 1.351 . S
C297 N300 1.368 . S
C297 H302 0.931 . S
C298 C297 1.351 . S
C298 N299 1.373 . S
C298 H326 0.930 . S
N299 C298 1.373 . S
N299 C301 1.340 . S
N300 C297 1.368 . S
N300 C301 1.321 . S
N300 Co303 2.135 . S
C301 N299 1.340 . S
C301 N300 1.321 . S
C301 H325 0.930 . S
H302 C297 0.931 . S
Co303 N300 2.135 . S
Co303 N306 2.121 . S
Co303 O311 2.055 . S
Co303 O314 2.039 . S
Co303 N317 2.140 . S
C304 O305 1.227 . S
C304 O314 1.265 . S
O305 C304 1.227 . S
N306 Co303 2.121 . S
N306 C308 1.375 . S
N306 C309 1.313 . S
C307 C308 1.338 . S
C307 N310 1.377 . S
C307 H327 0.930 . S
C308 N306 1.375 . S
C308 C307 1.338 . S
C308 H312 0.931 . S
C309 N306 1.313 . S
C309 N310 1.344 . S
C309 H313 0.930 . S
N310 C307 1.377 . S
N310 C309 1.344 . S
O311 Co303 2.055 . S
O311 C315 1.253 . S
H312 C308 0.931 . S
H313 C309 0.930 . S
O314 Co303 2.039 . S
O314 C304 1.265 . S
C315 O311 1.253 . S
C315 O316 1.227 . S
O316 C315 1.227 . S
N317 Co303 2.140 . S
N317 C320 1.346 . S
N317 C321 1.345 . S
C318 C319 1.387 . S
C318 C322 1.391 . S
C319 C318 1.387 . S
C319 C320 1.369 . S
C319 H328 0.929 . S
C320 N317 1.346 . S
C320 C319 1.369 . S
C320 H323 0.928 . S
C321 N317 1.345 . S
C321 C322 1.371 . S
C321 H324 0.931 . S
C322 C318 1.391 . S
C322 C321 1.371 . S
C322 H329 0.930 . S
H323 C320 0.928 . S
H324 C321 0.931 . S
H325 C301 0.930 . S
H326 C298 0.930 . S
H327 C307 0.930 . S
H328 C319 0.929 . S
H329 C322 0.930 . S
C330 C331 1.351 . S
C330 N333 1.368 . S
C330 H335 0.931 . S
C331 C330 1.351 . S
C331 N332 1.373 . S
C331 H359 0.930 . S
N332 C331 1.373 . S
N332 C334 1.340 . S
N333 C330 1.368 . S
N333 C334 1.321 . S
N333 Co336 2.135 . S
C334 N332 1.340 . S
C334 N333 1.321 . S
C334 H358 0.930 . S
H335 C330 0.931 . S
Co336 N333 2.135 . S
Co336 N339 2.121 . S
Co336 O344 2.055 . S
Co336 O347 2.039 . S
Co336 N350 2.140 . S
C337 O338 1.227 . S
C337 O347 1.265 . S
O338 C337 1.227 . S
N339 Co336 2.121 . S
N339 C341 1.375 . S
N339 C342 1.313 . S
C340 C341 1.338 . S
C340 N343 1.377 . S
C340 H360 0.930 . S
C341 N339 1.375 . S
C341 C340 1.338 . S
C341 H345 0.931 . S
C342 N339 1.313 . S
C342 N343 1.344 . S
C342 H346 0.930 . S
N343 C340 1.377 . S
N343 C342 1.344 . S
O344 Co336 2.055 . S
O344 C348 1.253 . S
H345 C341 0.931 . S
H346 C342 0.930 . S
O347 Co336 2.039 . S
O347 C337 1.265 . S
C348 O344 1.253 . S
C348 O349 1.227 . S
O349 C348 1.227 . S
N350 Co336 2.140 . S
N350 C353 1.346 . S
N350 C354 1.345 . S
C351 C352 1.387 . S
C351 C355 1.391 . S
C352 C351 1.387 . S
C352 C353 1.369 . S
C352 H361 0.929 . S
C353 N350 1.346 . S
C353 C352 1.369 . S
C353 H356 0.928 . S
C354 N350 1.345 . S
C354 C355 1.371 . S
C354 H357 0.931 . S
C355 C351 1.391 . S
C355 C354 1.371 . S
C355 H362 0.930 . S
H356 C353 0.928 . S
H357 C354 0.931 . S
H358 C334 0.930 . S
H359 C331 0.930 . S
H360 C340 0.930 . S
H361 C352 0.929 . S
H362 C355 0.930 . S
C363 C364 1.351 . S
C363 N366 1.368 . S
C363 H368 0.931 . S
C364 C363 1.351 . S
C364 N365 1.373 . S
C364 H392 0.930 . S
N365 C364 1.373 . S
N365 C367 1.340 . S
N366 C363 1.368 . S
N366 C367 1.321 . S
N366 Co369 2.135 . S
C367 N365 1.340 . S
C367 N366 1.321 . S
C367 H391 0.930 . S
H368 C363 0.931 . S
Co369 N366 2.135 . S
Co369 N372 2.121 . S
Co369 O377 2.055 . S
Co369 O380 2.039 . S
Co369 N383 2.140 . S
C370 O371 1.227 . S
C370 O380 1.265 . S
O371 C370 1.227 . S
N372 Co369 2.121 . S
N372 C374 1.375 . S
N372 C375 1.313 . S
C373 C374 1.338 . S
C373 N376 1.377 . S
C373 H393 0.930 . S
C374 N372 1.375 . S
C374 C373 1.338 . S
C374 H378 0.931 . S
C375 N372 1.313 . S
C375 N376 1.344 . S
C375 H379 0.930 . S
N376 C373 1.377 . S
N376 C375 1.344 . S
O377 Co369 2.055 . S
O377 C381 1.253 . S
H378 C374 0.931 . S
H379 C375 0.930 . S
O380 Co369 2.039 . S
O380 C370 1.265 . S
C381 O377 1.253 . S
C381 O382 1.227 . S
O382 C381 1.227 . S
N383 Co369 2.140 . S
N383 C386 1.346 . S
N383 C387 1.345 . S
C384 C385 1.387 . S
C384 C388 1.391 . S
C385 C384 1.387 . S
C385 C386 1.369 . S
C385 H394 0.929 . S
C386 N383 1.346 . S
C386 C385 1.369 . S
C386 H389 0.928 . S
C387 N383 1.345 . S
C387 C388 1.371 . S
C387 H390 0.931 . S
C388 C384 1.391 . S
C388 C387 1.371 . S
C388 H395 0.930 . S
H389 C386 0.928 . S
H390 C387 0.931 . S
H391 C367 0.930 . S
H392 C364 0.930 . S
H393 C373 0.930 . S
H394 C385 0.929 . S
H395 C388 0.930 . S
C396 C397 1.351 . S
C396 N399 1.368 . S
C396 H401 0.931 . S
C397 C396 1.351 . S
C397 N398 1.373 . S
C397 H425 0.930 . S
N398 C397 1.373 . S
N398 C400 1.340 . S
N399 C396 1.368 . S
N399 C400 1.321 . S
N399 Co402 2.135 . S
C400 N398 1.340 . S
C400 N399 1.321 . S
C400 H424 0.930 1_554 S
H401 C396 0.931 . S
Co402 N399 2.135 . S
Co402 N405 2.121 . S
Co402 O410 2.055 . S
Co402 O413 2.039 1_554 S
Co402 N416 2.140 . S
C403 O404 1.227 . S
C403 O413 1.265 . S
O404 C403 1.227 . S
N405 Co402 2.121 . S
N405 C407 1.375 1_554 S
N405 C408 1.313 . S
C406 C407 1.338 . S
C406 N409 1.377 1_556 S
C406 H426 0.930 . S
C407 N405 1.375 1_556 S
C407 C406 1.338 . S
C407 H411 0.931 . S
C408 N405 1.313 . S
C408 N409 1.344 . S
C408 H412 0.930 . S
N409 C406 1.377 1_554 S
N409 C408 1.344 . S
O410 Co402 2.055 . S
O410 C414 1.253 . S
H411 C407 0.931 . S
H412 C408 0.930 . S
O413 Co402 2.039 1_556 S
O413 C403 1.265 . S
C414 O410 1.253 . S
C414 O415 1.227 . S
O415 C414 1.227 . S
N416 Co402 2.140 . S
N416 C419 1.346 . S
N416 C420 1.345 . S
C417 C418 1.387 . S
C417 C421 1.391 . S
C418 C417 1.387 . S
C418 C419 1.369 . S
C418 H427 0.929 1_554 S
C419 N416 1.346 . S
C419 C418 1.369 . S
C419 H422 0.928 1_554 S
C420 N416 1.345 . S
C420 C421 1.371 . S
C420 H423 0.931 . S
C421 C417 1.391 . S
C421 C420 1.371 . S
C421 H428 0.930 . S
H422 C419 0.928 1_556 S
H423 C420 0.931 . S
H424 C400 0.930 1_556 S
H425 C397 0.930 . S
H426 C406 0.930 . S
H427 C418 0.929 1_556 S
H428 C421 0.930 . S
C429 C430 1.351 . S
C429 N432 1.368 . S
C429 H434 0.931 . S
C430 C429 1.351 . S
C430 N431 1.373 . S
C430 H458 0.930 . S
N431 C430 1.373 . S
N431 C433 1.340 . S
N432 C429 1.368 . S
N432 C433 1.321 . S
N432 Co435 2.135 . S
C433 N431 1.340 . S
C433 N432 1.321 . S
C433 H457 0.930 1_554 S
H434 C429 0.931 . S
Co435 N432 2.135 . S
Co435 N438 2.121 . S
Co435 O443 2.055 . S
Co435 O446 2.039 1_554 S
Co435 N449 2.140 . S
C436 O437 1.227 . S
C436 O446 1.265 . S
O437 C436 1.227 . S
N438 Co435 2.121 . S
N438 C440 1.375 1_554 S
N438 C441 1.313 . S
C439 C440 1.338 . S
C439 N442 1.377 1_556 S
C439 H459 0.930 . S
C440 N438 1.375 1_556 S
C440 C439 1.338 . S
C440 H444 0.931 . S
C441 N438 1.313 . S
C441 N442 1.344 . S
C441 H445 0.930 . S
N442 C439 1.377 1_554 S
N442 C441 1.344 . S
O443 Co435 2.055 . S
O443 C447 1.253 . S
H444 C440 0.931 . S
H445 C441 0.930 . S
O446 Co435 2.039 1_556 S
O446 C436 1.265 . S
C447 O443 1.253 . S
C447 O448 1.227 . S
O448 C447 1.227 . S
N449 Co435 2.140 . S
N449 C452 1.346 . S
N449 C453 1.345 . S
C450 C451 1.387 . S
C450 C454 1.391 . S
C451 C450 1.387 . S
C451 C452 1.369 . S
C451 H460 0.929 1_554 S
C452 N449 1.346 . S
C452 C451 1.369 . S
C452 H455 0.928 1_554 S
C453 N449 1.345 . S
C453 C454 1.371 . S
C453 H456 0.931 . S
C454 C450 1.391 . S
C454 C453 1.371 . S
C454 H461 0.930 . S
H455 C452 0.928 1_556 S
H456 C453 0.931 . S
H457 C433 0.930 1_556 S
H458 C430 0.930 . S
H459 C439 0.930 . S
H460 C451 0.929 1_556 S
H461 C454 0.930 . S
C462 C463 1.351 . S
C462 N465 1.368 . S
C462 H467 0.931 . S
C463 C462 1.351 . S
C463 N464 1.373 . S
C463 H491 0.930 . S
N464 C463 1.373 . S
N464 C466 1.340 . S
N465 C462 1.368 . S
N465 C466 1.321 . S
N465 Co468 2.135 . S
C466 N464 1.340 . S
C466 N465 1.321 . S
C466 H490 0.930 1_554 S
H467 C462 0.931 . S
Co468 N465 2.135 . S
Co468 N471 2.121 . S
Co468 O476 2.055 . S
Co468 O479 2.039 1_554 S
Co468 N482 2.140 . S
C469 O470 1.227 . S
C469 O479 1.265 . S
O470 C469 1.227 . S
N471 Co468 2.121 . S
N471 C473 1.375 1_554 S
N471 C474 1.313 . S
C472 C473 1.338 . S
C472 N475 1.377 1_556 S
C472 H492 0.930 . S
C473 N471 1.375 1_556 S
C473 C472 1.338 . S
C473 H477 0.931 . S
C474 N471 1.313 . S
C474 N475 1.344 . S
C474 H478 0.930 . S
N475 C472 1.377 1_554 S
N475 C474 1.344 . S
O476 Co468 2.055 . S
O476 C480 1.253 . S
H477 C473 0.931 . S
H478 C474 0.930 . S
O479 Co468 2.039 1_556 S
O479 C469 1.265 . S
C480 O476 1.253 . S
C480 O481 1.227 . S
O481 C480 1.227 . S
N482 Co468 2.140 . S
N482 C485 1.346 . S
N482 C486 1.345 . S
C483 C484 1.387 . S
C483 C487 1.391 . S
C484 C483 1.387 . S
C484 C485 1.369 . S
C484 H493 0.929 1_554 S
C485 N482 1.346 . S
C485 C484 1.369 . S
C485 H488 0.928 1_554 S
C486 N482 1.345 . S
C486 C487 1.371 . S
C486 H489 0.931 . S
C487 C483 1.391 . S
C487 C486 1.371 . S
C487 H494 0.930 . S
H488 C485 0.928 1_556 S
H489 C486 0.931 . S
H490 C466 0.930 1_556 S
H491 C463 0.930 . S
H492 C472 0.930 . S
H493 C484 0.929 1_556 S
H494 C487 0.930 . S
C495 C496 1.351 . S
C495 N498 1.368 . S
C495 H500 0.931 . S
C496 C495 1.351 . S
C496 N497 1.373 . S
C496 H524 0.930 . S
N497 C496 1.373 . S
N497 C499 1.340 . S
N498 C495 1.368 . S
N498 C499 1.321 . S
N498 Co501 2.135 . S
C499 N497 1.340 . S
C499 N498 1.321 . S
C499 H523 0.930 1_554 S
H500 C495 0.931 . S
Co501 N498 2.135 . S
Co501 N504 2.121 . S
Co501 O509 2.055 . S
Co501 O512 2.039 1_554 S
Co501 N515 2.140 . S
C502 O503 1.227 . S
C502 O512 1.265 . S
O503 C502 1.227 . S
N504 Co501 2.121 . S
N504 C506 1.375 1_554 S
N504 C507 1.313 . S
C505 C506 1.338 . S
C505 N508 1.377 1_556 S
C505 H525 0.930 . S
C506 N504 1.375 1_556 S
C506 C505 1.338 . S
C506 H510 0.931 . S
C507 N504 1.313 . S
C507 N508 1.344 . S
C507 H511 0.930 . S
N508 C505 1.377 1_554 S
N508 C507 1.344 . S
O509 Co501 2.055 . S
O509 C513 1.253 . S
H510 C506 0.931 . S
H511 C507 0.930 . S
O512 Co501 2.039 1_556 S
O512 C502 1.265 . S
C513 O509 1.253 . S
C513 O514 1.227 . S
O514 C513 1.227 . S
N515 Co501 2.140 . S
N515 C518 1.346 . S
N515 C519 1.345 . S
C516 C517 1.387 . S
C516 C520 1.391 . S
C517 C516 1.387 . S
C517 C518 1.369 . S
C517 H526 0.929 1_554 S
C518 N515 1.346 . S
C518 C517 1.369 . S
C518 H521 0.928 1_554 S
C519 N515 1.345 . S
C519 C520 1.371 . S
C519 H522 0.931 . S
C520 C516 1.391 . S
C520 C519 1.371 . S
C520 H527 0.930 . S
H521 C518 0.928 1_556 S
H522 C519 0.931 . S
H523 C499 0.930 1_556 S
H524 C496 0.930 . S
H525 C505 0.930 . S
H526 C517 0.929 1_556 S
H527 C520 0.930 . S
H528 C536 0.950 . S
H529 C541 0.950 . S
H530 C538 0.950 . S
H531 C540 0.950 . S
H532 C542 0.950 . S
H533 C544 0.950 . S
H534 C546 0.950 . S
H535 C547 0.950 . S
C536 H528 0.950 . S
C536 C537 1.386 1_556 S
C536 C538 1.391 . S
C537 C536 1.386 1_554 S
C537 C541 1.393 . S
C538 H530 0.950 . S
C538 C536 1.391 . S
C538 C539 1.400 1_556 S
C539 C538 1.400 1_554 S
C539 C540 1.398 . S
C539 C545 1.491 . S
C540 H531 0.950 . S
C540 C539 1.398 . S
C540 C541 1.391 . S
C541 H529 0.950 . S
C541 C537 1.393 . S
C541 C540 1.391 . S
C542 H532 0.950 . S
C542 C543 1.386 . S
C542 C544 1.391 . S
C543 C542 1.386 . S
C543 C547 1.393 1_554 S
C544 H533 0.950 . S
C544 C542 1.391 . S
C544 C545 1.400 . S
C545 C539 1.491 . S
C545 C544 1.400 . S
C545 C546 1.398 1_554 S
C546 H534 0.950 . S
C546 C545 1.398 1_556 S
C546 C547 1.391 . S
C547 H535 0.950 . S
C547 C543 1.393 1_556 S
C547 C546 1.391 . S
H548 C556 0.950 . S
H549 C561 0.950 . S
H550 C558 0.950 . S
H551 C560 0.950 . S
H552 C562 0.950 . S
H553 C564 0.950 . S
H554 C566 0.950 . S
H555 C567 0.950 . S
C556 H548 0.950 . S
C556 C557 1.386 . S
C556 C558 1.391 . S
C557 C556 1.386 . S
C557 C561 1.393 . S
C558 H550 0.950 . S
C558 C556 1.391 . S
C558 C559 1.400 . S
C559 C558 1.400 . S
C559 C560 1.398 . S
C559 C565 1.491 . S
C560 H551 0.950 . S
C560 C559 1.398 . S
C560 C561 1.391 . S
C561 H549 0.950 . S
C561 C557 1.393 . S
C561 C560 1.391 . S
C562 H552 0.950 . S
C562 C563 1.386 . S
C562 C564 1.391 . S
C563 C562 1.386 . S
C563 C567 1.393 . S
C564 H553 0.950 . S
C564 C562 1.391 . S
C564 C565 1.400 . S
C565 C559 1.491 . S
C565 C564 1.400 . S
C565 C566 1.398 . S
C566 H554 0.950 . S
C566 C565 1.398 . S
C566 C567 1.391 . S
C567 H555 0.950 . S
C567 C563 1.393 . S
C567 C566 1.391 . S
H568 C576 0.950 1_556 S
H569 C581 0.950 . S
H570 C578 0.950 1_556 S
H571 C580 0.950 . S
H572 C582 0.950 . S
H573 C584 0.950 . S
H574 C586 0.945 1_556 S
H575 C587 0.950 1_556 S
C576 H568 0.950 1_554 S
C576 C577 1.386 . S
C576 C578 1.391 . S
C577 C576 1.386 . S
C577 C581 1.393 . S
C578 H570 0.950 1_554 S
C578 C576 1.391 . S
C578 C579 1.400 . S
C579 C578 1.400 . S
C579 C580 1.398 . S
C579 C585 1.491 . S
C580 H571 0.950 . S
C580 C579 1.398 . S
C580 C581 1.391 . S
C581 H569 0.950 . S
C581 C577 1.393 . S
C581 C580 1.391 . S
C582 H572 0.950 . S
C582 C583 1.386 . S
C582 C584 1.391 . S
C583 C582 1.386 . S
C583 C587 1.393 . S
C584 H573 0.950 . S
C584 C582 1.391 . S
C584 C585 1.400 . S
C585 C579 1.491 . S
C585 C584 1.400 . S
C585 C586 1.398 . S
C586 H574 0.945 1_554 S
C586 C585 1.398 . S
C586 C587 1.391 . S
C587 H575 0.950 1_554 S
C587 C583 1.393 . S
C587 C586 1.391 . S
H588 C596 0.950 . S
H589 C601 0.950 . S
H590 C598 0.950 . S
H591 C600 0.950 . S
H592 C602 0.950 . S
H593 C604 0.950 . S
H594 C606 0.950 . S
H595 C607 0.950 . S
C596 H588 0.950 . S
C596 C597 1.386 1_556 S
C596 C598 1.391 . S
C597 C596 1.386 1_554 S
C597 C601 1.393 . S
C598 H590 0.950 . S
C598 C596 1.391 . S
C598 C599 1.400 1_556 S
C599 C598 1.400 1_554 S
C599 C600 1.398 . S
C599 C605 1.491 . S
C600 H591 0.950 . S
C600 C599 1.398 . S
C600 C601 1.391 . S
C601 H589 0.950 . S
C601 C597 1.393 . S
C601 C600 1.391 . S
C602 H592 0.950 . S
C602 C603 1.386 . S
C602 C604 1.391 . S
C603 C602 1.386 . S
C603 C607 1.393 1_554 S
C604 H593 0.950 . S
C604 C602 1.391 . S
C604 C605 1.400 . S
C605 C599 1.491 . S
C605 C604 1.400 . S
C605 C606 1.398 1_554 S
C606 H594 0.950 . S
C606 C605 1.398 1_556 S
C606 C607 1.391 . S
C607 H595 0.950 . S
C607 C603 1.393 1_556 S
C607 C606 1.391 . S
H608 C616 0.950 . S
H609 C621 0.950 . S
H610 C618 0.950 . S
H611 C620 0.950 . S
H612 C622 0.950 . S
H613 C624 0.950 . S
H614 C626 0.950 . S
H615 C627 0.950 . S
C616 H608 0.950 . S
C616 C617 1.386 . S
C616 C618 1.391 . S
C617 C616 1.386 . S
C617 C621 1.393 . S
C618 H610 0.950 . S
C618 C616 1.391 . S
C618 C619 1.400 . S
C619 C618 1.400 . S
C619 C620 1.398 . S
C619 C625 1.491 . S
C620 H611 0.950 . S
C620 C619 1.398 . S
C620 C621 1.391 . S
C621 H609 0.950 . S
C621 C617 1.393 . S
C621 C620 1.391 . S
C622 H612 0.950 . S
C622 C623 1.386 . S
C622 C624 1.391 . S
C623 C622 1.386 . S
C623 C627 1.393 . S
C624 H613 0.950 . S
C624 C622 1.391 . S
C624 C625 1.400 . S
C625 C619 1.491 . S
C625 C624 1.400 . S
C625 C626 1.398 . S
C626 H614 0.950 . S
C626 C625 1.398 . S
C626 C627 1.391 . S
C627 H615 0.950 . S
C627 C623 1.393 . S
C627 C626 1.391 . S
H628 C636 0.950 . S
H629 C641 0.950 . S
H630 C638 0.950 . S
H631 C640 0.950 . S
H632 C642 0.950 . S
H633 C644 0.950 . S
H634 C646 0.950 . S
H635 C647 0.950 . S
C636 H628 0.950 . S
C636 C637 1.386 . S
C636 C638 1.391 . S
C637 C636 1.386 . S
C637 C641 1.393 . S
C638 H630 0.950 . S
C638 C636 1.391 . S
C638 C639 1.400 . S
C639 C638 1.400 . S
C639 C640 1.398 . S
C639 C645 1.491 . S
C640 H631 0.950 . S
C640 C639 1.398 . S
C640 C641 1.391 . S
C641 H629 0.950 . S
C641 C637 1.393 . S
C641 C640 1.391 . S
C642 H632 0.950 . S
C642 C643 1.386 . S
C642 C644 1.391 . S
C643 C642 1.386 . S
C643 C647 1.393 . S
C644 H633 0.950 . S
C644 C642 1.391 . S
C644 C645 1.400 . S
C645 C639 1.491 . S
C645 C644 1.400 . S
C645 C646 1.398 . S
C646 H634 0.950 . S
C646 C645 1.398 . S
C646 C647 1.391 . S
C647 H635 0.950 . S
C647 C643 1.393 . S
C647 C646 1.391 . S
H648 C656 0.950 . S
H649 C661 0.950 . S
H650 C658 0.950 . S
H651 C660 0.950 . S
H652 C662 0.950 . S
H653 C664 0.950 . S
H654 C666 0.950 . S
H655 C667 0.950 . S
C656 H648 0.950 . S
C656 C657 1.386 . S
C656 C658 1.391 . S
C657 C656 1.386 . S
C657 C661 1.393 . S
C658 H650 0.950 . S
C658 C656 1.391 . S
C658 C659 1.400 . S
C659 C658 1.400 . S
C659 C660 1.398 . S
C659 C665 1.491 . S
C660 H651 0.950 . S
C660 C659 1.398 . S
C660 C661 1.391 . S
C661 H649 0.950 . S
C661 C657 1.393 . S
C661 C660 1.391 . S
C662 H652 0.950 . S
C662 C663 1.386 . S
C662 C664 1.391 . S
C663 C662 1.386 . S
C663 C667 1.393 . S
C664 H653 0.950 . S
C664 C662 1.391 . S
C664 C665 1.400 . S
C665 C659 1.491 . S
C665 C664 1.400 . S
C665 C666 1.398 . S
C666 H654 0.950 . S
C666 C665 1.398 . S
C666 C667 1.391 . S
C667 H655 0.950 . S
C667 C663 1.393 . S
C667 C666 1.391 . S
H668 C676 0.950 . S
H669 C681 0.950 . S
H670 C678 0.950 . S
H671 C680 0.950 . S
H672 C682 0.950 . S
H673 C684 0.950 . S
H674 C686 0.950 . S
H675 C687 0.950 . S
C676 H668 0.950 . S
C676 C677 1.386 . S
C676 C678 1.391 . S
C677 C676 1.386 . S
C677 C681 1.393 . S
C678 H670 0.950 . S
C678 C676 1.391 . S
C678 C679 1.400 . S
C679 C678 1.400 . S
C679 C680 1.398 . S
C679 C685 1.491 . S
C680 H671 0.950 . S
C680 C679 1.398 . S
C680 C681 1.391 . S
C681 H669 0.950 . S
C681 C677 1.393 . S
C681 C680 1.391 . S
C682 H672 0.950 . S
C682 C683 1.386 . S
C682 C684 1.391 . S
C683 C682 1.386 . S
C683 C687 1.393 . S
C684 H673 0.950 . S
C684 C682 1.391 . S
C684 C685 1.400 . S
C685 C679 1.491 . S
C685 C684 1.400 . S
C685 C686 1.398 . S
C686 H674 0.950 . S
C686 C685 1.398 . S
C686 C687 1.391 . S
C687 H675 0.950 . S
C687 C683 1.393 . S
C687 C686 1.391 . S
H688 C696 0.950 . S
H689 C701 0.950 . S
H690 C698 0.950 . S
H691 C700 0.950 . S
H692 C702 0.950 . S
H693 C704 0.950 . S
H694 C706 0.950 . S
H695 C707 0.950 . S
C696 H688 0.950 . S
C696 C697 1.386 . S
C696 C698 1.391 . S
C697 C696 1.386 . S
C697 C701 1.393 1_556 S
C698 H690 0.950 . S
C698 C696 1.391 . S
C698 C699 1.404 . S
C699 C698 1.404 . S
C699 C700 1.395 1_556 S
C699 C705 1.490 1_556 S
C700 H691 0.950 . S
C700 C699 1.395 1_554 S
C700 C701 1.391 . S
C701 H689 0.950 . S
C701 C697 1.393 1_554 S
C701 C700 1.391 . S
C702 H692 0.950 . S
C702 C703 1.386 . S
C702 C704 1.391 . S
C703 C702 1.386 . S
C703 C707 1.393 1_554 S
C704 H693 0.950 . S
C704 C702 1.391 . S
C704 C705 1.400 . S
C705 C699 1.490 1_554 S
C705 C704 1.400 . S
C705 C706 1.398 1_554 S
C706 H694 0.950 . S
C706 C705 1.398 1_556 S
C706 C707 1.391 . S
C707 H695 0.950 . S
C707 C703 1.393 1_556 S
C707 C706 1.391 . S
H708 C716 0.950 . S
H709 C721 0.950 . S
H710 C718 0.950 . S
H711 C720 0.950 . S
H712 C722 0.950 . S
H713 C724 0.950 . S
H714 C726 0.950 . S
H715 C727 0.950 . S
C716 H708 0.950 . S
C716 C717 1.386 1_554 S
C716 C718 1.391 . S
C717 C716 1.386 1_556 S
C717 C721 1.393 . S
C718 H710 0.950 . S
C718 C716 1.391 . S
C718 C719 1.395 1_554 S
C719 C718 1.395 1_556 S
C719 C720 1.405 . S
C719 C725 1.490 1_556 S
C720 H711 0.950 . S
C720 C719 1.405 . S
C720 C721 1.391 . S
C721 H709 0.950 . S
C721 C717 1.393 . S
C721 C720 1.391 . S
C722 H712 0.950 . S
C722 C723 1.386 1_556 S
C722 C724 1.391 . S
C723 C722 1.386 1_554 S
C723 C727 1.393 . S
C724 H713 0.950 . S
C724 C722 1.391 . S
C724 C725 1.400 1_556 S
C725 C719 1.490 1_554 S
C725 C724 1.400 1_554 S
C725 C726 1.398 . S
C726 H714 0.950 . S
C726 C725 1.398 . S
C726 C727 1.391 . S
C727 H715 0.950 . S
C727 C723 1.393 . S
C727 C726 1.391 . S
H728 C736 0.950 . S
H729 C741 0.950 . S
H730 C738 0.950 . S
H731 C740 0.950 . S
H732 C742 0.950 . S
H733 C744 0.950 . S
H734 C746 0.950 . S
H735 C747 0.950 . S
C736 H728 0.950 . S
C736 C737 1.386 1_556 S
C736 C738 1.391 . S
C737 C736 1.386 1_554 S
C737 C741 1.393 . S
C738 H730 0.950 . S
C738 C736 1.391 . S
C738 C739 1.400 1_556 S
C739 C738 1.400 1_554 S
C739 C740 1.398 . S
C739 C745 1.491 1_554 S
C740 H731 0.950 . S
C740 C739 1.398 . S
C740 C741 1.391 . S
C741 H729 0.950 . S
C741 C737 1.393 . S
C741 C740 1.391 . S
C742 H732 0.950 . S
C742 C743 1.386 1_554 S
C742 C744 1.391 . S
C743 C742 1.386 1_556 S
C743 C747 1.393 . S
C744 H733 0.950 . S
C744 C742 1.391 . S
C744 C745 1.400 1_554 S
C745 C739 1.491 1_556 S
C745 C744 1.400 1_556 S
C745 C746 1.398 . S
C746 H734 0.950 . S
C746 C745 1.398 . S
C746 C747 1.391 . S
C747 H735 0.950 . S
C747 C743 1.393 . S
C747 C746 1.391 . S
H748 C756 0.950 . S
H749 C761 0.950 . S
H750 C758 0.950 . S
H751 C760 0.950 1_556 S
H752 C762 0.950 . S
H753 C764 0.951 . S
H754 C766 0.949 1_554 S
H755 C767 0.950 . S
C756 H748 0.950 . S
C756 C757 1.386 . S
C756 C758 1.391 . S
C757 C756 1.386 . S
C757 C761 1.393 . S
C758 H750 0.950 . S
C758 C756 1.391 . S
C758 C759 1.400 . S
C759 C758 1.400 . S
C759 C760 1.398 . S
C759 C765 1.490 1_554 S
C760 H751 0.950 1_554 S
C760 C759 1.398 . S
C760 C761 1.391 . S
C761 H749 0.950 . S
C761 C757 1.393 . S
C761 C760 1.391 . S
C762 H752 0.950 . S
C762 C763 1.386 . S
C762 C764 1.391 . S
C763 C762 1.386 . S
C763 C767 1.393 . S
C764 H753 0.951 . S
C764 C762 1.391 . S
C764 C765 1.401 . S
C765 C759 1.490 1_556 S
C765 C764 1.401 . S
C765 C766 1.398 . S
C766 H754 0.949 1_556 S
C766 C765 1.398 . S
C766 C767 1.391 . S
C767 H755 0.950 . S
C767 C763 1.393 . S
C767 C766 1.391 . S
H768 C776 0.950 . S
H769 C781 0.950 . S
H770 C778 0.950 . S
H771 C780 0.950 . S
H772 C782 0.950 . S
H773 C784 0.950 . S
H774 C786 0.950 . S
H775 C787 0.950 . S
C776 H768 0.950 . S
C776 C777 1.386 . S
C776 C778 1.391 . S
C777 C776 1.386 . S
C777 C781 1.393 . S
C778 H770 0.950 . S
C778 C776 1.391 . S
C778 C779 1.400 . S
C779 C778 1.400 . S
C779 C780 1.398 . S
C779 C785 1.491 . S
C780 H771 0.950 . S
C780 C779 1.398 . S
C780 C781 1.391 . S
C781 H769 0.950 . S
C781 C777 1.393 . S
C781 C780 1.391 . S
C782 H772 0.950 . S
C782 C783 1.386 . S
C782 C784 1.391 . S
C783 C782 1.386 . S
C783 C787 1.393 . S
C784 H773 0.950 . S
C784 C782 1.391 . S
C784 C785 1.400 . S
C785 C779 1.491 . S
C785 C784 1.400 . S
C785 C786 1.398 . S
C786 H774 0.950 . S
C786 C785 1.398 . S
C786 C787 1.391 . S
C787 H775 0.950 . S
C787 C783 1.393 . S
C787 C786 1.391 . S
H788 C796 0.950 . S
H789 C801 0.950 . S
H790 C798 0.950 . S
H791 C800 0.950 . S
H792 C802 0.950 . S
H793 C804 0.950 . S
H794 C806 0.950 . S
H795 C807 0.950 . S
C796 H788 0.950 . S
C796 C797 1.386 . S
C796 C798 1.391 . S
C797 C796 1.386 . S
C797 C801 1.393 . S
C798 H790 0.950 . S
C798 C796 1.391 . S
C798 C799 1.400 . S
C799 C798 1.400 . S
C799 C800 1.398 . S
C799 C805 1.491 . S
C800 H791 0.950 . S
C800 C799 1.398 . S
C800 C801 1.391 . S
C801 H789 0.950 . S
C801 C797 1.393 . S
C801 C800 1.391 . S
C802 H792 0.950 . S
C802 C803 1.386 . S
C802 C804 1.391 . S
C803 C802 1.386 . S
C803 C807 1.393 . S
C804 H793 0.950 . S
C804 C802 1.391 . S
C804 C805 1.400 . S
C805 C799 1.491 . S
C805 C804 1.400 . S
C805 C806 1.398 . S
C806 H794 0.950 . S
C806 C805 1.398 . S
C806 C807 1.391 . S
C807 H795 0.950 . S
C807 C803 1.393 . S
C807 C806 1.391 . S
H808 C816 0.950 . S
H809 C821 0.950 . S
H810 C818 0.950 . S
H811 C820 0.950 . S
H812 C822 0.950 . S
H813 C824 0.950 . S
H814 C826 0.950 . S
H815 C827 0.950 . S
C816 H808 0.950 . S
C816 C817 1.386 . S
C816 C818 1.391 . S
C817 C816 1.386 . S
C817 C821 1.393 . S
C818 H810 0.950 . S
C818 C816 1.391 . S
C818 C819 1.400 . S
C819 C818 1.400 . S
C819 C820 1.398 . S
C819 C825 1.491 . S
C820 H811 0.950 . S
C820 C819 1.398 . S
C820 C821 1.391 . S
C821 H809 0.950 . S
C821 C817 1.393 . S
C821 C820 1.391 . S
C822 H812 0.950 . S
C822 C823 1.386 . S
C822 C824 1.391 . S
C823 C822 1.386 . S
C823 C827 1.393 . S
C824 H813 0.950 . S
C824 C822 1.391 . S
C824 C825 1.400 . S
C825 C819 1.491 . S
C825 C824 1.400 . S
C825 C826 1.398 . S
C826 H814 0.950 . S
C826 C825 1.398 . S
C826 C827 1.391 . S
C827 H815 0.950 . S
C827 C823 1.393 . S
C827 C826 1.391 . S
H828 C836 0.950 . S
H829 C841 0.950 . S
H830 C838 0.950 . S
H831 C840 0.950 . S
H832 C842 0.950 . S
H833 C844 0.950 . S
H834 C846 0.950 . S
H835 C847 0.950 . S
C836 H828 0.950 . S
C836 C837 1.386 . S
C836 C838 1.391 . S
C837 C836 1.386 . S
C837 C841 1.393 . S
C838 H830 0.950 . S
C838 C836 1.391 . S
C838 C839 1.400 . S
C839 C838 1.400 . S
C839 C840 1.398 . S
C839 C845 1.491 . S
C840 H831 0.950 . S
C840 C839 1.398 . S
C840 C841 1.391 . S
C841 H829 0.950 . S
C841 C837 1.393 . S
C841 C840 1.391 . S
C842 H832 0.950 . S
C842 C843 1.386 . S
C842 C844 1.391 . S
C843 C842 1.386 . S
C843 C847 1.393 . S
C844 H833 0.950 . S
C844 C842 1.391 . S
C844 C845 1.400 . S
C845 C839 1.491 . S
C845 C844 1.400 . S
C845 C846 1.398 . S
C846 H834 0.950 . S
C846 C845 1.398 . S
C846 C847 1.391 . S
C847 H835 0.950 . S
C847 C843 1.393 . S
C847 C846 1.391 . S
H848 C856 0.950 . S
H849 C861 0.950 . S
H850 C858 0.950 . S
H851 C860 0.950 . S
H852 C862 0.950 . S
H853 C864 0.950 . S
H854 C866 0.950 . S
H855 C867 0.950 . S
C856 H848 0.950 . S
C856 C857 1.386 . S
C856 C858 1.391 . S
C857 C856 1.386 . S
C857 C861 1.393 . S
C858 H850 0.950 . S
C858 C856 1.391 . S
C858 C859 1.400 . S
C859 C858 1.400 . S
C859 C860 1.398 . S
C859 C865 1.491 . S
C860 H851 0.950 . S
C860 C859 1.398 . S
C860 C861 1.391 . S
C861 H849 0.950 . S
C861 C857 1.393 . S
C861 C860 1.391 . S
C862 H852 0.950 . S
C862 C863 1.386 . S
C862 C864 1.391 . S
C863 C862 1.386 . S
C863 C867 1.393 . S
C864 H853 0.950 . S
C864 C862 1.391 . S
C864 C865 1.400 . S
C865 C859 1.491 . S
C865 C864 1.400 . S
C865 C866 1.398 . S
C866 H854 0.950 . S
C866 C865 1.398 . S
C866 C867 1.391 . S
C867 H855 0.950 . S
C867 C863 1.393 . S
C867 C866 1.391 . S
H868 C876 0.950 . S
H869 C881 0.950 . S
H870 C878 0.950 . S
H871 C880 0.950 . S
H872 C882 0.950 . S
H873 C884 0.950 . S
H874 C886 0.950 . S
H875 C887 0.950 . S
C876 H868 0.950 . S
C876 C877 1.386 . S
C876 C878 1.391 . S
C877 C876 1.386 . S
C877 C881 1.393 . S
C878 H870 0.950 . S
C878 C876 1.391 . S
C878 C879 1.400 . S
C879 C878 1.400 . S
C879 C880 1.398 . S
C879 C885 1.491 . S
C880 H871 0.950 . S
C880 C879 1.398 . S
C880 C881 1.391 . S
C881 H869 0.950 . S
C881 C877 1.393 . S
C881 C880 1.391 . S
C882 H872 0.950 . S
C882 C883 1.386 . S
C882 C884 1.391 . S
C883 C882 1.386 . S
C883 C887 1.393 . S
C884 H873 0.950 . S
C884 C882 1.391 . S
C884 C885 1.400 . S
C885 C879 1.491 . S
C885 C884 1.400 . S
C885 C886 1.398 . S
C886 H874 0.950 . S
C886 C885 1.398 . S
C886 C887 1.391 . S
C887 H875 0.950 . S
C887 C883 1.393 . S
C887 C886 1.391 . S
H888 C896 0.950 . S
H889 C901 0.950 . S
H890 C898 0.950 . S
H891 C900 0.950 . S
H892 C902 0.950 . S
H893 C904 0.950 . S
H894 C906 0.950 . S
H895 C907 0.950 . S
C896 H888 0.950 . S
C896 C897 1.386 . S
C896 C898 1.391 . S
C897 C896 1.386 . S
C897 C901 1.393 . S
C898 H890 0.950 . S
C898 C896 1.391 . S
C898 C899 1.400 . S
C899 C898 1.400 . S
C899 C900 1.398 . S
C899 C905 1.491 . S
C900 H891 0.950 . S
C900 C899 1.398 . S
C900 C901 1.391 . S
C901 H889 0.950 . S
C901 C897 1.393 . S
C901 C900 1.391 . S
C902 H892 0.950 . S
C902 C903 1.386 . S
C902 C904 1.391 . S
C903 C902 1.386 . S
C903 C907 1.393 . S
C904 H893 0.950 . S
C904 C902 1.391 . S
C904 C905 1.400 . S
C905 C899 1.491 . S
C905 C904 1.400 . S
C905 C906 1.398 . S
C906 H894 0.950 . S
C906 C905 1.398 . S
C906 C907 1.391 . S
C907 H895 0.950 . S
C907 C903 1.393 . S
C907 C906 1.391 . S
H908 C916 0.950 . S
H909 C921 0.950 . S
H910 C918 0.950 . S
H911 C920 0.950 . S
H912 C922 0.950 . S
H913 C924 0.950 . S
H914 C926 0.950 . S
H915 C927 0.950 . S
C916 H908 0.950 . S
C916 C917 1.386 . S
C916 C918 1.391 . S
C917 C916 1.386 . S
C917 C921 1.393 . S
C918 H910 0.950 . S
C918 C916 1.391 . S
C918 C919 1.400 . S
C919 C918 1.400 . S
C919 C920 1.398 . S
C919 C925 1.491 . S
C920 H911 0.950 . S
C920 C919 1.398 . S
C920 C921 1.391 . S
C921 H909 0.950 . S
C921 C917 1.393 . S
C921 C920 1.391 . S
C922 H912 0.950 . S
C922 C923 1.386 . S
C922 C924 1.391 . S
C923 C922 1.386 . S
C923 C927 1.393 . S
C924 H913 0.950 . S
C924 C922 1.391 . S
C924 C925 1.400 . S
C925 C919 1.491 . S
C925 C924 1.400 . S
C925 C926 1.398 . S
C926 H914 0.950 . S
C926 C925 1.398 . S
C926 C927 1.391 . S
C927 H915 0.950 . S
C927 C923 1.393 . S
C927 C926 1.391 . S
H928 C936 0.950 . S
H929 C941 0.950 1_556 S
H930 C938 0.950 . S
H931 C940 0.950 1_556 S
H932 C942 0.950 . S
H933 C944 0.947 1_556 S
H934 C946 0.950 . S
H935 C947 0.950 . S
C936 H928 0.950 . S
C936 C937 1.386 . S
C936 C938 1.391 . S
C937 C936 1.386 . S
C937 C941 1.393 . S
C938 H930 0.950 . S
C938 C936 1.391 . S
C938 C939 1.400 . S
C939 C938 1.400 . S
C939 C940 1.398 . S
C939 C945 1.491 . S
C940 H931 0.950 1_554 S
C940 C939 1.398 . S
C940 C941 1.391 . S
C941 H929 0.950 1_554 S
C941 C937 1.393 . S
C941 C940 1.391 . S
C942 H932 0.950 . S
C942 C943 1.386 1_556 S
C942 C944 1.391 1_556 S
C943 C942 1.386 1_554 S
C943 C947 1.393 . S
C944 H933 0.947 1_554 S
C944 C942 1.391 1_554 S
C944 C945 1.404 . S
C945 C939 1.491 . S
C945 C944 1.404 . S
C945 C946 1.398 . S
C946 H934 0.950 . S
C946 C945 1.398 . S
C946 C947 1.391 . S
C947 H935 0.950 . S
C947 C943 1.393 . S
C947 C946 1.391 . S
H948 C956 0.950 . S
H949 C961 0.950 1_556 S
H950 C958 0.950 . S
H951 C960 0.950 1_556 S
H952 C962 0.950 . S
H953 C964 0.950 . S
H954 C966 0.950 . S
H955 C967 0.950 . S
C956 H948 0.950 . S
C956 C957 1.386 . S
C956 C958 1.391 . S
C957 C956 1.386 . S
C957 C961 1.393 . S
C958 H950 0.950 . S
C958 C956 1.391 . S
C958 C959 1.400 . S
C959 C958 1.400 . S
C959 C960 1.398 . S
C959 C965 1.491 . S
C960 H951 0.950 1_554 S
C960 C959 1.398 . S
C960 C961 1.391 . S
C961 H949 0.950 1_554 S
C961 C957 1.393 . S
C961 C960 1.391 . S
C962 H952 0.950 . S
C962 C963 1.386 1_556 S
C962 C964 1.391 . S
C963 C962 1.386 1_554 S
C963 C967 1.393 . S
C964 H953 0.950 . S
C964 C962 1.391 . S
C964 C965 1.400 1_556 S
C965 C959 1.491 . S
C965 C964 1.400 1_554 S
C965 C966 1.398 . S
C966 H954 0.950 . S
C966 C965 1.398 . S
C966 C967 1.391 . S
C967 H955 0.950 . S
C967 C963 1.393 . S
C967 C966 1.391 . S
H968 C976 0.950 1_556 S
H969 C981 0.950 . S
H970 C978 0.950 1_556 S
H971 C980 0.950 . S
H972 C982 0.950 . S
H973 C984 0.950 . S
H974 C986 0.944 1_556 S
H975 C987 0.950 . S
C976 H968 0.950 1_554 S
C976 C977 1.386 . S
C976 C978 1.391 . S
C977 C976 1.386 . S
C977 C981 1.393 . S
C978 H970 0.950 1_554 S
C978 C976 1.391 . S
C978 C979 1.400 . S
C979 C978 1.400 . S
C979 C980 1.398 . S
C979 C985 1.491 . S
C980 H971 0.950 . S
C980 C979 1.398 . S
C980 C981 1.391 . S
C981 H969 0.950 . S
C981 C977 1.393 . S
C981 C980 1.391 . S
C982 H972 0.950 . S
C982 C983 1.386 . S
C982 C984 1.391 . S
C983 C982 1.386 . S
C983 C987 1.393 1_554 S
C984 H973 0.950 . S
C984 C982 1.391 . S
C984 C985 1.400 . S
C985 C979 1.491 . S
C985 C984 1.400 . S
C985 C986 1.404 . S
C986 H974 0.944 1_554 S
C986 C985 1.404 . S
C986 C987 1.390 1_554 S
C987 H975 0.950 . S
C987 C983 1.393 1_556 S
C987 C986 1.390 1_556 S
H988 C996 0.950 1_556 S
H989 C1001 0.950 . S
H990 C998 0.950 1_556 S
H991 C1000 0.950 . S
H992 C1002 0.950 . S
H993 C1004 0.950 . S
H994 C1006 0.950 1_556 S
H995 C1007 0.950 1_556 S
C996 H988 0.950 1_554 S
C996 C997 1.386 . S
C996 C998 1.391 . S
C997 C996 1.386 . S
C997 C1001 1.393 . S
C998 H990 0.950 1_554 S
C998 C996 1.391 . S
C998 C999 1.400 . S
C999 C998 1.400 . S
C999 C1000 1.398 . S
C999 C1005 1.491 . S
C1000 H991 0.950 . S
C1000 C999 1.398 . S
C1000 C1001 1.391 . S
C1001 H989 0.950 . S
C1001 C997 1.393 . S
C1001 C1000 1.391 . S
C1002 H992 0.950 . S
C1002 C1003 1.386 . S
C1002 C1004 1.391 . S
C1003 C1002 1.386 . S
C1003 C1007 1.393 . S
C1004 H993 0.950 . S
C1004 C1002 1.391 . S
C1004 C1005 1.400 . S
C1005 C999 1.491 . S
C1005 C1004 1.400 . S
C1005 C1006 1.398 . S
C1006 H994 0.950 1_554 S
C1006 C1005 1.398 . S
C1006 C1007 1.391 . S
C1007 H995 0.950 1_554 S
C1007 C1003 1.393 . S
C1007 C1006 1.391 . S
H1008 C1016 0.950 . S
H1009 C1021 0.950 . S
H1010 C1018 0.950 . S
H1011 C1020 0.950 . S
H1012 C1022 0.950 . S
H1013 C1024 0.950 . S
H1014 C1026 0.950 . S
H1015 C1027 0.950 . S
C1016 H1008 0.950 . S
C1016 C1017 1.386 1_455 S
C1016 C1018 1.391 . S
C1017 C1016 1.386 1_655 S
C1017 C1021 1.393 . S
C1018 H1010 0.950 . S
C1018 C1016 1.391 . S
C1018 C1019 1.400 1_455 S
C1019 C1018 1.400 1_655 S
C1019 C1020 1.398 . S
C1019 C1025 1.491 1_655 S
C1020 H1011 0.950 . S
C1020 C1019 1.398 . S
C1020 C1021 1.391 . S
C1021 H1009 0.950 . S
C1021 C1017 1.393 . S
C1021 C1020 1.391 . S
C1022 H1012 0.950 . S
C1022 C1023 1.386 1_655 S
C1022 C1024 1.391 . S
C1023 C1022 1.386 1_455 S
C1023 C1027 1.393 . S
C1024 H1013 0.950 . S
C1024 C1022 1.391 . S
C1024 C1025 1.400 1_655 S
C1025 C1019 1.491 1_455 S
C1025 C1024 1.400 1_455 S
C1025 C1026 1.398 . S
C1026 H1014 0.950 . S
C1026 C1025 1.398 . S
C1026 C1027 1.391 . S
C1027 H1015 0.950 . S
C1027 C1023 1.393 . S
C1027 C1026 1.391 . S
H1028 C1036 0.950 . S
H1029 C1041 0.936 1_545 S
H1030 C1038 0.950 . S
H1031 C1040 0.950 . S
H1032 C1042 0.950 . S
H1033 C1044 0.950 . S
H1034 C1046 0.950 . S
H1035 C1047 0.936 1_565 S
C1036 H1028 0.950 . S
C1036 C1037 1.386 . S
C1036 C1038 1.391 . S
C1037 C1036 1.386 . S
C1037 C1041 1.418 . S
C1038 H1030 0.950 . S
C1038 C1036 1.391 . S
C1038 C1039 1.400 . S
C1039 C1038 1.400 . S
C1039 C1040 1.398 1_565 S
C1039 C1045 1.491 1_565 S
C1040 H1031 0.950 . S
C1040 C1039 1.398 1_545 S
C1040 C1041 1.382 1_545 S
C1041 H1029 0.936 1_565 S
C1041 C1037 1.418 . S
C1041 C1040 1.382 1_565 S
C1042 H1032 0.950 . S
C1042 C1043 1.386 . S
C1042 C1044 1.391 . S
C1043 C1042 1.386 . S
C1043 C1047 1.418 . S
C1044 H1033 0.950 . S
C1044 C1042 1.391 . S
C1044 C1045 1.400 . S
C1045 C1039 1.491 1_545 S
C1045 C1044 1.400 . S
C1045 C1046 1.398 1_545 S
C1046 H1034 0.950 . S
C1046 C1045 1.398 1_565 S
C1046 C1047 1.382 1_565 S
C1047 H1035 0.936 1_545 S
C1047 C1043 1.418 . S
C1047 C1046 1.382 1_545 S
H1048 C1056 0.950 . S
H1049 C1061 0.950 . S
H1050 C1058 0.950 . S
H1051 C1060 0.950 . S
H1052 C1062 0.950 . S
H1053 C1064 0.950 . S
H1054 C1066 0.950 . S
H1055 C1067 0.950 . S
C1056 H1048 0.950 . S
C1056 C1057 1.386 . S
C1056 C1058 1.391 . S
C1057 C1056 1.386 . S
C1057 C1061 1.393 1_655 S
C1058 H1050 0.950 . S
C1058 C1056 1.391 . S
C1058 C1059 1.400 . S
C1059 C1058 1.400 . S
C1059 C1060 1.398 1_655 S
C1059 C1065 1.491 1_655 S
C1060 H1051 0.950 . S
C1060 C1059 1.398 1_455 S
C1060 C1061 1.391 . S
C1061 H1049 0.950 . S
C1061 C1057 1.393 1_455 S
C1061 C1060 1.391 . S
C1062 H1052 0.950 . S
C1062 C1063 1.386 . S
C1062 C1064 1.391 . S
C1063 C1062 1.386 . S
C1063 C1067 1.393 1_455 S
C1064 H1053 0.950 . S
C1064 C1062 1.391 . S
C1064 C1065 1.400 . S
C1065 C1059 1.491 1_455 S
C1065 C1064 1.400 . S
C1065 C1066 1.398 1_455 S
C1066 H1054 0.950 . S
C1066 C1065 1.398 1_655 S
C1066 C1067 1.391 . S
C1067 H1055 0.950 . S
C1067 C1063 1.393 1_655 S
C1067 C1066 1.391 . S
H1068 C1076 0.950 . S
H1069 C1081 0.950 . S
H1070 C1078 0.944 1_565 S
H1071 C1080 0.950 . S
H1072 C1082 0.950 . S
H1073 C1084 0.944 1_545 S
H1074 C1086 0.950 . S
H1075 C1087 0.950 . S
C1076 H1068 0.950 . S
C1076 C1077 1.386 . S
C1076 C1078 1.391 . S
C1077 C1076 1.386 . S
C1077 C1081 1.393 . S
C1078 H1070 0.944 1_545 S
C1078 C1076 1.391 . S
C1078 C1079 1.400 . S
C1079 C1078 1.400 . S
C1079 C1080 1.398 . S
C1079 C1085 1.491 1_545 S
C1080 H1071 0.950 . S
C1080 C1079 1.398 . S
C1080 C1081 1.391 . S
C1081 H1069 0.950 . S
C1081 C1077 1.393 . S
C1081 C1080 1.391 . S
C1082 H1072 0.950 . S
C1082 C1083 1.386 . S
C1082 C1084 1.391 . S
C1083 C1082 1.386 . S
C1083 C1087 1.393 . S
C1084 H1073 0.944 1_565 S
C1084 C1082 1.391 . S
C1084 C1085 1.400 . S
C1085 C1079 1.491 1_565 S
C1085 C1084 1.400 . S
C1085 C1086 1.398 . S
C1086 H1074 0.950 . S
C1086 C1085 1.398 . S
C1086 C1087 1.391 . S
C1087 H1075 0.950 . S
C1087 C1083 1.393 . S
C1087 C1086 1.391 . S
H1088 C1096 0.950 . S
H1089 C1101 0.950 . S
H1090 C1098 0.950 . S
H1091 C1100 0.950 . S
H1092 C1102 0.950 . S
H1093 C1104 0.950 . S
H1094 C1106 0.950 . S
H1095 C1107 0.950 . S
C1096 H1088 0.950 . S
C1096 C1097 1.386 . S
C1096 C1098 1.391 . S
C1097 C1096 1.386 . S
C1097 C1101 1.393 1_655 S
C1098 H1090 0.950 . S
C1098 C1096 1.391 . S
C1098 C1099 1.400 . S
C1099 C1098 1.400 . S
C1099 C1100 1.398 1_655 S
C1099 C1105 1.491 1_655 S
C1100 H1091 0.950 . S
C1100 C1099 1.398 1_455 S
C1100 C1101 1.391 . S
C1101 H1089 0.950 . S
C1101 C1097 1.393 1_455 S
C1101 C1100 1.391 . S
C1102 H1092 0.950 . S
C1102 C1103 1.386 . S
C1102 C1104 1.391 . S
C1103 C1102 1.386 . S
C1103 C1107 1.393 1_455 S
C1104 H1093 0.950 . S
C1104 C1102 1.391 . S
C1104 C1105 1.400 . S
C1105 C1099 1.491 1_455 S
C1105 C1104 1.400 . S
C1105 C1106 1.398 1_455 S
C1106 H1094 0.950 . S
C1106 C1105 1.398 1_655 S
C1106 C1107 1.391 . S
C1107 H1095 0.950 . S
C1107 C1103 1.393 1_655 S
C1107 C1106 1.391 . S
H1108 C1116 0.950 . S
H1109 C1121 0.950 . S
H1110 C1118 0.950 . S
H1111 C1120 0.950 . S
H1112 C1122 0.950 . S
H1113 C1124 0.950 . S
H1114 C1126 0.950 . S
H1115 C1127 0.950 . S
C1116 H1108 0.950 . S
C1116 C1117 1.386 . S
C1116 C1118 1.391 . S
C1117 C1116 1.386 . S
C1117 C1121 1.393 1_545 S
C1118 H1110 0.950 . S
C1118 C1116 1.391 . S
C1118 C1119 1.414 . S
C1119 C1118 1.414 . S
C1119 C1120 1.386 1_545 S
C1119 C1125 1.489 1_545 S
C1120 H1111 0.950 . S
C1120 C1119 1.386 1_565 S
C1120 C1121 1.391 . S
C1121 H1109 0.950 . S
C1121 C1117 1.393 1_565 S
C1121 C1120 1.391 . S
C1122 H1112 0.950 . S
C1122 C1123 1.386 . S
C1122 C1124 1.391 . S
C1123 C1122 1.386 . S
C1123 C1127 1.393 1_565 S
C1124 H1113 0.950 . S
C1124 C1122 1.391 . S
C1124 C1125 1.414 . S
C1125 C1119 1.489 1_565 S
C1125 C1124 1.414 . S
C1125 C1126 1.386 1_565 S
C1126 H1114 0.950 . S
C1126 C1125 1.386 1_545 S
C1126 C1127 1.391 . S
C1127 H1115 0.950 . S
C1127 C1123 1.393 1_545 S
C1127 C1126 1.391 . S
H1128 C1136 0.950 . S
H1129 C1141 0.950 . S
H1130 C1138 0.950 . S
H1131 C1140 0.950 . S
H1132 C1142 0.950 . S
H1133 C1144 0.950 . S
H1134 C1146 0.950 . S
H1135 C1147 0.950 . S
C1136 H1128 0.950 . S
C1136 C1137 1.386 1_655 S
C1136 C1138 1.391 . S
C1137 C1136 1.386 1_455 S
C1137 C1141 1.393 . S
C1138 H1130 0.950 . S
C1138 C1136 1.391 . S
C1138 C1139 1.392 1_655 S
C1139 C1138 1.392 1_455 S
C1139 C1140 1.409 . S
C1139 C1145 1.489 1_455 S
C1140 H1131 0.950 . S
C1140 C1139 1.409 . S
C1140 C1141 1.391 . S
C1141 H1129 0.950 . S
C1141 C1137 1.393 . S
C1141 C1140 1.391 . S
C1142 H1132 0.950 . S
C1142 C1143 1.386 1_455 S
C1142 C1144 1.391 . S
C1143 C1142 1.386 1_655 S
C1143 C1147 1.393 . S
C1144 H1133 0.950 . S
C1144 C1142 1.391 . S
C1144 C1145 1.392 1_455 S
C1145 C1139 1.489 1_655 S
C1145 C1144 1.392 1_655 S
C1145 C1146 1.409 . S
C1146 H1134 0.950 . S
C1146 C1145 1.409 . S
C1146 C1147 1.391 . S
C1147 H1135 0.950 . S
C1147 C1143 1.393 . S
C1147 C1146 1.391 . S
H1148 C1156 0.950 . S
H1149 C1161 0.950 . S
H1150 C1158 0.950 . S
H1151 C1160 0.950 . S
H1152 C1162 0.950 . S
H1153 C1164 0.950 . S
H1154 C1166 0.950 . S
H1155 C1167 0.950 . S
C1156 H1148 0.950 . S
C1156 C1157 1.386 1_545 S
C1156 C1158 1.391 . S
C1157 C1156 1.386 1_565 S
C1157 C1161 1.393 . S
C1158 H1150 0.950 . S
C1158 C1156 1.391 . S
C1158 C1159 1.377 1_545 S
C1159 C1158 1.377 1_565 S
C1159 C1160 1.425 . S
C1159 C1165 1.488 1_565 S
C1160 H1151 0.950 . S
C1160 C1159 1.425 . S
C1160 C1161 1.391 . S
C1161 H1149 0.950 . S
C1161 C1157 1.393 . S
C1161 C1160 1.391 . S
C1162 H1152 0.950 . S
C1162 C1163 1.386 1_565 S
C1162 C1164 1.391 . S
C1163 C1162 1.386 1_545 S
C1163 C1167 1.393 . S
C1164 H1153 0.950 . S
C1164 C1162 1.391 . S
C1164 C1165 1.377 1_565 S
C1165 C1159 1.488 1_545 S
C1165 C1164 1.377 1_545 S
C1165 C1166 1.425 . S
C1166 H1154 0.950 . S
C1166 C1165 1.425 . S
C1166 C1167 1.391 . S
C1167 H1155 0.950 . S
C1167 C1163 1.393 . S
C1167 C1166 1.391 . S
H1168 C1176 0.950 . S
H1169 C1181 0.950 . S
H1170 C1178 0.950 . S
H1171 C1180 0.950 . S
H1172 C1182 0.950 . S
H1173 C1184 0.950 . S
H1174 C1186 0.950 . S
H1175 C1187 0.950 . S
C1176 H1168 0.950 . S
C1176 C1177 1.386 . S
C1176 C1178 1.391 . S
C1177 C1176 1.386 . S
C1177 C1181 1.393 . S
C1178 H1170 0.950 . S
C1178 C1176 1.391 . S
C1178 C1179 1.400 . S
C1179 C1178 1.400 . S
C1179 C1180 1.398 . S
C1179 C1185 1.491 . S
C1180 H1171 0.950 . S
C1180 C1179 1.398 . S
C1180 C1181 1.391 . S
C1181 H1169 0.950 . S
C1181 C1177 1.393 . S
C1181 C1180 1.391 . S
C1182 H1172 0.950 . S
C1182 C1183 1.386 . S
C1182 C1184 1.391 . S
C1183 C1182 1.386 . S
C1183 C1187 1.393 . S
C1184 H1173 0.950 . S
C1184 C1182 1.391 . S
C1184 C1185 1.400 . S
C1185 C1179 1.491 . S
C1185 C1184 1.400 . S
C1185 C1186 1.398 . S
C1186 H1174 0.950 . S
C1186 C1185 1.398 . S
C1186 C1187 1.391 . S
C1187 H1175 0.950 . S
C1187 C1183 1.393 . S
C1187 C1186 1.391 . S
H1188 C1196 0.950 . S
H1189 C1201 0.950 . S
H1190 C1198 0.950 . S
H1191 C1200 0.950 . S
H1192 C1202 0.950 . S
H1193 C1204 0.950 . S
H1194 C1206 0.950 . S
H1195 C1207 0.950 . S
C1196 H1188 0.950 . S
C1196 C1197 1.386 . S
C1196 C1198 1.391 . S
C1197 C1196 1.386 . S
C1197 C1201 1.393 . S
C1198 H1190 0.950 . S
C1198 C1196 1.391 . S
C1198 C1199 1.400 . S
C1199 C1198 1.400 . S
C1199 C1200 1.398 . S
C1199 C1205 1.491 . S
C1200 H1191 0.950 . S
C1200 C1199 1.398 . S
C1200 C1201 1.391 . S
C1201 H1189 0.950 . S
C1201 C1197 1.393 . S
C1201 C1200 1.391 . S
C1202 H1192 0.950 . S
C1202 C1203 1.386 . S
C1202 C1204 1.391 . S
C1203 C1202 1.386 . S
C1203 C1207 1.393 . S
C1204 H1193 0.950 . S
C1204 C1202 1.391 . S
C1204 C1205 1.400 . S
C1205 C1199 1.491 . S
C1205 C1204 1.400 . S
C1205 C1206 1.398 . S
C1206 H1194 0.950 . S
C1206 C1205 1.398 . S
C1206 C1207 1.391 . S
C1207 H1195 0.950 . S
C1207 C1203 1.393 . S
C1207 C1206 1.391 . S
H1208 C1216 0.950 . S
H1209 C1221 0.950 . S
H1210 C1218 0.950 . S
H1211 C1220 0.950 . S
H1212 C1222 0.950 . S
H1213 C1224 0.950 . S
H1214 C1226 0.950 . S
H1215 C1227 0.950 . S
C1216 H1208 0.950 . S
C1216 C1217 1.386 . S
C1216 C1218 1.391 . S
C1217 C1216 1.386 . S
C1217 C1221 1.393 . S
C1218 H1210 0.950 . S
C1218 C1216 1.391 . S
C1218 C1219 1.400 . S
C1219 C1218 1.400 . S
C1219 C1220 1.398 . S
C1219 C1225 1.491 . S
C1220 H1211 0.950 . S
C1220 C1219 1.398 . S
C1220 C1221 1.391 . S
C1221 H1209 0.950 . S
C1221 C1217 1.393 . S
C1221 C1220 1.391 . S
C1222 H1212 0.950 . S
C1222 C1223 1.386 . S
C1222 C1224 1.391 . S
C1223 C1222 1.386 . S
C1223 C1227 1.393 . S
C1224 H1213 0.950 . S
C1224 C1222 1.391 . S
C1224 C1225 1.400 . S
C1225 C1219 1.491 . S
C1225 C1224 1.400 . S
C1225 C1226 1.398 . S
C1226 H1214 0.950 . S
C1226 C1225 1.398 . S
C1226 C1227 1.391 . S
C1227 H1215 0.950 . S
C1227 C1223 1.393 . S
C1227 C1226 1.391 . S
H1228 C1236 0.950 . S
H1229 C1241 0.950 . S
H1230 C1238 0.950 . S
H1231 C1240 0.950 . S
H1232 C1242 0.950 . S
H1233 C1244 0.950 . S
H1234 C1246 0.950 . S
H1235 C1247 0.950 . S
C1236 H1228 0.950 . S
C1236 C1237 1.386 . S
C1236 C1238 1.391 . S
C1237 C1236 1.386 . S
C1237 C1241 1.393 . S
C1238 H1230 0.950 . S
C1238 C1236 1.391 . S
C1238 C1239 1.400 . S
C1239 C1238 1.400 . S
C1239 C1240 1.398 . S
C1239 C1245 1.491 . S
C1240 H1231 0.950 . S
C1240 C1239 1.398 . S
C1240 C1241 1.391 . S
C1241 H1229 0.950 . S
C1241 C1237 1.393 . S
C1241 C1240 1.391 . S
C1242 H1232 0.950 . S
C1242 C1243 1.386 . S
C1242 C1244 1.391 . S
C1243 C1242 1.386 . S
C1243 C1247 1.393 . S
C1244 H1233 0.950 . S
C1244 C1242 1.391 . S
C1244 C1245 1.400 . S
C1245 C1239 1.491 . S
C1245 C1244 1.400 . S
C1245 C1246 1.398 . S
C1246 H1234 0.950 . S
C1246 C1245 1.398 . S
C1246 C1247 1.391 . S
C1247 H1235 0.950 . S
C1247 C1243 1.393 . S
C1247 C1246 1.391 . S
H1248 C1256 0.950 . S
H1249 C1261 0.950 . S
H1250 C1258 0.950 . S
H1251 C1260 0.950 . S
H1252 C1262 0.950 . S
H1253 C1264 0.950 . S
H1254 C1266 0.950 . S
H1255 C1267 0.950 . S
C1256 H1248 0.950 . S
C1256 C1257 1.386 . S
C1256 C1258 1.391 . S
C1257 C1256 1.386 . S
C1257 C1261 1.393 . S
C1258 H1250 0.950 . S
C1258 C1256 1.391 . S
C1258 C1259 1.400 . S
C1259 C1258 1.400 . S
C1259 C1260 1.398 . S
C1259 C1265 1.491 . S
C1260 H1251 0.950 . S
C1260 C1259 1.398 . S
C1260 C1261 1.391 . S
C1261 H1249 0.950 . S
C1261 C1257 1.393 . S
C1261 C1260 1.391 . S
C1262 H1252 0.950 . S
C1262 C1263 1.386 . S
C1262 C1264 1.391 . S
C1263 C1262 1.386 . S
C1263 C1267 1.393 . S
C1264 H1253 0.950 . S
C1264 C1262 1.391 . S
C1264 C1265 1.400 . S
C1265 C1259 1.491 . S
C1265 C1264 1.400 . S
C1265 C1266 1.398 . S
C1266 H1254 0.950 . S
C1266 C1265 1.398 . S
C1266 C1267 1.391 . S
C1267 H1255 0.950 . S
C1267 C1263 1.393 . S
C1267 C1266 1.391 . S
H1268 C1276 0.950 . S
H1269 C1281 0.950 . S
H1270 C1278 0.950 . S
H1271 C1280 0.950 . S
H1272 C1282 0.950 . S
H1273 C1284 0.950 . S
H1274 C1286 0.950 . S
H1275 C1287 0.950 . S
C1276 H1268 0.950 . S
C1276 C1277 1.386 . S
C1276 C1278 1.391 . S
C1277 C1276 1.386 . S
C1277 C1281 1.393 . S
C1278 H1270 0.950 . S
C1278 C1276 1.391 . S
C1278 C1279 1.400 . S
C1279 C1278 1.400 . S
C1279 C1280 1.398 . S
C1279 C1285 1.491 . S
C1280 H1271 0.950 . S
C1280 C1279 1.398 . S
C1280 C1281 1.391 . S
C1281 H1269 0.950 . S
C1281 C1277 1.393 . S
C1281 C1280 1.391 . S
C1282 H1272 0.950 . S
C1282 C1283 1.386 . S
C1282 C1284 1.391 . S
C1283 C1282 1.386 . S
C1283 C1287 1.393 . S
C1284 H1273 0.950 . S
C1284 C1282 1.391 . S
C1284 C1285 1.400 . S
C1285 C1279 1.491 . S
C1285 C1284 1.400 . S
C1285 C1286 1.398 . S
C1286 H1274 0.950 . S
C1286 C1285 1.398 . S
C1286 C1287 1.391 . S
C1287 H1275 0.950 . S
C1287 C1283 1.393 . S
C1287 C1286 1.391 . S
H1288 C1296 0.950 . S
H1289 C1301 0.950 . S
H1290 C1298 0.950 . S
H1291 C1300 0.950 . S
H1292 C1302 0.950 . S
H1293 C1304 0.950 . S
H1294 C1306 0.950 . S
H1295 C1307 0.950 . S
C1296 H1288 0.950 . S
C1296 C1297 1.386 . S
C1296 C1298 1.391 . S
C1297 C1296 1.386 . S
C1297 C1301 1.393 . S
C1298 H1290 0.950 . S
C1298 C1296 1.391 . S
C1298 C1299 1.400 . S
C1299 C1298 1.400 . S
C1299 C1300 1.398 . S
C1299 C1305 1.491 . S
C1300 H1291 0.950 . S
C1300 C1299 1.398 . S
C1300 C1301 1.391 . S
C1301 H1289 0.950 . S
C1301 C1297 1.393 . S
C1301 C1300 1.391 . S
C1302 H1292 0.950 . S
C1302 C1303 1.386 . S
C1302 C1304 1.391 . S
C1303 C1302 1.386 . S
C1303 C1307 1.393 . S
C1304 H1293 0.950 . S
C1304 C1302 1.391 . S
C1304 C1305 1.400 . S
C1305 C1299 1.491 . S
C1305 C1304 1.400 . S
C1305 C1306 1.398 . S
C1306 H1294 0.950 . S
C1306 C1305 1.398 . S
C1306 C1307 1.391 . S
C1307 H1295 0.950 . S
C1307 C1303 1.393 . S
C1307 C1306 1.391 . S
H1308 C1316 0.950 . S
H1309 C1321 0.950 . S
H1310 C1318 0.950 . S
H1311 C1320 0.950 . S
H1312 C1322 0.950 . S
H1313 C1324 0.950 . S
H1314 C1326 0.950 . S
H1315 C1327 0.950 . S
C1316 H1308 0.950 . S
C1316 C1317 1.386 . S
C1316 C1318 1.391 . S
C1317 C1316 1.386 . S
C1317 C1321 1.393 . S
C1318 H1310 0.950 . S
C1318 C1316 1.391 . S
C1318 C1319 1.400 . S
C1319 C1318 1.400 . S
C1319 C1320 1.398 . S
C1319 C1325 1.491 . S
C1320 H1311 0.950 . S
C1320 C1319 1.398 . S
C1320 C1321 1.391 . S
C1321 H1309 0.950 . S
C1321 C1317 1.393 . S
C1321 C1320 1.391 . S
C1322 H1312 0.950 . S
C1322 C1323 1.386 . S
C1322 C1324 1.391 . S
C1323 C1322 1.386 . S
C1323 C1327 1.393 . S
C1324 H1313 0.950 . S
C1324 C1322 1.391 . S
C1324 C1325 1.400 . S
C1325 C1319 1.491 . S
C1325 C1324 1.400 . S
C1325 C1326 1.398 . S
C1326 H1314 0.950 . S
C1326 C1325 1.398 . S
C1326 C1327 1.391 . S
C1327 H1315 0.950 . S
C1327 C1323 1.393 . S
C1327 C1326 1.391 . S
C537 N2 1.293 . S
C543 N497 1.298 . S
C557 N35 1.321 . S
C563 N398 1.319 . S
C577 N431 1.321 . S
C583 N68 1.317 . S
C597 N101 1.312 . S
C603 N464 1.318 . S
C617 N134 1.317 . S
C623 N299 1.321 . S
C637 N332 1.321 . S
C643 N167 1.319 . S
C657 N365 1.300 . S
C663 N200 1.308 . S
C677 N266 1.292 . S
C683 N233 1.296 . S
C697 N112 1.521 1_556 S
C703 C21 1.592 . S
C717 N13 1.522 1_556 S
C723 C54 1.589 . S
C737 C87 1.596 . S
C743 N46 1.538 1_556 S
C757 C120 1.591 . S
C763 N79 1.520 1_556 S
C777 N178 1.520 . S
C783 C153 1.590 . S
C797 N211 1.534 . S
C803 C186 1.596 . S
C817 N244 1.532 . S
C823 C219 1.590 . S
C837 N145 1.522 . S
C843 C252 1.589 . S
C857 N376 1.544 . S
C863 C285 1.596 . S
C877 C318 1.592 . S
C883 N277 1.542 . S
C897 N310 1.540 . S
C903 C351 1.596 . S
C917 N343 1.527 . S
C923 C384 1.589 . S
C937 N442 1.540 . S
C943 C417 1.596 . S
C957 N475 1.536 . S
C963 C450 1.596 . S
C977 N508 1.526 . S
C983 C483 1.589 . S
C997 N409 1.524 . S
C1003 C516 1.589 . S
C1017 C205 1.585 . S
C1023 C7 1.598 . S
C1037 C238 1.595 . S
C1043 C40 1.586 . S
C1057 C73 1.604 . S
C1063 C139 1.591 . S
C1077 C172 1.589 . S
C1083 C106 1.589 . S
C1097 C84 0.932 . S
C1103 C150 0.958 . S
C1117 C183 0.955 . S
C1123 C117 0.965 . S
C1137 C18 0.966 . S
C1143 C216 0.953 . S
C1157 C249 0.967 . S
C1163 C51 0.945 . S
C1177 C469 1.588 . S
C1183 C271 1.603 . S
C1197 C502 1.585 . S
C1203 C304 1.596 . S
C1217 C403 1.603 . S
C1223 C337 1.588 . S
C1237 C370 1.602 . S
C1243 C436 1.598 . S
C1257 C414 0.938 . S
C1263 C348 0.965 . S
C1277 C381 0.945 . S
C1283 C447 0.933 . S
C1297 C282 0.932 . S
C1303 C480 0.947 . S
C1317 C513 0.936 . S
C1323 C315 0.939 . S
