# Generated by pormake.
# Topology qtz-x, (6)-cn, num edge types: 1
# Building blocks:
#     Node 0, Type 0, BuildingBlock: KUMBUR_clean_sbu_1, # of connection points: 6
#     Node 1, Type 0, BuildingBlock: KUMBUR_clean_sbu_1, # of connection points: 6
#     Node 2, Type 0, BuildingBlock: KUMBUR_clean_sbu_1, # of connection points: 6
#     Edge 3, Type (0, 0), BuildingBlock: TEMPAE_clean_linker_10, # of connection points: 2
#     Edge 4, Type (0, 0), BuildingBlock: TEMPAE_clean_linker_10, # of connection points: 2
#     Edge 5, Type (0, 0), BuildingBlock: TEMPAE_clean_linker_10, # of connection points: 2
#     Edge 6, Type (0, 0), BuildingBlock: TEMPAE_clean_linker_10, # of connection points: 2
#     Edge 7, Type (0, 0), BuildingBlock: TEMPAE_clean_linker_10, # of connection points: 2
#     Edge 8, Type (0, 0), BuildingBlock: TEMPAE_clean_linker_10, # of connection points: 2
#     Edge 9, Type (0, 0), BuildingBlock: TEMPAE_clean_linker_10, # of connection points: 2
#     Edge 10, Type (0, 0), BuildingBlock: TEMPAE_clean_linker_10, # of connection points: 2
#     Edge 11, Type (0, 0), BuildingBlock: TEMPAE_clean_linker_10, # of connection points: 2
# Relax obj value: 0.202
# Max RMSD: 0.279
# Mean RMSD: 0.279
data_MOF--net-qtz-x--node1-KUMBUR_clean_sbu_1--edge1-TEMPAE_clean_linker_10
_symmetry_space_group_name_H-M    P1
_symmetry_Int_Tables_number       1
_symmetry_cell_setting            triclinic
loop_
_symmetry_equiv_pos_as_xyz
'x, y, z'
_cell_length_a     15.050584
_cell_length_b     15.08597
_cell_length_c     53.102744
_cell_angle_alpha  90.006391
_cell_angle_beta   90.036332
_cell_angle_gamma 120.01195
loop_
_atom_site_label
_atom_site_type_symbol
_atom_site_fract_x
_atom_site_fract_y
_atom_site_fract_z
_atom_type_partial_charge
Tb0 Tb 0.99497 0.52032 0.14951 0.0
C1 C 0.4633 0.73996 0.15308 0.0
N2 N 0.39468 0.6497 0.16386 0.0
C3 C 0.48687 0.57055 0.14754 0.0
C4 C 0.54464 0.7482 0.13823 0.0
C5 C 0.40774 0.56641 0.16222 0.0
C6 C 0.55482 0.66147 0.1352 0.0
C7 C 0.52586 0.92117 0.14795 0.0
C8 C 0.4533 0.82474 0.15775 0.0
C9 C 0.60508 0.92942 0.13234 0.0
C10 C 0.61443 0.84306 0.12749 0.0
Tb11 Tb 0.26747 0.65028 0.18721 0.0
N12 N 0.37699 0.814 0.17338 0.0
C13 C 0.51912 0.00699 0.15495 0.0
C14 C 0.37582 0.89913 0.18187 0.0
C15 C 0.44473 0.99608 0.1723 0.0
H16 H 0.35595 0.49661 0.17192 0.0
H17 H 0.4416 0.06262 0.17868 0.0
H18 H 0.95422 0.71537 0.13714 0.0
H19 H 0.73984 0.14566 0.18747 0.0
H20 H 0.32331 0.89368 0.19643 0.0
H21 H 0.57359 0.08249 0.14797 0.0
H22 H 0.89388 0.27745 0.16528 0.0
H23 H 0.49586 0.50395 0.14589 0.0
H24 H 0.66113 1.00274 0.12452 0.0
H25 H 0.67729 0.85099 0.11592 0.0
H26 H 0.83384 0.77137 0.15057 0.0
H27 H 0.61647 0.66466 0.12398 0.0
H28 H 0.61316 0.18909 0.20442 0.0
N29 N 0.88486 0.57917 0.15937 0.0
C30 C 0.80127 0.51476 0.17321 0.0
C31 C 0.82454 0.69957 0.15738 0.0
C32 C 0.72735 0.54147 0.18031 0.0
C33 C 0.89417 0.66833 0.15026 0.0
C34 C 0.7416 0.63659 0.17281 0.0
N35 N 0.85678 0.39477 0.17049 0.0
C36 C 0.83978 0.29725 0.17288 0.0
C37 C 0.6965 0.34594 0.19128 0.0
C38 C 0.7859 0.4186 0.17865 0.0
C39 C 0.68093 0.2472 0.19484 0.0
C40 C 0.75235 0.22243 0.18534 0.0
H41 H 0.68702 0.66035 0.17797 0.0
H42 H 0.5819 0.48973 0.19925 0.0
H43 H 0.5553 0.31867 0.20901 0.0
O44 O 0.98639 0.42862 0.11862 0.0
O45 O 0.99442 0.48218 0.18963 0.0
O46 O 0.1286 0.63059 0.20531 0.0
O47 O 0.89769 0.50438 0.11936 0.0
O48 O 0.07045 0.42811 0.15231 0.0
O49 O 0.17933 0.48272 0.18734 0.0
O50 O 0.37664 0.7382 0.21487 0.0
O51 O 0.25704 0.60065 0.14768 0.0
O52 O 0.13895 0.6401 0.13412 0.0
O53 O 0.28774 0.57489 0.21819 0.0
O54 O 0.17891 0.73146 0.18826 0.0
O55 O 0.09016 0.68893 0.15051 0.0
C56 C 0.04229 0.54432 0.20854 0.0
C57 C 0.83513 0.35723 0.09395 0.0
C58 C 0.75038 0.28358 0.05393 0.0
C59 C 0.66746 0.20502 0.06725 0.0
C60 C 0.75156 0.27938 0.10697 0.0
C61 C 0.6688 0.20261 0.09358 0.0
C62 C 0.83538 0.35733 0.06762 0.0
C63 C 0.12383 0.41407 0.17007 0.0
C64 C 0.92008 0.44445 0.10679 0.0
C65 C 0.63976 0.47086 0.19373 0.0
C66 C 0.62439 0.37326 0.19921 0.0
C67 C 0.21411 0.62342 0.12928 0.0
C68 C 0.44694 0.65829 0.23966 0.0
C69 C 0.54127 0.66847 0.278 0.0
C70 C 0.61606 0.66307 0.26328 0.0
C71 C 0.52271 0.65426 0.22519 0.0
C72 C 0.45657 0.6653 0.26592 0.0
C73 C 0.60665 0.65611 0.23705 0.0
C74 C 0.12978 0.74953 0.17018 0.0
C75 C 0.35842 0.65919 0.22831 0.0
H76 H 0.59998 0.14751 0.05747 0.0
H77 H 0.74919 0.27889 0.12728 0.0
H78 H 0.60394 0.1428 0.10361 0.0
H79 H 0.90128 0.41738 0.05784 0.0
H80 H 0.68199 0.66486 0.27201 0.0
H81 H 0.51788 0.65099 0.2049 0.0
H82 H 0.39929 0.67172 0.27691 0.0
H83 H 0.66539 0.65344 0.2259 0.0
Tb84 Tb 0.7347 0.1162 0.4788 0.0
C85 C 0.50446 0.64071 0.48495 0.0
N86 N 0.47358 0.70563 0.49366 0.0
C87 C 0.30978 0.60526 0.47363 0.0
C88 C 0.43929 0.55591 0.46981 0.0
C89 C 0.37603 0.68679 0.48909 0.0
C90 C 0.34158 0.53962 0.46389 0.0
C91 C 0.63487 0.59152 0.48341 0.0
C92 C 0.60191 0.65987 0.49127 0.0
C93 C 0.5705 0.5072 0.4682 0.0
C94 C 0.47329 0.48988 0.46125 0.0
Tb95 Tb 0.59099 0.84078 0.51719 0.0
N96 N 0.66208 0.74216 0.50609 0.0
C97 C 0.72998 0.6079 0.49179 0.0
C98 C 0.74955 0.75105 0.51648 0.0
C99 C 0.7865 0.6867 0.50883 0.0
H100 H 0.35113 0.73712 0.49666 0.0
H101 H 0.8575 0.69657 0.51654 0.0
H102 H 0.96947 0.15656 0.46748 0.0
H103 H 0.59822 0.34287 0.52597 0.0
H104 H 0.79108 0.80651 0.53104 0.0
H105 H 0.75826 0.55752 0.48611 0.0
H106 H 0.57996 0.19065 0.50427 0.0
H107 H 0.23383 0.59244 0.46946 0.0
H108 H 0.59425 0.45369 0.4621 0.0
H109 H 0.4243 0.42418 0.44964 0.0
H110 H 0.14681 0.28547 0.47906 0.0
H111 H 0.28952 0.47573 0.45216 0.0
H112 H 0.77099 0.48802 0.53561 0.0
N113 N 0.90261 0.23448 0.48589 0.0
C114 C 0.91978 0.32025 0.49837 0.0
C115 C 0.08356 0.29615 0.48458 0.0
C116 C 0.02004 0.3978 0.50447 0.0
C117 C 0.9828 0.22253 0.47838 0.0
C118 C 0.10213 0.3836 0.49793 0.0
N119 N 0.74044 0.24834 0.50118 0.0
C120 C 0.6556 0.253 0.50814 0.0
C121 C 0.85022 0.41676 0.51848 0.0
C122 C 0.83601 0.32872 0.50568 0.0
C123 C 0.76345 0.42168 0.52577 0.0
C124 C 0.66577 0.33962 0.52047 0.0
H125 H 0.1799 0.43939 0.50317 0.0
H126 H 0.11148 0.54683 0.52186 0.0
H127 H 0.96269 0.56413 0.53377 0.0
O128 O 0.65487 0.14349 0.45017 0.0
O129 O 0.75822 0.12697 0.51976 0.0
O130 O 0.61526 0.9829 0.53438 0.0
O131 O 0.817 0.19928 0.44687 0.0
O132 O 0.56637 0.04183 0.48241 0.0
O133 O 0.50019 0.91662 0.51415 0.0
O134 O 0.61577 0.79415 0.55272 0.0
O135 O 0.55975 0.84121 0.47663 0.0
O136 O 0.70972 0.97413 0.46211 0.0
O137 O 0.4638 0.74252 0.53944 0.0
O138 O 0.75956 0.93869 0.5192 0.0
O139 O 0.79958 0.01487 0.48018 0.0
C140 C 0.70178 0.06807 0.53829 0.0
C141 C 0.75233 0.29196 0.42544 0.0
C142 C 0.79049 0.39877 0.38795 0.0
C143 C 0.78295 0.47265 0.40249 0.0
C144 C 0.7458 0.36668 0.43974 0.0
C145 C 0.76114 0.45665 0.42823 0.0
C146 C 0.77437 0.30825 0.39966 0.0
C147 C 0.49186 0.97723 0.49747 0.0
C148 C 0.73714 0.19629 0.43665 0.0
C149 C 0.03489 0.48596 0.51718 0.0
C150 C 0.95017 0.49583 0.52396 0.0
C151 C 0.61931 0.89483 0.45799 0.0
C152 C 0.49469 0.78186 0.5825 0.0
C153 C 0.49091 0.7803 0.62849 0.0
C154 C 0.45632 0.85137 0.62796 0.0
C155 C 0.46006 0.85282 0.58245 0.0
C156 C 0.50981 0.74576 0.60553 0.0
C157 C 0.44113 0.88724 0.60508 0.0
C158 C 0.82552 0.98582 0.5009 0.0
C159 C 0.51936 0.74872 0.5587 0.0
H160 H 0.79614 0.54369 0.39412 0.0
H161 H 0.72902 0.35571 0.45966 0.0
H162 H 0.75708 0.51473 0.43928 0.0
H163 H 0.77854 0.24983 0.38866 0.0
H164 H 0.44286 0.88086 0.64525 0.0
H165 H 0.44832 0.88233 0.56495 0.0
H166 H 0.53604 0.69067 0.6055 0.0
H167 H 0.41537 0.9426 0.60489 0.0
Tb168 Tb 0.68226 0.39177 0.8125 0.0
C169 C 0.44177 0.61058 0.81878 0.0
N170 N 0.53278 0.64856 0.83106 0.0
C171 C 0.59045 0.81364 0.81252 0.0
C172 C 0.42212 0.67234 0.80241 0.0
C173 C 0.60527 0.7502 0.82911 0.0
C174 C 0.49882 0.77441 0.79895 0.0
C175 C 0.26778 0.47153 0.81337 0.0
C176 C 0.36707 0.51061 0.82359 0.0
C177 C 0.24875 0.53079 0.79612 0.0
C178 C 0.32611 0.63087 0.79052 0.0
Tb179 Tb 0.55635 0.53345 0.85418 0.0
N180 N 0.38834 0.45621 0.84054 0.0
C181 C 0.18918 0.37714 0.82206 0.0
C182 C 0.30868 0.37142 0.85149 0.0
C183 C 0.20909 0.32854 0.8418 0.0
H184 H 0.67687 0.78028 0.83926 0.0
H185 H 0.14751 0.25897 0.84986 0.0
H186 H 0.4812 0.16596 0.79771 0.0
H187 H 0.04685 0.49422 0.85553 0.0
H188 H 0.32125 0.33561 0.86767 0.0
H189 H 0.11172 0.3446 0.81482 0.0
H190 H 0.91937 0.52772 0.83532 0.0
H191 H 0.65001 0.89255 0.81005 0.0
H192 H 0.17341 0.50144 0.78779 0.0
H193 H 0.30968 0.67676 0.77771 0.0
H194 H 0.41692 0.98498 0.80866 0.0
H195 H 0.4873 0.82406 0.78627 0.0
H196 H 1.00246 0.31643 0.86541 0.0
N197 N 0.62142 0.22063 0.81781 0.0
C198 C 0.68415 0.19505 0.83029 0.0
C199 C 0.49214 0.0434 0.81494 0.0
C200 C 0.65257 0.09234 0.83604 0.0
C201 C 0.52819 0.14623 0.80911 0.0
C202 C 0.55379 0.01657 0.82891 0.0
N203 N 0.80408 0.37093 0.83315 0.0
C204 C 0.89896 0.45005 0.83927 0.0
C205 C 0.84931 0.24982 0.84978 0.0
C206 C 0.78002 0.27265 0.83756 0.0
C207 C 0.94656 0.33067 0.85619 0.0
C208 C 0.97171 0.43118 0.85073 0.0
H209 H 0.52465 0.93727 0.8339 0.0
H210 H 0.69745 0.99048 0.85341 0.0
H211 H 0.8708 0.12829 0.86486 0.0
O212 O 0.79447 0.46971 0.78463 0.0
O213 O 0.67198 0.36473 0.85327 0.0
O214 O 0.67237 0.50526 0.87107 0.0
O215 O 0.67148 0.31543 0.77863 0.0
O216 O 0.78434 0.55729 0.81955 0.0
O217 O 0.72417 0.62483 0.85108 0.0
O218 O 0.49284 0.49967 0.89053 0.0
O219 O 0.60924 0.58379 0.81544 0.0
O220 O 0.57244 0.43254 0.79805 0.0
O221 O 0.57398 0.65395 0.87786 0.0
O222 O 0.48538 0.36517 0.85428 0.0
O223 O 0.51733 0.33502 0.81405 0.0
C224 C 0.6742 0.41936 0.8728 0.0
C225 C 0.82494 0.36293 0.75726 0.0
C226 C 0.8683 0.30107 0.71925 0.0
C227 C 0.94423 0.29348 0.73304 0.0
C228 C 0.90091 0.35503 0.77068 0.0
C229 C 0.9607 0.32104 0.75851 0.0
C230 C 0.81021 0.33761 0.73163 0.0
C231 C 0.79525 0.63096 0.83516 0.0
C232 C 0.75506 0.39103 0.76952 0.0
C233 C 0.72026 0.06896 0.84877 0.0
C234 C 0.81894 0.14745 0.85532 0.0
C235 C 0.59569 0.5276 0.7955 0.0
C236 C 0.43723 0.60786 0.90644 0.0
C237 C 0.34382 0.61288 0.94348 0.0
C238 C 0.2713 0.61708 0.92756 0.0
C239 C 0.36465 0.61294 0.89084 0.0
C240 C 0.42708 0.6088 0.93271 0.0
C241 C 0.28221 0.61776 0.90141 0.0
C242 C 0.46469 0.30324 0.83502 0.0
C243 C 0.51917 0.59329 0.89581 0.0
H244 H 0.98955 0.26429 0.72438 0.0
H245 H 0.91338 0.37401 0.79047 0.0
H246 H 0.01891 0.31439 0.76894 0.0
H247 H 0.7524 0.34591 0.72141 0.0
H248 H 0.20669 0.62068 0.93537 0.0
H249 H 0.37095 0.6119 0.87057 0.0
H250 H 0.48231 0.60329 0.94478 0.0
H251 H 0.22612 0.62119 0.88929 0.0
C252 C 0.06932 0.86125 0.18833 0.0
C253 C 0.129 0.84607 0.17062 0.0
C254 C 0.06464 0.95183 0.18828 0.0
C255 C 0.12461 0.03008 0.17076 0.0
C256 C 0.18673 0.01524 0.15316 0.0
C257 C 0.18627 0.92208 0.15294 0.0
C258 C 0.99469 0.96325 0.20671 0.0
C259 C 0.25435 0.09797 0.13475 0.0
C260 C 0.05741 0.23461 0.15438 0.0
C261 C 0.12257 0.31494 0.1705 0.0
C262 C 0.05508 0.14044 0.1548 0.0
C263 C 0.1229 0.12773 0.17089 0.0
C264 C 0.19022 0.20886 0.18685 0.0
C265 C 0.1876 0.30051 0.18688 0.0
C266 C 0.98002 0.05455 0.13803 0.0
C267 C 0.26604 0.1994 0.20369 0.0
H268 H 0.02425 0.80105 0.20175 0.0
H269 H 0.23233 0.90926 0.13931 0.0
H270 H 0.04037 0.02902 0.21943 0.0
H271 H 0.94024 0.97953 0.19642 0.0
H272 H 0.94999 0.89346 0.21835 0.0
H273 H 0.30149 0.07578 0.12313 0.0
H274 H 0.20657 0.11529 0.12202 0.0
H275 H 0.3065 0.16949 0.14506 0.0
H276 H 1.00744 0.2447 0.14146 0.0
H277 H 0.23811 0.36149 0.1995 0.0
H278 H 0.93303 0.98453 0.14937 0.0
H279 H 0.02229 0.03563 0.12392 0.0
H280 H 0.92768 0.07444 0.12791 0.0
H281 H 0.22454 0.13672 0.21747 0.0
H282 H 0.31619 0.27121 0.21417 0.0
H283 H 0.31531 0.1794 0.19228 0.0
C284 C 0.38335 0.05317 0.48404 0.0
C285 C 0.39332 0.97812 0.49735 0.0
C286 C 0.29208 0.0572 0.48503 0.0
C287 C 0.20697 0.98158 0.49867 0.0
C288 C 0.21529 0.90383 0.51148 0.0
C289 C 0.30873 0.90431 0.5111 0.0
C290 C 0.28707 0.14301 0.47167 0.0
C291 C 0.12516 0.81947 0.52545 0.0
C292 C 0.99365 0.03005 0.52014 0.0
C293 C 0.922 0.98362 0.50078 0.0
C294 C 0.08794 0.03195 0.51943 0.0
C295 C 0.10871 0.98291 0.49936 0.0
C296 C 0.03488 0.93386 0.48009 0.0
C297 C 0.94319 0.93666 0.48078 0.0
C298 C 0.16574 0.08732 0.53997 0.0
C299 C 0.05216 0.87749 0.45888 0.0
H300 H 0.44745 0.11024 0.47319 0.0
H301 H 0.31488 0.84598 0.52156 0.0
H302 H 0.228 0.11127 0.45664 0.0
H303 H 0.26399 0.18423 0.4851 0.0
H304 H 0.36167 0.199 0.46307 0.0
H305 H 0.14374 0.76362 0.53409 0.0
H306 H 0.09949 0.85249 0.54051 0.0
H307 H 0.0596 0.77767 0.51235 0.0
H308 H 0.97693 0.06709 0.53543 0.0
H309 H 0.88675 0.90012 0.46594 0.0
H310 H 0.23916 0.14663 0.53157 0.0
H311 H 0.18182 0.03285 0.55024 0.0
H312 H 0.13924 0.12468 0.55371 0.0
H313 H 0.12097 0.93121 0.44791 0.0
H314 H 0.98548 0.84046 0.44587 0.0
H315 H 0.06678 0.81769 0.46666 0.0
C316 C 0.90479 0.81531 0.84771 0.0
C317 C 0.89503 0.72909 0.83501 0.0
C318 C 0.9974 0.90907 0.84753 0.0
C319 C 0.08394 0.91646 0.83507 0.0
C320 C 0.07533 0.82984 0.82242 0.0
C321 C 0.98051 0.73807 0.82204 0.0
C322 C 1.00203 1.00075 0.86034 0.0
C323 C 0.16663 0.83382 0.80949 0.0
C324 C 0.29943 0.17831 0.81496 0.0
C325 C 0.36814 0.20438 0.8351 0.0
C326 C 0.206 0.08549 0.81488 0.0
C327 C 0.1829 0.01541 0.83495 0.0
C328 C 0.25357 0.04079 0.85507 0.0
C329 C 0.34464 0.13614 0.85515 0.0
C330 C 0.1314 0.06323 0.79353 0.0
C331 C 0.23316 0.96707 0.87644 0.0
H332 H 0.83951 0.81036 0.85757 0.0
H333 H 0.97402 0.67332 0.81167 0.0
H334 H 0.064 0.03247 0.87466 0.0
H335 H 0.02044 0.06191 0.84626 0.0
H336 H 0.92853 0.9818 0.86965 0.0
H337 H 0.14761 0.75955 0.80069 0.0
H338 H 0.1966 0.89382 0.79472 0.0
H339 H 0.22928 0.85469 0.82334 0.0
H340 H 0.3177 0.23205 0.79959 0.0
H341 H 0.39866 0.15654 0.87058 0.0
H342 H 0.05684 0.04952 0.80109 0.0
H343 H 0.1167 0.99265 0.78351 0.0
H344 H 0.16002 0.127 0.77972 0.0
H345 H 0.16278 0.95214 0.88668 0.0
H346 H 0.29788 0.99657 0.89005 0.0
H347 H 0.21958 0.89269 0.8689 0.0
C348 C 0.23769 0.54284 0.98246 0.0
C349 C 0.33176 0.61145 0.97125 0.0
C350 C 0.22422 0.54224 0.00864 0.0
C351 C 0.30632 0.61332 0.02393 0.0
C352 C 0.40183 0.68217 0.01271 0.0
C353 C 0.41368 0.67969 0.98651 0.0
C354 C 0.12146 0.46681 0.01987 0.0
C355 C 0.49025 0.76096 0.02825 0.0
C356 C 0.22541 0.6823 0.08509 0.0
C357 C 0.24522 0.62549 0.10282 0.0
C358 C 0.24806 0.68142 0.05954 0.0
C359 C 0.28959 0.62039 0.05135 0.0
C360 C 0.31151 0.56412 0.06924 0.0
C361 C 0.29004 0.56823 0.09487 0.0
C362 C 0.2259 0.74464 0.04124 0.0
C363 C 0.35429 0.49694 0.06121 0.0
H364 H 0.1746 0.4893 0.9707 0.0
H365 H 0.4862 0.73332 0.97784 0.0
H366 H 0.13186 0.4237 0.03543 0.0
H367 H 0.08481 0.50839 0.028 0.0
H368 H 0.06835 0.41137 0.00571 0.0
H369 H 0.56092 0.80554 0.01686 0.0
H370 H 0.46894 0.81494 0.03675 0.0
H371 H 0.5075 0.72343 0.04395 0.0
H372 H 0.19178 0.72763 0.09122 0.0
H373 H 0.30492 0.52383 0.10853 0.0
H374 H 0.16482 0.69352 0.02792 0.0
H375 H 0.29533 0.79444 0.02995 0.0
H376 H 0.20063 0.79358 0.05091 0.0
H377 H 0.29808 0.43476 0.04885 0.0
H378 H 0.37162 0.46197 0.07753 0.0
H379 H 0.42548 0.54183 0.0501 0.0
C380 C 0.89039 0.39308 0.35096 0.0
C381 C 0.81849 0.417 0.36083 0.0
C382 C 0.91946 0.41094 0.32557 0.0
C383 C 0.87568 0.45394 0.30957 0.0
C384 C 0.80221 0.47743 0.31929 0.0
C385 C 0.77464 0.45888 0.34485 0.0
C386 C 0.999 0.38596 0.31603 0.0
C387 C 0.75384 0.52335 0.30279 0.0
C388 C 0.03843 0.59596 0.25304 0.0
C389 C 0.99486 0.52203 0.23392 0.0
C390 C 0.99822 0.57582 0.2775 0.0
C391 C 0.91184 0.47945 0.28307 0.0
C392 C 0.86554 0.40542 0.26374 0.0
C393 C 0.90809 0.42738 0.23943 0.0
C394 C 0.05032 0.65672 0.29759 0.0
C395 C 0.77291 0.30198 0.26891 0.0
H396 H 0.92585 0.36232 0.36327 0.0
H397 H 0.7183 0.47662 0.35231 0.0
H398 H 0.96874 0.33404 0.29953 0.0
H399 H 0.06817 0.45707 0.30969 0.0
H400 H 0.02248 0.34905 0.33065 0.0
H401 H 0.6951 0.53357 0.31298 0.0
H402 H 0.81378 0.59904 0.29567 0.0
H403 H 0.71733 0.47381 0.28613 0.0
H404 H 0.10527 0.66966 0.24904 0.0
H405 H 0.87468 0.36945 0.22495 0.0
H406 H 0.08314 0.62882 0.31221 0.0
H407 H 0.99374 0.6722 0.30703 0.0
H408 H 0.11303 0.72978 0.28985 0.0
H409 H 0.7939 0.25879 0.28224 0.0
H410 H 0.74163 0.25581 0.25149 0.0
H411 H 0.71162 0.3113 0.27794 0.0
C412 C 0.63219 0.6712 0.76624 0.0
C413 C 0.58681 0.56583 0.7706 0.0
C414 C 0.61894 0.7086 0.74321 0.0
C415 C 0.56055 0.63869 0.72394 0.0
C416 C 0.517 0.53219 0.72799 0.0
C417 C 0.53065 0.49699 0.7513 0.0
C418 C 0.66615 0.82271 0.73966 0.0
C419 C 0.45457 0.45533 0.70784 0.0
C420 C 0.44053 0.72201 0.67312 0.0
C421 C 0.50883 0.74392 0.65298 0.0
C422 C 0.45713 0.68886 0.69642 0.0
C423 C 0.54374 0.67664 0.69961 0.0
C424 C 0.61309 0.69872 0.67943 0.0
C425 C 0.59488 0.73223 0.65637 0.0
C426 C 0.38178 0.66645 0.7176 0.0
C427 C 0.70641 0.68674 0.68218 0.0
H428 H 0.67819 0.72455 0.78087 0.0
H429 H 0.49558 0.41535 0.75456 0.0
H430 H 0.71676 0.84806 0.72288 0.0
H431 H 0.60487 0.84178 0.73628 0.0
H432 H 0.71163 0.86673 0.7563 0.0
H433 H 0.42843 0.37535 0.71374 0.0
H434 H 0.38618 0.46182 0.70317 0.0
H435 H 0.50055 0.47161 0.69037 0.0
H436 H 0.37316 0.72955 0.67058 0.0
H437 H 0.64887 0.75038 0.64107 0.0
H438 H 0.42212 0.71458 0.7342 0.0
H439 H 0.34756 0.58538 0.72355 0.0
H440 H 0.31886 0.6809 0.71215 0.0
H441 H 0.7553 0.73544 0.69784 0.0
H442 H 0.75328 0.70788 0.66473 0.0
H443 H 0.68243 0.60628 0.687 0.0
C444 C 0.76528 0.36828 0.90369 0.0
C445 C 0.68448 0.38553 0.89799 0.0
C446 C 0.77852 0.34232 0.92824 0.0
C447 C 0.70765 0.33147 0.94722 0.0
C448 C 0.62293 0.34393 0.94111 0.0
C449 C 0.61308 0.37187 0.91658 0.0
C450 C 0.87097 0.33178 0.9341 0.0
C451 C 0.54453 0.33117 0.96066 0.0
C452 C 0.69629 0.20799 0.01042 0.0
C453 C 0.74556 0.29425 0.02613 0.0
C454 C 0.68567 0.21856 0.98446 0.0
C455 C 0.72691 0.31766 0.97396 0.0
C456 C 0.78017 0.40487 0.98949 0.0
C457 C 0.7874 0.39212 0.01536 0.0
C458 C 0.62746 0.12384 0.96845 0.0
C459 C 0.82639 0.51202 0.97897 0.0
H460 H 0.82039 0.37924 0.88927 0.0
H461 H 0.54927 0.38292 0.91191 0.0
H462 H 0.92505 0.39678 0.94611 0.0
H463 H 0.84802 0.26044 0.94482 0.0
H464 H 0.91209 0.33124 0.91678 0.0
H465 H 0.47819 0.33373 0.95228 0.0
H466 H 0.51572 0.2573 0.9707 0.0
H467 H 0.58083 0.39312 0.97489 0.0
H468 H 0.66501 0.1321 0.01841 0.0
H469 H 0.82334 0.45954 0.02722 0.0
H470 H 0.67417 0.12722 0.95194 0.0
H471 H 0.55656 0.11999 0.9611 0.0
H472 H 0.6057 0.05254 0.97914 0.0
H473 H 0.87488 0.52099 0.96236 0.0
H474 H 0.87399 0.57141 0.99309 0.0
H475 H 0.76432 0.52612 0.9726 0.0
C476 C 0.64905 0.75594 0.31591 0.0
C477 C 0.55378 0.68425 0.3057 0.0
C478 C 0.659 0.78184 0.34154 0.0
C479 C 0.57155 0.73497 0.35733 0.0
C480 C 0.47639 0.65868 0.34745 0.0
C481 C 0.46868 0.63413 0.32175 0.0
C482 C 0.76202 0.86312 0.35144 0.0
C483 C 0.38168 0.6063 0.36375 0.0
C484 C 0.61588 0.76682 0.42799 0.0
C485 C 0.59908 0.84838 0.43289 0.0
C486 C 0.60493 0.72714 0.40357 0.0
C487 C 0.5781 0.77164 0.38363 0.0
C488 C 0.56094 0.85424 0.38862 0.0
C489 C 0.57205 0.89188 0.41327 0.0
C490 C 0.6241 0.63925 0.39904 0.0
C491 C 0.533 0.90429 0.36786 0.0
H492 H 0.71497 0.79555 0.30362 0.0
H493 H 0.39523 0.57724 0.31407 0.0
H494 H 0.75799 0.93214 0.35678 0.0
H495 H 0.78271 0.83562 0.36862 0.0
H496 H 0.82407 0.88566 0.3373 0.0
H497 H 0.31578 0.54274 0.35373 0.0
H498 H 0.39775 0.57546 0.38105 0.0
H499 H 0.35918 0.66276 0.36978 0.0
H500 H 0.64093 0.73635 0.44307 0.0
H501 H 0.56099 0.95627 0.41718 0.0
H502 H 0.68564 0.66115 0.38484 0.0
H503 H 0.55381 0.5727 0.39136 0.0
H504 H 0.64668 0.61501 0.41652 0.0
H505 H 0.59546 0.93772 0.35368 0.0
H506 H 0.51973 0.9659 0.37502 0.0
H507 H 0.46261 0.84628 0.35805 0.0
C508 C 0.74649 0.22143 0.68287 0.0
C509 C 0.84726 0.26867 0.69229 0.0
C510 C 0.72512 0.19242 0.65752 0.0
C511 C 0.80587 0.20805 0.64119 0.0
C512 C 0.90751 0.254 0.65053 0.0
C513 C 0.92717 0.28478 0.67587 0.0
C514 C 0.61592 0.14514 0.64819 0.0
C515 C 0.99536 0.26997 0.63378 0.0
C516 C 0.72595 0.03823 0.58317 0.0
C517 C 0.72991 0.10513 0.56439 0.0
C518 C 0.75319 0.07147 0.60811 0.0
C519 C 0.78302 0.17377 0.61449 0.0
C520 C 0.78744 0.24189 0.59551 0.0
C521 C 0.76205 0.2069 0.5706 0.0
C522 C 0.75001 0.99708 0.6276 0.0
C523 C 0.81675 0.35094 0.60159 0.0
H524 H 0.68351 0.20598 0.69537 0.0
H525 H 1.00544 0.32229 0.68274 0.0
H526 H 0.61152 0.19262 0.63282 0.0
H527 H 0.59066 0.06826 0.64023 0.0
H528 H 0.56164 0.13761 0.66332 0.0
H529 H 0.06968 0.30512 0.64403 0.0
H530 H 0.97995 0.19556 0.62582 0.0
H531 H 1.00258 0.32006 0.6177 0.0
H532 H 0.70357 0.96029 0.57825 0.0
H533 H 0.76479 0.25846 0.55613 0.0
H534 H 0.69087 0.98286 0.64197 0.0
H535 H 0.8248 0.02997 0.63752 0.0
H536 H 0.73237 0.92268 0.61916 0.0
H537 H 0.76089 0.35143 0.61514 0.0
H538 H 0.81872 0.39466 0.58455 0.0
H539 H 0.89326 0.39103 0.61072 0.0
loop_
_geom_bond_atom_site_label_1
_geom_bond_atom_site_label_2
_geom_bond_distance
_geom_bond_site_symmetry_2
_ccdc_geom_bond_type
Tb0 N29 2.617 . S
Tb0 N35 2.572 . S
Tb0 O44 2.465 . S
Tb0 O45 2.387 . S
Tb0 O47 2.428 . S
Tb0 O48 2.308 . S
Tb0 O52 2.349 1_655 S
Tb0 O55 2.393 . S
Tb0 C64 2.802 . S
C1 N2 1.379 . S
C1 C4 1.416 . S
C1 C8 1.424 . S
N2 C1 1.379 . S
N2 C5 1.334 . S
N2 Tb11 2.617 . S
C3 C5 1.390 . S
C3 C6 1.339 . S
C3 H23 0.930 . S
C4 C1 1.416 . S
C4 C6 1.416 . S
C4 C10 1.448 . S
C5 N2 1.334 . S
C5 C3 1.390 . S
C5 H16 0.930 . S
C6 C3 1.339 . S
C6 C4 1.416 . S
C6 H27 0.930 . S
C7 C8 1.413 . S
C7 C9 1.427 . S
C7 C13 1.416 . S
C8 C1 1.424 . S
C8 C7 1.413 . S
C8 N12 1.361 . S
C9 C7 1.427 . S
C9 C10 1.328 . S
C9 H24 0.929 . S
C10 C4 1.448 . S
C10 C9 1.328 . S
C10 H25 0.930 . S
Tb11 N2 2.617 . S
Tb11 N12 2.572 . S
Tb11 O46 2.349 1_455 S
Tb11 O49 2.393 . S
Tb11 O50 2.465 . S
Tb11 O51 2.387 . S
Tb11 O53 2.428 . S
Tb11 O54 2.308 . S
Tb11 C75 2.802 . S
N12 C8 1.361 . S
N12 Tb11 2.572 . S
N12 C14 1.340 . S
C13 C7 1.416 . S
C13 C15 1.332 . S
C13 H21 0.931 . S
C14 N12 1.340 . S
C14 C15 1.407 . S
C14 H20 0.930 . S
C15 C13 1.332 . S
C15 C14 1.407 . S
C15 H17 0.929 . S
H16 C5 0.930 . S
H17 C15 0.929 . S
H18 C33 0.930 . S
H19 C40 0.929 . S
H20 C14 0.930 . S
H21 C13 0.931 . S
H22 C36 0.930 . S
H23 C3 0.930 . S
H24 C9 0.929 . S
H25 C10 0.930 . S
H26 C31 0.930 . S
H27 C6 0.930 . S
H28 C39 0.931 . S
N29 Tb0 2.617 . S
N29 C30 1.379 . S
N29 C33 1.334 . S
C30 N29 1.379 . S
C30 C32 1.416 . S
C30 C38 1.424 . S
C31 H26 0.930 . S
C31 C33 1.390 . S
C31 C34 1.339 . S
C32 C30 1.416 . S
C32 C34 1.416 . S
C32 C65 1.448 . S
C33 H18 0.930 . S
C33 N29 1.334 . S
C33 C31 1.390 . S
C34 C31 1.339 . S
C34 C32 1.416 . S
C34 H41 0.930 . S
N35 Tb0 2.572 . S
N35 C36 1.340 . S
N35 C38 1.361 . S
C36 H22 0.930 . S
C36 N35 1.340 . S
C36 C40 1.407 . S
C37 C38 1.413 . S
C37 C39 1.416 . S
C37 C66 1.427 . S
C38 C30 1.424 . S
C38 N35 1.361 . S
C38 C37 1.413 . S
C39 H28 0.931 . S
C39 C37 1.416 . S
C39 C40 1.332 . S
C40 H19 0.929 . S
C40 C36 1.407 . S
C40 C39 1.332 . S
H41 C34 0.930 . S
H42 C65 0.930 . S
H43 C66 0.929 . S
O44 Tb0 2.465 . S
O44 C64 1.264 . S
O45 Tb0 2.387 . S
O45 C56 1.264 . S
O46 Tb11 2.349 1_655 S
O46 C56 1.243 . S
O47 Tb0 2.428 . S
O47 C64 1.256 . S
O48 Tb0 2.308 . S
O48 C63 1.266 . S
O49 Tb11 2.393 . S
O49 C63 1.248 1_455 S
O50 Tb11 2.465 . S
O50 C75 1.264 . S
O51 Tb11 2.387 . S
O51 C67 1.264 . S
O52 Tb0 2.349 1_455 S
O52 C67 1.243 . S
O53 Tb11 2.428 . S
O53 C75 1.256 . S
O54 Tb11 2.308 . S
O54 C74 1.266 . S
O55 Tb0 2.393 . S
O55 C74 1.248 1_655 S
C56 O45 1.264 . S
C56 O46 1.243 . S
C57 C60 1.399 . S
C57 C62 1.383 . S
C57 C64 1.496 . S
C58 C59 1.399 . S
C58 C62 1.389 . S
C59 C58 1.399 . S
C59 C61 1.380 . S
C59 H76 0.929 . S
C60 C57 1.399 . S
C60 C61 1.392 . S
C60 H77 0.929 . S
C61 C59 1.380 . S
C61 C60 1.392 . S
C61 H78 0.929 . S
C62 C57 1.383 . S
C62 C58 1.389 . S
C62 H79 0.931 . S
C63 O48 1.266 . S
C63 O49 1.248 1_655 S
C64 Tb0 2.802 . S
C64 O44 1.264 . S
C64 O47 1.256 . S
C64 C57 1.496 . S
C65 C32 1.448 . S
C65 H42 0.930 . S
C65 C66 1.328 . S
C66 C37 1.427 . S
C66 H43 0.929 . S
C66 C65 1.328 . S
C67 O51 1.264 . S
C67 O52 1.243 . S
C68 C71 1.399 . S
C68 C72 1.383 . S
C68 C75 1.496 . S
C69 C70 1.399 . S
C69 C72 1.389 . S
C70 C69 1.399 . S
C70 C73 1.380 . S
C70 H80 0.929 . S
C71 C68 1.399 . S
C71 C73 1.392 . S
C71 H81 0.929 . S
C72 C68 1.383 . S
C72 C69 1.389 . S
C72 H82 0.931 . S
C73 C70 1.380 . S
C73 C71 1.392 . S
C73 H83 0.929 . S
C74 O54 1.266 . S
C74 O55 1.248 1_455 S
C75 Tb11 2.802 . S
C75 O50 1.264 . S
C75 O53 1.256 . S
C75 C68 1.496 . S
H76 C59 0.929 . S
H77 C60 0.929 . S
H78 C61 0.929 . S
H79 C62 0.931 . S
H80 C70 0.929 . S
H81 C71 0.929 . S
H82 C72 0.931 . S
H83 C73 0.929 . S
Tb84 N113 2.617 . S
Tb84 N119 2.572 . S
Tb84 O128 2.465 . S
Tb84 O129 2.387 . S
Tb84 O131 2.428 . S
Tb84 O132 2.308 . S
Tb84 O136 2.349 . S
Tb84 O139 2.393 . S
Tb84 C148 2.802 . S
C85 N86 1.379 . S
C85 C88 1.416 . S
C85 C92 1.424 . S
N86 C85 1.379 . S
N86 C89 1.334 . S
N86 Tb95 2.617 . S
C87 C89 1.390 . S
C87 C90 1.339 . S
C87 H107 0.930 . S
C88 C85 1.416 . S
C88 C90 1.416 . S
C88 C94 1.448 . S
C89 N86 1.334 . S
C89 C87 1.390 . S
C89 H100 0.930 . S
C90 C87 1.339 . S
C90 C88 1.416 . S
C90 H111 0.930 . S
C91 C92 1.413 . S
C91 C93 1.427 . S
C91 C97 1.416 . S
C92 C85 1.424 . S
C92 C91 1.413 . S
C92 N96 1.361 . S
C93 C91 1.427 . S
C93 C94 1.328 . S
C93 H108 0.929 . S
C94 C88 1.448 . S
C94 C93 1.328 . S
C94 H109 0.930 . S
Tb95 N86 2.617 . S
Tb95 N96 2.572 . S
Tb95 O130 2.349 1_565 S
Tb95 O133 2.393 1_565 S
Tb95 O134 2.465 . S
Tb95 O135 2.387 . S
Tb95 O137 2.428 . S
Tb95 O138 2.308 1_565 S
Tb95 C159 2.802 . S
N96 C92 1.361 . S
N96 Tb95 2.572 . S
N96 C98 1.340 . S
C97 C91 1.416 . S
C97 C99 1.332 . S
C97 H105 0.931 . S
C98 N96 1.340 . S
C98 C99 1.407 . S
C98 H104 0.930 . S
C99 C97 1.332 . S
C99 C98 1.407 . S
C99 H101 0.929 . S
H100 C89 0.930 . S
H101 C99 0.929 . S
H102 C117 0.930 . S
H103 C124 0.929 . S
H104 C98 0.930 . S
H105 C97 0.931 . S
H106 C120 0.930 . S
H107 C87 0.930 . S
H108 C93 0.929 . S
H109 C94 0.930 . S
H110 C115 0.930 . S
H111 C90 0.930 . S
H112 C123 0.931 . S
N113 Tb84 2.617 . S
N113 C114 1.379 . S
N113 C117 1.334 1_655 S
C114 N113 1.379 . S
C114 C116 1.416 1_655 S
C114 C122 1.424 . S
C115 H110 0.930 . S
C115 C117 1.390 . S
C115 C118 1.339 . S
C116 C114 1.416 1_455 S
C116 C118 1.416 . S
C116 C149 1.448 . S
C117 H102 0.930 . S
C117 N113 1.334 1_455 S
C117 C115 1.390 . S
C118 C115 1.339 . S
C118 C116 1.416 . S
C118 H125 0.930 . S
N119 Tb84 2.572 . S
N119 C120 1.340 . S
N119 C122 1.361 . S
C120 H106 0.930 . S
C120 N119 1.340 . S
C120 C124 1.407 . S
C121 C122 1.413 . S
C121 C123 1.416 . S
C121 C150 1.427 1_655 S
C122 C114 1.424 . S
C122 N119 1.361 . S
C122 C121 1.413 . S
C123 H112 0.931 . S
C123 C121 1.416 . S
C123 C124 1.332 . S
C124 H103 0.929 . S
C124 C120 1.407 . S
C124 C123 1.332 . S
H125 C118 0.930 . S
H126 C149 0.930 . S
H127 C150 0.929 . S
O128 Tb84 2.465 . S
O128 C148 1.264 . S
O129 Tb84 2.387 . S
O129 C140 1.264 . S
O130 Tb95 2.349 1_545 S
O130 C140 1.243 . S
O131 Tb84 2.428 . S
O131 C148 1.256 . S
O132 Tb84 2.308 . S
O132 C147 1.266 . S
O133 Tb95 2.393 1_545 S
O133 C147 1.248 . S
O134 Tb95 2.465 . S
O134 C159 1.264 . S
O135 Tb95 2.387 . S
O135 C151 1.264 1_565 S
O136 Tb84 2.349 . S
O136 C151 1.243 . S
O137 Tb95 2.428 . S
O137 C159 1.256 . S
O138 Tb95 2.308 1_545 S
O138 C158 1.266 . S
O139 Tb84 2.393 . S
O139 C158 1.248 . S
C140 O129 1.264 . S
C140 O130 1.243 . S
C141 C144 1.399 . S
C141 C146 1.383 . S
C141 C148 1.496 . S
C142 C143 1.399 . S
C142 C146 1.389 . S
C143 C142 1.399 . S
C143 C145 1.380 . S
C143 H160 0.929 . S
C144 C141 1.399 . S
C144 C145 1.392 . S
C144 H161 0.929 . S
C145 C143 1.380 . S
C145 C144 1.392 . S
C145 H162 0.929 . S
C146 C141 1.383 . S
C146 C142 1.389 . S
C146 H163 0.931 . S
C147 O132 1.266 . S
C147 O133 1.248 . S
C148 Tb84 2.802 . S
C148 O128 1.264 . S
C148 O131 1.256 . S
C148 C141 1.496 . S
C149 C116 1.448 . S
C149 H126 0.930 . S
C149 C150 1.328 . S
C150 C121 1.427 1_455 S
C150 H127 0.929 . S
C150 C149 1.328 . S
C151 O135 1.264 1_545 S
C151 O136 1.243 . S
C152 C155 1.399 . S
C152 C156 1.383 . S
C152 C159 1.496 . S
C153 C154 1.399 . S
C153 C156 1.389 . S
C154 C153 1.399 . S
C154 C157 1.380 . S
C154 H164 0.929 . S
C155 C152 1.399 . S
C155 C157 1.392 . S
C155 H165 0.929 . S
C156 C152 1.383 . S
C156 C153 1.389 . S
C156 H166 0.931 . S
C157 C154 1.380 . S
C157 C155 1.392 . S
C157 H167 0.929 . S
C158 O138 1.266 . S
C158 O139 1.248 . S
C159 Tb95 2.802 . S
C159 O134 1.264 . S
C159 O137 1.256 . S
C159 C152 1.496 . S
H160 C143 0.929 . S
H161 C144 0.929 . S
H162 C145 0.929 . S
H163 C146 0.931 . S
H164 C154 0.929 . S
H165 C155 0.929 . S
H166 C156 0.931 . S
H167 C157 0.929 . S
Tb168 N197 2.617 . S
Tb168 N203 2.572 . S
Tb168 O212 2.465 . S
Tb168 O213 2.387 . S
Tb168 O215 2.428 . S
Tb168 O216 2.308 . S
Tb168 O220 2.349 . S
Tb168 O223 2.393 . S
Tb168 C232 2.802 . S
C169 N170 1.379 . S
C169 C172 1.416 . S
C169 C176 1.424 . S
N170 C169 1.379 . S
N170 C173 1.334 . S
N170 Tb179 2.617 . S
C171 C173 1.390 . S
C171 C174 1.339 . S
C171 H191 0.930 . S
C172 C169 1.416 . S
C172 C174 1.416 . S
C172 C178 1.448 . S
C173 N170 1.334 . S
C173 C171 1.390 . S
C173 H184 0.930 . S
C174 C171 1.339 . S
C174 C172 1.416 . S
C174 H195 0.930 . S
C175 C176 1.413 . S
C175 C177 1.427 . S
C175 C181 1.416 . S
C176 C169 1.424 . S
C176 C175 1.413 . S
C176 N180 1.361 . S
C177 C175 1.427 . S
C177 C178 1.328 . S
C177 H192 0.929 . S
C178 C172 1.448 . S
C178 C177 1.328 . S
C178 H193 0.930 . S
Tb179 N170 2.617 . S
Tb179 N180 2.572 . S
Tb179 O214 2.349 . S
Tb179 O217 2.393 . S
Tb179 O218 2.465 . S
Tb179 O219 2.387 . S
Tb179 O221 2.428 . S
Tb179 O222 2.308 . S
Tb179 C243 2.802 . S
N180 C176 1.361 . S
N180 Tb179 2.572 . S
N180 C182 1.340 . S
C181 C175 1.416 . S
C181 C183 1.332 . S
C181 H189 0.931 . S
C182 N180 1.340 . S
C182 C183 1.407 . S
C182 H188 0.930 . S
C183 C181 1.332 . S
C183 C182 1.407 . S
C183 H185 0.929 . S
H184 C173 0.930 . S
H185 C183 0.929 . S
H186 C201 0.930 . S
H187 C208 0.929 . S
H188 C182 0.930 . S
H189 C181 0.931 . S
H190 C204 0.930 . S
H191 C171 0.930 . S
H192 C177 0.929 . S
H193 C178 0.930 . S
H194 C199 0.930 . S
H195 C174 0.930 . S
H196 C207 0.931 . S
N197 Tb168 2.617 . S
N197 C198 1.379 . S
N197 C201 1.334 . S
C198 N197 1.379 . S
C198 C200 1.416 . S
C198 C206 1.424 . S
C199 H194 0.930 . S
C199 C201 1.390 1_565 S
C199 C202 1.339 . S
C200 C198 1.416 . S
C200 C202 1.416 1_545 S
C200 C233 1.448 . S
C201 H186 0.930 . S
C201 N197 1.334 . S
C201 C199 1.390 1_545 S
C202 C199 1.339 . S
C202 C200 1.416 1_565 S
C202 H209 0.930 . S
N203 Tb168 2.572 . S
N203 C204 1.340 . S
N203 C206 1.361 . S
C204 H190 0.930 . S
C204 N203 1.340 . S
C204 C208 1.407 1_655 S
C205 C206 1.413 . S
C205 C207 1.416 1_655 S
C205 C234 1.427 . S
C206 C198 1.424 . S
C206 N203 1.361 . S
C206 C205 1.413 . S
C207 H196 0.931 . S
C207 C205 1.416 1_455 S
C207 C208 1.332 . S
C208 H187 0.929 . S
C208 C204 1.407 1_455 S
C208 C207 1.332 . S
H209 C202 0.930 . S
H210 C233 0.930 1_565 S
H211 C234 0.929 . S
O212 Tb168 2.465 . S
O212 C232 1.264 . S
O213 Tb168 2.387 . S
O213 C224 1.264 . S
O214 Tb179 2.349 . S
O214 C224 1.243 . S
O215 Tb168 2.428 . S
O215 C232 1.256 . S
O216 Tb168 2.308 . S
O216 C231 1.266 . S
O217 Tb179 2.393 . S
O217 C231 1.248 . S
O218 Tb179 2.465 . S
O218 C243 1.264 . S
O219 Tb179 2.387 . S
O219 C235 1.264 . S
O220 Tb168 2.349 . S
O220 C235 1.243 . S
O221 Tb179 2.428 . S
O221 C243 1.256 . S
O222 Tb179 2.308 . S
O222 C242 1.266 . S
O223 Tb168 2.393 . S
O223 C242 1.248 . S
C224 O213 1.264 . S
C224 O214 1.243 . S
C225 C228 1.399 . S
C225 C230 1.383 . S
C225 C232 1.496 . S
C226 C227 1.399 . S
C226 C230 1.389 . S
C227 C226 1.399 . S
C227 C229 1.380 . S
C227 H244 0.929 . S
C228 C225 1.399 . S
C228 C229 1.392 . S
C228 H245 0.929 . S
C229 C227 1.380 . S
C229 C228 1.392 . S
C229 H246 0.929 . S
C230 C225 1.383 . S
C230 C226 1.389 . S
C230 H247 0.931 . S
C231 O216 1.266 . S
C231 O217 1.248 . S
C232 Tb168 2.802 . S
C232 O212 1.264 . S
C232 O215 1.256 . S
C232 C225 1.496 . S
C233 C200 1.448 . S
C233 H210 0.930 1_545 S
C233 C234 1.328 . S
C234 C205 1.427 . S
C234 H211 0.929 . S
C234 C233 1.328 . S
C235 O219 1.264 . S
C235 O220 1.243 . S
C236 C239 1.399 . S
C236 C240 1.383 . S
C236 C243 1.496 . S
C237 C238 1.399 . S
C237 C240 1.389 . S
C238 C237 1.399 . S
C238 C241 1.380 . S
C238 H248 0.929 . S
C239 C236 1.399 . S
C239 C241 1.392 . S
C239 H249 0.929 . S
C240 C236 1.383 . S
C240 C237 1.389 . S
C240 H250 0.931 . S
C241 C238 1.380 . S
C241 C239 1.392 . S
C241 H251 0.929 . S
C242 O222 1.266 . S
C242 O223 1.248 . S
C243 Tb179 2.802 . S
C243 O218 1.264 . S
C243 O221 1.256 . S
C243 C236 1.496 . S
H244 C227 0.929 . S
H245 C228 0.929 . S
H246 C229 0.929 . S
H247 C230 0.931 . S
H248 C238 0.929 . S
H249 C239 0.929 . S
H250 C240 0.931 . S
H251 C241 0.929 . S
C252 C253 1.391 1_655 S
C252 C254 1.394 . S
C252 H268 0.931 . S
C253 C252 1.391 1_455 S
C253 C257 1.376 . S
C254 C252 1.394 . S
C254 C255 1.369 1_655 S
C254 C258 1.531 . S
C255 C254 1.369 1_455 S
C255 C256 1.410 . S
C255 C263 1.503 . S
C256 C255 1.410 . S
C256 C257 1.392 . S
C256 C259 1.511 . S
C257 C253 1.376 . S
C257 C256 1.392 . S
C257 H269 0.929 . S
C258 C254 1.531 . S
C258 H270 0.960 . S
C258 H271 0.962 . S
C258 H272 0.960 . S
C259 C256 1.511 . S
C259 H273 0.961 . S
C259 H274 0.961 1_565 S
C259 H275 0.961 1_565 S
C260 C261 1.370 . S
C260 C262 1.363 1_545 S
C260 H276 0.931 . S
C261 C260 1.370 . S
C261 C265 1.408 1_655 S
C262 C260 1.363 1_565 S
C262 C263 1.370 1_655 S
C262 C266 1.524 . S
C263 C255 1.503 . S
C263 C262 1.370 1_455 S
C263 C264 1.403 1_565 S
C264 C263 1.403 1_545 S
C264 C265 1.404 . S
C264 C267 1.539 . S
C265 C261 1.408 1_455 S
C265 C264 1.404 . S
C265 H277 0.930 . S
C266 C262 1.524 . S
C266 H278 0.956 . S
C266 H279 0.961 . S
C266 H280 0.961 . S
C267 C264 1.539 . S
C267 H281 0.958 . S
C267 H282 0.961 . S
C267 H283 0.960 . S
H268 C252 0.931 . S
H269 C257 0.929 . S
H270 C258 0.960 . S
H271 C258 0.962 . S
H272 C258 0.960 . S
H273 C259 0.961 . S
H274 C259 0.961 1_545 S
H275 C259 0.961 1_545 S
H276 C260 0.931 . S
H277 C265 0.930 . S
H278 C266 0.956 . S
H279 C266 0.961 . S
H280 C266 0.961 . S
H281 C267 0.958 . S
H282 C267 0.961 . S
H283 C267 0.960 . S
C284 C285 1.391 . S
C284 C286 1.394 . S
C284 H300 0.931 . S
C285 C284 1.391 . S
C285 C289 1.376 . S
C286 C284 1.394 . S
C286 C287 1.369 . S
C286 C290 1.531 . S
C287 C286 1.369 . S
C287 C288 1.410 . S
C287 C295 1.503 . S
C288 C287 1.410 . S
C288 C289 1.392 . S
C288 C291 1.511 . S
C289 C285 1.376 . S
C289 C288 1.392 . S
C289 H301 0.929 . S
C290 C286 1.531 . S
C290 H302 0.960 . S
C290 H303 0.962 . S
C290 H304 0.960 . S
C291 C288 1.511 . S
C291 H305 0.961 . S
C291 H306 0.961 . S
C291 H307 0.961 . S
C292 C293 1.370 1_455 S
C292 C294 1.363 . S
C292 H308 0.931 . S
C293 C292 1.370 1_655 S
C293 C297 1.408 . S
C294 C292 1.363 . S
C294 C295 1.370 . S
C294 C298 1.524 . S
C295 C287 1.503 . S
C295 C294 1.370 . S
C295 C296 1.403 . S
C296 C295 1.403 . S
C296 C297 1.404 1_455 S
C296 C299 1.539 1_545 S
C297 C293 1.408 . S
C297 C296 1.404 1_655 S
C297 H309 0.930 1_545 S
C298 C294 1.524 . S
C298 H310 0.956 . S
C298 H311 0.961 . S
C298 H312 0.961 . S
C299 C296 1.539 1_565 S
C299 H313 0.958 . S
C299 H314 0.961 1_455 S
C299 H315 0.960 . S
H300 C284 0.931 . S
H301 C289 0.929 . S
H302 C290 0.960 . S
H303 C290 0.962 . S
H304 C290 0.960 . S
H305 C291 0.961 . S
H306 C291 0.961 . S
H307 C291 0.961 . S
H308 C292 0.931 . S
H309 C297 0.930 1_565 S
H310 C298 0.956 . S
H311 C298 0.961 . S
H312 C298 0.961 . S
H313 C299 0.958 . S
H314 C299 0.961 1_655 S
H315 C299 0.960 . S
C316 C317 1.391 1_455 S
C316 C318 1.395 . S
C316 H332 0.929 1_455 S
C317 C316 1.391 1_655 S
C317 C321 1.376 1_655 S
C318 C316 1.395 . S
C318 C319 1.369 . S
C318 C322 1.531 . S
C319 C318 1.369 . S
C319 C320 1.410 . S
C319 C327 1.503 . S
C320 C319 1.410 . S
C320 C321 1.392 . S
C320 C323 1.511 . S
C321 C317 1.376 1_455 S
C321 C320 1.392 . S
C321 H333 0.929 . S
C322 C318 1.531 . S
C322 H334 0.960 . S
C322 H335 0.962 . S
C322 H336 0.960 . S
C323 C320 1.511 . S
C323 H337 0.961 . S
C323 H338 0.961 . S
C323 H339 0.961 . S
C324 C325 1.370 . S
C324 C326 1.363 . S
C324 H340 0.931 . S
C325 C324 1.370 . S
C325 C329 1.408 . S
C326 C324 1.363 . S
C326 C327 1.370 1_545 S
C326 C330 1.524 . S
C327 C319 1.503 . S
C327 C326 1.370 1_565 S
C327 C328 1.403 . S
C328 C327 1.403 . S
C328 C329 1.404 1_565 S
C328 C331 1.539 . S
C329 C325 1.408 . S
C329 C328 1.404 1_545 S
C329 H341 0.930 . S
C330 C326 1.524 . S
C330 H342 0.956 . S
C330 H343 0.961 . S
C330 H344 0.961 . S
C331 C328 1.539 . S
C331 H345 0.958 . S
C331 H346 0.961 . S
C331 H347 0.960 . S
H332 C316 0.929 1_655 S
H333 C321 0.929 . S
H334 C322 0.960 . S
H335 C322 0.962 . S
H336 C322 0.960 . S
H337 C323 0.961 . S
H338 C323 0.961 . S
H339 C323 0.961 . S
H340 C324 0.931 . S
H341 C329 0.930 . S
H342 C330 0.956 . S
H343 C330 0.961 . S
H344 C330 0.961 . S
H345 C331 0.958 . S
H346 C331 0.961 . S
H347 C331 0.960 . S
C348 C349 1.391 . S
C348 C350 1.394 1_556 S
C348 H364 0.931 . S
C349 C348 1.391 . S
C349 C353 1.348 1_556 S
C350 C348 1.394 1_554 S
C350 C351 1.369 . S
C350 C354 1.531 . S
C351 C350 1.369 . S
C351 C352 1.410 . S
C351 C359 1.503 . S
C352 C351 1.410 . S
C352 C353 1.427 . S
C352 C355 1.511 . S
C353 C349 1.348 1_554 S
C353 C352 1.427 . S
C353 H365 0.923 1_554 S
C354 C350 1.531 . S
C354 H366 0.960 . S
C354 H367 0.962 . S
C354 H368 0.960 . S
C355 C352 1.511 . S
C355 H369 0.961 . S
C355 H370 0.961 . S
C355 H371 0.961 . S
C356 C357 1.370 . S
C356 C358 1.363 . S
C356 H372 0.931 . S
C357 C356 1.370 . S
C357 C361 1.408 . S
C358 C356 1.363 . S
C358 C359 1.370 . S
C358 C362 1.524 . S
C359 C351 1.503 . S
C359 C358 1.370 . S
C359 C360 1.403 . S
C360 C359 1.403 . S
C360 C361 1.404 . S
C360 C363 1.539 . S
C361 C357 1.408 . S
C361 C360 1.404 . S
C361 H373 0.930 . S
C362 C358 1.524 . S
C362 H374 0.956 . S
C362 H375 0.961 . S
C362 H376 0.961 . S
C363 C360 1.539 . S
C363 H377 0.958 . S
C363 H378 0.961 . S
C363 H379 0.960 . S
H364 C348 0.931 . S
H365 C353 0.923 1_556 S
H366 C354 0.960 . S
H367 C354 0.962 . S
H368 C354 0.960 . S
H369 C355 0.961 . S
H370 C355 0.961 . S
H371 C355 0.961 . S
H372 C356 0.931 . S
H373 C361 0.930 . S
H374 C362 0.956 . S
H375 C362 0.961 . S
H376 C362 0.961 . S
H377 C363 0.958 . S
H378 C363 0.961 . S
H379 C363 0.960 . S
C380 C381 1.391 . S
C380 C382 1.394 . S
C380 H396 0.931 . S
C381 C380 1.391 . S
C381 C385 1.376 . S
C382 C380 1.394 . S
C382 C383 1.369 . S
C382 C386 1.531 . S
C383 C382 1.369 . S
C383 C384 1.410 . S
C383 C391 1.503 . S
C384 C383 1.410 . S
C384 C385 1.392 . S
C384 C387 1.511 . S
C385 C381 1.376 . S
C385 C384 1.392 . S
C385 H397 0.929 . S
C386 C382 1.531 . S
C386 H398 0.960 . S
C386 H399 0.962 . S
C386 H400 0.960 . S
C387 C384 1.511 . S
C387 H401 0.961 . S
C387 H402 0.961 . S
C387 H403 0.961 . S
C388 C389 1.370 . S
C388 C390 1.363 . S
C388 H404 0.931 . S
C389 C388 1.370 . S
C389 C393 1.408 . S
C390 C388 1.363 . S
C390 C391 1.370 . S
C390 C394 1.524 . S
C391 C383 1.503 . S
C391 C390 1.370 . S
C391 C392 1.403 . S
C392 C391 1.403 . S
C392 C393 1.404 . S
C392 C395 1.539 . S
C393 C389 1.408 . S
C393 C392 1.404 . S
C393 H405 0.930 . S
C394 C390 1.524 . S
C394 H406 0.956 . S
C394 H407 0.961 . S
C394 H408 0.961 . S
C395 C392 1.539 . S
C395 H409 0.958 . S
C395 H410 0.961 . S
C395 H411 0.960 . S
H396 C380 0.931 . S
H397 C385 0.929 . S
H398 C386 0.960 . S
H399 C386 0.962 . S
H400 C386 0.960 . S
H401 C387 0.961 . S
H402 C387 0.961 . S
H403 C387 0.961 . S
H404 C388 0.931 . S
H405 C393 0.930 . S
H406 C394 0.956 . S
H407 C394 0.961 . S
H408 C394 0.961 . S
H409 C395 0.958 . S
H410 C395 0.961 . S
H411 C395 0.960 . S
C412 C413 1.391 . S
C412 C414 1.394 . S
C412 H428 0.931 . S
C413 C412 1.391 . S
C413 C417 1.376 . S
C414 C412 1.394 . S
C414 C415 1.369 . S
C414 C418 1.531 . S
C415 C414 1.369 . S
C415 C416 1.410 . S
C415 C423 1.503 . S
C416 C415 1.410 . S
C416 C417 1.392 . S
C416 C419 1.511 . S
C417 C413 1.376 . S
C417 C416 1.392 . S
C417 H429 0.929 . S
C418 C414 1.531 . S
C418 H430 0.960 . S
C418 H431 0.962 . S
C418 H432 0.960 . S
C419 C416 1.511 . S
C419 H433 0.961 . S
C419 H434 0.961 . S
C419 H435 0.961 . S
C420 C421 1.370 . S
C420 C422 1.363 . S
C420 H436 0.931 . S
C421 C420 1.370 . S
C421 C425 1.408 . S
C422 C420 1.363 . S
C422 C423 1.370 . S
C422 C426 1.524 . S
C423 C415 1.503 . S
C423 C422 1.370 . S
C423 C424 1.403 . S
C424 C423 1.403 . S
C424 C425 1.404 . S
C424 C427 1.539 . S
C425 C421 1.408 . S
C425 C424 1.404 . S
C425 H437 0.930 . S
C426 C422 1.524 . S
C426 H438 0.956 . S
C426 H439 0.961 . S
C426 H440 0.961 . S
C427 C424 1.539 . S
C427 H441 0.958 . S
C427 H442 0.961 . S
C427 H443 0.960 . S
H428 C412 0.931 . S
H429 C417 0.929 . S
H430 C418 0.960 . S
H431 C418 0.962 . S
H432 C418 0.960 . S
H433 C419 0.961 . S
H434 C419 0.961 . S
H435 C419 0.961 . S
H436 C420 0.931 . S
H437 C425 0.930 . S
H438 C426 0.956 . S
H439 C426 0.961 . S
H440 C426 0.961 . S
H441 C427 0.958 . S
H442 C427 0.961 . S
H443 C427 0.960 . S
C444 C445 1.391 . S
C444 C446 1.394 . S
C444 H460 0.931 . S
C445 C444 1.391 . S
C445 C449 1.376 . S
C446 C444 1.394 . S
C446 C447 1.369 . S
C446 C450 1.531 . S
C447 C446 1.369 . S
C447 C448 1.410 . S
C447 C455 1.503 . S
C448 C447 1.410 . S
C448 C449 1.392 . S
C448 C451 1.511 . S
C449 C445 1.376 . S
C449 C448 1.392 . S
C449 H461 0.929 . S
C450 C446 1.531 . S
C450 H462 0.960 . S
C450 H463 0.962 . S
C450 H464 0.960 . S
C451 C448 1.511 . S
C451 H465 0.961 . S
C451 H466 0.961 . S
C451 H467 0.961 . S
C452 C453 1.363 1_556 S
C452 C454 1.371 . S
C452 H468 0.930 1_556 S
C453 C452 1.363 1_554 S
C453 C457 1.408 . S
C454 C452 1.371 . S
C454 C455 1.370 . S
C454 C458 1.524 . S
C455 C447 1.503 . S
C455 C454 1.370 . S
C455 C456 1.403 . S
C456 C455 1.403 . S
C456 C457 1.404 1_556 S
C456 C459 1.539 . S
C457 C453 1.408 . S
C457 C456 1.404 1_554 S
C457 H469 0.930 . S
C458 C454 1.524 . S
C458 H470 0.956 . S
C458 H471 0.961 . S
C458 H472 0.961 . S
C459 C456 1.539 . S
C459 H473 0.958 . S
C459 H474 0.961 1_556 S
C459 H475 0.960 . S
H460 C444 0.931 . S
H461 C449 0.929 . S
H462 C450 0.960 . S
H463 C450 0.962 . S
H464 C450 0.960 . S
H465 C451 0.961 . S
H466 C451 0.961 . S
H467 C451 0.961 . S
H468 C452 0.930 1_554 S
H469 C457 0.930 . S
H470 C458 0.956 . S
H471 C458 0.961 . S
H472 C458 0.961 . S
H473 C459 0.958 . S
H474 C459 0.961 1_554 S
H475 C459 0.960 . S
C476 C477 1.391 . S
C476 C478 1.394 . S
C476 H492 0.931 . S
C477 C476 1.391 . S
C477 C481 1.376 . S
C478 C476 1.394 . S
C478 C479 1.369 . S
C478 C482 1.531 . S
C479 C478 1.369 . S
C479 C480 1.410 . S
C479 C487 1.503 . S
C480 C479 1.410 . S
C480 C481 1.392 . S
C480 C483 1.511 . S
C481 C477 1.376 . S
C481 C480 1.392 . S
C481 H493 0.929 . S
C482 C478 1.531 . S
C482 H494 0.960 1_565 S
C482 H495 0.962 . S
C482 H496 0.960 . S
C483 C480 1.511 . S
C483 H497 0.961 . S
C483 H498 0.961 . S
C483 H499 0.961 . S
C484 C485 1.370 . S
C484 C486 1.363 . S
C484 H500 0.931 . S
C485 C484 1.370 . S
C485 C489 1.408 1_565 S
C486 C484 1.363 . S
C486 C487 1.370 . S
C486 C490 1.524 . S
C487 C479 1.503 . S
C487 C486 1.370 . S
C487 C488 1.403 1_565 S
C488 C487 1.403 1_545 S
C488 C489 1.404 . S
C488 C491 1.539 . S
C489 C485 1.408 1_545 S
C489 C488 1.404 . S
C489 H501 0.930 . S
C490 C486 1.524 . S
C490 H502 0.956 . S
C490 H503 0.961 . S
C490 H504 0.961 . S
C491 C488 1.539 . S
C491 H505 0.958 . S
C491 H506 0.961 . S
C491 H507 0.960 . S
H492 C476 0.931 . S
H493 C481 0.929 . S
H494 C482 0.960 1_545 S
H495 C482 0.962 . S
H496 C482 0.960 . S
H497 C483 0.961 . S
H498 C483 0.961 . S
H499 C483 0.961 . S
H500 C484 0.931 . S
H501 C489 0.930 . S
H502 C490 0.956 . S
H503 C490 0.961 . S
H504 C490 0.961 . S
H505 C491 0.958 . S
H506 C491 0.961 . S
H507 C491 0.960 . S
C508 C509 1.391 . S
C508 C510 1.394 . S
C508 H524 0.931 . S
C509 C508 1.391 . S
C509 C513 1.376 1_655 S
C510 C508 1.394 . S
C510 C511 1.369 . S
C510 C514 1.531 . S
C511 C510 1.369 . S
C511 C512 1.410 . S
C511 C519 1.503 . S
C512 C511 1.410 . S
C512 C513 1.392 1_655 S
C512 C515 1.511 1_655 S
C513 C509 1.376 1_455 S
C513 C512 1.392 1_455 S
C513 H525 0.929 . S
C514 C510 1.531 . S
C514 H526 0.960 . S
C514 H527 0.962 . S
C514 H528 0.960 . S
C515 C512 1.511 1_455 S
C515 H529 0.961 . S
C515 H530 0.961 1_455 S
C515 H531 0.961 . S
C516 C517 1.370 . S
C516 C518 1.363 . S
C516 H532 0.931 . S
C517 C516 1.370 . S
C517 C521 1.408 . S
C518 C516 1.363 . S
C518 C519 1.370 . S
C518 C522 1.524 . S
C519 C511 1.503 . S
C519 C518 1.370 . S
C519 C520 1.403 . S
C520 C519 1.403 . S
C520 C521 1.404 . S
C520 C523 1.539 1_655 S
C521 C517 1.408 . S
C521 C520 1.404 . S
C521 H533 0.930 . S
C522 C518 1.524 . S
C522 H534 0.956 . S
C522 H535 0.961 . S
C522 H536 0.961 . S
C523 C520 1.539 1_455 S
C523 H537 0.958 . S
C523 H538 0.961 . S
C523 H539 0.960 . S
H524 C508 0.931 . S
H525 C513 0.929 . S
H526 C514 0.960 . S
H527 C514 0.962 . S
H528 C514 0.960 . S
H529 C515 0.961 . S
H530 C515 0.961 1_655 S
H531 C515 0.961 . S
H532 C516 0.931 . S
H533 C521 0.930 . S
H534 C522 0.956 . S
H535 C522 0.961 . S
H536 C522 0.961 . S
H537 C523 0.958 . S
H538 C523 0.961 . S
H539 C523 0.960 . S
C253 C74 1.567 . S
C261 C63 1.526 . S
C285 C147 1.524 . S
C293 C158 1.546 . S
C317 C231 1.543 . S
C325 C242 1.534 . S
C349 C237 1.452 . S
C357 C67 1.557 . S
C381 C142 1.111 . S
C389 C56 1.397 . S
C413 C235 1.534 . S
C421 C153 1.448 . S
C445 C224 1.412 . S
C453 C58 0.992 . S
C477 C69 1.476 . S
C485 C151 1.556 1_565 S
C509 C226 1.110 . S
C517 C140 1.397 . S
