# Generated by pormake.
# Topology xfc, (7)-cn, num edge types: 1
# Building blocks:
#     Node 0, Type 0, BuildingBlock: HICVOG_clean_sbu_0, # of connection points: 7
#     Node 1, Type 0, BuildingBlock: HICVOG_clean_sbu_0, # of connection points: 7
#     Node 2, Type 0, BuildingBlock: HICVOG_clean_sbu_0, # of connection points: 7
#     Node 3, Type 0, BuildingBlock: HICVOG_clean_sbu_0, # of connection points: 7
#     Node 4, Type 0, BuildingBlock: HICVOG_clean_sbu_0, # of connection points: 7
#     Node 5, Type 0, BuildingBlock: HICVOG_clean_sbu_0, # of connection points: 7
#     Node 6, Type 0, BuildingBlock: HICVOG_clean_sbu_0, # of connection points: 7
#     Node 7, Type 0, BuildingBlock: HICVOG_clean_sbu_0, # of connection points: 7
#     Node 8, Type 0, BuildingBlock: HICVOG_clean_sbu_0, # of connection points: 7
#     Node 9, Type 0, BuildingBlock: HICVOG_clean_sbu_0, # of connection points: 7
#     Node 10, Type 0, BuildingBlock: HICVOG_clean_sbu_0, # of connection points: 7
#     Node 11, Type 0, BuildingBlock: HICVOG_clean_sbu_0, # of connection points: 7
#     Node 12, Type 0, BuildingBlock: HICVOG_clean_sbu_0, # of connection points: 7
#     Node 13, Type 0, BuildingBlock: HICVOG_clean_sbu_0, # of connection points: 7
#     Node 14, Type 0, BuildingBlock: HICVOG_clean_sbu_0, # of connection points: 7
#     Node 15, Type 0, BuildingBlock: HICVOG_clean_sbu_0, # of connection points: 7
#     Edge 16, Type (0, 0), BuildingBlock: XIVTED_clean_linker_0, # of connection points: 2
#     Edge 17, Type (0, 0), BuildingBlock: XIVTED_clean_linker_0, # of connection points: 2
#     Edge 18, Type (0, 0), BuildingBlock: XIVTED_clean_linker_0, # of connection points: 2
#     Edge 19, Type (0, 0), BuildingBlock: XIVTED_clean_linker_0, # of connection points: 2
#     Edge 20, Type (0, 0), BuildingBlock: XIVTED_clean_linker_0, # of connection points: 2
#     Edge 21, Type (0, 0), BuildingBlock: XIVTED_clean_linker_0, # of connection points: 2
#     Edge 22, Type (0, 0), BuildingBlock: XIVTED_clean_linker_0, # of connection points: 2
#     Edge 23, Type (0, 0), BuildingBlock: XIVTED_clean_linker_0, # of connection points: 2
#     Edge 24, Type (0, 0), BuildingBlock: XIVTED_clean_linker_0, # of connection points: 2
#     Edge 25, Type (0, 0), BuildingBlock: XIVTED_clean_linker_0, # of connection points: 2
#     Edge 26, Type (0, 0), BuildingBlock: XIVTED_clean_linker_0, # of connection points: 2
#     Edge 27, Type (0, 0), BuildingBlock: XIVTED_clean_linker_0, # of connection points: 2
#     Edge 28, Type (0, 0), BuildingBlock: XIVTED_clean_linker_0, # of connection points: 2
#     Edge 29, Type (0, 0), BuildingBlock: XIVTED_clean_linker_0, # of connection points: 2
#     Edge 30, Type (0, 0), BuildingBlock: XIVTED_clean_linker_0, # of connection points: 2
#     Edge 31, Type (0, 0), BuildingBlock: XIVTED_clean_linker_0, # of connection points: 2
#     Edge 32, Type (0, 0), BuildingBlock: XIVTED_clean_linker_0, # of connection points: 2
#     Edge 33, Type (0, 0), BuildingBlock: XIVTED_clean_linker_0, # of connection points: 2
#     Edge 34, Type (0, 0), BuildingBlock: XIVTED_clean_linker_0, # of connection points: 2
#     Edge 35, Type (0, 0), BuildingBlock: XIVTED_clean_linker_0, # of connection points: 2
#     Edge 36, Type (0, 0), BuildingBlock: XIVTED_clean_linker_0, # of connection points: 2
#     Edge 37, Type (0, 0), BuildingBlock: XIVTED_clean_linker_0, # of connection points: 2
#     Edge 38, Type (0, 0), BuildingBlock: XIVTED_clean_linker_0, # of connection points: 2
#     Edge 39, Type (0, 0), BuildingBlock: XIVTED_clean_linker_0, # of connection points: 2
#     Edge 40, Type (0, 0), BuildingBlock: XIVTED_clean_linker_0, # of connection points: 2
#     Edge 41, Type (0, 0), BuildingBlock: XIVTED_clean_linker_0, # of connection points: 2
#     Edge 42, Type (0, 0), BuildingBlock: XIVTED_clean_linker_0, # of connection points: 2
#     Edge 43, Type (0, 0), BuildingBlock: XIVTED_clean_linker_0, # of connection points: 2
#     Edge 44, Type (0, 0), BuildingBlock: XIVTED_clean_linker_0, # of connection points: 2
#     Edge 45, Type (0, 0), BuildingBlock: XIVTED_clean_linker_0, # of connection points: 2
#     Edge 46, Type (0, 0), BuildingBlock: XIVTED_clean_linker_0, # of connection points: 2
#     Edge 47, Type (0, 0), BuildingBlock: XIVTED_clean_linker_0, # of connection points: 2
#     Edge 48, Type (0, 0), BuildingBlock: XIVTED_clean_linker_0, # of connection points: 2
#     Edge 49, Type (0, 0), BuildingBlock: XIVTED_clean_linker_0, # of connection points: 2
#     Edge 50, Type (0, 0), BuildingBlock: XIVTED_clean_linker_0, # of connection points: 2
#     Edge 51, Type (0, 0), BuildingBlock: XIVTED_clean_linker_0, # of connection points: 2
#     Edge 52, Type (0, 0), BuildingBlock: XIVTED_clean_linker_0, # of connection points: 2
#     Edge 53, Type (0, 0), BuildingBlock: XIVTED_clean_linker_0, # of connection points: 2
#     Edge 54, Type (0, 0), BuildingBlock: XIVTED_clean_linker_0, # of connection points: 2
#     Edge 55, Type (0, 0), BuildingBlock: XIVTED_clean_linker_0, # of connection points: 2
#     Edge 56, Type (0, 0), BuildingBlock: XIVTED_clean_linker_0, # of connection points: 2
#     Edge 57, Type (0, 0), BuildingBlock: XIVTED_clean_linker_0, # of connection points: 2
#     Edge 58, Type (0, 0), BuildingBlock: XIVTED_clean_linker_0, # of connection points: 2
#     Edge 59, Type (0, 0), BuildingBlock: XIVTED_clean_linker_0, # of connection points: 2
#     Edge 60, Type (0, 0), BuildingBlock: XIVTED_clean_linker_0, # of connection points: 2
#     Edge 61, Type (0, 0), BuildingBlock: XIVTED_clean_linker_0, # of connection points: 2
#     Edge 62, Type (0, 0), BuildingBlock: XIVTED_clean_linker_0, # of connection points: 2
#     Edge 63, Type (0, 0), BuildingBlock: XIVTED_clean_linker_0, # of connection points: 2
#     Edge 64, Type (0, 0), BuildingBlock: XIVTED_clean_linker_0, # of connection points: 2
#     Edge 65, Type (0, 0), BuildingBlock: XIVTED_clean_linker_0, # of connection points: 2
#     Edge 66, Type (0, 0), BuildingBlock: XIVTED_clean_linker_0, # of connection points: 2
#     Edge 67, Type (0, 0), BuildingBlock: XIVTED_clean_linker_0, # of connection points: 2
#     Edge 68, Type (0, 0), BuildingBlock: XIVTED_clean_linker_0, # of connection points: 2
#     Edge 69, Type (0, 0), BuildingBlock: XIVTED_clean_linker_0, # of connection points: 2
#     Edge 70, Type (0, 0), BuildingBlock: XIVTED_clean_linker_0, # of connection points: 2
#     Edge 71, Type (0, 0), BuildingBlock: XIVTED_clean_linker_0, # of connection points: 2
# Relax obj value: 0.456
# Max RMSD: 0.250
# Mean RMSD: 0.249
data_MOF--net-xfc--node1-HICVOG_clean_sbu_0--edge1-XIVTED_clean_linker_0
_symmetry_space_group_name_H-M    P1
_symmetry_Int_Tables_number       1
_symmetry_cell_setting            triclinic
loop_
_symmetry_equiv_pos_as_xyz
'x, y, z'
_cell_length_a     42.706571
_cell_length_b     42.689883
_cell_length_c     26.478655
_cell_angle_alpha  89.926877
_cell_angle_beta   89.646678
_cell_angle_gamma 89.958324
loop_
_atom_site_label
_atom_site_type_symbol
_atom_site_fract_x
_atom_site_fract_y
_atom_site_fract_z
_atom_type_partial_charge
Zn0 Zn 0.04838 0.99901 0.28458 0.0
C1 C 0.97425 0.98004 0.37864 0.0
N2 N 0.99727 0.9696 0.40883 0.0
C3 C 0.02318 0.974 0.38079 0.0
N4 N 0.01662 0.98682 0.33537 0.0
N5 N 0.98569 0.99084 0.3338 0.0
C6 C 0.9227 0.05774 0.29406 0.0
O7 O 0.95005 0.06964 0.30595 0.0
O8 O 0.07784 0.96374 0.26559 0.0
Zn9 Zn 0.96285 1.00605 0.27393 0.0
N10 N 0.07388 0.03389 0.30812 0.0
C11 C 0.09141 0.0666 0.37491 0.0
C12 C 0.07206 0.04277 0.35732 0.0
C13 C 0.09404 0.04838 0.27542 0.0
N14 N 0.11166 0.08082 0.34254 0.0
C15 C 0.11358 0.07263 0.29291 0.0
O16 O 0.98637 0.0354 0.22578 0.0
C17 C 0.00882 0.02588 0.19795 0.0
O18 O 0.03112 0.01029 0.21687 0.0
H19 H 0.05586 0.03139 0.38281 0.0
H20 H 0.09515 0.04062 0.23656 0.0
C21 C 0.94266 0.98094 0.18576 0.0
C22 C 0.94368 0.96074 0.14452 0.0
C23 C 0.96721 0.92182 0.19602 0.0
C24 C 0.96721 0.94259 0.23669 0.0
N25 N 0.95526 0.97178 0.23021 0.0
N26 N 0.95592 0.93151 0.1507 0.0
H27 H 0.93403 1.00465 0.18187 0.0
C28 C 0.0671 0.94328 0.23544 0.0
O29 O 0.03725 0.94407 0.22413 0.0
O30 O 0.9211 0.0285 0.2853 0.0
H31 H 0.97804 0.93612 0.27202 0.0
H32 H 0.09026 0.07381 0.41402 0.0
H33 H 0.97705 0.89859 0.19992 0.0
Zn34 Zn 0.27425 0.70163 0.5415 0.0
C35 C 0.29645 0.77447 0.63221 0.0
N36 N 0.30713 0.75272 0.66426 0.0
C37 C 0.30077 0.72553 0.64092 0.0
N38 N 0.28666 0.73053 0.59554 0.0
N39 N 0.28399 0.76146 0.59034 0.0
C40 C 0.31853 0.80627 0.48089 0.0
O41 O 0.32496 0.7762 0.48268 0.0
O42 O 0.22754 0.68953 0.54072 0.0
Zn43 Zn 0.26388 0.78534 0.53505 0.0
N44 N 0.29795 0.66293 0.53853 0.0
C45 C 0.34133 0.62875 0.5491 0.0
C46 C 0.32737 0.65799 0.556 0.0
C47 C 0.28349 0.64111 0.50972 0.0
N48 N 0.32648 0.60678 0.52092 0.0
C49 C 0.29791 0.61223 0.4999 0.0
O50 O 0.25 0.76095 0.4729 0.0
C51 C 0.26446 0.73946 0.44891 0.0
O52 O 0.28127 0.7195 0.47191 0.0
H53 H 0.34018 0.67662 0.57387 0.0
H54 H 0.26147 0.64727 0.49306 0.0
C55 C 0.21226 0.82979 0.53123 0.0
C56 C 0.18748 0.84773 0.55186 0.0
C57 C 0.19596 0.82329 0.63137 0.0
C58 C 0.22016 0.8055 0.61069 0.0
N59 N 0.22816 0.80923 0.56128 0.0
N60 N 0.18033 0.84389 0.60169 0.0
H61 H 0.2193 0.83247 0.49215 0.0
C62 C 0.21702 0.6637 0.55822 0.0
O63 O 0.23447 0.64757 0.58961 0.0
O64 O 0.29434 0.81641 0.50395 0.0
H65 H 0.23258 0.78897 0.63409 0.0
H66 H 0.36438 0.62404 0.56402 0.0
H67 H 0.18957 0.82073 0.67076 0.0
Zn68 Zn 0.4895 0.01325 0.76531 0.0
C69 C 0.54557 0.05037 0.87449 0.0
N70 N 0.51782 0.05427 0.89783 0.0
C71 C 0.49718 0.04317 0.86458 0.0
N72 N 0.51146 0.03288 0.82202 0.0
N73 N 0.54208 0.0373 0.82786 0.0
C74 C 0.61077 0.97066 0.79277 0.0
O75 O 0.62386 0.98833 0.82733 0.0
O76 O 0.45652 0.04269 0.7386 0.0
Zn77 Zn 0.57239 0.02726 0.77327 0.0
N78 N 0.46722 0.97602 0.78917 0.0
C79 C 0.45673 0.94049 0.85649 0.0
C80 C 0.47388 0.96527 0.83623 0.0
C81 C 0.4443 0.96238 0.76091 0.0
N82 N 0.43373 0.92716 0.82872 0.0
C83 C 0.42691 0.93713 0.78115 0.0
O84 O 0.55497 0.03593 0.70346 0.0
C85 C 0.53502 0.01978 0.67925 0.0
O86 O 0.51531 1.00249 0.70252 0.0
H87 H 0.49211 0.97613 0.85823 0.0
H88 H 0.43919 0.97166 0.72381 0.0
C89 C 0.63454 0.03696 0.74881 0.0
C90 C 0.66468 0.05005 0.7471 0.0
C91 C 0.64561 0.09292 0.7957 0.0
C92 C 0.61563 0.07993 0.79569 0.0
N93 N 0.61117 0.05121 0.77505 0.0
N94 N 0.66931 0.07781 0.77135 0.0
H95 H 0.6287 0.01632 0.72762 0.0
C96 C 0.46336 0.06609 0.71083 0.0
O97 O 0.49289 0.07302 0.70253 0.0
O98 O 0.58621 0.9807 0.77067 0.0
H99 H 0.59616 0.09297 0.81072 0.0
H100 H 0.46154 0.93196 0.89415 0.0
H101 H 0.64978 0.11538 0.8133 0.0
Zn102 Zn 0.25305 0.22736 0.01432 0.0
C103 C 0.22262 0.28762 0.12437 0.0
N104 N 0.21816 0.26064 0.14955 0.0
C105 C 0.2274 0.2388 0.11634 0.0
N106 N 0.23694 0.2516 0.07206 0.0
N107 N 0.23411 0.28249 0.077 0.0
C108 C 0.30485 0.33033 0.99776 0.0
O109 O 0.30508 0.30309 0.97478 0.0
O110 O 0.22239 0.19352 0.99621 0.0
Zn111 Zn 0.23945 0.31353 0.0226 0.0
N112 N 0.29248 0.20685 0.03199 0.0
C113 C 0.3312 0.19813 0.09475 0.0
C114 C 0.30492 0.21415 0.07761 0.0
C115 C 0.30586 0.18437 1.00207 0.0
N116 N 0.34422 0.1755 0.06547 0.0
C117 C 0.33254 0.16806 0.01927 0.0
O118 O 0.23529 0.29719 0.95087 0.0
C119 C 0.24486 0.27383 0.92521 0.0
O120 O 0.25592 0.24941 0.94637 0.0
H121 H 0.2942 0.23193 0.10101 0.0
H122 H 0.29527 0.17865 0.96622 0.0
C123 C 0.21602 0.37491 0.02436 0.0
C124 C 0.19418 0.39919 0.03132 0.0
C125 C 0.15528 0.36083 0.05006 0.0
C126 C 0.17696 0.33699 0.04143 0.0
N127 N 0.20701 0.34463 0.02981 0.0
N128 N 0.16429 0.39115 0.04436 0.0
H129 H 0.23996 0.37942 0.01401 0.0
C130 C 0.19704 0.20279 0.97612 0.0
O131 O 0.19087 0.23294 0.97512 0.0
O132 O 0.28099 0.33796 0.02411 0.0
H133 H 0.17027 0.31268 0.04559 0.0
H134 H 0.34108 0.20346 0.13126 0.0
H135 H 0.1314 0.35532 0.06055 0.0
Zn136 Zn 0.04136 1.00485 0.72706 0.0
C137 C 0.97811 0.03619 0.62288 0.0
N138 N 1.00453 0.04151 0.59641 0.0
C139 C 0.0271 0.03181 0.62761 0.0
N140 N 0.01533 0.0211 0.67189 0.0
N141 N 0.98434 0.0236 0.66901 0.0
C142 C 0.93874 0.94906 0.74813 0.0
O143 O 0.96437 0.94985 0.77522 0.0
O144 O 0.07254 0.03765 0.74753 0.0
Zn145 Zn 0.95512 0.01445 0.72448 0.0
N146 N 0.06492 0.9682 0.70454 0.0
C147 C 0.07735 0.93245 0.63849 0.0
C148 C 0.05925 0.95694 0.65748 0.0
C149 C 0.08772 0.95537 0.734 0.0
N150 N 0.10021 0.91988 0.66752 0.0
C151 C 0.106 0.93039 0.71511 0.0
O152 O 0.97311 0.0172 0.79524 0.0
C153 C 0.997 0.00727 0.81887 0.0
O154 O 0.02098 0.99686 0.79545 0.0
H155 H 0.04106 0.96712 0.63453 0.0
H156 H 0.09198 0.96506 0.77107 0.0
C157 C 0.89425 0.03242 0.74334 0.0
C158 C 0.86851 0.052 0.75178 0.0
C159 C 0.8982 0.09475 0.71923 0.0
C160 C 0.92443 0.07541 0.71467 0.0
N161 N 0.92161 0.04449 0.72594 0.0
N162 N 0.87115 0.08279 0.73856 0.0
H163 H 0.89326 0.00789 0.75246 0.0
C164 C 0.06131 0.06185 0.76896 0.0
O165 O 0.03079 0.06573 0.77013 0.0
O166 O 0.93268 0.97197 0.71894 0.0
H167 H 0.94662 0.08477 0.7018 0.0
H168 H 0.07331 0.92351 0.60087 0.0
H169 H 0.89965 0.1193 0.70936 0.0
Zn170 Zn 0.25062 0.6966 0.97344 0.0
C171 C 0.23066 0.77002 0.88014 0.0
N172 N 0.21986 0.74779 0.84928 0.0
C173 C 0.22528 0.72115 0.87488 0.0
N174 N 0.23889 0.72687 0.92029 0.0
N175 N 0.24183 0.75782 0.9235 0.0
C176 C 0.20274 0.8066 0.01775 0.0
O177 O 0.19742 0.77628 0.0176 0.0
O178 O 0.29439 0.6768 0.96653 0.0
Zn179 Zn 0.25897 0.78356 0.97746 0.0
N180 N 0.22258 0.66108 0.97401 0.0
C181 C 0.17243 0.63712 0.97477 0.0
C182 C 0.19107 0.66373 0.96933 0.0
C183 C 0.23602 0.63333 0.98661 0.0
N184 N 0.18577 0.60982 0.99002 0.0
C185 C 0.21723 0.60719 0.99762 0.0
O186 O 0.26478 0.76298 0.0454 0.0
C187 C 0.25757 0.73792 0.06874 0.0
O188 O 0.24917 0.7133 0.04534 0.0
H189 H 0.18055 0.68636 0.96254 0.0
H190 H 0.26098 0.63253 0.99127 0.0
C191 C 0.31107 0.82691 0.98152 0.0
C192 C 0.33738 0.84267 0.96152 0.0
C193 C 0.33436 0.81118 0.88778 0.0
C194 C 0.30855 0.79553 0.90789 0.0
N195 N 0.29716 0.80385 0.95402 0.0
N196 N 0.34806 0.83431 0.91487 0.0
H197 H 0.30124 0.83329 0.01784 0.0
C198 C 0.31703 0.68541 0.99439 0.0
O199 O 0.3151 0.71249 0.01762 0.0
O200 O 0.2278 0.81684 0.99744 0.0
H201 H 0.29745 0.77717 0.88646 0.0
H202 H 0.14733 0.6386 0.97003 0.0
H203 H 0.34343 0.80506 0.85085 0.0
Zn204 Zn 0.47093 1.00475 0.2171 0.0
C205 C 0.54478 0.98122 0.12434 0.0
N206 N 0.52123 0.97107 0.09504 0.0
C207 C 0.49563 0.97711 0.12286 0.0
N208 N 0.50272 0.99058 0.1674 0.0
N209 N 0.53379 0.99352 0.16853 0.0
C210 C 0.59786 0.05926 0.20701 0.0
O211 O 0.57106 0.07148 0.1928 0.0
O212 O 0.44045 0.97036 0.23788 0.0
Zn213 Zn 0.5564 0.00931 0.22778 0.0
N214 N 0.44688 0.04009 0.1906 0.0
C215 C 0.43282 0.07221 0.12079 0.0
C216 C 0.45042 0.04786 0.1411 0.0
C217 C 0.42662 0.05627 0.22104 0.0
N218 N 0.41258 0.08818 0.15091 0.0
C219 C 0.40888 0.08122 0.20081 0.0
O220 O 0.53331 0.04095 0.27249 0.0
C221 C 0.51098 0.03259 0.30153 0.0
O222 O 0.48827 0.01694 0.28421 0.0
H223 H 0.46673 0.03524 0.11741 0.0
H224 H 0.42411 0.04934 0.26016 0.0
C225 C 0.57399 0.98591 0.31843 0.0
C226 C 0.57242 0.96648 0.36064 0.0
C227 C 0.54982 0.92659 0.31014 0.0
C228 C 0.55057 0.94657 0.26837 0.0
N229 N 0.56223 0.97592 0.27396 0.0
N230 N 0.56036 0.93712 0.35542 0.0
H231 H 0.58265 0.00964 0.32125 0.0
C232 C 0.45098 0.94999 0.26854 0.0
O233 O 0.48079 0.95071 0.28014 0.0
O234 O 0.59878 0.03008 0.21661 0.0
H235 H 0.54064 0.93936 0.23274 0.0
H236 H 0.43527 0.07848 0.08136 0.0
H237 H 0.54016 0.90326 0.30699 0.0
Zn238 Zn 0.25779 0.22209 0.46644 0.0
C239 C 0.28236 0.29694 0.37773 0.0
N240 N 0.29096 0.27404 0.34557 0.0
C241 C 0.2837 0.24774 0.37076 0.0
N242 N 0.27078 0.25396 0.41639 0.0
N243 N 0.26966 0.28502 0.42092 0.0
C244 C 0.21745 0.35704 0.46119 0.0
O245 O 0.20491 0.33458 0.43412 0.0
O246 O 0.29533 0.19668 0.49054 0.0
Zn247 Zn 0.25705 0.3056 0.48426 0.0
N248 N 0.22619 0.19361 0.43861 0.0
C249 C 0.19733 0.17359 0.36904 0.0
C250 C 0.21899 0.19467 0.3887 0.0
C251 C 0.21138 0.17295 0.47004 0.0
N252 N 0.18311 0.15265 0.40023 0.0
C253 C 0.18924 0.15176 0.45062 0.0
O254 O 0.21993 0.28625 0.5209 0.0
C255 C 0.22426 0.26223 0.54838 0.0
O256 O 0.24009 0.23935 0.53144 0.0
H257 H 0.22974 0.21182 0.36427 0.0
H258 H 0.21689 0.17295 0.50968 0.0
C259 C 0.28312 0.31017 0.57896 0.0
C260 C 0.30047 0.29956 0.62035 0.0
C261 C 0.33107 0.26813 0.56463 0.0
C262 C 0.31319 0.27827 0.52393 0.0
N263 N 0.28953 0.29895 0.53221 0.0
N264 N 0.3242 0.27882 0.61172 0.0
H265 H 0.26331 0.32562 0.58346 0.0
C266 C 0.29218 0.18212 0.53227 0.0
O267 O 0.26522 0.18348 0.55606 0.0
O268 O 0.24376 0.35177 0.48196 0.0
H269 H 0.3172 0.26868 0.4867 0.0
H270 H 0.19162 0.1741 0.32931 0.0
H271 H 0.34978 0.25136 0.55909 0.0
Zn272 Zn 0.74005 0.19571 0.47932 0.0
C273 C 0.73046 0.27194 0.38978 0.0
N274 N 0.72119 0.25128 0.35492 0.0
C275 C 0.72465 0.2235 0.37818 0.0
N276 N 0.73575 0.22703 0.42585 0.0
N277 N 0.73913 0.25764 0.43301 0.0
C278 C 0.70337 0.30462 0.54813 0.0
O279 O 0.69575 0.27511 0.55466 0.0
O280 O 0.78392 0.17576 0.48712 0.0
Zn281 Zn 0.75655 0.27875 0.49169 0.0
N282 N 0.71083 0.16185 0.46612 0.0
C283 C 0.65976 0.14165 0.45275 0.0
C284 C 0.67979 0.16712 0.45927 0.0
C285 C 0.72256 0.1323 0.46604 0.0
N286 N 0.67123 0.11209 0.45769 0.0
C287 C 0.7023 0.10644 0.46537 0.0
O288 O 0.76675 0.25067 0.55113 0.0
C289 C 0.74857 0.23159 0.57388 0.0
O290 O 0.73065 0.21326 0.54938 0.0
H291 H 0.67082 0.19082 0.4586 0.0
H292 H 0.74736 0.12936 0.46901 0.0
C293 C 0.80654 0.32435 0.49975 0.0
C294 C 0.83238 0.34161 0.48152 0.0
C295 C 0.83245 0.31073 0.40692 0.0
C296 C 0.807 0.29369 0.42514 0.0
N297 N 0.79425 0.301 0.4708 0.0
N298 N 0.8444 0.33425 0.43527 0.0
H299 H 0.79581 0.32986 0.53579 0.0
C300 C 0.78657 0.15864 0.52662 0.0
O301 O 0.76252 0.15652 0.5576 0.0
O302 O 0.7269 0.31144 0.52049 0.0
H303 H 0.79725 0.27502 0.40269 0.0
H304 H 0.63501 0.14532 0.44657 0.0
H305 H 0.84261 0.3054 0.37039 0.0
Zn306 Zn 0.75539 0.72142 0.96937 0.0
C307 C 0.7834 0.78838 0.86731 0.0
N308 N 0.7878 0.76261 0.83907 0.0
C309 C 0.77863 0.7392 0.86944 0.0
N310 N 0.76883 0.7499 0.91488 0.0
N311 N 0.77129 0.78101 0.91351 0.0
C312 C 0.73401 0.86025 0.0132 0.0
O313 O 0.75735 0.85567 0.04444 0.0
O314 O 0.79 0.69161 0.99008 0.0
Zn315 Zn 0.76866 0.8102 0.97115 0.0
N316 N 0.72063 0.69564 0.94676 0.0
C317 C 0.68537 0.67996 0.88232 0.0
C318 C 0.70875 0.69988 0.89972 0.0
C319 C 0.70947 0.67261 0.97767 0.0
N320 N 0.67434 0.65694 0.91299 0.0
C321 C 0.68549 0.65266 0.96059 0.0
O322 O 0.76257 0.7894 0.03883 0.0
C323 C 0.75169 0.7653 0.06099 0.0
O324 O 0.7445 0.74059 0.03693 0.0
H325 H 0.71747 0.71838 0.87566 0.0
H326 H 0.71963 0.66965 0.01471 0.0
C327 C 0.81299 0.86027 0.95652 0.0
C328 C 0.84357 0.8719 0.95173 0.0
C329 C 0.86354 0.8231 0.98055 0.0
C330 C 0.83321 0.81168 0.98515 0.0
N331 N 0.80868 0.83029 0.97257 0.0
N332 N 0.86798 0.85282 0.96401 0.0
H333 H 0.79296 0.87439 0.94625 0.0
C334 C 0.81164 0.70311 0.01711 0.0
O335 O 0.81237 0.73351 0.02402 0.0
O336 O 0.73342 0.84402 0.9725 0.0
H337 H 0.82919 0.78782 0.99685 0.0
H338 H 0.67595 0.68283 0.84476 0.0
H339 H 0.88341 0.80847 0.9897 0.0
Zn340 Zn 0.76896 0.20353 0.05074 0.0
C341 C 0.79442 0.27974 0.1328 0.0
N342 N 0.80349 0.25856 0.16695 0.0
C343 C 0.79539 0.231 0.14618 0.0
N344 N 0.78143 0.23523 0.10052 0.0
N345 N 0.78123 0.26602 0.09235 0.0
C346 C 0.814 0.31416 0.97354 0.0
O347 O 0.81256 0.28532 0.95662 0.0
O348 O 0.72655 0.18219 0.0622 0.0
Zn349 Zn 0.76411 0.29111 0.03719 0.0
N350 N 0.7986 0.16966 0.05004 0.0
C351 C 0.84888 0.14628 0.05602 0.0
C352 C 0.82967 0.17264 0.05953 0.0
C353 C 0.78622 0.14195 0.03523 0.0
N354 N 0.83665 0.11886 0.03913 0.0
C355 C 0.80571 0.11599 0.0275 0.0
O356 O 0.75179 0.26802 0.97408 0.0
C357 C 0.75676 0.24175 0.95287 0.0
O358 O 0.7664 0.21804 0.97754 0.0
H359 H 0.83934 0.19513 0.06978 0.0
H360 H 0.76156 0.14088 0.02734 0.0
C361 C 0.71477 0.33768 0.03334 0.0
C362 C 0.6905 0.35628 0.0538 0.0
C363 C 0.69551 0.32913 0.13174 0.0
C364 C 0.71922 0.31063 0.11117 0.0
N365 N 0.72868 0.3154 0.06264 0.0
N366 N 0.68182 0.35142 0.10277 0.0
H367 H 0.72305 0.34119 0.99505 0.0
C368 C 0.70264 0.19209 0.03856 0.0
O369 O 0.70306 0.22074 0.02045 0.0
O370 O 0.7966 0.32219 0.01061 0.0
H371 H 0.73018 0.29283 0.13406 0.0
H372 H 0.87357 0.14792 0.0645 0.0
H373 H 0.68802 0.32582 0.17049 0.0
Zn374 Zn 0.75747 0.72603 0.53284 0.0
C375 C 0.73297 0.79376 0.63592 0.0
N376 N 0.72751 0.7681 0.66403 0.0
C377 C 0.73553 0.74452 0.63324 0.0
N378 N 0.74536 0.75493 0.58765 0.0
N379 N 0.7442 0.78609 0.58926 0.0
C380 C 0.79437 0.86973 0.54168 0.0
O381 O 0.78213 0.88013 0.58408 0.0
O382 O 0.72278 0.69504 0.51654 0.0
Zn383 Zn 0.74572 0.8146 0.53104 0.0
N384 N 0.79402 0.70147 0.55281 0.0
C385 C 0.82942 0.6854 0.61698 0.0
C386 C 0.80507 0.70452 0.60061 0.0
C387 C 0.80714 0.68051 0.52006 0.0
N388 N 0.84232 0.66441 0.58457 0.0
C389 C 0.83217 0.66142 0.53616 0.0
O390 O 0.74633 0.79343 0.46326 0.0
C391 C 0.75592 0.7691 0.44026 0.0
O392 O 0.76481 0.74472 0.4638 0.0
H393 H 0.79494 0.72143 0.62614 0.0
H394 H 0.79774 0.6784 0.48236 0.0
C395 C 0.70374 0.86683 0.54769 0.0
C396 C 0.67377 0.8792 0.5565 0.0
C397 C 0.65143 0.8298 0.53657 0.0
C398 C 0.68117 0.81766 0.52796 0.0
N399 N 0.70663 0.83627 0.5342 0.0
N400 N 0.64844 0.86017 0.55058 0.0
H401 H 0.72443 0.88099 0.55261 0.0
C402 C 0.69922 0.70501 0.49202 0.0
O403 O 0.69632 0.73527 0.48445 0.0
O404 O 0.78319 0.84508 0.52138 0.0
H405 H 0.68415 0.79326 0.51828 0.0
H406 H 0.8381 0.68728 0.65516 0.0
H407 H 0.63089 0.81522 0.53253 0.0
Zn408 Zn 0.54529 0.50821 0.79452 0.0
C409 C 0.47854 0.47713 0.89522 0.0
N410 N 0.50425 0.47269 0.92332 0.0
C411 C 0.52752 0.48313 0.89362 0.0
N412 N 0.51685 0.49364 0.84873 0.0
N413 N 0.48586 0.49026 0.84985 0.0
C414 C 0.42849 0.55028 0.78951 0.0
O415 O 0.45852 0.55703 0.7895 0.0
O416 O 0.57545 0.47304 0.77397 0.0
Zn417 Zn 0.45738 0.49074 0.79249 0.0
N418 N 0.56943 0.54462 0.81819 0.0
C419 C 0.58608 0.57696 0.88629 0.0
C420 C 0.56733 0.55296 0.86768 0.0
C421 C 0.58865 0.56074 0.78603 0.0
N422 N 0.60604 0.59211 0.85459 0.0
C423 C 0.60785 0.58489 0.80461 0.0
O424 O 0.4765 0.50167 0.72529 0.0
C425 C 0.50048 0.51309 0.70351 0.0
O426 O 0.5256 0.5186 0.72737 0.0
H427 H 0.55131 0.54112 0.89281 0.0
H428 H 0.58939 0.5546 0.74663 0.0
C429 C 0.41451 0.43875 0.8002 0.0
C430 C 0.40828 0.40652 0.80409 0.0
C431 C 0.46106 0.39555 0.78112 0.0
C432 C 0.46713 0.42745 0.77761 0.0
N433 N 0.44386 0.44828 0.78753 0.0
N434 N 0.43192 0.38589 0.79431 0.0
H435 H 0.39689 0.45609 0.80927 0.0
C436 C 0.59134 0.47687 0.73354 0.0
O437 O 0.5888 0.50341 0.709 0.0
O438 O 0.4205 0.52181 0.79636 0.0
H439 H 0.49049 0.43572 0.76888 0.0
H440 H 0.58484 0.58348 0.92572 0.0
H441 H 0.47938 0.37859 0.77396 0.0
Zn442 Zn 0.98789 0.52125 0.26243 0.0
C443 C 0.04673 0.55115 0.37257 0.0
N444 N 0.01974 0.55568 0.39783 0.0
C445 C 0.99801 0.54591 0.36516 0.0
N446 N 0.01092 0.53636 0.32104 0.0
N447 N 0.04178 0.53927 0.32567 0.0
C448 C 0.10685 0.48364 0.22285 0.0
O449 O 0.11048 0.50793 0.1929 0.0
O450 O 0.94932 0.54727 0.24811 0.0
Zn451 Zn 0.07327 0.53236 0.27172 0.0
N452 N 0.9771 0.47751 0.27006 0.0
C453 C 0.99224 0.42696 0.29882 0.0
C454 C 0.99727 0.45917 0.29637 0.0
C455 C 0.9517 0.46502 0.24652 0.0
N456 N 0.96741 0.41436 0.27439 0.0
C457 C 0.94679 0.43248 0.24836 0.0
O458 O 0.05896 0.54453 0.20098 0.0
C459 C 0.03489 0.53727 0.17544 0.0
O460 O 0.0103 0.52664 0.19641 0.0
H461 H 0.01748 0.46945 0.31433 0.0
H462 H 0.93632 0.48006 0.22497 0.0
C463 C 0.13796 0.54435 0.28565 0.0
C464 C 0.16507 0.56274 0.28136 0.0
C465 C 0.13342 0.6082 0.29248 0.0
C466 C 0.10653 0.5899 0.28879 0.0
N467 N 0.10938 0.55829 0.28562 0.0
N468 N 0.16188 0.59439 0.28664 0.0
H469 H 0.1392 0.51924 0.28498 0.0
C470 C 0.95597 0.57436 0.23096 0.0
O471 O 0.98526 0.58376 0.23211 0.0
O472 O 0.08988 0.48692 0.26259 0.0
H473 H 0.0836 0.60068 0.28827 0.0
H474 H 0.00824 0.412 0.31924 0.0
H475 H 0.13168 0.63337 0.29619 0.0
Zn476 Zn 0.45671 0.52408 0.23536 0.0
C477 C 0.52902 0.53085 0.13675 0.0
N478 N 0.50713 0.54149 0.10494 0.0
C479 C 0.48046 0.53908 0.13184 0.0
N480 N 0.48591 0.52714 0.17859 0.0
N481 N 0.5166 0.52253 0.18184 0.0
C482 C 0.55998 0.56592 0.28524 0.0
O483 O 0.53055 0.57357 0.27807 0.0
O484 O 0.43268 0.48202 0.24619 0.0
Zn485 Zn 0.54028 0.50696 0.24009 0.0
N486 N 0.42554 0.55599 0.22649 0.0
C487 C 0.41014 0.6093 0.22211 0.0
C488 C 0.43355 0.58675 0.22644 0.0
C489 C 0.39523 0.5468 0.22317 0.0
N490 N 0.3797 0.60012 0.22277 0.0
C491 C 0.37129 0.5693 0.22454 0.0
O492 O 0.51395 0.49535 0.30137 0.0
C493 C 0.49663 0.51474 0.32519 0.0
O494 O 0.47778 0.53268 0.30189 0.0
H495 H 0.45788 0.59354 0.22902 0.0
H496 H 0.39015 0.52214 0.22215 0.0
C497 C 0.58843 0.45908 0.24956 0.0
C498 C 0.60758 0.43445 0.2317 0.0
C499 C 0.57972 0.43501 0.1543 0.0
C500 C 0.56062 0.45898 0.17237 0.0
N501 N 0.56557 0.47099 0.21919 0.0
N502 N 0.60264 0.42341 0.18419 0.0
H503 H 0.59197 0.4691 0.2866 0.0
C504 C 0.41802 0.4805 0.28853 0.0
O505 O 0.42029 0.50429 0.31967 0.0
O506 O 0.5699 0.5397 0.26875 0.0
H507 H 0.54217 0.46809 0.14887 0.0
H508 H 0.41599 0.63393 0.22082 0.0
H509 H 0.57633 0.42561 0.11681 0.0
Zn510 Zn 0.06644 0.50658 0.70299 0.0
C511 C 0.99165 0.47814 0.62069 0.0
N512 N 0.0133 0.46921 0.58701 0.0
C513 C 0.04048 0.47776 0.60836 0.0
N514 N 0.03544 0.49182 0.65397 0.0
N515 N 1.00449 0.49187 0.66147 0.0
C516 C 0.95624 0.46156 0.78672 0.0
O517 O 0.98303 0.46803 0.80832 0.0
O518 O 0.08997 0.54642 0.68465 0.0
Zn519 Zn 0.97798 0.50904 0.71638 0.0
N520 N 0.09887 0.47665 0.71521 0.0
C521 C 0.12534 0.42782 0.71713 0.0
C522 C 0.09969 0.44588 0.7024 0.0
C523 C 0.12181 0.48986 0.74311 0.0
N524 N 0.14775 0.44087 0.74673 0.0
C525 C 0.14649 0.47155 0.761 0.0
O526 O 0.99976 0.52564 0.77812 0.0
C527 C 0.02666 0.52468 0.79822 0.0
O528 O 0.05062 0.51585 0.77348 0.0
H529 H 0.08081 0.43557 0.68108 0.0
H530 H 0.11981 0.51435 0.7526 0.0
C531 C 0.9296 0.55629 0.72211 0.0
C532 C 0.90943 0.57967 0.70309 0.0
C533 C 0.9332 0.5737 0.62221 0.0
C534 C 0.95333 0.55099 0.64143 0.0
N535 N 0.95095 0.54237 0.69073 0.0
N536 N 0.91185 0.5874 0.65329 0.0
H537 H 0.92816 0.5488 0.76109 0.0
C538 C 0.08054 0.57176 0.70484 0.0
O539 O 0.05124 0.57353 0.72 0.0
O540 O 0.94929 0.47499 0.74524 0.0
H541 H 0.97061 0.54026 0.61706 0.0
H542 H 0.12686 0.40337 0.70673 0.0
H543 H 0.93458 0.5805 0.58288 0.0
H544 H 0.04449 0.98991 0.88223 0.0
H545 H 0.96108 0.04917 0.13768 0.0
H546 H 0.95192 0.03064 0.8841 0.0
H547 H 0.05294 1.00712 0.12945 0.0
H548 H 0.95727 0.04496 0.04529 0.0
H549 H 0.04743 0.99711 0.97322 0.0
C550 C 0.02464 1.00023 0.90172 0.0
C551 C 0.99791 0.00965 0.87506 0.0
C552 C 0.97835 0.03696 0.06382 0.0
C553 C 1.00131 0.01838 0.98023 0.0
C554 C 0.9806 0.03948 0.11659 0.0
C555 C 0.00729 0.0283 0.14178 0.0
C556 C 1.00299 0.02327 0.03601 0.0
C557 C 0.03179 0.01594 0.11215 0.0
C558 C 0.0264 1.00448 0.9539 0.0
C559 C 0.97303 0.02299 0.90288 0.0
N560 N 0.02895 0.01362 0.06124 0.0
N561 N 0.97536 0.02702 0.95384 0.0
H562 H 0.27755 0.68981 0.38643 0.0
H563 H 0.25809 0.7885 0.13201 0.0
H564 H 0.24702 0.7862 0.38377 0.0
H565 H 0.25878 0.68739 0.1336 0.0
H566 H 0.25899 0.78846 0.22421 0.0
H567 H 0.2754 0.68877 0.29394 0.0
C568 C 0.2704 0.71077 0.36643 0.0
C569 C 0.26246 0.73817 0.39297 0.0
C570 C 0.2589 0.76627 0.20444 0.0
C571 C 0.26025 0.73716 0.28706 0.0
C572 C 0.25856 0.76625 0.15171 0.0
C573 C 0.25841 0.73789 0.12485 0.0
C574 C 0.25951 0.73773 0.23085 0.0
C575 C 0.25879 0.70981 0.15266 0.0
C576 C 0.26909 0.7101 0.31364 0.0
C577 C 0.25321 0.76453 0.36499 0.0
N578 N 0.2595 0.71044 0.20411 0.0
N579 N 0.25258 0.76343 0.31364 0.0
H580 H 0.46881 0.01315 0.37256 0.0
H581 H 0.57594 0.0491 0.61315 0.0
H582 H 0.55872 0.05869 0.35881 0.0
H583 H 0.48905 0.99754 0.61739 0.0
H584 H 0.57008 0.0553 0.52139 0.0
H585 H 0.47519 0.01115 0.46335 0.0
C586 C 0.48985 0.02311 0.38857 0.0
C587 C 0.51337 0.03592 0.35746 0.0
C588 C 0.55232 0.0427 0.54253 0.0
C589 C 0.52098 0.03335 0.46281 0.0
C590 C 0.55567 0.03906 0.59491 0.0
C591 C 0.53295 0.02274 0.62329 0.0
C592 C 0.52595 0.03015 0.51835 0.0
C593 C 0.50726 0.01019 0.59739 0.0
C594 C 0.49354 0.02177 0.44075 0.0
C595 C 0.53999 0.04848 0.38109 0.0
N596 N 0.50448 0.01424 0.54671 0.0
N597 N 0.54319 0.04669 0.43233 0.0
H598 H 0.22716 0.21394 0.61574 0.0
H599 H 0.22801 0.32273 0.86229 0.0
H600 H 0.20879 0.31322 0.60875 0.0
H601 H 0.25156 0.22437 0.86034 0.0
H602 H 0.21818 0.32029 0.77102 0.0
H603 H 0.23107 0.21747 0.70692 0.0
C604 C 0.22365 0.23653 0.63334 0.0
C605 C 0.21854 0.26346 0.60399 0.0
C606 C 0.22543 0.29928 0.79071 0.0
C607 C 0.2231 0.26774 0.70961 0.0
C608 C 0.23119 0.30065 0.8428 0.0
C609 C 0.24067 0.2737 0.86933 0.0
C610 C 0.2289 0.27069 0.76497 0.0
C611 C 0.24445 0.24582 0.84181 0.0
C612 C 0.22601 0.23855 0.6857 0.0
C613 C 0.21322 0.29187 0.6296 0.0
N614 N 0.23847 0.24508 0.79148 0.0
N615 N 0.21608 0.29337 0.6809 0.0
H616 H 0.75384 0.28999 0.88532 0.0
H617 H 0.72831 0.18531 0.6392 0.0
H618 H 0.75161 0.18898 0.89332 0.0
H619 H 0.76714 0.27862 0.63632 0.0
H620 H 0.72881 0.18684 0.73211 0.0
H621 H 0.75025 0.28686 0.79369 0.0
C622 C 0.75234 0.2671 0.86789 0.0
C623 C 0.7531 0.23968 0.89723 0.0
C624 C 0.73722 0.20689 0.71095 0.0
C625 C 0.74893 0.236 0.79176 0.0
C626 C 0.73685 0.2061 0.65802 0.0
C627 C 0.74792 0.23179 0.62991 0.0
C628 C 0.7481 0.23381 0.73578 0.0
C629 C 0.75869 0.25813 0.65632 0.0
C630 C 0.75047 0.26535 0.81544 0.0
C631 C 0.75127 0.21071 0.87219 0.0
N632 N 0.75836 0.2585 0.7076 0.0
N633 N 0.74918 0.20961 0.82085 0.0
H634 H 0.74529 0.71499 0.12495 0.0
H635 H 0.74876 0.81899 0.37621 0.0
H636 H 0.75369 0.81577 0.12469 0.0
H637 H 0.76156 0.71863 0.37655 0.0
H638 H 0.74597 0.81795 0.28419 0.0
H639 H 0.74596 0.71562 0.21739 0.0
C640 C 0.74694 0.73727 0.14426 0.0
C641 C 0.74947 0.76539 0.11689 0.0
C642 C 0.74948 0.79616 0.30437 0.0
C643 C 0.75042 0.76621 0.22269 0.0
C644 C 0.75107 0.79672 0.35697 0.0
C645 C 0.75553 0.76886 0.38427 0.0
C646 C 0.75205 0.76751 0.27866 0.0
C647 C 0.75834 0.74072 0.35712 0.0
C648 C 0.74755 0.73758 0.19704 0.0
C649 C 0.75182 0.79352 0.14406 0.0
N650 N 0.75643 0.74075 0.30585 0.0
N651 N 0.75223 0.7932 0.19536 0.0
H652 H 0.54346 0.49409 0.38711 0.0
H653 H 0.44911 0.51898 0.64272 0.0
H654 H 0.45286 0.53898 0.39034 0.0
H655 H 0.55012 0.51728 0.63764 0.0
H656 H 0.44844 0.52137 0.55029 0.0
H657 H 0.54492 0.49673 0.47953 0.0
C658 C 0.52383 0.50435 0.40723 0.0
C659 C 0.49789 0.5161 0.38098 0.0
C660 C 0.47073 0.52071 0.56955 0.0
C661 C 0.49937 0.51903 0.4865 0.0
C662 C 0.47115 0.5193 0.62225 0.0
C663 C 0.49975 0.51777 0.64806 0.0
C664 C 0.49906 0.51992 0.54242 0.0
C665 C 0.52757 0.5184 0.6195 0.0
C666 C 0.52478 0.50604 0.45988 0.0
C667 C 0.47326 0.5295 0.409 0.0
N668 N 0.52654 0.51901 0.5682 0.0
N669 N 0.47446 0.53032 0.46027 0.0
H670 H 0.98405 0.54212 0.11444 0.0
H671 H 0.08005 0.52574 0.85613 0.0
H672 H 0.08509 0.5411 0.10933 0.0
H673 H 0.98006 0.53994 0.86536 0.0
H674 H 0.08335 0.53328 0.94768 0.0
H675 H 0.98303 0.54341 0.02268 0.0
C676 C 1.00611 0.54229 0.09399 0.0
C677 C 0.03473 0.54117 0.11976 0.0
C678 C 0.06075 0.53503 0.92954 0.0
C679 C 0.0337 0.54245 0.0139 0.0
C680 C 0.05883 0.53071 0.87723 0.0
C681 C 0.02968 0.53199 0.85284 0.0
C682 C 0.03332 0.54048 0.95776 0.0
C683 C 1.00303 0.5386 0.88229 0.0
C684 C 1.0055 0.54311 0.04142 0.0
C685 C 0.06251 0.54186 0.09105 0.0
N686 N 1.00549 0.54234 0.93305 0.0
N687 N 0.06131 0.5421 0.03959 0.0
H688 H 0.18017 0.20533 0.07559 0.0
H689 H 0.17034 0.09742 0.31755 0.0
H690 H 0.25393 0.19983 0.18496 0.0
H691 H 0.10706 0.08822 0.19201 0.0
H692 H 0.20412 0.13072 0.26559 0.0
H693 H 0.15679 0.15792 0.11109 0.0
C694 C 0.19252 0.19296 0.10504 0.0
C695 C 0.21989 0.20558 0.12564 0.0
C696 C 0.18305 0.12114 0.24913 0.0
C697 C 0.19172 0.15283 0.16989 0.0
C698 C 0.16368 0.10214 0.27886 0.0
C699 C 0.13573 0.08993 0.25927 0.0
C700 C 0.17416 0.12876 0.19961 0.0
C701 C 0.12846 0.09678 0.20873 0.0
C702 C 0.17871 0.1663 0.12632 0.0
C703 C 0.23336 0.19022 0.16701 0.0
N704 N 0.14729 0.11609 0.18096 0.0
N705 N 0.21894 0.16492 0.18822 0.0
H706 H 0.05718 0.92704 0.33765 0.0
H707 H 0.15927 0.90121 0.5851 0.0
H708 H 0.05597 0.98987 0.46443 0.0
H709 H 0.17182 0.8459 0.45018 0.0
H710 H 0.1241 0.93583 0.53911 0.0
H711 H 0.1022 0.89968 0.37425 0.0
C712 C 0.06743 0.93599 0.37198 0.0
C713 C 0.05385 0.9616 0.39691 0.0
C714 C 0.13477 0.91635 0.51927 0.0
C715 C 0.10389 0.92912 0.44112 0.0
C716 C 0.15486 0.89645 0.54563 0.0
C717 C 0.16869 0.87048 0.52168 0.0
C718 C 0.12785 0.91017 0.46847 0.0
C719 C 0.1621 0.86574 0.47026 0.0
C720 C 0.0927 0.91997 0.39351 0.0
C721 C 0.06633 0.97068 0.44349 0.0
N722 N 0.14192 0.88517 0.44558 0.0
N723 N 0.09049 0.95439 0.4642 0.0
H724 H 0.33851 0.80897 0.5788 0.0
H725 H 0.37364 0.91124 0.81981 0.0
H726 H 0.27712 0.81267 0.70797 0.0
H727 H 0.42268 0.92489 0.67855 0.0
H728 H 0.33525 0.87889 0.77641 0.0
H729 H 0.36546 0.8558 0.60903 0.0
C730 C 0.32943 0.82082 0.61184 0.0
C731 C 0.30467 0.80771 0.63969 0.0
C732 C 0.35407 0.88932 0.7546 0.0
C733 C 0.33711 0.85985 0.67714 0.0
C734 C 0.37615 0.90775 0.77946 0.0
C735 C 0.40157 0.92085 0.75294 0.0
C736 C 0.35758 0.88327 0.70272 0.0
C737 C 0.4034 0.91555 0.70058 0.0
C738 C 0.34537 0.84715 0.62992 0.0
C739 C 0.29561 0.82254 0.68471 0.0
N740 N 0.382 0.89681 0.67737 0.0
N741 N 0.31206 0.84748 0.70239 0.0
H742 H 0.35891 0.1145 0.05501 0.0
H743 H 0.46202 0.08501 0.81235 0.0
H744 H 0.34353 0.16499 0.91616 0.0
H745 H 0.45847 0.02101 0.93781 0.0
H746 H 0.41421 0.11025 0.84337 0.0
H747 H 0.39137 0.07694 0.00916 0.0
C748 C 0.36204 0.11746 0.01463 0.0
C749 C 0.34848 0.14304 0.98949 0.0
C750 C 0.42312 0.08995 0.8632 0.0
C751 C 0.38635 0.10018 0.93653 0.0
C752 C 0.45005 0.075 0.84465 0.0
C753 C 0.46352 0.05004 0.87134 0.0
C754 C 0.41021 0.08054 0.90978 0.0
C755 C 0.44839 0.03969 0.91544 0.0
C756 C 0.38056 0.0959 0.98837 0.0
C757 C 0.35331 0.14555 0.93707 0.0
N758 N 0.42289 0.05526 0.93369 0.0
N759 N 0.37227 0.12471 0.91249 0.0
H760 H 0.25963 0.81063 0.81592 0.0
H761 H 0.16012 0.90451 0.67977 0.0
H762 H 0.18119 0.80202 0.91771 0.0
H763 H 0.1085 0.91952 0.81818 0.0
H764 H 0.19764 0.87275 0.72566 0.0
H765 H 0.23556 0.85741 0.77913 0.0
C766 C 0.2379 0.81941 0.83184 0.0
C767 C 0.2228 0.8031 0.87092 0.0
C768 C 0.17878 0.88367 0.74662 0.0
C769 C 0.19377 0.85514 0.82667 0.0
C770 C 0.15701 0.90162 0.72012 0.0
C771 C 0.13104 0.91483 0.74499 0.0
C772 C 0.1745 0.87842 0.79864 0.0
C773 C 0.1283 0.91018 0.7974 0.0
C774 C 0.22373 0.8457 0.81007 0.0
C775 C 0.19415 0.81471 0.88902 0.0
N776 N 0.14943 0.89193 0.82224 0.0
N777 N 0.18041 0.83981 0.86646 0.0
H778 H 0.46186 0.93161 0.16935 0.0
H779 H 0.36663 0.89381 0.92183 0.0
H780 H 0.46242 0.9918 0.03901 0.0
H781 H 0.3472 0.84832 0.06426 0.0
H782 H 0.39939 0.93176 0.9656 0.0
H783 H 0.41691 0.90344 0.13489 0.0
C784 C 0.45135 0.93993 0.13478 0.0
C785 C 0.46474 0.96498 0.10819 0.0
C786 C 0.38759 0.9138 0.98749 0.0
C787 C 0.41503 0.93137 0.06625 0.0
C788 C 0.36895 0.89201 0.96246 0.0
C789 C 0.35409 0.86778 0.98932 0.0
C790 C 0.39198 0.91112 0.03984 0.0
C791 C 0.35789 0.86674 0.04199 0.0
C792 C 0.42615 0.92343 0.11446 0.0
C793 C 0.45213 0.9731 0.06123 0.0
N794 N 0.3768 0.88784 0.06541 0.0
N795 N 0.42816 0.95618 0.04152 0.0
H796 H 0.26866 0.2182 0.28359 0.0
H797 H 0.40995 0.09497 0.30354 0.0
H798 H 0.3276 0.21003 0.41411 0.0
H799 H 0.35706 0.11235 0.16784 0.0
H800 H 0.3751 0.1307 0.34938 0.0
H801 H 0.29559 0.17324 0.24562 0.0
C802 C 0.2866 0.20617 0.30497 0.0
C803 C 0.29501 0.2169 0.35301 0.0
C804 C 0.37095 0.12639 0.30969 0.0
C805 C 0.32696 0.16624 0.30906 0.0
C806 C 0.39075 0.10574 0.28345 0.0
C807 C 0.38655 0.10043 0.2315 0.0
C808 C 0.3467 0.14185 0.28397 0.0
C809 C 0.36147 0.11577 0.20768 0.0
C810 C 0.30216 0.18069 0.28316 0.0
C811 C 0.31919 0.20131 0.37837 0.0
N812 N 0.34269 0.13576 0.23394 0.0
N813 N 0.33447 0.17689 0.35601 0.0
H814 H 0.06019 0.07885 0.66946 0.0
H815 H 0.16666 0.09407 0.4248 0.0
H816 H 0.06555 0.00721 0.55579 0.0
H817 H 0.17138 0.15793 0.55083 0.0
H818 H 0.13442 0.05883 0.4761 0.0
H819 H 0.10642 0.10391 0.63307 0.0
C820 C 0.07232 0.06733 0.6387 0.0
C821 C 0.05996 0.04012 0.61711 0.0
C822 C 0.14283 0.08037 0.49274 0.0
C823 C 0.1113 0.07023 0.57197 0.0
C824 C 0.16119 0.10059 0.46339 0.0
C825 C 0.17194 0.12909 0.48335 0.0
C826 C 0.13449 0.0889 0.54227 0.0
C827 C 0.16413 0.13613 0.53376 0.0
C828 C 0.09828 0.08212 0.61693 0.0
C829 C 0.07495 0.02771 0.57432 0.0
N830 N 0.14563 0.11639 0.56115 0.0
N831 N 0.09957 0.04307 0.55271 0.0
H832 H 0.87479 0.952 0.73383 0.0
H833 H 0.84543 0.78887 0.87722 0.0
H834 H 0.94753 0.89144 0.79025 0.0
H835 H 0.76908 0.8471 0.82817 0.0
H836 H 0.8825 0.82725 0.84488 0.0
H837 H 0.83534 0.91457 0.76486 0.0
C838 C 0.88252 0.93059 0.75186 0.0
C839 C 0.91462 0.92486 0.75939 0.0
C840 C 0.85772 0.83209 0.84151 0.0
C841 C 0.86955 0.88206 0.79521 0.0
C842 C 0.83651 0.81032 0.86069 0.0
C843 C 0.80418 0.81537 0.85704 0.0
C844 C 0.84674 0.85921 0.81737 0.0
C845 C 0.79385 0.84289 0.8333 0.0
C846 C 0.85993 0.90936 0.76991 0.0
C847 C 0.92314 0.89692 0.7836 0.0
N848 N 0.81511 0.86389 0.81433 0.0
N849 N 0.90084 0.87668 0.80044 0.0
H850 H 0.8454 0.16223 0.48335 0.0
H851 H 0.91669 0.01435 0.63229 0.0
H852 H 0.79101 0.10883 0.59101 0.0
H853 H 0.97192 0.09067 0.5729 0.0
H854 H 0.86883 0.04235 0.60526 0.0
H855 H 0.891 0.12941 0.50293 0.0
C856 C 0.843 0.14357 0.51086 0.0
C857 C 0.81444 0.13859 0.53595 0.0
C858 C 0.89154 0.05276 0.59811 0.0
C859 C 0.86636 0.10067 0.55816 0.0
C860 C 0.91873 0.03688 0.61373 0.0
C861 C 0.94823 0.05059 0.60616 0.0
C862 C 0.89418 0.08196 0.57344 0.0
C863 C 0.94967 0.07934 0.58023 0.0
C864 C 0.869 0.12485 0.52211 0.0
C865 C 0.81268 0.11385 0.57117 0.0
N866 N 0.92317 0.09402 0.56506 0.0
N867 N 0.83821 0.09584 0.58122 0.0
H868 H 0.60513 0.12091 0.18408 0.0
H869 H 0.7467 0.16205 0.36799 0.0
H870 H 0.64789 0.04656 0.27011 0.0
H871 H 0.66772 0.22189 0.33716 0.0
H872 H 0.71985 0.11903 0.32226 0.0
H873 H 0.6393 0.15847 0.22539 0.0
C874 C 0.62209 0.11236 0.21106 0.0
C875 C 0.6233 0.08052 0.22395 0.0
C876 C 0.70854 0.14162 0.32595 0.0
C877 C 0.66246 0.12376 0.27224 0.0
C878 C 0.72368 0.16597 0.35225 0.0
C879 C 0.70921 0.19542 0.35682 0.0
C880 C 0.67942 0.14741 0.30297 0.0
C881 C 0.67974 0.19959 0.33468 0.0
C882 C 0.64149 0.13388 0.23495 0.0
C883 C 0.6461 0.07091 0.25905 0.0
N884 N 0.66605 0.17609 0.30864 0.0
N885 N 0.66462 0.09251 0.28249 0.0
H886 H 0.72535 0.88776 0.10531 0.0
H887 H 0.56886 0.97953 0.02993 0.0
H888 H 0.68388 0.8831 0.95734 0.0
H889 H 0.59506 0.96312 0.18459 0.0
H890 H 0.61641 0.95298 1.0017 0.0
H891 H 0.68301 0.92221 0.13304 0.0
C892 C 0.70746 0.8941 0.07833 0.0
C893 C 0.70836 0.88227 0.02864 0.0
C894 C 0.6121 0.95551 0.04184 0.0
C895 C 0.65949 0.92232 0.06072 0.0
C896 C 0.58505 0.97101 0.05815 0.0
C897 C 0.57775 0.9736 0.1099 0.0
C898 C 0.63242 0.94231 0.07739 0.0
C899 C 0.59971 0.96198 0.14447 0.0
C900 C 0.68318 0.91382 0.09446 0.0
C901 C 0.68426 0.89144 0.99591 0.0
N902 N 0.62588 0.94657 0.1276 0.0
N903 N 0.66091 0.9109 0.01249 0.0
H904 H 0.85359 0.22683 0.18151 0.0
H905 H 0.87081 0.04643 0.23402 0.0
H906 H 0.77228 0.16923 0.15552 0.0
H907 H 0.91605 0.11885 0.32044 0.0
H908 H 0.83552 0.08641 0.19791 0.0
H909 H 0.87941 0.18313 0.22125 0.0
C910 C 0.841 0.20484 0.18423 0.0
C911 C 0.81049 0.20193 0.16543 0.0
C912 C 0.85276 0.09326 0.2256 0.0
C913 C 0.84053 0.15098 0.2117 0.0
C914 C 0.87284 0.07051 0.24641 0.0
C915 C 0.89674 0.07934 0.28003 0.0
C916 C 0.85695 0.12492 0.23825 0.0
C917 C 0.89837 0.11089 0.29431 0.0
C918 C 0.85588 0.17981 0.20719 0.0
C919 C 0.79582 0.17249 0.16945 0.0
N920 N 0.87916 0.13242 0.27292 0.0
N921 N 0.81108 0.14793 0.19214 0.0
H922 H 0.60445 0.03095 0.90757 0.0
H923 H 0.64639 0.2062 0.99639 0.0
H924 H 0.54597 0.11221 0.88705 0.0
H925 H 0.70423 0.1272 0.03651 0.0
H926 H 0.61045 0.17085 0.95428 0.0
H927 H 0.64335 0.0645 0.9508 0.0
C928 C 0.60019 0.05586 0.91113 0.0
C929 C 0.57239 0.06904 0.89264 0.0
C930 C 0.63085 0.16102 0.97252 0.0
C931 C 0.61582 0.10711 0.94313 0.0
C932 C 0.65135 0.18131 0.99695 0.0
C933 C 0.6784 0.1698 0.02028 0.0
C934 C 0.63729 0.12871 0.97075 0.0
C935 C 0.68355 0.13717 0.01936 0.0
C936 C 0.62211 0.07491 0.93627 0.0
C937 C 0.56734 0.10121 0.89997 0.0
N938 N 0.66332 0.11778 0.99468 0.0
N939 N 0.58874 0.11898 0.92431 0.0
H940 H 0.67064 0.80118 0.63916 0.0
H941 H 0.67357 0.95852 0.80141 0.0
H942 H 0.75628 0.85062 0.66914 0.0
H943 H 0.58982 0.92283 0.73185 0.0
H944 H 0.70416 0.91788 0.75837 0.0
H945 H 0.64082 0.84432 0.67622 0.0
C946 C 0.68311 0.82166 0.65236 0.0
C947 C 0.71591 0.82292 0.64911 0.0
C948 C 0.67909 0.91884 0.75271 0.0
C949 C 0.68188 0.87196 0.69441 0.0
C950 C 0.66146 0.94184 0.77773 0.0
C951 C 0.62888 0.94402 0.77071 0.0
C952 C 0.66406 0.89731 0.72101 0.0
C953 C 0.61477 0.92203 0.73871 0.0
C954 C 0.66607 0.84616 0.67402 0.0
C955 C 0.73098 0.84932 0.66899 0.0
N956 N 0.63236 0.89952 0.71552 0.0
N957 N 0.71386 0.87277 0.69104 0.0
H958 H 0.94471 0.99831 0.46421 0.0
H959 H 0.81933 0.85979 0.44677 0.0
H960 H 0.93018 0.94486 0.32871 0.0
H961 H 0.82526 0.92281 0.57359 0.0
H962 H 0.85821 0.89162 0.40173 0.0
H963 H 0.89841 0.97385 0.50204 0.0
C964 C 0.93101 0.98226 0.44165 0.0
C965 C 0.94106 0.97411 0.39278 0.0
C966 C 0.85095 0.89857 0.43934 0.0
C967 C 0.88869 0.94446 0.43704 0.0
C968 C 0.82884 0.88023 0.46535 0.0
C969 C 0.81898 0.88836 0.51446 0.0
C970 C 0.86365 0.92529 0.46246 0.0
C971 C 0.83212 0.91539 0.53605 0.0
C972 C 0.90478 0.9679 0.46358 0.0
C973 C 0.92294 0.95241 0.36594 0.0
N974 N 0.85377 0.93269 0.51012 0.0
N975 N 0.89798 0.93798 0.38866 0.0
H976 H 0.75881 0.70388 0.70239 0.0
H977 H 0.60154 0.6017 0.70419 0.0
H978 H 0.68479 0.7156 0.59466 0.0
H979 H 0.66468 0.60884 0.83034 0.0
H980 H 0.63736 0.63408 0.65398 0.0
H981 H 0.73039 0.65917 0.73921 0.0
C982 C 0.73724 0.69609 0.68519 0.0
C983 C 0.72462 0.71255 0.64433 0.0
C984 C 0.64351 0.62822 0.69247 0.0
C985 C 0.69148 0.66252 0.68719 0.0
C986 C 0.62315 0.60956 0.72114 0.0
C987 C 0.63007 0.60249 0.77172 0.0
C988 C 0.67108 0.63977 0.71435 0.0
C989 C 0.65822 0.61392 0.79171 0.0
C990 C 0.72089 0.67091 0.70646 0.0
C991 C 0.69599 0.70247 0.6245 0.0
N992 N 0.67761 0.63201 0.76308 0.0
N993 N 0.68024 0.67824 0.64631 0.0
H994 H 0.56049 0.43723 0.84722 0.0
H995 H 0.66439 0.41044 0.08873 0.0
H996 H 0.56531 0.50382 0.9686 0.0
H997 H 0.6772 0.35727 0.95156 0.0
H998 H 0.63129 0.44723 0.04289 0.0
H999 H 0.60706 0.41098 0.87994 0.0
C1000 C 0.57248 0.44735 0.87921 0.0
C1001 C 0.55998 0.47353 0.90402 0.0
C1002 C 0.64176 0.42785 0.02252 0.0
C1003 C 0.61171 0.44211 0.94437 0.0
C1004 C 0.6606 0.40669 0.04876 0.0
C1005 C 0.67369 0.38062 0.02409 0.0
C1006 C 0.63538 0.42271 0.97123 0.0
C1007 C 0.66796 0.37713 0.97217 0.0
C1008 C 0.59867 0.43194 0.89863 0.0
C1009 C 0.5748 0.48414 0.94783 0.0
N1010 N 0.64891 0.39768 0.94768 0.0
N1011 N 0.59966 0.4682 0.96699 0.0
H1012 H 0.88361 0.44503 0.25326 0.0
H1013 H 0.84215 0.29992 0.07467 0.0
H1014 H 0.95148 0.38441 0.18224 0.0
H1015 H 0.78137 0.32841 0.1965 0.0
H1016 H 0.87688 0.34385 0.09352 0.0
H1017 H 0.84132 0.41402 0.21446 0.0
C1018 C 0.88955 0.42561 0.2287 0.0
C1019 C 0.92096 0.41709 0.22092 0.0
C1020 C 0.85545 0.34112 0.11518 0.0
C1021 C 0.87314 0.38214 0.17617 0.0
C1022 C 0.83533 0.31643 0.10378 0.0
C1023 C 0.80842 0.31122 0.13307 0.0
C1024 C 0.84886 0.3605 0.1567 0.0
C1025 C 0.80156 0.33222 0.17232 0.0
C1026 C 0.86551 0.40794 0.20682 0.0
C1027 C 0.92753 0.39159 0.1893 0.0
N1028 N 0.82181 0.35588 0.18336 0.0
N1029 N 0.90387 0.37506 0.16807 0.0
H1030 H 0.84367 0.66615 0.43356 0.0
H1031 H 0.95793 0.51727 0.43047 0.0
H1032 H 0.85889 0.6056 0.5618 0.0
H1033 H 0.96569 0.59492 0.32757 0.0
H1034 H 0.91035 0.54095 0.46647 0.0
H1035 H 0.87705 0.6318 0.38235 0.0
C1036 C 0.85336 0.64528 0.45072 0.0
C1037 C 0.84847 0.63884 0.50223 0.0
C1038 C 0.92175 0.55217 0.43459 0.0
C1039 C 0.88691 0.59956 0.44374 0.0
C1040 C 0.94861 0.53844 0.41362 0.0
C1041 C 0.96479 0.55338 0.37419 0.0
C1042 C 0.91129 0.58128 0.41631 0.0
C1043 C 0.95278 0.58166 0.35555 0.0
C1044 C 0.87261 0.6258 0.4215 0.0
C1045 C 0.8622 0.61165 0.5224 0.0
N1046 N 0.92688 0.59478 0.37689 0.0
N1047 N 0.88089 0.59315 0.49326 0.0
H1048 H 0.66318 0.41074 0.19874 0.0
H1049 H 0.68908 0.30791 0.44227 0.0
H1050 H 0.60837 0.42308 0.3347 0.0
H1051 H 0.75338 0.30999 0.31662 0.0
H1052 H 0.66449 0.35586 0.41087 0.0
H1053 H 0.70047 0.37916 0.24601 0.0
C1054 C 0.65922 0.4072 0.23881 0.0
C1055 C 0.63248 0.41955 0.26264 0.0
C1056 C 0.68471 0.34656 0.39107 0.0
C1057 C 0.67509 0.3828 0.31726 0.0
C1058 C 0.69925 0.31956 0.40978 0.0
C1059 C 0.72394 0.30558 0.38292 0.0
C1060 C 0.69444 0.3591 0.34439 0.0
C1061 C 0.73475 0.32041 0.3389 0.0
C1062 C 0.68063 0.38919 0.2659 0.0
C1063 C 0.62872 0.41425 0.31475 0.0
N1064 N 0.71964 0.34603 0.32058 0.0
N1065 N 0.64949 0.39584 0.34011 0.0
H1066 H 0.9509 0.49763 0.5494 0.0
H1067 H 0.84358 0.34532 0.58412 0.0
H1068 H 0.96018 0.43353 0.67401 0.0
H1069 H 0.85573 0.39629 0.44463 0.0
H1070 H 0.87513 0.38514 0.62742 0.0
H1071 H 0.90435 0.46913 0.52176 0.0
C1072 C 0.94223 0.47838 0.57224 0.0
C1073 C 0.95875 0.46849 0.61494 0.0
C1074 C 0.8704 0.38782 0.58751 0.0
C1075 C 0.90643 0.43475 0.5823 0.0
C1076 C 0.85225 0.36521 0.56284 0.0
C1077 C 0.84717 0.36739 0.51057 0.0
C1078 C 0.88322 0.4129 0.55979 0.0
C1079 C 0.85933 0.39349 0.48483 0.0
C1080 C 0.91592 0.46184 0.55612 0.0
C1081 C 0.94731 0.44265 0.64211 0.0
N1082 N 0.87686 0.41507 0.50957 0.0
N1083 N 0.92205 0.42641 0.62503 0.0
H1084 H 0.75733 0.70057 0.79626 0.0
H1085 H 0.91199 0.59404 0.80523 0.0
H1086 H 0.82676 0.70771 0.91241 0.0
H1087 H 0.85362 0.60482 0.67377 0.0
H1088 H 0.87509 0.62643 0.85337 0.0
H1089 H 0.78617 0.656 0.7599 0.0
C1090 C 0.77787 0.69173 0.81536 0.0
C1091 C 0.78902 0.70694 0.85845 0.0
C1092 C 0.87019 0.62133 0.81416 0.0
C1093 C 0.82277 0.65685 0.8164 0.0
C1094 C 0.89117 0.6026 0.78663 0.0
C1095 C 0.886 0.59651 0.73516 0.0
C1096 C 0.84371 0.63397 0.79026 0.0
C1097 C 0.85878 0.60896 0.71319 0.0
C1098 C 0.7945 0.6666 0.79439 0.0
C1099 C 0.81648 0.69554 0.88079 0.0
N1100 N 0.8388 0.6271 0.74071 0.0
N1101 N 0.83254 0.67134 0.85937 0.0
H1102 H 0.56645 0.57279 0.18326 0.0
H1103 H 0.66125 0.59661 0.93066 0.0
H1104 H 0.56458 0.50652 0.06135 0.0
H1105 H 0.67645 0.65243 0.06407 0.0
H1106 H 0.63168 0.55908 0.98165 0.0
H1107 H 0.6133 0.59661 0.14687 0.0
C1108 C 0.57711 0.56201 0.15053 0.0
C1109 C 0.56232 0.53702 0.12621 0.0
C1110 C 0.64193 0.57924 1.00001 0.0
C1111 C 0.61442 0.56582 0.08153 0.0
C1112 C 0.65874 0.60079 0.97082 0.0
C1113 C 0.67132 0.62785 0.99293 0.0
C1114 C 0.63701 0.58504 0.05167 0.0
C1115 C 0.66746 0.63185 0.04528 0.0
C1116 C 0.60345 0.57615 0.12883 0.0
C1117 C 0.57569 0.52552 0.08147 0.0
N1118 N 0.65025 0.61096 0.07265 0.0
N1119 N 0.60065 0.54034 0.06003 0.0
H1120 H 0.28507 0.32662 0.28782 0.0
H1121 H 0.39537 0.4661 0.38228 0.0
H1122 H 0.30732 0.34005 0.44479 0.0
H1123 H 0.39146 0.43503 0.22753 0.0
H1124 H 0.3581 0.42514 0.40597 0.0
H1125 H 0.31682 0.37224 0.266 0.0
C1126 C 0.29595 0.33977 0.31798 0.0
C1127 C 0.29331 0.32952 0.36832 0.0
C1128 C 0.36539 0.42719 0.36687 0.0
C1129 C 0.33069 0.38163 0.34321 0.0
C1130 C 0.38677 0.45059 0.35316 0.0
C1131 C 0.39683 0.45404 0.30269 0.0
C1132 C 0.35343 0.4071 0.32986 0.0
C1133 C 0.3847 0.43316 0.26688 0.0
C1134 C 0.31445 0.36562 0.30533 0.0
C1135 C 0.30823 0.34735 0.40565 0.0
N1136 N 0.36358 0.41073 0.28111 0.0
N1137 N 0.32652 0.37237 0.3923 0.0
H1138 H 0.48152 0.60155 0.12594 0.0
H1139 H 0.31841 0.62104 0.98227 0.0
H1140 H 0.42019 0.52298 0.10223 0.0
H1141 H 0.37145 0.69781 0.04399 0.0
H1142 H 0.35617 0.58417 0.01927 0.0
H1143 H 0.44198 0.63644 0.09125 0.0
C1144 C 0.45935 0.59175 0.11405 0.0
C1145 C 0.45379 0.55948 0.11807 0.0
C1146 C 0.35954 0.60909 0.02446 0.0
C1147 C 0.40848 0.59933 0.07627 0.0
C1148 C 0.33818 0.63022 1.00291 0.0
C1149 C 0.34174 0.66272 0.00981 0.0
C1150 C 0.38489 0.62055 0.05256 0.0
C1151 C 0.36769 0.67307 0.03746 0.0
C1152 C 0.4368 0.61167 0.094 0.0
C1153 C 0.42502 0.54785 0.10092 0.0
N1154 N 0.38814 0.65215 0.05762 0.0
N1155 N 0.40339 0.56779 0.08049 0.0
H1156 H 0.06844 0.62797 0.74936 0.0
H1157 H 0.24503 0.66506 0.8326 0.0
H1158 H 0.14508 0.56669 0.70937 0.0
H1159 H 0.16324 0.7164 0.8803 0.0
H1160 H 0.21058 0.62737 0.78881 0.0
H1161 H 0.10463 0.66089 0.79566 0.0
C1162 C 0.09301 0.62163 0.74969 0.0
C1163 C 0.1036 0.59448 0.72525 0.0
C1164 C 0.20024 0.64653 0.80986 0.0
C1165 C 0.14557 0.63207 0.77952 0.0
C1166 C 0.21985 0.66768 0.83542 0.0
C1167 C 0.20682 0.69325 0.86131 0.0
C1168 C 0.1676 0.65158 0.80967 0.0
C1169 C 0.17416 0.69654 0.86179 0.0
C1170 C 0.11374 0.64035 0.77664 0.0
C1171 C 0.13584 0.58753 0.72734 0.0
N1172 N 0.15581 0.67612 0.8364 0.0
N1173 N 0.15569 0.60612 0.75422 0.0
H1174 H 0.16623 0.37944 0.41259 0.0
H1175 H 0.10275 0.49881 0.62216 0.0
H1176 H 0.22248 0.39611 0.5446 0.0
H1177 H 0.04733 0.43221 0.53896 0.0
H1178 H 0.15055 0.47534 0.58405 0.0
H1179 H 0.12681 0.41538 0.44569 0.0
C1180 C 0.17063 0.39114 0.44813 0.0
C1181 C 0.19759 0.38432 0.47605 0.0
C1182 C 0.12774 0.46615 0.57443 0.0
C1183 C 0.15202 0.42552 0.51471 0.0
C1184 C 0.10051 0.4793 0.59653 0.0
C1185 C 0.07079 0.46693 0.58543 0.0
C1186 C 0.12488 0.44152 0.53935 0.0
C1187 C 0.06942 0.44258 0.54966 0.0
C1188 C 0.14801 0.41162 0.46713 0.0
C1189 C 0.202 0.40059 0.52181 0.0
N1190 N 0.09579 0.43091 0.52819 0.0
N1191 N 0.17918 0.42011 0.54021 0.0
H1192 H 0.27652 0.66527 0.65834 0.0
H1193 H 0.4378 0.6131 0.78907 0.0
H1194 H 0.36067 0.72051 0.66769 0.0
H1195 H 0.36758 0.54414 0.75346 0.0
H1196 H 0.40487 0.65352 0.75311 0.0
H1197 H 0.30505 0.62082 0.69771 0.0
C1198 C 0.30096 0.66787 0.66787 0.0
C1199 C 0.31637 0.69648 0.65902 0.0
C1200 C 0.39637 0.62962 0.75311 0.0
C1201 C 0.34863 0.64659 0.70539 0.0
C1202 C 0.41523 0.60642 0.77406 0.0
C1203 C 0.40567 0.57501 0.77419 0.0
C1204 C 0.36742 0.62176 0.73151 0.0
C1205 C 0.37591 0.56807 0.7543 0.0
C1206 C 0.31716 0.64268 0.69068 0.0
C1207 C 0.34782 0.69892 0.67353 0.0
N1208 N 0.35788 0.59123 0.73339 0.0
N1209 N 0.36269 0.67456 0.69578 0.0
H1210 H 0.17286 0.68954 0.49551 0.0
H1211 H 0.10258 0.52472 0.4035 0.0
H1212 H 0.20255 0.60106 0.55809 0.0
H1213 H 0.05464 0.61285 0.38639 0.0
H1214 H 0.14504 0.55224 0.44841 0.0
H1215 H 0.13395 0.66171 0.44488 0.0
C1216 C 0.17098 0.66433 0.49909 0.0
C1217 C 0.1908 0.64776 0.53174 0.0
C1218 C 0.12539 0.56554 0.43415 0.0
C1219 C 0.14679 0.61556 0.47266 0.0
C1220 C 0.10144 0.5499 0.40811 0.0
C1221 C 0.07549 0.56671 0.39048 0.0
C1222 C 0.1232 0.5981 0.4424 0.0
C1223 C 0.07453 0.59917 0.3988 0.0
C1224 C 0.14888 0.64841 0.46993 0.0
C1225 C 0.1875 0.61495 0.53411 0.0
N1226 N 0.09799 0.61378 0.4239 0.0
N1227 N 0.16611 0.59994 0.50482 0.0
H1228 H 0.15437 0.4769 0.15435 0.0
H1229 H 0.16805 0.29315 0.17536 0.0
H1230 H 0.10236 0.42473 0.2666 0.0
H1231 H 0.24512 0.34882 0.11992 0.0
H1232 H 0.142 0.3406 0.20475 0.0
H1233 H 0.18559 0.43041 0.13625 0.0
C1234 C 0.1494 0.45565 0.1753 0.0
C1235 C 0.12551 0.45485 0.21222 0.0
C1236 C 0.16467 0.34255 0.18647 0.0
C1237 C 0.16126 0.40111 0.19069 0.0
C1238 C 0.17963 0.31545 0.16956 0.0
C1239 C 0.20847 0.3171 0.14378 0.0
C1240 C 0.17844 0.3718 0.17749 0.0
C1241 C 0.2225 0.34661 0.13822 0.0
C1242 C 0.16748 0.42913 0.16498 0.0
C1243 C 0.12045 0.42652 0.23793 0.0
N1244 N 0.20708 0.37292 0.15412 0.0
N1245 N 0.13793 0.40069 0.22626 0.0
H1246 H 0.4788 0.41459 0.90108 0.0
H1247 H 0.30301 0.39485 1.00456 0.0
H1248 H 0.41646 0.49351 0.91497 0.0
H1249 H 0.36429 0.31836 0.96464 0.0
H1250 H 0.34389 0.43202 0.9775 0.0
H1251 H 0.43689 0.37987 0.92844 0.0
C1252 C 0.456 0.42455 0.90945 0.0
C1253 C 0.45096 0.4569 0.90504 0.0
C1254 C 0.34841 0.40711 0.97504 0.0
C1255 C 0.40257 0.41709 0.93789 0.0
C1256 C 0.32519 0.38586 0.99084 0.0
C1257 C 0.33023 0.35335 0.98702 0.0
C1258 C 0.37704 0.39577 0.956 0.0
C1259 C 0.35928 0.34312 0.96836 0.0
C1260 C 0.43206 0.40469 0.92539 0.0
C1261 C 0.4211 0.46861 0.91702 0.0
N1262 N 0.38149 0.36416 0.95391 0.0
N1263 N 0.39795 0.44868 0.93307 0.0
H1264 H 0.14294 0.7949 0.04901 0.0
H1265 H 0.13109 0.94622 0.22543 0.0
H1266 H 0.21505 0.86558 0.05365 0.0
H1267 H 0.05081 0.89152 0.18147 0.0
H1268 H 0.1642 0.9134 0.17098 0.0
H1269 H 0.11034 0.82732 0.10424 0.0
C1270 C 0.15181 0.81738 0.06133 0.0
C1271 C 0.18172 0.8276 0.04659 0.0
C1272 C 0.13936 0.90856 0.17349 0.0
C1273 C 0.14473 0.86457 0.11064 0.0
C1274 C 0.12051 0.92707 0.20489 0.0
C1275 C 0.08814 0.92161 0.20793 0.0
C1276 C 0.12577 0.88422 0.14547 0.0
C1277 C 0.07564 0.89663 0.18015 0.0
C1278 C 0.13321 0.83584 0.09294 0.0
C1279 C 0.19204 0.85691 0.06379 0.0
N1280 N 0.09446 0.87888 0.15014 0.0
N1281 N 0.17367 0.87428 0.09528 0.0
H1282 H 0.38687 0.95222 0.27911 0.0
H1283 H 0.37714 0.79501 0.44329 0.0
H1284 H 0.46766 0.8968 0.31858 0.0
H1285 H 0.30484 0.86565 0.44737 0.0
H1286 H 0.40853 0.82899 0.38863 0.0
H1287 H 0.35402 0.91719 0.33066 0.0
C1288 C 0.39762 0.93249 0.29805 0.0
C1289 C 0.43005 0.92746 0.29465 0.0
C1290 C 0.38584 0.83712 0.4016 0.0
C1291 C 0.39274 0.88747 0.35358 0.0
C1292 C 0.36789 0.81773 0.43283 0.0
C1293 C 0.33836 0.82754 0.45013 0.0
C1294 C 0.37405 0.86643 0.38682 0.0
C1295 C 0.32759 0.85724 0.43522 0.0
C1296 C 0.37893 0.91269 0.32776 0.0
C1297 C 0.44279 0.90166 0.32029 0.0
N1298 N 0.34535 0.87558 0.40417 0.0
N1299 N 0.42413 0.88265 0.34857 0.0
H1300 H 0.3547 0.18138 0.50507 0.0
H1301 H 0.40034 0.0634 0.7289 0.0
H1302 H 0.28899 0.14332 0.61344 0.0
H1303 H 0.46935 0.10957 0.63515 0.0
H1304 H 0.35914 0.09133 0.68406 0.0
H1305 H 0.39714 0.1536 0.54872 0.0
C1306 C 0.34918 0.16709 0.53776 0.0
C1307 C 0.31828 0.16469 0.55566 0.0
C1308 C 0.38329 0.09547 0.67331 0.0
C1309 C 0.36648 0.13308 0.60566 0.0
C1310 C 0.40684 0.0795 0.69895 0.0
C1311 C 0.43833 0.08416 0.68577 0.0
C1312 C 0.3912 0.11615 0.63389 0.0
C1313 C 0.44536 0.10538 0.6467 0.0
C1314 C 0.37339 0.15138 0.56277 0.0
C1315 C 0.31245 0.14597 0.59832 0.0
N1316 N 0.42197 0.12052 0.62197 0.0
N1317 N 0.33626 0.13094 0.62175 0.0
H1318 H 0.2084 0.14127 0.95224 0.0
H1319 H 0.04566 0.11865 0.80901 0.0
H1320 H 0.13882 0.21412 0.93831 0.0
H1321 H 0.12327 0.05451 0.79312 0.0
H1322 H 0.07819 0.15236 0.86138 0.0
H1323 H 0.17571 0.10698 0.9005 0.0
C1324 C 0.18612 0.14994 0.93877 0.0
C1325 C 0.17634 0.18063 0.94952 0.0
C1326 C 0.08818 0.131 0.84623 0.0
C1327 C 0.13901 0.14165 0.8901 0.0
C1328 C 0.06964 0.11176 0.81623 0.0
C1329 C 0.08178 0.08373 0.79662 0.0
C1330 C 0.11904 0.12204 0.85721 0.0
C1331 C 0.11301 0.07598 0.80729 0.0
C1332 C 0.1676 0.13044 0.90894 0.0
C1333 C 0.14733 0.19068 0.93085 0.0
N1334 N 0.13052 0.09495 0.83716 0.0
N1335 N 0.12972 0.17126 0.90206 0.0
H1336 H 0.86402 1.00109 0.81803 0.0
H1337 H 0.75419 0.11035 0.96355 0.0
H1338 H 0.8102 0.0785 0.75815 0.0
H1339 H 0.83244 0.0577 0.02285 0.0
H1340 H 0.75111 0.07437 0.89393 0.0
H1341 H 0.82847 0.99794 0.88858 0.0
C1342 C 0.84421 0.01683 0.81803 0.0
C1343 C 0.8413 0.04148 0.78278 0.0
C1344 C 0.76815 0.06997 0.92327 0.0
C1345 C 0.80079 0.0379 0.86536 0.0
C1346 C 0.77011 0.09069 0.96367 0.0
C1347 C 0.79498 0.08829 0.99828 0.0
C1348 C 0.79148 0.04726 0.9169 0.0
C1349 C 0.81393 0.06147 0.99575 0.0
C1350 C 0.82375 0.01482 0.85899 0.0
C1351 C 0.81435 0.0602 0.78565 0.0
N1352 N 0.81248 0.04252 0.95472 0.0
N1353 N 0.79565 0.05871 0.82721 0.0
H1354 H 0.76253 0.0847 0.49348 0.0
H1355 H 0.66846 0.99179 0.69732 0.0
H1356 H 0.66617 0.05429 0.48345 0.0
H1357 H 0.71954 0.07824 0.71741 0.0
H1358 H 0.69371 0.98514 0.61577 0.0
H1359 H 0.76961 0.05032 0.56509 0.0
C1360 C 0.7428 0.07059 0.50508 0.0
C1361 C 0.71241 0.07531 0.48565 0.0
C1362 C 0.7001 1.00494 0.63897 0.0
C1363 C 0.72167 0.03407 0.5656 0.0
C1364 C 0.68515 0.00934 0.68535 0.0
C1365 C 0.68919 0.03763 0.71202 0.0
C1366 C 0.71984 0.02841 0.62025 0.0
C1367 C 0.7139 0.0572 0.69664 0.0
C1368 C 0.74734 0.05032 0.5457 0.0
C1369 C 0.6894 0.05336 0.49951 0.0
N1370 N 0.72761 0.05277 0.65084 0.0
N1371 N 0.6941 0.03454 0.5401 0.0
H1372 H 0.70614 0.92931 0.51719 0.0
H1373 H 0.54696 0.95609 0.45371 0.0
H1374 H 0.62823 0.90618 0.6144 0.0
H1375 H 0.62454 1.00203 0.37965 0.0
H1376 H 0.57393 0.96114 0.53401 0.0
H1377 H 0.6803 0.97761 0.49445 0.0
C1378 C 0.6843 0.93509 0.53597 0.0
C1379 C 0.66824 0.91285 0.56519 0.0
C1380 C 0.58491 0.97085 0.50051 0.0
C1381 C 0.63799 0.96757 0.53788 0.0
C1382 C 0.56955 0.9676 0.45458 0.0
C1383 C 0.58441 0.97694 0.40985 0.0
C1384 C 0.61612 0.98148 0.50081 0.0
C1385 C 0.6128 0.9933 0.41316 0.0
C1386 C 0.66932 0.9629 0.52279 0.0
C1387 C 0.64059 0.92218 0.58963 0.0
N1388 N 0.6283 0.99411 0.45769 0.0
N1389 N 0.62569 0.9485 0.57418 0.0
H1390 H 0.97086 0.95227 0.05237 0.0
H1391 H 0.81056 0.9247 0.97949 0.0
H1392 H 0.88967 0.99286 0.12425 0.0
H1393 H 0.89269 0.89487 0.89744 0.0
H1394 H 0.83656 0.97381 0.99879 0.0
H1395 H 0.94502 0.95695 0.97089 0.0
C1396 C 0.94764 0.96246 0.05075 0.0
C1397 C 0.93158 0.97052 0.09503 0.0
C1398 C 0.84854 0.95716 0.9746 0.0
C1399 C 0.90118 0.97442 1.00274 0.0
C1400 C 0.8335 0.92902 0.96328 0.0
C1401 C 0.85042 0.90494 0.93962 0.0
C1402 C 0.88077 0.96005 0.964 0.0
C1403 C 0.8795 0.91235 0.91803 0.0
C1404 C 0.93293 0.9655 1.00422 0.0
C1405 C 0.90232 0.98518 0.09095 0.0
N1406 N 0.89429 0.93897 0.93205 0.0
N1407 N 0.88753 0.98565 0.04574 0.0
H1408 H 0.63461 0.48215 0.65844 0.0
H1409 H 0.6585 0.29777 0.62187 0.0
H1410 H 0.59112 0.41367 0.75622 0.0
H1411 H 0.70978 0.36821 0.53859 0.0
H1412 H 0.63268 0.33926 0.67044 0.0
H1413 H 0.66206 0.44029 0.61448 0.0
C1414 C 0.63097 0.45825 0.67095 0.0
C1415 C 0.61037 0.45141 0.71098 0.0
C1416 C 0.64957 0.34561 0.64155 0.0
C1417 C 0.64171 0.40305 0.66011 0.0
C1418 C 0.66421 0.32196 0.61355 0.0
C1419 C 0.68632 0.32951 0.57595 0.0
C1420 C 0.65696 0.37709 0.63174 0.0
C1421 C 0.69291 0.36125 0.56715 0.0
C1422 C 0.64669 0.4343 0.64569 0.0
C1423 C 0.6068 0.41999 0.72559 0.0
N1424 N 0.67828 0.38381 0.59476 0.0
N1425 N 0.62213 0.3969 0.69986 0.0
H1426 H 0.8396 0.36853 0.0105 0.0
H1427 H 0.90881 0.42633 0.74582 0.0
H1428 H 0.83345 0.31233 0.87561 0.0
H1429 H 0.95252 0.44951 0.88743 0.0
H1430 H 0.87282 0.39115 0.79154 0.0
H1431 H 0.87334 0.40563 0.96436 0.0
C1432 C 0.84528 0.36407 0.97124 0.0
C1433 C 0.83402 0.3372 0.94696 0.0
C1434 C 0.89031 0.40404 0.81242 0.0
C1435 C 0.8718 0.37967 0.89392 0.0
C1436 C 0.91073 0.42411 0.78644 0.0
C1437 C 0.93382 0.4406 0.81285 0.0
C1438 C 0.89255 0.40113 0.86519 0.0
C1439 C 0.93529 0.43693 0.86553 0.0
C1440 C 0.86452 0.38515 0.94502 0.0
C1441 C 0.84197 0.33257 0.89593 0.0
N1442 N 0.91484 0.41776 0.89001 0.0
N1443 N 0.8602 0.35367 0.87101 0.0
H1444 H 0.95998 0.63639 0.20884 0.0
H1445 H 0.80918 0.63917 0.03075 0.0
H1446 H 0.89912 0.55652 0.19183 0.0
H1447 H 0.86318 0.72096 0.06981 0.0
H1448 H 0.84285 0.60749 0.08569 0.0
H1449 H 0.92499 0.6671 0.15603 0.0
C1450 C 0.93903 0.62538 0.19437 0.0
C1451 C 0.93247 0.59384 0.20474 0.0
C1452 C 0.84732 0.63236 0.08206 0.0
C1453 C 0.89237 0.62885 0.1433 0.0
C1454 C 0.82829 0.6504 0.05041 0.0
C1455 C 0.83337 0.68278 0.04566 0.0
C1456 C 0.87168 0.64681 0.10882 0.0
C1457 C 0.85831 0.69612 0.07233 0.0
C1458 C 0.91906 0.64294 0.16403 0.0
C1459 C 0.90494 0.58084 0.18499 0.0
N1460 N 0.87646 0.67812 0.10268 0.0
N1461 N 0.886 0.59834 0.1548 0.0
H1462 H 0.54814 0.62575 0.31691 0.0
H1463 H 0.70526 0.6413 0.47922 0.0
H1464 H 0.6186 0.55334 0.32267 0.0
H1465 H 0.6437 0.71882 0.4464 0.0
H1466 H 0.67139 0.607 0.42924 0.0
H1467 H 0.58093 0.65871 0.37017 0.0
C1468 C 0.57058 0.6168 0.32917 0.0
C1469 C 0.58064 0.58673 0.31507 0.0
C1470 C 0.66526 0.63149 0.43322 0.0
C1471 C 0.61828 0.62435 0.37679 0.0
C1472 C 0.68445 0.65104 0.46205 0.0
C1473 C 0.67738 0.68304 0.46694 0.0
C1474 C 0.63866 0.64396 0.40943 0.0
C1475 C 0.65018 0.69436 0.44356 0.0
C1476 C 0.5893 0.63565 0.3597 0.0
C1477 C 0.60996 0.57643 0.33233 0.0
N1478 N 0.6319 0.67489 0.41585 0.0
N1479 N 0.62769 0.59514 0.36242 0.0
H1480 H 0.31733 0.55233 0.48008 0.0
H1481 H 0.31963 0.60721 0.22598 0.0
H1482 H 0.24944 0.62053 0.42909 0.0
H1483 H 0.34698 0.51207 0.26071 0.0
H1484 H 0.27936 0.6037 0.2903 0.0
H1485 H 0.31348 0.52641 0.39892 0.0
C1486 C 0.30107 0.56159 0.4526 0.0
C1487 C 0.2858 0.5903 0.46073 0.0
C1488 C 0.29342 0.5831 0.28265 0.0
C1489 C 0.28161 0.56089 0.36716 0.0
C1490 C 0.31667 0.58516 0.24572 0.0
C1491 C 0.33882 0.56106 0.24066 0.0
C1492 C 0.29238 0.55673 0.31442 0.0
C1493 C 0.3323 0.53244 0.26533 0.0
C1494 C 0.29866 0.54654 0.4061 0.0
C1495 C 0.26369 0.59989 0.4244 0.0
N1496 N 0.31046 0.53151 0.30273 0.0
N1497 N 0.26321 0.58593 0.37846 0.0
H1498 H 0.22108 0.59273 0.26713 0.0
H1499 H 0.18894 0.55047 0.01534 0.0
H1500 H 0.1773 0.50339 0.23862 0.0
H1501 H 0.27379 0.60103 0.05046 0.0
H1502 H 0.19576 0.52003 0.09212 0.0
H1503 H 0.25332 0.58518 0.19269 0.0
C1504 C 0.21877 0.57099 0.24642 0.0
C1505 C 0.19414 0.55021 0.25697 0.0
C1506 C 0.21353 0.53706 0.08202 0.0
C1507 C 0.23105 0.54148 0.17106 0.0
C1508 C 0.20953 0.55466 0.03805 0.0
C1509 C 0.22929 0.58023 0.02784 0.0
C1510 C 0.23695 0.54575 0.11634 0.0
C1511 C 0.25647 0.58318 0.05753 0.0
C1512 C 0.23742 0.56659 0.20364 0.0
C1513 C 0.19384 0.52169 0.23002 0.0
N1514 N 0.25879 0.56707 0.10152 0.0
N1515 N 0.21084 0.51883 0.18675 0.0
H1516 H 0.15497 0.45011 0.03505 0.0
H1517 H 0.13775 0.521 0.82864 0.0
H1518 H 0.25041 0.42666 0.99534 0.0
H1519 H 0.20445 0.44935 0.7858 0.0
H1520 H 0.16439 0.52709 0.90819 0.0
H1521 H 0.15684 0.49259 0.97491 0.0
C1522 C 0.17664 0.4541 0.01458 0.0
C1523 C 0.20115 0.43217 0.01614 0.0
C1524 C 0.17364 0.51059 0.88085 0.0
C1525 C 0.20344 0.48089 0.94665 0.0
C1526 C 0.15851 0.50707 0.83472 0.0
C1527 C 0.16787 0.48329 0.80084 0.0
C1528 C 0.19761 0.48968 0.89364 0.0
C1529 C 0.19546 0.46688 0.81161 0.0
C1530 C 0.17785 0.47881 0.98021 0.0
C1531 C 0.22937 0.44041 0.99163 0.0
N1532 N 0.20886 0.46977 0.85768 0.0
N1533 N 0.22926 0.46322 0.95593 0.0
H1534 H 0.26973 0.35396 0.65157 0.0
H1535 H 0.39331 0.35125 0.84965 0.0
H1536 H 0.31702 0.27201 0.70955 0.0
H1537 H 0.35069 0.43302 0.78311 0.0
H1538 H 0.3447 0.32263 0.83759 0.0
H1539 H 0.27562 0.37896 0.73256 0.0
C1540 C 0.28068 0.34065 0.68136 0.0
C1541 C 0.29481 0.31137 0.67234 0.0
C1542 C 0.34558 0.34715 0.82709 0.0
C1543 C 0.30266 0.34093 0.76504 0.0
C1544 C 0.37344 0.36349 0.83377 0.0
C1545 C 0.37666 0.39401 0.81474 0.0
C1546 C 0.32161 0.36098 0.79865 0.0
C1547 C 0.34981 0.40912 0.79659 0.0
C1548 C 0.28396 0.35514 0.72812 0.0
C1549 C 0.30759 0.29541 0.71372 0.0
N1550 N 0.32367 0.39208 0.7873 0.0
N1551 N 0.31215 0.31077 0.75786 0.0
loop_
_geom_bond_atom_site_label_1
_geom_bond_atom_site_label_2
_geom_bond_distance
_geom_bond_site_symmetry_2
_ccdc_geom_bond_type
Zn0 N4 2.020 . S
Zn0 O8 2.019 . S
Zn0 N10 2.119 . S
Zn0 O18 1.975 . S
C1 N2 1.333 1_645 S
C1 N5 1.336 . S
N2 C1 1.333 1_465 S
N2 C3 1.334 1_565 S
C3 N2 1.334 1_545 S
C3 N4 1.336 . S
N4 Zn0 2.020 . S
N4 C3 1.336 . S
N4 N5 1.354 1_455 S
N5 C1 1.336 . S
N5 N4 1.354 1_655 S
N5 Zn9 2.020 . S
C6 O7 1.244 . S
C6 O30 1.257 . S
O7 C6 1.244 . S
O8 Zn0 2.019 . S
O8 C28 1.257 1_545 S
Zn9 N5 2.020 . S
Zn9 O16 1.975 . S
Zn9 N25 2.119 1_545 S
Zn9 O30 2.019 . S
N10 Zn0 2.119 . S
N10 C12 1.334 . S
N10 C13 1.328 . S
C11 C12 1.391 . S
C11 N14 1.329 . S
C11 H32 0.930 . S
C12 N10 1.334 . S
C12 C11 1.391 . S
C12 H19 0.930 . S
C13 N10 1.328 . S
C13 C15 1.392 . S
C13 H20 0.930 . S
N14 C11 1.329 . S
N14 C15 1.331 . S
C15 C13 1.392 . S
C15 N14 1.331 . S
O16 Zn9 1.975 . S
O16 C17 1.252 1_655 S
C17 O16 1.252 1_455 S
C17 O18 1.252 . S
O18 Zn0 1.975 . S
O18 C17 1.252 . S
H19 C12 0.930 . S
H20 C13 0.930 . S
C21 C22 1.392 . S
C21 N25 1.328 . S
C21 H27 0.930 . S
C22 C21 1.392 . S
C22 N26 1.331 . S
C23 C24 1.391 . S
C23 N26 1.329 . S
C23 H33 0.930 . S
C24 C23 1.391 . S
C24 N25 1.334 . S
C24 H31 0.930 . S
N25 Zn9 2.119 1_565 S
N25 C21 1.328 . S
N25 C24 1.334 . S
N26 C22 1.331 . S
N26 C23 1.329 . S
H27 C21 0.930 . S
C28 O8 1.257 1_565 S
C28 O29 1.244 . S
O29 C28 1.244 . S
O30 C6 1.257 . S
O30 Zn9 2.019 . S
H31 C24 0.930 . S
H32 C11 0.930 . S
H33 C23 0.930 . S
Zn34 N38 2.020 . S
Zn34 O42 2.019 . S
Zn34 N44 2.119 . S
Zn34 O52 1.975 . S
C35 N36 1.334 . S
C35 N39 1.336 . S
N36 C35 1.334 . S
N36 C37 1.334 . S
C37 N36 1.334 . S
C37 N38 1.336 . S
N38 Zn34 2.020 . S
N38 C37 1.336 . S
N38 N39 1.354 . S
N39 C35 1.336 . S
N39 N38 1.354 . S
N39 Zn43 2.020 . S
C40 O41 1.244 . S
C40 O64 1.257 . S
O41 C40 1.244 . S
O42 Zn34 2.019 . S
O42 C62 1.257 . S
Zn43 N39 2.020 . S
Zn43 O50 1.975 . S
Zn43 N59 2.119 . S
Zn43 O64 2.019 . S
N44 Zn34 2.119 . S
N44 C46 1.334 . S
N44 C47 1.328 . S
C45 C46 1.391 . S
C45 N48 1.329 . S
C45 H66 0.930 . S
C46 N44 1.334 . S
C46 C45 1.391 . S
C46 H53 0.930 . S
C47 N44 1.328 . S
C47 C49 1.392 . S
C47 H54 0.930 . S
N48 C45 1.329 . S
N48 C49 1.331 . S
C49 C47 1.392 . S
C49 N48 1.331 . S
O50 Zn43 1.975 . S
O50 C51 1.252 . S
C51 O50 1.252 . S
C51 O52 1.252 . S
O52 Zn34 1.975 . S
O52 C51 1.252 . S
H53 C46 0.930 . S
H54 C47 0.930 . S
C55 C56 1.392 . S
C55 N59 1.328 . S
C55 H61 0.930 . S
C56 C55 1.392 . S
C56 N60 1.331 . S
C57 C58 1.391 . S
C57 N60 1.329 . S
C57 H67 0.930 . S
C58 C57 1.391 . S
C58 N59 1.334 . S
C58 H65 0.930 . S
N59 Zn43 2.119 . S
N59 C55 1.328 . S
N59 C58 1.334 . S
N60 C56 1.331 . S
N60 C57 1.329 . S
H61 C55 0.930 . S
C62 O42 1.257 . S
C62 O63 1.244 . S
O63 C62 1.244 . S
O64 C40 1.257 . S
O64 Zn43 2.019 . S
H65 C58 0.930 . S
H66 C45 0.930 . S
H67 C57 0.930 . S
Zn68 N72 2.020 . S
Zn68 O76 2.019 . S
Zn68 N78 2.119 . S
Zn68 O86 1.975 . S
C69 N70 1.334 1_565 S
C69 N73 1.336 . S
N70 C69 1.334 1_545 S
N70 C71 1.332 1_545 S
C71 N70 1.332 1_565 S
C71 N72 1.348 . S
N72 Zn68 2.020 . S
N72 C71 1.348 . S
N72 N73 1.354 . S
N73 C69 1.336 . S
N73 N72 1.354 . S
N73 Zn77 2.020 . S
C74 O75 1.244 . S
C74 O98 1.257 . S
O75 C74 1.244 . S
O76 Zn68 2.019 . S
O76 C96 1.257 1_565 S
Zn77 N73 2.020 . S
Zn77 O84 1.975 . S
Zn77 N93 2.119 1_565 S
Zn77 O98 2.019 . S
N78 Zn68 2.119 . S
N78 C80 1.334 . S
N78 C81 1.328 . S
C79 C80 1.391 . S
C79 N82 1.329 . S
C79 H100 0.930 . S
C80 N78 1.334 . S
C80 C79 1.391 . S
C80 H87 0.930 . S
C81 N78 1.328 . S
C81 C83 1.392 . S
C81 H88 0.930 . S
N82 C79 1.329 . S
N82 C83 1.331 . S
C83 C81 1.392 . S
C83 N82 1.331 . S
O84 Zn77 1.975 . S
O84 C85 1.252 . S
C85 O84 1.252 . S
C85 O86 1.252 . S
O86 Zn68 1.975 . S
O86 C85 1.252 . S
H87 C80 0.930 . S
H88 C81 0.930 . S
C89 C90 1.392 . S
C89 N93 1.328 . S
C89 H95 0.930 . S
C90 C89 1.392 . S
C90 N94 1.331 . S
C91 C92 1.391 . S
C91 N94 1.329 . S
C91 H101 0.930 . S
C92 C91 1.391 . S
C92 N93 1.334 . S
C92 H99 0.930 . S
N93 Zn77 2.119 1_545 S
N93 C89 1.328 . S
N93 C92 1.334 . S
N94 C90 1.331 . S
N94 C91 1.329 . S
H95 C89 0.930 . S
C96 O76 1.257 1_545 S
C96 O97 1.244 . S
O97 C96 1.244 . S
O98 C74 1.257 . S
O98 Zn77 2.019 . S
H99 C92 0.930 . S
H100 C79 0.930 . S
H101 C91 0.930 . S
Zn102 N106 2.020 1_556 S
Zn102 O110 2.019 . S
Zn102 N112 2.119 1_556 S
Zn102 O120 1.975 . S
C103 N104 1.334 . S
C103 N107 1.336 . S
N104 C103 1.334 . S
N104 C105 1.334 . S
C105 N104 1.334 . S
C105 N106 1.336 . S
N106 Zn102 2.020 1_554 S
N106 C105 1.336 . S
N106 N107 1.354 . S
N107 C103 1.336 . S
N107 N106 1.354 . S
N107 Zn111 2.020 1_554 S
C108 O109 1.244 . S
C108 O132 1.257 1_554 S
O109 C108 1.244 . S
O110 Zn102 2.019 . S
O110 C130 1.257 . S
Zn111 N107 2.020 1_556 S
Zn111 O118 1.975 . S
Zn111 N127 2.119 . S
Zn111 O132 2.019 . S
N112 Zn102 2.119 1_554 S
N112 C114 1.334 . S
N112 C115 1.328 . S
C113 C114 1.391 . S
C113 N116 1.329 . S
C113 H134 0.930 . S
C114 N112 1.334 . S
C114 C113 1.391 . S
C114 H121 0.930 . S
C115 N112 1.328 . S
C115 C117 1.392 . S
C115 H122 0.932 . S
N116 C113 1.329 . S
N116 C117 1.331 . S
C117 C115 1.392 . S
C117 N116 1.331 . S
O118 Zn111 1.975 . S
O118 C119 1.252 . S
C119 O118 1.252 . S
C119 O120 1.252 . S
O120 Zn102 1.975 . S
O120 C119 1.252 . S
H121 C114 0.930 . S
H122 C115 0.932 . S
C123 C124 1.392 . S
C123 N127 1.328 . S
C123 H129 0.930 . S
C124 C123 1.392 . S
C124 N128 1.331 . S
C125 C126 1.391 . S
C125 N128 1.329 . S
C125 H135 0.930 . S
C126 C125 1.391 . S
C126 N127 1.334 . S
C126 H133 0.930 . S
N127 Zn111 2.119 . S
N127 C123 1.328 . S
N127 C126 1.334 . S
N128 C124 1.331 . S
N128 C125 1.329 . S
H129 C123 0.930 . S
C130 O110 1.257 . S
C130 O131 1.244 . S
O131 C130 1.244 . S
O132 C108 1.257 1_556 S
O132 Zn111 2.019 . S
H133 C126 0.930 . S
H134 C113 0.930 . S
H135 C125 0.930 . S
Zn136 N140 2.020 . S
Zn136 O144 2.019 . S
Zn136 N146 2.119 . S
Zn136 O154 1.975 . S
C137 N138 1.333 1_665 S
C137 N141 1.336 . S
N138 C137 1.333 1_445 S
N138 C139 1.334 1_545 S
C139 N138 1.334 1_565 S
C139 N140 1.336 . S
N140 Zn136 2.020 . S
N140 C139 1.336 . S
N140 N141 1.354 1_455 S
N141 C137 1.336 . S
N141 N140 1.354 1_655 S
N141 Zn145 2.020 . S
C142 O143 1.244 . S
C142 O166 1.257 . S
O143 C142 1.244 . S
O144 Zn136 2.019 . S
O144 C164 1.257 1_565 S
Zn145 N141 2.020 . S
Zn145 O152 1.975 . S
Zn145 N161 2.119 1_565 S
Zn145 O166 2.019 . S
N146 Zn136 2.119 . S
N146 C148 1.334 . S
N146 C149 1.328 . S
C147 C148 1.391 . S
C147 N150 1.329 . S
C147 H168 0.930 . S
C148 N146 1.334 . S
C148 C147 1.391 . S
C148 H155 0.930 . S
C149 N146 1.328 . S
C149 C151 1.392 . S
C149 H156 0.930 . S
N150 C147 1.329 . S
N150 C151 1.331 . S
C151 C149 1.392 . S
C151 N150 1.331 . S
O152 Zn145 1.975 . S
O152 C153 1.252 1_655 S
C153 O152 1.252 1_455 S
C153 O154 1.252 . S
O154 Zn136 1.975 . S
O154 C153 1.252 . S
H155 C148 0.930 . S
H156 C149 0.930 . S
C157 C158 1.392 . S
C157 N161 1.328 . S
C157 H163 0.930 . S
C158 C157 1.392 . S
C158 N162 1.331 . S
C159 C160 1.391 . S
C159 N162 1.329 . S
C159 H169 0.930 . S
C160 C159 1.391 . S
C160 N161 1.334 . S
C160 H167 0.930 . S
N161 Zn145 2.119 1_545 S
N161 C157 1.328 . S
N161 C160 1.334 . S
N162 C158 1.331 . S
N162 C159 1.329 . S
H163 C157 0.930 . S
C164 O144 1.257 1_545 S
C164 O165 1.244 . S
O165 C164 1.244 . S
O166 C142 1.257 . S
O166 Zn145 2.019 . S
H167 C160 0.930 . S
H168 C147 0.930 . S
H169 C159 0.930 . S
Zn170 N174 2.020 1_554 S
Zn170 O178 2.019 . S
Zn170 N180 2.119 . S
Zn170 O188 1.975 . S
C171 N172 1.334 . S
C171 N175 1.336 . S
N172 C171 1.334 . S
N172 C173 1.334 . S
C173 N172 1.334 . S
C173 N174 1.336 . S
N174 Zn170 2.020 1_556 S
N174 C173 1.336 . S
N174 N175 1.354 . S
N175 C171 1.336 . S
N175 N174 1.354 . S
N175 Zn179 2.020 1_556 S
C176 O177 1.244 . S
C176 O200 1.257 . S
O177 C176 1.244 . S
O178 Zn170 2.019 . S
O178 C198 1.257 1_554 S
Zn179 N175 2.020 1_554 S
Zn179 O186 1.975 . S
Zn179 N195 2.119 1_554 S
Zn179 O200 2.019 . S
N180 Zn170 2.119 . S
N180 C182 1.334 . S
N180 C183 1.328 . S
C181 C182 1.391 . S
C181 N184 1.329 . S
C181 H202 0.930 . S
C182 N180 1.334 . S
C182 C181 1.391 . S
C182 H189 0.930 . S
C183 N180 1.328 . S
C183 C185 1.392 . S
C183 H190 0.930 . S
N184 C181 1.329 . S
N184 C185 1.331 . S
C185 C183 1.392 . S
C185 N184 1.331 . S
O186 Zn179 1.975 . S
O186 C187 1.252 . S
C187 O186 1.252 . S
C187 O188 1.252 . S
O188 Zn170 1.975 . S
O188 C187 1.252 . S
H189 C182 0.930 . S
H190 C183 0.930 . S
C191 C192 1.392 . S
C191 N195 1.328 . S
C191 H197 0.932 . S
C192 C191 1.392 . S
C192 N196 1.331 . S
C193 C194 1.391 . S
C193 N196 1.329 . S
C193 H203 0.930 . S
C194 C193 1.391 . S
C194 N195 1.334 . S
C194 H201 0.930 . S
N195 Zn179 2.119 1_556 S
N195 C191 1.328 . S
N195 C194 1.334 . S
N196 C192 1.331 . S
N196 C193 1.329 . S
H197 C191 0.932 . S
C198 O178 1.257 1_556 S
C198 O199 1.244 . S
O199 C198 1.244 . S
O200 C176 1.257 . S
O200 Zn179 2.019 . S
H201 C194 0.930 . S
H202 C181 0.930 . S
H203 C193 0.930 . S
Zn204 N208 2.020 . S
Zn204 O212 2.019 . S
Zn204 N214 2.119 . S
Zn204 O222 1.975 . S
C205 N206 1.334 1_545 S
C205 N209 1.336 . S
N206 C205 1.334 1_565 S
N206 C207 1.332 1_565 S
C207 N206 1.332 1_545 S
C207 N208 1.348 . S
N208 Zn204 2.020 . S
N208 C207 1.348 . S
N208 N209 1.354 . S
N209 C205 1.336 . S
N209 N208 1.354 . S
N209 Zn213 2.020 . S
C210 O211 1.244 . S
C210 O234 1.257 . S
O211 C210 1.244 . S
O212 Zn204 2.019 . S
O212 C232 1.257 1_545 S
Zn213 N209 2.020 . S
Zn213 O220 1.975 . S
Zn213 N229 2.119 1_545 S
Zn213 O234 2.019 . S
N214 Zn204 2.119 . S
N214 C216 1.334 . S
N214 C217 1.328 . S
C215 C216 1.391 . S
C215 N218 1.329 . S
C215 H236 0.930 . S
C216 N214 1.334 . S
C216 C215 1.391 . S
C216 H223 0.930 . S
C217 N214 1.328 . S
C217 C219 1.392 . S
C217 H224 0.930 . S
N218 C215 1.329 . S
N218 C219 1.331 . S
C219 C217 1.392 . S
C219 N218 1.331 . S
O220 Zn213 1.975 . S
O220 C221 1.252 . S
C221 O220 1.252 . S
C221 O222 1.252 . S
O222 Zn204 1.975 . S
O222 C221 1.252 . S
H223 C216 0.930 . S
H224 C217 0.930 . S
C225 C226 1.392 . S
C225 N229 1.328 . S
C225 H231 0.930 . S
C226 C225 1.392 . S
C226 N230 1.331 . S
C227 C228 1.391 . S
C227 N230 1.329 . S
C227 H237 0.930 . S
C228 C227 1.391 . S
C228 N229 1.334 . S
C228 H235 0.930 . S
N229 Zn213 2.119 1_565 S
N229 C225 1.328 . S
N229 C228 1.334 . S
N230 C226 1.331 . S
N230 C227 1.329 . S
H231 C225 0.930 . S
C232 O212 1.257 1_565 S
C232 O233 1.244 . S
O233 C232 1.244 . S
O234 C210 1.257 . S
O234 Zn213 2.019 . S
H235 C228 0.930 . S
H236 C215 0.930 . S
H237 C227 0.930 . S
Zn238 N242 2.020 . S
Zn238 O246 2.019 . S
Zn238 N248 2.119 . S
Zn238 O256 1.975 . S
C239 N240 1.334 . S
C239 N243 1.336 . S
N240 C239 1.334 . S
N240 C241 1.334 . S
C241 N240 1.334 . S
C241 N242 1.336 . S
N242 Zn238 2.020 . S
N242 C241 1.336 . S
N242 N243 1.354 . S
N243 C239 1.336 . S
N243 N242 1.354 . S
N243 Zn247 2.020 . S
C244 O245 1.244 . S
C244 O268 1.257 . S
O245 C244 1.244 . S
O246 Zn238 2.019 . S
O246 C266 1.257 . S
Zn247 N243 2.020 . S
Zn247 O254 1.975 . S
Zn247 N263 2.119 . S
Zn247 O268 2.019 . S
N248 Zn238 2.119 . S
N248 C250 1.334 . S
N248 C251 1.328 . S
C249 C250 1.391 . S
C249 N252 1.329 . S
C249 H270 0.930 . S
C250 N248 1.334 . S
C250 C249 1.391 . S
C250 H257 0.930 . S
C251 N248 1.328 . S
C251 C253 1.392 . S
C251 H258 0.930 . S
N252 C249 1.329 . S
N252 C253 1.331 . S
C253 C251 1.392 . S
C253 N252 1.331 . S
O254 Zn247 1.975 . S
O254 C255 1.252 . S
C255 O254 1.252 . S
C255 O256 1.252 . S
O256 Zn238 1.975 . S
O256 C255 1.252 . S
H257 C250 0.930 . S
H258 C251 0.930 . S
C259 C260 1.392 . S
C259 N263 1.328 . S
C259 H265 0.930 . S
C260 C259 1.392 . S
C260 N264 1.331 . S
C261 C262 1.391 . S
C261 N264 1.329 . S
C261 H271 0.930 . S
C262 C261 1.391 . S
C262 N263 1.334 . S
C262 H269 0.930 . S
N263 Zn247 2.119 . S
N263 C259 1.328 . S
N263 C262 1.334 . S
N264 C260 1.331 . S
N264 C261 1.329 . S
H265 C259 0.930 . S
C266 O246 1.257 . S
C266 O267 1.244 . S
O267 C266 1.244 . S
O268 C244 1.257 . S
O268 Zn247 2.019 . S
H269 C262 0.930 . S
H270 C249 0.930 . S
H271 C261 0.930 . S
Zn272 N276 2.020 . S
Zn272 O280 2.019 . S
Zn272 N282 2.119 . S
Zn272 O290 1.975 . S
C273 N274 1.334 . S
C273 N277 1.336 . S
N274 C273 1.334 . S
N274 C275 1.334 . S
C275 N274 1.334 . S
C275 N276 1.336 . S
N276 Zn272 2.020 . S
N276 C275 1.336 . S
N276 N277 1.354 . S
N277 C273 1.336 . S
N277 N276 1.354 . S
N277 Zn281 2.020 . S
C278 O279 1.244 . S
C278 O302 1.257 . S
O279 C278 1.244 . S
O280 Zn272 2.019 . S
O280 C300 1.257 . S
Zn281 N277 2.020 . S
Zn281 O288 1.975 . S
Zn281 N297 2.119 . S
Zn281 O302 2.019 . S
N282 Zn272 2.119 . S
N282 C284 1.334 . S
N282 C285 1.328 . S
C283 C284 1.391 . S
C283 N286 1.329 . S
C283 H304 0.930 . S
C284 N282 1.334 . S
C284 C283 1.391 . S
C284 H291 0.930 . S
C285 N282 1.328 . S
C285 C287 1.392 . S
C285 H292 0.930 . S
N286 C283 1.329 . S
N286 C287 1.331 . S
C287 C285 1.392 . S
C287 N286 1.331 . S
O288 Zn281 1.975 . S
O288 C289 1.252 . S
C289 O288 1.252 . S
C289 O290 1.252 . S
O290 Zn272 1.975 . S
O290 C289 1.252 . S
H291 C284 0.930 . S
H292 C285 0.930 . S
C293 C294 1.392 . S
C293 N297 1.328 . S
C293 H299 0.930 . S
C294 C293 1.392 . S
C294 N298 1.331 . S
C295 C296 1.391 . S
C295 N298 1.329 . S
C295 H305 0.930 . S
C296 C295 1.391 . S
C296 N297 1.334 . S
C296 H303 0.930 . S
N297 Zn281 2.119 . S
N297 C293 1.328 . S
N297 C296 1.334 . S
N298 C294 1.331 . S
N298 C295 1.329 . S
H299 C293 0.930 . S
C300 O280 1.257 . S
C300 O301 1.244 . S
O301 C300 1.244 . S
O302 C278 1.257 . S
O302 Zn281 2.019 . S
H303 C296 0.930 . S
H304 C283 0.930 . S
H305 C295 0.930 . S
Zn306 N310 2.020 1_554 S
Zn306 O314 2.019 . S
Zn306 N316 2.119 1_554 S
Zn306 O324 1.975 . S
C307 N308 1.334 . S
C307 N311 1.336 . S
N308 C307 1.334 . S
N308 C309 1.334 . S
C309 N308 1.334 . S
C309 N310 1.336 . S
N310 Zn306 2.020 1_556 S
N310 C309 1.336 . S
N310 N311 1.354 . S
N311 C307 1.336 . S
N311 N310 1.354 . S
N311 Zn315 2.020 1_556 S
C312 O313 1.244 . S
C312 O336 1.257 1_556 S
O313 C312 1.244 . S
O314 Zn306 2.019 . S
O314 C334 1.257 . S
Zn315 N311 2.020 1_554 S
Zn315 O322 1.975 . S
Zn315 N331 2.119 . S
Zn315 O336 2.019 . S
N316 Zn306 2.119 1_556 S
N316 C318 1.334 . S
N316 C319 1.328 . S
C317 C318 1.391 . S
C317 N320 1.329 . S
C317 H338 0.930 . S
C318 N316 1.334 . S
C318 C317 1.391 . S
C318 H325 0.930 . S
C319 N316 1.328 . S
C319 C321 1.392 . S
C319 H326 0.932 . S
N320 C317 1.329 . S
N320 C321 1.331 . S
C321 C319 1.392 . S
C321 N320 1.331 . S
O322 Zn315 1.975 . S
O322 C323 1.252 . S
C323 O322 1.252 . S
C323 O324 1.252 . S
O324 Zn306 1.975 . S
O324 C323 1.252 . S
H325 C318 0.930 . S
H326 C319 0.932 . S
C327 C328 1.392 . S
C327 N331 1.328 . S
C327 H333 0.930 . S
C328 C327 1.392 . S
C328 N332 1.331 . S
C329 C330 1.391 . S
C329 N332 1.329 . S
C329 H339 0.930 . S
C330 C329 1.391 . S
C330 N331 1.334 . S
C330 H337 0.930 . S
N331 Zn315 2.119 . S
N331 C327 1.328 . S
N331 C330 1.334 . S
N332 C328 1.331 . S
N332 C329 1.329 . S
H333 C327 0.930 . S
C334 O314 1.257 . S
C334 O335 1.244 . S
O335 C334 1.244 . S
O336 C312 1.257 1_554 S
O336 Zn315 2.019 . S
H337 C330 0.930 . S
H338 C317 0.930 . S
H339 C329 0.930 . S
Zn340 N344 2.020 1_556 S
Zn340 O348 2.019 . S
Zn340 N350 2.119 . S
Zn340 O358 1.975 . S
C341 N342 1.334 . S
C341 N345 1.336 . S
N342 C341 1.334 . S
N342 C343 1.334 . S
C343 N342 1.334 . S
C343 N344 1.336 . S
N344 Zn340 2.020 1_554 S
N344 C343 1.336 . S
N344 N345 1.354 . S
N345 C341 1.336 . S
N345 N344 1.354 . S
N345 Zn349 2.020 1_554 S
C346 O347 1.244 . S
C346 O370 1.257 . S
O347 C346 1.244 . S
O348 Zn340 2.019 . S
O348 C368 1.257 1_556 S
Zn349 N345 2.020 1_556 S
Zn349 O356 1.975 . S
Zn349 N365 2.119 1_556 S
Zn349 O370 2.019 . S
N350 Zn340 2.119 . S
N350 C352 1.334 . S
N350 C353 1.328 . S
C351 C352 1.391 . S
C351 N354 1.329 . S
C351 H372 0.930 . S
C352 N350 1.334 . S
C352 C351 1.391 . S
C352 H359 0.930 . S
C353 N350 1.328 . S
C353 C355 1.392 . S
C353 H360 0.930 . S
N354 C351 1.329 . S
N354 C355 1.331 . S
C355 C353 1.392 . S
C355 N354 1.331 . S
O356 Zn349 1.975 . S
O356 C357 1.252 . S
C357 O356 1.252 . S
C357 O358 1.252 . S
O358 Zn340 1.975 . S
O358 C357 1.252 . S
H359 C352 0.930 . S
H360 C353 0.930 . S
C361 C362 1.392 . S
C361 N365 1.328 . S
C361 H367 0.932 . S
C362 C361 1.392 . S
C362 N366 1.331 . S
C363 C364 1.391 . S
C363 N366 1.329 . S
C363 H373 0.930 . S
C364 C363 1.391 . S
C364 N365 1.334 . S
C364 H371 0.930 . S
N365 Zn349 2.119 1_554 S
N365 C361 1.328 . S
N365 C364 1.334 . S
N366 C362 1.331 . S
N366 C363 1.329 . S
H367 C361 0.932 . S
C368 O348 1.257 1_554 S
C368 O369 1.244 . S
O369 C368 1.244 . S
O370 C346 1.257 . S
O370 Zn349 2.019 . S
H371 C364 0.930 . S
H372 C351 0.930 . S
H373 C363 0.930 . S
Zn374 N378 2.020 . S
Zn374 O382 2.019 . S
Zn374 N384 2.119 . S
Zn374 O392 1.975 . S
C375 N376 1.334 . S
C375 N379 1.336 . S
N376 C375 1.334 . S
N376 C377 1.334 . S
C377 N376 1.334 . S
C377 N378 1.336 . S
N378 Zn374 2.020 . S
N378 C377 1.336 . S
N378 N379 1.354 . S
N379 C375 1.336 . S
N379 N378 1.354 . S
N379 Zn383 2.020 . S
C380 O381 1.244 . S
C380 O404 1.257 . S
O381 C380 1.244 . S
O382 Zn374 2.019 . S
O382 C402 1.257 . S
Zn383 N379 2.020 . S
Zn383 O390 1.975 . S
Zn383 N399 2.119 . S
Zn383 O404 2.019 . S
N384 Zn374 2.119 . S
N384 C386 1.334 . S
N384 C387 1.328 . S
C385 C386 1.391 . S
C385 N388 1.329 . S
C385 H406 0.930 . S
C386 N384 1.334 . S
C386 C385 1.391 . S
C386 H393 0.930 . S
C387 N384 1.328 . S
C387 C389 1.392 . S
C387 H394 0.930 . S
N388 C385 1.329 . S
N388 C389 1.331 . S
C389 C387 1.392 . S
C389 N388 1.331 . S
O390 Zn383 1.975 . S
O390 C391 1.252 . S
C391 O390 1.252 . S
C391 O392 1.252 . S
O392 Zn374 1.975 . S
O392 C391 1.252 . S
H393 C386 0.930 . S
H394 C387 0.930 . S
C395 C396 1.392 . S
C395 N399 1.328 . S
C395 H401 0.930 . S
C396 C395 1.392 . S
C396 N400 1.331 . S
C397 C398 1.391 . S
C397 N400 1.329 . S
C397 H407 0.930 . S
C398 C397 1.391 . S
C398 N399 1.334 . S
C398 H405 0.930 . S
N399 Zn383 2.119 . S
N399 C395 1.328 . S
N399 C398 1.334 . S
N400 C396 1.331 . S
N400 C397 1.329 . S
H401 C395 0.930 . S
C402 O382 1.257 . S
C402 O403 1.244 . S
O403 C402 1.244 . S
O404 C380 1.257 . S
O404 Zn383 2.019 . S
H405 C398 0.930 . S
H406 C385 0.930 . S
H407 C397 0.930 . S
Zn408 N412 2.020 . S
Zn408 O416 2.019 . S
Zn408 N418 2.119 . S
Zn408 O426 1.975 . S
C409 N410 1.334 . S
C409 N413 1.336 . S
N410 C409 1.334 . S
N410 C411 1.334 . S
C411 N410 1.334 . S
C411 N412 1.336 . S
N412 Zn408 2.020 . S
N412 C411 1.336 . S
N412 N413 1.354 . S
N413 C409 1.336 . S
N413 N412 1.354 . S
N413 Zn417 2.020 . S
C414 O415 1.244 . S
C414 O438 1.257 . S
O415 C414 1.244 . S
O416 Zn408 2.019 . S
O416 C436 1.257 . S
Zn417 N413 2.020 . S
Zn417 O424 1.975 . S
Zn417 N433 2.119 . S
Zn417 O438 2.019 . S
N418 Zn408 2.119 . S
N418 C420 1.334 . S
N418 C421 1.328 . S
C419 C420 1.391 . S
C419 N422 1.329 . S
C419 H440 0.930 . S
C420 N418 1.334 . S
C420 C419 1.391 . S
C420 H427 0.930 . S
C421 N418 1.328 . S
C421 C423 1.392 . S
C421 H428 0.930 . S
N422 C419 1.329 . S
N422 C423 1.331 . S
C423 C421 1.392 . S
C423 N422 1.331 . S
O424 Zn417 1.975 . S
O424 C425 1.252 . S
C425 O424 1.252 . S
C425 O426 1.252 . S
O426 Zn408 1.975 . S
O426 C425 1.252 . S
H427 C420 0.930 . S
H428 C421 0.930 . S
C429 C430 1.392 . S
C429 N433 1.328 . S
C429 H435 0.930 . S
C430 C429 1.392 . S
C430 N434 1.331 . S
C431 C432 1.391 . S
C431 N434 1.329 . S
C431 H441 0.930 . S
C432 C431 1.391 . S
C432 N433 1.334 . S
C432 H439 0.930 . S
N433 Zn417 2.119 . S
N433 C429 1.328 . S
N433 C432 1.334 . S
N434 C430 1.331 . S
N434 C431 1.329 . S
H435 C429 0.930 . S
C436 O416 1.257 . S
C436 O437 1.244 . S
O437 C436 1.244 . S
O438 C414 1.257 . S
O438 Zn417 2.019 . S
H439 C432 0.930 . S
H440 C419 0.930 . S
H441 C431 0.930 . S
Zn442 N446 2.020 . S
Zn442 O450 2.019 . S
Zn442 N452 2.119 . S
Zn442 O460 1.975 . S
C443 N444 1.334 . S
C443 N447 1.336 . S
N444 C443 1.334 . S
N444 C445 1.334 1_455 S
C445 N444 1.334 1_655 S
C445 N446 1.336 . S
N446 Zn442 2.020 . S
N446 C445 1.336 . S
N446 N447 1.354 1_655 S
N447 C443 1.336 . S
N447 N446 1.354 1_455 S
N447 Zn451 2.020 . S
C448 O449 1.244 . S
C448 O472 1.257 . S
O449 C448 1.244 . S
O450 Zn442 2.019 . S
O450 C470 1.257 . S
Zn451 N447 2.020 . S
Zn451 O458 1.975 . S
Zn451 N467 2.119 . S
Zn451 O472 2.019 . S
N452 Zn442 2.119 . S
N452 C454 1.334 . S
N452 C455 1.328 . S
C453 C454 1.391 . S
C453 N456 1.329 . S
C453 H474 0.930 . S
C454 N452 1.334 . S
C454 C453 1.391 . S
C454 H461 0.930 . S
C455 N452 1.328 . S
C455 C457 1.392 . S
C455 H462 0.930 . S
N456 C453 1.329 . S
N456 C457 1.331 . S
C457 C455 1.392 . S
C457 N456 1.331 . S
O458 Zn451 1.975 . S
O458 C459 1.252 . S
C459 O458 1.252 . S
C459 O460 1.252 1_455 S
O460 Zn442 1.975 . S
O460 C459 1.252 1_655 S
H461 C454 0.930 . S
H462 C455 0.930 . S
C463 C464 1.392 . S
C463 N467 1.328 . S
C463 H469 0.930 . S
C464 C463 1.392 . S
C464 N468 1.331 . S
C465 C466 1.391 . S
C465 N468 1.329 . S
C465 H475 0.930 . S
C466 C465 1.391 . S
C466 N467 1.334 . S
C466 H473 0.930 . S
N467 Zn451 2.119 . S
N467 C463 1.328 . S
N467 C466 1.334 . S
N468 C464 1.331 . S
N468 C465 1.329 . S
H469 C463 0.930 . S
C470 O450 1.257 . S
C470 O471 1.244 . S
O471 C470 1.244 . S
O472 C448 1.257 . S
O472 Zn451 2.019 . S
H473 C466 0.930 . S
H474 C453 0.930 . S
H475 C465 0.930 . S
Zn476 N480 2.020 . S
Zn476 O484 2.019 . S
Zn476 N486 2.119 . S
Zn476 O494 1.975 . S
C477 N478 1.334 . S
C477 N481 1.336 . S
N478 C477 1.334 . S
N478 C479 1.334 . S
C479 N478 1.334 . S
C479 N480 1.336 . S
N480 Zn476 2.020 . S
N480 C479 1.336 . S
N480 N481 1.354 . S
N481 C477 1.336 . S
N481 N480 1.354 . S
N481 Zn485 2.020 . S
C482 O483 1.244 . S
C482 O506 1.257 . S
O483 C482 1.244 . S
O484 Zn476 2.019 . S
O484 C504 1.257 . S
Zn485 N481 2.020 . S
Zn485 O492 1.975 . S
Zn485 N501 2.119 . S
Zn485 O506 2.019 . S
N486 Zn476 2.119 . S
N486 C488 1.334 . S
N486 C489 1.328 . S
C487 C488 1.391 . S
C487 N490 1.329 . S
C487 H508 0.930 . S
C488 N486 1.334 . S
C488 C487 1.391 . S
C488 H495 0.930 . S
C489 N486 1.328 . S
C489 C491 1.392 . S
C489 H496 0.930 . S
N490 C487 1.329 . S
N490 C491 1.331 . S
C491 C489 1.392 . S
C491 N490 1.331 . S
O492 Zn485 1.975 . S
O492 C493 1.252 . S
C493 O492 1.252 . S
C493 O494 1.252 . S
O494 Zn476 1.975 . S
O494 C493 1.252 . S
H495 C488 0.930 . S
H496 C489 0.930 . S
C497 C498 1.392 . S
C497 N501 1.328 . S
C497 H503 0.930 . S
C498 C497 1.392 . S
C498 N502 1.331 . S
C499 C500 1.391 . S
C499 N502 1.329 . S
C499 H509 0.930 . S
C500 C499 1.391 . S
C500 N501 1.334 . S
C500 H507 0.930 . S
N501 Zn485 2.119 . S
N501 C497 1.328 . S
N501 C500 1.334 . S
N502 C498 1.331 . S
N502 C499 1.329 . S
H503 C497 0.930 . S
C504 O484 1.257 . S
C504 O505 1.244 . S
O505 C504 1.244 . S
O506 C482 1.257 . S
O506 Zn485 2.019 . S
H507 C500 0.930 . S
H508 C487 0.930 . S
H509 C499 0.930 . S
Zn510 N514 2.020 . S
Zn510 O518 2.019 . S
Zn510 N520 2.119 . S
Zn510 O528 1.975 . S
C511 N512 1.334 1_655 S
C511 N515 1.336 . S
N512 C511 1.334 1_455 S
N512 C513 1.334 . S
C513 N512 1.334 . S
C513 N514 1.336 . S
N514 Zn510 2.020 . S
N514 C513 1.336 . S
N514 N515 1.354 1_455 S
N515 C511 1.336 . S
N515 N514 1.354 1_655 S
N515 Zn519 2.020 . S
C516 O517 1.244 . S
C516 O540 1.257 . S
O517 C516 1.244 . S
O518 Zn510 2.019 . S
O518 C538 1.257 . S
Zn519 N515 2.020 . S
Zn519 O526 1.975 . S
Zn519 N535 2.119 . S
Zn519 O540 2.019 . S
N520 Zn510 2.119 . S
N520 C522 1.334 . S
N520 C523 1.328 . S
C521 C522 1.391 . S
C521 N524 1.329 . S
C521 H542 0.930 . S
C522 N520 1.334 . S
C522 C521 1.391 . S
C522 H529 0.930 . S
C523 N520 1.328 . S
C523 C525 1.392 . S
C523 H530 0.930 . S
N524 C521 1.329 . S
N524 C525 1.331 . S
C525 C523 1.392 . S
C525 N524 1.331 . S
O526 Zn519 1.975 . S
O526 C527 1.252 1_655 S
C527 O526 1.252 1_455 S
C527 O528 1.252 . S
O528 Zn510 1.975 . S
O528 C527 1.252 . S
H529 C522 0.930 . S
H530 C523 0.930 . S
C531 C532 1.392 . S
C531 N535 1.328 . S
C531 H537 0.930 . S
C532 C531 1.392 . S
C532 N536 1.331 . S
C533 C534 1.391 . S
C533 N536 1.329 . S
C533 H543 0.930 . S
C534 C533 1.391 . S
C534 N535 1.334 . S
C534 H541 0.930 . S
N535 Zn519 2.119 . S
N535 C531 1.328 . S
N535 C534 1.334 . S
N536 C532 1.331 . S
N536 C533 1.329 . S
H537 C531 0.930 . S
C538 O518 1.257 . S
C538 O539 1.244 . S
O539 C538 1.244 . S
O540 C516 1.257 . S
O540 Zn519 2.019 . S
H541 C534 0.930 . S
H542 C521 0.930 . S
H543 C533 0.930 . S
H544 C550 0.930 . S
H545 C554 0.930 . S
H546 C559 0.915 1_545 S
H547 C557 0.915 1_565 S
H548 C552 0.929 . S
H549 C558 0.929 . S
C550 H544 0.930 . S
C550 C551 1.367 . S
C550 C558 1.378 . S
C551 C550 1.367 . S
C551 C559 1.433 1_455 S
C552 H548 0.929 . S
C552 C554 1.378 . S
C552 C556 1.350 1_655 S
C553 C556 1.463 1_566 S
C553 C558 1.350 . S
C553 N561 1.427 1_465 S
C554 H545 0.930 . S
C554 C552 1.378 . S
C554 C555 1.367 1_655 S
C555 C554 1.367 1_455 S
C555 C557 1.433 . S
C556 C552 1.350 1_455 S
C556 C553 1.463 1_544 S
C556 N560 1.427 1_545 S
C557 H547 0.915 1_545 S
C557 C555 1.433 . S
C557 N560 1.384 1_545 S
C558 H549 0.929 . S
C558 C550 1.378 . S
C558 C553 1.350 . S
C559 H546 0.915 1_565 S
C559 C551 1.433 1_655 S
C559 N561 1.384 1_565 S
N560 C556 1.427 1_565 S
N560 C557 1.384 1_565 S
N561 C553 1.427 1_645 S
N561 C559 1.384 1_545 S
H562 C568 0.930 . S
H563 C572 0.930 . S
H564 C577 0.929 . S
H565 C575 0.929 . S
H566 C570 0.929 . S
H567 C576 0.929 . S
C568 H562 0.930 . S
C568 C569 1.367 . S
C568 C576 1.378 . S
C569 C568 1.367 . S
C569 C577 1.433 . S
C570 H566 0.929 . S
C570 C572 1.378 . S
C570 C574 1.350 . S
C571 C574 1.463 . S
C571 C576 1.350 . S
C571 N579 1.427 . S
C572 H563 0.930 . S
C572 C570 1.378 . S
C572 C573 1.367 . S
C573 C572 1.367 . S
C573 C575 1.433 . S
C574 C570 1.350 . S
C574 C571 1.463 . S
C574 N578 1.427 . S
C575 H565 0.929 . S
C575 C573 1.433 . S
C575 N578 1.384 . S
C576 H567 0.929 . S
C576 C568 1.378 . S
C576 C571 1.350 . S
C577 H564 0.929 . S
C577 C569 1.433 . S
C577 N579 1.384 . S
N578 C574 1.427 . S
N578 C575 1.384 . S
N579 C571 1.427 . S
N579 C577 1.384 . S
H580 C586 0.930 . S
H581 C590 0.930 . S
H582 C595 0.929 . S
H583 C593 0.929 . S
H584 C588 0.929 . S
H585 C594 0.929 . S
C586 H580 0.930 . S
C586 C587 1.367 . S
C586 C594 1.378 . S
C587 C586 1.367 . S
C587 C595 1.433 . S
C588 H584 0.929 . S
C588 C590 1.378 . S
C588 C592 1.350 . S
C589 C592 1.463 1_545 S
C589 C594 1.350 . S
C589 N597 1.427 1_545 S
C590 H581 0.930 . S
C590 C588 1.378 . S
C590 C591 1.367 . S
C591 C590 1.367 . S
C591 C593 1.433 . S
C592 C588 1.350 . S
C592 C589 1.463 1_565 S
C592 N596 1.427 1_565 S
C593 H583 0.929 . S
C593 C591 1.433 . S
C593 N596 1.384 1_565 S
C594 H585 0.929 . S
C594 C586 1.378 . S
C594 C589 1.350 . S
C595 H582 0.929 . S
C595 C587 1.433 . S
C595 N597 1.384 1_545 S
N596 C592 1.427 1_545 S
N596 C593 1.384 1_545 S
N597 C589 1.427 1_565 S
N597 C595 1.384 1_565 S
H598 C604 0.930 . S
H599 C608 0.930 . S
H600 C613 0.929 . S
H601 C611 0.929 . S
H602 C606 0.929 . S
H603 C612 0.929 . S
C604 H598 0.930 . S
C604 C605 1.367 . S
C604 C612 1.378 . S
C605 C604 1.367 . S
C605 C613 1.433 . S
C606 H602 0.929 . S
C606 C608 1.378 . S
C606 C610 1.350 . S
C607 C610 1.463 . S
C607 C612 1.350 . S
C607 N615 1.427 . S
C608 H599 0.930 . S
C608 C606 1.378 . S
C608 C609 1.367 . S
C609 C608 1.367 . S
C609 C611 1.433 . S
C610 C606 1.350 . S
C610 C607 1.463 . S
C610 N614 1.427 . S
C611 H601 0.929 . S
C611 C609 1.433 . S
C611 N614 1.384 . S
C612 H603 0.929 . S
C612 C604 1.378 . S
C612 C607 1.350 . S
C613 H600 0.929 . S
C613 C605 1.433 . S
C613 N615 1.384 . S
N614 C610 1.427 . S
N614 C611 1.384 . S
N615 C607 1.427 . S
N615 C613 1.384 . S
H616 C622 0.930 . S
H617 C626 0.930 . S
H618 C631 0.929 . S
H619 C629 0.929 . S
H620 C624 0.929 . S
H621 C630 0.929 . S
C622 H616 0.930 . S
C622 C623 1.367 . S
C622 C630 1.378 . S
C623 C622 1.367 . S
C623 C631 1.433 . S
C624 H620 0.929 . S
C624 C626 1.378 . S
C624 C628 1.350 . S
C625 C628 1.463 . S
C625 C630 1.350 . S
C625 N633 1.427 . S
C626 H617 0.930 . S
C626 C624 1.378 . S
C626 C627 1.367 . S
C627 C626 1.367 . S
C627 C629 1.433 . S
C628 C624 1.350 . S
C628 C625 1.463 . S
C628 N632 1.427 . S
C629 H619 0.929 . S
C629 C627 1.433 . S
C629 N632 1.384 . S
C630 H621 0.929 . S
C630 C622 1.378 . S
C630 C625 1.350 . S
C631 H618 0.929 . S
C631 C623 1.433 . S
C631 N633 1.384 . S
N632 C628 1.427 . S
N632 C629 1.384 . S
N633 C625 1.427 . S
N633 C631 1.384 . S
H634 C640 0.930 . S
H635 C644 0.930 . S
H636 C649 0.929 . S
H637 C647 0.929 . S
H638 C642 0.929 . S
H639 C648 0.929 . S
C640 H634 0.930 . S
C640 C641 1.367 . S
C640 C648 1.378 . S
C641 C640 1.367 . S
C641 C649 1.433 . S
C642 H638 0.929 . S
C642 C644 1.378 . S
C642 C646 1.350 . S
C643 C646 1.463 . S
C643 C648 1.350 . S
C643 N651 1.427 . S
C644 H635 0.930 . S
C644 C642 1.378 . S
C644 C645 1.367 . S
C645 C644 1.367 . S
C645 C647 1.433 . S
C646 C642 1.350 . S
C646 C643 1.463 . S
C646 N650 1.427 . S
C647 H637 0.929 . S
C647 C645 1.433 . S
C647 N650 1.384 . S
C648 H639 0.929 . S
C648 C640 1.378 . S
C648 C643 1.350 . S
C649 H636 0.929 . S
C649 C641 1.433 . S
C649 N651 1.384 . S
N650 C646 1.427 . S
N650 C647 1.384 . S
N651 C643 1.427 . S
N651 C649 1.384 . S
H652 C658 0.930 . S
H653 C662 0.930 . S
H654 C667 0.929 . S
H655 C665 0.929 . S
H656 C660 0.929 . S
H657 C666 0.929 . S
C658 H652 0.930 . S
C658 C659 1.367 . S
C658 C666 1.378 . S
C659 C658 1.367 . S
C659 C667 1.433 . S
C660 H656 0.929 . S
C660 C662 1.378 . S
C660 C664 1.350 . S
C661 C664 1.463 . S
C661 C666 1.350 . S
C661 N669 1.427 . S
C662 H653 0.930 . S
C662 C660 1.378 . S
C662 C663 1.367 . S
C663 C662 1.367 . S
C663 C665 1.433 . S
C664 C660 1.350 . S
C664 C661 1.463 . S
C664 N668 1.427 . S
C665 H655 0.929 . S
C665 C663 1.433 . S
C665 N668 1.384 . S
C666 H657 0.929 . S
C666 C658 1.378 . S
C666 C661 1.350 . S
C667 H654 0.929 . S
C667 C659 1.433 . S
C667 N669 1.384 . S
N668 C664 1.427 . S
N668 C665 1.384 . S
N669 C661 1.427 . S
N669 C667 1.384 . S
H670 C676 0.930 . S
H671 C680 0.930 . S
H672 C685 0.929 . S
H673 C683 0.929 . S
H674 C678 0.929 . S
H675 C684 0.929 . S
C676 H670 0.930 . S
C676 C677 1.367 . S
C676 C684 1.378 . S
C677 C676 1.367 . S
C677 C685 1.433 . S
C678 H674 0.929 . S
C678 C680 1.378 . S
C678 C682 1.350 . S
C679 C682 1.463 1_554 S
C679 C684 1.350 . S
C679 N687 1.427 . S
C680 H671 0.930 . S
C680 C678 1.378 . S
C680 C681 1.367 . S
C681 C680 1.367 . S
C681 C683 1.433 . S
C682 C678 1.350 . S
C682 C679 1.463 1_556 S
C682 N686 1.427 . S
C683 H673 0.929 . S
C683 C681 1.433 . S
C683 N686 1.384 . S
C684 H675 0.929 . S
C684 C676 1.378 . S
C684 C679 1.350 . S
C685 H672 0.929 . S
C685 C677 1.433 . S
C685 N687 1.384 . S
N686 C682 1.427 . S
N686 C683 1.384 . S
N687 C679 1.427 . S
N687 C685 1.384 . S
H688 C694 0.930 . S
H689 C698 0.930 . S
H690 C703 0.929 . S
H691 C701 0.929 . S
H692 C696 0.929 . S
H693 C702 0.929 . S
C694 H688 0.930 . S
C694 C695 1.367 . S
C694 C702 1.378 . S
C695 C694 1.367 . S
C695 C703 1.433 . S
C696 H692 0.929 . S
C696 C698 1.378 . S
C696 C700 1.350 . S
C697 C700 1.463 . S
C697 C702 1.350 . S
C697 N705 1.427 . S
C698 H689 0.930 . S
C698 C696 1.378 . S
C698 C699 1.367 . S
C699 C698 1.367 . S
C699 C701 1.433 . S
C700 C696 1.350 . S
C700 C697 1.463 . S
C700 N704 1.427 . S
C701 H691 0.929 . S
C701 C699 1.433 . S
C701 N704 1.384 . S
C702 H693 0.929 . S
C702 C694 1.378 . S
C702 C697 1.350 . S
C703 H690 0.929 . S
C703 C695 1.433 . S
C703 N705 1.384 . S
N704 C700 1.427 . S
N704 C701 1.384 . S
N705 C697 1.427 . S
N705 C703 1.384 . S
H706 C712 0.930 . S
H707 C716 0.930 . S
H708 C721 0.929 . S
H709 C719 0.929 . S
H710 C714 0.929 . S
H711 C720 0.929 . S
C712 H706 0.930 . S
C712 C713 1.367 . S
C712 C720 1.378 . S
C713 C712 1.367 . S
C713 C721 1.433 . S
C714 H710 0.929 . S
C714 C716 1.378 . S
C714 C718 1.350 . S
C715 C718 1.463 . S
C715 C720 1.350 . S
C715 N723 1.427 . S
C716 H707 0.930 . S
C716 C714 1.378 . S
C716 C717 1.367 . S
C717 C716 1.367 . S
C717 C719 1.433 . S
C718 C714 1.350 . S
C718 C715 1.463 . S
C718 N722 1.427 . S
C719 H709 0.929 . S
C719 C717 1.433 . S
C719 N722 1.384 . S
C720 H711 0.929 . S
C720 C712 1.378 . S
C720 C715 1.350 . S
C721 H708 0.929 . S
C721 C713 1.433 . S
C721 N723 1.384 . S
N722 C718 1.427 . S
N722 C719 1.384 . S
N723 C715 1.427 . S
N723 C721 1.384 . S
H724 C730 0.930 . S
H725 C734 0.930 . S
H726 C739 0.929 . S
H727 C737 0.929 . S
H728 C732 0.929 . S
H729 C738 0.929 . S
C730 H724 0.930 . S
C730 C731 1.367 . S
C730 C738 1.378 . S
C731 C730 1.367 . S
C731 C739 1.433 . S
C732 H728 0.929 . S
C732 C734 1.378 . S
C732 C736 1.350 . S
C733 C736 1.463 . S
C733 C738 1.350 . S
C733 N741 1.427 . S
C734 H725 0.930 . S
C734 C732 1.378 . S
C734 C735 1.367 . S
C735 C734 1.367 . S
C735 C737 1.433 . S
C736 C732 1.350 . S
C736 C733 1.463 . S
C736 N740 1.427 . S
C737 H727 0.929 . S
C737 C735 1.433 . S
C737 N740 1.384 . S
C738 H729 0.929 . S
C738 C730 1.378 . S
C738 C733 1.350 . S
C739 H726 0.929 . S
C739 C731 1.433 . S
C739 N741 1.384 . S
N740 C736 1.427 . S
N740 C737 1.384 . S
N741 C733 1.427 . S
N741 C739 1.384 . S
H742 C748 0.930 . S
H743 C752 0.930 . S
H744 C757 0.929 . S
H745 C755 0.929 1_565 S
H746 C750 0.929 . S
H747 C756 0.929 . S
C748 H742 0.930 . S
C748 C749 1.367 1_554 S
C748 C756 1.378 1_554 S
C749 C748 1.367 1_556 S
C749 C757 1.433 . S
C750 H746 0.929 . S
C750 C752 1.378 . S
C750 C754 1.350 . S
C751 C754 1.463 . S
C751 C756 1.350 . S
C751 N759 1.427 . S
C752 H743 0.930 . S
C752 C750 1.378 . S
C752 C753 1.367 . S
C753 C752 1.367 . S
C753 C755 1.433 . S
C754 C750 1.350 . S
C754 C751 1.463 . S
C754 N758 1.427 . S
C755 H745 0.929 1_545 S
C755 C753 1.433 . S
C755 N758 1.384 . S
C756 H747 0.929 . S
C756 C748 1.378 1_556 S
C756 C751 1.350 . S
C757 H744 0.929 . S
C757 C749 1.433 . S
C757 N759 1.384 . S
N758 C754 1.427 . S
N758 C755 1.384 . S
N759 C751 1.427 . S
N759 C757 1.384 . S
H760 C766 0.930 . S
H761 C770 0.930 . S
H762 C775 0.929 . S
H763 C773 0.929 . S
H764 C768 0.929 . S
H765 C774 0.929 . S
C766 H760 0.930 . S
C766 C767 1.367 . S
C766 C774 1.378 . S
C767 C766 1.367 . S
C767 C775 1.433 . S
C768 H764 0.929 . S
C768 C770 1.378 . S
C768 C772 1.350 . S
C769 C772 1.463 . S
C769 C774 1.350 . S
C769 N777 1.427 . S
C770 H761 0.930 . S
C770 C768 1.378 . S
C770 C771 1.367 . S
C771 C770 1.367 . S
C771 C773 1.433 . S
C772 C768 1.350 . S
C772 C769 1.463 . S
C772 N776 1.427 . S
C773 H763 0.929 . S
C773 C771 1.433 . S
C773 N776 1.384 . S
C774 H765 0.929 . S
C774 C766 1.378 . S
C774 C769 1.350 . S
C775 H762 0.929 . S
C775 C767 1.433 . S
C775 N777 1.384 . S
N776 C772 1.427 . S
N776 C773 1.384 . S
N777 C769 1.427 . S
N777 C775 1.384 . S
H778 C784 0.930 . S
H779 C788 0.930 . S
H780 C793 0.929 1_545 S
H781 C791 0.929 . S
H782 C786 0.929 1_556 S
H783 C792 0.929 . S
C784 H778 0.930 . S
C784 C785 1.367 . S
C784 C792 1.378 . S
C785 C784 1.367 . S
C785 C793 1.433 . S
C786 H782 0.929 1_554 S
C786 C788 1.378 1_554 S
C786 C790 1.350 . S
C787 C790 1.463 . S
C787 C792 1.350 . S
C787 N795 1.427 . S
C788 H779 0.930 . S
C788 C786 1.378 1_556 S
C788 C789 1.360 1_556 S
C789 C788 1.360 1_554 S
C789 C791 1.447 . S
C790 C786 1.350 . S
C790 C787 1.463 . S
C790 N794 1.427 . S
C791 H781 0.929 . S
C791 C789 1.447 . S
C791 N794 1.384 . S
C792 H783 0.929 . S
C792 C784 1.378 . S
C792 C787 1.350 . S
C793 H780 0.929 1_565 S
C793 C785 1.433 . S
C793 N795 1.384 . S
N794 C790 1.427 . S
N794 C791 1.384 . S
N795 C787 1.427 . S
N795 C793 1.384 . S
H796 C802 0.930 . S
H797 C806 0.930 . S
H798 C811 0.929 . S
H799 C809 0.929 . S
H800 C804 0.929 . S
H801 C810 0.929 . S
C802 H796 0.930 . S
C802 C803 1.367 . S
C802 C810 1.378 . S
C803 C802 1.367 . S
C803 C811 1.433 . S
C804 H800 0.929 . S
C804 C806 1.378 . S
C804 C808 1.350 . S
C805 C808 1.463 . S
C805 C810 1.350 . S
C805 N813 1.427 . S
C806 H797 0.930 . S
C806 C804 1.378 . S
C806 C807 1.367 . S
C807 C806 1.367 . S
C807 C809 1.433 . S
C808 C804 1.350 . S
C808 C805 1.463 . S
C808 N812 1.427 . S
C809 H799 0.929 . S
C809 C807 1.433 . S
C809 N812 1.384 . S
C810 H801 0.929 . S
C810 C802 1.378 . S
C810 C805 1.350 . S
C811 H798 0.929 . S
C811 C803 1.433 . S
C811 N813 1.384 . S
N812 C808 1.427 . S
N812 C809 1.384 . S
N813 C805 1.427 . S
N813 C811 1.384 . S
H814 C820 0.930 . S
H815 C824 0.930 . S
H816 C829 0.929 1_565 S
H817 C827 0.929 . S
H818 C822 0.929 . S
H819 C828 0.929 . S
C820 H814 0.930 . S
C820 C821 1.367 . S
C820 C828 1.378 . S
C821 C820 1.367 . S
C821 C829 1.433 . S
C822 H818 0.929 . S
C822 C824 1.378 . S
C822 C826 1.350 . S
C823 C826 1.463 . S
C823 C828 1.350 . S
C823 N831 1.427 . S
C824 H815 0.930 . S
C824 C822 1.378 . S
C824 C825 1.367 . S
C825 C824 1.367 . S
C825 C827 1.433 . S
C826 C822 1.350 . S
C826 C823 1.463 . S
C826 N830 1.427 . S
C827 H817 0.929 . S
C827 C825 1.433 . S
C827 N830 1.384 . S
C828 H819 0.929 . S
C828 C820 1.378 . S
C828 C823 1.350 . S
C829 H816 0.929 1_545 S
C829 C821 1.433 . S
C829 N831 1.384 . S
N830 C826 1.427 . S
N830 C827 1.384 . S
N831 C823 1.427 . S
N831 C829 1.384 . S
H832 C838 0.930 . S
H833 C842 0.930 . S
H834 C847 0.929 . S
H835 C845 0.929 . S
H836 C840 0.929 . S
H837 C846 0.929 . S
C838 H832 0.930 . S
C838 C839 1.367 . S
C838 C846 1.378 . S
C839 C838 1.367 . S
C839 C847 1.433 . S
C840 H836 0.929 . S
C840 C842 1.378 . S
C840 C844 1.350 . S
C841 C844 1.463 . S
C841 C846 1.350 . S
C841 N849 1.427 . S
C842 H833 0.930 . S
C842 C840 1.378 . S
C842 C843 1.367 . S
C843 C842 1.367 . S
C843 C845 1.433 . S
C844 C840 1.350 . S
C844 C841 1.463 . S
C844 N848 1.427 . S
C845 H835 0.929 . S
C845 C843 1.433 . S
C845 N848 1.384 . S
C846 H837 0.929 . S
C846 C838 1.378 . S
C846 C841 1.350 . S
C847 H834 0.929 . S
C847 C839 1.433 . S
C847 N849 1.384 . S
N848 C844 1.427 . S
N848 C845 1.384 . S
N849 C841 1.427 . S
N849 C847 1.384 . S
H850 C856 0.930 . S
H851 C860 0.930 . S
H852 C865 0.929 . S
H853 C863 0.929 . S
H854 C858 0.929 . S
H855 C864 0.929 . S
C856 H850 0.930 . S
C856 C857 1.367 . S
C856 C864 1.378 . S
C857 C856 1.367 . S
C857 C865 1.433 . S
C858 H854 0.929 . S
C858 C860 1.378 . S
C858 C862 1.350 . S
C859 C862 1.463 . S
C859 C864 1.350 . S
C859 N867 1.427 . S
C860 H851 0.930 . S
C860 C858 1.378 . S
C860 C861 1.367 . S
C861 C860 1.367 . S
C861 C863 1.433 . S
C862 C858 1.350 . S
C862 C859 1.463 . S
C862 N866 1.427 . S
C863 H853 0.929 . S
C863 C861 1.433 . S
C863 N866 1.384 . S
C864 H855 0.929 . S
C864 C856 1.378 . S
C864 C859 1.350 . S
C865 H852 0.929 . S
C865 C857 1.433 . S
C865 N867 1.384 . S
N866 C862 1.427 . S
N866 C863 1.384 . S
N867 C859 1.427 . S
N867 C865 1.384 . S
H868 C874 0.930 . S
H869 C878 0.930 . S
H870 C883 0.929 . S
H871 C881 0.929 . S
H872 C876 0.929 . S
H873 C882 0.929 . S
C874 H868 0.930 . S
C874 C875 1.367 . S
C874 C882 1.378 . S
C875 C874 1.367 . S
C875 C883 1.433 . S
C876 H872 0.929 . S
C876 C878 1.378 . S
C876 C880 1.350 . S
C877 C880 1.463 . S
C877 C882 1.350 . S
C877 N885 1.427 . S
C878 H869 0.930 . S
C878 C876 1.378 . S
C878 C879 1.367 . S
C879 C878 1.367 . S
C879 C881 1.433 . S
C880 C876 1.350 . S
C880 C877 1.463 . S
C880 N884 1.427 . S
C881 H871 0.929 . S
C881 C879 1.433 . S
C881 N884 1.384 . S
C882 H873 0.929 . S
C882 C874 1.378 . S
C882 C877 1.350 . S
C883 H870 0.929 . S
C883 C875 1.433 . S
C883 N885 1.384 . S
N884 C880 1.427 . S
N884 C881 1.384 . S
N885 C877 1.427 . S
N885 C883 1.384 . S
H886 C892 0.930 . S
H887 C896 0.930 . S
H888 C901 0.929 . S
H889 C899 0.929 . S
H890 C894 0.929 . S
H891 C900 0.929 . S
C892 H886 0.930 . S
C892 C893 1.367 . S
C892 C900 1.378 . S
C893 C892 1.367 . S
C893 C901 1.433 1_554 S
C894 H890 0.929 . S
C894 C896 1.378 . S
C894 C898 1.350 . S
C895 C898 1.463 . S
C895 C900 1.350 . S
C895 N903 1.427 . S
C896 H887 0.930 . S
C896 C894 1.378 . S
C896 C897 1.367 . S
C897 C896 1.367 . S
C897 C899 1.433 . S
C898 C894 1.350 . S
C898 C895 1.463 . S
C898 N902 1.427 . S
C899 H889 0.929 . S
C899 C897 1.433 . S
C899 N902 1.384 . S
C900 H891 0.929 . S
C900 C892 1.378 . S
C900 C895 1.350 . S
C901 H888 0.929 . S
C901 C893 1.433 1_556 S
C901 N903 1.384 1_556 S
N902 C898 1.427 . S
N902 C899 1.384 . S
N903 C895 1.427 . S
N903 C901 1.384 1_554 S
H904 C910 0.930 . S
H905 C914 0.930 . S
H906 C919 0.929 . S
H907 C917 0.929 . S
H908 C912 0.929 . S
H909 C918 0.929 . S
C910 H904 0.930 . S
C910 C911 1.367 . S
C910 C918 1.378 . S
C911 C910 1.367 . S
C911 C919 1.433 . S
C912 H908 0.929 . S
C912 C914 1.378 . S
C912 C916 1.350 . S
C913 C916 1.463 . S
C913 C918 1.350 . S
C913 N921 1.427 . S
C914 H905 0.930 . S
C914 C912 1.378 . S
C914 C915 1.367 . S
C915 C914 1.367 . S
C915 C917 1.433 . S
C916 C912 1.350 . S
C916 C913 1.463 . S
C916 N920 1.427 . S
C917 H907 0.929 . S
C917 C915 1.433 . S
C917 N920 1.384 . S
C918 H909 0.929 . S
C918 C910 1.378 . S
C918 C913 1.350 . S
C919 H906 0.929 . S
C919 C911 1.433 . S
C919 N921 1.384 . S
N920 C916 1.427 . S
N920 C917 1.384 . S
N921 C913 1.427 . S
N921 C919 1.384 . S
H922 C928 0.930 1_565 S
H923 C932 0.930 . S
H924 C937 0.929 . S
H925 C935 0.929 . S
H926 C930 0.929 . S
H927 C936 0.929 . S
C928 H922 0.930 1_545 S
C928 C929 1.367 . S
C928 C936 1.378 . S
C929 C928 1.367 . S
C929 C937 1.433 . S
C930 H926 0.929 . S
C930 C932 1.378 . S
C930 C934 1.350 . S
C931 C934 1.463 . S
C931 C936 1.350 . S
C931 N939 1.427 . S
C932 H923 0.930 . S
C932 C930 1.378 . S
C932 C933 1.367 . S
C933 C932 1.367 . S
C933 C935 1.433 1_556 S
C934 C930 1.350 . S
C934 C931 1.463 . S
C934 N938 1.427 . S
C935 H925 0.929 . S
C935 C933 1.433 1_554 S
C935 N938 1.384 1_554 S
C936 H927 0.929 . S
C936 C928 1.378 . S
C936 C931 1.350 . S
C937 H924 0.929 . S
C937 C929 1.433 . S
C937 N939 1.384 . S
N938 C934 1.427 . S
N938 C935 1.384 1_556 S
N939 C931 1.427 . S
N939 C937 1.384 . S
H940 C946 0.930 . S
H941 C950 0.930 . S
H942 C955 0.929 . S
H943 C953 0.929 . S
H944 C948 0.929 . S
H945 C954 0.929 . S
C946 H940 0.930 . S
C946 C947 1.367 . S
C946 C954 1.378 . S
C947 C946 1.367 . S
C947 C955 1.433 . S
C948 H944 0.929 . S
C948 C950 1.378 . S
C948 C952 1.350 . S
C949 C952 1.463 . S
C949 C954 1.350 . S
C949 N957 1.427 . S
C950 H941 0.930 . S
C950 C948 1.378 . S
C950 C951 1.367 . S
C951 C950 1.367 . S
C951 C953 1.433 . S
C952 C948 1.350 . S
C952 C949 1.463 . S
C952 N956 1.427 . S
C953 H943 0.929 . S
C953 C951 1.433 . S
C953 N956 1.384 . S
C954 H945 0.929 . S
C954 C946 1.378 . S
C954 C949 1.350 . S
C955 H942 0.929 . S
C955 C947 1.433 . S
C955 N957 1.384 . S
N956 C952 1.427 . S
N956 C953 1.384 . S
N957 C949 1.427 . S
N957 C955 1.384 . S
H958 C964 0.908 1_545 S
H959 C968 0.930 . S
H960 C973 0.929 . S
H961 C971 0.929 . S
H962 C966 0.929 . S
H963 C972 0.929 . S
C964 H958 0.908 1_565 S
C964 C965 1.367 . S
C964 C972 1.378 . S
C965 C964 1.367 . S
C965 C973 1.433 . S
C966 H962 0.929 . S
C966 C968 1.378 . S
C966 C970 1.350 . S
C967 C970 1.463 . S
C967 C972 1.350 . S
C967 N975 1.427 . S
C968 H959 0.930 . S
C968 C966 1.378 . S
C968 C969 1.367 . S
C969 C968 1.367 . S
C969 C971 1.433 . S
C970 C966 1.350 . S
C970 C967 1.463 . S
C970 N974 1.427 . S
C971 H961 0.929 . S
C971 C969 1.433 . S
C971 N974 1.384 . S
C972 H963 0.929 . S
C972 C964 1.378 . S
C972 C967 1.350 . S
C973 H960 0.929 . S
C973 C965 1.433 . S
C973 N975 1.384 . S
N974 C970 1.427 . S
N974 C971 1.384 . S
N975 C967 1.427 . S
N975 C973 1.384 . S
H976 C982 0.930 . S
H977 C986 0.930 . S
H978 C991 0.929 . S
H979 C989 0.929 . S
H980 C984 0.929 . S
H981 C990 0.929 . S
C982 H976 0.930 . S
C982 C983 1.367 . S
C982 C990 1.378 . S
C983 C982 1.367 . S
C983 C991 1.433 . S
C984 H980 0.929 . S
C984 C986 1.378 . S
C984 C988 1.350 . S
C985 C988 1.463 . S
C985 C990 1.350 . S
C985 N993 1.427 . S
C986 H977 0.930 . S
C986 C984 1.378 . S
C986 C987 1.367 . S
C987 C986 1.367 . S
C987 C989 1.433 . S
C988 C984 1.350 . S
C988 C985 1.463 . S
C988 N992 1.427 . S
C989 H979 0.929 . S
C989 C987 1.433 . S
C989 N992 1.384 . S
C990 H981 0.929 . S
C990 C982 1.378 . S
C990 C985 1.350 . S
C991 H978 0.929 . S
C991 C983 1.433 . S
C991 N993 1.384 . S
N992 C988 1.427 . S
N992 C989 1.384 . S
N993 C985 1.427 . S
N993 C991 1.384 . S
H994 C1000 0.930 . S
H995 C1004 0.930 . S
H996 C1009 0.929 . S
H997 C1007 0.929 . S
H998 C1002 0.929 1_554 S
H999 C1008 0.929 . S
C1000 H994 0.930 . S
C1000 C1001 1.367 . S
C1000 C1008 1.378 . S
C1001 C1000 1.367 . S
C1001 C1009 1.433 . S
C1002 H998 0.929 1_556 S
C1002 C1004 1.378 1_556 S
C1002 C1006 1.350 . S
C1003 C1006 1.463 . S
C1003 C1008 1.350 . S
C1003 N1011 1.427 . S
C1004 H995 0.930 . S
C1004 C1002 1.378 1_554 S
C1004 C1005 1.360 1_554 S
C1005 C1004 1.360 1_556 S
C1005 C1007 1.448 . S
C1006 C1002 1.350 . S
C1006 C1003 1.463 . S
C1006 N1010 1.427 . S
C1007 H997 0.929 . S
C1007 C1005 1.448 . S
C1007 N1010 1.384 . S
C1008 H999 0.929 . S
C1008 C1000 1.378 . S
C1008 C1003 1.350 . S
C1009 H996 0.929 . S
C1009 C1001 1.433 . S
C1009 N1011 1.384 . S
N1010 C1006 1.427 . S
N1010 C1007 1.384 . S
N1011 C1003 1.427 . S
N1011 C1009 1.384 . S
H1012 C1018 0.930 . S
H1013 C1022 0.930 . S
H1014 C1027 0.929 . S
H1015 C1025 0.929 . S
H1016 C1020 0.929 . S
H1017 C1026 0.929 . S
C1018 H1012 0.930 . S
C1018 C1019 1.367 . S
C1018 C1026 1.378 . S
C1019 C1018 1.367 . S
C1019 C1027 1.433 . S
C1020 H1016 0.929 . S
C1020 C1022 1.378 . S
C1020 C1024 1.350 . S
C1021 C1024 1.463 . S
C1021 C1026 1.350 . S
C1021 N1029 1.427 . S
C1022 H1013 0.930 . S
C1022 C1020 1.378 . S
C1022 C1023 1.367 . S
C1023 C1022 1.367 . S
C1023 C1025 1.433 . S
C1024 C1020 1.350 . S
C1024 C1021 1.463 . S
C1024 N1028 1.427 . S
C1025 H1015 0.929 . S
C1025 C1023 1.433 . S
C1025 N1028 1.384 . S
C1026 H1017 0.929 . S
C1026 C1018 1.378 . S
C1026 C1021 1.350 . S
C1027 H1014 0.929 . S
C1027 C1019 1.433 . S
C1027 N1029 1.384 . S
N1028 C1024 1.427 . S
N1028 C1025 1.384 . S
N1029 C1021 1.427 . S
N1029 C1027 1.384 . S
H1030 C1036 0.930 . S
H1031 C1040 0.930 . S
H1032 C1045 0.929 . S
H1033 C1043 0.929 . S
H1034 C1038 0.929 . S
H1035 C1044 0.929 . S
C1036 H1030 0.930 . S
C1036 C1037 1.367 . S
C1036 C1044 1.378 . S
C1037 C1036 1.367 . S
C1037 C1045 1.433 . S
C1038 H1034 0.929 . S
C1038 C1040 1.378 . S
C1038 C1042 1.350 . S
C1039 C1042 1.463 . S
C1039 C1044 1.350 . S
C1039 N1047 1.427 . S
C1040 H1031 0.930 . S
C1040 C1038 1.378 . S
C1040 C1041 1.367 . S
C1041 C1040 1.367 . S
C1041 C1043 1.433 . S
C1042 C1038 1.350 . S
C1042 C1039 1.463 . S
C1042 N1046 1.427 . S
C1043 H1033 0.929 . S
C1043 C1041 1.433 . S
C1043 N1046 1.384 . S
C1044 H1035 0.929 . S
C1044 C1036 1.378 . S
C1044 C1039 1.350 . S
C1045 H1032 0.929 . S
C1045 C1037 1.433 . S
C1045 N1047 1.384 . S
N1046 C1042 1.427 . S
N1046 C1043 1.384 . S
N1047 C1039 1.427 . S
N1047 C1045 1.384 . S
H1048 C1054 0.930 . S
H1049 C1058 0.930 . S
H1050 C1063 0.929 . S
H1051 C1061 0.929 . S
H1052 C1056 0.929 . S
H1053 C1062 0.929 . S
C1054 H1048 0.930 . S
C1054 C1055 1.367 . S
C1054 C1062 1.378 . S
C1055 C1054 1.367 . S
C1055 C1063 1.433 . S
C1056 H1052 0.929 . S
C1056 C1058 1.378 . S
C1056 C1060 1.350 . S
C1057 C1060 1.463 . S
C1057 C1062 1.350 . S
C1057 N1065 1.427 . S
C1058 H1049 0.930 . S
C1058 C1056 1.378 . S
C1058 C1059 1.367 . S
C1059 C1058 1.367 . S
C1059 C1061 1.433 . S
C1060 C1056 1.350 . S
C1060 C1057 1.463 . S
C1060 N1064 1.427 . S
C1061 H1051 0.929 . S
C1061 C1059 1.433 . S
C1061 N1064 1.384 . S
C1062 H1053 0.929 . S
C1062 C1054 1.378 . S
C1062 C1057 1.350 . S
C1063 H1050 0.929 . S
C1063 C1055 1.433 . S
C1063 N1065 1.384 . S
N1064 C1060 1.427 . S
N1064 C1061 1.384 . S
N1065 C1057 1.427 . S
N1065 C1063 1.384 . S
H1066 C1072 0.930 . S
H1067 C1076 0.930 . S
H1068 C1081 0.929 . S
H1069 C1079 0.929 . S
H1070 C1074 0.929 . S
H1071 C1080 0.929 . S
C1072 H1066 0.930 . S
C1072 C1073 1.367 . S
C1072 C1080 1.378 . S
C1073 C1072 1.367 . S
C1073 C1081 1.433 . S
C1074 H1070 0.929 . S
C1074 C1076 1.378 . S
C1074 C1078 1.350 . S
C1075 C1078 1.463 . S
C1075 C1080 1.350 . S
C1075 N1083 1.427 . S
C1076 H1067 0.930 . S
C1076 C1074 1.378 . S
C1076 C1077 1.367 . S
C1077 C1076 1.367 . S
C1077 C1079 1.433 . S
C1078 C1074 1.350 . S
C1078 C1075 1.463 . S
C1078 N1082 1.427 . S
C1079 H1069 0.929 . S
C1079 C1077 1.433 . S
C1079 N1082 1.384 . S
C1080 H1071 0.929 . S
C1080 C1072 1.378 . S
C1080 C1075 1.350 . S
C1081 H1068 0.929 . S
C1081 C1073 1.433 . S
C1081 N1083 1.384 . S
N1082 C1078 1.427 . S
N1082 C1079 1.384 . S
N1083 C1075 1.427 . S
N1083 C1081 1.384 . S
H1084 C1090 0.930 . S
H1085 C1094 0.930 . S
H1086 C1099 0.929 . S
H1087 C1097 0.929 . S
H1088 C1092 0.929 . S
H1089 C1098 0.929 . S
C1090 H1084 0.930 . S
C1090 C1091 1.367 . S
C1090 C1098 1.378 . S
C1091 C1090 1.367 . S
C1091 C1099 1.433 . S
C1092 H1088 0.929 . S
C1092 C1094 1.378 . S
C1092 C1096 1.350 . S
C1093 C1096 1.463 . S
C1093 C1098 1.350 . S
C1093 N1101 1.427 . S
C1094 H1085 0.930 . S
C1094 C1092 1.378 . S
C1094 C1095 1.367 . S
C1095 C1094 1.367 . S
C1095 C1097 1.433 . S
C1096 C1092 1.350 . S
C1096 C1093 1.463 . S
C1096 N1100 1.427 . S
C1097 H1087 0.929 . S
C1097 C1095 1.433 . S
C1097 N1100 1.384 . S
C1098 H1089 0.929 . S
C1098 C1090 1.378 . S
C1098 C1093 1.350 . S
C1099 H1086 0.929 . S
C1099 C1091 1.433 . S
C1099 N1101 1.384 . S
N1100 C1096 1.427 . S
N1100 C1097 1.384 . S
N1101 C1093 1.427 . S
N1101 C1099 1.384 . S
H1102 C1108 0.930 . S
H1103 C1112 0.930 . S
H1104 C1117 0.929 . S
H1105 C1115 0.929 . S
H1106 C1110 0.929 1_556 S
H1107 C1116 0.929 . S
C1108 H1102 0.930 . S
C1108 C1109 1.367 . S
C1108 C1116 1.378 . S
C1109 C1108 1.367 . S
C1109 C1117 1.433 . S
C1110 H1106 0.929 1_554 S
C1110 C1112 1.378 1_554 S
C1110 C1114 1.350 . S
C1111 C1114 1.463 . S
C1111 C1116 1.350 . S
C1111 N1119 1.427 . S
C1112 H1103 0.930 . S
C1112 C1110 1.378 1_556 S
C1112 C1113 1.360 1_556 S
C1113 C1112 1.360 1_554 S
C1113 C1115 1.447 . S
C1114 C1110 1.350 . S
C1114 C1111 1.463 . S
C1114 N1118 1.427 . S
C1115 H1105 0.929 . S
C1115 C1113 1.447 . S
C1115 N1118 1.384 . S
C1116 H1107 0.929 . S
C1116 C1108 1.378 . S
C1116 C1111 1.350 . S
C1117 H1104 0.929 . S
C1117 C1109 1.433 . S
C1117 N1119 1.384 . S
N1118 C1114 1.427 . S
N1118 C1115 1.384 . S
N1119 C1111 1.427 . S
N1119 C1117 1.384 . S
H1120 C1126 0.930 . S
H1121 C1130 0.930 . S
H1122 C1135 0.929 . S
H1123 C1133 0.929 . S
H1124 C1128 0.929 . S
H1125 C1134 0.929 . S
C1126 H1120 0.930 . S
C1126 C1127 1.367 . S
C1126 C1134 1.378 . S
C1127 C1126 1.367 . S
C1127 C1135 1.433 . S
C1128 H1124 0.929 . S
C1128 C1130 1.378 . S
C1128 C1132 1.350 . S
C1129 C1132 1.463 . S
C1129 C1134 1.350 . S
C1129 N1137 1.427 . S
C1130 H1121 0.930 . S
C1130 C1128 1.378 . S
C1130 C1131 1.367 . S
C1131 C1130 1.367 . S
C1131 C1133 1.433 . S
C1132 C1128 1.350 . S
C1132 C1129 1.463 . S
C1132 N1136 1.427 . S
C1133 H1123 0.929 . S
C1133 C1131 1.433 . S
C1133 N1136 1.384 . S
C1134 H1125 0.929 . S
C1134 C1126 1.378 . S
C1134 C1129 1.350 . S
C1135 H1122 0.929 . S
C1135 C1127 1.433 . S
C1135 N1137 1.384 . S
N1136 C1132 1.427 . S
N1136 C1133 1.384 . S
N1137 C1129 1.427 . S
N1137 C1135 1.384 . S
H1138 C1144 0.930 . S
H1139 C1148 0.930 . S
H1140 C1153 0.929 . S
H1141 C1151 0.929 . S
H1142 C1146 0.929 1_556 S
H1143 C1152 0.929 . S
C1144 H1138 0.930 . S
C1144 C1145 1.367 . S
C1144 C1152 1.378 . S
C1145 C1144 1.367 . S
C1145 C1153 1.433 . S
C1146 H1142 0.929 1_554 S
C1146 C1148 1.378 1_554 S
C1146 C1150 1.350 . S
C1147 C1150 1.463 . S
C1147 C1152 1.350 . S
C1147 N1155 1.427 . S
C1148 H1139 0.930 . S
C1148 C1146 1.378 1_556 S
C1148 C1149 1.367 1_556 S
C1149 C1148 1.367 1_554 S
C1149 C1151 1.433 . S
C1150 C1146 1.350 . S
C1150 C1147 1.463 . S
C1150 N1154 1.427 . S
C1151 H1141 0.929 . S
C1151 C1149 1.433 . S
C1151 N1154 1.384 . S
C1152 H1143 0.929 . S
C1152 C1144 1.378 . S
C1152 C1147 1.350 . S
C1153 H1140 0.929 . S
C1153 C1145 1.433 . S
C1153 N1155 1.384 . S
N1154 C1150 1.427 . S
N1154 C1151 1.384 . S
N1155 C1147 1.427 . S
N1155 C1153 1.384 . S
H1156 C1162 0.930 . S
H1157 C1166 0.930 . S
H1158 C1171 0.929 . S
H1159 C1169 0.929 . S
H1160 C1164 0.929 . S
H1161 C1170 0.929 . S
C1162 H1156 0.930 . S
C1162 C1163 1.367 . S
C1162 C1170 1.378 . S
C1163 C1162 1.367 . S
C1163 C1171 1.433 . S
C1164 H1160 0.929 . S
C1164 C1166 1.378 . S
C1164 C1168 1.350 . S
C1165 C1168 1.463 . S
C1165 C1170 1.350 . S
C1165 N1173 1.427 . S
C1166 H1157 0.930 . S
C1166 C1164 1.378 . S
C1166 C1167 1.367 . S
C1167 C1166 1.367 . S
C1167 C1169 1.433 . S
C1168 C1164 1.350 . S
C1168 C1165 1.463 . S
C1168 N1172 1.427 . S
C1169 H1159 0.929 . S
C1169 C1167 1.433 . S
C1169 N1172 1.384 . S
C1170 H1161 0.929 . S
C1170 C1162 1.378 . S
C1170 C1165 1.350 . S
C1171 H1158 0.929 . S
C1171 C1163 1.433 . S
C1171 N1173 1.384 . S
N1172 C1168 1.427 . S
N1172 C1169 1.384 . S
N1173 C1165 1.427 . S
N1173 C1171 1.384 . S
H1174 C1180 0.930 . S
H1175 C1184 0.930 . S
H1176 C1189 0.929 . S
H1177 C1187 0.929 . S
H1178 C1182 0.929 . S
H1179 C1188 0.929 . S
C1180 H1174 0.930 . S
C1180 C1181 1.367 . S
C1180 C1188 1.378 . S
C1181 C1180 1.367 . S
C1181 C1189 1.433 . S
C1182 H1178 0.929 . S
C1182 C1184 1.378 . S
C1182 C1186 1.350 . S
C1183 C1186 1.463 . S
C1183 C1188 1.350 . S
C1183 N1191 1.427 . S
C1184 H1175 0.930 . S
C1184 C1182 1.378 . S
C1184 C1185 1.367 . S
C1185 C1184 1.367 . S
C1185 C1187 1.433 . S
C1186 C1182 1.350 . S
C1186 C1183 1.463 . S
C1186 N1190 1.427 . S
C1187 H1177 0.929 . S
C1187 C1185 1.433 . S
C1187 N1190 1.384 . S
C1188 H1179 0.929 . S
C1188 C1180 1.378 . S
C1188 C1183 1.350 . S
C1189 H1176 0.929 . S
C1189 C1181 1.433 . S
C1189 N1191 1.384 . S
N1190 C1186 1.427 . S
N1190 C1187 1.384 . S
N1191 C1183 1.427 . S
N1191 C1189 1.384 . S
H1192 C1198 0.930 . S
H1193 C1202 0.930 . S
H1194 C1207 0.929 . S
H1195 C1205 0.929 . S
H1196 C1200 0.929 . S
H1197 C1206 0.929 . S
C1198 H1192 0.930 . S
C1198 C1199 1.367 . S
C1198 C1206 1.378 . S
C1199 C1198 1.367 . S
C1199 C1207 1.433 . S
C1200 H1196 0.929 . S
C1200 C1202 1.378 . S
C1200 C1204 1.350 . S
C1201 C1204 1.463 . S
C1201 C1206 1.350 . S
C1201 N1209 1.427 . S
C1202 H1193 0.930 . S
C1202 C1200 1.378 . S
C1202 C1203 1.367 . S
C1203 C1202 1.367 . S
C1203 C1205 1.433 . S
C1204 C1200 1.350 . S
C1204 C1201 1.463 . S
C1204 N1208 1.427 . S
C1205 H1195 0.929 . S
C1205 C1203 1.433 . S
C1205 N1208 1.384 . S
C1206 H1197 0.929 . S
C1206 C1198 1.378 . S
C1206 C1201 1.350 . S
C1207 H1194 0.929 . S
C1207 C1199 1.433 . S
C1207 N1209 1.384 . S
N1208 C1204 1.427 . S
N1208 C1205 1.384 . S
N1209 C1201 1.427 . S
N1209 C1207 1.384 . S
H1210 C1216 0.930 . S
H1211 C1220 0.930 . S
H1212 C1225 0.929 . S
H1213 C1223 0.929 . S
H1214 C1218 0.929 . S
H1215 C1224 0.929 . S
C1216 H1210 0.930 . S
C1216 C1217 1.367 . S
C1216 C1224 1.378 . S
C1217 C1216 1.367 . S
C1217 C1225 1.433 . S
C1218 H1214 0.929 . S
C1218 C1220 1.378 . S
C1218 C1222 1.350 . S
C1219 C1222 1.463 . S
C1219 C1224 1.350 . S
C1219 N1227 1.427 . S
C1220 H1211 0.930 . S
C1220 C1218 1.378 . S
C1220 C1221 1.367 . S
C1221 C1220 1.367 . S
C1221 C1223 1.433 . S
C1222 C1218 1.350 . S
C1222 C1219 1.463 . S
C1222 N1226 1.427 . S
C1223 H1213 0.929 . S
C1223 C1221 1.433 . S
C1223 N1226 1.384 . S
C1224 H1215 0.929 . S
C1224 C1216 1.378 . S
C1224 C1219 1.350 . S
C1225 H1212 0.929 . S
C1225 C1217 1.433 . S
C1225 N1227 1.384 . S
N1226 C1222 1.427 . S
N1226 C1223 1.384 . S
N1227 C1219 1.427 . S
N1227 C1225 1.384 . S
H1228 C1234 0.930 . S
H1229 C1238 0.930 . S
H1230 C1243 0.929 . S
H1231 C1241 0.929 . S
H1232 C1236 0.929 . S
H1233 C1242 0.929 . S
C1234 H1228 0.930 . S
C1234 C1235 1.367 . S
C1234 C1242 1.378 . S
C1235 C1234 1.367 . S
C1235 C1243 1.433 . S
C1236 H1232 0.929 . S
C1236 C1238 1.378 . S
C1236 C1240 1.350 . S
C1237 C1240 1.463 . S
C1237 C1242 1.350 . S
C1237 N1245 1.427 . S
C1238 H1229 0.930 . S
C1238 C1236 1.378 . S
C1238 C1239 1.367 . S
C1239 C1238 1.367 . S
C1239 C1241 1.433 . S
C1240 C1236 1.350 . S
C1240 C1237 1.463 . S
C1240 N1244 1.427 . S
C1241 H1231 0.929 . S
C1241 C1239 1.433 . S
C1241 N1244 1.384 . S
C1242 H1233 0.929 . S
C1242 C1234 1.378 . S
C1242 C1237 1.350 . S
C1243 H1230 0.929 . S
C1243 C1235 1.433 . S
C1243 N1245 1.384 . S
N1244 C1240 1.427 . S
N1244 C1241 1.384 . S
N1245 C1237 1.427 . S
N1245 C1243 1.384 . S
H1246 C1252 0.930 . S
H1247 C1256 0.930 . S
H1248 C1261 0.929 . S
H1249 C1259 0.929 . S
H1250 C1254 0.929 1_554 S
H1251 C1260 0.929 . S
C1252 H1246 0.930 . S
C1252 C1253 1.367 . S
C1252 C1260 1.378 . S
C1253 C1252 1.367 . S
C1253 C1261 1.433 . S
C1254 H1250 0.929 1_556 S
C1254 C1256 1.378 1_556 S
C1254 C1258 1.350 . S
C1255 C1258 1.463 . S
C1255 C1260 1.350 . S
C1255 N1263 1.427 . S
C1256 H1247 0.930 . S
C1256 C1254 1.378 1_554 S
C1256 C1257 1.367 1_554 S
C1257 C1256 1.367 1_556 S
C1257 C1259 1.433 . S
C1258 C1254 1.350 . S
C1258 C1255 1.463 . S
C1258 N1262 1.427 . S
C1259 H1249 0.929 . S
C1259 C1257 1.433 . S
C1259 N1262 1.384 . S
C1260 H1251 0.929 . S
C1260 C1252 1.378 . S
C1260 C1255 1.350 . S
C1261 H1248 0.929 . S
C1261 C1253 1.433 . S
C1261 N1263 1.384 . S
N1262 C1258 1.427 . S
N1262 C1259 1.384 . S
N1263 C1255 1.427 . S
N1263 C1261 1.384 . S
H1264 C1270 0.930 . S
H1265 C1274 0.930 . S
H1266 C1279 0.929 . S
H1267 C1277 0.929 . S
H1268 C1272 0.929 . S
H1269 C1278 0.929 . S
C1270 H1264 0.930 . S
C1270 C1271 1.367 . S
C1270 C1278 1.378 . S
C1271 C1270 1.367 . S
C1271 C1279 1.433 . S
C1272 H1268 0.929 . S
C1272 C1274 1.378 . S
C1272 C1276 1.350 . S
C1273 C1276 1.463 . S
C1273 C1278 1.350 . S
C1273 N1281 1.427 . S
C1274 H1265 0.930 . S
C1274 C1272 1.378 . S
C1274 C1275 1.367 . S
C1275 C1274 1.367 . S
C1275 C1277 1.433 . S
C1276 C1272 1.350 . S
C1276 C1273 1.463 . S
C1276 N1280 1.427 . S
C1277 H1267 0.929 . S
C1277 C1275 1.433 . S
C1277 N1280 1.384 . S
C1278 H1269 0.929 . S
C1278 C1270 1.378 . S
C1278 C1273 1.350 . S
C1279 H1266 0.929 . S
C1279 C1271 1.433 . S
C1279 N1281 1.384 . S
N1280 C1276 1.427 . S
N1280 C1277 1.384 . S
N1281 C1273 1.427 . S
N1281 C1279 1.384 . S
H1282 C1288 0.930 . S
H1283 C1292 0.930 . S
H1284 C1297 0.929 . S
H1285 C1295 0.929 . S
H1286 C1290 0.929 . S
H1287 C1296 0.929 . S
C1288 H1282 0.930 . S
C1288 C1289 1.367 . S
C1288 C1296 1.378 . S
C1289 C1288 1.367 . S
C1289 C1297 1.433 . S
C1290 H1286 0.929 . S
C1290 C1292 1.378 . S
C1290 C1294 1.350 . S
C1291 C1294 1.463 . S
C1291 C1296 1.350 . S
C1291 N1299 1.427 . S
C1292 H1283 0.930 . S
C1292 C1290 1.378 . S
C1292 C1293 1.367 . S
C1293 C1292 1.367 . S
C1293 C1295 1.433 . S
C1294 C1290 1.350 . S
C1294 C1291 1.463 . S
C1294 N1298 1.427 . S
C1295 H1285 0.929 . S
C1295 C1293 1.433 . S
C1295 N1298 1.384 . S
C1296 H1287 0.929 . S
C1296 C1288 1.378 . S
C1296 C1291 1.350 . S
C1297 H1284 0.929 . S
C1297 C1289 1.433 . S
C1297 N1299 1.384 . S
N1298 C1294 1.427 . S
N1298 C1295 1.384 . S
N1299 C1291 1.427 . S
N1299 C1297 1.384 . S
H1300 C1306 0.930 . S
H1301 C1310 0.930 . S
H1302 C1315 0.929 . S
H1303 C1313 0.929 . S
H1304 C1308 0.929 . S
H1305 C1314 0.929 . S
C1306 H1300 0.930 . S
C1306 C1307 1.367 . S
C1306 C1314 1.378 . S
C1307 C1306 1.367 . S
C1307 C1315 1.433 . S
C1308 H1304 0.929 . S
C1308 C1310 1.378 . S
C1308 C1312 1.350 . S
C1309 C1312 1.463 . S
C1309 C1314 1.350 . S
C1309 N1317 1.427 . S
C1310 H1301 0.930 . S
C1310 C1308 1.378 . S
C1310 C1311 1.367 . S
C1311 C1310 1.367 . S
C1311 C1313 1.433 . S
C1312 C1308 1.350 . S
C1312 C1309 1.463 . S
C1312 N1316 1.427 . S
C1313 H1303 0.929 . S
C1313 C1311 1.433 . S
C1313 N1316 1.384 . S
C1314 H1305 0.929 . S
C1314 C1306 1.378 . S
C1314 C1309 1.350 . S
C1315 H1302 0.929 . S
C1315 C1307 1.433 . S
C1315 N1317 1.384 . S
N1316 C1312 1.427 . S
N1316 C1313 1.384 . S
N1317 C1309 1.427 . S
N1317 C1315 1.384 . S
H1318 C1324 0.930 . S
H1319 C1328 0.930 . S
H1320 C1333 0.929 . S
H1321 C1331 0.929 . S
H1322 C1326 0.929 . S
H1323 C1332 0.929 . S
C1324 H1318 0.930 . S
C1324 C1325 1.367 . S
C1324 C1332 1.378 . S
C1325 C1324 1.367 . S
C1325 C1333 1.433 . S
C1326 H1322 0.929 . S
C1326 C1328 1.378 . S
C1326 C1330 1.350 . S
C1327 C1330 1.463 . S
C1327 C1332 1.350 . S
C1327 N1335 1.427 . S
C1328 H1319 0.930 . S
C1328 C1326 1.378 . S
C1328 C1329 1.367 . S
C1329 C1328 1.367 . S
C1329 C1331 1.433 . S
C1330 C1326 1.350 . S
C1330 C1327 1.463 . S
C1330 N1334 1.427 . S
C1331 H1321 0.929 . S
C1331 C1329 1.433 . S
C1331 N1334 1.384 . S
C1332 H1323 0.929 . S
C1332 C1324 1.378 . S
C1332 C1327 1.350 . S
C1333 H1320 0.929 . S
C1333 C1325 1.433 . S
C1333 N1335 1.384 . S
N1334 C1330 1.427 . S
N1334 C1331 1.384 . S
N1335 C1327 1.427 . S
N1335 C1333 1.384 . S
H1336 C1342 0.930 . S
H1337 C1346 0.930 . S
H1338 C1351 0.929 . S
H1339 C1349 0.929 . S
H1340 C1344 0.929 . S
H1341 C1350 0.929 . S
C1342 H1336 0.930 . S
C1342 C1343 1.367 . S
C1342 C1350 1.378 . S
C1343 C1342 1.367 . S
C1343 C1351 1.433 . S
C1344 H1340 0.929 . S
C1344 C1346 1.378 . S
C1344 C1348 1.350 . S
C1345 C1348 1.463 . S
C1345 C1350 1.350 . S
C1345 N1353 1.427 . S
C1346 H1337 0.930 . S
C1346 C1344 1.378 . S
C1346 C1347 1.367 . S
C1347 C1346 1.367 . S
C1347 C1349 1.433 . S
C1348 C1344 1.350 . S
C1348 C1345 1.463 . S
C1348 N1352 1.427 . S
C1349 H1339 0.929 . S
C1349 C1347 1.433 . S
C1349 N1352 1.384 . S
C1350 H1341 0.929 . S
C1350 C1342 1.378 . S
C1350 C1345 1.350 . S
C1351 H1338 0.929 . S
C1351 C1343 1.433 . S
C1351 N1353 1.384 . S
N1352 C1348 1.427 . S
N1352 C1349 1.384 . S
N1353 C1345 1.427 . S
N1353 C1351 1.384 . S
H1354 C1360 0.930 . S
H1355 C1364 0.930 . S
H1356 C1369 0.929 . S
H1357 C1367 0.929 . S
H1358 C1362 0.929 . S
H1359 C1368 0.929 . S
C1360 H1354 0.930 . S
C1360 C1361 1.367 . S
C1360 C1368 1.378 . S
C1361 C1360 1.367 . S
C1361 C1369 1.433 . S
C1362 H1358 0.929 . S
C1362 C1364 1.378 . S
C1362 C1366 1.350 . S
C1363 C1366 1.463 . S
C1363 C1368 1.350 . S
C1363 N1371 1.427 . S
C1364 H1355 0.930 . S
C1364 C1362 1.378 . S
C1364 C1365 1.367 . S
C1365 C1364 1.367 . S
C1365 C1367 1.433 . S
C1366 C1362 1.350 . S
C1366 C1363 1.463 . S
C1366 N1370 1.427 . S
C1367 H1357 0.929 . S
C1367 C1365 1.433 . S
C1367 N1370 1.384 . S
C1368 H1359 0.929 . S
C1368 C1360 1.378 . S
C1368 C1363 1.350 . S
C1369 H1356 0.929 . S
C1369 C1361 1.433 . S
C1369 N1371 1.384 . S
N1370 C1366 1.427 . S
N1370 C1367 1.384 . S
N1371 C1363 1.427 . S
N1371 C1369 1.384 . S
H1372 C1378 0.930 . S
H1373 C1382 0.930 . S
H1374 C1387 0.929 . S
H1375 C1385 0.929 . S
H1376 C1380 0.929 . S
H1377 C1386 0.929 . S
C1378 H1372 0.930 . S
C1378 C1379 1.367 . S
C1378 C1386 1.378 . S
C1379 C1378 1.367 . S
C1379 C1387 1.433 . S
C1380 H1376 0.929 . S
C1380 C1382 1.378 . S
C1380 C1384 1.350 . S
C1381 C1384 1.463 . S
C1381 C1386 1.350 . S
C1381 N1389 1.427 . S
C1382 H1373 0.930 . S
C1382 C1380 1.378 . S
C1382 C1383 1.367 . S
C1383 C1382 1.367 . S
C1383 C1385 1.433 . S
C1384 C1380 1.350 . S
C1384 C1381 1.463 . S
C1384 N1388 1.427 . S
C1385 H1375 0.929 . S
C1385 C1383 1.433 . S
C1385 N1388 1.384 . S
C1386 H1377 0.929 . S
C1386 C1378 1.378 . S
C1386 C1381 1.350 . S
C1387 H1374 0.929 . S
C1387 C1379 1.433 . S
C1387 N1389 1.384 . S
N1388 C1384 1.427 . S
N1388 C1385 1.384 . S
N1389 C1381 1.427 . S
N1389 C1387 1.384 . S
H1390 C1396 0.930 . S
H1391 C1400 0.930 . S
H1392 C1405 0.929 . S
H1393 C1403 0.929 . S
H1394 C1398 0.929 . S
H1395 C1404 0.929 . S
C1396 H1390 0.930 . S
C1396 C1397 1.367 . S
C1396 C1404 1.378 . S
C1397 C1396 1.367 . S
C1397 C1405 1.433 . S
C1398 H1394 0.929 . S
C1398 C1400 1.378 . S
C1398 C1402 1.350 . S
C1399 C1402 1.463 . S
C1399 C1404 1.350 . S
C1399 N1407 1.427 . S
C1400 H1391 0.930 . S
C1400 C1398 1.378 . S
C1400 C1401 1.367 . S
C1401 C1400 1.367 . S
C1401 C1403 1.433 . S
C1402 C1398 1.350 . S
C1402 C1399 1.463 . S
C1402 N1406 1.427 . S
C1403 H1393 0.929 . S
C1403 C1401 1.433 . S
C1403 N1406 1.384 . S
C1404 H1395 0.929 . S
C1404 C1396 1.378 . S
C1404 C1399 1.350 . S
C1405 H1392 0.929 . S
C1405 C1397 1.433 . S
C1405 N1407 1.384 . S
N1406 C1402 1.427 . S
N1406 C1403 1.384 . S
N1407 C1399 1.427 . S
N1407 C1405 1.384 . S
H1408 C1414 0.930 . S
H1409 C1418 0.930 . S
H1410 C1423 0.929 . S
H1411 C1421 0.929 . S
H1412 C1416 0.929 . S
H1413 C1422 0.929 . S
C1414 H1408 0.930 . S
C1414 C1415 1.367 . S
C1414 C1422 1.378 . S
C1415 C1414 1.367 . S
C1415 C1423 1.433 . S
C1416 H1412 0.929 . S
C1416 C1418 1.378 . S
C1416 C1420 1.350 . S
C1417 C1420 1.463 . S
C1417 C1422 1.350 . S
C1417 N1425 1.427 . S
C1418 H1409 0.930 . S
C1418 C1416 1.378 . S
C1418 C1419 1.367 . S
C1419 C1418 1.367 . S
C1419 C1421 1.433 . S
C1420 C1416 1.350 . S
C1420 C1417 1.463 . S
C1420 N1424 1.427 . S
C1421 H1411 0.929 . S
C1421 C1419 1.433 . S
C1421 N1424 1.384 . S
C1422 H1413 0.929 . S
C1422 C1414 1.378 . S
C1422 C1417 1.350 . S
C1423 H1410 0.929 . S
C1423 C1415 1.433 . S
C1423 N1425 1.384 . S
N1424 C1420 1.427 . S
N1424 C1421 1.384 . S
N1425 C1417 1.427 . S
N1425 C1423 1.384 . S
H1426 C1432 0.930 . S
H1427 C1436 0.930 . S
H1428 C1441 0.929 . S
H1429 C1439 0.929 . S
H1430 C1434 0.929 . S
H1431 C1440 0.929 . S
C1432 H1426 0.930 . S
C1432 C1433 1.367 . S
C1432 C1440 1.378 . S
C1433 C1432 1.367 . S
C1433 C1441 1.433 . S
C1434 H1430 0.929 . S
C1434 C1436 1.378 . S
C1434 C1438 1.350 . S
C1435 C1438 1.463 . S
C1435 C1440 1.350 . S
C1435 N1443 1.427 . S
C1436 H1427 0.930 . S
C1436 C1434 1.378 . S
C1436 C1437 1.367 . S
C1437 C1436 1.367 . S
C1437 C1439 1.433 . S
C1438 C1434 1.350 . S
C1438 C1435 1.463 . S
C1438 N1442 1.427 . S
C1439 H1429 0.929 . S
C1439 C1437 1.433 . S
C1439 N1442 1.384 . S
C1440 H1431 0.929 . S
C1440 C1432 1.378 . S
C1440 C1435 1.350 . S
C1441 H1428 0.929 . S
C1441 C1433 1.433 . S
C1441 N1443 1.384 . S
N1442 C1438 1.427 . S
N1442 C1439 1.384 . S
N1443 C1435 1.427 . S
N1443 C1441 1.384 . S
H1444 C1450 0.930 . S
H1445 C1454 0.930 . S
H1446 C1459 0.929 . S
H1447 C1457 0.929 . S
H1448 C1452 0.929 . S
H1449 C1458 0.929 . S
C1450 H1444 0.930 . S
C1450 C1451 1.367 . S
C1450 C1458 1.378 . S
C1451 C1450 1.367 . S
C1451 C1459 1.433 . S
C1452 H1448 0.929 . S
C1452 C1454 1.378 . S
C1452 C1456 1.350 . S
C1453 C1456 1.463 . S
C1453 C1458 1.350 . S
C1453 N1461 1.427 . S
C1454 H1445 0.930 . S
C1454 C1452 1.378 . S
C1454 C1455 1.367 . S
C1455 C1454 1.367 . S
C1455 C1457 1.433 . S
C1456 C1452 1.350 . S
C1456 C1453 1.463 . S
C1456 N1460 1.427 . S
C1457 H1447 0.929 . S
C1457 C1455 1.433 . S
C1457 N1460 1.384 . S
C1458 H1449 0.929 . S
C1458 C1450 1.378 . S
C1458 C1453 1.350 . S
C1459 H1446 0.929 . S
C1459 C1451 1.433 . S
C1459 N1461 1.384 . S
N1460 C1456 1.427 . S
N1460 C1457 1.384 . S
N1461 C1453 1.427 . S
N1461 C1459 1.384 . S
H1462 C1468 0.930 . S
H1463 C1472 0.930 . S
H1464 C1477 0.929 . S
H1465 C1475 0.929 . S
H1466 C1470 0.929 . S
H1467 C1476 0.929 . S
C1468 H1462 0.930 . S
C1468 C1469 1.367 . S
C1468 C1476 1.378 . S
C1469 C1468 1.367 . S
C1469 C1477 1.433 . S
C1470 H1466 0.929 . S
C1470 C1472 1.378 . S
C1470 C1474 1.350 . S
C1471 C1474 1.463 . S
C1471 C1476 1.350 . S
C1471 N1479 1.427 . S
C1472 H1463 0.930 . S
C1472 C1470 1.378 . S
C1472 C1473 1.367 . S
C1473 C1472 1.367 . S
C1473 C1475 1.433 . S
C1474 C1470 1.350 . S
C1474 C1471 1.463 . S
C1474 N1478 1.427 . S
C1475 H1465 0.929 . S
C1475 C1473 1.433 . S
C1475 N1478 1.384 . S
C1476 H1467 0.929 . S
C1476 C1468 1.378 . S
C1476 C1471 1.350 . S
C1477 H1464 0.929 . S
C1477 C1469 1.433 . S
C1477 N1479 1.384 . S
N1478 C1474 1.427 . S
N1478 C1475 1.384 . S
N1479 C1471 1.427 . S
N1479 C1477 1.384 . S
H1480 C1486 0.930 . S
H1481 C1490 0.930 . S
H1482 C1495 0.929 . S
H1483 C1493 0.929 . S
H1484 C1488 0.929 . S
H1485 C1494 0.929 . S
C1486 H1480 0.930 . S
C1486 C1487 1.367 . S
C1486 C1494 1.378 . S
C1487 C1486 1.367 . S
C1487 C1495 1.433 . S
C1488 H1484 0.929 . S
C1488 C1490 1.378 . S
C1488 C1492 1.350 . S
C1489 C1492 1.463 . S
C1489 C1494 1.350 . S
C1489 N1497 1.427 . S
C1490 H1481 0.930 . S
C1490 C1488 1.378 . S
C1490 C1491 1.367 . S
C1491 C1490 1.367 . S
C1491 C1493 1.433 . S
C1492 C1488 1.350 . S
C1492 C1489 1.463 . S
C1492 N1496 1.427 . S
C1493 H1483 0.929 . S
C1493 C1491 1.433 . S
C1493 N1496 1.384 . S
C1494 H1485 0.929 . S
C1494 C1486 1.378 . S
C1494 C1489 1.350 . S
C1495 H1482 0.929 . S
C1495 C1487 1.433 . S
C1495 N1497 1.384 . S
N1496 C1492 1.427 . S
N1496 C1493 1.384 . S
N1497 C1489 1.427 . S
N1497 C1495 1.384 . S
H1498 C1504 0.930 . S
H1499 C1508 0.925 1_556 S
H1500 C1513 0.929 . S
H1501 C1511 0.929 . S
H1502 C1506 0.929 . S
H1503 C1512 0.929 . S
C1504 H1498 0.930 . S
C1504 C1505 1.367 . S
C1504 C1512 1.378 . S
C1505 C1504 1.367 . S
C1505 C1513 1.433 . S
C1506 H1502 0.929 . S
C1506 C1508 1.378 . S
C1506 C1510 1.350 . S
C1507 C1510 1.463 . S
C1507 C1512 1.350 . S
C1507 N1515 1.427 . S
C1508 H1499 0.925 1_554 S
C1508 C1506 1.378 . S
C1508 C1509 1.367 . S
C1509 C1508 1.367 . S
C1509 C1511 1.433 . S
C1510 C1506 1.350 . S
C1510 C1507 1.463 . S
C1510 N1514 1.427 . S
C1511 H1501 0.929 . S
C1511 C1509 1.433 . S
C1511 N1514 1.384 . S
C1512 H1503 0.929 . S
C1512 C1504 1.378 . S
C1512 C1507 1.350 . S
C1513 H1500 0.929 . S
C1513 C1505 1.433 . S
C1513 N1515 1.384 . S
N1514 C1510 1.427 . S
N1514 C1511 1.384 . S
N1515 C1507 1.427 . S
N1515 C1513 1.384 . S
H1516 C1522 0.930 . S
H1517 C1526 0.930 . S
H1518 C1531 0.929 . S
H1519 C1529 0.929 . S
H1520 C1524 0.929 . S
H1521 C1530 0.929 . S
C1522 H1516 0.930 . S
C1522 C1523 1.367 . S
C1522 C1530 1.378 . S
C1523 C1522 1.367 . S
C1523 C1531 1.433 . S
C1524 H1520 0.929 . S
C1524 C1526 1.378 . S
C1524 C1528 1.350 . S
C1525 C1528 1.463 . S
C1525 C1530 1.350 . S
C1525 N1533 1.427 . S
C1526 H1517 0.930 . S
C1526 C1524 1.378 . S
C1526 C1527 1.367 . S
C1527 C1526 1.367 . S
C1527 C1529 1.433 . S
C1528 C1524 1.350 . S
C1528 C1525 1.463 . S
C1528 N1532 1.427 . S
C1529 H1519 0.929 . S
C1529 C1527 1.433 . S
C1529 N1532 1.384 . S
C1530 H1521 0.929 . S
C1530 C1522 1.378 . S
C1530 C1525 1.350 . S
C1531 H1518 0.929 . S
C1531 C1523 1.433 . S
C1531 N1533 1.384 . S
N1532 C1528 1.427 . S
N1532 C1529 1.384 . S
N1533 C1525 1.427 . S
N1533 C1531 1.384 . S
H1534 C1540 0.930 . S
H1535 C1544 0.930 . S
H1536 C1549 0.929 . S
H1537 C1547 0.929 . S
H1538 C1542 0.929 . S
H1539 C1548 0.929 . S
C1540 H1534 0.930 . S
C1540 C1541 1.367 . S
C1540 C1548 1.378 . S
C1541 C1540 1.367 . S
C1541 C1549 1.433 . S
C1542 H1538 0.929 . S
C1542 C1544 1.378 . S
C1542 C1546 1.350 . S
C1543 C1546 1.463 . S
C1543 C1548 1.350 . S
C1543 N1551 1.427 . S
C1544 H1535 0.930 . S
C1544 C1542 1.378 . S
C1544 C1545 1.367 . S
C1545 C1544 1.367 . S
C1545 C1547 1.433 . S
C1546 C1542 1.350 . S
C1546 C1543 1.463 . S
C1546 N1550 1.427 . S
C1547 H1537 0.929 . S
C1547 C1545 1.433 . S
C1547 N1550 1.384 . S
C1548 H1539 0.929 . S
C1548 C1540 1.378 . S
C1548 C1543 1.350 . S
C1549 H1536 0.929 . S
C1549 C1541 1.433 . S
C1549 N1551 1.384 . S
N1550 C1546 1.427 . S
N1550 C1547 1.384 . S
N1551 C1543 1.427 . S
N1551 C1549 1.384 . S
C551 C153 1.540 . S
C555 C17 1.540 . S
C569 C51 1.463 . S
C573 C187 1.461 . S
C587 C221 1.497 . S
C591 C85 1.497 . S
C605 C255 1.452 . S
C609 C119 1.450 . S
C623 C357 1.463 . S
C627 C289 1.460 . S
C641 C323 1.462 . S
C645 C391 1.459 . S
C659 C493 1.493 . S
C663 C425 1.493 . S
C677 C459 1.522 . S
C681 C527 1.522 . S
C695 C105 1.509 . S
C699 C15 1.506 . S
C713 C3 1.503 1_565 S
C717 C56 1.485 . S
C731 C35 1.485 . S
C735 C83 1.459 . S
C749 C117 1.447 1_556 S
C753 C71 1.429 1_545 S
C767 C171 1.522 . S
C771 C151 1.494 . S
C785 C207 1.437 1_565 S
C789 C192 1.442 1_554 S
C803 C241 1.474 . S
C807 C219 1.454 . S
C821 C139 1.499 1_545 S
C825 C253 1.489 . S
C839 C142 2.123 . S
C843 C307 1.994 . S
C857 C300 2.114 . S
C861 C137 1.989 1_545 S
C875 C210 2.091 . S
C879 C275 1.970 . S
C893 C312 2.065 1_554 S
C897 C205 1.938 1_565 S
C911 C343 2.001 . S
C915 C6 2.123 . S
C929 C69 1.947 1_545 S
C933 C368 2.064 1_556 S
C947 C375 1.961 . S
C951 C74 2.093 . S
C965 C1 1.984 1_565 S
C969 C380 2.105 . S
C983 C377 1.485 . S
C987 C423 1.452 . S
C1001 C411 1.451 . S
C1005 C362 1.442 1_556 S
C1019 C457 1.501 . S
C1023 C341 1.506 . S
C1037 C389 1.476 . S
C1041 C445 1.506 . S
C1055 C498 1.469 . S
C1059 C273 1.470 . S
C1073 C511 1.490 . S
C1077 C294 1.480 . S
C1091 C309 1.515 . S
C1095 C532 1.487 . S
C1109 C477 1.454 . S
C1113 C321 1.441 1_554 S
C1127 C239 1.971 . S
C1131 C504 2.085 . S
C1145 C479 1.938 . S
C1149 C198 2.073 1_554 S
C1163 C538 2.114 . S
C1167 C173 2.001 . S
C1181 C244 2.115 . S
C1185 C513 1.986 . S
C1199 C37 1.972 . S
C1203 C414 2.087 . S
C1217 C62 2.105 . S
C1221 C443 1.985 . S
C1235 C448 2.115 . S
C1239 C103 1.991 . S
C1253 C409 1.944 . S
C1257 C108 2.073 1_556 S
C1271 C176 1.607 . S
C1275 C28 1.610 . S
C1289 C232 1.637 . S
C1293 C40 1.633 . S
C1307 C266 1.636 . S
C1311 C96 1.637 . S
C1325 C130 1.610 . S
C1329 C164 1.604 . S
C1343 C158 0.529 . S
C1347 C355 0.565 . S
C1361 C287 0.541 . S
C1365 C90 0.582 . S
C1379 C396 0.560 . S
C1383 C226 0.546 . S
C1397 C22 0.529 . S
C1401 C328 0.566 . S
C1415 C436 1.633 . S
C1419 C278 1.630 . S
C1433 C346 1.613 . S
C1437 C516 1.610 . S
C1451 C470 1.609 . S
C1455 C334 1.612 . S
C1469 C482 1.632 . S
C1473 C402 1.637 . S
C1487 C49 0.589 . S
C1491 C491 0.570 . S
C1505 C464 0.572 . S
C1509 C185 0.567 . S
C1523 C124 0.537 . S
C1527 C525 0.581 . S
C1541 C260 0.593 . S
C1545 C430 0.555 . S
