# Generated by pormake.
# Topology pcu-i, (5)-cn, num edge types: 1
# Building blocks:
#     Node 0, Type 0, BuildingBlock: XOMCOT_clean_sbu_0, # of connection points: 5
#     Node 1, Type 0, BuildingBlock: XOMCOT_clean_sbu_0, # of connection points: 5
#     Node 2, Type 0, BuildingBlock: XOMCOT_clean_sbu_0, # of connection points: 5
#     Node 3, Type 0, BuildingBlock: XOMCOT_clean_sbu_0, # of connection points: 5
#     Node 4, Type 0, BuildingBlock: XOMCOT_clean_sbu_0, # of connection points: 5
#     Node 5, Type 0, BuildingBlock: XOMCOT_clean_sbu_0, # of connection points: 5
#     Node 6, Type 0, BuildingBlock: XOMCOT_clean_sbu_0, # of connection points: 5
#     Node 7, Type 0, BuildingBlock: XOMCOT_clean_sbu_0, # of connection points: 5
#     Node 8, Type 0, BuildingBlock: XOMCOT_clean_sbu_0, # of connection points: 5
#     Node 9, Type 0, BuildingBlock: XOMCOT_clean_sbu_0, # of connection points: 5
#     Node 10, Type 0, BuildingBlock: XOMCOT_clean_sbu_0, # of connection points: 5
#     Node 11, Type 0, BuildingBlock: XOMCOT_clean_sbu_0, # of connection points: 5
#     Node 12, Type 0, BuildingBlock: XOMCOT_clean_sbu_0, # of connection points: 5
#     Node 13, Type 0, BuildingBlock: XOMCOT_clean_sbu_0, # of connection points: 5
#     Node 14, Type 0, BuildingBlock: XOMCOT_clean_sbu_0, # of connection points: 5
#     Node 15, Type 0, BuildingBlock: XOMCOT_clean_sbu_0, # of connection points: 5
#     Node 16, Type 0, BuildingBlock: XOMCOT_clean_sbu_0, # of connection points: 5
#     Node 17, Type 0, BuildingBlock: XOMCOT_clean_sbu_0, # of connection points: 5
#     Node 18, Type 0, BuildingBlock: XOMCOT_clean_sbu_0, # of connection points: 5
#     Node 19, Type 0, BuildingBlock: XOMCOT_clean_sbu_0, # of connection points: 5
#     Node 20, Type 0, BuildingBlock: XOMCOT_clean_sbu_0, # of connection points: 5
#     Node 21, Type 0, BuildingBlock: XOMCOT_clean_sbu_0, # of connection points: 5
#     Node 22, Type 0, BuildingBlock: XOMCOT_clean_sbu_0, # of connection points: 5
#     Node 23, Type 0, BuildingBlock: XOMCOT_clean_sbu_0, # of connection points: 5
#     Edge 24, Type (0, 0), BuildingBlock: XIVTED_clean_linker_0, # of connection points: 2
#     Edge 25, Type (0, 0), BuildingBlock: XIVTED_clean_linker_0, # of connection points: 2
#     Edge 26, Type (0, 0), BuildingBlock: XIVTED_clean_linker_0, # of connection points: 2
#     Edge 27, Type (0, 0), BuildingBlock: XIVTED_clean_linker_0, # of connection points: 2
#     Edge 28, Type (0, 0), BuildingBlock: XIVTED_clean_linker_0, # of connection points: 2
#     Edge 29, Type (0, 0), BuildingBlock: XIVTED_clean_linker_0, # of connection points: 2
#     Edge 30, Type (0, 0), BuildingBlock: XIVTED_clean_linker_0, # of connection points: 2
#     Edge 31, Type (0, 0), BuildingBlock: XIVTED_clean_linker_0, # of connection points: 2
#     Edge 32, Type (0, 0), BuildingBlock: XIVTED_clean_linker_0, # of connection points: 2
#     Edge 33, Type (0, 0), BuildingBlock: XIVTED_clean_linker_0, # of connection points: 2
#     Edge 34, Type (0, 0), BuildingBlock: XIVTED_clean_linker_0, # of connection points: 2
#     Edge 35, Type (0, 0), BuildingBlock: XIVTED_clean_linker_0, # of connection points: 2
#     Edge 36, Type (0, 0), BuildingBlock: XIVTED_clean_linker_0, # of connection points: 2
#     Edge 37, Type (0, 0), BuildingBlock: XIVTED_clean_linker_0, # of connection points: 2
#     Edge 38, Type (0, 0), BuildingBlock: XIVTED_clean_linker_0, # of connection points: 2
#     Edge 39, Type (0, 0), BuildingBlock: XIVTED_clean_linker_0, # of connection points: 2
#     Edge 40, Type (0, 0), BuildingBlock: XIVTED_clean_linker_0, # of connection points: 2
#     Edge 41, Type (0, 0), BuildingBlock: XIVTED_clean_linker_0, # of connection points: 2
#     Edge 42, Type (0, 0), BuildingBlock: XIVTED_clean_linker_0, # of connection points: 2
#     Edge 43, Type (0, 0), BuildingBlock: XIVTED_clean_linker_0, # of connection points: 2
#     Edge 44, Type (0, 0), BuildingBlock: XIVTED_clean_linker_0, # of connection points: 2
#     Edge 45, Type (0, 0), BuildingBlock: XIVTED_clean_linker_0, # of connection points: 2
#     Edge 46, Type (0, 0), BuildingBlock: XIVTED_clean_linker_0, # of connection points: 2
#     Edge 47, Type (0, 0), BuildingBlock: XIVTED_clean_linker_0, # of connection points: 2
#     Edge 48, Type (0, 0), BuildingBlock: XIVTED_clean_linker_0, # of connection points: 2
#     Edge 49, Type (0, 0), BuildingBlock: XIVTED_clean_linker_0, # of connection points: 2
#     Edge 50, Type (0, 0), BuildingBlock: XIVTED_clean_linker_0, # of connection points: 2
#     Edge 51, Type (0, 0), BuildingBlock: XIVTED_clean_linker_0, # of connection points: 2
#     Edge 52, Type (0, 0), BuildingBlock: XIVTED_clean_linker_0, # of connection points: 2
#     Edge 53, Type (0, 0), BuildingBlock: XIVTED_clean_linker_0, # of connection points: 2
#     Edge 54, Type (0, 0), BuildingBlock: XIVTED_clean_linker_0, # of connection points: 2
#     Edge 55, Type (0, 0), BuildingBlock: XIVTED_clean_linker_0, # of connection points: 2
#     Edge 56, Type (0, 0), BuildingBlock: XIVTED_clean_linker_0, # of connection points: 2
#     Edge 57, Type (0, 0), BuildingBlock: XIVTED_clean_linker_0, # of connection points: 2
#     Edge 58, Type (0, 0), BuildingBlock: XIVTED_clean_linker_0, # of connection points: 2
#     Edge 59, Type (0, 0), BuildingBlock: XIVTED_clean_linker_0, # of connection points: 2
#     Edge 60, Type (0, 0), BuildingBlock: XIVTED_clean_linker_0, # of connection points: 2
#     Edge 61, Type (0, 0), BuildingBlock: XIVTED_clean_linker_0, # of connection points: 2
#     Edge 62, Type (0, 0), BuildingBlock: XIVTED_clean_linker_0, # of connection points: 2
#     Edge 63, Type (0, 0), BuildingBlock: XIVTED_clean_linker_0, # of connection points: 2
#     Edge 64, Type (0, 0), BuildingBlock: XIVTED_clean_linker_0, # of connection points: 2
#     Edge 65, Type (0, 0), BuildingBlock: XIVTED_clean_linker_0, # of connection points: 2
#     Edge 66, Type (0, 0), BuildingBlock: XIVTED_clean_linker_0, # of connection points: 2
#     Edge 67, Type (0, 0), BuildingBlock: XIVTED_clean_linker_0, # of connection points: 2
#     Edge 68, Type (0, 0), BuildingBlock: XIVTED_clean_linker_0, # of connection points: 2
#     Edge 69, Type (0, 0), BuildingBlock: XIVTED_clean_linker_0, # of connection points: 2
#     Edge 70, Type (0, 0), BuildingBlock: XIVTED_clean_linker_0, # of connection points: 2
#     Edge 71, Type (0, 0), BuildingBlock: XIVTED_clean_linker_0, # of connection points: 2
#     Edge 72, Type (0, 0), BuildingBlock: XIVTED_clean_linker_0, # of connection points: 2
#     Edge 73, Type (0, 0), BuildingBlock: XIVTED_clean_linker_0, # of connection points: 2
#     Edge 74, Type (0, 0), BuildingBlock: XIVTED_clean_linker_0, # of connection points: 2
#     Edge 75, Type (0, 0), BuildingBlock: XIVTED_clean_linker_0, # of connection points: 2
#     Edge 76, Type (0, 0), BuildingBlock: XIVTED_clean_linker_0, # of connection points: 2
#     Edge 77, Type (0, 0), BuildingBlock: XIVTED_clean_linker_0, # of connection points: 2
#     Edge 78, Type (0, 0), BuildingBlock: XIVTED_clean_linker_0, # of connection points: 2
#     Edge 79, Type (0, 0), BuildingBlock: XIVTED_clean_linker_0, # of connection points: 2
#     Edge 80, Type (0, 0), BuildingBlock: XIVTED_clean_linker_0, # of connection points: 2
#     Edge 81, Type (0, 0), BuildingBlock: XIVTED_clean_linker_0, # of connection points: 2
#     Edge 82, Type (0, 0), BuildingBlock: XIVTED_clean_linker_0, # of connection points: 2
#     Edge 83, Type (0, 0), BuildingBlock: XIVTED_clean_linker_0, # of connection points: 2
# Relax obj value: 0.306
# Max RMSD: 0.282
# Mean RMSD: 0.282
data_MOF--net-pcu-i--node1-XOMCOT_clean_sbu_0--edge1-XIVTED_clean_linker_0
_symmetry_space_group_name_H-M    P1
_symmetry_Int_Tables_number       1
_symmetry_cell_setting            triclinic
loop_
_symmetry_equiv_pos_as_xyz
'x, y, z'
_cell_length_a     56.563349
_cell_length_b     56.531569
_cell_length_c     56.561574
_cell_angle_alpha  90.035411
_cell_angle_beta   90.028089
_cell_angle_gamma 90.027004
loop_
_atom_site_label
_atom_site_type_symbol
_atom_site_fract_x
_atom_site_fract_y
_atom_site_fract_z
_atom_type_partial_charge
Co0 Co 0.13391 0.14909 0.3394 0.0
C1 C 0.08139 0.14219 0.33751 0.0
C2 C 0.0916 0.17869 0.3399 0.0
C3 C 0.06746 0.17761 0.33731 0.0
N4 N 0.10041 0.15652 0.33991 0.0
N5 N 0.06112 0.1547 0.33577 0.0
H6 H 0.08222 0.12313 0.33624 0.0
H7 H 0.1021 0.19463 0.34118 0.0
C8 C 0.15446 0.18913 0.30862 0.0
O9 O 0.17641 0.18513 0.3149 0.0
N10 N 0.16725 0.14149 0.33812 0.0
C11 C 0.18204 0.13675 0.35616 0.0
C12 C 0.20373 0.13052 0.34697 0.0
C13 C 0.17969 0.13687 0.31834 0.0
N14 N 0.2023 0.13081 0.3231 0.0
C15 C 0.12494 0.16391 0.38631 0.0
C16 C 0.16414 0.1925 0.39194 0.0
C17 C 0.15138 0.18555 0.41199 0.0
C18 C 0.13087 0.17206 0.40882 0.0
C19 C 0.15733 0.18427 0.36962 0.0
N20 N 0.13865 0.16913 0.36714 0.0
H21 H 0.1103 0.15174 0.3846 0.0
H22 H 0.16858 0.18835 0.35503 0.0
H23 H 0.17735 0.13755 0.37468 0.0
H24 H 0.17232 0.13877 0.3008 0.0
O25 O 0.12894 0.12022 0.35635 0.0
O26 O 0.12826 0.12311 0.31728 0.0
O27 O 0.13742 0.17645 0.31643 0.0
C28 C 0.12714 0.10967 0.33605 0.0
H29 H 0.05549 0.19252 0.33659 0.0
H30 H 0.21924 0.12598 0.35719 0.0
H31 H 0.18007 0.20301 0.39365 0.0
H32 H 0.12059 0.16606 0.42383 0.0
Co33 Co 0.85254 0.1315 0.35242 0.0
C34 C 0.85636 0.07951 0.34453 0.0
C35 C 0.83281 0.08707 0.37322 0.0
C36 C 0.83484 0.06298 0.37111 0.0
N37 N 0.84663 0.09766 0.3568 0.0
N38 N 0.8496 0.05831 0.3531 0.0
H39 H 0.86882 0.08153 0.33019 0.0
H40 H 0.82212 0.09594 0.38629 0.0
C41 C 0.80107 0.1281 0.33861 0.0
O42 O 0.79569 0.12003 0.35966 0.0
N43 N 0.85841 0.16474 0.34751 0.0
C44 C 0.86993 0.17969 0.36201 0.0
C45 C 0.87161 0.20136 0.35101 0.0
C46 C 0.85336 0.1773 0.32794 0.0
N47 N 0.86119 0.19985 0.32953 0.0
C48 C 0.8494 0.13018 0.40219 0.0
C49 C 0.81729 0.16663 0.40777 0.0
C50 C 0.82935 0.15786 0.42757 0.0
C51 C 0.84505 0.13907 0.42467 0.0
C52 C 0.82218 0.15714 0.38533 0.0
N53 N 0.83825 0.13921 0.38278 0.0
H54 H 0.86265 0.11656 0.40023 0.0
H55 H 0.81432 0.16523 0.36991 0.0
H56 H 0.87701 0.17503 0.37915 0.0
H57 H 0.84437 0.16985 0.31279 0.0
O58 O 0.88433 0.12767 0.36387 0.0
O59 O 0.87382 0.12495 0.3262 0.0
O60 O 0.82225 0.13425 0.33377 0.0
C61 C 0.89058 0.12453 0.34205 0.0
H62 H 0.82638 0.04984 0.38217 0.0
H63 H 0.88051 0.21675 0.35808 0.0
H64 H 0.80533 0.18149 0.40945 0.0
H65 H 0.85478 0.13203 0.4396 0.0
Co66 Co 0.8661 0.85075 0.3356 0.0
C67 C 0.91875 0.85517 0.33329 0.0
C68 C 0.9073 0.81959 0.33979 0.0
C69 C 0.93146 0.81952 0.33689 0.0
N70 N 0.89926 0.84193 0.33749 0.0
N71 N 0.93857 0.8419 0.33276 0.0
H72 H 0.91855 0.87392 0.32965 0.0
H73 H 0.89624 0.80425 0.34265 0.0
C74 C 0.84422 0.81017 0.30665 0.0
O75 O 0.82254 0.81556 0.31277 0.0
N76 N 0.83318 0.85987 0.33257 0.0
C77 C 0.81698 0.86483 0.34934 0.0
C78 C 0.79559 0.86935 0.33834 0.0
C79 C 0.82196 0.8631 0.31182 0.0
N80 N 0.79878 0.86779 0.31475 0.0
C81 C 0.87349 0.83824 0.38348 0.0
C82 C 0.83316 0.81145 0.38988 0.0
C83 C 0.84621 0.81849 0.40969 0.0
C84 C 0.8672 0.83111 0.40622 0.0
C85 C 0.84043 0.81848 0.36732 0.0
N86 N 0.85975 0.8327 0.36438 0.0
H87 H 0.88863 0.84972 0.38144 0.0
H88 H 0.82912 0.81421 0.35285 0.0
H89 H 0.82018 0.86432 0.36818 0.0
H90 H 0.8303 0.86024 0.29483 0.0
O91 O 0.87208 0.88025 0.35097 0.0
O92 O 0.87349 0.87494 0.3121 0.0
O93 O 0.86191 0.82212 0.31421 0.0
C94 C 0.87508 0.88931 0.33014 0.0
H95 H 0.94288 0.80418 0.33754 0.0
H96 H 0.77876 0.87204 0.34704 0.0
H97 H 0.81678 0.80172 0.39192 0.0
H98 H 0.87765 0.83712 0.42112 0.0
Co99 Co 0.14594 0.8641 0.34022 0.0
C100 C 0.14253 0.91697 0.33625 0.0
C101 C 0.17676 0.90498 0.34749 0.0
C102 C 0.17694 0.92928 0.34694 0.0
N103 N 0.15513 0.8972 0.3411 0.0
N104 N 0.15549 0.93673 0.3398 0.0
H105 H 0.12416 0.91715 0.33096 0.0
H106 H 0.19131 0.89371 0.35268 0.0
C107 C 0.18928 0.8397 0.31817 0.0
O108 O 0.18238 0.81849 0.32452 0.0
N109 N 0.13661 0.83111 0.33864 0.0
C110 C 0.12813 0.81729 0.35608 0.0
C111 C 0.12233 0.79554 0.34667 0.0
C112 C 0.13456 0.81809 0.31875 0.0
N113 N 0.12659 0.796 0.32317 0.0
C114 C 0.15168 0.87473 0.38885 0.0
C115 C 0.17769 0.83537 0.40149 0.0
C116 C 0.16873 0.85013 0.41922 0.0
C117 C 0.15633 0.87047 0.41267 0.0
C118 C 0.17324 0.8407 0.37772 0.0
N119 N 0.15959 0.85971 0.37165 0.0
H120 H 0.14053 0.88956 0.38426 0.0
H121 H 0.1792 0.82841 0.36464 0.0
H122 H 0.12612 0.82267 0.37433 0.0
H123 H 0.1398 0.82453 0.30152 0.0
O124 O 0.11455 0.87155 0.35058 0.0
O125 O 0.1257 0.86979 0.31297 0.0
O126 O 0.17709 0.85804 0.32341 0.0
C127 C 0.10878 0.87268 0.32841 0.0
H128 H 0.19163 0.94065 0.35159 0.0
H129 H 0.11536 0.78064 0.35643 0.0
H130 H 0.18724 0.81939 0.40599 0.0
H131 H 0.14891 0.88213 0.42594 0.0
Co132 Co 0.12889 0.85304 0.66864 0.0
C133 C 0.07632 0.85841 0.66449 0.0
C134 C 0.08656 0.83368 0.69118 0.0
C135 C 0.0627 0.83725 0.69294 0.0
N136 N 0.09529 0.84637 0.67291 0.0
N137 N 0.05627 0.85292 0.67629 0.0
H138 H 0.07735 0.8725 0.65161 0.0
H139 H 0.09691 0.8241 0.70402 0.0
C140 C 0.12992 0.80154 0.68042 0.0
O141 O 0.11579 0.79798 0.66231 0.0
N142 N 0.16223 0.8601 0.66639 0.0
C143 C 0.17354 0.87476 0.65137 0.0
C144 C 0.19674 0.87708 0.6588 0.0
C145 C 0.17846 0.85376 0.68257 0.0
N146 N 0.19967 0.86369 0.67832 0.0
C147 C 0.11514 0.84499 0.62033 0.0
C148 C 0.1546 0.81863 0.60853 0.0
C149 C 0.13975 0.82678 0.59051 0.0
C150 C 0.11934 0.83932 0.59667 0.0
C151 C 0.14943 0.82415 0.63205 0.0
N152 N 0.13027 0.83782 0.63771 0.0
H153 H 0.10074 0.8567 0.62427 0.0
H154 H 0.1618 0.8188 0.6456 0.0
H155 H 0.16533 0.88375 0.63662 0.0
H156 H 0.17454 0.8431 0.69796 0.0
O157 O 0.12157 0.88437 0.65794 0.0
O158 O 0.1274 0.8744 0.6955 0.0
O159 O 0.13694 0.82249 0.68537 0.0
C160 C 0.12299 0.89084 0.67992 0.0
H161 H 0.05119 0.82977 0.70626 0.0
H162 H 0.21026 0.88798 0.65075 0.0
H163 H 0.17061 0.80898 0.60439 0.0
H164 H 0.1077 0.84631 0.58315 0.0
Co165 Co 0.1524 0.13018 0.65158 0.0
C166 C 0.14833 0.07868 0.66158 0.0
C167 C 0.17647 0.08521 0.63716 0.0
C168 C 0.17622 0.06148 0.64242 0.0
N169 N 0.15901 0.09623 0.64924 0.0
N170 N 0.15851 0.05747 0.65774 0.0
H171 H 0.13377 0.08122 0.67368 0.0
H172 H 0.18879 0.09352 0.62522 0.0
C173 C 0.20292 0.12989 0.66904 0.0
O174 O 0.21021 0.123 0.64815 0.0
N175 N 0.14574 0.16351 0.65489 0.0
C176 C 0.13477 0.17779 0.63934 0.0
C177 C 0.13246 0.19987 0.64943 0.0
C178 C 0.14976 0.17686 0.6742 0.0
N179 N 0.14187 0.19926 0.6714 0.0
C180 C 0.16231 0.12548 0.60267 0.0
C181 C 0.19054 0.16524 0.59861 0.0
C182 C 0.18286 0.15362 0.57813 0.0
C183 C 0.16921 0.13314 0.58033 0.0
C184 C 0.18386 0.1565 0.62078 0.0
N185 N 0.1696 0.13701 0.62259 0.0
H186 H 0.15005 0.11087 0.60397 0.0
H187 H 0.18881 0.1663 0.63644 0.0
H188 H 0.12863 0.17243 0.62203 0.0
H189 H 0.15814 0.17015 0.69 0.0
O190 O 0.1219 0.1257 0.63716 0.0
O191 O 0.12873 0.12429 0.67572 0.0
O192 O 0.181 0.13395 0.67279 0.0
C193 C 0.1135 0.12342 0.65839 0.0
H194 H 0.18796 0.04813 0.63533 0.0
H195 H 0.12388 0.21495 0.64138 0.0
H196 H 0.20078 0.1814 0.59744 0.0
H197 H 0.16251 0.12407 0.56483 0.0
Co198 Co 0.87024 0.15686 0.6741 0.0
C199 C 0.92279 0.15137 0.66836 0.0
C200 C 0.91322 0.17519 0.69614 0.0
C201 C 0.93708 0.1715 0.69728 0.0
N202 N 0.90403 0.16317 0.67762 0.0
N203 N 0.94313 0.15635 0.67999 0.0
H204 H 0.92142 0.13776 0.655 0.0
H205 H 0.90318 0.18433 0.70954 0.0
C206 C 0.86986 0.20787 0.68748 0.0
O207 O 0.88412 0.21166 0.66953 0.0
N208 N 0.8368 0.1502 0.67275 0.0
C209 C 0.8231 0.14253 0.65477 0.0
C210 C 0.80026 0.13969 0.66314 0.0
C211 C 0.82251 0.15131 0.6917 0.0
N212 N 0.8002 0.14504 0.68638 0.0
C213 C 0.88206 0.16494 0.62553 0.0
C214 C 0.84438 0.19448 0.61565 0.0
C215 C 0.85773 0.18542 0.59683 0.0
C216 C 0.87727 0.17112 0.60213 0.0
C217 C 0.8499 0.18801 0.63889 0.0
N218 N 0.86824 0.17292 0.6436 0.0
H219 H 0.89575 0.15218 0.62878 0.0
H220 H 0.8383 0.19376 0.65293 0.0
H221 H 0.82925 0.13916 0.63698 0.0
H222 H 0.82839 0.15656 0.70915 0.0
O223 O 0.87688 0.1258 0.66228 0.0
O224 O 0.87243 0.13474 0.70029 0.0
O225 O 0.86265 0.18689 0.69196 0.0
C226 C 0.87617 0.11874 0.68409 0.0
H227 H 0.94887 0.17849 0.71064 0.0
H228 H 0.78508 0.13366 0.65316 0.0
H229 H 0.82916 0.20564 0.61242 0.0
H230 H 0.88781 0.16326 0.58821 0.0
Co231 Co 0.84753 0.88086 0.64699 0.0
C232 C 0.85163 0.93209 0.65767 0.0
C233 C 0.82485 0.92629 0.63155 0.0
C234 C 0.82507 0.94994 0.63724 0.0
N235 N 0.84149 0.91487 0.64442 0.0
N236 N 0.84193 0.95347 0.65362 0.0
H237 H 0.86534 0.92916 0.67065 0.0
H238 H 0.81287 0.91826 0.61905 0.0
C239 C 0.79769 0.88332 0.66525 0.0
O240 O 0.7905 0.89066 0.64448 0.0
N241 N 0.85368 0.84748 0.6505 0.0
C242 C 0.86267 0.83261 0.63424 0.0
C243 C 0.86511 0.81062 0.6444 0.0
C244 C 0.85108 0.83457 0.67034 0.0
N245 N 0.85787 0.81187 0.66715 0.0
C246 C 0.83724 0.88437 0.59804 0.0
C247 C 0.8076 0.84549 0.59567 0.0
C248 C 0.81577 0.85582 0.57472 0.0
C249 C 0.83006 0.87596 0.57605 0.0
C250 C 0.81457 0.855 0.61744 0.0
N251 N 0.82964 0.87393 0.61843 0.0
H252 H 0.85001 0.89858 0.59873 0.0
H253 H 0.80941 0.84599 0.63348 0.0
H254 H 0.86716 0.83745 0.61629 0.0
H255 H 0.84498 0.84193 0.6869 0.0
O256 O 0.87787 0.88467 0.63209 0.0
O257 O 0.87158 0.88661 0.67074 0.0
O258 O 0.81935 0.8779 0.66867 0.0
C259 C 0.88655 0.88715 0.6532 0.0
H260 H 0.81378 0.96352 0.62987 0.0
H261 H 0.87172 0.79497 0.63559 0.0
H262 H 0.79688 0.82962 0.5952 0.0
H263 H 0.83713 0.88403 0.56018 0.0
Co264 Co 0.35015 0.12126 0.15346 0.0
C265 C 0.34024 0.07002 0.14846 0.0
C266 C 0.36621 0.07559 0.17541 0.0
C267 C 0.36082 0.05186 0.17466 0.0
N268 N 0.35324 0.08718 0.15898 0.0
N269 N 0.34454 0.04848 0.15768 0.0
H270 H 0.32724 0.07305 0.1348 0.0
H271 H 0.37857 0.08353 0.1876 0.0
C272 C 0.33186 0.11801 0.20324 0.0
O273 O 0.35265 0.1105 0.2102 0.0
N274 N 0.34597 0.15465 0.1478 0.0
C275 C 0.36137 0.16986 0.13792 0.0
C276 C 0.35053 0.19159 0.13589 0.0
C277 C 0.32602 0.16711 0.15144 0.0
N278 N 0.32825 0.18983 0.14438 0.0
C279 C 0.39906 0.11834 0.16414 0.0
C280 C 0.4007 0.15683 0.19431 0.0
C281 C 0.42189 0.14677 0.18636 0.0
C282 C 0.42088 0.12683 0.17173 0.0
C283 C 0.3791 0.14728 0.18686 0.0
N284 N 0.37848 0.12846 0.17163 0.0
H285 H 0.39868 0.10427 0.15119 0.0
H286 H 0.36291 0.15606 0.19195 0.0
H287 H 0.37908 0.16536 0.13228 0.0
H288 H 0.31016 0.15951 0.15893 0.0
O289 O 0.36545 0.11815 0.12326 0.0
O290 O 0.32677 0.11544 0.12898 0.0
O291 O 0.32828 0.12349 0.18161 0.0
C292 C 0.34453 0.11538 0.11424 0.0
H293 H 0.36834 0.03813 0.18568 0.0
H294 H 0.35829 0.20724 0.12809 0.0
H295 H 0.40086 0.1725 0.20534 0.0
H296 H 0.43688 0.11894 0.16475 0.0
Co297 Co 0.87522 0.32867 0.14795 0.0
C298 C 0.92778 0.32926 0.14139 0.0
C299 C 0.9168 0.30616 0.16921 0.0
C300 C 0.94035 0.30253 0.16526 0.0
N301 N 0.90871 0.32337 0.15472 0.0
N302 N 0.94726 0.31679 0.14756 0.0
H303 H 0.92706 0.34079 0.12615 0.0
H304 H 0.90617 0.29493 0.18032 0.0
C305 C 0.8725 0.31868 0.1999 0.0
O306 O 0.88656 0.33683 0.20354 0.0
N307 N 0.84191 0.33184 0.14095 0.0
C308 C 0.8309 0.34587 0.1251 0.0
C309 C 0.80747 0.33888 0.12351 0.0
C310 C 0.82527 0.31673 0.14868 0.0
N311 N 0.80414 0.32071 0.13858 0.0
C312 C 0.89122 0.3764 0.15483 0.0
C313 C 0.85141 0.39116 0.17911 0.0
C314 C 0.86714 0.40815 0.17039 0.0
C315 C 0.88776 0.40053 0.15902 0.0
C316 C 0.85581 0.36719 0.17503 0.0
N317 N 0.87507 0.36007 0.16224 0.0
H318 H 0.90594 0.37117 0.14399 0.0
H319 H 0.84276 0.35444 0.18073 0.0
H320 H 0.83946 0.35948 0.11475 0.0
H321 H 0.82879 0.30203 0.1604 0.0
O322 O 0.88275 0.33839 0.11644 0.0
O323 O 0.87558 0.30126 0.12723 0.0
O324 O 0.86653 0.31299 0.17884 0.0
C325 C 0.88034 0.31637 0.11043 0.0
H326 H 0.95122 0.28937 0.17389 0.0
H327 H 0.79413 0.34617 0.11189 0.0
H328 H 0.83528 0.39641 0.18799 0.0
H329 H 0.90016 0.4132 0.15176 0.0
Co330 Co 0.65514 0.86583 0.14499 0.0
C331 C 0.65726 0.91881 0.14294 0.0
C332 C 0.64199 0.90579 0.17516 0.0
C333 C 0.6421 0.93009 0.17597 0.0
N334 N 0.6511 0.89866 0.1543 0.0
N335 N 0.6518 0.93816 0.1558 0.0
H336 H 0.66521 0.91954 0.12558 0.0
H337 H 0.63559 0.89407 0.18885 0.0
C338 C 0.67694 0.84347 0.1896 0.0
O339 O 0.67186 0.82174 0.18325 0.0
N340 N 0.66016 0.8332 0.13567 0.0
C341 C 0.64498 0.81811 0.12512 0.0
C342 C 0.6568 0.79727 0.12021 0.0
C343 C 0.68112 0.82188 0.13589 0.0
N344 N 0.67944 0.7997 0.12731 0.0
C345 C 0.60564 0.87267 0.14836 0.0
C346 C 0.59444 0.83189 0.17278 0.0
C347 C 0.57618 0.84599 0.16382 0.0
C348 C 0.58197 0.86693 0.15208 0.0
C349 C 0.61801 0.83871 0.16931 0.0
N350 N 0.62344 0.85861 0.15671 0.0
H351 H 0.6097 0.88804 0.13775 0.0
H352 H 0.6316 0.82698 0.17528 0.0
H353 H 0.62663 0.82192 0.12131 0.0
H354 H 0.69724 0.82963 0.14275 0.0
O355 O 0.64594 0.87272 0.11313 0.0
O356 O 0.6829 0.874 0.12644 0.0
O357 O 0.67084 0.86115 0.17689 0.0
C358 C 0.66823 0.87589 0.10872 0.0
H359 H 0.63571 0.94103 0.19033 0.0
H360 H 0.6492 0.78138 0.11269 0.0
H361 H 0.59053 0.81541 0.18173 0.0
H362 H 0.5683 0.87807 0.14459 0.0
Co363 Co 0.12535 0.64566 0.15554 0.0
C364 C 0.07422 0.65584 0.14927 0.0
C365 C 0.07969 0.6334 0.17925 0.0
C366 C 0.05603 0.63892 0.17796 0.0
N367 N 0.09127 0.64404 0.16124 0.0
N368 N 0.05272 0.653 0.15909 0.0
H369 H 0.07732 0.66688 0.134 0.0
H370 H 0.08757 0.62217 0.19248 0.0
C371 C 0.12514 0.66268 0.20631 0.0
O372 O 0.11954 0.64145 0.21376 0.0
N373 N 0.15889 0.64855 0.14976 0.0
C374 C 0.17324 0.63334 0.13841 0.0
C375 C 0.19516 0.64378 0.13603 0.0
C376 C 0.17203 0.66796 0.15392 0.0
N377 N 0.19437 0.66564 0.14575 0.0
C378 C 0.11856 0.59694 0.16481 0.0
C379 C 0.15947 0.59044 0.19078 0.0
C380 C 0.14738 0.57062 0.18205 0.0
C381 C 0.12615 0.57407 0.16984 0.0
C382 C 0.15082 0.61316 0.18598 0.0
N383 N 0.13099 0.6162 0.17243 0.0
H384 H 0.10361 0.59917 0.15312 0.0
H385 H 0.16114 0.62831 0.19146 0.0
H386 H 0.16797 0.61616 0.13181 0.0
H387 H 0.16504 0.68364 0.16231 0.0
O388 O 0.12129 0.63159 0.12485 0.0
O389 O 0.1207 0.67019 0.13204 0.0
O390 O 0.12866 0.6666 0.18434 0.0
C391 C 0.11979 0.65297 0.11667 0.0
H392 H 0.04228 0.63279 0.18977 0.0
H393 H 0.21016 0.63609 0.12703 0.0
H394 H 0.17606 0.58843 0.20014 0.0
H395 H 0.11657 0.55923 0.16237 0.0
Co396 Co 0.34519 0.87051 0.84718 0.0
C397 C 0.33826 0.92278 0.85142 0.0
C398 C 0.35262 0.91259 0.81779 0.0
C399 C 0.35021 0.9368 0.81813 0.0
N400 N 0.34557 0.9038 0.83881 0.0
N401 N 0.34103 0.94304 0.83917 0.0
H402 H 0.33148 0.92208 0.86926 0.0
H403 H 0.35923 0.9021 0.80322 0.0
C404 C 0.32058 0.84696 0.80482 0.0
O405 O 0.32711 0.82567 0.81127 0.0
N406 N 0.34405 0.83737 0.85581 0.0
C407 C 0.36182 0.82295 0.8624 0.0
C408 C 0.3524 0.80116 0.86812 0.0
C409 C 0.32413 0.82471 0.85897 0.0
N410 N 0.32866 0.80225 0.86571 0.0
C411 C 0.39359 0.88051 0.83956 0.0
C412 C 0.40407 0.84203 0.81132 0.0
C413 C 0.42252 0.85576 0.82043 0.0
C414 C 0.41707 0.87576 0.83388 0.0
C415 C 0.38069 0.84785 0.81685 0.0
N416 N 0.37572 0.86627 0.8317 0.0
H417 H 0.38982 0.89497 0.85148 0.0
H418 H 0.36706 0.83625 0.81075 0.0
H419 H 0.38028 0.82788 0.8631 0.0
H420 H 0.30675 0.83167 0.85513 0.0
O421 O 0.35738 0.87709 0.87816 0.0
O422 O 0.31924 0.87592 0.86915 0.0
O423 O 0.32664 0.86521 0.81682 0.0
C424 C 0.33563 0.87824 0.8853 0.0
H425 H 0.35479 0.94893 0.80404 0.0
H426 H 0.36236 0.78579 0.87362 0.0
H427 H 0.40775 0.82634 0.80096 0.0
H428 H 0.43095 0.88664 0.84141 0.0
Co429 Co 0.1251 0.34094 0.84296 0.0
C430 C 0.07283 0.34725 0.84744 0.0
C431 C 0.08208 0.32346 0.81955 0.0
C432 C 0.05816 0.32235 0.82277 0.0
N433 N 0.09157 0.33945 0.83463 0.0
N434 N 0.05234 0.33702 0.84052 0.0
H435 H 0.07431 0.35847 0.86287 0.0
H436 H 0.09169 0.31121 0.80861 0.0
C437 C 0.13002 0.32806 0.7917 0.0
O438 O 0.11886 0.34767 0.78616 0.0
N439 N 0.15811 0.34031 0.85156 0.0
C440 C 0.17097 0.35569 0.86445 0.0
C441 C 0.193 0.34582 0.86843 0.0
C442 C 0.17215 0.32145 0.84814 0.0
N443 N 0.19356 0.32418 0.85824 0.0
C444 C 0.11491 0.38953 0.83323 0.0
C445 C 0.15759 0.3991 0.81137 0.0
C446 C 0.14335 0.41796 0.81873 0.0
C447 C 0.12128 0.41297 0.82875 0.0
C448 C 0.1503 0.37588 0.81565 0.0
N449 N 0.12966 0.37134 0.82742 0.0
H450 H 0.09904 0.38627 0.8432 0.0
H451 H 0.1622 0.3616 0.8112 0.0
H452 H 0.16457 0.37247 0.87105 0.0
H453 H 0.16642 0.30574 0.83887 0.0
O454 O 0.11754 0.35308 0.87372 0.0
O455 O 0.12027 0.31493 0.86478 0.0
O456 O 0.13348 0.32273 0.81339 0.0
C457 C 0.11696 0.33125 0.8808 0.0
H458 H 0.04619 0.31042 0.81376 0.0
H459 H 0.20708 0.35358 0.87881 0.0
H460 H 0.17477 0.40231 0.80353 0.0
H461 H 0.10993 0.4271 0.83497 0.0
Co462 Co 0.65927 0.14013 0.86044 0.0
C463 C 0.66493 0.08761 0.86588 0.0
C464 C 0.65576 0.09811 0.83059 0.0
C465 C 0.65997 0.07419 0.8306 0.0
N466 N 0.65894 0.10664 0.85264 0.0
N467 N 0.66577 0.06764 0.85275 0.0
H468 H 0.66952 0.08829 0.88441 0.0
H469 H 0.65133 0.10875 0.81532 0.0
C470 C 0.68372 0.16163 0.81649 0.0
O471 O 0.67676 0.18336 0.82067 0.0
N472 N 0.66061 0.17348 0.86817 0.0
C473 C 0.64314 0.18762 0.87604 0.0
C474 C 0.65252 0.20966 0.88077 0.0
C475 C 0.68044 0.18666 0.86939 0.0
N476 N 0.676 0.20906 0.87642 0.0
C477 C 0.61117 0.12903 0.8514 0.0
C478 C 0.60005 0.16866 0.82513 0.0
C479 C 0.58177 0.15406 0.83318 0.0
C480 C 0.5876 0.13352 0.84564 0.0
C481 C 0.62351 0.16317 0.83076 0.0
N482 N 0.62882 0.14405 0.84455 0.0
H483 H 0.61507 0.11419 0.8628 0.0
H484 H 0.63684 0.17561 0.8258 0.0
H485 H 0.62493 0.18226 0.87834 0.0
H486 H 0.69767 0.17998 0.86449 0.0
O487 O 0.64681 0.13412 0.89142 0.0
O488 O 0.68506 0.13523 0.8827 0.0
O489 O 0.6782 0.14458 0.83031 0.0
C490 C 0.66855 0.13303 0.89869 0.0
H491 H 0.65903 0.06249 0.81546 0.0
H492 H 0.64275 0.22482 0.88715 0.0
H493 H 0.59617 0.18479 0.81556 0.0
H494 H 0.57392 0.12195 0.85243 0.0
Co495 Co 0.87573 0.67417 0.84352 0.0
C496 C 0.9289 0.66992 0.8457 0.0
C497 C 0.91663 0.69873 0.82457 0.0
C498 C 0.94054 0.70067 0.82669 0.0
N499 N 0.90903 0.67903 0.83572 0.0
N500 N 0.94847 0.68264 0.84003 0.0
H501 H 0.92888 0.65549 0.85822 0.0
H502 H 0.90549 0.71249 0.81746 0.0
C503 C 0.87318 0.6893 0.79337 0.0
O504 O 0.88737 0.67146 0.78888 0.0
N505 N 0.84265 0.67169 0.85174 0.0
C506 C 0.83156 0.65633 0.86625 0.0
C507 C 0.80836 0.6637 0.86906 0.0
C508 C 0.82631 0.68796 0.846 0.0
N509 N 0.80526 0.68345 0.85606 0.0
C510 C 0.88796 0.62636 0.83154 0.0
C511 C 0.84653 0.61714 0.80721 0.0
C512 C 0.86065 0.59815 0.81445 0.0
C513 C 0.88216 0.60303 0.82572 0.0
C514 C 0.85318 0.64024 0.81297 0.0
N515 N 0.87317 0.64459 0.82592 0.0
H516 H 0.90323 0.62938 0.84246 0.0
H517 H 0.84113 0.65445 0.80876 0.0
H518 H 0.83988 0.64135 0.87473 0.0
H519 H 0.82996 0.70359 0.83561 0.0
O520 O 0.88425 0.6604 0.87307 0.0
O521 O 0.87865 0.69884 0.86754 0.0
O522 O 0.86661 0.69335 0.81465 0.0
C523 C 0.88352 0.68149 0.88203 0.0
H524 H 0.9509 0.71559 0.82068 0.0
H525 H 0.79498 0.65544 0.87995 0.0
H526 H 0.82979 0.61409 0.7984 0.0
H527 H 0.89342 0.58881 0.83189 0.0
Co528 Co 0.1548 0.32985 0.12203 0.0
C529 C 0.15464 0.3355 0.0692 0.0
C530 C 0.17747 0.30793 0.08127 0.0
C531 C 0.17604 0.30651 0.05725 0.0
N532 N 0.16469 0.32653 0.08909 0.0
N533 N 0.16157 0.32371 0.04946 0.0
H534 H 0.14117 0.34904 0.06931 0.0
H535 H 0.18511 0.29427 0.09214 0.0
C536 C 0.20486 0.31475 0.12807 0.0
O537 O 0.21068 0.3332 0.11519 0.0
N538 N 0.14451 0.33089 0.15453 0.0
C539 C 0.13582 0.3489 0.16756 0.0
C540 C 0.13112 0.34053 0.19009 0.0
C541 C 0.14426 0.3119 0.16881 0.0
N542 N 0.13626 0.31725 0.19054 0.0
C543 C 0.1671 0.378 0.1119 0.0
C544 C 0.19014 0.38618 0.15428 0.0
C545 C 0.18377 0.40549 0.14018 0.0
C546 C 0.17309 0.40113 0.11824 0.0
C547 C 0.18423 0.36329 0.14708 0.0
N548 N 0.17195 0.35947 0.12656 0.0
H549 H 0.15677 0.37533 0.09613 0.0
H550 H 0.18771 0.34882 0.15907 0.0
H551 H 0.13336 0.3668 0.16126 0.0
H552 H 0.15014 0.29448 0.16345 0.0
O553 O 0.1253 0.34345 0.11246 0.0
O554 O 0.13171 0.30496 0.11665 0.0
O555 O 0.18307 0.31046 0.13246 0.0
C556 C 0.11694 0.32208 0.11191 0.0
H557 H 0.18321 0.29225 0.04671 0.0
H558 H 0.12429 0.35062 0.20485 0.0
H559 H 0.19842 0.38884 0.17135 0.0
H560 H 0.1676 0.41562 0.10698 0.0
Co561 Co 0.15517 0.66232 0.87436 0.0
C562 C 0.15417 0.65588 0.92735 0.0
C563 C 0.17716 0.6835 0.91566 0.0
C564 C 0.17606 0.68438 0.93969 0.0
N565 N 0.16416 0.66515 0.90758 0.0
N566 N 0.16161 0.66707 0.94727 0.0
H567 H 0.14052 0.64252 0.92712 0.0
H568 H 0.18495 0.69722 0.90496 0.0
C569 C 0.20625 0.67503 0.87039 0.0
O570 O 0.21109 0.65589 0.88264 0.0
N571 N 0.14607 0.66203 0.84145 0.0
C572 C 0.13279 0.64653 0.82917 0.0
C573 C 0.12884 0.65582 0.80686 0.0
C574 C 0.14979 0.68035 0.82679 0.0
N575 N 0.13949 0.67721 0.8055 0.0
C576 C 0.16438 0.61355 0.88473 0.0
C577 C 0.18733 0.60411 0.84259 0.0
C578 C 0.17966 0.58521 0.8566 0.0
C579 C 0.16904 0.59013 0.8784 0.0
C580 C 0.18283 0.62731 0.84984 0.0
N581 N 0.17063 0.6318 0.87025 0.0
H582 H 0.1539 0.61671 0.90025 0.0
H583 H 0.18744 0.6416 0.83803 0.0
H584 H 0.12594 0.63008 0.83612 0.0
H585 H 0.15948 0.69597 0.832 0.0
O586 O 0.12455 0.65051 0.88297 0.0
O587 O 0.13351 0.68852 0.87882 0.0
O588 O 0.18481 0.68006 0.86524 0.0
C589 C 0.11753 0.67236 0.883 0.0
H590 H 0.18367 0.69825 0.95047 0.0
H591 H 0.11822 0.64779 0.79311 0.0
H592 H 0.19557 0.60097 0.82559 0.0
H593 H 0.16251 0.57597 0.88952 0.0
Co594 Co 0.33406 0.15056 0.87124 0.0
C595 C 0.33965 0.14499 0.92374 0.0
C596 C 0.31293 0.17001 0.91434 0.0
C597 C 0.31159 0.16615 0.93814 0.0
N598 N 0.33093 0.1573 0.90504 0.0
N599 N 0.32819 0.15024 0.94407 0.0
H600 H 0.35256 0.13095 0.92228 0.0
H601 H 0.29975 0.17962 0.90449 0.0
C602 C 0.31985 0.20122 0.86952 0.0
O603 O 0.33868 0.20578 0.88236 0.0
N604 N 0.33485 0.14334 0.83787 0.0
C605 C 0.35139 0.13193 0.82511 0.0
C606 C 0.34262 0.1284 0.80254 0.0
C607 C 0.31634 0.1463 0.82321 0.0
N608 N 0.32048 0.13736 0.80148 0.0
C609 C 0.38175 0.16241 0.88366 0.0
C610 C 0.39182 0.18649 0.84233 0.0
C611 C 0.41042 0.17985 0.85725 0.0
C612 C 0.40508 0.16863 0.87863 0.0
C613 C 0.36859 0.18054 0.84837 0.0
N614 N 0.36387 0.16772 0.86835 0.0
H615 H 0.37852 0.1516 0.89894 0.0
H616 H 0.35458 0.18469 0.83605 0.0
H617 H 0.36828 0.12604 0.83189 0.0
H618 H 0.29994 0.15445 0.82866 0.0
O619 O 0.34767 0.12048 0.878 0.0
O620 O 0.30914 0.12683 0.87445 0.0
O621 O 0.31501 0.17987 0.86367 0.0
C622 C 0.32644 0.11188 0.87795 0.0
H623 H 0.29842 0.17346 0.94996 0.0
H624 H 0.35153 0.11915 0.78836 0.0
H625 H 0.39532 0.19517 0.82562 0.0
H626 H 0.41904 0.1629 0.89043 0.0
Co627 Co 0.84447 0.35831 0.87513 0.0
C628 C 0.85021 0.34728 0.92606 0.0
C629 C 0.82137 0.37124 0.92104 0.0
C630 C 0.8223 0.3651 0.94457 0.0
N631 N 0.83891 0.36005 0.90925 0.0
N632 N 0.84047 0.35006 0.94761 0.0
H633 H 0.86481 0.33545 0.92271 0.0
H634 H 0.80852 0.38304 0.91334 0.0
C635 C 0.79376 0.34153 0.876 0.0
O636 O 0.78662 0.36278 0.88194 0.0
N637 N 0.85011 0.35518 0.84161 0.0
C638 C 0.86135 0.37026 0.82704 0.0
C639 C 0.86382 0.35952 0.80528 0.0
C640 C 0.84609 0.33555 0.82874 0.0
N641 N 0.85427 0.3376 0.80639 0.0
C642 C 0.83547 0.40711 0.88154 0.0
C643 C 0.80943 0.41339 0.84065 0.0
C644 C 0.81842 0.43327 0.85247 0.0
C645 C 0.83064 0.42994 0.87371 0.0
C646 C 0.81398 0.39072 0.84958 0.0
N647 N 0.82761 0.38778 0.86936 0.0
H648 H 0.84722 0.40495 0.89645 0.0
H649 H 0.80832 0.3755 0.83945 0.0
H650 H 0.86788 0.38753 0.83209 0.0
H651 H 0.83784 0.3199 0.83596 0.0
O652 O 0.87511 0.37243 0.87893 0.0
O653 O 0.8681 0.33383 0.87989 0.0
O654 O 0.81562 0.33745 0.87206 0.0
C655 C 0.88342 0.35112 0.88068 0.0
H656 H 0.81062 0.37131 0.9584 0.0
H657 H 0.87281 0.36703 0.79017 0.0
H658 H 0.80007 0.41531 0.82405 0.0
H659 H 0.83829 0.44481 0.88308 0.0
Co660 Co 0.66813 0.85849 0.86678 0.0
C661 C 0.6732 0.86197 0.91927 0.0
C662 C 0.66705 0.82643 0.90742 0.0
C663 C 0.67062 0.82603 0.93148 0.0
N664 N 0.6688 0.84893 0.89971 0.0
N665 N 0.67451 0.84837 0.93884 0.0
H666 H 0.67603 0.88087 0.91933 0.0
H667 H 0.66372 0.81126 0.89625 0.0
C668 C 0.69337 0.81748 0.8413 0.0
O669 O 0.68723 0.82482 0.82019 0.0
N670 N 0.66811 0.86834 0.83399 0.0
C671 C 0.64968 0.87487 0.82038 0.0
C672 C 0.65818 0.88171 0.79857 0.0
C673 C 0.6875 0.87267 0.82085 0.0
N674 N 0.68201 0.88008 0.79884 0.0
C675 C 0.62022 0.84845 0.87758 0.0
C676 C 0.61037 0.82125 0.83816 0.0
C677 C 0.5917 0.82914 0.85233 0.0
C678 C 0.59688 0.842 0.87282 0.0
C679 C 0.63354 0.82763 0.84387 0.0
N680 N 0.63813 0.84203 0.86273 0.0
H681 H 0.62375 0.85996 0.89244 0.0
H682 H 0.64723 0.82265 0.83184 0.0
H683 H 0.63137 0.87473 0.82588 0.0
H684 H 0.70524 0.86918 0.82709 0.0
O685 O 0.65535 0.88891 0.87488 0.0
O686 O 0.69369 0.88089 0.87226 0.0
O687 O 0.6872 0.82882 0.8599 0.0
C688 C 0.67701 0.89648 0.87571 0.0
H689 H 0.67022 0.81054 0.94271 0.0
H690 H 0.64755 0.88739 0.78372 0.0
H691 H 0.60696 0.81129 0.82215 0.0
H692 H 0.58286 0.84857 0.8841 0.0
Co693 Co 0.8524 0.65828 0.12245 0.0
C694 C 0.85669 0.66541 0.07038 0.0
C695 C 0.82548 0.64591 0.07966 0.0
C696 C 0.82607 0.64844 0.05546 0.0
N697 N 0.84494 0.65611 0.08901 0.0
N698 N 0.84557 0.66085 0.04981 0.0
H699 H 0.87313 0.67508 0.07155 0.0
H700 H 0.81177 0.6372 0.08976 0.0
C701 C 0.80729 0.67908 0.14445 0.0
O702 O 0.81317 0.67237 0.16584 0.0
N703 N 0.86008 0.66157 0.15564 0.0
C704 C 0.86908 0.64571 0.17103 0.0
C705 C 0.87305 0.65702 0.19239 0.0
C706 C 0.86002 0.68231 0.16729 0.0
N707 N 0.86698 0.67995 0.1899 0.0
C708 C 0.85053 0.60902 0.11353 0.0
C709 C 0.82392 0.59592 0.15228 0.0
C710 C 0.83512 0.57836 0.13889 0.0
C711 C 0.84779 0.58508 0.11878 0.0
C712 C 0.82655 0.61974 0.14598 0.0
N713 N 0.8405 0.62616 0.12733 0.0
H714 H 0.86194 0.61389 0.099 0.0
H715 H 0.8189 0.63273 0.15734 0.0
H716 H 0.87242 0.62728 0.1671 0.0
H717 H 0.85412 0.69878 0.1595 0.0
O718 O 0.8846 0.64944 0.11675 0.0
O719 O 0.87142 0.68647 0.11693 0.0
O720 O 0.8202 0.67385 0.12658 0.0
C721 C 0.88922 0.67186 0.11528 0.0
H722 H 0.81311 0.64189 0.04297 0.0
H723 H 0.8791 0.64891 0.20863 0.0
H724 H 0.814 0.59134 0.168 0.0
H725 H 0.85691 0.57203 0.10812 0.0
Co726 Co 0.32561 0.84588 0.12822 0.0
C727 C 0.32819 0.85118 0.07549 0.0
C728 C 0.30287 0.82531 0.0864 0.0
C729 C 0.30049 0.82862 0.06256 0.0
N730 N 0.32072 0.83889 0.09471 0.0
N731 N 0.31623 0.84505 0.05567 0.0
H732 H 0.34061 0.8657 0.07622 0.0
H733 H 0.29069 0.81518 0.097 0.0
C734 C 0.31439 0.79425 0.13058 0.0
O735 O 0.33234 0.79046 0.11633 0.0
N736 N 0.32842 0.85319 0.1615 0.0
C737 C 0.34334 0.86823 0.1725 0.0
C738 C 0.33625 0.87052 0.19582 0.0
C739 C 0.31266 0.84662 0.17804 0.0
N740 N 0.31706 0.85673 0.19913 0.0
C741 C 0.37363 0.83812 0.11346 0.0
C742 C 0.38672 0.81273 0.15314 0.0
C743 C 0.40433 0.82101 0.13785 0.0
C744 C 0.3975 0.83302 0.11731 0.0
C745 C 0.363 0.81774 0.14835 0.0
N746 N 0.3567 0.83097 0.12909 0.0
H747 H 0.36914 0.84942 0.09886 0.0
H748 H 0.34983 0.81237 0.1611 0.0
H749 H 0.35775 0.8775 0.16401 0.0
H750 H 0.29737 0.83568 0.17443 0.0
O751 O 0.33599 0.8772 0.1205 0.0
O752 O 0.2986 0.86704 0.12715 0.0
O753 O 0.30923 0.81534 0.13694 0.0
C754 C 0.31403 0.88355 0.12241 0.0
H755 H 0.28735 0.82031 0.05139 0.0
H756 H 0.34427 0.8817 0.20914 0.0
H757 H 0.39133 0.80341 0.16922 0.0
H758 H 0.41063 0.84005 0.10528 0.0
Co759 Co 0.66058 0.15012 0.14305 0.0
C760 C 0.66358 0.14574 0.09026 0.0
C761 C 0.6587 0.18151 0.10198 0.0
C762 C 0.66185 0.18167 0.07788 0.0
N763 N 0.65985 0.15901 0.10984 0.0
N764 N 0.66496 0.1592 0.07057 0.0
H765 H 0.66618 0.1268 0.09031 0.0
H766 H 0.65635 0.19687 0.11313 0.0
C767 C 0.69011 0.19011 0.16536 0.0
O768 O 0.68431 0.18446 0.18707 0.0
N769 N 0.66232 0.14098 0.17608 0.0
C770 C 0.64461 0.13544 0.191 0.0
C771 C 0.65426 0.12923 0.21253 0.0
C772 C 0.68237 0.13662 0.18823 0.0
N773 N 0.67809 0.13026 0.21088 0.0
C774 C 0.61357 0.16483 0.13421 0.0
C775 C 0.60683 0.19085 0.175 0.0
C776 C 0.58726 0.18509 0.16099 0.0
C777 C 0.59097 0.17284 0.13983 0.0
C778 C 0.62935 0.18304 0.16835 0.0
N779 N 0.63238 0.16925 0.14872 0.0
H780 H 0.61564 0.15354 0.11892 0.0
H781 H 0.64364 0.18629 0.1803 0.0
H782 H 0.62601 0.13597 0.1866 0.0
H783 H 0.69975 0.13933 0.18075 0.0
O784 O 0.64422 0.12124 0.13678 0.0
O785 O 0.68324 0.12492 0.13621 0.0
O786 O 0.68264 0.17808 0.1477 0.0
C787 C 0.66468 0.11122 0.13438 0.0
H788 H 0.66198 0.19713 0.0666 0.0
H789 H 0.64435 0.12445 0.22816 0.0
H790 H 0.60457 0.20017 0.19158 0.0
H791 H 0.57623 0.16774 0.12869 0.0
H792 H 0.20648 0.13489 0.54059 0.0
H793 H 0.19661 0.17749 0.42672 0.0
H794 H 0.16487 0.19504 0.56183 0.0
H795 H 0.12837 0.20003 0.45224 0.0
H796 H 0.21052 0.17471 0.46759 0.0
H797 H 0.20405 0.14819 0.49946 0.0
C798 C 0.19749 0.15132 0.53658 0.0
C799 C 0.18609 0.16408 0.55447 0.0
C800 C 0.19259 0.18049 0.46421 0.0
C801 C 0.18279 0.17921 0.50762 0.0
C802 C 0.18472 0.18241 0.4409 0.0
C803 C 0.1612 0.18877 0.43611 0.0
C804 C 0.17683 0.185 0.48284 0.0
C805 C 0.14652 0.19474 0.45521 0.0
C806 C 0.19614 0.15898 0.51316 0.0
C807 C 0.17416 0.18497 0.54845 0.0
N808 N 0.15453 0.19255 0.47777 0.0
N809 N 0.17235 0.19162 0.52542 0.0
H810 H 0.79407 0.15481 0.46054 0.0
H811 H 0.81259 0.18389 0.57889 0.0
H812 H 0.8626 0.18542 0.44795 0.0
H813 H 0.88521 0.19345 0.55763 0.0
H814 H 0.8009 0.18315 0.53743 0.0
H815 H 0.79696 0.16641 0.50213 0.0
C816 C 0.80934 0.16474 0.46648 0.0
C817 C 0.82804 0.16937 0.45096 0.0
C818 C 0.81941 0.1853 0.54168 0.0
C819 C 0.8318 0.18266 0.49849 0.0
C820 C 0.82607 0.18614 0.56549 0.0
C821 C 0.85 0.18842 0.57182 0.0
C822 C 0.83684 0.18658 0.52401 0.0
C823 C 0.86663 0.19115 0.55362 0.0
C824 C 0.81109 0.1714 0.49029 0.0
C825 C 0.84777 0.18171 0.45947 0.0
N826 N 0.85976 0.18996 0.53063 0.0
N827 N 0.84924 0.18768 0.48268 0.0
H828 H 0.80283 0.83241 0.42493 0.0
H829 H 0.83247 0.8128 0.5616 0.0
H830 H 0.86768 0.80064 0.44932 0.0
H831 H 0.79367 0.87288 0.53537 0.0
H832 H 0.83562 0.79761 0.52099 0.0
H833 H 0.78979 0.83639 0.46608 0.0
C834 C 0.81399 0.82562 0.43893 0.0
C835 C 0.83638 0.81624 0.43382 0.0
C836 C 0.82592 0.8138 0.52425 0.0
C837 C 0.82162 0.82077 0.4807 0.0
C838 C 0.82394 0.82234 0.54734 0.0
C839 C 0.81274 0.84403 0.55165 0.0
C840 C 0.81631 0.82693 0.50553 0.0
C841 C 0.80237 0.85604 0.53263 0.0
C842 C 0.80663 0.82807 0.46235 0.0
C843 C 0.85035 0.80806 0.45261 0.0
N844 N 0.80449 0.84738 0.51032 0.0
N845 N 0.84279 0.81063 0.47528 0.0
H846 H 0.11459 0.80872 0.55326 0.0
H847 H 0.18811 0.87447 0.4562 0.0
H848 H 0.1808 0.84218 0.57082 0.0
H849 H 0.1501 0.81061 0.43921 0.0
H850 H 0.184 0.86516 0.49845 0.0
H851 H 0.12511 0.81106 0.51115 0.0
C852 C 0.13147 0.81623 0.5482 0.0
C853 C 0.14694 0.82515 0.56541 0.0
C854 C 0.17692 0.85299 0.48544 0.0
C855 C 0.15875 0.82846 0.51756 0.0
C856 C 0.17928 0.85829 0.46144 0.0
C857 C 0.16959 0.84315 0.44437 0.0
C858 C 0.16416 0.83282 0.49234 0.0
C859 C 0.15803 0.82254 0.45193 0.0
C860 C 0.13748 0.81753 0.52427 0.0
C861 C 0.16854 0.83489 0.55804 0.0
N862 N 0.15526 0.81815 0.4754 0.0
N863 N 0.17365 0.83666 0.53462 0.0
H864 H 0.43384 0.19236 0.17619 0.0
H865 H 0.54966 0.20575 0.13859 0.0
H866 H 0.46238 0.1275 0.20426 0.0
H867 H 0.56931 0.16975 0.20281 0.0
H868 H 0.50799 0.20239 0.14996 0.0
H869 H 0.47402 0.20873 0.17429 0.0
C870 C 0.44853 0.18183 0.18253 0.0
C871 C 0.44494 0.15852 0.19024 0.0
C872 C 0.52144 0.19596 0.16198 0.0
C873 C 0.4907 0.17684 0.18769 0.0
C874 C 0.54517 0.19779 0.15542 0.0
C875 C 0.56285 0.18813 0.16986 0.0
C876 C 0.51539 0.18389 0.18285 0.0
C877 C 0.55618 0.17767 0.19134 0.0
C878 C 0.47141 0.19104 0.18116 0.0
C879 C 0.46452 0.14549 0.19805 0.0
N880 N 0.53293 0.1753 0.19692 0.0
N881 N 0.48662 0.15479 0.19646 0.0
H882 H 0.85007 0.56213 0.1817 0.0
H883 H 0.89288 0.44586 0.18682 0.0
H884 H 0.82319 0.53829 0.11445 0.0
H885 H 0.82713 0.42796 0.15263 0.0
H886 H 0.88304 0.48802 0.18259 0.0
H887 H 0.85684 0.52075 0.19314 0.0
C888 C 0.84522 0.54813 0.16954 0.0
C889 C 0.83608 0.55351 0.14711 0.0
C890 C 0.87057 0.47483 0.17647 0.0
C891 C 0.84399 0.50644 0.1599 0.0
C892 C 0.87623 0.45086 0.17876 0.0
C893 C 0.86065 0.43353 0.17029 0.0
C894 C 0.84946 0.4814 0.16511 0.0
C895 C 0.83943 0.44084 0.1597 0.0
C896 C 0.84935 0.52462 0.17594 0.0
C897 C 0.83033 0.5348 0.13186 0.0
N898 N 0.83462 0.46425 0.15704 0.0
N899 N 0.8343 0.51204 0.13858 0.0
H900 H 0.5574 0.8069 0.14294 0.0
H901 H 0.42409 0.83564 0.17924 0.0
H902 H 0.53855 0.86772 0.18482 0.0
H903 H 0.44198 0.80497 0.11177 0.0
H904 H 0.46633 0.83867 0.18863 0.0
H905 H 0.51518 0.79729 0.13861 0.0
C906 C 0.54434 0.81787 0.15166 0.0
C907 C 0.55129 0.83804 0.16433 0.0
C908 C 0.46096 0.831 0.17192 0.0
C909 C 0.50333 0.8272 0.15953 0.0
C910 C 0.43693 0.8291 0.16662 0.0
C911 C 0.42961 0.82001 0.1447 0.0
C912 C 0.47777 0.82337 0.15537 0.0
C913 C 0.44695 0.81213 0.12882 0.0
C914 C 0.52036 0.81251 0.14904 0.0
C915 C 0.53379 0.85198 0.17499 0.0
N916 N 0.47028 0.81395 0.13447 0.0
N917 N 0.51057 0.84628 0.17239 0.0
H918 H 0.20135 0.44529 0.11866 0.0
H919 H 0.19135 0.5582 0.16673 0.0
H920 H 0.1676 0.42131 0.18265 0.0
H921 H 0.12759 0.52885 0.19643 0.0
H922 H 0.20575 0.51798 0.15906 0.0
H923 H 0.1975 0.48622 0.13255 0.0
C924 C 0.1936 0.44866 0.13585 0.0
C925 C 0.18493 0.42994 0.14961 0.0
C926 C 0.18872 0.52037 0.16744 0.0
C927 C 0.18033 0.47656 0.16556 0.0
C928 C 0.18066 0.54326 0.17216 0.0
C929 C 0.15822 0.54677 0.18214 0.0
C930 C 0.17426 0.50093 0.17293 0.0
C931 C 0.14493 0.52684 0.18859 0.0
C932 C 0.19155 0.47197 0.14385 0.0
C933 C 0.1748 0.43523 0.17165 0.0
N934 N 0.15313 0.50474 0.1838 0.0
N935 N 0.17236 0.45808 0.17874 0.0
H936 H 0.46027 0.8789 0.80118 0.0
H937 H 0.55367 0.81099 0.87615 0.0
H938 H 0.44081 0.81502 0.83788 0.0
H939 H 0.57366 0.84386 0.81037 0.0
H940 H 0.51198 0.81349 0.86414 0.0
H941 H 0.50212 0.86803 0.80541 0.0
C942 C 0.46489 0.86236 0.80968 0.0
C943 C 0.44727 0.8477 0.81904 0.0
C944 C 0.52556 0.81973 0.85217 0.0
C945 C 0.49473 0.83561 0.82464 0.0
C946 C 0.54924 0.81834 0.85903 0.0
C947 C 0.56698 0.82713 0.84414 0.0
C948 C 0.51966 0.83063 0.83065 0.0
C949 C 0.56044 0.83668 0.8222 0.0
C950 C 0.48865 0.85618 0.8121 0.0
C951 C 0.45399 0.8266 0.83021 0.0
N952 N 0.53724 0.83859 0.81628 0.0
N953 N 0.47726 0.82137 0.83311 0.0
H954 H 0.18472 0.433 0.83812 0.0
H955 H 0.16148 0.57022 0.81465 0.0
H956 H 0.12275 0.45844 0.80174 0.0
H957 H 0.19615 0.54471 0.87757 0.0
H958 H 0.15556 0.5292 0.80175 0.0
H959 H 0.19732 0.47404 0.84454 0.0
C960 C 0.17407 0.44724 0.831 0.0
C961 C 0.15269 0.44242 0.81934 0.0
C962 C 0.16477 0.53264 0.81819 0.0
C963 C 0.16697 0.48918 0.82663 0.0
C964 C 0.16834 0.55597 0.82546 0.0
C965 C 0.17936 0.56077 0.84718 0.0
C966 C 0.17265 0.51403 0.83255 0.0
C967 C 0.18754 0.54169 0.86074 0.0
C968 C 0.18116 0.47058 0.83485 0.0
C969 C 0.13932 0.46149 0.81083 0.0
N970 N 0.18403 0.5191 0.8532 0.0
N971 N 0.14668 0.48408 0.81464 0.0
H972 H 0.42938 0.16145 0.8171 0.0
H973 H 0.56273 0.19554 0.84838 0.0
H974 H 0.44797 0.20039 0.87997 0.0
H975 H 0.54407 0.1294 0.81528 0.0
H976 H 0.52058 0.20559 0.85107 0.0
H977 H 0.47155 0.1579 0.80736 0.0
C978 C 0.44235 0.16977 0.82851 0.0
C979 C 0.43531 0.18129 0.84932 0.0
C980 C 0.52579 0.18906 0.84289 0.0
C981 C 0.48329 0.17731 0.83831 0.0
C982 C 0.54975 0.1834 0.84118 0.0
C983 C 0.55677 0.16163 0.83155 0.0
C984 C 0.5088 0.17303 0.83451 0.0
C985 C 0.53929 0.14634 0.82283 0.0
C986 C 0.46632 0.16755 0.82306 0.0
C987 C 0.45277 0.1914 0.86376 0.0
N988 N 0.51606 0.15233 0.8245 0.0
N989 N 0.47601 0.18918 0.85799 0.0
H990 H 0.88302 0.55811 0.79846 0.0
H991 H 0.83475 0.44513 0.80873 0.0
H992 H 0.8179 0.58231 0.82981 0.0
H993 H 0.80375 0.47528 0.87149 0.0
H994 H 0.84288 0.48518 0.79406 0.0
H995 H 0.8693 0.51715 0.80276 0.0
C996 C 0.86564 0.55478 0.80579 0.0
C997 C 0.85148 0.57357 0.81361 0.0
C998 C 0.83409 0.483 0.81093 0.0
C999 C 0.83575 0.52693 0.81876 0.0
C1000 C 0.82913 0.46021 0.81913 0.0
C1001 C 0.81861 0.45698 0.84136 0.0
C1002 C 0.82831 0.50262 0.82502 0.0
C1003 C 0.81196 0.47708 0.8543 0.0
C1004 C 0.85774 0.53145 0.80809 0.0
C1005 C 0.8292 0.56832 0.82324 0.0
N1006 N 0.81697 0.49907 0.84596 0.0
N1007 N 0.82221 0.54548 0.82596 0.0
H1008 H 0.13074 0.95755 0.30431 0.0
H1009 H 0.12249 0.07993 0.37326 0.0
H1010 H 0.16304 0.9708 0.37198 0.0
H1011 H 0.12885 0.07977 0.29719 0.0
H1012 H 0.12618 0.03713 0.37335 0.0
H1013 H 0.12 0.99992 0.30176 0.0
C1014 C 0.13531 0.96937 0.31866 0.0
C1015 C 0.14783 0.96091 0.33835 0.0
C1016 C 0.12655 0.04641 0.3566 0.0
C1017 C 0.1354 0.00868 0.33579 0.0
C1018 C 0.12437 0.07089 0.35648 0.0
C1019 C 0.1257 0.08354 0.33517 0.0
C1020 C 0.12989 0.03427 0.33529 0.0
C1021 C 0.12788 0.07069 0.31401 0.0
C1022 C 0.12934 0.99341 0.31715 0.0
C1023 C 0.15356 0.97677 0.35647 0.0
N1024 N 0.13009 0.04664 0.31458 0.0
N1025 N 0.14718 0.99983 0.35483 0.0
H1026 H 0.91314 0.14025 0.30223 0.0
H1027 H 0.04215 0.11525 0.35518 0.0
H1028 H 0.92531 0.10502 0.36872 0.0
H1029 H 0.02636 0.17385 0.30912 0.0
H1030 H 0.00064 0.10265 0.35259 0.0
H1031 H 0.95616 0.14369 0.29683 0.0
C1032 C 0.92488 0.13269 0.31534 0.0
C1033 C 0.91581 0.12249 0.33601 0.0
C1034 C 0.00638 0.1181 0.34284 0.0
C1035 C 0.96466 0.12634 0.33001 0.0
C1036 C 0.03 0.12521 0.34425 0.0
C1037 C 0.03751 0.14576 0.33261 0.0
C1038 C 0.99032 0.13144 0.32937 0.0
C1039 C 0.0211 0.15814 0.3187 0.0
C1040 C 0.94935 0.13482 0.31236 0.0
C1041 C 0.93169 0.11319 0.35262 0.0
N1042 N 0.99824 0.15084 0.31752 0.0
N1043 N 0.95536 0.11542 0.34933 0.0
H1044 H 0.89898 0.9167 0.36088 0.0
H1045 H 0.85345 0.03998 0.30889 0.0
H1046 H 0.8603 0.92002 0.29527 0.0
H1047 H 0.86544 0.02469 0.38249 0.0
H1048 H 0.86548 0.99909 0.29895 0.0
H1049 H 0.89793 0.95968 0.36343 0.0
C1050 C 0.89066 0.92659 0.34673 0.0
C1051 C 0.87941 0.91489 0.32802 0.0
C1052 C 0.86569 0.00487 0.31721 0.0
C1053 C 0.87769 0.96409 0.33108 0.0
C1054 C 0.85893 0.02806 0.32283 0.0
C1055 C 0.85829 0.03539 0.34653 0.0
C1056 C 0.87234 0.98935 0.33543 0.0
C1057 C 0.86544 0.0195 0.36407 0.0
C1058 C 0.88997 0.9511 0.34825 0.0
C1059 C 0.86913 0.92849 0.31 0.0
N1060 N 0.87217 0.99727 0.35817 0.0
N1061 N 0.86811 0.95251 0.31217 0.0
H1062 H 0.95824 0.88395 0.34469 0.0
H1063 H 0.08551 0.84949 0.29296 0.0
H1064 H 0.97289 0.81795 0.3094 0.0
H1065 H 0.07503 0.89872 0.35022 0.0
H1066 H 0.04239 0.84483 0.28973 0.0
H1067 H 0.99936 0.89608 0.33813 0.0
C1068 C 0.97005 0.87215 0.33533 0.0
C1069 C 0.96228 0.8498 0.32785 0.0
C1070 C 0.04957 0.85705 0.30262 0.0
C1071 C 0.00915 0.86359 0.32011 0.0
C1072 C 0.07409 0.85992 0.30426 0.0
C1073 C 0.08367 0.87448 0.32189 0.0
C1074 C 0.03472 0.86908 0.31853 0.0
C1075 C 0.06822 0.88727 0.33644 0.0
C1076 C 0.99348 0.87904 0.33164 0.0
C1077 C 0.97832 0.83513 0.31585 0.0
N1078 N 0.04449 0.88417 0.33456 0.0
N1079 N 0.00102 0.84225 0.3124 0.0
H1080 H 0.18754 0.02284 0.6731 0.0
H1081 H 0.0929 0.92418 0.66333 0.0
H1082 H 0.1141 0.04095 0.66431 0.0
H1083 H 0.15398 0.91486 0.70787 0.0
H1084 H 0.09937 0.96702 0.66402 0.0
H1085 H 0.17582 0.9831 0.68595 0.0
C1086 C 0.16894 0.01842 0.6741 0.0
C1087 C 0.15173 0.03499 0.66749 0.0
C1088 C 0.11098 0.95569 0.67419 0.0
C1089 C 0.13821 0.98971 0.68188 0.0
C1090 C 0.10725 0.93131 0.67386 0.0
C1091 C 0.12286 0.91616 0.6857 0.0
C1092 C 0.13097 0.96483 0.68574 0.0
C1093 C 0.14141 0.92609 0.6988 0.0
C1094 C 0.16225 0.99589 0.6816 0.0
C1095 C 0.12784 0.02861 0.6693 0.0
N1096 N 0.14533 0.94983 0.698 0.0
N1097 N 0.12176 0.00628 0.67588 0.0
H1098 H 0.08953 0.12328 0.70056 0.0
H1099 H 0.96344 0.14239 0.63876 0.0
H1100 H 0.07868 0.12105 0.62507 0.0
H1101 H 0.97552 0.14668 0.71391 0.0
H1102 H 0.00449 0.1292 0.63352 0.0
H1103 H 0.04673 0.12654 0.70605 0.0
C1104 C 0.07813 0.12315 0.68517 0.0
C1105 C 0.08769 0.12212 0.66234 0.0
C1106 C 0.99807 0.13286 0.65117 0.0
C1107 C 0.03873 0.12609 0.66841 0.0
C1108 C 0.97464 0.14028 0.65414 0.0
C1109 C 0.96622 0.14608 0.67671 0.0
C1110 C 0.01308 0.13115 0.67097 0.0
C1111 C 0.98146 0.14303 0.6961 0.0
C1112 C 0.05369 0.12508 0.68828 0.0
C1113 C 0.07208 0.12199 0.64301 0.0
N1114 N 0.00414 0.13597 0.69277 0.0
N1115 N 0.04841 0.12419 0.64646 0.0
H1116 H 0.81226 0.98778 0.66845 0.0
H1117 H 0.90707 0.08623 0.66742 0.0
H1118 H 0.88597 0.96942 0.66322 0.0
H1119 H 0.84453 0.09372 0.7102 0.0
H1120 H 0.90066 0.04338 0.66613 0.0
H1121 H 0.82347 0.02688 0.68362 0.0
C1122 C 0.83079 0.99201 0.67069 0.0
C1123 C 0.84826 0.97558 0.66443 0.0
C1124 C 0.88872 0.05429 0.67639 0.0
C1125 C 0.8612 0.02009 0.6815 0.0
C1126 C 0.89243 0.07866 0.67719 0.0
C1127 C 0.87639 0.0933 0.6891 0.0
C1128 C 0.86834 0.04471 0.6868 0.0
C1129 C 0.85744 0.08286 0.70114 0.0
C1130 C 0.83718 0.01415 0.67953 0.0
C1131 C 0.87204 0.98168 0.66788 0.0
N1132 N 0.85356 0.05918 0.6992 0.0
N1133 N 0.87788 0.00367 0.67575 0.0
H1134 H 0.02434 0.86158 0.71088 0.0
H1135 H 0.92098 0.89055 0.6196 0.0
H1136 H 0.03542 0.86784 0.63573 0.0
H1137 H 0.91092 0.88599 0.69509 0.0
H1138 H 0.96358 0.88693 0.62543 0.0
H1139 H 0.98371 0.87487 0.70574 0.0
C1140 C 0.01819 0.86578 0.69326 0.0
C1141 C 0.03313 0.86317 0.67361 0.0
C1142 C 0.95211 0.88699 0.64075 0.0
C1143 C 0.98653 0.87856 0.66759 0.0
C1144 C 0.92776 0.88909 0.63745 0.0
C1145 C 0.91236 0.88833 0.6569 0.0
C1146 C 0.96114 0.88396 0.66366 0.0
C1147 C 0.92214 0.88654 0.6796 0.0
C1148 C 0.995 0.87352 0.69035 0.0
C1149 C 0.02443 0.86954 0.65129 0.0
N1150 N 0.9459 0.88415 0.68234 0.0
N1151 N 0.00158 0.87666 0.64883 0.0
H1152 H 0.36862 0.13517 0.96508 0.0
H1153 H 0.30309 0.11491 0.08901 0.0
H1154 H 0.29327 0.14034 0.97518 0.0
H1155 H 0.37889 0.11352 0.08051 0.0
H1156 H 0.29887 0.11827 0.04607 0.0
H1157 H 0.37257 0.1212 0.00605 0.0
C1158 C 0.35293 0.13307 0.97584 0.0
C1159 C 0.33068 0.13937 0.96695 0.0
C1160 C 0.31643 0.11698 0.05358 0.0
C1161 C 0.33493 0.12356 0.01363 0.0
C1162 C 0.31882 0.11499 0.07809 0.0
C1163 C 0.34135 0.1142 0.08834 0.0
C1164 C 0.33674 0.11826 0.03927 0.0
C1165 C 0.36116 0.11432 0.07335 0.0
C1166 C 0.35515 0.12521 0.9992 0.0
C1167 C 0.31084 0.1363 0.98155 0.0
N1168 N 0.3584 0.11656 0.04961 0.0
N1169 N 0.31345 0.12882 0.00418 0.0
H1170 H 0.84571 0.29185 0.0879 0.0
H1171 H 0.88533 0.3407 0.96128 0.0
H1172 H 0.91078 0.32962 0.07598 0.0
H1173 H 0.81265 0.33434 0.98324 0.0
H1174 H 0.89786 0.32446 0.99952 0.0
H1175 H 0.83698 0.29437 0.04539 0.0
C1176 C 0.85864 0.29969 0.07614 0.0
C1177 C 0.87903 0.31043 0.08523 0.0
C1178 C 0.87917 0.32635 0.9958 0.0
C1179 C 0.86906 0.31375 0.03707 0.0
C1180 C 0.87203 0.33556 0.97405 0.0
C1181 C 0.84795 0.33911 0.96931 0.0
C1182 C 0.86208 0.32029 0.01274 0.0
C1183 C 0.83139 0.33225 0.98645 0.0
C1184 C 0.8535 0.30145 0.05202 0.0
C1185 C 0.89493 0.32104 0.06948 0.0
N1186 N 0.83876 0.32321 0.00746 0.0
N1187 N 0.88953 0.32261 0.04614 0.0
H1188 H 0.69833 0.82462 0.97288 0.0
H1189 H 0.64698 0.90247 0.07514 0.0
H1190 H 0.66081 0.88954 0.95918 0.0
H1191 H 0.7059 0.85555 0.08649 0.0
H1192 H 0.65344 0.89983 0.03251 0.0
H1193 H 0.70267 0.83635 0.01433 0.0
C1194 C 0.69112 0.8414 0.97862 0.0
C1195 C 0.67893 0.85601 0.9627 0.0
C1196 C 0.66535 0.89054 0.04428 0.0
C1197 C 0.68382 0.86955 0.00999 0.0
C1198 C 0.6617 0.89212 0.06858 0.0
C1199 C 0.67596 0.87922 0.08418 0.0
C1200 C 0.68294 0.87537 0.03553 0.0
C1201 C 0.69469 0.86591 0.07494 0.0
C1202 C 0.6938 0.8482 0.00219 0.0
C1203 C 0.67031 0.87778 0.97089 0.0
N1204 N 0.69733 0.86388 0.0511 0.0
N1205 N 0.67258 0.88373 0.99407 0.0
H1206 H 0.10455 0.62307 0.082 0.0
H1207 H 0.18395 0.68263 0.98678 0.0
H1208 H 0.136 0.69172 0.09304 0.0
H1209 H 0.12183 0.64452 0.96368 0.0
H1210 H 0.16929 0.68161 0.02696 0.0
H1211 H 0.11202 0.62692 0.03941 0.0
C1212 C 0.11261 0.63915 0.07537 0.0
C1213 C 0.11979 0.6571 0.09098 0.0
C1214 C 0.15877 0.67364 0.01306 0.0
C1215 C 0.12887 0.66122 0.0427 0.0
C1216 C 0.16709 0.67421 0.98998 0.0
C1217 C 0.15387 0.66417 0.97145 0.0
C1218 C 0.13734 0.66237 0.01803 0.0
C1219 C 0.13263 0.65257 0.97724 0.0
C1220 C 0.11682 0.64129 0.05114 0.0
C1221 C 0.13014 0.67753 0.08158 0.0
N1222 N 0.12504 0.65188 1.00012 0.0
N1223 N 0.13482 0.67884 0.05806 0.0
H1224 H 0.35508 0.86448 0.03514 0.0
H1225 H 0.29323 0.87125 0.90801 0.0
H1226 H 0.28143 0.84889 0.02276 0.0
H1227 H 0.36646 0.88849 0.92076 0.0
H1228 H 0.28724 0.86774 0.9508 0.0
H1229 H 0.35848 0.878 0.99413 0.0
C1230 C 0.33959 0.86413 0.02389 0.0
C1231 C 0.31808 0.85511 0.0323 0.0
C1232 C 0.30455 0.8726 0.94423 0.0
C1233 C 0.3218 0.87037 0.98533 0.0
C1234 C 0.30792 0.87472 0.91982 0.0
C1235 C 0.3304 0.87993 0.91083 0.0
C1236 C 0.32385 0.87564 0.95968 0.0
C1237 C 0.34886 0.88418 0.92692 0.0
C1238 C 0.34153 0.87176 0.00045 0.0
C1239 C 0.29855 0.85505 0.01691 0.0
N1240 N 0.34524 0.8817 0.95051 0.0
N1241 N 0.30093 0.86234 0.99417 0.0
H1242 H 0.13622 0.29329 0.90345 0.0
H1243 H 0.12066 0.34481 0.034 0.0
H1244 H 0.09837 0.3583 0.91607 0.0
H1245 H 0.18232 0.30682 0.00967 0.0
H1246 H 0.10525 0.34426 0.99337 0.0
H1247 H 0.14455 0.29055 0.94588 0.0
C1248 C 0.12904 0.30657 0.91524 0.0
C1249 C 0.11674 0.32611 0.90632 0.0
C1250 C 0.12209 0.33596 0.99717 0.0
C1251 C 0.12643 0.32329 0.95461 0.0
C1252 C 0.13103 0.33645 0.02028 0.0
C1253 C 0.15276 0.32556 0.02552 0.0
C1254 C 0.13478 0.32418 0.97937 0.0
C1255 C 0.16523 0.31487 0.00684 0.0
C1256 C 0.13404 0.30518 0.93937 0.0
C1257 C 0.10808 0.34303 0.92233 0.0
N1258 N 0.15598 0.31428 0.98474 0.0
N1259 N 0.11324 0.34135 0.94575 0.0
H1260 H 0.64946 0.11904 0.04946 0.0
H1261 H 0.70527 0.15254 0.92354 0.0
H1262 H 0.69081 0.18192 0.03733 0.0
H1263 H 0.64249 0.11007 0.93175 0.0
H1264 H 0.70817 0.1557 0.96684 0.0
H1265 H 0.65463 0.10814 0.00771 0.0
C1266 C 0.65988 0.13035 0.03806 0.0
C1267 C 0.66946 0.15154 0.0467 0.0
C1268 C 0.69402 0.14534 0.95911 0.0
C1269 C 0.67564 0.13916 0.9992 0.0
C1270 C 0.69251 0.14336 0.93448 0.0
C1271 C 0.67356 0.13113 0.92419 0.0
C1272 C 0.67667 0.1347 0.97339 0.0
C1273 C 0.65727 0.11981 0.93908 0.0
C1274 C 0.66276 0.1242 0.01429 0.0
C1275 C 0.68278 0.16565 0.03121 0.0
N1276 N 0.65913 0.12194 0.96293 0.0
N1277 N 0.68543 0.15925 0.0082 0.0
H1278 H 0.9044 0.65116 0.91231 0.0
H1279 H 0.8603 0.70362 0.034 0.0
H1280 H 0.86555 0.71683 0.91072 0.0
H1281 H 0.84918 0.63129 0.01287 0.0
H1282 H 0.87378 0.71291 0.9934 0.0
H1283 H 0.8977 0.64859 0.95477 0.0
C1284 C 0.89495 0.66539 0.92101 0.0
C1285 C 0.88516 0.68406 0.90794 0.0
C1286 C 0.86841 0.69506 0.99781 0.0
C1287 C 0.87753 0.68112 0.95653 0.0
C1288 C 0.86085 0.68976 0.02079 0.0
C1289 C 0.8536 0.66671 0.02649 0.0
C1290 C 0.86943 0.67691 0.98093 0.0
C1291 C 0.85448 0.64927 0.00897 0.0
C1292 C 0.89107 0.6638 0.94519 0.0
C1293 C 0.87333 0.70213 0.9202 0.0
N1294 N 0.86249 0.65466 0.98703 0.0
N1295 N 0.86952 0.70007 0.94394 0.0
H1296 H 0.96979 0.35309 0.12558 0.0
H1297 H 0.09134 0.28162 0.12013 0.0
H1298 H 0.97672 0.27921 0.14326 0.0
H1299 H 0.08399 0.35437 0.09829 0.0
H1300 H 0.04826 0.27879 0.1233 0.0
H1301 H 0.0104 0.35264 0.11035 0.0
C1302 C 0.97975 0.33675 0.126 0.0
C1303 C 0.97006 0.31634 0.1362 0.0
C1304 C 0.05606 0.29528 0.11746 0.0
C1305 C 0.01645 0.31562 0.11899 0.0
C1306 C 0.08065 0.29682 0.11552 0.0
C1307 C 0.09124 0.31832 0.10926 0.0
C1308 C 0.04205 0.31543 0.11324 0.0
C1309 C 0.07655 0.33751 0.10351 0.0
C1310 C 0.00293 0.33647 0.11738 0.0
C1311 C 0.98371 0.29557 0.13626 0.0
N1312 N 0.05274 0.33572 0.10595 0.0
N1313 N 0.00624 0.29581 0.12805 0.0
H1314 H 0.96422 0.65919 0.87951 0.0
H1315 H 0.09493 0.71101 0.86498 0.0
H1316 H 0.98801 0.70098 0.82017 0.0
H1317 H 0.08213 0.64499 0.901 0.0
H1318 H 0.05247 0.71436 0.8572 0.0
H1319 H 0.00501 0.65887 0.89461 0.0
C1320 C 0.97786 0.66821 0.8696 0.0
C1321 C 0.97244 0.68042 0.84863 0.0
C1322 C 0.05895 0.69935 0.86716 0.0
C1323 C 0.01876 0.68075 0.86625 0.0
C1324 C 0.08311 0.69759 0.87184 0.0
C1325 C 0.09201 0.67762 0.88347 0.0
C1326 C 0.04362 0.68114 0.87436 0.0
C1327 C 0.07592 0.66058 0.89178 0.0
C1328 C 0.00107 0.6682 0.87837 0.0
C1329 C 0.991 0.6919 0.8367 0.0
N1330 N 0.05247 0.66261 0.8869 0.0
N1331 N 0.01317 0.69194 0.84576 0.0
H1332 H 0.28869 0.08441 0.86305 0.0
H1333 H 0.37186 0.97897 0.83779 0.0
H1334 H 0.35804 0.08033 0.89465 0.0
H1335 H 0.30114 0.96062 0.85912 0.0
H1336 H 0.36521 0.01949 0.85175 0.0
H1337 H 0.28996 0.04119 0.85645 0.0
C1338 C 0.30382 0.07439 0.86918 0.0
C1339 C 0.32344 0.08596 0.87907 0.0
C1340 C 0.35115 0.00657 0.85342 0.0
C1341 C 0.3252 0.03727 0.87106 0.0
C1342 C 0.35492 0.98363 0.84538 0.0
C1343 C 0.33704 0.96668 0.84745 0.0
C1344 C 0.32913 0.01277 0.86302 0.0
C1345 C 0.31532 0.97336 0.85746 0.0
C1346 C 0.30457 0.04986 0.86532 0.0
C1347 C 0.3427 0.07221 0.88656 0.0
N1348 N 0.31178 0.99611 0.86467 0.0
N1349 N 0.34332 0.04872 0.88193 0.0
H1350 H 0.90764 0.30937 0.87561 0.0
H1351 H 0.03236 0.37515 0.86175 0.0
H1352 H 0.91783 0.38416 0.88709 0.0
H1353 H 0.02042 0.30164 0.84522 0.0
H1354 H 0.9919 0.37759 0.87732 0.0
H1355 H 0.95044 0.30487 0.87078 0.0
C1356 C 0.91891 0.32475 0.8775 0.0
C1357 C 0.90919 0.34719 0.88145 0.0
C1358 C 0.99822 0.36088 0.87042 0.0
C1359 C 0.95802 0.3423 0.87573 0.0
C1360 C 0.0213 0.35951 0.86163 0.0
C1361 C 0.02953 0.33834 0.85172 0.0
C1362 C 0.98342 0.34088 0.86939 0.0
C1363 C 0.01455 0.31851 0.85204 0.0
C1364 C 0.94332 0.32223 0.87464 0.0
C1365 C 0.92459 0.36656 0.88376 0.0
N1366 N 0.9922 0.32031 0.86053 0.0
N1367 N 0.9482 0.36371 0.88063 0.0
H1368 H 0.65436 0.04623 0.89403 0.0
H1369 H 0.71237 0.92267 0.85568 0.0
H1370 H 0.69185 0.03574 0.82856 0.0
H1371 H 0.65149 0.92814 0.90118 0.0
H1372 H 0.71408 0.9661 0.85366 0.0
H1373 H 0.66209 0.0047 0.9045 0.0
C1374 C 0.66453 0.03526 0.88208 0.0
C1375 C 0.67221 0.04421 0.86029 0.0
C1376 C 0.70067 0.95774 0.86447 0.0
C1377 C 0.68131 0.99707 0.87214 0.0
C1378 C 0.69984 0.93304 0.8658 0.0
C1379 C 0.6817 0.92195 0.87851 0.0
C1380 C 0.68345 0.97128 0.87624 0.0
C1381 C 0.66564 0.93611 0.89104 0.0
C1382 C 0.66886 0.01163 0.88798 0.0
C1383 C 0.68527 0.02932 0.84534 0.0
N1384 N 0.6668 0.96006 0.8895 0.0
N1385 N 0.68936 0.00645 0.85149 0.0
H1386 H 0.0166 0.66941 0.18573 0.0
H1387 H 0.92391 0.65718 0.08584 0.0
H1388 H 0.03866 0.65826 0.11368 0.0
H1389 H 0.91057 0.70186 0.14607 0.0
H1390 H 0.96633 0.65917 0.09419 0.0
H1391 H 0.9778 0.68237 0.17141 0.0
C1392 C 0.01326 0.66988 0.16689 0.0
C1393 C 0.03066 0.66256 0.15084 0.0
C1394 C 0.95424 0.66918 0.10516 0.0
C1395 C 0.98647 0.67718 0.13435 0.0
C1396 C 0.9301 0.66816 0.10029 0.0
C1397 C 0.91395 0.67956 0.11519 0.0
C1398 C 0.96209 0.68093 0.12558 0.0
C1399 C 0.92262 0.69315 0.134 0.0
C1400 C 0.99126 0.67748 0.15871 0.0
C1401 C 0.02566 0.66378 0.12657 0.0
N1402 N 0.94614 0.69296 0.13908 0.0
N1403 N 0.00384 0.67051 0.11905 0.0
H1404 H 0.33459 0.03386 0.11327 0.0
H1405 H 0.28843 0.90704 0.15559 0.0
H1406 H 0.33041 0.01299 0.1864 0.0
H1407 H 0.32866 0.91731 0.09174 0.0
H1408 H 0.2902 0.94987 0.16301 0.0
H1409 H 0.31955 0.9947 0.10168 0.0
C1410 C 0.33013 0.02112 0.12685 0.0
C1411 C 0.33397 0.02641 0.15077 0.0
C1412 C 0.298 0.94277 0.14703 0.0
C1413 C 0.31645 0.98208 0.13778 0.0
C1414 C 0.29671 0.91847 0.14264 0.0
C1415 C 0.30833 0.90885 0.12299 0.0
C1416 C 0.31065 0.95739 0.13143 0.0
C1417 C 0.31943 0.92421 0.10704 0.0
C1418 C 0.32162 0.99888 0.12026 0.0
C1419 C 0.32803 0.00936 0.16776 0.0
N1420 N 0.32047 0.94777 0.11167 0.0
N1421 N 0.31958 0.9879 0.16094 0.0
H1422 H 0.703 0.08109 0.13961 0.0
H1423 H 0.61927 0.97233 0.16027 0.0
H1424 H 0.62859 0.08219 0.12267 0.0
H1425 H 0.69045 0.95929 0.13668 0.0
H1426 H 0.62412 0.01423 0.1508 0.0
H1427 H 0.70113 0.03745 0.14143 0.0
C1428 C 0.68646 0.07219 0.13581 0.0
C1429 C 0.66585 0.08527 0.13133 0.0
C1430 C 0.63868 0.00222 0.14751 0.0
C1431 C 0.66354 0.03592 0.13383 0.0
C1432 C 0.63592 0.97842 0.15304 0.0
C1433 C 0.65446 0.96253 0.14919 0.0
C1434 C 0.66036 0.01038 0.13858 0.0
C1435 C 0.67573 0.97114 0.13969 0.0
C1436 C 0.6854 0.04739 0.13691 0.0
C1437 C 0.64485 0.07289 0.1266 0.0
N1438 N 0.67828 0.99466 0.13495 0.0
N1439 N 0.64417 0.04902 0.12835 0.0
H1440 H 0.11617 0.19498 0.27958 0.0
H1441 H 0.15295 0.32377 0.23483 0.0
H1442 H 0.18073 0.2291 0.30184 0.0
H1443 H 0.1169 0.27381 0.19004 0.0
H1444 H 0.15537 0.29335 0.26597 0.0
H1445 H 0.10867 0.22808 0.25251 0.0
C1446 C 0.12867 0.20949 0.27887 0.0
C1447 C 0.14925 0.2092 0.29274 0.0
C1448 C 0.14665 0.28921 0.24941 0.0
C1449 C 0.14049 0.24716 0.26235 0.0
C1450 C 0.14511 0.30654 0.23185 0.0
C1451 C 0.13477 0.30109 0.21002 0.0
C1452 C 0.13731 0.26657 0.24516 0.0
C1453 C 0.12509 0.27849 0.20669 0.0
C1454 C 0.12439 0.2283 0.26345 0.0
C1455 C 0.16482 0.22848 0.29121 0.0
N1456 N 0.12656 0.26202 0.22409 0.0
N1457 N 0.16009 0.24675 0.27633 0.0
H1458 H 0.67003 0.12998 0.25859 0.0
H1459 H 0.80716 0.13684 0.29136 0.0
H1460 H 0.72602 0.12544 0.20681 0.0
H1461 H 0.75318 0.12112 0.34297 0.0
H1462 H 0.77707 0.13625 0.26039 0.0
H1463 H 0.69967 0.12923 0.28988 0.0
C1464 C 0.68843 0.12861 0.25364 0.0
C1465 C 0.69531 0.12797 0.22974 0.0
C1466 C 0.7718 0.13292 0.27849 0.0
C1467 C 0.72951 0.12759 0.2658 0.0
C1468 C 0.78897 0.13338 0.29624 0.0
C1469 C 0.78273 0.12898 0.31986 0.0
C1470 C 0.74813 0.12827 0.28435 0.0
C1471 C 0.75883 0.12455 0.32502 0.0
C1472 C 0.7054 0.12832 0.27163 0.0
C1473 C 0.71965 0.12645 0.22478 0.0
N1474 N 0.7424 0.12437 0.30742 0.0
N1475 N 0.73579 0.12648 0.24259 0.0
H1476 H 0.81125 0.78816 0.27939 0.0
H1477 H 0.89641 0.68853 0.227 0.0
H1478 H 0.88558 0.78636 0.29683 0.0
H1479 H 0.83165 0.71147 0.194 0.0
H1480 H 0.89158 0.72001 0.25693 0.0
H1481 H 0.81719 0.75538 0.2522 0.0
C1482 C 0.82884 0.78081 0.27758 0.0
C1483 C 0.84797 0.79009 0.29036 0.0
C1484 C 0.87852 0.71807 0.24306 0.0
C1485 C 0.85487 0.75238 0.25917 0.0
C1486 C 0.8812 0.70013 0.22616 0.0
C1487 C 0.86452 0.69764 0.20797 0.0
C1488 C 0.85877 0.73313 0.24188 0.0
C1489 C 0.84511 0.71305 0.20751 0.0
C1490 C 0.83223 0.76212 0.26196 0.0
C1491 C 0.87038 0.77983 0.28719 0.0
N1492 N 0.84274 0.73003 0.22422 0.0
N1493 N 0.87324 0.76142 0.2719 0.0
H1494 H 0.30475 0.89114 0.23034 0.0
H1495 H 0.21693 0.80448 0.29997 0.0
H1496 H 0.29592 0.81706 0.21471 0.0
H1497 H 0.21123 0.88059 0.30339 0.0
H1498 H 0.25103 0.80863 0.27402 0.0
H1499 H 0.27568 0.8873 0.26251 0.0
C1500 C 0.29699 0.87402 0.234 0.0
C1501 C 0.30254 0.8544 0.21986 0.0
C1502 C 0.2424 0.82444 0.28053 0.0
C1503 C 0.26944 0.84987 0.2563 0.0
C1504 C 0.22291 0.8221 0.29541 0.0
C1505 C 0.21099 0.84222 0.30372 0.0
C1506 C 0.25019 0.84706 0.27389 0.0
C1507 C 0.21973 0.86458 0.29724 0.0
C1508 C 0.28031 0.87186 0.25217 0.0
C1509 C 0.29187 0.83264 0.22508 0.0
N1510 N 0.23876 0.86641 0.28261 0.0
N1511 N 0.27582 0.83097 0.24281 0.0
H1512 H 0.15387 0.80361 0.72241 0.0
H1513 H 0.12872 0.66909 0.75903 0.0
H1514 H 0.1163 0.755 0.677 0.0
H1515 H 0.14894 0.72448 0.80772 0.0
H1516 H 0.12834 0.69839 0.72706 0.0
H1517 H 0.15762 0.77242 0.7519 0.0
C1518 C 0.14657 0.78632 0.71853 0.0
C1519 C 0.13454 0.78202 0.69726 0.0
C1520 C 0.13295 0.70397 0.7448 0.0
C1521 C 0.13868 0.74615 0.73111 0.0
C1522 C 0.13307 0.68728 0.7631 0.0
C1523 C 0.13903 0.69408 0.78627 0.0
C1524 C 0.13899 0.72759 0.74966 0.0
C1525 C 0.14471 0.718 0.79027 0.0
C1526 C 0.14863 0.76852 0.73544 0.0
C1527 C 0.12557 0.75917 0.69322 0.0
N1528 N 0.14458 0.73375 0.77221 0.0
N1529 N 0.12772 0.7421 0.71004 0.0
H1530 H 0.1945 0.1412 0.71549 0.0
H1531 H 0.33053 0.13228 0.7546 0.0
H1532 H 0.251 0.12405 0.66712 0.0
H1533 H 0.27243 0.14028 0.80346 0.0
H1534 H 0.30211 0.13115 0.72196 0.0
H1535 H 0.22334 0.14348 0.74758 0.0
C1536 C 0.21296 0.13799 0.71158 0.0
C1537 C 0.22028 0.13234 0.68855 0.0
C1538 C 0.29564 0.1332 0.73986 0.0
C1539 C 0.25347 0.13489 0.72529 0.0
C1540 C 0.31187 0.13373 0.75854 0.0
C1541 C 0.30401 0.1365 0.78193 0.0
C1542 C 0.27135 0.13549 0.74456 0.0
C1543 C 0.27953 0.13856 0.78581 0.0
C1544 C 0.22944 0.13924 0.72994 0.0
C1545 C 0.2445 0.12839 0.68459 0.0
N1546 N 0.26415 0.13803 0.76738 0.0
N1547 N 0.2602 0.12972 0.70276 0.0
H1548 H 0.86255 0.3432 0.75913 0.0
H1549 H 0.84761 0.20533 0.73045 0.0
H1550 H 0.84616 0.2902 0.81171 0.0
H1551 H 0.87987 0.25498 0.68226 0.0
H1552 H 0.84169 0.23745 0.75876 0.0
H1553 H 0.86422 0.31211 0.72925 0.0
C1554 C 0.85933 0.32515 0.76453 0.0
C1555 C 0.85435 0.31954 0.78823 0.0
C1556 C 0.84998 0.24133 0.74195 0.0
C1557 C 0.85587 0.2838 0.75382 0.0
C1558 C 0.85329 0.22301 0.72573 0.0
C1559 C 0.86444 0.22742 0.70401 0.0
C1560 C 0.85772 0.26428 0.73638 0.0
C1561 C 0.87137 0.25072 0.69887 0.0
C1562 C 0.86018 0.30738 0.74736 0.0
C1563 C 0.84988 0.29569 0.79381 0.0
N1564 N 0.86796 0.26826 0.71496 0.0
N1565 N 0.85079 0.27878 0.77678 0.0
H1566 H 0.67154 0.87926 0.75177 0.0
H1567 H 0.80699 0.87633 0.71231 0.0
H1568 H 0.72972 0.88675 0.80073 0.0
H1569 H 0.74959 0.88825 0.6634 0.0
H1570 H 0.77863 0.87675 0.74493 0.0
H1571 H 0.69961 0.88029 0.71909 0.0
C1572 C 0.69012 0.88138 0.75575 0.0
C1573 C 0.69815 0.88274 0.77923 0.0
C1574 C 0.77226 0.87929 0.72705 0.0
C1575 C 0.7305 0.8834 0.74172 0.0
C1576 C 0.78842 0.87892 0.7084 0.0
C1577 C 0.78067 0.8823 0.68508 0.0
C1578 C 0.74813 0.88285 0.72233 0.0
C1579 C 0.75638 0.88564 0.6811 0.0
C1580 C 0.70618 0.8818 0.73701 0.0
C1581 C 0.72261 0.88515 0.78307 0.0
N1582 N 0.74098 0.88578 0.69953 0.0
N1583 N 0.73789 0.88524 0.76455 0.0
H1584 H 0.24984 0.13071 0.3316 0.0
H1585 H 0.28477 0.12634 0.19493 0.0
H1586 H 0.19844 0.12316 0.27552 0.0
H1587 H 0.33474 0.1142 0.25136 0.0
H1588 H 0.25301 0.12854 0.22424 0.0
H1589 H 0.2813 0.12724 0.30247 0.0
C1590 C 0.24502 0.12812 0.31329 0.0
C1591 C 0.2212 0.12736 0.30621 0.0
C1592 C 0.27093 0.12535 0.23018 0.0
C1593 C 0.25745 0.12383 0.27256 0.0
C1594 C 0.28908 0.1242 0.21347 0.0
C1595 C 0.31246 0.12003 0.22069 0.0
C1596 C 0.27622 0.12257 0.25429 0.0
C1597 C 0.31699 0.11736 0.24496 0.0
C1598 C 0.2631 0.12627 0.2966 0.0
C1599 C 0.21637 0.12429 0.28198 0.0
N1600 N 0.29906 0.11875 0.26088 0.0
N1601 N 0.2343 0.12278 0.26606 0.0
H1602 H 0.85009 0.27575 0.1978 0.0
H1603 H 0.86757 0.24738 0.33523 0.0
H1604 H 0.88212 0.32458 0.24706 0.0
H1605 H 0.85192 0.19433 0.28243 0.0
H1606 H 0.86753 0.27741 0.30431 0.0
H1607 H 0.84465 0.24752 0.23 0.0
C1608 C 0.85579 0.28065 0.21542 0.0
C1609 C 0.86682 0.3025 0.21967 0.0
C1610 C 0.86402 0.25918 0.29957 0.0
C1611 C 0.86065 0.27018 0.25662 0.0
C1612 C 0.86416 0.24192 0.31723 0.0
C1613 C 0.85998 0.21805 0.3116 0.0
C1614 C 0.8595 0.25263 0.27606 0.0
C1615 C 0.85512 0.21237 0.28787 0.0
C1616 C 0.85275 0.26446 0.23378 0.0
C1617 C 0.87373 0.30788 0.24291 0.0
N1618 N 0.85509 0.2295 0.27102 0.0
N1619 N 0.87063 0.29178 0.26049 0.0
H1620 H 0.6834 0.88439 0.21511 0.0
H1621 H 0.79903 0.83775 0.27756 0.0
H1622 H 0.70628 0.81166 0.21081 0.0
H1623 H 0.75714 0.89173 0.31146 0.0
H1624 H 0.76776 0.83198 0.2486 0.0
H1625 H 0.71227 0.89103 0.24699 0.0
C1626 C 0.69433 0.8698 0.22099 0.0
C1627 C 0.69247 0.84743 0.21027 0.0
C1628 C 0.76538 0.84511 0.26235 0.0
C1629 C 0.72562 0.85507 0.24619 0.0
C1630 C 0.78333 0.8486 0.27878 0.0
C1631 C 0.78073 0.86535 0.29693 0.0
C1632 C 0.74473 0.85873 0.26369 0.0
C1633 C 0.75976 0.87862 0.29776 0.0
C1634 C 0.7107 0.8736 0.23917 0.0
C1635 C 0.70702 0.82915 0.21859 0.0
N1636 N 0.74256 0.87518 0.2812 0.0
N1637 N 0.72318 0.83346 0.23581 0.0
H1638 H 0.13151 0.70994 0.19712 0.0
H1639 H 0.12577 0.74881 0.33308 0.0
H1640 H 0.12092 0.66078 0.25455 0.0
H1641 H 0.12418 0.7984 0.27504 0.0
H1642 H 0.1255 0.71634 0.30472 0.0
H1643 H 0.13123 0.74251 0.22557 0.0
C1644 C 0.12922 0.70596 0.21571 0.0
C1645 C 0.12618 0.68254 0.22342 0.0
C1646 C 0.12514 0.73435 0.2982 0.0
C1647 C 0.12579 0.71983 0.25611 0.0
C1648 C 0.12513 0.75298 0.31443 0.0
C1649 C 0.12506 0.77657 0.30658 0.0
C1650 C 0.12521 0.73922 0.27386 0.0
C1651 C 0.12463 0.78063 0.28205 0.0
C1652 C 0.12897 0.7246 0.23194 0.0
C1653 C 0.12328 0.67852 0.24775 0.0
N1654 N 0.1248 0.76219 0.26661 0.0
N1655 N 0.12316 0.69695 0.2632 0.0
H1656 H 0.30116 0.81184 0.77797 0.0
H1657 H 0.23119 0.89802 0.69013 0.0
H1658 H 0.30526 0.88795 0.78333 0.0
H1659 H 0.21458 0.82437 0.70054 0.0
H1660 H 0.26341 0.89438 0.71921 0.0
H1661 H 0.27441 0.81598 0.74455 0.0
C1662 C 0.29655 0.82947 0.77207 0.0
C1663 C 0.30534 0.84959 0.78367 0.0
C1664 C 0.2528 0.879 0.71494 0.0
C1665 C 0.27457 0.85442 0.74521 0.0
C1666 C 0.23461 0.88103 0.69826 0.0
C1667 C 0.22022 0.86148 0.69311 0.0
C1668 C 0.25671 0.85718 0.7262 0.0
C1669 C 0.22514 0.8399 0.70426 0.0
C1670 C 0.28121 0.8318 0.75296 0.0
C1671 C 0.29876 0.87195 0.77505 0.0
N1672 N 0.24292 0.83834 0.72028 0.0
N1673 N 0.28367 0.87378 0.75635 0.0
H1674 H 0.12444 0.33244 0.74372 0.0
H1675 H 0.14794 0.19548 0.71911 0.0
H1676 H 0.14686 0.283 0.7974 0.0
H1677 H 0.13707 0.2466 0.66341 0.0
H1678 H 0.14795 0.22745 0.74783 0.0
H1679 H 0.1294 0.30152 0.71388 0.0
C1680 C 0.13057 0.31515 0.74923 0.0
C1681 C 0.13505 0.31028 0.77315 0.0
C1682 C 0.14567 0.23169 0.7293 0.0
C1683 C 0.1406 0.27475 0.73909 0.0
C1684 C 0.14576 0.21338 0.71277 0.0
C1685 C 0.14244 0.21817 0.68861 0.0
C1686 C 0.14207 0.25507 0.72177 0.0
C1687 C 0.13932 0.24188 0.68178 0.0
C1688 C 0.13339 0.2975 0.73217 0.0
C1689 C 0.14307 0.28756 0.7792 0.0
N1690 N 0.13911 0.2594 0.69827 0.0
N1691 N 0.14539 0.27062 0.76232 0.0
H1692 H 0.71268 0.1236 0.80905 0.0
H1693 H 0.75644 0.16352 0.68083 0.0
H1694 H 0.68913 0.18853 0.77656 0.0
H1695 H 0.80046 0.1248 0.72936 0.0
H1696 H 0.72551 0.16584 0.7115 0.0
H1697 H 0.73915 0.11696 0.77544 0.0
C1698 C 0.71293 0.13637 0.79477 0.0
C1699 C 0.69886 0.1568 0.79572 0.0
C1700 C 0.74186 0.15662 0.71528 0.0
C1701 C 0.72879 0.14906 0.75713 0.0
C1702 C 0.75931 0.15516 0.6978 0.0
C1703 C 0.78088 0.14404 0.70278 0.0
C1704 C 0.74594 0.14642 0.73756 0.0
C1705 C 0.78404 0.13364 0.72505 0.0
C1706 C 0.72806 0.13257 0.77565 0.0
C1707 C 0.69988 0.1727 0.77667 0.0
N1708 N 0.76676 0.13504 0.74163 0.0
N1709 N 0.71459 0.16849 0.75811 0.0
H1710 H 0.84665 0.73007 0.79583 0.0
H1711 H 0.88336 0.77102 0.66577 0.0
H1712 H 0.88751 0.6875 0.74736 0.0
H1713 H 0.83352 0.80974 0.70878 0.0
H1714 H 0.88465 0.74028 0.69568 0.0
H1715 H 0.84106 0.75944 0.76443 0.0
C1716 C 0.85429 0.72681 0.77857 0.0
C1717 C 0.86773 0.70637 0.77429 0.0
C1718 C 0.87334 0.75545 0.69856 0.0
C1719 C 0.86153 0.73991 0.73842 0.0
C1720 C 0.8725 0.77307 0.68135 0.0
C1721 C 0.85834 0.79321 0.68461 0.0
C1722 C 0.86005 0.75792 0.71938 0.0
C1723 C 0.84499 0.79481 0.70554 0.0
C1724 C 0.85111 0.74358 0.76068 0.0
C1725 C 0.87714 0.70303 0.75157 0.0
N1726 N 0.84625 0.77746 0.72216 0.0
N1727 N 0.874 0.71968 0.73459 0.0
H1728 H 0.28045 0.184 0.14794 0.0
H1729 H 0.25273 0.3204 0.12583 0.0
H1730 H 0.33463 0.23753 0.14171 0.0
H1731 H 0.19909 0.26932 0.14431 0.0
H1732 H 0.28299 0.29036 0.13231 0.0
H1733 H 0.25052 0.2149 0.14734 0.0
C1734 C 0.28619 0.2022 0.14667 0.0
C1735 C 0.31029 0.20801 0.14476 0.0
C1736 C 0.26463 0.28574 0.13514 0.0
C1737 C 0.2758 0.24361 0.14373 0.0
C1738 C 0.24731 0.30289 0.13142 0.0
C1739 C 0.22331 0.29732 0.13435 0.0
C1740 C 0.25793 0.26273 0.14162 0.0
C1741 C 0.21737 0.27439 0.14179 0.0
C1742 C 0.26898 0.21988 0.14624 0.0
C1743 C 0.31636 0.23204 0.14281 0.0
N1744 N 0.23456 0.25786 0.14494 0.0
N1745 N 0.29924 0.2489 0.14222 0.0
H1746 H 0.20085 0.72093 0.85608 0.0
H1747 H 0.33747 0.75472 0.86519 0.0
H1748 H 0.25406 0.67029 0.8769 0.0
H1749 H 0.28075 0.80572 0.86982 0.0
H1750 H 0.30813 0.723 0.86489 0.0
H1751 H 0.23118 0.75163 0.85488 0.0
C1752 C 0.21895 0.71618 0.86014 0.0
C1753 C 0.22489 0.69301 0.86677 0.0
C1754 C 0.30221 0.74118 0.866 0.0
C1755 C 0.25967 0.72815 0.86554 0.0
C1756 C 0.31896 0.75937 0.86634 0.0
C1757 C 0.31174 0.78315 0.86734 0.0
C1758 C 0.27805 0.74679 0.86641 0.0
C1759 C 0.28735 0.78785 0.86851 0.0
C1760 C 0.23622 0.73377 0.85962 0.0
C1761 C 0.24867 0.68795 0.87185 0.0
N1762 N 0.27145 0.76988 0.86785 0.0
N1763 N 0.26521 0.7054 0.87117 0.0
H1764 H 0.32481 0.2486 0.87833 0.0
H1765 H 0.18923 0.27656 0.85256 0.0
H1766 H 0.27519 0.1973 0.85111 0.0
H1767 H 0.24061 0.33147 0.86611 0.0
H1768 H 0.22061 0.24746 0.85292 0.0
H1769 H 0.29458 0.27926 0.87453 0.0
C1770 C 0.30762 0.2438 0.8714 0.0
C1771 C 0.30248 0.22028 0.86518 0.0
C1772 C 0.22511 0.26588 0.85569 0.0
C1773 C 0.26777 0.25528 0.86099 0.0
C1774 C 0.20712 0.28266 0.85537 0.0
C1775 C 0.21219 0.30673 0.85904 0.0
C1776 C 0.24846 0.27301 0.85996 0.0
C1777 C 0.2358 0.31317 0.86332 0.0
C1778 C 0.29038 0.26133 0.86924 0.0
C1779 C 0.27994 0.21514 0.85619 0.0
N1780 N 0.25307 0.29639 0.86369 0.0
N1781 N 0.26338 0.23246 0.85455 0.0
H1782 H 0.66628 0.25631 0.87597 0.0
H1783 H 0.80246 0.29421 0.86956 0.0
H1784 H 0.72411 0.20652 0.8789 0.0
H1785 H 0.74556 0.34392 0.88051 0.0
H1786 H 0.77372 0.26192 0.87008 0.0
H1787 H 0.69482 0.28866 0.87562 0.0
C1788 C 0.68491 0.25208 0.87675 0.0
C1789 C 0.69265 0.22847 0.8774 0.0
C1790 C 0.76753 0.27989 0.87236 0.0
C1791 C 0.72555 0.26564 0.87655 0.0
C1792 C 0.78392 0.29838 0.87197 0.0
C1793 C 0.77645 0.32186 0.87506 0.0
C1794 C 0.74343 0.28489 0.87572 0.0
C1795 C 0.75217 0.32612 0.87812 0.0
C1796 C 0.70123 0.27064 0.87639 0.0
C1797 C 0.71717 0.2243 0.878 0.0
N1798 N 0.73655 0.30783 0.87836 0.0
N1799 N 0.73268 0.24266 0.87748 0.0
H1800 H 0.71054 0.78969 0.80573 0.0
H1801 H 0.77573 0.69742 0.89122 0.0
H1802 H 0.70756 0.7946 0.88188 0.0
H1803 H 0.78893 0.70395 0.81653 0.0
H1804 H 0.74523 0.72839 0.88802 0.0
H1805 H 0.73415 0.75391 0.80936 0.0
C1806 C 0.71478 0.78324 0.82325 0.0
C1807 C 0.70721 0.79536 0.84353 0.0
C1808 C 0.75461 0.72279 0.8723 0.0
C1809 C 0.73433 0.75417 0.84781 0.0
C1810 C 0.77178 0.70503 0.87411 0.0
C1811 C 0.78481 0.69835 0.85411 0.0
C1812 C 0.75043 0.73362 0.8503 0.0
C1813 C 0.77935 0.70884 0.83235 0.0
C1814 C 0.72829 0.76275 0.82531 0.0
C1815 C 0.71318 0.78596 0.86575 0.0
N1816 N 0.76268 0.72601 0.83104 0.0
N1817 N 0.72648 0.76596 0.86731 0.0
H1818 H 0.68777 0.76426 0.09586 0.0
H1819 H 0.78374 0.70306 0.17895 0.0
H1820 H 0.71165 0.79375 0.162 0.0
H1821 H 0.7842 0.6919 0.10341 0.0
H1822 H 0.75194 0.73167 0.17415 0.0
H1823 H 0.71829 0.7333 0.09928 0.0
C1824 C 0.69942 0.76418 0.11105 0.0
C1825 C 0.69735 0.78164 0.12858 0.0
C1826 C 0.75893 0.7229 0.15862 0.0
C1827 C 0.73178 0.74634 0.13278 0.0
C1828 C 0.77701 0.70642 0.16133 0.0
C1829 C 0.78674 0.69507 0.14153 0.0
C1830 C 0.7502 0.72797 0.13597 0.0
C1831 C 0.77729 0.70032 0.11915 0.0
C1832 C 0.71682 0.74664 0.11294 0.0
C1833 C 0.71287 0.78084 0.14792 0.0
N1834 N 0.75946 0.7164 0.11695 0.0
N1835 N 0.72928 0.76343 0.14957 0.0
H1836 H 0.24147 0.65948 0.13677 0.0
H1837 H 0.27211 0.79661 0.15408 0.0
H1838 H 0.18999 0.71292 0.15513 0.0
H1839 H 0.31932 0.74712 0.12016 0.0
H1840 H 0.24371 0.76464 0.16008 0.0
H1841 H 0.27183 0.6901 0.13549 0.0
C1842 C 0.2364 0.67753 0.14051 0.0
C1843 C 0.21284 0.68339 0.14591 0.0
C1844 C 0.26034 0.76075 0.15142 0.0
C1845 C 0.24784 0.71859 0.14484 0.0
C1846 C 0.27662 0.77899 0.14806 0.0
C1847 C 0.29807 0.77461 0.13638 0.0
C1848 C 0.26554 0.7379 0.14317 0.0
C1849 C 0.30294 0.75136 0.12908 0.0
C1850 C 0.25386 0.69502 0.13988 0.0
C1851 C 0.20773 0.70722 0.15104 0.0
N1852 N 0.28676 0.7339 0.1325 0.0
N1853 N 0.22503 0.72386 0.15033 0.0
H1854 H 0.7101 0.219 0.19854 0.0
H1855 H 0.77396 0.30416 0.10507 0.0
H1856 H 0.7036 0.20988 0.12298 0.0
H1857 H 0.78816 0.30376 0.17988 0.0
H1858 H 0.74334 0.27378 0.11119 0.0
H1859 H 0.73446 0.25382 0.19186 0.0
C1860 C 0.71377 0.2243 0.18051 0.0
C1861 C 0.70492 0.21132 0.1613 0.0
C1862 C 0.75297 0.28059 0.12628 0.0
C1863 C 0.73286 0.25143 0.15351 0.0
C1864 C 0.77021 0.29804 0.12281 0.0
C1865 C 0.78355 0.30626 0.14202 0.0
C1866 C 0.74907 0.27159 0.14914 0.0
C1867 C 0.77833 0.29764 0.16464 0.0
C1868 C 0.72769 0.24426 0.17671 0.0
C1869 C 0.7102 0.21923 0.13834 0.0
N1870 N 0.76162 0.2807 0.16756 0.0
N1871 N 0.72391 0.23875 0.13507 0.0
loop_
_geom_bond_atom_site_label_1
_geom_bond_atom_site_label_2
_geom_bond_distance
_geom_bond_site_symmetry_2
_ccdc_geom_bond_type
Co0 N4 2.148 . S
Co0 N10 2.128 . S
Co0 N20 2.194 . S
Co0 O25 2.351 . S
Co0 O26 2.155 . S
Co0 O27 2.096 . S
C1 N4 1.301 . S
C1 N5 1.328 . S
C1 H6 0.930 . S
C2 C3 1.333 . S
C2 N4 1.317 . S
C2 H7 0.930 . S
C3 C2 1.333 . S
C3 N5 1.350 . S
C3 H29 0.931 . S
N4 Co0 2.148 . S
N4 C1 1.301 . S
N4 C2 1.317 . S
N5 C1 1.328 . S
N5 C3 1.350 . S
H6 C1 0.930 . S
H7 C2 0.930 . S
C8 O9 1.224 . S
C8 O27 1.247 . S
O9 C8 1.224 . S
N10 Co0 2.128 . S
N10 C11 1.355 . S
N10 C13 1.311 . S
C11 N10 1.355 . S
C11 C12 1.363 . S
C11 H23 0.929 . S
C12 C11 1.363 . S
C12 N14 1.375 . S
C12 H30 0.931 . S
C13 N10 1.311 . S
C13 N14 1.347 . S
C13 H24 0.929 . S
N14 C12 1.375 . S
N14 C13 1.347 . S
C15 C18 1.365 . S
C15 N20 1.328 . S
C15 H21 0.929 . S
C16 C17 1.362 . S
C16 C19 1.378 . S
C16 H31 0.929 . S
C17 C16 1.362 . S
C17 C18 1.366 . S
C18 C15 1.365 . S
C18 C17 1.366 . S
C18 H32 0.930 . S
C19 C16 1.378 . S
C19 N20 1.315 . S
C19 H22 0.930 . S
N20 Co0 2.194 . S
N20 C15 1.328 . S
N20 C19 1.315 . S
H21 C15 0.929 . S
H22 C19 0.930 . S
H23 C11 0.929 . S
H24 C13 0.929 . S
O25 Co0 2.351 . S
O25 C28 1.244 . S
O26 Co0 2.155 . S
O26 C28 1.240 . S
O27 Co0 2.096 . S
O27 C8 1.247 . S
C28 O25 1.244 . S
C28 O26 1.240 . S
H29 C3 0.931 . S
H30 C12 0.931 . S
H31 C16 0.929 . S
H32 C18 0.930 . S
Co33 N37 2.148 . S
Co33 N43 2.128 . S
Co33 N53 2.194 . S
Co33 O58 2.351 . S
Co33 O59 2.155 . S
Co33 O60 2.096 . S
C34 N37 1.301 . S
C34 N38 1.328 . S
C34 H39 0.930 . S
C35 C36 1.333 . S
C35 N37 1.317 . S
C35 H40 0.930 . S
C36 C35 1.333 . S
C36 N38 1.350 . S
C36 H62 0.931 . S
N37 Co33 2.148 . S
N37 C34 1.301 . S
N37 C35 1.317 . S
N38 C34 1.328 . S
N38 C36 1.350 . S
H39 C34 0.930 . S
H40 C35 0.930 . S
C41 O42 1.224 . S
C41 O60 1.247 . S
O42 C41 1.224 . S
N43 Co33 2.128 . S
N43 C44 1.355 . S
N43 C46 1.311 . S
C44 N43 1.355 . S
C44 C45 1.363 . S
C44 H56 0.929 . S
C45 C44 1.363 . S
C45 N47 1.375 . S
C45 H63 0.931 . S
C46 N43 1.311 . S
C46 N47 1.347 . S
C46 H57 0.929 . S
N47 C45 1.375 . S
N47 C46 1.347 . S
C48 C51 1.365 . S
C48 N53 1.328 . S
C48 H54 0.929 . S
C49 C50 1.362 . S
C49 C52 1.378 . S
C49 H64 0.929 . S
C50 C49 1.362 . S
C50 C51 1.366 . S
C51 C48 1.365 . S
C51 C50 1.366 . S
C51 H65 0.930 . S
C52 C49 1.378 . S
C52 N53 1.315 . S
C52 H55 0.930 . S
N53 Co33 2.194 . S
N53 C48 1.328 . S
N53 C52 1.315 . S
H54 C48 0.929 . S
H55 C52 0.930 . S
H56 C44 0.929 . S
H57 C46 0.929 . S
O58 Co33 2.351 . S
O58 C61 1.244 . S
O59 Co33 2.155 . S
O59 C61 1.240 . S
O60 Co33 2.096 . S
O60 C41 1.247 . S
C61 O58 1.244 . S
C61 O59 1.240 . S
H62 C36 0.931 . S
H63 C45 0.931 . S
H64 C49 0.929 . S
H65 C51 0.930 . S
Co66 N70 2.148 . S
Co66 N76 2.128 . S
Co66 N86 2.194 . S
Co66 O91 2.351 . S
Co66 O92 2.155 . S
Co66 O93 2.096 . S
C67 N70 1.301 . S
C67 N71 1.328 . S
C67 H72 0.930 . S
C68 C69 1.333 . S
C68 N70 1.317 . S
C68 H73 0.930 . S
C69 C68 1.333 . S
C69 N71 1.350 . S
C69 H95 0.931 . S
N70 Co66 2.148 . S
N70 C67 1.301 . S
N70 C68 1.317 . S
N71 C67 1.328 . S
N71 C69 1.350 . S
H72 C67 0.930 . S
H73 C68 0.930 . S
C74 O75 1.224 . S
C74 O93 1.247 . S
O75 C74 1.224 . S
N76 Co66 2.128 . S
N76 C77 1.355 . S
N76 C79 1.311 . S
C77 N76 1.355 . S
C77 C78 1.363 . S
C77 H89 0.929 . S
C78 C77 1.363 . S
C78 N80 1.375 . S
C78 H96 0.931 . S
C79 N76 1.311 . S
C79 N80 1.347 . S
C79 H90 0.929 . S
N80 C78 1.375 . S
N80 C79 1.347 . S
C81 C84 1.365 . S
C81 N86 1.328 . S
C81 H87 0.929 . S
C82 C83 1.362 . S
C82 C85 1.378 . S
C82 H97 0.929 . S
C83 C82 1.362 . S
C83 C84 1.366 . S
C84 C81 1.365 . S
C84 C83 1.366 . S
C84 H98 0.930 . S
C85 C82 1.378 . S
C85 N86 1.315 . S
C85 H88 0.930 . S
N86 Co66 2.194 . S
N86 C81 1.328 . S
N86 C85 1.315 . S
H87 C81 0.929 . S
H88 C85 0.930 . S
H89 C77 0.929 . S
H90 C79 0.929 . S
O91 Co66 2.351 . S
O91 C94 1.244 . S
O92 Co66 2.155 . S
O92 C94 1.240 . S
O93 Co66 2.096 . S
O93 C74 1.247 . S
C94 O91 1.244 . S
C94 O92 1.240 . S
H95 C69 0.931 . S
H96 C78 0.931 . S
H97 C82 0.929 . S
H98 C84 0.930 . S
Co99 N103 2.148 . S
Co99 N109 2.128 . S
Co99 N119 2.194 . S
Co99 O124 2.351 . S
Co99 O125 2.155 . S
Co99 O126 2.096 . S
C100 N103 1.301 . S
C100 N104 1.328 . S
C100 H105 0.930 . S
C101 C102 1.333 . S
C101 N103 1.317 . S
C101 H106 0.930 . S
C102 C101 1.333 . S
C102 N104 1.350 . S
C102 H128 0.931 . S
N103 Co99 2.148 . S
N103 C100 1.301 . S
N103 C101 1.317 . S
N104 C100 1.328 . S
N104 C102 1.350 . S
H105 C100 0.930 . S
H106 C101 0.930 . S
C107 O108 1.224 . S
C107 O126 1.247 . S
O108 C107 1.224 . S
N109 Co99 2.128 . S
N109 C110 1.355 . S
N109 C112 1.311 . S
C110 N109 1.355 . S
C110 C111 1.363 . S
C110 H122 0.929 . S
C111 C110 1.363 . S
C111 N113 1.375 . S
C111 H129 0.931 . S
C112 N109 1.311 . S
C112 N113 1.347 . S
C112 H123 0.929 . S
N113 C111 1.375 . S
N113 C112 1.347 . S
C114 C117 1.365 . S
C114 N119 1.328 . S
C114 H120 0.929 . S
C115 C116 1.362 . S
C115 C118 1.378 . S
C115 H130 0.929 . S
C116 C115 1.362 . S
C116 C117 1.366 . S
C117 C114 1.365 . S
C117 C116 1.366 . S
C117 H131 0.930 . S
C118 C115 1.378 . S
C118 N119 1.315 . S
C118 H121 0.930 . S
N119 Co99 2.194 . S
N119 C114 1.328 . S
N119 C118 1.315 . S
H120 C114 0.929 . S
H121 C118 0.930 . S
H122 C110 0.929 . S
H123 C112 0.929 . S
O124 Co99 2.351 . S
O124 C127 1.244 . S
O125 Co99 2.155 . S
O125 C127 1.240 . S
O126 Co99 2.096 . S
O126 C107 1.247 . S
C127 O124 1.244 . S
C127 O125 1.240 . S
H128 C102 0.931 . S
H129 C111 0.931 . S
H130 C115 0.929 . S
H131 C117 0.930 . S
Co132 N136 2.148 . S
Co132 N142 2.128 . S
Co132 N152 2.194 . S
Co132 O157 2.351 . S
Co132 O158 2.155 . S
Co132 O159 2.096 . S
C133 N136 1.301 . S
C133 N137 1.328 . S
C133 H138 0.930 . S
C134 C135 1.333 . S
C134 N136 1.317 . S
C134 H139 0.930 . S
C135 C134 1.333 . S
C135 N137 1.350 . S
C135 H161 0.931 . S
N136 Co132 2.148 . S
N136 C133 1.301 . S
N136 C134 1.317 . S
N137 C133 1.328 . S
N137 C135 1.350 . S
H138 C133 0.930 . S
H139 C134 0.930 . S
C140 O141 1.224 . S
C140 O159 1.247 . S
O141 C140 1.224 . S
N142 Co132 2.128 . S
N142 C143 1.355 . S
N142 C145 1.311 . S
C143 N142 1.355 . S
C143 C144 1.363 . S
C143 H155 0.929 . S
C144 C143 1.363 . S
C144 N146 1.375 . S
C144 H162 0.931 . S
C145 N142 1.311 . S
C145 N146 1.347 . S
C145 H156 0.929 . S
N146 C144 1.375 . S
N146 C145 1.347 . S
C147 C150 1.365 . S
C147 N152 1.328 . S
C147 H153 0.929 . S
C148 C149 1.362 . S
C148 C151 1.378 . S
C148 H163 0.929 . S
C149 C148 1.362 . S
C149 C150 1.366 . S
C150 C147 1.365 . S
C150 C149 1.366 . S
C150 H164 0.930 . S
C151 C148 1.378 . S
C151 N152 1.315 . S
C151 H154 0.930 . S
N152 Co132 2.194 . S
N152 C147 1.328 . S
N152 C151 1.315 . S
H153 C147 0.929 . S
H154 C151 0.930 . S
H155 C143 0.929 . S
H156 C145 0.929 . S
O157 Co132 2.351 . S
O157 C160 1.244 . S
O158 Co132 2.155 . S
O158 C160 1.240 . S
O159 Co132 2.096 . S
O159 C140 1.247 . S
C160 O157 1.244 . S
C160 O158 1.240 . S
H161 C135 0.931 . S
H162 C144 0.931 . S
H163 C148 0.929 . S
H164 C150 0.930 . S
Co165 N169 2.148 . S
Co165 N175 2.128 . S
Co165 N185 2.194 . S
Co165 O190 2.351 . S
Co165 O191 2.155 . S
Co165 O192 2.096 . S
C166 N169 1.301 . S
C166 N170 1.328 . S
C166 H171 0.930 . S
C167 C168 1.333 . S
C167 N169 1.317 . S
C167 H172 0.930 . S
C168 C167 1.333 . S
C168 N170 1.350 . S
C168 H194 0.931 . S
N169 Co165 2.148 . S
N169 C166 1.301 . S
N169 C167 1.317 . S
N170 C166 1.328 . S
N170 C168 1.350 . S
H171 C166 0.930 . S
H172 C167 0.930 . S
C173 O174 1.224 . S
C173 O192 1.247 . S
O174 C173 1.224 . S
N175 Co165 2.128 . S
N175 C176 1.355 . S
N175 C178 1.311 . S
C176 N175 1.355 . S
C176 C177 1.363 . S
C176 H188 0.929 . S
C177 C176 1.363 . S
C177 N179 1.375 . S
C177 H195 0.931 . S
C178 N175 1.311 . S
C178 N179 1.347 . S
C178 H189 0.929 . S
N179 C177 1.375 . S
N179 C178 1.347 . S
C180 C183 1.365 . S
C180 N185 1.328 . S
C180 H186 0.929 . S
C181 C182 1.362 . S
C181 C184 1.378 . S
C181 H196 0.929 . S
C182 C181 1.362 . S
C182 C183 1.366 . S
C183 C180 1.365 . S
C183 C182 1.366 . S
C183 H197 0.930 . S
C184 C181 1.378 . S
C184 N185 1.315 . S
C184 H187 0.930 . S
N185 Co165 2.194 . S
N185 C180 1.328 . S
N185 C184 1.315 . S
H186 C180 0.929 . S
H187 C184 0.930 . S
H188 C176 0.929 . S
H189 C178 0.929 . S
O190 Co165 2.351 . S
O190 C193 1.244 . S
O191 Co165 2.155 . S
O191 C193 1.240 . S
O192 Co165 2.096 . S
O192 C173 1.247 . S
C193 O190 1.244 . S
C193 O191 1.240 . S
H194 C168 0.931 . S
H195 C177 0.931 . S
H196 C181 0.929 . S
H197 C183 0.930 . S
Co198 N202 2.148 . S
Co198 N208 2.128 . S
Co198 N218 2.194 . S
Co198 O223 2.351 . S
Co198 O224 2.155 . S
Co198 O225 2.096 . S
C199 N202 1.301 . S
C199 N203 1.328 . S
C199 H204 0.930 . S
C200 C201 1.333 . S
C200 N202 1.317 . S
C200 H205 0.930 . S
C201 C200 1.333 . S
C201 N203 1.350 . S
C201 H227 0.931 . S
N202 Co198 2.148 . S
N202 C199 1.301 . S
N202 C200 1.317 . S
N203 C199 1.328 . S
N203 C201 1.350 . S
H204 C199 0.930 . S
H205 C200 0.930 . S
C206 O207 1.224 . S
C206 O225 1.247 . S
O207 C206 1.224 . S
N208 Co198 2.128 . S
N208 C209 1.355 . S
N208 C211 1.311 . S
C209 N208 1.355 . S
C209 C210 1.363 . S
C209 H221 0.929 . S
C210 C209 1.363 . S
C210 N212 1.375 . S
C210 H228 0.931 . S
C211 N208 1.311 . S
C211 N212 1.347 . S
C211 H222 0.929 . S
N212 C210 1.375 . S
N212 C211 1.347 . S
C213 C216 1.365 . S
C213 N218 1.328 . S
C213 H219 0.929 . S
C214 C215 1.362 . S
C214 C217 1.378 . S
C214 H229 0.929 . S
C215 C214 1.362 . S
C215 C216 1.366 . S
C216 C213 1.365 . S
C216 C215 1.366 . S
C216 H230 0.930 . S
C217 C214 1.378 . S
C217 N218 1.315 . S
C217 H220 0.930 . S
N218 Co198 2.194 . S
N218 C213 1.328 . S
N218 C217 1.315 . S
H219 C213 0.929 . S
H220 C217 0.930 . S
H221 C209 0.929 . S
H222 C211 0.929 . S
O223 Co198 2.351 . S
O223 C226 1.244 . S
O224 Co198 2.155 . S
O224 C226 1.240 . S
O225 Co198 2.096 . S
O225 C206 1.247 . S
C226 O223 1.244 . S
C226 O224 1.240 . S
H227 C201 0.931 . S
H228 C210 0.931 . S
H229 C214 0.929 . S
H230 C216 0.930 . S
Co231 N235 2.148 . S
Co231 N241 2.128 . S
Co231 N251 2.194 . S
Co231 O256 2.351 . S
Co231 O257 2.155 . S
Co231 O258 2.096 . S
C232 N235 1.301 . S
C232 N236 1.328 . S
C232 H237 0.930 . S
C233 C234 1.333 . S
C233 N235 1.317 . S
C233 H238 0.930 . S
C234 C233 1.333 . S
C234 N236 1.350 . S
C234 H260 0.931 . S
N235 Co231 2.148 . S
N235 C232 1.301 . S
N235 C233 1.317 . S
N236 C232 1.328 . S
N236 C234 1.350 . S
H237 C232 0.930 . S
H238 C233 0.930 . S
C239 O240 1.224 . S
C239 O258 1.247 . S
O240 C239 1.224 . S
N241 Co231 2.128 . S
N241 C242 1.355 . S
N241 C244 1.311 . S
C242 N241 1.355 . S
C242 C243 1.363 . S
C242 H254 0.929 . S
C243 C242 1.363 . S
C243 N245 1.375 . S
C243 H261 0.931 . S
C244 N241 1.311 . S
C244 N245 1.347 . S
C244 H255 0.929 . S
N245 C243 1.375 . S
N245 C244 1.347 . S
C246 C249 1.365 . S
C246 N251 1.328 . S
C246 H252 0.929 . S
C247 C248 1.362 . S
C247 C250 1.378 . S
C247 H262 0.929 . S
C248 C247 1.362 . S
C248 C249 1.366 . S
C249 C246 1.365 . S
C249 C248 1.366 . S
C249 H263 0.930 . S
C250 C247 1.378 . S
C250 N251 1.315 . S
C250 H253 0.930 . S
N251 Co231 2.194 . S
N251 C246 1.328 . S
N251 C250 1.315 . S
H252 C246 0.929 . S
H253 C250 0.930 . S
H254 C242 0.929 . S
H255 C244 0.929 . S
O256 Co231 2.351 . S
O256 C259 1.244 . S
O257 Co231 2.155 . S
O257 C259 1.240 . S
O258 Co231 2.096 . S
O258 C239 1.247 . S
C259 O256 1.244 . S
C259 O257 1.240 . S
H260 C234 0.931 . S
H261 C243 0.931 . S
H262 C247 0.929 . S
H263 C249 0.930 . S
Co264 N268 2.148 . S
Co264 N274 2.128 . S
Co264 N284 2.194 . S
Co264 O289 2.351 . S
Co264 O290 2.155 . S
Co264 O291 2.096 . S
C265 N268 1.301 . S
C265 N269 1.328 . S
C265 H270 0.930 . S
C266 C267 1.333 . S
C266 N268 1.317 . S
C266 H271 0.930 . S
C267 C266 1.333 . S
C267 N269 1.350 . S
C267 H293 0.931 . S
N268 Co264 2.148 . S
N268 C265 1.301 . S
N268 C266 1.317 . S
N269 C265 1.328 . S
N269 C267 1.350 . S
H270 C265 0.930 . S
H271 C266 0.930 . S
C272 O273 1.224 . S
C272 O291 1.247 . S
O273 C272 1.224 . S
N274 Co264 2.128 . S
N274 C275 1.355 . S
N274 C277 1.311 . S
C275 N274 1.355 . S
C275 C276 1.363 . S
C275 H287 0.929 . S
C276 C275 1.363 . S
C276 N278 1.375 . S
C276 H294 0.931 . S
C277 N274 1.311 . S
C277 N278 1.347 . S
C277 H288 0.929 . S
N278 C276 1.375 . S
N278 C277 1.347 . S
C279 C282 1.365 . S
C279 N284 1.328 . S
C279 H285 0.929 . S
C280 C281 1.362 . S
C280 C283 1.378 . S
C280 H295 0.929 . S
C281 C280 1.362 . S
C281 C282 1.366 . S
C282 C279 1.365 . S
C282 C281 1.366 . S
C282 H296 0.930 . S
C283 C280 1.378 . S
C283 N284 1.315 . S
C283 H286 0.930 . S
N284 Co264 2.194 . S
N284 C279 1.328 . S
N284 C283 1.315 . S
H285 C279 0.929 . S
H286 C283 0.930 . S
H287 C275 0.929 . S
H288 C277 0.929 . S
O289 Co264 2.351 . S
O289 C292 1.244 . S
O290 Co264 2.155 . S
O290 C292 1.240 . S
O291 Co264 2.096 . S
O291 C272 1.247 . S
C292 O289 1.244 . S
C292 O290 1.240 . S
H293 C267 0.931 . S
H294 C276 0.931 . S
H295 C280 0.929 . S
H296 C282 0.930 . S
Co297 N301 2.148 . S
Co297 N307 2.128 . S
Co297 N317 2.194 . S
Co297 O322 2.351 . S
Co297 O323 2.155 . S
Co297 O324 2.096 . S
C298 N301 1.301 . S
C298 N302 1.328 . S
C298 H303 0.930 . S
C299 C300 1.333 . S
C299 N301 1.317 . S
C299 H304 0.930 . S
C300 C299 1.333 . S
C300 N302 1.350 . S
C300 H326 0.931 . S
N301 Co297 2.148 . S
N301 C298 1.301 . S
N301 C299 1.317 . S
N302 C298 1.328 . S
N302 C300 1.350 . S
H303 C298 0.930 . S
H304 C299 0.930 . S
C305 O306 1.224 . S
C305 O324 1.247 . S
O306 C305 1.224 . S
N307 Co297 2.128 . S
N307 C308 1.355 . S
N307 C310 1.311 . S
C308 N307 1.355 . S
C308 C309 1.363 . S
C308 H320 0.929 . S
C309 C308 1.363 . S
C309 N311 1.375 . S
C309 H327 0.931 . S
C310 N307 1.311 . S
C310 N311 1.347 . S
C310 H321 0.929 . S
N311 C309 1.375 . S
N311 C310 1.347 . S
C312 C315 1.365 . S
C312 N317 1.328 . S
C312 H318 0.929 . S
C313 C314 1.362 . S
C313 C316 1.378 . S
C313 H328 0.929 . S
C314 C313 1.362 . S
C314 C315 1.366 . S
C315 C312 1.365 . S
C315 C314 1.366 . S
C315 H329 0.930 . S
C316 C313 1.378 . S
C316 N317 1.315 . S
C316 H319 0.930 . S
N317 Co297 2.194 . S
N317 C312 1.328 . S
N317 C316 1.315 . S
H318 C312 0.929 . S
H319 C316 0.930 . S
H320 C308 0.929 . S
H321 C310 0.929 . S
O322 Co297 2.351 . S
O322 C325 1.244 . S
O323 Co297 2.155 . S
O323 C325 1.240 . S
O324 Co297 2.096 . S
O324 C305 1.247 . S
C325 O322 1.244 . S
C325 O323 1.240 . S
H326 C300 0.931 . S
H327 C309 0.931 . S
H328 C313 0.929 . S
H329 C315 0.930 . S
Co330 N334 2.148 . S
Co330 N340 2.128 . S
Co330 N350 2.194 . S
Co330 O355 2.351 . S
Co330 O356 2.155 . S
Co330 O357 2.096 . S
C331 N334 1.301 . S
C331 N335 1.328 . S
C331 H336 0.930 . S
C332 C333 1.333 . S
C332 N334 1.317 . S
C332 H337 0.930 . S
C333 C332 1.333 . S
C333 N335 1.350 . S
C333 H359 0.931 . S
N334 Co330 2.148 . S
N334 C331 1.301 . S
N334 C332 1.317 . S
N335 C331 1.328 . S
N335 C333 1.350 . S
H336 C331 0.930 . S
H337 C332 0.930 . S
C338 O339 1.224 . S
C338 O357 1.247 . S
O339 C338 1.224 . S
N340 Co330 2.128 . S
N340 C341 1.355 . S
N340 C343 1.311 . S
C341 N340 1.355 . S
C341 C342 1.363 . S
C341 H353 0.929 . S
C342 C341 1.363 . S
C342 N344 1.375 . S
C342 H360 0.931 . S
C343 N340 1.311 . S
C343 N344 1.347 . S
C343 H354 0.929 . S
N344 C342 1.375 . S
N344 C343 1.347 . S
C345 C348 1.365 . S
C345 N350 1.328 . S
C345 H351 0.929 . S
C346 C347 1.362 . S
C346 C349 1.378 . S
C346 H361 0.929 . S
C347 C346 1.362 . S
C347 C348 1.366 . S
C348 C345 1.365 . S
C348 C347 1.366 . S
C348 H362 0.930 . S
C349 C346 1.378 . S
C349 N350 1.315 . S
C349 H352 0.930 . S
N350 Co330 2.194 . S
N350 C345 1.328 . S
N350 C349 1.315 . S
H351 C345 0.929 . S
H352 C349 0.930 . S
H353 C341 0.929 . S
H354 C343 0.929 . S
O355 Co330 2.351 . S
O355 C358 1.244 . S
O356 Co330 2.155 . S
O356 C358 1.240 . S
O357 Co330 2.096 . S
O357 C338 1.247 . S
C358 O355 1.244 . S
C358 O356 1.240 . S
H359 C333 0.931 . S
H360 C342 0.931 . S
H361 C346 0.929 . S
H362 C348 0.930 . S
Co363 N367 2.148 . S
Co363 N373 2.128 . S
Co363 N383 2.194 . S
Co363 O388 2.351 . S
Co363 O389 2.155 . S
Co363 O390 2.096 . S
C364 N367 1.301 . S
C364 N368 1.328 . S
C364 H369 0.930 . S
C365 C366 1.333 . S
C365 N367 1.317 . S
C365 H370 0.930 . S
C366 C365 1.333 . S
C366 N368 1.350 . S
C366 H392 0.931 . S
N367 Co363 2.148 . S
N367 C364 1.301 . S
N367 C365 1.317 . S
N368 C364 1.328 . S
N368 C366 1.350 . S
H369 C364 0.930 . S
H370 C365 0.930 . S
C371 O372 1.224 . S
C371 O390 1.247 . S
O372 C371 1.224 . S
N373 Co363 2.128 . S
N373 C374 1.355 . S
N373 C376 1.311 . S
C374 N373 1.355 . S
C374 C375 1.363 . S
C374 H386 0.929 . S
C375 C374 1.363 . S
C375 N377 1.375 . S
C375 H393 0.931 . S
C376 N373 1.311 . S
C376 N377 1.347 . S
C376 H387 0.929 . S
N377 C375 1.375 . S
N377 C376 1.347 . S
C378 C381 1.365 . S
C378 N383 1.328 . S
C378 H384 0.929 . S
C379 C380 1.362 . S
C379 C382 1.378 . S
C379 H394 0.929 . S
C380 C379 1.362 . S
C380 C381 1.366 . S
C381 C378 1.365 . S
C381 C380 1.366 . S
C381 H395 0.930 . S
C382 C379 1.378 . S
C382 N383 1.315 . S
C382 H385 0.930 . S
N383 Co363 2.194 . S
N383 C378 1.328 . S
N383 C382 1.315 . S
H384 C378 0.929 . S
H385 C382 0.930 . S
H386 C374 0.929 . S
H387 C376 0.929 . S
O388 Co363 2.351 . S
O388 C391 1.244 . S
O389 Co363 2.155 . S
O389 C391 1.240 . S
O390 Co363 2.096 . S
O390 C371 1.247 . S
C391 O388 1.244 . S
C391 O389 1.240 . S
H392 C366 0.931 . S
H393 C375 0.931 . S
H394 C379 0.929 . S
H395 C381 0.930 . S
Co396 N400 2.148 . S
Co396 N406 2.128 . S
Co396 N416 2.194 . S
Co396 O421 2.351 . S
Co396 O422 2.155 . S
Co396 O423 2.096 . S
C397 N400 1.301 . S
C397 N401 1.328 . S
C397 H402 0.930 . S
C398 C399 1.333 . S
C398 N400 1.317 . S
C398 H403 0.930 . S
C399 C398 1.333 . S
C399 N401 1.350 . S
C399 H425 0.931 . S
N400 Co396 2.148 . S
N400 C397 1.301 . S
N400 C398 1.317 . S
N401 C397 1.328 . S
N401 C399 1.350 . S
H402 C397 0.930 . S
H403 C398 0.930 . S
C404 O405 1.224 . S
C404 O423 1.247 . S
O405 C404 1.224 . S
N406 Co396 2.128 . S
N406 C407 1.355 . S
N406 C409 1.311 . S
C407 N406 1.355 . S
C407 C408 1.363 . S
C407 H419 0.929 . S
C408 C407 1.363 . S
C408 N410 1.375 . S
C408 H426 0.931 . S
C409 N406 1.311 . S
C409 N410 1.347 . S
C409 H420 0.929 . S
N410 C408 1.375 . S
N410 C409 1.347 . S
C411 C414 1.365 . S
C411 N416 1.328 . S
C411 H417 0.929 . S
C412 C413 1.362 . S
C412 C415 1.378 . S
C412 H427 0.929 . S
C413 C412 1.362 . S
C413 C414 1.366 . S
C414 C411 1.365 . S
C414 C413 1.366 . S
C414 H428 0.930 . S
C415 C412 1.378 . S
C415 N416 1.315 . S
C415 H418 0.930 . S
N416 Co396 2.194 . S
N416 C411 1.328 . S
N416 C415 1.315 . S
H417 C411 0.929 . S
H418 C415 0.930 . S
H419 C407 0.929 . S
H420 C409 0.929 . S
O421 Co396 2.351 . S
O421 C424 1.244 . S
O422 Co396 2.155 . S
O422 C424 1.240 . S
O423 Co396 2.096 . S
O423 C404 1.247 . S
C424 O421 1.244 . S
C424 O422 1.240 . S
H425 C399 0.931 . S
H426 C408 0.931 . S
H427 C412 0.929 . S
H428 C414 0.930 . S
Co429 N433 2.148 . S
Co429 N439 2.128 . S
Co429 N449 2.194 . S
Co429 O454 2.351 . S
Co429 O455 2.155 . S
Co429 O456 2.096 . S
C430 N433 1.301 . S
C430 N434 1.328 . S
C430 H435 0.930 . S
C431 C432 1.333 . S
C431 N433 1.317 . S
C431 H436 0.930 . S
C432 C431 1.333 . S
C432 N434 1.350 . S
C432 H458 0.931 . S
N433 Co429 2.148 . S
N433 C430 1.301 . S
N433 C431 1.317 . S
N434 C430 1.328 . S
N434 C432 1.350 . S
H435 C430 0.930 . S
H436 C431 0.930 . S
C437 O438 1.224 . S
C437 O456 1.247 . S
O438 C437 1.224 . S
N439 Co429 2.128 . S
N439 C440 1.355 . S
N439 C442 1.311 . S
C440 N439 1.355 . S
C440 C441 1.363 . S
C440 H452 0.929 . S
C441 C440 1.363 . S
C441 N443 1.375 . S
C441 H459 0.931 . S
C442 N439 1.311 . S
C442 N443 1.347 . S
C442 H453 0.929 . S
N443 C441 1.375 . S
N443 C442 1.347 . S
C444 C447 1.365 . S
C444 N449 1.328 . S
C444 H450 0.929 . S
C445 C446 1.362 . S
C445 C448 1.378 . S
C445 H460 0.929 . S
C446 C445 1.362 . S
C446 C447 1.366 . S
C447 C444 1.365 . S
C447 C446 1.366 . S
C447 H461 0.930 . S
C448 C445 1.378 . S
C448 N449 1.315 . S
C448 H451 0.930 . S
N449 Co429 2.194 . S
N449 C444 1.328 . S
N449 C448 1.315 . S
H450 C444 0.929 . S
H451 C448 0.930 . S
H452 C440 0.929 . S
H453 C442 0.929 . S
O454 Co429 2.351 . S
O454 C457 1.244 . S
O455 Co429 2.155 . S
O455 C457 1.240 . S
O456 Co429 2.096 . S
O456 C437 1.247 . S
C457 O454 1.244 . S
C457 O455 1.240 . S
H458 C432 0.931 . S
H459 C441 0.931 . S
H460 C445 0.929 . S
H461 C447 0.930 . S
Co462 N466 2.148 . S
Co462 N472 2.128 . S
Co462 N482 2.194 . S
Co462 O487 2.351 . S
Co462 O488 2.155 . S
Co462 O489 2.096 . S
C463 N466 1.301 . S
C463 N467 1.328 . S
C463 H468 0.930 . S
C464 C465 1.333 . S
C464 N466 1.317 . S
C464 H469 0.930 . S
C465 C464 1.333 . S
C465 N467 1.350 . S
C465 H491 0.931 . S
N466 Co462 2.148 . S
N466 C463 1.301 . S
N466 C464 1.317 . S
N467 C463 1.328 . S
N467 C465 1.350 . S
H468 C463 0.930 . S
H469 C464 0.930 . S
C470 O471 1.224 . S
C470 O489 1.247 . S
O471 C470 1.224 . S
N472 Co462 2.128 . S
N472 C473 1.355 . S
N472 C475 1.311 . S
C473 N472 1.355 . S
C473 C474 1.363 . S
C473 H485 0.929 . S
C474 C473 1.363 . S
C474 N476 1.375 . S
C474 H492 0.931 . S
C475 N472 1.311 . S
C475 N476 1.347 . S
C475 H486 0.929 . S
N476 C474 1.375 . S
N476 C475 1.347 . S
C477 C480 1.365 . S
C477 N482 1.328 . S
C477 H483 0.929 . S
C478 C479 1.362 . S
C478 C481 1.378 . S
C478 H493 0.929 . S
C479 C478 1.362 . S
C479 C480 1.366 . S
C480 C477 1.365 . S
C480 C479 1.366 . S
C480 H494 0.930 . S
C481 C478 1.378 . S
C481 N482 1.315 . S
C481 H484 0.930 . S
N482 Co462 2.194 . S
N482 C477 1.328 . S
N482 C481 1.315 . S
H483 C477 0.929 . S
H484 C481 0.930 . S
H485 C473 0.929 . S
H486 C475 0.929 . S
O487 Co462 2.351 . S
O487 C490 1.244 . S
O488 Co462 2.155 . S
O488 C490 1.240 . S
O489 Co462 2.096 . S
O489 C470 1.247 . S
C490 O487 1.244 . S
C490 O488 1.240 . S
H491 C465 0.931 . S
H492 C474 0.931 . S
H493 C478 0.929 . S
H494 C480 0.930 . S
Co495 N499 2.148 . S
Co495 N505 2.128 . S
Co495 N515 2.194 . S
Co495 O520 2.351 . S
Co495 O521 2.155 . S
Co495 O522 2.096 . S
C496 N499 1.301 . S
C496 N500 1.328 . S
C496 H501 0.930 . S
C497 C498 1.333 . S
C497 N499 1.317 . S
C497 H502 0.930 . S
C498 C497 1.333 . S
C498 N500 1.350 . S
C498 H524 0.931 . S
N499 Co495 2.148 . S
N499 C496 1.301 . S
N499 C497 1.317 . S
N500 C496 1.328 . S
N500 C498 1.350 . S
H501 C496 0.930 . S
H502 C497 0.930 . S
C503 O504 1.224 . S
C503 O522 1.247 . S
O504 C503 1.224 . S
N505 Co495 2.128 . S
N505 C506 1.355 . S
N505 C508 1.311 . S
C506 N505 1.355 . S
C506 C507 1.363 . S
C506 H518 0.929 . S
C507 C506 1.363 . S
C507 N509 1.375 . S
C507 H525 0.931 . S
C508 N505 1.311 . S
C508 N509 1.347 . S
C508 H519 0.929 . S
N509 C507 1.375 . S
N509 C508 1.347 . S
C510 C513 1.365 . S
C510 N515 1.328 . S
C510 H516 0.929 . S
C511 C512 1.362 . S
C511 C514 1.378 . S
C511 H526 0.929 . S
C512 C511 1.362 . S
C512 C513 1.366 . S
C513 C510 1.365 . S
C513 C512 1.366 . S
C513 H527 0.930 . S
C514 C511 1.378 . S
C514 N515 1.315 . S
C514 H517 0.930 . S
N515 Co495 2.194 . S
N515 C510 1.328 . S
N515 C514 1.315 . S
H516 C510 0.929 . S
H517 C514 0.930 . S
H518 C506 0.929 . S
H519 C508 0.929 . S
O520 Co495 2.351 . S
O520 C523 1.244 . S
O521 Co495 2.155 . S
O521 C523 1.240 . S
O522 Co495 2.096 . S
O522 C503 1.247 . S
C523 O520 1.244 . S
C523 O521 1.240 . S
H524 C498 0.931 . S
H525 C507 0.931 . S
H526 C511 0.929 . S
H527 C513 0.930 . S
Co528 N532 2.148 . S
Co528 N538 2.128 . S
Co528 N548 2.194 . S
Co528 O553 2.351 . S
Co528 O554 2.155 . S
Co528 O555 2.096 . S
C529 N532 1.301 . S
C529 N533 1.328 . S
C529 H534 0.930 . S
C530 C531 1.333 . S
C530 N532 1.317 . S
C530 H535 0.930 . S
C531 C530 1.333 . S
C531 N533 1.350 . S
C531 H557 0.931 . S
N532 Co528 2.148 . S
N532 C529 1.301 . S
N532 C530 1.317 . S
N533 C529 1.328 . S
N533 C531 1.350 . S
H534 C529 0.930 . S
H535 C530 0.930 . S
C536 O537 1.224 . S
C536 O555 1.247 . S
O537 C536 1.224 . S
N538 Co528 2.128 . S
N538 C539 1.355 . S
N538 C541 1.311 . S
C539 N538 1.355 . S
C539 C540 1.363 . S
C539 H551 0.929 . S
C540 C539 1.363 . S
C540 N542 1.375 . S
C540 H558 0.931 . S
C541 N538 1.311 . S
C541 N542 1.347 . S
C541 H552 0.929 . S
N542 C540 1.375 . S
N542 C541 1.347 . S
C543 C546 1.365 . S
C543 N548 1.328 . S
C543 H549 0.929 . S
C544 C545 1.362 . S
C544 C547 1.378 . S
C544 H559 0.929 . S
C545 C544 1.362 . S
C545 C546 1.366 . S
C546 C543 1.365 . S
C546 C545 1.366 . S
C546 H560 0.930 . S
C547 C544 1.378 . S
C547 N548 1.315 . S
C547 H550 0.930 . S
N548 Co528 2.194 . S
N548 C543 1.328 . S
N548 C547 1.315 . S
H549 C543 0.929 . S
H550 C547 0.930 . S
H551 C539 0.929 . S
H552 C541 0.929 . S
O553 Co528 2.351 . S
O553 C556 1.244 . S
O554 Co528 2.155 . S
O554 C556 1.240 . S
O555 Co528 2.096 . S
O555 C536 1.247 . S
C556 O553 1.244 . S
C556 O554 1.240 . S
H557 C531 0.931 . S
H558 C540 0.931 . S
H559 C544 0.929 . S
H560 C546 0.930 . S
Co561 N565 2.148 . S
Co561 N571 2.128 . S
Co561 N581 2.194 . S
Co561 O586 2.351 . S
Co561 O587 2.155 . S
Co561 O588 2.096 . S
C562 N565 1.301 . S
C562 N566 1.328 . S
C562 H567 0.930 . S
C563 C564 1.333 . S
C563 N565 1.317 . S
C563 H568 0.930 . S
C564 C563 1.333 . S
C564 N566 1.350 . S
C564 H590 0.931 . S
N565 Co561 2.148 . S
N565 C562 1.301 . S
N565 C563 1.317 . S
N566 C562 1.328 . S
N566 C564 1.350 . S
H567 C562 0.930 . S
H568 C563 0.930 . S
C569 O570 1.224 . S
C569 O588 1.247 . S
O570 C569 1.224 . S
N571 Co561 2.128 . S
N571 C572 1.355 . S
N571 C574 1.311 . S
C572 N571 1.355 . S
C572 C573 1.363 . S
C572 H584 0.929 . S
C573 C572 1.363 . S
C573 N575 1.375 . S
C573 H591 0.931 . S
C574 N571 1.311 . S
C574 N575 1.347 . S
C574 H585 0.929 . S
N575 C573 1.375 . S
N575 C574 1.347 . S
C576 C579 1.365 . S
C576 N581 1.328 . S
C576 H582 0.929 . S
C577 C578 1.362 . S
C577 C580 1.378 . S
C577 H592 0.929 . S
C578 C577 1.362 . S
C578 C579 1.366 . S
C579 C576 1.365 . S
C579 C578 1.366 . S
C579 H593 0.930 . S
C580 C577 1.378 . S
C580 N581 1.315 . S
C580 H583 0.930 . S
N581 Co561 2.194 . S
N581 C576 1.328 . S
N581 C580 1.315 . S
H582 C576 0.929 . S
H583 C580 0.930 . S
H584 C572 0.929 . S
H585 C574 0.929 . S
O586 Co561 2.351 . S
O586 C589 1.244 . S
O587 Co561 2.155 . S
O587 C589 1.240 . S
O588 Co561 2.096 . S
O588 C569 1.247 . S
C589 O586 1.244 . S
C589 O587 1.240 . S
H590 C564 0.931 . S
H591 C573 0.931 . S
H592 C577 0.929 . S
H593 C579 0.930 . S
Co594 N598 2.148 . S
Co594 N604 2.128 . S
Co594 N614 2.194 . S
Co594 O619 2.351 . S
Co594 O620 2.155 . S
Co594 O621 2.096 . S
C595 N598 1.301 . S
C595 N599 1.328 . S
C595 H600 0.930 . S
C596 C597 1.333 . S
C596 N598 1.317 . S
C596 H601 0.930 . S
C597 C596 1.333 . S
C597 N599 1.350 . S
C597 H623 0.931 . S
N598 Co594 2.148 . S
N598 C595 1.301 . S
N598 C596 1.317 . S
N599 C595 1.328 . S
N599 C597 1.350 . S
H600 C595 0.930 . S
H601 C596 0.930 . S
C602 O603 1.224 . S
C602 O621 1.247 . S
O603 C602 1.224 . S
N604 Co594 2.128 . S
N604 C605 1.355 . S
N604 C607 1.311 . S
C605 N604 1.355 . S
C605 C606 1.363 . S
C605 H617 0.929 . S
C606 C605 1.363 . S
C606 N608 1.375 . S
C606 H624 0.931 . S
C607 N604 1.311 . S
C607 N608 1.347 . S
C607 H618 0.929 . S
N608 C606 1.375 . S
N608 C607 1.347 . S
C609 C612 1.365 . S
C609 N614 1.328 . S
C609 H615 0.929 . S
C610 C611 1.362 . S
C610 C613 1.378 . S
C610 H625 0.929 . S
C611 C610 1.362 . S
C611 C612 1.366 . S
C612 C609 1.365 . S
C612 C611 1.366 . S
C612 H626 0.930 . S
C613 C610 1.378 . S
C613 N614 1.315 . S
C613 H616 0.930 . S
N614 Co594 2.194 . S
N614 C609 1.328 . S
N614 C613 1.315 . S
H615 C609 0.929 . S
H616 C613 0.930 . S
H617 C605 0.929 . S
H618 C607 0.929 . S
O619 Co594 2.351 . S
O619 C622 1.244 . S
O620 Co594 2.155 . S
O620 C622 1.240 . S
O621 Co594 2.096 . S
O621 C602 1.247 . S
C622 O619 1.244 . S
C622 O620 1.240 . S
H623 C597 0.931 . S
H624 C606 0.931 . S
H625 C610 0.929 . S
H626 C612 0.930 . S
Co627 N631 2.148 . S
Co627 N637 2.128 . S
Co627 N647 2.194 . S
Co627 O652 2.351 . S
Co627 O653 2.155 . S
Co627 O654 2.096 . S
C628 N631 1.301 . S
C628 N632 1.328 . S
C628 H633 0.930 . S
C629 C630 1.333 . S
C629 N631 1.317 . S
C629 H634 0.930 . S
C630 C629 1.333 . S
C630 N632 1.350 . S
C630 H656 0.931 . S
N631 Co627 2.148 . S
N631 C628 1.301 . S
N631 C629 1.317 . S
N632 C628 1.328 . S
N632 C630 1.350 . S
H633 C628 0.930 . S
H634 C629 0.930 . S
C635 O636 1.224 . S
C635 O654 1.247 . S
O636 C635 1.224 . S
N637 Co627 2.128 . S
N637 C638 1.355 . S
N637 C640 1.311 . S
C638 N637 1.355 . S
C638 C639 1.363 . S
C638 H650 0.929 . S
C639 C638 1.363 . S
C639 N641 1.375 . S
C639 H657 0.931 . S
C640 N637 1.311 . S
C640 N641 1.347 . S
C640 H651 0.929 . S
N641 C639 1.375 . S
N641 C640 1.347 . S
C642 C645 1.365 . S
C642 N647 1.328 . S
C642 H648 0.929 . S
C643 C644 1.362 . S
C643 C646 1.378 . S
C643 H658 0.929 . S
C644 C643 1.362 . S
C644 C645 1.366 . S
C645 C642 1.365 . S
C645 C644 1.366 . S
C645 H659 0.930 . S
C646 C643 1.378 . S
C646 N647 1.315 . S
C646 H649 0.930 . S
N647 Co627 2.194 . S
N647 C642 1.328 . S
N647 C646 1.315 . S
H648 C642 0.929 . S
H649 C646 0.930 . S
H650 C638 0.929 . S
H651 C640 0.929 . S
O652 Co627 2.351 . S
O652 C655 1.244 . S
O653 Co627 2.155 . S
O653 C655 1.240 . S
O654 Co627 2.096 . S
O654 C635 1.247 . S
C655 O652 1.244 . S
C655 O653 1.240 . S
H656 C630 0.931 . S
H657 C639 0.931 . S
H658 C643 0.929 . S
H659 C645 0.930 . S
Co660 N664 2.148 . S
Co660 N670 2.128 . S
Co660 N680 2.194 . S
Co660 O685 2.351 . S
Co660 O686 2.155 . S
Co660 O687 2.096 . S
C661 N664 1.301 . S
C661 N665 1.328 . S
C661 H666 0.930 . S
C662 C663 1.333 . S
C662 N664 1.317 . S
C662 H667 0.930 . S
C663 C662 1.333 . S
C663 N665 1.350 . S
C663 H689 0.931 . S
N664 Co660 2.148 . S
N664 C661 1.301 . S
N664 C662 1.317 . S
N665 C661 1.328 . S
N665 C663 1.350 . S
H666 C661 0.930 . S
H667 C662 0.930 . S
C668 O669 1.224 . S
C668 O687 1.247 . S
O669 C668 1.224 . S
N670 Co660 2.128 . S
N670 C671 1.355 . S
N670 C673 1.311 . S
C671 N670 1.355 . S
C671 C672 1.363 . S
C671 H683 0.929 . S
C672 C671 1.363 . S
C672 N674 1.375 . S
C672 H690 0.931 . S
C673 N670 1.311 . S
C673 N674 1.347 . S
C673 H684 0.929 . S
N674 C672 1.375 . S
N674 C673 1.347 . S
C675 C678 1.365 . S
C675 N680 1.328 . S
C675 H681 0.929 . S
C676 C677 1.362 . S
C676 C679 1.378 . S
C676 H691 0.929 . S
C677 C676 1.362 . S
C677 C678 1.366 . S
C678 C675 1.365 . S
C678 C677 1.366 . S
C678 H692 0.930 . S
C679 C676 1.378 . S
C679 N680 1.315 . S
C679 H682 0.930 . S
N680 Co660 2.194 . S
N680 C675 1.328 . S
N680 C679 1.315 . S
H681 C675 0.929 . S
H682 C679 0.930 . S
H683 C671 0.929 . S
H684 C673 0.929 . S
O685 Co660 2.351 . S
O685 C688 1.244 . S
O686 Co660 2.155 . S
O686 C688 1.240 . S
O687 Co660 2.096 . S
O687 C668 1.247 . S
C688 O685 1.244 . S
C688 O686 1.240 . S
H689 C663 0.931 . S
H690 C672 0.931 . S
H691 C676 0.929 . S
H692 C678 0.930 . S
Co693 N697 2.148 . S
Co693 N703 2.128 . S
Co693 N713 2.194 . S
Co693 O718 2.351 . S
Co693 O719 2.155 . S
Co693 O720 2.096 . S
C694 N697 1.301 . S
C694 N698 1.328 . S
C694 H699 0.930 . S
C695 C696 1.333 . S
C695 N697 1.317 . S
C695 H700 0.930 . S
C696 C695 1.333 . S
C696 N698 1.350 . S
C696 H722 0.931 . S
N697 Co693 2.148 . S
N697 C694 1.301 . S
N697 C695 1.317 . S
N698 C694 1.328 . S
N698 C696 1.350 . S
H699 C694 0.930 . S
H700 C695 0.930 . S
C701 O702 1.224 . S
C701 O720 1.247 . S
O702 C701 1.224 . S
N703 Co693 2.128 . S
N703 C704 1.355 . S
N703 C706 1.311 . S
C704 N703 1.355 . S
C704 C705 1.363 . S
C704 H716 0.929 . S
C705 C704 1.363 . S
C705 N707 1.375 . S
C705 H723 0.931 . S
C706 N703 1.311 . S
C706 N707 1.347 . S
C706 H717 0.929 . S
N707 C705 1.375 . S
N707 C706 1.347 . S
C708 C711 1.365 . S
C708 N713 1.328 . S
C708 H714 0.929 . S
C709 C710 1.362 . S
C709 C712 1.378 . S
C709 H724 0.929 . S
C710 C709 1.362 . S
C710 C711 1.366 . S
C711 C708 1.365 . S
C711 C710 1.366 . S
C711 H725 0.930 . S
C712 C709 1.378 . S
C712 N713 1.315 . S
C712 H715 0.930 . S
N713 Co693 2.194 . S
N713 C708 1.328 . S
N713 C712 1.315 . S
H714 C708 0.929 . S
H715 C712 0.930 . S
H716 C704 0.929 . S
H717 C706 0.929 . S
O718 Co693 2.351 . S
O718 C721 1.244 . S
O719 Co693 2.155 . S
O719 C721 1.240 . S
O720 Co693 2.096 . S
O720 C701 1.247 . S
C721 O718 1.244 . S
C721 O719 1.240 . S
H722 C696 0.931 . S
H723 C705 0.931 . S
H724 C709 0.929 . S
H725 C711 0.930 . S
Co726 N730 2.148 . S
Co726 N736 2.128 . S
Co726 N746 2.194 . S
Co726 O751 2.351 . S
Co726 O752 2.155 . S
Co726 O753 2.096 . S
C727 N730 1.301 . S
C727 N731 1.328 . S
C727 H732 0.930 . S
C728 C729 1.333 . S
C728 N730 1.317 . S
C728 H733 0.930 . S
C729 C728 1.333 . S
C729 N731 1.350 . S
C729 H755 0.931 . S
N730 Co726 2.148 . S
N730 C727 1.301 . S
N730 C728 1.317 . S
N731 C727 1.328 . S
N731 C729 1.350 . S
H732 C727 0.930 . S
H733 C728 0.930 . S
C734 O735 1.224 . S
C734 O753 1.247 . S
O735 C734 1.224 . S
N736 Co726 2.128 . S
N736 C737 1.355 . S
N736 C739 1.311 . S
C737 N736 1.355 . S
C737 C738 1.363 . S
C737 H749 0.929 . S
C738 C737 1.363 . S
C738 N740 1.375 . S
C738 H756 0.931 . S
C739 N736 1.311 . S
C739 N740 1.347 . S
C739 H750 0.929 . S
N740 C738 1.375 . S
N740 C739 1.347 . S
C741 C744 1.365 . S
C741 N746 1.328 . S
C741 H747 0.929 . S
C742 C743 1.362 . S
C742 C745 1.378 . S
C742 H757 0.929 . S
C743 C742 1.362 . S
C743 C744 1.366 . S
C744 C741 1.365 . S
C744 C743 1.366 . S
C744 H758 0.930 . S
C745 C742 1.378 . S
C745 N746 1.315 . S
C745 H748 0.930 . S
N746 Co726 2.194 . S
N746 C741 1.328 . S
N746 C745 1.315 . S
H747 C741 0.929 . S
H748 C745 0.930 . S
H749 C737 0.929 . S
H750 C739 0.929 . S
O751 Co726 2.351 . S
O751 C754 1.244 . S
O752 Co726 2.155 . S
O752 C754 1.240 . S
O753 Co726 2.096 . S
O753 C734 1.247 . S
C754 O751 1.244 . S
C754 O752 1.240 . S
H755 C729 0.931 . S
H756 C738 0.931 . S
H757 C742 0.929 . S
H758 C744 0.930 . S
Co759 N763 2.148 . S
Co759 N769 2.128 . S
Co759 N779 2.194 . S
Co759 O784 2.351 . S
Co759 O785 2.155 . S
Co759 O786 2.096 . S
C760 N763 1.301 . S
C760 N764 1.328 . S
C760 H765 0.930 . S
C761 C762 1.333 . S
C761 N763 1.317 . S
C761 H766 0.930 . S
C762 C761 1.333 . S
C762 N764 1.350 . S
C762 H788 0.931 . S
N763 Co759 2.148 . S
N763 C760 1.301 . S
N763 C761 1.317 . S
N764 C760 1.328 . S
N764 C762 1.350 . S
H765 C760 0.930 . S
H766 C761 0.930 . S
C767 O768 1.224 . S
C767 O786 1.247 . S
O768 C767 1.224 . S
N769 Co759 2.128 . S
N769 C770 1.355 . S
N769 C772 1.311 . S
C770 N769 1.355 . S
C770 C771 1.363 . S
C770 H782 0.929 . S
C771 C770 1.363 . S
C771 N773 1.375 . S
C771 H789 0.931 . S
C772 N769 1.311 . S
C772 N773 1.347 . S
C772 H783 0.929 . S
N773 C771 1.375 . S
N773 C772 1.347 . S
C774 C777 1.365 . S
C774 N779 1.328 . S
C774 H780 0.929 . S
C775 C776 1.362 . S
C775 C778 1.378 . S
C775 H790 0.929 . S
C776 C775 1.362 . S
C776 C777 1.366 . S
C777 C774 1.365 . S
C777 C776 1.366 . S
C777 H791 0.930 . S
C778 C775 1.378 . S
C778 N779 1.315 . S
C778 H781 0.930 . S
N779 Co759 2.194 . S
N779 C774 1.328 . S
N779 C778 1.315 . S
H780 C774 0.929 . S
H781 C778 0.930 . S
H782 C770 0.929 . S
H783 C772 0.929 . S
O784 Co759 2.351 . S
O784 C787 1.244 . S
O785 Co759 2.155 . S
O785 C787 1.240 . S
O786 Co759 2.096 . S
O786 C767 1.247 . S
C787 O784 1.244 . S
C787 O785 1.240 . S
H788 C762 0.931 . S
H789 C771 0.931 . S
H790 C775 0.929 . S
H791 C777 0.930 . S
H792 C798 0.930 . S
H793 C802 0.930 . S
H794 C807 0.929 . S
H795 C805 0.929 . S
H796 C800 0.929 . S
H797 C806 0.929 . S
C798 H792 0.930 . S
C798 C799 1.367 . S
C798 C806 1.378 . S
C799 C798 1.367 . S
C799 C807 1.433 . S
C800 H796 0.929 . S
C800 C802 1.378 . S
C800 C804 1.350 . S
C801 C804 1.463 . S
C801 C806 1.350 . S
C801 N809 1.427 . S
C802 H793 0.930 . S
C802 C800 1.378 . S
C802 C803 1.367 . S
C803 C802 1.367 . S
C803 C805 1.433 . S
C804 C800 1.350 . S
C804 C801 1.463 . S
C804 N808 1.427 . S
C805 H795 0.929 . S
C805 C803 1.433 . S
C805 N808 1.384 . S
C806 H797 0.929 . S
C806 C798 1.378 . S
C806 C801 1.350 . S
C807 H794 0.929 . S
C807 C799 1.433 . S
C807 N809 1.384 . S
N808 C804 1.427 . S
N808 C805 1.384 . S
N809 C801 1.427 . S
N809 C807 1.384 . S
H810 C816 0.930 . S
H811 C820 0.930 . S
H812 C825 0.929 . S
H813 C823 0.929 . S
H814 C818 0.929 . S
H815 C824 0.929 . S
C816 H810 0.930 . S
C816 C817 1.367 . S
C816 C824 1.378 . S
C817 C816 1.367 . S
C817 C825 1.433 . S
C818 H814 0.929 . S
C818 C820 1.378 . S
C818 C822 1.350 . S
C819 C822 1.463 . S
C819 C824 1.350 . S
C819 N827 1.427 . S
C820 H811 0.930 . S
C820 C818 1.378 . S
C820 C821 1.367 . S
C821 C820 1.367 . S
C821 C823 1.433 . S
C822 C818 1.350 . S
C822 C819 1.463 . S
C822 N826 1.427 . S
C823 H813 0.929 . S
C823 C821 1.433 . S
C823 N826 1.384 . S
C824 H815 0.929 . S
C824 C816 1.378 . S
C824 C819 1.350 . S
C825 H812 0.929 . S
C825 C817 1.433 . S
C825 N827 1.384 . S
N826 C822 1.427 . S
N826 C823 1.384 . S
N827 C819 1.427 . S
N827 C825 1.384 . S
H828 C834 0.930 . S
H829 C838 0.930 . S
H830 C843 0.929 . S
H831 C841 0.929 . S
H832 C836 0.929 . S
H833 C842 0.929 . S
C834 H828 0.930 . S
C834 C835 1.367 . S
C834 C842 1.378 . S
C835 C834 1.367 . S
C835 C843 1.433 . S
C836 H832 0.929 . S
C836 C838 1.378 . S
C836 C840 1.350 . S
C837 C840 1.463 . S
C837 C842 1.350 . S
C837 N845 1.427 . S
C838 H829 0.930 . S
C838 C836 1.378 . S
C838 C839 1.367 . S
C839 C838 1.367 . S
C839 C841 1.433 . S
C840 C836 1.350 . S
C840 C837 1.463 . S
C840 N844 1.427 . S
C841 H831 0.929 . S
C841 C839 1.433 . S
C841 N844 1.384 . S
C842 H833 0.929 . S
C842 C834 1.378 . S
C842 C837 1.350 . S
C843 H830 0.929 . S
C843 C835 1.433 . S
C843 N845 1.384 . S
N844 C840 1.427 . S
N844 C841 1.384 . S
N845 C837 1.427 . S
N845 C843 1.384 . S
H846 C852 0.930 . S
H847 C856 0.930 . S
H848 C861 0.929 . S
H849 C859 0.929 . S
H850 C854 0.929 . S
H851 C860 0.929 . S
C852 H846 0.930 . S
C852 C853 1.367 . S
C852 C860 1.378 . S
C853 C852 1.367 . S
C853 C861 1.433 . S
C854 H850 0.929 . S
C854 C856 1.378 . S
C854 C858 1.350 . S
C855 C858 1.463 . S
C855 C860 1.350 . S
C855 N863 1.427 . S
C856 H847 0.930 . S
C856 C854 1.378 . S
C856 C857 1.367 . S
C857 C856 1.367 . S
C857 C859 1.433 . S
C858 C854 1.350 . S
C858 C855 1.463 . S
C858 N862 1.427 . S
C859 H849 0.929 . S
C859 C857 1.433 . S
C859 N862 1.384 . S
C860 H851 0.929 . S
C860 C852 1.378 . S
C860 C855 1.350 . S
C861 H848 0.929 . S
C861 C853 1.433 . S
C861 N863 1.384 . S
N862 C858 1.427 . S
N862 C859 1.384 . S
N863 C855 1.427 . S
N863 C861 1.384 . S
H864 C870 0.930 . S
H865 C874 0.930 . S
H866 C879 0.929 . S
H867 C877 0.929 . S
H868 C872 0.929 . S
H869 C878 0.929 . S
C870 H864 0.930 . S
C870 C871 1.367 . S
C870 C878 1.378 . S
C871 C870 1.367 . S
C871 C879 1.433 . S
C872 H868 0.929 . S
C872 C874 1.378 . S
C872 C876 1.350 . S
C873 C876 1.463 . S
C873 C878 1.350 . S
C873 N881 1.427 . S
C874 H865 0.930 . S
C874 C872 1.378 . S
C874 C875 1.367 . S
C875 C874 1.367 . S
C875 C877 1.433 . S
C876 C872 1.350 . S
C876 C873 1.463 . S
C876 N880 1.427 . S
C877 H867 0.929 . S
C877 C875 1.433 . S
C877 N880 1.384 . S
C878 H869 0.929 . S
C878 C870 1.378 . S
C878 C873 1.350 . S
C879 H866 0.929 . S
C879 C871 1.433 . S
C879 N881 1.384 . S
N880 C876 1.427 . S
N880 C877 1.384 . S
N881 C873 1.427 . S
N881 C879 1.384 . S
H882 C888 0.930 . S
H883 C892 0.930 . S
H884 C897 0.929 . S
H885 C895 0.929 . S
H886 C890 0.929 . S
H887 C896 0.929 . S
C888 H882 0.930 . S
C888 C889 1.367 . S
C888 C896 1.378 . S
C889 C888 1.367 . S
C889 C897 1.433 . S
C890 H886 0.929 . S
C890 C892 1.378 . S
C890 C894 1.350 . S
C891 C894 1.463 . S
C891 C896 1.350 . S
C891 N899 1.427 . S
C892 H883 0.930 . S
C892 C890 1.378 . S
C892 C893 1.367 . S
C893 C892 1.367 . S
C893 C895 1.433 . S
C894 C890 1.350 . S
C894 C891 1.463 . S
C894 N898 1.427 . S
C895 H885 0.929 . S
C895 C893 1.433 . S
C895 N898 1.384 . S
C896 H887 0.929 . S
C896 C888 1.378 . S
C896 C891 1.350 . S
C897 H884 0.929 . S
C897 C889 1.433 . S
C897 N899 1.384 . S
N898 C894 1.427 . S
N898 C895 1.384 . S
N899 C891 1.427 . S
N899 C897 1.384 . S
H900 C906 0.930 . S
H901 C910 0.930 . S
H902 C915 0.929 . S
H903 C913 0.929 . S
H904 C908 0.929 . S
H905 C914 0.929 . S
C906 H900 0.930 . S
C906 C907 1.367 . S
C906 C914 1.378 . S
C907 C906 1.367 . S
C907 C915 1.433 . S
C908 H904 0.929 . S
C908 C910 1.378 . S
C908 C912 1.350 . S
C909 C912 1.463 . S
C909 C914 1.350 . S
C909 N917 1.427 . S
C910 H901 0.930 . S
C910 C908 1.378 . S
C910 C911 1.367 . S
C911 C910 1.367 . S
C911 C913 1.433 . S
C912 C908 1.350 . S
C912 C909 1.463 . S
C912 N916 1.427 . S
C913 H903 0.929 . S
C913 C911 1.433 . S
C913 N916 1.384 . S
C914 H905 0.929 . S
C914 C906 1.378 . S
C914 C909 1.350 . S
C915 H902 0.929 . S
C915 C907 1.433 . S
C915 N917 1.384 . S
N916 C912 1.427 . S
N916 C913 1.384 . S
N917 C909 1.427 . S
N917 C915 1.384 . S
H918 C924 0.930 . S
H919 C928 0.930 . S
H920 C933 0.929 . S
H921 C931 0.929 . S
H922 C926 0.929 . S
H923 C932 0.929 . S
C924 H918 0.930 . S
C924 C925 1.367 . S
C924 C932 1.378 . S
C925 C924 1.367 . S
C925 C933 1.433 . S
C926 H922 0.929 . S
C926 C928 1.378 . S
C926 C930 1.350 . S
C927 C930 1.463 . S
C927 C932 1.350 . S
C927 N935 1.427 . S
C928 H919 0.930 . S
C928 C926 1.378 . S
C928 C929 1.367 . S
C929 C928 1.367 . S
C929 C931 1.433 . S
C930 C926 1.350 . S
C930 C927 1.463 . S
C930 N934 1.427 . S
C931 H921 0.929 . S
C931 C929 1.433 . S
C931 N934 1.384 . S
C932 H923 0.929 . S
C932 C924 1.378 . S
C932 C927 1.350 . S
C933 H920 0.929 . S
C933 C925 1.433 . S
C933 N935 1.384 . S
N934 C930 1.427 . S
N934 C931 1.384 . S
N935 C927 1.427 . S
N935 C933 1.384 . S
H936 C942 0.930 . S
H937 C946 0.930 . S
H938 C951 0.929 . S
H939 C949 0.929 . S
H940 C944 0.929 . S
H941 C950 0.929 . S
C942 H936 0.930 . S
C942 C943 1.367 . S
C942 C950 1.378 . S
C943 C942 1.367 . S
C943 C951 1.433 . S
C944 H940 0.929 . S
C944 C946 1.378 . S
C944 C948 1.350 . S
C945 C948 1.463 . S
C945 C950 1.350 . S
C945 N953 1.427 . S
C946 H937 0.930 . S
C946 C944 1.378 . S
C946 C947 1.367 . S
C947 C946 1.367 . S
C947 C949 1.433 . S
C948 C944 1.350 . S
C948 C945 1.463 . S
C948 N952 1.427 . S
C949 H939 0.929 . S
C949 C947 1.433 . S
C949 N952 1.384 . S
C950 H941 0.929 . S
C950 C942 1.378 . S
C950 C945 1.350 . S
C951 H938 0.929 . S
C951 C943 1.433 . S
C951 N953 1.384 . S
N952 C948 1.427 . S
N952 C949 1.384 . S
N953 C945 1.427 . S
N953 C951 1.384 . S
H954 C960 0.930 . S
H955 C964 0.930 . S
H956 C969 0.929 . S
H957 C967 0.929 . S
H958 C962 0.929 . S
H959 C968 0.929 . S
C960 H954 0.930 . S
C960 C961 1.367 . S
C960 C968 1.378 . S
C961 C960 1.367 . S
C961 C969 1.433 . S
C962 H958 0.929 . S
C962 C964 1.378 . S
C962 C966 1.350 . S
C963 C966 1.463 . S
C963 C968 1.350 . S
C963 N971 1.427 . S
C964 H955 0.930 . S
C964 C962 1.378 . S
C964 C965 1.367 . S
C965 C964 1.367 . S
C965 C967 1.433 . S
C966 C962 1.350 . S
C966 C963 1.463 . S
C966 N970 1.427 . S
C967 H957 0.929 . S
C967 C965 1.433 . S
C967 N970 1.384 . S
C968 H959 0.929 . S
C968 C960 1.378 . S
C968 C963 1.350 . S
C969 H956 0.929 . S
C969 C961 1.433 . S
C969 N971 1.384 . S
N970 C966 1.427 . S
N970 C967 1.384 . S
N971 C963 1.427 . S
N971 C969 1.384 . S
H972 C978 0.930 . S
H973 C982 0.930 . S
H974 C987 0.929 . S
H975 C985 0.929 . S
H976 C980 0.929 . S
H977 C986 0.929 . S
C978 H972 0.930 . S
C978 C979 1.367 . S
C978 C986 1.378 . S
C979 C978 1.367 . S
C979 C987 1.433 . S
C980 H976 0.929 . S
C980 C982 1.378 . S
C980 C984 1.350 . S
C981 C984 1.463 . S
C981 C986 1.350 . S
C981 N989 1.427 . S
C982 H973 0.930 . S
C982 C980 1.378 . S
C982 C983 1.367 . S
C983 C982 1.367 . S
C983 C985 1.433 . S
C984 C980 1.350 . S
C984 C981 1.463 . S
C984 N988 1.427 . S
C985 H975 0.929 . S
C985 C983 1.433 . S
C985 N988 1.384 . S
C986 H977 0.929 . S
C986 C978 1.378 . S
C986 C981 1.350 . S
C987 H974 0.929 . S
C987 C979 1.433 . S
C987 N989 1.384 . S
N988 C984 1.427 . S
N988 C985 1.384 . S
N989 C981 1.427 . S
N989 C987 1.384 . S
H990 C996 0.930 . S
H991 C1000 0.930 . S
H992 C1005 0.929 . S
H993 C1003 0.929 . S
H994 C998 0.929 . S
H995 C1004 0.929 . S
C996 H990 0.930 . S
C996 C997 1.367 . S
C996 C1004 1.378 . S
C997 C996 1.367 . S
C997 C1005 1.433 . S
C998 H994 0.929 . S
C998 C1000 1.378 . S
C998 C1002 1.350 . S
C999 C1002 1.463 . S
C999 C1004 1.350 . S
C999 N1007 1.427 . S
C1000 H991 0.930 . S
C1000 C998 1.378 . S
C1000 C1001 1.367 . S
C1001 C1000 1.367 . S
C1001 C1003 1.433 . S
C1002 C998 1.350 . S
C1002 C999 1.463 . S
C1002 N1006 1.427 . S
C1003 H993 0.929 . S
C1003 C1001 1.433 . S
C1003 N1006 1.384 . S
C1004 H995 0.929 . S
C1004 C996 1.378 . S
C1004 C999 1.350 . S
C1005 H992 0.929 . S
C1005 C997 1.433 . S
C1005 N1007 1.384 . S
N1006 C1002 1.427 . S
N1006 C1003 1.384 . S
N1007 C999 1.427 . S
N1007 C1005 1.384 . S
H1008 C1014 0.930 . S
H1009 C1018 0.930 . S
H1010 C1023 0.929 . S
H1011 C1021 0.929 . S
H1012 C1016 0.929 . S
H1013 C1022 0.929 . S
C1014 H1008 0.930 . S
C1014 C1015 1.367 . S
C1014 C1022 1.378 . S
C1015 C1014 1.367 . S
C1015 C1023 1.433 . S
C1016 H1012 0.929 . S
C1016 C1018 1.378 . S
C1016 C1020 1.350 . S
C1017 C1020 1.463 . S
C1017 C1022 1.350 1_545 S
C1017 N1025 1.427 1_545 S
C1018 H1009 0.930 . S
C1018 C1016 1.378 . S
C1018 C1019 1.367 . S
C1019 C1018 1.367 . S
C1019 C1021 1.433 . S
C1020 C1016 1.350 . S
C1020 C1017 1.463 . S
C1020 N1024 1.427 . S
C1021 H1011 0.929 . S
C1021 C1019 1.433 . S
C1021 N1024 1.384 . S
C1022 H1013 0.929 . S
C1022 C1014 1.378 . S
C1022 C1017 1.350 1_565 S
C1023 H1010 0.929 . S
C1023 C1015 1.433 . S
C1023 N1025 1.384 . S
N1024 C1020 1.427 . S
N1024 C1021 1.384 . S
N1025 C1017 1.427 1_565 S
N1025 C1023 1.384 . S
H1026 C1032 0.930 . S
H1027 C1036 0.930 . S
H1028 C1041 0.929 . S
H1029 C1039 0.929 . S
H1030 C1034 0.929 1_655 S
H1031 C1040 0.929 . S
C1032 H1026 0.930 . S
C1032 C1033 1.367 . S
C1032 C1040 1.378 . S
C1033 C1032 1.367 . S
C1033 C1041 1.433 . S
C1034 H1030 0.929 1_455 S
C1034 C1036 1.378 . S
C1034 C1038 1.350 1_455 S
C1035 C1038 1.463 . S
C1035 C1040 1.350 . S
C1035 N1043 1.427 . S
C1036 H1027 0.930 . S
C1036 C1034 1.378 . S
C1036 C1037 1.367 . S
C1037 C1036 1.367 . S
C1037 C1039 1.433 . S
C1038 C1034 1.350 1_655 S
C1038 C1035 1.463 . S
C1038 N1042 1.427 1_655 S
C1039 H1029 0.929 . S
C1039 C1037 1.433 . S
C1039 N1042 1.384 . S
C1040 H1031 0.929 . S
C1040 C1032 1.378 . S
C1040 C1035 1.350 . S
C1041 H1028 0.929 . S
C1041 C1033 1.433 . S
C1041 N1043 1.384 . S
N1042 C1038 1.427 1_455 S
N1042 C1039 1.384 . S
N1043 C1035 1.427 . S
N1043 C1041 1.384 . S
H1044 C1050 0.930 . S
H1045 C1054 0.930 . S
H1046 C1059 0.929 . S
H1047 C1057 0.929 . S
H1048 C1052 0.929 . S
H1049 C1058 0.929 . S
C1050 H1044 0.930 . S
C1050 C1051 1.367 . S
C1050 C1058 1.378 . S
C1051 C1050 1.367 . S
C1051 C1059 1.433 . S
C1052 H1048 0.929 . S
C1052 C1054 1.378 . S
C1052 C1056 1.350 1_545 S
C1053 C1056 1.463 . S
C1053 C1058 1.350 . S
C1053 N1061 1.427 . S
C1054 H1045 0.930 . S
C1054 C1052 1.378 . S
C1054 C1055 1.367 . S
C1055 C1054 1.367 . S
C1055 C1057 1.433 . S
C1056 C1052 1.350 1_565 S
C1056 C1053 1.463 . S
C1056 N1060 1.427 1_565 S
C1057 H1047 0.929 . S
C1057 C1055 1.433 . S
C1057 N1060 1.384 . S
C1058 H1049 0.929 . S
C1058 C1050 1.378 . S
C1058 C1053 1.350 . S
C1059 H1046 0.929 . S
C1059 C1051 1.433 . S
C1059 N1061 1.384 . S
N1060 C1056 1.427 1_545 S
N1060 C1057 1.384 . S
N1061 C1053 1.427 . S
N1061 C1059 1.384 . S
H1062 C1068 0.930 . S
H1063 C1072 0.930 . S
H1064 C1077 0.929 . S
H1065 C1075 0.929 . S
H1066 C1070 0.929 . S
H1067 C1076 0.929 1_455 S
C1068 H1062 0.930 . S
C1068 C1069 1.367 . S
C1068 C1076 1.378 . S
C1069 C1068 1.367 . S
C1069 C1077 1.433 . S
C1070 H1066 0.929 . S
C1070 C1072 1.378 . S
C1070 C1074 1.350 . S
C1071 C1074 1.463 . S
C1071 C1076 1.350 1_455 S
C1071 N1079 1.427 1_455 S
C1072 H1063 0.930 . S
C1072 C1070 1.378 . S
C1072 C1073 1.367 . S
C1073 C1072 1.367 . S
C1073 C1075 1.433 . S
C1074 C1070 1.350 . S
C1074 C1071 1.463 . S
C1074 N1078 1.427 . S
C1075 H1065 0.929 . S
C1075 C1073 1.433 . S
C1075 N1078 1.384 . S
C1076 H1067 0.929 1_655 S
C1076 C1068 1.378 . S
C1076 C1071 1.350 1_655 S
C1077 H1064 0.929 . S
C1077 C1069 1.433 . S
C1077 N1079 1.384 . S
N1078 C1074 1.427 . S
N1078 C1075 1.384 . S
N1079 C1071 1.427 1_655 S
N1079 C1077 1.384 . S
H1080 C1086 0.930 . S
H1081 C1090 0.930 . S
H1082 C1095 0.929 . S
H1083 C1093 0.929 . S
H1084 C1088 0.929 . S
H1085 C1094 0.929 . S
C1086 H1080 0.930 . S
C1086 C1087 1.367 . S
C1086 C1094 1.378 . S
C1087 C1086 1.367 . S
C1087 C1095 1.433 . S
C1088 H1084 0.929 . S
C1088 C1090 1.378 . S
C1088 C1092 1.350 . S
C1089 C1092 1.463 . S
C1089 C1094 1.350 1_565 S
C1089 N1097 1.427 1_565 S
C1090 H1081 0.930 . S
C1090 C1088 1.378 . S
C1090 C1091 1.367 . S
C1091 C1090 1.367 . S
C1091 C1093 1.433 . S
C1092 C1088 1.350 . S
C1092 C1089 1.463 . S
C1092 N1096 1.427 . S
C1093 H1083 0.929 . S
C1093 C1091 1.433 . S
C1093 N1096 1.384 . S
C1094 H1085 0.929 . S
C1094 C1086 1.378 . S
C1094 C1089 1.350 1_545 S
C1095 H1082 0.929 . S
C1095 C1087 1.433 . S
C1095 N1097 1.384 . S
N1096 C1092 1.427 . S
N1096 C1093 1.384 . S
N1097 C1089 1.427 1_545 S
N1097 C1095 1.384 . S
H1098 C1104 0.930 . S
H1099 C1108 0.930 . S
H1100 C1113 0.929 . S
H1101 C1111 0.929 . S
H1102 C1106 0.929 1_455 S
H1103 C1112 0.929 . S
C1104 H1098 0.930 . S
C1104 C1105 1.367 . S
C1104 C1112 1.378 . S
C1105 C1104 1.367 . S
C1105 C1113 1.433 . S
C1106 H1102 0.929 1_655 S
C1106 C1108 1.378 . S
C1106 C1110 1.350 1_655 S
C1107 C1110 1.463 . S
C1107 C1112 1.350 . S
C1107 N1115 1.427 . S
C1108 H1099 0.930 . S
C1108 C1106 1.378 . S
C1108 C1109 1.367 . S
C1109 C1108 1.367 . S
C1109 C1111 1.433 . S
C1110 C1106 1.350 1_455 S
C1110 C1107 1.463 . S
C1110 N1114 1.427 1_455 S
C1111 H1101 0.929 . S
C1111 C1109 1.433 . S
C1111 N1114 1.384 . S
C1112 H1103 0.929 . S
C1112 C1104 1.378 . S
C1112 C1107 1.350 . S
C1113 H1100 0.929 . S
C1113 C1105 1.433 . S
C1113 N1115 1.384 . S
N1114 C1110 1.427 1_655 S
N1114 C1111 1.384 . S
N1115 C1107 1.427 . S
N1115 C1113 1.384 . S
H1116 C1122 0.930 . S
H1117 C1126 0.930 . S
H1118 C1131 0.929 . S
H1119 C1129 0.929 . S
H1120 C1124 0.929 . S
H1121 C1130 0.929 . S
C1122 H1116 0.930 . S
C1122 C1123 1.367 . S
C1122 C1130 1.378 . S
C1123 C1122 1.367 . S
C1123 C1131 1.433 . S
C1124 H1120 0.929 . S
C1124 C1126 1.378 . S
C1124 C1128 1.350 . S
C1125 C1128 1.463 . S
C1125 C1130 1.350 1_545 S
C1125 N1133 1.427 1_545 S
C1126 H1117 0.930 . S
C1126 C1124 1.378 . S
C1126 C1127 1.367 . S
C1127 C1126 1.367 . S
C1127 C1129 1.433 . S
C1128 C1124 1.350 . S
C1128 C1125 1.463 . S
C1128 N1132 1.427 . S
C1129 H1119 0.929 . S
C1129 C1127 1.433 . S
C1129 N1132 1.384 . S
C1130 H1121 0.929 . S
C1130 C1122 1.378 . S
C1130 C1125 1.350 1_565 S
C1131 H1118 0.929 . S
C1131 C1123 1.433 . S
C1131 N1133 1.384 . S
N1132 C1128 1.427 . S
N1132 C1129 1.384 . S
N1133 C1125 1.427 1_565 S
N1133 C1131 1.384 . S
H1134 C1140 0.930 . S
H1135 C1144 0.930 . S
H1136 C1149 0.929 . S
H1137 C1147 0.929 . S
H1138 C1142 0.929 . S
H1139 C1148 0.925 1_655 S
C1140 H1134 0.930 . S
C1140 C1141 1.367 . S
C1140 C1148 1.378 . S
C1141 C1140 1.367 . S
C1141 C1149 1.433 . S
C1142 H1138 0.929 . S
C1142 C1144 1.378 . S
C1142 C1146 1.350 . S
C1143 C1146 1.463 . S
C1143 C1148 1.350 1_655 S
C1143 N1151 1.427 1_655 S
C1144 H1135 0.930 . S
C1144 C1142 1.378 . S
C1144 C1145 1.367 . S
C1145 C1144 1.367 . S
C1145 C1147 1.433 . S
C1146 C1142 1.350 . S
C1146 C1143 1.463 . S
C1146 N1150 1.427 . S
C1147 H1137 0.929 . S
C1147 C1145 1.433 . S
C1147 N1150 1.384 . S
C1148 H1139 0.925 1_455 S
C1148 C1140 1.378 . S
C1148 C1143 1.350 1_455 S
C1149 H1136 0.929 . S
C1149 C1141 1.433 . S
C1149 N1151 1.384 . S
N1150 C1146 1.427 . S
N1150 C1147 1.384 . S
N1151 C1143 1.427 1_455 S
N1151 C1149 1.384 . S
H1152 C1158 0.930 . S
H1153 C1162 0.930 . S
H1154 C1167 0.929 . S
H1155 C1165 0.929 . S
H1156 C1160 0.929 . S
H1157 C1166 0.929 1_554 S
C1158 H1152 0.930 . S
C1158 C1159 1.367 . S
C1158 C1166 1.378 . S
C1159 C1158 1.367 . S
C1159 C1167 1.433 . S
C1160 H1156 0.929 . S
C1160 C1162 1.378 . S
C1160 C1164 1.350 . S
C1161 C1164 1.463 . S
C1161 C1166 1.350 1_554 S
C1161 N1169 1.427 1_554 S
C1162 H1153 0.930 . S
C1162 C1160 1.378 . S
C1162 C1163 1.367 . S
C1163 C1162 1.367 . S
C1163 C1165 1.433 . S
C1164 C1160 1.350 . S
C1164 C1161 1.463 . S
C1164 N1168 1.427 . S
C1165 H1155 0.929 . S
C1165 C1163 1.433 . S
C1165 N1168 1.384 . S
C1166 H1157 0.929 1_556 S
C1166 C1158 1.378 . S
C1166 C1161 1.350 1_556 S
C1167 H1154 0.929 . S
C1167 C1159 1.433 . S
C1167 N1169 1.384 . S
N1168 C1164 1.427 . S
N1168 C1165 1.384 . S
N1169 C1161 1.427 1_556 S
N1169 C1167 1.384 . S
H1170 C1176 0.930 . S
H1171 C1180 0.930 . S
H1172 C1185 0.929 . S
H1173 C1183 0.929 . S
H1174 C1178 0.929 1_554 S
H1175 C1184 0.929 . S
C1176 H1170 0.930 . S
C1176 C1177 1.367 . S
C1176 C1184 1.378 . S
C1177 C1176 1.367 . S
C1177 C1185 1.433 . S
C1178 H1174 0.929 1_556 S
C1178 C1180 1.378 . S
C1178 C1182 1.350 1_556 S
C1179 C1182 1.463 . S
C1179 C1184 1.350 . S
C1179 N1187 1.427 . S
C1180 H1171 0.930 . S
C1180 C1178 1.378 . S
C1180 C1181 1.367 . S
C1181 C1180 1.367 . S
C1181 C1183 1.433 . S
C1182 C1178 1.350 1_554 S
C1182 C1179 1.463 . S
C1182 N1186 1.427 1_554 S
C1183 H1173 0.929 . S
C1183 C1181 1.433 . S
C1183 N1186 1.384 . S
C1184 H1175 0.929 . S
C1184 C1176 1.378 . S
C1184 C1179 1.350 . S
C1185 H1172 0.929 . S
C1185 C1177 1.433 . S
C1185 N1187 1.384 . S
N1186 C1182 1.427 1_556 S
N1186 C1183 1.384 . S
N1187 C1179 1.427 . S
N1187 C1185 1.384 . S
H1188 C1194 0.930 . S
H1189 C1198 0.930 . S
H1190 C1203 0.929 . S
H1191 C1201 0.929 . S
H1192 C1196 0.929 . S
H1193 C1202 0.930 . S
C1194 H1188 0.930 . S
C1194 C1195 1.367 . S
C1194 C1202 1.378 . S
C1195 C1194 1.367 . S
C1195 C1203 1.433 . S
C1196 H1192 0.929 . S
C1196 C1198 1.378 . S
C1196 C1200 1.350 . S
C1197 C1200 1.463 . S
C1197 C1202 1.350 1_554 S
C1197 N1205 1.427 1_554 S
C1198 H1189 0.930 . S
C1198 C1196 1.378 . S
C1198 C1199 1.367 . S
C1199 C1198 1.367 . S
C1199 C1201 1.433 . S
C1200 C1196 1.350 . S
C1200 C1197 1.463 . S
C1200 N1204 1.427 . S
C1201 H1191 0.929 . S
C1201 C1199 1.433 . S
C1201 N1204 1.384 . S
C1202 H1193 0.930 . S
C1202 C1194 1.378 . S
C1202 C1197 1.350 1_556 S
C1203 H1190 0.929 . S
C1203 C1195 1.433 . S
C1203 N1205 1.384 . S
N1204 C1200 1.427 . S
N1204 C1201 1.384 . S
N1205 C1197 1.427 1_556 S
N1205 C1203 1.384 . S
H1206 C1212 0.930 . S
H1207 C1216 0.930 . S
H1208 C1221 0.929 . S
H1209 C1219 0.929 . S
H1210 C1214 0.929 . S
H1211 C1220 0.929 . S
C1212 H1206 0.930 . S
C1212 C1213 1.367 . S
C1212 C1220 1.378 . S
C1213 C1212 1.367 . S
C1213 C1221 1.433 . S
C1214 H1210 0.929 . S
C1214 C1216 1.378 . S
C1214 C1218 1.350 1_556 S
C1215 C1218 1.463 . S
C1215 C1220 1.350 . S
C1215 N1223 1.427 . S
C1216 H1207 0.930 . S
C1216 C1214 1.378 . S
C1216 C1217 1.367 . S
C1217 C1216 1.367 . S
C1217 C1219 1.433 . S
C1218 C1214 1.350 1_554 S
C1218 C1215 1.463 . S
C1218 N1222 1.427 1_554 S
C1219 H1209 0.929 . S
C1219 C1217 1.433 . S
C1219 N1222 1.384 . S
C1220 H1211 0.929 . S
C1220 C1212 1.378 . S
C1220 C1215 1.350 . S
C1221 H1208 0.929 . S
C1221 C1213 1.433 . S
C1221 N1223 1.384 . S
N1222 C1218 1.427 1_556 S
N1222 C1219 1.384 . S
N1223 C1215 1.427 . S
N1223 C1221 1.384 . S
H1224 C1230 0.930 . S
H1225 C1234 0.930 . S
H1226 C1239 0.929 . S
H1227 C1237 0.929 . S
H1228 C1232 0.929 . S
H1229 C1238 0.929 1_556 S
C1230 H1224 0.930 . S
C1230 C1231 1.367 . S
C1230 C1238 1.378 . S
C1231 C1230 1.367 . S
C1231 C1239 1.433 . S
C1232 H1228 0.929 . S
C1232 C1234 1.378 . S
C1232 C1236 1.350 . S
C1233 C1236 1.463 . S
C1233 C1238 1.350 1_556 S
C1233 N1241 1.427 1_556 S
C1234 H1225 0.930 . S
C1234 C1232 1.378 . S
C1234 C1235 1.367 . S
C1235 C1234 1.367 . S
C1235 C1237 1.433 . S
C1236 C1232 1.350 . S
C1236 C1233 1.463 . S
C1236 N1240 1.427 . S
C1237 H1227 0.929 . S
C1237 C1235 1.433 . S
C1237 N1240 1.384 . S
C1238 H1229 0.929 1_554 S
C1238 C1230 1.378 . S
C1238 C1233 1.350 1_554 S
C1239 H1226 0.929 . S
C1239 C1231 1.433 . S
C1239 N1241 1.384 . S
N1240 C1236 1.427 . S
N1240 C1237 1.384 . S
N1241 C1233 1.427 1_554 S
N1241 C1239 1.384 . S
H1242 C1248 0.930 . S
H1243 C1252 0.930 . S
H1244 C1257 0.929 . S
H1245 C1255 0.929 . S
H1246 C1250 0.945 . S
H1247 C1256 0.929 . S
C1248 H1242 0.930 . S
C1248 C1249 1.367 . S
C1248 C1256 1.378 . S
C1249 C1248 1.367 . S
C1249 C1257 1.433 . S
C1250 H1246 0.945 . S
C1250 C1252 1.378 . S
C1250 C1254 1.350 1_554 S
C1251 C1254 1.463 . S
C1251 C1256 1.350 . S
C1251 N1259 1.427 . S
C1252 H1243 0.930 . S
C1252 C1250 1.378 . S
C1252 C1253 1.367 . S
C1253 C1252 1.367 . S
C1253 C1255 1.433 . S
C1254 C1250 1.350 1_556 S
C1254 C1251 1.463 . S
C1254 N1258 1.427 1_556 S
C1255 H1245 0.929 . S
C1255 C1253 1.433 . S
C1255 N1258 1.384 . S
C1256 H1247 0.929 . S
C1256 C1248 1.378 . S
C1256 C1251 1.350 . S
C1257 H1244 0.929 . S
C1257 C1249 1.433 . S
C1257 N1259 1.384 . S
N1258 C1254 1.427 1_554 S
N1258 C1255 1.384 . S
N1259 C1251 1.427 . S
N1259 C1257 1.384 . S
H1260 C1266 0.930 . S
H1261 C1270 0.930 . S
H1262 C1275 0.929 . S
H1263 C1273 0.929 . S
H1264 C1268 0.929 . S
H1265 C1274 0.929 1_556 S
C1266 H1260 0.930 . S
C1266 C1267 1.367 . S
C1266 C1274 1.378 . S
C1267 C1266 1.367 . S
C1267 C1275 1.433 . S
C1268 H1264 0.929 . S
C1268 C1270 1.378 . S
C1268 C1272 1.350 . S
C1269 C1272 1.463 . S
C1269 C1274 1.350 1_556 S
C1269 N1277 1.427 1_556 S
C1270 H1261 0.930 . S
C1270 C1268 1.378 . S
C1270 C1271 1.367 . S
C1271 C1270 1.367 . S
C1271 C1273 1.433 . S
C1272 C1268 1.350 . S
C1272 C1269 1.463 . S
C1272 N1276 1.427 . S
C1273 H1263 0.929 . S
C1273 C1271 1.433 . S
C1273 N1276 1.384 . S
C1274 H1265 0.929 1_554 S
C1274 C1266 1.378 . S
C1274 C1269 1.350 1_554 S
C1275 H1262 0.929 . S
C1275 C1267 1.433 . S
C1275 N1277 1.384 . S
N1276 C1272 1.427 . S
N1276 C1273 1.384 . S
N1277 C1269 1.427 1_554 S
N1277 C1275 1.384 . S
H1278 C1284 0.930 . S
H1279 C1288 0.930 . S
H1280 C1293 0.929 . S
H1281 C1291 0.929 . S
H1282 C1286 0.929 . S
H1283 C1292 0.929 . S
C1284 H1278 0.930 . S
C1284 C1285 1.367 . S
C1284 C1292 1.378 . S
C1285 C1284 1.367 . S
C1285 C1293 1.433 . S
C1286 H1282 0.929 . S
C1286 C1288 1.378 . S
C1286 C1290 1.350 1_554 S
C1287 C1290 1.463 . S
C1287 C1292 1.350 . S
C1287 N1295 1.427 . S
C1288 H1279 0.930 . S
C1288 C1286 1.378 . S
C1288 C1289 1.367 . S
C1289 C1288 1.367 . S
C1289 C1291 1.433 . S
C1290 C1286 1.350 1_556 S
C1290 C1287 1.463 . S
C1290 N1294 1.427 1_556 S
C1291 H1281 0.929 . S
C1291 C1289 1.433 . S
C1291 N1294 1.384 . S
C1292 H1283 0.929 . S
C1292 C1284 1.378 . S
C1292 C1287 1.350 . S
C1293 H1280 0.929 . S
C1293 C1285 1.433 . S
C1293 N1295 1.384 . S
N1294 C1290 1.427 1_554 S
N1294 C1291 1.384 . S
N1295 C1287 1.427 . S
N1295 C1293 1.384 . S
H1296 C1302 0.930 . S
H1297 C1306 0.930 . S
H1298 C1311 0.929 . S
H1299 C1309 0.929 . S
H1300 C1304 0.929 . S
H1301 C1310 0.929 1_455 S
C1302 H1296 0.930 . S
C1302 C1303 1.367 . S
C1302 C1310 1.378 . S
C1303 C1302 1.367 . S
C1303 C1311 1.433 . S
C1304 H1300 0.929 . S
C1304 C1306 1.378 . S
C1304 C1308 1.350 . S
C1305 C1308 1.463 . S
C1305 C1310 1.350 1_455 S
C1305 N1313 1.427 1_455 S
C1306 H1297 0.930 . S
C1306 C1304 1.378 . S
C1306 C1307 1.367 . S
C1307 C1306 1.367 . S
C1307 C1309 1.433 . S
C1308 C1304 1.350 . S
C1308 C1305 1.463 . S
C1308 N1312 1.427 . S
C1309 H1299 0.929 . S
C1309 C1307 1.433 . S
C1309 N1312 1.384 . S
C1310 H1301 0.929 1_655 S
C1310 C1302 1.378 . S
C1310 C1305 1.350 1_655 S
C1311 H1298 0.929 . S
C1311 C1303 1.433 . S
C1311 N1313 1.384 . S
N1312 C1308 1.427 . S
N1312 C1309 1.384 . S
N1313 C1305 1.427 1_655 S
N1313 C1311 1.384 . S
H1314 C1320 0.930 . S
H1315 C1324 0.930 . S
H1316 C1329 0.929 . S
H1317 C1327 0.929 . S
H1318 C1322 0.929 . S
H1319 C1328 0.929 . S
C1320 H1314 0.930 . S
C1320 C1321 1.367 . S
C1320 C1328 1.378 . S
C1321 C1320 1.367 . S
C1321 C1329 1.433 . S
C1322 H1318 0.929 . S
C1322 C1324 1.378 . S
C1322 C1326 1.350 . S
C1323 C1326 1.463 . S
C1323 C1328 1.350 1_455 S
C1323 N1331 1.427 1_455 S
C1324 H1315 0.930 . S
C1324 C1322 1.378 . S
C1324 C1325 1.367 . S
C1325 C1324 1.367 . S
C1325 C1327 1.433 . S
C1326 C1322 1.350 . S
C1326 C1323 1.463 . S
C1326 N1330 1.427 . S
C1327 H1317 0.929 . S
C1327 C1325 1.433 . S
C1327 N1330 1.384 . S
C1328 H1319 0.929 . S
C1328 C1320 1.378 . S
C1328 C1323 1.350 1_655 S
C1329 H1316 0.929 . S
C1329 C1321 1.433 . S
C1329 N1331 1.384 . S
N1330 C1326 1.427 . S
N1330 C1327 1.384 . S
N1331 C1323 1.427 1_655 S
N1331 C1329 1.384 . S
H1332 C1338 0.930 . S
H1333 C1342 0.930 . S
H1334 C1347 0.929 . S
H1335 C1345 0.929 . S
H1336 C1340 0.929 1_545 S
H1337 C1346 0.929 . S
C1338 H1332 0.930 . S
C1338 C1339 1.367 . S
C1338 C1346 1.378 . S
C1339 C1338 1.367 . S
C1339 C1347 1.433 . S
C1340 H1336 0.929 1_565 S
C1340 C1342 1.378 . S
C1340 C1344 1.350 1_565 S
C1341 C1344 1.463 . S
C1341 C1346 1.350 . S
C1341 N1349 1.427 . S
C1342 H1333 0.930 . S
C1342 C1340 1.378 . S
C1342 C1343 1.367 . S
C1343 C1342 1.367 . S
C1343 C1345 1.433 . S
C1344 C1340 1.350 1_545 S
C1344 C1341 1.463 . S
C1344 N1348 1.427 1_545 S
C1345 H1335 0.929 . S
C1345 C1343 1.433 . S
C1345 N1348 1.384 . S
C1346 H1337 0.929 . S
C1346 C1338 1.378 . S
C1346 C1341 1.350 . S
C1347 H1334 0.929 . S
C1347 C1339 1.433 . S
C1347 N1349 1.384 . S
N1348 C1344 1.427 1_565 S
N1348 C1345 1.384 . S
N1349 C1341 1.427 . S
N1349 C1347 1.384 . S
H1350 C1356 0.930 . S
H1351 C1360 0.930 . S
H1352 C1365 0.929 . S
H1353 C1363 0.929 . S
H1354 C1358 0.950 . S
H1355 C1364 0.929 . S
C1356 H1350 0.930 . S
C1356 C1357 1.367 . S
C1356 C1364 1.378 . S
C1357 C1356 1.367 . S
C1357 C1365 1.433 . S
C1358 H1354 0.950 . S
C1358 C1360 1.378 . S
C1358 C1362 1.350 1_455 S
C1359 C1362 1.463 . S
C1359 C1364 1.350 . S
C1359 N1367 1.427 . S
C1360 H1351 0.930 . S
C1360 C1358 1.378 . S
C1360 C1361 1.367 . S
C1361 C1360 1.367 . S
C1361 C1363 1.433 . S
C1362 C1358 1.350 1_655 S
C1362 C1359 1.463 . S
C1362 N1366 1.427 1_655 S
C1363 H1353 0.929 . S
C1363 C1361 1.433 . S
C1363 N1366 1.384 . S
C1364 H1355 0.929 . S
C1364 C1356 1.378 . S
C1364 C1359 1.350 . S
C1365 H1352 0.929 . S
C1365 C1357 1.433 . S
C1365 N1367 1.384 . S
N1366 C1362 1.427 1_455 S
N1366 C1363 1.384 . S
N1367 C1359 1.427 . S
N1367 C1365 1.384 . S
H1368 C1374 0.930 . S
H1369 C1378 0.930 . S
H1370 C1383 0.929 . S
H1371 C1381 0.929 . S
H1372 C1376 0.929 . S
H1373 C1382 0.906 1_565 S
C1374 H1368 0.930 . S
C1374 C1375 1.367 . S
C1374 C1382 1.378 . S
C1375 C1374 1.367 . S
C1375 C1383 1.433 . S
C1376 H1372 0.929 . S
C1376 C1378 1.378 . S
C1376 C1380 1.350 . S
C1377 C1380 1.463 . S
C1377 C1382 1.350 1_565 S
C1377 N1385 1.427 1_565 S
C1378 H1369 0.930 . S
C1378 C1376 1.378 . S
C1378 C1379 1.367 . S
C1379 C1378 1.367 . S
C1379 C1381 1.433 . S
C1380 C1376 1.350 . S
C1380 C1377 1.463 . S
C1380 N1384 1.427 . S
C1381 H1371 0.929 . S
C1381 C1379 1.433 . S
C1381 N1384 1.384 . S
C1382 H1373 0.906 1_545 S
C1382 C1374 1.378 . S
C1382 C1377 1.350 1_545 S
C1383 H1370 0.929 . S
C1383 C1375 1.433 . S
C1383 N1385 1.384 . S
N1384 C1380 1.427 . S
N1384 C1381 1.384 . S
N1385 C1377 1.427 1_545 S
N1385 C1383 1.384 . S
H1386 C1392 0.930 . S
H1387 C1396 0.930 . S
H1388 C1401 0.929 . S
H1389 C1399 0.929 . S
H1390 C1394 0.929 . S
H1391 C1400 0.929 . S
C1392 H1386 0.930 . S
C1392 C1393 1.367 . S
C1392 C1400 1.378 . S
C1393 C1392 1.367 . S
C1393 C1401 1.433 . S
C1394 H1390 0.929 . S
C1394 C1396 1.378 . S
C1394 C1398 1.350 . S
C1395 C1398 1.463 . S
C1395 C1400 1.350 1_655 S
C1395 N1403 1.427 1_655 S
C1396 H1387 0.930 . S
C1396 C1394 1.378 . S
C1396 C1397 1.367 . S
C1397 C1396 1.367 . S
C1397 C1399 1.433 . S
C1398 C1394 1.350 . S
C1398 C1395 1.463 . S
C1398 N1402 1.427 . S
C1399 H1389 0.929 . S
C1399 C1397 1.433 . S
C1399 N1402 1.384 . S
C1400 H1391 0.929 . S
C1400 C1392 1.378 . S
C1400 C1395 1.350 1_455 S
C1401 H1388 0.929 . S
C1401 C1393 1.433 . S
C1401 N1403 1.384 . S
N1402 C1398 1.427 . S
N1402 C1399 1.384 . S
N1403 C1395 1.427 1_455 S
N1403 C1401 1.384 . S
H1404 C1410 0.930 . S
H1405 C1414 0.930 . S
H1406 C1419 0.929 . S
H1407 C1417 0.929 . S
H1408 C1412 0.929 . S
H1409 C1418 0.929 . S
C1410 H1404 0.930 . S
C1410 C1411 1.367 . S
C1410 C1418 1.378 . S
C1411 C1410 1.367 . S
C1411 C1419 1.433 . S
C1412 H1408 0.929 . S
C1412 C1414 1.378 . S
C1412 C1416 1.350 . S
C1413 C1416 1.463 . S
C1413 C1418 1.350 1_565 S
C1413 N1421 1.427 1_565 S
C1414 H1405 0.930 . S
C1414 C1412 1.378 . S
C1414 C1415 1.367 . S
C1415 C1414 1.367 . S
C1415 C1417 1.433 . S
C1416 C1412 1.350 . S
C1416 C1413 1.463 . S
C1416 N1420 1.427 . S
C1417 H1407 0.929 . S
C1417 C1415 1.433 . S
C1417 N1420 1.384 . S
C1418 H1409 0.929 . S
C1418 C1410 1.378 . S
C1418 C1413 1.350 1_545 S
C1419 H1406 0.929 . S
C1419 C1411 1.433 . S
C1419 N1421 1.384 . S
N1420 C1416 1.427 . S
N1420 C1417 1.384 . S
N1421 C1413 1.427 1_545 S
N1421 C1419 1.384 . S
H1422 C1428 0.930 . S
H1423 C1432 0.930 . S
H1424 C1437 0.929 . S
H1425 C1435 0.929 . S
H1426 C1430 0.929 1_545 S
H1427 C1436 0.929 . S
C1428 H1422 0.930 . S
C1428 C1429 1.367 . S
C1428 C1436 1.378 . S
C1429 C1428 1.367 . S
C1429 C1437 1.433 . S
C1430 H1426 0.929 1_565 S
C1430 C1432 1.378 . S
C1430 C1434 1.350 1_565 S
C1431 C1434 1.463 . S
C1431 C1436 1.350 . S
C1431 N1439 1.427 . S
C1432 H1423 0.930 . S
C1432 C1430 1.378 . S
C1432 C1433 1.367 . S
C1433 C1432 1.367 . S
C1433 C1435 1.433 . S
C1434 C1430 1.350 1_545 S
C1434 C1431 1.463 . S
C1434 N1438 1.427 1_545 S
C1435 H1425 0.929 . S
C1435 C1433 1.433 . S
C1435 N1438 1.384 . S
C1436 H1427 0.929 . S
C1436 C1428 1.378 . S
C1436 C1431 1.350 . S
C1437 H1424 0.929 . S
C1437 C1429 1.433 . S
C1437 N1439 1.384 . S
N1438 C1434 1.427 1_565 S
N1438 C1435 1.384 . S
N1439 C1431 1.427 . S
N1439 C1437 1.384 . S
H1440 C1446 0.930 . S
H1441 C1450 0.930 . S
H1442 C1455 0.929 . S
H1443 C1453 0.929 . S
H1444 C1448 0.929 . S
H1445 C1454 0.929 . S
C1446 H1440 0.930 . S
C1446 C1447 1.367 . S
C1446 C1454 1.378 . S
C1447 C1446 1.367 . S
C1447 C1455 1.433 . S
C1448 H1444 0.929 . S
C1448 C1450 1.378 . S
C1448 C1452 1.350 . S
C1449 C1452 1.463 . S
C1449 C1454 1.350 . S
C1449 N1457 1.427 . S
C1450 H1441 0.930 . S
C1450 C1448 1.378 . S
C1450 C1451 1.367 . S
C1451 C1450 1.367 . S
C1451 C1453 1.433 . S
C1452 C1448 1.350 . S
C1452 C1449 1.463 . S
C1452 N1456 1.427 . S
C1453 H1443 0.929 . S
C1453 C1451 1.433 . S
C1453 N1456 1.384 . S
C1454 H1445 0.929 . S
C1454 C1446 1.378 . S
C1454 C1449 1.350 . S
C1455 H1442 0.929 . S
C1455 C1447 1.433 . S
C1455 N1457 1.384 . S
N1456 C1452 1.427 . S
N1456 C1453 1.384 . S
N1457 C1449 1.427 . S
N1457 C1455 1.384 . S
H1458 C1464 0.930 . S
H1459 C1468 0.930 . S
H1460 C1473 0.929 . S
H1461 C1471 0.929 . S
H1462 C1466 0.929 . S
H1463 C1472 0.929 . S
C1464 H1458 0.930 . S
C1464 C1465 1.367 . S
C1464 C1472 1.378 . S
C1465 C1464 1.367 . S
C1465 C1473 1.433 . S
C1466 H1462 0.929 . S
C1466 C1468 1.378 . S
C1466 C1470 1.350 . S
C1467 C1470 1.463 . S
C1467 C1472 1.350 . S
C1467 N1475 1.427 . S
C1468 H1459 0.930 . S
C1468 C1466 1.378 . S
C1468 C1469 1.367 . S
C1469 C1468 1.367 . S
C1469 C1471 1.433 . S
C1470 C1466 1.350 . S
C1470 C1467 1.463 . S
C1470 N1474 1.427 . S
C1471 H1461 0.929 . S
C1471 C1469 1.433 . S
C1471 N1474 1.384 . S
C1472 H1463 0.929 . S
C1472 C1464 1.378 . S
C1472 C1467 1.350 . S
C1473 H1460 0.929 . S
C1473 C1465 1.433 . S
C1473 N1475 1.384 . S
N1474 C1470 1.427 . S
N1474 C1471 1.384 . S
N1475 C1467 1.427 . S
N1475 C1473 1.384 . S
H1476 C1482 0.930 . S
H1477 C1486 0.930 . S
H1478 C1491 0.929 . S
H1479 C1489 0.929 . S
H1480 C1484 0.929 . S
H1481 C1490 0.929 . S
C1482 H1476 0.930 . S
C1482 C1483 1.367 . S
C1482 C1490 1.378 . S
C1483 C1482 1.367 . S
C1483 C1491 1.433 . S
C1484 H1480 0.929 . S
C1484 C1486 1.378 . S
C1484 C1488 1.350 . S
C1485 C1488 1.463 . S
C1485 C1490 1.350 . S
C1485 N1493 1.427 . S
C1486 H1477 0.930 . S
C1486 C1484 1.378 . S
C1486 C1487 1.367 . S
C1487 C1486 1.367 . S
C1487 C1489 1.433 . S
C1488 C1484 1.350 . S
C1488 C1485 1.463 . S
C1488 N1492 1.427 . S
C1489 H1479 0.929 . S
C1489 C1487 1.433 . S
C1489 N1492 1.384 . S
C1490 H1481 0.929 . S
C1490 C1482 1.378 . S
C1490 C1485 1.350 . S
C1491 H1478 0.929 . S
C1491 C1483 1.433 . S
C1491 N1493 1.384 . S
N1492 C1488 1.427 . S
N1492 C1489 1.384 . S
N1493 C1485 1.427 . S
N1493 C1491 1.384 . S
H1494 C1500 0.930 . S
H1495 C1504 0.930 . S
H1496 C1509 0.929 . S
H1497 C1507 0.929 . S
H1498 C1502 0.929 . S
H1499 C1508 0.929 . S
C1500 H1494 0.930 . S
C1500 C1501 1.367 . S
C1500 C1508 1.378 . S
C1501 C1500 1.367 . S
C1501 C1509 1.433 . S
C1502 H1498 0.929 . S
C1502 C1504 1.378 . S
C1502 C1506 1.350 . S
C1503 C1506 1.463 . S
C1503 C1508 1.350 . S
C1503 N1511 1.427 . S
C1504 H1495 0.930 . S
C1504 C1502 1.378 . S
C1504 C1505 1.367 . S
C1505 C1504 1.367 . S
C1505 C1507 1.433 . S
C1506 C1502 1.350 . S
C1506 C1503 1.463 . S
C1506 N1510 1.427 . S
C1507 H1497 0.929 . S
C1507 C1505 1.433 . S
C1507 N1510 1.384 . S
C1508 H1499 0.929 . S
C1508 C1500 1.378 . S
C1508 C1503 1.350 . S
C1509 H1496 0.929 . S
C1509 C1501 1.433 . S
C1509 N1511 1.384 . S
N1510 C1506 1.427 . S
N1510 C1507 1.384 . S
N1511 C1503 1.427 . S
N1511 C1509 1.384 . S
H1512 C1518 0.930 . S
H1513 C1522 0.930 . S
H1514 C1527 0.929 . S
H1515 C1525 0.929 . S
H1516 C1520 0.929 . S
H1517 C1526 0.929 . S
C1518 H1512 0.930 . S
C1518 C1519 1.367 . S
C1518 C1526 1.378 . S
C1519 C1518 1.367 . S
C1519 C1527 1.433 . S
C1520 H1516 0.929 . S
C1520 C1522 1.378 . S
C1520 C1524 1.350 . S
C1521 C1524 1.463 . S
C1521 C1526 1.350 . S
C1521 N1529 1.427 . S
C1522 H1513 0.930 . S
C1522 C1520 1.378 . S
C1522 C1523 1.367 . S
C1523 C1522 1.367 . S
C1523 C1525 1.433 . S
C1524 C1520 1.350 . S
C1524 C1521 1.463 . S
C1524 N1528 1.427 . S
C1525 H1515 0.929 . S
C1525 C1523 1.433 . S
C1525 N1528 1.384 . S
C1526 H1517 0.929 . S
C1526 C1518 1.378 . S
C1526 C1521 1.350 . S
C1527 H1514 0.929 . S
C1527 C1519 1.433 . S
C1527 N1529 1.384 . S
N1528 C1524 1.427 . S
N1528 C1525 1.384 . S
N1529 C1521 1.427 . S
N1529 C1527 1.384 . S
H1530 C1536 0.930 . S
H1531 C1540 0.930 . S
H1532 C1545 0.929 . S
H1533 C1543 0.929 . S
H1534 C1538 0.929 . S
H1535 C1544 0.929 . S
C1536 H1530 0.930 . S
C1536 C1537 1.367 . S
C1536 C1544 1.378 . S
C1537 C1536 1.367 . S
C1537 C1545 1.433 . S
C1538 H1534 0.929 . S
C1538 C1540 1.378 . S
C1538 C1542 1.350 . S
C1539 C1542 1.463 . S
C1539 C1544 1.350 . S
C1539 N1547 1.427 . S
C1540 H1531 0.930 . S
C1540 C1538 1.378 . S
C1540 C1541 1.367 . S
C1541 C1540 1.367 . S
C1541 C1543 1.433 . S
C1542 C1538 1.350 . S
C1542 C1539 1.463 . S
C1542 N1546 1.427 . S
C1543 H1533 0.929 . S
C1543 C1541 1.433 . S
C1543 N1546 1.384 . S
C1544 H1535 0.929 . S
C1544 C1536 1.378 . S
C1544 C1539 1.350 . S
C1545 H1532 0.929 . S
C1545 C1537 1.433 . S
C1545 N1547 1.384 . S
N1546 C1542 1.427 . S
N1546 C1543 1.384 . S
N1547 C1539 1.427 . S
N1547 C1545 1.384 . S
H1548 C1554 0.930 . S
H1549 C1558 0.930 . S
H1550 C1563 0.929 . S
H1551 C1561 0.929 . S
H1552 C1556 0.929 . S
H1553 C1562 0.929 . S
C1554 H1548 0.930 . S
C1554 C1555 1.367 . S
C1554 C1562 1.378 . S
C1555 C1554 1.367 . S
C1555 C1563 1.433 . S
C1556 H1552 0.929 . S
C1556 C1558 1.378 . S
C1556 C1560 1.350 . S
C1557 C1560 1.463 . S
C1557 C1562 1.350 . S
C1557 N1565 1.427 . S
C1558 H1549 0.930 . S
C1558 C1556 1.378 . S
C1558 C1559 1.367 . S
C1559 C1558 1.367 . S
C1559 C1561 1.433 . S
C1560 C1556 1.350 . S
C1560 C1557 1.463 . S
C1560 N1564 1.427 . S
C1561 H1551 0.929 . S
C1561 C1559 1.433 . S
C1561 N1564 1.384 . S
C1562 H1553 0.929 . S
C1562 C1554 1.378 . S
C1562 C1557 1.350 . S
C1563 H1550 0.929 . S
C1563 C1555 1.433 . S
C1563 N1565 1.384 . S
N1564 C1560 1.427 . S
N1564 C1561 1.384 . S
N1565 C1557 1.427 . S
N1565 C1563 1.384 . S
H1566 C1572 0.930 . S
H1567 C1576 0.930 . S
H1568 C1581 0.929 . S
H1569 C1579 0.929 . S
H1570 C1574 0.929 . S
H1571 C1580 0.929 . S
C1572 H1566 0.930 . S
C1572 C1573 1.367 . S
C1572 C1580 1.378 . S
C1573 C1572 1.367 . S
C1573 C1581 1.433 . S
C1574 H1570 0.929 . S
C1574 C1576 1.378 . S
C1574 C1578 1.350 . S
C1575 C1578 1.463 . S
C1575 C1580 1.350 . S
C1575 N1583 1.427 . S
C1576 H1567 0.930 . S
C1576 C1574 1.378 . S
C1576 C1577 1.367 . S
C1577 C1576 1.367 . S
C1577 C1579 1.433 . S
C1578 C1574 1.350 . S
C1578 C1575 1.463 . S
C1578 N1582 1.427 . S
C1579 H1569 0.929 . S
C1579 C1577 1.433 . S
C1579 N1582 1.384 . S
C1580 H1571 0.929 . S
C1580 C1572 1.378 . S
C1580 C1575 1.350 . S
C1581 H1568 0.929 . S
C1581 C1573 1.433 . S
C1581 N1583 1.384 . S
N1582 C1578 1.427 . S
N1582 C1579 1.384 . S
N1583 C1575 1.427 . S
N1583 C1581 1.384 . S
H1584 C1590 0.930 . S
H1585 C1594 0.930 . S
H1586 C1599 0.929 . S
H1587 C1597 0.929 . S
H1588 C1592 0.929 . S
H1589 C1598 0.929 . S
C1590 H1584 0.930 . S
C1590 C1591 1.367 . S
C1590 C1598 1.378 . S
C1591 C1590 1.367 . S
C1591 C1599 1.433 . S
C1592 H1588 0.929 . S
C1592 C1594 1.378 . S
C1592 C1596 1.350 . S
C1593 C1596 1.463 . S
C1593 C1598 1.350 . S
C1593 N1601 1.427 . S
C1594 H1585 0.930 . S
C1594 C1592 1.378 . S
C1594 C1595 1.367 . S
C1595 C1594 1.367 . S
C1595 C1597 1.433 . S
C1596 C1592 1.350 . S
C1596 C1593 1.463 . S
C1596 N1600 1.427 . S
C1597 H1587 0.929 . S
C1597 C1595 1.433 . S
C1597 N1600 1.384 . S
C1598 H1589 0.929 . S
C1598 C1590 1.378 . S
C1598 C1593 1.350 . S
C1599 H1586 0.929 . S
C1599 C1591 1.433 . S
C1599 N1601 1.384 . S
N1600 C1596 1.427 . S
N1600 C1597 1.384 . S
N1601 C1593 1.427 . S
N1601 C1599 1.384 . S
H1602 C1608 0.930 . S
H1603 C1612 0.930 . S
H1604 C1617 0.929 . S
H1605 C1615 0.929 . S
H1606 C1610 0.929 . S
H1607 C1616 0.929 . S
C1608 H1602 0.930 . S
C1608 C1609 1.367 . S
C1608 C1616 1.378 . S
C1609 C1608 1.367 . S
C1609 C1617 1.433 . S
C1610 H1606 0.929 . S
C1610 C1612 1.378 . S
C1610 C1614 1.350 . S
C1611 C1614 1.463 . S
C1611 C1616 1.350 . S
C1611 N1619 1.427 . S
C1612 H1603 0.930 . S
C1612 C1610 1.378 . S
C1612 C1613 1.367 . S
C1613 C1612 1.367 . S
C1613 C1615 1.433 . S
C1614 C1610 1.350 . S
C1614 C1611 1.463 . S
C1614 N1618 1.427 . S
C1615 H1605 0.929 . S
C1615 C1613 1.433 . S
C1615 N1618 1.384 . S
C1616 H1607 0.929 . S
C1616 C1608 1.378 . S
C1616 C1611 1.350 . S
C1617 H1604 0.929 . S
C1617 C1609 1.433 . S
C1617 N1619 1.384 . S
N1618 C1614 1.427 . S
N1618 C1615 1.384 . S
N1619 C1611 1.427 . S
N1619 C1617 1.384 . S
H1620 C1626 0.930 . S
H1621 C1630 0.930 . S
H1622 C1635 0.929 . S
H1623 C1633 0.929 . S
H1624 C1628 0.929 . S
H1625 C1634 0.929 . S
C1626 H1620 0.930 . S
C1626 C1627 1.367 . S
C1626 C1634 1.378 . S
C1627 C1626 1.367 . S
C1627 C1635 1.433 . S
C1628 H1624 0.929 . S
C1628 C1630 1.378 . S
C1628 C1632 1.350 . S
C1629 C1632 1.463 . S
C1629 C1634 1.350 . S
C1629 N1637 1.427 . S
C1630 H1621 0.930 . S
C1630 C1628 1.378 . S
C1630 C1631 1.367 . S
C1631 C1630 1.367 . S
C1631 C1633 1.433 . S
C1632 C1628 1.350 . S
C1632 C1629 1.463 . S
C1632 N1636 1.427 . S
C1633 H1623 0.929 . S
C1633 C1631 1.433 . S
C1633 N1636 1.384 . S
C1634 H1625 0.929 . S
C1634 C1626 1.378 . S
C1634 C1629 1.350 . S
C1635 H1622 0.929 . S
C1635 C1627 1.433 . S
C1635 N1637 1.384 . S
N1636 C1632 1.427 . S
N1636 C1633 1.384 . S
N1637 C1629 1.427 . S
N1637 C1635 1.384 . S
H1638 C1644 0.930 . S
H1639 C1648 0.930 . S
H1640 C1653 0.929 . S
H1641 C1651 0.929 . S
H1642 C1646 0.929 . S
H1643 C1652 0.929 . S
C1644 H1638 0.930 . S
C1644 C1645 1.367 . S
C1644 C1652 1.378 . S
C1645 C1644 1.367 . S
C1645 C1653 1.433 . S
C1646 H1642 0.929 . S
C1646 C1648 1.378 . S
C1646 C1650 1.350 . S
C1647 C1650 1.463 . S
C1647 C1652 1.350 . S
C1647 N1655 1.427 . S
C1648 H1639 0.930 . S
C1648 C1646 1.378 . S
C1648 C1649 1.367 . S
C1649 C1648 1.367 . S
C1649 C1651 1.433 . S
C1650 C1646 1.350 . S
C1650 C1647 1.463 . S
C1650 N1654 1.427 . S
C1651 H1641 0.929 . S
C1651 C1649 1.433 . S
C1651 N1654 1.384 . S
C1652 H1643 0.929 . S
C1652 C1644 1.378 . S
C1652 C1647 1.350 . S
C1653 H1640 0.929 . S
C1653 C1645 1.433 . S
C1653 N1655 1.384 . S
N1654 C1650 1.427 . S
N1654 C1651 1.384 . S
N1655 C1647 1.427 . S
N1655 C1653 1.384 . S
H1656 C1662 0.930 . S
H1657 C1666 0.930 . S
H1658 C1671 0.929 . S
H1659 C1669 0.929 . S
H1660 C1664 0.929 . S
H1661 C1670 0.929 . S
C1662 H1656 0.930 . S
C1662 C1663 1.367 . S
C1662 C1670 1.378 . S
C1663 C1662 1.367 . S
C1663 C1671 1.433 . S
C1664 H1660 0.929 . S
C1664 C1666 1.378 . S
C1664 C1668 1.350 . S
C1665 C1668 1.463 . S
C1665 C1670 1.350 . S
C1665 N1673 1.427 . S
C1666 H1657 0.930 . S
C1666 C1664 1.378 . S
C1666 C1667 1.367 . S
C1667 C1666 1.367 . S
C1667 C1669 1.433 . S
C1668 C1664 1.350 . S
C1668 C1665 1.463 . S
C1668 N1672 1.427 . S
C1669 H1659 0.929 . S
C1669 C1667 1.433 . S
C1669 N1672 1.384 . S
C1670 H1661 0.929 . S
C1670 C1662 1.378 . S
C1670 C1665 1.350 . S
C1671 H1658 0.929 . S
C1671 C1663 1.433 . S
C1671 N1673 1.384 . S
N1672 C1668 1.427 . S
N1672 C1669 1.384 . S
N1673 C1665 1.427 . S
N1673 C1671 1.384 . S
H1674 C1680 0.930 . S
H1675 C1684 0.930 . S
H1676 C1689 0.929 . S
H1677 C1687 0.929 . S
H1678 C1682 0.929 . S
H1679 C1688 0.929 . S
C1680 H1674 0.930 . S
C1680 C1681 1.367 . S
C1680 C1688 1.378 . S
C1681 C1680 1.367 . S
C1681 C1689 1.433 . S
C1682 H1678 0.929 . S
C1682 C1684 1.378 . S
C1682 C1686 1.350 . S
C1683 C1686 1.463 . S
C1683 C1688 1.350 . S
C1683 N1691 1.427 . S
C1684 H1675 0.930 . S
C1684 C1682 1.378 . S
C1684 C1685 1.367 . S
C1685 C1684 1.367 . S
C1685 C1687 1.433 . S
C1686 C1682 1.350 . S
C1686 C1683 1.463 . S
C1686 N1690 1.427 . S
C1687 H1677 0.929 . S
C1687 C1685 1.433 . S
C1687 N1690 1.384 . S
C1688 H1679 0.929 . S
C1688 C1680 1.378 . S
C1688 C1683 1.350 . S
C1689 H1676 0.929 . S
C1689 C1681 1.433 . S
C1689 N1691 1.384 . S
N1690 C1686 1.427 . S
N1690 C1687 1.384 . S
N1691 C1683 1.427 . S
N1691 C1689 1.384 . S
H1692 C1698 0.930 . S
H1693 C1702 0.930 . S
H1694 C1707 0.929 . S
H1695 C1705 0.929 . S
H1696 C1700 0.929 . S
H1697 C1706 0.929 . S
C1698 H1692 0.930 . S
C1698 C1699 1.367 . S
C1698 C1706 1.378 . S
C1699 C1698 1.367 . S
C1699 C1707 1.433 . S
C1700 H1696 0.929 . S
C1700 C1702 1.378 . S
C1700 C1704 1.350 . S
C1701 C1704 1.463 . S
C1701 C1706 1.350 . S
C1701 N1709 1.427 . S
C1702 H1693 0.930 . S
C1702 C1700 1.378 . S
C1702 C1703 1.367 . S
C1703 C1702 1.367 . S
C1703 C1705 1.433 . S
C1704 C1700 1.350 . S
C1704 C1701 1.463 . S
C1704 N1708 1.427 . S
C1705 H1695 0.929 . S
C1705 C1703 1.433 . S
C1705 N1708 1.384 . S
C1706 H1697 0.929 . S
C1706 C1698 1.378 . S
C1706 C1701 1.350 . S
C1707 H1694 0.929 . S
C1707 C1699 1.433 . S
C1707 N1709 1.384 . S
N1708 C1704 1.427 . S
N1708 C1705 1.384 . S
N1709 C1701 1.427 . S
N1709 C1707 1.384 . S
H1710 C1716 0.930 . S
H1711 C1720 0.930 . S
H1712 C1725 0.929 . S
H1713 C1723 0.929 . S
H1714 C1718 0.929 . S
H1715 C1724 0.929 . S
C1716 H1710 0.930 . S
C1716 C1717 1.367 . S
C1716 C1724 1.378 . S
C1717 C1716 1.367 . S
C1717 C1725 1.433 . S
C1718 H1714 0.929 . S
C1718 C1720 1.378 . S
C1718 C1722 1.350 . S
C1719 C1722 1.463 . S
C1719 C1724 1.350 . S
C1719 N1727 1.427 . S
C1720 H1711 0.930 . S
C1720 C1718 1.378 . S
C1720 C1721 1.367 . S
C1721 C1720 1.367 . S
C1721 C1723 1.433 . S
C1722 C1718 1.350 . S
C1722 C1719 1.463 . S
C1722 N1726 1.427 . S
C1723 H1713 0.929 . S
C1723 C1721 1.433 . S
C1723 N1726 1.384 . S
C1724 H1715 0.929 . S
C1724 C1716 1.378 . S
C1724 C1719 1.350 . S
C1725 H1712 0.929 . S
C1725 C1717 1.433 . S
C1725 N1727 1.384 . S
N1726 C1722 1.427 . S
N1726 C1723 1.384 . S
N1727 C1719 1.427 . S
N1727 C1725 1.384 . S
H1728 C1734 0.930 . S
H1729 C1738 0.930 . S
H1730 C1743 0.929 . S
H1731 C1741 0.929 . S
H1732 C1736 0.929 . S
H1733 C1742 0.929 . S
C1734 H1728 0.930 . S
C1734 C1735 1.367 . S
C1734 C1742 1.378 . S
C1735 C1734 1.367 . S
C1735 C1743 1.433 . S
C1736 H1732 0.929 . S
C1736 C1738 1.378 . S
C1736 C1740 1.350 . S
C1737 C1740 1.463 . S
C1737 C1742 1.350 . S
C1737 N1745 1.427 . S
C1738 H1729 0.930 . S
C1738 C1736 1.378 . S
C1738 C1739 1.367 . S
C1739 C1738 1.367 . S
C1739 C1741 1.433 . S
C1740 C1736 1.350 . S
C1740 C1737 1.463 . S
C1740 N1744 1.427 . S
C1741 H1731 0.929 . S
C1741 C1739 1.433 . S
C1741 N1744 1.384 . S
C1742 H1733 0.929 . S
C1742 C1734 1.378 . S
C1742 C1737 1.350 . S
C1743 H1730 0.929 . S
C1743 C1735 1.433 . S
C1743 N1745 1.384 . S
N1744 C1740 1.427 . S
N1744 C1741 1.384 . S
N1745 C1737 1.427 . S
N1745 C1743 1.384 . S
H1746 C1752 0.930 . S
H1747 C1756 0.930 . S
H1748 C1761 0.929 . S
H1749 C1759 0.929 . S
H1750 C1754 0.929 . S
H1751 C1760 0.929 . S
C1752 H1746 0.930 . S
C1752 C1753 1.367 . S
C1752 C1760 1.378 . S
C1753 C1752 1.367 . S
C1753 C1761 1.433 . S
C1754 H1750 0.929 . S
C1754 C1756 1.378 . S
C1754 C1758 1.350 . S
C1755 C1758 1.463 . S
C1755 C1760 1.350 . S
C1755 N1763 1.427 . S
C1756 H1747 0.930 . S
C1756 C1754 1.378 . S
C1756 C1757 1.367 . S
C1757 C1756 1.367 . S
C1757 C1759 1.433 . S
C1758 C1754 1.350 . S
C1758 C1755 1.463 . S
C1758 N1762 1.427 . S
C1759 H1749 0.929 . S
C1759 C1757 1.433 . S
C1759 N1762 1.384 . S
C1760 H1751 0.929 . S
C1760 C1752 1.378 . S
C1760 C1755 1.350 . S
C1761 H1748 0.929 . S
C1761 C1753 1.433 . S
C1761 N1763 1.384 . S
N1762 C1758 1.427 . S
N1762 C1759 1.384 . S
N1763 C1755 1.427 . S
N1763 C1761 1.384 . S
H1764 C1770 0.930 . S
H1765 C1774 0.930 . S
H1766 C1779 0.929 . S
H1767 C1777 0.929 . S
H1768 C1772 0.929 . S
H1769 C1778 0.929 . S
C1770 H1764 0.930 . S
C1770 C1771 1.367 . S
C1770 C1778 1.378 . S
C1771 C1770 1.367 . S
C1771 C1779 1.433 . S
C1772 H1768 0.929 . S
C1772 C1774 1.378 . S
C1772 C1776 1.350 . S
C1773 C1776 1.463 . S
C1773 C1778 1.350 . S
C1773 N1781 1.427 . S
C1774 H1765 0.930 . S
C1774 C1772 1.378 . S
C1774 C1775 1.367 . S
C1775 C1774 1.367 . S
C1775 C1777 1.433 . S
C1776 C1772 1.350 . S
C1776 C1773 1.463 . S
C1776 N1780 1.427 . S
C1777 H1767 0.929 . S
C1777 C1775 1.433 . S
C1777 N1780 1.384 . S
C1778 H1769 0.929 . S
C1778 C1770 1.378 . S
C1778 C1773 1.350 . S
C1779 H1766 0.929 . S
C1779 C1771 1.433 . S
C1779 N1781 1.384 . S
N1780 C1776 1.427 . S
N1780 C1777 1.384 . S
N1781 C1773 1.427 . S
N1781 C1779 1.384 . S
H1782 C1788 0.930 . S
H1783 C1792 0.930 . S
H1784 C1797 0.929 . S
H1785 C1795 0.929 . S
H1786 C1790 0.929 . S
H1787 C1796 0.929 . S
C1788 H1782 0.930 . S
C1788 C1789 1.367 . S
C1788 C1796 1.378 . S
C1789 C1788 1.367 . S
C1789 C1797 1.433 . S
C1790 H1786 0.929 . S
C1790 C1792 1.378 . S
C1790 C1794 1.350 . S
C1791 C1794 1.463 . S
C1791 C1796 1.350 . S
C1791 N1799 1.427 . S
C1792 H1783 0.930 . S
C1792 C1790 1.378 . S
C1792 C1793 1.367 . S
C1793 C1792 1.367 . S
C1793 C1795 1.433 . S
C1794 C1790 1.350 . S
C1794 C1791 1.463 . S
C1794 N1798 1.427 . S
C1795 H1785 0.929 . S
C1795 C1793 1.433 . S
C1795 N1798 1.384 . S
C1796 H1787 0.929 . S
C1796 C1788 1.378 . S
C1796 C1791 1.350 . S
C1797 H1784 0.929 . S
C1797 C1789 1.433 . S
C1797 N1799 1.384 . S
N1798 C1794 1.427 . S
N1798 C1795 1.384 . S
N1799 C1791 1.427 . S
N1799 C1797 1.384 . S
H1800 C1806 0.930 . S
H1801 C1810 0.930 . S
H1802 C1815 0.929 . S
H1803 C1813 0.929 . S
H1804 C1808 0.929 . S
H1805 C1814 0.929 . S
C1806 H1800 0.930 . S
C1806 C1807 1.367 . S
C1806 C1814 1.378 . S
C1807 C1806 1.367 . S
C1807 C1815 1.433 . S
C1808 H1804 0.929 . S
C1808 C1810 1.378 . S
C1808 C1812 1.350 . S
C1809 C1812 1.463 . S
C1809 C1814 1.350 . S
C1809 N1817 1.427 . S
C1810 H1801 0.930 . S
C1810 C1808 1.378 . S
C1810 C1811 1.367 . S
C1811 C1810 1.367 . S
C1811 C1813 1.433 . S
C1812 C1808 1.350 . S
C1812 C1809 1.463 . S
C1812 N1816 1.427 . S
C1813 H1803 0.929 . S
C1813 C1811 1.433 . S
C1813 N1816 1.384 . S
C1814 H1805 0.929 . S
C1814 C1806 1.378 . S
C1814 C1809 1.350 . S
C1815 H1802 0.929 . S
C1815 C1807 1.433 . S
C1815 N1817 1.384 . S
N1816 C1812 1.427 . S
N1816 C1813 1.384 . S
N1817 C1809 1.427 . S
N1817 C1815 1.384 . S
H1818 C1824 0.930 . S
H1819 C1828 0.930 . S
H1820 C1833 0.929 . S
H1821 C1831 0.929 . S
H1822 C1826 0.929 . S
H1823 C1832 0.929 . S
C1824 H1818 0.930 . S
C1824 C1825 1.367 . S
C1824 C1832 1.378 . S
C1825 C1824 1.367 . S
C1825 C1833 1.433 . S
C1826 H1822 0.929 . S
C1826 C1828 1.378 . S
C1826 C1830 1.350 . S
C1827 C1830 1.463 . S
C1827 C1832 1.350 . S
C1827 N1835 1.427 . S
C1828 H1819 0.930 . S
C1828 C1826 1.378 . S
C1828 C1829 1.367 . S
C1829 C1828 1.367 . S
C1829 C1831 1.433 . S
C1830 C1826 1.350 . S
C1830 C1827 1.463 . S
C1830 N1834 1.427 . S
C1831 H1821 0.929 . S
C1831 C1829 1.433 . S
C1831 N1834 1.384 . S
C1832 H1823 0.929 . S
C1832 C1824 1.378 . S
C1832 C1827 1.350 . S
C1833 H1820 0.929 . S
C1833 C1825 1.433 . S
C1833 N1835 1.384 . S
N1834 C1830 1.427 . S
N1834 C1831 1.384 . S
N1835 C1827 1.427 . S
N1835 C1833 1.384 . S
H1836 C1842 0.930 . S
H1837 C1846 0.930 . S
H1838 C1851 0.929 . S
H1839 C1849 0.929 . S
H1840 C1844 0.929 . S
H1841 C1850 0.929 . S
C1842 H1836 0.930 . S
C1842 C1843 1.367 . S
C1842 C1850 1.378 . S
C1843 C1842 1.367 . S
C1843 C1851 1.433 . S
C1844 H1840 0.929 . S
C1844 C1846 1.378 . S
C1844 C1848 1.350 . S
C1845 C1848 1.463 . S
C1845 C1850 1.350 . S
C1845 N1853 1.427 . S
C1846 H1837 0.930 . S
C1846 C1844 1.378 . S
C1846 C1847 1.367 . S
C1847 C1846 1.367 . S
C1847 C1849 1.433 . S
C1848 C1844 1.350 . S
C1848 C1845 1.463 . S
C1848 N1852 1.427 . S
C1849 H1839 0.929 . S
C1849 C1847 1.433 . S
C1849 N1852 1.384 . S
C1850 H1841 0.929 . S
C1850 C1842 1.378 . S
C1850 C1845 1.350 . S
C1851 H1838 0.929 . S
C1851 C1843 1.433 . S
C1851 N1853 1.384 . S
N1852 C1848 1.427 . S
N1852 C1849 1.384 . S
N1853 C1845 1.427 . S
N1853 C1851 1.384 . S
H1854 C1860 0.930 . S
H1855 C1864 0.930 . S
H1856 C1869 0.929 . S
H1857 C1867 0.929 . S
H1858 C1862 0.929 . S
H1859 C1868 0.929 . S
C1860 H1854 0.930 . S
C1860 C1861 1.367 . S
C1860 C1868 1.378 . S
C1861 C1860 1.367 . S
C1861 C1869 1.433 . S
C1862 H1858 0.929 . S
C1862 C1864 1.378 . S
C1862 C1866 1.350 . S
C1863 C1866 1.463 . S
C1863 C1868 1.350 . S
C1863 N1871 1.427 . S
C1864 H1855 0.930 . S
C1864 C1862 1.378 . S
C1864 C1865 1.367 . S
C1865 C1864 1.367 . S
C1865 C1867 1.433 . S
C1866 C1862 1.350 . S
C1866 C1863 1.463 . S
C1866 N1870 1.427 . S
C1867 H1857 0.929 . S
C1867 C1865 1.433 . S
C1867 N1870 1.384 . S
C1868 H1859 0.929 . S
C1868 C1860 1.378 . S
C1868 C1863 1.350 . S
C1869 H1856 0.929 . S
C1869 C1861 1.433 . S
C1869 N1871 1.384 . S
N1870 C1866 1.427 . S
N1870 C1867 1.384 . S
N1871 C1863 1.427 . S
N1871 C1869 1.384 . S
C799 C182 1.020 . S
C803 C17 1.036 . S
C817 C50 1.020 . S
C821 C215 1.036 . S
C835 C83 1.023 . S
C839 C248 1.025 . S
C853 C149 1.029 . S
C857 C116 1.031 . S
C871 C281 1.036 . S
C875 C776 1.020 . S
C889 C710 1.036 . S
C893 C314 1.018 . S
C907 C347 1.019 . S
C911 C743 1.030 . S
C925 C545 1.020 . S
C929 C380 1.036 . S
C943 C413 1.031 . S
C947 C677 1.029 . S
C961 C446 1.027 . S
C965 C578 1.021 . S
C979 C611 1.020 . S
C983 C479 1.028 . S
C997 C512 1.018 . S
C1001 C644 1.035 . S
C1015 N104 1.648 . S
C1019 C28 1.733 . S
C1033 C61 1.739 . S
C1037 N5 1.664 . S
C1051 C94 1.734 . S
C1055 N38 1.647 . S
C1069 N71 1.664 . S
C1073 C127 1.738 . S
C1087 N170 1.649 . S
C1091 C160 1.732 . S
C1105 C193 1.742 . S
C1109 N203 1.659 . S
C1123 N236 1.648 . S
C1127 C226 1.733 . S
C1141 N137 1.648 . S
C1145 C259 1.738 . S
C1159 N599 1.662 . S
C1163 C292 1.742 . S
C1177 C325 1.740 . S
C1181 N632 1.664 . S
C1195 N665 1.648 . S
C1199 C358 1.738 . S
C1213 C391 1.737 . S
C1217 N566 1.647 . S
C1231 N731 1.663 . S
C1235 C424 1.737 . S
C1249 C457 1.735 . S
C1253 N533 1.660 . S
C1267 N764 1.664 . S
C1271 C490 1.739 . S
C1285 C523 1.732 . S
C1289 N698 1.651 . S
C1303 N302 1.664 . S
C1307 C556 1.741 . S
C1321 N500 1.659 . S
C1325 C589 1.734 . S
C1339 C622 1.742 . S
C1343 N401 1.662 . S
C1357 C655 1.734 . S
C1361 N434 1.660 . S
C1375 N467 1.661 . S
C1379 C688 1.736 . S
C1393 N368 1.646 . S
C1397 C721 1.735 . S
C1411 N269 1.657 . S
C1415 C754 1.733 . S
C1429 C787 1.742 . S
C1433 N335 1.655 . S
C1447 C8 1.252 . S
C1451 N542 1.209 . S
C1465 N773 1.213 . S
C1469 C41 1.252 . S
C1483 C74 1.249 . S
C1487 N707 1.203 . S
C1501 N740 1.201 . S
C1505 C107 1.248 . S
C1519 C140 1.253 . S
C1523 N575 1.214 . S
C1537 C173 1.254 . S
C1541 N608 1.214 . S
C1555 N641 1.213 . S
C1559 C206 1.254 . S
C1573 N674 1.214 . S
C1577 C239 1.253 . S
C1591 N14 1.214 . S
C1595 C272 1.254 . S
C1609 C305 1.254 . S
C1613 N47 1.213 . S
C1627 C338 1.248 . S
C1631 N80 1.207 . S
C1645 C371 1.252 . S
C1649 N113 1.212 . S
C1663 C404 1.247 . S
C1667 N146 1.198 . S
C1681 C437 1.243 . S
C1685 N179 1.194 . S
C1699 C470 1.253 . S
C1703 N212 1.212 . S
C1717 C503 1.244 . S
C1721 N245 1.194 . S
C1735 N278 1.193 . S
C1739 C536 1.243 . S
C1753 C569 1.253 . S
C1757 N410 1.212 . S
C1771 C602 1.243 . S
C1775 N443 1.194 . S
C1789 N476 1.214 . S
C1793 C635 1.253 . S
C1807 C668 1.247 . S
C1811 N509 1.199 . S
C1825 N344 1.198 . S
C1829 C701 1.246 . S
C1843 N377 1.214 . S
C1847 C734 1.253 . S
C1861 C767 1.251 . S
C1865 N311 1.206 . S
