# Generated by pormake.
# Topology smw, (6)-cn, num edge types: 1
# Building blocks:
#     Node 0, Type 0, BuildingBlock: MIDCAF_clean_sbu_0, # of connection points: 6
#     Node 1, Type 0, BuildingBlock: MIDCAF_clean_sbu_0, # of connection points: 6
#     Node 2, Type 0, BuildingBlock: MIDCAF_clean_sbu_0, # of connection points: 6
#     Node 3, Type 0, BuildingBlock: MIDCAF_clean_sbu_0, # of connection points: 6
#     Node 4, Type 0, BuildingBlock: MIDCAF_clean_sbu_0, # of connection points: 6
#     Node 5, Type 0, BuildingBlock: MIDCAF_clean_sbu_0, # of connection points: 6
#     Node 6, Type 0, BuildingBlock: MIDCAF_clean_sbu_0, # of connection points: 6
#     Node 7, Type 0, BuildingBlock: MIDCAF_clean_sbu_0, # of connection points: 6
#     Node 8, Type 0, BuildingBlock: MIDCAF_clean_sbu_0, # of connection points: 6
#     Node 9, Type 0, BuildingBlock: MIDCAF_clean_sbu_0, # of connection points: 6
#     Node 10, Type 0, BuildingBlock: MIDCAF_clean_sbu_0, # of connection points: 6
#     Node 11, Type 0, BuildingBlock: MIDCAF_clean_sbu_0, # of connection points: 6
#     Edge 12, Type (0, 0), BuildingBlock: XIVTED_clean_linker_0, # of connection points: 2
#     Edge 13, Type (0, 0), BuildingBlock: XIVTED_clean_linker_0, # of connection points: 2
#     Edge 14, Type (0, 0), BuildingBlock: XIVTED_clean_linker_0, # of connection points: 2
#     Edge 15, Type (0, 0), BuildingBlock: XIVTED_clean_linker_0, # of connection points: 2
#     Edge 16, Type (0, 0), BuildingBlock: XIVTED_clean_linker_0, # of connection points: 2
#     Edge 17, Type (0, 0), BuildingBlock: XIVTED_clean_linker_0, # of connection points: 2
#     Edge 18, Type (0, 0), BuildingBlock: XIVTED_clean_linker_0, # of connection points: 2
#     Edge 19, Type (0, 0), BuildingBlock: XIVTED_clean_linker_0, # of connection points: 2
#     Edge 20, Type (0, 0), BuildingBlock: XIVTED_clean_linker_0, # of connection points: 2
#     Edge 21, Type (0, 0), BuildingBlock: XIVTED_clean_linker_0, # of connection points: 2
#     Edge 22, Type (0, 0), BuildingBlock: XIVTED_clean_linker_0, # of connection points: 2
#     Edge 23, Type (0, 0), BuildingBlock: XIVTED_clean_linker_0, # of connection points: 2
#     Edge 24, Type (0, 0), BuildingBlock: XIVTED_clean_linker_0, # of connection points: 2
#     Edge 25, Type (0, 0), BuildingBlock: XIVTED_clean_linker_0, # of connection points: 2
#     Edge 26, Type (0, 0), BuildingBlock: XIVTED_clean_linker_0, # of connection points: 2
#     Edge 27, Type (0, 0), BuildingBlock: XIVTED_clean_linker_0, # of connection points: 2
#     Edge 28, Type (0, 0), BuildingBlock: XIVTED_clean_linker_0, # of connection points: 2
#     Edge 29, Type (0, 0), BuildingBlock: XIVTED_clean_linker_0, # of connection points: 2
#     Edge 30, Type (0, 0), BuildingBlock: XIVTED_clean_linker_0, # of connection points: 2
#     Edge 31, Type (0, 0), BuildingBlock: XIVTED_clean_linker_0, # of connection points: 2
#     Edge 32, Type (0, 0), BuildingBlock: XIVTED_clean_linker_0, # of connection points: 2
#     Edge 33, Type (0, 0), BuildingBlock: XIVTED_clean_linker_0, # of connection points: 2
#     Edge 34, Type (0, 0), BuildingBlock: XIVTED_clean_linker_0, # of connection points: 2
#     Edge 35, Type (0, 0), BuildingBlock: XIVTED_clean_linker_0, # of connection points: 2
#     Edge 36, Type (0, 0), BuildingBlock: XIVTED_clean_linker_0, # of connection points: 2
#     Edge 37, Type (0, 0), BuildingBlock: XIVTED_clean_linker_0, # of connection points: 2
#     Edge 38, Type (0, 0), BuildingBlock: XIVTED_clean_linker_0, # of connection points: 2
#     Edge 39, Type (0, 0), BuildingBlock: XIVTED_clean_linker_0, # of connection points: 2
#     Edge 40, Type (0, 0), BuildingBlock: XIVTED_clean_linker_0, # of connection points: 2
#     Edge 41, Type (0, 0), BuildingBlock: XIVTED_clean_linker_0, # of connection points: 2
#     Edge 42, Type (0, 0), BuildingBlock: XIVTED_clean_linker_0, # of connection points: 2
#     Edge 43, Type (0, 0), BuildingBlock: XIVTED_clean_linker_0, # of connection points: 2
#     Edge 44, Type (0, 0), BuildingBlock: XIVTED_clean_linker_0, # of connection points: 2
#     Edge 45, Type (0, 0), BuildingBlock: XIVTED_clean_linker_0, # of connection points: 2
#     Edge 46, Type (0, 0), BuildingBlock: XIVTED_clean_linker_0, # of connection points: 2
#     Edge 47, Type (0, 0), BuildingBlock: XIVTED_clean_linker_0, # of connection points: 2
# Relax obj value: 0.362
# Max RMSD: 0.258
# Mean RMSD: 0.258
data_MOF--net-smw--node1-MIDCAF_clean_sbu_0--edge1-XIVTED_clean_linker_0
_symmetry_space_group_name_H-M    P1
_symmetry_Int_Tables_number       1
_symmetry_cell_setting            triclinic
loop_
_symmetry_equiv_pos_as_xyz
'x, y, z'
_cell_length_a     57.916031
_cell_length_b     58.08652
_cell_length_c     17.288739
_cell_angle_alpha  90.287705
_cell_angle_beta   89.829159
_cell_angle_gamma 120.21883
loop_
_atom_site_label
_atom_site_type_symbol
_atom_site_fract_x
_atom_site_fract_y
_atom_site_fract_z
_atom_type_partial_charge
Zn0 Zn 0.42432 0.10808 0.8537 0.0
Zn1 Zn 0.41355 0.11468 0.10421 0.0
Zn2 Zn 0.4253 0.10826 0.98755 0.0
C3 C 0.46014 0.11085 0.12043 0.0
C4 C 0.37721 0.06693 0.07916 0.0
O5 O 0.40161 0.12667 0.95963 0.0
O6 O 0.39771 0.11928 0.83467 0.0
C7 C 0.4787 0.13515 0.89618 0.0
O8 O 0.46249 0.12123 0.05279 0.0
O9 O 0.43821 0.10247 0.15619 0.0
O10 O 0.37454 0.0869 0.09257 0.0
O11 O 0.39852 0.07061 0.04473 0.0
O12 O 0.46384 0.13239 0.83911 0.0
O13 O 0.46823 0.12742 0.96373 0.0
O14 O 0.41097 0.06637 0.97058 0.0
O15 O 0.41223 0.06977 0.84346 0.0
C16 C 0.40817 0.05596 0.90347 0.0
O17 O 0.46054 0.14506 0.02933 0.0
O18 O 0.4311 0.15416 0.07866 0.0
C19 C 0.39167 0.12755 0.89471 0.0
C20 C 0.45483 0.16228 0.05626 0.0
Zn21 Zn 0.28116 0.41471 0.11011 0.0
Zn22 Zn 0.30395 0.4285 0.86671 0.0
Zn23 Zn 0.30294 0.43004 0.9987 0.0
C24 C 0.3414 0.41561 0.92003 0.0
C25 C 0.3263 0.48209 0.90131 0.0
O26 O 0.29756 0.46286 0.04427 0.0
O27 O 0.25839 0.43105 0.08556 0.0
C28 C 0.29723 0.3819 0.09256 0.0
O29 O 0.3298 0.41464 0.98407 0.0
O30 O 0.33503 0.42295 0.85913 0.0
O31 O 0.3124 0.46596 0.84831 0.0
O32 O 0.32654 0.47283 0.96876 0.0
O33 O 0.27336 0.37683 0.10141 0.0
O34 O 0.31407 0.40362 0.05804 0.0
O35 O 0.32484 0.46541 0.07136 0.0
O36 O 0.31471 0.43936 0.17298 0.0
C37 C 0.32987 0.46164 0.14145 0.0
O38 O 0.26175 0.40558 0.96771 0.0
O39 O 0.26751 0.39704 0.84831 0.0
C40 C 0.27374 0.45537 0.06852 0.0
C41 C 0.25215 0.39263 0.90523 0.0
Zn42 Zn 0.8618 0.31538 0.85855 0.0
Zn43 Zn 0.84253 0.28298 0.09471 0.0
Zn44 Zn 0.85495 0.31054 0.98791 0.0
C45 C 0.86435 0.33636 0.14299 0.0
C46 C 0.89653 0.30526 0.08756 0.0
O47 O 0.84721 0.27165 0.94742 0.0
O48 O 0.86195 0.28239 0.82898 0.0
C49 C 0.82448 0.32967 0.87765 0.0
O50 O 0.87816 0.33873 0.08174 0.0
O51 O 0.84501 0.31356 0.1599 0.0
O52 O 0.87757 0.28132 0.0947 0.0
O53 O 0.89142 0.32234 0.05598 0.0
O54 O 0.83193 0.3202 0.82357 0.0
O55 O 0.83153 0.32858 0.94725 0.0
O56 O 0.89599 0.34261 0.99716 0.0
O57 O 0.89665 0.34859 0.87116 0.0
C58 C 0.90817 0.35559 0.93605 0.0
O59 O 0.81729 0.30525 0.02362 0.0
O60 O 0.80701 0.26364 0.0361 0.0
C61 C 0.85205 0.26501 0.8814 0.0
C62 C 0.79949 0.28074 0.03242 0.0
Zn63 Zn 0.53233 0.87209 0.1358 0.0
Zn64 Zn 0.52702 0.87114 0.8808 0.0
Zn65 Zn 0.53037 0.87181 0.00929 0.0
C66 C 0.55477 0.9227 0.92326 0.0
C67 C 0.47689 0.84939 0.91005 0.0
O68 O 0.53139 0.83598 0.04261 0.0
O69 O 0.50815 0.83307 0.14602 0.0
C70 C 0.57993 0.90956 0.11521 0.0
O71 O 0.56059 0.91122 0.9766 0.0
O72 O 0.53511 0.90887 0.87957 0.0
O73 O 0.48899 0.84281 0.86189 0.0
O74 O 0.48983 0.86354 0.96938 0.0
O75 O 0.57132 0.88915 0.15736 0.0
O76 O 0.5659 0.90861 0.05611 0.0
O77 O 0.49392 0.86973 0.05064 0.0
O78 O 0.5164 0.89503 0.14926 0.0
C79 C 0.49576 0.88486 0.10756 0.0
O80 O 0.54125 0.84297 0.96774 0.0
O81 O 0.55689 0.86431 0.85842 0.0
C82 C 0.51659 0.82225 0.09936 0.0
C83 C 0.55543 0.84733 0.90635 0.0
Zn84 Zn 0.6386 0.53667 0.87926 0.0
Zn85 Zn 0.67531 0.53971 0.17857 0.0
Zn86 Zn 0.65147 0.53649 1.00207 0.0
C87 C 0.62083 0.4922 0.12374 0.0
C88 C 0.65981 0.57933 0.14573 0.0
O89 O 0.68284 0.54203 0.9201 0.0
O90 O 0.67374 0.5637 0.83309 0.0
C91 C 0.61021 0.48558 0.90751 0.0
O92 O 0.62191 0.50101 0.05521 0.0
O93 O 0.63953 0.50447 0.1725 0.0
O94 O 0.66799 0.56884 0.19474 0.0
O95 O 0.65369 0.57027 0.07548 0.0
O96 O 0.62361 0.49885 0.84994 0.0
O97 O 0.61466 0.49707 0.97432 0.0
O98 O 0.64562 0.57036 0.99143 0.0
O99 O 0.61244 0.54742 0.9116 0.0
C100 C 0.62569 0.56796 0.9525 0.0
O101 O 0.68908 0.5366 0.9995 0.0
O102 O 0.69706 0.56417 0.09134 0.0
C103 C 0.68965 0.55689 0.85992 0.0
C104 C 0.7049 0.55123 0.05263 0.0
Zn105 Zn 0.10426 0.65899 0.12762 0.0
Zn106 Zn 0.09619 0.65005 0.8794 0.0
Zn107 Zn 0.10254 0.65617 1.0016 0.0
C108 C 0.04874 0.62158 0.93646 0.0
C109 C 0.12677 0.6308 0.89139 0.0
O110 O 0.13716 0.69503 0.02213 0.0
O111 O 0.1439 0.67633 0.12235 0.0
C112 C 0.06535 0.66764 0.11116 0.0
O113 O 0.06085 0.64217 0.98021 0.0
O114 O 0.06271 0.61501 0.89639 0.0
O115 O 0.12835 0.64895 0.84813 0.0
O116 O 0.11419 0.62667 0.95633 0.0
O117 O 0.08593 0.67959 0.15307 0.0
O118 O 0.06587 0.65397 0.05286 0.0
O119 O 0.10888 0.62402 0.03991 0.0
O120 O 0.08366 0.61966 0.14029 0.0
C121 C 0.09488 0.61037 0.09811 0.0
O122 O 0.12673 0.6952 0.94664 0.0
O123 O 0.09546 0.68334 0.85865 0.0
C124 C 0.15288 0.69516 0.07434 0.0
C125 C 0.11635 0.70149 0.89067 0.0
Zn126 Zn 0.85963 0.52253 0.36911 0.0
Zn127 Zn 0.86946 0.54397 0.62422 0.0
Zn128 Zn 0.86358 0.53109 0.49703 0.0
C129 C 0.91905 0.56595 0.56789 0.0
C130 C 0.84541 0.48997 0.63204 0.0
O131 O 0.82782 0.53074 0.45803 0.0
O132 O 0.81969 0.50086 0.36815 0.0
C133 C 0.89735 0.57295 0.36606 0.0
O134 O 0.90534 0.56243 0.50639 0.0
O135 O 0.90747 0.55603 0.63097 0.0
O136 O 0.84543 0.50857 0.67026 0.0
O137 O 0.85494 0.49467 0.56262 0.0
O138 O 0.87725 0.55912 0.32383 0.0
O139 O 0.89835 0.56387 0.4333 0.0
O140 O 0.86041 0.49167 0.48247 0.0
O141 O 0.88052 0.50384 0.3697 0.0
C142 C 0.87274 0.48795 0.42594 0.0
O143 O 0.83455 0.54334 0.53208 0.0
O144 O 0.85846 0.57134 0.62448 0.0
C145 C 0.81186 0.51391 0.40788 0.0
C146 C 0.83834 0.56181 0.5807 0.0
Zn147 Zn 0.30362 0.88756 0.62681 0.0
Zn148 Zn 0.30109 0.8712 0.37838 0.0
Zn149 Zn 0.30532 0.87432 0.50743 0.0
C150 C 0.35246 0.88237 0.41099 0.0
C151 C 0.29172 0.91066 0.40746 0.0
O152 O 0.26796 0.84546 0.56415 0.0
O153 O 0.26497 0.87646 0.62918 0.0
C154 C 0.33206 0.85976 0.63671 0.0
O155 O 0.34246 0.87558 0.47928 0.0
O156 O 0.33975 0.88625 0.35825 0.0
O157 O 0.28351 0.89251 0.35683 0.0
O158 O 0.30261 0.90827 0.46865 0.0
O159 O 0.31451 0.86146 0.67635 0.0
O160 O 0.33692 0.86989 0.56785 0.0
O161 O 0.34672 0.89855 0.5481 0.0
O162 O 0.33358 0.92467 0.59786 0.0
C163 C 0.35253 0.92155 0.57399 0.0
O164 O 0.27293 0.83327 0.49582 0.0
O165 O 0.28071 0.83238 0.3716 0.0
C166 C 0.25419 0.85257 0.60613 0.0
C167 C 0.26913 0.82026 0.43262 0.0
Zn168 Zn 0.41191 0.30194 0.373 0.0
Zn169 Zn 0.46742 0.30292 0.71158 0.0
Zn170 Zn 0.42768 0.309 0.5045 0.0
C171 C 0.43161 0.32473 0.70147 0.0
C172 C 0.48181 0.3369 0.57874 0.0
O173 O 0.43056 0.27539 0.45027 0.0
O174 O 0.42427 0.27939 0.32676 0.0
C175 C 0.3739 0.30308 0.43872 0.0
O176 O 0.43019 0.31894 0.6291 0.0
O177 O 0.44635 0.32066 0.74808 0.0
O178 O 0.47315 0.31254 0.59528 0.0
O179 O 0.46779 0.34161 0.53121 0.0
O180 O 0.37289 0.28486 0.39664 0.0
O181 O 0.39488 0.3168 0.47969 0.0
O182 O 0.46067 0.33914 0.4419 0.0
O183 O 0.43569 0.34152 0.34993 0.0
C184 C 0.45817 0.3509 0.38291 0.0
O185 O 0.41541 0.26754 0.52969 0.0
O186 O 0.44819 0.2858 0.61045 0.0
C187 C 0.43104 0.26909 0.37934 0.0
C188 C 0.42528 0.26618 0.59435 0.0
Zn189 Zn 0.10362 0.43275 0.63384 0.0
Zn190 Zn 0.10312 0.42304 0.30072 0.0
Zn191 Zn 0.10547 0.4327 0.50975 0.0
C192 C 0.10939 0.47413 0.39263 0.0
C193 C 0.06359 0.38592 0.40626 0.0
O194 O 0.1324 0.42001 0.55697 0.0
O195 O 0.10329 0.39844 0.64841 0.0
C196 C 0.1316 0.48327 0.61167 0.0
O197 O 0.11251 0.4694 0.46315 0.0
O198 O 0.10537 0.45799 0.33719 0.0
O199 O 0.08387 0.38882 0.36933 0.0
O200 O 0.06721 0.4023 0.46135 0.0
O201 O 0.13612 0.46789 0.65213 0.0
O202 O 0.11702 0.47362 0.55058 0.0
O203 O 0.06367 0.40527 0.54472 0.0
O204 O 0.06956 0.43238 0.64107 0.0
C205 C 0.05392 0.41323 0.59842 0.0
O206 O 0.13958 0.42871 0.47566 0.0
O207 O 0.11545 0.40582 0.37894 0.0
C208 C 0.12355 0.40236 0.61053 0.0
C209 C 0.13858 0.42067 0.40632 0.0
Zn210 Zn 0.66713 0.11326 0.2543 0.0
Zn211 Zn 0.66585 0.11629 0.66383 0.0
Zn212 Zn 0.65697 0.11875 0.50092 0.0
C213 C 0.66506 0.07576 0.59455 0.0
C214 C 0.61749 0.11156 0.63972 0.0
O215 O 0.69171 0.15573 0.45829 0.0
O216 O 0.68367 0.13101 0.35782 0.0
C217 C 0.66018 0.08044 0.39203 0.0
O218 O 0.6532 0.08162 0.54197 0.0
O219 O 0.68245 0.09414 0.6364 0.0
O220 O 0.62665 0.09949 0.67839 0.0
O221 O 0.62846 0.12258 0.57523 0.0
O222 O 0.67423 0.10314 0.36111 0.0
O223 O 0.65058 0.08025 0.45882 0.0
O224 O 0.63244 0.11721 0.39864 0.0
O225 O 0.63199 0.11312 0.26827 0.0
C226 C 0.62188 0.11569 0.33159 0.0
O227 O 0.69838 0.14818 0.53588 0.0
O228 O 0.68452 0.15533 0.6455 0.0
C229 C 0.69363 0.15439 0.38533 0.0
C230 C 0.70381 0.15911 0.60318 0.0
Zn231 Zn 0.5515 0.6588 0.69739 0.0
Zn232 Zn 0.52512 0.65859 0.3839 0.0
Zn233 Zn 0.52768 0.6532 0.5106 0.0
C234 C 0.48782 0.60686 0.41382 0.0
C235 C 0.57171 0.66478 0.3823 0.0
O236 O 0.53679 0.6907 0.56795 0.0
O237 O 0.56967 0.69634 0.64668 0.0
C238 C 0.49051 0.61969 0.64141 0.0
O239 O 0.48904 0.61734 0.48069 0.0
O240 O 0.50573 0.62016 0.36469 0.0
O241 O 0.56302 0.67789 0.34708 0.0
O242 O 0.55895 0.65103 0.44195 0.0
O243 O 0.51081 0.63262 0.68483 0.0
O244 O 0.49259 0.62233 0.56745 0.0
O245 O 0.56094 0.64634 0.52727 0.0
O246 O 0.57973 0.67763 0.61282 0.0
C247 C 0.57996 0.65913 0.57558 0.0
O248 O 0.52651 0.69007 0.49218 0.0
O249 O 0.50297 0.67548 0.38583 0.0
C250 C 0.55598 0.70525 0.61487 0.0
C251 C 0.51181 0.6921 0.44049 0.0
H252 H 0.4873 0.17047 0.17776 0.0
H253 H 0.40465 0.22372 0.29765 0.0
H254 H 0.46562 0.21145 0.01259 0.0
H255 H 0.48131 0.2771 0.39969 0.0
H256 H 0.42565 0.20464 0.2171 0.0
H257 H 0.48988 0.20146 0.27848 0.0
C258 C 0.48514 0.18726 0.16125 0.0
C259 C 0.47521 0.18793 0.08779 0.0
C260 C 0.43771 0.2201 0.25865 0.0
C261 C 0.47791 0.22287 0.20165 0.0
C262 C 0.42572 0.23062 0.30522 0.0
C263 C 0.44128 0.25168 0.35554 0.0
C264 C 0.46546 0.23096 0.26171 0.0
C265 C 0.4687 0.26049 0.36213 0.0
C266 C 0.48626 0.20469 0.21916 0.0
C267 C 0.47269 0.20997 0.06924 0.0
N268 N 0.48023 0.25036 0.31434 0.0
N269 N 0.47276 0.22594 0.1268 0.0
H270 H 0.13823 0.41959 0.24823 0.0
H271 H 0.29065 0.48404 0.20105 0.0
H272 H 0.19121 0.45725 0.44184 0.0
H273 H 0.23615 0.46536 0.01116 0.0
H274 H 0.25805 0.48567 0.28771 0.0
H275 H 0.17507 0.44433 0.16059 0.0
C276 C 0.15756 0.43336 0.27267 0.0
C277 C 0.16142 0.4363 0.35301 0.0
C278 C 0.25362 0.48242 0.22648 0.0
C279 C 0.20457 0.46432 0.2514 0.0
C280 C 0.27252 0.48205 0.17652 0.0
C281 C 0.26572 0.47388 0.09929 0.0
C282 C 0.22796 0.47455 0.19825 0.0
C283 C 0.24196 0.47132 0.07068 0.0
C284 C 0.17877 0.44764 0.22212 0.0
C285 C 0.18728 0.45423 0.38035 0.0
N286 N 0.22351 0.47072 0.1206 0.0
N287 N 0.208 0.46717 0.32968 0.0
H288 H 0.79133 0.30162 0.1628 0.0
H289 H 0.67526 0.15516 0.24051 0.0
H290 H 0.75021 0.24103 0.9897 0.0
H291 H 0.72883 0.20726 0.41657 0.0
H292 H 0.69081 0.19251 0.15351 0.0
H293 H 0.75656 0.2744 0.25652 0.0
C294 C 0.77413 0.28331 0.14324 0.0
C295 C 0.77379 0.27321 0.06907 0.0
C296 C 0.69906 0.19592 0.21137 0.0
C297 C 0.73446 0.24184 0.17578 0.0
C298 C 0.69036 0.17441 0.26112 0.0
C299 C 0.70146 0.17776 0.33513 0.0
C300 C 0.7196 0.22108 0.23473 0.0
C301 C 0.72022 0.20368 0.3592 0.0
C302 C 0.75452 0.26756 0.19718 0.0
C303 C 0.75127 0.2493 0.04674 0.0
N304 N 0.72922 0.22433 0.30841 0.0
N305 N 0.73277 0.23409 0.10045 0.0
H306 H 0.46821 0.69676 0.4178 0.0
H307 H 0.55781 0.81409 0.12674 0.0
H308 H 0.55414 0.74187 0.42752 0.0
H309 H 0.47207 0.77653 0.13855 0.0
H310 H 0.5566 0.7851 0.23086 0.0
H311 H 0.46885 0.72778 0.32217 0.0
C312 C 0.48716 0.71408 0.4026 0.0
C313 C 0.51119 0.71658 0.42865 0.0
C314 C 0.53799 0.78286 0.2097 0.0
C315 C 0.51227 0.75097 0.31655 0.0
C316 C 0.53864 0.7988 0.14878 0.0
C317 C 0.51501 0.79769 0.1252 0.0
C318 C 0.5135 0.76571 0.24598 0.0
C319 C 0.49068 0.77792 0.15592 0.0
C320 C 0.4876 0.73134 0.34643 0.0
C321 C 0.53522 0.73921 0.40768 0.0
N322 N 0.49055 0.76296 0.21594 0.0
N323 N 0.53527 0.75516 0.35051 0.0
H324 H 0.69638 0.50082 0.07557 0.0
H325 H 0.80246 0.55525 0.41982 0.0
H326 H 0.74994 0.5837 0.12914 0.0
H327 H 0.76875 0.47521 0.33044 0.0
H328 H 0.77368 0.56251 0.3332 0.0
H329 H 0.717 0.48853 0.17943 0.0
C330 C 0.7131 0.51637 0.10734 0.0
C331 C 0.72179 0.54329 0.09371 0.0
C332 C 0.77223 0.54317 0.33351 0.0
C333 C 0.74422 0.52952 0.21401 0.0
C334 C 0.78828 0.53885 0.3841 0.0
C335 C 0.78835 0.5148 0.38074 0.0
C336 C 0.75635 0.52332 0.27949 0.0
C337 C 0.76962 0.49426 0.3332 0.0
C338 C 0.72442 0.50939 0.16751 0.0
C339 C 0.74292 0.56274 0.13779 0.0
N340 N 0.75468 0.49915 0.28294 0.0
N341 N 0.75325 0.55548 0.19653 0.0
H342 H 0.27427 0.77727 0.40444 0.0
H343 H 0.15919 0.74382 0.10039 0.0
H344 H 0.21663 0.80301 0.42497 0.0
H345 H 0.20041 0.69946 0.1087 0.0
H346 H 0.18608 0.77089 0.20913 0.0
H347 H 0.24841 0.74784 0.29781 0.0
C348 C 0.25523 0.77543 0.38967 0.0
C349 C 0.24776 0.79291 0.42201 0.0
C350 C 0.18963 0.75557 0.18617 0.0
C351 C 0.21917 0.76084 0.29825 0.0
C352 C 0.17496 0.74077 0.12238 0.0
C353 C 0.17737 0.71917 0.0971 0.0
C354 C 0.20693 0.74877 0.2233 0.0
C355 C 0.1979 0.71587 0.12772 0.0
C356 C 0.24096 0.75932 0.32719 0.0
C357 C 0.2231 0.78992 0.40098 0.0
N358 N 0.21152 0.73006 0.19093 0.0
N359 N 0.21011 0.77498 0.33819 0.0
H360 H 0.60082 0.75433 0.61647 0.0
H361 H 0.54024 0.79769 0.96128 0.0
H362 H 0.51896 0.71031 0.69321 0.0
H363 H 0.59322 0.8566 0.79718 0.0
H364 H 0.54543 0.76394 0.89111 0.0
H365 H 0.60824 0.79145 0.70279 0.0
C366 C 0.58432 0.7529 0.65003 0.0
C367 C 0.55904 0.72984 0.64675 0.0
C368 C 0.55635 0.78443 0.87176 0.0
C369 C 0.56787 0.77053 0.74851 0.0
C370 C 0.55361 0.8037 0.91206 0.0
C371 C 0.56548 0.82964 0.88296 0.0
C372 C 0.57118 0.79137 0.80288 0.0
C373 C 0.58302 0.8365 0.81971 0.0
C374 C 0.58868 0.77369 0.69989 0.0
C375 C 0.53844 0.72822 0.69275 0.0
N376 N 0.58494 0.81727 0.7804 0.0
N377 N 0.54341 0.7482 0.74271 0.0
H378 H 0.71666 0.59728 0.75581 0.0
H379 H 0.78506 0.52947 0.55878 0.0
H380 H 0.71905 0.53247 0.86952 0.0
H381 H 0.84324 0.60683 0.64801 0.0
H382 H 0.74984 0.53367 0.62395 0.0
H383 H 0.75486 0.6044 0.67497 0.0
C384 C 0.72536 0.58476 0.7642 0.0
C385 C 0.71455 0.564 0.81853 0.0
C386 C 0.77029 0.55002 0.62687 0.0
C387 C 0.7572 0.57174 0.72637 0.0
C388 C 0.79032 0.54779 0.58927 0.0
C389 C 0.81705 0.56775 0.59853 0.0
C390 C 0.77707 0.57243 0.67287 0.0
C391 C 0.82279 0.59092 0.64015 0.0
C392 C 0.74702 0.58891 0.71839 0.0
C393 C 0.72666 0.54855 0.82801 0.0
N394 N 0.8029 0.59251 0.67716 0.0
N395 N 0.74707 0.5524 0.78115 0.0
H396 H 0.22288 0.80018 0.56434 0.0
H397 H 0.15667 0.74895 0.94939 0.0
H398 H 0.22642 0.85951 0.72299 0.0
H399 H 0.10904 0.71339 0.74459 0.0
H400 H 0.18531 0.7894 0.87407 0.0
H401 H 0.18334 0.76628 0.63231 0.0
C402 C 0.21501 0.80621 0.61205 0.0
C403 C 0.22797 0.8327 0.63779 0.0
C404 C 0.16817 0.77283 0.84662 0.0
C405 C 0.18362 0.79399 0.71745 0.0
C406 C 0.15197 0.74983 0.88929 0.0
C407 C 0.13075 0.72772 0.85293 0.0
C408 C 0.16347 0.77312 0.76711 0.0
C409 C 0.12534 0.7299 0.77488 0.0
C410 C 0.19253 0.78687 0.65092 0.0
C411 C 0.2171 0.83928 0.70128 0.0
N412 N 0.14207 0.75192 0.73391 0.0
N413 N 0.1959 0.81989 0.74036 0.0
H414 H 0.42698 0.27079 0.75226 0.0
H415 H 0.35185 0.11712 0.7928 0.0
H416 H 0.38464 0.21524 0.56795 0.0
H417 H 0.40075 0.17296 0.96935 0.0
H418 H 0.34667 0.15199 0.73151 0.0
H419 H 0.40269 0.23599 0.84615 0.0
C420 C 0.41266 0.25127 0.73127 0.0
C421 C 0.40878 0.2457 0.65189 0.0
C422 C 0.35777 0.15645 0.78514 0.0
C423 C 0.38069 0.20538 0.75979 0.0
C424 C 0.36056 0.13648 0.82053 0.0
C425 C 0.37777 0.14264 0.88403 0.0
C426 C 0.37279 0.18267 0.81294 0.0
C427 C 0.38795 0.16766 0.91903 0.0
C428 C 0.39842 0.23137 0.78526 0.0
C429 C 0.38883 0.22018 0.6287 0.0
N430 N 0.38612 0.18714 0.88134 0.0
N431 N 0.37598 0.20072 0.68238 0.0
H432 H 0.17442 0.43244 0.65576 0.0
H433 H 0.2241 0.35075 0.80695 0.0
H434 H 0.10892 0.35135 0.64993 0.0
H435 H 0.2149 0.40256 0.96786 0.0
H436 H 0.18435 0.34407 0.73755 0.0
H437 H 0.19707 0.41933 0.75 0.0
C438 C 0.16537 0.41167 0.67202 0.0
C439 C 0.14012 0.3928 0.64471 0.0
C440 C 0.19035 0.35582 0.79026 0.0
C441 C 0.16536 0.37799 0.75279 0.0
C442 C 0.21293 0.35964 0.8299 0.0
C443 C 0.22325 0.3781 0.89104 0.0
C444 C 0.17881 0.37103 0.81164 0.0
C445 C 0.20793 0.38873 0.91961 0.0
C446 C 0.17792 0.40438 0.72682 0.0
C447 C 0.12864 0.36626 0.66953 0.0
N448 N 0.18705 0.38606 0.87731 0.0
N449 N 0.1415 0.35942 0.72236 0.0
H450 H 0.81278 0.2209 0.95607 0.0
H451 H 0.75438 0.17748 0.54201 0.0
H452 H 0.86124 0.2445 0.74974 0.0
H453 H 0.70952 0.1518 0.75501 0.0
H454 H 0.79545 0.1905 0.61614 0.0
H455 H 0.77829 0.18239 0.88671 0.0
C456 C 0.81669 0.21745 0.89708 0.0
C457 C 0.83922 0.23675 0.85725 0.0
C458 C 0.77649 0.18162 0.64625 0.0
C459 C 0.79939 0.1935 0.77645 0.0
C460 C 0.75317 0.17447 0.60401 0.0
C461 C 0.72879 0.16495 0.64285 0.0
C462 C 0.77518 0.17905 0.72749 0.0
C463 C 0.72808 0.16039 0.72289 0.0
C464 C 0.79677 0.19556 0.85689 0.0
C465 C 0.84349 0.23072 0.78151 0.0
N466 N 0.7509 0.16784 0.76247 0.0
N467 N 0.82323 0.21023 0.74232 0.0
H468 H 0.26163 0.92153 0.30863 0.0
H469 H 0.39135 0.03245 0.13642 0.0
H470 H 0.33383 0.95909 0.44478 0.0
H471 H 0.32471 0.04596 0.12185 0.0
H472 H 0.36654 -0.00262 0.23122 0.0
H473 H 0.27976 0.9617 0.22813 0.0
C474 C 0.28079 0.93863 0.32353 0.0
C475 C 0.29644 0.93692 0.38273 0.0
C476 C 0.35732 0.00793 0.20661 0.0
C477 C 0.31748 0.98189 0.2894 0.0
C478 C 0.37122 0.02756 0.1516 0.0
C479 C 0.36001 0.04205 0.1213 0.0
C480 C 0.33181 0.00228 0.22998 0.0
C481 C 0.33398 0.03515 0.14407 0.0
C482 C 0.29115 0.96135 0.27724 0.0
C483 C 0.32116 0.95953 0.39956 0.0
N484 N 0.32055 0.01553 0.197 0.0
N485 N 0.33135 0.98078 0.3513 0.0
H486 H 0.38709 0.35527 0.43487 0.0
H487 H 0.26769 0.33201 0.15605 0.0
H488 H 0.32311 0.27599 0.38083 0.0
H489 H 0.3483 0.39824 0.13712 0.0
H490 H 0.28298 0.31223 0.25431 0.0
H491 H 0.36664 0.37342 0.34941 0.0
C492 C 0.36818 0.34171 0.40758 0.0
C493 C 0.35691 0.31406 0.41455 0.0
C494 C 0.29727 0.331 0.22808 0.0
C495 C 0.33385 0.33468 0.31506 0.0
C496 C 0.28865 0.34217 0.17159 0.0
C497 C 0.30676 0.36684 0.1383 0.0
C498 C 0.324 0.34494 0.25265 0.0
C499 C 0.33365 0.37917 0.16086 0.0
C500 C 0.35681 0.35206 0.35753 0.0
C501 C 0.33251 0.29746 0.37673 0.0
N502 N 0.34136 0.36829 0.21736 0.0
N503 N 0.32193 0.30799 0.32776 0.0
H504 H 0.03992 0.40986 0.33616 0.0
H505 H 0.91393 0.27662 0.173 0.0
H506 H 0.03008 0.3325 0.37988 0.0
H507 H 0.93795 0.35631 0.09739 0.0
H508 H 0.95462 0.29509 0.25276 0.0
H509 H 0.00024 0.38917 0.25418 0.0
C510 C 0.02893 0.38838 0.32961 0.0
C511 C 0.03781 0.37275 0.36556 0.0
C512 C 0.95103 0.30839 0.21775 0.0
C513 C -0.00748 0.34876 0.27104 0.0
C514 C 0.92789 0.29787 0.17199 0.0
C515 C 0.92246 0.31489 0.12786 0.0
C516 C 0.96866 0.33609 0.21972 0.0
C517 C 0.94119 0.34228 0.12955 0.0
C518 C 0.00646 0.37654 0.28217 0.0
C519 C 0.02349 0.34508 0.35355 0.0
N520 N 0.96322 0.35194 0.17484 0.0
N521 N 0.00135 0.33385 0.30754 0.0
H522 H 0.60257 0.95892 0.04783 0.0
H523 H 0.63711 0.02986 0.44983 0.0
H524 H 0.60616 0.91912 0.25356 0.0
H525 H 0.66916 0.07442 0.23917 0.0
H526 H 0.62585 -0.01108 0.37891 0.0
H527 H 0.62872 0.00167 0.11367 0.0
C528 C 0.60945 0.95915 0.10592 0.0
C529 C 0.60169 0.93532 0.14531 0.0
C530 C 0.63546 0.00772 0.34838 0.0
C531 C 0.63071 0.98411 0.2223 0.0
C532 C 0.6416 0.03104 0.38861 0.0
C533 C 0.65335 0.05555 0.34993 0.0
C534 C 0.64062 0.00884 0.2686 0.0
C535 C 0.65942 0.05596 0.27101 0.0
C536 C 0.62426 0.9836 0.14383 0.0
C537 C 0.61125 0.93695 0.22108 0.0
N538 N 0.65258 0.03292 0.23266 0.0
N539 N 0.62464 0.96088 0.25782 0.0
H540 H 0.67424 0.60323 0.28727 0.0
H541 H 0.59634 0.68245 0.24176 0.0
H542 H 0.63916 0.60737 0.07181 0.0
H543 H 0.59856 0.64238 0.44898 0.0
H544 H 0.62714 0.67059 0.1799 0.0
H545 H 0.66204 0.63374 0.34486 0.0
C546 C 0.66422 0.61072 0.25124 0.0
C547 C 0.65672 0.60172 0.17462 0.0
C548 C 0.62122 0.66498 0.23947 0.0
C549 C 0.6431 0.63716 0.24103 0.0
C550 C 0.60372 0.67173 0.27494 0.0
C551 C 0.59435 0.66288 0.35026 0.0
C552 C 0.62964 0.64974 0.28026 0.0
C553 C 0.60485 0.64935 0.39071 0.0
C554 C 0.6574 0.62829 0.28449 0.0
C555 C 0.64456 0.61298 0.13113 0.0
N556 N 0.62172 0.64296 0.3549 0.0
N557 N 0.63766 0.62982 0.1653 0.0
H558 H 0.9457 0.60701 0.43473 0.0
H559 H 0.05776 0.69338 0.23344 0.0
H560 H 0.90187 0.59437 0.22245 0.0
H561 H 0.0149 0.63632 0.05214 0.0
H562 H 0.01524 0.67988 0.29847 0.0
H563 H -0.01386 0.64044 0.36989 0.0
C564 C 0.9444 0.61164 0.37511 0.0
C565 C 0.9205 0.5972 0.33358 0.0
C566 C 0.01521 0.67063 0.24389 0.0
C567 C 0.96668 0.63574 0.25881 0.0
C568 C 0.03941 0.67839 0.2064 0.0
C569 C 0.03998 0.66528 0.13843 0.0
C570 C -0.00849 0.64968 0.21296 0.0
C571 C 0.01553 0.64658 0.10509 0.0
C572 C 0.9675 0.631 0.33814 0.0
C573 C 0.92001 0.60448 0.25639 0.0
N574 N -0.00771 0.639 0.14341 0.0
N575 N 0.94291 0.62269 0.22089 0.0
H576 H 0.68357 0.0466 0.66794 0.0
H577 H 0.54261 0.95967 0.87694 0.0
H578 H 0.61149 0.04714 0.60892 0.0
H579 H 0.60844 0.94592 0.90994 0.0
H580 H 0.57077 -0.00271 0.79331 0.0
H581 H 0.65791 0.01118 0.76212 0.0
C582 C 0.66227 0.03876 0.67353 0.0
C583 C 0.64959 0.04961 0.63073 0.0
C584 C 0.57924 0.98634 0.81978 0.0
C585 C 0.62074 0.01078 0.74057 0.0
C586 C 0.56334 0.96525 0.8684 0.0
C587 C 0.57339 0.94989 0.89955 0.0
C588 C 0.60515 -0.0083 0.80177 0.0
C589 C 0.60019 0.95756 0.88701 0.0
C590 C 0.64776 0.01898 0.72793 0.0
C591 C 0.622 0.03907 0.64012 0.0
N592 N 0.61514 0.97778 0.83769 0.0
N593 N 0.6086 0.02057 0.69509 0.0
H594 H 0.66478 0.61344 0.89007 0.0
H595 H 0.55067 0.60984 0.63501 0.0
H596 H 0.58171 0.57285 0.95521 0.0
H597 H 0.63111 0.6763 0.61876 0.0
H598 H 0.56421 0.59272 0.74358 0.0
H599 H 0.65547 0.6373 0.78978 0.0
C600 C 0.64489 0.61076 0.8862 0.0
C601 C 0.62381 0.59106 0.92983 0.0
C602 C 0.57904 0.61084 0.71555 0.0
C603 C 0.61292 0.61705 0.81429 0.0
C604 C 0.57147 0.62019 0.65241 0.0
C605 C 0.58995 0.64432 0.61812 0.0
C606 C 0.60528 0.62562 0.74375 0.0
C607 C 0.61646 0.6575 0.64404 0.0
C608 C 0.63949 0.6239 0.82792 0.0
C609 C 0.59834 0.58781 0.92197 0.0
N610 N 0.62344 0.64801 0.70591 0.0
N611 N 0.59341 0.60018 0.86359 0.0
H612 H 0.95573 0.5505 0.55997 0.0
H613 H 0.0276 0.65262 0.90328 0.0
H614 H 0.94695 0.61918 0.59084 0.0
H615 H 0.01099 0.5715 0.89649 0.0
H616 H 0.00146 0.64437 0.78521 0.0
H617 H -0.01275 0.56556 0.66723 0.0
C618 C 0.96177 0.56968 0.58637 0.0
C619 C 0.94781 0.58294 0.57049 0.0
C620 C 0.00307 0.62823 0.81063 0.0
C621 C -0.01757 0.59957 0.69383 0.0
C622 C 0.01723 0.63264 0.87926 0.0
C623 C 0.02205 0.61287 0.90743 0.0
C624 C -0.0063 0.60386 0.77189 0.0
C625 C 0.0081 0.58735 0.87494 0.0
C626 C 0.97895 0.57775 0.64939 0.0
C627 C 0.95672 0.60796 0.60434 0.0
N628 N -0.00478 0.58376 0.80697 0.0
N629 N 0.97265 0.61502 0.6676 0.0
H630 H 0.38001 0.91179 0.68224 0.0
H631 H 0.36186 0.01513 0.8529 0.0
H632 H 0.38314 0.97398 0.54063 0.0
H633 H 0.44226 0.03714 0.91648 0.0
H634 H 0.36025 0.98086 0.76679 0.0
H635 H 0.40063 0.94368 0.78825 0.0
C636 C 0.3869 0.93257 0.67132 0.0
C637 C 0.37905 0.94024 0.60401 0.0
C638 C 0.37784 -0.00748 0.80217 0.0
C639 C 0.40208 0.97623 0.72397 0.0
C640 C 0.37854 0.01159 0.8523 0.0
C641 C 0.40213 0.02866 0.89175 0.0
C642 C 0.40091 -0.00923 0.7916 0.0
C643 C 0.42365 0.02397 0.88718 0.0
C644 C 0.3983 0.95064 0.7324 0.0
C645 C 0.38834 0.96731 0.59268 0.0
N646 N 0.4229 0.0058 0.83571 0.0
N647 N 0.39835 0.98426 0.65362 0.0
H648 H 0.39167 0.44045 0.86345 0.0
H649 H 0.37833 0.30588 0.71739 0.0
H650 H 0.32915 0.36495 0.94864 0.0
H651 H 0.45582 0.37506 0.7556 0.0
H652 H 0.35769 0.32864 0.78422 0.0
H653 H 0.41474 0.41821 0.8106 0.0
C654 C 0.38337 0.41931 0.87327 0.0
C655 C 0.3589 0.40445 0.91149 0.0
C656 C 0.3792 0.33878 0.7776 0.0
C657 C 0.38408 0.37884 0.8477 0.0
C658 C 0.39084 0.32601 0.73886 0.0
C659 C 0.41862 0.33888 0.7312 0.0
C660 C 0.39559 0.36463 0.80707 0.0
C661 C 0.43426 0.36473 0.76046 0.0
C662 C 0.3963 0.40663 0.84244 0.0
C663 C 0.34834 0.37703 0.92087 0.0
N664 N 0.42251 0.37692 0.79679 0.0
N665 N 0.36077 0.36491 0.88768 0.0
H666 H 0.94302 0.33865 0.95913 0.0
H667 H 0.01723 0.4286 0.59396 0.0
H668 H 0.93794 0.40716 0.89164 0.0
H669 H 0.03067 0.3661 0.67234 0.0
H670 H -0.01466 0.41839 0.69899 0.0
H671 H 0.97793 0.35004 0.86301 0.0
C672 C 0.95054 0.35717 0.92777 0.0
C673 C 0.9372 0.3717 0.93185 0.0
C674 C -0.00517 0.4065 0.69257 0.0
C675 C 0.97589 0.38398 0.81915 0.0
C676 C 0.01233 0.41177 0.63111 0.0
C677 C 0.02636 0.39806 0.62472 0.0
C678 C -0.00845 0.38749 0.748 0.0
C679 C 0.0199 0.37686 0.67515 0.0
C680 C 0.96981 0.3631 0.87075 0.0
C681 C 0.94751 0.39526 0.8892 0.0
N682 N 0.00333 0.37254 0.73602 0.0
N683 N 0.96563 0.4002 0.83243 0.0
H684 H 0.4597 0.07859 0.23587 0.0
H685 H 0.61895 0.15781 0.28024 0.0
H686 H 0.51318 0.14548 0.09452 0.0
H687 H 0.57014 0.07697 0.35818 0.0
H688 H 0.5787 0.15753 0.23563 0.0
H689 H 0.49852 0.08087 0.30067 0.0
C690 C 0.47962 0.09381 0.21874 0.0
C691 C 0.48329 0.11182 0.15955 0.0
C692 C 0.57669 0.13997 0.26358 0.0
C693 C 0.5276 0.11483 0.23422 0.0
C694 C 0.59958 0.14027 0.28992 0.0
C695 C 0.59764 0.11758 0.32411 0.0
C696 C 0.55168 0.11665 0.27059 0.0
C697 C 0.57225 0.09505 0.33363 0.0
C698 C 0.5017 0.09506 0.25563 0.0
C699 C 0.50947 0.13106 0.13932 0.0
N700 N 0.55018 0.09506 0.30647 0.0
N701 N 0.53059 0.13214 0.17683 0.0
H702 H 0.33285 0.46901 0.29815 0.0
H703 H 0.48606 0.58057 0.28251 0.0
H704 H 0.37734 0.50136 0.0876 0.0
H705 H 0.43735 0.57521 0.47874 0.0
H706 H 0.44717 0.54511 0.21949 0.0
H707 H 0.37141 0.50245 0.37254 0.0
C708 C 0.35064 0.4834 0.26756 0.0
C709 C 0.35186 0.48289 0.18643 0.0
C710 C 0.44492 0.5515 0.27659 0.0
C711 C 0.39587 0.52051 0.2709 0.0
C712 C 0.4672 0.57173 0.31325 0.0
C713 C 0.46495 0.58143 0.38597 0.0
C714 C 0.42001 0.54032 0.31294 0.0
C715 C 0.43997 0.56864 0.42269 0.0
C716 C 0.37252 0.50239 0.31001 0.0
C717 C 0.37533 0.50168 0.14963 0.0
N718 N 0.41828 0.54874 0.38548 0.0
N719 N 0.39649 0.51963 0.19215 0.0
H720 H 0.83107 0.43731 0.42714 0.0
H721 H 0.9116 0.37908 0.19783 0.0
H722 H 0.91613 0.48352 0.39146 0.0
H723 H 0.82618 0.34554 0.19522 0.0
H724 H 0.91537 0.41468 0.28538 0.0
H725 H 0.83056 0.3992 0.36502 0.0
C726 C 0.84982 0.43898 0.40962 0.0
C727 C 0.87372 0.46332 0.41563 0.0
C728 C 0.89585 0.39945 0.26541 0.0
C729 C 0.87326 0.42032 0.34086 0.0
C730 C 0.89376 0.37937 0.21522 0.0
C731 C 0.86852 0.35933 0.19019 0.0
C732 C 0.87252 0.39931 0.28977 0.0
C733 C 0.84595 0.36035 0.21451 0.0
C734 C 0.84951 0.41743 0.3725 0.0
C735 C 0.89735 0.46486 0.38853 0.0
N736 N 0.84847 0.37992 0.26269 0.0
N737 N 0.89654 0.44373 0.35155 0.0
H738 H 0.36322 0.84246 0.39994 0.0
H739 H 0.49681 0.92895 0.16148 0.0
H740 H 0.3971 0.92684 0.36618 0.0
H741 H 0.4444 0.84485 0.12234 0.0
H742 H 0.46334 0.92934 0.2469 0.0
H743 H 0.39812 0.84357 0.31645 0.0
C744 C 0.37878 0.86138 0.3776 0.0
C745 C 0.3778 0.88467 0.39009 0.0
C746 C 0.45894 0.9109 0.21853 0.0
C747 C 0.41661 0.88596 0.29313 0.0
C748 C 0.4778 0.91076 0.16913 0.0
C749 C 0.47307 0.88687 0.13509 0.0
C750 C 0.43557 0.88685 0.23497 0.0
C751 C 0.44848 0.86369 0.14718 0.0
C752 C 0.3982 0.86192 0.32869 0.0
C753 C 0.39766 0.90861 0.35826 0.0
N754 N 0.43069 0.86412 0.1976 0.0
N755 N 0.41628 0.90866 0.31058 0.0
H756 H 0.58741 0.49918 0.21467 0.0
H757 H 0.50424 0.35182 0.35206 0.0
H758 H 0.5966 0.43823 0.10002 0.0
H759 H 0.46532 0.39807 0.32751 0.0
H760 H 0.54256 0.38574 0.27882 0.0
H761 H 0.54592 0.4646 0.27428 0.0
C762 C 0.58043 0.47841 0.20178 0.0
C763 C 0.59518 0.47124 0.15316 0.0
C764 C 0.52563 0.38843 0.2897 0.0
C765 C 0.54853 0.432 0.22165 0.0
C766 C 0.50404 0.36938 0.33212 0.0
C767 C 0.48192 0.37248 0.34592 0.0
C768 C 0.52533 0.41102 0.26317 0.0
C769 C 0.48219 0.39519 0.31793 0.0
C770 C 0.55687 0.45884 0.23541 0.0
C771 C 0.58564 0.44429 0.13772 0.0
N772 N 0.50383 0.41392 0.27853 0.0
N773 N 0.56296 0.42545 0.17305 0.0
H774 H 0.15055 0.52394 0.36261 0.0
H775 H 0.05361 0.56593 0.15884 0.0
H776 H 0.06472 0.47612 0.36919 0.0
H777 H 0.13786 0.60346 0.10956 0.0
H778 H 0.05727 0.53434 0.24318 0.0
H779 H 0.14672 0.55725 0.28524 0.0
C780 C 0.13094 0.52104 0.35004 0.0
C781 C 0.1079 0.49768 0.37266 0.0
C782 C 0.07492 0.5492 0.21313 0.0
C783 C 0.1033 0.53452 0.28166 0.0
C784 C 0.07274 0.56693 0.16418 0.0
C785 C 0.09544 0.58703 0.12698 0.0
C786 C 0.10009 0.55191 0.22587 0.0
C787 C 0.11986 0.5879 0.13645 0.0
C788 C 0.12873 0.53968 0.30476 0.0
C789 C 0.08289 0.49423 0.35355 0.0
N790 N 0.12165 0.57077 0.18601 0.0
N791 N 0.08121 0.51235 0.30841 0.0
H792 H 0.43511 0.80576 0.84201 0.0
H793 H 0.38258 0.87244 0.59166 0.0
H794 H 0.46009 0.88544 0.92087 0.0
H795 H 0.3241 0.83183 0.77115 0.0
H796 H 0.41519 0.86668 0.66738 0.0
H797 H 0.39679 0.80447 0.77589 0.0
C798 C 0.43212 0.82268 0.84702 0.0
C799 C 0.45059 0.84566 0.88758 0.0
C800 C 0.39505 0.85875 0.68921 0.0
C801 C 0.40774 0.84459 0.81012 0.0
C802 C 0.3764 0.86185 0.64607 0.0
C803 C 0.35059 0.85279 0.67543 0.0
C804 C 0.3877 0.84608 0.76125 0.0
C805 C 0.34384 0.83936 0.74676 0.0
C806 C 0.41046 0.82196 0.80898 0.0
C807 C 0.44605 0.8672 0.89141 0.0
N808 N 0.36232 0.83648 0.78756 0.0
N809 N 0.42535 0.86637 0.85176 0.0
H810 H 0.61285 0.44105 0.87781 0.0
H811 H 0.48516 0.38486 0.61156 0.0
H812 H 0.55798 0.47043 0.89126 0.0
H813 H 0.51932 0.33642 0.67289 0.0
H814 H 0.51322 0.41752 0.70972 0.0
H815 H 0.5795 0.4023 0.80428 0.0
C816 C 0.59329 0.43867 0.86815 0.0
C817 C 0.58784 0.45855 0.89205 0.0
C818 C 0.51451 0.39969 0.70186 0.0
C819 C 0.55032 0.41533 0.80385 0.0
C820 C 0.49873 0.3812 0.64516 0.0
C821 C 0.49997 0.3579 0.63378 0.0
C822 C 0.53208 0.39518 0.74656 0.0
C823 C 0.51775 0.35411 0.67976 0.0
C824 C 0.57441 0.41679 0.82524 0.0
C825 C 0.56264 0.45516 0.87539 0.0
N826 N 0.53325 0.37262 0.73366 0.0
N827 N 0.54498 0.43425 0.831 0.0
H828 H 0.12421 0.52316 0.55064 0.0
H829 H 0.12183 0.58453 0.95344 0.0
H830 H 0.15235 0.5021 0.75457 0.0
H831 H 0.14875 0.63406 0.74972 0.0
H832 H 0.12769 0.55084 0.88278 0.0
H833 H 0.1277 0.56163 0.62201 0.0
C834 C 0.13151 0.5268 0.60962 0.0
C835 C 0.13791 0.50926 0.64641 0.0
C836 C 0.13257 0.56931 0.85432 0.0
C837 C 0.14098 0.55242 0.72882 0.0
C838 C 0.12936 0.58855 0.89472 0.0
C839 C 0.1346 0.61212 0.85761 0.0
C840 C 0.14037 0.57348 0.77603 0.0
C841 C 0.14419 0.61614 0.78087 0.0
C842 C 0.13338 0.54863 0.65039 0.0
C843 C 0.14709 0.51494 0.7235 0.0
N844 N 0.14625 0.59686 0.74228 0.0
N845 N 0.14786 0.53566 0.76247 0.0
H846 H 0.60011 0.14569 0.59473 0.0
H847 H 0.50777 0.11646 0.96901 0.0
H848 H 0.5911 0.09078 0.77571 0.0
H849 H 0.51136 0.1666 0.78084 0.0
H850 H 0.54482 0.11367 0.91072 0.0
H851 H 0.57194 0.15808 0.66937 0.0
C852 C 0.59197 0.136 0.64956 0.0
C853 C 0.59781 0.11699 0.67839 0.0
C854 C 0.53792 0.12578 0.88301 0.0
C855 C 0.5661 0.13154 0.76515 0.0
C856 C 0.51707 0.1278 0.91716 0.0
C857 C 0.50633 0.14159 0.87931 0.0
C858 C 0.54797 0.13763 0.81058 0.0
C859 C 0.51889 0.15551 0.81143 0.0
C860 C 0.57614 0.14331 0.69264 0.0
C861 C 0.58704 0.10543 0.75067 0.0
N862 N 0.53873 0.15281 0.77853 0.0
N863 N 0.57176 0.11287 0.79137 0.0
H864 H 0.43898 0.59898 0.58499 0.0
H865 H 0.37214 0.51891 0.97666 0.0
H866 H 0.48255 0.6015 0.78964 0.0
H867 H 0.32749 0.50764 0.76718 0.0
H868 H 0.4113 0.55588 0.91554 0.0
H869 H 0.39691 0.57013 0.65404 0.0
C870 C 0.43974 0.59304 0.64361 0.0
C871 C 0.46444 0.60189 0.68018 0.0
C872 C 0.39281 0.54557 0.88321 0.0
C873 C 0.41643 0.57019 0.76138 0.0
C874 C 0.3703 0.5246 0.91871 0.0
C875 C 0.3466 0.50959 0.87683 0.0
C876 C 0.39165 0.55165 0.80504 0.0
C877 C 0.34548 0.51824 0.80154 0.0
C878 C 0.41573 0.57702 0.68365 0.0
C879 C 0.46411 0.59488 0.75821 0.0
N880 N 0.36776 0.53829 0.76761 0.0
N881 N 0.44064 0.57948 0.79577 0.0
H882 H 0.8362 0.47954 0.78604 0.0
H883 H 0.79753 0.32737 0.7463 0.0
H884 H 0.83241 0.44112 0.5684 0.0
H885 H 0.82956 0.37335 0.95541 0.0
H886 H 0.79673 0.36514 0.68754 0.0
H887 H 0.82225 0.43768 0.8527 0.0
C888 C 0.83222 0.46224 0.75189 0.0
C889 C 0.83577 0.46398 0.67108 0.0
C890 C 0.8034 0.36677 0.74682 0.0
C891 C 0.81937 0.41574 0.74786 0.0
C892 C 0.80355 0.34512 0.78085 0.0
C893 C 0.8141 0.34737 0.85546 0.0
C894 C 0.81374 0.39083 0.78776 0.0
C895 C 0.82139 0.37075 0.89767 0.0
C896 C 0.82423 0.43833 0.79031 0.0
C897 C 0.83024 0.44081 0.63052 0.0
N898 N 0.82157 0.39181 0.86267 0.0
N899 N 0.82236 0.41764 0.66935 0.0
loop_
_geom_bond_atom_site_label_1
_geom_bond_atom_site_label_2
_geom_bond_distance
_geom_bond_site_symmetry_2
_ccdc_geom_bond_type
Zn0 O6 1.920 . S
Zn0 O12 1.898 . S
Zn0 O15 1.905 . S
Zn1 O9 1.905 . S
Zn1 O10 1.898 . S
Zn1 O18 1.920 . S
Zn2 O5 2.080 1_554 S
Zn2 O8 2.114 . S
Zn2 O11 2.120 . S
Zn2 O13 2.120 1_554 S
Zn2 O14 2.114 1_554 S
Zn2 O17 2.080 . S
C3 O8 1.166 . S
C3 O9 1.182 . S
C4 O10 1.167 . S
C4 O11 1.299 . S
O5 Zn2 2.080 1_556 S
O5 C19 1.305 . S
O6 Zn0 1.920 . S
O6 C19 1.234 . S
C7 O12 1.167 . S
C7 O13 1.299 . S
O8 Zn2 2.114 . S
O8 C3 1.166 . S
O9 Zn1 1.905 . S
O9 C3 1.182 . S
O10 Zn1 1.898 . S
O10 C4 1.167 . S
O11 Zn2 2.120 . S
O11 C4 1.299 . S
O12 Zn0 1.898 . S
O12 C7 1.167 . S
O13 Zn2 2.120 1_556 S
O13 C7 1.299 . S
O14 Zn2 2.114 1_556 S
O14 C16 1.166 . S
O15 Zn0 1.905 . S
O15 C16 1.182 . S
C16 O14 1.166 . S
C16 O15 1.182 . S
O17 Zn2 2.080 . S
O17 C20 1.305 . S
O18 Zn1 1.920 . S
O18 C20 1.234 . S
C19 O5 1.305 . S
C19 O6 1.234 . S
C20 O17 1.305 . S
C20 O18 1.234 . S
Zn21 O27 1.920 . S
Zn21 O33 1.898 . S
Zn21 O36 1.905 . S
Zn22 O30 1.905 . S
Zn22 O31 1.898 . S
Zn22 O39 1.920 . S
Zn23 O26 2.080 . S
Zn23 O29 2.114 1_554 S
Zn23 O32 2.120 1_554 S
Zn23 O34 2.120 . S
Zn23 O35 2.114 . S
Zn23 O38 2.080 1_554 S
C24 O29 1.166 . S
C24 O30 1.182 . S
C25 O31 1.167 . S
C25 O32 1.299 . S
O26 Zn23 2.080 . S
O26 C40 1.305 . S
O27 Zn21 1.920 . S
O27 C40 1.234 . S
C28 O33 1.167 . S
C28 O34 1.299 . S
O29 Zn23 2.114 1_556 S
O29 C24 1.166 . S
O30 Zn22 1.905 . S
O30 C24 1.182 . S
O31 Zn22 1.898 . S
O31 C25 1.167 . S
O32 Zn23 2.120 1_556 S
O32 C25 1.299 . S
O33 Zn21 1.898 . S
O33 C28 1.167 . S
O34 Zn23 2.120 . S
O34 C28 1.299 . S
O35 Zn23 2.114 . S
O35 C37 1.166 . S
O36 Zn21 1.905 . S
O36 C37 1.182 . S
C37 O35 1.166 . S
C37 O36 1.182 . S
O38 Zn23 2.080 1_556 S
O38 C41 1.305 . S
O39 Zn22 1.920 . S
O39 C41 1.234 . S
C40 O26 1.305 . S
C40 O27 1.234 . S
C41 O38 1.305 . S
C41 O39 1.234 . S
Zn42 O48 1.920 . S
Zn42 O54 1.898 . S
Zn42 O57 1.905 . S
Zn43 O51 1.905 . S
Zn43 O52 1.898 . S
Zn43 O60 1.920 . S
Zn44 O47 2.080 1_554 S
Zn44 O50 2.114 . S
Zn44 O53 2.120 . S
Zn44 O55 2.120 1_554 S
Zn44 O56 2.114 1_554 S
Zn44 O59 2.080 . S
C45 O50 1.166 . S
C45 O51 1.182 . S
C46 O52 1.167 . S
C46 O53 1.299 . S
O47 Zn44 2.080 1_556 S
O47 C61 1.305 . S
O48 Zn42 1.920 . S
O48 C61 1.234 . S
C49 O54 1.167 . S
C49 O55 1.299 . S
O50 Zn44 2.114 . S
O50 C45 1.166 . S
O51 Zn43 1.905 . S
O51 C45 1.182 . S
O52 Zn43 1.898 . S
O52 C46 1.167 . S
O53 Zn44 2.120 . S
O53 C46 1.299 . S
O54 Zn42 1.898 . S
O54 C49 1.167 . S
O55 Zn44 2.120 1_556 S
O55 C49 1.299 . S
O56 Zn44 2.114 1_556 S
O56 C58 1.166 . S
O57 Zn42 1.905 . S
O57 C58 1.182 . S
C58 O56 1.166 . S
C58 O57 1.182 . S
O59 Zn44 2.080 . S
O59 C62 1.305 . S
O60 Zn43 1.920 . S
O60 C62 1.234 . S
C61 O47 1.305 . S
C61 O48 1.234 . S
C62 O59 1.305 . S
C62 O60 1.234 . S
Zn63 O69 1.920 . S
Zn63 O75 1.898 . S
Zn63 O78 1.905 . S
Zn64 O72 1.905 . S
Zn64 O73 1.898 . S
Zn64 O81 1.920 . S
Zn65 O68 2.080 . S
Zn65 O71 2.114 1_554 S
Zn65 O74 2.120 1_554 S
Zn65 O76 2.120 . S
Zn65 O77 2.114 . S
Zn65 O80 2.080 1_554 S
C66 O71 1.166 . S
C66 O72 1.182 . S
C67 O73 1.167 . S
C67 O74 1.299 . S
O68 Zn65 2.080 . S
O68 C82 1.305 . S
O69 Zn63 1.920 . S
O69 C82 1.234 . S
C70 O75 1.167 . S
C70 O76 1.299 . S
O71 Zn65 2.114 1_556 S
O71 C66 1.166 . S
O72 Zn64 1.905 . S
O72 C66 1.182 . S
O73 Zn64 1.898 . S
O73 C67 1.167 . S
O74 Zn65 2.120 1_556 S
O74 C67 1.299 . S
O75 Zn63 1.898 . S
O75 C70 1.167 . S
O76 Zn65 2.120 . S
O76 C70 1.299 . S
O77 Zn65 2.114 . S
O77 C79 1.166 . S
O78 Zn63 1.905 . S
O78 C79 1.182 . S
C79 O77 1.166 . S
C79 O78 1.182 . S
O80 Zn65 2.080 1_556 S
O80 C83 1.305 . S
O81 Zn64 1.920 . S
O81 C83 1.234 . S
C82 O68 1.305 . S
C82 O69 1.234 . S
C83 O80 1.305 . S
C83 O81 1.234 . S
Zn84 O90 1.920 . S
Zn84 O96 1.898 . S
Zn84 O99 1.905 . S
Zn85 O93 1.905 . S
Zn85 O94 1.898 . S
Zn85 O102 1.920 . S
Zn86 O89 2.080 1_554 S
Zn86 O92 2.114 . S
Zn86 O95 2.120 . S
Zn86 O97 2.120 1_554 S
Zn86 O98 2.114 1_554 S
Zn86 O101 2.080 . S
C87 O92 1.166 . S
C87 O93 1.182 . S
C88 O94 1.167 . S
C88 O95 1.299 . S
O89 Zn86 2.080 1_556 S
O89 C103 1.305 . S
O90 Zn84 1.920 . S
O90 C103 1.234 . S
C91 O96 1.167 . S
C91 O97 1.299 . S
O92 Zn86 2.114 . S
O92 C87 1.166 . S
O93 Zn85 1.905 . S
O93 C87 1.182 . S
O94 Zn85 1.898 . S
O94 C88 1.167 . S
O95 Zn86 2.120 . S
O95 C88 1.299 . S
O96 Zn84 1.898 . S
O96 C91 1.167 . S
O97 Zn86 2.120 1_556 S
O97 C91 1.299 . S
O98 Zn86 2.114 1_556 S
O98 C100 1.166 . S
O99 Zn84 1.905 . S
O99 C100 1.182 . S
C100 O98 1.166 . S
C100 O99 1.182 . S
O101 Zn86 2.080 . S
O101 C104 1.305 . S
O102 Zn85 1.920 . S
O102 C104 1.234 . S
C103 O89 1.305 . S
C103 O90 1.234 . S
C104 O101 1.305 . S
C104 O102 1.234 . S
Zn105 O111 1.920 . S
Zn105 O117 1.898 . S
Zn105 O120 1.905 . S
Zn106 O114 1.905 . S
Zn106 O115 1.898 . S
Zn106 O123 1.920 . S
Zn107 O110 2.080 . S
Zn107 O113 2.114 1_554 S
Zn107 O116 2.120 1_554 S
Zn107 O118 2.120 . S
Zn107 O119 2.114 . S
Zn107 O122 2.080 1_554 S
C108 O113 1.166 . S
C108 O114 1.182 . S
C109 O115 1.167 . S
C109 O116 1.299 . S
O110 Zn107 2.080 . S
O110 C124 1.305 . S
O111 Zn105 1.920 . S
O111 C124 1.234 . S
C112 O117 1.167 . S
C112 O118 1.299 . S
O113 Zn107 2.114 1_556 S
O113 C108 1.166 . S
O114 Zn106 1.905 . S
O114 C108 1.182 . S
O115 Zn106 1.898 . S
O115 C109 1.167 . S
O116 Zn107 2.120 1_556 S
O116 C109 1.299 . S
O117 Zn105 1.898 . S
O117 C112 1.167 . S
O118 Zn107 2.120 . S
O118 C112 1.299 . S
O119 Zn107 2.114 . S
O119 C121 1.166 . S
O120 Zn105 1.905 . S
O120 C121 1.182 . S
C121 O119 1.166 . S
C121 O120 1.182 . S
O122 Zn107 2.080 1_556 S
O122 C125 1.305 . S
O123 Zn106 1.920 . S
O123 C125 1.234 . S
C124 O110 1.305 . S
C124 O111 1.234 . S
C125 O122 1.305 . S
C125 O123 1.234 . S
Zn126 O132 1.920 . S
Zn126 O138 1.898 . S
Zn126 O141 1.905 . S
Zn127 O135 1.905 . S
Zn127 O136 1.898 . S
Zn127 O144 1.920 . S
Zn128 O131 2.080 . S
Zn128 O134 2.114 . S
Zn128 O137 2.120 . S
Zn128 O139 2.120 . S
Zn128 O140 2.114 . S
Zn128 O143 2.080 . S
C129 O134 1.166 . S
C129 O135 1.182 . S
C130 O136 1.167 . S
C130 O137 1.299 . S
O131 Zn128 2.080 . S
O131 C145 1.305 . S
O132 Zn126 1.920 . S
O132 C145 1.234 . S
C133 O138 1.167 . S
C133 O139 1.299 . S
O134 Zn128 2.114 . S
O134 C129 1.166 . S
O135 Zn127 1.905 . S
O135 C129 1.182 . S
O136 Zn127 1.898 . S
O136 C130 1.167 . S
O137 Zn128 2.120 . S
O137 C130 1.299 . S
O138 Zn126 1.898 . S
O138 C133 1.167 . S
O139 Zn128 2.120 . S
O139 C133 1.299 . S
O140 Zn128 2.114 . S
O140 C142 1.166 . S
O141 Zn126 1.905 . S
O141 C142 1.182 . S
C142 O140 1.166 . S
C142 O141 1.182 . S
O143 Zn128 2.080 . S
O143 C146 1.305 . S
O144 Zn127 1.920 . S
O144 C146 1.234 . S
C145 O131 1.305 . S
C145 O132 1.234 . S
C146 O143 1.305 . S
C146 O144 1.234 . S
Zn147 O153 1.920 . S
Zn147 O159 1.898 . S
Zn147 O162 1.905 . S
Zn148 O156 1.905 . S
Zn148 O157 1.898 . S
Zn148 O165 1.920 . S
Zn149 O152 2.080 . S
Zn149 O155 2.114 . S
Zn149 O158 2.120 . S
Zn149 O160 2.120 . S
Zn149 O161 2.114 . S
Zn149 O164 2.080 . S
C150 O155 1.166 . S
C150 O156 1.182 . S
C151 O157 1.167 . S
C151 O158 1.299 . S
O152 Zn149 2.080 . S
O152 C166 1.305 . S
O153 Zn147 1.920 . S
O153 C166 1.234 . S
C154 O159 1.167 . S
C154 O160 1.299 . S
O155 Zn149 2.114 . S
O155 C150 1.166 . S
O156 Zn148 1.905 . S
O156 C150 1.182 . S
O157 Zn148 1.898 . S
O157 C151 1.167 . S
O158 Zn149 2.120 . S
O158 C151 1.299 . S
O159 Zn147 1.898 . S
O159 C154 1.167 . S
O160 Zn149 2.120 . S
O160 C154 1.299 . S
O161 Zn149 2.114 . S
O161 C163 1.166 . S
O162 Zn147 1.905 . S
O162 C163 1.182 . S
C163 O161 1.166 . S
C163 O162 1.182 . S
O164 Zn149 2.080 . S
O164 C167 1.305 . S
O165 Zn148 1.920 . S
O165 C167 1.234 . S
C166 O152 1.305 . S
C166 O153 1.234 . S
C167 O164 1.305 . S
C167 O165 1.234 . S
Zn168 O174 1.920 . S
Zn168 O180 1.898 . S
Zn168 O183 1.905 . S
Zn169 O177 1.905 . S
Zn169 O178 1.898 . S
Zn169 O186 1.920 . S
Zn170 O173 2.080 . S
Zn170 O176 2.114 . S
Zn170 O179 2.120 . S
Zn170 O181 2.120 . S
Zn170 O182 2.114 . S
Zn170 O185 2.080 . S
C171 O176 1.166 . S
C171 O177 1.182 . S
C172 O178 1.167 . S
C172 O179 1.299 . S
O173 Zn170 2.080 . S
O173 C187 1.305 . S
O174 Zn168 1.920 . S
O174 C187 1.234 . S
C175 O180 1.167 . S
C175 O181 1.299 . S
O176 Zn170 2.114 . S
O176 C171 1.166 . S
O177 Zn169 1.905 . S
O177 C171 1.182 . S
O178 Zn169 1.898 . S
O178 C172 1.167 . S
O179 Zn170 2.120 . S
O179 C172 1.299 . S
O180 Zn168 1.898 . S
O180 C175 1.167 . S
O181 Zn170 2.120 . S
O181 C175 1.299 . S
O182 Zn170 2.114 . S
O182 C184 1.166 . S
O183 Zn168 1.905 . S
O183 C184 1.182 . S
C184 O182 1.166 . S
C184 O183 1.182 . S
O185 Zn170 2.080 . S
O185 C188 1.305 . S
O186 Zn169 1.920 . S
O186 C188 1.234 . S
C187 O173 1.305 . S
C187 O174 1.234 . S
C188 O185 1.305 . S
C188 O186 1.234 . S
Zn189 O195 1.920 . S
Zn189 O201 1.898 . S
Zn189 O204 1.905 . S
Zn190 O198 1.905 . S
Zn190 O199 1.898 . S
Zn190 O207 1.920 . S
Zn191 O194 2.080 . S
Zn191 O197 2.114 . S
Zn191 O200 2.120 . S
Zn191 O202 2.120 . S
Zn191 O203 2.114 . S
Zn191 O206 2.080 . S
C192 O197 1.166 . S
C192 O198 1.182 . S
C193 O199 1.167 . S
C193 O200 1.299 . S
O194 Zn191 2.080 . S
O194 C208 1.305 . S
O195 Zn189 1.920 . S
O195 C208 1.234 . S
C196 O201 1.167 . S
C196 O202 1.299 . S
O197 Zn191 2.114 . S
O197 C192 1.166 . S
O198 Zn190 1.905 . S
O198 C192 1.182 . S
O199 Zn190 1.898 . S
O199 C193 1.167 . S
O200 Zn191 2.120 . S
O200 C193 1.299 . S
O201 Zn189 1.898 . S
O201 C196 1.167 . S
O202 Zn191 2.120 . S
O202 C196 1.299 . S
O203 Zn191 2.114 . S
O203 C205 1.166 . S
O204 Zn189 1.905 . S
O204 C205 1.182 . S
C205 O203 1.166 . S
C205 O204 1.182 . S
O206 Zn191 2.080 . S
O206 C209 1.305 . S
O207 Zn190 1.920 . S
O207 C209 1.234 . S
C208 O194 1.305 . S
C208 O195 1.234 . S
C209 O206 1.305 . S
C209 O207 1.234 . S
Zn210 O216 1.920 . S
Zn210 O222 1.898 . S
Zn210 O225 1.905 . S
Zn211 O219 1.905 . S
Zn211 O220 1.898 . S
Zn211 O228 1.920 . S
Zn212 O215 2.080 . S
Zn212 O218 2.114 . S
Zn212 O221 2.120 . S
Zn212 O223 2.120 . S
Zn212 O224 2.114 . S
Zn212 O227 2.080 . S
C213 O218 1.166 . S
C213 O219 1.182 . S
C214 O220 1.167 . S
C214 O221 1.299 . S
O215 Zn212 2.080 . S
O215 C229 1.305 . S
O216 Zn210 1.920 . S
O216 C229 1.234 . S
C217 O222 1.167 . S
C217 O223 1.299 . S
O218 Zn212 2.114 . S
O218 C213 1.166 . S
O219 Zn211 1.905 . S
O219 C213 1.182 . S
O220 Zn211 1.898 . S
O220 C214 1.167 . S
O221 Zn212 2.120 . S
O221 C214 1.299 . S
O222 Zn210 1.898 . S
O222 C217 1.167 . S
O223 Zn212 2.120 . S
O223 C217 1.299 . S
O224 Zn212 2.114 . S
O224 C226 1.166 . S
O225 Zn210 1.905 . S
O225 C226 1.182 . S
C226 O224 1.166 . S
C226 O225 1.182 . S
O227 Zn212 2.080 . S
O227 C230 1.305 . S
O228 Zn211 1.920 . S
O228 C230 1.234 . S
C229 O215 1.305 . S
C229 O216 1.234 . S
C230 O227 1.305 . S
C230 O228 1.234 . S
Zn231 O237 1.920 . S
Zn231 O243 1.898 . S
Zn231 O246 1.905 . S
Zn232 O240 1.905 . S
Zn232 O241 1.898 . S
Zn232 O249 1.920 . S
Zn233 O236 2.080 . S
Zn233 O239 2.114 . S
Zn233 O242 2.120 . S
Zn233 O244 2.120 . S
Zn233 O245 2.114 . S
Zn233 O248 2.080 . S
C234 O239 1.166 . S
C234 O240 1.182 . S
C235 O241 1.167 . S
C235 O242 1.299 . S
O236 Zn233 2.080 . S
O236 C250 1.305 . S
O237 Zn231 1.920 . S
O237 C250 1.234 . S
C238 O243 1.167 . S
C238 O244 1.299 . S
O239 Zn233 2.114 . S
O239 C234 1.166 . S
O240 Zn232 1.905 . S
O240 C234 1.182 . S
O241 Zn232 1.898 . S
O241 C235 1.167 . S
O242 Zn233 2.120 . S
O242 C235 1.299 . S
O243 Zn231 1.898 . S
O243 C238 1.167 . S
O244 Zn233 2.120 . S
O244 C238 1.299 . S
O245 Zn233 2.114 . S
O245 C247 1.166 . S
O246 Zn231 1.905 . S
O246 C247 1.182 . S
C247 O245 1.166 . S
C247 O246 1.182 . S
O248 Zn233 2.080 . S
O248 C251 1.305 . S
O249 Zn232 1.920 . S
O249 C251 1.234 . S
C250 O236 1.305 . S
C250 O237 1.234 . S
C251 O248 1.305 . S
C251 O249 1.234 . S
H252 C258 0.930 . S
H253 C262 0.930 . S
H254 C267 0.929 . S
H255 C265 0.929 . S
H256 C260 0.929 . S
H257 C266 0.929 . S
C258 H252 0.930 . S
C258 C259 1.367 . S
C258 C266 1.378 . S
C259 C258 1.367 . S
C259 C267 1.433 . S
C260 H256 0.929 . S
C260 C262 1.378 . S
C260 C264 1.350 . S
C261 C264 1.463 . S
C261 C266 1.350 . S
C261 N269 1.427 . S
C262 H253 0.930 . S
C262 C260 1.378 . S
C262 C263 1.367 . S
C263 C262 1.367 . S
C263 C265 1.433 . S
C264 C260 1.350 . S
C264 C261 1.463 . S
C264 N268 1.427 . S
C265 H255 0.929 . S
C265 C263 1.433 . S
C265 N268 1.384 . S
C266 H257 0.929 . S
C266 C258 1.378 . S
C266 C261 1.350 . S
C267 H254 0.929 . S
C267 C259 1.433 . S
C267 N269 1.384 . S
N268 C264 1.427 . S
N268 C265 1.384 . S
N269 C261 1.427 . S
N269 C267 1.384 . S
H270 C276 0.930 . S
H271 C280 0.930 . S
H272 C285 0.929 . S
H273 C283 0.929 . S
H274 C278 0.929 . S
H275 C284 0.929 . S
C276 H270 0.930 . S
C276 C277 1.367 . S
C276 C284 1.378 . S
C277 C276 1.367 . S
C277 C285 1.433 . S
C278 H274 0.929 . S
C278 C280 1.378 . S
C278 C282 1.350 . S
C279 C282 1.463 . S
C279 C284 1.350 . S
C279 N287 1.427 . S
C280 H271 0.930 . S
C280 C278 1.378 . S
C280 C281 1.367 . S
C281 C280 1.367 . S
C281 C283 1.433 . S
C282 C278 1.350 . S
C282 C279 1.463 . S
C282 N286 1.427 . S
C283 H273 0.929 . S
C283 C281 1.433 . S
C283 N286 1.384 . S
C284 H275 0.929 . S
C284 C276 1.378 . S
C284 C279 1.350 . S
C285 H272 0.929 . S
C285 C277 1.433 . S
C285 N287 1.384 . S
N286 C282 1.427 . S
N286 C283 1.384 . S
N287 C279 1.427 . S
N287 C285 1.384 . S
H288 C294 0.930 . S
H289 C298 0.930 . S
H290 C303 0.929 . S
H291 C301 0.929 . S
H292 C296 0.929 . S
H293 C302 0.929 . S
C294 H288 0.930 . S
C294 C295 1.367 . S
C294 C302 1.378 . S
C295 C294 1.367 . S
C295 C303 1.433 . S
C296 H292 0.929 . S
C296 C298 1.378 . S
C296 C300 1.350 . S
C297 C300 1.463 . S
C297 C302 1.350 . S
C297 N305 1.427 . S
C298 H289 0.930 . S
C298 C296 1.378 . S
C298 C299 1.367 . S
C299 C298 1.367 . S
C299 C301 1.433 . S
C300 C296 1.350 . S
C300 C297 1.463 . S
C300 N304 1.427 . S
C301 H291 0.929 . S
C301 C299 1.433 . S
C301 N304 1.384 . S
C302 H293 0.929 . S
C302 C294 1.378 . S
C302 C297 1.350 . S
C303 H290 0.929 . S
C303 C295 1.433 . S
C303 N305 1.384 . S
N304 C300 1.427 . S
N304 C301 1.384 . S
N305 C297 1.427 . S
N305 C303 1.384 . S
H306 C312 0.930 . S
H307 C316 0.930 . S
H308 C321 0.929 . S
H309 C319 0.929 . S
H310 C314 0.929 . S
H311 C320 0.929 . S
C312 H306 0.930 . S
C312 C313 1.367 . S
C312 C320 1.378 . S
C313 C312 1.367 . S
C313 C321 1.433 . S
C314 H310 0.929 . S
C314 C316 1.378 . S
C314 C318 1.350 . S
C315 C318 1.463 . S
C315 C320 1.350 . S
C315 N323 1.427 . S
C316 H307 0.930 . S
C316 C314 1.378 . S
C316 C317 1.367 . S
C317 C316 1.367 . S
C317 C319 1.433 . S
C318 C314 1.350 . S
C318 C315 1.463 . S
C318 N322 1.427 . S
C319 H309 0.929 . S
C319 C317 1.433 . S
C319 N322 1.384 . S
C320 H311 0.929 . S
C320 C312 1.378 . S
C320 C315 1.350 . S
C321 H308 0.929 . S
C321 C313 1.433 . S
C321 N323 1.384 . S
N322 C318 1.427 . S
N322 C319 1.384 . S
N323 C315 1.427 . S
N323 C321 1.384 . S
H324 C330 0.930 . S
H325 C334 0.930 . S
H326 C339 0.929 . S
H327 C337 0.929 . S
H328 C332 0.929 . S
H329 C338 0.929 . S
C330 H324 0.930 . S
C330 C331 1.367 . S
C330 C338 1.378 . S
C331 C330 1.367 . S
C331 C339 1.433 . S
C332 H328 0.929 . S
C332 C334 1.378 . S
C332 C336 1.350 . S
C333 C336 1.463 . S
C333 C338 1.350 . S
C333 N341 1.427 . S
C334 H325 0.930 . S
C334 C332 1.378 . S
C334 C335 1.367 . S
C335 C334 1.367 . S
C335 C337 1.433 . S
C336 C332 1.350 . S
C336 C333 1.463 . S
C336 N340 1.427 . S
C337 H327 0.929 . S
C337 C335 1.433 . S
C337 N340 1.384 . S
C338 H329 0.929 . S
C338 C330 1.378 . S
C338 C333 1.350 . S
C339 H326 0.929 . S
C339 C331 1.433 . S
C339 N341 1.384 . S
N340 C336 1.427 . S
N340 C337 1.384 . S
N341 C333 1.427 . S
N341 C339 1.384 . S
H342 C348 0.930 . S
H343 C352 0.930 . S
H344 C357 0.929 . S
H345 C355 0.929 . S
H346 C350 0.929 . S
H347 C356 0.929 . S
C348 H342 0.930 . S
C348 C349 1.367 . S
C348 C356 1.378 . S
C349 C348 1.367 . S
C349 C357 1.433 . S
C350 H346 0.929 . S
C350 C352 1.378 . S
C350 C354 1.350 . S
C351 C354 1.463 . S
C351 C356 1.350 . S
C351 N359 1.427 . S
C352 H343 0.930 . S
C352 C350 1.378 . S
C352 C353 1.367 . S
C353 C352 1.367 . S
C353 C355 1.433 . S
C354 C350 1.350 . S
C354 C351 1.463 . S
C354 N358 1.427 . S
C355 H345 0.929 . S
C355 C353 1.433 . S
C355 N358 1.384 . S
C356 H347 0.929 . S
C356 C348 1.378 . S
C356 C351 1.350 . S
C357 H344 0.929 . S
C357 C349 1.433 . S
C357 N359 1.384 . S
N358 C354 1.427 . S
N358 C355 1.384 . S
N359 C351 1.427 . S
N359 C357 1.384 . S
H360 C366 0.930 . S
H361 C370 0.930 . S
H362 C375 0.929 . S
H363 C373 0.929 . S
H364 C368 0.929 . S
H365 C374 0.929 . S
C366 H360 0.930 . S
C366 C367 1.367 . S
C366 C374 1.378 . S
C367 C366 1.367 . S
C367 C375 1.433 . S
C368 H364 0.929 . S
C368 C370 1.378 . S
C368 C372 1.350 . S
C369 C372 1.463 . S
C369 C374 1.350 . S
C369 N377 1.427 . S
C370 H361 0.930 . S
C370 C368 1.378 . S
C370 C371 1.367 . S
C371 C370 1.367 . S
C371 C373 1.433 . S
C372 C368 1.350 . S
C372 C369 1.463 . S
C372 N376 1.427 . S
C373 H363 0.929 . S
C373 C371 1.433 . S
C373 N376 1.384 . S
C374 H365 0.929 . S
C374 C366 1.378 . S
C374 C369 1.350 . S
C375 H362 0.929 . S
C375 C367 1.433 . S
C375 N377 1.384 . S
N376 C372 1.427 . S
N376 C373 1.384 . S
N377 C369 1.427 . S
N377 C375 1.384 . S
H378 C384 0.930 . S
H379 C388 0.930 . S
H380 C393 0.929 . S
H381 C391 0.929 . S
H382 C386 0.929 . S
H383 C392 0.929 . S
C384 H378 0.930 . S
C384 C385 1.367 . S
C384 C392 1.378 . S
C385 C384 1.367 . S
C385 C393 1.433 . S
C386 H382 0.929 . S
C386 C388 1.378 . S
C386 C390 1.350 . S
C387 C390 1.463 . S
C387 C392 1.350 . S
C387 N395 1.427 . S
C388 H379 0.930 . S
C388 C386 1.378 . S
C388 C389 1.367 . S
C389 C388 1.367 . S
C389 C391 1.433 . S
C390 C386 1.350 . S
C390 C387 1.463 . S
C390 N394 1.427 . S
C391 H381 0.929 . S
C391 C389 1.433 . S
C391 N394 1.384 . S
C392 H383 0.929 . S
C392 C384 1.378 . S
C392 C387 1.350 . S
C393 H380 0.929 . S
C393 C385 1.433 . S
C393 N395 1.384 . S
N394 C390 1.427 . S
N394 C391 1.384 . S
N395 C387 1.427 . S
N395 C393 1.384 . S
H396 C402 0.930 . S
H397 C406 0.930 . S
H398 C411 0.929 . S
H399 C409 0.929 . S
H400 C404 0.929 . S
H401 C410 0.929 . S
C402 H396 0.930 . S
C402 C403 1.367 . S
C402 C410 1.378 . S
C403 C402 1.367 . S
C403 C411 1.433 . S
C404 H400 0.929 . S
C404 C406 1.378 . S
C404 C408 1.350 . S
C405 C408 1.463 . S
C405 C410 1.350 . S
C405 N413 1.427 . S
C406 H397 0.930 . S
C406 C404 1.378 . S
C406 C407 1.367 . S
C407 C406 1.367 . S
C407 C409 1.433 . S
C408 C404 1.350 . S
C408 C405 1.463 . S
C408 N412 1.427 . S
C409 H399 0.929 . S
C409 C407 1.433 . S
C409 N412 1.384 . S
C410 H401 0.929 . S
C410 C402 1.378 . S
C410 C405 1.350 . S
C411 H398 0.929 . S
C411 C403 1.433 . S
C411 N413 1.384 . S
N412 C408 1.427 . S
N412 C409 1.384 . S
N413 C405 1.427 . S
N413 C411 1.384 . S
H414 C420 0.930 . S
H415 C424 0.930 . S
H416 C429 0.929 . S
H417 C427 0.929 . S
H418 C422 0.929 . S
H419 C428 0.929 . S
C420 H414 0.930 . S
C420 C421 1.367 . S
C420 C428 1.378 . S
C421 C420 1.367 . S
C421 C429 1.433 . S
C422 H418 0.929 . S
C422 C424 1.378 . S
C422 C426 1.350 . S
C423 C426 1.463 . S
C423 C428 1.350 . S
C423 N431 1.427 . S
C424 H415 0.930 . S
C424 C422 1.378 . S
C424 C425 1.367 . S
C425 C424 1.367 . S
C425 C427 1.433 . S
C426 C422 1.350 . S
C426 C423 1.463 . S
C426 N430 1.427 . S
C427 H417 0.929 . S
C427 C425 1.433 . S
C427 N430 1.384 . S
C428 H419 0.929 . S
C428 C420 1.378 . S
C428 C423 1.350 . S
C429 H416 0.929 . S
C429 C421 1.433 . S
C429 N431 1.384 . S
N430 C426 1.427 . S
N430 C427 1.384 . S
N431 C423 1.427 . S
N431 C429 1.384 . S
H432 C438 0.930 . S
H433 C442 0.930 . S
H434 C447 0.929 . S
H435 C445 0.929 . S
H436 C440 0.929 . S
H437 C446 0.929 . S
C438 H432 0.930 . S
C438 C439 1.367 . S
C438 C446 1.378 . S
C439 C438 1.367 . S
C439 C447 1.433 . S
C440 H436 0.929 . S
C440 C442 1.378 . S
C440 C444 1.350 . S
C441 C444 1.463 . S
C441 C446 1.350 . S
C441 N449 1.427 . S
C442 H433 0.930 . S
C442 C440 1.378 . S
C442 C443 1.367 . S
C443 C442 1.367 . S
C443 C445 1.433 . S
C444 C440 1.350 . S
C444 C441 1.463 . S
C444 N448 1.427 . S
C445 H435 0.929 . S
C445 C443 1.433 . S
C445 N448 1.384 . S
C446 H437 0.929 . S
C446 C438 1.378 . S
C446 C441 1.350 . S
C447 H434 0.929 . S
C447 C439 1.433 . S
C447 N449 1.384 . S
N448 C444 1.427 . S
N448 C445 1.384 . S
N449 C441 1.427 . S
N449 C447 1.384 . S
H450 C456 0.930 . S
H451 C460 0.930 . S
H452 C465 0.929 . S
H453 C463 0.929 . S
H454 C458 0.929 . S
H455 C464 0.929 . S
C456 H450 0.930 . S
C456 C457 1.367 . S
C456 C464 1.378 . S
C457 C456 1.367 . S
C457 C465 1.433 . S
C458 H454 0.929 . S
C458 C460 1.378 . S
C458 C462 1.350 . S
C459 C462 1.463 . S
C459 C464 1.350 . S
C459 N467 1.427 . S
C460 H451 0.930 . S
C460 C458 1.378 . S
C460 C461 1.367 . S
C461 C460 1.367 . S
C461 C463 1.433 . S
C462 C458 1.350 . S
C462 C459 1.463 . S
C462 N466 1.427 . S
C463 H453 0.929 . S
C463 C461 1.433 . S
C463 N466 1.384 . S
C464 H455 0.929 . S
C464 C456 1.378 . S
C464 C459 1.350 . S
C465 H452 0.929 . S
C465 C457 1.433 . S
C465 N467 1.384 . S
N466 C462 1.427 . S
N466 C463 1.384 . S
N467 C459 1.427 . S
N467 C465 1.384 . S
H468 C474 0.930 . S
H469 C478 0.930 . S
H470 C483 0.929 . S
H471 C481 0.929 . S
H472 C476 0.929 . S
H473 C482 0.929 . S
C474 H468 0.930 . S
C474 C475 1.367 . S
C474 C482 1.378 . S
C475 C474 1.367 . S
C475 C483 1.433 . S
C476 H472 0.929 . S
C476 C478 1.378 . S
C476 C480 1.350 . S
C477 C480 1.463 1_565 S
C477 C482 1.350 . S
C477 N485 1.427 . S
C478 H469 0.930 . S
C478 C476 1.378 . S
C478 C479 1.367 . S
C479 C478 1.367 . S
C479 C481 1.433 . S
C480 C476 1.350 . S
C480 C477 1.463 1_545 S
C480 N484 1.427 . S
C481 H471 0.929 . S
C481 C479 1.433 . S
C481 N484 1.384 . S
C482 H473 0.929 . S
C482 C474 1.378 . S
C482 C477 1.350 . S
C483 H470 0.929 . S
C483 C475 1.433 . S
C483 N485 1.384 . S
N484 C480 1.427 . S
N484 C481 1.384 . S
N485 C477 1.427 . S
N485 C483 1.384 . S
H486 C492 0.930 . S
H487 C496 0.930 . S
H488 C501 0.929 . S
H489 C499 0.929 . S
H490 C494 0.929 . S
H491 C500 0.929 . S
C492 H486 0.930 . S
C492 C493 1.367 . S
C492 C500 1.378 . S
C493 C492 1.367 . S
C493 C501 1.433 . S
C494 H490 0.929 . S
C494 C496 1.378 . S
C494 C498 1.350 . S
C495 C498 1.463 . S
C495 C500 1.350 . S
C495 N503 1.427 . S
C496 H487 0.930 . S
C496 C494 1.378 . S
C496 C497 1.367 . S
C497 C496 1.367 . S
C497 C499 1.433 . S
C498 C494 1.350 . S
C498 C495 1.463 . S
C498 N502 1.427 . S
C499 H489 0.929 . S
C499 C497 1.433 . S
C499 N502 1.384 . S
C500 H491 0.929 . S
C500 C492 1.378 . S
C500 C495 1.350 . S
C501 H488 0.929 . S
C501 C493 1.433 . S
C501 N503 1.384 . S
N502 C498 1.427 . S
N502 C499 1.384 . S
N503 C495 1.427 . S
N503 C501 1.384 . S
H504 C510 0.930 . S
H505 C514 0.930 . S
H506 C519 0.929 . S
H507 C517 0.929 . S
H508 C512 0.929 . S
H509 C518 0.929 . S
C510 H504 0.930 . S
C510 C511 1.367 . S
C510 C518 1.378 . S
C511 C510 1.367 . S
C511 C519 1.433 . S
C512 H508 0.929 . S
C512 C514 1.378 . S
C512 C516 1.350 . S
C513 C516 1.463 1_455 S
C513 C518 1.350 . S
C513 N521 1.427 . S
C514 H505 0.930 . S
C514 C512 1.378 . S
C514 C515 1.367 . S
C515 C514 1.367 . S
C515 C517 1.433 . S
C516 C512 1.350 . S
C516 C513 1.463 1_655 S
C516 N520 1.427 . S
C517 H507 0.929 . S
C517 C515 1.433 . S
C517 N520 1.384 . S
C518 H509 0.929 . S
C518 C510 1.378 . S
C518 C513 1.350 . S
C519 H506 0.929 . S
C519 C511 1.433 . S
C519 N521 1.384 . S
N520 C516 1.427 . S
N520 C517 1.384 . S
N521 C513 1.427 . S
N521 C519 1.384 . S
H522 C528 0.930 . S
H523 C532 0.930 . S
H524 C537 0.929 . S
H525 C535 0.929 . S
H526 C530 0.929 1_565 S
H527 C536 0.929 1_545 S
C528 H522 0.930 . S
C528 C529 1.367 . S
C528 C536 1.378 . S
C529 C528 1.367 . S
C529 C537 1.433 . S
C530 H526 0.929 1_545 S
C530 C532 1.378 . S
C530 C534 1.350 . S
C531 C534 1.463 1_565 S
C531 C536 1.350 . S
C531 N539 1.427 . S
C532 H523 0.930 . S
C532 C530 1.378 . S
C532 C533 1.367 . S
C533 C532 1.367 . S
C533 C535 1.433 . S
C534 C530 1.350 . S
C534 C531 1.463 1_545 S
C534 N538 1.427 . S
C535 H525 0.929 . S
C535 C533 1.433 . S
C535 N538 1.384 . S
C536 H527 0.929 1_565 S
C536 C528 1.378 . S
C536 C531 1.350 . S
C537 H524 0.929 . S
C537 C529 1.433 . S
C537 N539 1.384 . S
N538 C534 1.427 . S
N538 C535 1.384 . S
N539 C531 1.427 . S
N539 C537 1.384 . S
H540 C546 0.930 . S
H541 C550 0.930 . S
H542 C555 0.929 . S
H543 C553 0.929 . S
H544 C548 0.929 . S
H545 C554 0.929 . S
C546 H540 0.930 . S
C546 C547 1.367 . S
C546 C554 1.378 . S
C547 C546 1.367 . S
C547 C555 1.433 . S
C548 H544 0.929 . S
C548 C550 1.378 . S
C548 C552 1.350 . S
C549 C552 1.463 . S
C549 C554 1.350 . S
C549 N557 1.427 . S
C550 H541 0.930 . S
C550 C548 1.378 . S
C550 C551 1.367 . S
C551 C550 1.367 . S
C551 C553 1.433 . S
C552 C548 1.350 . S
C552 C549 1.463 . S
C552 N556 1.427 . S
C553 H543 0.929 . S
C553 C551 1.433 . S
C553 N556 1.384 . S
C554 H545 0.929 . S
C554 C546 1.378 . S
C554 C549 1.350 . S
C555 H542 0.929 . S
C555 C547 1.433 . S
C555 N557 1.384 . S
N556 C552 1.427 . S
N556 C553 1.384 . S
N557 C549 1.427 . S
N557 C555 1.384 . S
H558 C564 0.930 . S
H559 C568 0.930 . S
H560 C573 0.929 . S
H561 C571 0.929 . S
H562 C566 0.929 . S
H563 C572 0.929 . S
C564 H558 0.930 . S
C564 C565 1.367 . S
C564 C572 1.378 . S
C565 C564 1.367 . S
C565 C573 1.433 . S
C566 H562 0.929 . S
C566 C568 1.378 . S
C566 C570 1.350 . S
C567 C570 1.463 1_655 S
C567 C572 1.350 . S
C567 N575 1.427 . S
C568 H559 0.930 . S
C568 C566 1.378 . S
C568 C569 1.367 . S
C569 C568 1.367 . S
C569 C571 1.433 . S
C570 C566 1.350 . S
C570 C567 1.463 1_455 S
C570 N574 1.427 . S
C571 H561 0.929 . S
C571 C569 1.433 . S
C571 N574 1.384 . S
C572 H563 0.929 . S
C572 C564 1.378 . S
C572 C567 1.350 . S
C573 H560 0.929 . S
C573 C565 1.433 . S
C573 N575 1.384 . S
N574 C570 1.427 . S
N574 C571 1.384 . S
N575 C567 1.427 . S
N575 C573 1.384 . S
H576 C582 0.930 . S
H577 C586 0.930 . S
H578 C591 0.929 . S
H579 C589 0.929 . S
H580 C584 0.929 1_545 S
H581 C590 0.929 1_565 S
C582 H576 0.930 . S
C582 C583 1.367 . S
C582 C590 1.378 . S
C583 C582 1.367 . S
C583 C591 1.433 . S
C584 H580 0.929 1_565 S
C584 C586 1.378 . S
C584 C588 1.350 . S
C585 C588 1.463 1_545 S
C585 C590 1.350 . S
C585 N593 1.427 . S
C586 H577 0.930 . S
C586 C584 1.378 . S
C586 C587 1.367 . S
C587 C586 1.367 . S
C587 C589 1.433 . S
C588 C584 1.350 . S
C588 C585 1.463 1_565 S
C588 N592 1.427 . S
C589 H579 0.929 . S
C589 C587 1.433 . S
C589 N592 1.384 . S
C590 H581 0.929 1_545 S
C590 C582 1.378 . S
C590 C585 1.350 . S
C591 H578 0.929 . S
C591 C583 1.433 . S
C591 N593 1.384 . S
N592 C588 1.427 . S
N592 C589 1.384 . S
N593 C585 1.427 . S
N593 C591 1.384 . S
H594 C600 0.930 . S
H595 C604 0.930 . S
H596 C609 0.929 . S
H597 C607 0.929 . S
H598 C602 0.929 . S
H599 C608 0.929 . S
C600 H594 0.930 . S
C600 C601 1.367 . S
C600 C608 1.378 . S
C601 C600 1.367 . S
C601 C609 1.433 . S
C602 H598 0.929 . S
C602 C604 1.378 . S
C602 C606 1.350 . S
C603 C606 1.463 . S
C603 C608 1.350 . S
C603 N611 1.427 . S
C604 H595 0.930 . S
C604 C602 1.378 . S
C604 C605 1.367 . S
C605 C604 1.367 . S
C605 C607 1.433 . S
C606 C602 1.350 . S
C606 C603 1.463 . S
C606 N610 1.427 . S
C607 H597 0.929 . S
C607 C605 1.433 . S
C607 N610 1.384 . S
C608 H599 0.929 . S
C608 C600 1.378 . S
C608 C603 1.350 . S
C609 H596 0.929 . S
C609 C601 1.433 . S
C609 N611 1.384 . S
N610 C606 1.427 . S
N610 C607 1.384 . S
N611 C603 1.427 . S
N611 C609 1.384 . S
H612 C618 0.930 . S
H613 C622 0.930 . S
H614 C627 0.929 . S
H615 C625 0.929 . S
H616 C620 0.929 . S
H617 C626 0.929 . S
C618 H612 0.930 . S
C618 C619 1.367 . S
C618 C626 1.378 . S
C619 C618 1.367 . S
C619 C627 1.433 . S
C620 H616 0.929 . S
C620 C622 1.378 . S
C620 C624 1.350 . S
C621 C624 1.463 1_655 S
C621 C626 1.350 . S
C621 N629 1.427 . S
C622 H613 0.930 . S
C622 C620 1.378 . S
C622 C623 1.367 . S
C623 C622 1.367 . S
C623 C625 1.433 . S
C624 C620 1.350 . S
C624 C621 1.463 1_455 S
C624 N628 1.427 . S
C625 H615 0.929 . S
C625 C623 1.433 . S
C625 N628 1.384 . S
C626 H617 0.929 . S
C626 C618 1.378 . S
C626 C621 1.350 . S
C627 H614 0.929 . S
C627 C619 1.433 . S
C627 N629 1.384 . S
N628 C624 1.427 . S
N628 C625 1.384 . S
N629 C621 1.427 . S
N629 C627 1.384 . S
H630 C636 0.930 . S
H631 C640 0.930 . S
H632 C645 0.929 . S
H633 C643 0.929 . S
H634 C638 0.929 . S
H635 C644 0.929 . S
C636 H630 0.930 . S
C636 C637 1.367 . S
C636 C644 1.378 . S
C637 C636 1.367 . S
C637 C645 1.433 . S
C638 H634 0.929 . S
C638 C640 1.378 . S
C638 C642 1.350 . S
C639 C642 1.463 1_565 S
C639 C644 1.350 . S
C639 N647 1.427 . S
C640 H631 0.930 . S
C640 C638 1.378 . S
C640 C641 1.367 . S
C641 C640 1.367 . S
C641 C643 1.433 . S
C642 C638 1.350 . S
C642 C639 1.463 1_545 S
C642 N646 1.427 . S
C643 H633 0.929 . S
C643 C641 1.433 . S
C643 N646 1.384 . S
C644 H635 0.929 . S
C644 C636 1.378 . S
C644 C639 1.350 . S
C645 H632 0.929 . S
C645 C637 1.433 . S
C645 N647 1.384 . S
N646 C642 1.427 . S
N646 C643 1.384 . S
N647 C639 1.427 . S
N647 C645 1.384 . S
H648 C654 0.930 . S
H649 C658 0.930 . S
H650 C663 0.929 . S
H651 C661 0.929 . S
H652 C656 0.929 . S
H653 C662 0.929 . S
C654 H648 0.930 . S
C654 C655 1.367 . S
C654 C662 1.378 . S
C655 C654 1.367 . S
C655 C663 1.433 . S
C656 H652 0.929 . S
C656 C658 1.378 . S
C656 C660 1.350 . S
C657 C660 1.463 . S
C657 C662 1.350 . S
C657 N665 1.427 . S
C658 H649 0.930 . S
C658 C656 1.378 . S
C658 C659 1.367 . S
C659 C658 1.367 . S
C659 C661 1.433 . S
C660 C656 1.350 . S
C660 C657 1.463 . S
C660 N664 1.427 . S
C661 H651 0.929 . S
C661 C659 1.433 . S
C661 N664 1.384 . S
C662 H653 0.929 . S
C662 C654 1.378 . S
C662 C657 1.350 . S
C663 H650 0.929 . S
C663 C655 1.433 . S
C663 N665 1.384 . S
N664 C660 1.427 . S
N664 C661 1.384 . S
N665 C657 1.427 . S
N665 C663 1.384 . S
H666 C672 0.930 . S
H667 C676 0.930 . S
H668 C681 0.929 . S
H669 C679 0.929 . S
H670 C674 0.929 . S
H671 C680 0.929 . S
C672 H666 0.930 . S
C672 C673 1.367 . S
C672 C680 1.378 . S
C673 C672 1.367 . S
C673 C681 1.433 . S
C674 H670 0.929 . S
C674 C676 1.378 . S
C674 C678 1.350 . S
C675 C678 1.463 1_655 S
C675 C680 1.350 . S
C675 N683 1.427 . S
C676 H667 0.930 . S
C676 C674 1.378 . S
C676 C677 1.367 . S
C677 C676 1.367 . S
C677 C679 1.433 . S
C678 C674 1.350 . S
C678 C675 1.463 1_455 S
C678 N682 1.427 . S
C679 H669 0.929 . S
C679 C677 1.433 . S
C679 N682 1.384 . S
C680 H671 0.929 . S
C680 C672 1.378 . S
C680 C675 1.350 . S
C681 H668 0.929 . S
C681 C673 1.433 . S
C681 N683 1.384 . S
N682 C678 1.427 . S
N682 C679 1.384 . S
N683 C675 1.427 . S
N683 C681 1.384 . S
H684 C690 0.930 . S
H685 C694 0.930 . S
H686 C699 0.929 . S
H687 C697 0.929 . S
H688 C692 0.929 . S
H689 C698 0.929 . S
C690 H684 0.930 . S
C690 C691 1.367 . S
C690 C698 1.378 . S
C691 C690 1.367 . S
C691 C699 1.433 . S
C692 H688 0.929 . S
C692 C694 1.378 . S
C692 C696 1.350 . S
C693 C696 1.463 . S
C693 C698 1.350 . S
C693 N701 1.427 . S
C694 H685 0.930 . S
C694 C692 1.378 . S
C694 C695 1.367 . S
C695 C694 1.367 . S
C695 C697 1.433 . S
C696 C692 1.350 . S
C696 C693 1.463 . S
C696 N700 1.427 . S
C697 H687 0.929 . S
C697 C695 1.433 . S
C697 N700 1.384 . S
C698 H689 0.929 . S
C698 C690 1.378 . S
C698 C693 1.350 . S
C699 H686 0.929 . S
C699 C691 1.433 . S
C699 N701 1.384 . S
N700 C696 1.427 . S
N700 C697 1.384 . S
N701 C693 1.427 . S
N701 C699 1.384 . S
H702 C708 0.930 . S
H703 C712 0.930 . S
H704 C717 0.929 . S
H705 C715 0.929 . S
H706 C710 0.929 . S
H707 C716 0.929 . S
C708 H702 0.930 . S
C708 C709 1.367 . S
C708 C716 1.378 . S
C709 C708 1.367 . S
C709 C717 1.433 . S
C710 H706 0.929 . S
C710 C712 1.378 . S
C710 C714 1.350 . S
C711 C714 1.463 . S
C711 C716 1.350 . S
C711 N719 1.427 . S
C712 H703 0.930 . S
C712 C710 1.378 . S
C712 C713 1.367 . S
C713 C712 1.367 . S
C713 C715 1.433 . S
C714 C710 1.350 . S
C714 C711 1.463 . S
C714 N718 1.427 . S
C715 H705 0.929 . S
C715 C713 1.433 . S
C715 N718 1.384 . S
C716 H707 0.929 . S
C716 C708 1.378 . S
C716 C711 1.350 . S
C717 H704 0.929 . S
C717 C709 1.433 . S
C717 N719 1.384 . S
N718 C714 1.427 . S
N718 C715 1.384 . S
N719 C711 1.427 . S
N719 C717 1.384 . S
H720 C726 0.930 . S
H721 C730 0.930 . S
H722 C735 0.929 . S
H723 C733 0.929 . S
H724 C728 0.929 . S
H725 C734 0.929 . S
C726 H720 0.930 . S
C726 C727 1.367 . S
C726 C734 1.378 . S
C727 C726 1.367 . S
C727 C735 1.433 . S
C728 H724 0.929 . S
C728 C730 1.378 . S
C728 C732 1.350 . S
C729 C732 1.463 . S
C729 C734 1.350 . S
C729 N737 1.427 . S
C730 H721 0.930 . S
C730 C728 1.378 . S
C730 C731 1.367 . S
C731 C730 1.367 . S
C731 C733 1.433 . S
C732 C728 1.350 . S
C732 C729 1.463 . S
C732 N736 1.427 . S
C733 H723 0.929 . S
C733 C731 1.433 . S
C733 N736 1.384 . S
C734 H725 0.929 . S
C734 C726 1.378 . S
C734 C729 1.350 . S
C735 H722 0.929 . S
C735 C727 1.433 . S
C735 N737 1.384 . S
N736 C732 1.427 . S
N736 C733 1.384 . S
N737 C729 1.427 . S
N737 C735 1.384 . S
H738 C744 0.930 . S
H739 C748 0.930 . S
H740 C753 0.929 . S
H741 C751 0.929 . S
H742 C746 0.929 . S
H743 C752 0.929 . S
C744 H738 0.930 . S
C744 C745 1.367 . S
C744 C752 1.378 . S
C745 C744 1.367 . S
C745 C753 1.433 . S
C746 H742 0.929 . S
C746 C748 1.378 . S
C746 C750 1.350 . S
C747 C750 1.463 . S
C747 C752 1.350 . S
C747 N755 1.427 . S
C748 H739 0.930 . S
C748 C746 1.378 . S
C748 C749 1.367 . S
C749 C748 1.367 . S
C749 C751 1.433 . S
C750 C746 1.350 . S
C750 C747 1.463 . S
C750 N754 1.427 . S
C751 H741 0.929 . S
C751 C749 1.433 . S
C751 N754 1.384 . S
C752 H743 0.929 . S
C752 C744 1.378 . S
C752 C747 1.350 . S
C753 H740 0.929 . S
C753 C745 1.433 . S
C753 N755 1.384 . S
N754 C750 1.427 . S
N754 C751 1.384 . S
N755 C747 1.427 . S
N755 C753 1.384 . S
H756 C762 0.930 . S
H757 C766 0.930 . S
H758 C771 0.929 . S
H759 C769 0.929 . S
H760 C764 0.929 . S
H761 C770 0.929 . S
C762 H756 0.930 . S
C762 C763 1.367 . S
C762 C770 1.378 . S
C763 C762 1.367 . S
C763 C771 1.433 . S
C764 H760 0.929 . S
C764 C766 1.378 . S
C764 C768 1.350 . S
C765 C768 1.463 . S
C765 C770 1.350 . S
C765 N773 1.427 . S
C766 H757 0.930 . S
C766 C764 1.378 . S
C766 C767 1.367 . S
C767 C766 1.367 . S
C767 C769 1.433 . S
C768 C764 1.350 . S
C768 C765 1.463 . S
C768 N772 1.427 . S
C769 H759 0.929 . S
C769 C767 1.433 . S
C769 N772 1.384 . S
C770 H761 0.929 . S
C770 C762 1.378 . S
C770 C765 1.350 . S
C771 H758 0.929 . S
C771 C763 1.433 . S
C771 N773 1.384 . S
N772 C768 1.427 . S
N772 C769 1.384 . S
N773 C765 1.427 . S
N773 C771 1.384 . S
H774 C780 0.930 . S
H775 C784 0.930 . S
H776 C789 0.929 . S
H777 C787 0.929 . S
H778 C782 0.929 . S
H779 C788 0.929 . S
C780 H774 0.930 . S
C780 C781 1.367 . S
C780 C788 1.378 . S
C781 C780 1.367 . S
C781 C789 1.433 . S
C782 H778 0.929 . S
C782 C784 1.378 . S
C782 C786 1.350 . S
C783 C786 1.463 . S
C783 C788 1.350 . S
C783 N791 1.427 . S
C784 H775 0.930 . S
C784 C782 1.378 . S
C784 C785 1.367 . S
C785 C784 1.367 . S
C785 C787 1.433 . S
C786 C782 1.350 . S
C786 C783 1.463 . S
C786 N790 1.427 . S
C787 H777 0.929 . S
C787 C785 1.433 . S
C787 N790 1.384 . S
C788 H779 0.929 . S
C788 C780 1.378 . S
C788 C783 1.350 . S
C789 H776 0.929 . S
C789 C781 1.433 . S
C789 N791 1.384 . S
N790 C786 1.427 . S
N790 C787 1.384 . S
N791 C783 1.427 . S
N791 C789 1.384 . S
H792 C798 0.930 . S
H793 C802 0.930 . S
H794 C807 0.929 . S
H795 C805 0.929 . S
H796 C800 0.929 . S
H797 C806 0.929 . S
C798 H792 0.930 . S
C798 C799 1.367 . S
C798 C806 1.378 . S
C799 C798 1.367 . S
C799 C807 1.433 . S
C800 H796 0.929 . S
C800 C802 1.378 . S
C800 C804 1.350 . S
C801 C804 1.463 . S
C801 C806 1.350 . S
C801 N809 1.427 . S
C802 H793 0.930 . S
C802 C800 1.378 . S
C802 C803 1.367 . S
C803 C802 1.367 . S
C803 C805 1.433 . S
C804 C800 1.350 . S
C804 C801 1.463 . S
C804 N808 1.427 . S
C805 H795 0.929 . S
C805 C803 1.433 . S
C805 N808 1.384 . S
C806 H797 0.929 . S
C806 C798 1.378 . S
C806 C801 1.350 . S
C807 H794 0.929 . S
C807 C799 1.433 . S
C807 N809 1.384 . S
N808 C804 1.427 . S
N808 C805 1.384 . S
N809 C801 1.427 . S
N809 C807 1.384 . S
H810 C816 0.930 . S
H811 C820 0.930 . S
H812 C825 0.929 . S
H813 C823 0.929 . S
H814 C818 0.929 . S
H815 C824 0.929 . S
C816 H810 0.930 . S
C816 C817 1.367 . S
C816 C824 1.378 . S
C817 C816 1.367 . S
C817 C825 1.433 . S
C818 H814 0.929 . S
C818 C820 1.378 . S
C818 C822 1.350 . S
C819 C822 1.463 . S
C819 C824 1.350 . S
C819 N827 1.427 . S
C820 H811 0.930 . S
C820 C818 1.378 . S
C820 C821 1.367 . S
C821 C820 1.367 . S
C821 C823 1.433 . S
C822 C818 1.350 . S
C822 C819 1.463 . S
C822 N826 1.427 . S
C823 H813 0.929 . S
C823 C821 1.433 . S
C823 N826 1.384 . S
C824 H815 0.929 . S
C824 C816 1.378 . S
C824 C819 1.350 . S
C825 H812 0.929 . S
C825 C817 1.433 . S
C825 N827 1.384 . S
N826 C822 1.427 . S
N826 C823 1.384 . S
N827 C819 1.427 . S
N827 C825 1.384 . S
H828 C834 0.930 . S
H829 C838 0.930 . S
H830 C843 0.929 . S
H831 C841 0.929 . S
H832 C836 0.929 . S
H833 C842 0.929 . S
C834 H828 0.930 . S
C834 C835 1.367 . S
C834 C842 1.378 . S
C835 C834 1.367 . S
C835 C843 1.433 . S
C836 H832 0.929 . S
C836 C838 1.378 . S
C836 C840 1.350 . S
C837 C840 1.463 . S
C837 C842 1.350 . S
C837 N845 1.427 . S
C838 H829 0.930 . S
C838 C836 1.378 . S
C838 C839 1.367 . S
C839 C838 1.367 . S
C839 C841 1.433 . S
C840 C836 1.350 . S
C840 C837 1.463 . S
C840 N844 1.427 . S
C841 H831 0.929 . S
C841 C839 1.433 . S
C841 N844 1.384 . S
C842 H833 0.929 . S
C842 C834 1.378 . S
C842 C837 1.350 . S
C843 H830 0.929 . S
C843 C835 1.433 . S
C843 N845 1.384 . S
N844 C840 1.427 . S
N844 C841 1.384 . S
N845 C837 1.427 . S
N845 C843 1.384 . S
H846 C852 0.930 . S
H847 C856 0.930 . S
H848 C861 0.929 . S
H849 C859 0.929 . S
H850 C854 0.929 . S
H851 C860 0.929 . S
C852 H846 0.930 . S
C852 C853 1.367 . S
C852 C860 1.378 . S
C853 C852 1.367 . S
C853 C861 1.433 . S
C854 H850 0.929 . S
C854 C856 1.378 . S
C854 C858 1.350 . S
C855 C858 1.463 . S
C855 C860 1.350 . S
C855 N863 1.427 . S
C856 H847 0.930 . S
C856 C854 1.378 . S
C856 C857 1.367 . S
C857 C856 1.367 . S
C857 C859 1.433 . S
C858 C854 1.350 . S
C858 C855 1.463 . S
C858 N862 1.427 . S
C859 H849 0.929 . S
C859 C857 1.433 . S
C859 N862 1.384 . S
C860 H851 0.929 . S
C860 C852 1.378 . S
C860 C855 1.350 . S
C861 H848 0.929 . S
C861 C853 1.433 . S
C861 N863 1.384 . S
N862 C858 1.427 . S
N862 C859 1.384 . S
N863 C855 1.427 . S
N863 C861 1.384 . S
H864 C870 0.930 . S
H865 C874 0.930 . S
H866 C879 0.929 . S
H867 C877 0.929 . S
H868 C872 0.929 . S
H869 C878 0.929 . S
C870 H864 0.930 . S
C870 C871 1.367 . S
C870 C878 1.378 . S
C871 C870 1.367 . S
C871 C879 1.433 . S
C872 H868 0.929 . S
C872 C874 1.378 . S
C872 C876 1.350 . S
C873 C876 1.463 . S
C873 C878 1.350 . S
C873 N881 1.427 . S
C874 H865 0.930 . S
C874 C872 1.378 . S
C874 C875 1.367 . S
C875 C874 1.367 . S
C875 C877 1.433 . S
C876 C872 1.350 . S
C876 C873 1.463 . S
C876 N880 1.427 . S
C877 H867 0.929 . S
C877 C875 1.433 . S
C877 N880 1.384 . S
C878 H869 0.929 . S
C878 C870 1.378 . S
C878 C873 1.350 . S
C879 H866 0.929 . S
C879 C871 1.433 . S
C879 N881 1.384 . S
N880 C876 1.427 . S
N880 C877 1.384 . S
N881 C873 1.427 . S
N881 C879 1.384 . S
H882 C888 0.930 . S
H883 C892 0.930 . S
H884 C897 0.929 . S
H885 C895 0.929 . S
H886 C890 0.929 . S
H887 C896 0.929 . S
C888 H882 0.930 . S
C888 C889 1.367 . S
C888 C896 1.378 . S
C889 C888 1.367 . S
C889 C897 1.433 . S
C890 H886 0.929 . S
C890 C892 1.378 . S
C890 C894 1.350 . S
C891 C894 1.463 . S
C891 C896 1.350 . S
C891 N899 1.427 . S
C892 H883 0.930 . S
C892 C890 1.378 . S
C892 C893 1.367 . S
C893 C892 1.367 . S
C893 C895 1.433 . S
C894 C890 1.350 . S
C894 C891 1.463 . S
C894 N898 1.427 . S
C895 H885 0.929 . S
C895 C893 1.433 . S
C895 N898 1.384 . S
C896 H887 0.929 . S
C896 C888 1.378 . S
C896 C891 1.350 . S
C897 H884 0.929 . S
C897 C889 1.433 . S
C897 N899 1.384 . S
N898 C894 1.427 . S
N898 C895 1.384 . S
N899 C891 1.427 . S
N899 C897 1.384 . S
C259 C20 0.968 . S
C263 C187 0.966 . S
C277 C209 0.963 . S
C281 C40 0.964 . S
C295 C62 0.963 . S
C299 C229 0.963 . S
C313 C251 0.972 . S
C317 C82 0.969 . S
C331 C104 0.981 . S
C335 C145 0.978 . S
C349 C167 0.981 . S
C353 C124 0.977 . S
C367 C250 1.176 . S
C371 C83 1.168 . S
C385 C103 1.169 . S
C389 C146 1.155 . S
C403 C166 1.169 . S
C407 C125 1.177 . S
C421 C188 1.147 . S
C425 C19 1.150 . S
C439 C208 1.147 . S
C443 C41 1.158 . S
C457 C61 1.176 . S
C461 C230 1.173 . S
C475 C151 1.251 . S
C479 C4 1.234 . S
C493 C175 1.239 . S
C497 C28 1.256 . S
C511 C193 1.232 . S
C515 C46 1.244 . S
C529 C70 1.252 . S
C533 C217 1.260 . S
C547 C88 1.231 . S
C551 C235 1.243 . S
C565 C133 1.244 . S
C569 C112 1.259 . S
C583 C213 0.985 . S
C587 C66 0.982 . S
C601 C100 0.952 . S
C605 C247 0.950 . S
C619 C129 0.952 . S
C623 C108 0.955 . S
C637 C163 0.952 . S
C641 C16 0.955 . S
C655 C24 0.969 . S
C659 C171 0.974 . S
C673 C58 0.965 . S
C677 C205 0.960 . S
C691 C3 1.342 . S
C695 C226 1.339 . S
C709 C37 1.331 . S
C713 C234 1.331 . S
C727 C142 1.335 . S
C731 C45 1.337 . S
C745 C150 1.337 . S
C749 C79 1.338 . S
C763 C87 1.334 . S
C767 C184 1.333 . S
C781 C192 1.346 . S
C785 C121 1.348 . S
C799 C67 1.451 . S
C803 C154 1.442 . S
C817 C91 1.447 . S
C821 C172 1.437 . S
C835 C196 1.453 . S
C839 C109 1.453 . S
C853 C214 1.453 . S
C857 C7 1.446 . S
C871 C238 1.450 . S
C875 C25 1.454 . S
C889 C130 1.431 . S
C893 C49 1.434 . S
