# Generated by pormake.
# Topology sxb, (6)-cn, num edge types: 1
# Building blocks:
#     Node 0, Type 0, BuildingBlock: FUNLAD_clean_sbu_0, # of connection points: 6
#     Node 1, Type 0, BuildingBlock: FUNLAD_clean_sbu_0, # of connection points: 6
#     Node 2, Type 0, BuildingBlock: FUNLAD_clean_sbu_0, # of connection points: 6
#     Node 3, Type 0, BuildingBlock: FUNLAD_clean_sbu_0, # of connection points: 6
#     Edge 4, Type (0, 0), BuildingBlock: ZUJKAS_clean_linker_0, # of connection points: 2
#     Edge 5, Type (0, 0), BuildingBlock: ZUJKAS_clean_linker_0, # of connection points: 2
#     Edge 6, Type (0, 0), BuildingBlock: ZUJKAS_clean_linker_0, # of connection points: 2
#     Edge 7, Type (0, 0), BuildingBlock: ZUJKAS_clean_linker_0, # of connection points: 2
#     Edge 8, Type (0, 0), BuildingBlock: ZUJKAS_clean_linker_0, # of connection points: 2
#     Edge 9, Type (0, 0), BuildingBlock: ZUJKAS_clean_linker_0, # of connection points: 2
#     Edge 10, Type (0, 0), BuildingBlock: ZUJKAS_clean_linker_0, # of connection points: 2
#     Edge 11, Type (0, 0), BuildingBlock: ZUJKAS_clean_linker_0, # of connection points: 2
#     Edge 12, Type (0, 0), BuildingBlock: ZUJKAS_clean_linker_0, # of connection points: 2
#     Edge 13, Type (0, 0), BuildingBlock: ZUJKAS_clean_linker_0, # of connection points: 2
#     Edge 14, Type (0, 0), BuildingBlock: ZUJKAS_clean_linker_0, # of connection points: 2
#     Edge 15, Type (0, 0), BuildingBlock: ZUJKAS_clean_linker_0, # of connection points: 2
# Relax obj value: 0.125
# Max RMSD: 0.152
# Mean RMSD: 0.152
data_MOF--net-sxb--node1-FUNLAD_clean_sbu_0--edge1-ZUJKAS_clean_linker_0
_symmetry_space_group_name_H-M    P1
_symmetry_Int_Tables_number       1
_symmetry_cell_setting            triclinic
loop_
_symmetry_equiv_pos_as_xyz
'x, y, z'
_cell_length_a     18.733622
_cell_length_b     35.100593
_cell_length_c     52.539744
_cell_angle_alpha  89.924532
_cell_angle_beta   91.714813
_cell_angle_gamma 89.996183
loop_
_atom_site_label
_atom_site_type_symbol
_atom_site_fract_x
_atom_site_fract_y
_atom_site_fract_z
_atom_type_partial_charge
C0 C 0.1 0.02817 0.02167 0.0
N1 N -0.03419 -0.00188 0.96012 0.0
C2 C -0.01485 0.03041 0.94773 0.0
C3 C -0.01445 0.03134 0.92116 0.0
C4 C -0.0337 -0.00137 0.9072 0.0
C5 C 0.94666 0.9657 0.92048 0.0
C6 C 0.94658 0.9661 0.94705 0.0
Zn7 Zn -0.03399 -0.00252 0.99904 0.0
C8 C 0.0292 0.92577 0.02032 0.0
N9 N -0.03293 -0.00418 0.08034 0.0
C10 C -0.01116 0.02732 0.09348 0.0
C11 C 0.94496 0.964 0.09263 0.0
C12 C 0.94394 0.96309 0.11919 0.0
C13 C -0.0341 0.99524 0.13327 0.0
C14 C -0.0113 0.02765 0.12005 0.0
Zn15 Zn -0.03309 -0.00352 0.04142 0.0
O16 O 0.06765 0.02206 1.00049 0.0
C17 C 0.90392 0.06826 0.02021 0.0
O18 O 0.06917 0.02052 0.04225 0.0
H19 H 0.92802 0.93923 0.08182 0.0
H20 H 0.00057 0.0555 0.95849 0.0
H21 H 0.00605 0.05236 0.08333 0.0
O22 O 0.91789 0.05214 0.99929 0.0
O23 O 0.91974 0.05141 0.04106 0.0
H24 H 0.93106 0.94078 0.95725 0.0
O25 O 0.86478 0.97233 0.03992 0.0
O26 O 0.86431 0.97285 0.99815 0.0
O27 O 0.01404 0.94164 0.0412 0.0
O28 O 0.01432 0.94281 0.99946 0.0
C29 C 0.83309 0.96554 0.01871 0.0
H30 H 0.00178 0.0572 0.91167 0.0
H31 H 0.93065 0.94001 0.91044 0.0
H32 H 0.92684 0.93732 0.12859 0.0
H33 H 0.00521 0.05323 0.13011 0.0
C34 C 0.83275 0.02739 0.51931 0.0
N35 N -0.03118 -0.00245 0.58049 0.0
C36 C 0.94891 0.02969 0.59289 0.0
C37 C 0.94931 0.03062 0.61946 0.0
C38 C -0.03003 -0.00191 0.63343 0.0
C39 C -0.00982 0.96532 0.62014 0.0
C40 C -0.01059 0.9657 0.59356 0.0
Zn41 Zn -0.03245 -0.00304 0.54157 0.0
C42 C 0.90548 0.92498 0.52055 0.0
N43 N 0.96453 0.99563 0.46025 0.0
C44 C 0.94168 0.02699 0.44712 0.0
C45 C -0.01347 0.96385 0.44793 0.0
C46 C -0.01391 0.96279 0.42135 0.0
C47 C 0.96274 0.99475 0.40728 0.0
C48 C 0.94033 0.02716 0.42053 0.0
Zn49 Zn -0.03418 -0.00374 0.49917 0.0
O50 O 0.86528 0.02094 0.54043 0.0
C51 C 0.02785 0.06824 0.52018 0.0
O52 O 0.86337 0.02005 0.49865 0.0
H53 H 0.00434 0.93919 0.45873 0.0
H54 H 0.93243 0.05464 0.58214 0.0
H55 H 0.92459 0.05199 0.45728 0.0
O56 O 0.01427 0.05194 0.5411 0.0
O57 O 0.01233 0.05139 0.49934 0.0
H58 H 0.00535 0.94051 0.58335 0.0
O59 O 0.06823 0.97246 0.50034 0.0
O60 O 0.06986 0.97299 0.54212 0.0
O61 O 0.91938 0.94117 0.49962 0.0
O62 O 0.9207 0.94195 0.54137 0.0
C63 C 0.10062 0.96584 0.52145 0.0
H64 H 0.93258 0.05634 0.62896 0.0
H65 H 0.00727 0.93978 0.63018 0.0
H66 H 0.00299 0.93703 0.41194 0.0
H67 H 0.92278 0.0526 0.41047 0.0
C68 C 0.6007 0.52887 0.02234 0.0
N69 N 0.4664 0.49864 0.96084 0.0
C70 C 0.48458 0.53116 0.9485 0.0
C71 C 0.48457 0.53225 0.92193 0.0
C72 C 0.46624 0.49946 0.90786 0.0
C73 C 0.4479 0.46626 0.92116 0.0
C74 C 0.44804 0.46654 0.94773 0.0
Zn75 Zn 0.46686 0.49788 0.99973 0.0
C76 C 0.53021 0.42611 0.02087 0.0
N77 N 0.4682 0.49601 0.08097 0.0
C78 C 0.48983 0.52753 0.09411 0.0
C79 C 0.44622 0.46415 0.09324 0.0
C80 C 0.44516 0.46322 0.1198 0.0
C81 C 0.4669 0.4954 0.13388 0.0
C82 C 0.48961 0.52784 0.12068 0.0
Zn83 Zn 0.46791 0.49678 0.04209 0.0
O84 O 0.56871 0.52239 1.00114 0.0
C85 C 0.40441 0.56848 0.02101 0.0
O86 O 0.56978 0.52124 0.04291 0.0
H87 H 0.42905 0.43944 0.08242 0.0
H88 H 0.49903 0.55638 0.95928 0.0
H89 H 0.50727 0.55253 0.08398 0.0
O90 O 0.41903 0.55257 1.00009 0.0
O91 O 0.41993 0.55152 0.04183 0.0
H92 H 0.43372 0.44098 0.95791 0.0
O93 O 0.36609 0.47239 0.04064 0.0
O94 O 0.36489 0.47349 0.99887 0.0
O95 O 0.51573 0.44205 0.0418 0.0
O96 O 0.51475 0.44311 1.00005 0.0
C97 C 0.3339 0.46605 0.01946 0.0
H98 H 0.49804 0.55866 0.91256 0.0
H99 H 0.43447 0.44012 0.91121 0.0
H100 H 0.42642 0.43776 0.12916 0.0
H101 H 0.50773 0.55311 0.13076 0.0
C102 C 0.33309 0.52841 0.51954 0.0
N103 N 0.46769 0.49713 0.58085 0.0
C104 C 0.40731 0.48749 0.59309 0.0
C105 C 0.40647 0.4876 0.61964 0.0
C106 C 0.46858 0.49737 0.63384 0.0
C107 C 0.53022 0.50705 0.62065 0.0
C108 C 0.5285 0.50692 0.59406 0.0
Zn109 Zn 0.46698 0.49688 0.54193 0.0
C110 C 0.40369 0.42548 0.52055 0.0
N111 N 0.46497 0.49631 0.46067 0.0
C112 C 0.40595 0.48381 0.44747 0.0
C113 C 0.52368 0.5086 0.44844 0.0
C114 C 0.52449 0.50867 0.42188 0.0
C115 C 0.46435 0.49589 0.40772 0.0
C116 C 0.40451 0.48333 0.42089 0.0
Zn117 Zn 0.46566 0.49658 0.49956 0.0
O118 O 0.36548 0.52186 0.54066 0.0
C119 C 0.52895 0.56798 0.521 0.0
O120 O 0.36376 0.52102 0.4989 0.0
H121 H 0.57001 0.51847 0.45929 0.0
H122 H 0.35952 0.47978 0.58223 0.0
H123 H 0.35988 0.4741 0.45757 0.0
O124 O 0.51494 0.55156 0.54185 0.0
O125 O 0.51281 0.55152 0.50008 0.0
H126 H 0.57593 0.51452 0.58398 0.0
O127 O 0.56749 0.47209 0.50076 0.0
O128 O 0.56853 0.47193 0.54251 0.0
O129 O 0.41858 0.44169 0.49972 0.0
O130 O 0.41894 0.44215 0.54148 0.0
C131 C 0.59954 0.46504 0.52186 0.0
H132 H 0.35734 0.48051 0.6289 0.0
H133 H 0.57968 0.51422 0.63071 0.0
H134 H 0.57142 0.5191 0.41255 0.0
H135 H 0.35734 0.47276 0.41079 0.0
H136 H 0.35744 0.60796 0.06213 0.0
H137 H 0.29297 0.66856 0.06201 0.0
H138 H 0.3026 0.67381 0.9802 0.0
H139 H 0.36747 0.61329 0.98006 0.0
H140 H 0.34139 0.74284 1.00631 0.0
H141 H 0.08259 0.68414 0.03748 0.0
H142 H 0.15907 0.67129 0.05711 0.0
H143 H 0.15195 0.65454 0.02485 0.0
C144 C 0.34599 0.622 0.04409 0.0
C145 C 0.36747 0.60575 0.02109 0.0
C146 C 0.30877 0.6565 0.04407 0.0
C147 C 0.29224 0.67531 0.02107 0.0
C148 C 0.31459 0.65956 0.99812 0.0
H149 H 0.0766 0.88626 0.97929 0.0
H150 H 0.14103 0.82565 0.97951 0.0
C151 C 0.35163 0.625 0.9981 0.0
C152 C 0.25248 0.71174 0.02097 0.0
H153 H 0.09218 0.75139 0.03527 0.0
C154 C 0.28681 0.74475 0.01253 0.0
C155 C 0.18137 0.71401 0.02915 0.0
C156 C 0.14115 0.67911 0.03747 0.0
C157 C 0.25221 0.78022 0.01245 0.0
C158 C 0.18108 0.78249 0.02061 0.0
C159 C 0.14676 0.74948 0.02906 0.0
C160 C 0.14127 0.8189 0.02045 0.0
C161 C 0.29247 0.81512 1.00414 0.0
C162 C 0.11862 0.83466 0.04336 0.0
C163 C 0.08158 0.86923 0.04332 0.0
C164 C 0.06607 0.88848 0.02031 0.0
C165 C 0.08782 0.87222 0.99734 0.0
C166 C 0.12502 0.83771 0.99743 0.0
H167 H 0.35104 0.81011 1.00423 0.0
H168 H 0.27479 0.82285 0.98446 0.0
H169 H 0.28147 0.83973 0.01671 0.0
H170 H 0.13039 0.82042 0.0613 0.0
H171 H 0.06553 0.88094 0.06133 0.0
H172 H 0.56907 0.38452 0.97953 0.0
H173 H 0.63239 0.32361 0.97941 0.0
H174 H 0.63737 0.32209 0.06151 0.0
H175 H 0.57464 0.38323 0.06188 0.0
H176 H 0.76991 0.30581 0.03966 0.0
H177 H 0.55114 0.21814 0.99657 0.0
H178 H 0.57235 0.26029 0.9789 0.0
H179 H 0.53597 0.26465 1.01003 0.0
C180 C 0.58319 0.37114 0.99758 0.0
C181 C 0.56647 0.38865 0.02073 0.0
C182 C 0.6191 0.33625 0.99746 0.0
C183 C 0.63862 0.31813 0.02044 0.0
C184 C 0.62236 0.33556 0.04357 0.0
H185 H 0.86556 0.11012 0.0615 0.0
H186 H 0.8025 0.17109 0.06155 0.0
C187 C 0.58639 0.37044 0.04373 0.0
C188 C 0.67775 0.28147 0.02037 0.0
H189 H 0.6648 0.18875 1.00124 0.0
C190 C 0.74689 0.28014 0.03138 0.0
C191 C 0.64753 0.24813 1.00948 0.0
C192 C 0.57244 0.2476 0.99826 0.0
C193 C 0.78719 0.24643 0.03142 0.0
C194 C 0.75696 0.21308 0.02054 0.0
C195 C 0.68782 0.21442 1.00952 0.0
C196 C 0.79602 0.1764 0.02051 0.0
C197 C 0.8623 0.24697 0.04262 0.0
C198 C 0.81205 0.15884 0.9974 0.0
C199 C 0.84785 0.1239 0.99728 0.0
C200 C 0.86784 0.10578 0.02031 0.0
C201 C 0.85139 0.12342 0.04343 0.0
C202 C 0.81563 0.15836 0.04351 0.0
H203 H 0.88365 0.27643 0.04423 0.0
H204 H 0.86239 0.2344 0.06201 0.0
H205 H 0.89873 0.22983 0.03089 0.0
H206 H 0.79698 0.17224 0.97945 0.0
H207 H 0.85942 0.11102 0.97914 0.0
H208 H 0.06894 0.11161 0.56128 0.0
H209 H 0.13154 0.17272 0.56113 0.0
H210 H 0.13013 0.17127 0.47906 0.0
H211 H 0.0681 0.10992 0.47896 0.0
H212 H 0.26432 0.1882 0.50208 0.0
H213 H 0.04958 0.27768 0.54146 0.0
H214 H 0.07194 0.23615 0.56005 0.0
H215 H 0.03304 0.23073 0.52858 0.0
C216 C 0.08144 0.12439 0.54317 0.0
C217 C 0.06326 0.10594 0.52012 0.0
C218 C 0.11693 0.1594 0.54314 0.0
C219 C 0.13455 0.17673 0.52008 0.0
C220 C 0.11662 0.15842 0.49705 0.0
H221 H 0.36122 0.38298 0.4792 0.0
H222 H 0.29686 0.32239 0.479 0.0
C223 C 0.08107 0.12341 0.49704 0.0
C224 C 0.17387 0.21334 0.52001 0.0
H225 H 0.16334 0.30663 0.53783 0.0
C226 C 0.24217 0.21417 0.50976 0.0
C227 C 0.1448 0.24707 0.53013 0.0
C228 C 0.07057 0.24813 0.54049 0.0
C229 C 0.28283 0.24776 0.50976 0.0
C230 C 0.2538 0.28149 0.51991 0.0
C231 C 0.18545 0.28067 0.53013 0.0
C232 C 0.29344 0.318 0.52003 0.0
C233 C 0.3571 0.24667 0.49944 0.0
C234 C 0.3116 0.33596 0.54316 0.0
C235 C 0.3482 0.37066 0.54337 0.0
C236 C 0.3669 0.38815 0.5204 0.0
C237 C 0.34821 0.37013 0.49724 0.0
C238 C 0.31165 0.33543 0.49707 0.0
H239 H 0.37795 0.2171 0.49836 0.0
H240 H 0.35588 0.25883 0.47992 0.0
H241 H 0.39468 0.26391 0.51143 0.0
H242 H 0.29762 0.32304 0.56108 0.0
H243 H 0.36139 0.38388 0.56152 0.0
H244 H 0.86453 0.88369 0.56182 0.0
H245 H 0.80235 0.8224 0.56185 0.0
H246 H 0.80218 0.8202 0.47979 0.0
H247 H 0.86495 0.88127 0.47953 0.0
H248 H 0.66847 0.80537 0.53868 0.0
H249 H 0.8836 0.71534 0.50007 0.0
H250 H 0.90006 0.76241 0.51278 0.0
H251 H 0.86157 0.75672 0.48127 0.0
C252 C 0.8518 0.87005 0.54377 0.0
C253 C 0.87 0.8873 0.52067 0.0
C254 C 0.81616 0.83507 0.54384 0.0
C255 C 0.79852 0.81657 0.52085 0.0
C256 C 0.81654 0.83368 0.49776 0.0
H257 H 0.57114 0.60942 0.47996 0.0
H258 H 0.63505 0.67021 0.48028 0.0
C259 C 0.85213 0.86867 0.49766 0.0
C260 C 0.75912 0.78 0.52101 0.0
H261 H 0.76974 0.6865 0.50367 0.0
C262 C 0.69068 0.77931 0.53116 0.0
C263 C 0.78827 0.74613 0.51111 0.0
C264 C 0.86265 0.74492 0.50088 0.0
C265 C 0.64999 0.74573 0.53127 0.0
C266 C 0.67911 0.71188 0.52134 0.0
C267 C 0.74758 0.71255 0.51122 0.0
C268 C 0.63938 0.67541 0.52131 0.0
C269 C 0.57561 0.74694 0.5415 0.0
C270 C 0.62118 0.65809 0.54431 0.0
C271 C 0.58458 0.62339 0.54422 0.0
C272 C 0.56577 0.6053 0.5211 0.0
C273 C 0.58441 0.6227 0.49809 0.0
C274 C 0.62109 0.65737 0.49822 0.0
H275 H 0.55487 0.77654 0.54253 0.0
H276 H 0.53811 0.72971 0.52947 0.0
H277 H 0.57657 0.7348 0.56102 0.0
H278 H 0.63603 0.67121 0.56235 0.0
H279 H 0.57158 0.61062 0.56228 0.0
H280 H 0.18421 0.04142 0.98113 0.0
H281 H 0.31324 0.03189 0.98094 0.0
H282 H 0.31935 0.02185 0.06276 0.0
H283 H 0.19032 0.03129 0.0633 0.0
H284 H 0.44209 0.06365 0.01082 0.0
H285 H 0.36725 0.91291 0.03014 0.0
H286 H 0.30364 0.94772 0.0182 0.0
H287 H 0.33242 0.94847 0.05107 0.0
C288 C 0.21325 0.03855 0.99918 0.0
C289 C 0.17706 0.036 0.02218 0.0
C290 C 0.28684 0.03307 0.99899 0.0
C291 C 0.3246 0.02522 0.02178 0.0
C292 C 0.2902 0.02734 0.04501 0.0
H293 H 0.74792 0.9529 0.05907 0.0
H294 H 0.61841 0.96058 0.05848 0.0
C295 C 0.21665 0.03289 0.04525 0.0
C296 C 0.39696 0.00957 0.02089 0.0
H297 H 0.49045 0.92658 0.02785 0.0
C298 C 0.45293 0.03375 0.01449 0.0
C299 C 0.40984 0.97039 0.02547 0.0
C300 C 0.35021 0.94315 0.03144 0.0
C301 C 0.52262 0.0198 0.0131 0.0
C302 C 0.53559 0.98068 0.01782 0.0
C303 C 0.47957 0.95645 0.02411 0.0
C304 C 0.60825 0.96533 0.0175 0.0
C305 C 0.58221 0.04703 1.00704 0.0
C306 C 0.64364 0.96278 0.99448 0.0
C307 C 0.71751 0.95838 0.9947 0.0
C308 C 0.75636 0.95682 0.01799 0.0
C309 C 0.71943 0.95461 0.04085 0.0
C310 C 0.64555 0.95896 0.04058 0.0
H311 H 0.56479 0.07726 1.00776 0.0
H312 H 0.62822 0.04304 0.0206 0.0
H313 H 0.601 0.04108 0.98761 0.0
H314 H 0.61492 0.96724 0.97651 0.0
H315 H 0.74445 0.95964 0.97675 0.0
H316 H 0.18503 0.95457 0.48077 0.0
H317 H 0.3143 0.96191 0.48107 0.0
H318 H 0.31968 0.96615 0.56315 0.0
H319 H 0.19011 0.95918 0.56313 0.0
H320 H 0.36669 0.03303 0.5384 0.0
H321 H 0.49768 0.90327 0.50135 0.0
H322 H 0.42074 0.91886 0.48294 0.0
H323 H 0.41028 0.90233 0.51499 0.0
C324 C 0.21387 0.95562 0.49894 0.0
C325 C 0.17742 0.95726 0.52191 0.0
C326 C 0.28781 0.95965 0.49906 0.0
C327 C 0.32595 0.96485 0.52213 0.0
C328 C 0.29065 0.96228 0.54519 0.0
H329 H 0.74841 0.03866 0.56002 0.0
H330 H 0.61913 0.03131 0.55975 0.0
C331 C 0.21671 0.95823 0.54511 0.0
C332 C 0.39914 0.97976 0.52188 0.0
H333 H 0.56669 0.96018 0.50243 0.0
C334 C 0.41075 0.01705 0.53076 0.0
C335 C 0.45559 0.95892 0.51152 0.0
C336 C 0.44584 0.9185 0.50234 0.0
C337 C 0.47779 0.03429 0.52931 0.0
C338 C 0.53424 0.01345 0.51895 0.0
C339 C 0.52264 0.97617 0.51008 0.0
C340 C 0.60742 0.02837 0.5187 0.0
C341 C 0.48754 0.07472 0.53849 0.0
C342 C 0.64268 0.03094 0.49562 0.0
C343 C 0.71662 0.03499 0.49569 0.0
C344 C 0.75594 0.03596 0.51888 0.0
C345 C 0.71953 0.03761 0.54186 0.0
C346 C 0.6456 0.03357 0.54176 0.0
H347 H 0.43569 0.08994 0.53949 0.0
H348 H 0.51268 0.07436 0.55788 0.0
H349 H 0.52307 0.09089 0.52583 0.0
H350 H 0.61362 0.02707 0.47767 0.0
H351 H 0.74318 0.03404 0.47766 0.0
H352 H 0.68567 0.54134 0.9819 0.0
H353 H 0.81515 0.53358 0.9824 0.0
H354 H 0.81911 0.52719 0.06438 0.0
H355 H 0.6896 0.53486 0.06422 0.0
H356 H 0.94327 0.5676 0.01276 0.0
H357 H 0.86913 0.41708 0.03342 0.0
H358 H 0.80557 0.45124 0.02058 0.0
H359 H 0.83315 0.45336 0.05354 0.0
C360 C 0.71425 0.53967 1.0001 0.0
C361 C 0.67745 0.53756 0.02299 0.0
C362 C 0.78813 0.53527 1.00032 0.0
C363 C 0.82556 0.52894 0.02338 0.0
C364 C 0.7903 0.53159 0.04642 0.0
H365 H 0.24946 0.45301 0.05996 0.0
H366 H 0.12043 0.46258 0.06005 0.0
C367 C 0.71644 0.53604 0.04626 0.0
C368 C 0.89822 0.51358 0.02303 0.0
H369 H -0.00817 0.4307 0.03032 0.0
C370 C 0.95419 0.53776 0.0166 0.0
C371 C 0.91125 0.4745 0.0279 0.0
C372 C 0.85172 0.44732 0.03409 0.0
C373 C 0.02393 0.52382 0.01527 0.0
C374 C 0.03688 0.4847 0.02001 0.0
C375 C -0.01905 0.46056 0.02652 0.0
C376 C 0.10928 0.46906 0.0192 0.0
C377 C 0.0835 0.55103 1.00918 0.0
C378 C 0.14379 0.46682 0.99599 0.0
C379 C 0.21736 0.46125 0.99581 0.0
C380 C 0.25683 0.45823 0.01891 0.0
C381 C 0.22052 0.45581 0.04189 0.0
C382 C 0.14693 0.4613 0.04202 0.0
H383 H 0.06643 0.58128 1.01037 0.0
H384 H 0.13013 0.54658 0.02241 0.0
H385 H 0.10122 0.54557 0.98955 0.0
H386 H 0.11473 0.47223 0.97821 0.0
H387 H 0.24377 0.46275 0.97777 0.0
H388 H 0.24856 0.53977 0.56022 0.0
H389 H 0.11936 0.53094 0.56002 0.0
H390 H 0.114 0.52542 0.47801 0.0
H391 H 0.24326 0.53411 0.47788 0.0
H392 H -0.00878 0.56448 0.53129 0.0
H393 H 0.06432 0.41514 0.50732 0.0
H394 H 0.1286 0.44901 0.51998 0.0
H395 H 0.09875 0.45202 0.48727 0.0
C396 C 0.2197 0.53806 0.54208 0.0
C397 C 0.25612 0.53656 0.51909 0.0
C398 C 0.14598 0.53299 0.54203 0.0
C399 C 0.1083 0.5266 0.51904 0.0
C400 C 0.14304 0.52979 0.49592 0.0
H401 H 0.68445 0.45392 0.48126 0.0
H402 H 0.8137 0.46264 0.48166 0.0
C403 C 0.21674 0.53489 0.49591 0.0
C404 C 0.03571 0.5111 0.5195 0.0
H405 H 0.94148 0.42877 0.51054 0.0
C406 C -0.01992 0.53488 0.52678 0.0
C407 C 0.02238 0.47231 0.51381 0.0
C408 C 0.08158 0.44542 0.50682 0.0
C409 C 0.91034 0.52093 0.52804 0.0
C410 C 0.89699 0.48215 0.52232 0.0
C411 C 0.95264 0.45836 0.51507 0.0
C412 C 0.82436 0.4667 0.52266 0.0
C413 C 0.85114 0.54782 0.53503 0.0
C414 C 0.78937 0.4634 0.54573 0.0
C415 C 0.71564 0.45835 0.54562 0.0
C416 C 0.67649 0.45686 0.52239 0.0
C417 C 0.71314 0.45549 0.49944 0.0
C418 C 0.78688 0.46049 0.4996 0.0
H419 H 0.86846 0.57809 0.53465 0.0
H420 H 0.80424 0.54434 0.5218 0.0
H421 H 0.83374 0.5411 0.55454 0.0
H422 H 0.81824 0.46764 0.56368 0.0
H423 H 0.68894 0.45904 0.56362 0.0
H424 H 0.85993 0.02334 0.37437 0.0
H425 H 0.85884 0.02273 0.3278 0.0
H426 H 0.06174 0.96462 0.32958 0.0
H427 H 0.06358 0.96533 0.37615 0.0
H428 H 0.95749 0.0543 0.2951 0.0
H429 H 0.93705 0.8977 0.28228 0.0
H430 H 0.91989 0.92083 0.31215 0.0
H431 H 0.01012 0.91252 0.30284 0.0
C432 C 0.90453 0.0106 0.36487 0.0
C433 C 0.96175 0.99426 0.37899 0.0
C434 C 0.90363 0.01012 0.33826 0.0
C435 C 0.95967 0.99314 0.32527 0.0
C436 C 0.01718 0.97711 0.33925 0.0
H437 H 0.06584 0.02451 0.16698 0.0
H438 H 0.06301 0.02464 0.21349 0.0
C439 C 0.01812 0.97754 0.36586 0.0
C440 C 0.95875 0.99303 0.29706 0.0
H441 H 0.96005 0.93431 0.24532 0.0
C442 C 0.95782 0.02809 0.28419 0.0
C443 C 0.95829 0.95877 0.28291 0.0
C444 C 0.95571 0.92029 0.29569 0.0
C445 C 0.95772 0.02983 0.2575 0.0
C446 C 0.95966 0.99558 0.24337 0.0
C447 C 0.95927 0.96051 0.25623 0.0
C448 C 0.96147 0.99552 0.21521 0.0
C449 C 0.95448 0.06828 0.24464 0.0
C450 C 0.9061 0.97835 0.20079 0.0
C451 C 0.90754 0.9782 0.17421 0.0
C452 C 0.96465 0.99508 0.16155 0.0
C453 C 0.02046 0.01189 0.17611 0.0
C454 C 0.01896 0.01198 0.20269 0.0
H455 H 0.93489 0.09074 0.25758 0.0
H456 H 0.00885 0.07644 0.23882 0.0
H457 H 0.91911 0.06747 0.2273 0.0
H458 H 0.86132 0.96541 0.21011 0.0
H459 H 0.86336 0.96538 0.16358 0.0
H460 H 0.91682 0.0543 0.8747 0.0
H461 H 0.91773 0.05437 0.82809 0.0
H462 H 0.01697 0.94352 0.82925 0.0
H463 H 0.01735 0.94347 0.87587 0.0
H464 H 0.08146 -0.00101 0.7965 0.0
H465 H 0.78751 0.98736 0.7806 0.0
H466 H 0.817 0.02484 0.80171 0.0
H467 H 0.83144 0.97602 0.81074 0.0
C468 C 0.9392 0.03004 0.86503 0.0
C469 C -0.0332 -0.00119 0.87895 0.0
C470 C 0.93911 0.02999 0.83843 0.0
C471 C -0.03336 -0.00124 0.82529 0.0
C472 C -0.00494 0.96777 0.83908 0.0
H473 H 0.9217 0.94246 0.66507 0.0
H474 H 0.92286 0.94267 0.71169 0.0
C475 C -0.00516 0.9677 0.86568 0.0
C476 C -0.03337 -0.00145 0.79713 0.0
H477 H 0.85655 -0.00254 0.74416 0.0
C478 C 0.03238 -0.00136 0.78502 0.0
C479 C 0.90242 -0.0023 0.78229 0.0
C480 C 0.83047 -0.00384 0.79441 0.0
C481 C 0.0356 -0.00159 0.75836 0.0
C482 C -0.02863 -0.00162 0.74353 0.0
C483 C 0.90564 -0.00222 0.75564 0.0
C484 C -0.0287 -0.0016 0.71536 0.0
C485 C 0.10761 -0.00237 0.74625 0.0
C486 C -0.00243 0.02985 0.70205 0.0
C487 C -0.00296 0.02981 0.67544 0.0
C488 C -0.02975 -0.00172 0.66169 0.0
C489 C 0.94358 0.96693 0.67513 0.0
C490 C 0.9438 0.96709 0.70173 0.0
H491 H 0.1509 0.98938 0.76009 0.0
H492 H 0.10746 0.97743 0.73 0.0
H493 H 0.11992 0.02643 0.73884 0.0
H494 H 0.01819 0.05448 0.71226 0.0
H495 H 0.01838 0.05426 0.66564 0.0
H496 H 0.57351 0.47622 0.37675 0.0
H497 H 0.57316 0.47681 0.33019 0.0
H498 H 0.35424 0.51483 0.32802 0.0
H499 H 0.35432 0.51503 0.37458 0.0
H500 H 0.385 0.45207 0.29475 0.0
H501 H 0.57206 0.57366 0.28437 0.0
H502 H 0.6027 0.53633 0.30547 0.0
H503 H 0.52629 0.56427 0.31349 0.0
C504 C 0.52551 0.48517 0.3664 0.0
C505 C 0.46403 0.49576 0.37942 0.0
C506 C 0.5254 0.48539 0.33981 0.0
C507 C 0.46393 0.49627 0.32575 0.0
C508 C 0.40222 0.5064 0.33859 0.0
H509 H 0.42474 0.55286 0.16527 0.0
H510 H 0.42307 0.55255 0.21181 0.0
C511 C 0.4023 0.50629 0.36519 0.0
C512 C 0.46372 0.49665 0.29759 0.0
H513 H 0.53935 0.53987 0.24679 0.0
C514 C 0.4186 0.47127 0.28422 0.0
C515 C 0.50712 0.52205 0.28401 0.0
C516 C 0.55443 0.55089 0.29748 0.0
C517 C 0.41654 0.47021 0.2575 0.0
C518 C 0.46127 0.49496 0.24392 0.0
C519 C 0.50556 0.52074 0.2573 0.0
C520 C 0.46234 0.49484 0.21577 0.0
C521 C 0.36585 0.44302 0.24401 0.0
C522 C 0.48577 0.46261 0.20266 0.0
C523 C 0.48722 0.46275 0.17608 0.0
C524 C 0.46555 0.49522 0.16214 0.0
C525 C 0.44259 0.52756 0.17542 0.0
C526 C 0.44123 0.52738 0.20199 0.0
H527 H 0.32388 0.43254 0.25677 0.0
H528 H 0.33967 0.45684 0.22715 0.0
H529 H 0.39624 0.41803 0.23728 0.0
H530 H 0.50362 0.43748 0.213 0.0
H531 H 0.50636 0.43763 0.16647 0.0
H532 H 0.53699 0.54728 0.66651 0.0
H533 H 0.53932 0.54652 0.713 0.0
H534 H 0.40013 0.44864 0.71194 0.0
H535 H 0.40076 0.44776 0.66553 0.0
H536 H 0.43179 0.55493 0.74541 0.0
H537 H 0.557 0.41324 0.76036 0.0
H538 H 0.55452 0.43681 0.72981 0.0
H539 H 0.47756 0.41133 0.74049 0.0
C540 C 0.50792 0.52511 0.67613 0.0
C541 C 0.46913 0.49739 0.66218 0.0
C542 C 0.50882 0.52495 0.70273 0.0
C543 C 0.47093 0.49713 0.71596 0.0
C544 C 0.43116 0.46983 0.70215 0.0
H545 H 0.37276 0.46384 0.87443 0.0
H546 H 0.3748 0.46366 0.8279 0.0
C547 C 0.43072 0.46975 0.67556 0.0
C548 C 0.47147 0.49736 0.74419 0.0
H549 H 0.50762 0.4425 0.79679 0.0
C550 C 0.44884 0.53044 0.75663 0.0
C551 C 0.49394 0.46539 0.75883 0.0
C552 C 0.52281 0.42983 0.74672 0.0
C553 C 0.44688 0.53215 0.78328 0.0
C554 C 0.46812 0.5 0.79779 0.0
C555 C 0.49097 0.46698 0.78547 0.0
C556 C 0.46729 0.50021 0.82588 0.0
C557 C 0.42121 0.56804 0.79585 0.0
C558 C 0.51912 0.52059 0.84 0.0
C559 C 0.51885 0.52034 0.86659 0.0
C560 C 0.46646 0.49982 0.87953 0.0
C561 C 0.41452 0.47948 0.86517 0.0
C562 C 0.41523 0.47952 0.83858 0.0
H563 H 0.39751 0.58854 0.78186 0.0
H564 H 0.38083 0.56107 0.81019 0.0
H565 H 0.46688 0.58209 0.80598 0.0
H566 H 0.56015 0.53639 0.83042 0.0
H567 H 0.56041 0.53576 0.87698 0.0
loop_
_geom_bond_atom_site_label_1
_geom_bond_atom_site_label_2
_geom_bond_distance
_geom_bond_site_symmetry_2
_ccdc_geom_bond_type
C0 O16 1.251 1_554 S
C0 O18 1.254 . S
N1 C2 1.335 1_655 S
N1 C6 1.304 1_545 S
N1 Zn7 2.020 1_545 S
C2 N1 1.335 1_455 S
C2 C3 1.379 . S
C2 H20 0.952 . S
C3 C2 1.379 . S
C3 C4 1.390 1_455 S
C3 H30 0.949 . S
C4 C3 1.390 1_655 S
C4 C5 1.357 1_545 S
C5 C4 1.357 1_565 S
C5 C6 1.370 . S
C5 H31 0.950 . S
C6 N1 1.304 1_565 S
C6 C5 1.370 . S
C6 H24 0.948 . S
Zn7 N1 2.020 1_565 S
Zn7 O16 2.039 1_665 S
Zn7 O22 2.034 1_565 S
Zn7 O26 2.025 . S
Zn7 O28 2.024 1_655 S
C8 O27 1.246 . S
C8 O28 1.249 1_554 S
N9 C10 1.308 1_565 S
N9 C11 1.332 1_455 S
N9 Zn15 2.020 1_565 S
C10 N9 1.308 1_545 S
C10 C14 1.370 . S
C10 H21 0.948 . S
C11 N9 1.332 1_655 S
C11 C12 1.379 . S
C11 H19 0.952 . S
C12 C11 1.379 . S
C12 C13 1.390 1_655 S
C12 H32 0.949 . S
C13 C12 1.390 1_455 S
C13 C14 1.357 1_565 S
C14 C10 1.370 . S
C14 C13 1.357 1_545 S
C14 H33 0.950 . S
Zn15 N9 2.020 1_545 S
Zn15 O18 2.025 . S
Zn15 O23 2.024 1_455 S
Zn15 O25 2.039 1_445 S
Zn15 O27 2.034 1_545 S
O16 C0 1.251 1_556 S
O16 Zn7 2.039 1_445 S
C17 O22 1.246 1_554 S
C17 O23 1.249 . S
O18 C0 1.254 . S
O18 Zn15 2.025 . S
H19 C11 0.952 . S
H20 C2 0.952 . S
H21 C10 0.948 . S
O22 Zn7 2.034 1_545 S
O22 C17 1.246 1_556 S
O23 Zn15 2.024 1_655 S
O23 C17 1.249 . S
H24 C6 0.948 . S
O25 Zn15 2.039 1_665 S
O25 C29 1.251 . S
O26 Zn7 2.025 . S
O26 C29 1.254 1_556 S
O27 C8 1.246 . S
O27 Zn15 2.034 1_565 S
O28 Zn7 2.024 1_455 S
O28 C8 1.249 1_556 S
C29 O25 1.251 . S
C29 O26 1.254 1_554 S
H30 C3 0.949 . S
H31 C5 0.950 . S
H32 C12 0.949 . S
H33 C14 0.950 . S
C34 O50 1.251 . S
C34 O52 1.254 . S
N35 C36 1.335 1_455 S
N35 C40 1.304 1_545 S
N35 Zn41 2.020 1_545 S
C36 N35 1.335 1_655 S
C36 C37 1.379 . S
C36 H54 0.952 . S
C37 C36 1.379 . S
C37 C38 1.390 1_655 S
C37 H64 0.949 . S
C38 C37 1.390 1_455 S
C38 C39 1.357 1_545 S
C39 C38 1.357 1_565 S
C39 C40 1.370 . S
C39 H65 0.950 . S
C40 N35 1.304 1_565 S
C40 C39 1.370 . S
C40 H58 0.948 . S
Zn41 N35 2.020 1_565 S
Zn41 O50 2.039 1_465 S
Zn41 O56 2.034 1_565 S
Zn41 O60 2.025 . S
Zn41 O62 2.024 1_455 S
C42 O61 1.246 . S
C42 O62 1.249 . S
N43 C44 1.308 1_565 S
N43 C45 1.332 1_655 S
N43 Zn49 2.020 1_565 S
C44 N43 1.308 1_545 S
C44 C48 1.370 . S
C44 H55 0.948 . S
C45 N43 1.332 1_455 S
C45 C46 1.379 . S
C45 H53 0.952 . S
C46 C45 1.379 . S
C46 C47 1.390 1_455 S
C46 H66 0.949 . S
C47 C46 1.390 1_655 S
C47 C48 1.357 1_565 S
C48 C44 1.370 . S
C48 C47 1.357 1_545 S
C48 H67 0.950 . S
Zn49 N43 2.020 1_545 S
Zn49 O52 2.025 . S
Zn49 O57 2.024 1_655 S
Zn49 O59 2.039 1_645 S
Zn49 O61 2.034 1_545 S
O50 C34 1.251 . S
O50 Zn41 2.039 1_645 S
C51 O56 1.246 . S
C51 O57 1.249 . S
O52 C34 1.254 . S
O52 Zn49 2.025 . S
H53 C45 0.952 . S
H54 C36 0.952 . S
H55 C44 0.948 . S
O56 Zn41 2.034 1_545 S
O56 C51 1.246 . S
O57 Zn49 2.024 1_455 S
O57 C51 1.249 . S
H58 C40 0.948 . S
O59 Zn49 2.039 1_465 S
O59 C63 1.251 . S
O60 Zn41 2.025 . S
O60 C63 1.254 . S
O61 C42 1.246 . S
O61 Zn49 2.034 1_565 S
O62 Zn41 2.024 1_655 S
O62 C42 1.249 . S
C63 O59 1.251 . S
C63 O60 1.254 . S
H64 C37 0.949 . S
H65 C39 0.950 . S
H66 C46 0.949 . S
H67 C48 0.950 . S
C68 O84 1.251 1_554 S
C68 O86 1.254 . S
N69 C70 1.333 . S
N69 C74 1.307 . S
N69 Zn75 2.020 . S
C70 N69 1.333 . S
C70 C71 1.379 . S
C70 H88 0.952 . S
C71 C70 1.379 . S
C71 C72 1.390 . S
C71 H98 0.949 . S
C72 C71 1.390 . S
C72 C73 1.357 . S
C73 C72 1.357 . S
C73 C74 1.370 . S
C73 H99 0.950 . S
C74 N69 1.307 . S
C74 C73 1.370 . S
C74 H92 0.948 . S
Zn75 N69 2.020 . S
Zn75 O84 2.039 . S
Zn75 O90 2.034 . S
Zn75 O94 2.025 . S
Zn75 O96 2.024 . S
C76 O95 1.246 . S
C76 O96 1.249 1_554 S
N77 C78 1.307 . S
N77 C79 1.333 . S
N77 Zn83 2.020 . S
C78 N77 1.307 . S
C78 C82 1.370 . S
C78 H89 0.948 . S
C79 N77 1.333 . S
C79 C80 1.379 . S
C79 H87 0.952 . S
C80 C79 1.379 . S
C80 C81 1.390 . S
C80 H100 0.949 . S
C81 C80 1.390 . S
C81 C82 1.357 . S
C82 C78 1.370 . S
C82 C81 1.357 . S
C82 H101 0.950 . S
Zn83 N77 2.020 . S
Zn83 O86 2.025 . S
Zn83 O91 2.024 . S
Zn83 O93 2.039 . S
Zn83 O95 2.034 . S
O84 C68 1.251 1_556 S
O84 Zn75 2.039 . S
C85 O90 1.246 1_554 S
C85 O91 1.249 . S
O86 C68 1.254 . S
O86 Zn83 2.025 . S
H87 C79 0.952 . S
H88 C70 0.952 . S
H89 C78 0.948 . S
O90 Zn75 2.034 . S
O90 C85 1.246 1_556 S
O91 Zn83 2.024 . S
O91 C85 1.249 . S
H92 C74 0.948 . S
O93 Zn83 2.039 . S
O93 C97 1.251 . S
O94 Zn75 2.025 . S
O94 C97 1.254 1_556 S
O95 C76 1.246 . S
O95 Zn83 2.034 . S
O96 Zn75 2.024 . S
O96 C76 1.249 1_556 S
C97 O93 1.251 . S
C97 O94 1.254 1_554 S
H98 C71 0.949 . S
H99 C73 0.950 . S
H100 C80 0.949 . S
H101 C82 0.950 . S
C102 O118 1.251 . S
C102 O120 1.254 . S
N103 C104 1.333 . S
N103 C108 1.307 . S
N103 Zn109 2.020 . S
C104 N103 1.333 . S
C104 C105 1.379 . S
C104 H122 0.952 . S
C105 C104 1.379 . S
C105 C106 1.390 . S
C105 H132 0.949 . S
C106 C105 1.390 . S
C106 C107 1.357 . S
C107 C106 1.357 . S
C107 C108 1.370 . S
C107 H133 0.950 . S
C108 N103 1.307 . S
C108 C107 1.370 . S
C108 H126 0.948 . S
Zn109 N103 2.020 . S
Zn109 O118 2.039 . S
Zn109 O124 2.034 . S
Zn109 O128 2.025 . S
Zn109 O130 2.024 . S
C110 O129 1.246 . S
C110 O130 1.249 . S
N111 C112 1.307 . S
N111 C113 1.333 . S
N111 Zn117 2.020 . S
C112 N111 1.307 . S
C112 C116 1.370 . S
C112 H123 0.948 . S
C113 N111 1.333 . S
C113 C114 1.379 . S
C113 H121 0.952 . S
C114 C113 1.379 . S
C114 C115 1.390 . S
C114 H134 0.949 . S
C115 C114 1.390 . S
C115 C116 1.357 . S
C116 C112 1.370 . S
C116 C115 1.357 . S
C116 H135 0.950 . S
Zn117 N111 2.020 . S
Zn117 O120 2.025 . S
Zn117 O125 2.024 . S
Zn117 O127 2.039 . S
Zn117 O129 2.034 . S
O118 C102 1.251 . S
O118 Zn109 2.039 . S
C119 O124 1.246 . S
C119 O125 1.249 . S
O120 C102 1.254 . S
O120 Zn117 2.025 . S
H121 C113 0.952 . S
H122 C104 0.952 . S
H123 C112 0.948 . S
O124 Zn109 2.034 . S
O124 C119 1.246 . S
O125 Zn117 2.024 . S
O125 C119 1.249 . S
H126 C108 0.948 . S
O127 Zn117 2.039 . S
O127 C131 1.251 . S
O128 Zn109 2.025 . S
O128 C131 1.254 . S
O129 C110 1.246 . S
O129 Zn117 2.034 . S
O130 Zn109 2.024 . S
O130 C110 1.249 . S
C131 O127 1.251 . S
C131 O128 1.254 . S
H132 C105 0.949 . S
H133 C107 0.950 . S
H134 C114 0.949 . S
H135 C116 0.950 . S
H136 C144 0.929 . S
H137 C146 0.930 . S
H138 C148 0.930 . S
H139 C151 0.929 . S
H140 C154 0.930 1_556 S
H141 C156 0.960 . S
H142 C156 0.960 . S
H143 C156 0.960 . S
C144 H136 0.929 . S
C144 C145 1.377 . S
C144 C146 1.384 . S
C145 C144 1.377 . S
C145 C151 1.390 1_554 S
C146 H137 0.930 . S
C146 C144 1.384 . S
C146 C147 1.372 . S
C147 C146 1.372 . S
C147 C148 1.400 1_554 S
C147 C152 1.490 . S
C148 H138 0.930 . S
C148 C147 1.400 1_556 S
C148 C151 1.386 . S
H149 C165 0.930 . S
H150 C166 0.931 . S
C151 H139 0.929 . S
C151 C145 1.390 1_556 S
C151 C148 1.386 . S
C152 C147 1.490 . S
C152 C154 1.395 . S
C152 C155 1.403 . S
H153 C159 0.930 . S
C154 H140 0.930 1_554 S
C154 C152 1.395 . S
C154 C157 1.403 . S
C155 C152 1.403 . S
C155 C156 1.524 . S
C155 C159 1.400 . S
C156 H141 0.960 . S
C156 H142 0.960 . S
C156 H143 0.960 . S
C156 C155 1.524 . S
C157 C154 1.403 . S
C157 C158 1.392 . S
C157 C161 1.495 1_554 S
C158 C157 1.392 . S
C158 C159 1.385 . S
C158 C160 1.478 . S
C159 H153 0.930 . S
C159 C155 1.400 . S
C159 C158 1.385 . S
C160 C158 1.478 . S
C160 C162 1.381 . S
C160 C166 1.383 1_554 S
C161 C157 1.495 1_556 S
C161 H167 0.959 . S
C161 H168 0.961 . S
C161 H169 0.960 1_556 S
C162 C160 1.381 . S
C162 C163 1.394 . S
C162 H170 0.930 . S
C163 C162 1.394 . S
C163 C164 1.383 . S
C163 H171 0.929 . S
C164 C163 1.383 . S
C164 C165 1.377 1_554 S
C165 H149 0.930 . S
C165 C164 1.377 1_556 S
C165 C166 1.379 . S
C166 H150 0.931 . S
C166 C160 1.383 1_556 S
C166 C165 1.379 . S
H167 C161 0.959 . S
H168 C161 0.961 . S
H169 C161 0.960 1_554 S
H170 C162 0.930 . S
H171 C163 0.929 . S
H172 C180 0.921 1_556 S
H173 C182 0.928 1_556 S
H174 C184 0.930 . S
H175 C187 0.929 . S
H176 C190 0.930 . S
H177 C192 0.960 . S
H178 C192 0.960 . S
H179 C192 0.960 . S
C180 H172 0.921 1_554 S
C180 C181 1.386 . S
C180 C182 1.383 . S
C181 C180 1.386 . S
C181 C187 1.390 . S
C182 H173 0.928 1_554 S
C182 C180 1.383 . S
C182 C183 1.374 . S
C183 C182 1.374 . S
C183 C184 1.400 . S
C183 C188 1.490 . S
C184 H174 0.930 . S
C184 C183 1.400 . S
C184 C187 1.386 . S
H185 C201 0.930 . S
H186 C202 0.931 . S
C187 H175 0.929 . S
C187 C181 1.390 . S
C187 C184 1.386 . S
C188 C183 1.490 . S
C188 C190 1.395 . S
C188 C191 1.403 1_554 S
H189 C195 0.941 . S
C190 H176 0.930 . S
C190 C188 1.395 . S
C190 C193 1.403 . S
C191 C188 1.403 1_556 S
C191 C192 1.524 . S
C191 C195 1.401 . S
C192 H177 0.960 . S
C192 H178 0.960 . S
C192 H179 0.960 . S
C192 C191 1.524 . S
C193 C190 1.403 . S
C193 C194 1.392 . S
C193 C197 1.495 . S
C194 C193 1.392 . S
C194 C195 1.374 1_554 S
C194 C196 1.478 . S
C195 H189 0.941 . S
C195 C191 1.401 . S
C195 C194 1.374 1_556 S
C196 C194 1.478 . S
C196 C198 1.380 1_554 S
C196 C202 1.383 . S
C197 C193 1.495 . S
C197 H203 0.959 . S
C197 H204 0.961 . S
C197 H205 0.960 . S
C198 C196 1.380 1_556 S
C198 C199 1.394 . S
C198 H206 0.931 . S
C199 C198 1.394 . S
C199 C200 1.383 1_556 S
C199 H207 0.930 . S
C200 C199 1.383 1_554 S
C200 C201 1.377 . S
C201 H185 0.930 . S
C201 C200 1.377 . S
C201 C202 1.379 . S
C202 H186 0.931 . S
C202 C196 1.383 . S
C202 C201 1.379 . S
H203 C197 0.959 . S
H204 C197 0.961 . S
H205 C197 0.960 . S
H206 C198 0.931 . S
H207 C199 0.930 . S
H208 C216 0.929 . S
H209 C218 0.930 . S
H210 C220 0.930 . S
H211 C223 0.929 1_655 S
H212 C226 0.930 . S
H213 C228 0.960 . S
H214 C228 0.960 . S
H215 C228 0.960 . S
C216 H208 0.929 . S
C216 C217 1.377 . S
C216 C218 1.384 . S
C217 C216 1.377 . S
C217 C223 1.390 . S
C218 H209 0.930 . S
C218 C216 1.384 . S
C218 C219 1.372 . S
C219 C218 1.372 . S
C219 C220 1.400 . S
C219 C224 1.490 . S
C220 H210 0.930 . S
C220 C219 1.400 . S
C220 C223 1.386 . S
H221 C237 0.930 . S
H222 C238 0.931 . S
C223 H211 0.929 1_455 S
C223 C217 1.390 . S
C223 C220 1.386 . S
C224 C219 1.490 . S
C224 C226 1.395 . S
C224 C227 1.403 . S
H225 C231 0.930 . S
C226 H212 0.930 . S
C226 C224 1.395 . S
C226 C229 1.403 . S
C227 C224 1.403 . S
C227 C228 1.524 . S
C227 C231 1.400 . S
C228 H213 0.960 . S
C228 H214 0.960 . S
C228 H215 0.960 . S
C228 C227 1.524 . S
C229 C226 1.403 . S
C229 C230 1.392 . S
C229 C233 1.495 . S
C230 C229 1.392 . S
C230 C231 1.385 . S
C230 C232 1.478 . S
C231 H225 0.930 . S
C231 C227 1.400 . S
C231 C230 1.385 . S
C232 C230 1.478 . S
C232 C234 1.381 . S
C232 C238 1.383 . S
C233 C229 1.495 . S
C233 H239 0.959 . S
C233 H240 0.961 . S
C233 H241 0.960 . S
C234 C232 1.381 . S
C234 C235 1.394 . S
C234 H242 0.930 . S
C235 C234 1.394 . S
C235 C236 1.383 . S
C235 H243 0.929 . S
C236 C235 1.383 . S
C236 C237 1.377 . S
C237 H221 0.930 . S
C237 C236 1.377 . S
C237 C238 1.379 . S
C238 H222 0.931 . S
C238 C232 1.383 . S
C238 C237 1.379 . S
H239 C233 0.959 . S
H240 C233 0.961 . S
H241 C233 0.960 . S
H242 C234 0.930 . S
H243 C235 0.929 . S
H244 C252 0.929 . S
H245 C254 0.930 . S
H246 C256 0.930 . S
H247 C259 0.929 . S
H248 C262 0.930 . S
H249 C264 0.960 . S
H250 C264 0.960 . S
H251 C264 0.960 . S
C252 H244 0.929 . S
C252 C253 1.377 . S
C252 C254 1.384 . S
C253 C252 1.377 . S
C253 C259 1.390 . S
C254 H245 0.930 . S
C254 C252 1.384 . S
C254 C255 1.372 . S
C255 C254 1.372 . S
C255 C256 1.400 . S
C255 C260 1.490 . S
C256 H246 0.930 . S
C256 C255 1.400 . S
C256 C259 1.386 . S
H257 C273 0.930 . S
H258 C274 0.931 . S
C259 H247 0.929 . S
C259 C253 1.390 . S
C259 C256 1.386 . S
C260 C255 1.490 . S
C260 C262 1.395 . S
C260 C263 1.403 . S
H261 C267 0.930 . S
C262 H248 0.930 . S
C262 C260 1.395 . S
C262 C265 1.403 . S
C263 C260 1.403 . S
C263 C264 1.524 . S
C263 C267 1.400 . S
C264 H249 0.960 . S
C264 H250 0.960 . S
C264 H251 0.960 . S
C264 C263 1.524 . S
C265 C262 1.403 . S
C265 C266 1.392 . S
C265 C269 1.495 . S
C266 C265 1.392 . S
C266 C267 1.385 . S
C266 C268 1.478 . S
C267 H261 0.930 . S
C267 C263 1.400 . S
C267 C266 1.385 . S
C268 C266 1.478 . S
C268 C270 1.381 . S
C268 C274 1.383 . S
C269 C265 1.495 . S
C269 H275 0.959 . S
C269 H276 0.961 . S
C269 H277 0.960 . S
C270 C268 1.381 . S
C270 C271 1.394 . S
C270 H278 0.930 . S
C271 C270 1.394 . S
C271 C272 1.383 . S
C271 H279 0.929 . S
C272 C271 1.383 . S
C272 C273 1.377 . S
C273 H257 0.930 . S
C273 C272 1.377 . S
C273 C274 1.379 . S
C274 H258 0.931 . S
C274 C268 1.383 . S
C274 C273 1.379 . S
H275 C269 0.959 . S
H276 C269 0.961 . S
H277 C269 0.960 . S
H278 C270 0.930 . S
H279 C271 0.929 . S
H280 C288 0.929 . S
H281 C290 0.930 . S
H282 C292 0.921 1_565 S
H283 C295 0.929 1_565 S
H284 C298 0.932 . S
H285 C300 0.960 . S
H286 C300 0.960 . S
H287 C300 0.960 . S
C288 H280 0.929 . S
C288 C289 1.377 1_556 S
C288 C290 1.384 . S
C289 C288 1.377 1_554 S
C289 C295 1.390 . S
C290 H281 0.930 . S
C290 C288 1.384 . S
C290 C291 1.372 1_556 S
C291 C290 1.372 1_554 S
C291 C292 1.406 . S
C291 C296 1.490 . S
C292 H282 0.921 1_545 S
C292 C291 1.406 . S
C292 C295 1.389 . S
H293 C309 0.930 . S
H294 C310 0.931 . S
C295 H283 0.929 1_545 S
C295 C289 1.390 . S
C295 C292 1.389 . S
C296 C291 1.490 . S
C296 C298 1.395 . S
C296 C299 1.403 1_545 S
H297 C303 0.930 . S
C298 H284 0.932 . S
C298 C296 1.395 . S
C298 C301 1.403 . S
C299 C296 1.403 1_565 S
C299 C300 1.524 . S
C299 C303 1.400 . S
C300 H285 0.960 . S
C300 H286 0.960 . S
C300 H287 0.960 . S
C300 C299 1.524 . S
C301 C298 1.403 . S
C301 C302 1.392 . S
C301 C305 1.495 1_554 S
C302 C301 1.392 . S
C302 C303 1.385 1_545 S
C302 C304 1.478 1_545 S
C303 H297 0.930 . S
C303 C299 1.400 . S
C303 C302 1.385 1_565 S
C304 C302 1.478 1_565 S
C304 C306 1.381 1_564 S
C304 C310 1.383 . S
C305 C301 1.495 1_556 S
C305 H311 0.959 . S
C305 H312 0.961 1_556 S
C305 H313 0.960 . S
C306 C304 1.381 1_546 S
C306 C307 1.394 1_545 S
C306 H314 0.930 . S
C307 C306 1.394 1_565 S
C307 C308 1.383 1_556 S
C307 H315 0.929 . S
C308 C307 1.383 1_554 S
C308 C309 1.377 . S
C309 H293 0.930 . S
C309 C308 1.377 . S
C309 C310 1.379 . S
C310 H294 0.931 . S
C310 C304 1.383 . S
C310 C309 1.379 . S
H311 C305 0.959 . S
H312 C305 0.961 1_554 S
H313 C305 0.960 . S
H314 C306 0.930 . S
H315 C307 0.929 . S
H316 C324 0.929 . S
H317 C326 0.930 . S
H318 C328 0.930 . S
H319 C331 0.929 . S
H320 C334 0.930 . S
H321 C336 0.960 . S
H322 C336 0.960 . S
H323 C336 0.960 . S
C324 H316 0.929 . S
C324 C325 1.377 1_545 S
C324 C326 1.384 . S
C325 C324 1.377 1_565 S
C325 C331 1.390 . S
C326 H317 0.930 . S
C326 C324 1.384 . S
C326 C327 1.372 1_545 S
C327 C326 1.372 1_565 S
C327 C328 1.400 . S
C327 C332 1.490 . S
C328 H318 0.930 . S
C328 C327 1.400 . S
C328 C331 1.386 . S
H329 C345 0.923 1_565 S
H330 C346 0.931 . S
C331 H319 0.929 . S
C331 C325 1.390 . S
C331 C328 1.386 . S
C332 C327 1.490 . S
C332 C334 1.395 1_565 S
C332 C335 1.403 . S
H333 C339 0.930 . S
C334 H320 0.930 . S
C334 C332 1.395 1_545 S
C334 C337 1.403 . S
C335 C332 1.403 . S
C335 C336 1.524 . S
C335 C339 1.400 . S
C336 H321 0.960 . S
C336 H322 0.960 . S
C336 H323 0.960 . S
C336 C335 1.524 . S
C337 C334 1.403 . S
C337 C338 1.392 . S
C337 C341 1.495 . S
C338 C337 1.392 . S
C338 C339 1.385 1_545 S
C338 C340 1.478 . S
C339 H333 0.930 . S
C339 C335 1.400 . S
C339 C338 1.385 1_565 S
C340 C338 1.478 . S
C340 C342 1.381 . S
C340 C346 1.383 1_545 S
C341 C337 1.495 . S
C341 H347 0.959 . S
C341 H348 0.961 . S
C341 H349 0.960 . S
C342 C340 1.381 . S
C342 C343 1.394 . S
C342 H350 0.930 . S
C343 C342 1.394 . S
C343 C344 1.383 . S
C343 H351 0.929 . S
C344 C343 1.383 . S
C344 C345 1.384 . S
C345 H329 0.923 1_545 S
C345 C344 1.384 . S
C345 C346 1.379 1_545 S
C346 H330 0.931 . S
C346 C340 1.383 1_565 S
C346 C345 1.379 1_565 S
H347 C341 0.959 . S
H348 C341 0.961 . S
H349 C341 0.960 . S
H350 C342 0.930 . S
H351 C343 0.929 . S
H352 C360 0.929 . S
H353 C362 0.930 . S
H354 C364 0.930 . S
H355 C367 0.929 . S
H356 C370 0.930 . S
H357 C372 0.960 . S
H358 C372 0.960 . S
H359 C372 0.960 . S
C360 H352 0.929 . S
C360 C361 1.377 1_556 S
C360 C362 1.384 . S
C361 C360 1.377 1_554 S
C361 C367 1.390 . S
C362 H353 0.930 . S
C362 C360 1.384 . S
C362 C363 1.372 1_556 S
C363 C362 1.372 1_554 S
C363 C364 1.400 . S
C363 C368 1.490 . S
C364 H354 0.930 . S
C364 C363 1.400 . S
C364 C367 1.386 . S
H365 C381 0.930 . S
H366 C382 0.931 . S
C367 H355 0.929 . S
C367 C361 1.390 . S
C367 C364 1.386 . S
C368 C363 1.490 . S
C368 C370 1.395 1_554 S
C368 C371 1.403 . S
H369 C375 0.930 . S
C370 H356 0.930 . S
C370 C368 1.395 1_556 S
C370 C373 1.403 1_655 S
C371 C368 1.403 . S
C371 C372 1.524 . S
C371 C375 1.400 1_655 S
C372 H357 0.960 . S
C372 H358 0.960 . S
C372 H359 0.960 . S
C372 C371 1.524 . S
C373 C370 1.403 1_455 S
C373 C374 1.392 1_556 S
C373 C377 1.495 . S
C374 C373 1.392 1_554 S
C374 C375 1.385 . S
C374 C376 1.478 . S
C375 H369 0.930 . S
C375 C371 1.400 1_455 S
C375 C374 1.385 . S
C376 C374 1.478 . S
C376 C378 1.381 1_554 S
C376 C382 1.383 . S
C377 C373 1.495 . S
C377 H383 0.959 . S
C377 H384 0.961 . S
C377 H385 0.960 . S
C378 C376 1.381 1_556 S
C378 C379 1.394 . S
C378 H386 0.930 . S
C379 C378 1.394 . S
C379 C380 1.383 1_556 S
C379 H387 0.929 . S
C380 C379 1.383 1_554 S
C380 C381 1.377 . S
C381 H365 0.930 . S
C381 C380 1.377 . S
C381 C382 1.379 . S
C382 H366 0.931 . S
C382 C376 1.383 . S
C382 C381 1.379 . S
H383 C377 0.959 . S
H384 C377 0.961 . S
H385 C377 0.960 . S
H386 C378 0.930 . S
H387 C379 0.929 . S
H388 C396 0.929 . S
H389 C398 0.930 . S
H390 C400 0.930 . S
H391 C403 0.929 . S
H392 C406 0.930 . S
H393 C408 0.960 . S
H394 C408 0.960 . S
H395 C408 0.960 . S
C396 H388 0.929 . S
C396 C397 1.377 . S
C396 C398 1.384 . S
C397 C396 1.377 . S
C397 C403 1.390 . S
C398 H389 0.930 . S
C398 C396 1.384 . S
C398 C399 1.372 . S
C399 C398 1.372 . S
C399 C400 1.400 . S
C399 C404 1.490 . S
C400 H390 0.930 . S
C400 C399 1.400 . S
C400 C403 1.386 . S
H401 C417 0.930 . S
H402 C418 0.931 . S
C403 H391 0.929 . S
C403 C397 1.390 . S
C403 C400 1.386 . S
C404 C399 1.490 . S
C404 C406 1.395 . S
C404 C407 1.403 . S
H405 C411 0.930 . S
C406 H392 0.930 . S
C406 C404 1.395 . S
C406 C409 1.403 1_455 S
C407 C404 1.403 . S
C407 C408 1.524 . S
C407 C411 1.400 1_455 S
C408 H393 0.960 . S
C408 H394 0.960 . S
C408 H395 0.960 . S
C408 C407 1.524 . S
C409 C406 1.403 1_655 S
C409 C410 1.392 . S
C409 C413 1.495 . S
C410 C409 1.392 . S
C410 C411 1.385 . S
C410 C412 1.478 . S
C411 H405 0.930 . S
C411 C407 1.400 1_655 S
C411 C410 1.385 . S
C412 C410 1.478 . S
C412 C414 1.381 . S
C412 C418 1.383 . S
C413 C409 1.495 . S
C413 H419 0.959 . S
C413 H420 0.961 . S
C413 H421 0.960 . S
C414 C412 1.381 . S
C414 C415 1.394 . S
C414 H422 0.930 . S
C415 C414 1.394 . S
C415 C416 1.383 . S
C415 H423 0.929 . S
C416 C415 1.383 . S
C416 C417 1.377 . S
C417 H401 0.930 . S
C417 C416 1.377 . S
C417 C418 1.379 . S
C418 H402 0.931 . S
C418 C412 1.383 . S
C418 C417 1.379 . S
H419 C413 0.959 . S
H420 C413 0.961 . S
H421 C413 0.960 . S
H422 C414 0.930 . S
H423 C415 0.929 . S
H424 C432 0.929 1_545 S
H425 C434 0.928 1_545 S
H426 C436 0.930 . S
H427 C439 0.929 . S
H428 C442 0.930 . S
H429 C444 0.960 . S
H430 C444 0.960 . S
H431 C444 0.960 . S
C432 H424 0.929 1_565 S
C432 C433 1.374 1_655 S
C432 C434 1.384 . S
C433 C432 1.374 1_455 S
C433 C439 1.393 . S
C434 H425 0.928 1_565 S
C434 C432 1.384 . S
C434 C435 1.374 . S
C435 C434 1.374 . S
C435 C436 1.400 1_655 S
C435 C440 1.490 . S
C436 H426 0.930 . S
C436 C435 1.400 1_455 S
C436 C439 1.386 . S
H437 C453 0.930 . S
H438 C454 0.931 . S
C439 H427 0.929 . S
C439 C433 1.393 . S
C439 C436 1.386 . S
C440 C435 1.490 . S
C440 C442 1.395 1_565 S
C440 C443 1.403 1_655 S
H441 C447 0.930 . S
C442 H428 0.930 . S
C442 C440 1.395 1_545 S
C442 C445 1.403 . S
C443 C440 1.403 1_455 S
C443 C444 1.524 . S
C443 C447 1.400 . S
C444 H429 0.960 . S
C444 H430 0.960 . S
C444 H431 0.960 . S
C444 C443 1.524 . S
C445 C442 1.403 . S
C445 C446 1.392 . S
C445 C449 1.495 . S
C446 C445 1.392 . S
C446 C447 1.385 1_645 S
C446 C448 1.478 . S
C447 H441 0.930 . S
C447 C443 1.400 . S
C447 C446 1.385 1_465 S
C448 C446 1.478 . S
C448 C450 1.381 . S
C448 C454 1.383 1_655 S
C449 C445 1.495 . S
C449 H455 0.959 . S
C449 H456 0.961 . S
C449 H457 0.960 . S
C450 C448 1.381 . S
C450 C451 1.394 1_545 S
C450 H458 0.930 . S
C451 C450 1.394 1_565 S
C451 C452 1.383 . S
C451 H459 0.930 . S
C452 C451 1.383 . S
C452 C453 1.376 1_665 S
C453 H437 0.930 . S
C453 C452 1.376 1_445 S
C453 C454 1.379 . S
C454 H438 0.931 . S
C454 C448 1.383 1_455 S
C454 C453 1.379 . S
H455 C449 0.959 . S
H456 C449 0.961 . S
H457 C449 0.960 . S
H458 C450 0.930 . S
H459 C451 0.930 . S
H460 C468 0.929 . S
H461 C470 0.930 . S
H462 C472 0.930 . S
H463 C475 0.929 . S
H464 C478 0.930 . S
H465 C480 0.960 1_565 S
H466 C480 0.960 . S
H467 C480 0.960 1_565 S
C468 H460 0.929 . S
C468 C469 1.381 . S
C468 C470 1.384 . S
C469 C468 1.381 . S
C469 C475 1.387 1_445 S
C470 H461 0.930 . S
C470 C468 1.384 . S
C470 C471 1.372 . S
C471 C470 1.372 . S
C471 C472 1.400 1_445 S
C471 C476 1.490 . S
C472 H462 0.930 . S
C472 C471 1.400 1_665 S
C472 C475 1.386 . S
H473 C489 0.930 . S
H474 C490 0.931 . S
C475 H463 0.929 . S
C475 C469 1.387 1_665 S
C475 C472 1.386 . S
C476 C471 1.490 . S
C476 C478 1.395 . S
C476 C479 1.403 1_455 S
H477 C483 0.930 1_565 S
C478 H464 0.930 . S
C478 C476 1.395 . S
C478 C481 1.403 . S
C479 C476 1.403 1_655 S
C479 C480 1.524 . S
C479 C483 1.400 . S
C480 H465 0.960 1_545 S
C480 H466 0.960 . S
C480 H467 0.960 1_545 S
C480 C479 1.524 . S
C481 C478 1.403 . S
C481 C482 1.392 . S
C481 C485 1.495 . S
C482 C481 1.392 . S
C482 C483 1.385 1_455 S
C482 C484 1.478 . S
C483 H477 0.930 1_545 S
C483 C479 1.400 . S
C483 C482 1.385 1_655 S
C484 C482 1.478 . S
C484 C486 1.381 . S
C484 C490 1.383 1_445 S
C485 C481 1.495 . S
C485 H491 0.959 . S
C485 H492 0.961 1_545 S
C485 H493 0.960 . S
C486 C484 1.381 . S
C486 C487 1.394 . S
C486 H494 0.930 . S
C487 C486 1.394 . S
C487 C488 1.383 . S
C487 H495 0.929 . S
C488 C487 1.383 . S
C488 C489 1.377 1_445 S
C489 H473 0.930 . S
C489 C488 1.377 1_665 S
C489 C490 1.379 . S
C490 H474 0.931 . S
C490 C484 1.383 1_665 S
C490 C489 1.379 . S
H491 C485 0.959 . S
H492 C485 0.961 1_565 S
H493 C485 0.960 . S
H494 C486 0.930 . S
H495 C487 0.929 . S
H496 C504 0.929 . S
H497 C506 0.930 . S
H498 C508 0.930 . S
H499 C511 0.929 . S
H500 C514 0.930 . S
H501 C516 0.960 . S
H502 C516 0.960 . S
H503 C516 0.960 . S
C504 H496 0.929 . S
C504 C505 1.377 . S
C504 C506 1.384 . S
C505 C504 1.377 . S
C505 C511 1.390 . S
C506 H497 0.930 . S
C506 C504 1.384 . S
C506 C507 1.372 . S
C507 C506 1.372 . S
C507 C508 1.400 . S
C507 C512 1.490 . S
C508 H498 0.930 . S
C508 C507 1.400 . S
C508 C511 1.386 . S
H509 C525 0.930 . S
H510 C526 0.931 . S
C511 H499 0.929 . S
C511 C505 1.390 . S
C511 C508 1.386 . S
C512 C507 1.490 . S
C512 C514 1.395 . S
C512 C515 1.403 . S
H513 C519 0.930 . S
C514 H500 0.930 . S
C514 C512 1.395 . S
C514 C517 1.403 . S
C515 C512 1.403 . S
C515 C516 1.524 . S
C515 C519 1.400 . S
C516 H501 0.960 . S
C516 H502 0.960 . S
C516 H503 0.960 . S
C516 C515 1.524 . S
C517 C514 1.403 . S
C517 C518 1.392 . S
C517 C521 1.495 . S
C518 C517 1.392 . S
C518 C519 1.385 . S
C518 C520 1.478 . S
C519 H513 0.930 . S
C519 C515 1.400 . S
C519 C518 1.385 . S
C520 C518 1.478 . S
C520 C522 1.381 . S
C520 C526 1.383 . S
C521 C517 1.495 . S
C521 H527 0.959 . S
C521 H528 0.961 . S
C521 H529 0.960 . S
C522 C520 1.381 . S
C522 C523 1.394 . S
C522 H530 0.930 . S
C523 C522 1.394 . S
C523 C524 1.383 . S
C523 H531 0.929 . S
C524 C523 1.383 . S
C524 C525 1.377 . S
C525 H509 0.930 . S
C525 C524 1.377 . S
C525 C526 1.379 . S
C526 H510 0.931 . S
C526 C520 1.383 . S
C526 C525 1.379 . S
H527 C521 0.959 . S
H528 C521 0.961 . S
H529 C521 0.960 . S
H530 C522 0.930 . S
H531 C523 0.929 . S
H532 C540 0.929 . S
H533 C542 0.930 . S
H534 C544 0.930 . S
H535 C547 0.929 . S
H536 C550 0.930 . S
H537 C552 0.960 . S
H538 C552 0.960 . S
H539 C552 0.960 . S
C540 H532 0.929 . S
C540 C541 1.377 . S
C540 C542 1.384 . S
C541 C540 1.377 . S
C541 C547 1.390 . S
C542 H533 0.930 . S
C542 C540 1.384 . S
C542 C543 1.372 . S
C543 C542 1.372 . S
C543 C544 1.400 . S
C543 C548 1.490 . S
C544 H534 0.930 . S
C544 C543 1.400 . S
C544 C547 1.386 . S
H545 C561 0.930 . S
H546 C562 0.931 . S
C547 H535 0.929 . S
C547 C541 1.390 . S
C547 C544 1.386 . S
C548 C543 1.490 . S
C548 C550 1.395 . S
C548 C551 1.403 . S
H549 C555 0.930 . S
C550 H536 0.930 . S
C550 C548 1.395 . S
C550 C553 1.403 . S
C551 C548 1.403 . S
C551 C552 1.524 . S
C551 C555 1.400 . S
C552 H537 0.960 . S
C552 H538 0.960 . S
C552 H539 0.960 . S
C552 C551 1.524 . S
C553 C550 1.403 . S
C553 C554 1.392 . S
C553 C557 1.495 . S
C554 C553 1.392 . S
C554 C555 1.385 . S
C554 C556 1.478 . S
C555 H549 0.930 . S
C555 C551 1.400 . S
C555 C554 1.385 . S
C556 C554 1.478 . S
C556 C558 1.381 . S
C556 C562 1.383 . S
C557 C553 1.495 . S
C557 H563 0.959 . S
C557 H564 0.961 . S
C557 H565 0.960 . S
C558 C556 1.381 . S
C558 C559 1.394 . S
C558 H566 0.930 . S
C559 C558 1.394 . S
C559 C560 1.383 . S
C559 H567 0.929 . S
C560 C559 1.383 . S
C560 C561 1.377 . S
C561 H545 0.930 . S
C561 C560 1.377 . S
C561 C562 1.379 . S
C562 H546 0.931 . S
C562 C556 1.383 . S
C562 C561 1.379 . S
H563 C557 0.959 . S
H564 C557 0.961 . S
H565 C557 0.960 . S
H566 C558 0.930 . S
H567 C559 0.929 . S
C145 C85 1.579 . S
C164 C8 1.569 . S
C181 C76 1.579 . S
C200 C17 1.578 . S
C217 C51 1.580 . S
C236 C110 1.582 . S
C253 C42 1.579 . S
C272 C119 1.586 . S
C289 C0 0.548 . S
C308 C29 0.517 . S
C325 C63 0.554 . S
C344 C34 0.590 . S
C361 C68 0.545 . S
C380 C97 0.526 . S
C397 C102 0.544 . S
C416 C131 0.536 . S
C433 C47 1.498 1_455 S
C452 C13 1.497 1_655 S
C469 C4 1.497 1_455 S
C488 C38 1.490 . S
C505 C115 1.500 . S
C524 C81 1.499 . S
C541 C106 1.497 . S
C560 C72 1.495 . S
