# Generated by pormake.
# Topology xfz, (5)-cn, num edge types: 1
# Building blocks:
#     Node 0, Type 0, BuildingBlock: XOMCOT_clean_sbu_1, # of connection points: 5
#     Node 1, Type 0, BuildingBlock: XOMCOT_clean_sbu_1, # of connection points: 5
#     Node 2, Type 0, BuildingBlock: XOMCOT_clean_sbu_1, # of connection points: 5
#     Node 3, Type 0, BuildingBlock: XOMCOT_clean_sbu_1, # of connection points: 5
#     Node 4, Type 0, BuildingBlock: XOMCOT_clean_sbu_1, # of connection points: 5
#     Node 5, Type 0, BuildingBlock: XOMCOT_clean_sbu_1, # of connection points: 5
#     Node 6, Type 0, BuildingBlock: XOMCOT_clean_sbu_1, # of connection points: 5
#     Node 7, Type 0, BuildingBlock: XOMCOT_clean_sbu_1, # of connection points: 5
#     Node 8, Type 0, BuildingBlock: XOMCOT_clean_sbu_1, # of connection points: 5
#     Node 9, Type 0, BuildingBlock: XOMCOT_clean_sbu_1, # of connection points: 5
#     Node 10, Type 0, BuildingBlock: XOMCOT_clean_sbu_1, # of connection points: 5
#     Node 11, Type 0, BuildingBlock: XOMCOT_clean_sbu_1, # of connection points: 5
#     Node 12, Type 0, BuildingBlock: XOMCOT_clean_sbu_1, # of connection points: 5
#     Node 13, Type 0, BuildingBlock: XOMCOT_clean_sbu_1, # of connection points: 5
#     Node 14, Type 0, BuildingBlock: XOMCOT_clean_sbu_1, # of connection points: 5
#     Node 15, Type 0, BuildingBlock: XOMCOT_clean_sbu_1, # of connection points: 5
#     Edge 16, Type (0, 0), BuildingBlock: KIFKEQ_clean_linker_1, # of connection points: 2
#     Edge 17, Type (0, 0), BuildingBlock: KIFKEQ_clean_linker_1, # of connection points: 2
#     Edge 18, Type (0, 0), BuildingBlock: KIFKEQ_clean_linker_1, # of connection points: 2
#     Edge 19, Type (0, 0), BuildingBlock: KIFKEQ_clean_linker_1, # of connection points: 2
#     Edge 20, Type (0, 0), BuildingBlock: KIFKEQ_clean_linker_1, # of connection points: 2
#     Edge 21, Type (0, 0), BuildingBlock: KIFKEQ_clean_linker_1, # of connection points: 2
#     Edge 22, Type (0, 0), BuildingBlock: KIFKEQ_clean_linker_1, # of connection points: 2
#     Edge 23, Type (0, 0), BuildingBlock: KIFKEQ_clean_linker_1, # of connection points: 2
#     Edge 24, Type (0, 0), BuildingBlock: KIFKEQ_clean_linker_1, # of connection points: 2
#     Edge 25, Type (0, 0), BuildingBlock: KIFKEQ_clean_linker_1, # of connection points: 2
#     Edge 26, Type (0, 0), BuildingBlock: KIFKEQ_clean_linker_1, # of connection points: 2
#     Edge 27, Type (0, 0), BuildingBlock: KIFKEQ_clean_linker_1, # of connection points: 2
#     Edge 28, Type (0, 0), BuildingBlock: KIFKEQ_clean_linker_1, # of connection points: 2
#     Edge 29, Type (0, 0), BuildingBlock: KIFKEQ_clean_linker_1, # of connection points: 2
#     Edge 30, Type (0, 0), BuildingBlock: KIFKEQ_clean_linker_1, # of connection points: 2
#     Edge 31, Type (0, 0), BuildingBlock: KIFKEQ_clean_linker_1, # of connection points: 2
#     Edge 32, Type (0, 0), BuildingBlock: KIFKEQ_clean_linker_1, # of connection points: 2
#     Edge 33, Type (0, 0), BuildingBlock: KIFKEQ_clean_linker_1, # of connection points: 2
#     Edge 34, Type (0, 0), BuildingBlock: KIFKEQ_clean_linker_1, # of connection points: 2
#     Edge 35, Type (0, 0), BuildingBlock: KIFKEQ_clean_linker_1, # of connection points: 2
#     Edge 36, Type (0, 0), BuildingBlock: KIFKEQ_clean_linker_1, # of connection points: 2
#     Edge 37, Type (0, 0), BuildingBlock: KIFKEQ_clean_linker_1, # of connection points: 2
#     Edge 38, Type (0, 0), BuildingBlock: KIFKEQ_clean_linker_1, # of connection points: 2
#     Edge 39, Type (0, 0), BuildingBlock: KIFKEQ_clean_linker_1, # of connection points: 2
#     Edge 40, Type (0, 0), BuildingBlock: KIFKEQ_clean_linker_1, # of connection points: 2
#     Edge 41, Type (0, 0), BuildingBlock: KIFKEQ_clean_linker_1, # of connection points: 2
#     Edge 42, Type (0, 0), BuildingBlock: KIFKEQ_clean_linker_1, # of connection points: 2
#     Edge 43, Type (0, 0), BuildingBlock: KIFKEQ_clean_linker_1, # of connection points: 2
#     Edge 44, Type (0, 0), BuildingBlock: KIFKEQ_clean_linker_1, # of connection points: 2
#     Edge 45, Type (0, 0), BuildingBlock: KIFKEQ_clean_linker_1, # of connection points: 2
#     Edge 46, Type (0, 0), BuildingBlock: KIFKEQ_clean_linker_1, # of connection points: 2
#     Edge 47, Type (0, 0), BuildingBlock: KIFKEQ_clean_linker_1, # of connection points: 2
#     Edge 48, Type (0, 0), BuildingBlock: KIFKEQ_clean_linker_1, # of connection points: 2
#     Edge 49, Type (0, 0), BuildingBlock: KIFKEQ_clean_linker_1, # of connection points: 2
#     Edge 50, Type (0, 0), BuildingBlock: KIFKEQ_clean_linker_1, # of connection points: 2
#     Edge 51, Type (0, 0), BuildingBlock: KIFKEQ_clean_linker_1, # of connection points: 2
#     Edge 52, Type (0, 0), BuildingBlock: KIFKEQ_clean_linker_1, # of connection points: 2
#     Edge 53, Type (0, 0), BuildingBlock: KIFKEQ_clean_linker_1, # of connection points: 2
#     Edge 54, Type (0, 0), BuildingBlock: KIFKEQ_clean_linker_1, # of connection points: 2
#     Edge 55, Type (0, 0), BuildingBlock: KIFKEQ_clean_linker_1, # of connection points: 2
# Relax obj value: 0.581
# Max RMSD: 0.323
# Mean RMSD: 0.323
data_MOF--net-xfz--node1-XOMCOT_clean_sbu_1--edge1-KIFKEQ_clean_linker_1
_symmetry_space_group_name_H-M    P1
_symmetry_Int_Tables_number       1
_symmetry_cell_setting            triclinic
loop_
_symmetry_equiv_pos_as_xyz
'x, y, z'
_cell_length_a     38.305559
_cell_length_b     38.351649
_cell_length_c     61.248903
_cell_angle_alpha  90.036295
_cell_angle_beta   90.035295
_cell_angle_gamma 89.975733
loop_
_atom_site_label
_atom_site_type_symbol
_atom_site_fract_x
_atom_site_fract_y
_atom_site_fract_z
_atom_type_partial_charge
C0 C 0.2283 0.38978 0.32719 0.0
C1 C 0.21994 0.36444 0.31223 0.0
N2 N 0.18488 0.36214 0.31109 0.0
N3 N 0.19871 0.40342 0.33543 0.0
C4 C 0.17267 0.38576 0.32557 0.0
H5 H 0.25429 0.3987 0.33121 0.0
Co6 Co 0.19852 0.44097 0.35433 0.0
C7 C 0.12855 0.44224 0.37387 0.0
O8 O 0.1425 0.43625 0.3931 0.0
N9 N 0.19899 0.47942 0.37357 0.0
C10 C 0.18606 0.53036 0.38909 0.0
C11 C 0.18317 0.51056 0.37047 0.0
C12 C 0.21124 0.48112 0.39422 0.0
N13 N 0.20361 0.51163 0.40409 0.0
O14 O 0.20343 0.40824 0.37779 0.0
H15 H 0.16882 0.51792 0.35598 0.0
H16 H 0.22322 0.45953 0.40259 0.0
O17 O 0.14774 0.44112 0.35683 0.0
C18 C 0.23529 0.402 0.38226 0.0
O19 O 0.25951 0.42173 0.37346 0.0
N20 N 0.19608 0.47098 0.33028 0.0
C21 C 0.19794 0.51106 0.29247 0.0
C22 C 0.16911 0.48994 0.29708 0.0
C23 C 0.16871 0.47004 0.316 0.0
C24 C 0.22453 0.49126 0.32608 0.0
C25 C 0.22579 0.51204 0.30732 0.0
H26 H 0.14669 0.45313 0.31868 0.0
H27 H 0.24642 0.491 0.33724 0.0
H28 H 0.1453 0.39169 0.32785 0.0
H29 H 0.23825 0.34982 0.30237 0.0
H30 H 0.17483 0.55593 0.3916 0.0
H31 H 0.14697 0.48872 0.28609 0.0
H32 H 0.24857 0.52799 0.30419 0.0
C33 C 0.42693 0.78169 0.66967 0.0
C34 C 0.40374 0.78471 0.68668 0.0
N35 N 0.38698 0.81543 0.68466 0.0
N36 N 0.42505 0.81056 0.6572 0.0
C37 C 0.40025 0.8305 0.66657 0.0
H38 H 0.4446 0.76019 0.66674 0.0
Co39 Co 0.45229 0.81844 0.63283 0.0
C40 C 0.4377 0.89139 0.62058 0.0
O41 O 0.42452 0.88094 0.60188 0.0
N42 N 0.47993 0.82578 0.60808 0.0
C43 C 0.51782 0.84864 0.58463 0.0
C44 C 0.50626 0.84894 0.60587 0.0
C45 C 0.47641 0.8114 0.5881 0.0
N46 N 0.49877 0.82513 0.57345 0.0
O47 O 0.4111 0.81286 0.61529 0.0
H48 H 0.51557 0.86596 0.6187 0.0
H49 H 0.45744 0.79161 0.58417 0.0
O50 O 0.44639 0.86885 0.63489 0.0
C51 C 0.40601 0.78049 0.61183 0.0
O52 O 0.43002 0.75824 0.61827 0.0
N53 N 0.49164 0.82131 0.65078 0.0
C54 C 0.5455 0.81795 0.68111 0.0
C55 C 0.51914 0.84303 0.68309 0.0
C56 C 0.49236 0.84417 0.66786 0.0
C57 C 0.51736 0.79702 0.64829 0.0
C58 C 0.545 0.79516 0.66321 0.0
H59 H 0.47131 0.86241 0.6705 0.0
H60 H 0.51588 0.77842 0.63504 0.0
H61 H 0.39304 0.85615 0.66074 0.0
H62 H 0.39989 0.76604 0.69971 0.0
H63 H 0.53759 0.86555 0.57778 0.0
H64 H 0.51882 0.86121 0.69664 0.0
H65 H 0.56493 0.77536 0.66128 0.0
C66 C 0.79644 0.61003 0.32217 0.0
C67 C 0.80405 0.63472 0.30667 0.0
N68 N 0.83867 0.64099 0.30726 0.0
N69 N 0.82603 0.60082 0.33254 0.0
C70 C 0.85129 0.62029 0.32328 0.0
H71 H 0.77107 0.59878 0.32531 0.0
Co72 Co 0.82769 0.56695 0.35395 0.0
C73 C 0.89807 0.57208 0.37327 0.0
O74 O 0.88416 0.57944 0.39233 0.0
N75 N 0.82854 0.53253 0.37569 0.0
C76 C 0.84651 0.48939 0.39722 0.0
C77 C 0.84988 0.50455 0.37695 0.0
C78 C 0.81176 0.53306 0.39502 0.0
N79 N 0.82276 0.50776 0.40867 0.0
O80 O 0.82103 0.60328 0.37517 0.0
H81 H 0.86848 0.49706 0.36451 0.0
H82 H 0.79275 0.55246 0.39948 0.0
O83 O 0.87843 0.56991 0.35647 0.0
C84 C 0.78879 0.61018 0.37781 0.0
O85 O 0.76541 0.59014 0.36838 0.0
N86 N 0.8321 0.53289 0.33224 0.0
C87 C 0.8326 0.4877 0.29656 0.0
C88 C 0.86029 0.51084 0.3002 0.0
C89 C 0.85928 0.53352 0.31785 0.0
C90 C 0.80511 0.51021 0.32933 0.0
C91 C 0.8049 0.48714 0.31158 0.0
H92 H 0.87979 0.55257 0.31926 0.0
H93 H 0.78321 0.51074 0.34047 0.0
H94 H 0.87865 0.61795 0.32739 0.0
H95 H 0.78559 0.64639 0.29547 0.0
H96 H 0.86211 0.46811 0.4035 0.0
H97 H 0.8825 0.51191 0.28929 0.0
H98 H 0.78281 0.46991 0.30929 0.0
C99 C 0.60344 0.23238 0.66145 0.0
C100 C 0.62339 0.22321 0.67916 0.0
N101 N 0.6158 0.18999 0.68443 0.0
N102 N 0.58346 0.20508 0.65549 0.0
C103 C 0.59176 0.17946 0.66966 0.0
H104 H 0.60244 0.25784 0.6539 0.0
Co105 Co 0.55012 0.20895 0.63386 0.0
C106 C 0.52152 0.13909 0.62387 0.0
O107 O 0.49093 0.15418 0.62185 0.0
N108 N 0.51689 0.21487 0.61135 0.0
C109 C 0.47293 0.23111 0.58986 0.0
C110 C 0.48612 0.23213 0.61073 0.0
C111 C 0.52168 0.20378 0.59062 0.0
N112 N 0.49548 0.21333 0.5772 0.0
O113 O 0.58734 0.21367 0.61304 0.0
H114 H 0.47389 0.24533 0.62424 0.0
H115 H 0.54468 0.18973 0.58537 0.0
O116 O 0.54841 0.15715 0.62944 0.0
C117 C 0.59059 0.24511 0.60663 0.0
O118 O 0.56706 0.26803 0.61283 0.0
N119 N 0.5154 0.20772 0.65552 0.0
C120 C 0.47163 0.21454 0.69154 0.0
C121 C 0.48489 0.18192 0.68559 0.0
C122 C 0.50707 0.17911 0.66773 0.0
C123 C 0.5039 0.23992 0.66173 0.0
C124 C 0.4811 0.24387 0.67936 0.0
H125 H 0.51866 0.15408 0.66467 0.0
H126 H 0.51287 0.26276 0.65302 0.0
H127 H 0.57973 0.15397 0.66957 0.0
H128 H 0.64058 0.24032 0.68822 0.0
H129 H 0.44881 0.24298 0.58446 0.0
H130 H 0.47859 0.15875 0.6949 0.0
H131 H 0.47192 0.26961 0.68387 0.0
C132 C 0.22844 0.57935 0.66431 0.0
C133 C 0.22645 0.60104 0.68213 0.0
N134 N 0.19611 0.6187 0.68097 0.0
N135 N 0.19928 0.58303 0.65222 0.0
C136 C 0.18016 0.60738 0.66263 0.0
H137 H 0.24969 0.56187 0.66039 0.0
Co138 Co 0.1913 0.55972 0.62644 0.0
C139 C 0.11753 0.57453 0.61607 0.0
O140 O 0.12708 0.59108 0.59827 0.0
N141 N 0.18408 0.5359 0.60027 0.0
C142 C 0.16432 0.4986 0.57535 0.0
C143 C 0.16298 0.50815 0.59697 0.0
C144 C 0.19787 0.54272 0.58047 0.0
N145 N 0.18615 0.52057 0.56507 0.0
O146 O 0.19455 0.60358 0.61151 0.0
H147 H 0.14713 0.49597 0.60943 0.0
H148 H 0.21613 0.56349 0.57721 0.0
O149 O 0.14073 0.56364 0.62937 0.0
C150 C 0.22622 0.61148 0.60765 0.0
O151 O 0.25074 0.58865 0.61218 0.0
N152 N 0.19056 0.51768 0.64183 0.0
C153 C 0.19553 0.45789 0.66717 0.0
C154 C 0.1679 0.48123 0.67015 0.0
C155 C 0.16625 0.51134 0.65763 0.0
C156 C 0.21769 0.4952 0.63862 0.0
C157 C 0.22084 0.46501 0.6513 0.0
H158 H 0.14615 0.53012 0.66138 0.0
H159 H 0.2374 0.50126 0.62656 0.0
H160 H 0.15477 0.61608 0.65711 0.0
H161 H 0.24574 0.60358 0.69496 0.0
H162 H 0.14959 0.47787 0.56766 0.0
H163 H 0.14856 0.47699 0.68278 0.0
H164 H 0.24285 0.44769 0.64894 0.0
C165 C 0.605 0.78194 0.32384 0.0
C166 C 0.62676 0.79466 0.30795 0.0
N167 N 0.62479 0.82971 0.30826 0.0
N168 N 0.5893 0.80878 0.33404 0.0
C169 C 0.60204 0.8377 0.32436 0.0
H170 H 0.60028 0.75476 0.3275 0.0
Co171 Co 0.55658 0.80083 0.35541 0.0
C172 C 0.52432 0.86783 0.36801 0.0
O173 O 0.49459 0.85089 0.36909 0.0
N174 N 0.5241 0.79066 0.37763 0.0
C175 C 0.48238 0.76934 0.39912 0.0
C176 C 0.49526 0.77033 0.37815 0.0
C177 C 0.5282 0.80133 0.39849 0.0
N178 N 0.50321 0.78896 0.41185 0.0
O179 O 0.59417 0.79527 0.37587 0.0
H180 H 0.48426 0.75641 0.36451 0.0
H181 H 0.54976 0.81741 0.40385 0.0
O182 O 0.55235 0.85173 0.36225 0.0
C183 C 0.59951 0.76327 0.3804 0.0
O184 O 0.5775 0.73993 0.3728 0.0
N185 N 0.52176 0.80353 0.33384 0.0
C186 C 0.48162 0.80031 0.29592 0.0
C187 C 0.49436 0.83223 0.30357 0.0
C188 C 0.51492 0.83322 0.32225 0.0
C189 C 0.51031 0.77208 0.32625 0.0
C190 C 0.48936 0.76992 0.3076 0.0
H191 H 0.52705 0.85768 0.3263 0.0
H192 H 0.51881 0.74835 0.33417 0.0
H193 H 0.59376 0.86391 0.32836 0.0
H194 H 0.64247 0.7793 0.29684 0.0
H195 H 0.45958 0.75513 0.40455 0.0
H196 H 0.48944 0.85622 0.29475 0.0
H197 H 0.48083 0.74465 0.30177 0.0
C198 C 0.78169 0.41753 0.66425 0.0
C199 C 0.79443 0.39651 0.68053 0.0
N200 N 0.82954 0.39592 0.67903 0.0
N201 N 0.80854 0.43028 0.65259 0.0
C202 C 0.83741 0.41658 0.66182 0.0
H203 H 0.75455 0.42367 0.66122 0.0
Co204 Co 0.80118 0.46 0.62957 0.0
C205 C 0.86846 0.49112 0.61632 0.0
O206 O 0.85119 0.52025 0.61315 0.0
N207 N 0.79147 0.48945 0.6056 0.0
C208 C 0.76936 0.52787 0.58213 0.0
C209 C 0.77105 0.51807 0.60368 0.0
C210 C 0.80173 0.48254 0.58493 0.0
N211 N 0.78858 0.50532 0.57034 0.0
O212 O 0.79717 0.41987 0.611 0.0
H213 H 0.75732 0.53095 0.61671 0.0
H214 H 0.81773 0.46034 0.58059 0.0
O215 O 0.85238 0.46388 0.62333 0.0
C216 C 0.7663 0.4134 0.60444 0.0
O217 O 0.7412 0.43553 0.60908 0.0
N218 N 0.80283 0.49749 0.64943 0.0
C219 C 0.79942 0.54342 0.68465 0.0
C220 C 0.83122 0.5286 0.67841 0.0
C221 C 0.83228 0.50525 0.66109 0.0
C222 C 0.77135 0.51055 0.65597 0.0
C223 C 0.76914 0.53451 0.67316 0.0
H224 H 0.85654 0.49188 0.65822 0.0
H225 H 0.74763 0.50128 0.64835 0.0
H226 H 0.86358 0.42183 0.65609 0.0
H227 H 0.77899 0.38364 0.69291 0.0
H228 H 0.75475 0.5497 0.57566 0.0
H229 H 0.855 0.53417 0.68735 0.0
H230 H 0.74394 0.54461 0.67808 0.0
C231 C 0.41068 0.21938 0.32379 0.0
C232 C 0.38989 0.20931 0.30667 0.0
N233 N 0.38953 0.17424 0.30599 0.0
N234 N 0.42349 0.19083 0.33377 0.0
C235 C 0.40997 0.16357 0.32269 0.0
H236 H 0.41693 0.24588 0.32837 0.0
Co237 Co 0.45498 0.19515 0.3563 0.0
C238 C 0.48069 0.12542 0.36889 0.0
O239 O 0.51145 0.13991 0.37148 0.0
N240 N 0.48642 0.20172 0.37966 0.0
C241 C 0.52824 0.21879 0.40258 0.0
C242 C 0.51753 0.21826 0.38111 0.0
C243 C 0.47897 0.19258 0.40043 0.0
N244 N 0.50368 0.20285 0.41466 0.0
O245 O 0.41636 0.20295 0.37574 0.0
H246 H 0.53141 0.23023 0.36778 0.0
H247 H 0.45545 0.17888 0.4051 0.0
O248 O 0.45465 0.1438 0.36222 0.0
C249 C 0.41367 0.23528 0.38028 0.0
O250 O 0.43782 0.25662 0.37296 0.0
N251 N 0.4911 0.19082 0.3358 0.0
C252 C 0.53348 0.19377 0.29884 0.0
C253 C 0.51929 0.16205 0.30584 0.0
C254 C 0.49756 0.16124 0.32401 0.0
C255 C 0.50433 0.222 0.32903 0.0
C256 C 0.5262 0.22401 0.31083 0.0
H257 H 0.48428 0.13717 0.32744 0.0
H258 H 0.49655 0.24573 0.33726 0.0
H259 H 0.41626 0.13659 0.32609 0.0
H260 H 0.37659 0.22644 0.29535 0.0
H261 H 0.5514 0.23142 0.40892 0.0
H262 H 0.52391 0.13812 0.29688 0.0
H263 H 0.53584 0.24919 0.30559 0.0
C264 C 0.7234 0.93437 0.81876 0.0
C265 C 0.72298 0.91467 0.80002 0.0
N266 N 0.69359 0.89546 0.80006 0.0
N267 N 0.69423 0.92794 0.83037 0.0
C268 C 0.67668 0.90391 0.81865 0.0
H269 H 0.74348 0.95265 0.82356 0.0
Co270 Co 0.68547 0.9499 0.85666 0.0
C271 C 0.60758 0.92346 0.85524 0.0
O272 O 0.60778 0.88934 0.8536 0.0
N273 N 0.67774 0.97241 0.88317 0.0
C274 C 0.65575 0.0068 0.90898 0.0
C275 C 0.65393 0.99757 0.88732 0.0
C276 C 0.6936 0.96678 0.90252 0.0
N277 N 0.6806 0.98718 0.91845 0.0
O278 O 0.69421 0.90654 0.87121 0.0
H279 H 0.63591 0.00813 0.87543 0.0
H280 H 0.71424 0.94806 0.9051 0.0
O281 O 0.63599 0.94055 0.85603 0.0
C282 C 0.72649 0.90086 0.87456 0.0
O283 O 0.7492 0.92534 0.86978 0.0
N284 N 0.67826 0.99169 0.84149 0.0
C285 C 0.67199 0.05151 0.81618 0.0
C286 C 0.64774 0.02447 0.81427 0.0
C287 C 0.65167 0.99456 0.82672 0.0
C288 C 0.70225 0.01775 0.84366 0.0
C289 C 0.69973 0.04804 0.83096 0.0
H290 H 0.63398 0.97324 0.82369 0.0
H291 H 0.72383 0.0146 0.85489 0.0
H292 H 0.65155 0.89357 0.82317 0.0
H293 H 0.74254 0.9147 0.78727 0.0
H294 H 0.63933 0.02558 0.91728 0.0
H295 H 0.6267 0.02576 0.80245 0.0
H296 H 0.71929 0.06828 0.83249 0.0
C297 C 0.91457 0.28377 0.15606 0.0
C298 C 0.8935 0.29459 0.17285 0.0
N299 N 0.89416 0.32967 0.17345 0.0
N300 N 0.92857 0.31184 0.1462 0.0
C301 C 0.91546 0.33958 0.15701 0.0
H302 H 0.92027 0.25705 0.15167 0.0
Co303 Co 0.96105 0.30664 0.12434 0.0
C304 C 0.98787 0.37601 0.11175 0.0
O305 O 0.01877 0.36139 0.11012 0.0
N306 N 0.99345 0.29923 0.10167 0.0
C307 C 0.03649 0.28175 0.07985 0.0
C308 C 0.02381 0.28127 0.10086 0.0
C309 C 0.9882 0.3099 0.08091 0.0
N310 N 0.01398 0.29988 0.06735 0.0
O311 O 0.92336 0.29878 0.10422 0.0
H312 H 0.03612 0.26815 0.11438 0.0
H313 H 0.96542 0.32446 0.07579 0.0
O314 O 0.9614 0.35785 0.11793 0.0
C315 C 0.92046 0.26642 0.09983 0.0
O316 O 0.94427 0.24494 0.10748 0.0
N317 N 0.99631 0.31116 0.14551 0.0
C318 C 0.0376 0.30905 0.18304 0.0
C319 C 0.02372 0.34062 0.17553 0.0
C320 C 1.00254 0.34102 0.15708 0.0
C321 C 0.00909 0.2801 0.15285 0.0
C322 C 0.03046 0.2785 0.17133 0.0
H323 H 0.98952 0.36508 0.15323 0.0
H324 H 1.00134 0.25617 0.14486 0.0
H325 H 0.92273 0.36632 0.15368 0.0
H326 H 0.87939 0.27797 0.18407 0.0
H327 H 0.06043 0.26971 0.07426 0.0
H328 H 0.02819 0.36477 0.18428 0.0
H329 H 0.03982 0.25343 0.17699 0.0
C330 C 0.27488 0.09699 0.81579 0.0
C331 C 0.27997 0.12335 0.80091 0.0
N332 N 0.31284 0.13532 0.80327 0.0
N333 N 0.30451 0.09221 0.82724 0.0
C334 C 0.32705 0.11607 0.81944 0.0
H335 H 0.25123 0.08202 0.81806 0.0
Co336 Co 0.31021 0.06033 0.84945 0.0
C337 C 0.38501 0.06572 0.86097 0.0
O338 O 0.37728 0.07834 0.88031 0.0
N339 N 0.3157 0.02803 0.87224 0.0
C340 C 0.3348 0.98323 0.89197 0.0
C341 C 0.33306 0.99738 0.87141 0.0
C342 C 0.3072 0.03181 0.8935 0.0
N343 N 0.31868 1.00512 0.90591 0.0
O344 O 0.30952 0.09875 0.86948 0.0
H345 H 0.34506 0.98658 0.85693 0.0
H346 H 0.29468 0.05465 0.90011 0.0
O347 O 0.36085 0.06103 0.84694 0.0
C348 C 0.27793 0.10589 0.87421 0.0
O349 O 0.25343 0.08419 0.86777 0.0
N350 N 0.30837 0.02422 0.82887 0.0
C351 C 0.30177 0.97364 0.79651 0.0
C352 C 0.32827 0.99872 0.79545 0.0
C353 C 0.33098 0.02388 0.81165 0.0
C354 C 0.28199 1.00041 0.83011 0.0
C355 C 0.27852 0.97438 0.8142 0.0
H356 H 0.35088 0.04362 0.80998 0.0
H357 H 0.26356 1.00169 0.84346 0.0
H358 H 0.3537 0.11856 0.82507 0.0
H359 H 0.26107 0.13273 0.78916 0.0
H360 H 0.34779 0.95916 0.89631 0.0
H361 H 0.34695 0.99889 0.78218 0.0
H362 H 0.25758 0.95553 0.81547 0.0
C363 C 0.11607 0.71554 0.15476 0.0
C364 C 0.13793 0.70084 0.16995 0.0
N365 N 0.133 0.66605 0.16968 0.0
N366 N 0.09747 0.69021 0.14496 0.0
C367 C 0.10839 0.66028 0.15427 0.0
H368 H 0.11331 0.74306 0.15132 0.0
Co369 Co 0.06446 0.69988 0.12401 0.0
C370 C 0.0312 0.63365 0.11028 0.0
O371 O 1.00169 0.65094 0.10887 0.0
N372 N 0.03168 0.71159 0.10223 0.0
C373 C 0.98993 0.73475 0.08148 0.0
C374 C 1.00286 0.73199 0.10239 0.0
C375 C 0.03561 0.70254 0.08107 0.0
N376 N 0.01069 0.71616 0.06811 0.0
O377 O 0.10174 0.70563 0.10337 0.0
H378 H 0.99197 0.74487 0.11645 0.0
H379 H 0.05714 0.68688 0.07519 0.0
O380 O 0.05919 0.64938 0.11647 0.0
C381 C 0.1071 0.73782 0.09947 0.0
O382 O 0.08564 0.7609 0.10795 0.0
N383 N 0.03003 0.69715 0.14572 0.0
C384 C 0.98947 0.70063 0.1834 0.0
C385 C 1.00089 0.66845 0.17531 0.0
C386 C 0.02164 0.66729 0.1567 0.0
C387 C 0.02004 0.72875 0.15381 0.0
C388 C 0.99894 0.73111 0.17235 0.0
H389 H 0.03249 0.64245 0.15217 0.0
H390 H 0.02955 0.75238 0.14623 0.0
H391 H 0.09825 0.63486 0.15004 0.0
H392 H 0.15508 0.71484 0.18093 0.0
H393 H 0.96723 0.74959 0.07654 0.0
H394 H 0.99462 0.64436 0.18366 0.0
H395 H 0.99144 0.7565 0.17852 0.0
C396 C 0.72807 0.11669 0.15627 0.0
C397 C 0.71905 0.14193 0.17113 0.0
N398 N 0.68395 0.14357 0.17208 0.0
N399 N 0.69885 0.10247 0.14788 0.0
C400 C 0.67235 0.11963 0.1576 0.0
H401 H 0.75429 0.10825 0.15241 0.0
Co402 Co 0.69969 0.06493 0.12904 0.0
C403 C 0.63062 0.06378 0.10795 0.0
O404 O 0.6455 0.06954 0.08898 0.0
N405 N 0.70126 0.02638 0.10979 0.0
C406 C 0.69001 0.97509 0.09417 0.0
C407 C 0.68692 0.99455 0.11292 0.0
C408 C 0.71279 0.0254 0.08895 0.0
N409 N 0.70616 0.9947 0.07902 0.0
O410 O 0.70603 0.09762 0.10567 0.0
H411 H 0.67332 0.98639 0.1275 0.0
H412 H 0.72332 0.04761 0.08048 0.0
O413 O 0.64902 0.06489 0.12534 0.0
C414 C 0.73818 0.1033 0.10178 0.0
O415 O 0.76171 0.08329 0.11108 0.0
N416 N 0.69591 0.03501 0.15308 0.0
C417 C 0.69514 0.9937 0.19054 0.0
C418 C 0.66613 0.01401 0.18482 0.0
C419 C 0.66721 0.03479 0.16627 0.0
C420 C 0.72464 0.01581 0.15839 0.0
C421 C 0.72474 0.99467 0.17702 0.0
H422 H 0.64509 0.05127 0.16297 0.0
H423 H 0.74763 0.01714 0.14817 0.0
H424 H 0.64513 0.11318 0.1552 0.0
H425 H 0.73694 0.15695 0.18107 0.0
H426 H 0.67977 0.94911 0.09169 0.0
H427 H 0.64254 0.01389 0.19456 0.0
H428 H 0.74789 0.97974 0.18096 0.0
C429 C 0.11448 0.28842 0.81908 0.0
C430 C 0.1361 0.28876 0.80125 0.0
N431 N 0.14494 0.32209 0.79705 0.0
N432 N 0.10969 0.3213 0.8262 0.0
C433 C 0.12886 0.3413 0.81262 0.0
H434 H 0.10206 0.2657 0.82605 0.0
Co435 Co 0.07994 0.33133 0.84913 0.0
C436 C 0.09145 0.40434 0.86137 0.0
O437 O 0.10196 0.39383 0.8807 0.0
N438 N 0.04953 0.34021 0.87253 0.0
C439 C 0.00893 0.36376 0.89399 0.0
C440 C 0.02236 0.36271 0.87314 0.0
C441 C 0.05158 0.32756 0.89302 0.0
N442 N 0.02769 0.34178 0.90648 0.0
O443 O 0.11937 0.32698 0.86837 0.0
H444 H 0.01374 0.37844 0.85951 0.0
H445 H 0.07053 0.30861 0.89828 0.0
O446 O 0.08647 0.38176 0.84634 0.0
C447 C 0.12474 0.29563 0.87434 0.0
O448 O 0.10148 0.27173 0.86939 0.0
N449 N 0.04263 0.33328 0.82941 0.0
C450 C 0.99238 0.32896 0.79674 0.0
C451 C 0.01854 0.3543 0.79585 0.0
C452 C 0.04343 0.35597 0.81226 0.0
C453 C 0.01702 0.30866 0.83082 0.0
C454 C 0.99115 0.30632 0.81469 0.0
H455 H 0.06423 0.37464 0.81047 0.0
H456 H 0.01721 0.29026 0.8442 0.0
H457 H 0.12938 0.36948 0.81337 0.0
H458 H 0.14385 0.26626 0.79175 0.0
H459 H 0.98806 0.38048 0.89969 0.0
H460 H 0.02011 0.37244 0.78233 0.0
H461 H 0.97122 0.28638 0.81582 0.0
C462 C 0.29507 0.89771 0.15516 0.0
C463 C 0.30183 0.8729 0.17075 0.0
N464 N 0.33641 0.8664 0.17076 0.0
N465 N 0.32518 0.9068 0.14538 0.0
C466 C 0.34992 0.88713 0.15506 0.0
H467 H 0.2699 0.90903 0.15148 0.0
Co468 Co 0.32743 0.94049 0.12395 0.0
C469 C 0.39857 0.93658 0.10581 0.0
O470 O 0.38553 0.92879 0.08657 0.0
N471 N 0.32877 0.97481 0.10208 0.0
C472 C 0.34583 0.01964 0.08155 0.0
C473 C 0.3475 1.00471 0.10199 0.0
C474 C 0.31555 0.97263 0.08171 0.0
N475 N 0.32603 0.99901 0.06882 0.0
O476 O 0.32236 0.90383 0.10283 0.0
H477 H 0.36335 0.01386 0.11544 0.0
H478 H 0.29996 0.95123 0.07582 0.0
O479 O 0.37832 0.93837 0.12233 0.0
C480 C 0.2904 0.89672 0.09925 0.0
O481 O 0.26625 0.91715 0.10752 0.0
N482 N 0.33034 0.97469 0.14571 0.0
C483 C 0.32871 0.01939 0.18161 0.0
C484 C 0.35686 0.99667 0.17833 0.0
C485 C 0.35692 0.97425 0.16056 0.0
C486 C 0.30291 0.99698 0.14828 0.0
C487 C 0.30166 0.01986 0.16612 0.0
H488 H 0.37775 0.95546 0.15944 0.0
H489 H 0.28148 0.9963 0.13677 0.0
H490 H 0.37746 0.8892 0.1514 0.0
H491 H 0.2828 0.86117 0.18152 0.0
H492 H 0.36017 0.04231 0.07607 0.0
H493 H 0.37858 0.9957 0.18965 0.0
H494 H 0.27929 0.03683 0.16813 0.0
C495 C 0.92321 0.73486 0.81241 0.0
C496 C 0.89814 0.7299 0.79665 0.0
N497 N 0.88528 0.69738 0.79884 0.0
N498 N 0.92629 0.70554 0.82434 0.0
C499 C 0.9027 0.68326 0.81586 0.0
H500 H 0.93852 0.7582 0.81495 0.0
Co501 Co 0.95663 0.70035 0.84754 0.0
C502 C 0.9499 0.62733 0.86173 0.0
O503 O 0.93928 0.63814 0.88097 0.0
N504 N 0.98742 0.69574 0.8712 0.0
C505 C 0.02839 0.67512 0.89348 0.0
C506 C 0.01564 0.67468 0.87249 0.0
C507 C 0.98411 0.7092 0.89144 0.0
N508 N 0.00823 0.69666 0.90543 0.0
O509 O 0.91711 0.70411 0.86666 0.0
H510 H 0.02517 0.65849 0.8593 0.0
H511 H 0.96376 0.72708 0.89613 0.0
O512 O 0.95382 0.64947 0.84637 0.0
C513 C 0.91099 0.73637 0.86992 0.0
O514 O 0.93353 0.75932 0.86248 0.0
N515 N 0.994 0.69933 0.82803 0.0
C516 C 0.04543 0.70391 0.79618 0.0
C517 C 0.02001 0.67773 0.79522 0.0
C518 C 0.99442 0.67601 0.8112 0.0
C519 C 0.01856 0.72499 0.82936 0.0
C520 C 0.045 0.72747 0.81368 0.0
H521 H 0.97411 0.65671 0.80948 0.0
H522 H 0.01723 0.74394 0.84242 0.0
H523 H 0.89917 0.65684 0.82162 0.0
H524 H 0.89024 0.7487 0.78443 0.0
H525 H 0.04953 0.65922 0.89968 0.0
H526 H 0.01965 0.65888 0.78204 0.0
H527 H 0.06418 0.74813 0.81484 0.0
H528 H 0.93095 0.5419 0.33823 0.0
H529 H 0.94646 0.56743 0.40622 0.0
H530 H 0.98495 0.5091 0.33807 0.0
H531 H 1.00166 0.53576 0.40585 0.0
H532 H 0.07842 0.44537 0.40569 0.0
H533 H 0.02388 0.47816 0.40508 0.0
H534 H 0.0459 0.5112 0.33906 0.0
H535 H 0.09946 0.47747 0.33944 0.0
C536 C 0.94616 0.54117 0.35307 0.0
C537 C 0.934 0.55728 0.37226 0.0
C538 C 0.97742 0.52231 0.35297 0.0
C539 C 0.99777 0.5193 0.37201 0.0
C540 C 0.98638 0.5367 0.39098 0.0
C541 C 0.95487 0.55533 0.39113 0.0
C542 C 0.07132 0.4592 0.39093 0.0
C543 C 0.09334 0.45848 0.37257 0.0
C544 C 0.04021 0.47844 0.39066 0.0
C545 C 0.03041 0.49779 0.37209 0.0
C546 C 0.05214 0.49638 0.35358 0.0
C547 C 0.08303 0.47689 0.35378 0.0
H548 H 0.50943 0.09969 0.58828 0.0
H549 H 0.53039 0.09285 0.65724 0.0
H550 H 0.49149 0.03874 0.58781 0.0
H551 H 0.51037 0.03244 0.65734 0.0
H552 H 0.48831 0.91619 0.64817 0.0
H553 H 0.51509 0.97364 0.64825 0.0
H554 H 0.44284 0.00695 0.59815 0.0
H555 H 0.41735 0.94885 0.59738 0.0
C556 C 0.51112 0.08469 0.60324 0.0
C557 C 0.52188 0.10072 0.62269 0.0
C558 C 0.50003 0.04994 0.60314 0.0
C559 C 0.4984 0.03058 0.62266 0.0
C560 C 0.51129 0.04617 0.64193 0.0
C561 C 0.52304 0.08085 0.6419 0.0
C562 C 0.47783 0.93589 0.63735 0.0
C563 C 0.45053 0.92783 0.62278 0.0
C564 C 0.49331 0.969 0.63737 0.0
C565 C 0.48165 0.9952 0.62301 0.0
C566 C 0.45343 0.98737 0.60901 0.0
C567 C 0.43834 0.9541 0.60877 0.0
H568 H 0.91693 0.47368 0.64743 0.0
H569 H 0.90596 0.51585 0.5826 0.0
H570 H 0.97754 0.49369 0.64858 0.0
H571 H 0.96681 0.53389 0.58294 0.0
H572 H 0.05863 0.60227 0.59788 0.0
H573 H 0.99992 0.57808 0.59796 0.0
H574 H 0.03583 0.4917 0.63739 0.0
H575 H 0.09404 0.51704 0.63816 0.0
C576 C 0.92797 0.48598 0.6331 0.0
C577 C 0.90688 0.49314 0.61489 0.0
C578 C 0.96273 0.49768 0.63374 0.0
C579 C 0.97718 0.51635 0.61605 0.0
C580 C 0.95653 0.52087 0.59722 0.0
C581 C 0.92177 0.50988 0.5968 0.0
C582 C 0.05384 0.57838 0.60681 0.0
C583 C 0.08104 0.56179 0.61811 0.0
C584 C 0.02019 0.56411 0.60663 0.0
C585 C 0.01289 0.53236 0.61734 0.0
C586 C 0.04006 0.51624 0.62909 0.0
C587 C 0.0736 0.53087 0.62958 0.0
H588 H 0.55057 0.91806 0.34073 0.0
H589 H 0.49192 0.90331 0.4001 0.0
H590 H 0.53579 0.98054 0.34129 0.0
H591 H 0.47798 0.96554 0.40099 0.0
H592 H 0.50041 0.08705 0.40352 0.0
H593 H 0.51269 0.02444 0.40418 0.0
H594 H 0.47451 0.01523 0.33814 0.0
H595 H 0.46116 0.078 0.33777 0.0
C596 C 0.53544 0.92839 0.35421 0.0
C597 C 0.52274 0.90607 0.37054 0.0
C598 C 0.52651 0.96392 0.35435 0.0
C599 C 0.50539 0.97774 0.37106 0.0
C600 C 0.49421 0.95561 0.38791 0.0
C601 C 0.50241 0.92011 0.38748 0.0
C602 C 0.49354 0.07137 0.38943 0.0
C603 C 0.47924 0.08712 0.37077 0.0
C604 C 0.50089 0.03567 0.38973 0.0
C605 C 0.49502 0.01511 0.37111 0.0
C606 C 0.47964 0.03062 0.35262 0.0
C607 C 0.47146 0.06632 0.35253 0.0
H608 H 0.58245 0.96306 0.88829 0.0
H609 H 0.55931 0.92911 0.82286 0.0
H610 H 0.52976 0.9986 0.88863 0.0
H611 H 0.50781 0.96659 0.82219 0.0
H612 H 0.39931 0.01028 0.83455 0.0
H613 H 0.45214 0.97579 0.83312 0.0
H614 H 0.50209 0.04792 0.87765 0.0
H615 H 0.44781 0.08086 0.88027 0.0
C616 C 0.56591 0.9634 0.87393 0.0
C617 C 0.57444 0.94302 0.8557 0.0
C618 C 0.53588 0.98421 0.87393 0.0
C619 C 0.51407 0.98602 0.85538 0.0
C620 C 0.52312 0.96559 0.83703 0.0
C621 C 0.55273 0.94406 0.8373 0.0
C622 C 0.42171 0.01907 0.84383 0.0
C623 C 0.41928 0.04841 0.85753 0.0
C624 C 0.45233 0.99921 0.84297 0.0
C625 C 0.48188 0.00853 0.85539 0.0
C626 C 0.47984 0.039 0.8683 0.0
C627 C 0.44881 0.05834 0.8696 0.0
H628 H 0.96761 0.42437 0.14202 0.0
H629 H 0.00843 0.41326 0.0768 0.0
H630 H 0.98074 0.48715 0.14098 0.0
H631 H 0.02039 0.47596 0.07543 0.0
H632 H 0.99773 0.59771 0.07871 0.0
H633 H 0.98402 0.53537 0.0782 0.0
H634 H 0.04331 0.52122 0.13745 0.0
H635 H 0.05797 0.58368 0.13758 0.0
C636 C 0.97821 0.43559 0.12722 0.0
C637 C 0.9865 0.41422 0.10934 0.0
C638 C 0.98623 0.47131 0.12674 0.0
C639 C 1.00194 0.48625 0.1082 0.0
C640 C 0.00834 0.46512 0.08991 0.0
C641 C 1.00118 0.42939 0.09061 0.0
C642 C 0.00857 0.58108 0.09131 0.0
C643 C 0.0293 0.59535 0.10801 0.0
C644 C 1.00051 0.54552 0.0911 0.0
C645 C 0.01219 0.52363 0.10794 0.0
C646 C 0.03367 0.53768 0.1244 0.0
C647 C 0.04249 0.57322 0.12431 0.0
H648 H 0.42858 0.97048 0.14053 0.0
H649 H 0.44927 0.93838 0.0742 0.0
H650 H 0.48286 1.00282 0.14121 0.0
H651 H 0.50461 0.96975 0.07513 0.0
H652 H 0.5829 0.05882 0.0747 0.0
H653 H 0.52773 0.02713 0.07465 0.0
H654 H 0.54385 0.99943 0.1423 0.0
H655 H 0.598 0.03203 0.14251 0.0
C656 C 0.445 0.96963 0.12621 0.0
C657 C 0.43431 0.9517 0.10731 0.0
C658 C 0.47638 0.98828 0.1266 0.0
C659 C 0.49827 0.9893 0.10817 0.0
C660 C 0.48818 0.97031 0.0895 0.0
C661 C 0.45657 0.95188 0.08905 0.0
C662 C 0.5744 0.04641 0.08966 0.0
C663 C 0.59501 0.04825 0.10864 0.0
C664 C 0.5429 0.0278 0.08957 0.0
C665 C 0.53126 0.01026 0.10841 0.0
C666 C 0.55153 0.01285 0.12752 0.0
C667 C 0.58282 0.03167 0.12765 0.0
H668 H 0.9835 0.59928 0.82613 0.0
H669 H 0.95581 0.57654 0.89297 0.0
H670 H 0.01971 0.5471 0.825 0.0
H671 H 0.99134 0.52391 0.89166 0.0
H672 H 0.08776 0.45606 0.89214 0.0
H673 H 0.05239 0.50878 0.89109 0.0
H674 H 0.02054 0.48426 0.8252 0.0
H675 H 0.05661 0.43198 0.82604 0.0
C676 C 0.98456 0.58288 0.84048 0.0
C677 C 0.96676 0.59242 0.85969 0.0
C678 C 1.00541 0.55283 0.83982 0.0
C679 C 0.00903 0.53145 0.85835 0.0
C680 C 0.98994 0.54015 0.87723 0.0
C681 C 0.96912 0.57019 0.87789 0.0
C682 C 0.07374 0.46214 0.87726 0.0
C683 C 0.07505 0.43946 0.85921 0.0
C684 C 0.05301 0.49223 0.87676 0.0
C685 C 0.03295 0.50056 0.85821 0.0
C686 C 0.03559 0.4788 0.83977 0.0
C687 C 0.05638 0.4487 0.84026 0.0
H688 H 0.27135 0.39401 0.41998 0.0
H689 H 0.22657 0.33708 0.3662 0.0
H690 H 0.30806 0.34401 0.42895 0.0
H691 H 0.265 0.28809 0.37379 0.0
H692 H 0.34677 0.20899 0.38179 0.0
H693 H 0.29398 0.24182 0.39129 0.0
H694 H 0.35841 0.32918 0.41073 0.0
H695 H 0.4101 0.29616 0.40214 0.0
C696 C 0.26851 0.3702 0.41061 0.0
C697 C 0.24628 0.36919 0.39247 0.0
C698 C 0.28991 0.3417 0.41546 0.0
C699 C 0.29065 0.31234 0.4016 0.0
C700 C 0.26539 0.31002 0.38491 0.0
C701 C 0.24322 0.33817 0.3805 0.0
C702 C 0.34942 0.23474 0.38887 0.0
C703 C 0.38246 0.25029 0.3909 0.0
C704 C 0.3192 0.25374 0.39412 0.0
C705 C 0.3216 0.28854 0.40147 0.0
C706 C 0.35502 0.3025 0.40536 0.0
C707 C 0.38494 0.28363 0.40018 0.0
H708 H 0.22427 0.67022 0.63204 0.0
H709 H 0.255 0.63033 0.56916 0.0
H710 H 0.26183 0.72091 0.62678 0.0
H711 H 0.29116 0.68186 0.56314 0.0
H712 H 0.39875 0.72336 0.58674 0.0
H713 H 0.34575 0.69099 0.57985 0.0
H714 H 0.28522 0.77301 0.61015 0.0
H715 H 0.33933 0.8054 0.61741 0.0
C716 C 0.23758 0.67341 0.61655 0.0
C717 C 0.23687 0.64663 0.60097 0.0
C718 C 0.25918 0.70246 0.61349 0.0
C719 C 0.28026 0.70517 0.59472 0.0
C720 C 0.27603 0.68022 0.57803 0.0
C721 C 0.25501 0.65091 0.5813 0.0
C722 C 0.37403 0.73499 0.59135 0.0
C723 C 0.37312 0.76669 0.60274 0.0
C724 C 0.34342 0.71652 0.58725 0.0
C725 C 0.31097 0.72916 0.59456 0.0
C726 C 0.30977 0.76233 0.60449 0.0
C727 C 0.34066 0.78106 0.60845 0.0
H728 H 0.66401 0.79473 0.38021 0.0
H729 H 0.60911 0.70331 0.4026 0.0
H730 H 0.71981 0.76609 0.38813 0.0
H731 H 0.66393 0.67448 0.40987 0.0
H732 H 0.79003 0.67438 0.36012 0.0
H733 H 0.74905 0.72081 0.36888 0.0
H734 H 0.71759 0.66479 0.42689 0.0
H735 H 0.75734 0.61746 0.41713 0.0
C736 C 0.66386 0.769 0.3875 0.0
C737 C 0.6323 0.75101 0.39052 0.0
C738 C 0.69581 0.75242 0.39184 0.0
C739 C 0.69662 0.71766 0.39933 0.0
C740 C 0.66474 0.70126 0.40433 0.0
C741 C 0.63307 0.71771 0.39996 0.0
C742 C 0.77553 0.67292 0.37529 0.0
C743 C 0.77672 0.64259 0.38801 0.0
C744 C 0.7519 0.69955 0.38036 0.0
C745 C 0.72918 0.69625 0.39833 0.0
C746 C 0.73392 0.6678 0.41259 0.0
C747 C 0.75704 0.64088 0.40724 0.0
H748 H 0.73632 0.39876 0.56548 0.0
H749 H 0.77175 0.35163 0.62534 0.0
H750 H 0.70195 0.34683 0.5572 0.0
H751 H 0.73552 0.30079 0.61818 0.0
H752 H 0.65732 0.21919 0.60992 0.0
H753 H 0.71092 0.25126 0.60143 0.0
H754 H 0.64879 0.33365 0.57275 0.0
H755 H 0.59634 0.30124 0.58048 0.0
C756 C 0.73761 0.37665 0.57647 0.0
C757 C 0.75648 0.37896 0.596 0.0
C758 C 0.71758 0.34707 0.57193 0.0
C759 C 0.7148 0.31997 0.58737 0.0
C760 C 0.73686 0.32088 0.60581 0.0
C761 C 0.75771 0.3501 0.61 0.0
C762 C 0.65547 0.24348 0.60096 0.0
C763 C 0.62272 0.25805 0.59612 0.0
C764 C 0.68613 0.26209 0.59632 0.0
C765 C 0.68444 0.29551 0.58677 0.0
C766 C 0.65164 0.30804 0.57994 0.0
C767 C 0.62126 0.28953 0.58455 0.0
H768 H 0.90361 0.79331 0.89509 0.0
H769 H 0.8448 0.70965 0.86574 0.0
H770 H 0.85028 0.82491 0.90232 0.0
H771 H 0.79034 0.74114 0.87344 0.0
H772 H 0.72617 0.84117 0.85104 0.0
H773 H 0.76531 0.79174 0.85658 0.0
H774 H 0.79626 0.83452 0.91902 0.0
H775 H 0.7586 0.88488 0.91258 0.0
C776 C 0.87897 0.78113 0.89091 0.0
C777 C 0.8783 0.74925 0.87972 0.0
C778 C 0.84816 0.79916 0.89519 0.0
C779 C 0.81574 0.78585 0.88829 0.0
C780 C 0.81485 0.75239 0.87873 0.0
C781 C 0.84595 0.73414 0.87455 0.0
C782 C 0.74036 0.83913 0.8663 0.0
C783 C 0.73961 0.86661 0.88139 0.0
C784 C 0.76282 0.81077 0.86955 0.0
C785 C 0.78467 0.80941 0.88806 0.0
C786 C 0.78059 0.83513 0.9043 0.0
C787 C 0.75876 0.8638 0.90079 0.0
H788 H 0.7317 0.16902 0.11692 0.0
H789 H 0.77418 0.1087 0.06388 0.0
H790 H 0.77119 0.21669 0.1083 0.0
H791 H 0.81204 0.15732 0.05392 0.0
H792 H 0.91549 0.20457 0.07912 0.0
H793 H 0.86306 0.17208 0.07154 0.0
H794 H 0.80052 0.26154 0.08963 0.0
H795 H 0.85403 0.29386 0.09812 0.0
C796 C 0.74811 0.1669 0.10257 0.0
C797 C 0.75015 0.13534 0.09108 0.0
C798 C 0.77088 0.19428 0.09756 0.0
C799 C 0.79578 0.19063 0.08077 0.0
C800 C 0.79416 0.16067 0.06745 0.0
C801 C 0.77211 0.13296 0.07288 0.0
C802 C 0.89059 0.21767 0.08097 0.0
C803 C 0.88886 0.25151 0.0896 0.0
C804 C 0.86024 0.19907 0.07638 0.0
C805 C 0.82714 0.21383 0.08022 0.0
C806 C 0.82548 0.24903 0.08688 0.0
C807 C 0.85612 0.26773 0.09153 0.0
H808 H 0.13814 0.267 0.91383 0.0
H809 H 0.1861 0.29497 0.85272 0.0
H810 H 0.18687 0.22805 0.92195 0.0
H811 H 0.23372 0.25448 0.8599 0.0
H812 H 0.30932 0.16989 0.86983 0.0
H813 H 0.28183 0.22646 0.87723 0.0
H814 H 0.19382 0.17317 0.90625 0.0
H815 H 0.22158 0.11771 0.89941 0.0
C816 C 0.15993 0.26578 0.90257 0.0
C817 C 0.15864 0.28391 0.88274 0.0
C818 C 0.18762 0.24312 0.90701 0.0
C819 C 0.21377 0.23711 0.89128 0.0
C820 C 0.21428 0.25833 0.87249 0.0
C821 C 0.18696 0.28167 0.86832 0.0
C822 C 0.28479 0.1706 0.87861 0.0
C823 C 0.26735 0.13951 0.88388 0.0
C824 C 0.26881 0.20294 0.88263 0.0
C825 C 0.23528 0.20461 0.89208 0.0
C826 C 0.21971 0.17336 0.89918 0.0
C827 C 0.23552 0.14131 0.8951 0.0
H828 H 0.25858 0.8875 0.06021 0.0
H829 H 0.29447 0.83288 0.11739 0.0
H830 H 0.22077 0.83843 0.05092 0.0
H831 H 0.25525 0.78473 0.10916 0.0
H832 H 0.17237 0.70803 0.09925 0.0
H833 H 0.2271 0.7381 0.09055 0.0
H834 H 0.16786 0.82737 0.06831 0.0
H835 H 0.11417 0.79712 0.07638 0.0
C836 C 0.25936 0.86427 0.07027 0.0
C837 C 0.27935 0.86368 0.08941 0.0
C838 C 0.23738 0.83633 0.06517 0.0
C839 C 0.23397 0.80798 0.07965 0.0
C840 C 0.25707 0.80588 0.09752 0.0
C841 C 0.27968 0.83351 0.1023 0.0
C842 C 0.17129 0.7335 0.09165 0.0
C843 C 0.13914 0.7505 0.08873 0.0
C844 C 0.2026 0.75092 0.08687 0.0
C845 C 0.20215 0.78549 0.07903 0.0
C846 C 0.16966 0.80077 0.07411 0.0
C847 C 0.13863 0.78351 0.07892 0.0
H848 H 0.18337 0.48864 0.25139 0.0
H849 H 0.21232 0.58039 0.288 0.0
H850 H 0.17362 0.52437 0.21903 0.0
H851 H 0.20205 0.61641 0.25571 0.0
H852 H 0.19553 0.67067 0.19022 0.0
H853 H 0.21839 0.63126 0.21807 0.0
H854 H 0.12746 0.56571 0.21055 0.0
H855 H 0.10468 0.60494 0.18291 0.0
C856 C 0.18802 0.51646 0.25239 0.0
C857 C 0.1981 0.53192 0.2722 0.0
C858 C 0.18236 0.5369 0.23392 0.0
C859 C 0.18649 0.57324 0.23492 0.0
C860 C 0.19883 0.58843 0.25438 0.0
C861 C 0.20468 0.56789 0.27287 0.0
C862 C 0.18052 0.64776 0.19448 0.0
C863 C 0.14816 0.64108 0.18444 0.0
C864 C 0.19365 0.6252 0.21039 0.0
C865 C 0.17473 0.59543 0.21653 0.0
C866 C 0.14299 0.58812 0.20593 0.0
C867 C 0.12988 0.61065 0.19006 0.0
H868 H 0.53469 0.81418 0.72463 0.0
H869 H 0.61656 0.8168 0.67631 0.0
H870 H 0.57722 0.82316 0.75337 0.0
H871 H 0.65996 0.82468 0.70534 0.0
H872 H 0.70258 0.90533 0.75682 0.0
H873 H 0.6725 0.87489 0.72753 0.0
H874 H 0.62569 0.8054 0.77474 0.0
H875 H 0.65519 0.83685 0.80412 0.0
C876 C 0.56205 0.81581 0.72028 0.0
C877 C 0.57238 0.81557 0.69831 0.0
C878 C 0.58657 0.82055 0.73677 0.0
C879 C 0.62205 0.82503 0.73167 0.0
C880 C 0.63274 0.82186 0.70976 0.0
C881 C 0.60803 0.8171 0.69317 0.0
C882 C 0.68656 0.88301 0.76086 0.0
C883 C 0.68063 0.87381 0.78272 0.0
C884 C 0.66943 0.86537 0.74405 0.0
C885 C 0.64628 0.83794 0.74879 0.0
C886 C 0.64273 0.82691 0.77058 0.0
C887 C 0.65953 0.84488 0.7874 0.0
H888 H 0.85406 0.50471 0.25545 0.0
H889 H 0.81178 0.41936 0.29309 0.0
H890 H 0.86388 0.46588 0.22495 0.0
H891 H 0.81907 0.38074 0.26177 0.0
H892 H 0.888 0.3148 0.21622 0.0
H893 H 0.8662 0.35285 0.24481 0.0
H894 H 0.84278 0.43174 0.19647 0.0
H895 H 0.86633 0.39376 0.16799 0.0
C896 C 0.84645 0.47764 0.25712 0.0
C897 C 0.83304 0.46492 0.27694 0.0
C898 C 0.85152 0.45542 0.23941 0.0
C899 C 0.84268 0.41994 0.24088 0.0
C900 C 0.82697 0.40773 0.26021 0.0
C901 C 0.82234 0.42995 0.2781 0.0
C902 C 0.87776 0.34011 0.21172 0.0
C903 C 0.87896 0.35149 0.18996 0.0
C904 C 0.865 0.36192 0.22809 0.0
C905 C 0.85265 0.3955 0.22305 0.0
C906 C 0.85268 0.40633 0.20107 0.0
C907 C 0.86605 0.38466 0.18472 0.0
H908 H 0.36728 0.17656 0.81457 0.0
H909 H 0.29934 0.14972 0.76084 0.0
H910 H 0.40465 0.20923 0.78964 0.0
H911 H 0.33649 0.18219 0.73602 0.0
H912 H 0.4066 0.24333 0.69366 0.0
H913 H 0.36447 0.23665 0.72353 0.0
H914 H 0.44324 0.18409 0.76193 0.0
H915 H 0.48493 0.19119 0.73237 0.0
C916 C 0.36006 0.17807 0.79751 0.0
C917 C 0.33084 0.1599 0.78958 0.0
C918 C 0.38132 0.19691 0.78328 0.0
C919 C 0.37376 0.19788 0.76084 0.0
C920 C 0.34288 0.18224 0.75325 0.0
C921 C 0.3216 0.16346 0.76749 0.0
C922 C 0.41498 0.23135 0.7088 0.0
C923 C 0.44865 0.21729 0.71074 0.0
C924 C 0.39093 0.22736 0.72579 0.0
C925 C 0.40046 0.20959 0.74498 0.0
C926 C 0.43511 0.1982 0.74748 0.0
C927 C 0.45893 0.20193 0.7305 0.0
H928 H 0.2474 0.44494 0.69633 0.0
H929 H 0.1492 0.40542 0.67237 0.0
H930 H 0.2441 0.40501 0.72755 0.0
H931 H 0.14574 0.36564 0.7033 0.0
H932 H 0.18069 0.38268 0.79297 0.0
H933 H 0.20217 0.40835 0.75911 0.0
H934 H 0.1711 0.31591 0.72382 0.0
H935 H 0.14876 0.29071 0.75741 0.0
C936 C 0.22585 0.42674 0.69736 0.0
C937 C 0.19854 0.42801 0.68211 0.0
C938 C 0.22378 0.4042 0.71526 0.0
C939 C 0.19455 0.38245 0.71793 0.0
C940 C 0.16876 0.38181 0.70159 0.0
C941 C 0.17064 0.40457 0.68391 0.0
C942 C 0.17882 0.36771 0.77804 0.0
C943 C 0.16252 0.33491 0.77788 0.0
C944 C 0.19156 0.38218 0.75869 0.0
C945 C 0.18812 0.36415 0.73881 0.0
C946 C 0.17387 0.33046 0.73889 0.0
C947 C 0.16125 0.31596 0.75822 0.0
H948 H 0.49972 0.83036 0.25751 0.0
H949 H 0.41956 0.76765 0.28763 0.0
H950 H 0.46389 0.83667 0.225 0.0
H951 H 0.38364 0.77325 0.25467 0.0
H952 H 0.3167 0.85061 0.21207 0.0
H953 H 0.35242 0.82414 0.2402 0.0
H954 H 0.43575 0.80944 0.1936 0.0
H955 H 0.39975 0.83609 0.16524 0.0
C956 C 0.47458 0.81744 0.25696 0.0
C957 C 0.46202 0.7991 0.27516 0.0
C958 C 0.45423 0.82065 0.23824 0.0
C959 C 0.42083 0.80562 0.23731 0.0
C960 C 0.40915 0.7854 0.25503 0.0
C961 C 0.42969 0.78204 0.2738 0.0
C962 C 0.34221 0.8409 0.20758 0.0
C963 C 0.35557 0.846 0.18645 0.0
C964 C 0.36271 0.82557 0.22376 0.0
C965 C 0.39702 0.81497 0.21917 0.0
C966 C 0.40957 0.81789 0.19768 0.0
C967 C 0.38904 0.83327 0.18148 0.0
H968 H 0.82196 0.52809 0.72532 0.0
H969 H 0.77544 0.61036 0.68711 0.0
H970 H 0.83201 0.56865 0.75518 0.0
H971 H 0.78512 0.65143 0.71728 0.0
H972 H 0.87383 0.71117 0.75606 0.0
H973 H 0.84085 0.67577 0.73049 0.0
H974 H 0.80922 0.60792 0.78315 0.0
H975 H 0.84239 0.64354 0.80887 0.0
C976 C 0.81308 0.55478 0.72362 0.0
C977 C 0.79839 0.56638 0.70394 0.0
C978 C 0.81854 0.57798 0.74077 0.0
C979 C 0.80959 0.61334 0.73852 0.0
C980 C 0.79257 0.62439 0.71936 0.0
C981 C 0.78685 0.60097 0.70219 0.0
C982 C 0.85908 0.68932 0.76234 0.0
C983 C 0.86132 0.67977 0.78445 0.0
C984 C 0.84 0.66906 0.74765 0.0
C985 C 0.8227 0.63884 0.75477 0.0
C986 C 0.82277 0.63076 0.77715 0.0
C987 C 0.84191 0.65103 0.79184 0.0
H988 H 0.5186 0.16186 0.26027 0.0
H989 H 0.59428 0.22928 0.29113 0.0
H990 H 0.55501 0.15835 0.22796 0.0
H991 H 0.63038 0.22699 0.25822 0.0
H992 H 0.70355 0.1608 0.21314 0.0
H993 H 0.66603 0.1817 0.2422 0.0
H994 H 0.57964 0.18773 0.19693 0.0
H995 H 0.6174 0.1662 0.16776 0.0
C996 C 0.54294 0.17622 0.26004 0.0
C997 C 0.554 0.19521 0.27839 0.0
C998 C 0.56357 0.1747 0.24135 0.0
C999 C 0.59569 0.1923 0.24052 0.0
C1000 C 0.60594 0.21282 0.25847 0.0
C1001 C 0.58522 0.21431 0.27724 0.0
C1002 C 0.67684 0.16747 0.2092 0.0
C1003 C 0.6633 0.16141 0.1882 0.0
C1004 C 0.65528 0.17957 0.2259 0.0
C1005 C 0.61973 0.18603 0.22195 0.0
C1006 C 0.60677 0.18231 0.20058 0.0
C1007 C 0.62833 0.17 0.18389 0.0
H1008 H 0.57917 0.14207 0.70725 0.0
H1009 H 0.67721 0.19762 0.70587 0.0
H1010 H 0.59615 0.11435 0.74131 0.0
H1011 H 0.69389 0.17049 0.74051 0.0
H1012 H 0.72036 0.07436 0.78694 0.0
H1013 H 0.70888 0.11171 0.75532 0.0
H1014 H 0.60488 0.13184 0.77953 0.0
H1015 H 0.61626 0.09409 0.81079 0.0
C1016 C 0.60449 0.14813 0.71412 0.0
C1017 C 0.62688 0.17197 0.70384 0.0
C1018 C 0.61399 0.13271 0.73384 0.0
C1019 C 0.64612 0.14072 0.74376 0.0
C1020 C 0.66893 0.16394 0.73327 0.0
C1021 C 0.65932 0.17954 0.71353 0.0
C1022 C 0.69555 0.08782 0.78581 0.0
C1023 C 0.66906 0.08131 0.80109 0.0
C1024 C 0.6889 0.10903 0.7677 0.0
C1025 C 0.65569 0.12396 0.76472 0.0
C1026 C 0.6304 0.11993 0.78113 0.0
C1027 C 0.63699 0.09868 0.79911 0.0
H1028 H 0.11841 0.33899 0.31479 0.0
H1029 H 0.20553 0.34478 0.27022 0.0
H1030 H 0.08149 0.31706 0.2853 0.0
H1031 H 0.16885 0.32333 0.24087 0.0
H1032 H 0.09838 0.27395 0.19163 0.0
H1033 H 0.13382 0.27723 0.22484 0.0
H1034 H 0.05748 0.3462 0.2538 0.0
H1035 H 0.02178 0.34184 0.22116 0.0
C1036 C 0.12975 0.3352 0.29878 0.0
C1037 C 0.16475 0.34403 0.29479 0.0
C1038 C 0.10866 0.32265 0.28191 0.0
C1039 C 0.12214 0.31885 0.26068 0.0
C1040 C 0.15771 0.32555 0.25706 0.0
C1041 C 0.1788 0.33794 0.27394 0.0
C1042 C 0.08897 0.28922 0.2053 0.0
C1043 C 0.05768 0.30814 0.2037 0.0
C1044 C 0.10931 0.29128 0.22423 0.0
C1045 C 0.09858 0.31214 0.24191 0.0
C1046 C 0.06639 0.3296 0.24062 0.0
C1047 C 0.04617 0.32756 0.22177 0.0
H1048 H 0.33341 0.85912 0.67596 0.0
H1049 H 0.38809 0.80768 0.72845 0.0
H1050 H 0.29962 0.89255 0.70255 0.0
H1051 H 0.35543 0.84153 0.75498 0.0
H1052 H 0.29406 0.9031 0.80134 0.0
H1053 H 0.30326 0.85869 0.77323 0.0
H1054 H 0.3158 0.93998 0.72494 0.0
H1055 H 0.30506 0.98372 0.75269 0.0
C1056 C 0.33791 0.85477 0.6932 0.0
C1057 C 0.36366 0.83123 0.70016 0.0
C1058 C 0.31861 0.87384 0.70843 0.0
C1059 C 0.3251 0.87012 0.73093 0.0
C1060 C 0.34931 0.84483 0.73784 0.0
C1061 C 0.36825 0.82549 0.72261 0.0
C1062 C 0.29761 0.91125 0.78456 0.0
C1063 C 0.29958 0.94678 0.77922 0.0
C1064 C 0.30323 0.8859 0.76849 0.0
C1065 C 0.31094 0.89572 0.74687 0.0
C1066 C 0.30978 0.93127 0.74132 0.0
C1067 C 0.30404 0.95647 0.7573 0.0
H1068 H 1.00449 0.66806 0.22157 0.0
H1069 H 0.92898 0.73624 0.19129 0.0
H1070 H 0.9676 0.6634 0.25375 0.0
H1071 H 0.89198 0.73209 0.22384 0.0
H1072 H 0.82032 0.65751 0.26574 0.0
H1073 H 0.85775 0.68205 0.23783 0.0
H1074 H 0.94067 0.69358 0.28509 0.0
H1075 H 0.90293 0.66916 0.31329 0.0
C1076 C 0.98015 0.68245 0.22199 0.0
C1077 C 0.9692 0.702 0.20387 0.0
C1078 C 0.95923 0.68017 0.24052 0.0
C1079 C 0.92684 0.6973 0.24127 0.0
C1080 C 0.91673 0.71842 0.2236 0.0
C1081 C 0.93787 0.72091 0.20506 0.0
C1082 C 0.84611 0.66616 0.27044 0.0
C1083 C 0.8588 0.66073 0.29172 0.0
C1084 C 0.8676 0.68036 0.25438 0.0
C1085 C 0.90225 0.6894 0.25923 0.0
C1086 C 0.91421 0.68629 0.28083 0.0
C1087 C 0.89266 0.67216 0.29694 0.0
H1088 H 0.66605 0.00929 0.23011 0.0
H1089 H 0.72086 0.92748 0.19574 0.0
H1090 H 0.65402 0.96955 0.25991 0.0
H1091 H 0.71105 0.88824 0.22639 0.0
H1092 H 0.63807 0.81724 0.26578 0.0
H1093 H 0.66203 0.85754 0.23925 0.0
H1094 H 0.67275 0.93578 0.28971 0.0
H1095 H 0.64745 0.89532 0.31617 0.0
C1096 C 0.67601 0.9829 0.22906 0.0
C1097 C 0.69363 0.9713 0.21027 0.0
C1098 C 0.66958 0.9602 0.24637 0.0
C1099 C 0.68109 0.92544 0.24548 0.0
C1100 C 0.70104 0.9146 0.22739 0.0
C1101 C 0.7071 0.93724 0.20993 0.0
C1102 C 0.64602 0.84287 0.27127 0.0
C1103 C 0.64084 0.85321 0.29301 0.0
C1104 C 0.65999 0.86599 0.25607 0.0
C1105 C 0.66951 0.89998 0.26229 0.0
C1106 C 0.66524 0.91 0.28425 0.0
C1107 C 0.65079 0.8869 0.29943 0.0
H1108 H 0.92113 0.3293 0.79887 0.0
H1109 H 0.00733 0.32428 0.75363 0.0
H1110 H 0.88086 0.33881 0.76834 0.0
H1111 H 0.96731 0.33344 0.72319 0.0
H1112 H 0.81609 0.34083 0.70565 0.0
H1113 H 0.85482 0.31623 0.73327 0.0
H1114 H 0.93588 0.38788 0.71369 0.0
H1115 H 0.89726 0.41292 0.68651 0.0
C1116 C 0.93122 0.32916 0.78235 0.0
C1117 C 0.96723 0.32666 0.77853 0.0
C1118 C 0.90827 0.3346 0.7649 0.0
C1119 C 0.92113 0.33751 0.74345 0.0
C1120 C 0.95682 0.33205 0.73959 0.0
C1121 C 0.97965 0.3267 0.75696 0.0
C1122 C 0.84215 0.35139 0.70723 0.0
C1123 C 0.85339 0.37913 0.69391 0.0
C1124 C 0.86433 0.33716 0.723 0.0
C1125 C 0.89832 0.35008 0.7256 0.0
C1126 C 0.90997 0.37696 0.71182 0.0
C1127 C 0.88777 0.39135 0.69619 0.0
H1128 H 0.34751 1.00134 0.22301 0.0
H1129 H 0.30814 0.0878 0.1851 0.0
H1130 H 0.35655 0.03958 0.2539 0.0
H1131 H 0.31474 0.12595 0.21675 0.0
H1132 H 0.38463 0.18963 0.26322 0.0
H1133 H 0.36217 0.15254 0.23433 0.0
H1134 H 0.33538 0.07406 0.2822 0.0
H1135 H 0.35955 0.11103 0.31101 0.0
C1136 C 0.3403 0.02853 0.22138 0.0
C1137 C 0.32805 0.04175 0.20139 0.0
C1138 C 0.34493 0.05044 0.23929 0.0
C1139 C 0.33684 0.08609 0.23783 0.0
C1140 C 0.32207 0.0988 0.21831 0.0
C1141 C 0.31785 0.07687 0.20023 0.0
C1142 C 0.37351 0.16463 0.26756 0.0
C1143 C 0.37397 0.15303 0.28928 0.0
C1144 C 0.36036 0.14339 0.25101 0.0
C1145 C 0.3469 0.11017 0.25584 0.0
C1146 C 0.34614 0.09918 0.27778 0.0
C1147 C 0.35989 0.12027 0.29431 0.0
H1148 H 0.11632 0.70953 0.80036 0.0
H1149 H 0.03376 0.70259 0.75258 0.0
H1150 H 0.15963 0.70046 0.77151 0.0
H1151 H 0.07633 0.6922 0.72407 0.0
H1152 H 0.15465 0.67453 0.67383 0.0
H1153 H 0.12377 0.70855 0.70148 0.0
H1154 H 0.17406 0.64814 0.75215 0.0
H1155 H 0.20539 0.61517 0.72456 0.0
C1156 C 0.10756 0.70691 0.78362 0.0
C1157 C 0.07181 0.706 0.77867 0.0
C1158 C 0.13225 0.70143 0.76714 0.0
C1159 C 0.12146 0.695 0.74552 0.0
C1160 C 0.08574 0.69726 0.74044 0.0
C1161 C 0.06123 0.70279 0.75683 0.0
C1162 C 0.15939 0.66904 0.69091 0.0
C1163 C 0.18189 0.6419 0.69709 0.0
C1164 C 0.14183 0.6885 0.70674 0.0
C1165 C 0.14605 0.68078 0.72905 0.0
C1166 C 0.17045 0.65518 0.73518 0.0
C1167 C 0.18829 0.63605 0.71935 0.0
H1168 H 0.19592 0.57811 0.54046 0.0
H1169 H 0.19299 0.46568 0.53795 0.0
H1170 H 0.20574 0.58013 0.50098 0.0
H1171 H 0.20291 0.46764 0.49852 0.0
H1172 H 0.2513 0.48376 0.43182 0.0
H1173 H 0.25123 0.48824 0.47151 0.0
H1174 H 0.16606 0.56173 0.4683 0.0
H1175 H 0.16507 0.55645 0.4287 0.0
C1176 C 0.19787 0.55387 0.53148 0.0
C1177 C 0.19365 0.5217 0.54214 0.0
C1178 C 0.20329 0.55505 0.50896 0.0
C1179 C 0.20519 0.52406 0.49684 0.0
C1180 C 0.2019 0.49188 0.50759 0.0
C1181 C 0.19591 0.49074 0.53003 0.0
C1182 C 0.23256 0.50093 0.43951 0.0
C1183 C 0.20767 0.51913 0.42702 0.0
C1184 C 0.2327 0.50359 0.46221 0.0
C1185 C 0.2084 0.525 0.47285 0.0
C1186 C 0.18517 0.54513 0.4604 0.0
C1187 C 0.1847 0.54214 0.43769 0.0
H1188 H 0.47445 0.74555 0.44176 0.0
H1189 H 0.52677 0.84467 0.43461 0.0
H1190 H 0.47343 0.75354 0.48129 0.0
H1191 H 0.52611 0.85241 0.47405 0.0
H1192 H 0.55347 0.8342 0.54599 0.0
H1193 H 0.55389 0.82523 0.50655 0.0
H1194 H 0.44616 0.79228 0.50894 0.0
H1195 H 0.44551 0.8016 0.54818 0.0
C1196 C 0.4854 0.76917 0.44858 0.0
C1197 C 0.50091 0.79435 0.43505 0.0
C1198 C 0.48492 0.77369 0.47121 0.0
C1199 C 0.49998 0.80345 0.48073 0.0
C1200 C 0.51494 0.82888 0.46719 0.0
C1201 C 0.51531 0.82443 0.4446 0.0
C1202 C 0.52985 0.8252 0.5381 0.0
C1203 C 0.49953 0.81856 0.5503 0.0
C1204 C 0.53009 0.82006 0.51553 0.0
C1205 C 0.50003 0.80809 0.50471 0.0
C1206 C 0.46985 0.80106 0.5169 0.0
C1207 C 0.46956 0.80632 0.53943 0.0
H1208 H 0.82973 0.45083 0.43474 0.0
H1209 H 0.79994 0.55964 0.4353 0.0
H1210 H 0.82029 0.44822 0.47423 0.0
H1211 H 0.79 0.55667 0.47419 0.0
H1212 H 0.74346 0.53054 0.54015 0.0
H1213 H 0.74987 0.52864 0.50064 0.0
H1214 H 0.84816 0.47464 0.50778 0.0
H1215 H 0.84205 0.47692 0.54739 0.0
C1216 C 0.82106 0.47407 0.44318 0.0
C1217 C 0.81535 0.5053 0.4317 0.0
C1218 C 0.81567 0.47257 0.46575 0.0
C1219 C 0.80424 0.50221 0.47721 0.0
C1220 C 0.79817 0.53323 0.46572 0.0
C1221 C 0.80375 0.53482 0.4433 0.0
C1222 C 0.7666 0.51855 0.53335 0.0
C1223 C 0.79234 0.50409 0.54697 0.0
C1224 C 0.77016 0.51729 0.51071 0.0
C1225 C 0.7995 0.50147 0.50117 0.0
C1226 C 0.82503 0.48654 0.51471 0.0
C1227 C 0.82154 0.48793 0.53738 0.0
H1228 H 0.44533 0.20553 0.4393 0.0
H1229 H 0.55756 0.19657 0.44292 0.0
H1230 H 0.44184 0.20469 0.479 0.0
H1231 H 0.55412 0.19631 0.48286 0.0
H1232 H 0.52853 0.1635 0.55336 0.0
H1233 H 0.53023 0.15868 0.5137 0.0
H1234 H 0.46046 0.24668 0.50833 0.0
H1235 H 0.45937 0.25222 0.54786 0.0
C1236 C 0.46923 0.20294 0.44859 0.0
C1237 C 0.50176 0.201 0.43805 0.0
C1238 C 0.46723 0.2028 0.47131 0.0
C1239 C 0.4977 0.20051 0.48395 0.0
C1240 C 0.53021 0.19784 0.47345 0.0
C1241 C 0.53223 0.19829 0.45068 0.0
C1242 C 0.51371 0.18198 0.54377 0.0
C1243 C 0.49406 0.20849 0.55388 0.0
C1244 C 0.51465 0.17912 0.52106 0.0
C1245 C 0.49561 0.20239 0.50801 0.0
C1246 C 0.47513 0.22817 0.51805 0.0
C1247 C 0.47443 0.23126 0.54073 0.0
H1248 H 0.68418 0.04186 0.94596 0.0
H1249 H 0.69691 0.93021 0.9422 0.0
H1250 H 0.69652 0.0399 0.98517 0.0
H1251 H 0.70895 0.92816 0.98147 0.0
H1252 H 0.66922 0.94796 0.05478 0.0
H1253 H 0.66857 0.94337 0.01515 0.0
H1254 H 0.74883 0.02193 0.01089 0.0
H1255 H 0.75078 0.02568 0.05058 0.0
C1256 C 0.68977 0.01699 0.95356 0.0
C1257 C 0.68958 0.98622 0.94118 0.0
C1258 C 0.69711 0.01587 0.97586 0.0
C1259 C 0.70376 0.98387 0.9862 0.0
C1260 C 0.70391 0.9531 0.9738 0.0
C1261 C 0.69721 0.95432 0.95141 0.0
C1262 C 0.68749 0.96357 0.04555 0.0
C1263 C 0.70956 0.98775 0.05597 0.0
C1264 C 0.687 0.96096 0.02282 0.0
C1265 C 0.7083 0.98267 0.01009 0.0
C1266 C 0.73178 1.00532 0.02042 0.0
C1267 C 0.73269 0.00756 0.04314 0.0
H1268 H 0.08011 0.32371 0.93389 0.0
H1269 H 0.97012 0.34863 0.9319 0.0
H1270 H 0.07627 0.31364 0.9729 0.0
H1271 H 0.96637 0.33879 0.9713 0.0
H1272 H 0.98587 0.35428 0.04527 0.0
H1273 H 0.98822 0.36465 0.00604 0.0
H1274 H 0.04944 0.27095 -0.00219 0.0
H1275 H 0.04683 0.26038 0.037 0.0
C1276 C 0.05496 0.32663 0.94171 0.0
C1277 C 0.02526 0.33654 0.9297 0.0
C1278 C 0.05282 0.32094 0.96412 0.0
C1279 C 0.02099 0.32515 0.97511 0.0
C1280 C 0.99133 0.33559 0.96324 0.0
C1281 C 0.99346 0.34122 0.94072 0.0
C1282 C 0.99952 0.33569 0.03508 0.0
C1283 C 0.01611 0.30643 0.04426 0.0
C1284 C 1.00085 0.34166 0.01262 0.0
C1285 C 0.01896 0.31859 -0.00111 0.0
C1286 C 0.03565 0.28942 0.00805 0.0
C1287 C 0.03424 0.2834 0.0305 0.0
H1288 H 0.32512 0.94409 0.0413 0.0
H1289 H 0.32066 0.05655 0.04348 0.0
H1290 H 0.32139 0.94558 0.0017 0.0
H1291 H 0.31734 0.05807 0.00343 0.0
H1292 H 0.27368 0.0383 0.93327 0.0
H1293 H 0.27481 0.03799 0.97305 0.0
H1294 H 0.36197 0.96667 0.9719 0.0
H1295 H 0.36174 0.96764 0.93224 0.0
C1296 C 0.32288 0.96916 0.03331 0.0
C1297 C 0.32284 1.00027 0.04546 0.0
C1298 C 0.32115 0.96998 0.01062 0.0
C1299 C 0.31916 1.00191 -0.00043 0.0
C1300 C 0.31863 0.0331 0.01164 0.0
C1301 C 0.32075 0.03228 0.03445 0.0
C1302 C 0.29333 0.02278 0.94142 0.0
C1303 C 0.31773 1.0031 0.92942 0.0
C1304 C 0.29389 0.02263 0.96421 0.0
C1305 C 0.31852 1.00241 0.97546 0.0
C1306 C 0.34249 0.98226 0.96357 0.0
C1307 C 0.34219 0.98268 0.94081 0.0
H1308 H 0.06368 0.68813 0.93249 0.0
H1309 H 0.95411 0.71537 0.93162 0.0
H1310 H 0.06383 0.69315 0.97223 0.0
H1311 H 0.95464 0.72101 0.97105 0.0
H1312 H 0.03586 0.66363 0.04309 0.0
H1313 H 0.03618 0.66053 0.0034 0.0
H1314 H 0.98105 0.75862 0.00018 0.0
H1315 H 0.98127 0.76216 0.03994 0.0
C1316 C 0.0397 0.69521 0.94069 0.0
C1317 C 0.00897 0.70144 0.92876 0.0
C1318 C 0.0398 0.6981 0.96343 0.0
C1319 C 0.00923 0.70747 0.97466 0.0
C1320 C 0.97869 0.71423 0.96277 0.0
C1321 C 0.9785 0.71112 0.9401 0.0
C1322 C 0.02409 0.68473 0.03396 0.0
C1323 C 0.00878 0.7133 0.04471 0.0
C1324 C 0.0243 0.68292 0.01123 0.0
C1325 C 0.00892 0.70948 -0.00124 0.0
C1326 C 0.99293 0.73769 0.00944 0.0
C1327 C 0.99291 0.73962 0.03221 0.0
loop_
_geom_bond_atom_site_label_1
_geom_bond_atom_site_label_2
_geom_bond_distance
_geom_bond_site_symmetry_2
_ccdc_geom_bond_type
C0 C1 1.351 . S
C0 N3 1.368 . S
C0 H5 0.931 . S
C1 C0 1.351 . S
C1 N2 1.373 . S
C1 H29 0.930 . S
N2 C1 1.373 . S
N2 C4 1.340 . S
N3 C0 1.368 . S
N3 C4 1.321 . S
N3 Co6 2.135 . S
C4 N2 1.340 . S
C4 N3 1.321 . S
C4 H28 0.930 . S
H5 C0 0.931 . S
Co6 N3 2.135 . S
Co6 N9 2.121 . S
Co6 O14 2.055 . S
Co6 O17 2.039 . S
Co6 N20 2.140 . S
C7 O8 1.227 . S
C7 O17 1.265 . S
O8 C7 1.227 . S
N9 Co6 2.121 . S
N9 C11 1.375 . S
N9 C12 1.313 . S
C10 C11 1.338 . S
C10 N13 1.377 . S
C10 H30 0.930 . S
C11 N9 1.375 . S
C11 C10 1.338 . S
C11 H15 0.931 . S
C12 N9 1.313 . S
C12 N13 1.344 . S
C12 H16 0.930 . S
N13 C10 1.377 . S
N13 C12 1.344 . S
O14 Co6 2.055 . S
O14 C18 1.253 . S
H15 C11 0.931 . S
H16 C12 0.930 . S
O17 Co6 2.039 . S
O17 C7 1.265 . S
C18 O14 1.253 . S
C18 O19 1.227 . S
O19 C18 1.227 . S
N20 Co6 2.140 . S
N20 C23 1.346 . S
N20 C24 1.345 . S
C21 C22 1.387 . S
C21 C25 1.391 . S
C22 C21 1.387 . S
C22 C23 1.369 . S
C22 H31 0.929 . S
C23 N20 1.346 . S
C23 C22 1.369 . S
C23 H26 0.928 . S
C24 N20 1.345 . S
C24 C25 1.371 . S
C24 H27 0.931 . S
C25 C21 1.391 . S
C25 C24 1.371 . S
C25 H32 0.930 . S
H26 C23 0.928 . S
H27 C24 0.931 . S
H28 C4 0.930 . S
H29 C1 0.930 . S
H30 C10 0.930 . S
H31 C22 0.929 . S
H32 C25 0.930 . S
C33 C34 1.351 . S
C33 N36 1.368 . S
C33 H38 0.931 . S
C34 C33 1.351 . S
C34 N35 1.373 . S
C34 H62 0.930 . S
N35 C34 1.373 . S
N35 C37 1.340 . S
N36 C33 1.368 . S
N36 C37 1.321 . S
N36 Co39 2.135 . S
C37 N35 1.340 . S
C37 N36 1.321 . S
C37 H61 0.930 . S
H38 C33 0.931 . S
Co39 N36 2.135 . S
Co39 N42 2.121 . S
Co39 O47 2.055 . S
Co39 O50 2.039 . S
Co39 N53 2.140 . S
C40 O41 1.227 . S
C40 O50 1.265 . S
O41 C40 1.227 . S
N42 Co39 2.121 . S
N42 C44 1.375 . S
N42 C45 1.313 . S
C43 C44 1.338 . S
C43 N46 1.377 . S
C43 H63 0.930 . S
C44 N42 1.375 . S
C44 C43 1.338 . S
C44 H48 0.931 . S
C45 N42 1.313 . S
C45 N46 1.344 . S
C45 H49 0.930 . S
N46 C43 1.377 . S
N46 C45 1.344 . S
O47 Co39 2.055 . S
O47 C51 1.253 . S
H48 C44 0.931 . S
H49 C45 0.930 . S
O50 Co39 2.039 . S
O50 C40 1.265 . S
C51 O47 1.253 . S
C51 O52 1.227 . S
O52 C51 1.227 . S
N53 Co39 2.140 . S
N53 C56 1.346 . S
N53 C57 1.345 . S
C54 C55 1.387 . S
C54 C58 1.391 . S
C55 C54 1.387 . S
C55 C56 1.369 . S
C55 H64 0.929 . S
C56 N53 1.346 . S
C56 C55 1.369 . S
C56 H59 0.928 . S
C57 N53 1.345 . S
C57 C58 1.371 . S
C57 H60 0.931 . S
C58 C54 1.391 . S
C58 C57 1.371 . S
C58 H65 0.930 . S
H59 C56 0.928 . S
H60 C57 0.931 . S
H61 C37 0.930 . S
H62 C34 0.930 . S
H63 C43 0.930 . S
H64 C55 0.929 . S
H65 C58 0.930 . S
C66 C67 1.351 . S
C66 N69 1.368 . S
C66 H71 0.931 . S
C67 C66 1.351 . S
C67 N68 1.373 . S
C67 H95 0.930 . S
N68 C67 1.373 . S
N68 C70 1.340 . S
N69 C66 1.368 . S
N69 C70 1.321 . S
N69 Co72 2.135 . S
C70 N68 1.340 . S
C70 N69 1.321 . S
C70 H94 0.930 . S
H71 C66 0.931 . S
Co72 N69 2.135 . S
Co72 N75 2.121 . S
Co72 O80 2.055 . S
Co72 O83 2.039 . S
Co72 N86 2.140 . S
C73 O74 1.227 . S
C73 O83 1.265 . S
O74 C73 1.227 . S
N75 Co72 2.121 . S
N75 C77 1.375 . S
N75 C78 1.313 . S
C76 C77 1.338 . S
C76 N79 1.377 . S
C76 H96 0.930 . S
C77 N75 1.375 . S
C77 C76 1.338 . S
C77 H81 0.931 . S
C78 N75 1.313 . S
C78 N79 1.344 . S
C78 H82 0.930 . S
N79 C76 1.377 . S
N79 C78 1.344 . S
O80 Co72 2.055 . S
O80 C84 1.253 . S
H81 C77 0.931 . S
H82 C78 0.930 . S
O83 Co72 2.039 . S
O83 C73 1.265 . S
C84 O80 1.253 . S
C84 O85 1.227 . S
O85 C84 1.227 . S
N86 Co72 2.140 . S
N86 C89 1.346 . S
N86 C90 1.345 . S
C87 C88 1.387 . S
C87 C91 1.391 . S
C88 C87 1.387 . S
C88 C89 1.369 . S
C88 H97 0.929 . S
C89 N86 1.346 . S
C89 C88 1.369 . S
C89 H92 0.928 . S
C90 N86 1.345 . S
C90 C91 1.371 . S
C90 H93 0.931 . S
C91 C87 1.391 . S
C91 C90 1.371 . S
C91 H98 0.930 . S
H92 C89 0.928 . S
H93 C90 0.931 . S
H94 C70 0.930 . S
H95 C67 0.930 . S
H96 C76 0.930 . S
H97 C88 0.929 . S
H98 C91 0.930 . S
C99 C100 1.351 . S
C99 N102 1.368 . S
C99 H104 0.931 . S
C100 C99 1.351 . S
C100 N101 1.373 . S
C100 H128 0.930 . S
N101 C100 1.373 . S
N101 C103 1.340 . S
N102 C99 1.368 . S
N102 C103 1.321 . S
N102 Co105 2.135 . S
C103 N101 1.340 . S
C103 N102 1.321 . S
C103 H127 0.930 . S
H104 C99 0.931 . S
Co105 N102 2.135 . S
Co105 N108 2.121 . S
Co105 O113 2.055 . S
Co105 O116 2.039 . S
Co105 N119 2.140 . S
C106 O107 1.227 . S
C106 O116 1.265 . S
O107 C106 1.227 . S
N108 Co105 2.121 . S
N108 C110 1.375 . S
N108 C111 1.313 . S
C109 C110 1.338 . S
C109 N112 1.377 . S
C109 H129 0.930 . S
C110 N108 1.375 . S
C110 C109 1.338 . S
C110 H114 0.931 . S
C111 N108 1.313 . S
C111 N112 1.344 . S
C111 H115 0.930 . S
N112 C109 1.377 . S
N112 C111 1.344 . S
O113 Co105 2.055 . S
O113 C117 1.253 . S
H114 C110 0.931 . S
H115 C111 0.930 . S
O116 Co105 2.039 . S
O116 C106 1.265 . S
C117 O113 1.253 . S
C117 O118 1.227 . S
O118 C117 1.227 . S
N119 Co105 2.140 . S
N119 C122 1.346 . S
N119 C123 1.345 . S
C120 C121 1.387 . S
C120 C124 1.391 . S
C121 C120 1.387 . S
C121 C122 1.369 . S
C121 H130 0.929 . S
C122 N119 1.346 . S
C122 C121 1.369 . S
C122 H125 0.928 . S
C123 N119 1.345 . S
C123 C124 1.371 . S
C123 H126 0.931 . S
C124 C120 1.391 . S
C124 C123 1.371 . S
C124 H131 0.930 . S
H125 C122 0.928 . S
H126 C123 0.931 . S
H127 C103 0.930 . S
H128 C100 0.930 . S
H129 C109 0.930 . S
H130 C121 0.929 . S
H131 C124 0.930 . S
C132 C133 1.351 . S
C132 N135 1.368 . S
C132 H137 0.931 . S
C133 C132 1.351 . S
C133 N134 1.373 . S
C133 H161 0.930 . S
N134 C133 1.373 . S
N134 C136 1.340 . S
N135 C132 1.368 . S
N135 C136 1.321 . S
N135 Co138 2.135 . S
C136 N134 1.340 . S
C136 N135 1.321 . S
C136 H160 0.930 . S
H137 C132 0.931 . S
Co138 N135 2.135 . S
Co138 N141 2.121 . S
Co138 O146 2.055 . S
Co138 O149 2.039 . S
Co138 N152 2.140 . S
C139 O140 1.227 . S
C139 O149 1.265 . S
O140 C139 1.227 . S
N141 Co138 2.121 . S
N141 C143 1.375 . S
N141 C144 1.313 . S
C142 C143 1.338 . S
C142 N145 1.377 . S
C142 H162 0.930 . S
C143 N141 1.375 . S
C143 C142 1.338 . S
C143 H147 0.931 . S
C144 N141 1.313 . S
C144 N145 1.344 . S
C144 H148 0.930 . S
N145 C142 1.377 . S
N145 C144 1.344 . S
O146 Co138 2.055 . S
O146 C150 1.253 . S
H147 C143 0.931 . S
H148 C144 0.930 . S
O149 Co138 2.039 . S
O149 C139 1.265 . S
C150 O146 1.253 . S
C150 O151 1.227 . S
O151 C150 1.227 . S
N152 Co138 2.140 . S
N152 C155 1.346 . S
N152 C156 1.345 . S
C153 C154 1.387 . S
C153 C157 1.391 . S
C154 C153 1.387 . S
C154 C155 1.369 . S
C154 H163 0.929 . S
C155 N152 1.346 . S
C155 C154 1.369 . S
C155 H158 0.928 . S
C156 N152 1.345 . S
C156 C157 1.371 . S
C156 H159 0.931 . S
C157 C153 1.391 . S
C157 C156 1.371 . S
C157 H164 0.930 . S
H158 C155 0.928 . S
H159 C156 0.931 . S
H160 C136 0.930 . S
H161 C133 0.930 . S
H162 C142 0.930 . S
H163 C154 0.929 . S
H164 C157 0.930 . S
C165 C166 1.351 . S
C165 N168 1.368 . S
C165 H170 0.931 . S
C166 C165 1.351 . S
C166 N167 1.373 . S
C166 H194 0.930 . S
N167 C166 1.373 . S
N167 C169 1.340 . S
N168 C165 1.368 . S
N168 C169 1.321 . S
N168 Co171 2.135 . S
C169 N167 1.340 . S
C169 N168 1.321 . S
C169 H193 0.930 . S
H170 C165 0.931 . S
Co171 N168 2.135 . S
Co171 N174 2.121 . S
Co171 O179 2.055 . S
Co171 O182 2.039 . S
Co171 N185 2.140 . S
C172 O173 1.227 . S
C172 O182 1.265 . S
O173 C172 1.227 . S
N174 Co171 2.121 . S
N174 C176 1.375 . S
N174 C177 1.313 . S
C175 C176 1.338 . S
C175 N178 1.377 . S
C175 H195 0.930 . S
C176 N174 1.375 . S
C176 C175 1.338 . S
C176 H180 0.931 . S
C177 N174 1.313 . S
C177 N178 1.344 . S
C177 H181 0.930 . S
N178 C175 1.377 . S
N178 C177 1.344 . S
O179 Co171 2.055 . S
O179 C183 1.253 . S
H180 C176 0.931 . S
H181 C177 0.930 . S
O182 Co171 2.039 . S
O182 C172 1.265 . S
C183 O179 1.253 . S
C183 O184 1.227 . S
O184 C183 1.227 . S
N185 Co171 2.140 . S
N185 C188 1.346 . S
N185 C189 1.345 . S
C186 C187 1.387 . S
C186 C190 1.391 . S
C187 C186 1.387 . S
C187 C188 1.369 . S
C187 H196 0.929 . S
C188 N185 1.346 . S
C188 C187 1.369 . S
C188 H191 0.928 . S
C189 N185 1.345 . S
C189 C190 1.371 . S
C189 H192 0.931 . S
C190 C186 1.391 . S
C190 C189 1.371 . S
C190 H197 0.930 . S
H191 C188 0.928 . S
H192 C189 0.931 . S
H193 C169 0.930 . S
H194 C166 0.930 . S
H195 C175 0.930 . S
H196 C187 0.929 . S
H197 C190 0.930 . S
C198 C199 1.351 . S
C198 N201 1.368 . S
C198 H203 0.931 . S
C199 C198 1.351 . S
C199 N200 1.373 . S
C199 H227 0.930 . S
N200 C199 1.373 . S
N200 C202 1.340 . S
N201 C198 1.368 . S
N201 C202 1.321 . S
N201 Co204 2.135 . S
C202 N200 1.340 . S
C202 N201 1.321 . S
C202 H226 0.930 . S
H203 C198 0.931 . S
Co204 N201 2.135 . S
Co204 N207 2.121 . S
Co204 O212 2.055 . S
Co204 O215 2.039 . S
Co204 N218 2.140 . S
C205 O206 1.227 . S
C205 O215 1.265 . S
O206 C205 1.227 . S
N207 Co204 2.121 . S
N207 C209 1.375 . S
N207 C210 1.313 . S
C208 C209 1.338 . S
C208 N211 1.377 . S
C208 H228 0.930 . S
C209 N207 1.375 . S
C209 C208 1.338 . S
C209 H213 0.931 . S
C210 N207 1.313 . S
C210 N211 1.344 . S
C210 H214 0.930 . S
N211 C208 1.377 . S
N211 C210 1.344 . S
O212 Co204 2.055 . S
O212 C216 1.253 . S
H213 C209 0.931 . S
H214 C210 0.930 . S
O215 Co204 2.039 . S
O215 C205 1.265 . S
C216 O212 1.253 . S
C216 O217 1.227 . S
O217 C216 1.227 . S
N218 Co204 2.140 . S
N218 C221 1.346 . S
N218 C222 1.345 . S
C219 C220 1.387 . S
C219 C223 1.391 . S
C220 C219 1.387 . S
C220 C221 1.369 . S
C220 H229 0.929 . S
C221 N218 1.346 . S
C221 C220 1.369 . S
C221 H224 0.928 . S
C222 N218 1.345 . S
C222 C223 1.371 . S
C222 H225 0.931 . S
C223 C219 1.391 . S
C223 C222 1.371 . S
C223 H230 0.930 . S
H224 C221 0.928 . S
H225 C222 0.931 . S
H226 C202 0.930 . S
H227 C199 0.930 . S
H228 C208 0.930 . S
H229 C220 0.929 . S
H230 C223 0.930 . S
C231 C232 1.351 . S
C231 N234 1.368 . S
C231 H236 0.931 . S
C232 C231 1.351 . S
C232 N233 1.373 . S
C232 H260 0.930 . S
N233 C232 1.373 . S
N233 C235 1.340 . S
N234 C231 1.368 . S
N234 C235 1.321 . S
N234 Co237 2.135 . S
C235 N233 1.340 . S
C235 N234 1.321 . S
C235 H259 0.930 . S
H236 C231 0.931 . S
Co237 N234 2.135 . S
Co237 N240 2.121 . S
Co237 O245 2.055 . S
Co237 O248 2.039 . S
Co237 N251 2.140 . S
C238 O239 1.227 . S
C238 O248 1.265 . S
O239 C238 1.227 . S
N240 Co237 2.121 . S
N240 C242 1.375 . S
N240 C243 1.313 . S
C241 C242 1.338 . S
C241 N244 1.377 . S
C241 H261 0.930 . S
C242 N240 1.375 . S
C242 C241 1.338 . S
C242 H246 0.931 . S
C243 N240 1.313 . S
C243 N244 1.344 . S
C243 H247 0.930 . S
N244 C241 1.377 . S
N244 C243 1.344 . S
O245 Co237 2.055 . S
O245 C249 1.253 . S
H246 C242 0.931 . S
H247 C243 0.930 . S
O248 Co237 2.039 . S
O248 C238 1.265 . S
C249 O245 1.253 . S
C249 O250 1.227 . S
O250 C249 1.227 . S
N251 Co237 2.140 . S
N251 C254 1.346 . S
N251 C255 1.345 . S
C252 C253 1.387 . S
C252 C256 1.391 . S
C253 C252 1.387 . S
C253 C254 1.369 . S
C253 H262 0.929 . S
C254 N251 1.346 . S
C254 C253 1.369 . S
C254 H257 0.928 . S
C255 N251 1.345 . S
C255 C256 1.371 . S
C255 H258 0.931 . S
C256 C252 1.391 . S
C256 C255 1.371 . S
C256 H263 0.930 . S
H257 C254 0.928 . S
H258 C255 0.931 . S
H259 C235 0.930 . S
H260 C232 0.930 . S
H261 C241 0.930 . S
H262 C253 0.929 . S
H263 C256 0.930 . S
C264 C265 1.351 . S
C264 N267 1.368 . S
C264 H269 0.931 . S
C265 C264 1.351 . S
C265 N266 1.373 . S
C265 H293 0.930 . S
N266 C265 1.373 . S
N266 C268 1.340 . S
N267 C264 1.368 . S
N267 C268 1.321 . S
N267 Co270 2.135 . S
C268 N266 1.340 . S
C268 N267 1.321 . S
C268 H292 0.930 . S
H269 C264 0.931 . S
Co270 N267 2.135 . S
Co270 N273 2.121 . S
Co270 O278 2.055 . S
Co270 O281 2.039 . S
Co270 N284 2.140 . S
C271 O272 1.227 . S
C271 O281 1.265 . S
O272 C271 1.227 . S
N273 Co270 2.121 . S
N273 C275 1.375 1_565 S
N273 C276 1.313 . S
C274 C275 1.338 . S
C274 N277 1.378 . S
C274 H294 0.930 . S
C275 N273 1.375 1_545 S
C275 C274 1.338 . S
C275 H279 0.931 . S
C276 N273 1.313 . S
C276 N277 1.343 1_565 S
C276 H280 0.930 . S
N277 C274 1.378 . S
N277 C276 1.343 1_545 S
O278 Co270 2.055 . S
O278 C282 1.253 . S
H279 C275 0.931 . S
H280 C276 0.930 . S
O281 Co270 2.039 . S
O281 C271 1.265 . S
C282 O278 1.253 . S
C282 O283 1.227 . S
O283 C282 1.227 . S
N284 Co270 2.140 . S
N284 C287 1.346 1_565 S
N284 C288 1.345 1_565 S
C285 C286 1.387 . S
C285 C289 1.391 . S
C286 C285 1.387 . S
C286 C287 1.369 . S
C286 H295 0.929 . S
C287 N284 1.346 1_545 S
C287 C286 1.369 . S
C287 H290 0.928 1_545 S
C288 N284 1.345 1_545 S
C288 C289 1.371 . S
C288 H291 0.931 . S
C289 C285 1.391 . S
C289 C288 1.371 . S
C289 H296 0.930 . S
H290 C287 0.928 1_565 S
H291 C288 0.931 . S
H292 C268 0.930 . S
H293 C265 0.930 . S
H294 C274 0.930 . S
H295 C286 0.929 . S
H296 C289 0.930 . S
C297 C298 1.351 . S
C297 N300 1.368 . S
C297 H302 0.931 . S
C298 C297 1.351 . S
C298 N299 1.373 . S
C298 H326 0.930 . S
N299 C298 1.373 . S
N299 C301 1.340 . S
N300 C297 1.368 . S
N300 C301 1.321 . S
N300 Co303 2.135 . S
C301 N299 1.340 . S
C301 N300 1.321 . S
C301 H325 0.930 . S
H302 C297 0.931 . S
Co303 N300 2.135 . S
Co303 N306 2.121 . S
Co303 O311 2.055 . S
Co303 O314 2.039 . S
Co303 N317 2.140 . S
C304 O305 1.227 . S
C304 O314 1.265 . S
O305 C304 1.227 . S
N306 Co303 2.121 . S
N306 C308 1.375 1_655 S
N306 C309 1.313 . S
C307 C308 1.338 . S
C307 N310 1.378 . S
C307 H327 0.930 . S
C308 N306 1.375 1_455 S
C308 C307 1.338 . S
C308 H312 0.931 . S
C309 N306 1.313 . S
C309 N310 1.343 1_655 S
C309 H313 0.930 . S
N310 C307 1.378 . S
N310 C309 1.343 1_455 S
O311 Co303 2.055 . S
O311 C315 1.253 . S
H312 C308 0.931 . S
H313 C309 0.930 . S
O314 Co303 2.039 . S
O314 C304 1.265 . S
C315 O311 1.253 . S
C315 O316 1.227 . S
O316 C315 1.227 . S
N317 Co303 2.140 . S
N317 C320 1.346 1_655 S
N317 C321 1.345 1_655 S
C318 C319 1.387 . S
C318 C322 1.391 . S
C319 C318 1.387 . S
C319 C320 1.369 . S
C319 H328 0.929 . S
C320 N317 1.346 1_455 S
C320 C319 1.369 . S
C320 H323 0.928 1_455 S
C321 N317 1.345 1_455 S
C321 C322 1.371 . S
C321 H324 0.931 . S
C322 C318 1.391 . S
C322 C321 1.371 . S
C322 H329 0.930 . S
H323 C320 0.928 1_655 S
H324 C321 0.931 . S
H325 C301 0.930 . S
H326 C298 0.930 . S
H327 C307 0.930 . S
H328 C319 0.929 . S
H329 C322 0.930 . S
C330 C331 1.351 . S
C330 N333 1.368 . S
C330 H335 0.931 . S
C331 C330 1.351 . S
C331 N332 1.373 . S
C331 H359 0.930 . S
N332 C331 1.373 . S
N332 C334 1.340 . S
N333 C330 1.368 . S
N333 C334 1.321 . S
N333 Co336 2.135 . S
C334 N332 1.340 . S
C334 N333 1.321 . S
C334 H358 0.930 . S
H335 C330 0.931 . S
Co336 N333 2.135 . S
Co336 N339 2.121 . S
Co336 O344 2.055 . S
Co336 O347 2.039 . S
Co336 N350 2.140 . S
C337 O338 1.227 . S
C337 O347 1.265 . S
O338 C337 1.227 . S
N339 Co336 2.121 . S
N339 C341 1.375 1_545 S
N339 C342 1.313 . S
C340 C341 1.338 . S
C340 N343 1.378 . S
C340 H360 0.930 . S
C341 N339 1.375 1_565 S
C341 C340 1.338 . S
C341 H345 0.931 . S
C342 N339 1.313 . S
C342 N343 1.343 1_545 S
C342 H346 0.930 . S
N343 C340 1.378 . S
N343 C342 1.343 1_565 S
O344 Co336 2.055 . S
O344 C348 1.253 . S
H345 C341 0.931 . S
H346 C342 0.930 . S
O347 Co336 2.039 . S
O347 C337 1.265 . S
C348 O344 1.253 . S
C348 O349 1.227 . S
O349 C348 1.227 . S
N350 Co336 2.140 . S
N350 C353 1.346 1_545 S
N350 C354 1.345 1_545 S
C351 C352 1.387 . S
C351 C355 1.391 . S
C352 C351 1.387 . S
C352 C353 1.369 . S
C352 H361 0.929 . S
C353 N350 1.346 1_565 S
C353 C352 1.369 . S
C353 H356 0.928 1_565 S
C354 N350 1.345 1_565 S
C354 C355 1.371 . S
C354 H357 0.931 . S
C355 C351 1.391 . S
C355 C354 1.371 . S
C355 H362 0.930 . S
H356 C353 0.928 1_545 S
H357 C354 0.931 . S
H358 C334 0.930 . S
H359 C331 0.930 . S
H360 C340 0.930 . S
H361 C352 0.929 . S
H362 C355 0.930 . S
C363 C364 1.351 . S
C363 N366 1.368 . S
C363 H368 0.931 . S
C364 C363 1.351 . S
C364 N365 1.373 . S
C364 H392 0.930 . S
N365 C364 1.373 . S
N365 C367 1.340 . S
N366 C363 1.368 . S
N366 C367 1.321 . S
N366 Co369 2.135 . S
C367 N365 1.340 . S
C367 N366 1.321 . S
C367 H391 0.930 . S
H368 C363 0.931 . S
Co369 N366 2.135 . S
Co369 N372 2.121 . S
Co369 O377 2.055 . S
Co369 O380 2.039 . S
Co369 N383 2.140 . S
C370 O371 1.227 . S
C370 O380 1.265 . S
O371 C370 1.227 . S
N372 Co369 2.121 . S
N372 C374 1.375 1_455 S
N372 C375 1.313 . S
C373 C374 1.338 . S
C373 N376 1.378 . S
C373 H393 0.930 . S
C374 N372 1.375 1_655 S
C374 C373 1.338 . S
C374 H378 0.931 . S
C375 N372 1.313 . S
C375 N376 1.343 1_455 S
C375 H379 0.930 . S
N376 C373 1.378 . S
N376 C375 1.343 1_655 S
O377 Co369 2.055 . S
O377 C381 1.253 . S
H378 C374 0.931 . S
H379 C375 0.930 . S
O380 Co369 2.039 . S
O380 C370 1.265 . S
C381 O377 1.253 . S
C381 O382 1.227 . S
O382 C381 1.227 . S
N383 Co369 2.140 . S
N383 C386 1.346 1_455 S
N383 C387 1.345 1_455 S
C384 C385 1.387 . S
C384 C388 1.391 . S
C385 C384 1.387 . S
C385 C386 1.369 . S
C385 H394 0.929 . S
C386 N383 1.346 1_655 S
C386 C385 1.369 . S
C386 H389 0.928 1_655 S
C387 N383 1.345 1_655 S
C387 C388 1.371 . S
C387 H390 0.931 . S
C388 C384 1.391 . S
C388 C387 1.371 . S
C388 H395 0.930 . S
H389 C386 0.928 1_455 S
H390 C387 0.931 . S
H391 C367 0.930 . S
H392 C364 0.930 . S
H393 C373 0.930 . S
H394 C385 0.929 . S
H395 C388 0.930 . S
C396 C397 1.351 . S
C396 N399 1.368 . S
C396 H401 0.931 . S
C397 C396 1.351 . S
C397 N398 1.373 . S
C397 H425 0.930 . S
N398 C397 1.373 . S
N398 C400 1.340 . S
N399 C396 1.368 . S
N399 C400 1.321 . S
N399 Co402 2.135 . S
C400 N398 1.340 . S
C400 N399 1.321 . S
C400 H424 0.930 . S
H401 C396 0.931 . S
Co402 N399 2.135 . S
Co402 N405 2.121 . S
Co402 O410 2.055 . S
Co402 O413 2.039 . S
Co402 N416 2.140 . S
C403 O404 1.227 . S
C403 O413 1.265 . S
O404 C403 1.227 . S
N405 Co402 2.121 . S
N405 C407 1.375 1_545 S
N405 C408 1.313 . S
C406 C407 1.338 . S
C406 N409 1.378 . S
C406 H426 0.930 . S
C407 N405 1.375 1_565 S
C407 C406 1.338 . S
C407 H411 0.931 . S
C408 N405 1.313 . S
C408 N409 1.343 1_545 S
C408 H412 0.930 . S
N409 C406 1.378 . S
N409 C408 1.343 1_565 S
O410 Co402 2.055 . S
O410 C414 1.253 . S
H411 C407 0.931 . S
H412 C408 0.930 . S
O413 Co402 2.039 . S
O413 C403 1.265 . S
C414 O410 1.253 . S
C414 O415 1.227 . S
O415 C414 1.227 . S
N416 Co402 2.140 . S
N416 C419 1.346 1_545 S
N416 C420 1.345 1_545 S
C417 C418 1.387 . S
C417 C421 1.391 . S
C418 C417 1.387 . S
C418 C419 1.369 . S
C418 H427 0.929 . S
C419 N416 1.346 1_565 S
C419 C418 1.369 . S
C419 H422 0.928 1_565 S
C420 N416 1.345 1_565 S
C420 C421 1.371 . S
C420 H423 0.931 . S
C421 C417 1.391 . S
C421 C420 1.371 . S
C421 H428 0.930 . S
H422 C419 0.928 1_545 S
H423 C420 0.931 . S
H424 C400 0.930 . S
H425 C397 0.930 . S
H426 C406 0.930 . S
H427 C418 0.929 . S
H428 C421 0.930 . S
C429 C430 1.351 . S
C429 N432 1.368 . S
C429 H434 0.931 . S
C430 C429 1.351 . S
C430 N431 1.373 . S
C430 H458 0.930 . S
N431 C430 1.373 . S
N431 C433 1.340 . S
N432 C429 1.368 . S
N432 C433 1.321 . S
N432 Co435 2.135 . S
C433 N431 1.340 . S
C433 N432 1.321 . S
C433 H457 0.930 . S
H434 C429 0.931 . S
Co435 N432 2.135 . S
Co435 N438 2.121 . S
Co435 O443 2.055 . S
Co435 O446 2.039 . S
Co435 N449 2.140 . S
C436 O437 1.227 . S
C436 O446 1.265 . S
O437 C436 1.227 . S
N438 Co435 2.121 . S
N438 C440 1.375 1_455 S
N438 C441 1.313 . S
C439 C440 1.338 . S
C439 N442 1.378 . S
C439 H459 0.930 . S
C440 N438 1.375 1_655 S
C440 C439 1.338 . S
C440 H444 0.931 . S
C441 N438 1.313 . S
C441 N442 1.343 1_455 S
C441 H445 0.930 . S
N442 C439 1.378 . S
N442 C441 1.343 1_655 S
O443 Co435 2.055 . S
O443 C447 1.253 . S
H444 C440 0.931 . S
H445 C441 0.930 . S
O446 Co435 2.039 . S
O446 C436 1.265 . S
C447 O443 1.253 . S
C447 O448 1.227 . S
O448 C447 1.227 . S
N449 Co435 2.140 . S
N449 C452 1.346 1_455 S
N449 C453 1.345 1_455 S
C450 C451 1.387 . S
C450 C454 1.391 . S
C451 C450 1.387 . S
C451 C452 1.369 . S
C451 H460 0.929 . S
C452 N449 1.346 1_655 S
C452 C451 1.369 . S
C452 H455 0.928 1_655 S
C453 N449 1.345 1_655 S
C453 C454 1.371 . S
C453 H456 0.931 . S
C454 C450 1.391 . S
C454 C453 1.371 . S
C454 H461 0.930 . S
H455 C452 0.928 1_455 S
H456 C453 0.931 . S
H457 C433 0.930 . S
H458 C430 0.930 . S
H459 C439 0.930 . S
H460 C451 0.929 . S
H461 C454 0.930 . S
C462 C463 1.351 . S
C462 N465 1.368 . S
C462 H467 0.931 . S
C463 C462 1.351 . S
C463 N464 1.373 . S
C463 H491 0.930 . S
N464 C463 1.373 . S
N464 C466 1.340 . S
N465 C462 1.368 . S
N465 C466 1.321 . S
N465 Co468 2.135 . S
C466 N464 1.340 . S
C466 N465 1.321 . S
C466 H490 0.930 . S
H467 C462 0.931 . S
Co468 N465 2.135 . S
Co468 N471 2.121 . S
Co468 O476 2.055 . S
Co468 O479 2.039 . S
Co468 N482 2.140 . S
C469 O470 1.227 . S
C469 O479 1.265 . S
O470 C469 1.227 . S
N471 Co468 2.121 . S
N471 C473 1.375 1_565 S
N471 C474 1.313 . S
C472 C473 1.338 . S
C472 N475 1.378 . S
C472 H492 0.930 . S
C473 N471 1.375 1_545 S
C473 C472 1.338 . S
C473 H477 0.931 . S
C474 N471 1.313 . S
C474 N475 1.343 1_565 S
C474 H478 0.930 . S
N475 C472 1.378 . S
N475 C474 1.343 1_545 S
O476 Co468 2.055 . S
O476 C480 1.253 . S
H477 C473 0.931 . S
H478 C474 0.930 . S
O479 Co468 2.039 . S
O479 C469 1.265 . S
C480 O476 1.253 . S
C480 O481 1.227 . S
O481 C480 1.227 . S
N482 Co468 2.140 . S
N482 C485 1.346 1_565 S
N482 C486 1.345 1_565 S
C483 C484 1.387 . S
C483 C487 1.391 . S
C484 C483 1.387 . S
C484 C485 1.369 . S
C484 H493 0.929 . S
C485 N482 1.346 1_545 S
C485 C484 1.369 . S
C485 H488 0.928 1_545 S
C486 N482 1.345 1_545 S
C486 C487 1.371 . S
C486 H489 0.931 . S
C487 C483 1.391 . S
C487 C486 1.371 . S
C487 H494 0.930 . S
H488 C485 0.928 1_565 S
H489 C486 0.931 . S
H490 C466 0.930 . S
H491 C463 0.930 . S
H492 C472 0.930 . S
H493 C484 0.929 . S
H494 C487 0.930 . S
C495 C496 1.351 . S
C495 N498 1.368 . S
C495 H500 0.931 . S
C496 C495 1.351 . S
C496 N497 1.373 . S
C496 H524 0.930 . S
N497 C496 1.373 . S
N497 C499 1.340 . S
N498 C495 1.368 . S
N498 C499 1.321 . S
N498 Co501 2.135 . S
C499 N497 1.340 . S
C499 N498 1.321 . S
C499 H523 0.930 . S
H500 C495 0.931 . S
Co501 N498 2.135 . S
Co501 N504 2.121 . S
Co501 O509 2.055 . S
Co501 O512 2.039 . S
Co501 N515 2.140 . S
C502 O503 1.227 . S
C502 O512 1.265 . S
O503 C502 1.227 . S
N504 Co501 2.121 . S
N504 C506 1.375 1_655 S
N504 C507 1.313 . S
C505 C506 1.338 . S
C505 N508 1.378 . S
C505 H525 0.930 . S
C506 N504 1.375 1_455 S
C506 C505 1.338 . S
C506 H510 0.931 . S
C507 N504 1.313 . S
C507 N508 1.343 1_655 S
C507 H511 0.930 . S
N508 C505 1.378 . S
N508 C507 1.343 1_455 S
O509 Co501 2.055 . S
O509 C513 1.253 . S
H510 C506 0.931 . S
H511 C507 0.930 . S
O512 Co501 2.039 . S
O512 C502 1.265 . S
C513 O509 1.253 . S
C513 O514 1.227 . S
O514 C513 1.227 . S
N515 Co501 2.140 . S
N515 C518 1.346 1_655 S
N515 C519 1.345 1_655 S
C516 C517 1.387 . S
C516 C520 1.391 . S
C517 C516 1.387 . S
C517 C518 1.369 . S
C517 H526 0.929 . S
C518 N515 1.346 1_455 S
C518 C517 1.369 . S
C518 H521 0.928 1_455 S
C519 N515 1.345 1_455 S
C519 C520 1.371 . S
C519 H522 0.931 . S
C520 C516 1.391 . S
C520 C519 1.371 . S
C520 H527 0.930 . S
H521 C518 0.928 1_655 S
H522 C519 0.931 . S
H523 C499 0.930 . S
H524 C496 0.930 . S
H525 C505 0.930 . S
H526 C517 0.929 . S
H527 C520 0.930 . S
H528 C536 0.950 . S
H529 C541 0.950 . S
H530 C538 0.950 . S
H531 C540 0.950 . S
H532 C542 0.950 . S
H533 C544 0.950 . S
H534 C546 0.950 . S
H535 C547 0.950 . S
C536 H528 0.950 . S
C536 C537 1.386 . S
C536 C538 1.391 . S
C537 C536 1.386 . S
C537 C541 1.393 . S
C538 H530 0.950 . S
C538 C536 1.391 . S
C538 C539 1.400 . S
C539 C538 1.400 . S
C539 C540 1.398 . S
C539 C545 1.491 1_655 S
C540 H531 0.950 . S
C540 C539 1.398 . S
C540 C541 1.391 . S
C541 H529 0.950 . S
C541 C537 1.393 . S
C541 C540 1.391 . S
C542 H532 0.950 . S
C542 C543 1.386 . S
C542 C544 1.391 . S
C543 C542 1.386 . S
C543 C547 1.393 . S
C544 H533 0.950 . S
C544 C542 1.391 . S
C544 C545 1.400 . S
C545 C539 1.491 1_455 S
C545 C544 1.400 . S
C545 C546 1.398 . S
C546 H534 0.950 . S
C546 C545 1.398 . S
C546 C547 1.391 . S
C547 H535 0.950 . S
C547 C543 1.393 . S
C547 C546 1.391 . S
H548 C556 0.950 . S
H549 C561 0.950 . S
H550 C558 0.950 . S
H551 C560 0.950 . S
H552 C562 0.950 . S
H553 C564 0.950 . S
H554 C566 0.950 . S
H555 C567 0.950 . S
C556 H548 0.950 . S
C556 C557 1.386 . S
C556 C558 1.391 . S
C557 C556 1.386 . S
C557 C561 1.393 . S
C558 H550 0.950 . S
C558 C556 1.391 . S
C558 C559 1.400 . S
C559 C558 1.400 . S
C559 C560 1.398 . S
C559 C565 1.491 1_545 S
C560 H551 0.950 . S
C560 C559 1.398 . S
C560 C561 1.391 . S
C561 H549 0.950 . S
C561 C557 1.393 . S
C561 C560 1.391 . S
C562 H552 0.950 . S
C562 C563 1.386 . S
C562 C564 1.391 . S
C563 C562 1.386 . S
C563 C567 1.393 . S
C564 H553 0.950 . S
C564 C562 1.391 . S
C564 C565 1.400 . S
C565 C559 1.491 1_565 S
C565 C564 1.400 . S
C565 C566 1.398 . S
C566 H554 0.950 . S
C566 C565 1.398 . S
C566 C567 1.391 . S
C567 H555 0.950 . S
C567 C563 1.393 . S
C567 C566 1.391 . S
H568 C576 0.950 . S
H569 C581 0.950 . S
H570 C578 0.950 . S
H571 C580 0.950 . S
H572 C582 0.950 . S
H573 C584 0.950 . S
H574 C586 0.950 . S
H575 C587 0.950 . S
C576 H568 0.950 . S
C576 C577 1.386 . S
C576 C578 1.391 . S
C577 C576 1.386 . S
C577 C581 1.393 . S
C578 H570 0.950 . S
C578 C576 1.391 . S
C578 C579 1.400 . S
C579 C578 1.400 . S
C579 C580 1.398 . S
C579 C585 1.491 1_655 S
C580 H571 0.950 . S
C580 C579 1.398 . S
C580 C581 1.391 . S
C581 H569 0.950 . S
C581 C577 1.393 . S
C581 C580 1.391 . S
C582 H572 0.950 . S
C582 C583 1.386 . S
C582 C584 1.391 . S
C583 C582 1.386 . S
C583 C587 1.393 . S
C584 H573 0.950 . S
C584 C582 1.391 . S
C584 C585 1.400 . S
C585 C579 1.491 1_455 S
C585 C584 1.400 . S
C585 C586 1.398 . S
C586 H574 0.950 . S
C586 C585 1.398 . S
C586 C587 1.391 . S
C587 H575 0.950 . S
C587 C583 1.393 . S
C587 C586 1.391 . S
H588 C596 0.950 . S
H589 C601 0.950 . S
H590 C598 0.950 . S
H591 C600 0.950 . S
H592 C602 0.950 . S
H593 C604 0.950 . S
H594 C606 0.950 . S
H595 C607 0.950 . S
C596 H588 0.950 . S
C596 C597 1.386 . S
C596 C598 1.391 . S
C597 C596 1.386 . S
C597 C601 1.393 . S
C598 H590 0.950 . S
C598 C596 1.391 . S
C598 C599 1.400 . S
C599 C598 1.400 . S
C599 C600 1.398 . S
C599 C605 1.491 1_565 S
C600 H591 0.950 . S
C600 C599 1.398 . S
C600 C601 1.391 . S
C601 H589 0.950 . S
C601 C597 1.393 . S
C601 C600 1.391 . S
C602 H592 0.950 . S
C602 C603 1.386 . S
C602 C604 1.391 . S
C603 C602 1.386 . S
C603 C607 1.393 . S
C604 H593 0.950 . S
C604 C602 1.391 . S
C604 C605 1.400 . S
C605 C599 1.491 1_545 S
C605 C604 1.400 . S
C605 C606 1.398 . S
C606 H594 0.950 . S
C606 C605 1.398 . S
C606 C607 1.391 . S
C607 H595 0.950 . S
C607 C603 1.393 . S
C607 C606 1.391 . S
H608 C616 0.950 1_545 S
H609 C621 0.950 . S
H610 C618 0.950 . S
H611 C620 0.950 . S
H612 C622 0.950 1_565 S
H613 C624 0.950 . S
H614 C626 0.950 . S
H615 C627 0.950 . S
C616 H608 0.950 1_565 S
C616 C617 1.386 . S
C616 C618 1.391 1_565 S
C617 C616 1.386 . S
C617 C621 1.393 . S
C618 H610 0.950 . S
C618 C616 1.391 1_545 S
C618 C619 1.400 1_545 S
C619 C618 1.400 1_565 S
C619 C620 1.398 . S
C619 C625 1.491 1_565 S
C620 H611 0.950 . S
C620 C619 1.398 . S
C620 C621 1.391 . S
C621 H609 0.950 . S
C621 C617 1.393 . S
C621 C620 1.391 . S
C622 H612 0.950 1_545 S
C622 C623 1.386 . S
C622 C624 1.391 1_545 S
C623 C622 1.386 . S
C623 C627 1.393 . S
C624 H613 0.950 . S
C624 C622 1.391 1_565 S
C624 C625 1.400 1_565 S
C625 C619 1.491 1_545 S
C625 C624 1.400 1_545 S
C625 C626 1.398 . S
C626 H614 0.950 . S
C626 C625 1.398 . S
C626 C627 1.391 . S
C627 H615 0.950 . S
C627 C623 1.393 . S
C627 C626 1.391 . S
H628 C636 0.950 . S
H629 C641 0.950 . S
H630 C638 0.950 . S
H631 C640 0.950 . S
H632 C642 0.950 . S
H633 C644 0.950 . S
H634 C646 0.950 . S
H635 C647 0.950 . S
C636 H628 0.950 . S
C636 C637 1.386 . S
C636 C638 1.391 . S
C637 C636 1.386 . S
C637 C641 1.393 . S
C638 H630 0.950 . S
C638 C636 1.391 . S
C638 C639 1.400 . S
C639 C638 1.400 . S
C639 C640 1.398 . S
C639 C645 1.491 1_655 S
C640 H631 0.950 . S
C640 C639 1.398 . S
C640 C641 1.391 . S
C641 H629 0.950 . S
C641 C637 1.393 . S
C641 C640 1.391 . S
C642 H632 0.950 . S
C642 C643 1.386 . S
C642 C644 1.391 . S
C643 C642 1.386 . S
C643 C647 1.393 . S
C644 H633 0.950 . S
C644 C642 1.391 . S
C644 C645 1.400 . S
C645 C639 1.491 1_455 S
C645 C644 1.400 . S
C645 C646 1.398 . S
C646 H634 0.950 . S
C646 C645 1.398 . S
C646 C647 1.391 . S
C647 H635 0.950 . S
C647 C643 1.393 . S
C647 C646 1.391 . S
H648 C656 0.952 . S
H649 C661 0.950 . S
H650 C658 0.950 . S
H651 C660 0.950 . S
H652 C662 0.952 . S
H653 C664 0.950 . S
H654 C666 0.950 . S
H655 C667 0.950 . S
C656 H648 0.952 . S
C656 C657 1.386 . S
C656 C658 1.391 1_565 S
C657 C656 1.386 . S
C657 C661 1.393 . S
C658 H650 0.950 . S
C658 C656 1.391 1_545 S
C658 C659 1.400 1_545 S
C659 C658 1.400 1_565 S
C659 C660 1.398 . S
C659 C665 1.491 1_565 S
C660 H651 0.950 . S
C660 C659 1.398 . S
C660 C661 1.391 . S
C661 H649 0.950 . S
C661 C657 1.393 . S
C661 C660 1.391 . S
C662 H652 0.952 . S
C662 C663 1.386 . S
C662 C664 1.391 1_545 S
C663 C662 1.386 . S
C663 C667 1.393 . S
C664 H653 0.950 . S
C664 C662 1.391 1_565 S
C664 C665 1.400 1_565 S
C665 C659 1.491 1_545 S
C665 C664 1.400 1_545 S
C665 C666 1.398 . S
C666 H654 0.950 . S
C666 C665 1.398 . S
C666 C667 1.391 . S
C667 H655 0.950 . S
C667 C663 1.393 . S
C667 C666 1.391 . S
H668 C676 0.950 1_455 S
H669 C681 0.950 . S
H670 C678 0.950 . S
H671 C680 0.950 . S
H672 C682 0.950 1_655 S
H673 C684 0.950 . S
H674 C686 0.950 . S
H675 C687 0.950 . S
C676 H668 0.950 1_655 S
C676 C677 1.386 . S
C676 C678 1.391 1_655 S
C677 C676 1.386 . S
C677 C681 1.393 . S
C678 H670 0.950 . S
C678 C676 1.391 1_455 S
C678 C679 1.400 1_455 S
C679 C678 1.400 1_655 S
C679 C680 1.398 . S
C679 C685 1.491 1_655 S
C680 H671 0.950 . S
C680 C679 1.398 . S
C680 C681 1.391 . S
C681 H669 0.950 . S
C681 C677 1.393 . S
C681 C680 1.391 . S
C682 H672 0.950 1_455 S
C682 C683 1.386 . S
C682 C684 1.391 1_455 S
C683 C682 1.386 . S
C683 C687 1.393 . S
C684 H673 0.950 . S
C684 C682 1.391 1_655 S
C684 C685 1.400 1_655 S
C685 C679 1.491 1_455 S
C685 C684 1.400 1_455 S
C685 C686 1.398 . S
C686 H674 0.950 . S
C686 C685 1.398 . S
C686 C687 1.391 . S
C687 H675 0.950 . S
C687 C683 1.393 . S
C687 C686 1.391 . S
H688 C696 0.950 . S
H689 C701 0.950 . S
H690 C698 0.950 . S
H691 C700 0.950 . S
H692 C702 0.950 . S
H693 C704 0.950 . S
H694 C706 0.950 . S
H695 C707 0.950 . S
C696 H688 0.950 . S
C696 C697 1.386 . S
C696 C698 1.391 . S
C697 C696 1.386 . S
C697 C701 1.393 . S
C698 H690 0.950 . S
C698 C696 1.391 . S
C698 C699 1.400 . S
C699 C698 1.400 . S
C699 C700 1.398 . S
C699 C705 1.491 . S
C700 H691 0.950 . S
C700 C699 1.398 . S
C700 C701 1.391 . S
C701 H689 0.950 . S
C701 C697 1.393 . S
C701 C700 1.391 . S
C702 H692 0.950 . S
C702 C703 1.386 . S
C702 C704 1.391 . S
C703 C702 1.386 . S
C703 C707 1.393 . S
C704 H693 0.950 . S
C704 C702 1.391 . S
C704 C705 1.400 . S
C705 C699 1.491 . S
C705 C704 1.400 . S
C705 C706 1.398 . S
C706 H694 0.950 . S
C706 C705 1.398 . S
C706 C707 1.391 . S
C707 H695 0.950 . S
C707 C703 1.393 . S
C707 C706 1.391 . S
H708 C716 0.950 . S
H709 C721 0.950 . S
H710 C718 0.950 . S
H711 C720 0.950 . S
H712 C722 0.950 . S
H713 C724 0.950 . S
H714 C726 0.950 . S
H715 C727 0.950 . S
C716 H708 0.950 . S
C716 C717 1.386 . S
C716 C718 1.391 . S
C717 C716 1.386 . S
C717 C721 1.393 . S
C718 H710 0.950 . S
C718 C716 1.391 . S
C718 C719 1.400 . S
C719 C718 1.400 . S
C719 C720 1.398 . S
C719 C725 1.491 . S
C720 H711 0.950 . S
C720 C719 1.398 . S
C720 C721 1.391 . S
C721 H709 0.950 . S
C721 C717 1.393 . S
C721 C720 1.391 . S
C722 H712 0.950 . S
C722 C723 1.386 . S
C722 C724 1.391 . S
C723 C722 1.386 . S
C723 C727 1.393 . S
C724 H713 0.950 . S
C724 C722 1.391 . S
C724 C725 1.400 . S
C725 C719 1.491 . S
C725 C724 1.400 . S
C725 C726 1.398 . S
C726 H714 0.950 . S
C726 C725 1.398 . S
C726 C727 1.391 . S
C727 H715 0.950 . S
C727 C723 1.393 . S
C727 C726 1.391 . S
H728 C736 0.950 . S
H729 C741 0.950 . S
H730 C738 0.950 . S
H731 C740 0.950 . S
H732 C742 0.950 . S
H733 C744 0.950 . S
H734 C746 0.950 . S
H735 C747 0.950 . S
C736 H728 0.950 . S
C736 C737 1.386 . S
C736 C738 1.391 . S
C737 C736 1.386 . S
C737 C741 1.393 . S
C738 H730 0.950 . S
C738 C736 1.391 . S
C738 C739 1.400 . S
C739 C738 1.400 . S
C739 C740 1.398 . S
C739 C745 1.491 . S
C740 H731 0.950 . S
C740 C739 1.398 . S
C740 C741 1.391 . S
C741 H729 0.950 . S
C741 C737 1.393 . S
C741 C740 1.391 . S
C742 H732 0.950 . S
C742 C743 1.386 . S
C742 C744 1.391 . S
C743 C742 1.386 . S
C743 C747 1.393 . S
C744 H733 0.950 . S
C744 C742 1.391 . S
C744 C745 1.400 . S
C745 C739 1.491 . S
C745 C744 1.400 . S
C745 C746 1.398 . S
C746 H734 0.950 . S
C746 C745 1.398 . S
C746 C747 1.391 . S
C747 H735 0.950 . S
C747 C743 1.393 . S
C747 C746 1.391 . S
H748 C756 0.950 . S
H749 C761 0.950 . S
H750 C758 0.950 . S
H751 C760 0.950 . S
H752 C762 0.950 . S
H753 C764 0.950 . S
H754 C766 0.950 . S
H755 C767 0.950 . S
C756 H748 0.950 . S
C756 C757 1.386 . S
C756 C758 1.391 . S
C757 C756 1.386 . S
C757 C761 1.393 . S
C758 H750 0.950 . S
C758 C756 1.391 . S
C758 C759 1.400 . S
C759 C758 1.400 . S
C759 C760 1.398 . S
C759 C765 1.491 . S
C760 H751 0.950 . S
C760 C759 1.398 . S
C760 C761 1.391 . S
C761 H749 0.950 . S
C761 C757 1.393 . S
C761 C760 1.391 . S
C762 H752 0.950 . S
C762 C763 1.386 . S
C762 C764 1.391 . S
C763 C762 1.386 . S
C763 C767 1.393 . S
C764 H753 0.950 . S
C764 C762 1.391 . S
C764 C765 1.400 . S
C765 C759 1.491 . S
C765 C764 1.400 . S
C765 C766 1.398 . S
C766 H754 0.950 . S
C766 C765 1.398 . S
C766 C767 1.391 . S
C767 H755 0.950 . S
C767 C763 1.393 . S
C767 C766 1.391 . S
H768 C776 0.950 . S
H769 C781 0.950 . S
H770 C778 0.950 . S
H771 C780 0.950 . S
H772 C782 0.950 . S
H773 C784 0.950 . S
H774 C786 0.950 . S
H775 C787 0.950 . S
C776 H768 0.950 . S
C776 C777 1.386 . S
C776 C778 1.391 . S
C777 C776 1.386 . S
C777 C781 1.393 . S
C778 H770 0.950 . S
C778 C776 1.391 . S
C778 C779 1.400 . S
C779 C778 1.400 . S
C779 C780 1.398 . S
C779 C785 1.491 . S
C780 H771 0.950 . S
C780 C779 1.398 . S
C780 C781 1.391 . S
C781 H769 0.950 . S
C781 C777 1.393 . S
C781 C780 1.391 . S
C782 H772 0.950 . S
C782 C783 1.386 . S
C782 C784 1.391 . S
C783 C782 1.386 . S
C783 C787 1.393 . S
C784 H773 0.950 . S
C784 C782 1.391 . S
C784 C785 1.400 . S
C785 C779 1.491 . S
C785 C784 1.400 . S
C785 C786 1.398 . S
C786 H774 0.950 . S
C786 C785 1.398 . S
C786 C787 1.391 . S
C787 H775 0.950 . S
C787 C783 1.393 . S
C787 C786 1.391 . S
H788 C796 0.950 . S
H789 C801 0.950 . S
H790 C798 0.950 . S
H791 C800 0.950 . S
H792 C802 0.950 . S
H793 C804 0.950 . S
H794 C806 0.950 . S
H795 C807 0.950 . S
C796 H788 0.950 . S
C796 C797 1.386 . S
C796 C798 1.391 . S
C797 C796 1.386 . S
C797 C801 1.393 . S
C798 H790 0.950 . S
C798 C796 1.391 . S
C798 C799 1.400 . S
C799 C798 1.400 . S
C799 C800 1.398 . S
C799 C805 1.491 . S
C800 H791 0.950 . S
C800 C799 1.398 . S
C800 C801 1.391 . S
C801 H789 0.950 . S
C801 C797 1.393 . S
C801 C800 1.391 . S
C802 H792 0.950 . S
C802 C803 1.386 . S
C802 C804 1.391 . S
C803 C802 1.386 . S
C803 C807 1.393 . S
C804 H793 0.950 . S
C804 C802 1.391 . S
C804 C805 1.400 . S
C805 C799 1.491 . S
C805 C804 1.400 . S
C805 C806 1.398 . S
C806 H794 0.950 . S
C806 C805 1.398 . S
C806 C807 1.391 . S
C807 H795 0.950 . S
C807 C803 1.393 . S
C807 C806 1.391 . S
H808 C816 0.950 . S
H809 C821 0.950 . S
H810 C818 0.950 . S
H811 C820 0.950 . S
H812 C822 0.950 . S
H813 C824 0.950 . S
H814 C826 0.950 . S
H815 C827 0.950 . S
C816 H808 0.950 . S
C816 C817 1.386 . S
C816 C818 1.391 . S
C817 C816 1.386 . S
C817 C821 1.393 . S
C818 H810 0.950 . S
C818 C816 1.391 . S
C818 C819 1.400 . S
C819 C818 1.400 . S
C819 C820 1.398 . S
C819 C825 1.491 . S
C820 H811 0.950 . S
C820 C819 1.398 . S
C820 C821 1.391 . S
C821 H809 0.950 . S
C821 C817 1.393 . S
C821 C820 1.391 . S
C822 H812 0.950 . S
C822 C823 1.386 . S
C822 C824 1.391 . S
C823 C822 1.386 . S
C823 C827 1.393 . S
C824 H813 0.950 . S
C824 C822 1.391 . S
C824 C825 1.400 . S
C825 C819 1.491 . S
C825 C824 1.400 . S
C825 C826 1.398 . S
C826 H814 0.950 . S
C826 C825 1.398 . S
C826 C827 1.391 . S
C827 H815 0.950 . S
C827 C823 1.393 . S
C827 C826 1.391 . S
H828 C836 0.950 . S
H829 C841 0.950 . S
H830 C838 0.950 . S
H831 C840 0.950 . S
H832 C842 0.950 . S
H833 C844 0.950 . S
H834 C846 0.950 . S
H835 C847 0.950 . S
C836 H828 0.950 . S
C836 C837 1.386 . S
C836 C838 1.391 . S
C837 C836 1.386 . S
C837 C841 1.393 . S
C838 H830 0.950 . S
C838 C836 1.391 . S
C838 C839 1.400 . S
C839 C838 1.400 . S
C839 C840 1.398 . S
C839 C845 1.491 . S
C840 H831 0.950 . S
C840 C839 1.398 . S
C840 C841 1.391 . S
C841 H829 0.950 . S
C841 C837 1.393 . S
C841 C840 1.391 . S
C842 H832 0.950 . S
C842 C843 1.386 . S
C842 C844 1.391 . S
C843 C842 1.386 . S
C843 C847 1.393 . S
C844 H833 0.950 . S
C844 C842 1.391 . S
C844 C845 1.400 . S
C845 C839 1.491 . S
C845 C844 1.400 . S
C845 C846 1.398 . S
C846 H834 0.950 . S
C846 C845 1.398 . S
C846 C847 1.391 . S
C847 H835 0.950 . S
C847 C843 1.393 . S
C847 C846 1.391 . S
H848 C856 0.950 . S
H849 C861 0.950 . S
H850 C858 0.950 . S
H851 C860 0.950 . S
H852 C862 0.950 . S
H853 C864 0.950 . S
H854 C866 0.950 . S
H855 C867 0.950 . S
C856 H848 0.950 . S
C856 C857 1.386 . S
C856 C858 1.391 . S
C857 C856 1.386 . S
C857 C861 1.393 . S
C858 H850 0.950 . S
C858 C856 1.391 . S
C858 C859 1.400 . S
C859 C858 1.400 . S
C859 C860 1.398 . S
C859 C865 1.491 . S
C860 H851 0.950 . S
C860 C859 1.398 . S
C860 C861 1.391 . S
C861 H849 0.950 . S
C861 C857 1.393 . S
C861 C860 1.391 . S
C862 H852 0.950 . S
C862 C863 1.386 . S
C862 C864 1.391 . S
C863 C862 1.386 . S
C863 C867 1.393 . S
C864 H853 0.950 . S
C864 C862 1.391 . S
C864 C865 1.400 . S
C865 C859 1.491 . S
C865 C864 1.400 . S
C865 C866 1.398 . S
C866 H854 0.950 . S
C866 C865 1.398 . S
C866 C867 1.391 . S
C867 H855 0.950 . S
C867 C863 1.393 . S
C867 C866 1.391 . S
H868 C876 0.950 . S
H869 C881 0.950 . S
H870 C878 0.950 . S
H871 C880 0.950 . S
H872 C882 0.950 . S
H873 C884 0.950 . S
H874 C886 0.950 . S
H875 C887 0.950 . S
C876 H868 0.950 . S
C876 C877 1.386 . S
C876 C878 1.391 . S
C877 C876 1.386 . S
C877 C881 1.393 . S
C878 H870 0.950 . S
C878 C876 1.391 . S
C878 C879 1.400 . S
C879 C878 1.400 . S
C879 C880 1.398 . S
C879 C885 1.491 . S
C880 H871 0.950 . S
C880 C879 1.398 . S
C880 C881 1.391 . S
C881 H869 0.950 . S
C881 C877 1.393 . S
C881 C880 1.391 . S
C882 H872 0.950 . S
C882 C883 1.386 . S
C882 C884 1.391 . S
C883 C882 1.386 . S
C883 C887 1.393 . S
C884 H873 0.950 . S
C884 C882 1.391 . S
C884 C885 1.400 . S
C885 C879 1.491 . S
C885 C884 1.400 . S
C885 C886 1.398 . S
C886 H874 0.950 . S
C886 C885 1.398 . S
C886 C887 1.391 . S
C887 H875 0.950 . S
C887 C883 1.393 . S
C887 C886 1.391 . S
H888 C896 0.950 . S
H889 C901 0.950 . S
H890 C898 0.950 . S
H891 C900 0.950 . S
H892 C902 0.950 . S
H893 C904 0.950 . S
H894 C906 0.950 . S
H895 C907 0.950 . S
C896 H888 0.950 . S
C896 C897 1.386 . S
C896 C898 1.391 . S
C897 C896 1.386 . S
C897 C901 1.393 . S
C898 H890 0.950 . S
C898 C896 1.391 . S
C898 C899 1.400 . S
C899 C898 1.400 . S
C899 C900 1.398 . S
C899 C905 1.491 . S
C900 H891 0.950 . S
C900 C899 1.398 . S
C900 C901 1.391 . S
C901 H889 0.950 . S
C901 C897 1.393 . S
C901 C900 1.391 . S
C902 H892 0.950 . S
C902 C903 1.386 . S
C902 C904 1.391 . S
C903 C902 1.386 . S
C903 C907 1.393 . S
C904 H893 0.950 . S
C904 C902 1.391 . S
C904 C905 1.400 . S
C905 C899 1.491 . S
C905 C904 1.400 . S
C905 C906 1.398 . S
C906 H894 0.950 . S
C906 C905 1.398 . S
C906 C907 1.391 . S
C907 H895 0.950 . S
C907 C903 1.393 . S
C907 C906 1.391 . S
H908 C916 0.950 . S
H909 C921 0.950 . S
H910 C918 0.950 . S
H911 C920 0.950 . S
H912 C922 0.950 . S
H913 C924 0.950 . S
H914 C926 0.950 . S
H915 C927 0.950 . S
C916 H908 0.950 . S
C916 C917 1.386 . S
C916 C918 1.391 . S
C917 C916 1.386 . S
C917 C921 1.393 . S
C918 H910 0.950 . S
C918 C916 1.391 . S
C918 C919 1.400 . S
C919 C918 1.400 . S
C919 C920 1.398 . S
C919 C925 1.491 . S
C920 H911 0.950 . S
C920 C919 1.398 . S
C920 C921 1.391 . S
C921 H909 0.950 . S
C921 C917 1.393 . S
C921 C920 1.391 . S
C922 H912 0.950 . S
C922 C923 1.386 . S
C922 C924 1.391 . S
C923 C922 1.386 . S
C923 C927 1.393 . S
C924 H913 0.950 . S
C924 C922 1.391 . S
C924 C925 1.400 . S
C925 C919 1.491 . S
C925 C924 1.400 . S
C925 C926 1.398 . S
C926 H914 0.950 . S
C926 C925 1.398 . S
C926 C927 1.391 . S
C927 H915 0.950 . S
C927 C923 1.393 . S
C927 C926 1.391 . S
H928 C936 0.950 . S
H929 C941 0.950 . S
H930 C938 0.950 . S
H931 C940 0.950 . S
H932 C942 0.950 . S
H933 C944 0.950 . S
H934 C946 0.950 . S
H935 C947 0.950 . S
C936 H928 0.950 . S
C936 C937 1.386 . S
C936 C938 1.391 . S
C937 C936 1.386 . S
C937 C941 1.393 . S
C938 H930 0.950 . S
C938 C936 1.391 . S
C938 C939 1.400 . S
C939 C938 1.400 . S
C939 C940 1.398 . S
C939 C945 1.491 . S
C940 H931 0.950 . S
C940 C939 1.398 . S
C940 C941 1.391 . S
C941 H929 0.950 . S
C941 C937 1.393 . S
C941 C940 1.391 . S
C942 H932 0.950 . S
C942 C943 1.386 . S
C942 C944 1.391 . S
C943 C942 1.386 . S
C943 C947 1.393 . S
C944 H933 0.950 . S
C944 C942 1.391 . S
C944 C945 1.400 . S
C945 C939 1.491 . S
C945 C944 1.400 . S
C945 C946 1.398 . S
C946 H934 0.950 . S
C946 C945 1.398 . S
C946 C947 1.391 . S
C947 H935 0.950 . S
C947 C943 1.393 . S
C947 C946 1.391 . S
H948 C956 0.950 . S
H949 C961 0.950 . S
H950 C958 0.950 . S
H951 C960 0.950 . S
H952 C962 0.950 . S
H953 C964 0.950 . S
H954 C966 0.950 . S
H955 C967 0.950 . S
C956 H948 0.950 . S
C956 C957 1.386 . S
C956 C958 1.391 . S
C957 C956 1.386 . S
C957 C961 1.393 . S
C958 H950 0.950 . S
C958 C956 1.391 . S
C958 C959 1.400 . S
C959 C958 1.400 . S
C959 C960 1.398 . S
C959 C965 1.491 . S
C960 H951 0.950 . S
C960 C959 1.398 . S
C960 C961 1.391 . S
C961 H949 0.950 . S
C961 C957 1.393 . S
C961 C960 1.391 . S
C962 H952 0.950 . S
C962 C963 1.386 . S
C962 C964 1.391 . S
C963 C962 1.386 . S
C963 C967 1.393 . S
C964 H953 0.950 . S
C964 C962 1.391 . S
C964 C965 1.400 . S
C965 C959 1.491 . S
C965 C964 1.400 . S
C965 C966 1.398 . S
C966 H954 0.950 . S
C966 C965 1.398 . S
C966 C967 1.391 . S
C967 H955 0.950 . S
C967 C963 1.393 . S
C967 C966 1.391 . S
H968 C976 0.950 . S
H969 C981 0.950 . S
H970 C978 0.950 . S
H971 C980 0.950 . S
H972 C982 0.950 . S
H973 C984 0.950 . S
H974 C986 0.950 . S
H975 C987 0.950 . S
C976 H968 0.950 . S
C976 C977 1.386 . S
C976 C978 1.391 . S
C977 C976 1.386 . S
C977 C981 1.393 . S
C978 H970 0.950 . S
C978 C976 1.391 . S
C978 C979 1.400 . S
C979 C978 1.400 . S
C979 C980 1.398 . S
C979 C985 1.491 . S
C980 H971 0.950 . S
C980 C979 1.398 . S
C980 C981 1.391 . S
C981 H969 0.950 . S
C981 C977 1.393 . S
C981 C980 1.391 . S
C982 H972 0.950 . S
C982 C983 1.386 . S
C982 C984 1.391 . S
C983 C982 1.386 . S
C983 C987 1.393 . S
C984 H973 0.950 . S
C984 C982 1.391 . S
C984 C985 1.400 . S
C985 C979 1.491 . S
C985 C984 1.400 . S
C985 C986 1.398 . S
C986 H974 0.950 . S
C986 C985 1.398 . S
C986 C987 1.391 . S
C987 H975 0.950 . S
C987 C983 1.393 . S
C987 C986 1.391 . S
H988 C996 0.950 . S
H989 C1001 0.950 . S
H990 C998 0.950 . S
H991 C1000 0.950 . S
H992 C1002 0.950 . S
H993 C1004 0.950 . S
H994 C1006 0.950 . S
H995 C1007 0.950 . S
C996 H988 0.950 . S
C996 C997 1.386 . S
C996 C998 1.391 . S
C997 C996 1.386 . S
C997 C1001 1.393 . S
C998 H990 0.950 . S
C998 C996 1.391 . S
C998 C999 1.400 . S
C999 C998 1.400 . S
C999 C1000 1.398 . S
C999 C1005 1.491 . S
C1000 H991 0.950 . S
C1000 C999 1.398 . S
C1000 C1001 1.391 . S
C1001 H989 0.950 . S
C1001 C997 1.393 . S
C1001 C1000 1.391 . S
C1002 H992 0.950 . S
C1002 C1003 1.386 . S
C1002 C1004 1.391 . S
C1003 C1002 1.386 . S
C1003 C1007 1.393 . S
C1004 H993 0.950 . S
C1004 C1002 1.391 . S
C1004 C1005 1.400 . S
C1005 C999 1.491 . S
C1005 C1004 1.400 . S
C1005 C1006 1.398 . S
C1006 H994 0.950 . S
C1006 C1005 1.398 . S
C1006 C1007 1.391 . S
C1007 H995 0.950 . S
C1007 C1003 1.393 . S
C1007 C1006 1.391 . S
H1008 C1016 0.950 . S
H1009 C1021 0.950 . S
H1010 C1018 0.950 . S
H1011 C1020 0.950 . S
H1012 C1022 0.950 . S
H1013 C1024 0.950 . S
H1014 C1026 0.950 . S
H1015 C1027 0.950 . S
C1016 H1008 0.950 . S
C1016 C1017 1.386 . S
C1016 C1018 1.391 . S
C1017 C1016 1.386 . S
C1017 C1021 1.393 . S
C1018 H1010 0.950 . S
C1018 C1016 1.391 . S
C1018 C1019 1.400 . S
C1019 C1018 1.400 . S
C1019 C1020 1.398 . S
C1019 C1025 1.491 . S
C1020 H1011 0.950 . S
C1020 C1019 1.398 . S
C1020 C1021 1.391 . S
C1021 H1009 0.950 . S
C1021 C1017 1.393 . S
C1021 C1020 1.391 . S
C1022 H1012 0.950 . S
C1022 C1023 1.386 . S
C1022 C1024 1.391 . S
C1023 C1022 1.386 . S
C1023 C1027 1.393 . S
C1024 H1013 0.950 . S
C1024 C1022 1.391 . S
C1024 C1025 1.400 . S
C1025 C1019 1.491 . S
C1025 C1024 1.400 . S
C1025 C1026 1.398 . S
C1026 H1014 0.950 . S
C1026 C1025 1.398 . S
C1026 C1027 1.391 . S
C1027 H1015 0.950 . S
C1027 C1023 1.393 . S
C1027 C1026 1.391 . S
H1028 C1036 0.950 . S
H1029 C1041 0.950 . S
H1030 C1038 0.950 . S
H1031 C1040 0.950 . S
H1032 C1042 0.950 . S
H1033 C1044 0.950 . S
H1034 C1046 0.950 . S
H1035 C1047 0.950 . S
C1036 H1028 0.950 . S
C1036 C1037 1.386 . S
C1036 C1038 1.391 . S
C1037 C1036 1.386 . S
C1037 C1041 1.393 . S
C1038 H1030 0.950 . S
C1038 C1036 1.391 . S
C1038 C1039 1.400 . S
C1039 C1038 1.400 . S
C1039 C1040 1.398 . S
C1039 C1045 1.491 . S
C1040 H1031 0.950 . S
C1040 C1039 1.398 . S
C1040 C1041 1.391 . S
C1041 H1029 0.950 . S
C1041 C1037 1.393 . S
C1041 C1040 1.391 . S
C1042 H1032 0.950 . S
C1042 C1043 1.386 . S
C1042 C1044 1.391 . S
C1043 C1042 1.386 . S
C1043 C1047 1.393 . S
C1044 H1033 0.950 . S
C1044 C1042 1.391 . S
C1044 C1045 1.400 . S
C1045 C1039 1.491 . S
C1045 C1044 1.400 . S
C1045 C1046 1.398 . S
C1046 H1034 0.950 . S
C1046 C1045 1.398 . S
C1046 C1047 1.391 . S
C1047 H1035 0.950 . S
C1047 C1043 1.393 . S
C1047 C1046 1.391 . S
H1048 C1056 0.950 . S
H1049 C1061 0.950 . S
H1050 C1058 0.950 . S
H1051 C1060 0.950 . S
H1052 C1062 0.950 . S
H1053 C1064 0.950 . S
H1054 C1066 0.950 . S
H1055 C1067 0.950 . S
C1056 H1048 0.950 . S
C1056 C1057 1.386 . S
C1056 C1058 1.391 . S
C1057 C1056 1.386 . S
C1057 C1061 1.393 . S
C1058 H1050 0.950 . S
C1058 C1056 1.391 . S
C1058 C1059 1.400 . S
C1059 C1058 1.400 . S
C1059 C1060 1.398 . S
C1059 C1065 1.491 . S
C1060 H1051 0.950 . S
C1060 C1059 1.398 . S
C1060 C1061 1.391 . S
C1061 H1049 0.950 . S
C1061 C1057 1.393 . S
C1061 C1060 1.391 . S
C1062 H1052 0.950 . S
C1062 C1063 1.386 . S
C1062 C1064 1.391 . S
C1063 C1062 1.386 . S
C1063 C1067 1.393 . S
C1064 H1053 0.950 . S
C1064 C1062 1.391 . S
C1064 C1065 1.400 . S
C1065 C1059 1.491 . S
C1065 C1064 1.400 . S
C1065 C1066 1.398 . S
C1066 H1054 0.950 . S
C1066 C1065 1.398 . S
C1066 C1067 1.391 . S
C1067 H1055 0.950 . S
C1067 C1063 1.393 . S
C1067 C1066 1.391 . S
H1068 C1076 0.950 . S
H1069 C1081 0.950 . S
H1070 C1078 0.950 . S
H1071 C1080 0.950 . S
H1072 C1082 0.950 . S
H1073 C1084 0.950 . S
H1074 C1086 0.950 . S
H1075 C1087 0.950 . S
C1076 H1068 0.950 . S
C1076 C1077 1.386 . S
C1076 C1078 1.391 . S
C1077 C1076 1.386 . S
C1077 C1081 1.393 . S
C1078 H1070 0.950 . S
C1078 C1076 1.391 . S
C1078 C1079 1.400 . S
C1079 C1078 1.400 . S
C1079 C1080 1.398 . S
C1079 C1085 1.491 . S
C1080 H1071 0.950 . S
C1080 C1079 1.398 . S
C1080 C1081 1.391 . S
C1081 H1069 0.950 . S
C1081 C1077 1.393 . S
C1081 C1080 1.391 . S
C1082 H1072 0.950 . S
C1082 C1083 1.386 . S
C1082 C1084 1.391 . S
C1083 C1082 1.386 . S
C1083 C1087 1.393 . S
C1084 H1073 0.950 . S
C1084 C1082 1.391 . S
C1084 C1085 1.400 . S
C1085 C1079 1.491 . S
C1085 C1084 1.400 . S
C1085 C1086 1.398 . S
C1086 H1074 0.950 . S
C1086 C1085 1.398 . S
C1086 C1087 1.391 . S
C1087 H1075 0.950 . S
C1087 C1083 1.393 . S
C1087 C1086 1.391 . S
H1088 C1096 0.950 . S
H1089 C1101 0.950 . S
H1090 C1098 0.950 . S
H1091 C1100 0.950 . S
H1092 C1102 0.950 . S
H1093 C1104 0.950 . S
H1094 C1106 0.950 . S
H1095 C1107 0.950 . S
C1096 H1088 0.950 . S
C1096 C1097 1.386 . S
C1096 C1098 1.391 . S
C1097 C1096 1.386 . S
C1097 C1101 1.393 . S
C1098 H1090 0.950 . S
C1098 C1096 1.391 . S
C1098 C1099 1.400 . S
C1099 C1098 1.400 . S
C1099 C1100 1.398 . S
C1099 C1105 1.491 . S
C1100 H1091 0.950 . S
C1100 C1099 1.398 . S
C1100 C1101 1.391 . S
C1101 H1089 0.950 . S
C1101 C1097 1.393 . S
C1101 C1100 1.391 . S
C1102 H1092 0.950 . S
C1102 C1103 1.386 . S
C1102 C1104 1.391 . S
C1103 C1102 1.386 . S
C1103 C1107 1.393 . S
C1104 H1093 0.950 . S
C1104 C1102 1.391 . S
C1104 C1105 1.400 . S
C1105 C1099 1.491 . S
C1105 C1104 1.400 . S
C1105 C1106 1.398 . S
C1106 H1094 0.950 . S
C1106 C1105 1.398 . S
C1106 C1107 1.391 . S
C1107 H1095 0.950 . S
C1107 C1103 1.393 . S
C1107 C1106 1.391 . S
H1108 C1116 0.950 . S
H1109 C1121 0.950 . S
H1110 C1118 0.950 . S
H1111 C1120 0.950 . S
H1112 C1122 0.950 . S
H1113 C1124 0.950 . S
H1114 C1126 0.950 . S
H1115 C1127 0.950 . S
C1116 H1108 0.950 . S
C1116 C1117 1.386 . S
C1116 C1118 1.391 . S
C1117 C1116 1.386 . S
C1117 C1121 1.393 . S
C1118 H1110 0.950 . S
C1118 C1116 1.391 . S
C1118 C1119 1.400 . S
C1119 C1118 1.400 . S
C1119 C1120 1.398 . S
C1119 C1125 1.491 . S
C1120 H1111 0.950 . S
C1120 C1119 1.398 . S
C1120 C1121 1.391 . S
C1121 H1109 0.950 . S
C1121 C1117 1.393 . S
C1121 C1120 1.391 . S
C1122 H1112 0.950 . S
C1122 C1123 1.386 . S
C1122 C1124 1.391 . S
C1123 C1122 1.386 . S
C1123 C1127 1.393 . S
C1124 H1113 0.950 . S
C1124 C1122 1.391 . S
C1124 C1125 1.400 . S
C1125 C1119 1.491 . S
C1125 C1124 1.400 . S
C1125 C1126 1.398 . S
C1126 H1114 0.950 . S
C1126 C1125 1.398 . S
C1126 C1127 1.391 . S
C1127 H1115 0.950 . S
C1127 C1123 1.393 . S
C1127 C1126 1.391 . S
H1128 C1136 0.950 . S
H1129 C1141 0.950 . S
H1130 C1138 0.950 . S
H1131 C1140 0.950 . S
H1132 C1142 0.950 . S
H1133 C1144 0.950 . S
H1134 C1146 0.950 . S
H1135 C1147 0.950 . S
C1136 H1128 0.950 . S
C1136 C1137 1.386 . S
C1136 C1138 1.391 . S
C1137 C1136 1.386 . S
C1137 C1141 1.393 . S
C1138 H1130 0.950 . S
C1138 C1136 1.391 . S
C1138 C1139 1.400 . S
C1139 C1138 1.400 . S
C1139 C1140 1.398 . S
C1139 C1145 1.491 . S
C1140 H1131 0.950 . S
C1140 C1139 1.398 . S
C1140 C1141 1.391 . S
C1141 H1129 0.950 . S
C1141 C1137 1.393 . S
C1141 C1140 1.391 . S
C1142 H1132 0.950 . S
C1142 C1143 1.386 . S
C1142 C1144 1.391 . S
C1143 C1142 1.386 . S
C1143 C1147 1.393 . S
C1144 H1133 0.950 . S
C1144 C1142 1.391 . S
C1144 C1145 1.400 . S
C1145 C1139 1.491 . S
C1145 C1144 1.400 . S
C1145 C1146 1.398 . S
C1146 H1134 0.950 . S
C1146 C1145 1.398 . S
C1146 C1147 1.391 . S
C1147 H1135 0.950 . S
C1147 C1143 1.393 . S
C1147 C1146 1.391 . S
H1148 C1156 0.950 . S
H1149 C1161 0.950 . S
H1150 C1158 0.950 . S
H1151 C1160 0.950 . S
H1152 C1162 0.950 . S
H1153 C1164 0.950 . S
H1154 C1166 0.950 . S
H1155 C1167 0.950 . S
C1156 H1148 0.950 . S
C1156 C1157 1.386 . S
C1156 C1158 1.391 . S
C1157 C1156 1.386 . S
C1157 C1161 1.393 . S
C1158 H1150 0.950 . S
C1158 C1156 1.391 . S
C1158 C1159 1.400 . S
C1159 C1158 1.400 . S
C1159 C1160 1.398 . S
C1159 C1165 1.491 . S
C1160 H1151 0.950 . S
C1160 C1159 1.398 . S
C1160 C1161 1.391 . S
C1161 H1149 0.950 . S
C1161 C1157 1.393 . S
C1161 C1160 1.391 . S
C1162 H1152 0.950 . S
C1162 C1163 1.386 . S
C1162 C1164 1.391 . S
C1163 C1162 1.386 . S
C1163 C1167 1.393 . S
C1164 H1153 0.950 . S
C1164 C1162 1.391 . S
C1164 C1165 1.400 . S
C1165 C1159 1.491 . S
C1165 C1164 1.400 . S
C1165 C1166 1.398 . S
C1166 H1154 0.950 . S
C1166 C1165 1.398 . S
C1166 C1167 1.391 . S
C1167 H1155 0.950 . S
C1167 C1163 1.393 . S
C1167 C1166 1.391 . S
H1168 C1176 0.950 . S
H1169 C1181 0.950 . S
H1170 C1178 0.950 . S
H1171 C1180 0.950 . S
H1172 C1182 0.950 . S
H1173 C1184 0.950 . S
H1174 C1186 0.950 . S
H1175 C1187 0.950 . S
C1176 H1168 0.950 . S
C1176 C1177 1.386 . S
C1176 C1178 1.391 . S
C1177 C1176 1.386 . S
C1177 C1181 1.393 . S
C1178 H1170 0.950 . S
C1178 C1176 1.391 . S
C1178 C1179 1.400 . S
C1179 C1178 1.400 . S
C1179 C1180 1.398 . S
C1179 C1185 1.491 . S
C1180 H1171 0.950 . S
C1180 C1179 1.398 . S
C1180 C1181 1.391 . S
C1181 H1169 0.950 . S
C1181 C1177 1.393 . S
C1181 C1180 1.391 . S
C1182 H1172 0.950 . S
C1182 C1183 1.386 . S
C1182 C1184 1.391 . S
C1183 C1182 1.386 . S
C1183 C1187 1.393 . S
C1184 H1173 0.950 . S
C1184 C1182 1.391 . S
C1184 C1185 1.400 . S
C1185 C1179 1.491 . S
C1185 C1184 1.400 . S
C1185 C1186 1.398 . S
C1186 H1174 0.950 . S
C1186 C1185 1.398 . S
C1186 C1187 1.391 . S
C1187 H1175 0.950 . S
C1187 C1183 1.393 . S
C1187 C1186 1.391 . S
H1188 C1196 0.950 . S
H1189 C1201 0.950 . S
H1190 C1198 0.950 . S
H1191 C1200 0.950 . S
H1192 C1202 0.950 . S
H1193 C1204 0.950 . S
H1194 C1206 0.950 . S
H1195 C1207 0.950 . S
C1196 H1188 0.950 . S
C1196 C1197 1.386 . S
C1196 C1198 1.391 . S
C1197 C1196 1.386 . S
C1197 C1201 1.393 . S
C1198 H1190 0.950 . S
C1198 C1196 1.391 . S
C1198 C1199 1.400 . S
C1199 C1198 1.400 . S
C1199 C1200 1.398 . S
C1199 C1205 1.491 . S
C1200 H1191 0.950 . S
C1200 C1199 1.398 . S
C1200 C1201 1.391 . S
C1201 H1189 0.950 . S
C1201 C1197 1.393 . S
C1201 C1200 1.391 . S
C1202 H1192 0.950 . S
C1202 C1203 1.386 . S
C1202 C1204 1.391 . S
C1203 C1202 1.386 . S
C1203 C1207 1.393 . S
C1204 H1193 0.950 . S
C1204 C1202 1.391 . S
C1204 C1205 1.400 . S
C1205 C1199 1.491 . S
C1205 C1204 1.400 . S
C1205 C1206 1.398 . S
C1206 H1194 0.950 . S
C1206 C1205 1.398 . S
C1206 C1207 1.391 . S
C1207 H1195 0.950 . S
C1207 C1203 1.393 . S
C1207 C1206 1.391 . S
H1208 C1216 0.950 . S
H1209 C1221 0.950 . S
H1210 C1218 0.950 . S
H1211 C1220 0.950 . S
H1212 C1222 0.950 . S
H1213 C1224 0.950 . S
H1214 C1226 0.950 . S
H1215 C1227 0.950 . S
C1216 H1208 0.950 . S
C1216 C1217 1.386 . S
C1216 C1218 1.391 . S
C1217 C1216 1.386 . S
C1217 C1221 1.393 . S
C1218 H1210 0.950 . S
C1218 C1216 1.391 . S
C1218 C1219 1.400 . S
C1219 C1218 1.400 . S
C1219 C1220 1.398 . S
C1219 C1225 1.491 . S
C1220 H1211 0.950 . S
C1220 C1219 1.398 . S
C1220 C1221 1.391 . S
C1221 H1209 0.950 . S
C1221 C1217 1.393 . S
C1221 C1220 1.391 . S
C1222 H1212 0.950 . S
C1222 C1223 1.386 . S
C1222 C1224 1.391 . S
C1223 C1222 1.386 . S
C1223 C1227 1.393 . S
C1224 H1213 0.950 . S
C1224 C1222 1.391 . S
C1224 C1225 1.400 . S
C1225 C1219 1.491 . S
C1225 C1224 1.400 . S
C1225 C1226 1.398 . S
C1226 H1214 0.950 . S
C1226 C1225 1.398 . S
C1226 C1227 1.391 . S
C1227 H1215 0.950 . S
C1227 C1223 1.393 . S
C1227 C1226 1.391 . S
H1228 C1236 0.950 . S
H1229 C1241 0.950 . S
H1230 C1238 0.950 . S
H1231 C1240 0.950 . S
H1232 C1242 0.950 . S
H1233 C1244 0.950 . S
H1234 C1246 0.950 . S
H1235 C1247 0.950 . S
C1236 H1228 0.950 . S
C1236 C1237 1.386 . S
C1236 C1238 1.391 . S
C1237 C1236 1.386 . S
C1237 C1241 1.393 . S
C1238 H1230 0.950 . S
C1238 C1236 1.391 . S
C1238 C1239 1.400 . S
C1239 C1238 1.400 . S
C1239 C1240 1.398 . S
C1239 C1245 1.491 . S
C1240 H1231 0.950 . S
C1240 C1239 1.398 . S
C1240 C1241 1.391 . S
C1241 H1229 0.950 . S
C1241 C1237 1.393 . S
C1241 C1240 1.391 . S
C1242 H1232 0.950 . S
C1242 C1243 1.386 . S
C1242 C1244 1.391 . S
C1243 C1242 1.386 . S
C1243 C1247 1.393 . S
C1244 H1233 0.950 . S
C1244 C1242 1.391 . S
C1244 C1245 1.400 . S
C1245 C1239 1.491 . S
C1245 C1244 1.400 . S
C1245 C1246 1.398 . S
C1246 H1234 0.950 . S
C1246 C1245 1.398 . S
C1246 C1247 1.391 . S
C1247 H1235 0.950 . S
C1247 C1243 1.393 . S
C1247 C1246 1.391 . S
H1248 C1256 0.950 . S
H1249 C1261 0.950 . S
H1250 C1258 0.950 . S
H1251 C1260 0.950 . S
H1252 C1262 0.950 . S
H1253 C1264 0.950 . S
H1254 C1266 0.950 . S
H1255 C1267 0.950 . S
C1256 H1248 0.950 . S
C1256 C1257 1.386 . S
C1256 C1258 1.391 . S
C1257 C1256 1.386 . S
C1257 C1261 1.393 1_545 S
C1258 H1250 0.950 . S
C1258 C1256 1.391 . S
C1258 C1259 1.413 . S
C1259 C1258 1.413 . S
C1259 C1260 1.386 1_545 S
C1259 C1265 1.490 1_546 S
C1260 H1251 0.950 . S
C1260 C1259 1.386 1_565 S
C1260 C1261 1.391 . S
C1261 H1249 0.950 . S
C1261 C1257 1.393 1_565 S
C1261 C1260 1.391 . S
C1262 H1252 0.950 . S
C1262 C1263 1.386 . S
C1262 C1264 1.391 . S
C1263 C1262 1.386 . S
C1263 C1267 1.393 1_565 S
C1264 H1253 0.950 . S
C1264 C1262 1.391 . S
C1264 C1265 1.413 . S
C1265 C1259 1.490 1_564 S
C1265 C1264 1.413 . S
C1265 C1266 1.386 1_565 S
C1266 H1254 0.950 . S
C1266 C1265 1.386 1_545 S
C1266 C1267 1.391 . S
C1267 H1255 0.950 . S
C1267 C1263 1.393 1_545 S
C1267 C1266 1.391 . S
H1268 C1276 0.950 . S
H1269 C1281 0.950 . S
H1270 C1278 0.950 . S
H1271 C1280 0.950 . S
H1272 C1282 0.950 . S
H1273 C1284 0.950 . S
H1274 C1286 0.950 . S
H1275 C1287 0.950 . S
C1276 H1268 0.950 . S
C1276 C1277 1.386 1_455 S
C1276 C1278 1.391 . S
C1277 C1276 1.386 1_655 S
C1277 C1281 1.393 . S
C1278 H1270 0.950 . S
C1278 C1276 1.391 . S
C1278 C1279 1.395 1_455 S
C1279 C1278 1.395 1_655 S
C1279 C1280 1.404 . S
C1279 C1285 1.490 1_656 S
C1280 H1271 0.950 . S
C1280 C1279 1.404 . S
C1280 C1281 1.391 . S
C1281 H1269 0.950 . S
C1281 C1277 1.393 . S
C1281 C1280 1.391 . S
C1282 H1272 0.950 . S
C1282 C1283 1.386 1_655 S
C1282 C1284 1.391 . S
C1283 C1282 1.386 1_455 S
C1283 C1287 1.393 . S
C1284 H1273 0.950 . S
C1284 C1282 1.391 . S
C1284 C1285 1.395 1_655 S
C1285 C1279 1.490 1_454 S
C1285 C1284 1.395 1_455 S
C1285 C1286 1.404 . S
C1286 H1274 0.950 . S
C1286 C1285 1.404 . S
C1286 C1287 1.391 . S
C1287 H1275 0.950 . S
C1287 C1283 1.393 . S
C1287 C1286 1.391 . S
H1288 C1296 0.950 . S
H1289 C1301 0.950 . S
H1290 C1298 0.950 . S
H1291 C1300 0.950 . S
H1292 C1302 0.950 . S
H1293 C1304 0.950 . S
H1294 C1306 0.950 . S
H1295 C1307 0.950 . S
C1296 H1288 0.950 . S
C1296 C1297 1.386 1_565 S
C1296 C1298 1.391 . S
C1297 C1296 1.386 1_545 S
C1297 C1301 1.393 . S
C1298 H1290 0.950 . S
C1298 C1296 1.391 . S
C1298 C1299 1.401 1_565 S
C1299 C1298 1.401 1_545 S
C1299 C1300 1.398 . S
C1299 C1305 1.491 1_544 S
C1300 H1291 0.950 . S
C1300 C1299 1.398 . S
C1300 C1301 1.391 . S
C1301 H1289 0.950 . S
C1301 C1297 1.393 . S
C1301 C1300 1.391 . S
C1302 H1292 0.950 . S
C1302 C1303 1.386 1_545 S
C1302 C1304 1.391 . S
C1303 C1302 1.386 1_565 S
C1303 C1307 1.393 . S
C1304 H1293 0.950 . S
C1304 C1302 1.391 . S
C1304 C1305 1.401 1_545 S
C1305 C1299 1.491 1_566 S
C1305 C1304 1.401 1_565 S
C1305 C1306 1.398 . S
C1306 H1294 0.950 . S
C1306 C1305 1.398 . S
C1306 C1307 1.391 . S
C1307 H1295 0.950 . S
C1307 C1303 1.393 . S
C1307 C1306 1.391 . S
H1308 C1316 0.950 . S
H1309 C1321 0.950 . S
H1310 C1318 0.950 . S
H1311 C1320 0.950 . S
H1312 C1322 0.950 . S
H1313 C1324 0.950 . S
H1314 C1326 0.950 . S
H1315 C1327 0.950 . S
C1316 H1308 0.950 . S
C1316 C1317 1.386 . S
C1316 C1318 1.391 . S
C1317 C1316 1.386 . S
C1317 C1321 1.393 1_455 S
C1318 H1310 0.950 . S
C1318 C1316 1.391 . S
C1318 C1319 1.400 1_455 S
C1319 C1318 1.400 1_655 S
C1319 C1320 1.398 . S
C1319 C1325 1.491 1_656 S
C1320 H1311 0.950 . S
C1320 C1319 1.398 . S
C1320 C1321 1.391 . S
C1321 H1309 0.950 . S
C1321 C1317 1.393 1_655 S
C1321 C1320 1.391 . S
C1322 H1312 0.950 . S
C1322 C1323 1.386 . S
C1322 C1324 1.391 . S
C1323 C1322 1.386 . S
C1323 C1327 1.393 1_655 S
C1324 H1313 0.950 . S
C1324 C1322 1.391 . S
C1324 C1325 1.400 1_655 S
C1325 C1319 1.491 1_454 S
C1325 C1324 1.400 1_455 S
C1325 C1326 1.398 . S
C1326 H1314 0.950 . S
C1326 C1325 1.398 . S
C1326 C1327 1.391 . S
C1327 H1315 0.950 . S
C1327 C1323 1.393 1_455 S
C1327 C1326 1.391 . S
C537 C73 1.096 . S
C543 C7 1.065 . S
C557 C106 1.101 . S
C563 C40 1.078 . S
C577 C205 1.097 . S
C583 C139 1.066 . S
C597 C172 1.058 . S
C603 C238 1.075 . S
C617 C271 1.065 . S
C623 C337 1.096 . S
C637 C304 1.067 . S
C643 C370 1.062 . S
C657 C469 1.080 . S
C663 C403 1.102 . S
C677 C502 1.093 . S
C683 C436 1.062 . S
C697 C18 1.237 . S
C703 C249 1.229 . S
C717 C150 1.234 . S
C723 C51 1.232 . S
C737 C183 1.238 . S
C743 C84 1.228 . S
C757 C216 1.235 . S
C763 C117 1.230 . S
C777 C513 1.235 . S
C783 C282 1.231 . S
C797 C414 1.234 . S
C803 C315 1.232 . S
C817 C447 1.234 . S
C823 C348 1.232 . S
C837 C480 1.235 . S
C843 C381 1.230 . S
C857 C21 0.791 . S
C863 N365 0.812 . S
C877 C54 0.831 . S
C883 N266 0.836 . S
C897 C87 0.762 . S
C903 N299 0.794 . S
C917 N332 0.834 . S
C923 C120 0.828 . S
C937 C153 0.768 . S
C943 N431 0.797 . S
C957 C186 0.830 . S
C963 N464 0.836 . S
C977 C219 0.758 . S
C983 N497 0.791 . S
C997 C252 0.830 . S
C1003 N398 0.836 . S
C1017 N101 0.820 . S
C1023 C285 0.805 . S
C1037 N2 0.834 . S
C1043 C318 0.827 . S
C1057 N35 0.792 . S
C1063 C351 0.759 . S
C1077 C384 0.831 . S
C1083 N68 0.836 . S
C1097 C417 0.754 . S
C1103 N167 0.789 . S
C1117 C450 0.798 . S
C1123 N200 0.816 . S
C1137 C483 0.765 . S
C1143 N233 0.796 . S
C1157 C516 0.761 . S
C1163 N134 0.793 . S
C1177 N145 1.676 . S
C1183 N13 1.668 . S
C1197 N178 1.691 . S
C1203 N46 1.663 . S
C1217 N79 1.662 . S
C1223 N211 1.691 . S
C1237 N244 1.661 . S
C1243 N112 1.687 . S
C1257 N277 1.661 . S
C1263 N409 1.690 . S
C1277 N442 1.661 . S
C1283 N310 1.688 . S
C1297 N475 1.684 . S
C1303 N343 1.662 . S
C1317 N508 1.674 . S
C1323 N376 1.669 . S
