# Generated by pormake.
# Topology umw, (4)-cn, num edge types: 1
# Building blocks:
#     Node 0, Type 0, BuildingBlock: QUQFOY_clean_sbu_3, # of connection points: 4
#     Node 1, Type 0, BuildingBlock: QUQFOY_clean_sbu_3, # of connection points: 4
#     Node 2, Type 0, BuildingBlock: QUQFOY_clean_sbu_3, # of connection points: 4
#     Node 3, Type 0, BuildingBlock: QUQFOY_clean_sbu_3, # of connection points: 4
#     Node 4, Type 0, BuildingBlock: QUQFOY_clean_sbu_3, # of connection points: 4
#     Node 5, Type 0, BuildingBlock: QUQFOY_clean_sbu_3, # of connection points: 4
#     Node 6, Type 0, BuildingBlock: QUQFOY_clean_sbu_3, # of connection points: 4
#     Node 7, Type 0, BuildingBlock: QUQFOY_clean_sbu_3, # of connection points: 4
#     Edge 8, Type (0, 0), BuildingBlock: MIFKUJ_clean_linker_0, # of connection points: 2
#     Edge 9, Type (0, 0), BuildingBlock: MIFKUJ_clean_linker_0, # of connection points: 2
#     Edge 10, Type (0, 0), BuildingBlock: MIFKUJ_clean_linker_0, # of connection points: 2
#     Edge 11, Type (0, 0), BuildingBlock: MIFKUJ_clean_linker_0, # of connection points: 2
#     Edge 12, Type (0, 0), BuildingBlock: MIFKUJ_clean_linker_0, # of connection points: 2
#     Edge 13, Type (0, 0), BuildingBlock: MIFKUJ_clean_linker_0, # of connection points: 2
#     Edge 14, Type (0, 0), BuildingBlock: MIFKUJ_clean_linker_0, # of connection points: 2
#     Edge 15, Type (0, 0), BuildingBlock: MIFKUJ_clean_linker_0, # of connection points: 2
#     Edge 16, Type (0, 0), BuildingBlock: MIFKUJ_clean_linker_0, # of connection points: 2
#     Edge 17, Type (0, 0), BuildingBlock: MIFKUJ_clean_linker_0, # of connection points: 2
#     Edge 18, Type (0, 0), BuildingBlock: MIFKUJ_clean_linker_0, # of connection points: 2
#     Edge 19, Type (0, 0), BuildingBlock: MIFKUJ_clean_linker_0, # of connection points: 2
#     Edge 20, Type (0, 0), BuildingBlock: MIFKUJ_clean_linker_0, # of connection points: 2
#     Edge 21, Type (0, 0), BuildingBlock: MIFKUJ_clean_linker_0, # of connection points: 2
#     Edge 22, Type (0, 0), BuildingBlock: MIFKUJ_clean_linker_0, # of connection points: 2
#     Edge 23, Type (0, 0), BuildingBlock: MIFKUJ_clean_linker_0, # of connection points: 2
# Relax obj value: 0.128
# Max RMSD: 0.103
# Mean RMSD: 0.103
data_MOF--net-umw--node1-QUQFOY_clean_sbu_3--edge1-MIFKUJ_clean_linker_0
_symmetry_space_group_name_H-M    P1
_symmetry_Int_Tables_number       1
_symmetry_cell_setting            triclinic
loop_
_symmetry_equiv_pos_as_xyz
'x, y, z'
_cell_length_a     54.521549
_cell_length_b     54.555013
_cell_length_c     33.772937
_cell_angle_alpha  89.959818
_cell_angle_beta   90.134233
_cell_angle_gamma 90.070075
loop_
_atom_site_label
_atom_site_type_symbol
_atom_site_fract_x
_atom_site_fract_y
_atom_site_fract_z
_atom_type_partial_charge
C0 C 0.44529 0.18912 0.22169 0.0
O1 O 0.46136 0.18333 0.24725 0.0
Cd2 Cd 0.45501 0.16803 0.31119 0.0
O3 O 0.4224 0.18642 0.22884 0.0
Cd4 Cd 0.39911 0.1724 0.28941 0.0
C5 C 0.42307 0.11537 0.29046 0.0
O6 O 0.42456 0.19599 0.3328 0.0
O7 O 0.40246 0.16962 0.36312 0.0
O8 O 0.36672 0.20267 0.27868 0.0
C9 C 0.41649 0.18809 0.36525 0.0
O10 O 0.44248 0.1253 0.30401 0.0
C11 C 0.34948 0.18866 0.28997 0.0
O12 O 0.40476 0.12841 0.28034 0.0
O13 O 0.35506 0.16644 0.29638 0.0
C14 C 0.8254 0.46141 0.50343 0.0
O15 O 0.8318 0.47456 0.53268 0.0
Cd16 Cd 0.84029 0.4608 0.5979 0.0
O17 O 0.82358 0.43816 0.50695 0.0
Cd18 Cd 0.83023 0.40841 0.56251 0.0
C19 C 0.88918 0.42353 0.57816 0.0
O20 O 0.80853 0.43233 0.61113 0.0
O21 O 0.8311 0.40374 0.63529 0.0
O22 O 0.79536 0.38383 0.54158 0.0
C23 C 0.81457 0.41965 0.64087 0.0
O24 O 0.88067 0.44183 0.59698 0.0
C25 C 0.80543 0.36328 0.54839 0.0
O26 O 0.87506 0.40927 0.5588 0.0
O27 O 0.82812 0.3637 0.55697 0.0
C28 C 0.54513 0.81341 0.72477 0.0
O29 O 0.52911 0.82101 0.74905 0.0
Cd30 Cd 0.53373 0.83054 0.81652 0.0
O31 O 0.56754 0.81083 0.73536 0.0
Cd32 Cd 0.5901 0.81845 0.79954 0.0
C33 C 0.57371 0.87841 0.80657 0.0
O34 O 0.55925 0.79771 0.83699 0.0
O35 O 0.58515 0.81695 0.87312 0.0
O36 O 0.61913 0.78474 0.79008 0.0
C37 C 0.56733 0.80207 0.8712 0.0
O38 O 0.55258 0.87094 0.81703 0.0
C39 C 0.63788 0.79721 0.7999 0.0
O40 O 0.59029 0.86327 0.79651 0.0
O41 O 0.63455 0.81991 0.80592 0.0
C42 C 0.1944 0.54747 0.96959 0.0
O43 O 0.18854 0.53163 -0.00456 0.0
Cd44 Cd 0.17127 0.5397 0.05843 0.0
O45 O 0.19144 0.57031 0.97633 0.0
Cd46 Cd 0.1762 0.59493 0.03392 0.0
C47 C 0.11951 0.5712 0.02953 0.0
O48 O 0.1959 0.57144 0.08571 0.0
O49 O 0.1658 0.59381 0.10492 0.0
O50 O 0.20899 0.62484 0.02633 0.0
C51 C 0.18406 0.58065 0.11415 0.0
O52 O 0.12896 0.55275 0.04696 0.0
C53 C 0.19559 0.64342 0.03276 0.0
O54 O 0.13291 0.58889 0.01772 0.0
O55 O 0.17267 0.6396 0.03532 0.0
C56 C 0.43933 0.78053 0.34766 0.0
O57 O 0.45555 0.78397 0.32133 0.0
Cd58 Cd 0.45025 0.7988 0.25625 0.0
O59 O 0.41659 0.78419 0.34035 0.0
Cd60 Cd 0.3925 0.79565 0.27938 0.0
C61 C 0.41841 0.8521 0.27666 0.0
O62 O 0.4179 0.77375 0.23344 0.0
O63 O 0.3932 0.79921 0.20626 0.0
O64 O 0.36073 0.76477 0.28916 0.0
C65 C 0.40905 0.7825 0.20192 0.0
O66 O 0.43775 0.84163 0.26399 0.0
C67 C 0.34302 0.77921 0.28187 0.0
O68 O 0.39959 0.83961 0.28632 0.0
O69 O 0.34829 0.80177 0.27803 0.0
C70 C 0.2236 0.44915 0.58676 0.0
O71 O 0.21775 0.46507 0.56101 0.0
Cd72 Cd 0.19923 0.45822 0.49858 0.0
O73 O 0.2209 0.42629 0.5797 0.0
Cd74 Cd 0.20651 0.40224 0.52067 0.0
C75 C 0.14956 0.42444 0.53043 0.0
O76 O 0.22287 0.42735 0.4679 0.0
O77 O 0.19205 0.40512 0.45159 0.0
O78 O 0.23887 0.37129 0.52125 0.0
C79 C 0.20893 0.41959 0.44072 0.0
O80 O 0.15769 0.44358 0.51317 0.0
C81 C 0.22427 0.35316 0.51902 0.0
O82 O 0.16392 0.40702 0.54 0.0
O83 O 0.20152 0.35788 0.52107 0.0
C84 C 0.54696 0.2088 0.84214 0.0
O85 O 0.53105 0.20182 0.81709 0.0
Cd86 Cd 0.53798 0.18691 0.75297 0.0
O87 O 0.56981 0.20858 0.83366 0.0
Cd88 Cd 0.59369 0.19798 0.77218 0.0
C89 C 0.57678 0.13878 0.77491 0.0
O90 O 0.56525 0.21645 0.72696 0.0
O91 O 0.58961 0.19072 0.69982 0.0
O92 O 0.61989 0.23384 0.77608 0.0
C93 C 0.57356 0.20729 0.69551 0.0
O94 O 0.55627 0.14652 0.76187 0.0
C95 C 0.63975 0.22256 0.76902 0.0
O96 O 0.59388 0.15374 0.78375 0.0
O97 O 0.63861 0.19932 0.76778 0.0
C98 C 0.79258 0.55798 0.11836 0.0
O99 O 0.79572 0.53938 0.09632 0.0
Cd100 Cd 0.804 0.53639 0.02774 0.0
O101 O 0.79359 0.57975 0.10435 0.0
Cd102 Cd 0.80011 0.59674 0.03596 0.0
C103 C 0.85683 0.5709 0.02632 0.0
O104 O 0.7764 0.56573 0.00293 0.0
O105 O 0.79711 0.58866 0.96409 0.0
O106 O 0.77092 0.63066 0.04079 0.0
C107 C 0.78207 0.57114 0.96784 0.0
O108 O 0.84639 0.55035 0.02005 0.0
C109 C 0.78581 0.64657 0.02732 0.0
O110 O 0.84435 0.58983 0.03531 0.0
O111 O 0.80777 0.63966 0.02197 0.0
H112 H 0.41553 0.16511 0.4374 0.0
H113 H 0.44095 0.17523 0.49506 0.0
H114 H 0.46873 0.23905 0.43424 0.0
H115 H 0.44367 0.22898 0.37664 0.0
H116 H 0.50509 0.21025 0.45967 0.0
H117 H 0.43306 0.24639 0.51311 0.0
H118 H 0.38954 0.24854 0.53232 0.0
H119 H 0.40003 0.18911 0.61403 0.0
H120 H 0.44358 0.18636 0.59487 0.0
H121 H 0.54283 0.24459 0.67728 0.0
H122 H 0.5159 0.24775 0.61969 0.0
H123 H 0.54646 0.18086 0.5728 0.0
H124 H 0.57391 0.17792 0.62998 0.0
H125 H 0.48062 0.21711 0.60057 0.0
H126 H 0.54216 0.18065 0.47348 0.0
H127 H 0.58561 0.18175 0.45335 0.0
H128 H 0.59591 0.24896 0.51737 0.0
H129 H 0.55245 0.24845 0.53744 0.0
C130 C 0.42665 0.18157 0.43674 0.0
C131 C 0.42795 0.19608 0.40247 0.0
C132 C 0.44111 0.18735 0.46963 0.0
C133 C 0.45678 0.20779 0.46863 0.0
C134 C 0.45689 0.2231 0.43535 0.0
C135 C 0.44255 0.21732 0.40256 0.0
C136 C 0.4748 0.21189 0.50053 0.0
C137 C 0.49977 0.2119 0.49049 0.0
C138 C 0.46772 0.21441 0.54049 0.0
C139 C 0.44156 0.21604 0.5523 0.0
C140 C 0.42605 0.23364 0.53495 0.0
C141 C 0.40138 0.235 0.54587 0.0
C142 C 0.392 0.21894 0.57431 0.0
C143 C 0.40731 0.20153 0.59197 0.0
C144 C 0.43201 0.20008 0.58112 0.0
C145 C 0.54411 0.2308 0.6543 0.0
C146 C 0.56032 0.21093 0.65807 0.0
C147 C 0.52867 0.23259 0.62157 0.0
C148 C 0.52916 0.21453 0.59212 0.0
C149 C 0.54602 0.19516 0.59502 0.0
C150 C 0.56168 0.19348 0.62765 0.0
C151 C 0.51095 0.21509 0.55976 0.0
C152 C 0.48594 0.21576 0.56972 0.0
C153 C 0.51797 0.21372 0.51959 0.0
C154 C 0.54408 0.21438 0.50722 0.0
C155 C 0.55367 0.19572 0.4831 0.0
C156 C 0.5783 0.19623 0.47174 0.0
C157 C 0.59352 0.21537 0.48416 0.0
C158 C 0.58412 0.2341 0.50788 0.0
C159 C 0.55949 0.23369 0.51931 0.0
H160 H 0.6126 0.21572 0.47536 0.0
H161 H 0.37288 0.22001 0.58272 0.0
H162 H 0.83343 0.40489 0.71229 0.0
H163 H 0.82346 0.42183 0.77755 0.0
H164 H 0.76824 0.46786 0.72395 0.0
H165 H 0.7778 0.45092 0.65927 0.0
H166 H 0.83013 0.46799 0.79766 0.0
H167 H 0.72332 0.4808 0.7856 0.0
H168 H 0.68763 0.45679 0.76289 0.0
H169 H 0.72816 0.39008 0.77913 0.0
H170 H 0.76388 0.41359 0.80247 0.0
H171 H 0.79676 0.57504 0.89094 0.0
H172 H 0.79817 0.54209 0.84205 0.0
H173 H 0.76206 0.49338 0.9241 0.0
H174 H 0.76007 0.52635 0.97284 0.0
H175 H 0.74689 0.4849 0.85023 0.0
H176 H 0.82259 0.49149 0.91762 0.0
H177 H 0.85876 0.51242 0.94572 0.0
H178 H 0.88197 0.53317 0.82902 0.0
H179 H 0.84566 0.51279 0.80022 0.0
C180 C 0.81881 0.41823 0.71468 0.0
C181 C 0.80657 0.42684 0.68076 0.0
C182 C 0.81317 0.42788 0.75188 0.0
C183 C 0.79505 0.44599 0.75556 0.0
C184 C 0.782 0.45361 0.72192 0.0
C185 C 0.78765 0.44407 0.68489 0.0
C186 C 0.79162 0.45934 0.79317 0.0
C187 C 0.81198 0.47142 0.80953 0.0
C188 C 0.76803 0.46326 0.80928 0.0
C189 C 0.74637 0.44902 0.79563 0.0
C190 C 0.72456 0.461 0.78459 0.0
C191 C 0.70431 0.44746 0.77152 0.0
C192 C 0.7056 0.42191 0.76948 0.0
C193 C 0.72714 0.40985 0.78058 0.0
C194 C 0.74742 0.42328 0.79367 0.0
C195 C 0.78868 0.55747 0.89826 0.0
C196 C 0.77868 0.55313 0.93588 0.0
C197 C 0.78962 0.53865 0.87045 0.0
C198 C 0.78082 0.51519 0.88003 0.0
C199 C 0.76916 0.51132 0.9164 0.0
C200 C 0.76805 0.53018 0.94415 0.0
C201 C 0.78519 0.49449 0.85291 0.0
C202 C 0.76506 0.48106 0.83878 0.0
C203 C 0.80911 0.48874 0.83971 0.0
C204 C 0.83128 0.50071 0.85676 0.0
C205 C 0.83532 0.50064 0.89794 0.0
C206 C 0.85585 0.51241 0.914 0.0
C207 C 0.87264 0.52413 0.88918 0.0
C208 C 0.86895 0.52407 0.84821 0.0
C209 C 0.84839 0.5124 0.832 0.0
H210 H 0.88851 0.53324 0.90169 0.0
H211 H 0.68991 0.41147 0.75934 0.0
H212 H 0.39719 0.80198 0.12974 0.0
H213 H 0.42191 0.80026 0.06934 0.0
H214 H 0.47417 0.75348 0.1287 0.0
H215 H 0.4494 0.75458 0.18846 0.0
H216 H 0.46638 0.81799 0.06205 0.0
H217 H 0.50455 0.71832 0.0639 0.0
H218 H 0.49038 0.67667 0.08082 0.0
H219 H 0.41578 0.69822 0.05966 0.0
H220 H 0.42951 0.7399 0.04207 0.0
H221 H 0.57414 0.81597 0.94849 0.0
H222 H 0.54643 0.80782 0.00406 0.0
H223 H 0.50019 0.76429 0.9276 0.0
H224 H 0.52791 0.77179 0.87255 0.0
H225 H 0.50233 0.74431 -0.00129 0.0
H226 H 0.48727 0.82411 0.94387 0.0
H227 H 0.49848 0.86582 0.9222 0.0
H228 H 0.52042 0.88398 0.04082 0.0
H229 H 0.50967 0.84223 0.06306 0.0
C230 C 0.41369 0.79093 0.12956 0.0
C231 C 0.42152 0.77862 0.16385 0.0
C232 C 0.4278 0.79002 0.09515 0.0
C233 C 0.44985 0.77674 0.09458 0.0
C234 C 0.45705 0.76354 0.12827 0.0
C235 C 0.44291 0.7643 0.16249 0.0
C236 C 0.46654 0.77848 0.0603 0.0
C237 C 0.47411 0.80186 0.04805 0.0
C238 C 0.4765 0.75744 0.04191 0.0
C239 C 0.46807 0.73231 0.05198 0.0
C240 C 0.48513 0.71415 0.06267 0.0
C241 C 0.47717 0.69053 0.07242 0.0
C242 C 0.45219 0.68482 0.07142 0.0
C243 C 0.43512 0.70269 0.06056 0.0
C244 C 0.44298 0.72633 0.05076 0.0
C245 C 0.55829 0.80433 0.9438 0.0
C246 C 0.55295 0.79483 0.90613 0.0
C247 C 0.54246 0.79977 0.97544 0.0
C248 C 0.52105 0.78584 0.96963 0.0
C249 C 0.51655 0.77515 0.93264 0.0
C250 C 0.53236 0.77959 0.90117 0.0
C251 C 0.50236 0.78377 0.00102 0.0
C252 C 0.4945 0.76038 0.01273 0.0
C253 C 0.49164 0.8048 0.01824 0.0
C254 C 0.49789 0.82999 0.00504 0.0
C255 C 0.49463 0.83695 0.96527 0.0
C256 C 0.50089 0.8606 0.95289 0.0
C257 C 0.51021 0.87752 0.9801 0.0
C258 C 0.51323 0.87084 0.01977 0.0
C259 C 0.50705 0.8472 0.03228 0.0
H260 H 0.51504 0.89582 0.97046 0.0
H261 H 0.44607 0.66654 0.07901 0.0
H262 H 0.24537 0.4437 0.4024 0.0
H263 H 0.24083 0.47261 0.34753 0.0
H264 H 0.16324 0.45691 0.34246 0.0
H265 H 0.16797 0.42709 0.39593 0.0
H266 H 0.17858 0.46431 0.27179 0.0
H267 H 0.18691 0.50738 0.39345 0.0
H268 H 0.20566 0.51864 0.4574 0.0
H269 H 0.27035 0.54375 0.3974 0.0
H270 H 0.25214 0.53224 0.33308 0.0
H271 H 0.14896 0.5742 0.17055 0.0
H272 H 0.15294 0.54951 0.23091 0.0
H273 H 0.2302 0.54037 0.20836 0.0
H274 H 0.22623 0.56439 0.14741 0.0
H275 H 0.21237 0.54768 0.2951 0.0
H276 H 0.20182 0.49936 0.17293 0.0
H277 H 0.1793 0.49066 0.11107 0.0
H278 H 0.11331 0.47827 0.17733 0.0
H279 H 0.13537 0.4874 0.23954 0.0
C280 C 0.22748 0.44606 0.3889 0.0
C281 C 0.20701 0.43336 0.40344 0.0
C282 C 0.22484 0.46272 0.35788 0.0
C283 C 0.20155 0.46749 0.34177 0.0
C284 C 0.18135 0.45367 0.35466 0.0
C285 C 0.18408 0.43659 0.38513 0.0
C286 C 0.19811 0.4876 0.3128 0.0
C287 C 0.18574 0.48257 0.27724 0.0
C288 C 0.20729 0.51155 0.31987 0.0
C289 C 0.21824 0.51874 0.35846 0.0
C290 C 0.2052 0.51515 0.3939 0.0
C291 C 0.21573 0.52159 0.43022 0.0
C292 C 0.2392 0.53186 0.43147 0.0
C293 C 0.25217 0.53577 0.39638 0.0
C294 C 0.24175 0.5293 0.35998 0.0
C295 C 0.1669 0.5675 0.1791 0.0
C296 C 0.18726 0.57085 0.15429 0.0
C297 C 0.16913 0.55345 0.21348 0.0
C298 C 0.19182 0.54312 0.22366 0.0
C299 C 0.21259 0.54831 0.20083 0.0
C300 C 0.21027 0.56188 0.16605 0.0
C301 C 0.19327 0.52409 0.25444 0.0
C302 C 0.20519 0.52938 0.29014 0.0
C303 C 0.18319 0.50056 0.248 0.0
C304 C 0.17016 0.49431 0.21078 0.0
C305 C 0.18247 0.49496 0.17425 0.0
C306 C 0.1698 0.48994 0.13914 0.0
C307 C 0.14487 0.48397 0.14026 0.0
C308 C 0.1326 0.48292 0.17651 0.0
C309 C 0.14518 0.48802 0.2117 0.0
H310 H 0.13509 0.48011 0.11304 0.0
H311 H 0.24732 0.53683 0.45962 0.0
H312 H 0.315 0.16573 0.33518 0.0
H313 H 0.2842 0.18593 0.37613 0.0
H314 H 0.30045 0.25493 0.3196 0.0
H315 H 0.3316 0.23498 0.27893 0.0
H316 H 0.30057 0.22236 0.42808 0.0
H317 H 0.24827 0.29054 0.32592 0.0
H318 H 0.23014 0.29129 0.25897 0.0
H319 H 0.22189 0.21303 0.26173 0.0
H320 H 0.23962 0.21182 0.32891 0.0
H321 H 0.27165 0.33812 0.50931 0.0
H322 H 0.28533 0.30135 0.47474 0.0
H323 H 0.2105 0.27608 0.4664 0.0
H324 H 0.19662 0.31291 0.50087 0.0
H325 H 0.23198 0.27836 0.39477 0.0
H326 H 0.2517 0.24403 0.52064 0.0
H327 H 0.26971 0.24262 0.58763 0.0
H328 H 0.34179 0.25119 0.53863 0.0
H329 H 0.32423 0.25304 0.47137 0.0
C330 C 0.31142 0.18503 0.33036 0.0
C331 C 0.32598 0.19885 0.30417 0.0
C332 C 0.29389 0.19655 0.35399 0.0
C333 C 0.29026 0.22192 0.35114 0.0
C334 C 0.30294 0.23529 0.32214 0.0
C335 C 0.32073 0.22385 0.29887 0.0
C336 C 0.2763 0.23507 0.38205 0.0
C337 C 0.28536 0.2344 0.42099 0.0
C338 C 0.25633 0.2505 0.37273 0.0
C339 C 0.24545 0.25109 0.3324 0.0
C340 C 0.24248 0.2735 0.31235 0.0
C341 C 0.23229 0.274 0.27432 0.0
C342 C 0.22492 0.25222 0.25607 0.0
C343 C 0.22768 0.22988 0.27584 0.0
C344 C 0.23785 0.22928 0.31387 0.0
C345 C 0.25817 0.32441 0.5012 0.0
C346 C 0.23304 0.32854 0.50752 0.0
C347 C 0.26602 0.30336 0.48146 0.0
C348 C 0.24891 0.28602 0.46785 0.0
C349 C 0.22398 0.28928 0.47655 0.0
C350 C 0.21612 0.31029 0.49644 0.0
C351 C 0.25681 0.26629 0.44058 0.0
C352 C 0.24679 0.26589 0.4022 0.0
C353 C 0.27591 0.24986 0.45043 0.0
C354 C 0.28659 0.2488 0.49091 0.0
C355 C 0.27138 0.24581 0.52414 0.0
C356 C 0.28152 0.24489 0.56218 0.0
C357 C 0.30688 0.24683 0.56738 0.0
C358 C 0.32216 0.24967 0.53455 0.0
C359 C 0.31212 0.25062 0.49645 0.0
H360 H 0.31469 0.24611 0.59685 0.0
H361 H 0.21704 0.25265 0.22664 0.0
H362 H 0.82073 0.31815 0.57423 0.0
H363 H 0.79515 0.28827 0.60923 0.0
H364 H 0.73054 0.32945 0.57803 0.0
H365 H 0.75574 0.35912 0.54252 0.0
H366 H 0.74492 0.32548 0.66383 0.0
H367 H 0.73094 0.27764 0.5448 0.0
H368 H 0.74394 0.2531 0.4873 0.0
H369 H 0.7793 0.20161 0.56481 0.0
H370 H 0.7668 0.22606 0.62278 0.0
H371 H 0.64229 0.27029 0.74707 0.0
H372 H 0.67448 0.2898 0.70912 0.0
H373 H 0.7194 0.22505 0.72068 0.0
H374 H 0.68617 0.20466 0.75683 0.0
H375 H 0.72067 0.23836 0.64866 0.0
H376 H 0.73448 0.28336 0.76766 0.0
H377 H 0.7233 0.30725 0.82692 0.0
H378 H 0.69173 0.36314 0.75322 0.0
H379 H 0.70281 0.33967 0.69356 0.0
C380 C 0.80099 0.32028 0.57332 0.0
C381 C 0.7903 0.34127 0.55623 0.0
C382 C 0.78642 0.30322 0.59346 0.0
C383 C 0.76107 0.30696 0.59663 0.0
C384 C 0.75013 0.3264 0.57601 0.0
C385 C 0.76459 0.34329 0.55559 0.0
C386 C 0.74665 0.29353 0.62663 0.0
C387 C 0.73942 0.30646 0.66048 0.0
C388 C 0.74062 0.26847 0.62296 0.0
C389 C 0.74822 0.25386 0.5881 0.0
C390 C 0.74174 0.26125 0.54957 0.0
C391 C 0.74895 0.24731 0.51689 0.0
C392 C 0.76251 0.22586 0.52239 0.0
C393 C 0.76884 0.21826 0.56059 0.0
C394 C 0.76168 0.23214 0.59336 0.0
C395 C 0.65924 0.26035 0.74254 0.0
C396 C 0.66168 0.23593 0.75507 0.0
C397 C 0.67779 0.27163 0.72084 0.0
C398 C 0.69967 0.25911 0.71237 0.0
C399 C 0.70273 0.23512 0.72677 0.0
C400 C 0.68383 0.22356 0.74777 0.0
C401 C 0.71817 0.27051 0.68572 0.0
C402 C 0.72639 0.25725 0.65255 0.0
C403 C 0.7256 0.29524 0.69034 0.0
C404 C 0.71941 0.3097 0.72616 0.0
C405 C 0.72515 0.30075 0.76412 0.0
C406 C 0.71887 0.31425 0.79778 0.0
C407 C 0.70685 0.33672 0.79384 0.0
C408 C 0.70115 0.34579 0.75624 0.0
C409 C 0.70753 0.33246 0.72249 0.0
H410 H 0.70195 0.34713 0.81993 0.0
H411 H 0.76806 0.21508 0.49705 0.0
H412 H 0.81132 0.67899 0.98173 0.0
H413 H 0.79409 0.7118 0.94108 0.0
H414 H 0.72323 0.70008 -0.00567 0.0
H415 H 0.74022 0.66697 0.03478 0.0
H416 H 0.75718 0.70183 0.88635 0.0
H417 H 0.69279 0.75534 0.99252 0.0
H418 H 0.69269 0.77003 0.06156 0.0
H419 H 0.77144 0.77067 0.0626 0.0
H420 H 0.77203 0.75633 0.99341 0.0
H421 H 0.6482 0.74822 0.80093 0.0
H422 H 0.68216 0.72852 0.83557 0.0
H423 H 0.7141 0.7993 0.86017 0.0
H424 H 0.67994 0.8192 0.82601 0.0
H425 H 0.70805 0.77407 0.92643 0.0
H426 H 0.74375 0.75784 0.80054 0.0
H427 H 0.74489 0.74383 0.73118 0.0
H428 H 0.72657 0.67077 0.76816 0.0
H429 H 0.72497 0.68439 0.8377 0.0
C430 C 0.79223 0.68384 0.9857 0.0
C431 C 0.77706 0.67022 0.01126 0.0
C432 C 0.78241 0.70251 0.96224 0.0
C433 C 0.7574 0.70821 0.96451 0.0
C434 C 0.74263 0.69601 0.99227 0.0
C435 C 0.75237 0.67711 0.01542 0.0
C436 C 0.74604 0.72477 0.93496 0.0
C437 C 0.74663 0.7178 0.89496 0.0
C438 C 0.73263 0.74574 0.94626 0.0
C439 C 0.73243 0.75457 0.98782 0.0
C440 C 0.71008 0.75872 0.0074 0.0
C441 C 0.70994 0.76697 0.04659 0.0
C442 C 0.73204 0.77122 0.06649 0.0
C443 C 0.75433 0.76728 0.04721 0.0
C444 C 0.75458 0.75905 0.00802 0.0
C445 C 0.66282 0.75959 0.81262 0.0
C446 C 0.66124 0.78528 0.81106 0.0
C447 C 0.68228 0.74828 0.83242 0.0
C448 C 0.70064 0.76244 0.85063 0.0
C449 C 0.70006 0.78803 0.84651 0.0
C450 C 0.68058 0.79936 0.82678 0.0
C451 C 0.71853 0.75072 0.87784 0.0
C452 C 0.71902 0.75845 0.91754 0.0
C453 C 0.73306 0.73052 0.86618 0.0
C454 C 0.73413 0.72219 0.82437 0.0
C455 C 0.73981 0.73882 0.79388 0.0
C456 C 0.74056 0.73094 0.75452 0.0
C457 C 0.73578 0.70643 0.74527 0.0
C458 C 0.73028 0.68974 0.77537 0.0
C459 C 0.72949 0.69753 0.81478 0.0
H460 H 0.73636 0.70037 0.71478 0.0
H461 H 0.73189 0.7776 0.09682 0.0
H462 H 0.24384 0.65677 0.03033 0.0
H463 H 0.26317 0.68792 0.07183 0.0
H464 H 0.19194 0.71358 0.10824 0.0
H465 H 0.1724 0.68243 0.06682 0.0
H466 H 0.26326 0.73767 0.08752 0.0
H467 H 0.19363 0.71456 0.21003 0.0
H468 H 0.1643 0.68168 0.22706 0.0
H469 H 0.20863 0.62923 0.1652 0.0
H470 H 0.23836 0.66171 0.14839 0.0
H471 H 0.30487 0.80492 0.24979 0.0
H472 H 0.27222 0.78777 0.20861 0.0
H473 H 0.29443 0.71474 0.24176 0.0
H474 H 0.32713 0.73169 0.28301 0.0
H475 H 0.2444 0.71778 0.22779 0.0
H476 H 0.32083 0.73913 0.16534 0.0
H477 H 0.35482 0.76704 0.14817 0.0
H478 H 0.30428 0.81511 0.08903 0.0
H479 H 0.26992 0.78764 0.10647 0.0
C480 C 0.23225 0.66963 0.04596 0.0
C481 C 0.20661 0.66682 0.04591 0.0
C482 C 0.24334 0.68746 0.06967 0.0
C483 C 0.22897 0.70263 0.09378 0.0
C484 C 0.20333 0.70178 0.09022 0.0
C485 C 0.1922 0.68403 0.06635 0.0
C486 C 0.24071 0.71623 0.12673 0.0
C487 C 0.25882 0.73368 0.11816 0.0
C488 C 0.23547 0.71039 0.16674 0.0
C489 C 0.21801 0.69063 0.17755 0.0
C490 C 0.19713 0.69599 0.20021 0.0
C491 C 0.18045 0.67743 0.20982 0.0
C492 C 0.18455 0.65341 0.19708 0.0
C493 C 0.20542 0.64786 0.17492 0.0
C494 C 0.22218 0.66634 0.16534 0.0
C495 C 0.30224 0.78524 0.24959 0.0
C496 C 0.3189 0.76963 0.26904 0.0
C497 C 0.28362 0.77548 0.22586 0.0
C498 C 0.28133 0.75001 0.22145 0.0
C499 C 0.29601 0.73446 0.24459 0.0
C500 C 0.31471 0.7442 0.26818 0.0
C501 C 0.26661 0.73959 0.18859 0.0
C502 C 0.24819 0.72246 0.19717 0.0
C503 C 0.27214 0.74512 0.14857 0.0
C504 C 0.29278 0.76151 0.13763 0.0
C505 C 0.31695 0.75576 0.14895 0.0
C506 C 0.33628 0.77147 0.13914 0.0
C507 C 0.3317 0.79287 0.11762 0.0
C508 C 0.30779 0.79855 0.10577 0.0
C509 C 0.28838 0.78292 0.11562 0.0
H510 H 0.34669 0.80501 0.11004 0.0
H511 H 0.17159 0.63908 0.20447 0.0
H512 H 0.45719 0.88375 0.27313 0.0
H513 H 0.45623 0.92846 0.27669 0.0
H514 H 0.3776 0.92654 0.28989 0.0
H515 H 0.37834 0.88168 0.28659 0.0
H516 H 0.39469 0.96069 0.2326 0.0
H517 H 0.40992 0.93825 0.36816 0.0
H518 H 0.43151 0.91678 0.42222 0.0
H519 H 0.49851 0.95356 0.39162 0.0
H520 H 0.4774 0.97499 0.33698 0.0
H521 H 0.38208 0.08684 0.28188 0.0
H522 H 0.37993 0.0421 0.28015 0.0
H523 H 0.4588 0.03818 0.28941 0.0
H524 H 0.461 0.08281 0.2926 0.0
H525 H 0.43968 0.00645 0.33691 0.0
H526 H 0.4267 0.02735 0.2005 0.0
H527 H 0.40693 0.04824 0.14407 0.0
H528 H 0.33823 0.01412 0.17286 0.0
H529 H 0.35752 0.99327 0.22979 0.0
C530 C 0.43967 0.8928 0.27687 0.0
C531 C 0.41783 0.87915 0.27964 0.0
C532 C 0.43918 0.91834 0.27901 0.0
C533 C 0.41686 0.93073 0.28375 0.0
C534 C 0.395 0.91725 0.28626 0.0
C535 C 0.39549 0.89165 0.28455 0.0
C536 C 0.41645 0.95782 0.28565 0.0
C537 C 0.40418 0.97077 0.25571 0.0
C538 C 0.42942 0.97081 0.31523 0.0
C539 C 0.44212 0.95806 0.34825 0.0
C540 C 0.4293 0.94161 0.37275 0.0
C541 C 0.44145 0.92948 0.40354 0.0
C542 C 0.46638 0.93376 0.41029 0.0
C543 C 0.47921 0.95024 0.38633 0.0
C544 C 0.46716 0.96241 0.35547 0.0
C545 C 0.39897 0.07644 0.2833 0.0
C546 C 0.42171 0.08836 0.28736 0.0
C547 C 0.39773 0.05085 0.28216 0.0
C548 C 0.41923 0.03673 0.2842 0.0
C549 C 0.44195 0.04866 0.28789 0.0
C550 C 0.44319 0.07419 0.2896 0.0
C551 C 0.41812 0.00953 0.28352 0.0
C552 C 0.43009 0.99649 0.31378 0.0
C553 C 0.40514 0.99646 0.25389 0.0
C554 C 0.3935 0.00895 0.21965 0.0
C555 C 0.40733 0.02445 0.19498 0.0
C556 C 0.39622 0.03626 0.16287 0.0
C557 C 0.37132 0.03256 0.15495 0.0
C558 C 0.3575 0.017 0.17907 0.0
C559 C 0.36852 0.00516 0.21124 0.0
H560 H 0.36275 0.04172 0.13008 0.0
H561 H 0.47575 0.92434 0.43413 0.0
H562 H 0.91691 0.40125 0.52129 0.0
H563 H 0.96165 0.39825 0.51919 0.0
H564 H 0.96626 0.43269 0.63408 0.0
H565 H 0.92172 0.43686 0.63524 0.0
H566 H 0.99719 0.45299 0.59056 0.0
H567 H 0.97908 0.36951 0.61743 0.0
H568 H 0.959 0.32932 0.6091 0.0
H569 H 0.9903 0.32244 0.49311 0.0
H570 H 0.01032 0.36276 0.50051 0.0
H571 H 0.12653 0.39093 0.57802 0.0
H572 H 0.08266 0.38806 0.59249 0.0
H573 H 0.06884 0.44966 0.5154 0.0
H574 H 0.11259 0.45311 0.50177 0.0
H575 H 0.0437 0.3792 0.54954 0.0
H576 H 0.02316 0.48413 0.54944 0.0
H577 H 0.0443 0.52268 0.56676 0.0
H578 H 0.09156 0.48366 0.64671 0.0
H579 H 0.07044 0.44495 0.6304 0.0
C580 C 0.92751 0.40793 0.54623 0.0
C581 C 0.91591 0.41941 0.57831 0.0
C582 C 0.95307 0.40608 0.54515 0.0
C583 C 0.96741 0.41505 0.57666 0.0
C584 C 0.95567 0.42577 0.6093 0.0
C585 C 0.93021 0.4281 0.60998 0.0
C586 C 0.99462 0.4148 0.57451 0.0
C587 C 0.0073 0.43678 0.58181 0.0
C588 C 0.00802 0.39355 0.56402 0.0
C589 C 0.99605 0.36926 0.55942 0.0
C590 C 0.98154 0.35951 0.59003 0.0
C591 C 0.97019 0.33669 0.58549 0.0
C592 C 0.97333 0.32336 0.55057 0.0
C593 C 0.98788 0.3328 0.52014 0.0
C594 C -0.00075 0.35562 0.5245 0.0
C595 C 0.11414 0.40391 0.56425 0.0
C596 C 0.12306 0.42239 0.53902 0.0
C597 C 0.08908 0.40218 0.57245 0.0
C598 C 0.07252 0.41885 0.55546 0.0
C599 C 0.08134 0.43694 0.52955 0.0
C600 C 0.10637 0.43885 0.5217 0.0
C601 C 0.04599 0.41749 0.56473 0.0
C602 C 0.03349 0.39528 0.55868 0.0
C603 C 0.03283 0.43828 0.57784 0.0
C604 C 0.04533 0.4616 0.5884 0.0
C605 C 0.03796 0.4838 0.57089 0.0
C606 C 0.04996 0.50567 0.58051 0.0
C607 C 0.0693 0.50561 0.60773 0.0
C608 C 0.07662 0.48367 0.62554 0.0
C609 C 0.06466 0.46176 0.61609 0.0
H610 H 0.07859 0.52255 0.61508 0.0
H611 H 0.96453 0.30569 0.54711 0.0
H612 H 0.54009 0.91525 0.80759 0.0
H613 H 0.54752 0.95916 0.80128 0.0
H614 H 0.6254 0.94621 0.79538 0.0
H615 H 0.61816 0.90188 0.80109 0.0
H616 H 0.60743 0.98709 0.84903 0.0
H617 H 0.60451 0.95831 0.71503 0.0
H618 H 0.58756 0.93462 0.65914 0.0
H619 H 0.52014 0.97492 0.66664 0.0
H620 H 0.53654 0.99859 0.72302 0.0
H621 H 0.61961 0.11417 0.79145 0.0
H622 H 0.62535 0.06969 0.79625 0.0
H623 H 0.54813 0.05878 0.77403 0.0
H624 H 0.54236 0.10283 0.76839 0.0
H625 H 0.57417 0.02889 0.72994 0.0
H626 H 0.57402 0.05358 0.86775 0.0
H627 H 0.58886 0.07647 0.92604 0.0
H628 H 0.66004 0.04382 0.91345 0.0
H629 H 0.64568 0.02095 0.85475 0.0
C630 C 0.55884 0.92166 0.8052 0.0
C631 C 0.57854 0.90507 0.80467 0.0
C632 C 0.56302 0.94675 0.80155 0.0
C633 C 0.58697 0.95579 0.7977 0.0
C634 C 0.6068 0.93947 0.79832 0.0
C635 C 0.60261 0.91421 0.8014 0.0
C636 C 0.59077 0.98233 0.79172 0.0
C637 C 0.60071 0.9963 0.82267 0.0
C638 C 0.5816 0.99416 0.75756 0.0
C639 C 0.57171 0.9801 0.72345 0.0
C640 C 0.58599 0.96198 0.70498 0.0
C641 C 0.5765 0.94858 0.67317 0.0
C642 C 0.55277 0.95323 0.6594 0.0
C643 C 0.53851 0.97133 0.67736 0.0
C644 C 0.54791 0.98477 0.70921 0.0
C645 C 0.60386 0.10227 0.78773 0.0
C646 C 0.58053 0.11205 0.77942 0.0
C647 C 0.60716 0.07687 0.79058 0.0
C648 C 0.58715 0.06092 0.7856 0.0
C649 C 0.56387 0.07072 0.77772 0.0
C650 C 0.5606 0.09596 0.77461 0.0
C651 C 0.5901 0.03394 0.78786 0.0
C652 C 0.58141 0.0198 0.75605 0.0
C653 C 0.60024 0.02204 0.8214 0.0
C654 C 0.60887 0.03582 0.85658 0.0
C655 C 0.59289 0.05145 0.87721 0.0
C656 C 0.6012 0.06439 0.91036 0.0
C657 C 0.6254 0.06167 0.92336 0.0
C658 C 0.64132 0.04595 0.90329 0.0
C659 C 0.6331 0.033 0.8701 0.0
H660 H 0.63179 0.07169 0.94904 0.0
H661 H 0.54545 0.94284 0.63476 0.0
H662 H 0.88574 0.61081 0.04197 0.0
H663 H 0.93036 0.61372 0.0372 0.0
H664 H 0.93375 0.53833 -0.00083 0.0
H665 H 0.88915 0.5353 0.0033 0.0
H666 H 0.965 0.5889 0.07698 0.0
H667 H 0.98161 0.53149 0.93561 0.0
H668 H 0.95998 0.52113 0.87358 0.0
H669 H 0.92003 0.58879 0.87942 0.0
H670 H 0.94168 0.59974 0.94113 0.0
H671 H 0.08514 0.54244 0.06525 0.0
H672 H 0.0406 0.54542 0.05984 0.0
H673 H 0.04806 0.60511 0.97701 0.0
H674 H 0.09287 0.6025 0.98253 0.0
H675 H 0.01178 0.56767 0.95584 0.0
H676 H 0.03446 0.62116 0.06282 0.0
H677 H 0.05568 0.63202 0.12494 0.0
H678 H 0.01646 0.57533 0.18638 0.0
H679 H 0.99527 0.56388 0.12445 0.0
C680 C 0.89594 0.59486 0.03241 0.0
C681 C 0.88385 0.5728 0.02308 0.0
C682 C 0.92145 0.59656 0.02978 0.0
C683 C 0.93534 0.57632 0.01752 0.0
C684 C 0.92335 0.55429 0.00815 0.0
C685 C 0.89785 0.55256 0.01077 0.0
C686 C 0.96244 0.57801 0.01579 0.0
C687 C 0.97519 0.58438 0.05042 0.0
C688 C 0.97573 0.57236 0.98099 0.0
C689 C 0.96316 0.56633 0.94318 0.0
C690 C 0.96834 0.54424 0.92351 0.0
C691 C 0.95605 0.53825 0.88843 0.0
C692 C 0.93861 0.55427 0.87262 0.0
C693 C 0.9335 0.57637 0.89175 0.0
C694 C 0.94577 0.58247 0.9268 0.0
C695 C 0.07739 0.55612 0.04563 0.0
C696 C 0.09257 0.57231 0.02443 0.0
C697 C 0.05193 0.5578 0.04265 0.0
C698 C 0.04114 0.57554 0.01819 0.0
C699 C 0.05613 0.59129 -0.00398 0.0
C700 C 0.08168 0.58983 -0.00064 0.0
C701 C 0.01415 0.57809 0.0172 0.0
C702 C 0.00149 0.57242 0.98219 0.0
C703 C 0.00088 0.58457 0.05154 0.0
C704 C 0.01343 0.59154 0.08892 0.0
C705 C 0.03051 0.61088 0.08951 0.0
C706 C 0.0425 0.61716 0.1247 0.0
C707 C 0.03746 0.60434 0.15957 0.0
C708 C 0.02036 0.58524 0.15934 0.0
C709 C 0.00833 0.57886 0.12421 0.0
H710 H 0.04677 0.60923 0.18679 0.0
H711 H 0.92906 0.54956 0.84553 0.0
H712 H 0.49976 0.21572 0.86489 0.0
H713 H 0.48431 0.22201 0.93119 0.0
H714 H 0.5584 0.2254 0.97619 0.0
H715 H 0.57423 0.21827 0.9092 0.0
H716 H 0.53271 0.19368 0.01618 0.0
H717 H 0.51926 0.27622 0.97861 0.0
H718 H 0.50573 0.31062 0.9366 0.0
H719 H 0.43107 0.2862 0.94579 0.0
H720 H 0.44416 0.25142 0.98739 0.0
H721 H 0.48945 0.21007 0.20793 0.0
H722 H 0.50676 0.22235 0.14474 0.0
H723 H 0.43885 0.2039 0.08614 0.0
H724 H 0.42104 0.19155 0.15006 0.0
H725 H 0.46412 0.24791 0.05647 0.0
H726 H 0.47979 0.16239 0.08658 0.0
H727 H 0.49391 0.12858 0.12942 0.0
H728 H 0.5659 0.16047 0.1344 0.0
H729 H 0.55208 0.19468 0.09204 0.0
C730 C 0.51291 0.21813 0.88866 0.0
C731 C 0.53828 0.21615 0.88181 0.0
C732 C 0.50397 0.22205 0.92663 0.0
C733 C 0.52016 0.22446 0.95866 0.0
C734 C 0.54558 0.22368 0.95178 0.0
C735 C 0.55461 0.21962 0.91357 0.0
C736 C 0.51024 0.22451 -0.00057 0.0
C737 C 0.51815 0.20599 0.02525 0.0
C738 C 0.49077 0.24014 0.01096 0.0
C739 C 0.48274 0.26109 0.98599 0.0
C740 C 0.49997 0.27806 0.97146 0.0
C741 C 0.49237 0.29766 0.94775 0.0
C742 C 0.46756 0.30057 0.93849 0.0
C743 C 0.45028 0.28392 0.95299 0.0
C744 C 0.45779 0.26428 0.9767 0.0
C745 C 0.478 0.20881 0.18174 0.0
C746 C 0.45402 0.19933 0.18378 0.0
C747 C 0.48793 0.21599 0.14571 0.0
C748 C 0.4742 0.21367 0.1109 0.0
C749 C 0.44969 0.20576 0.1129 0.0
C750 C 0.4396 0.19863 0.14926 0.0
C751 C 0.48648 0.21698 0.0724 0.0
C752 C 0.47895 0.23599 0.04727 0.0
C753 C 0.50643 0.20192 0.06143 0.0
C754 C 0.51483 0.18121 0.0865 0.0
C755 C 0.49858 0.16228 0.09707 0.0
C756 C 0.50653 0.14304 0.12122 0.0
C757 C 0.53077 0.14241 0.13472 0.0
C758 C 0.54712 0.161 0.12398 0.0
C759 C 0.53924 0.18031 0.09988 0.0
H760 H 0.5369 0.1275 0.15342 0.0
H761 H 0.46171 0.31576 0.92012 0.0
H762 H 0.77644 0.51607 0.15252 0.0
H763 H 0.77656 0.50562 0.22231 0.0
H764 H 0.80036 0.57892 0.25137 0.0
H765 H 0.8007 0.58952 0.18061 0.0
H766 H 0.82954 0.54502 0.28396 0.0
H767 H 0.74361 0.55832 0.28038 0.0
H768 H 0.70139 0.55544 0.25454 0.0
H769 H 0.70269 0.4773 0.2695 0.0
H770 H 0.74505 0.47963 0.29489 0.0
H771 H 0.82942 0.51008 0.48627 0.0
H772 H 0.81932 0.53078 0.42449 0.0
H773 H 0.79799 0.46172 0.37264 0.0
H774 H 0.80787 0.44068 0.43482 0.0
H775 H 0.765 0.49924 0.35646 0.0
H776 H 0.8524 0.48584 0.35067 0.0
H777 H 0.89496 0.48829 0.37526 0.0
H778 H 0.89054 0.56687 0.37695 0.0
H779 H 0.84782 0.56486 0.35285 0.0
C780 C 0.78132 0.53017 0.1737 0.0
C781 C 0.78882 0.55356 0.16106 0.0
C782 C 0.78115 0.52421 0.21372 0.0
C783 C 0.78827 0.54153 0.24212 0.0
C784 C 0.79469 0.56532 0.22986 0.0
C785 C 0.79479 0.57138 0.18953 0.0
C786 C 0.79169 0.53357 0.2837 0.0
C787 C 0.81522 0.5356 0.30027 0.0
C788 C 0.77318 0.52069 0.30447 0.0
C789 C 0.7476 0.51916 0.28939 0.0
C790 C 0.73497 0.5405 0.27792 0.0
C791 C 0.71099 0.53896 0.26339 0.0
C792 C 0.69937 0.5162 0.26033 0.0
C793 C 0.7117 0.49492 0.27189 0.0
C794 C 0.73569 0.49635 0.28643 0.0
C795 C 0.8226 0.49919 0.4618 0.0
C796 C 0.81957 0.47365 0.46545 0.0
C797 C 0.81686 0.5111 0.42649 0.0
C798 C 0.80809 0.49775 0.39399 0.0
C799 C 0.80473 0.47232 0.3975 0.0
C800 C 0.81052 0.46032 0.43293 0.0
C801 C 0.80289 0.51034 0.3561 0.0
C802 C 0.7791 0.50911 0.34036 0.0
C803 C 0.82113 0.52395 0.33602 0.0
C804 C 0.84683 0.52519 0.35041 0.0
C805 C 0.86044 0.50363 0.35661 0.0
C806 C 0.8846 0.50494 0.37039 0.0
C807 C 0.89542 0.52772 0.37778 0.0
C808 C 0.88212 0.54924 0.37129 0.0
C809 C 0.85794 0.54802 0.35755 0.0
H810 H 0.91413 0.5287 0.38844 0.0
H811 H 0.68081 0.51505 0.24906 0.0
H812 H 0.50018 0.82164 0.6928 0.0
H813 H 0.48441 0.80791 0.62946 0.0
H814 H 0.55445 0.77564 0.60168 0.0
H815 H 0.57073 0.7895 0.66592 0.0
H816 H 0.53416 0.80239 0.53963 0.0
H817 H 0.50876 0.73843 0.62616 0.0
H818 H 0.49084 0.72039 0.68648 0.0
H819 H 0.42122 0.75286 0.65854 0.0
H820 H 0.43879 0.77141 0.59833 0.0
H821 H 0.48089 0.7561 0.36717 0.0
H822 H 0.49985 0.75334 0.43248 0.0
H823 H 0.43672 0.78849 0.48412 0.0
H824 H 0.41735 0.79093 0.41858 0.0
H825 H 0.45731 0.75353 0.53381 0.0
H826 H 0.4841 0.82271 0.45526 0.0
H827 H 0.50138 0.84248 0.39583 0.0
H828 H 0.56795 0.8014 0.41011 0.0
H829 H 0.5509 0.78113 0.46937 0.0
C830 C 0.51239 0.81163 0.67342 0.0
C831 C 0.53673 0.80649 0.68463 0.0
C832 C 0.50322 0.80366 0.63724 0.0
C833 C 0.51807 0.79026 0.61138 0.0
C834 C 0.54265 0.78573 0.6216 0.0
C835 C 0.55193 0.79372 0.65814 0.0
C836 C 0.50767 0.78187 0.57327 0.0
C837 C 0.51774 0.79116 0.53824 0.0
C838 C 0.48589 0.76769 0.57171 0.0
C839 C 0.47516 0.75642 0.60779 0.0
C840 C 0.48967 0.74186 0.63299 0.0
C841 C 0.47956 0.73152 0.66716 0.0
C842 C 0.45492 0.7355 0.67636 0.0
C843 C 0.44031 0.74979 0.65137 0.0
C844 C 0.45033 0.76019 0.61718 0.0
C845 C 0.47078 0.76274 0.39256 0.0
C846 C 0.44783 0.77412 0.38781 0.0
C847 C 0.48165 0.76115 0.42982 0.0
C848 C 0.46993 0.77124 0.46286 0.0
C849 C 0.4461 0.78072 0.45883 0.0
C850 C 0.43505 0.7821 0.42145 0.0
C851 C 0.48359 0.77442 0.50039 0.0
C852 C 0.47406 0.76426 0.5352 0.0
C853 C 0.5058 0.78792 0.50186 0.0
C854 C 0.51613 0.80021 0.46643 0.0
C855 C 0.50235 0.81777 0.44554 0.0
C856 C 0.51211 0.82908 0.41192 0.0
C857 C 0.53572 0.82314 0.39913 0.0
C858 C 0.54965 0.80594 0.42001 0.0
C859 C 0.53995 0.79454 0.45361 0.0
H860 H 0.54325 0.83192 0.37309 0.0
H861 H 0.44713 0.72748 0.70283 0.0
H862 H 0.20499 0.50048 0.94847 0.0
H863 H 0.21795 0.48544 0.88415 0.0
H864 H 0.21911 0.55943 0.83899 0.0
H865 H 0.20564 0.57477 0.9036 0.0
H866 H 0.19398 0.52949 0.79135 0.0
H867 H 0.27257 0.52737 0.85347 0.0
H868 H 0.30276 0.51764 0.9056 0.0
H869 H 0.28974 0.44072 0.88865 0.0
H870 H 0.2592 0.44998 0.83679 0.0
H871 H 0.23845 0.49508 0.60687 0.0
H872 H 0.24136 0.51222 0.67326 0.0
H873 H 0.2277 0.44083 0.72345 0.0
H874 H 0.22462 0.42334 0.65669 0.0
H875 H 0.2624 0.47141 0.76746 0.0
H876 H 0.18082 0.47374 0.71184 0.0
H877 H 0.14999 0.48295 0.66041 0.0
H878 H 0.16852 0.55938 0.66641 0.0
H879 H 0.19973 0.55056 0.71753 0.0
C880 C 0.20819 0.51367 0.92506 0.0
C881 C 0.20412 0.53886 0.93115 0.0
C882 C 0.21584 0.50501 0.88833 0.0
C883 C 0.21979 0.52132 0.8569 0.0
C884 C 0.21626 0.54654 0.86298 0.0
C885 C 0.20858 0.55528 0.89987 0.0
C886 C 0.22549 0.51165 0.81699 0.0
C887 C 0.20929 0.51724 0.78599 0.0
C888 C 0.24503 0.49505 0.81028 0.0
C889 C 0.26345 0.48939 0.84141 0.0
C890 C 0.276 0.50838 0.86106 0.0
C891 C 0.29321 0.50295 0.89053 0.0
C892 C 0.29813 0.47858 0.90048 0.0
C893 C 0.2859 0.45959 0.88092 0.0
C894 C 0.26866 0.46492 0.85144 0.0
C895 C 0.23657 0.48284 0.63195 0.0
C896 C 0.23084 0.45791 0.62653 0.0
C897 C 0.2383 0.4927 0.66987 0.0
C898 C 0.23432 0.47785 0.70307 0.0
C899 C 0.23075 0.45255 0.69803 0.0
C900 C 0.22899 0.44261 0.65991 0.0
C901 C 0.2309 0.48932 0.74227 0.0
C902 C 0.24737 0.48396 0.77295 0.0
C903 C 0.21156 0.50609 0.74888 0.0
C904 C 0.19281 0.51145 0.71816 0.0
C905 C 0.17849 0.49248 0.70192 0.0
C906 C 0.16091 0.49763 0.67288 0.0
C907 C 0.15735 0.52172 0.66006 0.0
C908 C 0.17133 0.54072 0.67632 0.0
C909 C 0.18895 0.53566 0.70534 0.0
H910 H 0.14371 0.52568 0.63762 0.0
H911 H 0.31146 0.47442 0.92331 0.0
loop_
_geom_bond_atom_site_label_1
_geom_bond_atom_site_label_2
_geom_bond_distance
_geom_bond_site_symmetry_2
_ccdc_geom_bond_type
C0 O1 1.306 . S
C0 O3 1.160 . S
O1 C0 1.306 . S
O1 Cd2 2.228 . S
Cd2 O1 2.228 . S
Cd2 O6 2.273 . S
Cd2 O10 2.277 . S
O3 C0 1.160 . S
O3 Cd4 2.203 . S
Cd4 O3 2.203 . S
Cd4 O6 2.411 . S
Cd4 O7 2.333 . S
Cd4 O8 2.352 . S
Cd4 O12 2.277 . S
Cd4 O13 2.356 . S
C5 O10 1.209 . S
C5 O12 1.226 . S
O6 Cd2 2.273 . S
O6 Cd4 2.411 . S
O6 C9 1.320 . S
O7 Cd4 2.333 . S
O7 C9 1.214 . S
O8 Cd4 2.352 . S
O8 C11 1.258 . S
C9 O6 1.320 . S
C9 O7 1.214 . S
O10 Cd2 2.277 . S
O10 C5 1.209 . S
C11 O8 1.258 . S
C11 O13 1.282 . S
O12 Cd4 2.277 . S
O12 C5 1.226 . S
O13 Cd4 2.356 . S
O13 C11 1.282 . S
C14 O15 1.306 . S
C14 O17 1.160 . S
O15 C14 1.306 . S
O15 Cd16 2.228 . S
Cd16 O15 2.228 . S
Cd16 O20 2.273 . S
Cd16 O24 2.277 . S
O17 C14 1.160 . S
O17 Cd18 2.203 . S
Cd18 O17 2.203 . S
Cd18 O20 2.411 . S
Cd18 O21 2.333 . S
Cd18 O22 2.352 . S
Cd18 O26 2.277 . S
Cd18 O27 2.356 . S
C19 O24 1.209 . S
C19 O26 1.226 . S
O20 Cd16 2.273 . S
O20 Cd18 2.411 . S
O20 C23 1.320 . S
O21 Cd18 2.333 . S
O21 C23 1.214 . S
O22 Cd18 2.352 . S
O22 C25 1.258 . S
C23 O20 1.320 . S
C23 O21 1.214 . S
O24 Cd16 2.277 . S
O24 C19 1.209 . S
C25 O22 1.258 . S
C25 O27 1.282 . S
O26 Cd18 2.277 . S
O26 C19 1.226 . S
O27 Cd18 2.356 . S
O27 C25 1.282 . S
C28 O29 1.306 . S
C28 O31 1.160 . S
O29 C28 1.306 . S
O29 Cd30 2.228 . S
Cd30 O29 2.228 . S
Cd30 O34 2.273 . S
Cd30 O38 2.277 . S
O31 C28 1.160 . S
O31 Cd32 2.203 . S
Cd32 O31 2.203 . S
Cd32 O34 2.411 . S
Cd32 O35 2.333 . S
Cd32 O36 2.352 . S
Cd32 O40 2.277 . S
Cd32 O41 2.356 . S
C33 O38 1.209 . S
C33 O40 1.226 . S
O34 Cd30 2.273 . S
O34 Cd32 2.411 . S
O34 C37 1.320 . S
O35 Cd32 2.333 . S
O35 C37 1.214 . S
O36 Cd32 2.352 . S
O36 C39 1.258 . S
C37 O34 1.320 . S
C37 O35 1.214 . S
O38 Cd30 2.277 . S
O38 C33 1.209 . S
C39 O36 1.258 . S
C39 O41 1.282 . S
O40 Cd32 2.277 . S
O40 C33 1.226 . S
O41 Cd32 2.356 . S
O41 C39 1.282 . S
C42 O43 1.306 1_556 S
C42 O45 1.160 1_556 S
O43 C42 1.306 1_554 S
O43 Cd44 2.228 . S
Cd44 O43 2.228 . S
Cd44 O48 2.273 . S
Cd44 O52 2.277 . S
O45 C42 1.160 1_554 S
O45 Cd46 2.203 . S
Cd46 O45 2.203 . S
Cd46 O48 2.411 . S
Cd46 O49 2.333 . S
Cd46 O50 2.352 . S
Cd46 O54 2.277 . S
Cd46 O55 2.356 . S
C47 O52 1.209 . S
C47 O54 1.226 . S
O48 Cd44 2.273 . S
O48 Cd46 2.411 . S
O48 C51 1.320 . S
O49 Cd46 2.333 . S
O49 C51 1.214 . S
O50 Cd46 2.352 . S
O50 C53 1.258 . S
C51 O48 1.320 . S
C51 O49 1.214 . S
O52 Cd44 2.277 . S
O52 C47 1.209 . S
C53 O50 1.258 . S
C53 O55 1.282 . S
O54 Cd46 2.277 . S
O54 C47 1.226 . S
O55 Cd46 2.356 . S
O55 C53 1.282 . S
C56 O57 1.306 . S
C56 O59 1.160 . S
O57 C56 1.306 . S
O57 Cd58 2.228 . S
Cd58 O57 2.228 . S
Cd58 O62 2.273 . S
Cd58 O66 2.277 . S
O59 C56 1.160 . S
O59 Cd60 2.203 . S
Cd60 O59 2.203 . S
Cd60 O62 2.411 . S
Cd60 O63 2.333 . S
Cd60 O64 2.352 . S
Cd60 O68 2.277 . S
Cd60 O69 2.356 . S
C61 O66 1.209 . S
C61 O68 1.226 . S
O62 Cd58 2.273 . S
O62 Cd60 2.411 . S
O62 C65 1.320 . S
O63 Cd60 2.333 . S
O63 C65 1.214 . S
O64 Cd60 2.352 . S
O64 C67 1.258 . S
C65 O62 1.320 . S
C65 O63 1.214 . S
O66 Cd58 2.277 . S
O66 C61 1.209 . S
C67 O64 1.258 . S
C67 O69 1.282 . S
O68 Cd60 2.277 . S
O68 C61 1.226 . S
O69 Cd60 2.356 . S
O69 C67 1.282 . S
C70 O71 1.306 . S
C70 O73 1.160 . S
O71 C70 1.306 . S
O71 Cd72 2.228 . S
Cd72 O71 2.228 . S
Cd72 O76 2.273 . S
Cd72 O80 2.277 . S
O73 C70 1.160 . S
O73 Cd74 2.203 . S
Cd74 O73 2.203 . S
Cd74 O76 2.411 . S
Cd74 O77 2.333 . S
Cd74 O78 2.352 . S
Cd74 O82 2.277 . S
Cd74 O83 2.356 . S
C75 O80 1.209 . S
C75 O82 1.226 . S
O76 Cd72 2.273 . S
O76 Cd74 2.411 . S
O76 C79 1.320 . S
O77 Cd74 2.333 . S
O77 C79 1.214 . S
O78 Cd74 2.352 . S
O78 C81 1.258 . S
C79 O76 1.320 . S
C79 O77 1.214 . S
O80 Cd72 2.277 . S
O80 C75 1.209 . S
C81 O78 1.258 . S
C81 O83 1.282 . S
O82 Cd74 2.277 . S
O82 C75 1.226 . S
O83 Cd74 2.356 . S
O83 C81 1.282 . S
C84 O85 1.306 . S
C84 O87 1.160 . S
O85 C84 1.306 . S
O85 Cd86 2.228 . S
Cd86 O85 2.228 . S
Cd86 O90 2.273 . S
Cd86 O94 2.277 . S
O87 C84 1.160 . S
O87 Cd88 2.203 . S
Cd88 O87 2.203 . S
Cd88 O90 2.411 . S
Cd88 O91 2.333 . S
Cd88 O92 2.352 . S
Cd88 O96 2.277 . S
Cd88 O97 2.356 . S
C89 O94 1.209 . S
C89 O96 1.226 . S
O90 Cd86 2.273 . S
O90 Cd88 2.411 . S
O90 C93 1.320 . S
O91 Cd88 2.333 . S
O91 C93 1.214 . S
O92 Cd88 2.352 . S
O92 C95 1.258 . S
C93 O90 1.320 . S
C93 O91 1.214 . S
O94 Cd86 2.277 . S
O94 C89 1.209 . S
C95 O92 1.258 . S
C95 O97 1.282 . S
O96 Cd88 2.277 . S
O96 C89 1.226 . S
O97 Cd88 2.356 . S
O97 C95 1.282 . S
C98 O99 1.306 . S
C98 O101 1.160 . S
O99 C98 1.306 . S
O99 Cd100 2.228 . S
Cd100 O99 2.228 . S
Cd100 O104 2.273 1_554 S
Cd100 O108 2.277 . S
O101 C98 1.160 . S
O101 Cd102 2.203 . S
Cd102 O101 2.203 . S
Cd102 O104 2.411 1_554 S
Cd102 O105 2.333 1_554 S
Cd102 O106 2.352 . S
Cd102 O110 2.277 . S
Cd102 O111 2.356 . S
C103 O108 1.209 . S
C103 O110 1.226 . S
O104 Cd100 2.273 1_556 S
O104 Cd102 2.411 1_556 S
O104 C107 1.320 . S
O105 Cd102 2.333 1_556 S
O105 C107 1.214 . S
O106 Cd102 2.352 . S
O106 C109 1.258 . S
C107 O104 1.320 . S
C107 O105 1.214 . S
O108 Cd100 2.277 . S
O108 C103 1.209 . S
C109 O106 1.258 . S
C109 O111 1.282 . S
O110 Cd102 2.277 . S
O110 C103 1.226 . S
O111 Cd102 2.356 . S
O111 C109 1.282 . S
H112 C130 0.951 . S
H113 C132 0.951 . S
H114 C134 0.950 . S
H115 C135 0.950 . S
H116 C137 0.950 . S
H117 C140 0.950 . S
H118 C141 0.950 . S
H119 C143 0.950 . S
H120 C144 0.950 . S
H121 C145 0.951 . S
H122 C147 0.951 . S
H123 C149 0.950 . S
H124 C150 0.950 . S
H125 C152 0.950 . S
H126 C155 0.950 . S
H127 C156 0.950 . S
H128 C158 0.950 . S
H129 C159 0.950 . S
C130 H112 0.951 . S
C130 C131 1.366 . S
C130 C132 1.388 . S
C131 C130 1.366 . S
C131 C135 1.385 . S
C132 H113 0.951 . S
C132 C130 1.388 . S
C132 C133 1.366 . S
C133 C132 1.366 . S
C133 C134 1.414 . S
C133 C136 1.499 . S
C134 H114 0.950 . S
C134 C133 1.414 . S
C134 C135 1.374 . S
C135 H115 0.950 . S
C135 C131 1.385 . S
C135 C134 1.374 . S
C136 C133 1.499 . S
C136 C137 1.373 . S
C136 C138 1.389 . S
C137 H116 0.950 . S
C137 C136 1.373 . S
C137 C153 1.377 . S
C138 C136 1.389 . S
C138 C139 1.524 . S
C138 C152 1.377 . S
C139 C138 1.524 . S
C139 C140 1.397 . S
C139 C144 1.363 . S
C140 H117 0.950 . S
C140 C139 1.397 . S
C140 C141 1.334 . S
C141 H118 0.950 . S
C141 C140 1.334 . S
C141 C142 1.287 . S
C142 C141 1.287 . S
C142 C143 1.524 . S
C142 H161 0.913 . S
C143 H119 0.950 . S
C143 C142 1.524 . S
C143 C144 1.415 . S
C144 H120 0.950 . S
C144 C139 1.363 . S
C144 C143 1.415 . S
C145 H121 0.951 . S
C145 C146 1.366 . S
C145 C147 1.388 . S
C146 C145 1.366 . S
C146 C150 1.385 . S
C147 H122 0.951 . S
C147 C145 1.388 . S
C147 C148 1.366 . S
C148 C147 1.366 . S
C148 C149 1.414 . S
C148 C151 1.499 . S
C149 H123 0.950 . S
C149 C148 1.414 . S
C149 C150 1.374 . S
C150 H124 0.950 . S
C150 C146 1.385 . S
C150 C149 1.374 . S
C151 C148 1.499 . S
C151 C152 1.373 . S
C151 C153 1.389 . S
C152 H125 0.950 . S
C152 C138 1.377 . S
C152 C151 1.373 . S
C153 C137 1.377 . S
C153 C151 1.389 . S
C153 C154 1.524 . S
C154 C153 1.524 . S
C154 C155 1.397 . S
C154 C159 1.363 . S
C155 H126 0.950 . S
C155 C154 1.397 . S
C155 C156 1.334 . S
C156 H127 0.950 . S
C156 C155 1.334 . S
C156 C157 1.287 . S
C157 C156 1.287 . S
C157 C158 1.524 . S
C157 H160 0.999 . S
C158 H128 0.950 . S
C158 C157 1.524 . S
C158 C159 1.415 . S
C159 H129 0.950 . S
C159 C154 1.363 . S
C159 C158 1.415 . S
H160 C157 0.999 . S
H161 C142 0.913 . S
H162 C180 0.951 . S
H163 C182 0.951 . S
H164 C184 0.950 . S
H165 C185 0.950 . S
H166 C187 0.950 . S
H167 C190 0.950 . S
H168 C191 0.950 . S
H169 C193 0.950 . S
H170 C194 0.950 . S
H171 C195 0.951 . S
H172 C197 0.951 . S
H173 C199 0.950 . S
H174 C200 0.950 . S
H175 C202 0.950 . S
H176 C205 0.950 . S
H177 C206 0.950 . S
H178 C208 0.950 . S
H179 C209 0.950 . S
C180 H162 0.951 . S
C180 C181 1.366 . S
C180 C182 1.388 . S
C181 C180 1.366 . S
C181 C185 1.385 . S
C182 H163 0.951 . S
C182 C180 1.388 . S
C182 C183 1.366 . S
C183 C182 1.366 . S
C183 C184 1.414 . S
C183 C186 1.499 . S
C184 H164 0.950 . S
C184 C183 1.414 . S
C184 C185 1.374 . S
C185 H165 0.950 . S
C185 C181 1.385 . S
C185 C184 1.374 . S
C186 C183 1.499 . S
C186 C187 1.373 . S
C186 C188 1.389 . S
C187 H166 0.950 . S
C187 C186 1.373 . S
C187 C203 1.377 . S
C188 C186 1.389 . S
C188 C189 1.524 . S
C188 C202 1.377 . S
C189 C188 1.524 . S
C189 C190 1.397 . S
C189 C194 1.363 . S
C190 H167 0.950 . S
C190 C189 1.397 . S
C190 C191 1.334 . S
C191 H168 0.950 . S
C191 C190 1.334 . S
C191 C192 1.287 . S
C192 C191 1.287 . S
C192 C193 1.524 . S
C192 H211 0.913 . S
C193 H169 0.950 . S
C193 C192 1.524 . S
C193 C194 1.415 . S
C194 H170 0.950 . S
C194 C189 1.363 . S
C194 C193 1.415 . S
C195 H171 0.951 . S
C195 C196 1.366 . S
C195 C197 1.388 . S
C196 C195 1.366 . S
C196 C200 1.385 . S
C197 H172 0.951 . S
C197 C195 1.388 . S
C197 C198 1.366 . S
C198 C197 1.366 . S
C198 C199 1.414 . S
C198 C201 1.499 . S
C199 H173 0.950 . S
C199 C198 1.414 . S
C199 C200 1.374 . S
C200 H174 0.950 . S
C200 C196 1.385 . S
C200 C199 1.374 . S
C201 C198 1.499 . S
C201 C202 1.373 . S
C201 C203 1.389 . S
C202 H175 0.950 . S
C202 C188 1.377 . S
C202 C201 1.373 . S
C203 C187 1.377 . S
C203 C201 1.389 . S
C203 C204 1.524 . S
C204 C203 1.524 . S
C204 C205 1.397 . S
C204 C209 1.363 . S
C205 H176 0.950 . S
C205 C204 1.397 . S
C205 C206 1.334 . S
C206 H177 0.950 . S
C206 C205 1.334 . S
C206 C207 1.287 . S
C207 C206 1.287 . S
C207 C208 1.524 . S
C207 H210 0.999 . S
C208 H178 0.950 . S
C208 C207 1.524 . S
C208 C209 1.415 . S
C209 H179 0.950 . S
C209 C204 1.363 . S
C209 C208 1.415 . S
H210 C207 0.999 . S
H211 C192 0.913 . S
H212 C230 0.951 . S
H213 C232 0.951 . S
H214 C234 0.950 . S
H215 C235 0.950 . S
H216 C237 0.950 . S
H217 C240 0.950 . S
H218 C241 0.950 . S
H219 C243 0.950 . S
H220 C244 0.950 . S
H221 C245 0.951 . S
H222 C247 0.951 . S
H223 C249 0.950 . S
H224 C250 0.950 . S
H225 C252 0.950 . S
H226 C255 0.950 . S
H227 C256 0.950 . S
H228 C258 0.950 . S
H229 C259 0.950 . S
C230 H212 0.951 . S
C230 C231 1.366 . S
C230 C232 1.388 . S
C231 C230 1.366 . S
C231 C235 1.385 . S
C232 H213 0.951 . S
C232 C230 1.388 . S
C232 C233 1.366 . S
C233 C232 1.366 . S
C233 C234 1.414 . S
C233 C236 1.499 . S
C234 H214 0.950 . S
C234 C233 1.414 . S
C234 C235 1.374 . S
C235 H215 0.950 . S
C235 C231 1.385 . S
C235 C234 1.374 . S
C236 C233 1.499 . S
C236 C237 1.373 . S
C236 C238 1.389 . S
C237 H216 0.950 . S
C237 C236 1.373 . S
C237 C253 1.377 . S
C238 C236 1.389 . S
C238 C239 1.524 . S
C238 C252 1.377 . S
C239 C238 1.524 . S
C239 C240 1.397 . S
C239 C244 1.363 . S
C240 H217 0.950 . S
C240 C239 1.397 . S
C240 C241 1.334 . S
C241 H218 0.950 . S
C241 C240 1.334 . S
C241 C242 1.287 . S
C242 C241 1.287 . S
C242 C243 1.524 . S
C242 H261 0.913 . S
C243 H219 0.950 . S
C243 C242 1.524 . S
C243 C244 1.415 . S
C244 H220 0.950 . S
C244 C239 1.363 . S
C244 C243 1.415 . S
C245 H221 0.951 . S
C245 C246 1.366 . S
C245 C247 1.388 . S
C246 C245 1.366 . S
C246 C250 1.385 . S
C247 H222 0.951 . S
C247 C245 1.388 . S
C247 C248 1.366 . S
C248 C247 1.366 . S
C248 C249 1.414 . S
C248 C251 1.499 1_556 S
C249 H223 0.950 . S
C249 C248 1.414 . S
C249 C250 1.374 . S
C250 H224 0.950 . S
C250 C246 1.385 . S
C250 C249 1.374 . S
C251 C248 1.499 1_554 S
C251 C252 1.373 . S
C251 C253 1.389 . S
C252 H225 0.950 . S
C252 C238 1.377 . S
C252 C251 1.373 . S
C253 C237 1.377 . S
C253 C251 1.389 . S
C253 C254 1.524 . S
C254 C253 1.524 . S
C254 C255 1.397 1_554 S
C254 C259 1.363 . S
C255 H226 0.950 . S
C255 C254 1.397 1_556 S
C255 C256 1.334 . S
C256 H227 0.950 . S
C256 C255 1.334 . S
C256 C257 1.287 . S
C257 C256 1.287 . S
C257 C258 1.524 1_556 S
C257 H260 0.999 . S
C258 H228 0.950 . S
C258 C257 1.524 1_554 S
C258 C259 1.415 . S
C259 H229 0.950 . S
C259 C254 1.363 . S
C259 C258 1.415 . S
H260 C257 0.999 . S
H261 C242 0.913 . S
H262 C280 0.951 . S
H263 C282 0.951 . S
H264 C284 0.950 . S
H265 C285 0.950 . S
H266 C287 0.950 . S
H267 C290 0.950 . S
H268 C291 0.950 . S
H269 C293 0.950 . S
H270 C294 0.950 . S
H271 C295 0.951 . S
H272 C297 0.951 . S
H273 C299 0.950 . S
H274 C300 0.950 . S
H275 C302 0.950 . S
H276 C305 0.950 . S
H277 C306 0.950 . S
H278 C308 0.950 . S
H279 C309 0.950 . S
C280 H262 0.951 . S
C280 C281 1.366 . S
C280 C282 1.388 . S
C281 C280 1.366 . S
C281 C285 1.385 . S
C282 H263 0.951 . S
C282 C280 1.388 . S
C282 C283 1.366 . S
C283 C282 1.366 . S
C283 C284 1.414 . S
C283 C286 1.499 . S
C284 H264 0.950 . S
C284 C283 1.414 . S
C284 C285 1.374 . S
C285 H265 0.950 . S
C285 C281 1.385 . S
C285 C284 1.374 . S
C286 C283 1.499 . S
C286 C287 1.373 . S
C286 C288 1.389 . S
C287 H266 0.950 . S
C287 C286 1.373 . S
C287 C303 1.377 . S
C288 C286 1.389 . S
C288 C289 1.524 . S
C288 C302 1.377 . S
C289 C288 1.524 . S
C289 C290 1.397 . S
C289 C294 1.363 . S
C290 H267 0.950 . S
C290 C289 1.397 . S
C290 C291 1.334 . S
C291 H268 0.950 . S
C291 C290 1.334 . S
C291 C292 1.287 . S
C292 C291 1.287 . S
C292 C293 1.524 . S
C292 H311 0.913 . S
C293 H269 0.950 . S
C293 C292 1.524 . S
C293 C294 1.415 . S
C294 H270 0.950 . S
C294 C289 1.363 . S
C294 C293 1.415 . S
C295 H271 0.951 . S
C295 C296 1.366 . S
C295 C297 1.388 . S
C296 C295 1.366 . S
C296 C300 1.385 . S
C297 H272 0.951 . S
C297 C295 1.388 . S
C297 C298 1.366 . S
C298 C297 1.366 . S
C298 C299 1.414 . S
C298 C301 1.499 . S
C299 H273 0.950 . S
C299 C298 1.414 . S
C299 C300 1.374 . S
C300 H274 0.950 . S
C300 C296 1.385 . S
C300 C299 1.374 . S
C301 C298 1.499 . S
C301 C302 1.373 . S
C301 C303 1.389 . S
C302 H275 0.950 . S
C302 C288 1.377 . S
C302 C301 1.373 . S
C303 C287 1.377 . S
C303 C301 1.389 . S
C303 C304 1.524 . S
C304 C303 1.524 . S
C304 C305 1.397 . S
C304 C309 1.363 . S
C305 H276 0.950 . S
C305 C304 1.397 . S
C305 C306 1.334 . S
C306 H277 0.950 . S
C306 C305 1.334 . S
C306 C307 1.287 . S
C307 C306 1.287 . S
C307 C308 1.524 . S
C307 H310 0.999 . S
C308 H278 0.950 . S
C308 C307 1.524 . S
C308 C309 1.415 . S
C309 H279 0.950 . S
C309 C304 1.363 . S
C309 C308 1.415 . S
H310 C307 0.999 . S
H311 C292 0.913 . S
H312 C330 0.951 . S
H313 C332 0.951 . S
H314 C334 0.950 . S
H315 C335 0.950 . S
H316 C337 0.950 . S
H317 C340 0.950 . S
H318 C341 0.950 . S
H319 C343 0.950 . S
H320 C344 0.950 . S
H321 C345 0.951 . S
H322 C347 0.951 . S
H323 C349 0.950 . S
H324 C350 0.950 . S
H325 C352 0.950 . S
H326 C355 0.950 . S
H327 C356 0.950 . S
H328 C358 0.950 . S
H329 C359 0.950 . S
C330 H312 0.951 . S
C330 C331 1.366 . S
C330 C332 1.388 . S
C331 C330 1.366 . S
C331 C335 1.385 . S
C332 H313 0.951 . S
C332 C330 1.388 . S
C332 C333 1.366 . S
C333 C332 1.366 . S
C333 C334 1.414 . S
C333 C336 1.499 . S
C334 H314 0.950 . S
C334 C333 1.414 . S
C334 C335 1.374 . S
C335 H315 0.950 . S
C335 C331 1.385 . S
C335 C334 1.374 . S
C336 C333 1.499 . S
C336 C337 1.373 . S
C336 C338 1.389 . S
C337 H316 0.950 . S
C337 C336 1.373 . S
C337 C353 1.377 . S
C338 C336 1.389 . S
C338 C339 1.524 . S
C338 C352 1.377 . S
C339 C338 1.524 . S
C339 C340 1.397 . S
C339 C344 1.363 . S
C340 H317 0.950 . S
C340 C339 1.397 . S
C340 C341 1.334 . S
C341 H318 0.950 . S
C341 C340 1.334 . S
C341 C342 1.287 . S
C342 C341 1.287 . S
C342 C343 1.524 . S
C342 H361 0.913 . S
C343 H319 0.950 . S
C343 C342 1.524 . S
C343 C344 1.415 . S
C344 H320 0.950 . S
C344 C339 1.363 . S
C344 C343 1.415 . S
C345 H321 0.951 . S
C345 C346 1.366 . S
C345 C347 1.388 . S
C346 C345 1.366 . S
C346 C350 1.385 . S
C347 H322 0.951 . S
C347 C345 1.388 . S
C347 C348 1.366 . S
C348 C347 1.366 . S
C348 C349 1.414 . S
C348 C351 1.499 . S
C349 H323 0.950 . S
C349 C348 1.414 . S
C349 C350 1.374 . S
C350 H324 0.950 . S
C350 C346 1.385 . S
C350 C349 1.374 . S
C351 C348 1.499 . S
C351 C352 1.373 . S
C351 C353 1.389 . S
C352 H325 0.950 . S
C352 C338 1.377 . S
C352 C351 1.373 . S
C353 C337 1.377 . S
C353 C351 1.389 . S
C353 C354 1.524 . S
C354 C353 1.524 . S
C354 C355 1.397 . S
C354 C359 1.363 . S
C355 H326 0.950 . S
C355 C354 1.397 . S
C355 C356 1.334 . S
C356 H327 0.950 . S
C356 C355 1.334 . S
C356 C357 1.287 . S
C357 C356 1.287 . S
C357 C358 1.524 . S
C357 H360 0.999 . S
C358 H328 0.950 . S
C358 C357 1.524 . S
C358 C359 1.415 . S
C359 H329 0.950 . S
C359 C354 1.363 . S
C359 C358 1.415 . S
H360 C357 0.999 . S
H361 C342 0.913 . S
H362 C380 0.951 . S
H363 C382 0.951 . S
H364 C384 0.950 . S
H365 C385 0.950 . S
H366 C387 0.950 . S
H367 C390 0.950 . S
H368 C391 0.950 . S
H369 C393 0.950 . S
H370 C394 0.950 . S
H371 C395 0.951 . S
H372 C397 0.951 . S
H373 C399 0.950 . S
H374 C400 0.950 . S
H375 C402 0.950 . S
H376 C405 0.950 . S
H377 C406 0.950 . S
H378 C408 0.950 . S
H379 C409 0.950 . S
C380 H362 0.951 . S
C380 C381 1.366 . S
C380 C382 1.388 . S
C381 C380 1.366 . S
C381 C385 1.385 . S
C382 H363 0.951 . S
C382 C380 1.388 . S
C382 C383 1.366 . S
C383 C382 1.366 . S
C383 C384 1.414 . S
C383 C386 1.499 . S
C384 H364 0.950 . S
C384 C383 1.414 . S
C384 C385 1.374 . S
C385 H365 0.950 . S
C385 C381 1.385 . S
C385 C384 1.374 . S
C386 C383 1.499 . S
C386 C387 1.373 . S
C386 C388 1.389 . S
C387 H366 0.950 . S
C387 C386 1.373 . S
C387 C403 1.377 . S
C388 C386 1.389 . S
C388 C389 1.524 . S
C388 C402 1.377 . S
C389 C388 1.524 . S
C389 C390 1.397 . S
C389 C394 1.363 . S
C390 H367 0.950 . S
C390 C389 1.397 . S
C390 C391 1.334 . S
C391 H368 0.950 . S
C391 C390 1.334 . S
C391 C392 1.287 . S
C392 C391 1.287 . S
C392 C393 1.524 . S
C392 H411 0.913 . S
C393 H369 0.950 . S
C393 C392 1.524 . S
C393 C394 1.415 . S
C394 H370 0.950 . S
C394 C389 1.363 . S
C394 C393 1.415 . S
C395 H371 0.951 . S
C395 C396 1.366 . S
C395 C397 1.388 . S
C396 C395 1.366 . S
C396 C400 1.385 . S
C397 H372 0.951 . S
C397 C395 1.388 . S
C397 C398 1.366 . S
C398 C397 1.366 . S
C398 C399 1.414 . S
C398 C401 1.499 . S
C399 H373 0.950 . S
C399 C398 1.414 . S
C399 C400 1.374 . S
C400 H374 0.950 . S
C400 C396 1.385 . S
C400 C399 1.374 . S
C401 C398 1.499 . S
C401 C402 1.373 . S
C401 C403 1.389 . S
C402 H375 0.950 . S
C402 C388 1.377 . S
C402 C401 1.373 . S
C403 C387 1.377 . S
C403 C401 1.389 . S
C403 C404 1.524 . S
C404 C403 1.524 . S
C404 C405 1.397 . S
C404 C409 1.363 . S
C405 H376 0.950 . S
C405 C404 1.397 . S
C405 C406 1.334 . S
C406 H377 0.950 . S
C406 C405 1.334 . S
C406 C407 1.287 . S
C407 C406 1.287 . S
C407 C408 1.524 . S
C407 H410 0.999 . S
C408 H378 0.950 . S
C408 C407 1.524 . S
C408 C409 1.415 . S
C409 H379 0.950 . S
C409 C404 1.363 . S
C409 C408 1.415 . S
H410 C407 0.999 . S
H411 C392 0.913 . S
H412 C430 0.951 . S
H413 C432 0.951 . S
H414 C434 0.950 . S
H415 C435 0.950 . S
H416 C437 0.950 . S
H417 C440 0.950 . S
H418 C441 0.950 . S
H419 C443 0.950 . S
H420 C444 0.950 . S
H421 C445 0.951 . S
H422 C447 0.951 . S
H423 C449 0.950 . S
H424 C450 0.950 . S
H425 C452 0.950 . S
H426 C455 0.950 . S
H427 C456 0.950 . S
H428 C458 0.950 . S
H429 C459 0.950 . S
C430 H412 0.951 . S
C430 C431 1.371 . S
C430 C432 1.388 . S
C431 C430 1.371 . S
C431 C435 1.384 1_556 S
C432 H413 0.951 . S
C432 C430 1.388 . S
C432 C433 1.366 . S
C433 C432 1.366 . S
C433 C434 1.414 . S
C433 C436 1.499 . S
C434 H414 0.950 . S
C434 C433 1.414 . S
C434 C435 1.374 1_556 S
C435 H415 0.950 . S
C435 C431 1.384 1_554 S
C435 C434 1.374 1_554 S
C436 C433 1.499 . S
C436 C437 1.373 . S
C436 C438 1.389 . S
C437 H416 0.950 . S
C437 C436 1.373 . S
C437 C453 1.377 . S
C438 C436 1.389 . S
C438 C439 1.524 . S
C438 C452 1.377 . S
C439 C438 1.524 . S
C439 C440 1.397 1_556 S
C439 C444 1.363 . S
C440 H417 0.950 . S
C440 C439 1.397 1_554 S
C440 C441 1.334 . S
C441 H418 0.950 . S
C441 C440 1.334 . S
C441 C442 1.287 . S
C442 C441 1.287 . S
C442 C443 1.524 1_554 S
C442 H461 0.913 . S
C443 H419 0.950 . S
C443 C442 1.524 1_556 S
C443 C444 1.415 . S
C444 H420 0.950 . S
C444 C439 1.363 . S
C444 C443 1.415 . S
C445 H421 0.951 . S
C445 C446 1.366 . S
C445 C447 1.388 . S
C446 C445 1.366 . S
C446 C450 1.385 . S
C447 H422 0.951 . S
C447 C445 1.388 . S
C447 C448 1.366 . S
C448 C447 1.366 . S
C448 C449 1.414 . S
C448 C451 1.499 . S
C449 H423 0.950 . S
C449 C448 1.414 . S
C449 C450 1.374 . S
C450 H424 0.950 . S
C450 C446 1.385 . S
C450 C449 1.374 . S
C451 C448 1.499 . S
C451 C452 1.373 . S
C451 C453 1.389 . S
C452 H425 0.950 . S
C452 C438 1.377 . S
C452 C451 1.373 . S
C453 C437 1.377 . S
C453 C451 1.389 . S
C453 C454 1.524 . S
C454 C453 1.524 . S
C454 C455 1.397 . S
C454 C459 1.363 . S
C455 H426 0.950 . S
C455 C454 1.397 . S
C455 C456 1.334 . S
C456 H427 0.950 . S
C456 C455 1.334 . S
C456 C457 1.287 . S
C457 C456 1.287 . S
C457 C458 1.524 . S
C457 H460 0.999 . S
C458 H428 0.950 . S
C458 C457 1.524 . S
C458 C459 1.415 . S
C459 H429 0.950 . S
C459 C454 1.363 . S
C459 C458 1.415 . S
H460 C457 0.999 . S
H461 C442 0.913 . S
H462 C480 0.951 . S
H463 C482 0.951 . S
H464 C484 0.950 . S
H465 C485 0.950 . S
H466 C487 0.950 . S
H467 C490 0.950 . S
H468 C491 0.950 . S
H469 C493 0.950 . S
H470 C494 0.950 . S
H471 C495 0.951 . S
H472 C497 0.951 . S
H473 C499 0.950 . S
H474 C500 0.950 . S
H475 C502 0.950 . S
H476 C505 0.950 . S
H477 C506 0.950 . S
H478 C508 0.950 . S
H479 C509 0.950 . S
C480 H462 0.951 . S
C480 C481 1.366 . S
C480 C482 1.388 . S
C481 C480 1.366 . S
C481 C485 1.385 . S
C482 H463 0.951 . S
C482 C480 1.388 . S
C482 C483 1.366 . S
C483 C482 1.366 . S
C483 C484 1.414 . S
C483 C486 1.499 . S
C484 H464 0.950 . S
C484 C483 1.414 . S
C484 C485 1.374 . S
C485 H465 0.950 . S
C485 C481 1.385 . S
C485 C484 1.374 . S
C486 C483 1.499 . S
C486 C487 1.373 . S
C486 C488 1.389 . S
C487 H466 0.950 . S
C487 C486 1.373 . S
C487 C503 1.377 . S
C488 C486 1.389 . S
C488 C489 1.524 . S
C488 C502 1.377 . S
C489 C488 1.524 . S
C489 C490 1.397 . S
C489 C494 1.363 . S
C490 H467 0.950 . S
C490 C489 1.397 . S
C490 C491 1.334 . S
C491 H468 0.950 . S
C491 C490 1.334 . S
C491 C492 1.287 . S
C492 C491 1.287 . S
C492 C493 1.524 . S
C492 H511 0.913 . S
C493 H469 0.950 . S
C493 C492 1.524 . S
C493 C494 1.415 . S
C494 H470 0.950 . S
C494 C489 1.363 . S
C494 C493 1.415 . S
C495 H471 0.951 . S
C495 C496 1.366 . S
C495 C497 1.388 . S
C496 C495 1.366 . S
C496 C500 1.385 . S
C497 H472 0.951 . S
C497 C495 1.388 . S
C497 C498 1.366 . S
C498 C497 1.366 . S
C498 C499 1.414 . S
C498 C501 1.499 . S
C499 H473 0.950 . S
C499 C498 1.414 . S
C499 C500 1.374 . S
C500 H474 0.950 . S
C500 C496 1.385 . S
C500 C499 1.374 . S
C501 C498 1.499 . S
C501 C502 1.373 . S
C501 C503 1.389 . S
C502 H475 0.950 . S
C502 C488 1.377 . S
C502 C501 1.373 . S
C503 C487 1.377 . S
C503 C501 1.389 . S
C503 C504 1.524 . S
C504 C503 1.524 . S
C504 C505 1.397 . S
C504 C509 1.363 . S
C505 H476 0.950 . S
C505 C504 1.397 . S
C505 C506 1.334 . S
C506 H477 0.950 . S
C506 C505 1.334 . S
C506 C507 1.287 . S
C507 C506 1.287 . S
C507 C508 1.524 . S
C507 H510 0.999 . S
C508 H478 0.950 . S
C508 C507 1.524 . S
C508 C509 1.415 . S
C509 H479 0.950 . S
C509 C504 1.363 . S
C509 C508 1.415 . S
H510 C507 0.999 . S
H511 C492 0.913 . S
H512 C530 0.951 . S
H513 C532 0.951 . S
H514 C534 0.950 . S
H515 C535 0.950 . S
H516 C537 0.950 . S
H517 C540 0.950 . S
H518 C541 0.950 . S
H519 C543 0.950 . S
H520 C544 0.950 . S
H521 C545 0.951 . S
H522 C547 0.951 . S
H523 C549 0.950 . S
H524 C550 0.950 . S
H525 C552 0.950 . S
H526 C555 0.950 . S
H527 C556 0.950 . S
H528 C558 0.950 . S
H529 C559 0.950 . S
C530 H512 0.951 . S
C530 C531 1.366 . S
C530 C532 1.388 . S
C531 C530 1.366 . S
C531 C535 1.385 . S
C532 H513 0.951 . S
C532 C530 1.388 . S
C532 C533 1.366 . S
C533 C532 1.366 . S
C533 C534 1.414 . S
C533 C536 1.499 . S
C534 H514 0.950 . S
C534 C533 1.414 . S
C534 C535 1.374 . S
C535 H515 0.950 . S
C535 C531 1.385 . S
C535 C534 1.374 . S
C536 C533 1.499 . S
C536 C537 1.373 . S
C536 C538 1.389 . S
C537 H516 0.950 . S
C537 C536 1.373 . S
C537 C553 1.377 1_565 S
C538 C536 1.389 . S
C538 C539 1.524 . S
C538 C552 1.377 1_565 S
C539 C538 1.524 . S
C539 C540 1.397 . S
C539 C544 1.363 . S
C540 H517 0.950 . S
C540 C539 1.397 . S
C540 C541 1.334 . S
C541 H518 0.950 . S
C541 C540 1.334 . S
C541 C542 1.287 . S
C542 C541 1.287 . S
C542 C543 1.524 . S
C542 H561 0.913 . S
C543 H519 0.950 . S
C543 C542 1.524 . S
C543 C544 1.415 . S
C544 H520 0.950 . S
C544 C539 1.363 . S
C544 C543 1.415 . S
C545 H521 0.951 . S
C545 C546 1.366 . S
C545 C547 1.388 . S
C546 C545 1.366 . S
C546 C550 1.385 . S
C547 H522 0.951 . S
C547 C545 1.388 . S
C547 C548 1.366 . S
C548 C547 1.366 . S
C548 C549 1.414 . S
C548 C551 1.499 . S
C549 H523 0.950 . S
C549 C548 1.414 . S
C549 C550 1.374 . S
C550 H524 0.950 . S
C550 C546 1.385 . S
C550 C549 1.374 . S
C551 C548 1.499 . S
C551 C552 1.373 . S
C551 C553 1.389 . S
C552 H525 0.950 . S
C552 C538 1.377 1_545 S
C552 C551 1.373 . S
C553 C537 1.377 1_545 S
C553 C551 1.389 . S
C553 C554 1.524 . S
C554 C553 1.524 . S
C554 C555 1.397 . S
C554 C559 1.363 . S
C555 H526 0.950 . S
C555 C554 1.397 . S
C555 C556 1.334 . S
C556 H527 0.950 . S
C556 C555 1.334 . S
C556 C557 1.287 . S
C557 C556 1.287 . S
C557 C558 1.524 . S
C557 H560 0.999 . S
C558 H528 0.950 . S
C558 C557 1.524 . S
C558 C559 1.415 . S
C559 H529 0.950 . S
C559 C554 1.363 . S
C559 C558 1.415 . S
H560 C557 0.999 . S
H561 C542 0.913 . S
H562 C580 0.951 . S
H563 C582 0.951 . S
H564 C584 0.950 . S
H565 C585 0.950 . S
H566 C587 0.950 . S
H567 C590 0.950 . S
H568 C591 0.950 . S
H569 C593 0.950 . S
H570 C594 0.950 . S
H571 C595 0.951 . S
H572 C597 0.951 . S
H573 C599 0.950 . S
H574 C600 0.950 . S
H575 C602 0.950 . S
H576 C605 0.950 . S
H577 C606 0.950 . S
H578 C608 0.950 . S
H579 C609 0.950 . S
C580 H562 0.951 . S
C580 C581 1.366 . S
C580 C582 1.388 . S
C581 C580 1.366 . S
C581 C585 1.385 . S
C582 H563 0.951 . S
C582 C580 1.388 . S
C582 C583 1.366 . S
C583 C582 1.366 . S
C583 C584 1.414 . S
C583 C586 1.499 . S
C584 H564 0.950 . S
C584 C583 1.414 . S
C584 C585 1.374 . S
C585 H565 0.950 . S
C585 C581 1.385 . S
C585 C584 1.374 . S
C586 C583 1.499 . S
C586 C587 1.373 . S
C586 C588 1.389 . S
C587 H566 0.950 . S
C587 C586 1.373 . S
C587 C603 1.377 1_655 S
C588 C586 1.389 . S
C588 C589 1.524 . S
C588 C602 1.377 1_655 S
C589 C588 1.524 . S
C589 C590 1.397 . S
C589 C594 1.363 . S
C590 H567 0.950 . S
C590 C589 1.397 . S
C590 C591 1.334 . S
C591 H568 0.950 . S
C591 C590 1.334 . S
C591 C592 1.287 . S
C592 C591 1.287 . S
C592 C593 1.524 . S
C592 H611 0.913 . S
C593 H569 0.950 . S
C593 C592 1.524 . S
C593 C594 1.415 . S
C594 H570 0.950 . S
C594 C589 1.363 . S
C594 C593 1.415 . S
C595 H571 0.951 . S
C595 C596 1.366 . S
C595 C597 1.388 . S
C596 C595 1.366 . S
C596 C600 1.385 . S
C597 H572 0.951 . S
C597 C595 1.388 . S
C597 C598 1.366 . S
C598 C597 1.366 . S
C598 C599 1.414 . S
C598 C601 1.499 . S
C599 H573 0.950 . S
C599 C598 1.414 . S
C599 C600 1.374 . S
C600 H574 0.950 . S
C600 C596 1.385 . S
C600 C599 1.374 . S
C601 C598 1.499 . S
C601 C602 1.373 . S
C601 C603 1.389 . S
C602 H575 0.950 . S
C602 C588 1.377 1_455 S
C602 C601 1.373 . S
C603 C587 1.377 1_455 S
C603 C601 1.389 . S
C603 C604 1.524 . S
C604 C603 1.524 . S
C604 C605 1.397 . S
C604 C609 1.363 . S
C605 H576 0.950 . S
C605 C604 1.397 . S
C605 C606 1.334 . S
C606 H577 0.950 . S
C606 C605 1.334 . S
C606 C607 1.287 . S
C607 C606 1.287 . S
C607 C608 1.524 . S
C607 H610 0.999 . S
C608 H578 0.950 . S
C608 C607 1.524 . S
C608 C609 1.415 . S
C609 H579 0.950 . S
C609 C604 1.363 . S
C609 C608 1.415 . S
H610 C607 0.999 . S
H611 C592 0.913 . S
H612 C630 0.951 . S
H613 C632 0.951 . S
H614 C634 0.950 . S
H615 C635 0.950 . S
H616 C637 0.950 . S
H617 C640 0.950 . S
H618 C641 0.950 . S
H619 C643 0.950 . S
H620 C644 0.950 . S
H621 C645 0.951 . S
H622 C647 0.951 . S
H623 C649 0.950 . S
H624 C650 0.950 . S
H625 C652 0.950 . S
H626 C655 0.950 . S
H627 C656 0.950 . S
H628 C658 0.950 . S
H629 C659 0.950 . S
C630 H612 0.951 . S
C630 C631 1.366 . S
C630 C632 1.388 . S
C631 C630 1.366 . S
C631 C635 1.385 . S
C632 H613 0.951 . S
C632 C630 1.388 . S
C632 C633 1.366 . S
C633 C632 1.366 . S
C633 C634 1.414 . S
C633 C636 1.499 . S
C634 H614 0.950 . S
C634 C633 1.414 . S
C634 C635 1.374 . S
C635 H615 0.950 . S
C635 C631 1.385 . S
C635 C634 1.374 . S
C636 C633 1.499 . S
C636 C637 1.373 . S
C636 C638 1.389 . S
C637 H616 0.950 . S
C637 C636 1.373 . S
C637 C653 1.377 1_565 S
C638 C636 1.389 . S
C638 C639 1.524 . S
C638 C652 1.377 1_565 S
C639 C638 1.524 . S
C639 C640 1.397 . S
C639 C644 1.363 . S
C640 H617 0.950 . S
C640 C639 1.397 . S
C640 C641 1.334 . S
C641 H618 0.950 . S
C641 C640 1.334 . S
C641 C642 1.287 . S
C642 C641 1.287 . S
C642 C643 1.524 . S
C642 H661 0.913 . S
C643 H619 0.950 . S
C643 C642 1.524 . S
C643 C644 1.415 . S
C644 H620 0.950 . S
C644 C639 1.363 . S
C644 C643 1.415 . S
C645 H621 0.951 . S
C645 C646 1.366 . S
C645 C647 1.388 . S
C646 C645 1.366 . S
C646 C650 1.385 . S
C647 H622 0.951 . S
C647 C645 1.388 . S
C647 C648 1.366 . S
C648 C647 1.366 . S
C648 C649 1.414 . S
C648 C651 1.499 . S
C649 H623 0.950 . S
C649 C648 1.414 . S
C649 C650 1.374 . S
C650 H624 0.950 . S
C650 C646 1.385 . S
C650 C649 1.374 . S
C651 C648 1.499 . S
C651 C652 1.373 . S
C651 C653 1.389 . S
C652 H625 0.950 . S
C652 C638 1.377 1_545 S
C652 C651 1.373 . S
C653 C637 1.377 1_545 S
C653 C651 1.389 . S
C653 C654 1.524 . S
C654 C653 1.524 . S
C654 C655 1.397 . S
C654 C659 1.363 . S
C655 H626 0.950 . S
C655 C654 1.397 . S
C655 C656 1.334 . S
C656 H627 0.950 . S
C656 C655 1.334 . S
C656 C657 1.287 . S
C657 C656 1.287 . S
C657 C658 1.524 . S
C657 H660 0.999 . S
C658 H628 0.950 . S
C658 C657 1.524 . S
C658 C659 1.415 . S
C659 H629 0.950 . S
C659 C654 1.363 . S
C659 C658 1.415 . S
H660 C657 0.999 . S
H661 C642 0.913 . S
H662 C680 0.951 1_556 S
H663 C682 0.951 1_556 S
H664 C684 0.950 . S
H665 C685 0.950 . S
H666 C687 0.950 . S
H667 C690 0.950 1_554 S
H668 C691 0.950 . S
H669 C693 0.950 . S
H670 C694 0.950 . S
H671 C695 0.951 . S
H672 C697 0.951 . S
H673 C699 0.950 1_556 S
H674 C700 0.950 1_556 S
H675 C702 0.950 1_556 S
H676 C705 0.950 . S
H677 C706 0.950 . S
H678 C708 0.950 . S
H679 C709 0.950 . S
C680 H662 0.951 1_554 S
C680 C681 1.366 . S
C680 C682 1.388 . S
C681 C680 1.366 . S
C681 C685 1.385 . S
C682 H663 0.951 1_554 S
C682 C680 1.388 . S
C682 C683 1.366 . S
C683 C682 1.366 . S
C683 C684 1.414 . S
C683 C686 1.499 . S
C684 H664 0.950 . S
C684 C683 1.414 . S
C684 C685 1.374 . S
C685 H665 0.950 . S
C685 C681 1.385 . S
C685 C684 1.374 . S
C686 C683 1.499 . S
C686 C687 1.373 . S
C686 C688 1.389 . S
C687 H666 0.950 . S
C687 C686 1.373 . S
C687 C703 1.377 1_655 S
C688 C686 1.389 . S
C688 C689 1.524 1_554 S
C688 C702 1.377 1_655 S
C689 C688 1.524 1_556 S
C689 C690 1.397 . S
C689 C694 1.363 . S
C690 H667 0.950 1_556 S
C690 C689 1.397 . S
C690 C691 1.334 . S
C691 H668 0.950 . S
C691 C690 1.334 . S
C691 C692 1.287 . S
C692 C691 1.287 . S
C692 C693 1.524 . S
C692 H711 0.913 . S
C693 H669 0.950 . S
C693 C692 1.524 . S
C693 C694 1.415 . S
C694 H670 0.950 . S
C694 C689 1.363 . S
C694 C693 1.415 . S
C695 H671 0.951 . S
C695 C696 1.366 . S
C695 C697 1.388 . S
C696 C695 1.366 . S
C696 C700 1.385 . S
C697 H672 0.951 . S
C697 C695 1.388 . S
C697 C698 1.366 . S
C698 C697 1.366 . S
C698 C699 1.414 . S
C698 C701 1.499 . S
C699 H673 0.950 1_554 S
C699 C698 1.414 . S
C699 C700 1.374 . S
C700 H674 0.950 1_554 S
C700 C696 1.385 . S
C700 C699 1.374 . S
C701 C698 1.499 . S
C701 C702 1.373 . S
C701 C703 1.389 . S
C702 H675 0.950 1_554 S
C702 C688 1.377 1_455 S
C702 C701 1.373 . S
C703 C687 1.377 1_455 S
C703 C701 1.389 . S
C703 C704 1.524 . S
C704 C703 1.524 . S
C704 C705 1.397 . S
C704 C709 1.363 . S
C705 H676 0.950 . S
C705 C704 1.397 . S
C705 C706 1.334 . S
C706 H677 0.950 . S
C706 C705 1.334 . S
C706 C707 1.287 . S
C707 C706 1.287 . S
C707 C708 1.524 . S
C707 H710 0.999 . S
C708 H678 0.950 . S
C708 C707 1.524 . S
C708 C709 1.415 . S
C709 H679 0.950 . S
C709 C704 1.363 . S
C709 C708 1.415 . S
H710 C707 0.999 . S
H711 C692 0.913 . S
H712 C730 0.951 . S
H713 C732 0.951 . S
H714 C734 0.950 . S
H715 C735 0.950 . S
H716 C737 0.950 . S
H717 C740 0.950 . S
H718 C741 0.950 . S
H719 C743 0.950 . S
H720 C744 0.950 . S
H721 C745 0.951 . S
H722 C747 0.951 . S
H723 C749 0.950 . S
H724 C750 0.950 . S
H725 C752 0.950 . S
H726 C755 0.950 . S
H727 C756 0.950 . S
H728 C758 0.950 . S
H729 C759 0.950 . S
C730 H712 0.951 . S
C730 C731 1.366 . S
C730 C732 1.388 . S
C731 C730 1.366 . S
C731 C735 1.385 . S
C732 H713 0.951 . S
C732 C730 1.388 . S
C732 C733 1.366 . S
C733 C732 1.366 . S
C733 C734 1.414 . S
C733 C736 1.499 1_556 S
C734 H714 0.950 . S
C734 C733 1.414 . S
C734 C735 1.374 . S
C735 H715 0.950 . S
C735 C731 1.385 . S
C735 C734 1.374 . S
C736 C733 1.499 1_554 S
C736 C737 1.373 . S
C736 C738 1.389 . S
C737 H716 0.950 . S
C737 C736 1.373 . S
C737 C753 1.377 . S
C738 C736 1.389 . S
C738 C739 1.524 1_554 S
C738 C752 1.377 . S
C739 C738 1.524 1_556 S
C739 C740 1.397 . S
C739 C744 1.363 . S
C740 H717 0.950 . S
C740 C739 1.397 . S
C740 C741 1.334 . S
C741 H718 0.950 . S
C741 C740 1.334 . S
C741 C742 1.287 . S
C742 C741 1.287 . S
C742 C743 1.524 . S
C742 H761 0.913 . S
C743 H719 0.950 . S
C743 C742 1.524 . S
C743 C744 1.415 . S
C744 H720 0.950 . S
C744 C739 1.363 . S
C744 C743 1.415 . S
C745 H721 0.951 . S
C745 C746 1.366 . S
C745 C747 1.388 . S
C746 C745 1.366 . S
C746 C750 1.385 . S
C747 H722 0.951 . S
C747 C745 1.388 . S
C747 C748 1.366 . S
C748 C747 1.366 . S
C748 C749 1.414 . S
C748 C751 1.499 . S
C749 H723 0.950 . S
C749 C748 1.414 . S
C749 C750 1.374 . S
C750 H724 0.950 . S
C750 C746 1.385 . S
C750 C749 1.374 . S
C751 C748 1.499 . S
C751 C752 1.373 . S
C751 C753 1.389 . S
C752 H725 0.950 . S
C752 C738 1.377 . S
C752 C751 1.373 . S
C753 C737 1.377 . S
C753 C751 1.389 . S
C753 C754 1.524 . S
C754 C753 1.524 . S
C754 C755 1.397 . S
C754 C759 1.363 . S
C755 H726 0.950 . S
C755 C754 1.397 . S
C755 C756 1.334 . S
C756 H727 0.950 . S
C756 C755 1.334 . S
C756 C757 1.287 . S
C757 C756 1.287 . S
C757 C758 1.524 . S
C757 H760 0.999 . S
C758 H728 0.950 . S
C758 C757 1.524 . S
C758 C759 1.415 . S
C759 H729 0.950 . S
C759 C754 1.363 . S
C759 C758 1.415 . S
H760 C757 0.999 . S
H761 C742 0.913 . S
H762 C780 0.951 . S
H763 C782 0.951 . S
H764 C784 0.950 . S
H765 C785 0.950 . S
H766 C787 0.950 . S
H767 C790 0.950 . S
H768 C791 0.950 . S
H769 C793 0.950 . S
H770 C794 0.950 . S
H771 C795 0.951 . S
H772 C797 0.951 . S
H773 C799 0.950 . S
H774 C800 0.950 . S
H775 C802 0.950 . S
H776 C805 0.950 . S
H777 C806 0.950 . S
H778 C808 0.950 . S
H779 C809 0.950 . S
C780 H762 0.951 . S
C780 C781 1.366 . S
C780 C782 1.388 . S
C781 C780 1.366 . S
C781 C785 1.385 . S
C782 H763 0.951 . S
C782 C780 1.388 . S
C782 C783 1.366 . S
C783 C782 1.366 . S
C783 C784 1.414 . S
C783 C786 1.499 . S
C784 H764 0.950 . S
C784 C783 1.414 . S
C784 C785 1.374 . S
C785 H765 0.950 . S
C785 C781 1.385 . S
C785 C784 1.374 . S
C786 C783 1.499 . S
C786 C787 1.373 . S
C786 C788 1.389 . S
C787 H766 0.950 . S
C787 C786 1.373 . S
C787 C803 1.377 . S
C788 C786 1.389 . S
C788 C789 1.524 . S
C788 C802 1.377 . S
C789 C788 1.524 . S
C789 C790 1.397 . S
C789 C794 1.363 . S
C790 H767 0.950 . S
C790 C789 1.397 . S
C790 C791 1.334 . S
C791 H768 0.950 . S
C791 C790 1.334 . S
C791 C792 1.287 . S
C792 C791 1.287 . S
C792 C793 1.524 . S
C792 H811 0.913 . S
C793 H769 0.950 . S
C793 C792 1.524 . S
C793 C794 1.415 . S
C794 H770 0.950 . S
C794 C789 1.363 . S
C794 C793 1.415 . S
C795 H771 0.951 . S
C795 C796 1.366 . S
C795 C797 1.388 . S
C796 C795 1.366 . S
C796 C800 1.385 . S
C797 H772 0.951 . S
C797 C795 1.388 . S
C797 C798 1.366 . S
C798 C797 1.366 . S
C798 C799 1.414 . S
C798 C801 1.499 . S
C799 H773 0.950 . S
C799 C798 1.414 . S
C799 C800 1.374 . S
C800 H774 0.950 . S
C800 C796 1.385 . S
C800 C799 1.374 . S
C801 C798 1.499 . S
C801 C802 1.373 . S
C801 C803 1.389 . S
C802 H775 0.950 . S
C802 C788 1.377 . S
C802 C801 1.373 . S
C803 C787 1.377 . S
C803 C801 1.389 . S
C803 C804 1.524 . S
C804 C803 1.524 . S
C804 C805 1.397 . S
C804 C809 1.363 . S
C805 H776 0.950 . S
C805 C804 1.397 . S
C805 C806 1.334 . S
C806 H777 0.950 . S
C806 C805 1.334 . S
C806 C807 1.287 . S
C807 C806 1.287 . S
C807 C808 1.524 . S
C807 H810 0.999 . S
C808 H778 0.950 . S
C808 C807 1.524 . S
C808 C809 1.415 . S
C809 H779 0.950 . S
C809 C804 1.363 . S
C809 C808 1.415 . S
H810 C807 0.999 . S
H811 C792 0.913 . S
H812 C830 0.951 . S
H813 C832 0.951 . S
H814 C834 0.950 . S
H815 C835 0.950 . S
H816 C837 0.950 . S
H817 C840 0.950 . S
H818 C841 0.950 . S
H819 C843 0.950 . S
H820 C844 0.950 . S
H821 C845 0.951 . S
H822 C847 0.951 . S
H823 C849 0.950 . S
H824 C850 0.950 . S
H825 C852 0.950 . S
H826 C855 0.950 . S
H827 C856 0.950 . S
H828 C858 0.950 . S
H829 C859 0.950 . S
C830 H812 0.951 . S
C830 C831 1.366 . S
C830 C832 1.388 . S
C831 C830 1.366 . S
C831 C835 1.385 . S
C832 H813 0.951 . S
C832 C830 1.388 . S
C832 C833 1.366 . S
C833 C832 1.366 . S
C833 C834 1.414 . S
C833 C836 1.499 . S
C834 H814 0.950 . S
C834 C833 1.414 . S
C834 C835 1.374 . S
C835 H815 0.950 . S
C835 C831 1.385 . S
C835 C834 1.374 . S
C836 C833 1.499 . S
C836 C837 1.373 . S
C836 C838 1.389 . S
C837 H816 0.950 . S
C837 C836 1.373 . S
C837 C853 1.377 . S
C838 C836 1.389 . S
C838 C839 1.524 . S
C838 C852 1.377 . S
C839 C838 1.524 . S
C839 C840 1.397 . S
C839 C844 1.363 . S
C840 H817 0.950 . S
C840 C839 1.397 . S
C840 C841 1.334 . S
C841 H818 0.950 . S
C841 C840 1.334 . S
C841 C842 1.287 . S
C842 C841 1.287 . S
C842 C843 1.524 . S
C842 H861 0.913 . S
C843 H819 0.950 . S
C843 C842 1.524 . S
C843 C844 1.415 . S
C844 H820 0.950 . S
C844 C839 1.363 . S
C844 C843 1.415 . S
C845 H821 0.951 . S
C845 C846 1.366 . S
C845 C847 1.388 . S
C846 C845 1.366 . S
C846 C850 1.385 . S
C847 H822 0.951 . S
C847 C845 1.388 . S
C847 C848 1.366 . S
C848 C847 1.366 . S
C848 C849 1.414 . S
C848 C851 1.499 . S
C849 H823 0.950 . S
C849 C848 1.414 . S
C849 C850 1.374 . S
C850 H824 0.950 . S
C850 C846 1.385 . S
C850 C849 1.374 . S
C851 C848 1.499 . S
C851 C852 1.373 . S
C851 C853 1.389 . S
C852 H825 0.950 . S
C852 C838 1.377 . S
C852 C851 1.373 . S
C853 C837 1.377 . S
C853 C851 1.389 . S
C853 C854 1.524 . S
C854 C853 1.524 . S
C854 C855 1.397 . S
C854 C859 1.363 . S
C855 H826 0.950 . S
C855 C854 1.397 . S
C855 C856 1.334 . S
C856 H827 0.950 . S
C856 C855 1.334 . S
C856 C857 1.287 . S
C857 C856 1.287 . S
C857 C858 1.524 . S
C857 H860 0.999 . S
C858 H828 0.950 . S
C858 C857 1.524 . S
C858 C859 1.415 . S
C859 H829 0.950 . S
C859 C854 1.363 . S
C859 C858 1.415 . S
H860 C857 0.999 . S
H861 C842 0.913 . S
H862 C880 0.951 . S
H863 C882 0.951 . S
H864 C884 0.950 . S
H865 C885 0.950 . S
H866 C887 0.950 . S
H867 C890 0.950 . S
H868 C891 0.950 . S
H869 C893 0.950 . S
H870 C894 0.950 . S
H871 C895 0.951 . S
H872 C897 0.951 . S
H873 C899 0.950 . S
H874 C900 0.950 . S
H875 C902 0.950 . S
H876 C905 0.950 . S
H877 C906 0.950 . S
H878 C908 0.950 . S
H879 C909 0.950 . S
C880 H862 0.951 . S
C880 C881 1.366 . S
C880 C882 1.388 . S
C881 C880 1.366 . S
C881 C885 1.385 . S
C882 H863 0.951 . S
C882 C880 1.388 . S
C882 C883 1.366 . S
C883 C882 1.366 . S
C883 C884 1.414 . S
C883 C886 1.499 . S
C884 H864 0.950 . S
C884 C883 1.414 . S
C884 C885 1.374 . S
C885 H865 0.950 . S
C885 C881 1.385 . S
C885 C884 1.374 . S
C886 C883 1.499 . S
C886 C887 1.373 . S
C886 C888 1.389 . S
C887 H866 0.950 . S
C887 C886 1.373 . S
C887 C903 1.377 . S
C888 C886 1.389 . S
C888 C889 1.524 . S
C888 C902 1.377 . S
C889 C888 1.524 . S
C889 C890 1.397 . S
C889 C894 1.363 . S
C890 H867 0.950 . S
C890 C889 1.397 . S
C890 C891 1.334 . S
C891 H868 0.950 . S
C891 C890 1.334 . S
C891 C892 1.287 . S
C892 C891 1.287 . S
C892 C893 1.524 . S
C892 H911 0.913 . S
C893 H869 0.950 . S
C893 C892 1.524 . S
C893 C894 1.415 . S
C894 H870 0.950 . S
C894 C889 1.363 . S
C894 C893 1.415 . S
C895 H871 0.951 . S
C895 C896 1.366 . S
C895 C897 1.388 . S
C896 C895 1.366 . S
C896 C900 1.385 . S
C897 H872 0.951 . S
C897 C895 1.388 . S
C897 C898 1.366 . S
C898 C897 1.366 . S
C898 C899 1.414 . S
C898 C901 1.499 . S
C899 H873 0.950 . S
C899 C898 1.414 . S
C899 C900 1.374 . S
C900 H874 0.950 . S
C900 C896 1.385 . S
C900 C899 1.374 . S
C901 C898 1.499 . S
C901 C902 1.373 . S
C901 C903 1.389 . S
C902 H875 0.950 . S
C902 C888 1.377 . S
C902 C901 1.373 . S
C903 C887 1.377 . S
C903 C901 1.389 . S
C903 C904 1.524 . S
C904 C903 1.524 . S
C904 C905 1.397 . S
C904 C909 1.363 . S
C905 H876 0.950 . S
C905 C904 1.397 . S
C905 C906 1.334 . S
C906 H877 0.950 . S
C906 C905 1.334 . S
C906 C907 1.287 . S
C907 C906 1.287 . S
C907 C908 1.524 . S
C907 H910 0.999 . S
C908 H878 0.950 . S
C908 C907 1.524 . S
C908 C909 1.415 . S
C909 H879 0.950 . S
C909 C904 1.363 . S
C909 C908 1.415 . S
H910 C907 0.999 . S
H911 C892 0.913 . S
C131 C9 0.496 . S
C146 C93 0.496 . S
C181 C23 0.495 . S
C196 C107 0.496 . S
C231 C65 0.495 . S
C246 C37 0.496 . S
C281 C79 0.495 . S
C296 C51 0.495 . S
C331 C11 1.476 . S
C346 C81 1.476 . S
C381 C25 1.476 . S
C396 C95 1.476 . S
C431 C109 1.473 1_556 S
C446 C39 1.475 . S
C481 C53 1.476 . S
C496 C67 1.476 . S
C531 C61 1.503 . S
C546 C5 1.503 . S
C581 C19 1.503 . S
C596 C75 1.503 . S
C631 C33 1.503 . S
C646 C89 1.503 . S
C681 C103 1.503 . S
C696 C47 1.503 . S
C731 C84 1.496 . S
C746 C0 1.497 . S
C781 C98 1.496 . S
C796 C14 1.497 . S
C831 C28 1.497 . S
C846 C56 1.497 . S
C881 C42 1.496 . S
C896 C70 1.497 . S
