# Generated by pormake.
# Topology rho, (4)-cn, num edge types: 1
# Building blocks:
#     Node 0, Type 0, BuildingBlock: CEKHIL_clean_sbu_0, # of connection points: 4
#     Node 1, Type 0, BuildingBlock: CEKHIL_clean_sbu_0, # of connection points: 4
#     Node 2, Type 0, BuildingBlock: CEKHIL_clean_sbu_0, # of connection points: 4
#     Node 3, Type 0, BuildingBlock: CEKHIL_clean_sbu_0, # of connection points: 4
#     Node 4, Type 0, BuildingBlock: CEKHIL_clean_sbu_0, # of connection points: 4
#     Node 5, Type 0, BuildingBlock: CEKHIL_clean_sbu_0, # of connection points: 4
#     Node 6, Type 0, BuildingBlock: CEKHIL_clean_sbu_0, # of connection points: 4
#     Node 7, Type 0, BuildingBlock: CEKHIL_clean_sbu_0, # of connection points: 4
#     Node 8, Type 0, BuildingBlock: CEKHIL_clean_sbu_0, # of connection points: 4
#     Node 9, Type 0, BuildingBlock: CEKHIL_clean_sbu_0, # of connection points: 4
#     Node 10, Type 0, BuildingBlock: CEKHIL_clean_sbu_0, # of connection points: 4
#     Node 11, Type 0, BuildingBlock: CEKHIL_clean_sbu_0, # of connection points: 4
#     Node 12, Type 0, BuildingBlock: CEKHIL_clean_sbu_0, # of connection points: 4
#     Node 13, Type 0, BuildingBlock: CEKHIL_clean_sbu_0, # of connection points: 4
#     Node 14, Type 0, BuildingBlock: CEKHIL_clean_sbu_0, # of connection points: 4
#     Node 15, Type 0, BuildingBlock: CEKHIL_clean_sbu_0, # of connection points: 4
#     Node 16, Type 0, BuildingBlock: CEKHIL_clean_sbu_0, # of connection points: 4
#     Node 17, Type 0, BuildingBlock: CEKHIL_clean_sbu_0, # of connection points: 4
#     Node 18, Type 0, BuildingBlock: CEKHIL_clean_sbu_0, # of connection points: 4
#     Node 19, Type 0, BuildingBlock: CEKHIL_clean_sbu_0, # of connection points: 4
#     Node 20, Type 0, BuildingBlock: CEKHIL_clean_sbu_0, # of connection points: 4
#     Node 21, Type 0, BuildingBlock: CEKHIL_clean_sbu_0, # of connection points: 4
#     Node 22, Type 0, BuildingBlock: CEKHIL_clean_sbu_0, # of connection points: 4
#     Node 23, Type 0, BuildingBlock: CEKHIL_clean_sbu_0, # of connection points: 4
#     Node 24, Type 0, BuildingBlock: CEKHIL_clean_sbu_0, # of connection points: 4
#     Node 25, Type 0, BuildingBlock: CEKHIL_clean_sbu_0, # of connection points: 4
#     Node 26, Type 0, BuildingBlock: CEKHIL_clean_sbu_0, # of connection points: 4
#     Node 27, Type 0, BuildingBlock: CEKHIL_clean_sbu_0, # of connection points: 4
#     Node 28, Type 0, BuildingBlock: CEKHIL_clean_sbu_0, # of connection points: 4
#     Node 29, Type 0, BuildingBlock: CEKHIL_clean_sbu_0, # of connection points: 4
#     Node 30, Type 0, BuildingBlock: CEKHIL_clean_sbu_0, # of connection points: 4
#     Node 31, Type 0, BuildingBlock: CEKHIL_clean_sbu_0, # of connection points: 4
#     Node 32, Type 0, BuildingBlock: CEKHIL_clean_sbu_0, # of connection points: 4
#     Node 33, Type 0, BuildingBlock: CEKHIL_clean_sbu_0, # of connection points: 4
#     Node 34, Type 0, BuildingBlock: CEKHIL_clean_sbu_0, # of connection points: 4
#     Node 35, Type 0, BuildingBlock: CEKHIL_clean_sbu_0, # of connection points: 4
#     Node 36, Type 0, BuildingBlock: CEKHIL_clean_sbu_0, # of connection points: 4
#     Node 37, Type 0, BuildingBlock: CEKHIL_clean_sbu_0, # of connection points: 4
#     Node 38, Type 0, BuildingBlock: CEKHIL_clean_sbu_0, # of connection points: 4
#     Node 39, Type 0, BuildingBlock: CEKHIL_clean_sbu_0, # of connection points: 4
#     Node 40, Type 0, BuildingBlock: CEKHIL_clean_sbu_0, # of connection points: 4
#     Node 41, Type 0, BuildingBlock: CEKHIL_clean_sbu_0, # of connection points: 4
#     Node 42, Type 0, BuildingBlock: CEKHIL_clean_sbu_0, # of connection points: 4
#     Node 43, Type 0, BuildingBlock: CEKHIL_clean_sbu_0, # of connection points: 4
#     Node 44, Type 0, BuildingBlock: CEKHIL_clean_sbu_0, # of connection points: 4
#     Node 45, Type 0, BuildingBlock: CEKHIL_clean_sbu_0, # of connection points: 4
#     Node 46, Type 0, BuildingBlock: CEKHIL_clean_sbu_0, # of connection points: 4
#     Node 47, Type 0, BuildingBlock: CEKHIL_clean_sbu_0, # of connection points: 4
#     Edge 48, Type (0, 0), BuildingBlock: CIFDUS_clean_linker_0, # of connection points: 2
#     Edge 49, Type (0, 0), BuildingBlock: CIFDUS_clean_linker_0, # of connection points: 2
#     Edge 50, Type (0, 0), BuildingBlock: CIFDUS_clean_linker_0, # of connection points: 2
#     Edge 51, Type (0, 0), BuildingBlock: CIFDUS_clean_linker_0, # of connection points: 2
#     Edge 52, Type (0, 0), BuildingBlock: CIFDUS_clean_linker_0, # of connection points: 2
#     Edge 53, Type (0, 0), BuildingBlock: CIFDUS_clean_linker_0, # of connection points: 2
#     Edge 54, Type (0, 0), BuildingBlock: CIFDUS_clean_linker_0, # of connection points: 2
#     Edge 55, Type (0, 0), BuildingBlock: CIFDUS_clean_linker_0, # of connection points: 2
#     Edge 56, Type (0, 0), BuildingBlock: CIFDUS_clean_linker_0, # of connection points: 2
#     Edge 57, Type (0, 0), BuildingBlock: CIFDUS_clean_linker_0, # of connection points: 2
#     Edge 58, Type (0, 0), BuildingBlock: CIFDUS_clean_linker_0, # of connection points: 2
#     Edge 59, Type (0, 0), BuildingBlock: CIFDUS_clean_linker_0, # of connection points: 2
#     Edge 60, Type (0, 0), BuildingBlock: CIFDUS_clean_linker_0, # of connection points: 2
#     Edge 61, Type (0, 0), BuildingBlock: CIFDUS_clean_linker_0, # of connection points: 2
#     Edge 62, Type (0, 0), BuildingBlock: CIFDUS_clean_linker_0, # of connection points: 2
#     Edge 63, Type (0, 0), BuildingBlock: CIFDUS_clean_linker_0, # of connection points: 2
#     Edge 64, Type (0, 0), BuildingBlock: CIFDUS_clean_linker_0, # of connection points: 2
#     Edge 65, Type (0, 0), BuildingBlock: CIFDUS_clean_linker_0, # of connection points: 2
#     Edge 66, Type (0, 0), BuildingBlock: CIFDUS_clean_linker_0, # of connection points: 2
#     Edge 67, Type (0, 0), BuildingBlock: CIFDUS_clean_linker_0, # of connection points: 2
#     Edge 68, Type (0, 0), BuildingBlock: CIFDUS_clean_linker_0, # of connection points: 2
#     Edge 69, Type (0, 0), BuildingBlock: CIFDUS_clean_linker_0, # of connection points: 2
#     Edge 70, Type (0, 0), BuildingBlock: CIFDUS_clean_linker_0, # of connection points: 2
#     Edge 71, Type (0, 0), BuildingBlock: CIFDUS_clean_linker_0, # of connection points: 2
#     Edge 72, Type (0, 0), BuildingBlock: CIFDUS_clean_linker_0, # of connection points: 2
#     Edge 73, Type (0, 0), BuildingBlock: CIFDUS_clean_linker_0, # of connection points: 2
#     Edge 74, Type (0, 0), BuildingBlock: CIFDUS_clean_linker_0, # of connection points: 2
#     Edge 75, Type (0, 0), BuildingBlock: CIFDUS_clean_linker_0, # of connection points: 2
#     Edge 76, Type (0, 0), BuildingBlock: CIFDUS_clean_linker_0, # of connection points: 2
#     Edge 77, Type (0, 0), BuildingBlock: CIFDUS_clean_linker_0, # of connection points: 2
#     Edge 78, Type (0, 0), BuildingBlock: CIFDUS_clean_linker_0, # of connection points: 2
#     Edge 79, Type (0, 0), BuildingBlock: CIFDUS_clean_linker_0, # of connection points: 2
#     Edge 80, Type (0, 0), BuildingBlock: CIFDUS_clean_linker_0, # of connection points: 2
#     Edge 81, Type (0, 0), BuildingBlock: CIFDUS_clean_linker_0, # of connection points: 2
#     Edge 82, Type (0, 0), BuildingBlock: CIFDUS_clean_linker_0, # of connection points: 2
#     Edge 83, Type (0, 0), BuildingBlock: CIFDUS_clean_linker_0, # of connection points: 2
#     Edge 84, Type (0, 0), BuildingBlock: CIFDUS_clean_linker_0, # of connection points: 2
#     Edge 85, Type (0, 0), BuildingBlock: CIFDUS_clean_linker_0, # of connection points: 2
#     Edge 86, Type (0, 0), BuildingBlock: CIFDUS_clean_linker_0, # of connection points: 2
#     Edge 87, Type (0, 0), BuildingBlock: CIFDUS_clean_linker_0, # of connection points: 2
#     Edge 88, Type (0, 0), BuildingBlock: CIFDUS_clean_linker_0, # of connection points: 2
#     Edge 89, Type (0, 0), BuildingBlock: CIFDUS_clean_linker_0, # of connection points: 2
#     Edge 90, Type (0, 0), BuildingBlock: CIFDUS_clean_linker_0, # of connection points: 2
#     Edge 91, Type (0, 0), BuildingBlock: CIFDUS_clean_linker_0, # of connection points: 2
#     Edge 92, Type (0, 0), BuildingBlock: CIFDUS_clean_linker_0, # of connection points: 2
#     Edge 93, Type (0, 0), BuildingBlock: CIFDUS_clean_linker_0, # of connection points: 2
#     Edge 94, Type (0, 0), BuildingBlock: CIFDUS_clean_linker_0, # of connection points: 2
#     Edge 95, Type (0, 0), BuildingBlock: CIFDUS_clean_linker_0, # of connection points: 2
#     Edge 96, Type (0, 0), BuildingBlock: CIFDUS_clean_linker_0, # of connection points: 2
#     Edge 97, Type (0, 0), BuildingBlock: CIFDUS_clean_linker_0, # of connection points: 2
#     Edge 98, Type (0, 0), BuildingBlock: CIFDUS_clean_linker_0, # of connection points: 2
#     Edge 99, Type (0, 0), BuildingBlock: CIFDUS_clean_linker_0, # of connection points: 2
#     Edge 100, Type (0, 0), BuildingBlock: CIFDUS_clean_linker_0, # of connection points: 2
#     Edge 101, Type (0, 0), BuildingBlock: CIFDUS_clean_linker_0, # of connection points: 2
#     Edge 102, Type (0, 0), BuildingBlock: CIFDUS_clean_linker_0, # of connection points: 2
#     Edge 103, Type (0, 0), BuildingBlock: CIFDUS_clean_linker_0, # of connection points: 2
#     Edge 104, Type (0, 0), BuildingBlock: CIFDUS_clean_linker_0, # of connection points: 2
#     Edge 105, Type (0, 0), BuildingBlock: CIFDUS_clean_linker_0, # of connection points: 2
#     Edge 106, Type (0, 0), BuildingBlock: CIFDUS_clean_linker_0, # of connection points: 2
#     Edge 107, Type (0, 0), BuildingBlock: CIFDUS_clean_linker_0, # of connection points: 2
#     Edge 108, Type (0, 0), BuildingBlock: CIFDUS_clean_linker_0, # of connection points: 2
#     Edge 109, Type (0, 0), BuildingBlock: CIFDUS_clean_linker_0, # of connection points: 2
#     Edge 110, Type (0, 0), BuildingBlock: CIFDUS_clean_linker_0, # of connection points: 2
#     Edge 111, Type (0, 0), BuildingBlock: CIFDUS_clean_linker_0, # of connection points: 2
#     Edge 112, Type (0, 0), BuildingBlock: CIFDUS_clean_linker_0, # of connection points: 2
#     Edge 113, Type (0, 0), BuildingBlock: CIFDUS_clean_linker_0, # of connection points: 2
#     Edge 114, Type (0, 0), BuildingBlock: CIFDUS_clean_linker_0, # of connection points: 2
#     Edge 115, Type (0, 0), BuildingBlock: CIFDUS_clean_linker_0, # of connection points: 2
#     Edge 116, Type (0, 0), BuildingBlock: CIFDUS_clean_linker_0, # of connection points: 2
#     Edge 117, Type (0, 0), BuildingBlock: CIFDUS_clean_linker_0, # of connection points: 2
#     Edge 118, Type (0, 0), BuildingBlock: CIFDUS_clean_linker_0, # of connection points: 2
#     Edge 119, Type (0, 0), BuildingBlock: CIFDUS_clean_linker_0, # of connection points: 2
#     Edge 120, Type (0, 0), BuildingBlock: CIFDUS_clean_linker_0, # of connection points: 2
#     Edge 121, Type (0, 0), BuildingBlock: CIFDUS_clean_linker_0, # of connection points: 2
#     Edge 122, Type (0, 0), BuildingBlock: CIFDUS_clean_linker_0, # of connection points: 2
#     Edge 123, Type (0, 0), BuildingBlock: CIFDUS_clean_linker_0, # of connection points: 2
#     Edge 124, Type (0, 0), BuildingBlock: CIFDUS_clean_linker_0, # of connection points: 2
#     Edge 125, Type (0, 0), BuildingBlock: CIFDUS_clean_linker_0, # of connection points: 2
#     Edge 126, Type (0, 0), BuildingBlock: CIFDUS_clean_linker_0, # of connection points: 2
#     Edge 127, Type (0, 0), BuildingBlock: CIFDUS_clean_linker_0, # of connection points: 2
#     Edge 128, Type (0, 0), BuildingBlock: CIFDUS_clean_linker_0, # of connection points: 2
#     Edge 129, Type (0, 0), BuildingBlock: CIFDUS_clean_linker_0, # of connection points: 2
#     Edge 130, Type (0, 0), BuildingBlock: CIFDUS_clean_linker_0, # of connection points: 2
#     Edge 131, Type (0, 0), BuildingBlock: CIFDUS_clean_linker_0, # of connection points: 2
#     Edge 132, Type (0, 0), BuildingBlock: CIFDUS_clean_linker_0, # of connection points: 2
#     Edge 133, Type (0, 0), BuildingBlock: CIFDUS_clean_linker_0, # of connection points: 2
#     Edge 134, Type (0, 0), BuildingBlock: CIFDUS_clean_linker_0, # of connection points: 2
#     Edge 135, Type (0, 0), BuildingBlock: CIFDUS_clean_linker_0, # of connection points: 2
#     Edge 136, Type (0, 0), BuildingBlock: CIFDUS_clean_linker_0, # of connection points: 2
#     Edge 137, Type (0, 0), BuildingBlock: CIFDUS_clean_linker_0, # of connection points: 2
#     Edge 138, Type (0, 0), BuildingBlock: CIFDUS_clean_linker_0, # of connection points: 2
#     Edge 139, Type (0, 0), BuildingBlock: CIFDUS_clean_linker_0, # of connection points: 2
#     Edge 140, Type (0, 0), BuildingBlock: CIFDUS_clean_linker_0, # of connection points: 2
#     Edge 141, Type (0, 0), BuildingBlock: CIFDUS_clean_linker_0, # of connection points: 2
#     Edge 142, Type (0, 0), BuildingBlock: CIFDUS_clean_linker_0, # of connection points: 2
#     Edge 143, Type (0, 0), BuildingBlock: CIFDUS_clean_linker_0, # of connection points: 2
# Relax obj value: 0.078
# Max RMSD: 0.092
# Mean RMSD: 0.084
data_MOF--net-rho--node1-CEKHIL_clean_sbu_0--edge1-CIFDUS_clean_linker_0
_symmetry_space_group_name_H-M    P1
_symmetry_Int_Tables_number       1
_symmetry_cell_setting            triclinic
loop_
_symmetry_equiv_pos_as_xyz
'x, y, z'
_cell_length_a     62.666419
_cell_length_b     62.054847
_cell_length_c     62.090949
_cell_angle_alpha  90.187934
_cell_angle_beta   89.987145
_cell_angle_gamma 90.742198
loop_
_atom_site_label
_atom_site_type_symbol
_atom_site_fract_x
_atom_site_fract_y
_atom_site_fract_z
_atom_type_partial_charge
Co0 Co 0.11423 0.25487 0.39315 0.0
O1 O 0.14397 0.24711 0.39287 0.0
O2 O 0.11688 0.22423 0.39704 0.0
C3 C 0.11545 0.27683 0.36424 0.0
O4 O 0.08182 0.25593 0.39346 0.0
Co5 Co 0.09864 0.30176 0.39963 0.0
O6 O 0.06991 0.28986 0.39252 0.0
C7 C 0.11709 0.27759 0.43599 0.0
C8 C 0.13737 0.22736 0.39567 0.0
C9 C 0.06659 0.26957 0.39212 0.0
O10 O 0.11568 0.25986 0.42525 0.0
O11 O 0.11312 0.29604 0.42783 0.0
O12 O 0.11388 0.25606 0.36163 0.0
O13 O 0.11786 0.28335 0.38383 0.0
Co14 Co 0.75528 0.10735 0.39435 0.0
O15 O 0.75078 0.10753 0.36368 0.0
O16 O 0.72496 0.10426 0.38768 0.0
C17 C 0.77757 0.1363 0.39506 0.0
O18 O 0.75435 0.10731 0.42753 0.0
Co19 Co 0.80061 0.09887 0.4118 0.0
O20 O 0.7884 0.11103 0.43861 0.0
C21 C 0.77442 0.06211 0.39663 0.0
C22 C 0.73055 0.10551 0.36749 0.0
C23 C 0.76841 0.11094 0.44238 0.0
O24 O 0.75878 0.07503 0.39365 0.0
O25 O 0.79296 0.06858 0.40272 0.0
O26 O 0.75703 0.13873 0.39484 0.0
O27 O 0.78396 0.11668 0.39276 0.0
Co28 Co 0.88768 0.76167 0.3958 0.0
O29 O 0.85772 0.76885 0.39667 0.0
O30 O 0.8843 0.79227 0.40071 0.0
C31 C 0.88609 0.74022 0.36622 0.0
O32 O 0.92029 0.76109 0.39507 0.0
Co33 Co 0.90392 0.71463 0.40017 0.0
O34 O 0.93206 0.72716 0.39208 0.0
C35 C 0.88616 0.73746 0.43785 0.0
C36 C 0.86383 0.7887 0.39985 0.0
C37 C 0.93543 0.74746 0.39243 0.0
O38 O 0.88723 0.75564 0.42786 0.0
O39 O 0.88995 0.71935 0.42876 0.0
O40 O 0.88713 0.76106 0.36406 0.0
O41 O 0.88431 0.73346 0.38571 0.0
Co42 Co 0.25668 0.89455 0.39031 0.0
O43 O 0.26694 0.89251 0.36126 0.0
O44 O 0.28767 0.89621 0.38991 0.0
C45 C 0.23273 0.86703 0.38852 0.0
O46 O 0.25159 0.89653 0.4228 0.0
Co47 Co 0.20975 0.90751 0.39767 0.0
O48 O 0.21617 0.89913 0.42772 0.0
C49 C 0.24087 0.94109 0.38604 0.0
C50 C 0.28606 0.89462 0.36905 0.0
C51 C 0.23502 0.89696 0.4351 0.0
O52 O 0.25553 0.92686 0.38748 0.0
O53 O 0.22101 0.93652 0.38825 0.0
O54 O 0.25282 0.86339 0.39193 0.0
O55 O 0.22824 0.88678 0.38384 0.0
Co56 Co 0.10868 0.74959 0.6043 0.0
O57 O 0.13794 0.75951 0.60422 0.0
O58 O 0.10984 0.78076 0.60384 0.0
C59 C 0.11209 0.7248 0.63082 0.0
O60 O 0.07635 0.74581 0.60518 0.0
Co61 Co 0.09628 0.70245 0.5926 0.0
O62 O 0.06825 0.71044 0.60501 0.0
C63 C 0.1083 0.73276 0.5579 0.0
C64 C 0.13048 0.77895 0.60404 0.0
C65 C 0.06291 0.73009 0.60715 0.0
O66 O 0.10869 0.7484 0.57164 0.0
O67 O 0.10522 0.71307 0.56338 0.0
O68 O 0.10976 0.74505 0.63554 0.0
O69 O 0.11427 0.7206 0.61055 0.0
Co70 Co 0.26098 0.11372 0.61198 0.0
O71 O 0.25761 0.14444 0.60798 0.0
O72 O 0.23099 0.12085 0.6098 0.0
C73 C 0.28563 0.11647 0.6389 0.0
O74 O 0.2572 0.0813 0.61671 0.0
Co75 Co 0.30429 0.08978 0.60711 0.0
O76 O 0.28876 0.06489 0.6198 0.0
C77 C 0.27943 0.10244 0.56828 0.0
C78 C 0.23712 0.14083 0.60791 0.0
C79 C 0.26844 0.06448 0.62049 0.0
O80 O 0.26344 0.10898 0.57961 0.0
O81 O 0.29705 0.09626 0.57654 0.0
O82 O 0.26541 0.11819 0.64327 0.0
O83 O 0.29008 0.11446 0.61882 0.0
Co84 Co 0.9011 0.25467 0.6111 0.0
O85 O 0.87082 0.24967 0.61112 0.0
O86 O 0.89476 0.22397 0.60836 0.0
C87 C 0.90094 0.27743 0.63958 0.0
O88 O 0.93391 0.25429 0.61128 0.0
Co89 Co 0.91823 0.30078 0.60232 0.0
O90 O 0.94502 0.28883 0.61404 0.0
C91 C 0.90235 0.27442 0.56601 0.0
C92 C 0.87473 0.22931 0.60935 0.0
C93 C 0.94868 0.26867 0.61441 0.0
O94 O 0.90059 0.25814 0.57875 0.0
O95 O 0.9077 0.29332 0.57259 0.0
O96 O 0.90118 0.25673 0.64255 0.0
O97 O 0.89912 0.28349 0.61979 0.0
Co98 Co 0.75497 0.89177 0.6164 0.0
O99 O 0.76179 0.86201 0.61343 0.0
O100 O 0.78564 0.88861 0.61239 0.0
C101 C 0.73311 0.88753 0.64495 0.0
O102 O 0.75305 0.92454 0.61942 0.0
Co103 Co 0.70747 0.90582 0.61114 0.0
O104 O 0.71847 0.93338 0.62317 0.0
C105 C 0.73355 0.89523 0.57277 0.0
C106 C 0.78156 0.86799 0.6113 0.0
C107 C 0.73827 0.93836 0.62326 0.0
O108 O 0.75055 0.89378 0.58427 0.0
O109 O 0.71496 0.89806 0.58079 0.0
O110 O 0.75363 0.8889 0.64785 0.0
O111 O 0.72696 0.88677 0.62519 0.0
Co112 Co 0.39713 0.11187 0.25315 0.0
O113 O 0.368 0.11149 0.2627 0.0
O114 O 0.39591 0.10859 0.28424 0.0
C115 C 0.39421 0.14065 0.23124 0.0
O116 O 0.42949 0.11248 0.2487 0.0
Co117 Co 0.40713 0.10396 0.20477 0.0
O118 O 0.4363 0.11352 0.21311 0.0
C119 C 0.39519 0.06714 0.23245 0.0
C120 C 0.37525 0.10949 0.28212 0.0
C121 C 0.44249 0.11442 0.23266 0.0
O122 O 0.39613 0.07947 0.24916 0.0
O123 O 0.39731 0.07424 0.21321 0.0
O124 O 0.39705 0.14338 0.25179 0.0
O125 O 0.39112 0.12094 0.22512 0.0
Co126 Co 0.88878 0.3922 0.25202 0.0
O127 O 0.8585 0.39068 0.24694 0.0
O128 O 0.88304 0.3924 0.22136 0.0
C129 C 0.88979 0.36556 0.27675 0.0
O130 O 0.92131 0.39304 0.2508 0.0
Co131 Co 0.90667 0.40573 0.29621 0.0
O132 O 0.93438 0.39615 0.28433 0.0
C133 C 0.89095 0.43931 0.26713 0.0
C134 C 0.86294 0.3911 0.22653 0.0
C135 C 0.93702 0.39332 0.26418 0.0
O136 O 0.88784 0.42466 0.25273 0.0
O137 O 0.89721 0.43499 0.28626 0.0
O138 O 0.88961 0.36127 0.25626 0.0
O139 O 0.8873 0.38567 0.28178 0.0
Co140 Co 0.61459 0.89962 0.24681 0.0
O141 O 0.64446 0.90184 0.25306 0.0
O142 O 0.61881 0.90331 0.27754 0.0
C143 C 0.61675 0.87046 0.22534 0.0
O144 O 0.58196 0.89681 0.24555 0.0
Co145 Co 0.6005 0.90757 0.20012 0.0
O146 O 0.5745 0.89221 0.21036 0.0
C147 C 0.61108 0.94494 0.22724 0.0
C148 C 0.63915 0.90344 0.27314 0.0
C149 C 0.56912 0.89145 0.23015 0.0
O150 O 0.61337 0.93185 0.24304 0.0
O151 O 0.60709 0.93849 0.20803 0.0
O152 O 0.61613 0.86852 0.24611 0.0
O153 O 0.61862 0.89006 0.21824 0.0
Co154 Co 0.11681 0.61218 0.25036 0.0
O155 O 0.14736 0.61165 0.24657 0.0
O156 O 0.12413 0.60854 0.22002 0.0
C157 C 0.1164 0.64124 0.27269 0.0
O158 O 0.08411 0.61277 0.24803 0.0
Co159 Co 0.09699 0.60476 0.29554 0.0
O160 O 0.07049 0.61476 0.28149 0.0
C161 C 0.11276 0.56748 0.2709 0.0
C162 C 0.14402 0.60932 0.22608 0.0
C163 C 0.06825 0.61517 0.26108 0.0
O164 O 0.1161 0.57984 0.25456 0.0
O165 O 0.10668 0.57462 0.28926 0.0
O166 O 0.11752 0.64369 0.25194 0.0
O167 O 0.11754 0.62156 0.27926 0.0
Co168 Co 0.38865 0.89162 0.74816 0.0
O169 O 0.35845 0.89105 0.74334 0.0
O170 O 0.38273 0.8944 0.71762 0.0
C171 C 0.38915 0.86323 0.77083 0.0
O172 O 0.42113 0.89194 0.74697 0.0
Co173 Co 0.40698 0.90016 0.79398 0.0
O174 O 0.43417 0.89087 0.78068 0.0
C175 C 0.38925 0.93605 0.76878 0.0
C176 C 0.36268 0.89295 0.72297 0.0
C177 C 0.43673 0.89012 0.76031 0.0
O178 O 0.38817 0.92395 0.75194 0.0
O179 O 0.39446 0.92904 0.78742 0.0
O180 O 0.38882 0.8602 0.75011 0.0
O181 O 0.38726 0.88297 0.77706 0.0
Co182 Co 0.11096 0.39578 0.75159 0.0
O183 O 0.14079 0.39393 0.75747 0.0
O184 O 0.11583 0.39659 0.78253 0.0
C185 C 0.10993 0.36849 0.72751 0.0
O186 O 0.07834 0.39729 0.75078 0.0
Co187 Co 0.09771 0.40978 0.70647 0.0
O188 O 0.06968 0.39786 0.71566 0.0
C189 C 0.11241 0.44306 0.73656 0.0
C190 C 0.13602 0.39514 0.7777 0.0
C191 C 0.06454 0.39589 0.73542 0.0
O192 O 0.11362 0.42812 0.75074 0.0
O193 O 0.10727 0.43919 0.71696 0.0
O194 O 0.10873 0.36485 0.74804 0.0
O195 O 0.11395 0.38836 0.72217 0.0
Co196 Co 0.61529 0.11039 0.75106 0.0
O197 O 0.6452 0.11071 0.74314 0.0
O198 O 0.6186 0.11219 0.71995 0.0
C199 C 0.61742 0.13471 0.77848 0.0
O200 O 0.58258 0.11118 0.75293 0.0
Co201 Co 0.60118 0.09372 0.79605 0.0
O202 O 0.57221 0.10195 0.78649 0.0
C203 C 0.61421 0.06249 0.76311 0.0
C204 C 0.6391 0.1116 0.72318 0.0
C205 C 0.56808 0.10809 0.76739 0.0
O206 O 0.61474 0.07781 0.74915 0.0
O207 O 0.61095 0.06581 0.7832 0.0
O208 O 0.6165 0.14111 0.75857 0.0
O209 O 0.61935 0.11416 0.78091 0.0
Co210 Co 0.89992 0.61911 0.75965 0.0
O211 O 0.87049 0.61811 0.76824 0.0
O212 O 0.89783 0.61636 0.79069 0.0
C213 C 0.89666 0.64729 0.73704 0.0
O214 O 0.93242 0.62041 0.75634 0.0
Co215 Co 0.91176 0.61084 0.71175 0.0
O216 O 0.94026 0.62166 0.72098 0.0
C217 C 0.89872 0.57446 0.73955 0.0
C218 C 0.87723 0.61655 0.78789 0.0
C219 C 0.94583 0.62277 0.74071 0.0
O220 O 0.89979 0.58674 0.75625 0.0
O221 O 0.901 0.58145 0.72028 0.0
O222 O 0.89907 0.65054 0.75758 0.0
O223 O 0.89444 0.62739 0.73127 0.0
Co224 Co 0.25295 0.38983 0.11587 0.0
O225 O 0.26271 0.36051 0.11625 0.0
O226 O 0.28351 0.38894 0.11053 0.0
C227 C 0.23251 0.38766 0.1458 0.0
O228 O 0.24872 0.4225 0.11509 0.0
Co229 Co 0.20444 0.39997 0.11133 0.0
O230 O 0.21376 0.42994 0.11785 0.0
C231 C 0.22878 0.38359 0.07418 0.0
C232 C 0.2817 0.36811 0.11233 0.0
C233 C 0.23328 0.43595 0.11713 0.0
O234 O 0.24659 0.3872 0.08402 0.0
O235 O 0.21054 0.38543 0.08324 0.0
O236 O 0.25299 0.39091 0.14758 0.0
O237 O 0.22577 0.38397 0.12657 0.0
Co238 Co 0.25962 0.60589 0.89123 0.0
O239 O 0.24816 0.60586 0.86251 0.0
O240 O 0.22855 0.60703 0.89205 0.0
C241 C 0.28537 0.63088 0.88529 0.0
O242 O 0.26652 0.60704 0.9236 0.0
Co243 Co 0.30666 0.59137 0.89785 0.0
O244 O 0.30232 0.60515 0.92634 0.0
C245 C 0.27296 0.55882 0.88966 0.0
C246 C 0.22934 0.60681 0.87107 0.0
C247 C 0.28401 0.60857 0.93458 0.0
O248 O 0.2586 0.57337 0.89158 0.0
O249 O 0.29301 0.56307 0.88986 0.0
O250 O 0.26596 0.63679 0.88938 0.0
O251 O 0.28789 0.61046 0.88272 0.0
Co252 Co 0.38915 0.26026 0.88944 0.0
O253 O 0.35885 0.26329 0.88934 0.0
O254 O 0.38187 0.29051 0.89225 0.0
C255 C 0.39058 0.23732 0.86125 0.0
O256 O 0.4217 0.26246 0.88947 0.0
Co257 Co 0.40739 0.21468 0.8987 0.0
O258 O 0.43443 0.22866 0.88927 0.0
C259 C 0.38966 0.24049 0.93419 0.0
C260 C 0.36207 0.28385 0.89143 0.0
C261 C 0.4372 0.24903 0.88808 0.0
O262 O 0.38879 0.25703 0.9218 0.0
O263 O 0.39463 0.22167 0.92748 0.0
O264 O 0.38945 0.25793 0.85791 0.0
O265 O 0.38859 0.23145 0.88106 0.0
Co266 Co 0.75131 0.39941 0.88414 0.0
O267 O 0.75821 0.40302 0.85435 0.0
O268 O 0.78217 0.40309 0.88042 0.0
C269 C 0.72898 0.37087 0.87991 0.0
O270 O 0.7489 0.39518 0.91686 0.0
Co271 Co 0.70408 0.40733 0.89712 0.0
O272 O 0.71355 0.39151 0.92302 0.0
C273 C 0.73225 0.44463 0.88924 0.0
C274 C 0.77807 0.4046 0.85989 0.0
C275 C 0.73293 0.39004 0.92908 0.0
O276 O 0.74802 0.43165 0.88731 0.0
O277 O 0.71295 0.43808 0.89175 0.0
O278 O 0.74948 0.36819 0.88048 0.0
O279 O 0.72299 0.39072 0.87912 0.0
Co280 Co 0.61575 0.75087 0.89759 0.0
O281 O 0.64572 0.74794 0.90352 0.0
O282 O 0.62321 0.72063 0.8986 0.0
C283 C 0.61987 0.7769 0.8724 0.0
O284 O 0.58399 0.74746 0.89058 0.0
Co285 Co 0.5922 0.79452 0.90431 0.0
O286 O 0.56902 0.78006 0.88789 0.0
C287 C 0.60046 0.76557 0.94148 0.0
C288 C 0.64266 0.72725 0.90231 0.0
C289 C 0.56807 0.75961 0.88608 0.0
O290 O 0.60894 0.75107 0.92941 0.0
O291 O 0.59423 0.78387 0.93457 0.0
O292 O 0.62204 0.75675 0.86713 0.0
O293 O 0.61682 0.78057 0.89255 0.0
Co294 Co 0.75509 0.6095 0.11595 0.0
O295 O 0.75063 0.64015 0.11662 0.0
O296 O 0.72475 0.61562 0.11692 0.0
C297 C 0.78158 0.60959 0.141 0.0
O298 O 0.75327 0.57656 0.11598 0.0
Co299 Co 0.79881 0.59034 0.10239 0.0
O300 O 0.78595 0.56258 0.11182 0.0
C301 C 0.77034 0.60951 0.06981 0.0
C302 C 0.73029 0.6359 0.11702 0.0
C303 C 0.76597 0.56038 0.11521 0.0
O304 O 0.75479 0.60993 0.08338 0.0
O305 O 0.7894 0.60439 0.07499 0.0
O306 O 0.76169 0.60963 0.14701 0.0
O307 O 0.78461 0.61093 0.12055 0.0
Co308 Co 0.39515 0.75511 0.10462 0.0
O309 O 0.36473 0.75022 0.10281 0.0
O310 O 0.38859 0.72439 0.1043 0.0
C311 C 0.39371 0.78081 0.13059 0.0
O312 O 0.42778 0.75403 0.10747 0.0
Co313 Co 0.41494 0.8001 0.09386 0.0
O314 O 0.44012 0.78824 0.1089 0.0
C315 C 0.4002 0.77145 0.05855 0.0
C316 C 0.36859 0.72975 0.10332 0.0
C317 C 0.44282 0.76802 0.11096 0.0
O318 O 0.39721 0.75587 0.072 0.0
O319 O 0.40556 0.79058 0.06442 0.0
O320 O 0.39286 0.76054 0.13581 0.0
O321 O 0.39361 0.78462 0.11021 0.0
Co322 Co 0.60969 0.24749 0.10616 0.0
O323 O 0.63909 0.25694 0.10507 0.0
O324 O 0.61154 0.27862 0.10253 0.0
C325 C 0.61278 0.22582 0.13543 0.0
O326 O 0.5771 0.24351 0.10767 0.0
Co327 Co 0.59861 0.19958 0.09802 0.0
O328 O 0.57128 0.2079 0.11161 0.0
C329 C 0.6088 0.227 0.0608 0.0
C330 C 0.63217 0.27642 0.10293 0.0
C331 C 0.5648 0.22729 0.11213 0.0
O332 O 0.60968 0.24331 0.0737 0.0
O333 O 0.60571 0.20769 0.06744 0.0
O334 O 0.61064 0.2465 0.13754 0.0
O335 O 0.61541 0.21921 0.11579 0.0
Co336 Co 0.89494 0.7528 0.61167 0.0
O337 O 0.86708 0.76481 0.61171 0.0
O338 O 0.89695 0.78421 0.61101 0.0
C339 C 0.88898 0.72869 0.6382 0.0
O340 O 0.92654 0.74481 0.61216 0.0
Co341 Co 0.8984 0.70428 0.59891 0.0
O342 O 0.92727 0.70848 0.61144 0.0
C343 C 0.89028 0.73666 0.56546 0.0
C344 C 0.87614 0.78366 0.61098 0.0
C345 C 0.93646 0.72679 0.61399 0.0
O346 O 0.89433 0.7518 0.57913 0.0
O347 O 0.8892 0.71672 0.57066 0.0
O348 O 0.8938 0.74858 0.64292 0.0
O349 O 0.88557 0.72491 0.61805 0.0
Co350 Co 0.24863 0.89442 0.60612 0.0
O351 O 0.25976 0.88976 0.63428 0.0
O352 O 0.27974 0.8961 0.60557 0.0
C353 C 0.22507 0.8667 0.60623 0.0
O354 O 0.24161 0.89907 0.57423 0.0
Co355 Co 0.20186 0.9087 0.60386 0.0
O356 O 0.20583 0.90139 0.57308 0.0
C357 C 0.23397 0.94063 0.61641 0.0
C358 C 0.27864 0.89256 0.62624 0.0
C359 C 0.22385 0.89971 0.56371 0.0
O360 O 0.24795 0.92627 0.61223 0.0
O361 O 0.2139 0.93679 0.61526 0.0
O362 O 0.24501 0.86373 0.60156 0.0
O363 O 0.22056 0.88579 0.61337 0.0
Co364 Co 0.11918 0.25445 0.60921 0.0
O365 O 0.14846 0.24522 0.60811 0.0
O366 O 0.12063 0.22312 0.6097 0.0
C367 C 0.12406 0.28056 0.63438 0.0
O368 O 0.08667 0.25832 0.61151 0.0
Co369 Co 0.1079 0.3017 0.59656 0.0
O370 O 0.08082 0.2941 0.61138 0.0
C371 C 0.11946 0.27005 0.56301 0.0
C372 C 0.14129 0.22554 0.60873 0.0
C373 C 0.07446 0.27472 0.61433 0.0
O374 O 0.11796 0.25444 0.5766 0.0
O375 O 0.11796 0.28991 0.56839 0.0
O376 O 0.1216 0.26057 0.64026 0.0
O377 O 0.12553 0.28353 0.61395 0.0
Co378 Co 0.76457 0.10596 0.61545 0.0
O379 O 0.75848 0.1048 0.64591 0.0
O380 O 0.73379 0.10606 0.62069 0.0
C381 C 0.79054 0.13165 0.61774 0.0
O382 O 0.76487 0.10839 0.58233 0.0
Co383 Co 0.80985 0.09443 0.59808 0.0
O384 O 0.7994 0.10966 0.57222 0.0
C385 C 0.78037 0.05976 0.61239 0.0
C386 C 0.73836 0.10543 0.64113 0.0
C387 C 0.77962 0.11194 0.56818 0.0
O388 O 0.76493 0.07327 0.61413 0.0
O389 O 0.79955 0.06545 0.60782 0.0
O390 O 0.77057 0.13711 0.61751 0.0
O391 O 0.79384 0.11125 0.61843 0.0
Co392 Co 0.89405 0.25353 0.39731 0.0
O393 O 0.89273 0.26238 0.36767 0.0
O394 O 0.89152 0.28462 0.39553 0.0
C395 C 0.87055 0.22571 0.39469 0.0
O396 O 0.89437 0.25025 0.43007 0.0
Co397 Co 0.91128 0.20843 0.4092 0.0
O398 O 0.89981 0.21544 0.43815 0.0
C399 C 0.94149 0.24289 0.39647 0.0
C400 C 0.89154 0.28204 0.37472 0.0
C401 C 0.89534 0.23466 0.44371 0.0
O402 O 0.92611 0.25643 0.39662 0.0
O403 O 0.93863 0.22265 0.39947 0.0
O404 O 0.86381 0.24531 0.39697 0.0
O405 O 0.89088 0.2239 0.39195 0.0
Co406 Co 0.73951 0.89479 0.4018 0.0
O407 O 0.74482 0.86448 0.40533 0.0
O408 O 0.76998 0.88972 0.40461 0.0
C409 C 0.71616 0.89057 0.37431 0.0
O410 O 0.74023 0.92758 0.39751 0.0
Co411 Co 0.69361 0.91367 0.4065 0.0
O412 O 0.70673 0.93916 0.39244 0.0
C413 C 0.71896 0.90211 0.44525 0.0
C414 C 0.76501 0.86932 0.40589 0.0
C415 C 0.72686 0.94238 0.3924 0.0
O416 O 0.73589 0.89846 0.43403 0.0
O417 O 0.70083 0.90636 0.43686 0.0
O418 O 0.73656 0.89072 0.37046 0.0
O419 O 0.71089 0.89147 0.39426 0.0
Co420 Co 0.10853 0.75786 0.39004 0.0
O421 O 0.10937 0.74847 0.36034 0.0
O422 O 0.10962 0.72668 0.38841 0.0
C423 C 0.13348 0.78441 0.3872 0.0
O424 O 0.10867 0.76133 0.42286 0.0
Co425 Co 0.09367 0.80361 0.40235 0.0
O426 O 0.10456 0.79624 0.43139 0.0
C427 C 0.06147 0.7707 0.39036 0.0
C428 C 0.1099 0.72888 0.36758 0.0
C429 C 0.10832 0.77685 0.43674 0.0
O430 O 0.07629 0.75654 0.38962 0.0
O431 O 0.06528 0.79076 0.39372 0.0
O432 O 0.13908 0.76446 0.38953 0.0
O433 O 0.11326 0.78738 0.38457 0.0
Co434 Co 0.2566 0.11625 0.39496 0.0
O435 O 0.25326 0.14699 0.39626 0.0
O436 O 0.22668 0.12319 0.39747 0.0
C437 C 0.27966 0.11622 0.36694 0.0
O438 O 0.2537 0.08341 0.39309 0.0
Co439 Co 0.30053 0.09531 0.40299 0.0
O440 O 0.28644 0.06926 0.39078 0.0
C441 C 0.27465 0.11005 0.44005 0.0
C442 C 0.23287 0.14329 0.39747 0.0
C443 C 0.26619 0.06735 0.38993 0.0
O444 O 0.25928 0.11504 0.42737 0.0
O445 O 0.29267 0.10317 0.43333 0.0
O446 O 0.25924 0.11748 0.36369 0.0
O447 O 0.28557 0.11697 0.38686 0.0
Co448 Co 0.60882 0.887 0.75072 0.0
O449 O 0.60917 0.8563 0.75455 0.0
O450 O 0.60973 0.88019 0.78111 0.0
C451 C 0.63389 0.88806 0.7249 0.0
O452 O 0.60951 0.91991 0.75264 0.0
Co453 Co 0.59446 0.90607 0.70722 0.0
O454 O 0.60633 0.93335 0.71923 0.0
C455 C 0.562 0.88922 0.73721 0.0
C456 C 0.60994 0.86006 0.77508 0.0
C457 C 0.60988 0.93582 0.73931 0.0
O458 O 0.57672 0.88651 0.75133 0.0
O459 O 0.5659 0.89548 0.71795 0.0
O460 O 0.63932 0.88734 0.74507 0.0
O461 O 0.61368 0.88613 0.72097 0.0
Co462 Co 0.11189 0.61806 0.75673 0.0
O463 O 0.11234 0.64896 0.75242 0.0
O464 O 0.10848 0.6247 0.72652 0.0
C465 C 0.1406 0.61674 0.77887 0.0
O466 O 0.11151 0.58523 0.75403 0.0
Co467 Co 0.10423 0.59724 0.80124 0.0
O468 O 0.11307 0.57018 0.78679 0.0
C469 C 0.06768 0.61495 0.77743 0.0
C470 C 0.10996 0.64489 0.732 0.0
C471 C 0.11339 0.56868 0.76632 0.0
O472 O 0.07993 0.61841 0.76111 0.0
O473 O 0.07462 0.60797 0.79549 0.0
O474 O 0.14297 0.61778 0.7581 0.0
O475 O 0.1212 0.61843 0.7857 0.0
Co476 Co 0.39431 0.10626 0.76226 0.0
O477 O 0.36393 0.10876 0.75819 0.0
O478 O 0.3871 0.10361 0.73192 0.0
C479 C 0.39738 0.13474 0.78486 0.0
O480 O 0.42697 0.10356 0.76049 0.0
Co481 Co 0.41273 0.0977 0.80812 0.0
O482 O 0.44055 0.10392 0.79415 0.0
C483 C 0.39071 0.06274 0.78401 0.0
C484 C 0.36735 0.10643 0.73774 0.0
C485 C 0.44284 0.10418 0.77376 0.0
O486 O 0.39092 0.07408 0.76664 0.0
O487 O 0.39665 0.07016 0.80236 0.0
O488 O 0.39717 0.13782 0.76416 0.0
O489 O 0.39421 0.11515 0.79092 0.0
Co490 Co 0.89522 0.40313 0.74561 0.0
O491 O 0.86646 0.40431 0.7562 0.0
O492 O 0.89514 0.40549 0.77691 0.0
C493 C 0.88969 0.37545 0.72235 0.0
O494 O 0.92745 0.40125 0.74027 0.0
Co495 Co 0.90458 0.41121 0.6968 0.0
O496 O 0.932 0.39768 0.70445 0.0
C497 C 0.89271 0.44736 0.72531 0.0
C498 C 0.87442 0.40559 0.77544 0.0
C499 C 0.93905 0.3968 0.7237 0.0
O500 O 0.8956 0.43571 0.74223 0.0
O501 O 0.89363 0.43984 0.70611 0.0
O502 O 0.89309 0.3715 0.74261 0.0
O503 O 0.88787 0.39548 0.7176 0.0
Co504 Co 0.60947 0.11237 0.25629 0.0
O505 O 0.61029 0.14208 0.24644 0.0
O506 O 0.60946 0.11352 0.22514 0.0
C507 C 0.63517 0.11548 0.28201 0.0
O508 O 0.60954 0.07958 0.25933 0.0
Co509 Co 0.59747 0.09894 0.30305 0.0
O510 O 0.60773 0.07011 0.29415 0.0
C511 C 0.56372 0.11274 0.27297 0.0
C512 C 0.61009 0.13438 0.22692 0.0
C513 C 0.61019 0.06532 0.27433 0.0
O514 O 0.57709 0.11276 0.25713 0.0
O515 O 0.56927 0.10946 0.29252 0.0
O516 O 0.64043 0.11316 0.26186 0.0
O517 O 0.61507 0.11772 0.28552 0.0
Co518 Co 0.89596 0.61494 0.25904 0.0
O519 O 0.89451 0.64551 0.26506 0.0
O520 O 0.89794 0.62002 0.28961 0.0
C521 C 0.86813 0.61315 0.23594 0.0
O522 O 0.89695 0.58207 0.25966 0.0
Co523 Co 0.90721 0.59769 0.2143 0.0
O524 O 0.89722 0.56948 0.22578 0.0
C525 C 0.94194 0.61456 0.2415 0.0
C526 C 0.89614 0.6404 0.28526 0.0
C527 C 0.89569 0.56644 0.246 0.0
O528 O 0.92806 0.61713 0.25654 0.0
O529 O 0.93681 0.60796 0.22261 0.0
O530 O 0.86514 0.61307 0.25662 0.0
O531 O 0.88769 0.6165 0.22973 0.0
Co532 Co 0.39684 0.89654 0.24775 0.0
O533 O 0.36664 0.89681 0.25266 0.0
O534 O 0.39091 0.90165 0.27812 0.0
C535 C 0.39621 0.86634 0.22708 0.0
O536 O 0.42953 0.89647 0.2486 0.0
Co537 Co 0.41469 0.90045 0.20108 0.0
O538 O 0.44104 0.88983 0.2149 0.0
C539 C 0.39756 0.93888 0.22327 0.0
C540 C 0.37083 0.90003 0.27286 0.0
C541 C 0.44437 0.89166 0.23508 0.0
O542 O 0.39662 0.92859 0.24129 0.0
O543 O 0.4026 0.9299 0.2054 0.0
O544 O 0.39639 0.8648 0.24794 0.0
O545 O 0.39487 0.88566 0.21974 0.0
Co546 Co 0.10951 0.39771 0.25322 0.0
O547 O 0.10981 0.36799 0.26169 0.0
O548 O 0.11055 0.39562 0.28434 0.0
C549 C 0.13442 0.39488 0.22728 0.0
O550 O 0.11022 0.43054 0.24997 0.0
Co551 Co 0.09435 0.40944 0.20746 0.0
O552 O 0.10688 0.43809 0.21474 0.0
C553 C 0.06241 0.39716 0.23995 0.0
C554 C 0.11047 0.37481 0.28143 0.0
C555 C 0.1107 0.4439 0.23409 0.0
O556 O 0.07736 0.39724 0.25414 0.0
O557 O 0.066 0.40016 0.21987 0.0
O558 O 0.14003 0.3972 0.2473 0.0
O559 O 0.11417 0.39226 0.22391 0.0
Co560 Co 0.75831 0.61228 0.89992 0.0
O561 O 0.74874 0.6417 0.90067 0.0
O562 O 0.72767 0.61301 0.90384 0.0
C563 C 0.77989 0.61588 0.87093 0.0
O564 O 0.76189 0.57958 0.89892 0.0
Co565 Co 0.80615 0.60073 0.90589 0.0
O566 O 0.7967 0.57163 0.89629 0.0
C567 C 0.78058 0.61546 0.94304 0.0
C568 C 0.72956 0.63389 0.90306 0.0
C569 C 0.77705 0.56601 0.89605 0.0
O570 O 0.7632 0.61312 0.93215 0.0
O571 O 0.79915 0.6133 0.93476 0.0
O572 O 0.75945 0.61298 0.86836 0.0
O573 O 0.78612 0.61836 0.89056 0.0
Co574 Co 0.7554 0.3871 0.10264 0.0
O575 O 0.76301 0.38437 0.13256 0.0
O576 O 0.78612 0.3877 0.10578 0.0
C577 C 0.73055 0.36028 0.10183 0.0
O578 O 0.75395 0.38952 0.0699 0.0
Co579 Co 0.71058 0.4014 0.08941 0.0
O580 O 0.71938 0.39077 0.06055 0.0
C581 C 0.74081 0.43406 0.10572 0.0
C582 C 0.78277 0.38584 0.12637 0.0
C583 C 0.73902 0.38884 0.05569 0.0
O584 O 0.75506 0.41936 0.10591 0.0
O585 O 0.7213 0.43011 0.10079 0.0
O586 O 0.75077 0.35618 0.10018 0.0
O587 O 0.72606 0.38018 0.10611 0.0
Co588 Co 0.61207 0.74853 0.11459 0.0
O589 O 0.64112 0.739 0.11308 0.0
O590 O 0.61324 0.71735 0.11771 0.0
C591 C 0.61866 0.77649 0.1372 0.0
O592 O 0.57969 0.75296 0.11777 0.0
Co593 Co 0.60014 0.79478 0.09914 0.0
O594 O 0.57417 0.78873 0.11635 0.0
C595 C 0.60694 0.75974 0.06736 0.0
C596 C 0.63386 0.71954 0.11579 0.0
C597 C 0.56772 0.76958 0.1203 0.0
O598 O 0.60935 0.74563 0.08228 0.0
O599 O 0.6043 0.77986 0.07092 0.0
O600 O 0.61606 0.75713 0.1448 0.0
O601 O 0.61894 0.77787 0.11653 0.0
Co602 Co 0.26022 0.60412 0.109 0.0
O603 O 0.25073 0.60488 0.13869 0.0
O604 O 0.22927 0.60359 0.11051 0.0
C605 C 0.28548 0.63062 0.11182 0.0
O606 O 0.26354 0.6041 0.07615 0.0
Co607 Co 0.30673 0.59235 0.09654 0.0
O608 O 0.29849 0.60399 0.06803 0.0
C609 C 0.27648 0.55788 0.10975 0.0
C610 C 0.23132 0.60434 0.13135 0.0
C611 C 0.279 0.60582 0.06253 0.0
O612 O 0.26102 0.57143 0.10981 0.0
O613 O 0.29595 0.56348 0.10647 0.0
O614 O 0.2655 0.63547 0.10936 0.0
O615 O 0.2891 0.6104 0.1144 0.0
Co616 Co 0.39179 0.24663 0.10503 0.0
O617 O 0.36162 0.25164 0.10575 0.0
O618 O 0.38605 0.27747 0.10353 0.0
C619 C 0.3914 0.22247 0.13233 0.0
O620 O 0.42464 0.2472 0.10481 0.0
Co621 Co 0.40856 0.20029 0.0955 0.0
O622 O 0.43546 0.21278 0.10708 0.0
C623 C 0.38964 0.22642 0.06074 0.0
C624 C 0.36591 0.27208 0.10469 0.0
C625 C 0.43927 0.23301 0.10773 0.0
O626 O 0.39053 0.24358 0.07252 0.0
O627 O 0.39417 0.20765 0.06779 0.0
O628 O 0.39206 0.243 0.13663 0.0
O629 O 0.38956 0.21767 0.11227 0.0
Co630 Co 0.24337 0.39469 0.90111 0.0
O631 O 0.25383 0.36571 0.90028 0.0
O632 O 0.27417 0.39518 0.90011 0.0
C633 C 0.21764 0.39037 0.87613 0.0
O634 O 0.23873 0.42698 0.90078 0.0
Co635 Co 0.19711 0.40527 0.91532 0.0
O636 O 0.2041 0.43485 0.90512 0.0
C637 C 0.229 0.39183 0.94743 0.0
C638 C 0.27286 0.37426 0.89972 0.0
C639 C 0.22332 0.44048 0.90112 0.0
O640 O 0.24401 0.3943 0.93352 0.0
O641 O 0.20917 0.39337 0.94274 0.0
O642 O 0.23736 0.39363 0.87033 0.0
O643 O 0.21451 0.3878 0.89651 0.0
Co644 Co 0.60982 0.25691 0.89108 0.0
O645 O 0.60969 0.25186 0.86047 0.0
O646 O 0.61133 0.22607 0.88475 0.0
C647 C 0.63415 0.28416 0.89013 0.0
O648 O 0.61099 0.25642 0.92426 0.0
Co649 Co 0.59489 0.30114 0.90876 0.0
O650 O 0.60751 0.29059 0.93597 0.0
C651 C 0.56301 0.26973 0.89269 0.0
C652 C 0.61081 0.23144 0.86448 0.0
C653 C 0.61138 0.27077 0.93943 0.0
O654 O 0.57764 0.25538 0.89138 0.0
O655 O 0.56694 0.28943 0.89768 0.0
O656 O 0.64032 0.26423 0.89014 0.0
O657 O 0.61381 0.28678 0.88897 0.0
Co658 Co 0.39827 0.75077 0.89003 0.0
O659 O 0.39557 0.75985 0.86065 0.0
O660 O 0.40005 0.78196 0.88838 0.0
C661 C 0.37076 0.72722 0.88974 0.0
O662 O 0.4007 0.74699 0.92266 0.0
Co663 Co 0.41052 0.70395 0.89985 0.0
O664 O 0.40182 0.71151 0.92963 0.0
C665 C 0.44381 0.73393 0.88493 0.0
C666 C 0.39761 0.77946 0.86768 0.0
C667 C 0.4002 0.731 0.9359 0.0
O668 O 0.43007 0.74906 0.88629 0.0
O669 O 0.43905 0.71413 0.88849 0.0
O670 O 0.36758 0.74767 0.89261 0.0
O671 O 0.39013 0.72193 0.88486 0.0
H672 H 0.10857 0.33121 0.27891 0.0
H673 H 0.11382 0.38365 0.32454 0.0
H674 H 0.11556 0.35782 0.35416 0.0
H675 H 0.11613 0.32044 0.36693 0.0
H676 H 0.11074 0.26802 0.3213 0.0
H677 H 0.1085 0.29386 0.29173 0.0
C678 C 0.11008 0.33703 0.29533 0.0
C679 C 0.11113 0.35935 0.29951 0.0
C680 C 0.11106 0.32211 0.31223 0.0
C681 C 0.113 0.36658 0.32089 0.0
C682 C 0.11401 0.35182 0.33782 0.0
C683 C 0.11442 0.31463 0.35052 0.0
C684 C 0.11365 0.29232 0.3463 0.0
C685 C 0.11314 0.32956 0.33365 0.0
C686 C 0.11139 0.2851 0.32497 0.0
C687 C 0.11012 0.29986 0.30807 0.0
H688 H 0.68711 0.1098 0.36935 0.0
H689 H 0.73918 0.10141 0.32477 0.0
H690 H 0.7146 0.10348 0.29445 0.0
H691 H 0.67827 0.10864 0.28026 0.0
H692 H 0.62634 0.11783 0.32484 0.0
H693 H 0.65073 0.11453 0.35517 0.0
C694 C 0.69303 0.10825 0.35301 0.0
C695 C 0.71498 0.10545 0.34942 0.0
C696 C 0.67879 0.10974 0.3355 0.0
C697 C 0.72238 0.10363 0.32808 0.0
C698 C 0.70832 0.10483 0.31066 0.0
C699 C 0.67231 0.10991 0.2966 0.0
C700 C 0.65048 0.11351 0.30017 0.0
C701 C 0.6865 0.10809 0.31412 0.0
C702 C 0.64305 0.11508 0.32152 0.0
C703 C 0.657 0.11318 0.33896 0.0
H704 H 0.88946 0.69705 0.36919 0.0
H705 H 0.88829 0.74856 0.32273 0.0
H706 H 0.89166 0.7222 0.29338 0.0
H707 H 0.8943 0.68425 0.28111 0.0
H708 H 0.8961 0.63346 0.32844 0.0
H709 H 0.89328 0.65992 0.35731 0.0
C710 C 0.89001 0.70263 0.35267 0.0
C711 C 0.88856 0.72477 0.34816 0.0
C712 C 0.89209 0.68748 0.33604 0.0
C713 C 0.88935 0.73161 0.32663 0.0
C714 C 0.89127 0.71654 0.30987 0.0
C715 C 0.89415 0.679 0.29775 0.0
C716 C 0.89534 0.65685 0.30258 0.0
C717 C 0.89256 0.69439 0.31439 0.0
C718 C 0.8952 0.65035 0.32423 0.0
C719 C 0.89355 0.66548 0.34078 0.0
H720 H 0.3733 0.89958 0.31714 0.0
H721 H 0.32862 0.90198 0.26427 0.0
H722 H 0.29888 0.90053 0.28931 0.0
H723 H 0.28528 0.89751 0.32578 0.0
H724 H 0.32881 0.89528 0.37948 0.0
H725 H 0.35922 0.89767 0.35461 0.0
C726 C 0.35705 0.89997 0.31117 0.0
C727 C 0.35325 0.90081 0.28881 0.0
C728 C 0.3398 0.89898 0.32577 0.0
C729 C 0.33208 0.90124 0.28134 0.0
C730 C 0.315 0.90038 0.29566 0.0
C731 C 0.3014 0.8975 0.33213 0.0
C732 C 0.30476 0.89604 0.35445 0.0
C733 C 0.31865 0.899 0.31784 0.0
C734 C 0.32578 0.89629 0.36235 0.0
C735 C 0.34317 0.89768 0.34813 0.0
H736 H 0.11 0.64084 0.68832 0.0
H737 H 0.10897 0.68836 0.73916 0.0
H738 H 0.1091 0.71726 0.71249 0.0
H739 H 0.11013 0.72914 0.67459 0.0
H740 H 0.11207 0.68142 0.62394 0.0
H741 H 0.11094 0.65263 0.65059 0.0
C742 C 0.10971 0.65751 0.69358 0.0
C743 C 0.10946 0.66239 0.71574 0.0
C744 C 0.11001 0.67408 0.67815 0.0
C745 C 0.10919 0.68412 0.72223 0.0
C746 C 0.10927 0.70068 0.70697 0.0
C747 C 0.11026 0.71244 0.6694 0.0
C748 C 0.11119 0.70749 0.64727 0.0
C749 C 0.10979 0.69587 0.68487 0.0
C750 C 0.1114 0.68574 0.64084 0.0
C751 C 0.11074 0.66923 0.65609 0.0
H752 H 0.28223 0.11535 0.68321 0.0
H753 H 0.32796 0.11317 0.63124 0.0
H754 H 0.35692 0.10924 0.65681 0.0
H755 H 0.36978 0.10664 0.69392 0.0
H756 H 0.32473 0.10929 0.74634 0.0
H757 H 0.29532 0.1127 0.72081 0.0
C758 C 0.29853 0.11405 0.67753 0.0
C759 C 0.30279 0.11452 0.65529 0.0
C760 C 0.31539 0.1118 0.69244 0.0
C761 C 0.32407 0.11279 0.64824 0.0
C762 C 0.34076 0.11053 0.66286 0.0
C763 C 0.35353 0.10786 0.69977 0.0
C764 C 0.34953 0.10767 0.72202 0.0
C765 C 0.33666 0.11 0.685 0.0
C766 C 0.32833 0.10938 0.72928 0.0
C767 C 0.31144 0.11137 0.71468 0.0
H768 H 0.89301 0.31999 0.6374 0.0
H769 H 0.90812 0.26965 0.68238 0.0
H770 H 0.90589 0.29536 0.71233 0.0
H771 H 0.89908 0.33241 0.72572 0.0
H772 H 0.88283 0.38177 0.6799 0.0
H773 H 0.88596 0.35621 0.65047 0.0
C774 C 0.89595 0.31464 0.65374 0.0
C775 C 0.90078 0.29299 0.65766 0.0
C776 C 0.89429 0.32935 0.67081 0.0
C777 C 0.90439 0.28628 0.67895 0.0
C778 C 0.90307 0.30096 0.69608 0.0
C779 C 0.89614 0.33748 0.7093 0.0
C780 C 0.89078 0.359 0.70508 0.0
C781 C 0.89788 0.32255 0.69223 0.0
C782 C 0.88706 0.36535 0.68368 0.0
C783 C 0.88886 0.35074 0.66676 0.0
H784 H 0.69027 0.88839 0.64126 0.0
H785 H 0.74092 0.88899 0.68835 0.0
H786 H 0.7145 0.8901 0.71743 0.0
H787 H 0.67698 0.88994 0.72924 0.0
H788 H 0.62668 0.88938 0.68171 0.0
H789 H 0.65315 0.88947 0.65288 0.0
C790 C 0.6956 0.88884 0.65788 0.0
C791 C 0.71751 0.88854 0.66268 0.0
C792 C 0.6804 0.88954 0.67436 0.0
C793 C 0.72412 0.88916 0.68428 0.0
C794 C 0.70903 0.88981 0.70087 0.0
C795 C 0.67182 0.88996 0.71257 0.0
C796 C 0.64992 0.88955 0.70759 0.0
C797 C 0.68713 0.88988 0.69608 0.0
C798 C 0.64345 0.88963 0.68595 0.0
C799 C 0.65856 0.88965 0.66946 0.0
H800 H 0.33216 0.10957 0.2807 0.0
H801 H 0.38495 0.10861 0.32527 0.0
H802 H 0.35996 0.11002 0.35562 0.0
H803 H 0.32302 0.11282 0.36934 0.0
H804 H 0.27069 0.11402 0.32416 0.0
H805 H 0.29565 0.1112 0.2942 0.0
C806 C 0.33826 0.10957 0.29705 0.0
C807 C 0.36041 0.10907 0.30071 0.0
C808 C 0.32387 0.11051 0.31431 0.0
C809 C 0.36798 0.109 0.32201 0.0
C810 C 0.3537 0.10985 0.33935 0.0
C811 C 0.31709 0.11239 0.35293 0.0
C812 C 0.29501 0.11373 0.349 0.0
C813 C 0.3316 0.11082 0.33569 0.0
C814 C 0.28758 0.11308 0.32766 0.0
C815 C 0.30185 0.11147 0.31049 0.0
H816 H 0.89533 0.28041 0.33136 0.0
H817 H 0.88659 0.32505 0.38393 0.0
H818 H 0.88581 0.35511 0.35842 0.0
H819 H 0.88718 0.36861 0.32082 0.0
H820 H 0.89617 0.32317 0.26889 0.0
H821 H 0.89741 0.29366 0.29451 0.0
C822 C 0.89321 0.2967 0.33731 0.0
C823 C 0.89091 0.30044 0.35953 0.0
C824 C 0.89289 0.31383 0.32261 0.0
C825 C 0.88834 0.3217 0.36689 0.0
C826 C 0.88791 0.3389 0.35231 0.0
C827 C 0.88951 0.35226 0.31517 0.0
C828 C 0.89152 0.34815 0.29293 0.0
C829 C 0.89013 0.33517 0.33008 0.0
C830 C 0.89452 0.32685 0.28587 0.0
C831 C 0.89521 0.3099 0.30052 0.0
H832 H 0.72143 0.89938 0.33149 0.0
H833 H 0.67355 0.8859 0.37976 0.0
H834 H 0.64539 0.89011 0.35321 0.0
H835 H 0.63415 0.89697 0.31611 0.0
H836 H 0.68177 0.91008 0.26754 0.0
H837 H 0.71004 0.90695 0.2943 0.0
C838 C 0.70484 0.89727 0.33611 0.0
C839 C 0.69962 0.89228 0.35751 0.0
C840 C 0.68859 0.89982 0.32074 0.0
C841 C 0.67803 0.88976 0.36335 0.0
C842 C 0.66186 0.8922 0.3482 0.0
C843 C 0.65069 0.89939 0.31146 0.0
C844 C 0.65583 0.90374 0.28993 0.0
C845 C 0.66693 0.89724 0.32685 0.0
C846 C 0.67737 0.90667 0.28407 0.0
C847 C 0.69359 0.90481 0.29933 0.0
H848 H 0.11491 0.6404 0.31664 0.0
H849 H 0.11324 0.68378 0.26252 0.0
H850 H 0.11089 0.71454 0.28699 0.0
H851 H 0.1099 0.72928 0.32374 0.0
H852 H 0.1117 0.68611 0.37801 0.0
H853 H 0.11342 0.6552 0.35356 0.0
C854 C 0.11397 0.65658 0.3102 0.0
C855 C 0.11429 0.65974 0.28774 0.0
C856 C 0.1127 0.67427 0.32442 0.0
C857 C 0.11305 0.68084 0.2797 0.0
C858 C 0.11172 0.69847 0.2937 0.0
C859 C 0.11065 0.71312 0.33025 0.0
C860 C 0.11072 0.71007 0.35272 0.0
C861 C 0.11164 0.6954 0.31608 0.0
C862 C 0.11166 0.68897 0.36082 0.0
C863 C 0.11263 0.67126 0.34682 0.0
H864 H 0.36547 0.89666 0.67888 0.0
H865 H 0.32047 0.88889 0.73112 0.0
H866 H 0.2911 0.88768 0.70571 0.0
H867 H 0.27795 0.8887 0.66923 0.0
H868 H 0.32144 0.89708 0.61596 0.0
H869 H 0.35169 0.89809 0.64122 0.0
C870 C 0.34922 0.89475 0.68464 0.0
C871 C 0.34522 0.89286 0.70692 0.0
C872 C 0.33217 0.89409 0.66981 0.0
C873 C 0.32408 0.8904 0.71413 0.0
C874 C 0.30721 0.88967 0.6996 0.0
C875 C 0.29402 0.89068 0.66299 0.0
C876 C 0.29743 0.89271 0.64071 0.0
C877 C 0.31107 0.89145 0.67748 0.0
C878 C 0.3184 0.8954 0.63305 0.0
C879 C 0.33566 0.89602 0.64749 0.0
H880 H 0.12089 0.3691 0.68489 0.0
H881 H 0.09874 0.3269 0.7355 0.0
H882 H 0.10137 0.2959 0.7115 0.0
H883 H 0.11103 0.28038 0.67635 0.0
H884 H 0.13308 0.32253 0.62568 0.0
H885 H 0.12957 0.35369 0.64939 0.0
C886 C 0.11646 0.35315 0.69057 0.0
C887 C 0.10972 0.35034 0.71197 0.0
C888 C 0.11821 0.33525 0.67671 0.0
C889 C 0.10407 0.32953 0.71911 0.0
C890 C 0.10562 0.31174 0.70541 0.0
C891 C 0.11516 0.29638 0.67057 0.0
C892 C 0.12245 0.29908 0.64935 0.0
C893 C 0.11294 0.31433 0.68426 0.0
C894 C 0.12749 0.31996 0.64199 0.0
C895 C 0.12545 0.33784 0.65552 0.0
H896 H 0.69466 0.1093 0.63734 0.0
H897 H 0.74497 0.10266 0.68424 0.0
H898 H 0.71905 0.10426 0.71334 0.0
H899 H 0.68221 0.10769 0.7259 0.0
H900 H 0.63135 0.11417 0.6797 0.0
H901 H 0.65721 0.11257 0.65015 0.0
C902 C 0.69992 0.10814 0.65392 0.0
C903 C 0.72185 0.10586 0.65846 0.0
C904 C 0.68479 0.10913 0.67083 0.0
C905 C 0.72829 0.10443 0.68012 0.0
C906 C 0.71344 0.10537 0.69687 0.0
C907 C 0.67673 0.10882 0.70938 0.0
C908 C 0.6548 0.11112 0.70511 0.0
C909 C 0.69168 0.10778 0.69246 0.0
C910 C 0.6481 0.11244 0.68353 0.0
C911 C 0.66291 0.1115 0.66659 0.0
H912 H 0.89733 0.73216 0.68112 0.0
H913 H 0.88185 0.6859 0.63127 0.0
H914 H 0.88336 0.65668 0.65736 0.0
H915 H 0.88891 0.64421 0.69426 0.0
H916 H 0.90386 0.69021 0.74446 0.0
H917 H 0.90278 0.71958 0.7183 0.0
C918 C 0.89424 0.71569 0.676 0.0
C919 C 0.88947 0.71122 0.65429 0.0
C920 C 0.89509 0.69892 0.69112 0.0
C921 C 0.88554 0.68979 0.64788 0.0
C922 C 0.88642 0.67305 0.66278 0.0
C923 C 0.89198 0.66065 0.69949 0.0
C924 C 0.89647 0.66503 0.72125 0.0
C925 C 0.89118 0.67742 0.68443 0.0
C926 C 0.90036 0.68643 0.72778 0.0
C927 C 0.89973 0.70322 0.71284 0.0
H928 H 0.28063 0.32455 0.11143 0.0
H929 H 0.3243 0.37869 0.10795 0.0
H930 H 0.35444 0.354 0.1049 0.0
H931 H 0.36841 0.31657 0.10387 0.0
H932 H 0.3236 0.26319 0.10708 0.0
H933 H 0.29408 0.28799 0.10952 0.0
C934 C 0.29672 0.33102 0.11 0.0
C935 C 0.30016 0.35346 0.11002 0.0
C936 C 0.31387 0.31679 0.1082 0.0
C937 C 0.32117 0.36148 0.10801 0.0
C938 C 0.33842 0.34735 0.10628 0.0
C939 C 0.35218 0.31042 0.10502 0.0
C940 C 0.34835 0.28797 0.10535 0.0
C941 C 0.33499 0.32491 0.10644 0.0
C942 C 0.32716 0.28031 0.10683 0.0
C943 C 0.31017 0.29451 0.10825 0.0
H944 H 0.37188 0.68406 0.88164 0.0
H945 H 0.32958 0.73515 0.90042 0.0
H946 H 0.29947 0.70992 0.90076 0.0
H947 H 0.28488 0.67354 0.89496 0.0
H948 H 0.32695 0.62228 0.87621 0.0
H949 H 0.35733 0.64733 0.87657 0.0
C950 C 0.35609 0.68962 0.88589 0.0
C951 C 0.35297 0.71144 0.8909 0.0
C952 C 0.33875 0.67502 0.88596 0.0
C953 C 0.33242 0.71843 0.89642 0.0
C954 C 0.31515 0.70402 0.8966 0.0
C955 C 0.30069 0.66787 0.89093 0.0
C956 C 0.30364 0.64614 0.88547 0.0
C957 C 0.31809 0.68233 0.89123 0.0
C958 C 0.32425 0.63897 0.88042 0.0
C959 C 0.34164 0.65328 0.88064 0.0
H960 H 0.27392 0.33086 0.89733 0.0
H961 H 0.31489 0.38722 0.89948 0.0
H962 H 0.3464 0.36437 0.89724 0.0
H963 H 0.36226 0.32803 0.89445 0.0
H964 H 0.32031 0.27228 0.89205 0.0
H965 H 0.28937 0.29524 0.89461 0.0
C966 C 0.28973 0.3382 0.89734 0.0
C967 C 0.29205 0.36068 0.89857 0.0
C968 C 0.30767 0.32503 0.89597 0.0
C969 C 0.31267 0.36991 0.89853 0.0
C970 C 0.3307 0.35685 0.89725 0.0
C971 C 0.34635 0.32097 0.89449 0.0
C972 C 0.34367 0.29846 0.89303 0.0
C973 C 0.3284 0.33435 0.89593 0.0
C974 C 0.32292 0.28954 0.89311 0.0
C975 C 0.30513 0.30265 0.89459 0.0
H976 H 0.6775 0.2831 0.88808 0.0
H977 H 0.62465 0.32687 0.89129 0.0
H978 H 0.6492 0.3576 0.88843 0.0
H979 H 0.68569 0.3721 0.88401 0.0
H980 H 0.73847 0.32824 0.88074 0.0
H981 H 0.714 0.2976 0.88452 0.0
C982 C 0.67137 0.29936 0.8883 0.0
C983 C 0.64928 0.30267 0.88986 0.0
C984 C 0.68558 0.31699 0.88647 0.0
C985 C 0.64159 0.32386 0.89008 0.0
C986 C 0.65562 0.34146 0.88839 0.0
C987 C 0.69181 0.35583 0.8841 0.0
C988 C 0.71386 0.35247 0.88198 0.0
C989 C 0.67763 0.33823 0.88637 0.0
C990 C 0.72156 0.33129 0.88227 0.0
C991 C 0.70758 0.31373 0.88446 0.0
H992 H 0.72973 0.67747 0.90654 0.0
H993 H 0.68721 0.62242 0.90204 0.0
H994 H 0.65641 0.64629 0.90195 0.0
H995 H 0.64161 0.68308 0.9019 0.0
H996 H 0.68465 0.73777 0.90689 0.0
H997 H 0.71506 0.71379 0.9081 0.0
C998 C 0.71373 0.67066 0.90561 0.0
C999 C 0.7108 0.64819 0.90418 0.0
C1000 C 0.69613 0.68445 0.90561 0.0
C1001 C 0.68993 0.63966 0.90315 0.0
C1002 C 0.6723 0.65331 0.90305 0.0
C1003 C 0.65764 0.68972 0.90336 0.0
C1004 C 0.66079 0.71222 0.9042 0.0
C1005 C 0.6752 0.67577 0.90409 0.0
C1006 C 0.68169 0.72054 0.90617 0.0
C1007 C 0.69915 0.70683 0.90684 0.0
H1008 H 0.67697 0.72138 0.11501 0.0
H1009 H 0.6242 0.6762 0.11833 0.0
H1010 H 0.64926 0.64615 0.11913 0.0
H1011 H 0.68649 0.63278 0.11857 0.0
H1012 H 0.73862 0.67888 0.11556 0.0
H1013 H 0.71348 0.7084 0.11497 0.0
C1014 C 0.67086 0.70497 0.11591 0.0
C1015 C 0.6487 0.70108 0.11655 0.0
C1016 C 0.68531 0.68788 0.11642 0.0
C1017 C 0.64117 0.67967 0.11781 0.0
C1018 C 0.65551 0.66248 0.11825 0.0
C1019 C 0.69231 0.64929 0.11782 0.0
C1020 C 0.71447 0.65354 0.11709 0.0
C1021 C 0.67766 0.66639 0.11752 0.0
C1022 C 0.72172 0.67506 0.11615 0.0
C1023 C 0.70733 0.69201 0.11579 0.0
H1024 H 0.37101 0.68605 0.10828 0.0
H1025 H 0.32606 0.73723 0.0988 0.0
H1026 H 0.29646 0.71136 0.10034 0.0
H1027 H 0.28305 0.67412 0.10507 0.0
H1028 H 0.32805 0.62305 0.11497 0.0
H1029 H 0.35765 0.6488 0.11258 0.0
C1030 C 0.35475 0.69152 0.10644 0.0
C1031 C 0.35085 0.71359 0.10343 0.0
C1032 C 0.33769 0.67653 0.1075 0.0
C1033 C 0.32961 0.72037 0.10116 0.0
C1034 C 0.31261 0.70557 0.10206 0.0
C1035 C 0.29933 0.66864 0.10668 0.0
C1036 C 0.30324 0.64666 0.11023 0.0
C1037 C 0.31641 0.68361 0.10535 0.0
C1038 C 0.32449 0.63986 0.11225 0.0
C1039 C 0.3415 0.6546 0.11088 0.0
H1040 H 0.6868 0.3634 0.10406 0.0
H1041 H 0.73755 0.31768 0.09586 0.0
H1042 H 0.71169 0.28814 0.09488 0.0
H1043 H 0.67497 0.27487 0.09757 0.0
H1044 H 0.62354 0.31974 0.10527 0.0
H1045 H 0.64924 0.3499 0.1051 0.0
C1046 C 0.69215 0.34697 0.10197 0.0
C1047 C 0.71416 0.34282 0.10019 0.0
C1048 C 0.67707 0.32985 0.10137 0.0
C1049 C 0.72078 0.32143 0.09736 0.0
C1050 C 0.70598 0.30445 0.09681 0.0
C1051 C 0.66931 0.29124 0.09915 0.0
C1052 C 0.64735 0.29499 0.10157 0.0
C1053 C 0.68413 0.30843 0.09901 0.0
C1054 C 0.64036 0.31636 0.1034 0.0
C1055 C 0.65507 0.33363 0.10336 0.0
H1056 H 0.61241 0.86261 0.81877 0.0
H1057 H 0.61112 0.81709 0.76608 0.0
H1058 H 0.61454 0.78727 0.7913 0.0
H1059 H 0.61791 0.77397 0.82851 0.0
H1060 H 0.61884 0.8197 0.88103 0.0
H1061 H 0.61565 0.8494 0.85577 0.0
C1062 C 0.61284 0.84617 0.81282 0.0
C1063 C 0.61151 0.84212 0.7906 0.0
C1064 C 0.61482 0.82905 0.8274 0.0
C1065 C 0.6121 0.82069 0.78314 0.0
C1066 C 0.61409 0.80359 0.79754 0.0
C1067 C 0.6175 0.79044 0.83437 0.0
C1068 C 0.61862 0.79458 0.85659 0.0
C1069 C 0.61551 0.80756 0.81972 0.0
C1070 C 0.61796 0.81603 0.86398 0.0
C1071 C 0.61613 0.83307 0.84956 0.0
H1072 H 0.22814 0.60601 0.82753 0.0
H1073 H 0.18725 0.61021 0.88324 0.0
H1074 H 0.156 0.61316 0.85969 0.0
H1075 H 0.14046 0.61536 0.823 0.0
H1076 H 0.18215 0.61141 0.7678 0.0
H1077 H 0.21287 0.60751 0.79145 0.0
C1078 C 0.21241 0.60752 0.83461 0.0
C1079 C 0.21008 0.60794 0.85717 0.0
C1080 C 0.19462 0.60929 0.82101 0.0
C1081 C 0.18952 0.60986 0.86596 0.0
C1082 C 0.17165 0.61157 0.85247 0.0
C1083 C 0.15627 0.61358 0.81617 0.0
C1084 C 0.15897 0.61374 0.79361 0.0
C1085 C 0.17402 0.61142 0.82994 0.0
C1086 C 0.17957 0.61139 0.78505 0.0
C1087 C 0.19719 0.60917 0.79858 0.0
H1088 H 0.39552 0.17829 0.77832 0.0
H1089 H 0.40466 0.13025 0.82751 0.0
H1090 H 0.40463 0.15799 0.85519 0.0
H1091 H 0.39927 0.19521 0.86586 0.0
H1092 H 0.38963 0.24395 0.81761 0.0
H1093 H 0.39266 0.21667 0.78914 0.0
C1094 C 0.3978 0.174 0.79507 0.0
C1095 C 0.39992 0.15223 0.80085 0.0
C1096 C 0.39746 0.19009 0.8111 0.0
C1097 C 0.40283 0.14686 0.82261 0.0
C1098 C 0.40278 0.1627 0.83851 0.0
C1099 C 0.39797 0.19994 0.84912 0.0
C1100 C 0.39401 0.22149 0.84384 0.0
C1101 C 0.39963 0.18426 0.83299 0.0
C1102 C 0.39258 0.22739 0.82207 0.0
C1103 C 0.39428 0.21181 0.8058 0.0
H1104 H 0.83241 0.41389 0.77526 0.0
H1105 H 0.88428 0.39989 0.81837 0.0
H1106 H 0.85937 0.39937 0.84896 0.0
H1107 H 0.822 0.40104 0.86302 0.0
H1108 H 0.77116 0.41516 0.81845 0.0
H1109 H 0.79649 0.41757 0.78907 0.0
C1110 C 0.83836 0.41079 0.79135 0.0
C1111 C 0.86013 0.40674 0.79448 0.0
C1112 C 0.82404 0.41048 0.80868 0.0
C1113 C 0.86756 0.40302 0.8155 0.0
C1114 C 0.8533 0.40267 0.83299 0.0
C1115 C 0.81657 0.40483 0.84692 0.0
C1116 C 0.79461 0.40769 0.84301 0.0
C1117 C 0.83138 0.40611 0.82974 0.0
C1118 C 0.78786 0.41264 0.822 0.0
C1119 C 0.80236 0.41405 0.80509 0.0
H1120 H 0.61366 0.18153 0.13626 0.0
H1121 H 0.60998 0.23742 0.17755 0.0
H1122 H 0.60884 0.21439 0.20924 0.0
H1123 H 0.60906 0.17836 0.22557 0.0
H1124 H 0.61226 0.12223 0.1846 0.0
H1125 H 0.6134 0.14522 0.15273 0.0
C1126 C 0.61263 0.18865 0.15219 0.0
C1127 C 0.61198 0.21123 0.15443 0.0
C1128 C 0.61189 0.17522 0.17053 0.0
C1129 C 0.61053 0.22013 0.17525 0.0
C1130 C 0.60988 0.20695 0.19346 0.0
C1131 C 0.61001 0.17113 0.20968 0.0
C1132 C 0.61061 0.14855 0.20758 0.0
C1133 C 0.61058 0.18447 0.19134 0.0
C1134 C 0.61177 0.13954 0.18678 0.0
C1135 C 0.61244 0.1527 0.16849 0.0
H1136 H 0.86905 0.61204 0.1919 0.0
H1137 H 0.82604 0.60906 0.24611 0.0
H1138 H 0.79552 0.60698 0.22182 0.0
H1139 H 0.7807 0.6073 0.18503 0.0
H1140 H 0.82379 0.61008 0.13087 0.0
H1141 H 0.85432 0.61083 0.15514 0.0
C1142 C 0.85301 0.61085 0.19838 0.0
C1143 C 0.8499 0.61084 0.2208 0.0
C1144 C 0.8354 0.60965 0.18428 0.0
C1145 C 0.82896 0.60917 0.22891 0.0
C1146 C 0.81143 0.60799 0.21503 0.0
C1147 C 0.79677 0.60794 0.17857 0.0
C1148 C 0.79987 0.60872 0.15615 0.0
C1149 C 0.81441 0.60842 0.19266 0.0
C1150 C 0.82085 0.6095 0.14805 0.0
C1151 C 0.8384 0.60997 0.16193 0.0
H1152 H 0.39468 0.77837 0.17479 0.0
H1153 H 0.39683 0.82343 0.12194 0.0
H1154 H 0.39869 0.85344 0.14709 0.0
H1155 H 0.39848 0.86722 0.18375 0.0
H1156 H 0.39612 0.82324 0.23735 0.0
H1157 H 0.39569 0.79255 0.21231 0.0
C1158 C 0.39563 0.79476 0.16884 0.0
C1159 C 0.39553 0.7986 0.14648 0.0
C1160 C 0.39663 0.81217 0.1835 0.0
C1161 C 0.39683 0.81994 0.13902 0.0
C1162 C 0.39789 0.83719 0.1534 0.0
C1163 C 0.39797 0.85093 0.19003 0.0
C1164 C 0.39725 0.84753 0.21238 0.0
C1165 C 0.39762 0.83351 0.17562 0.0
C1166 C 0.39668 0.8263 0.22019 0.0
C1167 C 0.39638 0.80875 0.20587 0.0
H1168 H 0.18963 0.38505 0.1434 0.0
H1169 H 0.24106 0.3957 0.18855 0.0
H1170 H 0.21507 0.39944 0.21786 0.0
H1171 H 0.17763 0.39911 0.23049 0.0
H1172 H 0.12672 0.38887 0.18457 0.0
H1173 H 0.15275 0.38578 0.15555 0.0
C1174 C 0.19525 0.38826 0.15962 0.0
C1175 C 0.21727 0.39006 0.1638 0.0
C1176 C 0.1803 0.39052 0.17619 0.0
C1177 C 0.22419 0.39421 0.18493 0.0
C1178 C 0.20934 0.39636 0.20166 0.0
C1179 C 0.17225 0.39629 0.21411 0.0
C1180 C 0.15027 0.39414 0.20969 0.0
C1181 C 0.18734 0.39449 0.19746 0.0
C1182 C 0.14353 0.39055 0.18841 0.0
C1183 C 0.1584 0.38874 0.17181 0.0
H1184 H 0.8231 0.61702 0.87365 0.0
H1185 H 0.7714 0.61276 0.82785 0.0
H1186 H 0.7971 0.61211 0.79819 0.0
H1187 H 0.83412 0.61349 0.78534 0.0
H1188 H 0.88586 0.61736 0.83112 0.0
H1189 H 0.86018 0.61727 0.86083 0.0
C1190 C 0.81742 0.6159 0.85718 0.0
C1191 C 0.79535 0.61502 0.85294 0.0
C1192 C 0.83228 0.61545 0.84026 0.0
C1193 C 0.78829 0.61349 0.83153 0.0
C1194 C 0.80298 0.61313 0.81458 0.0
C1195 C 0.83982 0.61426 0.80182 0.0
C1196 C 0.86189 0.61553 0.80601 0.0
C1197 C 0.82499 0.61421 0.81876 0.0
C1198 C 0.86898 0.61639 0.82746 0.0
C1199 C 0.8543 0.61638 0.84444 0.0
H1200 H 0.39236 0.86594 0.81449 0.0
H1201 H 0.39167 0.82038 0.7618 0.0
H1202 H 0.39462 0.79062 0.78719 0.0
H1203 H 0.39653 0.77748 0.82419 0.0
H1204 H 0.39747 0.82267 0.87717 0.0
H1205 H 0.39536 0.8527 0.85178 0.0
C1206 C 0.39292 0.8495 0.80857 0.0
C1207 C 0.39171 0.84537 0.78628 0.0
C1208 C 0.39462 0.83243 0.82328 0.0
C1209 C 0.39254 0.824 0.77886 0.0
C1210 C 0.39421 0.80696 0.79337 0.0
C1211 C 0.3963 0.7939 0.83024 0.0
C1212 C 0.39704 0.79783 0.85256 0.0
C1213 C 0.39511 0.81099 0.81559 0.0
C1214 C 0.39688 0.81921 0.86007 0.0
C1215 C 0.39565 0.83637 0.84556 0.0
H1216 H 0.22023 0.39481 0.83291 0.0
H1217 H 0.17492 0.38763 0.88478 0.0
H1218 H 0.14538 0.38899 0.85911 0.0
H1219 H 0.13243 0.39186 0.82158 0.0
H1220 H 0.17844 0.39839 0.77014 0.0
H1221 H 0.20754 0.3977 0.79594 0.0
C1222 C 0.20389 0.39356 0.83861 0.0
C1223 C 0.19978 0.39112 0.86067 0.0
C1224 C 0.18704 0.39424 0.8238 0.0
C1225 C 0.17852 0.38949 0.86782 0.0
C1226 C 0.16161 0.39029 0.85316 0.0
C1227 C 0.14882 0.39319 0.81609 0.0
C1228 C 0.15321 0.39512 0.79398 0.0
C1229 C 0.16567 0.39262 0.83107 0.0
C1230 C 0.17456 0.39678 0.78707 0.0
C1231 C 0.19127 0.39641 0.8018 0.0
H1232 H 0.61335 0.17829 0.77738 0.0
H1233 H 0.61835 0.12506 0.82147 0.0
H1234 H 0.61657 0.14994 0.85207 0.0
H1235 H 0.61395 0.1872 0.86645 0.0
H1236 H 0.60908 0.24002 0.8217 0.0
H1237 H 0.61044 0.21505 0.79151 0.0
C1238 C 0.61403 0.17211 0.79367 0.0
C1239 C 0.61602 0.14983 0.79706 0.0
C1240 C 0.61304 0.18651 0.81121 0.0
C1241 C 0.61684 0.14214 0.81834 0.0
C1242 C 0.61583 0.15637 0.83589 0.0
C1243 C 0.61316 0.19321 0.85009 0.0
C1244 C 0.61145 0.21553 0.84648 0.0
C1245 C 0.61399 0.17865 0.83256 0.0
C1246 C 0.61044 0.22298 0.82511 0.0
C1247 C 0.61121 0.20869 0.80772 0.0
H1248 H 0.86693 0.39123 0.18265 0.0
H1249 H 0.82022 0.38818 0.23371 0.0
H1250 H 0.79155 0.38582 0.20731 0.0
H1251 H 0.77955 0.38482 0.16987 0.0
H1252 H 0.82575 0.38816 0.11842 0.0
H1253 H 0.85475 0.39011 0.14479 0.0
C1254 C 0.85048 0.39006 0.18797 0.0
C1255 C 0.84577 0.3899 0.21015 0.0
C1256 C 0.83395 0.3887 0.17264 0.0
C1257 C 0.82435 0.38836 0.21677 0.0
C1258 C 0.8079 0.38699 0.20168 0.0
C1259 C 0.79596 0.38589 0.16438 0.0
C1260 C 0.80046 0.3863 0.1422 0.0
C1261 C 0.8125 0.38715 0.1796 0.0
C1262 C 0.82183 0.38778 0.13541 0.0
C1263 C 0.83843 0.38893 0.15048 0.0
H1264 H 0.62148 0.86828 0.18162 0.0
H1265 H 0.60979 0.82918 0.23786 0.0
H1266 H 0.60942 0.79671 0.2158 0.0
H1267 H 0.61295 0.7791 0.18058 0.0
H1268 H 0.62472 0.81793 0.1242 0.0
H1269 H 0.62459 0.85059 0.14616 0.0
C1270 C 0.61878 0.85265 0.18898 0.0
C1271 C 0.61576 0.85118 0.21133 0.0
C1272 C 0.6187 0.8339 0.17618 0.0
C1273 C 0.61226 0.8308 0.22068 0.0
C1274 C 0.61205 0.81217 0.20808 0.0
C1275 C 0.61553 0.7947 0.17313 0.0
C1276 C 0.61889 0.79605 0.15084 0.0
C1277 C 0.61539 0.81348 0.18584 0.0
C1278 C 0.62211 0.81642 0.14138 0.0
C1279 C 0.62202 0.83515 0.15391 0.0
H1280 H 0.14306 0.60641 0.1818 0.0
H1281 H 0.18625 0.60908 0.23593 0.0
H1282 H 0.2167 0.60757 0.21167 0.0
H1283 H 0.23142 0.60596 0.17516 0.0
H1284 H 0.18885 0.60343 0.12062 0.0
H1285 H 0.15803 0.6044 0.14484 0.0
C1286 C 0.15913 0.60661 0.18827 0.0
C1287 C 0.16225 0.60789 0.21074 0.0
C1288 C 0.17679 0.6058 0.17412 0.0
C1289 C 0.18325 0.60814 0.21877 0.0
C1290 C 0.20076 0.60728 0.20488 0.0
C1291 C 0.21541 0.60559 0.16852 0.0
C1292 C 0.21253 0.60465 0.14605 0.0
C1293 C 0.19776 0.60619 0.18254 0.0
C1294 C 0.1916 0.60417 0.13783 0.0
C1295 C 0.17393 0.60473 0.1517 0.0
H1296 H 0.39527 0.22651 0.17628 0.0
H1297 H 0.39094 0.17954 0.12492 0.0
H1298 H 0.39188 0.15041 0.15082 0.0
H1299 H 0.39284 0.13792 0.18788 0.0
H1300 H 0.39732 0.1839 0.23995 0.0
H1301 H 0.39744 0.21363 0.21405 0.0
C1302 C 0.39464 0.2099 0.17082 0.0
C1303 C 0.39298 0.20528 0.14868 0.0
C1304 C 0.39512 0.19298 0.18592 0.0
C1305 C 0.3922 0.18364 0.14184 0.0
C1306 C 0.3927 0.16689 0.15665 0.0
C1307 C 0.39389 0.15444 0.1936 0.0
C1308 C 0.39496 0.1587 0.21577 0.0
C1309 C 0.39398 0.17134 0.1787 0.0
C1310 C 0.39644 0.1802 0.22291 0.0
C1311 C 0.39649 0.1972 0.20812 0.0
H1312 H 0.8353 0.78456 0.59884 0.0
H1313 H 0.88674 0.82619 0.62015 0.0
H1314 H 0.86228 0.85695 0.62079 0.0
H1315 H 0.82516 0.87113 0.61759 0.0
H1316 H 0.7748 0.82767 0.59673 0.0
H1317 H 0.8 0.79856 0.59356 0.0
C1318 C 0.84128 0.80036 0.6036 0.0
C1319 C 0.86271 0.80305 0.60974 0.0
C1320 C 0.82724 0.81765 0.60406 0.0
C1321 C 0.87025 0.82372 0.61543 0.0
C1322 C 0.85625 0.84125 0.61586 0.0
C1323 C 0.81985 0.85534 0.61214 0.0
C1324 C 0.79806 0.85154 0.60765 0.0
C1325 C 0.83455 0.83832 0.61055 0.0
C1326 C 0.79138 0.831 0.60057 0.0
C1327 C 0.80579 0.81429 0.59871 0.0
H1328 H 0.82747 0.22523 0.4001 0.0
H1329 H 0.8812 0.18336 0.3911 0.0
H1330 H 0.85737 0.15189 0.39129 0.0
H1331 H 0.82104 0.13627 0.39286 0.0
H1332 H 0.76738 0.17832 0.40144 0.0
H1333 H 0.79136 0.20959 0.40268 0.0
C1334 C 0.83397 0.20922 0.39825 0.0
C1335 C 0.85607 0.20667 0.3955 0.0
C1336 C 0.82016 0.19117 0.39828 0.0
C1337 C 0.86424 0.18579 0.39318 0.0
C1338 C 0.85062 0.16777 0.39328 0.0
C1339 C 0.81463 0.15227 0.39512 0.0
C1340 C 0.79245 0.15495 0.39696 0.0
C1341 C 0.82852 0.17026 0.39566 0.0
C1342 C 0.78438 0.17579 0.3999 0.0
C1343 C 0.79808 0.19371 0.4006 0.0
H1344 H 0.8087 0.87359 0.40535 0.0
H1345 H 0.75782 0.82609 0.40793 0.0
H1346 H 0.78371 0.79721 0.40663 0.0
H1347 H 0.82067 0.78513 0.4035 0.0
H1348 H 0.87191 0.83215 0.40131 0.0
H1349 H 0.84613 0.86133 0.40374 0.0
C1350 C 0.8033 0.85692 0.40578 0.0
C1351 C 0.78128 0.8521 0.40666 0.0
C1352 C 0.81836 0.84021 0.40499 0.0
C1353 C 0.77462 0.83037 0.40722 0.0
C1354 C 0.78943 0.81376 0.40644 0.0
C1355 C 0.82623 0.80176 0.4036 0.0
C1356 C 0.84821 0.8064 0.4021 0.0
C1357 C 0.81132 0.81846 0.40509 0.0
C1358 C 0.85509 0.82807 0.40241 0.0
C1359 C 0.84033 0.8448 0.40379 0.0
H1360 H 0.17621 0.78218 0.39408 0.0
H1361 H 0.12605 0.82731 0.38117 0.0
H1362 H 0.15214 0.85697 0.38074 0.0
H1363 H 0.1895 0.87005 0.38331 0.0
H1364 H 0.23935 0.82459 0.39643 0.0
H1365 H 0.21315 0.79524 0.39753 0.0
C1366 C 0.17096 0.79851 0.39121 0.0
C1367 C 0.14921 0.80248 0.38758 0.0
C1368 C 0.18604 0.81549 0.39099 0.0
C1369 C 0.1427 0.82377 0.38398 0.0
C1370 C 0.15762 0.84076 0.38371 0.0
C1371 C 0.1946 0.85373 0.38645 0.0
C1372 C 0.21639 0.84955 0.38969 0.0
C1373 C 0.17938 0.83681 0.38708 0.0
C1374 C 0.22271 0.8283 0.39383 0.0
C1375 C 0.20773 0.81146 0.39445 0.0
H1376 H 0.1894 0.14086 0.39959 0.0
H1377 H 0.24211 0.18624 0.39668 0.0
H1378 H 0.21731 0.21616 0.39618 0.0
H1379 H 0.18069 0.22955 0.39569 0.0
H1380 H 0.12782 0.18442 0.39873 0.0
H1381 H 0.15261 0.15439 0.40008 0.0
C1382 C 0.19545 0.1573 0.39894 0.0
C1383 C 0.21758 0.16127 0.39812 0.0
C1384 C 0.18107 0.17451 0.39861 0.0
C1385 C 0.22515 0.18269 0.3973 0.0
C1386 C 0.21098 0.19985 0.39699 0.0
C1387 C 0.17458 0.21315 0.39669 0.0
C1388 C 0.15244 0.20924 0.39703 0.0
C1389 C 0.18891 0.19596 0.39748 0.0
C1390 C 0.1448 0.18789 0.39842 0.0
C1391 C 0.15896 0.17068 0.39918 0.0
H1392 H 0.19343 0.13846 0.60987 0.0
H1393 H 0.24591 0.18369 0.60321 0.0
H1394 H 0.22099 0.21355 0.60266 0.0
H1395 H 0.18447 0.22707 0.60483 0.0
H1396 H 0.13167 0.18231 0.61155 0.0
H1397 H 0.15648 0.15212 0.61132 0.0
C1398 C 0.19941 0.15484 0.60819 0.0
C1399 C 0.22159 0.15875 0.6066 0.0
C1400 C 0.18492 0.17207 0.60798 0.0
C1401 C 0.22899 0.18013 0.60448 0.0
C1402 C 0.21472 0.19727 0.60419 0.0
C1403 C 0.17833 0.21072 0.60623 0.0
C1404 C 0.15618 0.20702 0.60828 0.0
C1405 C 0.19268 0.19346 0.60607 0.0
C1406 C 0.1486 0.18567 0.60999 0.0
C1407 C 0.16281 0.16838 0.60985 0.0
H1408 H 0.78862 0.17529 0.61295 0.0
H1409 H 0.83296 0.12292 0.61777 0.0
H1410 H 0.86295 0.14813 0.61467 0.0
H1411 H 0.87682 0.18534 0.61151 0.0
H1412 H 0.83236 0.23766 0.60707 0.0
H1413 H 0.80244 0.21232 0.60897 0.0
C1414 C 0.80484 0.16942 0.61331 0.0
C1415 C 0.80849 0.14727 0.61566 0.0
C1416 C 0.82211 0.18404 0.61156 0.0
C1417 C 0.82964 0.13991 0.61601 0.0
C1418 C 0.84686 0.15432 0.61423 0.0
C1419 C 0.86059 0.19115 0.61081 0.0
C1420 C 0.85691 0.21337 0.60921 0.0
C1421 C 0.84332 0.17645 0.6121 0.0
C1422 C 0.83573 0.22064 0.60838 0.0
C1423 C 0.81854 0.20616 0.60949 0.0
H1424 H 0.18145 0.86769 0.6111 0.0
H1425 H 0.23371 0.82503 0.59755 0.0
H1426 H 0.20918 0.79449 0.59548 0.0
H1427 H 0.1732 0.77947 0.59809 0.0
H1428 H 0.12019 0.8213 0.61068 0.0
H1429 H 0.14458 0.85245 0.61246 0.0
C1430 C 0.18739 0.8517 0.60769 0.0
C1431 C 0.20941 0.84868 0.60462 0.0
C1432 C 0.17308 0.834 0.60634 0.0
C1433 C 0.21687 0.82788 0.60003 0.0
C1434 C 0.20285 0.81033 0.59885 0.0
C1435 C 0.16694 0.79539 0.60121 0.0
C1436 C 0.14494 0.79803 0.60436 0.0
C1437 C 0.18098 0.81316 0.60208 0.0
C1438 C 0.13709 0.81883 0.60819 0.0
C1439 C 0.15104 0.83665 0.60926 0.0
H1440 H 0.11062 0.24486 0.46491 0.0
H1441 H 0.13647 0.30941 0.45881 0.0
H1442 H 0.1419 0.31144 0.49753 0.0
H1443 H 0.13585 0.29676 0.53313 0.0
H1444 H 0.10857 0.23306 0.54065 0.0
H1445 H 0.10757 0.22861 0.50135 0.0
C1446 C 0.11776 0.25919 0.47208 0.0
C1447 C 0.12284 0.27708 0.45905 0.0
C1448 C 0.12045 0.26046 0.49457 0.0
C1449 C 0.13209 0.29556 0.46852 0.0
C1450 C 0.13524 0.29674 0.49066 0.0
C1451 C 0.12983 0.28179 0.52623 0.0
C1452 C 0.12194 0.26543 0.53975 0.0
C1453 C 0.12888 0.27958 0.50384 0.0
C1454 C 0.11465 0.24595 0.53056 0.0
C1455 C 0.11396 0.24347 0.5081 0.0
H1456 H 0.74926 0.09497 0.54055 0.0
H1457 H 0.79883 0.14357 0.54576 0.0
H1458 H 0.79715 0.15 0.50713 0.0
H1459 H 0.78593 0.13795 0.47146 0.0
H1460 H 0.73738 0.08864 0.46481 0.0
H1461 H 0.73397 0.08658 0.5042 0.0
C1462 C 0.75918 0.10739 0.53325 0.0
C1463 C 0.77427 0.1187 0.54596 0.0
C1464 C 0.75852 0.11065 0.5107 0.0
C1465 C 0.78721 0.13458 0.53628 0.0
C1466 C 0.78632 0.13822 0.51417 0.0
C1467 C 0.77421 0.12711 0.47863 0.0
C1468 C 0.76206 0.11334 0.46528 0.0
C1469 C 0.77271 0.12575 0.50114 0.0
C1470 C 0.74685 0.09949 0.47475 0.0
C1471 C 0.74507 0.09816 0.49729 0.0
H1472 H 0.89551 0.76783 0.46873 0.0
H1473 H 0.8662 0.70519 0.45923 0.0
H1474 H 0.86331 0.70029 0.49796 0.0
H1475 H 0.87234 0.71189 0.53427 0.0
H1476 H 0.90236 0.77399 0.54481 0.0
H1477 H 0.90154 0.78108 0.50605 0.0
C1478 C 0.88811 0.75334 0.47519 0.0
C1479 C 0.88132 0.73679 0.46114 0.0
C1480 C 0.88687 0.75038 0.49766 0.0
C1481 C 0.87182 0.71805 0.46971 0.0
C1482 C 0.87017 0.71519 0.49187 0.0
C1483 C 0.87861 0.72706 0.52816 0.0
C1484 C 0.88772 0.74221 0.54241 0.0
C1485 C 0.87824 0.73093 0.50596 0.0
C1486 C 0.89536 0.76196 0.53419 0.0
C1487 C 0.89495 0.76601 0.51201 0.0
H1488 H 0.20348 0.89794 0.46465 0.0
H1489 H 0.27197 0.89382 0.45936 0.0
H1490 H 0.27495 0.89399 0.49881 0.0
H1491 H 0.25766 0.89626 0.53505 0.0
H1492 H 0.18887 0.90088 0.5381 0.0
H1493 H 0.18669 0.89969 0.49937 0.0
C1494 C 0.21916 0.89701 0.47195 0.0
C1495 C 0.23746 0.89593 0.45892 0.0
C1496 C 0.22074 0.89732 0.4944 0.0
C1497 C 0.25756 0.89468 0.46894 0.0
C1498 C 0.25927 0.89483 0.49152 0.0
C1499 C 0.24223 0.89697 0.52721 0.0
C1500 C 0.22352 0.89871 0.53975 0.0
C1501 C 0.24092 0.89631 0.50448 0.0
C1502 C 0.20365 0.89958 0.52917 0.0
C1503 C 0.20228 0.89888 0.50687 0.0
H1504 H 0.11182 0.77224 0.53846 0.0
H1505 H 0.10976 0.70401 0.52441 0.0
H1506 H 0.11088 0.71153 0.48598 0.0
H1507 H 0.11045 0.73736 0.45611 0.0
H1508 H 0.112 0.80558 0.4701 0.0
H1509 H 0.11321 0.79807 0.50855 0.0
C1510 C 0.11176 0.75898 0.52703 0.0
C1511 C 0.11054 0.73759 0.5345 0.0
C1512 C 0.11225 0.76337 0.50479 0.0
C1513 C 0.11056 0.72067 0.5193 0.0
C1514 C 0.11119 0.72493 0.49722 0.0
C1515 C 0.11126 0.75061 0.46752 0.0
C1516 C 0.11097 0.77201 0.46006 0.0
C1517 C 0.11174 0.74621 0.48975 0.0
C1518 C 0.11204 0.78892 0.47524 0.0
C1519 C 0.11272 0.78466 0.49732 0.0
H1520 H 0.29373 0.08569 0.46976 0.0
H1521 H 0.24759 0.13614 0.46325 0.0
H1522 H 0.24364 0.13779 0.50265 0.0
H1523 H 0.25504 0.12568 0.53933 0.0
H1524 H 0.30071 0.07424 0.54366 0.0
H1525 H 0.30288 0.07216 0.50487 0.0
C1526 C 0.28283 0.09714 0.4769 0.0
C1527 C 0.27128 0.11102 0.46365 0.0
C1528 C 0.28052 0.0978 0.49929 0.0
C1529 C 0.25681 0.12536 0.47317 0.0
C1530 C 0.25457 0.12631 0.49568 0.0
C1531 C 0.26524 0.11391 0.53171 0.0
C1532 C 0.278 0.10046 0.5445 0.0
C1533 C 0.26654 0.11271 0.50899 0.0
C1534 C 0.29105 0.08517 0.53433 0.0
C1535 C 0.29232 0.08387 0.51207 0.0
H1536 H 0.8929 0.23667 0.5452 0.0
H1537 H 0.90419 0.30449 0.53377 0.0
H1538 H 0.90122 0.2985 0.49505 0.0
H1539 H 0.89784 0.27366 0.46422 0.0
H1540 H 0.88756 0.20575 0.47586 0.0
H1541 H 0.88753 0.21225 0.51458 0.0
C1542 C 0.89458 0.25021 0.5343 0.0
C1543 C 0.89896 0.27097 0.54253 0.0
C1544 C 0.89308 0.24665 0.51198 0.0
C1545 C 0.90095 0.28828 0.52802 0.0
C1546 C 0.89926 0.28489 0.5058 0.0
C1547 C 0.8953 0.26032 0.4752 0.0
C1548 C 0.89286 0.23923 0.46706 0.0
C1549 C 0.89566 0.26409 0.49757 0.0
C1550 C 0.88967 0.22214 0.48161 0.0
C1551 C 0.88967 0.22582 0.50381 0.0
H1552 H 0.75107 0.88817 0.47226 0.0
H1553 H 0.68852 0.91699 0.47213 0.0
H1554 H 0.68796 0.91717 0.5109 0.0
H1555 H 0.70425 0.90913 0.54479 0.0
H1556 H 0.76673 0.88084 0.54729 0.0
H1557 H 0.76824 0.88058 0.50772 0.0
C1558 C 0.73738 0.8945 0.48076 0.0
C1559 C 0.71981 0.9023 0.4691 0.0
C1560 C 0.73704 0.89464 0.50349 0.0
C1561 C 0.70222 0.91056 0.48045 0.0
C1562 C 0.70183 0.91076 0.50275 0.0
C1563 C 0.71823 0.90273 0.53681 0.0
C1564 C 0.73523 0.89481 0.549 0.0
C1565 C 0.719 0.90274 0.51438 0.0
C1566 C 0.75335 0.887 0.53826 0.0
C1567 C 0.75421 0.88683 0.51565 0.0
H1568 H 0.46305 0.11634 0.27145 0.0
H1569 H 0.47461 0.11731 0.20287 0.0
H1570 H 0.51295 0.11805 0.20915 0.0
H1571 H 0.54343 0.11636 0.23402 0.0
H1572 H 0.53161 0.11535 0.30258 0.0
H1573 H 0.49342 0.11682 0.29626 0.0
C1574 C 0.47392 0.11686 0.25785 0.0
C1575 C 0.4658 0.11657 0.23674 0.0
C1576 C 0.49606 0.11719 0.26152 0.0
C1577 C 0.48026 0.11738 0.21935 0.0
C1578 C 0.50228 0.11779 0.22289 0.0
C1579 C 0.53254 0.11664 0.24759 0.0
C1580 C 0.54056 0.11553 0.26872 0.0
C1581 C 0.51039 0.11738 0.24391 0.0
C1582 C 0.52606 0.11601 0.28609 0.0
C1583 C 0.50411 0.11684 0.28253 0.0
H1584 H 0.8852 0.53051 0.22287 0.0
H1585 H 0.90121 0.55175 0.28721 0.0
H1586 H 0.90006 0.51446 0.29974 0.0
H1587 H 0.89643 0.4756 0.29199 0.0
H1588 H 0.8801 0.45479 0.22751 0.0
H1589 H 0.87935 0.49209 0.21566 0.0
C1590 C 0.88837 0.52704 0.23967 0.0
C1591 C 0.89349 0.54397 0.254 0.0
C1592 C 0.88767 0.50557 0.24679 0.0
C1593 C 0.89727 0.53909 0.27577 0.0
C1594 C 0.89667 0.51774 0.28296 0.0
C1595 C 0.89252 0.47919 0.27538 0.0
C1596 C 0.88851 0.46224 0.26069 0.0
C1597 C 0.89216 0.5008 0.26855 0.0
C1598 C 0.88337 0.46736 0.23924 0.0
C1599 C 0.88297 0.48875 0.23238 0.0
H1600 H 0.54056 0.90909 0.25854 0.0
H1601 H 0.54781 0.85878 0.21109 0.0
H1602 H 0.50944 0.85213 0.211 0.0
H1603 H 0.47373 0.86444 0.2198 0.0
H1604 H 0.46524 0.91534 0.26622 0.0
H1605 H 0.50402 0.91774 0.27167 0.0
C1606 C 0.53372 0.89628 0.24872 0.0
C1607 C 0.5469 0.88459 0.23465 0.0
C1608 C 0.51139 0.89288 0.24832 0.0
C1609 C 0.5379 0.86812 0.22186 0.0
C1610 C 0.51596 0.86434 0.22175 0.0
C1611 C 0.48036 0.87575 0.23145 0.0
C1612 C 0.46676 0.88989 0.24236 0.0
C1613 C 0.50252 0.87724 0.23417 0.0
C1614 C 0.47545 0.90428 0.25763 0.0
C1615 C 0.49763 0.90576 0.2606 0.0
H1616 H 0.12081 0.54521 0.23384 0.0
H1617 H 0.10888 0.53613 0.30174 0.0
H1618 H 0.10872 0.49715 0.2967 0.0
H1619 H 0.1095 0.46552 0.27261 0.0
H1620 H 0.12056 0.47496 0.20462 0.0
H1621 H 0.12363 0.51371 0.21022 0.0
C1622 C 0.11837 0.53476 0.24761 0.0
C1623 C 0.1147 0.54375 0.2681 0.0
C1624 C 0.11802 0.51229 0.24459 0.0
C1625 C 0.11162 0.52979 0.28572 0.0
C1626 C 0.1115 0.50742 0.28287 0.0
C1627 C 0.11283 0.47602 0.25906 0.0
C1628 C 0.1146 0.46724 0.23821 0.0
C1629 C 0.11431 0.49847 0.26231 0.0
C1630 C 0.11889 0.48119 0.22084 0.0
C1631 C 0.12067 0.50342 0.22401 0.0
H1632 H 0.47246 0.87993 0.78266 0.0
H1633 H 0.45063 0.89626 0.71887 0.0
H1634 H 0.48739 0.89625 0.70577 0.0
H1635 H 0.52588 0.89379 0.71297 0.0
H1636 H 0.54732 0.87752 0.77698 0.0
H1637 H 0.51051 0.87527 0.78931 0.0
C1638 C 0.47567 0.8834 0.76585 0.0
C1639 C 0.45877 0.88831 0.75185 0.0
C1640 C 0.49681 0.88347 0.75844 0.0
C1641 C 0.46329 0.89248 0.73005 0.0
C1642 C 0.48434 0.89255 0.72255 0.0
C1643 C 0.52254 0.88959 0.72958 0.0
C1644 C 0.53947 0.88605 0.74402 0.0
C1645 C 0.50126 0.8884 0.73668 0.0
C1646 C 0.53472 0.88048 0.76547 0.0
C1647 C 0.51363 0.8792 0.77259 0.0
H1648 H 0.10655 0.48084 0.71424 0.0
H1649 H 0.12674 0.45628 0.77592 0.0
H1650 H 0.12977 0.49272 0.79 0.0
H1651 H 0.12473 0.5314 0.78585 0.0
H1652 H 0.10481 0.55674 0.72453 0.0
H1653 H 0.10388 0.52031 0.70936 0.0
C1654 C 0.11182 0.48346 0.73068 0.0
C1655 C 0.11616 0.46566 0.74398 0.0
C1656 C 0.1135 0.50466 0.73887 0.0
C1657 C 0.12305 0.46951 0.76526 0.0
C1658 C 0.12481 0.49042 0.77341 0.0
C1659 C 0.12028 0.52903 0.76912 0.0
C1660 C 0.11465 0.54685 0.75646 0.0
C1661 C 0.11972 0.50807 0.76051 0.0
C1662 C 0.1092 0.54338 0.73472 0.0
C1663 C 0.10859 0.52251 0.72602 0.0
H1664 H 0.47185 0.13535 0.76221 0.0
H1665 H 0.46323 0.06679 0.76947 0.0
H1666 H 0.50166 0.06157 0.76591 0.0
H1667 H 0.53798 0.07697 0.76572 0.0
H1668 H 0.54736 0.14532 0.7579 0.0
H1669 H 0.50852 0.15031 0.75636 0.0
C1670 C 0.47842 0.11927 0.76223 0.0
C1671 C 0.46482 0.10141 0.76582 0.0
C1672 C 0.50068 0.11643 0.76037 0.0
C1673 C 0.47344 0.08067 0.76636 0.0
C1674 C 0.49541 0.07771 0.76453 0.0
C1675 C 0.53145 0.09287 0.76312 0.0
C1676 C 0.54534 0.11076 0.76191 0.0
C1677 C 0.50923 0.09552 0.76226 0.0
C1678 C 0.53687 0.13132 0.75868 0.0
C1679 C 0.51469 0.13416 0.75796 0.0
H1680 H 0.88109 0.54648 0.71126 0.0
H1681 H 0.90954 0.54974 0.77441 0.0
H1682 H 0.90847 0.51029 0.77678 0.0
H1683 H 0.90257 0.47469 0.75906 0.0
H1684 H 0.8739 0.47279 0.69578 0.0
H1685 H 0.87181 0.51176 0.69547 0.0
C1686 C 0.88693 0.53858 0.72563 0.0
C1687 C 0.89568 0.55096 0.74246 0.0
C1688 C 0.88633 0.51606 0.72683 0.0
C1689 C 0.90278 0.54053 0.76117 0.0
C1690 C 0.90226 0.51797 0.76249 0.0
C1691 C 0.89556 0.48282 0.74539 0.0
C1692 C 0.88881 0.47079 0.72731 0.0
C1693 C 0.89452 0.50552 0.74517 0.0
C1694 C 0.87964 0.4816 0.70976 0.0
C1695 C 0.87839 0.50394 0.70953 0.0
H1696 H 0.23757 0.53792 0.11532 0.0
H1697 H 0.305 0.52492 0.11079 0.0
H1698 H 0.29773 0.48645 0.11342 0.0
H1699 H 0.27231 0.45616 0.11553 0.0
H1700 H 0.20487 0.46899 0.12003 0.0
H1701 H 0.2122 0.50759 0.11897 0.0
C1702 C 0.2507 0.52671 0.11502 0.0
C1703 C 0.27178 0.53449 0.11271 0.0
C1704 C 0.24646 0.50442 0.11646 0.0
C1705 C 0.28856 0.51957 0.11244 0.0
C1706 C 0.28446 0.49746 0.11393 0.0
C1707 C 0.2592 0.46736 0.11639 0.0
C1708 C 0.23807 0.4595 0.11772 0.0
C1709 C 0.26346 0.48966 0.11571 0.0
C1710 C 0.22133 0.47441 0.11891 0.0
C1711 C 0.22547 0.49659 0.11829 0.0
H1712 H 0.233 0.54175 0.89577 0.0
H1713 H 0.29784 0.52414 0.88075 0.0
H1714 H 0.28782 0.48616 0.88188 0.0
H1715 H 0.26143 0.45796 0.88921 0.0
H1716 H 0.19664 0.47505 0.90486 0.0
H1717 H 0.20593 0.51321 0.90122 0.0
C1718 C 0.24491 0.52963 0.89253 0.0
C1719 C 0.2662 0.53588 0.88839 0.0
C1720 C 0.23912 0.5077 0.89344 0.0
C1721 C 0.28138 0.51988 0.88419 0.0
C1722 C 0.27568 0.49811 0.88483 0.0
C1723 C 0.24926 0.46997 0.89177 0.0
C1724 C 0.22842 0.46358 0.89752 0.0
C1725 C 0.25471 0.49184 0.88982 0.0
C1726 C 0.21285 0.47946 0.90051 0.0
C1727 C 0.21815 0.50131 0.89847 0.0
H1728 H 0.47272 0.22567 0.88039 0.0
H1729 H 0.45199 0.29071 0.8925 0.0
H1730 H 0.4892 0.30304 0.89393 0.0
H1731 H 0.5275 0.29483 0.89418 0.0
H1732 H 0.54773 0.22945 0.88269 0.0
H1733 H 0.51068 0.21785 0.87866 0.0
C1734 C 0.47624 0.24261 0.88323 0.0
C1735 C 0.4595 0.25719 0.88656 0.0
C1736 C 0.49759 0.24951 0.88433 0.0
C1737 C 0.4645 0.2791 0.88993 0.0
C1738 C 0.48579 0.28615 0.89085 0.0
C1739 C 0.52387 0.27805 0.89069 0.0
C1740 C 0.54049 0.26303 0.88898 0.0
C1741 C 0.50246 0.2714 0.88848 0.0
C1742 C 0.53536 0.24139 0.88427 0.0
C1743 C 0.51414 0.23471 0.88194 0.0
H1744 H 0.73766 0.54633 0.8972 0.0
H1745 H 0.80458 0.53317 0.88791 0.0
H1746 H 0.79651 0.4949 0.88422 0.0
H1747 H 0.77084 0.46492 0.88474 0.0
H1748 H 0.7039 0.47763 0.89433 0.0
H1749 H 0.71168 0.5162 0.89662 0.0
C1750 C 0.75049 0.53513 0.89428 0.0
C1751 C 0.77172 0.54277 0.89297 0.0
C1752 C 0.74578 0.51297 0.89224 0.0
C1753 C 0.78808 0.5279 0.88912 0.0
C1754 C 0.78351 0.50592 0.88699 0.0
C1755 C 0.75788 0.47607 0.88725 0.0
C1756 C 0.73681 0.46822 0.88945 0.0
C1757 C 0.76245 0.49825 0.8887 0.0
C1758 C 0.7203 0.48308 0.89261 0.0
C1759 C 0.72472 0.5052 0.89396 0.0
H1760 H 0.47996 0.70974 0.8891 0.0
H1761 H 0.45815 0.7725 0.86956 0.0
H1762 H 0.49483 0.78494 0.86544 0.0
H1763 H 0.53283 0.77947 0.87096 0.0
H1764 H 0.55534 0.71742 0.89161 0.0
H1765 H 0.51877 0.70318 0.89113 0.0
C1766 C 0.48323 0.72604 0.88365 0.0
C1767 C 0.46623 0.74022 0.88001 0.0
C1768 C 0.50453 0.73329 0.88153 0.0
C1769 C 0.47083 0.76127 0.87284 0.0
C1770 C 0.49185 0.76845 0.87042 0.0
C1771 C 0.52985 0.76272 0.87508 0.0
C1772 C 0.54684 0.74966 0.88161 0.0
C1773 C 0.50879 0.7548 0.87528 0.0
C1774 C 0.54261 0.72791 0.88657 0.0
C1775 C 0.52164 0.71978 0.88647 0.0
H1776 H 0.78768 0.52331 0.12129 0.0
H1777 H 0.72408 0.5472 0.11136 0.0
H1778 H 0.71031 0.51021 0.10857 0.0
H1779 H 0.71689 0.471 0.10627 0.0
H1780 H 0.78092 0.44794 0.11629 0.0
H1781 H 0.79378 0.48461 0.12166 0.0
C1782 C 0.77075 0.5205 0.11869 0.0
C1783 C 0.75701 0.5381 0.11634 0.0
C1784 C 0.76298 0.49925 0.11691 0.0
C1785 C 0.73507 0.53402 0.11324 0.0
C1786 C 0.72719 0.51284 0.11151 0.0
C1787 C 0.73362 0.47397 0.10978 0.0
C1788 C 0.74787 0.45657 0.11059 0.0
C1789 C 0.74108 0.4953 0.11289 0.0
C1790 C 0.7695 0.46086 0.11534 0.0
C1791 C 0.77695 0.4819 0.11845 0.0
H1792 H 0.53862 0.73902 0.10655 0.0
H1793 H 0.54558 0.79545 0.14681 0.0
H1794 H 0.50696 0.79813 0.14988 0.0
H1795 H 0.47157 0.78806 0.13657 0.0
H1796 H 0.46354 0.73233 0.09568 0.0
H1797 H 0.502 0.72551 0.09763 0.0
C1798 C 0.53163 0.75144 0.11652 0.0
C1799 C 0.54493 0.76714 0.12629 0.0
C1800 C 0.50919 0.75324 0.1178 0.0
C1801 C 0.53567 0.7833 0.13901 0.0
C1802 C 0.51357 0.78491 0.1407 0.0
C1803 C 0.47819 0.77417 0.12842 0.0
C1804 C 0.46482 0.76091 0.11577 0.0
C1805 C 0.50022 0.77056 0.12942 0.0
C1806 C 0.47352 0.74279 0.10554 0.0
C1807 C 0.49555 0.73899 0.10652 0.0
H1808 H 0.53664 0.25709 0.09609 0.0
H1809 H 0.54167 0.20392 0.14036 0.0
H1810 H 0.50317 0.20317 0.14515 0.0
H1811 H 0.46797 0.21403 0.1332 0.0
H1812 H 0.46145 0.26632 0.08835 0.0
H1813 H 0.50044 0.27133 0.08763 0.0
C1814 C 0.52928 0.24572 0.10714 0.0
C1815 C 0.542 0.23036 0.11761 0.0
C1816 C 0.50683 0.24507 0.10955 0.0
C1817 C 0.53224 0.21568 0.13186 0.0
C1818 C 0.5102 0.21522 0.13462 0.0
C1819 C 0.47506 0.22681 0.12356 0.0
C1820 C 0.46191 0.23961 0.11067 0.0
C1821 C 0.49732 0.22927 0.12297 0.0
C1822 C 0.47125 0.25628 0.09846 0.0
C1823 C 0.49356 0.259 0.09791 0.0
H1824 H 0.57736 0.77052 0.03897 0.0
H1825 H 0.63509 0.73425 0.04526 0.0
H1826 H 0.63713 0.73032 0.00584 0.0
H1827 H 0.62477 0.742 0.96952 0.0
H1828 H 0.56732 0.77942 0.96494 0.0
H1829 H 0.56272 0.77792 0.00371 0.0
C1830 C 0.59016 0.76139 0.03168 0.0
C1831 C 0.60617 0.75291 0.04471 0.0
C1832 C 0.59137 0.75965 0.00931 0.0
C1833 C 0.62258 0.74089 0.03534 0.0
C1834 C 0.62382 0.73883 0.01286 0.0
C1835 C 0.61109 0.74943 0.97706 0.0
C1836 C 0.59668 0.76122 0.96449 0.0
C1837 C 0.60868 0.74885 0.99963 0.0
C1838 C 0.57891 0.77069 0.97436 0.0
C1839 C 0.5762 0.76981 0.99652 0.0
H1840 H 0.25221 0.60009 0.96427 0.0
H1841 H 0.31528 0.62814 0.95762 0.0
H1842 H 0.31844 0.63136 0.99649 0.0
H1843 H 0.30515 0.623 0.03236 0.0
H1844 H 0.24241 0.59483 0.0403 0.0
H1845 H 0.23717 0.59514 1.00114 0.0
C1846 C 0.26644 0.60728 0.97135 0.0
C1847 C 0.28361 0.61355 0.95799 0.0
C1848 C 0.26834 0.60887 0.994 0.0
C1849 C 0.30195 0.62284 0.96748 0.0
C1850 C 0.30381 0.62471 0.98975 0.0
C1851 C 0.29023 0.61709 0.02558 0.0
C1852 C 0.27434 0.60863 0.03924 0.0
C1853 C 0.28741 0.6172 0.00316 0.0
C1854 C 0.25495 0.6014 0.03016 0.0
C1855 C 0.25199 0.60148 0.00774 0.0
H1856 H 0.39348 0.2612 0.03361 0.0
H1857 H 0.37318 0.19445 0.03588 0.0
H1858 H 0.36937 0.1937 0.99699 0.0
H1859 H 0.37564 0.21039 0.96218 0.0
H1860 H 0.39607 0.2769 0.95868 0.0
H1861 H 0.39565 0.27944 0.99809 0.0
C1862 C 0.38784 0.24665 0.02559 0.0
C1863 C 0.38405 0.2278 0.03763 0.0
C1864 C 0.38589 0.24619 0.00297 0.0
C1865 C 0.37664 0.20908 0.027 0.0
C1866 C 0.37442 0.2086 0.00472 0.0
C1867 C 0.37979 0.22553 0.97002 0.0
C1868 C 0.38621 0.2433 0.95759 0.0
C1869 C 0.37968 0.2268 0.99253 0.0
C1870 C 0.39113 0.26294 0.96794 0.0
C1871 C 0.39101 0.26436 0.99047 0.0
H1872 H 0.71805 0.36594 0.02535 0.0
H1873 H 0.77233 0.40826 0.03443 0.0
H1874 H 0.77752 0.41028 0.99529 0.0
H1875 H 0.76329 0.40367 0.95832 0.0
H1876 H 0.70912 0.36072 0.95041 0.0
H1877 H 0.70753 0.3549 0.98908 0.0
C1878 C 0.73122 0.37532 0.01874 0.0
C1879 C 0.74458 0.38718 0.03262 0.0
C1880 C 0.73409 0.37634 0.99637 0.0
C1881 C 0.76181 0.39902 0.02397 0.0
C1882 C 0.7647 0.40026 1.0016 0.0
C1883 C 0.75158 0.39258 0.96507 0.0
C1884 C 0.73612 0.38293 0.95157 0.0
C1885 C 0.75052 0.38949 0.98758 0.0
C1886 C 0.72099 0.36861 0.96052 0.0
C1887 C 0.72 0.3653 0.98265 0.0
H1888 H 0.6058 0.23101 0.95853 0.0
H1889 H 0.62509 0.29671 0.97204 0.0
H1890 H 0.62683 0.28882 0.01031 0.0
H1891 H 0.6206 0.2642 0.0404 0.0
H1892 H 0.60112 0.19843 0.02766 0.0
H1893 H 0.60185 0.20541 0.98896 0.0
C1894 C 0.6107 0.24348 0.96982 0.0
C1895 C 0.61511 0.26448 0.96228 0.0
C1896 C 0.61144 0.23892 0.99211 0.0
C1897 C 0.62136 0.28045 0.97727 0.0
C1898 C 0.62235 0.27598 0.99926 0.0
C1899 C 0.61659 0.25131 0.02922 0.0
C1900 C 0.61063 0.23086 0.03712 0.0
C1901 C 0.61699 0.25543 0.00693 0.0
C1902 C 0.60573 0.21438 0.02219 0.0
C1903 C 0.60611 0.21836 0.99997 0.0
H1904 H 0.79817 0.62685 0.04171 0.0
H1905 H 0.73376 0.60209 0.04631 0.0
H1906 H 0.73017 0.60383 0.00697 0.0
H1907 H 0.74722 0.60837 0.97105 0.0
H1908 H 0.81208 0.63264 0.96781 0.0
H1909 H 0.81351 0.63522 0.00678 0.0
C1910 C 0.78323 0.62206 0.03414 0.0
C1911 C 0.76639 0.61403 0.0468 0.0
C1912 C 0.78144 0.62283 0.0117 0.0
C1913 C 0.74699 0.60829 0.03685 0.0
C1914 C 0.745 0.60915 0.01436 0.0
C1915 C 0.76151 0.61455 0.97889 0.0
C1916 C 0.77965 0.61989 0.96649 0.0
C1917 C 0.76238 0.61578 1.00156 0.0
C1918 C 0.79801 0.628 0.97691 0.0
C1919 C 0.79887 0.62954 0.99924 0.0
H1920 H 0.3995 0.76987 0.95675 0.0
H1921 H 0.39679 0.70128 0.96823 0.0
H1922 H 0.39543 0.70763 0.00691 0.0
H1923 H 0.39653 0.73255 0.03778 0.0
H1924 H 0.39972 0.80111 0.02617 0.0
H1925 H 0.39924 0.79477 0.9875 0.0
C1926 C 0.39851 0.75629 0.96767 0.0
C1927 C 0.3984 0.73514 0.95944 0.0
C1928 C 0.39786 0.76 0.99003 0.0
C1929 C 0.39705 0.71778 0.97397 0.0
C1930 C 0.39625 0.72136 0.99618 0.0
C1931 C 0.39694 0.74612 0.02682 0.0
C1932 C 0.3983 0.76726 0.03503 0.0
C1933 C 0.39687 0.7424 0.00443 0.0
C1934 C 0.39884 0.78462 0.02045 0.0
C1935 C 0.39856 0.78104 0.99824 0.0
H1936 H 0.25913 0.39405 0.04415 0.0
H1937 H 0.19784 0.3624 0.05187 0.0
H1938 H 0.19353 0.36039 0.01301 0.0
H1939 H 0.20492 0.37148 0.97721 0.0
H1940 H 0.2658 0.40347 0.96857 0.0
H1941 H 0.27264 0.40126 0.00735 0.0
C1942 C 0.24508 0.3863 0.03729 0.0
C1943 C 0.22867 0.37874 0.05087 0.0
C1944 C 0.24248 0.38551 0.01478 0.0
C1945 C 0.21055 0.36868 0.04176 0.0
C1946 C 0.20803 0.36754 0.01953 0.0
C1947 C 0.21978 0.37781 0.98378 0.0
C1948 C 0.23463 0.38798 0.97016 0.0
C1949 C 0.22351 0.3766 0.00595 0.0
C1950 C 0.25404 0.39567 0.97879 0.0
C1951 C 0.25792 0.39449 1.00096 0.0
H1952 H 0.04633 0.62895 0.74192 0.0
H1953 H 0.03619 0.60785 0.80739 0.0
H1954 H 0.99769 0.61 0.80241 0.0
H1955 H 0.9667 0.61546 0.7787 0.0
H1956 H 0.97719 0.63588 0.71308 0.0
H1957 H 0.01558 0.63653 0.71904 0.0
C1958 C 0.03576 0.62496 0.75519 0.0
C1959 C 0.0443 0.61806 0.77494 0.0
C1960 C 0.01357 0.62603 0.7522 0.0
C1961 C 0.0302 0.61311 0.79194 0.0
C1962 C 0.0081 0.61431 0.78913 0.0
C1963 C 0.97735 0.62033 0.76579 0.0
C1964 C 0.96897 0.62542 0.74542 0.0
C1965 C 0.99958 0.62041 0.76921 0.0
C1966 C 0.98311 0.63165 0.72888 0.0
C1967 C 0.00513 0.63203 0.73225 0.0
H1968 H 0.37797 0.96386 0.80022 0.0
H1969 H 0.39264 0.9609 0.73241 0.0
H1970 H 0.39193 1.0003 0.73037 0.0
H1971 H 0.39125 0.03566 0.74902 0.0
H1972 H 0.37708 0.03764 0.81708 0.0
H1973 H 0.37328 0.99862 0.81774 0.0
C1974 C 0.38082 0.9718 0.78492 0.0
C1975 C 0.38571 0.95949 0.76659 0.0
C1976 C 0.3806 0.99434 0.78393 0.0
C1977 C 0.38893 0.97002 0.74681 0.0
C1978 C 0.38863 0.99255 0.74565 0.0
C1979 C 0.38693 0.02756 0.76388 0.0
C1980 C 0.38483 0.03956 0.78304 0.0
C1981 C 0.38507 0.00492 0.76427 0.0
C1982 C 0.37916 0.02881 0.80216 0.0
C1983 C 0.37698 0.00646 0.80259 0.0
H1984 H 0.0355 0.37482 0.71132 0.0
H1985 H 0.04191 0.41171 0.76991 0.0
H1986 H 1.00286 0.41343 0.77305 0.0
H1987 H 0.967 0.40825 0.75619 0.0
H1988 H 0.96211 0.37191 0.69691 0.0
H1989 H 1.00035 0.36608 0.69708 0.0
C1990 C 0.02835 0.38297 0.72497 0.0
C1991 C 0.0415 0.39337 0.74019 0.0
C1992 C 0.00611 0.3842 0.7264 0.0
C1993 C 0.03208 0.40357 0.75798 0.0
C1994 C 0.00976 0.4047 0.75966 0.0
C1995 C 0.97431 0.39875 0.74356 0.0
C1996 C 0.96174 0.3909 0.72633 0.0
C1997 C 0.9966 0.39566 0.74354 0.0
C1998 C 0.97143 0.37853 0.71012 0.0
C1999 C 0.99332 0.37512 0.7102 0.0
H2000 H 0.61594 0.97236 0.71581 0.0
H2001 H 0.61116 0.94967 0.78134 0.0
H2002 H 0.61328 0.98679 0.79451 0.0
H2003 H 0.61422 0.02573 0.7873 0.0
H2004 H 0.6187 0.04817 0.72162 0.0
H2005 H 0.61904 0.01103 0.70874 0.0
C2006 C 0.61547 0.97544 0.73301 0.0
C2007 C 0.61318 0.95815 0.74753 0.0
C2008 C 0.61654 0.99682 0.74047 0.0
C2009 C 0.61286 0.96258 0.76975 0.0
C2010 C 0.614 0.98384 0.77731 0.0
C2011 C 0.61542 0.02256 0.77016 0.0
C2012 C 0.61623 0.03986 0.75548 0.0
C2013 C 0.61549 1.0011 0.76279 0.0
C2014 C 0.61794 0.03529 0.73334 0.0
C2015 C 0.6181 0.01401 0.72592 0.0
H2016 H 0.97359 0.38976 0.28744 0.0
H2017 H 0.95045 0.39355 0.22208 0.0
H2018 H 0.98713 0.39422 0.20872 0.0
H2019 H 0.02583 0.39571 0.21573 0.0
H2020 H 0.0485 0.39199 0.28134 0.0
H2021 H 0.01195 0.38931 0.29431 0.0
C2022 C 0.97649 0.39062 0.27024 0.0
C2023 C 0.95919 0.39177 0.25584 0.0
C2024 C 0.99759 0.39114 0.26266 0.0
C2025 C 0.96339 0.39267 0.2336 0.0
C2026 C 0.98439 0.39314 0.22592 0.0
C2027 C 0.02282 0.39421 0.23286 0.0
C2028 C 0.04003 0.39425 0.24748 0.0
C2029 C 1.00164 0.3927 0.24033 0.0
C2030 C 0.03569 0.39214 0.26963 0.0
C2031 C 0.01473 0.3906 0.27713 0.0
H2032 H 0.60778 0.0468 0.23424 0.0
H2033 H 0.61851 0.03173 0.30122 0.0
H2034 H 0.62071 0.99358 0.29232 0.0
H2035 H 0.61808 0.96433 0.26605 0.0
H2036 H 0.60653 0.97875 0.19909 0.0
H2037 H 0.60632 0.01726 0.20752 0.0
C2038 C 0.61077 0.03521 0.24688 0.0
C2039 C 0.61286 0.04225 0.26842 0.0
C2040 C 0.6118 0.01312 0.2417 0.0
C2041 C 0.61668 0.02689 0.28454 0.0
C2042 C 0.61796 0.005 0.27947 0.0
C2043 C 0.61561 0.97582 0.2532 0.0
C2044 C 0.61223 0.96849 0.23194 0.0
C2045 C 0.61529 0.99792 0.25817 0.0
C2046 C 0.60913 0.98381 0.2156 0.0
C2047 C 0.60898 0.00588 0.22042 0.0
H2048 H 0.03316 0.62863 0.28263 0.0
H2049 H 0.05333 0.60543 0.22039 0.0
H2050 H 0.01611 0.60431 0.20825 0.0
H2051 H 0.97748 0.60743 0.21636 0.0
H2052 H 0.95825 0.63054 0.27909 0.0
H2053 H 0.99539 0.63413 0.28983 0.0
C2054 C 0.02952 0.62345 0.26633 0.0
C2055 C 0.04611 0.61692 0.25254 0.0
C2056 C 0.00814 0.62266 0.25955 0.0
C2057 C 0.04096 0.61055 0.23138 0.0
C2058 C 0.01963 0.6098 0.22447 0.0
C2059 C 0.9814 0.61345 0.23231 0.0
C2060 C 0.96488 0.61847 0.24691 0.0
C2061 C 1.00301 0.61543 0.23856 0.0
C2062 C 0.97043 0.62633 0.26749 0.0
C2063 C 0.99175 0.62842 0.27371 0.0
H2064 H 0.38708 0.03708 0.20162 0.0
H2065 H 0.39828 0.04373 0.26992 0.0
H2066 H 0.39838 0.00446 0.27363 0.0
H2067 H 0.39813 0.9681 0.25677 0.0
H2068 H 0.38752 0.96265 0.1882 0.0
H2069 H 0.38431 1.00147 0.18546 0.0
C2070 C 0.38942 0.03003 0.2174 0.0
C2071 C 0.39292 0.04344 0.23539 0.0
C2072 C 0.3897 0.00754 0.21938 0.0
C2073 C 0.39562 0.03387 0.25572 0.0
C2074 C 0.39576 0.01137 0.25786 0.0
C2075 C 0.39486 0.97541 0.2413 0.0
C2076 C 0.39337 0.96239 0.2227 0.0
C2077 C 0.39323 0.99801 0.2397 0.0
C2078 C 0.38908 0.97219 0.20277 0.0
C2079 C 0.38719 0.99446 0.20114 0.0
H2080 H 0.74385 0.03989 0.62696 0.0
H2081 H 0.80756 0.02674 0.60422 0.0
H2082 H 0.80086 0.98828 0.60744 0.0
H2083 H 0.77641 0.9581 0.61463 0.0
H2084 H 0.71259 0.97089 0.6371 0.0
H2085 H 0.72002 0.00951 0.63631 0.0
C2086 C 0.75628 0.02863 0.62276 0.0
C2087 C 0.77609 0.03635 0.61519 0.0
C2088 C 0.75238 0.00633 0.62463 0.0
C2089 C 0.79208 0.02141 0.61003 0.0
C2090 C 0.78831 0.99931 0.61187 0.0
C2091 C 0.76422 0.96929 0.61967 0.0
C2092 C 0.74395 0.96152 0.62573 0.0
C2093 C 0.76845 0.99156 0.61891 0.0
C2094 C 0.72833 0.97636 0.63217 0.0
C2095 C 0.73252 0.99851 0.63168 0.0
H2096 H 0.73946 0.04224 0.37917 0.0
H2097 H 0.80022 0.02881 0.40867 0.0
H2098 H 0.79182 0.99028 0.40812 0.0
H2099 H 0.76582 0.96057 0.40216 0.0
H2100 H 0.705 0.97462 0.37305 0.0
H2101 H 0.71498 0.01253 0.37043 0.0
C2102 C 0.75099 0.03092 0.38535 0.0
C2103 C 0.77035 0.03855 0.39418 0.0
C2104 C 0.74601 0.00878 0.38515 0.0
C2105 C 0.78514 0.0235 0.40184 0.0
C2106 C 0.78033 1.0014 0.40159 0.0
C2107 C 0.7549 0.97186 0.39493 0.0
C2108 C 0.73458 0.9647 0.38808 0.0
C2109 C 0.76061 0.99387 0.39369 0.0
C2110 C 0.72064 0.97964 0.37873 0.0
C2111 C 0.72631 1.00139 0.37722 0.0
H2112 H 0.97136 0.72401 0.38554 0.0
H2113 H 0.95006 0.78922 0.39548 0.0
H2114 H 0.98698 0.8022 0.39475 0.0
H2115 H 0.02538 0.79493 0.39288 0.0
H2116 H 0.04655 0.72961 0.38322 0.0
H2117 H 0.00959 0.71694 0.38218 0.0
C2118 C 0.97471 0.74109 0.38747 0.0
C2119 C 0.95783 0.75555 0.3907 0.0
C2120 C 0.99601 0.74848 0.38714 0.0
C2121 C 0.96264 0.77765 0.39302 0.0
C2122 C 0.98379 0.78512 0.39264 0.0
C2123 C 0.02197 0.77792 0.39041 0.0
C2124 C 0.03887 0.76328 0.38826 0.0
C2125 C 1.00062 0.77065 0.38994 0.0
C2126 C 0.03398 0.74131 0.38501 0.0
C2127 C 0.0128 0.734 0.38443 0.0
H2128 H 0.28713 0.0313 0.37777 0.0
H2129 H 0.22454 0.0538 0.3952 0.0
H2130 H 0.21066 0.01677 0.39395 0.0
H2131 H 0.21709 0.97765 0.39075 0.0
H2132 H 0.2802 0.95586 0.37402 0.0
H2133 H 0.29295 0.99297 0.37215 0.0
C2134 C 0.27039 0.02821 0.38118 0.0
C2135 C 0.25699 0.04536 0.38682 0.0
C2136 C 0.2626 0.00693 0.3807 0.0
C2137 C 0.23528 0.04095 0.39088 0.0
C2138 C 0.22734 0.01974 0.39025 0.0
C2139 C 0.23356 0.98102 0.38644 0.0
C2140 C 0.24767 0.96387 0.38278 0.0
C2141 C 0.24096 1.00254 0.3856 0.0
C2142 C 0.26898 0.96863 0.37719 0.0
C2143 C 0.27634 0.9899 0.37609 0.0
H2144 H 0.02983 0.29266 0.38968 0.0
H2145 H 0.0531 0.22748 0.39234 0.0
H2146 H 0.01661 0.21358 0.39301 0.0
H2147 H 0.97817 0.21981 0.39447 0.0
H2148 H 0.95471 0.28492 0.39199 0.0
H2149 H 0.9912 0.29882 0.38951 0.0
C2150 C 0.02697 0.27541 0.39029 0.0
C2151 C 0.0443 0.26121 0.39111 0.0
C2152 C 0.00587 0.26744 0.39077 0.0
C2153 C 0.04016 0.23887 0.39178 0.0
C2154 C 0.01925 0.23085 0.39219 0.0
C2155 C 0.98096 0.23704 0.39329 0.0
C2156 C 0.96362 0.25125 0.39358 0.0
C2157 C 1.002 0.24499 0.39196 0.0
C2158 C 0.96768 0.27354 0.39189 0.0
C2159 C 0.98858 0.28155 0.3905 0.0
H2160 H 0.2863 0.02645 0.63173 0.0
H2161 H 0.22585 0.05459 0.61525 0.0
H2162 H 0.20915 0.01878 0.61443 0.0
H2163 H 0.21264 0.97905 0.61476 0.0
H2164 H 0.27371 0.95164 0.63041 0.0
H2165 H 0.28905 0.98749 0.63522 0.0
C2166 C 0.2694 0.02486 0.62819 0.0
C2167 C 0.25748 0.04326 0.6233 0.0
C2168 C 0.25998 0.00422 0.62738 0.0
C2169 C 0.23552 0.04076 0.61901 0.0
C2170 C 0.22594 0.02023 0.61843 0.0
C2171 C 0.22921 0.98094 0.61953 0.0
C2172 C 0.24202 0.9626 0.62189 0.0
C2173 C 0.23815 1.00178 0.62203 0.0
C2174 C 0.26349 0.9654 0.62813 0.0
C2175 C 0.27233 0.98594 0.63093 0.0
H2176 H 0.97876 0.2891 0.63799 0.0
H2177 H 0.96954 0.23445 0.5959 0.0
H2178 H 0.00833 0.22936 0.59423 0.0
H2179 H 0.04514 0.24398 0.60086 0.0
H2180 H 0.05295 0.2995 0.64226 0.0
H2181 H 0.01462 0.30055 0.64828 0.0
C2182 C 0.98521 0.27582 0.62874 0.0
C2183 C 0.97132 0.26235 0.61688 0.0
C2184 C 0.00739 0.27328 0.62759 0.0
C2185 C 0.97989 0.24504 0.60521 0.0
C2186 C 1.0021 0.24225 0.60411 0.0
C2187 C 0.03843 0.25591 0.6116 0.0
C2188 C 0.05186 0.27181 0.6209 0.0
C2189 C 0.01607 0.25675 0.61467 0.0
C2190 C 0.04294 0.28727 0.6347 0.0
C2191 C 0.021 0.28792 0.63814 0.0
H2192 H 0.03296 0.70356 0.62433 0.0
H2193 H 0.04156 0.76725 0.59786 0.0
H2194 H 1.00301 0.77304 0.59966 0.0
H2195 H 0.96643 0.75834 0.60541 0.0
H2196 H 0.95884 0.69439 0.63182 0.0
H2197 H 0.99732 0.69054 0.63357 0.0
C2198 C 0.02644 0.71879 0.61909 0.0
C2199 C 0.04006 0.7348 0.61067 0.0
C2200 C 0.00436 0.72195 0.62008 0.0
C2201 C 0.0314 0.7546 0.60434 0.0
C2202 C 0.00934 0.75789 0.60529 0.0
C2203 C 0.97323 0.74375 0.61191 0.0
C2204 C 0.95974 0.72655 0.61811 0.0
C2205 C 0.99558 0.74146 0.61266 0.0
C2206 C 0.96882 0.70775 0.62655 0.0
C2207 C 0.99086 0.70549 0.62758 0.0
loop_
_geom_bond_atom_site_label_1
_geom_bond_atom_site_label_2
_geom_bond_distance
_geom_bond_site_symmetry_2
_ccdc_geom_bond_type
Co0 O1 2.216 . S
Co0 O2 2.091 . S
Co0 O4 2.004 . S
Co0 O10 2.021 . S
Co0 O12 2.137 . S
Co0 O13 2.244 . S
O1 Co0 2.216 . S
O1 C8 1.247 . S
O2 Co0 2.091 . S
O2 C8 1.261 . S
C3 O12 1.247 . S
C3 O13 1.272 . S
O4 Co0 2.004 . S
O4 C9 1.259 . S
Co5 O6 2.061 . S
Co5 O11 2.052 . S
Co5 O13 2.135 . S
O6 Co5 2.061 . S
O6 C9 1.235 . S
C7 O10 1.238 . S
C7 O11 1.241 . S
C8 O1 1.247 . S
C8 O2 1.261 . S
C9 O4 1.259 . S
C9 O6 1.235 . S
O10 Co0 2.021 . S
O10 C7 1.238 . S
O11 Co5 2.052 . S
O11 C7 1.241 . S
O12 Co0 2.137 . S
O12 C3 1.247 . S
O13 Co0 2.244 . S
O13 C3 1.272 . S
O13 Co5 2.135 . S
Co14 O15 2.216 . S
Co14 O16 2.091 . S
Co14 O18 2.004 . S
Co14 O24 2.021 . S
Co14 O26 2.137 . S
Co14 O27 2.244 . S
O15 Co14 2.216 . S
O15 C22 1.247 . S
O16 Co14 2.091 . S
O16 C22 1.261 . S
C17 O26 1.247 . S
C17 O27 1.272 . S
O18 Co14 2.004 . S
O18 C23 1.259 . S
Co19 O20 2.061 . S
Co19 O25 2.052 . S
Co19 O27 2.135 . S
O20 Co19 2.061 . S
O20 C23 1.235 . S
C21 O24 1.238 . S
C21 O25 1.241 . S
C22 O15 1.247 . S
C22 O16 1.261 . S
C23 O18 1.259 . S
C23 O20 1.235 . S
O24 Co14 2.021 . S
O24 C21 1.238 . S
O25 Co19 2.052 . S
O25 C21 1.241 . S
O26 Co14 2.137 . S
O26 C17 1.247 . S
O27 Co14 2.244 . S
O27 C17 1.272 . S
O27 Co19 2.135 . S
Co28 O29 2.216 . S
Co28 O30 2.091 . S
Co28 O32 2.004 . S
Co28 O38 2.021 . S
Co28 O40 2.137 . S
Co28 O41 2.244 . S
O29 Co28 2.216 . S
O29 C36 1.247 . S
O30 Co28 2.091 . S
O30 C36 1.261 . S
C31 O40 1.247 . S
C31 O41 1.272 . S
O32 Co28 2.004 . S
O32 C37 1.259 . S
Co33 O34 2.061 . S
Co33 O39 2.052 . S
Co33 O41 2.135 . S
O34 Co33 2.061 . S
O34 C37 1.235 . S
C35 O38 1.238 . S
C35 O39 1.241 . S
C36 O29 1.247 . S
C36 O30 1.261 . S
C37 O32 1.259 . S
C37 O34 1.235 . S
O38 Co28 2.021 . S
O38 C35 1.238 . S
O39 Co33 2.052 . S
O39 C35 1.241 . S
O40 Co28 2.137 . S
O40 C31 1.247 . S
O41 Co28 2.244 . S
O41 C31 1.272 . S
O41 Co33 2.135 . S
Co42 O43 2.216 . S
Co42 O44 2.091 . S
Co42 O46 2.004 . S
Co42 O52 2.021 . S
Co42 O54 2.137 . S
Co42 O55 2.244 . S
O43 Co42 2.216 . S
O43 C50 1.247 . S
O44 Co42 2.091 . S
O44 C50 1.261 . S
C45 O54 1.247 . S
C45 O55 1.272 . S
O46 Co42 2.004 . S
O46 C51 1.259 . S
Co47 O48 2.061 . S
Co47 O53 2.052 . S
Co47 O55 2.135 . S
O48 Co47 2.061 . S
O48 C51 1.235 . S
C49 O52 1.238 . S
C49 O53 1.241 . S
C50 O43 1.247 . S
C50 O44 1.261 . S
C51 O46 1.259 . S
C51 O48 1.235 . S
O52 Co42 2.021 . S
O52 C49 1.238 . S
O53 Co47 2.052 . S
O53 C49 1.241 . S
O54 Co42 2.137 . S
O54 C45 1.247 . S
O55 Co42 2.244 . S
O55 C45 1.272 . S
O55 Co47 2.135 . S
Co56 O57 2.216 . S
Co56 O58 2.091 . S
Co56 O60 2.004 . S
Co56 O66 2.021 . S
Co56 O68 2.137 . S
Co56 O69 2.244 . S
O57 Co56 2.216 . S
O57 C64 1.247 . S
O58 Co56 2.091 . S
O58 C64 1.261 . S
C59 O68 1.247 . S
C59 O69 1.272 . S
O60 Co56 2.004 . S
O60 C65 1.259 . S
Co61 O62 2.061 . S
Co61 O67 2.052 . S
Co61 O69 2.135 . S
O62 Co61 2.061 . S
O62 C65 1.235 . S
C63 O66 1.238 . S
C63 O67 1.241 . S
C64 O57 1.247 . S
C64 O58 1.261 . S
C65 O60 1.259 . S
C65 O62 1.235 . S
O66 Co56 2.021 . S
O66 C63 1.238 . S
O67 Co61 2.052 . S
O67 C63 1.241 . S
O68 Co56 2.137 . S
O68 C59 1.247 . S
O69 Co56 2.244 . S
O69 C59 1.272 . S
O69 Co61 2.135 . S
Co70 O71 2.216 . S
Co70 O72 2.091 . S
Co70 O74 2.004 . S
Co70 O80 2.021 . S
Co70 O82 2.137 . S
Co70 O83 2.244 . S
O71 Co70 2.216 . S
O71 C78 1.247 . S
O72 Co70 2.091 . S
O72 C78 1.261 . S
C73 O82 1.247 . S
C73 O83 1.272 . S
O74 Co70 2.004 . S
O74 C79 1.259 . S
Co75 O76 2.061 . S
Co75 O81 2.052 . S
Co75 O83 2.135 . S
O76 Co75 2.061 . S
O76 C79 1.235 . S
C77 O80 1.238 . S
C77 O81 1.241 . S
C78 O71 1.247 . S
C78 O72 1.261 . S
C79 O74 1.259 . S
C79 O76 1.235 . S
O80 Co70 2.021 . S
O80 C77 1.238 . S
O81 Co75 2.052 . S
O81 C77 1.241 . S
O82 Co70 2.137 . S
O82 C73 1.247 . S
O83 Co70 2.244 . S
O83 C73 1.272 . S
O83 Co75 2.135 . S
Co84 O85 2.216 . S
Co84 O86 2.091 . S
Co84 O88 2.004 . S
Co84 O94 2.021 . S
Co84 O96 2.137 . S
Co84 O97 2.244 . S
O85 Co84 2.216 . S
O85 C92 1.247 . S
O86 Co84 2.091 . S
O86 C92 1.261 . S
C87 O96 1.247 . S
C87 O97 1.272 . S
O88 Co84 2.004 . S
O88 C93 1.259 . S
Co89 O90 2.061 . S
Co89 O95 2.052 . S
Co89 O97 2.135 . S
O90 Co89 2.061 . S
O90 C93 1.235 . S
C91 O94 1.238 . S
C91 O95 1.241 . S
C92 O85 1.247 . S
C92 O86 1.261 . S
C93 O88 1.259 . S
C93 O90 1.235 . S
O94 Co84 2.021 . S
O94 C91 1.238 . S
O95 Co89 2.052 . S
O95 C91 1.241 . S
O96 Co84 2.137 . S
O96 C87 1.247 . S
O97 Co84 2.244 . S
O97 C87 1.272 . S
O97 Co89 2.135 . S
Co98 O99 2.216 . S
Co98 O100 2.091 . S
Co98 O102 2.004 . S
Co98 O108 2.021 . S
Co98 O110 2.137 . S
Co98 O111 2.244 . S
O99 Co98 2.216 . S
O99 C106 1.247 . S
O100 Co98 2.091 . S
O100 C106 1.261 . S
C101 O110 1.247 . S
C101 O111 1.272 . S
O102 Co98 2.004 . S
O102 C107 1.259 . S
Co103 O104 2.061 . S
Co103 O109 2.052 . S
Co103 O111 2.135 . S
O104 Co103 2.061 . S
O104 C107 1.235 . S
C105 O108 1.238 . S
C105 O109 1.241 . S
C106 O99 1.247 . S
C106 O100 1.261 . S
C107 O102 1.259 . S
C107 O104 1.235 . S
O108 Co98 2.021 . S
O108 C105 1.238 . S
O109 Co103 2.052 . S
O109 C105 1.241 . S
O110 Co98 2.137 . S
O110 C101 1.247 . S
O111 Co98 2.244 . S
O111 C101 1.272 . S
O111 Co103 2.135 . S
Co112 O113 2.216 . S
Co112 O114 2.091 . S
Co112 O116 2.004 . S
Co112 O122 2.021 . S
Co112 O124 2.137 . S
Co112 O125 2.244 . S
O113 Co112 2.216 . S
O113 C120 1.247 . S
O114 Co112 2.091 . S
O114 C120 1.261 . S
C115 O124 1.247 . S
C115 O125 1.272 . S
O116 Co112 2.004 . S
O116 C121 1.259 . S
Co117 O118 2.061 . S
Co117 O123 2.052 . S
Co117 O125 2.135 . S
O118 Co117 2.061 . S
O118 C121 1.235 . S
C119 O122 1.238 . S
C119 O123 1.241 . S
C120 O113 1.247 . S
C120 O114 1.261 . S
C121 O116 1.259 . S
C121 O118 1.235 . S
O122 Co112 2.021 . S
O122 C119 1.238 . S
O123 Co117 2.052 . S
O123 C119 1.241 . S
O124 Co112 2.137 . S
O124 C115 1.247 . S
O125 Co112 2.244 . S
O125 C115 1.272 . S
O125 Co117 2.135 . S
Co126 O127 2.216 . S
Co126 O128 2.091 . S
Co126 O130 2.004 . S
Co126 O136 2.021 . S
Co126 O138 2.137 . S
Co126 O139 2.244 . S
O127 Co126 2.216 . S
O127 C134 1.247 . S
O128 Co126 2.091 . S
O128 C134 1.261 . S
C129 O138 1.247 . S
C129 O139 1.272 . S
O130 Co126 2.004 . S
O130 C135 1.259 . S
Co131 O132 2.061 . S
Co131 O137 2.052 . S
Co131 O139 2.135 . S
O132 Co131 2.061 . S
O132 C135 1.235 . S
C133 O136 1.238 . S
C133 O137 1.241 . S
C134 O127 1.247 . S
C134 O128 1.261 . S
C135 O130 1.259 . S
C135 O132 1.235 . S
O136 Co126 2.021 . S
O136 C133 1.238 . S
O137 Co131 2.052 . S
O137 C133 1.241 . S
O138 Co126 2.137 . S
O138 C129 1.247 . S
O139 Co126 2.244 . S
O139 C129 1.272 . S
O139 Co131 2.135 . S
Co140 O141 2.216 . S
Co140 O142 2.091 . S
Co140 O144 2.004 . S
Co140 O150 2.021 . S
Co140 O152 2.137 . S
Co140 O153 2.244 . S
O141 Co140 2.216 . S
O141 C148 1.247 . S
O142 Co140 2.091 . S
O142 C148 1.261 . S
C143 O152 1.247 . S
C143 O153 1.272 . S
O144 Co140 2.004 . S
O144 C149 1.259 . S
Co145 O146 2.061 . S
Co145 O151 2.052 . S
Co145 O153 2.135 . S
O146 Co145 2.061 . S
O146 C149 1.235 . S
C147 O150 1.238 . S
C147 O151 1.241 . S
C148 O141 1.247 . S
C148 O142 1.261 . S
C149 O144 1.259 . S
C149 O146 1.235 . S
O150 Co140 2.021 . S
O150 C147 1.238 . S
O151 Co145 2.052 . S
O151 C147 1.241 . S
O152 Co140 2.137 . S
O152 C143 1.247 . S
O153 Co140 2.244 . S
O153 C143 1.272 . S
O153 Co145 2.135 . S
Co154 O155 2.216 . S
Co154 O156 2.091 . S
Co154 O158 2.004 . S
Co154 O164 2.021 . S
Co154 O166 2.137 . S
Co154 O167 2.244 . S
O155 Co154 2.216 . S
O155 C162 1.247 . S
O156 Co154 2.091 . S
O156 C162 1.261 . S
C157 O166 1.247 . S
C157 O167 1.272 . S
O158 Co154 2.004 . S
O158 C163 1.259 . S
Co159 O160 2.061 . S
Co159 O165 2.052 . S
Co159 O167 2.135 . S
O160 Co159 2.061 . S
O160 C163 1.235 . S
C161 O164 1.238 . S
C161 O165 1.241 . S
C162 O155 1.247 . S
C162 O156 1.261 . S
C163 O158 1.259 . S
C163 O160 1.235 . S
O164 Co154 2.021 . S
O164 C161 1.238 . S
O165 Co159 2.052 . S
O165 C161 1.241 . S
O166 Co154 2.137 . S
O166 C157 1.247 . S
O167 Co154 2.244 . S
O167 C157 1.272 . S
O167 Co159 2.135 . S
Co168 O169 2.216 . S
Co168 O170 2.091 . S
Co168 O172 2.004 . S
Co168 O178 2.021 . S
Co168 O180 2.137 . S
Co168 O181 2.244 . S
O169 Co168 2.216 . S
O169 C176 1.247 . S
O170 Co168 2.091 . S
O170 C176 1.261 . S
C171 O180 1.247 . S
C171 O181 1.272 . S
O172 Co168 2.004 . S
O172 C177 1.259 . S
Co173 O174 2.061 . S
Co173 O179 2.052 . S
Co173 O181 2.135 . S
O174 Co173 2.061 . S
O174 C177 1.235 . S
C175 O178 1.238 . S
C175 O179 1.241 . S
C176 O169 1.247 . S
C176 O170 1.261 . S
C177 O172 1.259 . S
C177 O174 1.235 . S
O178 Co168 2.021 . S
O178 C175 1.238 . S
O179 Co173 2.052 . S
O179 C175 1.241 . S
O180 Co168 2.137 . S
O180 C171 1.247 . S
O181 Co168 2.244 . S
O181 C171 1.272 . S
O181 Co173 2.135 . S
Co182 O183 2.216 . S
Co182 O184 2.091 . S
Co182 O186 2.004 . S
Co182 O192 2.021 . S
Co182 O194 2.137 . S
Co182 O195 2.244 . S
O183 Co182 2.216 . S
O183 C190 1.247 . S
O184 Co182 2.091 . S
O184 C190 1.261 . S
C185 O194 1.247 . S
C185 O195 1.272 . S
O186 Co182 2.004 . S
O186 C191 1.259 . S
Co187 O188 2.061 . S
Co187 O193 2.052 . S
Co187 O195 2.135 . S
O188 Co187 2.061 . S
O188 C191 1.235 . S
C189 O192 1.238 . S
C189 O193 1.241 . S
C190 O183 1.247 . S
C190 O184 1.261 . S
C191 O186 1.259 . S
C191 O188 1.235 . S
O192 Co182 2.021 . S
O192 C189 1.238 . S
O193 Co187 2.052 . S
O193 C189 1.241 . S
O194 Co182 2.137 . S
O194 C185 1.247 . S
O195 Co182 2.244 . S
O195 C185 1.272 . S
O195 Co187 2.135 . S
Co196 O197 2.216 . S
Co196 O198 2.091 . S
Co196 O200 2.004 . S
Co196 O206 2.021 . S
Co196 O208 2.137 . S
Co196 O209 2.244 . S
O197 Co196 2.216 . S
O197 C204 1.247 . S
O198 Co196 2.091 . S
O198 C204 1.261 . S
C199 O208 1.247 . S
C199 O209 1.272 . S
O200 Co196 2.004 . S
O200 C205 1.259 . S
Co201 O202 2.061 . S
Co201 O207 2.052 . S
Co201 O209 2.135 . S
O202 Co201 2.061 . S
O202 C205 1.235 . S
C203 O206 1.238 . S
C203 O207 1.241 . S
C204 O197 1.247 . S
C204 O198 1.261 . S
C205 O200 1.259 . S
C205 O202 1.235 . S
O206 Co196 2.021 . S
O206 C203 1.238 . S
O207 Co201 2.052 . S
O207 C203 1.241 . S
O208 Co196 2.137 . S
O208 C199 1.247 . S
O209 Co196 2.244 . S
O209 C199 1.272 . S
O209 Co201 2.135 . S
Co210 O211 2.216 . S
Co210 O212 2.091 . S
Co210 O214 2.004 . S
Co210 O220 2.021 . S
Co210 O222 2.137 . S
Co210 O223 2.244 . S
O211 Co210 2.216 . S
O211 C218 1.247 . S
O212 Co210 2.091 . S
O212 C218 1.261 . S
C213 O222 1.247 . S
C213 O223 1.272 . S
O214 Co210 2.004 . S
O214 C219 1.259 . S
Co215 O216 2.061 . S
Co215 O221 2.052 . S
Co215 O223 2.135 . S
O216 Co215 2.061 . S
O216 C219 1.235 . S
C217 O220 1.238 . S
C217 O221 1.241 . S
C218 O211 1.247 . S
C218 O212 1.261 . S
C219 O214 1.259 . S
C219 O216 1.235 . S
O220 Co210 2.021 . S
O220 C217 1.238 . S
O221 Co215 2.052 . S
O221 C217 1.241 . S
O222 Co210 2.137 . S
O222 C213 1.247 . S
O223 Co210 2.244 . S
O223 C213 1.272 . S
O223 Co215 2.135 . S
Co224 O225 2.216 . S
Co224 O226 2.091 . S
Co224 O228 2.004 . S
Co224 O234 2.021 . S
Co224 O236 2.137 . S
Co224 O237 2.244 . S
O225 Co224 2.216 . S
O225 C232 1.247 . S
O226 Co224 2.091 . S
O226 C232 1.261 . S
C227 O236 1.247 . S
C227 O237 1.272 . S
O228 Co224 2.004 . S
O228 C233 1.259 . S
Co229 O230 2.061 . S
Co229 O235 2.052 . S
Co229 O237 2.135 . S
O230 Co229 2.061 . S
O230 C233 1.235 . S
C231 O234 1.238 . S
C231 O235 1.241 . S
C232 O225 1.247 . S
C232 O226 1.261 . S
C233 O228 1.259 . S
C233 O230 1.235 . S
O234 Co224 2.021 . S
O234 C231 1.238 . S
O235 Co229 2.052 . S
O235 C231 1.241 . S
O236 Co224 2.137 . S
O236 C227 1.247 . S
O237 Co224 2.244 . S
O237 C227 1.272 . S
O237 Co229 2.135 . S
Co238 O239 2.216 . S
Co238 O240 2.091 . S
Co238 O242 2.004 . S
Co238 O248 2.021 . S
Co238 O250 2.137 . S
Co238 O251 2.244 . S
O239 Co238 2.216 . S
O239 C246 1.247 . S
O240 Co238 2.091 . S
O240 C246 1.261 . S
C241 O250 1.247 . S
C241 O251 1.272 . S
O242 Co238 2.004 . S
O242 C247 1.259 . S
Co243 O244 2.061 . S
Co243 O249 2.052 . S
Co243 O251 2.135 . S
O244 Co243 2.061 . S
O244 C247 1.235 . S
C245 O248 1.238 . S
C245 O249 1.241 . S
C246 O239 1.247 . S
C246 O240 1.261 . S
C247 O242 1.259 . S
C247 O244 1.235 . S
O248 Co238 2.021 . S
O248 C245 1.238 . S
O249 Co243 2.052 . S
O249 C245 1.241 . S
O250 Co238 2.137 . S
O250 C241 1.247 . S
O251 Co238 2.244 . S
O251 C241 1.272 . S
O251 Co243 2.135 . S
Co252 O253 2.216 . S
Co252 O254 2.091 . S
Co252 O256 2.004 . S
Co252 O262 2.021 . S
Co252 O264 2.137 . S
Co252 O265 2.244 . S
O253 Co252 2.216 . S
O253 C260 1.247 . S
O254 Co252 2.091 . S
O254 C260 1.261 . S
C255 O264 1.247 . S
C255 O265 1.272 . S
O256 Co252 2.004 . S
O256 C261 1.259 . S
Co257 O258 2.061 . S
Co257 O263 2.052 . S
Co257 O265 2.135 . S
O258 Co257 2.061 . S
O258 C261 1.235 . S
C259 O262 1.238 . S
C259 O263 1.241 . S
C260 O253 1.247 . S
C260 O254 1.261 . S
C261 O256 1.259 . S
C261 O258 1.235 . S
O262 Co252 2.021 . S
O262 C259 1.238 . S
O263 Co257 2.052 . S
O263 C259 1.241 . S
O264 Co252 2.137 . S
O264 C255 1.247 . S
O265 Co252 2.244 . S
O265 C255 1.272 . S
O265 Co257 2.135 . S
Co266 O267 2.216 . S
Co266 O268 2.091 . S
Co266 O270 2.004 . S
Co266 O276 2.021 . S
Co266 O278 2.137 . S
Co266 O279 2.244 . S
O267 Co266 2.216 . S
O267 C274 1.247 . S
O268 Co266 2.091 . S
O268 C274 1.261 . S
C269 O278 1.247 . S
C269 O279 1.272 . S
O270 Co266 2.004 . S
O270 C275 1.259 . S
Co271 O272 2.061 . S
Co271 O277 2.052 . S
Co271 O279 2.135 . S
O272 Co271 2.061 . S
O272 C275 1.235 . S
C273 O276 1.238 . S
C273 O277 1.241 . S
C274 O267 1.247 . S
C274 O268 1.261 . S
C275 O270 1.259 . S
C275 O272 1.235 . S
O276 Co266 2.021 . S
O276 C273 1.238 . S
O277 Co271 2.052 . S
O277 C273 1.241 . S
O278 Co266 2.137 . S
O278 C269 1.247 . S
O279 Co266 2.244 . S
O279 C269 1.272 . S
O279 Co271 2.135 . S
Co280 O281 2.216 . S
Co280 O282 2.091 . S
Co280 O284 2.004 . S
Co280 O290 2.021 . S
Co280 O292 2.137 . S
Co280 O293 2.244 . S
O281 Co280 2.216 . S
O281 C288 1.247 . S
O282 Co280 2.091 . S
O282 C288 1.261 . S
C283 O292 1.247 . S
C283 O293 1.272 . S
O284 Co280 2.004 . S
O284 C289 1.259 . S
Co285 O286 2.061 . S
Co285 O291 2.052 . S
Co285 O293 2.135 . S
O286 Co285 2.061 . S
O286 C289 1.235 . S
C287 O290 1.238 . S
C287 O291 1.241 . S
C288 O281 1.247 . S
C288 O282 1.261 . S
C289 O284 1.259 . S
C289 O286 1.235 . S
O290 Co280 2.021 . S
O290 C287 1.238 . S
O291 Co285 2.052 . S
O291 C287 1.241 . S
O292 Co280 2.137 . S
O292 C283 1.247 . S
O293 Co280 2.244 . S
O293 C283 1.272 . S
O293 Co285 2.135 . S
Co294 O295 2.216 . S
Co294 O296 2.091 . S
Co294 O298 2.004 . S
Co294 O304 2.021 . S
Co294 O306 2.137 . S
Co294 O307 2.244 . S
O295 Co294 2.216 . S
O295 C302 1.247 . S
O296 Co294 2.091 . S
O296 C302 1.261 . S
C297 O306 1.247 . S
C297 O307 1.272 . S
O298 Co294 2.004 . S
O298 C303 1.259 . S
Co299 O300 2.061 . S
Co299 O305 2.052 . S
Co299 O307 2.135 . S
O300 Co299 2.061 . S
O300 C303 1.235 . S
C301 O304 1.238 . S
C301 O305 1.241 . S
C302 O295 1.247 . S
C302 O296 1.261 . S
C303 O298 1.259 . S
C303 O300 1.235 . S
O304 Co294 2.021 . S
O304 C301 1.238 . S
O305 Co299 2.052 . S
O305 C301 1.241 . S
O306 Co294 2.137 . S
O306 C297 1.247 . S
O307 Co294 2.244 . S
O307 C297 1.272 . S
O307 Co299 2.135 . S
Co308 O309 2.216 . S
Co308 O310 2.091 . S
Co308 O312 2.004 . S
Co308 O318 2.021 . S
Co308 O320 2.137 . S
Co308 O321 2.244 . S
O309 Co308 2.216 . S
O309 C316 1.247 . S
O310 Co308 2.091 . S
O310 C316 1.261 . S
C311 O320 1.247 . S
C311 O321 1.272 . S
O312 Co308 2.004 . S
O312 C317 1.259 . S
Co313 O314 2.061 . S
Co313 O319 2.052 . S
Co313 O321 2.135 . S
O314 Co313 2.061 . S
O314 C317 1.235 . S
C315 O318 1.238 . S
C315 O319 1.241 . S
C316 O309 1.247 . S
C316 O310 1.261 . S
C317 O312 1.259 . S
C317 O314 1.235 . S
O318 Co308 2.021 . S
O318 C315 1.238 . S
O319 Co313 2.052 . S
O319 C315 1.241 . S
O320 Co308 2.137 . S
O320 C311 1.247 . S
O321 Co308 2.244 . S
O321 C311 1.272 . S
O321 Co313 2.135 . S
Co322 O323 2.216 . S
Co322 O324 2.091 . S
Co322 O326 2.004 . S
Co322 O332 2.021 . S
Co322 O334 2.137 . S
Co322 O335 2.244 . S
O323 Co322 2.216 . S
O323 C330 1.247 . S
O324 Co322 2.091 . S
O324 C330 1.261 . S
C325 O334 1.247 . S
C325 O335 1.272 . S
O326 Co322 2.004 . S
O326 C331 1.259 . S
Co327 O328 2.061 . S
Co327 O333 2.052 . S
Co327 O335 2.135 . S
O328 Co327 2.061 . S
O328 C331 1.235 . S
C329 O332 1.238 . S
C329 O333 1.241 . S
C330 O323 1.247 . S
C330 O324 1.261 . S
C331 O326 1.259 . S
C331 O328 1.235 . S
O332 Co322 2.021 . S
O332 C329 1.238 . S
O333 Co327 2.052 . S
O333 C329 1.241 . S
O334 Co322 2.137 . S
O334 C325 1.247 . S
O335 Co322 2.244 . S
O335 C325 1.272 . S
O335 Co327 2.135 . S
Co336 O337 2.216 . S
Co336 O338 2.091 . S
Co336 O340 2.004 . S
Co336 O346 2.021 . S
Co336 O348 2.137 . S
Co336 O349 2.244 . S
O337 Co336 2.216 . S
O337 C344 1.247 . S
O338 Co336 2.091 . S
O338 C344 1.261 . S
C339 O348 1.247 . S
C339 O349 1.272 . S
O340 Co336 2.004 . S
O340 C345 1.259 . S
Co341 O342 2.061 . S
Co341 O347 2.052 . S
Co341 O349 2.135 . S
O342 Co341 2.061 . S
O342 C345 1.235 . S
C343 O346 1.238 . S
C343 O347 1.241 . S
C344 O337 1.247 . S
C344 O338 1.261 . S
C345 O340 1.259 . S
C345 O342 1.235 . S
O346 Co336 2.021 . S
O346 C343 1.238 . S
O347 Co341 2.052 . S
O347 C343 1.241 . S
O348 Co336 2.137 . S
O348 C339 1.247 . S
O349 Co336 2.244 . S
O349 C339 1.272 . S
O349 Co341 2.135 . S
Co350 O351 2.216 . S
Co350 O352 2.091 . S
Co350 O354 2.004 . S
Co350 O360 2.021 . S
Co350 O362 2.137 . S
Co350 O363 2.244 . S
O351 Co350 2.216 . S
O351 C358 1.247 . S
O352 Co350 2.091 . S
O352 C358 1.261 . S
C353 O362 1.247 . S
C353 O363 1.272 . S
O354 Co350 2.004 . S
O354 C359 1.259 . S
Co355 O356 2.061 . S
Co355 O361 2.052 . S
Co355 O363 2.135 . S
O356 Co355 2.061 . S
O356 C359 1.235 . S
C357 O360 1.238 . S
C357 O361 1.241 . S
C358 O351 1.247 . S
C358 O352 1.261 . S
C359 O354 1.259 . S
C359 O356 1.235 . S
O360 Co350 2.021 . S
O360 C357 1.238 . S
O361 Co355 2.052 . S
O361 C357 1.241 . S
O362 Co350 2.137 . S
O362 C353 1.247 . S
O363 Co350 2.244 . S
O363 C353 1.272 . S
O363 Co355 2.135 . S
Co364 O365 2.216 . S
Co364 O366 2.091 . S
Co364 O368 2.004 . S
Co364 O374 2.021 . S
Co364 O376 2.137 . S
Co364 O377 2.244 . S
O365 Co364 2.216 . S
O365 C372 1.247 . S
O366 Co364 2.091 . S
O366 C372 1.261 . S
C367 O376 1.247 . S
C367 O377 1.272 . S
O368 Co364 2.004 . S
O368 C373 1.259 . S
Co369 O370 2.061 . S
Co369 O375 2.052 . S
Co369 O377 2.135 . S
O370 Co369 2.061 . S
O370 C373 1.235 . S
C371 O374 1.238 . S
C371 O375 1.241 . S
C372 O365 1.247 . S
C372 O366 1.261 . S
C373 O368 1.259 . S
C373 O370 1.235 . S
O374 Co364 2.021 . S
O374 C371 1.238 . S
O375 Co369 2.052 . S
O375 C371 1.241 . S
O376 Co364 2.137 . S
O376 C367 1.247 . S
O377 Co364 2.244 . S
O377 C367 1.272 . S
O377 Co369 2.135 . S
Co378 O379 2.216 . S
Co378 O380 2.091 . S
Co378 O382 2.004 . S
Co378 O388 2.021 . S
Co378 O390 2.137 . S
Co378 O391 2.244 . S
O379 Co378 2.216 . S
O379 C386 1.247 . S
O380 Co378 2.091 . S
O380 C386 1.261 . S
C381 O390 1.247 . S
C381 O391 1.272 . S
O382 Co378 2.004 . S
O382 C387 1.259 . S
Co383 O384 2.061 . S
Co383 O389 2.052 . S
Co383 O391 2.135 . S
O384 Co383 2.061 . S
O384 C387 1.235 . S
C385 O388 1.238 . S
C385 O389 1.241 . S
C386 O379 1.247 . S
C386 O380 1.261 . S
C387 O382 1.259 . S
C387 O384 1.235 . S
O388 Co378 2.021 . S
O388 C385 1.238 . S
O389 Co383 2.052 . S
O389 C385 1.241 . S
O390 Co378 2.137 . S
O390 C381 1.247 . S
O391 Co378 2.244 . S
O391 C381 1.272 . S
O391 Co383 2.135 . S
Co392 O393 2.216 . S
Co392 O394 2.091 . S
Co392 O396 2.004 . S
Co392 O402 2.021 . S
Co392 O404 2.137 . S
Co392 O405 2.244 . S
O393 Co392 2.216 . S
O393 C400 1.247 . S
O394 Co392 2.091 . S
O394 C400 1.261 . S
C395 O404 1.247 . S
C395 O405 1.272 . S
O396 Co392 2.004 . S
O396 C401 1.259 . S
Co397 O398 2.061 . S
Co397 O403 2.052 . S
Co397 O405 2.135 . S
O398 Co397 2.061 . S
O398 C401 1.235 . S
C399 O402 1.238 . S
C399 O403 1.241 . S
C400 O393 1.247 . S
C400 O394 1.261 . S
C401 O396 1.259 . S
C401 O398 1.235 . S
O402 Co392 2.021 . S
O402 C399 1.238 . S
O403 Co397 2.052 . S
O403 C399 1.241 . S
O404 Co392 2.137 . S
O404 C395 1.247 . S
O405 Co392 2.244 . S
O405 C395 1.272 . S
O405 Co397 2.135 . S
Co406 O407 2.216 . S
Co406 O408 2.091 . S
Co406 O410 2.004 . S
Co406 O416 2.021 . S
Co406 O418 2.137 . S
Co406 O419 2.244 . S
O407 Co406 2.216 . S
O407 C414 1.247 . S
O408 Co406 2.091 . S
O408 C414 1.261 . S
C409 O418 1.247 . S
C409 O419 1.272 . S
O410 Co406 2.004 . S
O410 C415 1.259 . S
Co411 O412 2.061 . S
Co411 O417 2.052 . S
Co411 O419 2.135 . S
O412 Co411 2.061 . S
O412 C415 1.235 . S
C413 O416 1.238 . S
C413 O417 1.241 . S
C414 O407 1.247 . S
C414 O408 1.261 . S
C415 O410 1.259 . S
C415 O412 1.235 . S
O416 Co406 2.021 . S
O416 C413 1.238 . S
O417 Co411 2.052 . S
O417 C413 1.241 . S
O418 Co406 2.137 . S
O418 C409 1.247 . S
O419 Co406 2.244 . S
O419 C409 1.272 . S
O419 Co411 2.135 . S
Co420 O421 2.216 . S
Co420 O422 2.091 . S
Co420 O424 2.004 . S
Co420 O430 2.021 . S
Co420 O432 2.137 . S
Co420 O433 2.244 . S
O421 Co420 2.216 . S
O421 C428 1.247 . S
O422 Co420 2.091 . S
O422 C428 1.261 . S
C423 O432 1.247 . S
C423 O433 1.272 . S
O424 Co420 2.004 . S
O424 C429 1.259 . S
Co425 O426 2.061 . S
Co425 O431 2.052 . S
Co425 O433 2.135 . S
O426 Co425 2.061 . S
O426 C429 1.235 . S
C427 O430 1.238 . S
C427 O431 1.241 . S
C428 O421 1.247 . S
C428 O422 1.261 . S
C429 O424 1.259 . S
C429 O426 1.235 . S
O430 Co420 2.021 . S
O430 C427 1.238 . S
O431 Co425 2.052 . S
O431 C427 1.241 . S
O432 Co420 2.137 . S
O432 C423 1.247 . S
O433 Co420 2.244 . S
O433 C423 1.272 . S
O433 Co425 2.135 . S
Co434 O435 2.216 . S
Co434 O436 2.091 . S
Co434 O438 2.004 . S
Co434 O444 2.021 . S
Co434 O446 2.137 . S
Co434 O447 2.244 . S
O435 Co434 2.216 . S
O435 C442 1.247 . S
O436 Co434 2.091 . S
O436 C442 1.261 . S
C437 O446 1.247 . S
C437 O447 1.272 . S
O438 Co434 2.004 . S
O438 C443 1.259 . S
Co439 O440 2.061 . S
Co439 O445 2.052 . S
Co439 O447 2.135 . S
O440 Co439 2.061 . S
O440 C443 1.235 . S
C441 O444 1.238 . S
C441 O445 1.241 . S
C442 O435 1.247 . S
C442 O436 1.261 . S
C443 O438 1.259 . S
C443 O440 1.235 . S
O444 Co434 2.021 . S
O444 C441 1.238 . S
O445 Co439 2.052 . S
O445 C441 1.241 . S
O446 Co434 2.137 . S
O446 C437 1.247 . S
O447 Co434 2.244 . S
O447 C437 1.272 . S
O447 Co439 2.135 . S
Co448 O449 2.216 . S
Co448 O450 2.091 . S
Co448 O452 2.004 . S
Co448 O458 2.021 . S
Co448 O460 2.137 . S
Co448 O461 2.244 . S
O449 Co448 2.216 . S
O449 C456 1.247 . S
O450 Co448 2.091 . S
O450 C456 1.261 . S
C451 O460 1.247 . S
C451 O461 1.272 . S
O452 Co448 2.004 . S
O452 C457 1.259 . S
Co453 O454 2.061 . S
Co453 O459 2.052 . S
Co453 O461 2.135 . S
O454 Co453 2.061 . S
O454 C457 1.235 . S
C455 O458 1.238 . S
C455 O459 1.241 . S
C456 O449 1.247 . S
C456 O450 1.261 . S
C457 O452 1.259 . S
C457 O454 1.235 . S
O458 Co448 2.021 . S
O458 C455 1.238 . S
O459 Co453 2.052 . S
O459 C455 1.241 . S
O460 Co448 2.137 . S
O460 C451 1.247 . S
O461 Co448 2.244 . S
O461 C451 1.272 . S
O461 Co453 2.135 . S
Co462 O463 2.216 . S
Co462 O464 2.091 . S
Co462 O466 2.004 . S
Co462 O472 2.021 . S
Co462 O474 2.137 . S
Co462 O475 2.244 . S
O463 Co462 2.216 . S
O463 C470 1.247 . S
O464 Co462 2.091 . S
O464 C470 1.261 . S
C465 O474 1.247 . S
C465 O475 1.272 . S
O466 Co462 2.004 . S
O466 C471 1.259 . S
Co467 O468 2.061 . S
Co467 O473 2.052 . S
Co467 O475 2.135 . S
O468 Co467 2.061 . S
O468 C471 1.235 . S
C469 O472 1.238 . S
C469 O473 1.241 . S
C470 O463 1.247 . S
C470 O464 1.261 . S
C471 O466 1.259 . S
C471 O468 1.235 . S
O472 Co462 2.021 . S
O472 C469 1.238 . S
O473 Co467 2.052 . S
O473 C469 1.241 . S
O474 Co462 2.137 . S
O474 C465 1.247 . S
O475 Co462 2.244 . S
O475 C465 1.272 . S
O475 Co467 2.135 . S
Co476 O477 2.216 . S
Co476 O478 2.091 . S
Co476 O480 2.004 . S
Co476 O486 2.021 . S
Co476 O488 2.137 . S
Co476 O489 2.244 . S
O477 Co476 2.216 . S
O477 C484 1.247 . S
O478 Co476 2.091 . S
O478 C484 1.261 . S
C479 O488 1.247 . S
C479 O489 1.272 . S
O480 Co476 2.004 . S
O480 C485 1.259 . S
Co481 O482 2.061 . S
Co481 O487 2.052 . S
Co481 O489 2.135 . S
O482 Co481 2.061 . S
O482 C485 1.235 . S
C483 O486 1.238 . S
C483 O487 1.241 . S
C484 O477 1.247 . S
C484 O478 1.261 . S
C485 O480 1.259 . S
C485 O482 1.235 . S
O486 Co476 2.021 . S
O486 C483 1.238 . S
O487 Co481 2.052 . S
O487 C483 1.241 . S
O488 Co476 2.137 . S
O488 C479 1.247 . S
O489 Co476 2.244 . S
O489 C479 1.272 . S
O489 Co481 2.135 . S
Co490 O491 2.216 . S
Co490 O492 2.091 . S
Co490 O494 2.004 . S
Co490 O500 2.021 . S
Co490 O502 2.137 . S
Co490 O503 2.244 . S
O491 Co490 2.216 . S
O491 C498 1.247 . S
O492 Co490 2.091 . S
O492 C498 1.261 . S
C493 O502 1.247 . S
C493 O503 1.272 . S
O494 Co490 2.004 . S
O494 C499 1.259 . S
Co495 O496 2.061 . S
Co495 O501 2.052 . S
Co495 O503 2.135 . S
O496 Co495 2.061 . S
O496 C499 1.235 . S
C497 O500 1.238 . S
C497 O501 1.241 . S
C498 O491 1.247 . S
C498 O492 1.261 . S
C499 O494 1.259 . S
C499 O496 1.235 . S
O500 Co490 2.021 . S
O500 C497 1.238 . S
O501 Co495 2.052 . S
O501 C497 1.241 . S
O502 Co490 2.137 . S
O502 C493 1.247 . S
O503 Co490 2.244 . S
O503 C493 1.272 . S
O503 Co495 2.135 . S
Co504 O505 2.216 . S
Co504 O506 2.091 . S
Co504 O508 2.004 . S
Co504 O514 2.021 . S
Co504 O516 2.137 . S
Co504 O517 2.244 . S
O505 Co504 2.216 . S
O505 C512 1.247 . S
O506 Co504 2.091 . S
O506 C512 1.261 . S
C507 O516 1.247 . S
C507 O517 1.272 . S
O508 Co504 2.004 . S
O508 C513 1.259 . S
Co509 O510 2.061 . S
Co509 O515 2.052 . S
Co509 O517 2.135 . S
O510 Co509 2.061 . S
O510 C513 1.235 . S
C511 O514 1.238 . S
C511 O515 1.241 . S
C512 O505 1.247 . S
C512 O506 1.261 . S
C513 O508 1.259 . S
C513 O510 1.235 . S
O514 Co504 2.021 . S
O514 C511 1.238 . S
O515 Co509 2.052 . S
O515 C511 1.241 . S
O516 Co504 2.137 . S
O516 C507 1.247 . S
O517 Co504 2.244 . S
O517 C507 1.272 . S
O517 Co509 2.135 . S
Co518 O519 2.216 . S
Co518 O520 2.091 . S
Co518 O522 2.004 . S
Co518 O528 2.021 . S
Co518 O530 2.137 . S
Co518 O531 2.244 . S
O519 Co518 2.216 . S
O519 C526 1.247 . S
O520 Co518 2.091 . S
O520 C526 1.261 . S
C521 O530 1.247 . S
C521 O531 1.272 . S
O522 Co518 2.004 . S
O522 C527 1.259 . S
Co523 O524 2.061 . S
Co523 O529 2.052 . S
Co523 O531 2.135 . S
O524 Co523 2.061 . S
O524 C527 1.235 . S
C525 O528 1.238 . S
C525 O529 1.241 . S
C526 O519 1.247 . S
C526 O520 1.261 . S
C527 O522 1.259 . S
C527 O524 1.235 . S
O528 Co518 2.021 . S
O528 C525 1.238 . S
O529 Co523 2.052 . S
O529 C525 1.241 . S
O530 Co518 2.137 . S
O530 C521 1.247 . S
O531 Co518 2.244 . S
O531 C521 1.272 . S
O531 Co523 2.135 . S
Co532 O533 2.216 . S
Co532 O534 2.091 . S
Co532 O536 2.004 . S
Co532 O542 2.021 . S
Co532 O544 2.137 . S
Co532 O545 2.244 . S
O533 Co532 2.216 . S
O533 C540 1.247 . S
O534 Co532 2.091 . S
O534 C540 1.261 . S
C535 O544 1.247 . S
C535 O545 1.272 . S
O536 Co532 2.004 . S
O536 C541 1.259 . S
Co537 O538 2.061 . S
Co537 O543 2.052 . S
Co537 O545 2.135 . S
O538 Co537 2.061 . S
O538 C541 1.235 . S
C539 O542 1.238 . S
C539 O543 1.241 . S
C540 O533 1.247 . S
C540 O534 1.261 . S
C541 O536 1.259 . S
C541 O538 1.235 . S
O542 Co532 2.021 . S
O542 C539 1.238 . S
O543 Co537 2.052 . S
O543 C539 1.241 . S
O544 Co532 2.137 . S
O544 C535 1.247 . S
O545 Co532 2.244 . S
O545 C535 1.272 . S
O545 Co537 2.135 . S
Co546 O547 2.216 . S
Co546 O548 2.091 . S
Co546 O550 2.004 . S
Co546 O556 2.021 . S
Co546 O558 2.137 . S
Co546 O559 2.244 . S
O547 Co546 2.216 . S
O547 C554 1.247 . S
O548 Co546 2.091 . S
O548 C554 1.261 . S
C549 O558 1.247 . S
C549 O559 1.272 . S
O550 Co546 2.004 . S
O550 C555 1.259 . S
Co551 O552 2.061 . S
Co551 O557 2.052 . S
Co551 O559 2.135 . S
O552 Co551 2.061 . S
O552 C555 1.235 . S
C553 O556 1.238 . S
C553 O557 1.241 . S
C554 O547 1.247 . S
C554 O548 1.261 . S
C555 O550 1.259 . S
C555 O552 1.235 . S
O556 Co546 2.021 . S
O556 C553 1.238 . S
O557 Co551 2.052 . S
O557 C553 1.241 . S
O558 Co546 2.137 . S
O558 C549 1.247 . S
O559 Co546 2.244 . S
O559 C549 1.272 . S
O559 Co551 2.135 . S
Co560 O561 2.216 . S
Co560 O562 2.091 . S
Co560 O564 2.004 . S
Co560 O570 2.021 . S
Co560 O572 2.137 . S
Co560 O573 2.244 . S
O561 Co560 2.216 . S
O561 C568 1.247 . S
O562 Co560 2.091 . S
O562 C568 1.261 . S
C563 O572 1.247 . S
C563 O573 1.272 . S
O564 Co560 2.004 . S
O564 C569 1.259 . S
Co565 O566 2.061 . S
Co565 O571 2.052 . S
Co565 O573 2.135 . S
O566 Co565 2.061 . S
O566 C569 1.235 . S
C567 O570 1.238 . S
C567 O571 1.241 . S
C568 O561 1.247 . S
C568 O562 1.261 . S
C569 O564 1.259 . S
C569 O566 1.235 . S
O570 Co560 2.021 . S
O570 C567 1.238 . S
O571 Co565 2.052 . S
O571 C567 1.241 . S
O572 Co560 2.137 . S
O572 C563 1.247 . S
O573 Co560 2.244 . S
O573 C563 1.272 . S
O573 Co565 2.135 . S
Co574 O575 2.216 . S
Co574 O576 2.091 . S
Co574 O578 2.004 . S
Co574 O584 2.021 . S
Co574 O586 2.137 . S
Co574 O587 2.244 . S
O575 Co574 2.216 . S
O575 C582 1.247 . S
O576 Co574 2.091 . S
O576 C582 1.261 . S
C577 O586 1.247 . S
C577 O587 1.272 . S
O578 Co574 2.004 . S
O578 C583 1.259 . S
Co579 O580 2.061 . S
Co579 O585 2.052 . S
Co579 O587 2.135 . S
O580 Co579 2.061 . S
O580 C583 1.235 . S
C581 O584 1.238 . S
C581 O585 1.241 . S
C582 O575 1.247 . S
C582 O576 1.261 . S
C583 O578 1.259 . S
C583 O580 1.235 . S
O584 Co574 2.021 . S
O584 C581 1.238 . S
O585 Co579 2.052 . S
O585 C581 1.241 . S
O586 Co574 2.137 . S
O586 C577 1.247 . S
O587 Co574 2.244 . S
O587 C577 1.272 . S
O587 Co579 2.135 . S
Co588 O589 2.216 . S
Co588 O590 2.091 . S
Co588 O592 2.004 . S
Co588 O598 2.021 . S
Co588 O600 2.137 . S
Co588 O601 2.244 . S
O589 Co588 2.216 . S
O589 C596 1.247 . S
O590 Co588 2.091 . S
O590 C596 1.261 . S
C591 O600 1.247 . S
C591 O601 1.272 . S
O592 Co588 2.004 . S
O592 C597 1.259 . S
Co593 O594 2.061 . S
Co593 O599 2.052 . S
Co593 O601 2.135 . S
O594 Co593 2.061 . S
O594 C597 1.235 . S
C595 O598 1.238 . S
C595 O599 1.241 . S
C596 O589 1.247 . S
C596 O590 1.261 . S
C597 O592 1.259 . S
C597 O594 1.235 . S
O598 Co588 2.021 . S
O598 C595 1.238 . S
O599 Co593 2.052 . S
O599 C595 1.241 . S
O600 Co588 2.137 . S
O600 C591 1.247 . S
O601 Co588 2.244 . S
O601 C591 1.272 . S
O601 Co593 2.135 . S
Co602 O603 2.216 . S
Co602 O604 2.091 . S
Co602 O606 2.004 . S
Co602 O612 2.021 . S
Co602 O614 2.137 . S
Co602 O615 2.244 . S
O603 Co602 2.216 . S
O603 C610 1.247 . S
O604 Co602 2.091 . S
O604 C610 1.261 . S
C605 O614 1.247 . S
C605 O615 1.272 . S
O606 Co602 2.004 . S
O606 C611 1.259 . S
Co607 O608 2.061 . S
Co607 O613 2.052 . S
Co607 O615 2.135 . S
O608 Co607 2.061 . S
O608 C611 1.235 . S
C609 O612 1.238 . S
C609 O613 1.241 . S
C610 O603 1.247 . S
C610 O604 1.261 . S
C611 O606 1.259 . S
C611 O608 1.235 . S
O612 Co602 2.021 . S
O612 C609 1.238 . S
O613 Co607 2.052 . S
O613 C609 1.241 . S
O614 Co602 2.137 . S
O614 C605 1.247 . S
O615 Co602 2.244 . S
O615 C605 1.272 . S
O615 Co607 2.135 . S
Co616 O617 2.216 . S
Co616 O618 2.091 . S
Co616 O620 2.004 . S
Co616 O626 2.021 . S
Co616 O628 2.137 . S
Co616 O629 2.244 . S
O617 Co616 2.216 . S
O617 C624 1.247 . S
O618 Co616 2.091 . S
O618 C624 1.261 . S
C619 O628 1.247 . S
C619 O629 1.272 . S
O620 Co616 2.004 . S
O620 C625 1.259 . S
Co621 O622 2.061 . S
Co621 O627 2.052 . S
Co621 O629 2.135 . S
O622 Co621 2.061 . S
O622 C625 1.235 . S
C623 O626 1.238 . S
C623 O627 1.241 . S
C624 O617 1.247 . S
C624 O618 1.261 . S
C625 O620 1.259 . S
C625 O622 1.235 . S
O626 Co616 2.021 . S
O626 C623 1.238 . S
O627 Co621 2.052 . S
O627 C623 1.241 . S
O628 Co616 2.137 . S
O628 C619 1.247 . S
O629 Co616 2.244 . S
O629 C619 1.272 . S
O629 Co621 2.135 . S
Co630 O631 2.216 . S
Co630 O632 2.091 . S
Co630 O634 2.004 . S
Co630 O640 2.021 . S
Co630 O642 2.137 . S
Co630 O643 2.244 . S
O631 Co630 2.216 . S
O631 C638 1.247 . S
O632 Co630 2.091 . S
O632 C638 1.261 . S
C633 O642 1.247 . S
C633 O643 1.272 . S
O634 Co630 2.004 . S
O634 C639 1.259 . S
Co635 O636 2.061 . S
Co635 O641 2.052 . S
Co635 O643 2.135 . S
O636 Co635 2.061 . S
O636 C639 1.235 . S
C637 O640 1.238 . S
C637 O641 1.241 . S
C638 O631 1.247 . S
C638 O632 1.261 . S
C639 O634 1.259 . S
C639 O636 1.235 . S
O640 Co630 2.021 . S
O640 C637 1.238 . S
O641 Co635 2.052 . S
O641 C637 1.241 . S
O642 Co630 2.137 . S
O642 C633 1.247 . S
O643 Co630 2.244 . S
O643 C633 1.272 . S
O643 Co635 2.135 . S
Co644 O645 2.216 . S
Co644 O646 2.091 . S
Co644 O648 2.004 . S
Co644 O654 2.021 . S
Co644 O656 2.137 . S
Co644 O657 2.244 . S
O645 Co644 2.216 . S
O645 C652 1.247 . S
O646 Co644 2.091 . S
O646 C652 1.261 . S
C647 O656 1.247 . S
C647 O657 1.272 . S
O648 Co644 2.004 . S
O648 C653 1.259 . S
Co649 O650 2.061 . S
Co649 O655 2.052 . S
Co649 O657 2.135 . S
O650 Co649 2.061 . S
O650 C653 1.235 . S
C651 O654 1.238 . S
C651 O655 1.241 . S
C652 O645 1.247 . S
C652 O646 1.261 . S
C653 O648 1.259 . S
C653 O650 1.235 . S
O654 Co644 2.021 . S
O654 C651 1.238 . S
O655 Co649 2.052 . S
O655 C651 1.241 . S
O656 Co644 2.137 . S
O656 C647 1.247 . S
O657 Co644 2.244 . S
O657 C647 1.272 . S
O657 Co649 2.135 . S
Co658 O659 2.216 . S
Co658 O660 2.091 . S
Co658 O662 2.004 . S
Co658 O668 2.021 . S
Co658 O670 2.137 . S
Co658 O671 2.244 . S
O659 Co658 2.216 . S
O659 C666 1.247 . S
O660 Co658 2.091 . S
O660 C666 1.261 . S
C661 O670 1.247 . S
C661 O671 1.272 . S
O662 Co658 2.004 . S
O662 C667 1.259 . S
Co663 O664 2.061 . S
Co663 O669 2.052 . S
Co663 O671 2.135 . S
O664 Co663 2.061 . S
O664 C667 1.235 . S
C665 O668 1.238 . S
C665 O669 1.241 . S
C666 O659 1.247 . S
C666 O660 1.261 . S
C667 O662 1.259 . S
C667 O664 1.235 . S
O668 Co658 2.021 . S
O668 C665 1.238 . S
O669 Co663 2.052 . S
O669 C665 1.241 . S
O670 Co658 2.137 . S
O670 C661 1.247 . S
O671 Co658 2.244 . S
O671 C661 1.272 . S
O671 Co663 2.135 . S
H672 C678 0.930 . S
H673 C681 0.930 . S
H674 C682 0.930 . S
H675 C683 0.930 . S
H676 C686 0.930 . S
H677 C687 0.930 . S
C678 H672 0.930 . S
C678 C679 1.355 . S
C678 C680 1.415 . S
C679 C678 1.355 . S
C679 C681 1.419 . S
C680 C678 1.415 . S
C680 C685 1.425 . S
C680 C687 1.409 . S
C681 H673 0.930 . S
C681 C679 1.419 . S
C681 C682 1.362 . S
C682 H674 0.930 . S
C682 C681 1.362 . S
C682 C685 1.409 . S
C683 H675 0.930 . S
C683 C684 1.355 . S
C683 C685 1.415 . S
C684 C683 1.355 . S
C684 C686 1.419 . S
C685 C680 1.425 . S
C685 C682 1.409 . S
C685 C683 1.415 . S
C686 H676 0.930 . S
C686 C684 1.419 . S
C686 C687 1.362 . S
C687 H677 0.930 . S
C687 C680 1.409 . S
C687 C686 1.362 . S
H688 C694 0.930 . S
H689 C697 0.930 . S
H690 C698 0.930 . S
H691 C699 0.930 . S
H692 C702 0.930 . S
H693 C703 0.930 . S
C694 H688 0.930 . S
C694 C695 1.355 . S
C694 C696 1.415 . S
C695 C694 1.355 . S
C695 C697 1.419 . S
C696 C694 1.415 . S
C696 C701 1.425 . S
C696 C703 1.409 . S
C697 H689 0.930 . S
C697 C695 1.419 . S
C697 C698 1.362 . S
C698 H690 0.930 . S
C698 C697 1.362 . S
C698 C701 1.409 . S
C699 H691 0.930 . S
C699 C700 1.355 . S
C699 C701 1.415 . S
C700 C699 1.355 . S
C700 C702 1.419 . S
C701 C696 1.425 . S
C701 C698 1.409 . S
C701 C699 1.415 . S
C702 H692 0.930 . S
C702 C700 1.419 . S
C702 C703 1.362 . S
C703 H693 0.930 . S
C703 C696 1.409 . S
C703 C702 1.362 . S
H704 C710 0.930 . S
H705 C713 0.930 . S
H706 C714 0.930 . S
H707 C715 0.930 . S
H708 C718 0.930 . S
H709 C719 0.930 . S
C710 H704 0.930 . S
C710 C711 1.355 . S
C710 C712 1.415 . S
C711 C710 1.355 . S
C711 C713 1.419 . S
C712 C710 1.415 . S
C712 C717 1.425 . S
C712 C719 1.409 . S
C713 H705 0.930 . S
C713 C711 1.419 . S
C713 C714 1.362 . S
C714 H706 0.930 . S
C714 C713 1.362 . S
C714 C717 1.409 . S
C715 H707 0.930 . S
C715 C716 1.355 . S
C715 C717 1.415 . S
C716 C715 1.355 . S
C716 C718 1.419 . S
C717 C712 1.425 . S
C717 C714 1.409 . S
C717 C715 1.415 . S
C718 H708 0.930 . S
C718 C716 1.419 . S
C718 C719 1.362 . S
C719 H709 0.930 . S
C719 C712 1.409 . S
C719 C718 1.362 . S
H720 C726 0.930 . S
H721 C729 0.930 . S
H722 C730 0.930 . S
H723 C731 0.930 . S
H724 C734 0.930 . S
H725 C735 0.930 . S
C726 H720 0.930 . S
C726 C727 1.355 . S
C726 C728 1.415 . S
C727 C726 1.355 . S
C727 C729 1.419 . S
C728 C726 1.415 . S
C728 C733 1.425 . S
C728 C735 1.409 . S
C729 H721 0.930 . S
C729 C727 1.419 . S
C729 C730 1.362 . S
C730 H722 0.930 . S
C730 C729 1.362 . S
C730 C733 1.409 . S
C731 H723 0.930 . S
C731 C732 1.355 . S
C731 C733 1.415 . S
C732 C731 1.355 . S
C732 C734 1.419 . S
C733 C728 1.425 . S
C733 C730 1.409 . S
C733 C731 1.415 . S
C734 H724 0.930 . S
C734 C732 1.419 . S
C734 C735 1.362 . S
C735 H725 0.930 . S
C735 C728 1.409 . S
C735 C734 1.362 . S
H736 C742 0.930 . S
H737 C745 0.930 . S
H738 C746 0.930 . S
H739 C747 0.930 . S
H740 C750 0.930 . S
H741 C751 0.930 . S
C742 H736 0.930 . S
C742 C743 1.355 . S
C742 C744 1.415 . S
C743 C742 1.355 . S
C743 C745 1.419 . S
C744 C742 1.415 . S
C744 C749 1.425 . S
C744 C751 1.409 . S
C745 H737 0.930 . S
C745 C743 1.419 . S
C745 C746 1.362 . S
C746 H738 0.930 . S
C746 C745 1.362 . S
C746 C749 1.409 . S
C747 H739 0.930 . S
C747 C748 1.355 . S
C747 C749 1.415 . S
C748 C747 1.355 . S
C748 C750 1.419 . S
C749 C744 1.425 . S
C749 C746 1.409 . S
C749 C747 1.415 . S
C750 H740 0.930 . S
C750 C748 1.419 . S
C750 C751 1.362 . S
C751 H741 0.930 . S
C751 C744 1.409 . S
C751 C750 1.362 . S
H752 C758 0.930 . S
H753 C761 0.930 . S
H754 C762 0.930 . S
H755 C763 0.930 . S
H756 C766 0.930 . S
H757 C767 0.930 . S
C758 H752 0.930 . S
C758 C759 1.355 . S
C758 C760 1.415 . S
C759 C758 1.355 . S
C759 C761 1.419 . S
C760 C758 1.415 . S
C760 C765 1.425 . S
C760 C767 1.409 . S
C761 H753 0.930 . S
C761 C759 1.419 . S
C761 C762 1.362 . S
C762 H754 0.930 . S
C762 C761 1.362 . S
C762 C765 1.409 . S
C763 H755 0.930 . S
C763 C764 1.355 . S
C763 C765 1.415 . S
C764 C763 1.355 . S
C764 C766 1.419 . S
C765 C760 1.425 . S
C765 C762 1.409 . S
C765 C763 1.415 . S
C766 H756 0.930 . S
C766 C764 1.419 . S
C766 C767 1.362 . S
C767 H757 0.930 . S
C767 C760 1.409 . S
C767 C766 1.362 . S
H768 C774 0.930 . S
H769 C777 0.930 . S
H770 C778 0.930 . S
H771 C779 0.930 . S
H772 C782 0.930 . S
H773 C783 0.930 . S
C774 H768 0.930 . S
C774 C775 1.355 . S
C774 C776 1.415 . S
C775 C774 1.355 . S
C775 C777 1.419 . S
C776 C774 1.415 . S
C776 C781 1.425 . S
C776 C783 1.409 . S
C777 H769 0.930 . S
C777 C775 1.419 . S
C777 C778 1.362 . S
C778 H770 0.930 . S
C778 C777 1.362 . S
C778 C781 1.409 . S
C779 H771 0.930 . S
C779 C780 1.355 . S
C779 C781 1.415 . S
C780 C779 1.355 . S
C780 C782 1.419 . S
C781 C776 1.425 . S
C781 C778 1.409 . S
C781 C779 1.415 . S
C782 H772 0.930 . S
C782 C780 1.419 . S
C782 C783 1.362 . S
C783 H773 0.930 . S
C783 C776 1.409 . S
C783 C782 1.362 . S
H784 C790 0.930 . S
H785 C793 0.930 . S
H786 C794 0.930 . S
H787 C795 0.930 . S
H788 C798 0.930 . S
H789 C799 0.930 . S
C790 H784 0.930 . S
C790 C791 1.355 . S
C790 C792 1.415 . S
C791 C790 1.355 . S
C791 C793 1.419 . S
C792 C790 1.415 . S
C792 C797 1.425 . S
C792 C799 1.409 . S
C793 H785 0.930 . S
C793 C791 1.419 . S
C793 C794 1.362 . S
C794 H786 0.930 . S
C794 C793 1.362 . S
C794 C797 1.409 . S
C795 H787 0.930 . S
C795 C796 1.355 . S
C795 C797 1.415 . S
C796 C795 1.355 . S
C796 C798 1.419 . S
C797 C792 1.425 . S
C797 C794 1.409 . S
C797 C795 1.415 . S
C798 H788 0.930 . S
C798 C796 1.419 . S
C798 C799 1.362 . S
C799 H789 0.930 . S
C799 C792 1.409 . S
C799 C798 1.362 . S
H800 C806 0.930 . S
H801 C809 0.930 . S
H802 C810 0.930 . S
H803 C811 0.930 . S
H804 C814 0.930 . S
H805 C815 0.930 . S
C806 H800 0.930 . S
C806 C807 1.355 . S
C806 C808 1.415 . S
C807 C806 1.355 . S
C807 C809 1.419 . S
C808 C806 1.415 . S
C808 C813 1.425 . S
C808 C815 1.409 . S
C809 H801 0.930 . S
C809 C807 1.419 . S
C809 C810 1.362 . S
C810 H802 0.930 . S
C810 C809 1.362 . S
C810 C813 1.409 . S
C811 H803 0.930 . S
C811 C812 1.355 . S
C811 C813 1.415 . S
C812 C811 1.355 . S
C812 C814 1.419 . S
C813 C808 1.425 . S
C813 C810 1.409 . S
C813 C811 1.415 . S
C814 H804 0.930 . S
C814 C812 1.419 . S
C814 C815 1.362 . S
C815 H805 0.930 . S
C815 C808 1.409 . S
C815 C814 1.362 . S
H816 C822 0.930 . S
H817 C825 0.930 . S
H818 C826 0.930 . S
H819 C827 0.930 . S
H820 C830 0.930 . S
H821 C831 0.930 . S
C822 H816 0.930 . S
C822 C823 1.355 . S
C822 C824 1.415 . S
C823 C822 1.355 . S
C823 C825 1.419 . S
C824 C822 1.415 . S
C824 C829 1.425 . S
C824 C831 1.409 . S
C825 H817 0.930 . S
C825 C823 1.419 . S
C825 C826 1.362 . S
C826 H818 0.930 . S
C826 C825 1.362 . S
C826 C829 1.409 . S
C827 H819 0.930 . S
C827 C828 1.355 . S
C827 C829 1.415 . S
C828 C827 1.355 . S
C828 C830 1.419 . S
C829 C824 1.425 . S
C829 C826 1.409 . S
C829 C827 1.415 . S
C830 H820 0.930 . S
C830 C828 1.419 . S
C830 C831 1.362 . S
C831 H821 0.930 . S
C831 C824 1.409 . S
C831 C830 1.362 . S
H832 C838 0.930 . S
H833 C841 0.930 . S
H834 C842 0.930 . S
H835 C843 0.930 . S
H836 C846 0.930 . S
H837 C847 0.930 . S
C838 H832 0.930 . S
C838 C839 1.355 . S
C838 C840 1.415 . S
C839 C838 1.355 . S
C839 C841 1.419 . S
C840 C838 1.415 . S
C840 C845 1.425 . S
C840 C847 1.409 . S
C841 H833 0.930 . S
C841 C839 1.419 . S
C841 C842 1.362 . S
C842 H834 0.930 . S
C842 C841 1.362 . S
C842 C845 1.409 . S
C843 H835 0.930 . S
C843 C844 1.355 . S
C843 C845 1.415 . S
C844 C843 1.355 . S
C844 C846 1.419 . S
C845 C840 1.425 . S
C845 C842 1.409 . S
C845 C843 1.415 . S
C846 H836 0.930 . S
C846 C844 1.419 . S
C846 C847 1.362 . S
C847 H837 0.930 . S
C847 C840 1.409 . S
C847 C846 1.362 . S
H848 C854 0.930 . S
H849 C857 0.930 . S
H850 C858 0.930 . S
H851 C859 0.930 . S
H852 C862 0.930 . S
H853 C863 0.930 . S
C854 H848 0.930 . S
C854 C855 1.355 . S
C854 C856 1.415 . S
C855 C854 1.355 . S
C855 C857 1.419 . S
C856 C854 1.415 . S
C856 C861 1.425 . S
C856 C863 1.409 . S
C857 H849 0.930 . S
C857 C855 1.419 . S
C857 C858 1.362 . S
C858 H850 0.930 . S
C858 C857 1.362 . S
C858 C861 1.409 . S
C859 H851 0.930 . S
C859 C860 1.355 . S
C859 C861 1.415 . S
C860 C859 1.355 . S
C860 C862 1.419 . S
C861 C856 1.425 . S
C861 C858 1.409 . S
C861 C859 1.415 . S
C862 H852 0.930 . S
C862 C860 1.419 . S
C862 C863 1.362 . S
C863 H853 0.930 . S
C863 C856 1.409 . S
C863 C862 1.362 . S
H864 C870 0.930 . S
H865 C873 0.930 . S
H866 C874 0.930 . S
H867 C875 0.930 . S
H868 C878 0.930 . S
H869 C879 0.930 . S
C870 H864 0.930 . S
C870 C871 1.355 . S
C870 C872 1.415 . S
C871 C870 1.355 . S
C871 C873 1.419 . S
C872 C870 1.415 . S
C872 C877 1.425 . S
C872 C879 1.409 . S
C873 H865 0.930 . S
C873 C871 1.419 . S
C873 C874 1.362 . S
C874 H866 0.930 . S
C874 C873 1.362 . S
C874 C877 1.409 . S
C875 H867 0.930 . S
C875 C876 1.355 . S
C875 C877 1.415 . S
C876 C875 1.355 . S
C876 C878 1.419 . S
C877 C872 1.425 . S
C877 C874 1.409 . S
C877 C875 1.415 . S
C878 H868 0.930 . S
C878 C876 1.419 . S
C878 C879 1.362 . S
C879 H869 0.930 . S
C879 C872 1.409 . S
C879 C878 1.362 . S
H880 C886 0.930 . S
H881 C889 0.930 . S
H882 C890 0.930 . S
H883 C891 0.930 . S
H884 C894 0.930 . S
H885 C895 0.930 . S
C886 H880 0.930 . S
C886 C887 1.355 . S
C886 C888 1.415 . S
C887 C886 1.355 . S
C887 C889 1.419 . S
C888 C886 1.415 . S
C888 C893 1.425 . S
C888 C895 1.409 . S
C889 H881 0.930 . S
C889 C887 1.419 . S
C889 C890 1.362 . S
C890 H882 0.930 . S
C890 C889 1.362 . S
C890 C893 1.409 . S
C891 H883 0.930 . S
C891 C892 1.355 . S
C891 C893 1.415 . S
C892 C891 1.355 . S
C892 C894 1.419 . S
C893 C888 1.425 . S
C893 C890 1.409 . S
C893 C891 1.415 . S
C894 H884 0.930 . S
C894 C892 1.419 . S
C894 C895 1.362 . S
C895 H885 0.930 . S
C895 C888 1.409 . S
C895 C894 1.362 . S
H896 C902 0.930 . S
H897 C905 0.930 . S
H898 C906 0.930 . S
H899 C907 0.930 . S
H900 C910 0.930 . S
H901 C911 0.930 . S
C902 H896 0.930 . S
C902 C903 1.355 . S
C902 C904 1.415 . S
C903 C902 1.355 . S
C903 C905 1.419 . S
C904 C902 1.415 . S
C904 C909 1.425 . S
C904 C911 1.409 . S
C905 H897 0.930 . S
C905 C903 1.419 . S
C905 C906 1.362 . S
C906 H898 0.930 . S
C906 C905 1.362 . S
C906 C909 1.409 . S
C907 H899 0.930 . S
C907 C908 1.355 . S
C907 C909 1.415 . S
C908 C907 1.355 . S
C908 C910 1.419 . S
C909 C904 1.425 . S
C909 C906 1.409 . S
C909 C907 1.415 . S
C910 H900 0.930 . S
C910 C908 1.419 . S
C910 C911 1.362 . S
C911 H901 0.930 . S
C911 C904 1.409 . S
C911 C910 1.362 . S
H912 C918 0.930 . S
H913 C921 0.930 . S
H914 C922 0.930 . S
H915 C923 0.930 . S
H916 C926 0.930 . S
H917 C927 0.930 . S
C918 H912 0.930 . S
C918 C919 1.355 . S
C918 C920 1.415 . S
C919 C918 1.355 . S
C919 C921 1.419 . S
C920 C918 1.415 . S
C920 C925 1.425 . S
C920 C927 1.409 . S
C921 H913 0.930 . S
C921 C919 1.419 . S
C921 C922 1.362 . S
C922 H914 0.930 . S
C922 C921 1.362 . S
C922 C925 1.409 . S
C923 H915 0.930 . S
C923 C924 1.355 . S
C923 C925 1.415 . S
C924 C923 1.355 . S
C924 C926 1.419 . S
C925 C920 1.425 . S
C925 C922 1.409 . S
C925 C923 1.415 . S
C926 H916 0.930 . S
C926 C924 1.419 . S
C926 C927 1.362 . S
C927 H917 0.930 . S
C927 C920 1.409 . S
C927 C926 1.362 . S
H928 C934 0.930 . S
H929 C937 0.930 . S
H930 C938 0.930 . S
H931 C939 0.930 . S
H932 C942 0.930 . S
H933 C943 0.930 . S
C934 H928 0.930 . S
C934 C935 1.355 . S
C934 C936 1.415 . S
C935 C934 1.355 . S
C935 C937 1.419 . S
C936 C934 1.415 . S
C936 C941 1.425 . S
C936 C943 1.409 . S
C937 H929 0.930 . S
C937 C935 1.419 . S
C937 C938 1.362 . S
C938 H930 0.930 . S
C938 C937 1.362 . S
C938 C941 1.409 . S
C939 H931 0.930 . S
C939 C940 1.355 . S
C939 C941 1.415 . S
C940 C939 1.355 . S
C940 C942 1.419 . S
C941 C936 1.425 . S
C941 C938 1.409 . S
C941 C939 1.415 . S
C942 H932 0.930 . S
C942 C940 1.419 . S
C942 C943 1.362 . S
C943 H933 0.930 . S
C943 C936 1.409 . S
C943 C942 1.362 . S
H944 C950 0.930 . S
H945 C953 0.930 . S
H946 C954 0.930 . S
H947 C955 0.930 . S
H948 C958 0.930 . S
H949 C959 0.930 . S
C950 H944 0.930 . S
C950 C951 1.355 . S
C950 C952 1.415 . S
C951 C950 1.355 . S
C951 C953 1.419 . S
C952 C950 1.415 . S
C952 C957 1.425 . S
C952 C959 1.409 . S
C953 H945 0.930 . S
C953 C951 1.419 . S
C953 C954 1.362 . S
C954 H946 0.930 . S
C954 C953 1.362 . S
C954 C957 1.409 . S
C955 H947 0.930 . S
C955 C956 1.355 . S
C955 C957 1.415 . S
C956 C955 1.355 . S
C956 C958 1.419 . S
C957 C952 1.425 . S
C957 C954 1.409 . S
C957 C955 1.415 . S
C958 H948 0.930 . S
C958 C956 1.419 . S
C958 C959 1.362 . S
C959 H949 0.930 . S
C959 C952 1.409 . S
C959 C958 1.362 . S
H960 C966 0.930 . S
H961 C969 0.930 . S
H962 C970 0.930 . S
H963 C971 0.930 . S
H964 C974 0.930 . S
H965 C975 0.930 . S
C966 H960 0.930 . S
C966 C967 1.355 . S
C966 C968 1.415 . S
C967 C966 1.355 . S
C967 C969 1.419 . S
C968 C966 1.415 . S
C968 C973 1.425 . S
C968 C975 1.409 . S
C969 H961 0.930 . S
C969 C967 1.419 . S
C969 C970 1.362 . S
C970 H962 0.930 . S
C970 C969 1.362 . S
C970 C973 1.409 . S
C971 H963 0.930 . S
C971 C972 1.355 . S
C971 C973 1.415 . S
C972 C971 1.355 . S
C972 C974 1.419 . S
C973 C968 1.425 . S
C973 C970 1.409 . S
C973 C971 1.415 . S
C974 H964 0.930 . S
C974 C972 1.419 . S
C974 C975 1.362 . S
C975 H965 0.930 . S
C975 C968 1.409 . S
C975 C974 1.362 . S
H976 C982 0.930 . S
H977 C985 0.930 . S
H978 C986 0.930 . S
H979 C987 0.930 . S
H980 C990 0.930 . S
H981 C991 0.930 . S
C982 H976 0.930 . S
C982 C983 1.355 . S
C982 C984 1.415 . S
C983 C982 1.355 . S
C983 C985 1.419 . S
C984 C982 1.415 . S
C984 C989 1.425 . S
C984 C991 1.409 . S
C985 H977 0.930 . S
C985 C983 1.419 . S
C985 C986 1.362 . S
C986 H978 0.930 . S
C986 C985 1.362 . S
C986 C989 1.409 . S
C987 H979 0.930 . S
C987 C988 1.355 . S
C987 C989 1.415 . S
C988 C987 1.355 . S
C988 C990 1.419 . S
C989 C984 1.425 . S
C989 C986 1.409 . S
C989 C987 1.415 . S
C990 H980 0.930 . S
C990 C988 1.419 . S
C990 C991 1.362 . S
C991 H981 0.930 . S
C991 C984 1.409 . S
C991 C990 1.362 . S
H992 C998 0.930 . S
H993 C1001 0.930 . S
H994 C1002 0.930 . S
H995 C1003 0.930 . S
H996 C1006 0.930 . S
H997 C1007 0.930 . S
C998 H992 0.930 . S
C998 C999 1.355 . S
C998 C1000 1.415 . S
C999 C998 1.355 . S
C999 C1001 1.419 . S
C1000 C998 1.415 . S
C1000 C1005 1.425 . S
C1000 C1007 1.409 . S
C1001 H993 0.930 . S
C1001 C999 1.419 . S
C1001 C1002 1.362 . S
C1002 H994 0.930 . S
C1002 C1001 1.362 . S
C1002 C1005 1.409 . S
C1003 H995 0.930 . S
C1003 C1004 1.355 . S
C1003 C1005 1.415 . S
C1004 C1003 1.355 . S
C1004 C1006 1.419 . S
C1005 C1000 1.425 . S
C1005 C1002 1.409 . S
C1005 C1003 1.415 . S
C1006 H996 0.930 . S
C1006 C1004 1.419 . S
C1006 C1007 1.362 . S
C1007 H997 0.930 . S
C1007 C1000 1.409 . S
C1007 C1006 1.362 . S
H1008 C1014 0.930 . S
H1009 C1017 0.930 . S
H1010 C1018 0.930 . S
H1011 C1019 0.930 . S
H1012 C1022 0.930 . S
H1013 C1023 0.930 . S
C1014 H1008 0.930 . S
C1014 C1015 1.355 . S
C1014 C1016 1.415 . S
C1015 C1014 1.355 . S
C1015 C1017 1.419 . S
C1016 C1014 1.415 . S
C1016 C1021 1.425 . S
C1016 C1023 1.409 . S
C1017 H1009 0.930 . S
C1017 C1015 1.419 . S
C1017 C1018 1.362 . S
C1018 H1010 0.930 . S
C1018 C1017 1.362 . S
C1018 C1021 1.409 . S
C1019 H1011 0.930 . S
C1019 C1020 1.355 . S
C1019 C1021 1.415 . S
C1020 C1019 1.355 . S
C1020 C1022 1.419 . S
C1021 C1016 1.425 . S
C1021 C1018 1.409 . S
C1021 C1019 1.415 . S
C1022 H1012 0.930 . S
C1022 C1020 1.419 . S
C1022 C1023 1.362 . S
C1023 H1013 0.930 . S
C1023 C1016 1.409 . S
C1023 C1022 1.362 . S
H1024 C1030 0.930 . S
H1025 C1033 0.930 . S
H1026 C1034 0.930 . S
H1027 C1035 0.930 . S
H1028 C1038 0.930 . S
H1029 C1039 0.930 . S
C1030 H1024 0.930 . S
C1030 C1031 1.355 . S
C1030 C1032 1.415 . S
C1031 C1030 1.355 . S
C1031 C1033 1.419 . S
C1032 C1030 1.415 . S
C1032 C1037 1.425 . S
C1032 C1039 1.409 . S
C1033 H1025 0.930 . S
C1033 C1031 1.419 . S
C1033 C1034 1.362 . S
C1034 H1026 0.930 . S
C1034 C1033 1.362 . S
C1034 C1037 1.409 . S
C1035 H1027 0.930 . S
C1035 C1036 1.355 . S
C1035 C1037 1.415 . S
C1036 C1035 1.355 . S
C1036 C1038 1.419 . S
C1037 C1032 1.425 . S
C1037 C1034 1.409 . S
C1037 C1035 1.415 . S
C1038 H1028 0.930 . S
C1038 C1036 1.419 . S
C1038 C1039 1.362 . S
C1039 H1029 0.930 . S
C1039 C1032 1.409 . S
C1039 C1038 1.362 . S
H1040 C1046 0.930 . S
H1041 C1049 0.930 . S
H1042 C1050 0.930 . S
H1043 C1051 0.930 . S
H1044 C1054 0.930 . S
H1045 C1055 0.930 . S
C1046 H1040 0.930 . S
C1046 C1047 1.355 . S
C1046 C1048 1.415 . S
C1047 C1046 1.355 . S
C1047 C1049 1.419 . S
C1048 C1046 1.415 . S
C1048 C1053 1.425 . S
C1048 C1055 1.409 . S
C1049 H1041 0.930 . S
C1049 C1047 1.419 . S
C1049 C1050 1.362 . S
C1050 H1042 0.930 . S
C1050 C1049 1.362 . S
C1050 C1053 1.409 . S
C1051 H1043 0.930 . S
C1051 C1052 1.355 . S
C1051 C1053 1.415 . S
C1052 C1051 1.355 . S
C1052 C1054 1.419 . S
C1053 C1048 1.425 . S
C1053 C1050 1.409 . S
C1053 C1051 1.415 . S
C1054 H1044 0.930 . S
C1054 C1052 1.419 . S
C1054 C1055 1.362 . S
C1055 H1045 0.930 . S
C1055 C1048 1.409 . S
C1055 C1054 1.362 . S
H1056 C1062 0.930 . S
H1057 C1065 0.930 . S
H1058 C1066 0.930 . S
H1059 C1067 0.930 . S
H1060 C1070 0.930 . S
H1061 C1071 0.930 . S
C1062 H1056 0.930 . S
C1062 C1063 1.355 . S
C1062 C1064 1.415 . S
C1063 C1062 1.355 . S
C1063 C1065 1.419 . S
C1064 C1062 1.415 . S
C1064 C1069 1.425 . S
C1064 C1071 1.409 . S
C1065 H1057 0.930 . S
C1065 C1063 1.419 . S
C1065 C1066 1.362 . S
C1066 H1058 0.930 . S
C1066 C1065 1.362 . S
C1066 C1069 1.409 . S
C1067 H1059 0.930 . S
C1067 C1068 1.355 . S
C1067 C1069 1.415 . S
C1068 C1067 1.355 . S
C1068 C1070 1.419 . S
C1069 C1064 1.425 . S
C1069 C1066 1.409 . S
C1069 C1067 1.415 . S
C1070 H1060 0.930 . S
C1070 C1068 1.419 . S
C1070 C1071 1.362 . S
C1071 H1061 0.930 . S
C1071 C1064 1.409 . S
C1071 C1070 1.362 . S
H1072 C1078 0.930 . S
H1073 C1081 0.930 . S
H1074 C1082 0.930 . S
H1075 C1083 0.930 . S
H1076 C1086 0.930 . S
H1077 C1087 0.930 . S
C1078 H1072 0.930 . S
C1078 C1079 1.355 . S
C1078 C1080 1.415 . S
C1079 C1078 1.355 . S
C1079 C1081 1.419 . S
C1080 C1078 1.415 . S
C1080 C1085 1.425 . S
C1080 C1087 1.409 . S
C1081 H1073 0.930 . S
C1081 C1079 1.419 . S
C1081 C1082 1.362 . S
C1082 H1074 0.930 . S
C1082 C1081 1.362 . S
C1082 C1085 1.409 . S
C1083 H1075 0.930 . S
C1083 C1084 1.355 . S
C1083 C1085 1.415 . S
C1084 C1083 1.355 . S
C1084 C1086 1.419 . S
C1085 C1080 1.425 . S
C1085 C1082 1.409 . S
C1085 C1083 1.415 . S
C1086 H1076 0.930 . S
C1086 C1084 1.419 . S
C1086 C1087 1.362 . S
C1087 H1077 0.930 . S
C1087 C1080 1.409 . S
C1087 C1086 1.362 . S
H1088 C1094 0.930 . S
H1089 C1097 0.930 . S
H1090 C1098 0.930 . S
H1091 C1099 0.930 . S
H1092 C1102 0.930 . S
H1093 C1103 0.930 . S
C1094 H1088 0.930 . S
C1094 C1095 1.355 . S
C1094 C1096 1.415 . S
C1095 C1094 1.355 . S
C1095 C1097 1.419 . S
C1096 C1094 1.415 . S
C1096 C1101 1.425 . S
C1096 C1103 1.409 . S
C1097 H1089 0.930 . S
C1097 C1095 1.419 . S
C1097 C1098 1.362 . S
C1098 H1090 0.930 . S
C1098 C1097 1.362 . S
C1098 C1101 1.409 . S
C1099 H1091 0.930 . S
C1099 C1100 1.355 . S
C1099 C1101 1.415 . S
C1100 C1099 1.355 . S
C1100 C1102 1.419 . S
C1101 C1096 1.425 . S
C1101 C1098 1.409 . S
C1101 C1099 1.415 . S
C1102 H1092 0.930 . S
C1102 C1100 1.419 . S
C1102 C1103 1.362 . S
C1103 H1093 0.930 . S
C1103 C1096 1.409 . S
C1103 C1102 1.362 . S
H1104 C1110 0.930 . S
H1105 C1113 0.930 . S
H1106 C1114 0.930 . S
H1107 C1115 0.930 . S
H1108 C1118 0.930 . S
H1109 C1119 0.930 . S
C1110 H1104 0.930 . S
C1110 C1111 1.355 . S
C1110 C1112 1.415 . S
C1111 C1110 1.355 . S
C1111 C1113 1.419 . S
C1112 C1110 1.415 . S
C1112 C1117 1.425 . S
C1112 C1119 1.409 . S
C1113 H1105 0.930 . S
C1113 C1111 1.419 . S
C1113 C1114 1.362 . S
C1114 H1106 0.930 . S
C1114 C1113 1.362 . S
C1114 C1117 1.409 . S
C1115 H1107 0.930 . S
C1115 C1116 1.355 . S
C1115 C1117 1.415 . S
C1116 C1115 1.355 . S
C1116 C1118 1.419 . S
C1117 C1112 1.425 . S
C1117 C1114 1.409 . S
C1117 C1115 1.415 . S
C1118 H1108 0.930 . S
C1118 C1116 1.419 . S
C1118 C1119 1.362 . S
C1119 H1109 0.930 . S
C1119 C1112 1.409 . S
C1119 C1118 1.362 . S
H1120 C1126 0.930 . S
H1121 C1129 0.930 . S
H1122 C1130 0.930 . S
H1123 C1131 0.930 . S
H1124 C1134 0.930 . S
H1125 C1135 0.930 . S
C1126 H1120 0.930 . S
C1126 C1127 1.355 . S
C1126 C1128 1.415 . S
C1127 C1126 1.355 . S
C1127 C1129 1.419 . S
C1128 C1126 1.415 . S
C1128 C1133 1.425 . S
C1128 C1135 1.409 . S
C1129 H1121 0.930 . S
C1129 C1127 1.419 . S
C1129 C1130 1.362 . S
C1130 H1122 0.930 . S
C1130 C1129 1.362 . S
C1130 C1133 1.409 . S
C1131 H1123 0.930 . S
C1131 C1132 1.355 . S
C1131 C1133 1.415 . S
C1132 C1131 1.355 . S
C1132 C1134 1.419 . S
C1133 C1128 1.425 . S
C1133 C1130 1.409 . S
C1133 C1131 1.415 . S
C1134 H1124 0.930 . S
C1134 C1132 1.419 . S
C1134 C1135 1.362 . S
C1135 H1125 0.930 . S
C1135 C1128 1.409 . S
C1135 C1134 1.362 . S
H1136 C1142 0.930 . S
H1137 C1145 0.930 . S
H1138 C1146 0.930 . S
H1139 C1147 0.930 . S
H1140 C1150 0.930 . S
H1141 C1151 0.930 . S
C1142 H1136 0.930 . S
C1142 C1143 1.355 . S
C1142 C1144 1.415 . S
C1143 C1142 1.355 . S
C1143 C1145 1.419 . S
C1144 C1142 1.415 . S
C1144 C1149 1.425 . S
C1144 C1151 1.409 . S
C1145 H1137 0.930 . S
C1145 C1143 1.419 . S
C1145 C1146 1.362 . S
C1146 H1138 0.930 . S
C1146 C1145 1.362 . S
C1146 C1149 1.409 . S
C1147 H1139 0.930 . S
C1147 C1148 1.355 . S
C1147 C1149 1.415 . S
C1148 C1147 1.355 . S
C1148 C1150 1.419 . S
C1149 C1144 1.425 . S
C1149 C1146 1.409 . S
C1149 C1147 1.415 . S
C1150 H1140 0.930 . S
C1150 C1148 1.419 . S
C1150 C1151 1.362 . S
C1151 H1141 0.930 . S
C1151 C1144 1.409 . S
C1151 C1150 1.362 . S
H1152 C1158 0.930 . S
H1153 C1161 0.930 . S
H1154 C1162 0.930 . S
H1155 C1163 0.930 . S
H1156 C1166 0.930 . S
H1157 C1167 0.930 . S
C1158 H1152 0.930 . S
C1158 C1159 1.355 . S
C1158 C1160 1.415 . S
C1159 C1158 1.355 . S
C1159 C1161 1.419 . S
C1160 C1158 1.415 . S
C1160 C1165 1.425 . S
C1160 C1167 1.409 . S
C1161 H1153 0.930 . S
C1161 C1159 1.419 . S
C1161 C1162 1.362 . S
C1162 H1154 0.930 . S
C1162 C1161 1.362 . S
C1162 C1165 1.409 . S
C1163 H1155 0.930 . S
C1163 C1164 1.355 . S
C1163 C1165 1.415 . S
C1164 C1163 1.355 . S
C1164 C1166 1.419 . S
C1165 C1160 1.425 . S
C1165 C1162 1.409 . S
C1165 C1163 1.415 . S
C1166 H1156 0.930 . S
C1166 C1164 1.419 . S
C1166 C1167 1.362 . S
C1167 H1157 0.930 . S
C1167 C1160 1.409 . S
C1167 C1166 1.362 . S
H1168 C1174 0.930 . S
H1169 C1177 0.930 . S
H1170 C1178 0.930 . S
H1171 C1179 0.930 . S
H1172 C1182 0.930 . S
H1173 C1183 0.930 . S
C1174 H1168 0.930 . S
C1174 C1175 1.355 . S
C1174 C1176 1.415 . S
C1175 C1174 1.355 . S
C1175 C1177 1.419 . S
C1176 C1174 1.415 . S
C1176 C1181 1.425 . S
C1176 C1183 1.409 . S
C1177 H1169 0.930 . S
C1177 C1175 1.419 . S
C1177 C1178 1.362 . S
C1178 H1170 0.930 . S
C1178 C1177 1.362 . S
C1178 C1181 1.409 . S
C1179 H1171 0.930 . S
C1179 C1180 1.355 . S
C1179 C1181 1.415 . S
C1180 C1179 1.355 . S
C1180 C1182 1.419 . S
C1181 C1176 1.425 . S
C1181 C1178 1.409 . S
C1181 C1179 1.415 . S
C1182 H1172 0.930 . S
C1182 C1180 1.419 . S
C1182 C1183 1.362 . S
C1183 H1173 0.930 . S
C1183 C1176 1.409 . S
C1183 C1182 1.362 . S
H1184 C1190 0.930 . S
H1185 C1193 0.930 . S
H1186 C1194 0.930 . S
H1187 C1195 0.930 . S
H1188 C1198 0.930 . S
H1189 C1199 0.930 . S
C1190 H1184 0.930 . S
C1190 C1191 1.355 . S
C1190 C1192 1.415 . S
C1191 C1190 1.355 . S
C1191 C1193 1.419 . S
C1192 C1190 1.415 . S
C1192 C1197 1.425 . S
C1192 C1199 1.409 . S
C1193 H1185 0.930 . S
C1193 C1191 1.419 . S
C1193 C1194 1.362 . S
C1194 H1186 0.930 . S
C1194 C1193 1.362 . S
C1194 C1197 1.409 . S
C1195 H1187 0.930 . S
C1195 C1196 1.355 . S
C1195 C1197 1.415 . S
C1196 C1195 1.355 . S
C1196 C1198 1.419 . S
C1197 C1192 1.425 . S
C1197 C1194 1.409 . S
C1197 C1195 1.415 . S
C1198 H1188 0.930 . S
C1198 C1196 1.419 . S
C1198 C1199 1.362 . S
C1199 H1189 0.930 . S
C1199 C1192 1.409 . S
C1199 C1198 1.362 . S
H1200 C1206 0.930 . S
H1201 C1209 0.930 . S
H1202 C1210 0.930 . S
H1203 C1211 0.930 . S
H1204 C1214 0.930 . S
H1205 C1215 0.930 . S
C1206 H1200 0.930 . S
C1206 C1207 1.355 . S
C1206 C1208 1.415 . S
C1207 C1206 1.355 . S
C1207 C1209 1.419 . S
C1208 C1206 1.415 . S
C1208 C1213 1.425 . S
C1208 C1215 1.409 . S
C1209 H1201 0.930 . S
C1209 C1207 1.419 . S
C1209 C1210 1.362 . S
C1210 H1202 0.930 . S
C1210 C1209 1.362 . S
C1210 C1213 1.409 . S
C1211 H1203 0.930 . S
C1211 C1212 1.355 . S
C1211 C1213 1.415 . S
C1212 C1211 1.355 . S
C1212 C1214 1.419 . S
C1213 C1208 1.425 . S
C1213 C1210 1.409 . S
C1213 C1211 1.415 . S
C1214 H1204 0.930 . S
C1214 C1212 1.419 . S
C1214 C1215 1.362 . S
C1215 H1205 0.930 . S
C1215 C1208 1.409 . S
C1215 C1214 1.362 . S
H1216 C1222 0.930 . S
H1217 C1225 0.930 . S
H1218 C1226 0.930 . S
H1219 C1227 0.930 . S
H1220 C1230 0.930 . S
H1221 C1231 0.930 . S
C1222 H1216 0.930 . S
C1222 C1223 1.355 . S
C1222 C1224 1.415 . S
C1223 C1222 1.355 . S
C1223 C1225 1.419 . S
C1224 C1222 1.415 . S
C1224 C1229 1.425 . S
C1224 C1231 1.409 . S
C1225 H1217 0.930 . S
C1225 C1223 1.419 . S
C1225 C1226 1.362 . S
C1226 H1218 0.930 . S
C1226 C1225 1.362 . S
C1226 C1229 1.409 . S
C1227 H1219 0.930 . S
C1227 C1228 1.355 . S
C1227 C1229 1.415 . S
C1228 C1227 1.355 . S
C1228 C1230 1.419 . S
C1229 C1224 1.425 . S
C1229 C1226 1.409 . S
C1229 C1227 1.415 . S
C1230 H1220 0.930 . S
C1230 C1228 1.419 . S
C1230 C1231 1.362 . S
C1231 H1221 0.930 . S
C1231 C1224 1.409 . S
C1231 C1230 1.362 . S
H1232 C1238 0.930 . S
H1233 C1241 0.930 . S
H1234 C1242 0.930 . S
H1235 C1243 0.930 . S
H1236 C1246 0.930 . S
H1237 C1247 0.930 . S
C1238 H1232 0.930 . S
C1238 C1239 1.355 . S
C1238 C1240 1.415 . S
C1239 C1238 1.355 . S
C1239 C1241 1.419 . S
C1240 C1238 1.415 . S
C1240 C1245 1.425 . S
C1240 C1247 1.409 . S
C1241 H1233 0.930 . S
C1241 C1239 1.419 . S
C1241 C1242 1.362 . S
C1242 H1234 0.930 . S
C1242 C1241 1.362 . S
C1242 C1245 1.409 . S
C1243 H1235 0.930 . S
C1243 C1244 1.355 . S
C1243 C1245 1.415 . S
C1244 C1243 1.355 . S
C1244 C1246 1.419 . S
C1245 C1240 1.425 . S
C1245 C1242 1.409 . S
C1245 C1243 1.415 . S
C1246 H1236 0.930 . S
C1246 C1244 1.419 . S
C1246 C1247 1.362 . S
C1247 H1237 0.930 . S
C1247 C1240 1.409 . S
C1247 C1246 1.362 . S
H1248 C1254 0.930 . S
H1249 C1257 0.930 . S
H1250 C1258 0.930 . S
H1251 C1259 0.930 . S
H1252 C1262 0.930 . S
H1253 C1263 0.930 . S
C1254 H1248 0.930 . S
C1254 C1255 1.355 . S
C1254 C1256 1.415 . S
C1255 C1254 1.355 . S
C1255 C1257 1.419 . S
C1256 C1254 1.415 . S
C1256 C1261 1.425 . S
C1256 C1263 1.409 . S
C1257 H1249 0.930 . S
C1257 C1255 1.419 . S
C1257 C1258 1.362 . S
C1258 H1250 0.930 . S
C1258 C1257 1.362 . S
C1258 C1261 1.409 . S
C1259 H1251 0.930 . S
C1259 C1260 1.355 . S
C1259 C1261 1.415 . S
C1260 C1259 1.355 . S
C1260 C1262 1.419 . S
C1261 C1256 1.425 . S
C1261 C1258 1.409 . S
C1261 C1259 1.415 . S
C1262 H1252 0.930 . S
C1262 C1260 1.419 . S
C1262 C1263 1.362 . S
C1263 H1253 0.930 . S
C1263 C1256 1.409 . S
C1263 C1262 1.362 . S
H1264 C1270 0.930 . S
H1265 C1273 0.930 . S
H1266 C1274 0.930 . S
H1267 C1275 0.930 . S
H1268 C1278 0.930 . S
H1269 C1279 0.930 . S
C1270 H1264 0.930 . S
C1270 C1271 1.355 . S
C1270 C1272 1.415 . S
C1271 C1270 1.355 . S
C1271 C1273 1.419 . S
C1272 C1270 1.415 . S
C1272 C1277 1.425 . S
C1272 C1279 1.409 . S
C1273 H1265 0.930 . S
C1273 C1271 1.419 . S
C1273 C1274 1.362 . S
C1274 H1266 0.930 . S
C1274 C1273 1.362 . S
C1274 C1277 1.409 . S
C1275 H1267 0.930 . S
C1275 C1276 1.355 . S
C1275 C1277 1.415 . S
C1276 C1275 1.355 . S
C1276 C1278 1.419 . S
C1277 C1272 1.425 . S
C1277 C1274 1.409 . S
C1277 C1275 1.415 . S
C1278 H1268 0.930 . S
C1278 C1276 1.419 . S
C1278 C1279 1.362 . S
C1279 H1269 0.930 . S
C1279 C1272 1.409 . S
C1279 C1278 1.362 . S
H1280 C1286 0.930 . S
H1281 C1289 0.930 . S
H1282 C1290 0.930 . S
H1283 C1291 0.930 . S
H1284 C1294 0.930 . S
H1285 C1295 0.930 . S
C1286 H1280 0.930 . S
C1286 C1287 1.355 . S
C1286 C1288 1.415 . S
C1287 C1286 1.355 . S
C1287 C1289 1.419 . S
C1288 C1286 1.415 . S
C1288 C1293 1.425 . S
C1288 C1295 1.409 . S
C1289 H1281 0.930 . S
C1289 C1287 1.419 . S
C1289 C1290 1.362 . S
C1290 H1282 0.930 . S
C1290 C1289 1.362 . S
C1290 C1293 1.409 . S
C1291 H1283 0.930 . S
C1291 C1292 1.355 . S
C1291 C1293 1.415 . S
C1292 C1291 1.355 . S
C1292 C1294 1.419 . S
C1293 C1288 1.425 . S
C1293 C1290 1.409 . S
C1293 C1291 1.415 . S
C1294 H1284 0.930 . S
C1294 C1292 1.419 . S
C1294 C1295 1.362 . S
C1295 H1285 0.930 . S
C1295 C1288 1.409 . S
C1295 C1294 1.362 . S
H1296 C1302 0.930 . S
H1297 C1305 0.930 . S
H1298 C1306 0.930 . S
H1299 C1307 0.930 . S
H1300 C1310 0.930 . S
H1301 C1311 0.930 . S
C1302 H1296 0.930 . S
C1302 C1303 1.355 . S
C1302 C1304 1.415 . S
C1303 C1302 1.355 . S
C1303 C1305 1.419 . S
C1304 C1302 1.415 . S
C1304 C1309 1.425 . S
C1304 C1311 1.409 . S
C1305 H1297 0.930 . S
C1305 C1303 1.419 . S
C1305 C1306 1.362 . S
C1306 H1298 0.930 . S
C1306 C1305 1.362 . S
C1306 C1309 1.409 . S
C1307 H1299 0.930 . S
C1307 C1308 1.355 . S
C1307 C1309 1.415 . S
C1308 C1307 1.355 . S
C1308 C1310 1.419 . S
C1309 C1304 1.425 . S
C1309 C1306 1.409 . S
C1309 C1307 1.415 . S
C1310 H1300 0.930 . S
C1310 C1308 1.419 . S
C1310 C1311 1.362 . S
C1311 H1301 0.930 . S
C1311 C1304 1.409 . S
C1311 C1310 1.362 . S
H1312 C1318 0.930 . S
H1313 C1321 0.930 . S
H1314 C1322 0.930 . S
H1315 C1323 0.930 . S
H1316 C1326 0.930 . S
H1317 C1327 0.930 . S
C1318 H1312 0.930 . S
C1318 C1319 1.355 . S
C1318 C1320 1.415 . S
C1319 C1318 1.355 . S
C1319 C1321 1.419 . S
C1320 C1318 1.415 . S
C1320 C1325 1.425 . S
C1320 C1327 1.409 . S
C1321 H1313 0.930 . S
C1321 C1319 1.419 . S
C1321 C1322 1.362 . S
C1322 H1314 0.930 . S
C1322 C1321 1.362 . S
C1322 C1325 1.409 . S
C1323 H1315 0.930 . S
C1323 C1324 1.355 . S
C1323 C1325 1.415 . S
C1324 C1323 1.355 . S
C1324 C1326 1.419 . S
C1325 C1320 1.425 . S
C1325 C1322 1.409 . S
C1325 C1323 1.415 . S
C1326 H1316 0.930 . S
C1326 C1324 1.419 . S
C1326 C1327 1.362 . S
C1327 H1317 0.930 . S
C1327 C1320 1.409 . S
C1327 C1326 1.362 . S
H1328 C1334 0.930 . S
H1329 C1337 0.930 . S
H1330 C1338 0.930 . S
H1331 C1339 0.930 . S
H1332 C1342 0.930 . S
H1333 C1343 0.930 . S
C1334 H1328 0.930 . S
C1334 C1335 1.355 . S
C1334 C1336 1.415 . S
C1335 C1334 1.355 . S
C1335 C1337 1.419 . S
C1336 C1334 1.415 . S
C1336 C1341 1.425 . S
C1336 C1343 1.409 . S
C1337 H1329 0.930 . S
C1337 C1335 1.419 . S
C1337 C1338 1.362 . S
C1338 H1330 0.930 . S
C1338 C1337 1.362 . S
C1338 C1341 1.409 . S
C1339 H1331 0.930 . S
C1339 C1340 1.355 . S
C1339 C1341 1.415 . S
C1340 C1339 1.355 . S
C1340 C1342 1.419 . S
C1341 C1336 1.425 . S
C1341 C1338 1.409 . S
C1341 C1339 1.415 . S
C1342 H1332 0.930 . S
C1342 C1340 1.419 . S
C1342 C1343 1.362 . S
C1343 H1333 0.930 . S
C1343 C1336 1.409 . S
C1343 C1342 1.362 . S
H1344 C1350 0.930 . S
H1345 C1353 0.930 . S
H1346 C1354 0.930 . S
H1347 C1355 0.930 . S
H1348 C1358 0.930 . S
H1349 C1359 0.930 . S
C1350 H1344 0.930 . S
C1350 C1351 1.355 . S
C1350 C1352 1.415 . S
C1351 C1350 1.355 . S
C1351 C1353 1.419 . S
C1352 C1350 1.415 . S
C1352 C1357 1.425 . S
C1352 C1359 1.409 . S
C1353 H1345 0.930 . S
C1353 C1351 1.419 . S
C1353 C1354 1.362 . S
C1354 H1346 0.930 . S
C1354 C1353 1.362 . S
C1354 C1357 1.409 . S
C1355 H1347 0.930 . S
C1355 C1356 1.355 . S
C1355 C1357 1.415 . S
C1356 C1355 1.355 . S
C1356 C1358 1.419 . S
C1357 C1352 1.425 . S
C1357 C1354 1.409 . S
C1357 C1355 1.415 . S
C1358 H1348 0.930 . S
C1358 C1356 1.419 . S
C1358 C1359 1.362 . S
C1359 H1349 0.930 . S
C1359 C1352 1.409 . S
C1359 C1358 1.362 . S
H1360 C1366 0.930 . S
H1361 C1369 0.930 . S
H1362 C1370 0.930 . S
H1363 C1371 0.930 . S
H1364 C1374 0.930 . S
H1365 C1375 0.930 . S
C1366 H1360 0.930 . S
C1366 C1367 1.355 . S
C1366 C1368 1.415 . S
C1367 C1366 1.355 . S
C1367 C1369 1.419 . S
C1368 C1366 1.415 . S
C1368 C1373 1.425 . S
C1368 C1375 1.409 . S
C1369 H1361 0.930 . S
C1369 C1367 1.419 . S
C1369 C1370 1.362 . S
C1370 H1362 0.930 . S
C1370 C1369 1.362 . S
C1370 C1373 1.409 . S
C1371 H1363 0.930 . S
C1371 C1372 1.355 . S
C1371 C1373 1.415 . S
C1372 C1371 1.355 . S
C1372 C1374 1.419 . S
C1373 C1368 1.425 . S
C1373 C1370 1.409 . S
C1373 C1371 1.415 . S
C1374 H1364 0.930 . S
C1374 C1372 1.419 . S
C1374 C1375 1.362 . S
C1375 H1365 0.930 . S
C1375 C1368 1.409 . S
C1375 C1374 1.362 . S
H1376 C1382 0.930 . S
H1377 C1385 0.930 . S
H1378 C1386 0.930 . S
H1379 C1387 0.930 . S
H1380 C1390 0.930 . S
H1381 C1391 0.930 . S
C1382 H1376 0.930 . S
C1382 C1383 1.355 . S
C1382 C1384 1.415 . S
C1383 C1382 1.355 . S
C1383 C1385 1.419 . S
C1384 C1382 1.415 . S
C1384 C1389 1.425 . S
C1384 C1391 1.409 . S
C1385 H1377 0.930 . S
C1385 C1383 1.419 . S
C1385 C1386 1.362 . S
C1386 H1378 0.930 . S
C1386 C1385 1.362 . S
C1386 C1389 1.409 . S
C1387 H1379 0.930 . S
C1387 C1388 1.355 . S
C1387 C1389 1.415 . S
C1388 C1387 1.355 . S
C1388 C1390 1.419 . S
C1389 C1384 1.425 . S
C1389 C1386 1.409 . S
C1389 C1387 1.415 . S
C1390 H1380 0.930 . S
C1390 C1388 1.419 . S
C1390 C1391 1.362 . S
C1391 H1381 0.930 . S
C1391 C1384 1.409 . S
C1391 C1390 1.362 . S
H1392 C1398 0.930 . S
H1393 C1401 0.930 . S
H1394 C1402 0.930 . S
H1395 C1403 0.930 . S
H1396 C1406 0.930 . S
H1397 C1407 0.930 . S
C1398 H1392 0.930 . S
C1398 C1399 1.355 . S
C1398 C1400 1.415 . S
C1399 C1398 1.355 . S
C1399 C1401 1.419 . S
C1400 C1398 1.415 . S
C1400 C1405 1.425 . S
C1400 C1407 1.409 . S
C1401 H1393 0.930 . S
C1401 C1399 1.419 . S
C1401 C1402 1.362 . S
C1402 H1394 0.930 . S
C1402 C1401 1.362 . S
C1402 C1405 1.409 . S
C1403 H1395 0.930 . S
C1403 C1404 1.355 . S
C1403 C1405 1.415 . S
C1404 C1403 1.355 . S
C1404 C1406 1.419 . S
C1405 C1400 1.425 . S
C1405 C1402 1.409 . S
C1405 C1403 1.415 . S
C1406 H1396 0.930 . S
C1406 C1404 1.419 . S
C1406 C1407 1.362 . S
C1407 H1397 0.930 . S
C1407 C1400 1.409 . S
C1407 C1406 1.362 . S
H1408 C1414 0.930 . S
H1409 C1417 0.930 . S
H1410 C1418 0.930 . S
H1411 C1419 0.930 . S
H1412 C1422 0.930 . S
H1413 C1423 0.930 . S
C1414 H1408 0.930 . S
C1414 C1415 1.355 . S
C1414 C1416 1.415 . S
C1415 C1414 1.355 . S
C1415 C1417 1.419 . S
C1416 C1414 1.415 . S
C1416 C1421 1.425 . S
C1416 C1423 1.409 . S
C1417 H1409 0.930 . S
C1417 C1415 1.419 . S
C1417 C1418 1.362 . S
C1418 H1410 0.930 . S
C1418 C1417 1.362 . S
C1418 C1421 1.409 . S
C1419 H1411 0.930 . S
C1419 C1420 1.355 . S
C1419 C1421 1.415 . S
C1420 C1419 1.355 . S
C1420 C1422 1.419 . S
C1421 C1416 1.425 . S
C1421 C1418 1.409 . S
C1421 C1419 1.415 . S
C1422 H1412 0.930 . S
C1422 C1420 1.419 . S
C1422 C1423 1.362 . S
C1423 H1413 0.930 . S
C1423 C1416 1.409 . S
C1423 C1422 1.362 . S
H1424 C1430 0.930 . S
H1425 C1433 0.930 . S
H1426 C1434 0.930 . S
H1427 C1435 0.930 . S
H1428 C1438 0.930 . S
H1429 C1439 0.930 . S
C1430 H1424 0.930 . S
C1430 C1431 1.355 . S
C1430 C1432 1.415 . S
C1431 C1430 1.355 . S
C1431 C1433 1.419 . S
C1432 C1430 1.415 . S
C1432 C1437 1.425 . S
C1432 C1439 1.409 . S
C1433 H1425 0.930 . S
C1433 C1431 1.419 . S
C1433 C1434 1.362 . S
C1434 H1426 0.930 . S
C1434 C1433 1.362 . S
C1434 C1437 1.409 . S
C1435 H1427 0.930 . S
C1435 C1436 1.355 . S
C1435 C1437 1.415 . S
C1436 C1435 1.355 . S
C1436 C1438 1.419 . S
C1437 C1432 1.425 . S
C1437 C1434 1.409 . S
C1437 C1435 1.415 . S
C1438 H1428 0.930 . S
C1438 C1436 1.419 . S
C1438 C1439 1.362 . S
C1439 H1429 0.930 . S
C1439 C1432 1.409 . S
C1439 C1438 1.362 . S
H1440 C1446 0.930 . S
H1441 C1449 0.930 . S
H1442 C1450 0.930 . S
H1443 C1451 0.930 . S
H1444 C1454 0.930 . S
H1445 C1455 0.930 . S
C1446 H1440 0.930 . S
C1446 C1447 1.355 . S
C1446 C1448 1.415 . S
C1447 C1446 1.355 . S
C1447 C1449 1.419 . S
C1448 C1446 1.415 . S
C1448 C1453 1.425 . S
C1448 C1455 1.409 . S
C1449 H1441 0.930 . S
C1449 C1447 1.419 . S
C1449 C1450 1.362 . S
C1450 H1442 0.930 . S
C1450 C1449 1.362 . S
C1450 C1453 1.409 . S
C1451 H1443 0.930 . S
C1451 C1452 1.355 . S
C1451 C1453 1.415 . S
C1452 C1451 1.355 . S
C1452 C1454 1.419 . S
C1453 C1448 1.425 . S
C1453 C1450 1.409 . S
C1453 C1451 1.415 . S
C1454 H1444 0.930 . S
C1454 C1452 1.419 . S
C1454 C1455 1.362 . S
C1455 H1445 0.930 . S
C1455 C1448 1.409 . S
C1455 C1454 1.362 . S
H1456 C1462 0.930 . S
H1457 C1465 0.930 . S
H1458 C1466 0.930 . S
H1459 C1467 0.930 . S
H1460 C1470 0.930 . S
H1461 C1471 0.930 . S
C1462 H1456 0.930 . S
C1462 C1463 1.355 . S
C1462 C1464 1.415 . S
C1463 C1462 1.355 . S
C1463 C1465 1.419 . S
C1464 C1462 1.415 . S
C1464 C1469 1.425 . S
C1464 C1471 1.409 . S
C1465 H1457 0.930 . S
C1465 C1463 1.419 . S
C1465 C1466 1.362 . S
C1466 H1458 0.930 . S
C1466 C1465 1.362 . S
C1466 C1469 1.409 . S
C1467 H1459 0.930 . S
C1467 C1468 1.355 . S
C1467 C1469 1.415 . S
C1468 C1467 1.355 . S
C1468 C1470 1.419 . S
C1469 C1464 1.425 . S
C1469 C1466 1.409 . S
C1469 C1467 1.415 . S
C1470 H1460 0.930 . S
C1470 C1468 1.419 . S
C1470 C1471 1.362 . S
C1471 H1461 0.930 . S
C1471 C1464 1.409 . S
C1471 C1470 1.362 . S
H1472 C1478 0.930 . S
H1473 C1481 0.930 . S
H1474 C1482 0.930 . S
H1475 C1483 0.930 . S
H1476 C1486 0.930 . S
H1477 C1487 0.930 . S
C1478 H1472 0.930 . S
C1478 C1479 1.355 . S
C1478 C1480 1.415 . S
C1479 C1478 1.355 . S
C1479 C1481 1.419 . S
C1480 C1478 1.415 . S
C1480 C1485 1.425 . S
C1480 C1487 1.409 . S
C1481 H1473 0.930 . S
C1481 C1479 1.419 . S
C1481 C1482 1.362 . S
C1482 H1474 0.930 . S
C1482 C1481 1.362 . S
C1482 C1485 1.409 . S
C1483 H1475 0.930 . S
C1483 C1484 1.355 . S
C1483 C1485 1.415 . S
C1484 C1483 1.355 . S
C1484 C1486 1.419 . S
C1485 C1480 1.425 . S
C1485 C1482 1.409 . S
C1485 C1483 1.415 . S
C1486 H1476 0.930 . S
C1486 C1484 1.419 . S
C1486 C1487 1.362 . S
C1487 H1477 0.930 . S
C1487 C1480 1.409 . S
C1487 C1486 1.362 . S
H1488 C1494 0.930 . S
H1489 C1497 0.930 . S
H1490 C1498 0.930 . S
H1491 C1499 0.930 . S
H1492 C1502 0.930 . S
H1493 C1503 0.930 . S
C1494 H1488 0.930 . S
C1494 C1495 1.355 . S
C1494 C1496 1.415 . S
C1495 C1494 1.355 . S
C1495 C1497 1.419 . S
C1496 C1494 1.415 . S
C1496 C1501 1.425 . S
C1496 C1503 1.409 . S
C1497 H1489 0.930 . S
C1497 C1495 1.419 . S
C1497 C1498 1.362 . S
C1498 H1490 0.930 . S
C1498 C1497 1.362 . S
C1498 C1501 1.409 . S
C1499 H1491 0.930 . S
C1499 C1500 1.355 . S
C1499 C1501 1.415 . S
C1500 C1499 1.355 . S
C1500 C1502 1.419 . S
C1501 C1496 1.425 . S
C1501 C1498 1.409 . S
C1501 C1499 1.415 . S
C1502 H1492 0.930 . S
C1502 C1500 1.419 . S
C1502 C1503 1.362 . S
C1503 H1493 0.930 . S
C1503 C1496 1.409 . S
C1503 C1502 1.362 . S
H1504 C1510 0.930 . S
H1505 C1513 0.930 . S
H1506 C1514 0.930 . S
H1507 C1515 0.930 . S
H1508 C1518 0.930 . S
H1509 C1519 0.930 . S
C1510 H1504 0.930 . S
C1510 C1511 1.355 . S
C1510 C1512 1.415 . S
C1511 C1510 1.355 . S
C1511 C1513 1.419 . S
C1512 C1510 1.415 . S
C1512 C1517 1.425 . S
C1512 C1519 1.409 . S
C1513 H1505 0.930 . S
C1513 C1511 1.419 . S
C1513 C1514 1.362 . S
C1514 H1506 0.930 . S
C1514 C1513 1.362 . S
C1514 C1517 1.409 . S
C1515 H1507 0.930 . S
C1515 C1516 1.355 . S
C1515 C1517 1.415 . S
C1516 C1515 1.355 . S
C1516 C1518 1.419 . S
C1517 C1512 1.425 . S
C1517 C1514 1.409 . S
C1517 C1515 1.415 . S
C1518 H1508 0.930 . S
C1518 C1516 1.419 . S
C1518 C1519 1.362 . S
C1519 H1509 0.930 . S
C1519 C1512 1.409 . S
C1519 C1518 1.362 . S
H1520 C1526 0.930 . S
H1521 C1529 0.930 . S
H1522 C1530 0.930 . S
H1523 C1531 0.930 . S
H1524 C1534 0.930 . S
H1525 C1535 0.930 . S
C1526 H1520 0.930 . S
C1526 C1527 1.355 . S
C1526 C1528 1.415 . S
C1527 C1526 1.355 . S
C1527 C1529 1.419 . S
C1528 C1526 1.415 . S
C1528 C1533 1.425 . S
C1528 C1535 1.409 . S
C1529 H1521 0.930 . S
C1529 C1527 1.419 . S
C1529 C1530 1.362 . S
C1530 H1522 0.930 . S
C1530 C1529 1.362 . S
C1530 C1533 1.409 . S
C1531 H1523 0.930 . S
C1531 C1532 1.355 . S
C1531 C1533 1.415 . S
C1532 C1531 1.355 . S
C1532 C1534 1.419 . S
C1533 C1528 1.425 . S
C1533 C1530 1.409 . S
C1533 C1531 1.415 . S
C1534 H1524 0.930 . S
C1534 C1532 1.419 . S
C1534 C1535 1.362 . S
C1535 H1525 0.930 . S
C1535 C1528 1.409 . S
C1535 C1534 1.362 . S
H1536 C1542 0.930 . S
H1537 C1545 0.930 . S
H1538 C1546 0.930 . S
H1539 C1547 0.930 . S
H1540 C1550 0.930 . S
H1541 C1551 0.930 . S
C1542 H1536 0.930 . S
C1542 C1543 1.355 . S
C1542 C1544 1.415 . S
C1543 C1542 1.355 . S
C1543 C1545 1.419 . S
C1544 C1542 1.415 . S
C1544 C1549 1.425 . S
C1544 C1551 1.409 . S
C1545 H1537 0.930 . S
C1545 C1543 1.419 . S
C1545 C1546 1.362 . S
C1546 H1538 0.930 . S
C1546 C1545 1.362 . S
C1546 C1549 1.409 . S
C1547 H1539 0.930 . S
C1547 C1548 1.355 . S
C1547 C1549 1.415 . S
C1548 C1547 1.355 . S
C1548 C1550 1.419 . S
C1549 C1544 1.425 . S
C1549 C1546 1.409 . S
C1549 C1547 1.415 . S
C1550 H1540 0.930 . S
C1550 C1548 1.419 . S
C1550 C1551 1.362 . S
C1551 H1541 0.930 . S
C1551 C1544 1.409 . S
C1551 C1550 1.362 . S
H1552 C1558 0.930 . S
H1553 C1561 0.930 . S
H1554 C1562 0.930 . S
H1555 C1563 0.930 . S
H1556 C1566 0.930 . S
H1557 C1567 0.930 . S
C1558 H1552 0.930 . S
C1558 C1559 1.355 . S
C1558 C1560 1.415 . S
C1559 C1558 1.355 . S
C1559 C1561 1.419 . S
C1560 C1558 1.415 . S
C1560 C1565 1.425 . S
C1560 C1567 1.409 . S
C1561 H1553 0.930 . S
C1561 C1559 1.419 . S
C1561 C1562 1.362 . S
C1562 H1554 0.930 . S
C1562 C1561 1.362 . S
C1562 C1565 1.409 . S
C1563 H1555 0.930 . S
C1563 C1564 1.355 . S
C1563 C1565 1.415 . S
C1564 C1563 1.355 . S
C1564 C1566 1.419 . S
C1565 C1560 1.425 . S
C1565 C1562 1.409 . S
C1565 C1563 1.415 . S
C1566 H1556 0.930 . S
C1566 C1564 1.419 . S
C1566 C1567 1.362 . S
C1567 H1557 0.930 . S
C1567 C1560 1.409 . S
C1567 C1566 1.362 . S
H1568 C1574 0.930 . S
H1569 C1577 0.930 . S
H1570 C1578 0.930 . S
H1571 C1579 0.930 . S
H1572 C1582 0.930 . S
H1573 C1583 0.930 . S
C1574 H1568 0.930 . S
C1574 C1575 1.355 . S
C1574 C1576 1.415 . S
C1575 C1574 1.355 . S
C1575 C1577 1.419 . S
C1576 C1574 1.415 . S
C1576 C1581 1.425 . S
C1576 C1583 1.409 . S
C1577 H1569 0.930 . S
C1577 C1575 1.419 . S
C1577 C1578 1.362 . S
C1578 H1570 0.930 . S
C1578 C1577 1.362 . S
C1578 C1581 1.409 . S
C1579 H1571 0.930 . S
C1579 C1580 1.355 . S
C1579 C1581 1.415 . S
C1580 C1579 1.355 . S
C1580 C1582 1.419 . S
C1581 C1576 1.425 . S
C1581 C1578 1.409 . S
C1581 C1579 1.415 . S
C1582 H1572 0.930 . S
C1582 C1580 1.419 . S
C1582 C1583 1.362 . S
C1583 H1573 0.930 . S
C1583 C1576 1.409 . S
C1583 C1582 1.362 . S
H1584 C1590 0.930 . S
H1585 C1593 0.930 . S
H1586 C1594 0.930 . S
H1587 C1595 0.930 . S
H1588 C1598 0.930 . S
H1589 C1599 0.930 . S
C1590 H1584 0.930 . S
C1590 C1591 1.355 . S
C1590 C1592 1.415 . S
C1591 C1590 1.355 . S
C1591 C1593 1.419 . S
C1592 C1590 1.415 . S
C1592 C1597 1.425 . S
C1592 C1599 1.409 . S
C1593 H1585 0.930 . S
C1593 C1591 1.419 . S
C1593 C1594 1.362 . S
C1594 H1586 0.930 . S
C1594 C1593 1.362 . S
C1594 C1597 1.409 . S
C1595 H1587 0.930 . S
C1595 C1596 1.355 . S
C1595 C1597 1.415 . S
C1596 C1595 1.355 . S
C1596 C1598 1.419 . S
C1597 C1592 1.425 . S
C1597 C1594 1.409 . S
C1597 C1595 1.415 . S
C1598 H1588 0.930 . S
C1598 C1596 1.419 . S
C1598 C1599 1.362 . S
C1599 H1589 0.930 . S
C1599 C1592 1.409 . S
C1599 C1598 1.362 . S
H1600 C1606 0.930 . S
H1601 C1609 0.930 . S
H1602 C1610 0.930 . S
H1603 C1611 0.930 . S
H1604 C1614 0.930 . S
H1605 C1615 0.930 . S
C1606 H1600 0.930 . S
C1606 C1607 1.355 . S
C1606 C1608 1.415 . S
C1607 C1606 1.355 . S
C1607 C1609 1.419 . S
C1608 C1606 1.415 . S
C1608 C1613 1.425 . S
C1608 C1615 1.409 . S
C1609 H1601 0.930 . S
C1609 C1607 1.419 . S
C1609 C1610 1.362 . S
C1610 H1602 0.930 . S
C1610 C1609 1.362 . S
C1610 C1613 1.409 . S
C1611 H1603 0.930 . S
C1611 C1612 1.355 . S
C1611 C1613 1.415 . S
C1612 C1611 1.355 . S
C1612 C1614 1.419 . S
C1613 C1608 1.425 . S
C1613 C1610 1.409 . S
C1613 C1611 1.415 . S
C1614 H1604 0.930 . S
C1614 C1612 1.419 . S
C1614 C1615 1.362 . S
C1615 H1605 0.930 . S
C1615 C1608 1.409 . S
C1615 C1614 1.362 . S
H1616 C1622 0.930 . S
H1617 C1625 0.930 . S
H1618 C1626 0.930 . S
H1619 C1627 0.930 . S
H1620 C1630 0.930 . S
H1621 C1631 0.930 . S
C1622 H1616 0.930 . S
C1622 C1623 1.355 . S
C1622 C1624 1.415 . S
C1623 C1622 1.355 . S
C1623 C1625 1.419 . S
C1624 C1622 1.415 . S
C1624 C1629 1.425 . S
C1624 C1631 1.409 . S
C1625 H1617 0.930 . S
C1625 C1623 1.419 . S
C1625 C1626 1.362 . S
C1626 H1618 0.930 . S
C1626 C1625 1.362 . S
C1626 C1629 1.409 . S
C1627 H1619 0.930 . S
C1627 C1628 1.355 . S
C1627 C1629 1.415 . S
C1628 C1627 1.355 . S
C1628 C1630 1.419 . S
C1629 C1624 1.425 . S
C1629 C1626 1.409 . S
C1629 C1627 1.415 . S
C1630 H1620 0.930 . S
C1630 C1628 1.419 . S
C1630 C1631 1.362 . S
C1631 H1621 0.930 . S
C1631 C1624 1.409 . S
C1631 C1630 1.362 . S
H1632 C1638 0.930 . S
H1633 C1641 0.930 . S
H1634 C1642 0.930 . S
H1635 C1643 0.930 . S
H1636 C1646 0.930 . S
H1637 C1647 0.930 . S
C1638 H1632 0.930 . S
C1638 C1639 1.355 . S
C1638 C1640 1.415 . S
C1639 C1638 1.355 . S
C1639 C1641 1.419 . S
C1640 C1638 1.415 . S
C1640 C1645 1.425 . S
C1640 C1647 1.409 . S
C1641 H1633 0.930 . S
C1641 C1639 1.419 . S
C1641 C1642 1.362 . S
C1642 H1634 0.930 . S
C1642 C1641 1.362 . S
C1642 C1645 1.409 . S
C1643 H1635 0.930 . S
C1643 C1644 1.355 . S
C1643 C1645 1.415 . S
C1644 C1643 1.355 . S
C1644 C1646 1.419 . S
C1645 C1640 1.425 . S
C1645 C1642 1.409 . S
C1645 C1643 1.415 . S
C1646 H1636 0.930 . S
C1646 C1644 1.419 . S
C1646 C1647 1.362 . S
C1647 H1637 0.930 . S
C1647 C1640 1.409 . S
C1647 C1646 1.362 . S
H1648 C1654 0.930 . S
H1649 C1657 0.930 . S
H1650 C1658 0.930 . S
H1651 C1659 0.930 . S
H1652 C1662 0.930 . S
H1653 C1663 0.930 . S
C1654 H1648 0.930 . S
C1654 C1655 1.355 . S
C1654 C1656 1.415 . S
C1655 C1654 1.355 . S
C1655 C1657 1.419 . S
C1656 C1654 1.415 . S
C1656 C1661 1.425 . S
C1656 C1663 1.409 . S
C1657 H1649 0.930 . S
C1657 C1655 1.419 . S
C1657 C1658 1.362 . S
C1658 H1650 0.930 . S
C1658 C1657 1.362 . S
C1658 C1661 1.409 . S
C1659 H1651 0.930 . S
C1659 C1660 1.355 . S
C1659 C1661 1.415 . S
C1660 C1659 1.355 . S
C1660 C1662 1.419 . S
C1661 C1656 1.425 . S
C1661 C1658 1.409 . S
C1661 C1659 1.415 . S
C1662 H1652 0.930 . S
C1662 C1660 1.419 . S
C1662 C1663 1.362 . S
C1663 H1653 0.930 . S
C1663 C1656 1.409 . S
C1663 C1662 1.362 . S
H1664 C1670 0.930 . S
H1665 C1673 0.930 . S
H1666 C1674 0.930 . S
H1667 C1675 0.930 . S
H1668 C1678 0.930 . S
H1669 C1679 0.930 . S
C1670 H1664 0.930 . S
C1670 C1671 1.355 . S
C1670 C1672 1.415 . S
C1671 C1670 1.355 . S
C1671 C1673 1.419 . S
C1672 C1670 1.415 . S
C1672 C1677 1.425 . S
C1672 C1679 1.409 . S
C1673 H1665 0.930 . S
C1673 C1671 1.419 . S
C1673 C1674 1.362 . S
C1674 H1666 0.930 . S
C1674 C1673 1.362 . S
C1674 C1677 1.409 . S
C1675 H1667 0.930 . S
C1675 C1676 1.355 . S
C1675 C1677 1.415 . S
C1676 C1675 1.355 . S
C1676 C1678 1.419 . S
C1677 C1672 1.425 . S
C1677 C1674 1.409 . S
C1677 C1675 1.415 . S
C1678 H1668 0.930 . S
C1678 C1676 1.419 . S
C1678 C1679 1.362 . S
C1679 H1669 0.930 . S
C1679 C1672 1.409 . S
C1679 C1678 1.362 . S
H1680 C1686 0.930 . S
H1681 C1689 0.930 . S
H1682 C1690 0.930 . S
H1683 C1691 0.930 . S
H1684 C1694 0.930 . S
H1685 C1695 0.930 . S
C1686 H1680 0.930 . S
C1686 C1687 1.355 . S
C1686 C1688 1.415 . S
C1687 C1686 1.355 . S
C1687 C1689 1.419 . S
C1688 C1686 1.415 . S
C1688 C1693 1.425 . S
C1688 C1695 1.409 . S
C1689 H1681 0.930 . S
C1689 C1687 1.419 . S
C1689 C1690 1.362 . S
C1690 H1682 0.930 . S
C1690 C1689 1.362 . S
C1690 C1693 1.409 . S
C1691 H1683 0.930 . S
C1691 C1692 1.355 . S
C1691 C1693 1.415 . S
C1692 C1691 1.355 . S
C1692 C1694 1.419 . S
C1693 C1688 1.425 . S
C1693 C1690 1.409 . S
C1693 C1691 1.415 . S
C1694 H1684 0.930 . S
C1694 C1692 1.419 . S
C1694 C1695 1.362 . S
C1695 H1685 0.930 . S
C1695 C1688 1.409 . S
C1695 C1694 1.362 . S
H1696 C1702 0.930 . S
H1697 C1705 0.930 . S
H1698 C1706 0.930 . S
H1699 C1707 0.930 . S
H1700 C1710 0.930 . S
H1701 C1711 0.930 . S
C1702 H1696 0.930 . S
C1702 C1703 1.355 . S
C1702 C1704 1.415 . S
C1703 C1702 1.355 . S
C1703 C1705 1.419 . S
C1704 C1702 1.415 . S
C1704 C1709 1.425 . S
C1704 C1711 1.409 . S
C1705 H1697 0.930 . S
C1705 C1703 1.419 . S
C1705 C1706 1.362 . S
C1706 H1698 0.930 . S
C1706 C1705 1.362 . S
C1706 C1709 1.409 . S
C1707 H1699 0.930 . S
C1707 C1708 1.355 . S
C1707 C1709 1.415 . S
C1708 C1707 1.355 . S
C1708 C1710 1.419 . S
C1709 C1704 1.425 . S
C1709 C1706 1.409 . S
C1709 C1707 1.415 . S
C1710 H1700 0.930 . S
C1710 C1708 1.419 . S
C1710 C1711 1.362 . S
C1711 H1701 0.930 . S
C1711 C1704 1.409 . S
C1711 C1710 1.362 . S
H1712 C1718 0.930 . S
H1713 C1721 0.930 . S
H1714 C1722 0.930 . S
H1715 C1723 0.930 . S
H1716 C1726 0.930 . S
H1717 C1727 0.930 . S
C1718 H1712 0.930 . S
C1718 C1719 1.355 . S
C1718 C1720 1.415 . S
C1719 C1718 1.355 . S
C1719 C1721 1.419 . S
C1720 C1718 1.415 . S
C1720 C1725 1.425 . S
C1720 C1727 1.409 . S
C1721 H1713 0.930 . S
C1721 C1719 1.419 . S
C1721 C1722 1.362 . S
C1722 H1714 0.930 . S
C1722 C1721 1.362 . S
C1722 C1725 1.409 . S
C1723 H1715 0.930 . S
C1723 C1724 1.355 . S
C1723 C1725 1.415 . S
C1724 C1723 1.355 . S
C1724 C1726 1.419 . S
C1725 C1720 1.425 . S
C1725 C1722 1.409 . S
C1725 C1723 1.415 . S
C1726 H1716 0.930 . S
C1726 C1724 1.419 . S
C1726 C1727 1.362 . S
C1727 H1717 0.930 . S
C1727 C1720 1.409 . S
C1727 C1726 1.362 . S
H1728 C1734 0.930 . S
H1729 C1737 0.930 . S
H1730 C1738 0.930 . S
H1731 C1739 0.930 . S
H1732 C1742 0.930 . S
H1733 C1743 0.930 . S
C1734 H1728 0.930 . S
C1734 C1735 1.355 . S
C1734 C1736 1.415 . S
C1735 C1734 1.355 . S
C1735 C1737 1.419 . S
C1736 C1734 1.415 . S
C1736 C1741 1.425 . S
C1736 C1743 1.409 . S
C1737 H1729 0.930 . S
C1737 C1735 1.419 . S
C1737 C1738 1.362 . S
C1738 H1730 0.930 . S
C1738 C1737 1.362 . S
C1738 C1741 1.409 . S
C1739 H1731 0.930 . S
C1739 C1740 1.355 . S
C1739 C1741 1.415 . S
C1740 C1739 1.355 . S
C1740 C1742 1.419 . S
C1741 C1736 1.425 . S
C1741 C1738 1.409 . S
C1741 C1739 1.415 . S
C1742 H1732 0.930 . S
C1742 C1740 1.419 . S
C1742 C1743 1.362 . S
C1743 H1733 0.930 . S
C1743 C1736 1.409 . S
C1743 C1742 1.362 . S
H1744 C1750 0.930 . S
H1745 C1753 0.930 . S
H1746 C1754 0.930 . S
H1747 C1755 0.930 . S
H1748 C1758 0.930 . S
H1749 C1759 0.930 . S
C1750 H1744 0.930 . S
C1750 C1751 1.355 . S
C1750 C1752 1.415 . S
C1751 C1750 1.355 . S
C1751 C1753 1.419 . S
C1752 C1750 1.415 . S
C1752 C1757 1.425 . S
C1752 C1759 1.409 . S
C1753 H1745 0.930 . S
C1753 C1751 1.419 . S
C1753 C1754 1.362 . S
C1754 H1746 0.930 . S
C1754 C1753 1.362 . S
C1754 C1757 1.409 . S
C1755 H1747 0.930 . S
C1755 C1756 1.355 . S
C1755 C1757 1.415 . S
C1756 C1755 1.355 . S
C1756 C1758 1.419 . S
C1757 C1752 1.425 . S
C1757 C1754 1.409 . S
C1757 C1755 1.415 . S
C1758 H1748 0.930 . S
C1758 C1756 1.419 . S
C1758 C1759 1.362 . S
C1759 H1749 0.930 . S
C1759 C1752 1.409 . S
C1759 C1758 1.362 . S
H1760 C1766 0.930 . S
H1761 C1769 0.930 . S
H1762 C1770 0.930 . S
H1763 C1771 0.930 . S
H1764 C1774 0.930 . S
H1765 C1775 0.930 . S
C1766 H1760 0.930 . S
C1766 C1767 1.355 . S
C1766 C1768 1.415 . S
C1767 C1766 1.355 . S
C1767 C1769 1.419 . S
C1768 C1766 1.415 . S
C1768 C1773 1.425 . S
C1768 C1775 1.409 . S
C1769 H1761 0.930 . S
C1769 C1767 1.419 . S
C1769 C1770 1.362 . S
C1770 H1762 0.930 . S
C1770 C1769 1.362 . S
C1770 C1773 1.409 . S
C1771 H1763 0.930 . S
C1771 C1772 1.355 . S
C1771 C1773 1.415 . S
C1772 C1771 1.355 . S
C1772 C1774 1.419 . S
C1773 C1768 1.425 . S
C1773 C1770 1.409 . S
C1773 C1771 1.415 . S
C1774 H1764 0.930 . S
C1774 C1772 1.419 . S
C1774 C1775 1.362 . S
C1775 H1765 0.930 . S
C1775 C1768 1.409 . S
C1775 C1774 1.362 . S
H1776 C1782 0.930 . S
H1777 C1785 0.930 . S
H1778 C1786 0.930 . S
H1779 C1787 0.930 . S
H1780 C1790 0.930 . S
H1781 C1791 0.930 . S
C1782 H1776 0.930 . S
C1782 C1783 1.355 . S
C1782 C1784 1.415 . S
C1783 C1782 1.355 . S
C1783 C1785 1.419 . S
C1784 C1782 1.415 . S
C1784 C1789 1.425 . S
C1784 C1791 1.409 . S
C1785 H1777 0.930 . S
C1785 C1783 1.419 . S
C1785 C1786 1.362 . S
C1786 H1778 0.930 . S
C1786 C1785 1.362 . S
C1786 C1789 1.409 . S
C1787 H1779 0.930 . S
C1787 C1788 1.355 . S
C1787 C1789 1.415 . S
C1788 C1787 1.355 . S
C1788 C1790 1.419 . S
C1789 C1784 1.425 . S
C1789 C1786 1.409 . S
C1789 C1787 1.415 . S
C1790 H1780 0.930 . S
C1790 C1788 1.419 . S
C1790 C1791 1.362 . S
C1791 H1781 0.930 . S
C1791 C1784 1.409 . S
C1791 C1790 1.362 . S
H1792 C1798 0.930 . S
H1793 C1801 0.930 . S
H1794 C1802 0.930 . S
H1795 C1803 0.930 . S
H1796 C1806 0.930 . S
H1797 C1807 0.930 . S
C1798 H1792 0.930 . S
C1798 C1799 1.355 . S
C1798 C1800 1.415 . S
C1799 C1798 1.355 . S
C1799 C1801 1.419 . S
C1800 C1798 1.415 . S
C1800 C1805 1.425 . S
C1800 C1807 1.409 . S
C1801 H1793 0.930 . S
C1801 C1799 1.419 . S
C1801 C1802 1.362 . S
C1802 H1794 0.930 . S
C1802 C1801 1.362 . S
C1802 C1805 1.409 . S
C1803 H1795 0.930 . S
C1803 C1804 1.355 . S
C1803 C1805 1.415 . S
C1804 C1803 1.355 . S
C1804 C1806 1.419 . S
C1805 C1800 1.425 . S
C1805 C1802 1.409 . S
C1805 C1803 1.415 . S
C1806 H1796 0.930 . S
C1806 C1804 1.419 . S
C1806 C1807 1.362 . S
C1807 H1797 0.930 . S
C1807 C1800 1.409 . S
C1807 C1806 1.362 . S
H1808 C1814 0.930 . S
H1809 C1817 0.930 . S
H1810 C1818 0.930 . S
H1811 C1819 0.930 . S
H1812 C1822 0.930 . S
H1813 C1823 0.930 . S
C1814 H1808 0.930 . S
C1814 C1815 1.355 . S
C1814 C1816 1.415 . S
C1815 C1814 1.355 . S
C1815 C1817 1.419 . S
C1816 C1814 1.415 . S
C1816 C1821 1.425 . S
C1816 C1823 1.409 . S
C1817 H1809 0.930 . S
C1817 C1815 1.419 . S
C1817 C1818 1.362 . S
C1818 H1810 0.930 . S
C1818 C1817 1.362 . S
C1818 C1821 1.409 . S
C1819 H1811 0.930 . S
C1819 C1820 1.355 . S
C1819 C1821 1.415 . S
C1820 C1819 1.355 . S
C1820 C1822 1.419 . S
C1821 C1816 1.425 . S
C1821 C1818 1.409 . S
C1821 C1819 1.415 . S
C1822 H1812 0.930 . S
C1822 C1820 1.419 . S
C1822 C1823 1.362 . S
C1823 H1813 0.930 . S
C1823 C1816 1.409 . S
C1823 C1822 1.362 . S
H1824 C1830 0.930 . S
H1825 C1833 0.930 . S
H1826 C1834 0.930 . S
H1827 C1835 0.930 . S
H1828 C1838 0.930 . S
H1829 C1839 0.930 . S
C1830 H1824 0.930 . S
C1830 C1831 1.355 . S
C1830 C1832 1.415 . S
C1831 C1830 1.355 . S
C1831 C1833 1.419 . S
C1832 C1830 1.415 . S
C1832 C1837 1.425 1_554 S
C1832 C1839 1.409 1_554 S
C1833 H1825 0.930 . S
C1833 C1831 1.419 . S
C1833 C1834 1.362 . S
C1834 H1826 0.930 . S
C1834 C1833 1.362 . S
C1834 C1837 1.409 1_554 S
C1835 H1827 0.930 . S
C1835 C1836 1.355 . S
C1835 C1837 1.415 . S
C1836 C1835 1.355 . S
C1836 C1838 1.419 . S
C1837 C1832 1.425 1_556 S
C1837 C1834 1.409 1_556 S
C1837 C1835 1.415 . S
C1838 H1828 0.930 . S
C1838 C1836 1.419 . S
C1838 C1839 1.362 . S
C1839 H1829 0.930 . S
C1839 C1832 1.409 1_556 S
C1839 C1838 1.362 . S
H1840 C1846 0.930 . S
H1841 C1849 0.930 . S
H1842 C1850 0.930 . S
H1843 C1851 0.930 . S
H1844 C1854 0.930 . S
H1845 C1855 0.930 . S
C1846 H1840 0.930 . S
C1846 C1847 1.355 . S
C1846 C1848 1.415 . S
C1847 C1846 1.355 . S
C1847 C1849 1.419 . S
C1848 C1846 1.415 . S
C1848 C1853 1.425 1_556 S
C1848 C1855 1.409 1_556 S
C1849 H1841 0.930 . S
C1849 C1847 1.419 . S
C1849 C1850 1.362 . S
C1850 H1842 0.930 . S
C1850 C1849 1.362 . S
C1850 C1853 1.409 1_556 S
C1851 H1843 0.930 . S
C1851 C1852 1.355 . S
C1851 C1853 1.415 . S
C1852 C1851 1.355 . S
C1852 C1854 1.419 . S
C1853 C1848 1.425 1_554 S
C1853 C1850 1.409 1_554 S
C1853 C1851 1.415 . S
C1854 H1844 0.930 . S
C1854 C1852 1.419 . S
C1854 C1855 1.362 . S
C1855 H1845 0.930 . S
C1855 C1848 1.409 1_554 S
C1855 C1854 1.362 . S
H1856 C1862 0.930 . S
H1857 C1865 0.930 . S
H1858 C1866 0.930 . S
H1859 C1867 0.930 . S
H1860 C1870 0.930 . S
H1861 C1871 0.930 . S
C1862 H1856 0.930 . S
C1862 C1863 1.355 . S
C1862 C1864 1.415 . S
C1863 C1862 1.355 . S
C1863 C1865 1.419 . S
C1864 C1862 1.415 . S
C1864 C1869 1.425 1_554 S
C1864 C1871 1.409 1_554 S
C1865 H1857 0.930 . S
C1865 C1863 1.419 . S
C1865 C1866 1.362 . S
C1866 H1858 0.930 . S
C1866 C1865 1.362 . S
C1866 C1869 1.409 1_554 S
C1867 H1859 0.930 . S
C1867 C1868 1.355 . S
C1867 C1869 1.415 . S
C1868 C1867 1.355 . S
C1868 C1870 1.419 . S
C1869 C1864 1.425 1_556 S
C1869 C1866 1.409 1_556 S
C1869 C1867 1.415 . S
C1870 H1860 0.930 . S
C1870 C1868 1.419 . S
C1870 C1871 1.362 . S
C1871 H1861 0.930 . S
C1871 C1864 1.409 1_556 S
C1871 C1870 1.362 . S
H1872 C1878 0.930 . S
H1873 C1881 0.930 . S
H1874 C1882 0.930 . S
H1875 C1883 0.930 . S
H1876 C1886 0.930 . S
H1877 C1887 0.930 . S
C1878 H1872 0.930 . S
C1878 C1879 1.355 . S
C1878 C1880 1.415 . S
C1879 C1878 1.355 . S
C1879 C1881 1.419 . S
C1880 C1878 1.415 . S
C1880 C1885 1.425 1_554 S
C1880 C1887 1.409 1_554 S
C1881 H1873 0.930 . S
C1881 C1879 1.419 . S
C1881 C1882 1.362 . S
C1882 H1874 0.930 . S
C1882 C1881 1.362 . S
C1882 C1885 1.409 1_554 S
C1883 H1875 0.930 . S
C1883 C1884 1.355 . S
C1883 C1885 1.415 . S
C1884 C1883 1.355 . S
C1884 C1886 1.419 . S
C1885 C1880 1.425 1_556 S
C1885 C1882 1.409 1_556 S
C1885 C1883 1.415 . S
C1886 H1876 0.930 . S
C1886 C1884 1.419 . S
C1886 C1887 1.362 . S
C1887 H1877 0.930 . S
C1887 C1880 1.409 1_556 S
C1887 C1886 1.362 . S
H1888 C1894 0.930 . S
H1889 C1897 0.930 . S
H1890 C1898 0.930 . S
H1891 C1899 0.930 . S
H1892 C1902 0.930 . S
H1893 C1903 0.930 . S
C1894 H1888 0.930 . S
C1894 C1895 1.355 . S
C1894 C1896 1.428 . S
C1895 C1894 1.355 . S
C1895 C1897 1.419 . S
C1896 C1894 1.428 . S
C1896 C1901 1.421 1_556 S
C1896 C1903 1.400 1_556 S
C1897 H1889 0.930 . S
C1897 C1895 1.419 . S
C1897 C1898 1.362 . S
C1898 H1890 0.930 . S
C1898 C1897 1.362 . S
C1898 C1901 1.409 1_556 S
C1899 H1891 0.930 . S
C1899 C1900 1.355 . S
C1899 C1901 1.415 . S
C1900 C1899 1.355 . S
C1900 C1902 1.419 . S
C1901 C1896 1.421 1_554 S
C1901 C1898 1.409 1_554 S
C1901 C1899 1.415 . S
C1902 H1892 0.930 . S
C1902 C1900 1.419 . S
C1902 C1903 1.362 . S
C1903 H1893 0.930 . S
C1903 C1896 1.400 1_554 S
C1903 C1902 1.362 . S
H1904 C1910 0.930 . S
H1905 C1913 0.930 . S
H1906 C1914 0.930 . S
H1907 C1915 0.930 . S
H1908 C1918 0.930 . S
H1909 C1919 0.930 . S
C1910 H1904 0.930 . S
C1910 C1911 1.355 . S
C1910 C1912 1.415 . S
C1911 C1910 1.355 . S
C1911 C1913 1.419 . S
C1912 C1910 1.415 . S
C1912 C1917 1.425 1_554 S
C1912 C1919 1.409 1_554 S
C1913 H1905 0.930 . S
C1913 C1911 1.419 . S
C1913 C1914 1.362 . S
C1914 H1906 0.930 . S
C1914 C1913 1.362 . S
C1914 C1917 1.409 1_554 S
C1915 H1907 0.930 . S
C1915 C1916 1.355 . S
C1915 C1917 1.415 . S
C1916 C1915 1.355 . S
C1916 C1918 1.419 . S
C1917 C1912 1.425 1_556 S
C1917 C1914 1.409 1_556 S
C1917 C1915 1.415 . S
C1918 H1908 0.930 . S
C1918 C1916 1.419 . S
C1918 C1919 1.362 . S
C1919 H1909 0.930 . S
C1919 C1912 1.409 1_556 S
C1919 C1918 1.362 . S
H1920 C1926 0.930 . S
H1921 C1929 0.930 . S
H1922 C1930 0.930 . S
H1923 C1931 0.930 . S
H1924 C1934 0.930 . S
H1925 C1935 0.930 . S
C1926 H1920 0.930 . S
C1926 C1927 1.355 . S
C1926 C1928 1.444 . S
C1927 C1926 1.355 . S
C1927 C1929 1.419 . S
C1928 C1926 1.444 . S
C1928 C1933 1.416 1_556 S
C1928 C1935 1.390 1_556 S
C1929 H1921 0.930 . S
C1929 C1927 1.419 . S
C1929 C1930 1.362 . S
C1930 H1922 0.930 . S
C1930 C1929 1.362 . S
C1930 C1933 1.409 1_556 S
C1931 H1923 0.930 . S
C1931 C1932 1.355 . S
C1931 C1933 1.415 . S
C1932 C1931 1.355 . S
C1932 C1934 1.419 . S
C1933 C1928 1.416 1_554 S
C1933 C1930 1.409 1_554 S
C1933 C1931 1.415 . S
C1934 H1924 0.930 . S
C1934 C1932 1.419 . S
C1934 C1935 1.362 . S
C1935 H1925 0.930 . S
C1935 C1928 1.390 1_554 S
C1935 C1934 1.362 . S
H1936 C1942 0.930 . S
H1937 C1945 0.930 . S
H1938 C1946 0.930 . S
H1939 C1947 0.930 . S
H1940 C1950 0.930 . S
H1941 C1951 0.930 . S
C1942 H1936 0.930 . S
C1942 C1943 1.355 . S
C1942 C1944 1.415 . S
C1943 C1942 1.355 . S
C1943 C1945 1.419 . S
C1944 C1942 1.415 . S
C1944 C1949 1.425 1_554 S
C1944 C1951 1.409 1_554 S
C1945 H1937 0.930 . S
C1945 C1943 1.419 . S
C1945 C1946 1.362 . S
C1946 H1938 0.930 . S
C1946 C1945 1.362 . S
C1946 C1949 1.409 1_554 S
C1947 H1939 0.930 . S
C1947 C1948 1.355 . S
C1947 C1949 1.415 . S
C1948 C1947 1.355 . S
C1948 C1950 1.419 . S
C1949 C1944 1.425 1_556 S
C1949 C1946 1.409 1_556 S
C1949 C1947 1.415 . S
C1950 H1940 0.930 . S
C1950 C1948 1.419 . S
C1950 C1951 1.362 . S
C1951 H1941 0.930 . S
C1951 C1944 1.409 1_556 S
C1951 C1950 1.362 . S
H1952 C1958 0.930 . S
H1953 C1961 0.930 . S
H1954 C1962 0.930 . S
H1955 C1963 0.930 . S
H1956 C1966 0.930 . S
H1957 C1967 0.930 . S
C1958 H1952 0.930 . S
C1958 C1959 1.355 . S
C1958 C1960 1.415 . S
C1959 C1958 1.355 . S
C1959 C1961 1.419 . S
C1960 C1958 1.415 . S
C1960 C1965 1.427 . S
C1960 C1967 1.409 1_455 S
C1961 H1953 0.930 . S
C1961 C1959 1.419 . S
C1961 C1962 1.362 . S
C1962 H1954 0.930 . S
C1962 C1961 1.362 . S
C1962 C1965 1.414 . S
C1963 H1955 0.930 . S
C1963 C1964 1.355 . S
C1963 C1965 1.408 1_655 S
C1964 C1963 1.355 . S
C1964 C1966 1.419 . S
C1965 C1960 1.427 . S
C1965 C1962 1.414 . S
C1965 C1963 1.408 1_455 S
C1966 H1956 0.930 . S
C1966 C1964 1.419 . S
C1966 C1967 1.362 . S
C1967 H1957 0.930 . S
C1967 C1960 1.409 1_655 S
C1967 C1966 1.362 . S
H1968 C1974 0.930 . S
H1969 C1977 0.930 . S
H1970 C1978 0.930 . S
H1971 C1979 0.930 . S
H1972 C1982 0.930 . S
H1973 C1983 0.930 . S
C1974 H1968 0.930 . S
C1974 C1975 1.355 . S
C1974 C1976 1.415 . S
C1975 C1974 1.355 . S
C1975 C1977 1.419 . S
C1976 C1974 1.415 . S
C1976 C1981 1.425 1_565 S
C1976 C1983 1.409 1_565 S
C1977 H1969 0.930 . S
C1977 C1975 1.419 . S
C1977 C1978 1.362 . S
C1978 H1970 0.930 . S
C1978 C1977 1.362 . S
C1978 C1981 1.409 1_565 S
C1979 H1971 0.930 . S
C1979 C1980 1.355 . S
C1979 C1981 1.415 . S
C1980 C1979 1.355 . S
C1980 C1982 1.419 . S
C1981 C1976 1.425 1_545 S
C1981 C1978 1.409 1_545 S
C1981 C1979 1.415 . S
C1982 H1972 0.930 . S
C1982 C1980 1.419 . S
C1982 C1983 1.362 . S
C1983 H1973 0.930 . S
C1983 C1976 1.409 1_545 S
C1983 C1982 1.362 . S
H1984 C1990 0.930 . S
H1985 C1993 0.930 . S
H1986 C1994 0.930 . S
H1987 C1995 0.930 . S
H1988 C1998 0.930 . S
H1989 C1999 0.930 . S
C1990 H1984 0.930 . S
C1990 C1991 1.355 . S
C1990 C1992 1.415 . S
C1991 C1990 1.355 . S
C1991 C1993 1.419 . S
C1992 C1990 1.415 . S
C1992 C1997 1.425 1_455 S
C1992 C1999 1.409 1_455 S
C1993 H1985 0.930 . S
C1993 C1991 1.419 . S
C1993 C1994 1.362 . S
C1994 H1986 0.930 . S
C1994 C1993 1.362 . S
C1994 C1997 1.409 1_455 S
C1995 H1987 0.930 . S
C1995 C1996 1.355 . S
C1995 C1997 1.415 . S
C1996 C1995 1.355 . S
C1996 C1998 1.419 . S
C1997 C1992 1.425 1_655 S
C1997 C1994 1.409 1_655 S
C1997 C1995 1.415 . S
C1998 H1988 0.930 . S
C1998 C1996 1.419 . S
C1998 C1999 1.362 . S
C1999 H1989 0.930 . S
C1999 C1992 1.409 1_655 S
C1999 C1998 1.362 . S
H2000 C2006 0.930 . S
H2001 C2009 0.930 . S
H2002 C2010 0.930 . S
H2003 C2011 0.930 . S
H2004 C2014 0.930 . S
H2005 C2015 0.930 . S
C2006 H2000 0.930 . S
C2006 C2007 1.355 . S
C2006 C2008 1.389 1_565 S
C2007 C2006 1.355 . S
C2007 C2009 1.419 . S
C2008 C2006 1.389 1_545 S
C2008 C2013 1.433 . S
C2008 C2015 1.427 . S
C2009 H2001 0.930 . S
C2009 C2007 1.419 . S
C2009 C2010 1.362 . S
C2010 H2002 0.930 . S
C2010 C2009 1.362 . S
C2010 C2013 1.409 1_565 S
C2011 H2003 0.930 . S
C2011 C2012 1.355 . S
C2011 C2013 1.415 . S
C2012 C2011 1.355 . S
C2012 C2014 1.419 . S
C2013 C2008 1.433 . S
C2013 C2010 1.409 1_545 S
C2013 C2011 1.415 . S
C2014 H2004 0.930 . S
C2014 C2012 1.419 . S
C2014 C2015 1.362 . S
C2015 H2005 0.930 . S
C2015 C2008 1.427 . S
C2015 C2014 1.362 . S
H2016 C2022 0.930 . S
H2017 C2025 0.930 . S
H2018 C2026 0.930 . S
H2019 C2027 0.930 . S
H2020 C2030 0.930 . S
H2021 C2031 0.930 . S
C2022 H2016 0.930 . S
C2022 C2023 1.355 . S
C2022 C2024 1.397 1_655 S
C2023 C2022 1.355 . S
C2023 C2025 1.419 . S
C2024 C2022 1.397 1_455 S
C2024 C2029 1.432 . S
C2024 C2031 1.421 . S
C2025 H2017 0.930 . S
C2025 C2023 1.419 . S
C2025 C2026 1.362 . S
C2026 H2018 0.930 . S
C2026 C2025 1.362 . S
C2026 C2029 1.409 1_655 S
C2027 H2019 0.930 . S
C2027 C2028 1.355 . S
C2027 C2029 1.415 . S
C2028 C2027 1.355 . S
C2028 C2030 1.419 . S
C2029 C2024 1.432 . S
C2029 C2026 1.409 1_455 S
C2029 C2027 1.415 . S
C2030 H2020 0.930 . S
C2030 C2028 1.419 . S
C2030 C2031 1.362 . S
C2031 H2021 0.930 . S
C2031 C2024 1.421 . S
C2031 C2030 1.362 . S
H2032 C2038 0.930 . S
H2033 C2041 0.930 . S
H2034 C2042 0.930 . S
H2035 C2043 0.930 . S
H2036 C2046 0.930 . S
H2037 C2047 0.930 . S
C2038 H2032 0.930 . S
C2038 C2039 1.355 . S
C2038 C2040 1.443 . S
C2039 C2038 1.355 . S
C2039 C2041 1.419 . S
C2040 C2038 1.443 . S
C2040 C2045 1.416 1_545 S
C2040 C2047 1.389 1_545 S
C2041 H2033 0.930 . S
C2041 C2039 1.419 . S
C2041 C2042 1.362 . S
C2042 H2034 0.930 . S
C2042 C2041 1.362 . S
C2042 C2045 1.409 1_545 S
C2043 H2035 0.930 . S
C2043 C2044 1.355 . S
C2043 C2045 1.415 . S
C2044 C2043 1.355 . S
C2044 C2046 1.419 . S
C2045 C2040 1.416 1_565 S
C2045 C2042 1.409 1_565 S
C2045 C2043 1.415 . S
C2046 H2036 0.930 . S
C2046 C2044 1.419 . S
C2046 C2047 1.362 . S
C2047 H2037 0.930 . S
C2047 C2040 1.389 1_565 S
C2047 C2046 1.362 . S
H2048 C2054 0.930 . S
H2049 C2057 0.930 . S
H2050 C2058 0.930 . S
H2051 C2059 0.930 . S
H2052 C2062 0.930 . S
H2053 C2063 0.930 . S
C2054 H2048 0.930 . S
C2054 C2055 1.355 . S
C2054 C2056 1.382 1_455 S
C2055 C2054 1.355 . S
C2055 C2057 1.419 . S
C2056 C2054 1.382 1_655 S
C2056 C2061 1.437 . S
C2056 C2063 1.431 . S
C2057 H2049 0.930 . S
C2057 C2055 1.419 . S
C2057 C2058 1.362 . S
C2058 H2050 0.930 . S
C2058 C2057 1.362 . S
C2058 C2061 1.409 1_455 S
C2059 H2051 0.930 . S
C2059 C2060 1.355 . S
C2059 C2061 1.415 . S
C2060 C2059 1.355 . S
C2060 C2062 1.419 . S
C2061 C2056 1.437 . S
C2061 C2058 1.409 1_655 S
C2061 C2059 1.415 . S
C2062 H2052 0.930 . S
C2062 C2060 1.419 . S
C2062 C2063 1.362 . S
C2063 H2053 0.930 . S
C2063 C2056 1.431 . S
C2063 C2062 1.362 . S
H2064 C2070 0.930 . S
H2065 C2073 0.930 . S
H2066 C2074 0.930 . S
H2067 C2075 0.930 . S
H2068 C2078 0.930 . S
H2069 C2079 0.930 . S
C2070 H2064 0.930 . S
C2070 C2071 1.355 . S
C2070 C2072 1.415 . S
C2071 C2070 1.355 . S
C2071 C2073 1.419 . S
C2072 C2070 1.415 . S
C2072 C2077 1.425 1_545 S
C2072 C2079 1.409 1_545 S
C2073 H2065 0.930 . S
C2073 C2071 1.419 . S
C2073 C2074 1.362 . S
C2074 H2066 0.930 . S
C2074 C2073 1.362 . S
C2074 C2077 1.409 1_545 S
C2075 H2067 0.930 . S
C2075 C2076 1.355 . S
C2075 C2077 1.415 . S
C2076 C2075 1.355 . S
C2076 C2078 1.419 . S
C2077 C2072 1.425 1_565 S
C2077 C2074 1.409 1_565 S
C2077 C2075 1.415 . S
C2078 H2068 0.930 . S
C2078 C2076 1.419 . S
C2078 C2079 1.362 . S
C2079 H2069 0.930 . S
C2079 C2072 1.409 1_565 S
C2079 C2078 1.362 . S
H2080 C2086 0.930 . S
H2081 C2089 0.930 . S
H2082 C2090 0.930 . S
H2083 C2091 0.930 . S
H2084 C2094 0.930 . S
H2085 C2095 0.930 . S
C2086 H2080 0.930 . S
C2086 C2087 1.355 . S
C2086 C2088 1.415 . S
C2087 C2086 1.355 . S
C2087 C2089 1.419 . S
C2088 C2086 1.415 . S
C2088 C2093 1.427 . S
C2088 C2095 1.409 1_545 S
C2089 H2081 0.930 . S
C2089 C2087 1.419 . S
C2089 C2090 1.362 . S
C2090 H2082 0.930 . S
C2090 C2089 1.362 . S
C2090 C2093 1.412 . S
C2091 H2083 0.930 . S
C2091 C2092 1.355 . S
C2091 C2093 1.410 1_565 S
C2092 C2091 1.355 . S
C2092 C2094 1.419 . S
C2093 C2088 1.427 . S
C2093 C2090 1.412 . S
C2093 C2091 1.410 1_545 S
C2094 H2084 0.930 . S
C2094 C2092 1.419 . S
C2094 C2095 1.362 . S
C2095 H2085 0.930 . S
C2095 C2088 1.409 1_565 S
C2095 C2094 1.362 . S
H2096 C2102 0.930 . S
H2097 C2105 0.930 . S
H2098 C2106 0.930 . S
H2099 C2107 0.930 . S
H2100 C2110 0.930 . S
H2101 C2111 0.930 . S
C2102 H2096 0.930 . S
C2102 C2103 1.355 . S
C2102 C2104 1.415 . S
C2103 C2102 1.355 . S
C2103 C2105 1.419 . S
C2104 C2102 1.415 . S
C2104 C2109 1.444 . S
C2104 C2111 1.409 1_545 S
C2105 H2097 0.930 . S
C2105 C2103 1.419 . S
C2105 C2106 1.362 . S
C2106 H2098 0.930 . S
C2106 C2105 1.362 . S
C2106 C2109 1.446 . S
C2107 H2099 0.930 . S
C2107 C2108 1.355 . S
C2107 C2109 1.361 1_565 S
C2108 C2107 1.355 . S
C2108 C2110 1.419 . S
C2109 C2104 1.444 . S
C2109 C2106 1.446 . S
C2109 C2107 1.361 1_545 S
C2110 H2100 0.930 . S
C2110 C2108 1.419 . S
C2110 C2111 1.362 . S
C2111 H2101 0.930 . S
C2111 C2104 1.409 1_565 S
C2111 C2110 1.362 . S
H2112 C2118 0.930 . S
H2113 C2121 0.930 . S
H2114 C2122 0.930 . S
H2115 C2123 0.930 . S
H2116 C2126 0.930 . S
H2117 C2127 0.930 . S
C2118 H2112 0.930 . S
C2118 C2119 1.355 . S
C2118 C2120 1.415 . S
C2119 C2118 1.355 . S
C2119 C2121 1.419 . S
C2120 C2118 1.415 . S
C2120 C2125 1.425 1_655 S
C2120 C2127 1.409 1_655 S
C2121 H2113 0.930 . S
C2121 C2119 1.419 . S
C2121 C2122 1.362 . S
C2122 H2114 0.930 . S
C2122 C2121 1.362 . S
C2122 C2125 1.409 1_655 S
C2123 H2115 0.930 . S
C2123 C2124 1.355 . S
C2123 C2125 1.415 . S
C2124 C2123 1.355 . S
C2124 C2126 1.419 . S
C2125 C2120 1.425 1_455 S
C2125 C2122 1.409 1_455 S
C2125 C2123 1.415 . S
C2126 H2116 0.930 . S
C2126 C2124 1.419 . S
C2126 C2127 1.362 . S
C2127 H2117 0.930 . S
C2127 C2120 1.409 1_455 S
C2127 C2126 1.362 . S
H2128 C2134 0.930 . S
H2129 C2137 0.930 . S
H2130 C2138 0.930 . S
H2131 C2139 0.930 . S
H2132 C2142 0.930 . S
H2133 C2143 0.930 . S
C2134 H2128 0.930 . S
C2134 C2135 1.355 . S
C2134 C2136 1.415 1_545 S
C2135 C2134 1.355 . S
C2135 C2137 1.419 . S
C2136 C2134 1.415 1_565 S
C2136 C2141 1.425 . S
C2136 C2143 1.409 . S
C2137 H2129 0.930 . S
C2137 C2135 1.419 . S
C2137 C2138 1.362 . S
C2138 H2130 0.930 . S
C2138 C2137 1.362 . S
C2138 C2141 1.409 1_545 S
C2139 H2131 0.930 . S
C2139 C2140 1.355 . S
C2139 C2141 1.415 . S
C2140 C2139 1.355 . S
C2140 C2142 1.419 . S
C2141 C2136 1.425 . S
C2141 C2138 1.409 1_565 S
C2141 C2139 1.415 . S
C2142 H2132 0.930 . S
C2142 C2140 1.419 . S
C2142 C2143 1.362 . S
C2143 H2133 0.930 . S
C2143 C2136 1.409 . S
C2143 C2142 1.362 . S
H2144 C2150 0.930 . S
H2145 C2153 0.930 . S
H2146 C2154 0.930 . S
H2147 C2155 0.930 . S
H2148 C2158 0.930 . S
H2149 C2159 0.930 . S
C2150 H2144 0.930 . S
C2150 C2151 1.355 . S
C2150 C2152 1.421 . S
C2151 C2150 1.355 . S
C2151 C2153 1.419 . S
C2152 C2150 1.421 . S
C2152 C2157 1.423 1_455 S
C2152 C2159 1.405 1_455 S
C2153 H2145 0.930 . S
C2153 C2151 1.419 . S
C2153 C2154 1.362 . S
C2154 H2146 0.930 . S
C2154 C2153 1.362 . S
C2154 C2157 1.409 1_455 S
C2155 H2147 0.930 . S
C2155 C2156 1.355 . S
C2155 C2157 1.415 . S
C2156 C2155 1.355 . S
C2156 C2158 1.419 . S
C2157 C2152 1.423 1_655 S
C2157 C2154 1.409 1_655 S
C2157 C2155 1.415 . S
C2158 H2148 0.930 . S
C2158 C2156 1.419 . S
C2158 C2159 1.362 . S
C2159 H2149 0.930 . S
C2159 C2152 1.405 1_655 S
C2159 C2158 1.362 . S
H2160 C2166 0.930 . S
H2161 C2169 0.930 . S
H2162 C2170 0.930 . S
H2163 C2171 0.930 . S
H2164 C2174 0.930 . S
H2165 C2175 0.930 . S
C2166 H2160 0.930 . S
C2166 C2167 1.355 . S
C2166 C2168 1.461 . S
C2167 C2166 1.355 . S
C2167 C2169 1.419 . S
C2168 C2166 1.461 . S
C2168 C2173 1.410 1_545 S
C2168 C2175 1.379 1_545 S
C2169 H2161 0.930 . S
C2169 C2167 1.419 . S
C2169 C2170 1.362 . S
C2170 H2162 0.930 . S
C2170 C2169 1.362 . S
C2170 C2173 1.409 1_545 S
C2171 H2163 0.930 . S
C2171 C2172 1.355 . S
C2171 C2173 1.415 . S
C2172 C2171 1.355 . S
C2172 C2174 1.419 . S
C2173 C2168 1.410 1_565 S
C2173 C2170 1.409 1_565 S
C2173 C2171 1.415 . S
C2174 H2164 0.930 . S
C2174 C2172 1.419 . S
C2174 C2175 1.362 . S
C2175 H2165 0.930 . S
C2175 C2168 1.379 1_565 S
C2175 C2174 1.362 . S
H2176 C2182 0.930 . S
H2177 C2185 0.930 . S
H2178 C2186 0.930 . S
H2179 C2187 0.930 . S
H2180 C2190 0.930 . S
H2181 C2191 0.930 . S
C2182 H2176 0.930 . S
C2182 C2183 1.355 . S
C2182 C2184 1.415 . S
C2183 C2182 1.355 . S
C2183 C2185 1.419 . S
C2184 C2182 1.415 . S
C2184 C2189 1.425 1_655 S
C2184 C2191 1.409 1_655 S
C2185 H2177 0.930 . S
C2185 C2183 1.419 . S
C2185 C2186 1.362 . S
C2186 H2178 0.930 . S
C2186 C2185 1.362 . S
C2186 C2189 1.409 1_655 S
C2187 H2179 0.930 . S
C2187 C2188 1.355 . S
C2187 C2189 1.415 . S
C2188 C2187 1.355 . S
C2188 C2190 1.419 . S
C2189 C2184 1.425 1_455 S
C2189 C2186 1.409 1_455 S
C2189 C2187 1.415 . S
C2190 H2180 0.930 . S
C2190 C2188 1.419 . S
C2190 C2191 1.362 . S
C2191 H2181 0.930 . S
C2191 C2184 1.409 1_455 S
C2191 C2190 1.362 . S
H2192 C2198 0.930 . S
H2193 C2201 0.930 . S
H2194 C2202 0.930 . S
H2195 C2203 0.930 . S
H2196 C2206 0.930 . S
H2197 C2207 0.930 . S
C2198 H2192 0.930 . S
C2198 C2199 1.355 . S
C2198 C2200 1.415 . S
C2199 C2198 1.355 . S
C2199 C2201 1.419 . S
C2200 C2198 1.415 . S
C2200 C2205 1.425 1_455 S
C2200 C2207 1.409 1_455 S
C2201 H2193 0.930 . S
C2201 C2199 1.419 . S
C2201 C2202 1.362 . S
C2202 H2194 0.930 . S
C2202 C2201 1.362 . S
C2202 C2205 1.409 1_455 S
C2203 H2195 0.930 . S
C2203 C2204 1.355 . S
C2203 C2205 1.415 . S
C2204 C2203 1.355 . S
C2204 C2206 1.419 . S
C2205 C2200 1.425 1_655 S
C2205 C2202 1.409 1_655 S
C2205 C2203 1.415 . S
C2206 H2196 0.930 . S
C2206 C2204 1.419 . S
C2206 C2207 1.362 . S
C2207 H2197 0.930 . S
C2207 C2200 1.409 1_655 S
C2207 C2206 1.362 . S
C679 C554 1.305 . S
C684 C3 1.325 . S
C695 C22 1.325 . S
C700 C507 1.343 . S
C711 C31 1.307 . S
C716 C526 1.298 . S
C727 C540 1.309 . S
C732 C50 1.286 . S
C743 C470 1.224 . S
C748 C59 1.235 . S
C759 C73 1.351 . S
C764 C484 1.361 . S
C775 C87 1.236 . S
C780 C493 1.264 . S
C791 C101 1.365 . S
C796 C451 1.394 . S
C807 C120 1.375 . S
C812 C437 1.371 . S
C823 C400 1.261 . S
C828 C129 1.279 . S
C839 C409 1.335 . S
C844 C148 1.339 . S
C855 C157 1.269 . S
C860 C428 1.254 . S
C871 C176 1.237 . S
C876 C358 1.225 . S
C887 C185 1.285 . S
C892 C367 1.276 . S
C903 C386 1.189 . S
C908 C204 1.166 . S
C919 C339 1.335 . S
C924 C213 1.358 . S
C935 C232 1.386 . S
C940 C624 1.385 . S
C951 C661 1.360 . S
C956 C241 1.355 . S
C967 C638 1.351 . S
C972 C260 1.350 . S
C983 C647 1.278 . S
C988 C269 1.301 . S
C999 C568 1.323 . S
C1004 C288 1.325 . S
C1015 C596 1.356 . S
C1020 C302 1.361 . S
C1031 C316 1.245 . S
C1036 C605 1.263 . S
C1047 C577 1.178 . S
C1052 C330 1.200 . S
C1063 C456 1.312 . S
C1068 C283 1.326 . S
C1079 C246 1.341 . S
C1084 C465 1.322 . S
C1095 C479 1.339 . S
C1100 C255 1.316 . S
C1111 C498 1.300 . S
C1116 C274 1.317 . S
C1127 C325 1.221 . S
C1132 C512 1.241 . S
C1143 C521 1.364 . S
C1148 C297 1.375 . S
C1159 C311 1.263 . S
C1164 C535 1.237 . S
C1175 C227 1.382 . S
C1180 C549 1.373 . S
C1191 C563 1.366 . S
C1196 C218 1.376 . S
C1207 C171 1.276 . S
C1212 C666 1.273 . S
C1223 C633 1.344 . S
C1228 C190 1.335 . S
C1239 C199 1.215 . S
C1244 C652 1.196 . S
C1255 C134 1.178 . S
C1260 C582 1.169 . S
C1271 C143 1.269 . S
C1276 C591 1.298 . S
C1287 C162 1.189 . S
C1292 C610 1.195 . S
C1303 C619 1.333 . S
C1308 C115 1.359 . S
C1319 C344 1.370 . S
C1324 C106 1.391 . S
C1335 C395 1.341 . S
C1340 C17 1.359 . S
C1351 C414 1.327 . S
C1356 C36 1.313 . S
C1367 C423 1.293 . S
C1372 C45 1.293 . S
C1383 C442 1.333 . S
C1388 C8 1.315 . S
C1399 C78 1.324 . S
C1404 C372 1.332 . S
C1415 C381 1.253 . S
C1420 C92 1.241 . S
C1431 C353 1.183 . S
C1436 C64 1.208 . S
C1447 C7 1.467 . S
C1452 C371 1.514 . S
C1463 C387 1.380 . S
C1468 C23 1.419 . S
C1479 C35 1.497 . S
C1484 C343 1.486 . S
C1495 C51 1.418 . S
C1500 C359 1.367 . S
C1511 C63 1.433 . S
C1516 C429 1.417 . S
C1527 C441 1.522 . S
C1532 C77 1.473 . S
C1543 C91 1.429 . S
C1548 C401 1.430 . S
C1559 C413 1.487 . S
C1564 C105 1.531 . S
C1575 C121 1.508 . S
C1580 C511 1.531 . S
C1591 C527 1.482 . S
C1596 C133 1.471 . S
C1607 C149 1.492 . S
C1612 C541 1.467 . S
C1623 C161 1.445 . S
C1628 C555 1.457 . S
C1639 C177 1.508 . S
C1644 C455 1.476 . S
C1655 C189 1.451 . S
C1660 C471 1.474 . S
C1671 C485 1.414 . S
C1676 C205 1.449 . S
C1687 C217 1.519 . S
C1692 C497 1.484 . S
C1703 C609 1.455 . S
C1708 C233 1.466 . S
C1719 C245 1.467 . S
C1724 C639 1.461 . S
C1735 C261 1.521 . S
C1740 C651 1.514 . S
C1751 C569 1.437 . S
C1756 C273 1.458 . S
C1767 C665 1.484 . S
C1772 C289 1.516 . S
C1783 C303 1.475 . S
C1788 C581 1.444 . S
C1799 C597 1.443 . S
C1804 C317 1.486 . S
C1815 C331 1.428 . S
C1820 C625 1.468 . S
C1831 C595 1.511 . S
C1836 C287 1.481 . S
C1847 C247 1.380 . S
C1852 C611 1.429 . S
C1863 C623 1.493 . S
C1868 C259 1.510 . S
C1879 C583 1.396 . S
C1884 C275 1.385 . S
C1895 C653 1.423 . S
C1900 C329 1.451 . S
C1911 C301 1.525 . S
C1916 C567 1.483 . S
C1927 C667 1.454 . S
C1932 C315 1.428 . S
C1943 C231 1.525 . S
C1948 C637 1.508 . S
C1959 C469 1.524 . S
C1964 C219 1.507 . S
C1975 C175 1.479 . S
C1980 C483 1.488 . S
C1991 C191 1.450 . S
C1996 C499 1.501 . S
C2007 C457 1.431 . S
C2012 C203 1.460 . S
C2023 C135 1.479 . S
C2028 C553 1.449 . S
C2039 C513 1.438 . S
C2044 C147 1.419 . S
C2055 C163 1.470 . S
C2060 C525 1.437 . S
C2071 C119 1.512 . S
C2076 C539 1.486 . S
C2087 C385 1.479 . S
C2092 C107 1.456 . S
C2103 C21 1.441 . S
C2108 C415 1.468 . S
C2119 C37 1.502 . S
C2124 C427 1.471 . S
C2135 C443 1.470 . S
C2140 C49 1.440 . S
C2151 C9 1.519 . S
C2156 C399 1.496 . S
C2167 C79 1.425 . S
C2172 C357 1.451 . S
C2183 C93 1.436 . S
C2188 C373 1.476 . S
C2199 C65 1.447 . S
C2204 C345 1.450 . S
