# Generated by pormake.
# Topology sxg, (6)-cn, num edge types: 1
# Building blocks:
#     Node 0, Type 0, BuildingBlock: IZENUY_clean_sbu_0, # of connection points: 6
#     Node 1, Type 0, BuildingBlock: IZENUY_clean_sbu_0, # of connection points: 6
#     Node 2, Type 0, BuildingBlock: IZENUY_clean_sbu_0, # of connection points: 6
#     Node 3, Type 0, BuildingBlock: IZENUY_clean_sbu_0, # of connection points: 6
#     Node 4, Type 0, BuildingBlock: IZENUY_clean_sbu_0, # of connection points: 6
#     Node 5, Type 0, BuildingBlock: IZENUY_clean_sbu_0, # of connection points: 6
#     Node 6, Type 0, BuildingBlock: IZENUY_clean_sbu_0, # of connection points: 6
#     Node 7, Type 0, BuildingBlock: IZENUY_clean_sbu_0, # of connection points: 6
#     Node 8, Type 0, BuildingBlock: IZENUY_clean_sbu_0, # of connection points: 6
#     Node 9, Type 0, BuildingBlock: IZENUY_clean_sbu_0, # of connection points: 6
#     Node 10, Type 0, BuildingBlock: IZENUY_clean_sbu_0, # of connection points: 6
#     Node 11, Type 0, BuildingBlock: IZENUY_clean_sbu_0, # of connection points: 6
#     Node 12, Type 0, BuildingBlock: IZENUY_clean_sbu_0, # of connection points: 6
#     Node 13, Type 0, BuildingBlock: IZENUY_clean_sbu_0, # of connection points: 6
#     Node 14, Type 0, BuildingBlock: IZENUY_clean_sbu_0, # of connection points: 6
#     Node 15, Type 0, BuildingBlock: IZENUY_clean_sbu_0, # of connection points: 6
#     Node 16, Type 0, BuildingBlock: IZENUY_clean_sbu_0, # of connection points: 6
#     Node 17, Type 0, BuildingBlock: IZENUY_clean_sbu_0, # of connection points: 6
#     Node 18, Type 0, BuildingBlock: IZENUY_clean_sbu_0, # of connection points: 6
#     Node 19, Type 0, BuildingBlock: IZENUY_clean_sbu_0, # of connection points: 6
#     Node 20, Type 0, BuildingBlock: IZENUY_clean_sbu_0, # of connection points: 6
#     Node 21, Type 0, BuildingBlock: IZENUY_clean_sbu_0, # of connection points: 6
#     Node 22, Type 0, BuildingBlock: IZENUY_clean_sbu_0, # of connection points: 6
#     Node 23, Type 0, BuildingBlock: IZENUY_clean_sbu_0, # of connection points: 6
#     Edge 24, Type (0, 0), BuildingBlock: ZUJKAS_clean_linker_0, # of connection points: 2
#     Edge 25, Type (0, 0), BuildingBlock: ZUJKAS_clean_linker_0, # of connection points: 2
#     Edge 26, Type (0, 0), BuildingBlock: ZUJKAS_clean_linker_0, # of connection points: 2
#     Edge 27, Type (0, 0), BuildingBlock: ZUJKAS_clean_linker_0, # of connection points: 2
#     Edge 28, Type (0, 0), BuildingBlock: ZUJKAS_clean_linker_0, # of connection points: 2
#     Edge 29, Type (0, 0), BuildingBlock: ZUJKAS_clean_linker_0, # of connection points: 2
#     Edge 30, Type (0, 0), BuildingBlock: ZUJKAS_clean_linker_0, # of connection points: 2
#     Edge 31, Type (0, 0), BuildingBlock: ZUJKAS_clean_linker_0, # of connection points: 2
#     Edge 32, Type (0, 0), BuildingBlock: ZUJKAS_clean_linker_0, # of connection points: 2
#     Edge 33, Type (0, 0), BuildingBlock: ZUJKAS_clean_linker_0, # of connection points: 2
#     Edge 34, Type (0, 0), BuildingBlock: ZUJKAS_clean_linker_0, # of connection points: 2
#     Edge 35, Type (0, 0), BuildingBlock: ZUJKAS_clean_linker_0, # of connection points: 2
#     Edge 36, Type (0, 0), BuildingBlock: ZUJKAS_clean_linker_0, # of connection points: 2
#     Edge 37, Type (0, 0), BuildingBlock: ZUJKAS_clean_linker_0, # of connection points: 2
#     Edge 38, Type (0, 0), BuildingBlock: ZUJKAS_clean_linker_0, # of connection points: 2
#     Edge 39, Type (0, 0), BuildingBlock: ZUJKAS_clean_linker_0, # of connection points: 2
#     Edge 40, Type (0, 0), BuildingBlock: ZUJKAS_clean_linker_0, # of connection points: 2
#     Edge 41, Type (0, 0), BuildingBlock: ZUJKAS_clean_linker_0, # of connection points: 2
#     Edge 42, Type (0, 0), BuildingBlock: ZUJKAS_clean_linker_0, # of connection points: 2
#     Edge 43, Type (0, 0), BuildingBlock: ZUJKAS_clean_linker_0, # of connection points: 2
#     Edge 44, Type (0, 0), BuildingBlock: ZUJKAS_clean_linker_0, # of connection points: 2
#     Edge 45, Type (0, 0), BuildingBlock: ZUJKAS_clean_linker_0, # of connection points: 2
#     Edge 46, Type (0, 0), BuildingBlock: ZUJKAS_clean_linker_0, # of connection points: 2
#     Edge 47, Type (0, 0), BuildingBlock: ZUJKAS_clean_linker_0, # of connection points: 2
#     Edge 48, Type (0, 0), BuildingBlock: ZUJKAS_clean_linker_0, # of connection points: 2
#     Edge 49, Type (0, 0), BuildingBlock: ZUJKAS_clean_linker_0, # of connection points: 2
#     Edge 50, Type (0, 0), BuildingBlock: ZUJKAS_clean_linker_0, # of connection points: 2
#     Edge 51, Type (0, 0), BuildingBlock: ZUJKAS_clean_linker_0, # of connection points: 2
#     Edge 52, Type (0, 0), BuildingBlock: ZUJKAS_clean_linker_0, # of connection points: 2
#     Edge 53, Type (0, 0), BuildingBlock: ZUJKAS_clean_linker_0, # of connection points: 2
#     Edge 54, Type (0, 0), BuildingBlock: ZUJKAS_clean_linker_0, # of connection points: 2
#     Edge 55, Type (0, 0), BuildingBlock: ZUJKAS_clean_linker_0, # of connection points: 2
#     Edge 56, Type (0, 0), BuildingBlock: ZUJKAS_clean_linker_0, # of connection points: 2
#     Edge 57, Type (0, 0), BuildingBlock: ZUJKAS_clean_linker_0, # of connection points: 2
#     Edge 58, Type (0, 0), BuildingBlock: ZUJKAS_clean_linker_0, # of connection points: 2
#     Edge 59, Type (0, 0), BuildingBlock: ZUJKAS_clean_linker_0, # of connection points: 2
#     Edge 60, Type (0, 0), BuildingBlock: ZUJKAS_clean_linker_0, # of connection points: 2
#     Edge 61, Type (0, 0), BuildingBlock: ZUJKAS_clean_linker_0, # of connection points: 2
#     Edge 62, Type (0, 0), BuildingBlock: ZUJKAS_clean_linker_0, # of connection points: 2
#     Edge 63, Type (0, 0), BuildingBlock: ZUJKAS_clean_linker_0, # of connection points: 2
#     Edge 64, Type (0, 0), BuildingBlock: ZUJKAS_clean_linker_0, # of connection points: 2
#     Edge 65, Type (0, 0), BuildingBlock: ZUJKAS_clean_linker_0, # of connection points: 2
#     Edge 66, Type (0, 0), BuildingBlock: ZUJKAS_clean_linker_0, # of connection points: 2
#     Edge 67, Type (0, 0), BuildingBlock: ZUJKAS_clean_linker_0, # of connection points: 2
#     Edge 68, Type (0, 0), BuildingBlock: ZUJKAS_clean_linker_0, # of connection points: 2
#     Edge 69, Type (0, 0), BuildingBlock: ZUJKAS_clean_linker_0, # of connection points: 2
#     Edge 70, Type (0, 0), BuildingBlock: ZUJKAS_clean_linker_0, # of connection points: 2
#     Edge 71, Type (0, 0), BuildingBlock: ZUJKAS_clean_linker_0, # of connection points: 2
#     Edge 72, Type (0, 0), BuildingBlock: ZUJKAS_clean_linker_0, # of connection points: 2
#     Edge 73, Type (0, 0), BuildingBlock: ZUJKAS_clean_linker_0, # of connection points: 2
#     Edge 74, Type (0, 0), BuildingBlock: ZUJKAS_clean_linker_0, # of connection points: 2
#     Edge 75, Type (0, 0), BuildingBlock: ZUJKAS_clean_linker_0, # of connection points: 2
#     Edge 76, Type (0, 0), BuildingBlock: ZUJKAS_clean_linker_0, # of connection points: 2
#     Edge 77, Type (0, 0), BuildingBlock: ZUJKAS_clean_linker_0, # of connection points: 2
#     Edge 78, Type (0, 0), BuildingBlock: ZUJKAS_clean_linker_0, # of connection points: 2
#     Edge 79, Type (0, 0), BuildingBlock: ZUJKAS_clean_linker_0, # of connection points: 2
#     Edge 80, Type (0, 0), BuildingBlock: ZUJKAS_clean_linker_0, # of connection points: 2
#     Edge 81, Type (0, 0), BuildingBlock: ZUJKAS_clean_linker_0, # of connection points: 2
#     Edge 82, Type (0, 0), BuildingBlock: ZUJKAS_clean_linker_0, # of connection points: 2
#     Edge 83, Type (0, 0), BuildingBlock: ZUJKAS_clean_linker_0, # of connection points: 2
#     Edge 84, Type (0, 0), BuildingBlock: ZUJKAS_clean_linker_0, # of connection points: 2
#     Edge 85, Type (0, 0), BuildingBlock: ZUJKAS_clean_linker_0, # of connection points: 2
#     Edge 86, Type (0, 0), BuildingBlock: ZUJKAS_clean_linker_0, # of connection points: 2
#     Edge 87, Type (0, 0), BuildingBlock: ZUJKAS_clean_linker_0, # of connection points: 2
#     Edge 88, Type (0, 0), BuildingBlock: ZUJKAS_clean_linker_0, # of connection points: 2
#     Edge 89, Type (0, 0), BuildingBlock: ZUJKAS_clean_linker_0, # of connection points: 2
#     Edge 90, Type (0, 0), BuildingBlock: ZUJKAS_clean_linker_0, # of connection points: 2
#     Edge 91, Type (0, 0), BuildingBlock: ZUJKAS_clean_linker_0, # of connection points: 2
#     Edge 92, Type (0, 0), BuildingBlock: ZUJKAS_clean_linker_0, # of connection points: 2
#     Edge 93, Type (0, 0), BuildingBlock: ZUJKAS_clean_linker_0, # of connection points: 2
#     Edge 94, Type (0, 0), BuildingBlock: ZUJKAS_clean_linker_0, # of connection points: 2
#     Edge 95, Type (0, 0), BuildingBlock: ZUJKAS_clean_linker_0, # of connection points: 2
# Relax obj value: 0.223
# Max RMSD: 0.255
# Mean RMSD: 0.255
data_MOF--net-sxg--node1-IZENUY_clean_sbu_0--edge1-ZUJKAS_clean_linker_0
_symmetry_space_group_name_H-M    P1
_symmetry_Int_Tables_number       1
_symmetry_cell_setting            triclinic
loop_
_symmetry_equiv_pos_as_xyz
'x, y, z'
_cell_length_a     57.899458
_cell_length_b     57.887364
_cell_length_c     57.870346
_cell_angle_alpha  89.980975
_cell_angle_beta   90.023636
_cell_angle_gamma 89.995414
loop_
_atom_site_label
_atom_site_type_symbol
_atom_site_fract_x
_atom_site_fract_y
_atom_site_fract_z
_atom_type_partial_charge
Fe0 Fe 0.05998 0.35286 0.18722 0.0
Fe1 Fe 0.05132 0.34103 0.23812 0.0
O2 O 0.05605 0.3321 0.20927 0.0
Fe3 Fe 0.05707 0.3024 0.2024 0.0
O4 O 0.03283 0.30509 0.18293 0.0
O5 O 0.04659 0.33516 0.16433 0.0
O6 O 0.03174 0.36472 0.19232 0.0
C7 C 0.02472 0.37249 0.21138 0.0
C8 C 0.09311 0.32162 0.17561 0.0
O9 O 0.03523 0.36755 0.23005 0.0
C10 C 0.08096 0.30197 0.24273 0.0
O11 O 0.0741 0.37433 0.20604 0.0
O12 O 0.07874 0.35599 0.23892 0.0
O13 O 0.07839 0.30569 0.17886 0.0
O14 O 0.0885 0.34216 0.18099 0.0
C15 C 0.02124 0.30509 0.23619 0.0
O16 O 0.06634 0.31593 0.2513 0.0
O17 O 0.08132 0.29811 0.22136 0.0
C18 C 0.08494 0.37142 0.22486 0.0
O19 O 0.02372 0.32651 0.23913 0.0
O20 O 0.03619 0.29359 0.22498 0.0
C21 C 0.03239 0.31852 0.1658 0.0
Fe22 Fe 0.4424 0.64738 0.68687 0.0
Fe23 Fe 0.45135 0.6592 0.73777 0.0
O24 O 0.44698 0.66811 0.70885 0.0
Fe25 Fe 0.44683 0.69783 0.70189 0.0
O26 O 0.47105 0.69438 0.68258 0.0
O27 O 0.45665 0.66455 0.66401 0.0
O28 O 0.4701 0.63431 0.69217 0.0
C29 C 0.47672 0.62642 0.71133 0.0
C30 C 0.41041 0.67974 0.67487 0.0
O31 O 0.46666 0.6322 0.72997 0.0
C32 C 0.42268 0.69893 0.74203 0.0
O33 O 0.42732 0.62656 0.70571 0.0
O34 O 0.42348 0.6451 0.73857 0.0
O35 O 0.4256 0.69518 0.67817 0.0
O36 O 0.41432 0.6591 0.68039 0.0
C37 C 0.48244 0.69424 0.73586 0.0
O38 O 0.43702 0.68477 0.75074 0.0
O39 O 0.42257 0.70286 0.72066 0.0
C40 C 0.41665 0.62992 0.72455 0.0
O41 O 0.47938 0.67289 0.7388 0.0
O42 O 0.46782 0.70611 0.72459 0.0
C43 C 0.47118 0.68094 0.66545 0.0
Fe44 Fe 0.54986 0.15983 0.76273 0.0
Fe45 Fe 0.55458 0.19855 0.79859 0.0
O46 O 0.55464 0.16881 0.79156 0.0
Fe47 Fe 0.55985 0.14817 0.81346 0.0
O48 O 0.53214 0.13498 0.80883 0.0
O49 O 0.53462 0.13287 0.77092 0.0
O50 O 0.52181 0.17348 0.76207 0.0
C51 C 0.51865 0.19479 0.76501 0.0
C52 C 0.5847 0.13039 0.77533 0.0
O53 O 0.53327 0.20674 0.77617 0.0
C54 C 0.59173 0.18083 0.82456 0.0
O55 O 0.56404 0.18543 0.74956 0.0
O56 O 0.57852 0.20384 0.77948 0.0
O57 O 0.57452 0.1273 0.79446 0.0
O58 O 0.57772 0.14563 0.76143 0.0
C59 C 0.53104 0.18132 0.83534 0.0
O60 O 0.57612 0.19599 0.82203 0.0
O61 O 0.58802 0.16015 0.8191 0.0
C62 C 0.57829 0.19978 0.75813 0.0
O63 O 0.53065 0.19481 0.81825 0.0
O64 O 0.54596 0.16527 0.83657 0.0
C65 C 0.52501 0.12713 0.78984 0.0
Fe66 Fe 0.95379 0.84197 0.26324 0.0
Fe67 Fe 0.9463 0.80347 0.29871 0.0
O68 O 0.94781 0.83316 0.29188 0.0
Fe69 Fe 0.94293 0.85407 0.31361 0.0
O70 O 0.97137 0.86587 0.30968 0.0
O71 O 0.96937 0.86864 0.27187 0.0
O72 O 0.98148 0.82755 0.26354 0.0
C73 C 0.98382 0.80612 0.26669 0.0
C74 C 0.91931 0.87198 0.27503 0.0
O75 O 0.96831 0.79465 0.2772 0.0
C76 C 0.90924 0.82289 0.32401 0.0
O77 O 0.93969 0.81678 0.24949 0.0
O78 O 0.92287 0.79925 0.27861 0.0
O79 O 0.92966 0.87548 0.29401 0.0
O80 O 0.92619 0.85656 0.2613 0.0
C81 C 0.9694 0.8196 0.33635 0.0
O82 O 0.92395 0.80687 0.32123 0.0
O83 O 0.91412 0.84341 0.31876 0.0
C84 C 0.92435 0.80324 0.25731 0.0
O85 O 0.96953 0.80603 0.31934 0.0
O86 O 0.95538 0.83646 0.33711 0.0
C87 C 0.97917 0.87359 0.29091 0.0
Fe88 Fe 0.20699 0.05431 0.30394 0.0
Fe89 Fe 0.18882 0.06146 0.35336 0.0
O90 O 0.21217 0.0574 0.33395 0.0
Fe91 Fe 0.24089 0.0567 0.34464 0.0
O92 O 0.25171 0.0373 0.32226 0.0
O93 O 0.22102 0.026 0.30304 0.0
O94 O 0.1793 0.03937 0.30727 0.0
C95 C 0.17016 0.02903 0.32423 0.0
C96 C 0.24586 0.08349 0.30601 0.0
O97 O 0.17533 0.03444 0.34472 0.0
C98 C 0.22033 0.09151 0.37184 0.0
O99 O 0.1932 0.08244 0.30263 0.0
O100 O 0.17109 0.0782 0.33314 0.0
O101 O 0.24893 0.08205 0.32762 0.0
O102 O 0.23348 0.06901 0.29532 0.0
C103 C 0.21816 0.03005 0.37654 0.0
O104 O 0.20047 0.08893 0.3633 0.0
O105 O 0.23559 0.07612 0.36911 0.0
C106 C 0.17702 0.08948 0.31539 0.0
O107 O 0.20249 0.04535 0.37703 0.0
O108 O 0.2344 0.03122 0.36196 0.0
C109 C 0.24186 0.02308 0.30893 0.0
Fe110 Fe 0.26371 0.95144 0.84372 0.0
Fe111 Fe 0.29892 0.9457 0.80469 0.0
O112 O 0.29243 0.94638 0.83452 0.0
Fe113 Fe 0.31453 0.94159 0.85506 0.0
O114 O 0.3098 0.96944 0.86806 0.0
O115 O 0.27204 0.96652 0.87065 0.0
O116 O 0.26325 0.97946 0.82989 0.0
C117 C 0.26587 0.98218 0.80843 0.0
C118 C 0.27662 0.91641 0.8728 0.0
O119 O 0.27657 0.96713 0.79656 0.0
C120 C 0.32569 0.90909 0.82283 0.0
O121 O 0.25013 0.9375 0.81832 0.0
O122 O 0.27951 0.92173 0.80029 0.0
O123 O 0.29564 0.92681 0.87605 0.0
O124 O 0.26248 0.92359 0.85786 0.0
C125 C 0.33601 0.96966 0.82085 0.0
O126 O 0.32222 0.92405 0.8072 0.0
O127 O 0.32056 0.91334 0.84349 0.0
C128 C 0.25823 0.92257 0.80448 0.0
O129 O 0.31884 0.96951 0.80746 0.0
O130 O 0.33735 0.95551 0.8376 0.0
C131 C 0.29086 0.97633 0.87621 0.0
Fe132 Fe 0.73933 0.45173 0.65883 0.0
Fe133 Fe 0.70388 0.44611 0.69774 0.0
O134 O 0.71056 0.44683 0.66793 0.0
Fe135 Fe 0.68847 0.44235 0.64729 0.0
O136 O 0.69333 0.47032 0.63464 0.0
O137 O 0.73112 0.4674 0.63218 0.0
O138 O 0.74013 0.47952 0.67302 0.0
C139 C 0.73749 0.48216 0.69446 0.0
C140 C 0.72639 0.4175 0.62889 0.0
O141 O 0.7264 0.46727 0.70618 0.0
C142 C 0.67703 0.40969 0.67924 0.0
O143 O 0.75271 0.43713 0.68402 0.0
O144 O 0.72305 0.42202 0.70221 0.0
O145 O 0.70726 0.42781 0.62605 0.0
O146 O 0.74039 0.42416 0.64418 0.0
C147 C 0.66698 0.47032 0.68151 0.0
O148 O 0.68043 0.4246 0.69494 0.0
O149 O 0.68237 0.41399 0.65862 0.0
C150 C 0.74437 0.42249 0.69808 0.0
O151 O 0.68415 0.47013 0.69491 0.0
O152 O 0.66564 0.45611 0.66484 0.0
C153 C 0.71232 0.47735 0.62673 0.0
Fe154 Fe 0.79973 0.55516 0.19704 0.0
Fe155 Fe 0.81532 0.55991 0.14679 0.0
O156 O 0.79309 0.55534 0.16722 0.0
Fe157 Fe 0.76427 0.55131 0.15794 0.0
O158 O 0.76285 0.52321 0.17147 0.0
O159 O 0.77674 0.53437 0.20494 0.0
O160 O 0.81882 0.53076 0.19357 0.0
C161 C 0.83614 0.5307 0.1804 0.0
C162 C 0.75985 0.57977 0.19779 0.0
O163 O 0.8379 0.54545 0.16421 0.0
C164 C 0.77804 0.58589 0.12879 0.0
O165 O 0.82369 0.57615 0.19476 0.0
O166 O 0.8216 0.58794 0.1588 0.0
O167 O 0.75117 0.56563 0.18342 0.0
O168 O 0.78114 0.57958 0.20207 0.0
C169 C 0.79091 0.52584 0.12542 0.0
O170 O 0.79687 0.57514 0.12575 0.0
O171 O 0.76385 0.57925 0.1439 0.0
C172 C 0.82684 0.59161 0.17955 0.0
O173 O 0.81005 0.53229 0.13352 0.0
O174 O 0.7723 0.53607 0.131 0.0
C175 C 0.76548 0.51996 0.19282 0.0
Fe176 Fe 0.30457 0.20184 0.05865 0.0
Fe177 Fe 0.35503 0.18649 0.0622 0.0
O178 O 0.33434 0.20851 0.05748 0.0
Fe179 Fe 0.34339 0.23721 0.05198 0.0
O180 O 0.32896 0.23757 0.02429 0.0
O181 O 0.29597 0.2237 0.0369 0.0
O182 O 0.30714 0.18152 0.03513 0.0
C183 C 0.32057 0.16439 0.03512 0.0
C184 C 0.3044 0.24287 0.08135 0.0
O185 O 0.33736 0.16332 0.0492 0.0
C186 C 0.37351 0.22474 0.08627 0.0
O187 O 0.30762 0.17907 0.08081 0.0
O188 O 0.3441 0.18103 0.09084 0.0
O189 O 0.31835 0.25093 0.06647 0.0
O190 O 0.3003 0.22157 0.08226 0.0
C191 C 0.37515 0.20967 0.02653 0.0
O192 O 0.37641 0.2056 0.07603 0.0
O193 O 0.35824 0.2387 0.07948 0.0
C194 C 0.32347 0.17627 0.09569 0.0
O195 O 0.36729 0.19079 0.03395 0.0
O196 O 0.36988 0.22864 0.03624 0.0
C197 C 0.30755 0.23454 0.02173 0.0
Fe198 Fe 0.85395 0.31451 0.94177 0.0
Fe199 Fe 0.84199 0.26383 0.95131 0.0
O200 O 0.83312 0.29258 0.94583 0.0
Fe201 Fe 0.80341 0.29933 0.94414 0.0
O202 O 0.80556 0.31938 0.96796 0.0
O203 O 0.83616 0.33756 0.95472 0.0
O204 O 0.86561 0.30981 0.97024 0.0
C205 C 0.87332 0.29084 0.97755 0.0
C206 C 0.82308 0.32571 0.90801 0.0
O207 O 0.86841 0.27209 0.96727 0.0
C208 C 0.80363 0.25848 0.92123 0.0
O209 O 0.87542 0.2954 0.92806 0.0
O210 O 0.85713 0.2624 0.924 0.0
O211 O 0.80691 0.32247 0.92244 0.0
O212 O 0.84355 0.32043 0.91301 0.0
C213 C 0.80574 0.26649 0.98091 0.0
O214 O 0.81701 0.25037 0.93657 0.0
O215 O 0.79961 0.2798 0.92015 0.0
C216 C 0.87256 0.27637 0.91758 0.0
O217 O 0.82722 0.26357 0.97884 0.0
O218 O 0.79442 0.27718 0.96542 0.0
C219 C 0.81909 0.33642 0.96844 0.0
Fe220 Fe 0.64875 0.68748 0.44085 0.0
Fe221 Fe 0.6599 0.73844 0.44983 0.0
O222 O 0.66922 0.70972 0.44504 0.0
Fe223 Fe 0.69904 0.70323 0.4442 0.0
O224 O 0.69651 0.68359 0.46834 0.0
O225 O 0.66657 0.66481 0.45446 0.0
O226 O 0.63651 0.69235 0.46898 0.0
C227 C 0.62852 0.7113 0.47602 0.0
C228 C 0.68044 0.67627 0.40796 0.0
O229 O 0.63337 0.73004 0.46565 0.0
C230 C 0.69896 0.74363 0.4204 0.0
O231 O 0.62722 0.70608 0.42648 0.0
O232 O 0.64514 0.73925 0.42229 0.0
O233 O 0.69621 0.6797 0.4228 0.0
O234 O 0.65981 0.68141 0.41241 0.0
C235 C 0.69566 0.73684 0.48017 0.0
O236 O 0.68493 0.75196 0.43508 0.0
O237 O 0.7032 0.72233 0.42 0.0
C238 C 0.62995 0.72505 0.41585 0.0
O239 O 0.6742 0.73941 0.47757 0.0
O240 O 0.70742 0.72589 0.46523 0.0
C241 C 0.6832 0.66637 0.46869 0.0
Fe242 Fe 0.16035 0.76549 0.55034 0.0
Fe243 Fe 0.19884 0.80162 0.55433 0.0
O244 O 0.16916 0.79442 0.55466 0.0
Fe245 Fe 0.14842 0.81627 0.55968 0.0
O246 O 0.13505 0.81115 0.53212 0.0
O247 O 0.13325 0.77327 0.53522 0.0
O248 O 0.17382 0.76451 0.52218 0.0
C249 C 0.19512 0.76748 0.51892 0.0
C250 C 0.13105 0.77831 0.58521 0.0
O251 O 0.20704 0.77898 0.5333 0.0
C252 C 0.1812 0.82792 0.59125 0.0
O253 O 0.18608 0.75268 0.5645 0.0
O254 O 0.20442 0.78285 0.57852 0.0
O255 O 0.12776 0.79732 0.57481 0.0
O256 O 0.14636 0.76447 0.57832 0.0
C257 C 0.1813 0.838 0.53034 0.0
O258 O 0.19629 0.82533 0.57559 0.0
O259 O 0.16053 0.82235 0.58769 0.0
C260 C 0.20048 0.76148 0.57856 0.0
O261 O 0.1948 0.82091 0.53011 0.0
O262 O 0.16532 0.83933 0.54534 0.0
C263 C 0.12725 0.79199 0.5254 0.0
Fe264 Fe 0.94368 0.64724 0.81447 0.0
Fe265 Fe 0.95403 0.65861 0.76376 0.0
O266 O 0.94851 0.66779 0.7924 0.0
Fe267 Fe 0.94756 0.69758 0.79897 0.0
O268 O 0.97126 0.69484 0.81917 0.0
O269 O 0.95678 0.66495 0.83757 0.0
O270 O 0.97187 0.63486 0.81025 0.0
C271 C 0.97942 0.627 0.79143 0.0
C272 C 0.91066 0.67903 0.8251 0.0
O273 O 0.96956 0.632 0.77244 0.0
C274 C 0.92483 0.69772 0.75799 0.0
O275 O 0.92971 0.62586 0.79541 0.0
O276 O 0.92645 0.64393 0.7622 0.0
O277 O 0.92563 0.69475 0.82202 0.0
O278 O 0.91512 0.65841 0.8199 0.0
C279 C 0.9843 0.69433 0.76612 0.0
O280 O 0.93978 0.6838 0.75001 0.0
O281 O 0.9238 0.70189 0.77929 0.0
C282 C 0.91955 0.62873 0.77619 0.0
O283 O 0.98183 0.67286 0.76351 0.0
O284 O 0.96913 0.70601 0.77685 0.0
C285 C 0.97114 0.68149 0.83639 0.0
Fe286 Fe 0.5564 0.30465 0.30054 0.0
Fe287 Fe 0.5601 0.3554 0.31479 0.0
O288 O 0.55539 0.33428 0.29325 0.0
Fe289 Fe 0.54985 0.34274 0.26439 0.0
O290 O 0.52206 0.32853 0.26458 0.0
O291 O 0.53485 0.29568 0.27861 0.0
O292 O 0.53273 0.30778 0.32061 0.0
C293 C 0.53264 0.32166 0.33739 0.0
C294 C 0.57903 0.3035 0.25959 0.0
O295 O 0.54692 0.33829 0.33825 0.0
C296 C 0.58422 0.37296 0.27603 0.0
O297 O 0.57828 0.3081 0.32352 0.0
O298 O 0.58866 0.34443 0.32065 0.0
O299 O 0.56405 0.3172 0.25129 0.0
O300 O 0.58018 0.29993 0.28099 0.0
C301 C 0.52438 0.37495 0.29111 0.0
O302 O 0.5741 0.37628 0.29519 0.0
O303 O 0.5774 0.35735 0.26247 0.0
C304 C 0.59318 0.32393 0.32629 0.0
O305 O 0.53187 0.36758 0.31014 0.0
O306 O 0.53439 0.3696 0.27232 0.0
C307 C 0.51961 0.30713 0.2677 0.0
Fe308 Fe 0.4514 0.84013 0.23701 0.0
Fe309 Fe 0.44571 0.80129 0.20165 0.0
O310 O 0.44614 0.83103 0.20832 0.0
Fe311 Fe 0.44096 0.85164 0.18635 0.0
O312 O 0.46893 0.86447 0.19071 0.0
O313 O 0.46637 0.86713 0.22851 0.0
O314 O 0.47948 0.82649 0.23729 0.0
C315 C 0.48239 0.8051 0.23448 0.0
C316 C 0.41619 0.86905 0.22454 0.0
O317 O 0.46741 0.79318 0.22374 0.0
C318 C 0.40841 0.81929 0.17582 0.0
O319 O 0.43758 0.81467 0.25066 0.0
O320 O 0.42206 0.79647 0.22124 0.0
O321 O 0.42656 0.87267 0.20557 0.0
O322 O 0.4235 0.854 0.23845 0.0
C323 C 0.46902 0.8179 0.16438 0.0
O324 O 0.42371 0.80385 0.17867 0.0
O325 O 0.41262 0.84001 0.18081 0.0
C326 C 0.42286 0.80058 0.24255 0.0
O327 O 0.46931 0.80453 0.18156 0.0
O328 O 0.45443 0.83426 0.16317 0.0
C329 C 0.47625 0.87238 0.20961 0.0
Fe330 Fe 0.05964 0.14751 0.68826 0.0
Fe331 Fe 0.05114 0.15965 0.73911 0.0
O332 O 0.05528 0.16837 0.71011 0.0
Fe333 Fe 0.05531 0.19801 0.70284 0.0
O334 O 0.03084 0.19432 0.68384 0.0
O335 O 0.0455 0.16466 0.66528 0.0
O336 O 0.03179 0.1349 0.69371 0.0
C337 C 0.02501 0.12734 0.71295 0.0
C338 C 0.09156 0.17964 0.67602 0.0
O339 O 0.03553 0.13274 0.73149 0.0
C340 C 0.08006 0.19933 0.74269 0.0
O341 O 0.0745 0.12657 0.70715 0.0
O342 O 0.07889 0.14529 0.73981 0.0
O343 O 0.07622 0.19501 0.67891 0.0
O344 O 0.08783 0.15904 0.68183 0.0
C345 C 0.02013 0.19482 0.73716 0.0
O346 O 0.06584 0.18523 0.75173 0.0
O347 O 0.07977 0.20322 0.72131 0.0
C348 C 0.08529 0.12979 0.72595 0.0
O349 O 0.02322 0.17352 0.74031 0.0
O350 O 0.03465 0.20658 0.72567 0.0
C351 C 0.03079 0.18088 0.66672 0.0
Fe352 Fe 0.81523 0.94191 0.64822 0.0
Fe353 Fe 0.76415 0.95091 0.65882 0.0
O354 O 0.7928 0.94645 0.66842 0.0
Fe355 Fe 0.79909 0.94623 0.69829 0.0
O356 O 0.81848 0.97047 0.69532 0.0
O357 O 0.83777 0.95586 0.66608 0.0
O358 O 0.81038 0.96986 0.63538 0.0
C359 C 0.7914 0.97672 0.62725 0.0
C360 C 0.82622 0.90975 0.6807 0.0
O361 O 0.77269 0.96631 0.63213 0.0
C362 C 0.75893 0.92207 0.6983 0.0
O363 O 0.79685 0.92718 0.62673 0.0
O364 O 0.76362 0.92314 0.64451 0.0
O365 O 0.82288 0.92503 0.69605 0.0
O366 O 0.82113 0.91363 0.65993 0.0
C367 C 0.76527 0.98188 0.69404 0.0
O368 O 0.75058 0.93647 0.68398 0.0
O369 O 0.78018 0.92197 0.70283 0.0
C370 C 0.77786 0.91659 0.62941 0.0
O371 O 0.76282 0.97888 0.67263 0.0
O372 O 0.77624 0.96721 0.70614 0.0
C373 C 0.83598 0.97045 0.68239 0.0
Fe374 Fe 0.68607 0.06024 0.14673 0.0
Fe375 Fe 0.73746 0.05242 0.15688 0.0
O376 O 0.70867 0.05525 0.16671 0.0
Fe377 Fe 0.70228 0.05351 0.19655 0.0
O378 O 0.68361 0.02891 0.19204 0.0
O379 O 0.66388 0.04494 0.16388 0.0
O380 O 0.69159 0.03322 0.13247 0.0
C381 C 0.71074 0.02727 0.12402 0.0
C382 C 0.67467 0.09044 0.18084 0.0
O383 O 0.7293 0.03766 0.12963 0.0
C384 C 0.74157 0.07929 0.19794 0.0
O385 O 0.70388 0.07641 0.12584 0.0
O386 O 0.73693 0.08077 0.14376 0.0
O387 O 0.67797 0.07429 0.19533 0.0
O388 O 0.67968 0.08768 0.15988 0.0
C389 C 0.73805 0.01987 0.19063 0.0
O390 O 0.75052 0.06634 0.18263 0.0
O391 O 0.72042 0.07798 0.20268 0.0
C392 C 0.72254 0.08741 0.12887 0.0
O393 O 0.74013 0.02407 0.1694 0.0
O394 O 0.72577 0.0328 0.20341 0.0
C395 C 0.66603 0.02937 0.17921 0.0
Fe396 Fe 0.29805 0.55597 0.30377 0.0
Fe397 Fe 0.3122 0.55902 0.35455 0.0
O398 O 0.29053 0.55559 0.33331 0.0
Fe399 Fe 0.26136 0.5519 0.3417 0.0
O400 O 0.25989 0.52405 0.32771 0.0
O401 O 0.27521 0.53543 0.29487 0.0
O402 O 0.31689 0.53131 0.30718 0.0
C403 C 0.33381 0.53069 0.32085 0.0
C404 C 0.25834 0.58075 0.30186 0.0
O405 O 0.33516 0.54485 0.33753 0.0
C406 C 0.27494 0.58551 0.37184 0.0
O407 O 0.32198 0.57681 0.30733 0.0
O408 O 0.31958 0.58723 0.34374 0.0
O409 O 0.24912 0.56669 0.31598 0.0
O410 O 0.2798 0.58061 0.29862 0.0
C411 C 0.28641 0.52478 0.37377 0.0
O412 O 0.29326 0.57399 0.37542 0.0
O413 O 0.26113 0.57964 0.35606 0.0
C414 C 0.32542 0.59152 0.32325 0.0
O415 O 0.30589 0.53095 0.36638 0.0
O416 O 0.26835 0.5362 0.36876 0.0
C417 C 0.2634 0.52098 0.30644 0.0
Fe418 Fe 0.24077 0.44629 0.84647 0.0
Fe419 Fe 0.18867 0.43958 0.85365 0.0
O420 O 0.21246 0.44435 0.83494 0.0
Fe421 Fe 0.20801 0.44697 0.80473 0.0
O422 O 0.2355 0.43369 0.79688 0.0
O423 O 0.25045 0.42142 0.82969 0.0
O424 O 0.23558 0.42636 0.87061 0.0
C425 C 0.22069 0.41053 0.87297 0.0
C426 C 0.24088 0.48023 0.81099 0.0
O427 O 0.20088 0.41263 0.86418 0.0
C428 C 0.16989 0.47115 0.82376 0.0
O429 O 0.23276 0.47135 0.86363 0.0
O430 O 0.20092 0.45621 0.87769 0.0
O431 O 0.22064 0.47584 0.80401 0.0
O432 O 0.25122 0.4665 0.82453 0.0
C433 C 0.17922 0.41079 0.81561 0.0
O434 O 0.17473 0.46611 0.84442 0.0
O435 O 0.1795 0.46065 0.80716 0.0
C436 C 0.21591 0.47215 0.87747 0.0
O437 O 0.17223 0.42217 0.83291 0.0
O438 O 0.19564 0.41819 0.80336 0.0
C439 C 0.24836 0.42001 0.808 0.0
Fe440 Fe 0.64851 0.8141 0.94118 0.0
Fe441 Fe 0.66068 0.7634 0.95038 0.0
O442 O 0.66943 0.79228 0.9454 0.0
Fe443 Fe 0.69911 0.79934 0.9444 0.0
O444 O 0.69631 0.81914 0.96837 0.0
O445 O 0.66593 0.83722 0.95453 0.0
O446 O 0.63651 0.80913 0.96941 0.0
C447 C 0.62881 0.79007 0.9765 0.0
C448 C 0.6798 0.82572 0.90806 0.0
O449 O 0.63401 0.77138 0.9662 0.0
C450 C 0.69987 0.75874 0.92098 0.0
O451 O 0.62729 0.795 0.92704 0.0
O452 O 0.64586 0.76219 0.92286 0.0
O453 O 0.69575 0.82262 0.9228 0.0
O454 O 0.65931 0.82023 0.91266 0.0
C455 C 0.69646 0.7659 0.98064 0.0
O456 O 0.68595 0.75026 0.93568 0.0
O457 O 0.70362 0.78012 0.92035 0.0
C458 C 0.63035 0.77606 0.91644 0.0
O459 O 0.67507 0.76282 0.97808 0.0
O460 O 0.70796 0.77705 0.96562 0.0
C461 C 0.68271 0.83613 0.96861 0.0
Fe462 Fe 0.14749 0.68634 0.05978 0.0
Fe463 Fe 0.15766 0.73824 0.05451 0.0
O464 O 0.16746 0.70918 0.05509 0.0
Fe465 Fe 0.19723 0.70309 0.05125 0.0
O466 O 0.1927 0.67536 0.03674 0.0
O467 O 0.15508 0.67243 0.03266 0.0
O468 O 0.12379 0.70051 0.04416 0.0
C469 C 0.12423 0.7163 0.02899 0.0
C470 C 0.18582 0.67384 0.08704 0.0
O471 O 0.1392 0.73216 0.02983 0.0
C472 C 0.19733 0.74235 0.07988 0.0
O473 O 0.13845 0.69835 0.08735 0.0
O474 O 0.13392 0.73387 0.07502 0.0
O475 O 0.19884 0.68961 0.07951 0.0
O476 O 0.16767 0.66824 0.07622 0.0
C477 C 0.19175 0.73744 0.0193 0.0
O478 O 0.17583 0.74606 0.07911 0.0
O479 O 0.20713 0.72949 0.06523 0.0
C480 C 0.13094 0.71857 0.09034 0.0
O481 O 0.17948 0.74807 0.03393 0.0
O482 O 0.19777 0.71672 0.02279 0.0
C483 C 0.17528 0.66674 0.02675 0.0
Fe484 Fe 0.30195 0.30048 0.55763 0.0
Fe485 Fe 0.3521 0.3164 0.56171 0.0
O486 O 0.33177 0.29426 0.55623 0.0
Fe487 Fe 0.34116 0.26591 0.54969 0.0
O488 O 0.32659 0.26634 0.52198 0.0
O489 O 0.29354 0.27904 0.53552 0.0
O490 O 0.30437 0.32132 0.53449 0.0
C491 C 0.31752 0.33866 0.53509 0.0
C492 C 0.30256 0.25885 0.57912 0.0
O493 O 0.33398 0.33973 0.54956 0.0
C494 C 0.3712 0.27758 0.58436 0.0
O495 O 0.30471 0.32282 0.58023 0.0
O496 O 0.34105 0.32063 0.59056 0.0
O497 O 0.31632 0.25149 0.56372 0.0
O498 O 0.29807 0.28003 0.58081 0.0
C499 C 0.37246 0.29472 0.52518 0.0
O500 O 0.37377 0.29714 0.57483 0.0
O501 O 0.35615 0.26362 0.57709 0.0
C502 C 0.32037 0.32522 0.59536 0.0
O503 O 0.36444 0.31327 0.53328 0.0
O504 O 0.36747 0.27538 0.53428 0.0
C505 C 0.30508 0.26898 0.51982 0.0
Fe506 Fe 0.84322 0.23761 0.45009 0.0
Fe507 Fe 0.8039 0.20258 0.4449 0.0
O508 O 0.83373 0.20893 0.44548 0.0
Fe509 Fe 0.85407 0.18656 0.44123 0.0
O510 O 0.86644 0.19142 0.46935 0.0
O511 O 0.8698 0.22909 0.46578 0.0
O512 O 0.82915 0.23881 0.47792 0.0
C513 C 0.80771 0.23633 0.48072 0.0
C514 C 0.87289 0.22392 0.41602 0.0
O515 O 0.79579 0.2253 0.46595 0.0
C516 C 0.82213 0.17557 0.40849 0.0
O517 O 0.81814 0.25122 0.43547 0.0
O518 O 0.79955 0.22163 0.4207 0.0
O519 O 0.87565 0.20503 0.4268 0.0
O520 O 0.85776 0.23818 0.42244 0.0
C521 C 0.81972 0.16561 0.46924 0.0
O522 O 0.80648 0.17902 0.42348 0.0
O523 O 0.84282 0.18056 0.41283 0.0
C524 C 0.80388 0.24291 0.42099 0.0
O525 O 0.80662 0.183 0.46908 0.0
O526 O 0.83616 0.16394 0.45484 0.0
C527 C 0.87452 0.21038 0.47629 0.0
H528 H 0.10531 0.4047 0.19793 0.0
H529 H 0.13882 0.4287 0.20753 0.0
H530 H 0.14245 0.39691 0.27483 0.0
H531 H 0.10934 0.37266 0.26533 0.0
H532 H 0.14445 0.46036 0.2424 0.0
H533 H 0.20835 0.38987 0.25201 0.0
H534 H 0.18053 0.38555 0.23859 0.0
H535 H 0.1832 0.38554 0.26958 0.0
C536 C 0.11324 0.40281 0.21478 0.0
C537 C 0.10463 0.3867 0.23084 0.0
C538 C 0.13242 0.4165 0.2202 0.0
C539 C 0.14344 0.41426 0.24171 0.0
C540 C 0.13463 0.39851 0.2579 0.0
H541 H 0.2416 0.48393 0.32575 0.0
H542 H 0.21438 0.4576 0.30715 0.0
C543 C 0.11553 0.38478 0.25249 0.0
C544 C 0.16362 0.42893 0.24766 0.0
H545 H 0.21904 0.42664 0.26789 0.0
C546 C 0.16088 0.45302 0.24763 0.0
C547 C 0.18509 0.41932 0.25438 0.0
C548 C 0.18959 0.39366 0.25343 0.0
C549 C 0.17865 0.46771 0.25522 0.0
C550 C 0.19978 0.45803 0.26278 0.0
C551 C 0.20279 0.43399 0.26213 0.0
C552 C 0.21822 0.47249 0.2731 0.0
C553 C 0.17433 0.49341 0.25609 0.0
C554 C 0.23001 0.4891 0.25992 0.0
C555 C 0.24571 0.50417 0.27049 0.0
C556 C 0.24977 0.50292 0.29444 0.0
C557 C 0.23875 0.48548 0.30731 0.0
C558 C 0.22321 0.47038 0.29671 0.0
H559 H 0.15584 0.49774 0.25333 0.0
H560 H 0.17988 0.5006 0.27299 0.0
H561 H 0.18459 0.50203 0.24238 0.0
H562 H 0.22661 0.49077 0.24159 0.0
H563 H 0.25388 0.5174 0.26008 0.0
H564 H 0.23235 0.50499 0.77104 0.0
H565 H 0.25883 0.53225 0.75193 0.0
H566 H 0.30672 0.52544 0.80856 0.0
H567 H 0.28068 0.49849 0.82765 0.0
H568 H 0.28177 0.57569 0.76903 0.0
H569 H 0.34259 0.50443 0.74891 0.0
H570 H 0.31266 0.49948 0.75623 0.0
H571 H 0.33343 0.50532 0.77856 0.0
C572 C 0.24834 0.50964 0.77957 0.0
C573 C 0.25454 0.49933 0.80072 0.0
C574 C 0.26346 0.52513 0.76861 0.0
C575 C 0.28491 0.53044 0.77866 0.0
C576 C 0.29044 0.52122 0.80034 0.0
H577 H 0.39072 0.63164 0.76402 0.0
H578 H 0.35723 0.60815 0.77407 0.0
C579 C 0.27547 0.50584 0.81123 0.0
C580 C 0.30223 0.54477 0.76639 0.0
H581 H 0.35743 0.54276 0.74574 0.0
C582 C 0.2982 0.56849 0.76361 0.0
C583 C 0.3235 0.53526 0.75903 0.0
C584 C 0.32831 0.50968 0.7606 0.0
C585 C 0.31541 0.58317 0.75474 0.0
C586 C 0.33727 0.57387 0.74884 0.0
C587 C 0.34079 0.54994 0.75048 0.0
C588 C 0.35713 0.58869 0.74215 0.0
C589 C 0.31011 0.60853 0.75196 0.0
C590 C 0.36869 0.58514 0.72111 0.0
C591 C 0.38808 0.59842 0.71538 0.0
C592 C 0.39641 0.61539 0.73067 0.0
C593 C 0.38482 0.61877 0.75178 0.0
C594 C 0.36548 0.60551 0.75748 0.0
H595 H 0.29125 0.61158 0.75013 0.0
H596 H 0.31609 0.61795 0.76754 0.0
H597 H 0.31905 0.61588 0.73665 0.0
H598 H 0.36268 0.5721 0.70911 0.0
H599 H 0.39652 0.59539 0.69895 0.0
H600 H 0.60773 0.12904 0.73399 0.0
H601 H 0.64053 0.10466 0.72343 0.0
H602 H 0.63989 0.074 0.79134 0.0
H603 H 0.60678 0.098 0.80195 0.0
H604 H 0.68398 0.10203 0.74265 0.0
H605 H 0.63923 0.01746 0.74984 0.0
H606 H 0.62382 0.04455 0.74954 0.0
H607 H 0.63792 0.03486 0.77548 0.0
C608 C 0.61443 0.117 0.74667 0.0
C609 C 0.60441 0.11533 0.76876 0.0
C610 C 0.63325 0.10312 0.74061 0.0
C611 C 0.64248 0.08725 0.75646 0.0
C612 C 0.63274 0.08573 0.77863 0.0
H613 H 0.75345 0.98555 0.73984 0.0
H614 H 0.72572 0.01255 0.75702 0.0
C615 C 0.61384 0.09954 0.78469 0.0
C616 C 0.66244 0.07254 0.74977 0.0
H617 H 0.6793 0.01647 0.74221 0.0
C618 C 0.68296 0.08332 0.74259 0.0
C619 C 0.66115 0.04811 0.74977 0.0
C620 C 0.63931 0.03551 0.75637 0.0
C621 C 0.70216 0.07036 0.73532 0.0
C622 C 0.70072 0.04597 0.73498 0.0
C623 C 0.6804 0.03517 0.74262 0.0
C624 C 0.71945 0.03134 0.72531 0.0
C625 C 0.72385 0.08286 0.72812 0.0
C626 C 0.72532 0.03311 0.70186 0.0
C627 C 0.74108 0.01772 0.692 0.0
C628 C 0.7513 1.00016 0.70537 0.0
C629 C 0.74605 0.99896 0.72908 0.0
C630 C 0.73012 0.0143 0.73891 0.0
H631 H 0.72458 0.10057 0.73549 0.0
H632 H 0.73951 0.07323 0.73362 0.0
H633 H 0.72417 0.08441 0.70901 0.0
H634 H 0.71702 0.04585 0.69094 0.0
H635 H 0.7447 0.01914 0.67369 0.0
H636 H 0.88035 0.85772 0.25346 0.0
H637 H 0.84684 0.88087 0.24238 0.0
H638 H 0.87988 0.94185 0.2698 0.0
H639 H 0.91275 0.91823 0.28248 0.0
H640 H 0.83659 0.94422 0.27892 0.0
H641 H 0.8433 0.91957 0.18688 0.0
H642 H 0.83864 0.89475 0.20473 0.0
H643 H 0.86484 0.91136 0.20774 0.0
C644 C 0.88043 0.87609 0.25709 0.0
C645 C 0.89925 0.88631 0.26847 0.0
C646 C 0.86133 0.88936 0.25061 0.0
C647 C 0.86105 0.91333 0.25448 0.0
C648 C 0.87968 0.92345 0.2664 0.0
H649 H 0.78039 0.0083 0.17468 0.0
H650 H 0.80863 0.98263 0.19195 0.0
C651 C 0.89851 0.91 0.27357 0.0
C652 C 0.84154 0.92783 0.24588 0.0
H653 H 0.80945 0.93975 0.19783 0.0
C654 C 0.83075 0.94335 0.26114 0.0
C655 C 0.83399 0.92697 0.22259 0.0
C656 C 0.84597 0.91246 0.20451 0.0
C657 C 0.81291 0.95816 0.25375 0.0
C658 C 0.80486 0.95669 0.23065 0.0
C659 C 0.81538 0.94083 0.21558 0.0
C660 C 0.78711 0.9727 0.22092 0.0
C661 C 0.80365 0.97581 0.27054 0.0
C662 C 0.76535 0.9759 0.23133 0.0
C663 C 0.74918 0.99124 0.22167 0.0
C664 C 0.75423 0.00297 0.20102 0.0
C665 C 0.77577 0.9993 0.19043 0.0
C666 C 0.79202 0.98459 0.20035 0.0
H667 H 0.81593 0.97902 0.28495 0.0
H668 H 0.80005 0.9925 0.2618 0.0
H669 H 0.78732 0.96929 0.27817 0.0
H670 H 0.76077 0.96648 0.24682 0.0
H671 H 0.73269 0.99371 0.23015 0.0
H672 H 0.32378 0.24827 0.48162 0.0
H673 H 0.30453 0.22225 0.45451 0.0
H674 H 0.23968 0.23365 0.48925 0.0
H675 H 0.25878 0.25966 0.51656 0.0
H676 H 0.25182 0.18686 0.48459 0.0
H677 H 0.259 0.2326 0.40071 0.0
H678 H 0.28575 0.23078 0.41636 0.0
H679 H 0.26215 0.24715 0.42816 0.0
C680 C 0.30533 0.24562 0.48326 0.0
C681 C 0.29286 0.25605 0.50133 0.0
C682 C 0.29433 0.23082 0.46764 0.0
C683 C 0.27063 0.22615 0.46972 0.0
C684 C 0.25796 0.23712 0.48725 0.0
H685 H 0.19541 0.13169 0.37655 0.0
H686 H 0.20516 0.16542 0.40044 0.0
C687 C 0.26891 0.25206 0.50279 0.0
C688 C 0.25969 0.20814 0.45509 0.0
H689 H 0.25023 0.19215 0.39902 0.0
C690 C 0.25117 0.18816 0.4659 0.0
C691 C 0.25871 0.20991 0.43072 0.0
C692 C 0.26669 0.23135 0.41827 0.0
C693 C 0.24267 0.1695 0.45295 0.0
C694 C 0.24277 0.17081 0.42856 0.0
C695 C 0.25031 0.19116 0.41774 0.0
C696 C 0.23661 0.15059 0.4141 0.0
C697 C 0.23403 0.1483 0.4654 0.0
C698 C 0.25117 0.13126 0.41377 0.0
C699 C 0.24578 0.11212 0.40012 0.0
C700 C 0.22559 0.11183 0.38657 0.0
C701 C 0.21098 0.13128 0.38692 0.0
C702 C 0.21655 0.15058 0.40048 0.0
H703 H 0.2302 0.15192 0.48386 0.0
H704 H 0.21819 0.14148 0.45699 0.0
H705 H 0.24746 0.13464 0.46466 0.0
H706 H 0.26685 0.13104 0.424 0.0
H707 H 0.25746 0.0975 0.40026 0.0
H708 H 0.30269 0.89514 0.9063 0.0
H709 H 0.2928 0.86063 0.92872 0.0
H710 H 0.22705 0.85679 0.89393 0.0
H711 H 0.23682 0.89096 0.87129 0.0
H712 H 0.25689 0.85449 0.95867 0.0
H713 H 0.2504 0.79082 0.88768 0.0
H714 H 0.26396 0.81868 0.88404 0.0
H715 H 0.23302 0.81597 0.88256 0.0
C716 C 0.28614 0.88694 0.90338 0.0
C717 C 0.27055 0.8959 0.887 0.0
C718 C 0.28055 0.86715 0.91615 0.0
C719 C 0.25938 0.85582 0.91267 0.0
C720 C 0.24374 0.86484 0.89648 0.0
H721 H 0.17493 0.77736 0.00165 0.0
H722 H 0.19378 0.80377 0.97488 0.0
C723 C 0.24928 0.88458 0.88372 0.0
C724 C 0.2529 0.83548 0.92694 0.0
H725 H 0.23219 0.78022 0.92364 0.0
C726 C 0.25185 0.83815 0.95101 0.0
C727 C 0.24662 0.814 0.91701 0.0
C728 C 0.24878 0.80958 0.89142 0.0
C729 C 0.2435 0.82041 0.96527 0.0
C730 C 0.23574 0.79955 0.95519 0.0
C731 C 0.23793 0.79633 0.93128 0.0
C732 C 0.2235 0.78192 0.96918 0.0
C733 C 0.24249 0.82433 0.99103 0.0
C734 C 0.23351 0.76033 0.97402 0.0
C735 C 0.22267 0.74499 0.98941 0.0
C736 C 0.20172 0.75115 1.00009 0.0
C737 C 0.19121 0.77221 0.994 0.0
C738 C 0.20196 0.78737 0.97871 0.0
H739 H 0.25434 0.8384 0.99653 0.0
H740 H 0.22465 0.82934 0.99594 0.0
H741 H 0.24702 0.80832 1.00059 0.0
H742 H 0.25009 0.75577 0.96666 0.0
H743 H 0.23119 0.72891 0.99376 0.0
H744 H 0.82755 0.25625 0.51851 0.0
H745 H 0.81051 0.28483 0.5444 0.0
H746 H 0.74529 0.27832 0.50898 0.0
H747 H 0.76215 0.24937 0.48312 0.0
H748 H 0.7933 0.32648 0.52896 0.0
H749 H 0.72563 0.27815 0.57689 0.0
H750 H 0.74856 0.26385 0.56131 0.0
H751 H 0.72427 0.27561 0.54597 0.0
C752 C 0.80943 0.26052 0.5165 0.0
C753 C 0.79623 0.25055 0.49869 0.0
C754 C 0.79973 0.2769 0.5313 0.0
C755 C 0.77661 0.28369 0.52871 0.0
C756 C 0.76306 0.27308 0.51159 0.0
H757 H 0.70044 0.39684 0.59489 0.0
H758 H 0.71166 0.36456 0.56983 0.0
C759 C 0.77274 0.25653 0.49679 0.0
C760 C 0.76755 0.30333 0.54255 0.0
H761 H 0.72688 0.31872 0.58251 0.0
C762 C 0.7788 0.32474 0.54069 0.0
C763 C 0.74847 0.30113 0.55767 0.0
C764 C 0.73609 0.27842 0.5608 0.0
C765 C 0.77164 0.34395 0.55361 0.0
C766 C 0.7529 0.34165 0.56911 0.0
C767 C 0.74127 0.32041 0.57064 0.0
C768 C 0.74583 0.36091 0.58449 0.0
C769 C 0.7841 0.36663 0.55045 0.0
C770 C 0.76121 0.36934 0.60121 0.0
C771 C 0.75491 0.38774 0.6155 0.0
C772 C 0.73302 0.39812 0.61343 0.0
C773 C 0.7175 0.38941 0.59683 0.0
C774 C 0.72383 0.37091 0.58256 0.0
H775 H 0.7937 0.3672 0.53384 0.0
H776 H 0.77183 0.38137 0.55098 0.0
H777 H 0.79676 0.36889 0.56467 0.0
H778 H 0.77814 0.36162 0.60326 0.0
H779 H 0.76725 0.3938 0.6282 0.0
H780 H 0.80479 0.60663 0.09556 0.0
H781 H 0.79514 0.64042 0.07195 0.0
H782 H 0.72827 0.64415 0.1045 0.0
H783 H 0.73783 0.61075 0.12837 0.0
H784 H 0.75991 0.64629 0.04067 0.0
H785 H 0.7513 0.70999 0.11147 0.0
H786 H 0.76466 0.6821 0.11557 0.0
H787 H 0.73369 0.68487 0.11585 0.0
C788 C 0.78804 0.61465 0.09773 0.0
C789 C 0.77211 0.60595 0.11392 0.0
C790 C 0.78257 0.634 0.08425 0.0
C791 C 0.76116 0.64511 0.08678 0.0
C792 C 0.74513 0.63626 0.10266 0.0
H793 H 0.67743 0.74482 0.01828 0.0
H794 H 0.69592 0.71735 0.04446 0.0
C795 C 0.75057 0.61699 0.11617 0.0
C796 C 0.75511 0.66538 0.07222 0.0
H797 H 0.73528 0.72094 0.07483 0.0
C798 C 0.75486 0.66273 0.04811 0.0
C799 C 0.74859 0.68686 0.08195 0.0
C800 C 0.74978 0.69125 0.10762 0.0
C801 C 0.74724 0.68059 0.03353 0.0
C802 C 0.73997 0.70178 0.04332 0.0
C803 C 0.74085 0.70467 0.06738 0.0
C804 C 0.72976 0.72042 0.02897 0.0
C805 C 0.74606 0.67632 0.00782 0.0
C806 C 0.74287 0.7319 0.01209 0.0
C807 C 0.73236 0.74775 0.9971 0.0
C808 C 0.70853 0.75228 0.99871 0.0
C809 C 0.69578 0.74162 0.01645 0.0
C810 C 0.70631 0.72591 0.03146 0.0
H811 H 0.74836 0.65777 0.00347 0.0
H812 H 0.72924 0.68225 1.00075 0.0
H813 H 0.75993 0.68627 0.99911 0.0
H814 H 0.76109 0.72815 0.01013 0.0
H815 H 0.74269 0.75563 0.98364 0.0
H816 H 0.40694 0.19845 0.10728 0.0
H817 H 0.43031 0.20854 0.14109 0.0
H818 H 0.39757 0.27538 0.14388 0.0
H819 H 0.37395 0.2654 0.11041 0.0
H820 H 0.46141 0.24418 0.14711 0.0
H821 H 0.38965 0.25233 0.20981 0.0
H822 H 0.38611 0.23877 0.18194 0.0
H823 H 0.38557 0.26975 0.18449 0.0
C824 C 0.40471 0.21532 0.11507 0.0
C825 C 0.38851 0.23109 0.10611 0.0
C826 C 0.41806 0.22103 0.13443 0.0
C827 C 0.41536 0.24253 0.14531 0.0
C828 C 0.39953 0.25846 0.13615 0.0
H829 H 0.48167 0.32593 0.24695 0.0
H830 H 0.45592 0.30753 0.21904 0.0
C831 C 0.38617 0.25278 0.11685 0.0
C832 C 0.42959 0.24872 0.16577 0.0
H833 H 0.42606 0.26818 0.22141 0.0
C834 C 0.45372 0.24911 0.16347 0.0
C835 C 0.41952 0.25508 0.18713 0.0
C836 C 0.3938 0.25376 0.19112 0.0
C837 C 0.46799 0.25671 0.18159 0.0
C838 C 0.45786 0.26377 0.20269 0.0
C839 C 0.43378 0.26277 0.20522 0.0
C840 C 0.47188 0.27385 0.22165 0.0
C841 C 0.49373 0.25808 0.17766 0.0
C842 C 0.48885 0.26078 0.23307 0.0
C843 C 0.50361 0.27125 0.24915 0.0
C844 C 0.50164 0.29499 0.25403 0.0
C845 C 0.48376 0.30766 0.24349 0.0
C846 C 0.46901 0.29717 0.22753 0.0
H847 H 0.49831 0.25617 0.15912 0.0
H848 H 0.50067 0.2748 0.18401 0.0
H849 H 0.50237 0.24403 0.18743 0.0
H850 H 0.4911 0.24265 0.22905 0.0
H851 H 0.51719 0.26099 0.25692 0.0
H852 H 0.87458 0.23518 0.89446 0.0
H853 H 0.89898 0.22516 0.86155 0.0
H854 H 0.929 0.29332 0.86278 0.0
H855 H 0.90495 0.30341 0.89604 0.0
H856 H 0.90086 0.24518 0.81833 0.0
H857 H 0.98587 0.25208 0.86241 0.0
H858 H 0.95895 0.25134 0.87809 0.0
H859 H 0.96822 0.27753 0.8642 0.0
C860 C 0.8865 0.24802 0.88789 0.0
C861 C 0.88795 0.27005 0.89807 0.0
C862 C 0.90039 0.24227 0.86901 0.0
C863 C 0.91603 0.25837 0.85987 0.0
C864 C 0.91742 0.28044 0.86984 0.0
H865 H 0.01687 0.24083 0.74813 0.0
H866 H 0.99011 0.25869 0.77567 0.0
C867 C 0.9036 0.28619 0.88883 0.0
C868 C 0.93055 0.25203 0.83969 0.0
H869 H 0.98643 0.24426 0.8224 0.0
C870 C 0.91957 0.24505 0.81919 0.0
C871 C 0.95498 0.25197 0.8408 0.0
C872 C 0.96776 0.25843 0.86259 0.0
C873 C 0.93233 0.23779 0.79988 0.0
C874 C 0.95671 0.23725 0.80118 0.0
C875 C 0.96772 0.2448 0.82143 0.0
C876 C 0.97109 0.22725 0.78247 0.0
C877 C 0.91963 0.2307 0.77825 0.0
C878 C 0.96907 0.20374 0.77696 0.0
C879 C 0.98432 0.19349 0.76133 0.0
C880 C 0.00196 0.20654 0.75088 0.0
C881 C 0.00338 0.23032 0.75572 0.0
C882 C 0.98818 0.24054 0.77154 0.0
H883 H 0.902 0.23826 0.77762 0.0
H884 H 0.92923 0.23606 0.76253 0.0
H885 H 0.91788 0.21161 0.77797 0.0
H886 H 0.95627 0.19307 0.78547 0.0
H887 H 0.98274 0.17514 0.758 0.0
H888 H 0.52008 0.82491 0.25478 0.0
H889 H 0.54661 0.80724 0.28241 0.0
H890 H 0.5125 0.74163 0.27361 0.0
H891 H 0.48568 0.75922 0.24594 0.0
H892 H 0.51631 0.75626 0.31995 0.0
H893 H 0.60078 0.76206 0.27534 0.0
H894 H 0.58501 0.78877 0.27558 0.0
H895 H 0.57358 0.76433 0.26019 0.0
C896 C 0.51847 0.8066 0.25834 0.0
C897 C 0.50072 0.79349 0.24815 0.0
C898 C 0.53375 0.7965 0.27407 0.0
C899 C 0.53166 0.77307 0.27993 0.0
C900 C 0.51449 0.75971 0.26922 0.0
H901 H 0.59779 0.69767 0.3943 0.0
H902 H 0.57381 0.70743 0.36084 0.0
C903 C 0.49925 0.76978 0.25332 0.0
C904 C 0.54605 0.76324 0.29877 0.0
H905 H 0.60188 0.75542 0.31612 0.0
C906 C 0.53501 0.75574 0.31903 0.0
C907 C 0.57043 0.76271 0.29755 0.0
C908 C 0.58318 0.7697 0.27592 0.0
C909 C 0.54773 0.74864 0.33846 0.0
C910 C 0.57216 0.7486 0.33743 0.0
C911 C 0.58316 0.75553 0.31693 0.0
C912 C 0.58665 0.74241 0.35771 0.0
C913 C 0.53491 0.74223 0.36025 0.0
C914 C 0.6022 0.75863 0.3668 0.0
C915 C 0.61604 0.75307 0.38579 0.0
C916 C 0.61465 0.73111 0.39615 0.0
C917 C 0.5991 0.71483 0.38695 0.0
C918 C 0.58532 0.7204 0.36785 0.0
H919 H 0.51678 0.7485 0.35997 0.0
H920 H 0.53454 0.72315 0.36197 0.0
H921 H 0.54366 0.74944 0.37573 0.0
H922 H 0.60357 0.77569 0.35922 0.0
H923 H 0.62787 0.76601 0.39232 0.0
H924 H 0.13049 0.73727 0.60879 0.0
H925 H 0.10632 0.72657 0.64167 0.0
H926 H 0.07425 0.79377 0.64021 0.0
H927 H 0.09807 0.80453 0.60697 0.0
H928 H 0.10326 0.74612 0.68493 0.0
H929 H 0.01857 0.75105 0.64003 0.0
H930 H 0.04566 0.75117 0.62463 0.0
H931 H 0.03548 0.777 0.63853 0.0
C932 C 0.1182 0.74977 0.61532 0.0
C933 C 0.11609 0.77171 0.60503 0.0
C934 C 0.10443 0.74363 0.6342 0.0
C935 C 0.08822 0.75922 0.64324 0.0
C936 C 0.08626 0.78125 0.63323 0.0
H937 H 0.98656 0.74013 0.75401 0.0
H938 H 0.0131 0.75802 0.72629 0.0
C939 C 0.09997 0.7874 0.61426 0.0
C940 C 0.07364 0.75238 0.66328 0.0
H941 H 0.01777 0.74337 0.68009 0.0
C942 C 0.08456 0.74558 0.68388 0.0
C943 C 0.04923 0.75174 0.66197 0.0
C944 C 0.03649 0.75792 0.64006 0.0
C945 C 0.07177 0.73803 0.7031 0.0
C946 C 0.04741 0.73699 0.70162 0.0
C947 C 0.03645 0.74429 0.68124 0.0
C948 C 0.03301 0.72696 0.72038 0.0
C949 C 0.08445 0.73129 0.72486 0.0
C950 C 0.03555 0.70363 0.72649 0.0
C951 C 0.02043 0.69336 0.74228 0.0
C952 C 0.00237 0.70619 0.75229 0.0
C953 C 1.00039 0.7298 0.74681 0.0
C954 C 0.01546 0.74003 0.73086 0.0
H955 H 0.10189 0.73926 0.72563 0.0
H956 H 0.0746 0.73645 0.74049 0.0
H957 H 0.08666 0.71225 0.72521 0.0
H958 H 0.04868 0.69309 0.71834 0.0
H959 H 0.02244 0.67514 0.74605 0.0
H960 H 0.89582 0.62795 0.73525 0.0
H961 H 0.86251 0.60422 0.72505 0.0
H962 H 0.86453 0.57207 0.79223 0.0
H963 H 0.89819 0.59554 0.80253 0.0
H964 H 0.85875 0.54059 0.75708 0.0
H965 H 0.79638 0.61238 0.74689 0.0
H966 H 0.82187 0.61612 0.72968 0.0
H967 H 0.82409 0.6161 0.7607 0.0
C968 C 0.88925 0.61584 0.7479 0.0
C969 C 0.89974 0.6137 0.76975 0.0
C970 C 0.87003 0.6024 0.74209 0.0
C971 C 0.86069 0.5867 0.75804 0.0
C972 C 0.87132 0.58421 0.77971 0.0
H973 H 0.74853 0.48524 0.74056 0.0
H974 H 0.77676 0.5113 0.75841 0.0
C975 C 0.89061 0.59762 0.78555 0.0
C976 C 0.84027 0.5724 0.75174 0.0
H977 H 0.78488 0.57575 0.73152 0.0
C978 C 0.84249 0.54825 0.75179 0.0
C979 C 0.81902 0.58242 0.74491 0.0
C980 C 0.81506 0.60817 0.74575 0.0
C981 C 0.82441 0.5339 0.74424 0.0
C982 C 0.80342 0.54396 0.73674 0.0
C983 C 0.80098 0.56808 0.73725 0.0
C984 C 0.78444 0.52979 0.72684 0.0
C985 C 0.82825 0.50812 0.74342 0.0
C986 C 0.77863 0.53224 0.70343 0.0
C987 C 0.76248 0.51749 0.69322 0.0
C988 C 0.75164 0.50004 0.70624 0.0
C989 C 0.75653 0.49847 0.73002 0.0
C990 C 0.77281 0.51321 0.74021 0.0
H991 H 0.84675 0.50351 0.74559 0.0
H992 H 0.81835 0.4998 0.75757 0.0
H993 H 0.82201 0.50087 0.72679 0.0
H994 H 0.78728 0.54501 0.69283 0.0
H995 H 0.75904 0.51929 0.6749 0.0
H996 H 0.6056 0.40695 0.30132 0.0
H997 H 0.63796 0.43154 0.28937 0.0
H998 H 0.63939 0.39765 0.22308 0.0
H999 H 0.60712 0.37315 0.2347 0.0
H1000 H 0.68342 0.41778 0.27338 0.0
H1001 H 0.63446 0.46728 0.20738 0.0
H1002 H 0.62045 0.45052 0.22966 0.0
H1003 H 0.6322 0.43645 0.2046 0.0
C1004 C 0.6127 0.40482 0.28414 0.0
C1005 C 0.60357 0.38821 0.26889 0.0
C1006 C 0.63125 0.41882 0.2774 0.0
C1007 C 0.64087 0.41659 0.25526 0.0
C1008 C 0.63198 0.39989 0.24012 0.0
H1009 H 0.74475 0.48291 0.17241 0.0
H1010 H 0.71624 0.45688 0.18936 0.0
C1011 C 0.61353 0.38586 0.24683 0.0
C1012 C 0.66022 0.43165 0.24782 0.0
H1013 H 0.67515 0.47191 0.20743 0.0
C1014 C 0.68164 0.42976 0.25907 0.0
C1015 C 0.65779 0.44726 0.22919 0.0
C1016 C 0.63494 0.45073 0.2171 0.0
C1017 C 0.70093 0.44255 0.25164 0.0
C1018 C 0.69857 0.45787 0.23273 0.0
C1019 C 0.67701 0.46003 0.22181 0.0
C1020 C 0.71815 0.47174 0.2236 0.0
C1021 C 0.72381 0.43901 0.26362 0.0
C1022 C 0.72916 0.48843 0.23736 0.0
C1023 C 0.74567 0.50329 0.22773 0.0
C1024 C 0.75121 0.5019 0.20409 0.0
C1025 C 0.74083 0.48452 0.19064 0.0
C1026 C 0.72448 0.46964 0.2003 0.0
H1027 H 0.72414 0.42266 0.27367 0.0
H1028 H 0.7382 0.43877 0.25095 0.0
H1029 H 0.72684 0.4535 0.2758 0.0
H1030 H 0.72426 0.49067 0.25528 0.0
H1031 H 0.75317 0.51662 0.23852 0.0
H1032 H 0.40219 0.91094 0.207 0.0
H1033 H 0.36904 0.93422 0.21952 0.0
H1034 H 0.35018 0.88116 0.26833 0.0
H1035 H 0.38355 0.85831 0.25657 0.0
H1036 H 0.32218 0.92723 0.22066 0.0
H1037 H 0.35609 0.9365 0.30985 0.0
H1038 H 0.37323 0.92478 0.28666 0.0
H1039 H 0.3523 0.90699 0.30124 0.0
C1040 C 0.39099 0.9043 0.22043 0.0
C1041 C 0.39578 0.88302 0.23114 0.0
C1042 C 0.372 0.91755 0.2275 0.0
C1043 C 0.35739 0.90966 0.24522 0.0
C1044 C 0.36156 0.88793 0.25511 0.0
H1045 H 0.2288 0.98263 0.28684 0.0
H1046 H 0.25469 0.95312 0.27029 0.0
C1047 C 0.38066 0.87487 0.24834 0.0
C1048 C 0.33837 0.92449 0.25405 0.0
H1049 H 0.31866 0.95095 0.30291 0.0
C1050 C 0.32135 0.93243 0.23864 0.0
C1051 C 0.33739 0.93136 0.27751 0.0
C1052 C 0.35584 0.92467 0.29473 0.0
C1053 C 0.30356 0.94729 0.24602 0.0
C1054 C 0.30256 0.954 0.2695 0.0
C1055 C 0.31931 0.94563 0.28494 0.0
C1056 C 0.28617 0.97177 0.27816 0.0
C1057 C 0.28656 0.95639 0.22849 0.0
C1058 C 0.2952 0.99185 0.2882 0.0
C1059 C 0.28065 0.0083 0.2979 0.0
C1060 C 0.25653 0.00529 0.29774 0.0
C1061 C 0.24729 0.98543 0.2872 0.0
C1062 C 0.26205 0.96867 0.27763 0.0
H1063 H 0.29235 0.95315 0.21048 0.0
H1064 H 0.26967 0.94769 0.23098 0.0
H1065 H 0.28389 0.97525 0.23079 0.0
H1066 H 0.31369 0.99473 0.28872 0.0
H1067 H 0.28845 0.02348 0.30556 0.0
H1068 H 0.25386 0.98479 0.76265 0.0
H1069 H 0.22617 0.01145 0.74489 0.0
H1070 H 0.21805 0.04654 0.81008 0.0
H1071 H 0.2457 0.02012 0.82793 0.0
H1072 H 0.17979 0.01594 0.76005 0.0
H1073 H 0.22562 0.09994 0.7637 0.0
H1074 H 0.24043 0.07257 0.76614 0.0
H1075 H 0.22549 0.08449 0.79061 0.0
C1076 C 0.24662 0.99852 0.77308 0.0
C1077 C 0.25202 1.00032 0.79673 0.0
C1078 C 0.2307 0.01367 0.76292 0.0
C1079 C 0.22019 0.03109 0.77611 0.0
C1080 C 0.22622 0.03347 0.79947 0.0
H1081 H 0.10924 0.12896 0.76671 0.0
H1082 H 0.14206 0.10457 0.77702 0.0
C1083 C 0.24197 0.01827 0.80968 0.0
C1084 C 0.20146 0.04552 0.76614 0.0
H1085 H 0.18498 0.10141 0.75688 0.0
C1086 C 0.18099 0.03461 0.75904 0.0
C1087 C 0.20305 0.06987 0.76498 0.0
C1088 C 0.2249 0.08244 0.77156 0.0
C1089 C 0.16174 0.04745 0.75169 0.0
C1090 C 0.16317 0.07185 0.75093 0.0
C1091 C 0.18386 0.08272 0.75751 0.0
C1092 C 0.14312 0.0865 0.74433 0.0
C1093 C 0.13973 0.0348 0.74575 0.0
C1094 C 0.13284 0.08459 0.72242 0.0
C1095 C 0.11389 0.09843 0.71649 0.0
C1096 C 0.10499 0.11461 0.7323 0.0
C1097 C 0.11553 0.11663 0.75413 0.0
C1098 C 0.13437 0.10274 0.76005 0.0
H1099 H 0.13971 0.01688 0.75263 0.0
H1100 H 0.12442 0.04404 0.75268 0.0
H1101 H 0.13797 0.0338 0.72668 0.0
H1102 H 0.1396 0.07254 0.70981 0.0
H1103 H 0.1064 0.09661 0.69944 0.0
H1104 H 0.737 0.89298 0.62781 0.0
H1105 H 0.72666 0.86068 0.60278 0.0
H1106 H 0.79391 0.86342 0.57096 0.0
H1107 H 0.80456 0.89581 0.5961 0.0
H1108 H 0.72641 0.861 0.55347 0.0
H1109 H 0.78587 0.79433 0.58904 0.0
H1110 H 0.77867 0.82037 0.60466 0.0
H1111 H 0.79866 0.82149 0.581 0.0
C1112 C 0.74968 0.88675 0.61555 0.0
C1113 C 0.77162 0.89709 0.61396 0.0
C1114 C 0.74372 0.86824 0.60126 0.0
C1115 C 0.7596 0.85948 0.58521 0.0
C1116 C 0.78153 0.86968 0.5835 0.0
H1117 H 0.74123 0.74998 0.48211 0.0
H1118 H 0.75828 0.77899 0.5079 0.0
C1119 C 0.78751 0.88831 0.59776 0.0
C1120 C 0.75265 0.84027 0.56971 0.0
H1121 H 0.76268 0.78341 0.55723 0.0
C1122 C 0.73437 0.84405 0.55426 0.0
C1123 C 0.76319 0.81823 0.57067 0.0
C1124 C 0.78259 0.81317 0.58732 0.0
C1125 C 0.72621 0.82637 0.53984 0.0
C1126 C 0.73625 0.80411 0.54126 0.0
C1127 C 0.75493 0.80044 0.5563 0.0
C1128 C 0.72702 0.78447 0.5276 0.0
C1129 C 0.70698 0.83175 0.52305 0.0
C1130 C 0.70412 0.77722 0.5308 0.0
C1131 C 0.69434 0.76075 0.51614 0.0
C1132 C 0.70733 0.751 0.49806 0.0
C1133 C 0.73076 0.75712 0.49587 0.0
C1134 C 0.74052 0.77375 0.51054 0.0
H1135 H 0.70562 0.85059 0.51961 0.0
H1136 H 0.70961 0.82264 0.50637 0.0
H1137 H 0.69031 0.82591 0.53049 0.0
H1138 H 0.69355 0.78489 0.54421 0.0
H1139 H 0.67633 0.75624 0.51848 0.0
H1140 H 0.75978 0.25506 0.98254 0.0
H1141 H 0.74106 0.22813 0.00933 0.0
H1142 H 0.80526 0.21997 0.04622 0.0
H1143 H 0.82404 0.24687 0.01972 0.0
H1144 H 0.7553 0.18185 0.01502 0.0
H1145 H 0.75808 0.22877 0.0984 0.0
H1146 H 0.76142 0.24314 0.07088 0.0
H1147 H 0.78537 0.22806 0.0837 0.0
C1148 C 0.76978 0.24798 0.9967 0.0
C1149 C 0.79343 0.25313 0.99899 0.0
C1150 C 0.75907 0.2325 0.01192 0.0
C1151 C 0.77171 0.2222 0.02989 0.0
C1152 C 0.79506 0.22801 0.03273 0.0
H1153 H 0.76278 0.11214 0.12796 0.0
H1154 H 0.77237 0.14518 0.1036 0.0
C1155 C 0.80581 0.24332 0.01747 0.0
C1156 C 0.76125 0.20383 0.04441 0.0
H1157 H 0.75156 0.188 0.10042 0.0
C1158 C 0.75413 0.18328 0.03367 0.0
C1159 C 0.75985 0.20573 0.06873 0.0
C1160 C 0.76638 0.22769 0.08112 0.0
C1161 C 0.74663 0.16419 0.04666 0.0
C1162 C 0.74579 0.16588 0.07105 0.0
C1163 C 0.75227 0.18669 0.08174 0.0
C1164 C 0.73947 0.14589 0.08588 0.0
C1165 C 0.74073 0.14205 0.03423 0.0
C1166 C 0.71767 0.13538 0.08419 0.0
C1167 C 0.71215 0.1163 0.09803 0.0
C1168 C 0.72828 0.1075 0.11396 0.0
C1169 C 0.74996 0.11834 0.11582 0.0
C1170 C 0.75547 0.13731 0.10194 0.0
H1171 H 0.74739 0.14194 0.01622 0.0
H1172 H 0.74789 0.12686 0.04351 0.0
H1173 H 0.72167 0.14013 0.03347 0.0
H1174 H 0.70486 0.142 0.07226 0.0
H1175 H 0.69521 0.10856 0.09633 0.0
H1176 H 0.17513 0.7453 0.48236 0.0
H1177 H 0.19305 0.71723 0.45641 0.0
H1178 H 0.25903 0.729 0.48886 0.0
H1179 H 0.24124 0.75714 0.51504 0.0
H1180 H 0.23263 0.72079 0.42509 0.0
H1181 H 0.24583 0.65838 0.49717 0.0
H1182 H 0.22646 0.68272 0.49953 0.0
H1183 H 0.2571 0.68707 0.50113 0.0
C1184 C 0.19353 0.74219 0.48381 0.0
C1185 C 0.20671 0.75336 0.50092 0.0
C1186 C 0.20373 0.72614 0.46894 0.0
C1187 C 0.22727 0.72078 0.47097 0.0
C1188 C 0.24075 0.73268 0.48724 0.0
H1189 H 0.30157 0.60581 0.4055 0.0
H1190 H 0.29203 0.63969 0.42904 0.0
C1191 C 0.23058 0.74889 0.50206 0.0
C1192 C 0.23723 0.7019 0.45678 0.0
H1193 H 0.25697 0.64636 0.46002 0.0
C1194 C 0.23812 0.70457 0.43271 0.0
C1195 C 0.24445 0.68079 0.4668 0.0
C1196 C 0.24334 0.67685 0.49255 0.0
C1197 C 0.24584 0.68659 0.41833 0.0
C1198 C 0.25226 0.66517 0.42827 0.0
C1199 C 0.25199 0.66275 0.45241 0.0
C1200 C 0.25822 0.64472 0.4139 0.0
C1201 C 0.24714 0.6908 0.39263 0.0
C1202 C 0.24223 0.636 0.3979 0.0
C1203 C 0.24762 0.61671 0.38443 0.0
C1204 C 0.26905 0.60548 0.38684 0.0
C1205 C 0.2849 0.61398 0.40321 0.0
C1206 C 0.2795 0.63339 0.41665 0.0
H1207 H 0.24889 0.7095 0.38866 0.0
H1208 H 0.26192 0.68143 0.38477 0.0
H1209 H 0.23098 0.68458 0.38439 0.0
H1210 H 0.22545 0.64403 0.3959 0.0
H1211 H 0.23492 0.6106 0.37211 0.0
H1212 H 0.26081 0.23893 0.01426 0.0
H1213 H 0.24153 0.26409 0.98617 0.0
H1214 H 0.30781 0.28543 0.95974 0.0
H1215 H 0.32711 0.26008 0.98717 0.0
H1216 H 0.24475 0.31045 0.98366 0.0
H1217 H 0.27375 0.27379 0.9005 0.0
H1218 H 0.27674 0.25835 0.92745 0.0
H1219 H 0.29782 0.27968 0.91907 0.0
C1220 C 0.27127 0.24859 0.00213 0.0
C1221 C 0.29554 0.24742 0.00301 0.0
C1222 C 0.26021 0.26304 0.98613 0.0
C1223 C 0.27317 0.27645 0.97059 0.0
C1224 C 0.29736 0.27486 0.9711 0.0
H1225 H 0.26278 0.39855 0.89058 0.0
H1226 H 0.27263 0.36463 0.91367 0.0
C1227 C 0.3084 0.26043 0.98698 0.0
C1228 C 0.26176 0.29359 0.95516 0.0
H1229 H 0.26118 0.31365 0.89959 0.0
C1230 C 0.24795 0.31086 0.9652 0.0
C1231 C 0.26585 0.29415 0.93103 0.0
C1232 C 0.27915 0.27534 0.91886 0.0
C1233 C 0.23921 0.32928 0.95199 0.0
C1234 C 0.2444 0.33045 0.92817 0.0
C1235 C 0.25739 0.31276 0.91792 0.0
C1236 C 0.23796 0.35079 0.91401 0.0
C1237 C 0.22538 0.348 0.96368 0.0
C1238 C 0.21517 0.35416 0.90648 0.0
C1239 C 0.20944 0.37355 0.89313 0.0
C1240 C 0.22641 0.38997 0.88725 0.0
C1241 C 0.24922 0.3864 0.89488 0.0
C1242 C 0.25493 0.36697 0.90803 0.0
H1243 H 0.22403 0.3453 0.98264 0.0
H1244 H 0.23344 0.3651 0.96041 0.0
H1245 H 0.20769 0.34845 0.95628 0.0
H1246 H 0.20187 0.34175 0.91086 0.0
H1247 H 0.19173 0.3757 0.88748 0.0
H1248 H 0.48569 0.74015 0.74721 0.0
H1249 H 0.51244 0.75783 0.7749 0.0
H1250 H 0.54631 0.69216 0.78428 0.0
H1251 H 0.51984 0.67441 0.75665 0.0
H1252 H 0.5163 0.74326 0.82155 0.0
H1253 H 0.60057 0.73735 0.77653 0.0
H1254 H 0.5733 0.73518 0.76151 0.0
H1255 H 0.58468 0.71071 0.7769 0.0
C1256 C 0.49918 0.72959 0.75474 0.0
C1257 C 0.50062 0.70585 0.74971 0.0
C1258 C 0.51437 0.7397 0.77065 0.0
C1259 C 0.53148 0.72636 0.78151 0.0
C1260 C 0.5335 0.70288 0.77584 0.0
H1261 H 0.62868 0.73492 0.89319 0.0
H1262 H 0.60422 0.72468 0.86037 0.0
C1263 C 0.51826 0.69274 0.7601 0.0
C1264 C 0.54594 0.73629 0.80023 0.0
H1265 H 0.60185 0.74441 0.81719 0.0
C1266 C 0.535 0.74384 0.82052 0.0
C1267 C 0.57031 0.73688 0.79887 0.0
C1268 C 0.58294 0.7298 0.77721 0.0
C1269 C 0.54781 0.75108 0.83984 0.0
C1270 C 0.57223 0.75123 0.83865 0.0
C1271 C 0.58314 0.74422 0.81813 0.0
C1272 C 0.58684 0.75773 0.85876 0.0
C1273 C 0.53509 0.75753 0.86166 0.0
C1274 C 0.58531 0.77979 0.86874 0.0
C1275 C 0.59918 0.78566 0.88769 0.0
C1276 C 0.61501 0.76966 0.89688 0.0
C1277 C 0.61662 0.74765 0.88667 0.0
C1278 C 0.60269 0.74178 0.86783 0.0
H1279 H 0.51703 0.75103 0.86159 0.0
H1280 H 0.54404 0.75058 0.87715 0.0
H1281 H 0.53447 0.77662 0.86318 0.0
H1282 H 0.57358 0.79256 0.86173 0.0
H1283 H 0.59769 0.80286 0.89492 0.0
H1284 H 0.9906 0.75931 0.26215 0.0
H1285 H 0.01865 0.73975 0.2372 0.0
H1286 H 0.04652 0.80575 0.21678 0.0
H1287 H 0.01913 0.82531 0.24194 0.0
H1288 H 0.0215 0.74344 0.19097 0.0
H1289 H 0.10497 0.77042 0.2284 0.0
H1290 H 0.07802 0.77381 0.24371 0.0
H1291 H 0.08694 0.79492 0.22263 0.0
C1292 C 0.00305 0.76964 0.25276 0.0
C1293 C 0.00257 0.79392 0.25409 0.0
C1294 C 0.01903 0.75842 0.23843 0.0
C1295 C 0.03494 0.77123 0.22531 0.0
C1296 C 0.03486 0.79541 0.22713 0.0
H1297 H 0.11619 0.76115 0.10419 0.0
H1298 H 0.09362 0.77097 0.13843 0.0
C1299 C 0.019 0.80661 0.24144 0.0
C1300 C 0.05023 0.7597 0.20816 0.0
H1301 H 0.10584 0.75829 0.18838 0.0
C1302 C 0.04001 0.74628 0.19069 0.0
C1303 C 0.07442 0.76334 0.20777 0.0
C1304 C 0.08674 0.77621 0.22679 0.0
C1305 C 0.05311 0.73752 0.17222 0.0
C1306 C 0.07703 0.74225 0.17123 0.0
C1307 C 0.08744 0.75484 0.18913 0.0
C1308 C 0.09113 0.73584 0.15085 0.0
C1309 C 0.04119 0.72421 0.15325 0.0
C1310 C 0.09736 0.7128 0.14661 0.0
C1311 C 0.1104 0.70707 0.12702 0.0
C1312 C 0.11727 0.72431 0.11128 0.0
C1313 C 0.11107 0.74739 0.11579 0.0
C1314 C 0.09823 0.75308 0.13541 0.0
H1315 H 0.02214 0.72375 0.15554 0.0
H1316 H 0.04517 0.73203 0.13619 0.0
H1317 H 0.04772 0.70618 0.15304 0.0
H1318 H 0.09214 0.69927 0.15845 0.0
H1319 H 0.11496 0.68915 0.12414 0.0
H1320 H 0.51478 0.24076 0.75399 0.0
H1321 H 0.4879 0.25825 0.72632 0.0
H1322 H 0.45491 0.19222 0.71648 0.0
H1323 H 0.48148 0.17466 0.74413 0.0
H1324 H 0.48463 0.24416 0.67979 0.0
H1325 H 0.39994 0.23633 0.72369 0.0
H1326 H 0.42706 0.23428 0.73901 0.0
H1327 H 0.41616 0.20989 0.72316 0.0
C1328 C 0.50144 0.23008 0.74638 0.0
C1329 C 0.5003 0.20629 0.75127 0.0
C1330 C 0.48617 0.24009 0.73048 0.0
C1331 C 0.46928 0.22658 0.71947 0.0
C1332 C 0.46753 0.20306 0.72504 0.0
H1333 H 0.37331 0.2357 0.60634 0.0
H1334 H 0.39754 0.2249 0.6392 0.0
C1335 C 0.48284 0.19302 0.74078 0.0
C1336 C 0.45486 0.23641 0.70066 0.0
H1337 H 0.39903 0.24377 0.68307 0.0
C1338 C 0.46592 0.24439 0.68059 0.0
C1339 C 0.43046 0.23654 0.70171 0.0
C1340 C 0.41767 0.229 0.72313 0.0
C1341 C 0.45322 0.25166 0.66121 0.0
C1342 C 0.42879 0.25139 0.6621 0.0
C1343 C 0.41775 0.24389 0.68237 0.0
C1344 C 0.41435 0.25816 0.64196 0.0
C1345 C 0.46609 0.25866 0.63964 0.0
C1346 C 0.41564 0.28051 0.63263 0.0
C1347 C 0.40192 0.28672 0.61369 0.0
C1348 C 0.38646 0.27074 0.60383 0.0
C1349 C 0.3851 0.24842 0.61337 0.0
C1350 C 0.39888 0.24222 0.63223 0.0
H1351 H 0.48424 0.25241 0.63981 0.0
H1352 H 0.45742 0.25186 0.62393 0.0
H1353 H 0.46646 0.27779 0.63844 0.0
H1354 H 0.42707 0.29327 0.64015 0.0
H1355 H 0.40322 0.30415 0.607 0.0
H1356 H 0.87396 0.26419 0.39132 0.0
H1357 H 0.89803 0.27354 0.35803 0.0
H1358 H 0.92994 0.20635 0.36192 0.0
H1359 H 0.90609 0.19689 0.39559 0.0
H1360 H 0.96152 0.24147 0.35599 0.0
H1361 H 0.89076 0.25019 0.29223 0.0
H1362 H 0.88643 0.26784 0.31733 0.0
H1363 H 0.88665 0.23687 0.32014 0.0
C1364 C 0.88607 0.25135 0.38515 0.0
C1365 C 0.88805 0.22976 0.39617 0.0
C1366 C 0.89969 0.25666 0.36595 0.0
C1367 C 0.91543 0.24047 0.35716 0.0
C1368 C 0.91775 0.21903 0.36829 0.0
H1369 H 0.01841 0.25885 0.24651 0.0
H1370 H 0.99206 0.24038 0.27405 0.0
C1371 C 0.90414 0.21369 0.38757 0.0
C1372 C 0.93 0.24636 0.33687 0.0
H1373 H 0.9274 0.26615 0.28129 0.0
C1374 C 0.9541 0.24653 0.33954 0.0
C1375 C 0.92029 0.25286 0.31538 0.0
C1376 C 0.89462 0.25172 0.31098 0.0
C1377 C 0.96868 0.25411 0.32167 0.0
C1378 C 0.95889 0.26143 0.30048 0.0
C1379 C 0.93485 0.26057 0.29756 0.0
C1380 C 0.97322 0.27169 0.28187 0.0
C1381 C 0.99438 0.25524 0.32594 0.0
C1382 C 0.97069 0.29516 0.27643 0.0
C1383 C 0.98562 0.30573 0.2607 0.0
C1384 C 0.00331 0.293 0.24995 0.0
C1385 C 0.00498 0.26916 0.25446 0.0
C1386 C 0.99007 0.25861 0.27033 0.0
H1387 H 0.99874 0.25286 0.34449 0.0
H1388 H 0.00307 0.24139 0.31594 0.0
H1389 H 0.00146 0.27207 0.32007 0.0
H1390 H 0.95771 0.30552 0.28505 0.0
H1391 H 0.98374 0.32408 0.25752 0.0
H1392 H 0.18413 0.11806 0.27831 0.0
H1393 H 0.16823 0.15669 0.27221 0.0
H1394 H 0.12803 0.15025 0.33456 0.0
H1395 H 0.14391 0.11161 0.34094 0.0
H1396 H 0.10357 0.16834 0.29532 0.0
H1397 H 0.18615 0.21426 0.31121 0.0
H1398 H 0.18808 0.19131 0.29041 0.0
H1399 H 0.18134 0.18469 0.31999 0.0
C1400 C 0.17188 0.12478 0.29072 0.0
C1401 C 0.16547 0.11176 0.31021 0.0
C1402 C 0.1629 0.14692 0.28726 0.0
C1403 C 0.14735 0.15647 0.30321 0.0
C1404 C 0.1402 0.14324 0.32219 0.0
H1405 H 0.07077 0.28735 0.28675 0.0
H1406 H 0.08774 0.25385 0.30655 0.0
C1407 C 0.14924 0.12112 0.32573 0.0
C1408 C 0.13846 0.18023 0.29986 0.0
H1409 H 0.1558 0.23629 0.29403 0.0
C1410 C 0.11486 0.18329 0.29537 0.0
C1411 C 0.15328 0.19964 0.30011 0.0
C1412 C 0.1786 0.19743 0.3059 0.0
C1413 C 0.10588 0.20513 0.28974 0.0
C1414 C 0.12089 0.22446 0.28914 0.0
C1415 C 0.14433 0.22149 0.2946 0.0
C1416 C 0.1132 0.24713 0.27999 0.0
C1417 C 0.08071 0.20706 0.2832 0.0
C1418 C 0.12289 0.25531 0.25937 0.0
C1419 C 0.11347 0.27447 0.24824 0.0
C1420 C 0.09416 0.28589 0.25754 0.0
C1421 C 0.08567 0.27892 0.27921 0.0
C1422 C 0.09515 0.25962 0.29037 0.0
H1423 H 0.0726 0.18988 0.28049 0.0
H1424 H 0.07118 0.21597 0.29724 0.0
H1425 H 0.07864 0.21737 0.26715 0.0
H1426 H 0.13693 0.24606 0.25114 0.0
H1427 H 0.12051 0.27956 0.23165 0.0
H1428 H 0.34155 0.8939 0.78076 0.0
H1429 H 0.35755 0.85577 0.77162 0.0
H1430 H 0.34996 0.83521 0.84281 0.0
H1431 H 0.3339 0.87304 0.85215 0.0
H1432 H 0.3972 0.83288 0.79201 0.0
H1433 H 0.31513 0.78473 0.80535 0.0
H1434 H 0.31599 0.81565 0.80131 0.0
H1435 H 0.32394 0.80331 0.82864 0.0
C1436 C 0.34336 0.8813 0.79449 0.0
C1437 C 0.33641 0.88654 0.81717 0.0
C1438 C 0.3525 0.85955 0.78924 0.0
C1439 C 0.35464 0.84264 0.8065 0.0
C1440 C 0.34812 0.84793 0.82919 0.0
H1441 H 0.43368 0.71469 0.78535 0.0
H1442 H 0.41639 0.74815 0.80493 0.0
C1443 C 0.33906 0.86964 0.83449 0.0
C1444 C 0.3637 0.81943 0.80077 0.0
H1445 H 0.3483 0.76262 0.7967 0.0
C1446 C 0.3866 0.81747 0.79316 0.0
C1447 C 0.34971 0.79945 0.80224 0.0
C1448 C 0.32476 0.80076 0.80965 0.0
C1449 C 0.39586 0.79602 0.7867 0.0
C1450 C 0.38188 0.77602 0.78815 0.0
C1451 C 0.35904 0.77795 0.79597 0.0
C1452 C 0.38993 0.75352 0.77906 0.0
C1453 C 0.42025 0.79504 0.77754 0.0
C1454 C 0.37996 0.74482 0.75879 0.0
C1455 C 0.3897 0.72581 0.74768 0.0
C1456 C 0.40948 0.71503 0.75674 0.0
C1457 C 0.41836 0.72259 0.77805 0.0
C1458 C 0.40866 0.7418 0.78912 0.0
H1459 H 0.42739 0.81251 0.77407 0.0
H1460 H 0.43152 0.78641 0.79043 0.0
H1461 H 0.42094 0.7848 0.76133 0.0
H1462 H 0.36544 0.75356 0.75083 0.0
H1463 H 0.38245 0.72027 0.73132 0.0
H1464 H 0.66957 0.37355 0.64987 0.0
H1465 H 0.6525 0.33605 0.6587 0.0
H1466 H 0.6427 0.35691 0.72952 0.0
H1467 H 0.65974 0.39471 0.72087 0.0
H1468 H 0.66842 0.30356 0.69175 0.0
H1469 H 0.57856 0.33214 0.70929 0.0
H1470 H 0.59923 0.34998 0.69418 0.0
H1471 H 0.6004 0.34753 0.72511 0.0
C1472 C 0.66362 0.37032 0.66732 0.0
C1473 C 0.6659 0.38725 0.68466 0.0
C1474 C 0.65392 0.34882 0.67231 0.0
C1475 C 0.64611 0.34381 0.69467 0.0
C1476 C 0.64829 0.36061 0.71205 0.0
H1477 H 0.61938 0.21983 0.7679 0.0
H1478 H 0.63677 0.2529 0.74838 0.0
C1479 C 0.65811 0.38216 0.7071 0.0
C1480 C 0.63643 0.32071 0.69992 0.0
H1481 H 0.58794 0.29337 0.71931 0.0
C1482 C 0.65077 0.30128 0.69759 0.0
C1483 C 0.6133 0.31776 0.70716 0.0
C1484 C 0.59686 0.3379 0.70891 0.0
C1485 C 0.64283 0.27906 0.70322 0.0
C1486 C 0.62004 0.27626 0.71149 0.0
C1487 C 0.60543 0.29557 0.71296 0.0
C1488 C 0.61161 0.25393 0.72074 0.0
C1489 C 0.65896 0.25878 0.70048 0.0
C1490 C 0.59191 0.24323 0.71142 0.0
C1491 C 0.582 0.22411 0.7225 0.0
C1492 C 0.59144 0.2158 0.74328 0.0
C1493 C 0.61181 0.22584 0.75186 0.0
C1494 C 0.62181 0.2447 0.74068 0.0
H1495 H 0.67295 0.26257 0.68791 0.0
H1496 H 0.6671 0.25488 0.7174 0.0
H1497 H 0.64947 0.24315 0.69467 0.0
H1498 H 0.58371 0.25022 0.69612 0.0
H1499 H 0.56612 0.21691 0.71571 0.0
H1500 H 0.85568 0.60176 0.21576 0.0
H1501 H 0.87193 0.63959 0.22565 0.0
H1502 H 0.83584 0.67022 0.16798 0.0
H1503 H 0.82071 0.63238 0.15734 0.0
H1504 H 0.8767 0.68743 0.16991 0.0
H1505 H 0.84007 0.69064 0.25812 0.0
H1506 H 0.85862 0.66615 0.25445 0.0
H1507 H 0.83239 0.66836 0.2378 0.0
C1508 C 0.85129 0.6166 0.20523 0.0
C1509 C 0.83695 0.61416 0.18581 0.0
C1510 C 0.86041 0.63824 0.21098 0.0
C1511 C 0.8547 0.65791 0.19788 0.0
C1512 C 0.8405 0.65537 0.17839 0.0
H1513 H 0.87859 0.79381 0.25647 0.0
H1514 H 0.86012 0.76049 0.23811 0.0
C1515 C 0.83184 0.63371 0.17234 0.0
C1516 C 0.8636 0.68116 0.20421 0.0
H1517 H 0.86835 0.71909 0.24901 0.0
C1518 C 0.87468 0.69445 0.18717 0.0
C1519 C 0.86056 0.69059 0.22656 0.0
C1520 C 0.84704 0.67829 0.24518 0.0
C1521 C 0.88311 0.7167 0.19194 0.0
C1522 C 0.88127 0.72556 0.21465 0.0
C1523 C 0.86991 0.71236 0.23159 0.0
C1524 C 0.89139 0.74812 0.22167 0.0
C1525 C 0.8934 0.73055 0.17239 0.0
C1526 C 0.91488 0.75292 0.21775 0.0
C1527 C 0.92519 0.77247 0.22751 0.0
C1528 C 0.91232 0.7871 0.24191 0.0
C1529 C 0.8887 0.78289 0.24512 0.0
C1530 C 0.87825 0.76375 0.23482 0.0
H1531 H 0.8859 0.72536 0.1555 0.0
H1532 H 0.89056 0.74936 0.17478 0.0
H1533 H 0.91226 0.72723 0.17158 0.0
H1534 H 0.92564 0.74087 0.20834 0.0
H1535 H 0.9436 0.77506 0.22538 0.0
H1536 H 0.29229 0.09249 0.303 0.0
H1537 H 0.31123 0.11398 0.27147 0.0
H1538 H 0.2444 0.13337 0.24474 0.0
H1539 H 0.22578 0.11218 0.2759 0.0
H1540 H 0.30452 0.10109 0.22622 0.0
H1541 H 0.27994 0.19271 0.23597 0.0
H1542 H 0.27812 0.17233 0.25955 0.0
H1543 H 0.25526 0.17419 0.2385 0.0
C1544 C 0.28182 0.10223 0.29093 0.0
C1545 C 0.25764 0.10099 0.2919 0.0
C1546 C 0.29258 0.11432 0.27286 0.0
C1547 C 0.27923 0.12553 0.25588 0.0
C1548 C 0.2551 0.12541 0.25787 0.0
H1549 H 0.28081 0.16904 0.11501 0.0
H1550 H 0.27229 0.15694 0.1547 0.0
C1551 C 0.24444 0.11323 0.27566 0.0
C1552 C 0.2898 0.13431 0.23424 0.0
H1553 H 0.28837 0.18 0.19691 0.0
C1554 C 0.30149 0.11851 0.22002 0.0
C1555 C 0.28564 0.15697 0.22607 0.0
C1556 C 0.27425 0.17507 0.24096 0.0
C1557 C 0.30798 0.12438 0.19738 0.0
C1558 C 0.30284 0.14669 0.18888 0.0
C1559 C 0.29202 0.1628 0.2034 0.0
C1560 C 0.30811 0.15347 0.16477 0.0
C1561 C 0.31926 0.10634 0.18233 0.0
C1562 C 0.33105 0.15548 0.15736 0.0
C1563 C 0.33598 0.16233 0.13474 0.0
C1564 C 0.31803 0.16732 0.11907 0.0
C1565 C 0.29502 0.16511 0.12654 0.0
C1566 C 0.29012 0.15834 0.14923 0.0
H1567 H 0.31809 0.08878 0.19 0.0
H1568 H 0.31117 0.10603 0.16493 0.0
H1569 H 0.3378 0.11066 0.18011 0.0
H1570 H 0.34516 0.15208 0.16917 0.0
H1571 H 0.3539 0.16401 0.12967 0.0
H1572 H 0.22553 0.94166 0.77705 0.0
H1573 H 0.20872 0.92412 0.74253 0.0
H1574 H 0.24046 0.85894 0.76025 0.0
H1575 H 0.25857 0.87705 0.79391 0.0
H1576 H 0.25082 0.86862 0.71899 0.0
H1577 H 0.15692 0.88327 0.72638 0.0
H1578 H 0.17225 0.91002 0.72884 0.0
H1579 H 0.17626 0.88784 0.75037 0.0
C1580 C 0.22815 0.92338 0.77398 0.0
C1581 C 0.24302 0.91054 0.78817 0.0
C1582 C 0.21852 0.91331 0.75424 0.0
C1583 C 0.22306 0.89007 0.74881 0.0
C1584 C 0.23669 0.87689 0.764 0.0
H1585 H 0.15973 0.82028 0.63211 0.0
H1586 H 0.17038 0.8349 0.67015 0.0
C1587 C 0.24685 0.88712 0.78334 0.0
C1588 C 0.21616 0.88034 0.72604 0.0
H1589 H 0.17126 0.87541 0.68814 0.0
C1590 C 0.23331 0.86983 0.71243 0.0
C1591 C 0.19333 0.88175 0.71739 0.0
C1592 C 0.17363 0.89111 0.73165 0.0
C1593 C 0.22837 0.86087 0.69047 0.0
C1594 C 0.20586 0.86347 0.68129 0.0
C1595 C 0.18863 0.87374 0.69498 0.0
C1596 C 0.19955 0.85488 0.65792 0.0
C1597 C 0.24726 0.84821 0.6777 0.0
C1598 C 0.21225 0.86136 0.63824 0.0
C1599 C 0.20651 0.85253 0.61646 0.0
C1600 C 0.18749 0.83771 0.61393 0.0
C1601 C 0.17441 0.8318 0.63352 0.0
C1602 C 0.18047 0.84017 0.65529 0.0
H1603 H 0.26053 0.84137 0.68977 0.0
H1604 H 0.24023 0.83356 0.66751 0.0
H1605 H 0.25602 0.86034 0.66572 0.0
H1606 H 0.22659 0.87327 0.63967 0.0
H1607 H 0.21672 0.85753 0.6016 0.0
H1608 H 0.78737 0.43436 0.7138 0.0
H1609 H 0.80779 0.4169 0.74665 0.0
H1610 H 0.75514 0.36442 0.75152 0.0
H1611 H 0.73477 0.38167 0.71888 0.0
H1612 H 0.78588 0.41379 0.79021 0.0
H1613 H 0.81522 0.32766 0.76057 0.0
H1614 H 0.80821 0.35079 0.74079 0.0
H1615 H 0.78562 0.33364 0.75347 0.0
C1616 C 0.78063 0.41863 0.72137 0.0
C1617 C 0.7595 0.40934 0.71383 0.0
C1618 C 0.79221 0.40877 0.7402 0.0
C1619 C 0.78304 0.38929 0.7514 0.0
C1620 C 0.76273 0.3792 0.7429 0.0
H1621 H 0.78215 0.34372 0.8922 0.0
H1622 H 0.77441 0.36037 0.85405 0.0
C1623 C 0.75106 0.38913 0.72431 0.0
C1624 C 0.79273 0.38118 0.77364 0.0
H1625 H 0.81178 0.33289 0.80162 0.0
C1626 C 0.79191 0.39622 0.79265 0.0
C1627 C 0.8006 0.35828 0.77676 0.0
C1628 C 0.8027 0.3417 0.75676 0.0
C1629 C 0.79784 0.38864 0.81492 0.0
C1630 C 0.80452 0.3654 0.81822 0.0
C1631 C 0.80635 0.35064 0.79906 0.0
C1632 C 0.80933 0.35594 0.84149 0.0
C1633 C 0.79667 0.40549 0.83477 0.0
C1634 C 0.83143 0.34769 0.84689 0.0
C1635 C 0.83591 0.33821 0.86862 0.0
C1636 C 0.8183 0.3366 0.88533 0.0
C1637 C 0.79612 0.34483 0.87981 0.0
C1638 C 0.79169 0.35443 0.85806 0.0
H1639 H 0.79683 0.42369 0.82865 0.0
H1640 H 0.78041 0.40263 0.8445 0.0
H1641 H 0.81135 0.40288 0.84684 0.0
H1642 H 0.84522 0.34859 0.83427 0.0
H1643 H 0.85316 0.33188 0.8722 0.0
H1644 H 0.71678 0.56853 0.21371 0.0
H1645 H 0.69694 0.58611 0.24683 0.0
H1646 H 0.75046 0.63771 0.25156 0.0
H1647 H 0.77027 0.62031 0.21866 0.0
H1648 H 0.71982 0.5888 0.2904 0.0
H1649 H 0.69055 0.67513 0.26097 0.0
H1650 H 0.69692 0.65185 0.24116 0.0
H1651 H 0.71995 0.66867 0.25346 0.0
C1652 C 0.72383 0.5841 0.22132 0.0
C1653 C 0.74504 0.59309 0.21366 0.0
C1654 C 0.71259 0.59402 0.2403 0.0
C1655 C 0.72219 0.61327 0.25154 0.0
C1656 C 0.74257 0.6231 0.24293 0.0
H1657 H 0.72198 0.65903 0.39284 0.0
H1658 H 0.73061 0.64259 0.35477 0.0
C1659 C 0.75391 0.61309 0.22419 0.0
C1660 C 0.7128 0.62141 0.27387 0.0
H1661 H 0.69367 0.6696 0.30191 0.0
C1662 C 0.71377 0.60636 0.29288 0.0
C1663 C 0.70494 0.6443 0.27702 0.0
C1664 C 0.7028 0.66089 0.25703 0.0
C1665 C 0.70788 0.61389 0.31516 0.0
C1666 C 0.70104 0.63709 0.31846 0.0
C1667 C 0.6992 0.65188 0.29932 0.0
C1668 C 0.69579 0.64638 0.34169 0.0
C1669 C 0.70914 0.59704 0.33501 0.0
C1670 C 0.67346 0.65415 0.34677 0.0
C1671 C 0.66848 0.66348 0.36843 0.0
C1672 C 0.68581 0.66543 0.38541 0.0
C1673 C 0.70822 0.65765 0.38023 0.0
C1674 C 0.71316 0.64819 0.35853 0.0
H1675 H 0.70943 0.57884 0.3289 0.0
H1676 H 0.7252 0.60023 0.34498 0.0
H1677 H 0.69424 0.59934 0.34687 0.0
H1678 H 0.65987 0.65299 0.33394 0.0
H1679 H 0.65105 0.66945 0.37173 0.0
H1680 H 0.28388 0.23388 0.1224 0.0
H1681 H 0.25047 0.25369 0.13876 0.0
H1682 H 0.25488 0.30559 0.08546 0.0
H1683 H 0.28844 0.28566 0.06881 0.0
H1684 H 0.2402 0.29976 0.15395 0.0
H1685 H 0.19141 0.27302 0.0754 0.0
H1686 H 0.21942 0.26129 0.08242 0.0
H1687 H 0.21705 0.28994 0.0708 0.0
C1688 C 0.27812 0.24986 0.11452 0.0
C1689 C 0.28859 0.25814 0.09423 0.0
C1690 C 0.25904 0.26115 0.12388 0.0
C1691 C 0.24998 0.28081 0.11305 0.0
C1692 C 0.26149 0.29023 0.09387 0.0
H1693 H 0.12809 0.35194 0.16657 0.0
H1694 H 0.1662 0.34348 0.15074 0.0
C1695 C 0.28077 0.27898 0.08452 0.0
C1696 C 0.22724 0.28971 0.12059 0.0
H1697 H 0.1704 0.2914 0.10485 0.0
C1698 C 0.22496 0.29826 0.14315 0.0
C1699 C 0.20737 0.28722 0.10655 0.0
C1700 C 0.20874 0.27723 0.08249 0.0
C1701 C 0.20325 0.30419 0.15216 0.0
C1702 C 0.1834 0.30165 0.13812 0.0
C1703 C 0.1857 0.29337 0.11548 0.0
C1704 C 0.15998 0.30686 0.1469 0.0
C1705 C 0.20158 0.31234 0.17687 0.0
C1706 C 0.14364 0.28911 0.1494 0.0
C1707 C 0.12172 0.29386 0.15839 0.0
C1708 C 0.11575 0.3165 0.16486 0.0
C1709 C 0.13207 0.33429 0.1618 0.0
C1710 C 0.15394 0.32951 0.15288 0.0
H1711 H 0.21767 0.3088 0.18672 0.0
H1712 H 0.1985 0.33126 0.17708 0.0
H1713 H 0.18689 0.30386 0.18583 0.0
H1714 H 0.148 0.27151 0.14477 0.0
H1715 H 0.10959 0.27977 0.16053 0.0
H1716 H 0.77614 0.22549 0.93968 0.0
H1717 H 0.74209 0.20847 0.92147 0.0
H1718 H 0.76054 0.24073 0.85675 0.0
H1719 H 0.7937 0.25907 0.87552 0.0
H1720 H 0.7191 0.25062 0.86565 0.0
H1721 H 0.72701 0.15674 0.88018 0.0
H1722 H 0.72892 0.17193 0.90706 0.0
H1723 H 0.75075 0.17625 0.88524 0.0
C1724 C 0.77333 0.2282 0.92136 0.0
C1725 C 0.78757 0.24329 0.90884 0.0
C1726 C 0.75387 0.21843 0.91091 0.0
C1727 C 0.74877 0.22304 0.88759 0.0
C1728 C 0.76403 0.2369 0.87474 0.0
H1729 H 0.63256 0.15924 0.81694 0.0
H1730 H 0.67061 0.16989 0.83156 0.0
C1731 C 0.78308 0.2472 0.88536 0.0
C1732 C 0.72624 0.21599 0.87745 0.0
H1733 H 0.6887 0.17086 0.87205 0.0
C1734 C 0.71265 0.23306 0.86677 0.0
C1735 C 0.71774 0.19309 0.8787 0.0
C1736 C 0.73202 0.17345 0.8882 0.0
C1737 C 0.69083 0.22801 0.85757 0.0
C1738 C 0.68175 0.20545 0.86009 0.0
C1739 C 0.69544 0.18827 0.87045 0.0
C1740 C 0.65841 0.19911 0.85148 0.0
C1741 C 0.67809 0.24684 0.84477 0.0
C1742 C 0.63874 0.21182 0.85796 0.0
C1743 C 0.61697 0.20608 0.84913 0.0
C1744 C 0.61443 0.18705 0.83432 0.0
C1745 C 0.63399 0.17394 0.82844 0.0
C1746 C 0.65576 0.18 0.8368 0.0
H1747 H 0.69017 0.26009 0.83792 0.0
H1748 H 0.66795 0.23976 0.83011 0.0
H1749 H 0.66609 0.25566 0.85683 0.0
H1750 H 0.64018 0.22617 0.86986 0.0
H1751 H 0.60213 0.21631 0.85413 0.0
H1752 H 0.71992 0.7337 0.37977 0.0
H1753 H 0.75291 0.75368 0.36277 0.0
H1754 H 0.74735 0.80715 0.41435 0.0
H1755 H 0.71423 0.78704 0.43166 0.0
H1756 H 0.76201 0.79933 0.34596 0.0
H1757 H 0.81165 0.7768 0.42531 0.0
H1758 H 0.78392 0.76412 0.41884 0.0
H1759 H 0.78561 0.79324 0.42935 0.0
C1760 C 0.72535 0.75002 0.38716 0.0
C1761 C 0.71466 0.75872 0.40715 0.0
C1762 C 0.74419 0.76142 0.37742 0.0
C1763 C 0.7528 0.78163 0.38758 0.0
C1764 C 0.74109 0.79138 0.40647 0.0
H1765 H 0.87354 0.85299 0.33092 0.0
H1766 H 0.83538 0.84465 0.34682 0.0
C1767 C 0.72206 0.78002 0.41619 0.0
C1768 C 0.77528 0.79085 0.37964 0.0
H1769 H 0.83212 0.7945 0.39509 0.0
C1770 C 0.77731 0.79861 0.35676 0.0
C1771 C 0.79525 0.78941 0.3937 0.0
C1772 C 0.7942 0.7803 0.41812 0.0
C1773 C 0.79886 0.80471 0.34744 0.0
C1774 C 0.81881 0.80315 0.36148 0.0
C1775 C 0.81674 0.79572 0.38444 0.0
C1776 C 0.84212 0.80834 0.35237 0.0
C1777 C 0.80027 0.81193 0.32242 0.0
C1778 C 0.85873 0.79075 0.35073 0.0
C1779 C 0.88065 0.79543 0.34172 0.0
C1780 C 0.88638 0.81786 0.33436 0.0
C1781 C 0.86975 0.83551 0.33642 0.0
C1782 C 0.84786 0.83078 0.34537 0.0
H1783 H 0.78419 0.80776 0.3128 0.0
H1784 H 0.80304 0.83087 0.32146 0.0
H1785 H 0.81505 0.80335 0.31372 0.0
H1786 H 0.85461 0.77331 0.35614 0.0
H1787 H 0.89302 0.78146 0.34038 0.0
H1788 H 0.3737 0.65102 0.66789 0.0
H1789 H 0.33616 0.66053 0.65129 0.0
H1790 H 0.35833 0.73084 0.64076 0.0
H1791 H 0.39617 0.72152 0.65734 0.0
H1792 H 0.30483 0.69475 0.66783 0.0
H1793 H 0.3319 0.71038 0.57708 0.0
H1794 H 0.34968 0.69489 0.59754 0.0
H1795 H 0.34822 0.72587 0.59849 0.0
C1796 C 0.37076 0.66849 0.66185 0.0
C1797 C 0.38804 0.6855 0.66382 0.0
C1798 C 0.34923 0.67387 0.65243 0.0
C1799 C 0.34458 0.69629 0.6446 0.0
C1800 C 0.36175 0.71333 0.6464 0.0
H1801 H 0.22194 0.77205 0.6188 0.0
H1802 H 0.25499 0.75224 0.63594 0.0
C1803 C 0.38332 0.708 0.65594 0.0
C1804 C 0.32144 0.70198 0.63533 0.0
H1805 H 0.29357 0.72125 0.58708 0.0
C1806 C 0.3023 0.70037 0.65013 0.0
C1807 C 0.3182 0.70893 0.61214 0.0
C1808 C 0.33803 0.70995 0.59527 0.0
C1809 C 0.28007 0.70642 0.64257 0.0
C1810 C 0.277 0.71437 0.61968 0.0
C1811 C 0.29599 0.71514 0.60463 0.0
C1812 C 0.25473 0.72393 0.61154 0.0
C1813 C 0.26008 0.70447 0.65916 0.0
C1814 C 0.24334 0.71433 0.59237 0.0
C1815 C 0.22427 0.72556 0.58261 0.0
C1816 C 0.21667 0.74677 0.59165 0.0
C1817 C 0.22741 0.75569 0.61153 0.0
C1818 C 0.24624 0.74435 0.62139 0.0
H1819 H 0.26392 0.69221 0.67343 0.0
H1820 H 0.25665 0.72167 0.66691 0.0
H1821 H 0.24417 0.69871 0.65012 0.0
H1822 H 0.24977 0.69864 0.58445 0.0
H1823 H 0.2165 0.71848 0.56712 0.0
H1824 H 0.85634 0.90048 0.71602 0.0
H1825 H 0.87422 0.86325 0.72536 0.0
H1826 H 0.83672 0.83127 0.66937 0.0
H1827 H 0.82 0.86859 0.65919 0.0
H1828 H 0.85728 0.82536 0.73968 0.0
H1829 H 0.89838 0.80587 0.65585 0.0
H1830 H 0.88594 0.83371 0.66209 0.0
H1831 H 0.86796 0.81021 0.65232 0.0
C1832 C 0.85216 0.88551 0.70559 0.0
C1833 C 0.83703 0.88745 0.68673 0.0
C1834 C 0.86236 0.86425 0.71092 0.0
C1835 C 0.8573 0.84445 0.69773 0.0
C1836 C 0.84168 0.84635 0.67926 0.0
H1837 H 0.87924 0.70826 0.75741 0.0
H1838 H 0.8617 0.74257 0.73987 0.0
C1839 C 0.83195 0.86768 0.67359 0.0
C1840 C 0.86737 0.82165 0.70405 0.0
H1841 H 0.89444 0.774 0.68206 0.0
C1842 C 0.86558 0.81425 0.72708 0.0
C1843 C 0.87857 0.8072 0.68776 0.0
C1844 C 0.88306 0.81478 0.66321 0.0
C1845 C 0.87439 0.79284 0.73424 0.0
C1846 C 0.88425 0.77775 0.71765 0.0
C1847 C 0.8864 0.78528 0.69468 0.0
C1848 C 0.89343 0.75464 0.72413 0.0
C1849 C 0.87364 0.78706 0.75968 0.0
C1850 C 0.91649 0.74881 0.7192 0.0
C1851 C 0.92621 0.72865 0.72833 0.0
C1852 C 0.91308 0.71423 0.74273 0.0
C1853 C 0.88962 0.71914 0.74625 0.0
C1854 C 0.87974 0.73892 0.73658 0.0
H1855 H 0.87246 0.80289 0.77047 0.0
H1856 H 0.8581 0.77644 0.76331 0.0
H1857 H 0.88919 0.77722 0.7651 0.0
H1858 H 0.92737 0.76052 0.70948 0.0
H1859 H 0.94446 0.72537 0.72574 0.0
H1860 H 0.68169 0.13205 0.16078 0.0
H1861 H 0.6663 0.16944 0.1724 0.0
H1862 H 0.62868 0.13675 0.22788 0.0
H1863 H 0.64522 0.09926 0.21702 0.0
H1864 H 0.62539 0.18618 0.1733 0.0
H1865 H 0.65865 0.18716 0.26299 0.0
H1866 H 0.66719 0.16545 0.2424 0.0
H1867 H 0.64023 0.16284 0.25776 0.0
C1868 C 0.67019 0.13283 0.17553 0.0
C1869 C 0.66468 0.11277 0.18806 0.0
C1870 C 0.66138 0.15424 0.18215 0.0
C1871 C 0.64658 0.15608 0.20124 0.0
C1872 C 0.64061 0.13594 0.21351 0.0
H1873 H 0.55948 0.27587 0.22728 0.0
H1874 H 0.5764 0.24077 0.21101 0.0
C1875 C 0.6499 0.1145 0.20721 0.0
C1876 C 0.6373 0.17912 0.20789 0.0
H1877 H 0.63156 0.21638 0.25316 0.0
C1878 C 0.6269 0.19285 0.19075 0.0
C1879 C 0.6396 0.18807 0.23053 0.0
C1880 C 0.65224 0.17522 0.24939 0.0
C1881 C 0.61869 0.21517 0.19559 0.0
C1882 C 0.62 0.22367 0.21848 0.0
C1883 C 0.63045 0.20994 0.2356 0.0
C1884 C 0.61051 0.24656 0.22538 0.0
C1885 C 0.60933 0.22951 0.17592 0.0
C1886 C 0.62392 0.26165 0.23889 0.0
C1887 C 0.61405 0.28134 0.24871 0.0
C1888 C 0.59076 0.28664 0.2447 0.0
C1889 C 0.57768 0.27246 0.23002 0.0
C1890 C 0.58738 0.25238 0.22072 0.0
H1891 H 0.61702 0.22422 0.15915 0.0
H1892 H 0.59039 0.22687 0.17465 0.0
H1893 H 0.61276 0.2482 0.17855 0.0
H1894 H 0.64179 0.25762 0.24275 0.0
H1895 H 0.6243 0.29188 0.26031 0.0
H1896 H 0.43511 0.78519 0.28564 0.0
H1897 H 0.41824 0.75202 0.30607 0.0
H1898 H 0.36554 0.74656 0.25366 0.0
H1899 H 0.38213 0.77957 0.23334 0.0
H1900 H 0.34989 0.73771 0.30006 0.0
H1901 H 0.42816 0.68763 0.27501 0.0
H1902 H 0.43277 0.71371 0.29125 0.0
H1903 H 0.4214 0.71535 0.26244 0.0
C1904 C 0.41951 0.77735 0.27892 0.0
C1905 C 0.41002 0.78477 0.25783 0.0
C1906 C 0.41004 0.75831 0.29047 0.0
C1907 C 0.39093 0.74665 0.28109 0.0
C1908 C 0.38036 0.75527 0.26109 0.0
H1909 H 0.34132 0.60734 0.28146 0.0
H1910 H 0.35801 0.64534 0.2731 0.0
C1911 C 0.38985 0.7741 0.24951 0.0
C1912 C 0.38315 0.7242 0.29048 0.0
H1913 H 0.39824 0.66723 0.29329 0.0
C1914 C 0.36053 0.72233 0.29892 0.0
C1915 C 0.397 0.70416 0.28849 0.0
C1916 C 0.42114 0.70511 0.27867 0.0
C1917 C 0.35124 0.70082 0.30517 0.0
C1918 C 0.36505 0.68078 0.30304 0.0
C1919 C 0.38778 0.68269 0.29493 0.0
C1920 C 0.35589 0.65754 0.30837 0.0
C1921 C 0.32646 0.69956 0.31316 0.0
C1922 C 0.34965 0.65177 0.33102 0.0
C1923 C 0.34019 0.63014 0.33586 0.0
C1924 C 0.33686 0.61381 0.31812 0.0
C1925 C 0.34366 0.61948 0.2955 0.0
C1926 C 0.35318 0.64116 0.2907 0.0
H1927 H 0.31687 0.71577 0.30945 0.0
H1928 H 0.31736 0.68494 0.3047 0.0
H1929 H 0.32608 0.69658 0.33209 0.0
H1930 H 0.35194 0.66407 0.34494 0.0
H1931 H 0.33518 0.62637 0.3535 0.0
H1932 H 0.12067 0.21943 0.73128 0.0
H1933 H 0.13878 0.25247 0.75005 0.0
H1934 H 0.08825 0.24939 0.80471 0.0
H1935 H 0.06983 0.21616 0.78578 0.0
H1936 H 0.09048 0.29203 0.7823 0.0
H1937 H 0.17828 0.26365 0.80721 0.0
H1938 H 0.17124 0.25623 0.77795 0.0
H1939 H 0.15518 0.2435 0.80134 0.0
C1940 C 0.11383 0.22534 0.74768 0.0
C1941 C 0.09385 0.21525 0.75708 0.0
C1942 C 0.12428 0.24417 0.75845 0.0
C1943 C 0.11499 0.2533 0.77887 0.0
C1944 C 0.09578 0.24248 0.78904 0.0
H1945 H 0.14416 0.38926 0.83886 0.0
H1946 H 0.12802 0.351 0.83153 0.0
C1947 C 0.08538 0.22342 0.77831 0.0
C1948 C 0.12355 0.27583 0.78757 0.0
H1949 H 0.17274 0.30461 0.80271 0.0
C1950 C 0.10836 0.29474 0.7872 0.0
C1951 C 0.14692 0.27934 0.7937 0.0
C1952 C 0.1638 0.25955 0.7953 0.0
C1953 C 0.11616 0.31724 0.79178 0.0
C1954 C 0.1397 0.32084 0.79727 0.0
C1955 C 0.15474 0.30183 0.79833 0.0
C1956 C 0.14919 0.34425 0.80149 0.0
C1957 C 0.09937 0.33708 0.78967 0.0
C1958 C 0.16668 0.35307 0.78719 0.0
C1959 C 0.17604 0.37495 0.79136 0.0
C1960 C 0.16812 0.3884 0.80999 0.0
C1961 C 0.1505 0.37952 0.8242 0.0
C1962 C 0.14119 0.35764 0.82003 0.0
H1963 H 0.08356 0.33209 0.78 0.0
H1964 H 0.09405 0.34271 0.80721 0.0
H1965 H 0.1075 0.35204 0.78083 0.0
H1966 H 0.17313 0.34296 0.77282 0.0
H1967 H 0.1897 0.38114 0.78018 0.0
H1968 H 0.72098 0.84346 0.89255 0.0
H1969 H 0.72905 0.85998 0.8544 0.0
H1970 H 0.65826 0.84872 0.83422 0.0
H1971 H 0.64999 0.83217 0.8721 0.0
H1972 H 0.69171 0.83254 0.80191 0.0
H1973 H 0.70717 0.92338 0.82859 0.0
H1974 H 0.72336 0.90222 0.84456 0.0
H1975 H 0.69242 0.90277 0.8468 0.0
C1976 C 0.70709 0.84467 0.88007 0.0
C1977 C 0.68482 0.83662 0.88545 0.0
C1978 C 0.71171 0.85418 0.85833 0.0
C1979 C 0.69416 0.85578 0.84164 0.0
C1980 C 0.67198 0.84774 0.84693 0.0
H1981 H 0.7158 0.93369 0.71375 0.0
H1982 H 0.69544 0.91617 0.74659 0.0
C1983 C 0.66731 0.83835 0.86864 0.0
C1984 C 0.69912 0.86509 0.81836 0.0
H1985 H 0.71778 0.91332 0.79013 0.0
C1986 C 0.6972 0.85026 0.79927 0.0
C1987 C 0.70587 0.8883 0.81497 0.0
C1988 C 0.70715 0.9052 0.83476 0.0
C1989 C 0.70287 0.8578 0.77693 0.0
C1990 C 0.71076 0.88067 0.77371 0.0
C1991 C 0.71171 0.89577 0.79266 0.0
C1992 C 0.72033 0.8887 0.75141 0.0
C1993 C 0.70068 0.84116 0.75699 0.0
C1994 C 0.74066 0.87865 0.74295 0.0
C1995 C 0.7523 0.88862 0.72436 0.0
C1996 C 0.74378 0.90879 0.71387 0.0
C1997 C 0.72259 0.91798 0.72134 0.0
C1998 C 0.71105 0.9081 0.74016 0.0
H1999 H 0.68823 0.82709 0.76092 0.0
H2000 H 0.69501 0.8502 0.74104 0.0
H2001 H 0.71775 0.83315 0.75359 0.0
H2002 H 0.74832 0.86392 0.7516 0.0
H2003 H 0.76863 0.88124 0.71898 0.0
H2004 H 0.78561 0.06981 0.21256 0.0
H2005 H 0.80513 0.08721 0.24605 0.0
H2006 H 0.74914 0.13576 0.25349 0.0
H2007 H 0.72968 0.1186 0.22024 0.0
H2008 H 0.7949 0.15447 0.26198 0.0
H2009 H 0.7754 0.07382 0.31081 0.0
H2010 H 0.7913 0.07076 0.28427 0.0
H2011 H 0.76188 0.08046 0.2835 0.0
C2012 C 0.77788 0.08466 0.22092 0.0
C2013 C 0.75608 0.09278 0.21396 0.0
C2014 C 0.78891 0.09442 0.24014 0.0
C2015 C 0.77834 0.11248 0.25242 0.0
C2016 C 0.75751 0.12177 0.24431 0.0
H2017 H 0.78015 0.15944 0.39331 0.0
H2018 H 0.77099 0.14373 0.35503 0.0
C2019 C 0.74643 0.11195 0.22531 0.0
C2020 C 0.7875 0.12042 0.27494 0.0
H2021 H 0.79239 0.10433 0.33153 0.0
C2022 C 0.79467 0.14346 0.27715 0.0
C2023 C 0.78669 0.10608 0.29473 0.0
C2024 C 0.77827 0.08143 0.29342 0.0
C2025 C 0.80091 0.15261 0.29874 0.0
C2026 C 0.80003 0.13828 0.31852 0.0
C2027 C 0.79308 0.11519 0.31628 0.0
C2028 C 0.80577 0.14713 0.34181 0.0
C2029 C 0.80768 0.17773 0.3004 0.0
C2030 C 0.82841 0.15384 0.34707 0.0
C2031 C 0.83372 0.1627 0.36886 0.0
C2032 C 0.81646 0.165 0.38587 0.0
C2033 C 0.79383 0.15789 0.38064 0.0
C2034 C 0.78857 0.14892 0.3588 0.0
H2035 H 0.8032 0.18747 0.28446 0.0
H2036 H 0.79906 0.18608 0.31537 0.0
H2037 H 0.82662 0.17901 0.30307 0.0
H2038 H 0.84197 0.1523 0.33426 0.0
H2039 H 0.85132 0.16801 0.37225 0.0
H2040 H 0.15966 0.64217 0.11058 0.0
H2041 H 0.16655 0.62679 0.14937 0.0
H2042 H 0.23065 0.66448 0.1531 0.0
H2043 H 0.22405 0.67984 0.11432 0.0
H2044 H 0.20532 0.60114 0.16719 0.0
H2045 H 0.1939 0.68554 0.21111 0.0
H2046 H 0.18416 0.68028 0.18192 0.0
H2047 H 0.21415 0.68599 0.18759 0.0
C2048 C 0.17537 0.64702 0.11952 0.0
C2049 C 0.19122 0.66243 0.10936 0.0
C2050 C 0.1792 0.63827 0.14173 0.0
C2051 C 0.19884 0.64491 0.15426 0.0
C2052 C 0.21512 0.65957 0.14389 0.0
H2053 H 0.27114 0.61876 0.27764 0.0
H2054 H 0.25231 0.6347 0.24352 0.0
C2055 C 0.21136 0.66825 0.12166 0.0
C2056 C 0.20246 0.63651 0.17818 0.0
H2057 H 0.21022 0.65511 0.23362 0.0
C2058 C 0.20608 0.61283 0.18182 0.0
C2059 C 0.20327 0.65185 0.19717 0.0
C2060 C 0.19846 0.67732 0.19438 0.0
C2061 C 0.21181 0.60423 0.20379 0.0
C2062 C 0.21343 0.61971 0.22269 0.0
C2063 C 0.20889 0.64327 0.21915 0.0
C2064 C 0.2225 0.61223 0.24548 0.0
C2065 C 0.21732 0.57886 0.20632 0.0
C2066 C 0.21144 0.59507 0.25863 0.0
C2067 C 0.22222 0.58587 0.27829 0.0
C2068 C 0.2442 0.59376 0.285 0.0
C2069 C 0.25429 0.61219 0.2728 0.0
C2070 C 0.24354 0.62133 0.25327 0.0
H2071 H 0.21945 0.57021 0.18931 0.0
H2072 H 0.2334 0.57639 0.21649 0.0
H2073 H 0.20302 0.57016 0.21564 0.0
H2074 H 0.19494 0.58815 0.25317 0.0
H2075 H 0.21404 0.57167 0.28732 0.0
H2076 H 0.291 0.42793 0.79075 0.0
H2077 H 0.3077 0.40826 0.75708 0.0
H2078 H 0.25238 0.3584 0.7588 0.0
H2079 H 0.23582 0.37798 0.79253 0.0
H2080 H 0.29811 0.34044 0.74444 0.0
H2081 H 0.26835 0.41862 0.69704 0.0
H2082 H 0.28742 0.42379 0.721 0.0
H2083 H 0.25915 0.41212 0.72611 0.0
C2084 C 0.28315 0.41208 0.78461 0.0
C2085 C 0.26247 0.40409 0.79436 0.0
C2086 C 0.29249 0.40105 0.76526 0.0
C2087 C 0.28107 0.38209 0.75533 0.0
C2088 C 0.26147 0.37296 0.76627 0.0
H2089 H 0.27809 0.33868 0.61204 0.0
H2090 H 0.26884 0.35163 0.65126 0.0
C2091 C 0.25213 0.384 0.7856 0.0
C2092 C 0.28753 0.37383 0.732 0.0
H2093 H 0.28726 0.38995 0.67522 0.0
C2094 C 0.29589 0.35125 0.72929 0.0
C2095 C 0.28408 0.38787 0.71226 0.0
C2096 C 0.27408 0.41189 0.71408 0.0
C2097 C 0.30122 0.34244 0.70729 0.0
C2098 C 0.29824 0.35668 0.68762 0.0
C2099 C 0.28964 0.37915 0.69035 0.0
C2100 C 0.30386 0.34862 0.66399 0.0
C2101 C 0.30953 0.31783 0.70521 0.0
C2102 C 0.32666 0.34303 0.65808 0.0
C2103 C 0.33202 0.33575 0.63571 0.0
C2104 C 0.31467 0.334 0.61873 0.0
C2105 C 0.29186 0.33988 0.62465 0.0
C2106 C 0.28654 0.34723 0.64706 0.0
H2107 H 0.30561 0.3076 0.72098 0.0
H2108 H 0.30151 0.30917 0.69007 0.0
H2109 H 0.32853 0.31779 0.70269 0.0
H2110 H 0.34036 0.34443 0.67076 0.0
H2111 H 0.34978 0.33134 0.6318 0.0
H2112 H 0.89551 0.72059 0.84232 0.0
H2113 H 0.85747 0.72928 0.85872 0.0
H2114 H 0.83649 0.65862 0.84808 0.0
H2115 H 0.87426 0.64976 0.83162 0.0
H2116 H 0.80433 0.69187 0.83196 0.0
H2117 H 0.83174 0.70874 0.92235 0.0
H2118 H 0.8475 0.72467 0.90087 0.0
H2119 H 0.84981 0.69373 0.90181 0.0
C2120 C 0.88287 0.70686 0.84362 0.0
C2121 C 0.88802 0.68445 0.83579 0.0
C2122 C 0.86118 0.71183 0.85308 0.0
C2123 C 0.84429 0.6945 0.85485 0.0
C2124 C 0.84933 0.67219 0.84697 0.0
H2125 H 0.7167 0.71628 0.93337 0.0
H2126 H 0.75003 0.69649 0.91612 0.0
C2127 C 0.87099 0.66717 0.83762 0.0
C2128 C 0.82108 0.69979 0.86424 0.0
H2129 H 0.79322 0.7192 0.91243 0.0
C2130 C 0.80184 0.69766 0.84961 0.0
C2131 C 0.81786 0.70695 0.88737 0.0
C2132 C 0.83777 0.70848 0.90412 0.0
C2133 C 0.77956 0.70342 0.85725 0.0
C2134 C 0.77651 0.71165 0.88004 0.0
C2135 C 0.79561 0.7129 0.89494 0.0
C2136 C 0.75414 0.72103 0.8882 0.0
C2137 C 0.75949 0.70087 0.84082 0.0
C2138 C 0.74512 0.741 0.87788 0.0
C2139 C 0.72623 0.7523 0.88768 0.0
C2140 C 0.71596 0.74382 0.90799 0.0
C2141 C 0.72408 0.72302 0.91754 0.0
C2142 C 0.7432 0.71181 0.90782 0.0
H2143 H 0.76337 0.68826 0.82688 0.0
H2144 H 0.74367 0.69522 0.85008 0.0
H2145 H 0.75589 0.71781 0.8326 0.0
H2146 H 0.7535 0.74862 0.86298 0.0
H2147 H 0.72038 0.76835 0.88002 0.0
H2148 H 0.227 0.72141 0.1084 0.0
H2149 H 0.25983 0.739 0.12812 0.0
H2150 H 0.23606 0.80656 0.10759 0.0
H2151 H 0.20271 0.78878 0.08785 0.0
H2152 H 0.28968 0.76932 0.09644 0.0
H2153 H 0.26098 0.80983 0.17897 0.0
H2154 H 0.24642 0.78479 0.16729 0.0
H2155 H 0.2433 0.81224 0.15337 0.0
C2156 C 0.22828 0.74006 0.10889 0.0
C2157 C 0.21236 0.75379 0.09682 0.0
C2158 C 0.24706 0.75007 0.12006 0.0
C2159 C 0.25034 0.77402 0.11925 0.0
C2160 C 0.23361 0.78803 0.10858 0.0
H2161 H 0.37295 0.84871 0.16543 0.0
H2162 H 0.33459 0.83889 0.1509 0.0
C2163 C 0.21457 0.77793 0.09745 0.0
C2164 C 0.27292 0.78346 0.12647 0.0
H2165 H 0.30085 0.81074 0.17061 0.0
C2166 C 0.29215 0.77855 0.11257 0.0
C2167 C 0.27593 0.79556 0.14739 0.0
C2168 C 0.25566 0.80099 0.16278 0.0
C2169 C 0.31448 0.78505 0.11927 0.0
C2170 C 0.3177 0.79633 0.14069 0.0
C2171 C 0.29835 0.80191 0.15428 0.0
C2172 C 0.34107 0.80214 0.14939 0.0
C2173 C 0.33441 0.77983 0.10329 0.0
C2174 C 0.35742 0.78468 0.15348 0.0
C2175 C 0.37947 0.79021 0.16166 0.0
C2176 C 0.38551 0.81331 0.16606 0.0
C2177 C 0.36898 0.83073 0.16207 0.0
C2178 C 0.34698 0.82518 0.15386 0.0
H2179 H 0.32849 0.77726 0.08521 0.0
H2180 H 0.34737 0.79397 0.10356 0.0
H2181 H 0.34301 0.76369 0.10902 0.0
H2182 H 0.35304 0.76672 0.15057 0.0
H2183 H 0.39165 0.77636 0.16482 0.0
H2184 H 0.27582 0.22622 0.55894 0.0
H2185 H 0.24099 0.20903 0.57571 0.0
H2186 H 0.25818 0.23883 0.6419 0.0
H2187 H 0.29217 0.25727 0.6247 0.0
H2188 H 0.2277 0.18109 0.60867 0.0
H2189 H 0.19775 0.26931 0.63014 0.0
H2190 H 0.22357 0.26411 0.61361 0.0
H2191 H 0.22416 0.26234 0.64471 0.0
C2192 C 0.27247 0.22846 0.57724 0.0
C2193 C 0.2865 0.24301 0.59062 0.0
C2194 C 0.25251 0.21879 0.58677 0.0
C2195 C 0.24655 0.22333 0.60987 0.0
C2196 C 0.26198 0.23583 0.62383 0.0
H2197 H 0.13271 0.1583 0.68262 0.0
H2198 H 0.17001 0.16838 0.66585 0.0
C2199 C 0.28155 0.24603 0.61414 0.0
C2200 C 0.22345 0.21664 0.61874 0.0
H2201 H 0.1753 0.23837 0.64489 0.0
C2202 C 0.21619 0.19361 0.61652 0.0
C2203 C 0.2081 0.23315 0.62831 0.0
C2204 C 0.21367 0.25863 0.6291 0.0
C2205 C 0.19424 0.18654 0.62403 0.0
C2206 C 0.1795 0.20276 0.63494 0.0
C2207 C 0.18664 0.22585 0.63679 0.0
C2208 C 0.1567 0.1963 0.64476 0.0
C2209 C 0.18693 0.16191 0.61958 0.0
C2210 C 0.13686 0.20925 0.63932 0.0
C2211 C 0.1156 0.20398 0.64951 0.0
C2212 C 0.11377 0.18543 0.66501 0.0
C2213 C 0.13357 0.17246 0.67039 0.0
C2214 C 0.15488 0.17807 0.66065 0.0
H2215 H 0.19613 0.15455 0.60442 0.0
H2216 H 0.19139 0.15115 0.63481 0.0
H2217 H 0.16806 0.16062 0.61644 0.0
H2218 H 0.13783 0.2235 0.62723 0.0
H2219 H 0.1006 0.21426 0.6451 0.0
H2220 H 0.62907 0.35372 0.33362 0.0
H2221 H 0.66718 0.34492 0.34939 0.0
H2222 H 0.64731 0.27371 0.35834 0.0
H2223 H 0.60894 0.28232 0.34268 0.0
H2224 H 0.6705 0.29444 0.39727 0.0
H2225 H 0.71757 0.30763 0.31452 0.0
H2226 H 0.69904 0.33089 0.32349 0.0
H2227 H 0.68668 0.30352 0.31577 0.0
C2228 C 0.6327 0.33617 0.33903 0.0
C2229 C 0.61591 0.31869 0.33685 0.0
C2230 C 0.65457 0.33118 0.34791 0.0
C2231 C 0.66013 0.30863 0.35473 0.0
C2232 C 0.64333 0.29122 0.35306 0.0
H2233 H 0.78233 0.23303 0.38063 0.0
H2234 H 0.74915 0.2531 0.36406 0.0
C2235 C 0.62143 0.29617 0.34412 0.0
C2236 C 0.68349 0.30314 0.36356 0.0
H2237 H 0.74007 0.29888 0.34739 0.0
C2238 C 0.68577 0.29557 0.38646 0.0
C2239 C 0.70329 0.30456 0.34931 0.0
C2240 C 0.70165 0.31191 0.32434 0.0
C2241 C 0.70732 0.28903 0.39545 0.0
C2242 C 0.72713 0.29037 0.38118 0.0
C2243 C 0.7249 0.29824 0.35836 0.0
C2244 C 0.74966 0.28103 0.38887 0.0
C2245 C 0.70859 0.27982 0.41983 0.0
C2246 C 0.76165 0.29075 0.40761 0.0
C2247 C 0.7808 0.27934 0.41707 0.0
C2248 C 0.78803 0.25804 0.40793 0.0
C2249 C 0.77704 0.24936 0.38808 0.0
C2250 C 0.75809 0.2608 0.3786 0.0
H2251 H 0.6912 0.2764 0.42718 0.0
H2252 H 0.71877 0.26357 0.42037 0.0
H2253 H 0.71739 0.29265 0.43101 0.0
H2254 H 0.75554 0.30653 0.41558 0.0
H2255 H 0.78886 0.28635 0.43244 0.0
H2256 H 0.02832 0.34172 0.12471 0.0
H2257 H 0.0012 0.33388 0.09322 0.0
H2258 H 0.97303 0.27654 0.13151 0.0
H2259 H 0.9999 0.28427 0.16315 0.0
H2260 H 0.9951 0.29197 0.06704 0.0
H2261 H 0.91633 0.31738 0.11581 0.0
H2262 H 0.94504 0.32523 0.1251 0.0
H2263 H 0.93456 0.29639 0.12966 0.0
C2264 C 0.01637 0.32744 0.12646 0.0
C2265 C 0.01626 0.31368 0.14651 0.0
C2266 C 1.00093 0.32295 0.10843 0.0
C2267 C 0.98501 0.30478 0.11017 0.0
C2268 C 0.985 0.29084 0.12998 0.0
H2269 H 0.89848 0.25468 0.99555 0.0
H2270 H 0.9257 0.25601 0.02807 0.0
C2271 C 1.00045 0.29526 0.14801 0.0
C2272 C 0.96827 0.30056 0.09129 0.0
H2273 H 0.91081 0.30256 0.07823 0.0
C2274 C 0.97666 0.29416 0.06946 0.0
C2275 C 0.94426 0.30358 0.09456 0.0
C2276 C 0.93442 0.3112 0.11747 0.0
C2277 C 0.96162 0.29085 0.0507 0.0
C2278 C 0.93761 0.29385 0.05399 0.0
C2279 C 0.92923 0.30006 0.07587 0.0
C2280 C 0.92105 0.29254 0.03453 0.0
C2281 C 0.97154 0.28493 0.02734 0.0
C2282 C 0.90918 0.3125 0.02774 0.0
C2283 C 0.8937 0.31182 0.00931 0.0
C2284 C 0.88964 0.29108 0.99728 0.0
C2285 C 0.9013 0.27095 0.00435 0.0
C2286 C 0.91692 0.27169 0.02284 0.0
H2287 H 0.9906 0.28714 0.02683 0.0
H2288 H 0.96752 0.26665 0.02321 0.0
H2289 H 0.96369 0.2959 0.0137 0.0
H2290 H 0.91208 0.32874 0.03661 0.0
H2291 H 0.88493 0.32763 0.0045 0.0
H2292 H 0.61729 0.6744 0.50292 0.0
H2293 H 0.59025 0.67289 0.53502 0.0
H2294 H 0.57562 0.74543 0.52656 0.0
H2295 H 0.60278 0.74717 0.49396 0.0
H2296 H 0.59163 0.69874 0.57652 0.0
H2297 H 0.51104 0.71364 0.52615 0.0
H2298 H 0.53788 0.70529 0.51263 0.0
H2299 H 0.53387 0.73441 0.52246 0.0
C2300 C 0.60831 0.6901 0.50771 0.0
C2301 C 0.6121 0.71091 0.49569 0.0
C2302 C 0.59288 0.68918 0.52616 0.0
C2303 C 0.58078 0.70896 0.53301 0.0
C2304 C 0.58458 0.72988 0.52129 0.0
H2305 H 0.50381 0.715 0.66269 0.0
H2306 H 0.53013 0.72311 0.63075 0.0
C2307 C 0.60016 0.73087 0.50276 0.0
C2308 C 0.56444 0.70734 0.55264 0.0
H2309 H 0.50707 0.70814 0.56633 0.0
C2310 C 0.57315 0.70099 0.57437 0.0
C2311 C 0.54035 0.70999 0.54965 0.0
C2312 C 0.53008 0.71605 0.52646 0.0
C2313 C 0.55839 0.69697 0.59317 0.0
C2314 C 0.53429 0.69964 0.5902 0.0
C2315 C 0.52557 0.70619 0.56853 0.0
C2316 C 0.51786 0.69511 0.60929 0.0
C2317 C 0.56864 0.68917 0.61586 0.0
C2318 C 0.50191 0.67692 0.60761 0.0
C2319 C 0.48675 0.67222 0.62585 0.0
C2320 C 0.48717 0.68576 0.64603 0.0
C2321 C 0.50304 0.70415 0.64747 0.0
C2322 C 0.51817 0.7088 0.62926 0.0
H2323 H 0.58671 0.68304 0.61384 0.0
H2324 H 0.5687 0.70389 0.62814 0.0
H2325 H 0.55818 0.67506 0.62357 0.0
H2326 H 0.5014 0.66618 0.59229 0.0
H2327 H 0.47475 0.65798 0.62412 0.0
H2328 H 0.39755 0.17199 0.00945 0.0
H2329 H 0.42423 0.17014 0.97706 0.0
H2330 H 0.41701 0.24357 0.96655 0.0
H2331 H 0.39056 0.24571 0.99962 0.0
H2332 H 0.41619 0.18009 0.93254 0.0
H2333 H 0.48648 0.23633 0.96585 0.0
H2334 H 0.46349 0.2258 0.98406 0.0
H2335 H 0.45858 0.24982 0.96498 0.0
C2336 C 0.40172 0.18785 1.00042 0.0
C2337 C 0.39196 0.20905 0.00721 0.0
C2338 C 0.417 0.18673 0.98185 0.0
C2339 C 0.42286 0.20672 0.9695 0.0
C2340 C 0.41316 0.22798 0.97614 0.0
H2341 H 0.5035 0.21907 0.84263 0.0
H2342 H 0.47708 0.22596 0.87491 0.0
C2343 C 0.39796 0.22917 0.99497 0.0
C2344 C 0.43848 0.20482 0.94922 0.0
H2345 H 0.49044 0.22256 0.92748 0.0
C2346 C 0.43242 0.1894 0.93147 0.0
C2347 C 0.45966 0.21697 0.94781 0.0
C2348 C 0.46761 0.23301 0.96677 0.0
C2349 C 0.44701 0.18568 0.91249 0.0
C2350 C 0.46819 0.19765 0.91121 0.0
C2351 C 0.47413 0.21342 0.92863 0.0
C2352 C 0.48456 0.19364 0.89203 0.0
C2353 C 0.43977 0.16893 0.89387 0.0
C2354 C 0.49758 0.17322 0.89115 0.0
C2355 C 0.51282 0.16925 0.87282 0.0
C2356 C 0.51518 0.1856 0.85499 0.0
C2357 C 0.50208 0.20608 0.85603 0.0
C2358 C 0.48702 0.21011 0.87447 0.0
H2359 H 0.42145 0.16354 0.89571 0.0
H2360 H 0.44221 0.17678 0.87653 0.0
H2361 H 0.45082 0.15328 0.89479 0.0
H2362 H 0.49591 0.16035 0.90464 0.0
H2363 H 0.52257 0.15328 0.87252 0.0
H2364 H 0.10273 0.82876 0.50947 0.0
H2365 H 0.07534 0.82984 0.47764 0.0
H2366 H 0.08512 0.75683 0.46639 0.0
H2367 H 0.11238 0.75545 0.49889 0.0
H2368 H 0.08411 0.8201 0.43283 0.0
H2369 H 0.01512 0.76225 0.46628 0.0
H2370 H 0.03776 0.77353 0.48451 0.0
H2371 H 0.04349 0.74972 0.46543 0.0
C2372 C 0.09897 0.81283 0.50041 0.0
C2373 C 0.10975 0.79198 0.50675 0.0
C2374 C 0.08328 0.8135 0.48218 0.0
C2375 C 0.07802 0.79341 0.46974 0.0
C2376 C 0.08857 0.77247 0.47605 0.0
H2377 H 0.99519 0.78078 0.34427 0.0
H2378 H 0.02159 0.77341 0.37646 0.0
C2379 C 0.10421 0.77172 0.49454 0.0
C2380 C 0.06229 0.79501 0.44957 0.0
H2381 H 0.01032 0.77677 0.42832 0.0
C2382 C 0.06799 0.81059 0.43185 0.0
C2383 C 0.04129 0.78255 0.44831 0.0
C2384 C 0.03387 0.76621 0.46721 0.0
C2385 C 0.05316 0.81426 0.41306 0.0
C2386 C 0.03206 0.80211 0.412 0.0
C2387 C 0.02654 0.78609 0.42933 0.0
C2388 C 0.01537 0.80623 0.39313 0.0
C2389 C 0.06008 0.83116 0.39444 0.0
C2390 C 0.003 0.82704 0.3921 0.0
C2391 C 0.9878 0.8313 0.37381 0.0
C2392 C 0.98483 0.81483 0.3562 0.0
C2393 C 0.99712 0.79387 0.3575 0.0
C2394 C 0.01216 0.78957 0.37589 0.0
H2395 H 0.07858 0.83608 0.39571 0.0
H2396 H 0.05681 0.82372 0.37706 0.0
H2397 H 0.04949 0.84706 0.39608 0.0
H2398 H 0.00524 0.84004 0.40537 0.0
H2399 H 0.97865 0.84762 0.37331 0.0
H2400 H 0.15379 0.01454 0.28234 0.0
H2401 H 0.12155 0.98847 0.27471 0.0
H2402 H 0.11205 0.97856 0.34793 0.0
H2403 H 0.14416 0.00492 0.35583 0.0
H2404 H 0.11446 0.9424 0.28677 0.0
H2405 H 0.048 0.99916 0.32604 0.0
H2406 H 0.07675 0.00918 0.31933 0.0
H2407 H 0.0716 0.99249 0.34504 0.0
C2408 C 0.1449 0.00683 0.29688 0.0
C2409 C 0.15145 0.01206 0.31974 0.0
C2410 C 0.12647 0.99189 0.29245 0.0
C2411 C 0.11413 0.98191 0.31074 0.0
C2412 C 0.12103 0.98648 0.33356 0.0
H2413 H 0.00186 0.8885 0.32934 0.0
H2414 H 0.03444 0.91483 0.33175 0.0
C2415 C 0.13948 0.00146 0.33804 0.0
C2416 C 0.09396 0.96684 0.30589 0.0
H2417 H 0.03616 0.96114 0.31604 0.0
C2418 C 0.09729 0.94655 0.293 0.0
C2419 C 0.07155 0.97243 0.31384 0.0
C2420 C 0.06663 0.99461 0.32664 0.0
C2421 C 0.07894 0.93124 0.28863 0.0
C2422 C 0.05667 0.93656 0.29713 0.0
C2423 C 0.05327 0.9571 0.30955 0.0
C2424 C 0.037 0.92031 0.2949 0.0
C2425 C 0.08365 0.90911 0.27571 0.0
C2426 C 0.02748 0.91468 0.27327 0.0
C2427 C 0.00862 0.89951 0.27175 0.0
C2428 C 0.999 0.88982 0.29187 0.0
C2429 C 0.00869 0.89562 0.31344 0.0
C2430 C 0.02738 0.91071 0.31491 0.0
H2431 H 0.10244 0.90567 0.2739 0.0
H2432 H 0.07549 0.89422 0.28466 0.0
H2433 H 0.07604 0.9103 0.25815 0.0
H2434 H 0.03448 0.92217 0.25762 0.0
H2435 H 0.0016 0.89542 0.2549 0.0
H2436 H 0.4983 0.11143 0.75366 0.0
H2437 H 0.46512 0.08497 0.75594 0.0
H2438 H 0.47606 0.07757 0.82928 0.0
H2439 H 0.50857 0.10402 0.82732 0.0
H2440 H 0.4614 0.03936 0.77125 0.0
H2441 H 0.40889 0.09721 0.82634 0.0
H2442 H 0.43442 0.10701 0.81138 0.0
H2443 H 0.4369 0.09185 0.83844 0.0
C2444 C 0.49363 0.10408 0.77023 0.0
C2445 C 0.50595 0.11004 0.79032 0.0
C2446 C 0.47468 0.08902 0.77151 0.0
C2447 C 0.4678 0.07976 0.79289 0.0
C2448 C 0.48063 0.08502 0.81273 0.0
H2449 H 0.3734 0.97947 0.84821 0.0
H2450 H 0.40522 0.00612 0.83979 0.0
C2451 C 0.49934 0.10009 0.81151 0.0
C2452 C 0.44732 0.06447 0.7948 0.0
H2453 H 0.39693 0.05757 0.82475 0.0
C2454 C 0.44714 0.04346 0.78268 0.0
C2455 C 0.42866 0.06992 0.80967 0.0
C2456 C 0.42707 0.09284 0.822 0.0
C2457 C 0.42925 0.02734 0.78582 0.0
C2458 C 0.4112 0.03243 0.80142 0.0
C2459 C 0.41102 0.05366 0.81303 0.0
C2460 C 0.39235 0.01585 0.80609 0.0
C2461 C 0.42999 0.00468 0.77301 0.0
C2462 C 0.37459 0.01272 0.78995 0.0
C2463 C 0.35632 0.99769 0.79476 0.0
C2464 C 0.35555 0.98541 0.81577 0.0
C2465 C 0.37351 0.98855 0.83184 0.0
C2466 C 0.39168 0.00376 0.82709 0.0
H2467 H 0.44637 0.00238 0.76328 0.0
H2468 H 0.42796 0.99009 0.78531 0.0
H2469 H 0.41538 0.0039 0.76061 0.0
H2470 H 0.37475 0.0221 0.77375 0.0
H2471 H 0.3428 0.99571 0.78197 0.0
H2472 H 0.62919 0.47941 0.65448 0.0
H2473 H 0.59706 0.50553 0.66296 0.0
H2474 H 0.6278 0.52223 0.72876 0.0
H2475 H 0.66023 0.49668 0.72021 0.0
H2476 H 0.56556 0.50456 0.69775 0.0
H2477 H 0.61632 0.58578 0.70257 0.0
H2478 H 0.6282 0.55931 0.69121 0.0
H2479 H 0.62622 0.56368 0.72192 0.0
C2480 C 0.62917 0.4887 0.67072 0.0
C2481 C 0.64737 0.48602 0.6866 0.0
C2482 C 0.61077 0.50362 0.67555 0.0
C2483 C 0.61018 0.51614 0.69634 0.0
C2484 C 0.62814 0.51322 0.71237 0.0
H2485 H 0.50311 0.61149 0.74801 0.0
H2486 H 0.5353 0.58372 0.74688 0.0
C2487 C 0.64663 0.49847 0.70748 0.0
C2488 C 0.59055 0.5319 0.70134 0.0
H2489 H 0.57678 0.5882 0.71277 0.0
C2490 C 0.56805 0.52283 0.70108 0.0
C2491 C 0.59379 0.55576 0.70574 0.0
C2492 C 0.6174 0.5668 0.70519 0.0
C2493 C 0.54873 0.53699 0.70489 0.0
C2494 C 0.55199 0.56081 0.70902 0.0
C2495 C 0.57444 0.56984 0.70982 0.0
C2496 C 0.53221 0.57695 0.71026 0.0
C2497 C 0.52489 0.52651 0.70421 0.0
C2498 C 0.52004 0.58231 0.69005 0.0
C2499 C 0.50193 0.59818 0.69058 0.0
C2500 C 0.49548 0.60897 0.7114 0.0
C2501 C 0.50756 0.60337 0.73175 0.0
C2502 C 0.52595 0.5876 0.73113 0.0
H2503 H 0.52544 0.50736 0.70544 0.0
H2504 H 0.51412 0.53336 0.71852 0.0
H2505 H 0.5164 0.53124 0.68767 0.0
H2506 H 0.52478 0.57442 0.67375 0.0
H2507 H 0.49302 0.60203 0.67457 0.0
H2508 H 0.99743 0.38355 0.17473 0.0
H2509 H 0.96542 0.41068 0.17339 0.0
H2510 H 0.97449 0.42553 0.24582 0.0
H2511 H 0.00705 0.39828 0.24739 0.0
H2512 H 0.92416 0.40969 0.19936 0.0
H2513 H 0.97503 0.49001 0.21387 0.0
H2514 H 0.98836 0.46305 0.2056 0.0
H2515 H 0.97859 0.46721 0.23472 0.0
C2516 C 0.99279 0.39259 0.19045 0.0
C2517 C 0.00499 0.38884 0.21117 0.0
C2518 C 0.97439 0.40807 0.18962 0.0
C2519 C 0.96774 0.42028 0.20941 0.0
C2520 C 0.9796 0.41649 0.23026 0.0
H2521 H 0.83845 0.49809 0.21453 0.0
H2522 H 0.87018 0.47162 0.22299 0.0
C2523 C 0.99811 0.40085 0.23115 0.0
C2524 C 0.9482 0.43675 0.20783 0.0
H2525 H 0.93492 0.49424 0.20824 0.0
C2526 C 0.92642 0.42817 0.20151 0.0
C2527 C 0.95136 0.46084 0.21034 0.0
C2528 C 0.9746 0.47098 0.21635 0.0
C2529 C 0.90775 0.44305 0.19735 0.0
C2530 C 0.91088 0.46715 0.19986 0.0
C2531 C 0.93259 0.47574 0.20641 0.0
C2532 C 0.89194 0.48372 0.19514 0.0
C2533 C 0.88503 0.43292 0.18954 0.0
C2534 C 0.89385 0.49964 0.17693 0.0
C2535 C 0.87574 0.5149 0.17204 0.0
C2536 C 0.85544 0.5146 0.1854 0.0
C2537 C 0.85377 0.49876 0.20381 0.0
C2538 C 0.87185 0.48354 0.20865 0.0
H2539 H 0.88697 0.41482 0.18345 0.0
H2540 H 0.87274 0.43294 0.20425 0.0
H2541 H 0.87738 0.44338 0.17539 0.0
H2542 H 0.90925 0.50005 0.16632 0.0
H2543 H 0.87764 0.52687 0.15779 0.0
H2544 H 0.34804 0.127 0.02574 0.0
H2545 H 0.33997 0.09507 0.99922 0.0
H2546 H 0.27357 0.12486 0.98328 0.0
H2547 H 0.2817 0.15709 0.00922 0.0
H2548 H 0.30575 0.06285 0.99945 0.0
H2549 H 0.3 0.11552 0.91947 0.0
H2550 H 0.31117 0.12692 0.94623 0.0
H2551 H 0.28051 0.12459 0.94178 0.0
C2552 C 0.33173 0.12678 0.01656 0.0
C2553 C 0.31559 0.14469 0.01952 0.0
C2554 C 0.32714 0.10852 0.00141 0.0
C2555 C 0.30633 0.10777 0.98895 0.0
C2556 C 0.28998 0.12536 0.99224 0.0
H2557 H 0.25442 0.00196 0.89273 0.0
H2558 H 0.25602 0.03364 0.92102 0.0
C2559 C 0.29463 0.14371 0.00722 0.0
C2560 C 0.30167 0.08845 0.97273 0.0
H2561 H 0.29011 0.07593 0.91615 0.0
C2562 C 0.3023 0.06573 0.98125 0.0
C2563 C 0.29715 0.09222 0.94895 0.0
C2564 C 0.29736 0.1161 0.93848 0.0
C2565 C 0.29867 0.04672 0.96664 0.0
C2566 C 0.2943 0.05053 0.94294 0.0
C2567 C 0.29323 0.07317 0.93443 0.0
C2568 C 0.2929 0.03114 0.92637 0.0
C2569 C 0.29972 0.02263 0.9765 0.0
C2570 C 0.31311 0.01949 0.92003 0.0
C2571 C 0.31232 0.00165 0.90385 0.0
C2572 C 0.29122 0.99497 0.89376 0.0
C2573 C 0.2709 0.0066 0.90029 0.0
C2574 C 0.27177 0.02469 0.91637 0.0
H2575 H 0.29914 0.02267 0.99569 0.0
H2576 H 0.28518 0.01203 0.96984 0.0
H2577 H 0.31606 0.01425 0.97098 0.0
H2578 H 0.32959 0.02438 0.92744 0.0
H2579 H 0.32831 0.99311 0.89927 0.0
H2580 H 0.84663 0.37351 0.97847 0.0
H2581 H 0.83821 0.40559 0.00465 0.0
H2582 H 0.77131 0.37629 0.0193 0.0
H2583 H 0.77978 0.34388 0.99366 0.0
H2584 H 0.80408 0.4379 0.00309 0.0
H2585 H 0.79649 0.38626 0.08365 0.0
H2586 H 0.80819 0.37448 0.05728 0.0
H2587 H 0.77746 0.37713 0.06093 0.0
C2588 C 0.83014 0.37385 0.9873 0.0
C2589 C 0.81393 0.35606 0.98404 0.0
C2590 C 0.82535 0.39221 0.00225 0.0
C2591 C 0.80428 0.39316 0.01422 0.0
C2592 C 0.78791 0.37564 0.0107 0.0
H2593 H 0.7539 0.5006 0.10962 0.0
H2594 H 0.75467 0.46864 0.08162 0.0
C2595 C 0.79274 0.35718 0.99591 0.0
C2596 C 0.79941 0.4127 0.03009 0.0
H2597 H 0.78758 0.42607 0.0864 0.0
C2598 C 0.8004 0.43529 0.02128 0.0
C2599 C 0.79457 0.40927 0.05385 0.0
C2600 C 0.7943 0.38551 0.06458 0.0
C2601 C 0.79695 0.45452 0.03563 0.0
C2602 C 0.79243 0.45107 0.05935 0.0
C2603 C 0.79085 0.42855 0.06811 0.0
C2604 C 0.79149 0.47066 0.07569 0.0
C2605 C 0.79845 0.47847 0.02546 0.0
C2606 C 0.81194 0.48214 0.08161 0.0
C2607 C 0.81161 0.50013 0.09761 0.0
C2608 C 0.79076 0.50714 0.10796 0.0
C2609 C 0.7702 0.49571 0.10184 0.0
C2610 C 0.7706 0.47746 0.08593 0.0
H2611 H 0.79756 0.4782 0.00628 0.0
H2612 H 0.7843 0.48953 0.03219 0.0
H2613 H 0.81509 0.48647 0.03061 0.0
H2614 H 0.82824 0.47697 0.074 0.0
H2615 H 0.82778 0.50853 0.10187 0.0
H2616 H 0.65562 0.62933 0.47877 0.0
H2617 H 0.66358 0.59783 0.50591 0.0
H2618 H 0.72969 0.62798 0.52204 0.0
H2619 H 0.72191 0.65968 0.4951 0.0
H2620 H 0.72552 0.57476 0.51003 0.0
H2621 H 0.66931 0.60904 0.58014 0.0
H2622 H 0.65806 0.60947 0.55111 0.0
H2623 H 0.68214 0.6275 0.55846 0.0
C2624 C 0.6719 0.62925 0.48801 0.0
C2625 C 0.68812 0.64704 0.48476 0.0
C2626 C 0.67638 0.61127 0.50352 0.0
C2627 C 0.69718 0.61069 0.51593 0.0
C2628 C 0.71354 0.62819 0.51257 0.0
H2629 H 0.74889 0.5032 0.61076 0.0
H2630 H 0.74731 0.5361 0.58402 0.0
C2631 C 0.70901 0.6463 0.49722 0.0
C2632 C 0.70161 0.59193 0.53268 0.0
H2633 H 0.68506 0.57184 0.58552 0.0
C2634 C 0.71686 0.57411 0.52663 0.0
C2635 C 0.69026 0.5913 0.55424 0.0
C2636 C 0.67409 0.61037 0.56159 0.0
C2637 C 0.72041 0.55509 0.54134 0.0
C2638 C 0.70876 0.55426 0.56284 0.0
C2639 C 0.69397 0.57247 0.56905 0.0
C2640 C 0.71035 0.53405 0.57857 0.0
C2641 C 0.73582 0.53567 0.53333 0.0
C2642 C 0.69013 0.52225 0.5847 0.0
C2643 C 0.69093 0.50376 0.60011 0.0
C2644 C 0.71205 0.49652 0.60975 0.0
C2645 C 0.7324 0.50821 0.60346 0.0
C2646 C 0.73153 0.52694 0.58811 0.0
H2647 H 0.73898 0.5364 0.51441 0.0
H2648 H 0.75275 0.53698 0.54221 0.0
H2649 H 0.72815 0.51862 0.53761 0.0
H2650 H 0.6736 0.52741 0.57758 0.0
H2651 H 0.6749 0.49517 0.60449 0.0
H2652 H 0.15797 0.8792 0.52717 0.0
H2653 H 0.16599 0.9115 0.50099 0.0
H2654 H 0.22291 0.87365 0.47148 0.0
H2655 H 0.21493 0.84125 0.49726 0.0
H2656 H 0.20693 0.93746 0.497 0.0
H2657 H 0.18592 0.89324 0.41448 0.0
H2658 H 0.17733 0.8819 0.44224 0.0
H2659 H 0.2065 0.87828 0.43225 0.0
C2660 C 0.17212 0.87768 0.51503 0.0
C2661 C 0.18576 0.85757 0.51433 0.0
C2662 C 0.1767 0.89618 0.50011 0.0
C2663 C 0.19486 0.89486 0.48408 0.0
C2664 C 0.20854 0.87488 0.48339 0.0
H2665 H 0.24573 0.99139 0.37908 0.0
H2666 H 0.24194 0.9588 0.40597 0.0
C2667 C 0.204 0.85641 0.49827 0.0
C2668 C 0.1999 0.91463 0.46849 0.0
H2669 H 0.20287 0.93037 0.41165 0.0
C2670 C 0.206 0.93593 0.47834 0.0
C2671 C 0.19884 0.91256 0.44414 0.0
C2672 C 0.1916 0.89034 0.43259 0.0
C2673 C 0.21116 0.9552 0.4645 0.0
C2674 C 0.20982 0.95321 0.44016 0.0
C2675 C 0.20401 0.93183 0.4303 0.0
C2676 C 0.21308 0.97342 0.42468 0.0
C2677 C 0.21827 0.97745 0.47606 0.0
C2678 C 0.1981 0.99238 0.42623 0.0
C2679 C 0.20021 0.01095 0.41099 0.0
C2680 C 0.21732 0.01098 0.3937 0.0
C2681 C 0.23249 0.99203 0.39228 0.0
C2682 C 0.2303 0.97337 0.40758 0.0
H2683 H 0.22497 0.97437 0.49379 0.0
H2684 H 0.23173 0.98655 0.46587 0.0
H2685 H 0.20301 0.98896 0.47746 0.0
H2686 H 0.18438 0.99259 0.43895 0.0
H2687 H 0.1881 0.02513 0.41254 0.0
H2688 H 0.00299 0.71628 0.84031 0.0
H2689 H 0.02841 0.72453 0.87299 0.0
H2690 H 1.00029 0.66629 0.90993 0.0
H2691 H 0.97455 0.65798 0.87741 0.0
H2692 H 0.00339 0.70715 0.93651 0.0
H2693 H 0.08612 0.68788 0.89186 0.0
H2694 H 0.06786 0.70832 0.87729 0.0
H2695 H 0.05849 0.67891 0.88053 0.0
C2696 C 0.0022 0.70515 0.85535 0.0
C2697 C 0.9867 0.68642 0.85619 0.0
C2698 C 0.01686 0.70985 0.87397 0.0
C2699 C 0.01646 0.69584 0.89375 0.0
C2700 C 1.00093 0.67726 0.89476 0.0
H2701 H 0.08796 0.68653 0.02386 0.0
H2702 H 0.06131 0.6836 0.99139 0.0
C2703 C 0.98625 0.67252 0.87614 0.0
C2704 C 0.03196 0.7008 0.91358 0.0
H2705 H 0.08872 0.70356 0.92951 0.0
C2706 C 0.02205 0.70635 0.935 0.0
C2707 C 0.0563 0.69989 0.91152 0.0
C2708 C 0.0679 0.69324 0.88914 0.0
C2709 C 0.03582 0.71108 0.95442 0.0
C2710 C 0.06014 0.70983 0.95245 0.0
C2711 C 0.07007 0.7046 0.93095 0.0
C2712 C 0.07559 0.71267 0.97274 0.0
C2713 C 0.0242 0.71762 0.97682 0.0
C2714 C 0.09272 0.72984 0.97295 0.0
C2715 C 0.10813 0.73156 0.99154 0.0
C2716 C 0.1068 0.71596 0.01017 0.0
C2717 C 0.08943 0.69895 0.00993 0.0
C2718 C 0.07406 0.69729 0.99141 0.0
H2719 H 0.00648 0.72438 0.97386 0.0
H2720 H 0.02278 0.70207 0.98795 0.0
H2721 H 0.03435 0.73086 0.98629 0.0
H2722 H 0.0943 0.74178 0.95862 0.0
H2723 H 0.12139 0.74475 0.99106 0.0
H2724 H 0.52284 0.35059 0.37351 0.0
H2725 H 0.49558 0.34396 0.40522 0.0
H2726 H 0.47895 0.277 0.37728 0.0
H2727 H 0.50598 0.28344 0.34541 0.0
H2728 H 0.4434 0.32831 0.39621 0.0
H2729 H 0.49848 0.2707 0.45031 0.0
H2730 H 0.51084 0.29211 0.43123 0.0
H2731 H 0.4979 0.26661 0.41942 0.0
C2732 C 0.5135 0.33439 0.37416 0.0
C2733 C 0.51665 0.31752 0.35695 0.0
C2734 C 0.49792 0.33067 0.39225 0.0
C2735 C 0.48545 0.30995 0.39357 0.0
C2736 C 0.48859 0.29303 0.37657 0.0
H2737 H 0.39027 0.25908 0.49938 0.0
H2738 H 0.41695 0.26189 0.46658 0.0
C2739 C 0.504 0.29679 0.35837 0.0
C2740 C 0.4686 0.30631 0.41238 0.0
H2741 H 0.46107 0.27886 0.46403 0.0
C2742 C 0.44719 0.3175 0.41105 0.0
C2743 C 0.47359 0.29193 0.43145 0.0
C2744 C 0.49645 0.27962 0.43343 0.0
C2745 C 0.43055 0.31479 0.42848 0.0
C2746 C 0.4358 0.30102 0.44803 0.0
C2747 C 0.4571 0.28946 0.44909 0.0
C2748 C 0.41975 0.29915 0.46793 0.0
C2749 C 0.40741 0.32645 0.42558 0.0
C2750 C 0.41284 0.31909 0.47982 0.0
C2751 C 0.39755 0.31757 0.49838 0.0
C2752 C 0.38908 0.296 0.50574 0.0
C2753 C 0.39645 0.27595 0.49415 0.0
C2754 C 0.41168 0.27752 0.47541 0.0
H2755 H 0.40354 0.32988 0.40708 0.0
H2756 H 0.39327 0.31578 0.43293 0.0
H2757 H 0.40766 0.3433 0.4347 0.0
H2758 H 0.41933 0.3359 0.47478 0.0
H2759 H 0.39244 0.33336 0.50701 0.0
H2760 H 0.60318 0.75395 0.99412 0.0
H2761 H 0.57549 0.75543 0.02627 0.0
H2762 H 0.5894 0.82808 0.03499 0.0
H2763 H 0.61698 0.82681 0.00334 0.0
H2764 H 0.59019 0.80241 0.07646 0.0
H2765 H 0.51066 0.7865 0.02478 0.0
H2766 H 0.5337 0.76589 0.02155 0.0
H2767 H 0.53766 0.79502 0.0117 0.0
C2768 C 0.60031 0.77021 0.00289 0.0
C2769 C 0.6122 0.79027 0.99601 0.0
C2770 C 0.58441 0.77106 0.02116 0.0
C2771 C 0.58023 0.79194 0.03281 0.0
C2772 C 0.59231 0.81182 0.02617 0.0
H2773 H 0.47228 0.84111 0.1231 0.0
H2774 H 0.49919 0.8335 0.09132 0.0
C2775 C 0.60805 0.81103 0.00799 0.0
C2776 C 0.56352 0.79341 0.05215 0.0
H2777 H 0.50595 0.79168 0.06494 0.0
C2778 C 0.57178 0.79989 0.07402 0.0
C2779 C 0.53952 0.79041 0.04877 0.0
C2780 C 0.52971 0.78423 0.02543 0.0
C2781 C 0.55666 0.80364 0.09258 0.0
C2782 C 0.53266 0.80056 0.08924 0.0
C2783 C 0.52438 0.79394 0.06742 0.0
C2784 C 0.51589 0.8046 0.10815 0.0
C2785 C 0.56642 0.81155 0.11544 0.0
C2786 C 0.51621 0.79069 0.12797 0.0
C2787 C 0.50093 0.79498 0.14614 0.0
C2788 C 0.4849 0.81324 0.1448 0.0
C2789 C 0.4844 0.82695 0.12473 0.0
C2790 C 0.49972 0.8226 0.10653 0.0
H2791 H 0.5844 0.81802 0.1137 0.0
H2792 H 0.55559 0.82544 0.12303 0.0
H2793 H 0.56658 0.79679 0.12768 0.0
H2794 H 0.52835 0.77653 0.12942 0.0
H2795 H 0.50178 0.78401 0.16127 0.0
H2796 H 0.88514 0.1738 0.50393 0.0
H2797 H 0.91161 0.1727 0.53658 0.0
H2798 H 0.92729 0.24484 0.52678 0.0
H2799 H 0.90067 0.24619 0.4937 0.0
H2800 H 0.96695 0.21446 0.53309 0.0
H2801 H 0.90024 0.20244 0.60079 0.0
H2802 H 0.89764 0.18281 0.5769 0.0
H2803 H 0.89356 0.21324 0.57227 0.0
C2804 C 0.89416 0.18952 0.50861 0.0
C2805 C 0.89075 0.21013 0.49613 0.0
C2806 C 0.9092 0.18885 0.52741 0.0
C2807 C 0.92115 0.20873 0.53426 0.0
C2808 C 0.91808 0.22933 0.52179 0.0
H2809 H 0.99766 0.21447 0.66402 0.0
H2810 H 0.97189 0.22292 0.63169 0.0
C2811 C 0.90287 0.23008 0.50294 0.0
C2812 C 0.93715 0.20757 0.55421 0.0
H2813 H 0.93916 0.19423 0.61164 0.0
C2814 C 0.96091 0.2103 0.55033 0.0
C2815 C 0.92916 0.20234 0.5767 0.0
C2816 C 0.90374 0.20024 0.58204 0.0
C2817 C 0.97699 0.20707 0.56824 0.0
C2818 C 0.96906 0.20069 0.59047 0.0
C2819 C 0.94523 0.19884 0.59452 0.0
C2820 C 0.98515 0.19572 0.60979 0.0
C2821 C 0.00232 0.21052 0.56322 0.0
C2822 C 1.00096 0.17738 0.60833 0.0
C2823 C 0.01574 0.17244 0.62682 0.0
C2824 C 0.01493 0.18573 0.64716 0.0
C2825 C 0.99886 0.20393 0.6486 0.0
C2826 C 0.98409 0.20882 0.63014 0.0
H2827 H 0.00503 0.22116 0.54747 0.0
H2828 H 0.01117 0.21897 0.578 0.0
H2829 H 0.01054 0.19345 0.56032 0.0
H2830 H 0.0017 0.16673 0.59297 0.0
H2831 H 0.02779 0.15822 0.62516 0.0
H2832 H 0.87794 0.9738 0.66056 0.0
H2833 H 0.9099 0.9998 0.67003 0.0
H2834 H 0.87023 0.02851 0.72614 0.0
H2835 H 0.83813 0.00286 0.7167 0.0
H2836 H 0.89019 0.06178 0.69851 0.0
H2837 H 0.95495 0.99619 0.72463 0.0
H2838 H 0.94253 0.99099 0.69667 0.0
H2839 H 0.92455 0.98968 0.72196 0.0
C2840 C 0.87603 0.98557 0.67498 0.0
C2841 C 0.85548 0.98614 0.68792 0.0
C2842 C 0.89439 1.0003 0.68048 0.0
C2843 C 0.89259 0.01579 0.69906 0.0
C2844 C 0.87205 0.01655 0.71186 0.0
H2845 H 0.00828 0.10145 0.74933 0.0
H2846 H 0.97539 0.07454 0.74864 0.0
C2847 C 0.85371 0.00185 0.7064 0.0
C2848 C 0.91168 0.03199 0.70448 0.0
H2849 H 0.96905 0.0345 0.71815 0.0
C2850 C 0.90737 0.05581 0.70303 0.0
C2851 C 0.93399 0.0242 0.71076 0.0
C2852 C 0.9393 0.99887 0.71384 0.0
C2853 C 0.925 0.07201 0.70671 0.0
C2854 C 0.94759 0.06418 0.71173 0.0
C2855 C 0.95173 0.04042 0.71416 0.0
C2856 C 0.9674 0.08032 0.71258 0.0
C2857 C 0.91941 0.09741 0.70493 0.0
C2858 C 0.97388 0.09216 0.6925 0.0
C2859 C 0.99255 0.10734 0.6928 0.0
C2860 C 0.00528 0.11101 0.7132 0.0
C2861 C 0.99883 0.09904 0.73336 0.0
C2862 C 0.9801 0.08367 0.733 0.0
H2863 H 0.90066 0.1007 0.70736 0.0
H2864 H 0.92922 0.10754 0.71793 0.0
H2865 H 0.9243 0.10373 0.6875 0.0
H2866 H 0.96452 0.08956 0.67649 0.0
H2867 H 0.99694 0.11625 0.67693 0.0
H2868 H 0.62278 0.02893 0.1598 0.0
H2869 H 0.59094 0.00247 0.1684 0.0
H2870 H 0.63365 0.96675 0.21789 0.0
H2871 H 0.66561 0.99297 0.20937 0.0
H2872 H 0.61023 0.93736 0.18725 0.0
H2873 H 0.55074 1.00089 0.22739 0.0
H2874 H 0.56146 0.0093 0.19949 0.0
H2875 H 0.58116 0.00652 0.22334 0.0
C2876 C 0.62541 0.01548 0.17255 0.0
C2877 C 0.64674 0.01317 0.18397 0.0
C2878 C 0.60713 1.00048 0.17756 0.0
C2879 C 0.60981 0.98291 0.19407 0.0
C2880 C 0.63116 0.98033 0.20524 0.0
H2881 H 0.49677 0.89532 0.24601 0.0
H2882 H 0.52993 0.92179 0.24425 0.0
C2883 C 0.64941 0.99535 0.20033 0.0
C2884 C 0.59064 0.96667 0.19909 0.0
H2885 H 0.53484 0.96402 0.21811 0.0
C2886 C 0.59381 0.94315 0.19417 0.0
C2887 C 0.56937 0.97421 0.20847 0.0
C2888 C 0.56546 0.99907 0.21521 0.0
C2889 C 0.57596 0.92709 0.19755 0.0
C2890 C 0.55431 0.93482 0.20583 0.0
C2891 C 0.55141 0.95818 0.21161 0.0
C2892 C 0.53413 0.91912 0.2072 0.0
C2893 C 0.58039 0.90199 0.19209 0.0
C2894 C 0.52532 0.90923 0.18694 0.0
C2895 C 0.50649 0.89425 0.18785 0.0
C2896 C 0.49588 0.88887 0.20908 0.0
C2897 C 0.50452 0.89907 0.22939 0.0
C2898 C 0.52345 0.91418 0.22843 0.0
H2899 H 0.59915 0.89793 0.19226 0.0
H2900 H 0.57148 0.89052 0.20463 0.0
H2901 H 0.57366 0.89808 0.17457 0.0
H2902 H 0.53303 0.91313 0.17033 0.0
H2903 H 0.50034 0.88681 0.17182 0.0
H2904 H 0.49709 0.38595 0.3278 0.0
H2905 H 0.46423 0.41214 0.3288 0.0
H2906 H 0.47306 0.42667 0.25628 0.0
H2907 H 0.50632 0.40029 0.25501 0.0
H2908 H 0.46698 0.46685 0.28643 0.0
H2909 H 0.39972 0.39988 0.2996 0.0
H2910 H 0.4239 0.39757 0.31893 0.0
H2911 H 0.42811 0.39328 0.28846 0.0
C2912 C 0.49215 0.39466 0.31198 0.0
C2913 C 0.50441 0.39101 0.29129 0.0
C2914 C 0.47323 0.40954 0.31259 0.0
C2915 C 0.46606 0.4211 0.29257 0.0
C2916 C 0.47829 0.41776 0.27189 0.0
H2917 H 0.33625 0.4977 0.28707 0.0
H2918 H 0.36844 0.47182 0.27844 0.0
C2919 C 0.49725 0.4027 0.2712 0.0
C2920 C 0.44605 0.43699 0.29369 0.0
H2921 H 0.38873 0.43884 0.30739 0.0
C2922 C 0.4498 0.46075 0.29075 0.0
C2923 C 0.42364 0.42893 0.29914 0.0
C2924 C 0.41847 0.4035 0.30152 0.0
C2925 C 0.43186 0.47678 0.29399 0.0
C2926 C 0.40972 0.46878 0.30058 0.0
C2927 C 0.40578 0.44495 0.30261 0.0
C2928 C 0.39044 0.48485 0.30568 0.0
C2929 C 0.43674 0.50212 0.29039 0.0
C2930 C 0.392 0.50054 0.32412 0.0
C2931 C 0.37359 0.51536 0.32917 0.0
C2932 C 0.35324 0.51472 0.31589 0.0
C2933 C 0.35168 0.49877 0.29759 0.0
C2934 C 0.37006 0.48394 0.29261 0.0
H2935 H 0.45244 0.50486 0.2797 0.0
H2936 H 0.4219 0.51084 0.28191 0.0
H2937 H 0.43963 0.51045 0.30741 0.0
H2938 H 0.4074 0.50117 0.33473 0.0
H2939 H 0.37534 0.52732 0.34345 0.0
H2940 H 0.15282 0.48388 0.78151 0.0
H2941 H 0.12184 0.51135 0.77328 0.0
H2942 H 0.11369 0.52417 0.84621 0.0
H2943 H 0.14483 0.4969 0.85467 0.0
H2944 H 0.07587 0.50966 0.78818 0.0
H2945 H 0.11932 0.5893 0.81893 0.0
H2946 H 0.13482 0.56283 0.81327 0.0
H2947 H 0.11908 0.56636 0.83982 0.0
C2948 C 0.14456 0.49261 0.79584 0.0
C2949 C 0.15136 0.48816 0.81878 0.0
C2950 C 0.12682 0.5083 0.79107 0.0
C2951 C 0.11567 0.52001 0.80909 0.0
C2952 C 0.12237 0.51564 0.832 0.0
H2953 H 0.00228 0.61152 0.82959 0.0
H2954 H 0.03531 0.58564 0.83139 0.0
C2955 C 0.14009 0.49992 0.83681 0.0
C2956 C 0.0965 0.53625 0.804 0.0
H2957 H 0.07886 0.59198 0.81176 0.0
C2958 C 0.07658 0.52773 0.79309 0.0
C2959 C 0.09755 0.55982 0.81033 0.0
C2960 C 0.11892 0.57022 0.82104 0.0
C2961 C 0.05726 0.54193 0.78925 0.0
C2962 C 0.05809 0.56535 0.79617 0.0
C2963 C 0.07826 0.574 0.8065 0.0
C2964 C 0.03771 0.5808 0.79442 0.0
C2965 C 0.03581 0.53155 0.7787 0.0
C2966 C 0.02806 0.58676 0.77295 0.0
C2967 C 0.00895 0.60162 0.7718 0.0
C2968 C 0.99928 0.6108 0.79213 0.0
C2969 C 0.00914 0.60476 0.81354 0.0
C2970 C 0.02812 0.58998 0.81465 0.0
H2971 H 0.0364 0.51237 0.7786 0.0
H2972 H 0.02016 0.53718 0.78824 0.0
H2973 H 0.03414 0.53756 0.76056 0.0
H2974 H 0.03546 0.58016 0.75709 0.0
H2975 H 0.0019 0.60605 0.75504 0.0
H2976 H 0.72157 0.84379 0.99455 0.0
H2977 H 0.72924 0.87612 0.02072 0.0
H2978 H 0.66261 0.90517 0.00461 0.0
H2979 H 0.65477 0.87301 0.97827 0.0
H2980 H 0.72581 0.92802 0.00851 0.0
H2981 H 0.66748 0.89674 0.07821 0.0
H2982 H 0.67967 0.87766 0.05672 0.0
H2983 H 0.65616 0.89641 0.04923 0.0
C2984 C 0.70853 0.85705 0.99652 0.0
C2985 C 0.68752 0.8558 0.98431 0.0
C2986 C 0.713 0.87553 0.01143 0.0
C2987 C 0.69646 0.8929 0.01461 0.0
C2988 C 0.67554 0.89182 0.00241 0.0
H2989 H 0.67401 0.0108 0.09982 0.0
H2990 H 0.67301 0.97852 0.07296 0.0
C2991 C 0.67112 0.87346 0.98735 0.0
C2992 C 0.70084 0.91207 0.03092 0.0
H2993 H 0.68324 0.93409 0.08263 0.0
C2994 C 0.71668 0.92936 0.02482 0.0
C2995 C 0.68891 0.91359 0.05213 0.0
C2996 C 0.67219 0.89508 0.05967 0.0
C2997 C 0.72024 0.94873 0.03905 0.0
C2998 C 0.70797 0.95048 0.06014 0.0
C2999 C 0.6926 0.93278 0.06645 0.0
C3000 C 0.70955 0.97108 0.07535 0.0
C3001 C 0.73636 0.96754 0.03097 0.0
C3002 C 0.73055 0.97788 0.0855 0.0
C3003 C 0.73124 0.99665 0.10082 0.0
C3004 C 0.71089 0.00865 0.10646 0.0
C3005 C 0.69002 0.00191 0.09598 0.0
C3006 C 0.68939 0.98341 0.0806 0.0
H3007 H 0.7401 0.96617 0.01219 0.0
H3008 H 0.72896 0.98489 0.0345 0.0
H3009 H 0.75296 0.96611 0.04045 0.0
H3010 H 0.74626 0.96835 0.08206 0.0
H3011 H 0.74753 0.0013 0.10878 0.0
H3012 H 0.2462 0.50788 0.88543 0.0
H3013 H 0.2401 0.54171 0.91022 0.0
H3014 H 0.17336 0.51538 0.93005 0.0
H3015 H 0.17924 0.48157 0.90555 0.0
H3016 H 0.17561 0.56421 0.91348 0.0
H3017 H 0.23805 0.54276 0.98349 0.0
H3018 H 0.24807 0.5404 0.95414 0.0
H3019 H 0.22621 0.52104 0.96446 0.0
C3020 C 0.23034 0.50915 0.89527 0.0
C3021 C 0.21329 0.4919 0.8936 0.0
C3022 C 0.22689 0.52848 0.90941 0.0
C3023 C 0.20632 0.53093 0.92201 0.0
C3024 C 0.18937 0.51375 0.92049 0.0
H3025 H 0.14357 0.63579 0.00968 0.0
H3026 H 0.15083 0.60347 0.9834 0.0
C3027 C 0.19284 0.49438 0.90654 0.0
C3028 C 0.2021 0.55168 0.93638 0.0
H3029 H 0.21847 0.57829 0.98635 0.0
C3030 C 0.18497 0.56736 0.92941 0.0
C3031 C 0.21441 0.5557 0.95705 0.0
C3032 C 0.23265 0.53908 0.96544 0.0
C3033 C 0.17996 0.58718 0.94252 0.0
C3034 C 0.19198 0.59103 0.96348 0.0
C3035 C 0.20922 0.57534 0.97032 0.0
C3036 C 0.18712 0.61121 0.97861 0.0
C3037 C 0.16221 0.60401 0.93349 0.0
C3038 C 0.20512 0.62611 0.98501 0.0
C3039 C 0.2011 0.64435 1.00028 0.0
C3040 C 0.17893 0.64815 0.0095 0.0
C3041 C 0.16079 0.63346 0.00277 0.0
C3042 C 0.1649 0.61504 0.98763 0.0
H3043 H 0.15987 0.60229 0.91451 0.0
H3044 H 0.14533 0.6004 0.9418 0.0
H3045 H 0.16715 0.62211 0.93744 0.0
H3046 H 0.2224 0.62352 0.97831 0.0
H3047 H 0.21546 0.65538 0.00499 0.0
H3048 H 0.29388 0.33819 0.49439 0.0
H3049 H 0.28667 0.37054 0.46824 0.0
H3050 H 0.32152 0.41651 0.51546 0.0
H3051 H 0.32978 0.38395 0.54116 0.0
H3052 H 0.26335 0.40914 0.47172 0.0
H3053 H 0.3554 0.43108 0.45757 0.0
H3054 H 0.34662 0.40531 0.47264 0.0
H3055 H 0.34736 0.43268 0.48743 0.0
C3056 C 0.30006 0.35519 0.49917 0.0
C3057 C 0.3126 0.3585 0.51972 0.0
C3058 C 0.29588 0.37369 0.48423 0.0
C3059 C 0.30391 0.39594 0.48962 0.0
C3060 C 0.31576 0.39941 0.51054 0.0
H3061 H 0.25877 0.51904 0.41192 0.0
H3062 H 0.26148 0.48805 0.44082 0.0
C3063 C 0.32036 0.38081 0.52529 0.0
C3064 C 0.30002 0.41531 0.47317 0.0
H3065 H 0.32785 0.45717 0.44238 0.0
C3066 C 0.27746 0.41961 0.46523 0.0
C3067 C 0.31845 0.42881 0.46445 0.0
C3068 C 0.34333 0.42411 0.47076 0.0
C3069 C 0.27286 0.43687 0.44874 0.0
C3070 C 0.29123 0.45078 0.44054 0.0
C3071 C 0.31371 0.44663 0.44872 0.0
C3072 C 0.28803 0.46893 0.4226 0.0
C3073 C 0.24854 0.43938 0.43971 0.0
C3074 C 0.30216 0.46874 0.40289 0.0
C3075 C 0.30107 0.48667 0.38684 0.0
C3076 C 0.28554 0.50504 0.38989 0.0
C3077 C 0.27071 0.50492 0.40908 0.0
C3078 C 0.27219 0.48715 0.42552 0.0
H3079 H 0.23829 0.42339 0.44247 0.0
H3080 H 0.23978 0.45361 0.4491 0.0
H3081 H 0.24845 0.44353 0.42098 0.0
H3082 H 0.31444 0.45489 0.40012 0.0
H3083 H 0.31262 0.48629 0.37211 0.0
H3084 H 0.84189 0.12388 0.47245 0.0
H3085 H 0.83325 0.09202 0.49883 0.0
H3086 H 0.77731 0.13132 0.52833 0.0
H3087 H 0.78588 0.16337 0.5022 0.0
H3088 H 0.80647 0.11151 0.56122 0.0
H3089 H 0.77849 0.04677 0.49634 0.0
H3090 H 0.80612 0.05951 0.49028 0.0
H3091 H 0.78062 0.07723 0.48988 0.0
C3092 C 0.82767 0.12574 0.48445 0.0
C3093 C 0.81451 0.14616 0.4851 0.0
C3094 C 0.82266 0.10743 0.49942 0.0
C3095 C 0.80439 0.10916 0.51525 0.0
C3096 C 0.79136 0.12957 0.51611 0.0
H3097 H 0.75533 0.99389 0.60138 0.0
H3098 H 0.75631 0.02675 0.57451 0.0
C3099 C 0.79631 0.14786 0.50113 0.0
C3100 C 0.79951 0.09007 0.53162 0.0
H3101 H 0.78595 0.0327 0.53444 0.0
C3102 C 0.80177 0.09434 0.55538 0.0
C3103 C 0.79305 0.06777 0.52398 0.0
C3104 C 0.78919 0.06252 0.49874 0.0
C3105 C 0.79865 0.07665 0.57167 0.0
C3106 C 0.79336 0.05409 0.56396 0.0
C3107 C 0.79018 0.05 0.54027 0.0
C3108 C 0.79248 0.03428 0.58013 0.0
C3109 C 0.8012 0.08221 0.59702 0.0
C3110 C 0.81253 0.02752 0.59187 0.0
C3111 C 0.81208 0.00882 0.60706 0.0
C3112 C 0.79152 0.99638 0.61082 0.0
C3113 C 0.77142 0.00311 0.5989 0.0
C3114 C 0.77194 0.02184 0.58356 0.0
H3115 H 0.79904 0.10097 0.6004 0.0
H3116 H 0.7884 0.07251 0.60751 0.0
H3117 H 0.81874 0.07712 0.60285 0.0
H3118 H 0.82863 0.03667 0.58918 0.0
H3119 H 0.8279 0.00419 0.61591 0.0
loop_
_geom_bond_atom_site_label_1
_geom_bond_atom_site_label_2
_geom_bond_distance
_geom_bond_site_symmetry_2
_ccdc_geom_bond_type
Fe0 O2 1.918 . S
Fe0 O5 1.997 . S
Fe0 O6 2.002 . S
Fe0 O11 1.976 . S
Fe0 O14 1.996 . S
Fe1 O2 1.918 . S
Fe1 O9 1.997 . S
Fe1 O12 1.996 . S
Fe1 O16 1.976 . S
Fe1 O19 2.002 . S
O2 Fe0 1.918 . S
O2 Fe1 1.918 . S
O2 Fe3 1.918 . S
Fe3 O2 1.918 . S
Fe3 O4 2.002 . S
Fe3 O13 1.976 . S
Fe3 O17 1.996 . S
Fe3 O20 1.997 . S
O4 Fe3 2.002 . S
O4 C21 1.295 . S
O5 Fe0 1.997 . S
O5 C21 1.235 . S
O6 Fe0 2.002 . S
O6 C7 1.295 . S
C7 O6 1.295 . S
C7 O9 1.235 . S
C8 O13 1.287 . S
C8 O14 1.255 . S
O9 Fe1 1.997 . S
O9 C7 1.235 . S
C10 O16 1.287 . S
C10 O17 1.255 . S
O11 Fe0 1.976 . S
O11 C18 1.287 . S
O12 Fe1 1.996 . S
O12 C18 1.255 . S
O13 Fe3 1.976 . S
O13 C8 1.287 . S
O14 Fe0 1.996 . S
O14 C8 1.255 . S
C15 O19 1.295 . S
C15 O20 1.235 . S
O16 Fe1 1.976 . S
O16 C10 1.287 . S
O17 Fe3 1.996 . S
O17 C10 1.255 . S
C18 O11 1.287 . S
C18 O12 1.255 . S
O19 Fe1 2.002 . S
O19 C15 1.295 . S
O20 Fe3 1.997 . S
O20 C15 1.235 . S
C21 O4 1.295 . S
C21 O5 1.235 . S
Fe22 O24 1.918 . S
Fe22 O27 1.997 . S
Fe22 O28 2.002 . S
Fe22 O33 1.976 . S
Fe22 O36 1.996 . S
Fe23 O24 1.918 . S
Fe23 O31 1.997 . S
Fe23 O34 1.996 . S
Fe23 O38 1.976 . S
Fe23 O41 2.002 . S
O24 Fe22 1.918 . S
O24 Fe23 1.918 . S
O24 Fe25 1.918 . S
Fe25 O24 1.918 . S
Fe25 O26 2.002 . S
Fe25 O35 1.976 . S
Fe25 O39 1.996 . S
Fe25 O42 1.997 . S
O26 Fe25 2.002 . S
O26 C43 1.295 . S
O27 Fe22 1.997 . S
O27 C43 1.235 . S
O28 Fe22 2.002 . S
O28 C29 1.295 . S
C29 O28 1.295 . S
C29 O31 1.235 . S
C30 O35 1.287 . S
C30 O36 1.255 . S
O31 Fe23 1.997 . S
O31 C29 1.235 . S
C32 O38 1.287 . S
C32 O39 1.255 . S
O33 Fe22 1.976 . S
O33 C40 1.287 . S
O34 Fe23 1.996 . S
O34 C40 1.255 . S
O35 Fe25 1.976 . S
O35 C30 1.287 . S
O36 Fe22 1.996 . S
O36 C30 1.255 . S
C37 O41 1.295 . S
C37 O42 1.235 . S
O38 Fe23 1.976 . S
O38 C32 1.287 . S
O39 Fe25 1.996 . S
O39 C32 1.255 . S
C40 O33 1.287 . S
C40 O34 1.255 . S
O41 Fe23 2.002 . S
O41 C37 1.295 . S
O42 Fe25 1.997 . S
O42 C37 1.235 . S
C43 O26 1.295 . S
C43 O27 1.235 . S
Fe44 O46 1.918 . S
Fe44 O49 1.997 . S
Fe44 O50 2.002 . S
Fe44 O55 1.976 . S
Fe44 O58 1.996 . S
Fe45 O46 1.918 . S
Fe45 O53 1.997 . S
Fe45 O56 1.996 . S
Fe45 O60 1.976 . S
Fe45 O63 2.002 . S
O46 Fe44 1.918 . S
O46 Fe45 1.918 . S
O46 Fe47 1.918 . S
Fe47 O46 1.918 . S
Fe47 O48 2.002 . S
Fe47 O57 1.976 . S
Fe47 O61 1.996 . S
Fe47 O64 1.997 . S
O48 Fe47 2.002 . S
O48 C65 1.295 . S
O49 Fe44 1.997 . S
O49 C65 1.235 . S
O50 Fe44 2.002 . S
O50 C51 1.295 . S
C51 O50 1.295 . S
C51 O53 1.235 . S
C52 O57 1.287 . S
C52 O58 1.255 . S
O53 Fe45 1.997 . S
O53 C51 1.235 . S
C54 O60 1.287 . S
C54 O61 1.255 . S
O55 Fe44 1.976 . S
O55 C62 1.287 . S
O56 Fe45 1.996 . S
O56 C62 1.255 . S
O57 Fe47 1.976 . S
O57 C52 1.287 . S
O58 Fe44 1.996 . S
O58 C52 1.255 . S
C59 O63 1.295 . S
C59 O64 1.235 . S
O60 Fe45 1.976 . S
O60 C54 1.287 . S
O61 Fe47 1.996 . S
O61 C54 1.255 . S
C62 O55 1.287 . S
C62 O56 1.255 . S
O63 Fe45 2.002 . S
O63 C59 1.295 . S
O64 Fe47 1.997 . S
O64 C59 1.235 . S
C65 O48 1.295 . S
C65 O49 1.235 . S
Fe66 O68 1.918 . S
Fe66 O71 1.997 . S
Fe66 O72 2.002 . S
Fe66 O77 1.976 . S
Fe66 O80 1.996 . S
Fe67 O68 1.918 . S
Fe67 O75 1.997 . S
Fe67 O78 1.996 . S
Fe67 O82 1.976 . S
Fe67 O85 2.002 . S
O68 Fe66 1.918 . S
O68 Fe67 1.918 . S
O68 Fe69 1.918 . S
Fe69 O68 1.918 . S
Fe69 O70 2.002 . S
Fe69 O79 1.976 . S
Fe69 O83 1.996 . S
Fe69 O86 1.997 . S
O70 Fe69 2.002 . S
O70 C87 1.295 . S
O71 Fe66 1.997 . S
O71 C87 1.235 . S
O72 Fe66 2.002 . S
O72 C73 1.295 . S
C73 O72 1.295 . S
C73 O75 1.235 . S
C74 O79 1.287 . S
C74 O80 1.255 . S
O75 Fe67 1.997 . S
O75 C73 1.235 . S
C76 O82 1.287 . S
C76 O83 1.255 . S
O77 Fe66 1.976 . S
O77 C84 1.287 . S
O78 Fe67 1.996 . S
O78 C84 1.255 . S
O79 Fe69 1.976 . S
O79 C74 1.287 . S
O80 Fe66 1.996 . S
O80 C74 1.255 . S
C81 O85 1.295 . S
C81 O86 1.235 . S
O82 Fe67 1.976 . S
O82 C76 1.287 . S
O83 Fe69 1.996 . S
O83 C76 1.255 . S
C84 O77 1.287 . S
C84 O78 1.255 . S
O85 Fe67 2.002 . S
O85 C81 1.295 . S
O86 Fe69 1.997 . S
O86 C81 1.235 . S
C87 O70 1.295 . S
C87 O71 1.235 . S
Fe88 O90 1.918 . S
Fe88 O93 1.997 . S
Fe88 O94 2.002 . S
Fe88 O99 1.976 . S
Fe88 O102 1.996 . S
Fe89 O90 1.918 . S
Fe89 O97 1.997 . S
Fe89 O100 1.996 . S
Fe89 O104 1.976 . S
Fe89 O107 2.002 . S
O90 Fe88 1.918 . S
O90 Fe89 1.918 . S
O90 Fe91 1.918 . S
Fe91 O90 1.918 . S
Fe91 O92 2.002 . S
Fe91 O101 1.976 . S
Fe91 O105 1.996 . S
Fe91 O108 1.997 . S
O92 Fe91 2.002 . S
O92 C109 1.295 . S
O93 Fe88 1.997 . S
O93 C109 1.235 . S
O94 Fe88 2.002 . S
O94 C95 1.295 . S
C95 O94 1.295 . S
C95 O97 1.235 . S
C96 O101 1.287 . S
C96 O102 1.255 . S
O97 Fe89 1.997 . S
O97 C95 1.235 . S
C98 O104 1.287 . S
C98 O105 1.255 . S
O99 Fe88 1.976 . S
O99 C106 1.287 . S
O100 Fe89 1.996 . S
O100 C106 1.255 . S
O101 Fe91 1.976 . S
O101 C96 1.287 . S
O102 Fe88 1.996 . S
O102 C96 1.255 . S
C103 O107 1.295 . S
C103 O108 1.235 . S
O104 Fe89 1.976 . S
O104 C98 1.287 . S
O105 Fe91 1.996 . S
O105 C98 1.255 . S
C106 O99 1.287 . S
C106 O100 1.255 . S
O107 Fe89 2.002 . S
O107 C103 1.295 . S
O108 Fe91 1.997 . S
O108 C103 1.235 . S
C109 O92 1.295 . S
C109 O93 1.235 . S
Fe110 O112 1.918 . S
Fe110 O115 1.997 . S
Fe110 O116 2.002 . S
Fe110 O121 1.976 . S
Fe110 O124 1.996 . S
Fe111 O112 1.918 . S
Fe111 O119 1.997 . S
Fe111 O122 1.996 . S
Fe111 O126 1.976 . S
Fe111 O129 2.002 . S
O112 Fe110 1.918 . S
O112 Fe111 1.918 . S
O112 Fe113 1.918 . S
Fe113 O112 1.918 . S
Fe113 O114 2.002 . S
Fe113 O123 1.976 . S
Fe113 O127 1.996 . S
Fe113 O130 1.997 . S
O114 Fe113 2.002 . S
O114 C131 1.295 . S
O115 Fe110 1.997 . S
O115 C131 1.235 . S
O116 Fe110 2.002 . S
O116 C117 1.295 . S
C117 O116 1.295 . S
C117 O119 1.235 . S
C118 O123 1.287 . S
C118 O124 1.255 . S
O119 Fe111 1.997 . S
O119 C117 1.235 . S
C120 O126 1.287 . S
C120 O127 1.255 . S
O121 Fe110 1.976 . S
O121 C128 1.287 . S
O122 Fe111 1.996 . S
O122 C128 1.255 . S
O123 Fe113 1.976 . S
O123 C118 1.287 . S
O124 Fe110 1.996 . S
O124 C118 1.255 . S
C125 O129 1.295 . S
C125 O130 1.235 . S
O126 Fe111 1.976 . S
O126 C120 1.287 . S
O127 Fe113 1.996 . S
O127 C120 1.255 . S
C128 O121 1.287 . S
C128 O122 1.255 . S
O129 Fe111 2.002 . S
O129 C125 1.295 . S
O130 Fe113 1.997 . S
O130 C125 1.235 . S
C131 O114 1.295 . S
C131 O115 1.235 . S
Fe132 O134 1.918 . S
Fe132 O137 1.997 . S
Fe132 O138 2.002 . S
Fe132 O143 1.976 . S
Fe132 O146 1.996 . S
Fe133 O134 1.918 . S
Fe133 O141 1.997 . S
Fe133 O144 1.996 . S
Fe133 O148 1.976 . S
Fe133 O151 2.002 . S
O134 Fe132 1.918 . S
O134 Fe133 1.918 . S
O134 Fe135 1.918 . S
Fe135 O134 1.918 . S
Fe135 O136 2.002 . S
Fe135 O145 1.976 . S
Fe135 O149 1.996 . S
Fe135 O152 1.997 . S
O136 Fe135 2.002 . S
O136 C153 1.295 . S
O137 Fe132 1.997 . S
O137 C153 1.235 . S
O138 Fe132 2.002 . S
O138 C139 1.295 . S
C139 O138 1.295 . S
C139 O141 1.235 . S
C140 O145 1.287 . S
C140 O146 1.255 . S
O141 Fe133 1.997 . S
O141 C139 1.235 . S
C142 O148 1.287 . S
C142 O149 1.255 . S
O143 Fe132 1.976 . S
O143 C150 1.287 . S
O144 Fe133 1.996 . S
O144 C150 1.255 . S
O145 Fe135 1.976 . S
O145 C140 1.287 . S
O146 Fe132 1.996 . S
O146 C140 1.255 . S
C147 O151 1.295 . S
C147 O152 1.235 . S
O148 Fe133 1.976 . S
O148 C142 1.287 . S
O149 Fe135 1.996 . S
O149 C142 1.255 . S
C150 O143 1.287 . S
C150 O144 1.255 . S
O151 Fe133 2.002 . S
O151 C147 1.295 . S
O152 Fe135 1.997 . S
O152 C147 1.235 . S
C153 O136 1.295 . S
C153 O137 1.235 . S
Fe154 O156 1.918 . S
Fe154 O159 1.997 . S
Fe154 O160 2.002 . S
Fe154 O165 1.976 . S
Fe154 O168 1.996 . S
Fe155 O156 1.918 . S
Fe155 O163 1.997 . S
Fe155 O166 1.996 . S
Fe155 O170 1.976 . S
Fe155 O173 2.002 . S
O156 Fe154 1.918 . S
O156 Fe155 1.918 . S
O156 Fe157 1.918 . S
Fe157 O156 1.918 . S
Fe157 O158 2.002 . S
Fe157 O167 1.976 . S
Fe157 O171 1.996 . S
Fe157 O174 1.997 . S
O158 Fe157 2.002 . S
O158 C175 1.295 . S
O159 Fe154 1.997 . S
O159 C175 1.235 . S
O160 Fe154 2.002 . S
O160 C161 1.295 . S
C161 O160 1.295 . S
C161 O163 1.235 . S
C162 O167 1.287 . S
C162 O168 1.255 . S
O163 Fe155 1.997 . S
O163 C161 1.235 . S
C164 O170 1.287 . S
C164 O171 1.255 . S
O165 Fe154 1.976 . S
O165 C172 1.287 . S
O166 Fe155 1.996 . S
O166 C172 1.255 . S
O167 Fe157 1.976 . S
O167 C162 1.287 . S
O168 Fe154 1.996 . S
O168 C162 1.255 . S
C169 O173 1.295 . S
C169 O174 1.235 . S
O170 Fe155 1.976 . S
O170 C164 1.287 . S
O171 Fe157 1.996 . S
O171 C164 1.255 . S
C172 O165 1.287 . S
C172 O166 1.255 . S
O173 Fe155 2.002 . S
O173 C169 1.295 . S
O174 Fe157 1.997 . S
O174 C169 1.235 . S
C175 O158 1.295 . S
C175 O159 1.235 . S
Fe176 O178 1.918 . S
Fe176 O181 1.997 . S
Fe176 O182 2.002 . S
Fe176 O187 1.976 . S
Fe176 O190 1.996 . S
Fe177 O178 1.918 . S
Fe177 O185 1.997 . S
Fe177 O188 1.996 . S
Fe177 O192 1.976 . S
Fe177 O195 2.002 . S
O178 Fe176 1.918 . S
O178 Fe177 1.918 . S
O178 Fe179 1.918 . S
Fe179 O178 1.918 . S
Fe179 O180 2.002 . S
Fe179 O189 1.976 . S
Fe179 O193 1.996 . S
Fe179 O196 1.997 . S
O180 Fe179 2.002 . S
O180 C197 1.295 . S
O181 Fe176 1.997 . S
O181 C197 1.235 . S
O182 Fe176 2.002 . S
O182 C183 1.295 . S
C183 O182 1.295 . S
C183 O185 1.235 . S
C184 O189 1.287 . S
C184 O190 1.255 . S
O185 Fe177 1.997 . S
O185 C183 1.235 . S
C186 O192 1.287 . S
C186 O193 1.255 . S
O187 Fe176 1.976 . S
O187 C194 1.287 . S
O188 Fe177 1.996 . S
O188 C194 1.255 . S
O189 Fe179 1.976 . S
O189 C184 1.287 . S
O190 Fe176 1.996 . S
O190 C184 1.255 . S
C191 O195 1.295 . S
C191 O196 1.235 . S
O192 Fe177 1.976 . S
O192 C186 1.287 . S
O193 Fe179 1.996 . S
O193 C186 1.255 . S
C194 O187 1.287 . S
C194 O188 1.255 . S
O195 Fe177 2.002 . S
O195 C191 1.295 . S
O196 Fe179 1.997 . S
O196 C191 1.235 . S
C197 O180 1.295 . S
C197 O181 1.235 . S
Fe198 O200 1.918 . S
Fe198 O203 1.997 . S
Fe198 O204 2.002 . S
Fe198 O209 1.976 . S
Fe198 O212 1.996 . S
Fe199 O200 1.918 . S
Fe199 O207 1.997 . S
Fe199 O210 1.996 . S
Fe199 O214 1.976 . S
Fe199 O217 2.002 . S
O200 Fe198 1.918 . S
O200 Fe199 1.918 . S
O200 Fe201 1.918 . S
Fe201 O200 1.918 . S
Fe201 O202 2.002 . S
Fe201 O211 1.976 . S
Fe201 O215 1.996 . S
Fe201 O218 1.997 . S
O202 Fe201 2.002 . S
O202 C219 1.295 . S
O203 Fe198 1.997 . S
O203 C219 1.235 . S
O204 Fe198 2.002 . S
O204 C205 1.295 . S
C205 O204 1.295 . S
C205 O207 1.235 . S
C206 O211 1.287 . S
C206 O212 1.255 . S
O207 Fe199 1.997 . S
O207 C205 1.235 . S
C208 O214 1.287 . S
C208 O215 1.255 . S
O209 Fe198 1.976 . S
O209 C216 1.287 . S
O210 Fe199 1.996 . S
O210 C216 1.255 . S
O211 Fe201 1.976 . S
O211 C206 1.287 . S
O212 Fe198 1.996 . S
O212 C206 1.255 . S
C213 O217 1.295 . S
C213 O218 1.235 . S
O214 Fe199 1.976 . S
O214 C208 1.287 . S
O215 Fe201 1.996 . S
O215 C208 1.255 . S
C216 O209 1.287 . S
C216 O210 1.255 . S
O217 Fe199 2.002 . S
O217 C213 1.295 . S
O218 Fe201 1.997 . S
O218 C213 1.235 . S
C219 O202 1.295 . S
C219 O203 1.235 . S
Fe220 O222 1.918 . S
Fe220 O225 1.997 . S
Fe220 O226 2.002 . S
Fe220 O231 1.976 . S
Fe220 O234 1.996 . S
Fe221 O222 1.918 . S
Fe221 O229 1.997 . S
Fe221 O232 1.996 . S
Fe221 O236 1.976 . S
Fe221 O239 2.002 . S
O222 Fe220 1.918 . S
O222 Fe221 1.918 . S
O222 Fe223 1.918 . S
Fe223 O222 1.918 . S
Fe223 O224 2.002 . S
Fe223 O233 1.976 . S
Fe223 O237 1.996 . S
Fe223 O240 1.997 . S
O224 Fe223 2.002 . S
O224 C241 1.295 . S
O225 Fe220 1.997 . S
O225 C241 1.235 . S
O226 Fe220 2.002 . S
O226 C227 1.295 . S
C227 O226 1.295 . S
C227 O229 1.235 . S
C228 O233 1.287 . S
C228 O234 1.255 . S
O229 Fe221 1.997 . S
O229 C227 1.235 . S
C230 O236 1.287 . S
C230 O237 1.255 . S
O231 Fe220 1.976 . S
O231 C238 1.287 . S
O232 Fe221 1.996 . S
O232 C238 1.255 . S
O233 Fe223 1.976 . S
O233 C228 1.287 . S
O234 Fe220 1.996 . S
O234 C228 1.255 . S
C235 O239 1.295 . S
C235 O240 1.235 . S
O236 Fe221 1.976 . S
O236 C230 1.287 . S
O237 Fe223 1.996 . S
O237 C230 1.255 . S
C238 O231 1.287 . S
C238 O232 1.255 . S
O239 Fe221 2.002 . S
O239 C235 1.295 . S
O240 Fe223 1.997 . S
O240 C235 1.235 . S
C241 O224 1.295 . S
C241 O225 1.235 . S
Fe242 O244 1.918 . S
Fe242 O247 1.997 . S
Fe242 O248 2.002 . S
Fe242 O253 1.976 . S
Fe242 O256 1.996 . S
Fe243 O244 1.918 . S
Fe243 O251 1.997 . S
Fe243 O254 1.996 . S
Fe243 O258 1.976 . S
Fe243 O261 2.002 . S
O244 Fe242 1.918 . S
O244 Fe243 1.918 . S
O244 Fe245 1.918 . S
Fe245 O244 1.918 . S
Fe245 O246 2.002 . S
Fe245 O255 1.976 . S
Fe245 O259 1.996 . S
Fe245 O262 1.997 . S
O246 Fe245 2.002 . S
O246 C263 1.295 . S
O247 Fe242 1.997 . S
O247 C263 1.235 . S
O248 Fe242 2.002 . S
O248 C249 1.295 . S
C249 O248 1.295 . S
C249 O251 1.235 . S
C250 O255 1.287 . S
C250 O256 1.255 . S
O251 Fe243 1.997 . S
O251 C249 1.235 . S
C252 O258 1.287 . S
C252 O259 1.255 . S
O253 Fe242 1.976 . S
O253 C260 1.287 . S
O254 Fe243 1.996 . S
O254 C260 1.255 . S
O255 Fe245 1.976 . S
O255 C250 1.287 . S
O256 Fe242 1.996 . S
O256 C250 1.255 . S
C257 O261 1.295 . S
C257 O262 1.235 . S
O258 Fe243 1.976 . S
O258 C252 1.287 . S
O259 Fe245 1.996 . S
O259 C252 1.255 . S
C260 O253 1.287 . S
C260 O254 1.255 . S
O261 Fe243 2.002 . S
O261 C257 1.295 . S
O262 Fe245 1.997 . S
O262 C257 1.235 . S
C263 O246 1.295 . S
C263 O247 1.235 . S
Fe264 O266 1.918 . S
Fe264 O269 1.997 . S
Fe264 O270 2.002 . S
Fe264 O275 1.976 . S
Fe264 O278 1.996 . S
Fe265 O266 1.918 . S
Fe265 O273 1.997 . S
Fe265 O276 1.996 . S
Fe265 O280 1.976 . S
Fe265 O283 2.002 . S
O266 Fe264 1.918 . S
O266 Fe265 1.918 . S
O266 Fe267 1.918 . S
Fe267 O266 1.918 . S
Fe267 O268 2.002 . S
Fe267 O277 1.976 . S
Fe267 O281 1.996 . S
Fe267 O284 1.997 . S
O268 Fe267 2.002 . S
O268 C285 1.295 . S
O269 Fe264 1.997 . S
O269 C285 1.235 . S
O270 Fe264 2.002 . S
O270 C271 1.295 . S
C271 O270 1.295 . S
C271 O273 1.235 . S
C272 O277 1.287 . S
C272 O278 1.255 . S
O273 Fe265 1.997 . S
O273 C271 1.235 . S
C274 O280 1.287 . S
C274 O281 1.255 . S
O275 Fe264 1.976 . S
O275 C282 1.287 . S
O276 Fe265 1.996 . S
O276 C282 1.255 . S
O277 Fe267 1.976 . S
O277 C272 1.287 . S
O278 Fe264 1.996 . S
O278 C272 1.255 . S
C279 O283 1.295 . S
C279 O284 1.235 . S
O280 Fe265 1.976 . S
O280 C274 1.287 . S
O281 Fe267 1.996 . S
O281 C274 1.255 . S
C282 O275 1.287 . S
C282 O276 1.255 . S
O283 Fe265 2.002 . S
O283 C279 1.295 . S
O284 Fe267 1.997 . S
O284 C279 1.235 . S
C285 O268 1.295 . S
C285 O269 1.235 . S
Fe286 O288 1.918 . S
Fe286 O291 1.997 . S
Fe286 O292 2.002 . S
Fe286 O297 1.976 . S
Fe286 O300 1.996 . S
Fe287 O288 1.918 . S
Fe287 O295 1.997 . S
Fe287 O298 1.996 . S
Fe287 O302 1.976 . S
Fe287 O305 2.002 . S
O288 Fe286 1.918 . S
O288 Fe287 1.918 . S
O288 Fe289 1.918 . S
Fe289 O288 1.918 . S
Fe289 O290 2.002 . S
Fe289 O299 1.976 . S
Fe289 O303 1.996 . S
Fe289 O306 1.997 . S
O290 Fe289 2.002 . S
O290 C307 1.295 . S
O291 Fe286 1.997 . S
O291 C307 1.235 . S
O292 Fe286 2.002 . S
O292 C293 1.295 . S
C293 O292 1.295 . S
C293 O295 1.235 . S
C294 O299 1.287 . S
C294 O300 1.255 . S
O295 Fe287 1.997 . S
O295 C293 1.235 . S
C296 O302 1.287 . S
C296 O303 1.255 . S
O297 Fe286 1.976 . S
O297 C304 1.287 . S
O298 Fe287 1.996 . S
O298 C304 1.255 . S
O299 Fe289 1.976 . S
O299 C294 1.287 . S
O300 Fe286 1.996 . S
O300 C294 1.255 . S
C301 O305 1.295 . S
C301 O306 1.235 . S
O302 Fe287 1.976 . S
O302 C296 1.287 . S
O303 Fe289 1.996 . S
O303 C296 1.255 . S
C304 O297 1.287 . S
C304 O298 1.255 . S
O305 Fe287 2.002 . S
O305 C301 1.295 . S
O306 Fe289 1.997 . S
O306 C301 1.235 . S
C307 O290 1.295 . S
C307 O291 1.235 . S
Fe308 O310 1.918 . S
Fe308 O313 1.997 . S
Fe308 O314 2.002 . S
Fe308 O319 1.976 . S
Fe308 O322 1.996 . S
Fe309 O310 1.918 . S
Fe309 O317 1.997 . S
Fe309 O320 1.996 . S
Fe309 O324 1.976 . S
Fe309 O327 2.002 . S
O310 Fe308 1.918 . S
O310 Fe309 1.918 . S
O310 Fe311 1.918 . S
Fe311 O310 1.918 . S
Fe311 O312 2.002 . S
Fe311 O321 1.976 . S
Fe311 O325 1.996 . S
Fe311 O328 1.997 . S
O312 Fe311 2.002 . S
O312 C329 1.295 . S
O313 Fe308 1.997 . S
O313 C329 1.235 . S
O314 Fe308 2.002 . S
O314 C315 1.295 . S
C315 O314 1.295 . S
C315 O317 1.235 . S
C316 O321 1.287 . S
C316 O322 1.255 . S
O317 Fe309 1.997 . S
O317 C315 1.235 . S
C318 O324 1.287 . S
C318 O325 1.255 . S
O319 Fe308 1.976 . S
O319 C326 1.287 . S
O320 Fe309 1.996 . S
O320 C326 1.255 . S
O321 Fe311 1.976 . S
O321 C316 1.287 . S
O322 Fe308 1.996 . S
O322 C316 1.255 . S
C323 O327 1.295 . S
C323 O328 1.235 . S
O324 Fe309 1.976 . S
O324 C318 1.287 . S
O325 Fe311 1.996 . S
O325 C318 1.255 . S
C326 O319 1.287 . S
C326 O320 1.255 . S
O327 Fe309 2.002 . S
O327 C323 1.295 . S
O328 Fe311 1.997 . S
O328 C323 1.235 . S
C329 O312 1.295 . S
C329 O313 1.235 . S
Fe330 O332 1.918 . S
Fe330 O335 1.997 . S
Fe330 O336 2.002 . S
Fe330 O341 1.976 . S
Fe330 O344 1.996 . S
Fe331 O332 1.918 . S
Fe331 O339 1.997 . S
Fe331 O342 1.996 . S
Fe331 O346 1.976 . S
Fe331 O349 2.002 . S
O332 Fe330 1.918 . S
O332 Fe331 1.918 . S
O332 Fe333 1.918 . S
Fe333 O332 1.918 . S
Fe333 O334 2.002 . S
Fe333 O343 1.976 . S
Fe333 O347 1.996 . S
Fe333 O350 1.997 . S
O334 Fe333 2.002 . S
O334 C351 1.295 . S
O335 Fe330 1.997 . S
O335 C351 1.235 . S
O336 Fe330 2.002 . S
O336 C337 1.295 . S
C337 O336 1.295 . S
C337 O339 1.235 . S
C338 O343 1.287 . S
C338 O344 1.255 . S
O339 Fe331 1.997 . S
O339 C337 1.235 . S
C340 O346 1.287 . S
C340 O347 1.255 . S
O341 Fe330 1.976 . S
O341 C348 1.287 . S
O342 Fe331 1.996 . S
O342 C348 1.255 . S
O343 Fe333 1.976 . S
O343 C338 1.287 . S
O344 Fe330 1.996 . S
O344 C338 1.255 . S
C345 O349 1.295 . S
C345 O350 1.235 . S
O346 Fe331 1.976 . S
O346 C340 1.287 . S
O347 Fe333 1.996 . S
O347 C340 1.255 . S
C348 O341 1.287 . S
C348 O342 1.255 . S
O349 Fe331 2.002 . S
O349 C345 1.295 . S
O350 Fe333 1.997 . S
O350 C345 1.235 . S
C351 O334 1.295 . S
C351 O335 1.235 . S
Fe352 O354 1.918 . S
Fe352 O357 1.997 . S
Fe352 O358 2.002 . S
Fe352 O363 1.976 . S
Fe352 O366 1.996 . S
Fe353 O354 1.918 . S
Fe353 O361 1.997 . S
Fe353 O364 1.996 . S
Fe353 O368 1.976 . S
Fe353 O371 2.002 . S
O354 Fe352 1.918 . S
O354 Fe353 1.918 . S
O354 Fe355 1.918 . S
Fe355 O354 1.918 . S
Fe355 O356 2.002 . S
Fe355 O365 1.976 . S
Fe355 O369 1.996 . S
Fe355 O372 1.997 . S
O356 Fe355 2.002 . S
O356 C373 1.295 . S
O357 Fe352 1.997 . S
O357 C373 1.235 . S
O358 Fe352 2.002 . S
O358 C359 1.295 . S
C359 O358 1.295 . S
C359 O361 1.235 . S
C360 O365 1.287 . S
C360 O366 1.255 . S
O361 Fe353 1.997 . S
O361 C359 1.235 . S
C362 O368 1.287 . S
C362 O369 1.255 . S
O363 Fe352 1.976 . S
O363 C370 1.287 . S
O364 Fe353 1.996 . S
O364 C370 1.255 . S
O365 Fe355 1.976 . S
O365 C360 1.287 . S
O366 Fe352 1.996 . S
O366 C360 1.255 . S
C367 O371 1.295 . S
C367 O372 1.235 . S
O368 Fe353 1.976 . S
O368 C362 1.287 . S
O369 Fe355 1.996 . S
O369 C362 1.255 . S
C370 O363 1.287 . S
C370 O364 1.255 . S
O371 Fe353 2.002 . S
O371 C367 1.295 . S
O372 Fe355 1.997 . S
O372 C367 1.235 . S
C373 O356 1.295 . S
C373 O357 1.235 . S
Fe374 O376 1.918 . S
Fe374 O379 1.997 . S
Fe374 O380 2.002 . S
Fe374 O385 1.976 . S
Fe374 O388 1.996 . S
Fe375 O376 1.918 . S
Fe375 O383 1.997 . S
Fe375 O386 1.996 . S
Fe375 O390 1.976 . S
Fe375 O393 2.002 . S
O376 Fe374 1.918 . S
O376 Fe375 1.918 . S
O376 Fe377 1.918 . S
Fe377 O376 1.918 . S
Fe377 O378 2.002 . S
Fe377 O387 1.976 . S
Fe377 O391 1.996 . S
Fe377 O394 1.997 . S
O378 Fe377 2.002 . S
O378 C395 1.295 . S
O379 Fe374 1.997 . S
O379 C395 1.235 . S
O380 Fe374 2.002 . S
O380 C381 1.295 . S
C381 O380 1.295 . S
C381 O383 1.235 . S
C382 O387 1.287 . S
C382 O388 1.255 . S
O383 Fe375 1.997 . S
O383 C381 1.235 . S
C384 O390 1.287 . S
C384 O391 1.255 . S
O385 Fe374 1.976 . S
O385 C392 1.287 . S
O386 Fe375 1.996 . S
O386 C392 1.255 . S
O387 Fe377 1.976 . S
O387 C382 1.287 . S
O388 Fe374 1.996 . S
O388 C382 1.255 . S
C389 O393 1.295 . S
C389 O394 1.235 . S
O390 Fe375 1.976 . S
O390 C384 1.287 . S
O391 Fe377 1.996 . S
O391 C384 1.255 . S
C392 O385 1.287 . S
C392 O386 1.255 . S
O393 Fe375 2.002 . S
O393 C389 1.295 . S
O394 Fe377 1.997 . S
O394 C389 1.235 . S
C395 O378 1.295 . S
C395 O379 1.235 . S
Fe396 O398 1.918 . S
Fe396 O401 1.997 . S
Fe396 O402 2.002 . S
Fe396 O407 1.976 . S
Fe396 O410 1.996 . S
Fe397 O398 1.918 . S
Fe397 O405 1.997 . S
Fe397 O408 1.996 . S
Fe397 O412 1.976 . S
Fe397 O415 2.002 . S
O398 Fe396 1.918 . S
O398 Fe397 1.918 . S
O398 Fe399 1.918 . S
Fe399 O398 1.918 . S
Fe399 O400 2.002 . S
Fe399 O409 1.976 . S
Fe399 O413 1.996 . S
Fe399 O416 1.997 . S
O400 Fe399 2.002 . S
O400 C417 1.295 . S
O401 Fe396 1.997 . S
O401 C417 1.235 . S
O402 Fe396 2.002 . S
O402 C403 1.295 . S
C403 O402 1.295 . S
C403 O405 1.235 . S
C404 O409 1.287 . S
C404 O410 1.255 . S
O405 Fe397 1.997 . S
O405 C403 1.235 . S
C406 O412 1.287 . S
C406 O413 1.255 . S
O407 Fe396 1.976 . S
O407 C414 1.287 . S
O408 Fe397 1.996 . S
O408 C414 1.255 . S
O409 Fe399 1.976 . S
O409 C404 1.287 . S
O410 Fe396 1.996 . S
O410 C404 1.255 . S
C411 O415 1.295 . S
C411 O416 1.235 . S
O412 Fe397 1.976 . S
O412 C406 1.287 . S
O413 Fe399 1.996 . S
O413 C406 1.255 . S
C414 O407 1.287 . S
C414 O408 1.255 . S
O415 Fe397 2.002 . S
O415 C411 1.295 . S
O416 Fe399 1.997 . S
O416 C411 1.235 . S
C417 O400 1.295 . S
C417 O401 1.235 . S
Fe418 O420 1.918 . S
Fe418 O423 1.997 . S
Fe418 O424 2.002 . S
Fe418 O429 1.976 . S
Fe418 O432 1.996 . S
Fe419 O420 1.918 . S
Fe419 O427 1.997 . S
Fe419 O430 1.996 . S
Fe419 O434 1.976 . S
Fe419 O437 2.002 . S
O420 Fe418 1.918 . S
O420 Fe419 1.918 . S
O420 Fe421 1.918 . S
Fe421 O420 1.918 . S
Fe421 O422 2.002 . S
Fe421 O431 1.976 . S
Fe421 O435 1.996 . S
Fe421 O438 1.997 . S
O422 Fe421 2.002 . S
O422 C439 1.295 . S
O423 Fe418 1.997 . S
O423 C439 1.235 . S
O424 Fe418 2.002 . S
O424 C425 1.295 . S
C425 O424 1.295 . S
C425 O427 1.235 . S
C426 O431 1.287 . S
C426 O432 1.255 . S
O427 Fe419 1.997 . S
O427 C425 1.235 . S
C428 O434 1.287 . S
C428 O435 1.255 . S
O429 Fe418 1.976 . S
O429 C436 1.287 . S
O430 Fe419 1.996 . S
O430 C436 1.255 . S
O431 Fe421 1.976 . S
O431 C426 1.287 . S
O432 Fe418 1.996 . S
O432 C426 1.255 . S
C433 O437 1.295 . S
C433 O438 1.235 . S
O434 Fe419 1.976 . S
O434 C428 1.287 . S
O435 Fe421 1.996 . S
O435 C428 1.255 . S
C436 O429 1.287 . S
C436 O430 1.255 . S
O437 Fe419 2.002 . S
O437 C433 1.295 . S
O438 Fe421 1.997 . S
O438 C433 1.235 . S
C439 O422 1.295 . S
C439 O423 1.235 . S
Fe440 O442 1.918 . S
Fe440 O445 1.997 . S
Fe440 O446 2.002 . S
Fe440 O451 1.976 . S
Fe440 O454 1.996 . S
Fe441 O442 1.918 . S
Fe441 O449 1.997 . S
Fe441 O452 1.996 . S
Fe441 O456 1.976 . S
Fe441 O459 2.002 . S
O442 Fe440 1.918 . S
O442 Fe441 1.918 . S
O442 Fe443 1.918 . S
Fe443 O442 1.918 . S
Fe443 O444 2.002 . S
Fe443 O453 1.976 . S
Fe443 O457 1.996 . S
Fe443 O460 1.997 . S
O444 Fe443 2.002 . S
O444 C461 1.295 . S
O445 Fe440 1.997 . S
O445 C461 1.235 . S
O446 Fe440 2.002 . S
O446 C447 1.295 . S
C447 O446 1.295 . S
C447 O449 1.235 . S
C448 O453 1.287 . S
C448 O454 1.255 . S
O449 Fe441 1.997 . S
O449 C447 1.235 . S
C450 O456 1.287 . S
C450 O457 1.255 . S
O451 Fe440 1.976 . S
O451 C458 1.287 . S
O452 Fe441 1.996 . S
O452 C458 1.255 . S
O453 Fe443 1.976 . S
O453 C448 1.287 . S
O454 Fe440 1.996 . S
O454 C448 1.255 . S
C455 O459 1.295 . S
C455 O460 1.235 . S
O456 Fe441 1.976 . S
O456 C450 1.287 . S
O457 Fe443 1.996 . S
O457 C450 1.255 . S
C458 O451 1.287 . S
C458 O452 1.255 . S
O459 Fe441 2.002 . S
O459 C455 1.295 . S
O460 Fe443 1.997 . S
O460 C455 1.235 . S
C461 O444 1.295 . S
C461 O445 1.235 . S
Fe462 O464 1.918 . S
Fe462 O467 1.997 . S
Fe462 O468 2.002 . S
Fe462 O473 1.976 . S
Fe462 O476 1.996 . S
Fe463 O464 1.918 . S
Fe463 O471 1.997 . S
Fe463 O474 1.996 . S
Fe463 O478 1.976 . S
Fe463 O481 2.002 . S
O464 Fe462 1.918 . S
O464 Fe463 1.918 . S
O464 Fe465 1.918 . S
Fe465 O464 1.918 . S
Fe465 O466 2.002 . S
Fe465 O475 1.976 . S
Fe465 O479 1.996 . S
Fe465 O482 1.997 . S
O466 Fe465 2.002 . S
O466 C483 1.295 . S
O467 Fe462 1.997 . S
O467 C483 1.235 . S
O468 Fe462 2.002 . S
O468 C469 1.295 . S
C469 O468 1.295 . S
C469 O471 1.235 . S
C470 O475 1.287 . S
C470 O476 1.255 . S
O471 Fe463 1.997 . S
O471 C469 1.235 . S
C472 O478 1.287 . S
C472 O479 1.255 . S
O473 Fe462 1.976 . S
O473 C480 1.287 . S
O474 Fe463 1.996 . S
O474 C480 1.255 . S
O475 Fe465 1.976 . S
O475 C470 1.287 . S
O476 Fe462 1.996 . S
O476 C470 1.255 . S
C477 O481 1.295 . S
C477 O482 1.235 . S
O478 Fe463 1.976 . S
O478 C472 1.287 . S
O479 Fe465 1.996 . S
O479 C472 1.255 . S
C480 O473 1.287 . S
C480 O474 1.255 . S
O481 Fe463 2.002 . S
O481 C477 1.295 . S
O482 Fe465 1.997 . S
O482 C477 1.235 . S
C483 O466 1.295 . S
C483 O467 1.235 . S
Fe484 O486 1.918 . S
Fe484 O489 1.997 . S
Fe484 O490 2.002 . S
Fe484 O495 1.976 . S
Fe484 O498 1.996 . S
Fe485 O486 1.918 . S
Fe485 O493 1.997 . S
Fe485 O496 1.996 . S
Fe485 O500 1.976 . S
Fe485 O503 2.002 . S
O486 Fe484 1.918 . S
O486 Fe485 1.918 . S
O486 Fe487 1.918 . S
Fe487 O486 1.918 . S
Fe487 O488 2.002 . S
Fe487 O497 1.976 . S
Fe487 O501 1.996 . S
Fe487 O504 1.997 . S
O488 Fe487 2.002 . S
O488 C505 1.295 . S
O489 Fe484 1.997 . S
O489 C505 1.235 . S
O490 Fe484 2.002 . S
O490 C491 1.295 . S
C491 O490 1.295 . S
C491 O493 1.235 . S
C492 O497 1.287 . S
C492 O498 1.255 . S
O493 Fe485 1.997 . S
O493 C491 1.235 . S
C494 O500 1.287 . S
C494 O501 1.255 . S
O495 Fe484 1.976 . S
O495 C502 1.287 . S
O496 Fe485 1.996 . S
O496 C502 1.255 . S
O497 Fe487 1.976 . S
O497 C492 1.287 . S
O498 Fe484 1.996 . S
O498 C492 1.255 . S
C499 O503 1.295 . S
C499 O504 1.235 . S
O500 Fe485 1.976 . S
O500 C494 1.287 . S
O501 Fe487 1.996 . S
O501 C494 1.255 . S
C502 O495 1.287 . S
C502 O496 1.255 . S
O503 Fe485 2.002 . S
O503 C499 1.295 . S
O504 Fe487 1.997 . S
O504 C499 1.235 . S
C505 O488 1.295 . S
C505 O489 1.235 . S
Fe506 O508 1.918 . S
Fe506 O511 1.997 . S
Fe506 O512 2.002 . S
Fe506 O517 1.976 . S
Fe506 O520 1.996 . S
Fe507 O508 1.918 . S
Fe507 O515 1.997 . S
Fe507 O518 1.996 . S
Fe507 O522 1.976 . S
Fe507 O525 2.002 . S
O508 Fe506 1.918 . S
O508 Fe507 1.918 . S
O508 Fe509 1.918 . S
Fe509 O508 1.918 . S
Fe509 O510 2.002 . S
Fe509 O519 1.976 . S
Fe509 O523 1.996 . S
Fe509 O526 1.997 . S
O510 Fe509 2.002 . S
O510 C527 1.295 . S
O511 Fe506 1.997 . S
O511 C527 1.235 . S
O512 Fe506 2.002 . S
O512 C513 1.295 . S
C513 O512 1.295 . S
C513 O515 1.235 . S
C514 O519 1.287 . S
C514 O520 1.255 . S
O515 Fe507 1.997 . S
O515 C513 1.235 . S
C516 O522 1.287 . S
C516 O523 1.255 . S
O517 Fe506 1.976 . S
O517 C524 1.287 . S
O518 Fe507 1.996 . S
O518 C524 1.255 . S
O519 Fe509 1.976 . S
O519 C514 1.287 . S
O520 Fe506 1.996 . S
O520 C514 1.255 . S
C521 O525 1.295 . S
C521 O526 1.235 . S
O522 Fe507 1.976 . S
O522 C516 1.287 . S
O523 Fe509 1.996 . S
O523 C516 1.255 . S
C524 O517 1.287 . S
C524 O518 1.255 . S
O525 Fe507 2.002 . S
O525 C521 1.295 . S
O526 Fe509 1.997 . S
O526 C521 1.235 . S
C527 O510 1.295 . S
C527 O511 1.235 . S
H528 C536 0.929 . S
H529 C538 0.930 . S
H530 C540 0.930 . S
H531 C543 0.929 . S
H532 C546 0.930 . S
H533 C548 0.960 . S
H534 C548 0.960 . S
H535 C548 0.960 . S
C536 H528 0.929 . S
C536 C537 1.377 . S
C536 C538 1.384 . S
C537 C536 1.377 . S
C537 C543 1.390 . S
C538 H529 0.930 . S
C538 C536 1.384 . S
C538 C539 1.372 . S
C539 C538 1.372 . S
C539 C540 1.400 . S
C539 C544 1.490 . S
C540 H530 0.930 . S
C540 C539 1.400 . S
C540 C543 1.386 . S
H541 C557 0.930 . S
H542 C558 0.931 . S
C543 H531 0.929 . S
C543 C537 1.390 . S
C543 C540 1.386 . S
C544 C539 1.490 . S
C544 C546 1.395 . S
C544 C547 1.403 . S
H545 C551 0.930 . S
C546 H532 0.930 . S
C546 C544 1.395 . S
C546 C549 1.403 . S
C547 C544 1.403 . S
C547 C548 1.524 . S
C547 C551 1.400 . S
C548 H533 0.960 . S
C548 H534 0.960 . S
C548 H535 0.960 . S
C548 C547 1.524 . S
C549 C546 1.403 . S
C549 C550 1.392 . S
C549 C553 1.495 . S
C550 C549 1.392 . S
C550 C551 1.385 . S
C550 C552 1.478 . S
C551 H545 0.930 . S
C551 C547 1.400 . S
C551 C550 1.385 . S
C552 C550 1.478 . S
C552 C554 1.381 . S
C552 C558 1.383 . S
C553 C549 1.495 . S
C553 H559 0.959 . S
C553 H560 0.961 . S
C553 H561 0.960 . S
C554 C552 1.381 . S
C554 C555 1.394 . S
C554 H562 0.930 . S
C555 C554 1.394 . S
C555 C556 1.383 . S
C555 H563 0.929 . S
C556 C555 1.383 . S
C556 C557 1.377 . S
C557 H541 0.930 . S
C557 C556 1.377 . S
C557 C558 1.379 . S
C558 H542 0.931 . S
C558 C552 1.383 . S
C558 C557 1.379 . S
H559 C553 0.959 . S
H560 C553 0.961 . S
H561 C553 0.960 . S
H562 C554 0.930 . S
H563 C555 0.929 . S
H564 C572 0.929 . S
H565 C574 0.930 . S
H566 C576 0.930 . S
H567 C579 0.929 . S
H568 C582 0.930 . S
H569 C584 0.960 . S
H570 C584 0.960 . S
H571 C584 0.960 . S
C572 H564 0.929 . S
C572 C573 1.377 . S
C572 C574 1.384 . S
C573 C572 1.377 . S
C573 C579 1.390 . S
C574 H565 0.930 . S
C574 C572 1.384 . S
C574 C575 1.372 . S
C575 C574 1.372 . S
C575 C576 1.400 . S
C575 C580 1.490 . S
C576 H566 0.930 . S
C576 C575 1.400 . S
C576 C579 1.386 . S
H577 C593 0.930 . S
H578 C594 0.931 . S
C579 H567 0.929 . S
C579 C573 1.390 . S
C579 C576 1.386 . S
C580 C575 1.490 . S
C580 C582 1.395 . S
C580 C583 1.403 . S
H581 C587 0.930 . S
C582 H568 0.930 . S
C582 C580 1.395 . S
C582 C585 1.403 . S
C583 C580 1.403 . S
C583 C584 1.524 . S
C583 C587 1.400 . S
C584 H569 0.960 . S
C584 H570 0.960 . S
C584 H571 0.960 . S
C584 C583 1.524 . S
C585 C582 1.403 . S
C585 C586 1.392 . S
C585 C589 1.495 . S
C586 C585 1.392 . S
C586 C587 1.385 . S
C586 C588 1.478 . S
C587 H581 0.930 . S
C587 C583 1.400 . S
C587 C586 1.385 . S
C588 C586 1.478 . S
C588 C590 1.381 . S
C588 C594 1.383 . S
C589 C585 1.495 . S
C589 H595 0.959 . S
C589 H596 0.961 . S
C589 H597 0.960 . S
C590 C588 1.381 . S
C590 C591 1.394 . S
C590 H598 0.930 . S
C591 C590 1.394 . S
C591 C592 1.383 . S
C591 H599 0.929 . S
C592 C591 1.383 . S
C592 C593 1.377 . S
C593 H577 0.930 . S
C593 C592 1.377 . S
C593 C594 1.379 . S
C594 H578 0.931 . S
C594 C588 1.383 . S
C594 C593 1.379 . S
H595 C589 0.959 . S
H596 C589 0.961 . S
H597 C589 0.960 . S
H598 C590 0.930 . S
H599 C591 0.929 . S
H600 C608 0.929 . S
H601 C610 0.930 . S
H602 C612 0.930 . S
H603 C615 0.929 . S
H604 C618 0.930 . S
H605 C620 0.960 . S
H606 C620 0.960 . S
H607 C620 0.960 . S
C608 H600 0.929 . S
C608 C609 1.377 . S
C608 C610 1.384 . S
C609 C608 1.377 . S
C609 C615 1.390 . S
C610 H601 0.930 . S
C610 C608 1.384 . S
C610 C611 1.372 . S
C611 C610 1.372 . S
C611 C612 1.400 . S
C611 C616 1.490 . S
C612 H602 0.930 . S
C612 C611 1.400 . S
C612 C615 1.386 . S
H613 C629 0.918 1_565 S
H614 C630 0.931 . S
C615 H603 0.929 . S
C615 C609 1.390 . S
C615 C612 1.386 . S
C616 C611 1.490 . S
C616 C618 1.395 . S
C616 C619 1.403 . S
H617 C623 0.930 . S
C618 H604 0.930 . S
C618 C616 1.395 . S
C618 C621 1.403 . S
C619 C616 1.403 . S
C619 C620 1.524 . S
C619 C623 1.400 . S
C620 H605 0.960 . S
C620 H606 0.960 . S
C620 H607 0.960 . S
C620 C619 1.524 . S
C621 C618 1.403 . S
C621 C622 1.392 . S
C621 C625 1.495 . S
C622 C621 1.392 . S
C622 C623 1.385 . S
C622 C624 1.478 . S
C623 H617 0.930 . S
C623 C619 1.400 . S
C623 C622 1.385 . S
C624 C622 1.478 . S
C624 C626 1.381 . S
C624 C630 1.383 . S
C625 C621 1.495 . S
C625 H631 0.959 . S
C625 H632 0.961 . S
C625 H633 0.960 . S
C626 C624 1.381 . S
C626 C627 1.394 . S
C626 H634 0.930 . S
C627 C626 1.394 . S
C627 C628 1.383 . S
C627 H635 0.929 . S
C628 C627 1.383 . S
C628 C629 1.377 . S
C629 H613 0.918 1_545 S
C629 C628 1.377 . S
C629 C630 1.379 . S
C630 H614 0.931 . S
C630 C624 1.383 . S
C630 C629 1.379 . S
H631 C625 0.959 . S
H632 C625 0.961 . S
H633 C625 0.960 . S
H634 C626 0.930 . S
H635 C627 0.929 . S
H636 C644 0.929 . S
H637 C646 0.930 . S
H638 C648 0.930 . S
H639 C651 0.929 . S
H640 C654 0.930 . S
H641 C656 0.960 . S
H642 C656 0.960 . S
H643 C656 0.960 . S
C644 H636 0.929 . S
C644 C645 1.377 . S
C644 C646 1.384 . S
C645 C644 1.377 . S
C645 C651 1.390 . S
C646 H637 0.930 . S
C646 C644 1.384 . S
C646 C647 1.372 . S
C647 C646 1.372 . S
C647 C648 1.400 . S
C647 C652 1.490 . S
C648 H638 0.930 . S
C648 C647 1.400 . S
C648 C651 1.386 . S
H649 C665 0.930 1_545 S
H650 C666 0.931 . S
C651 H639 0.929 . S
C651 C645 1.390 . S
C651 C648 1.386 . S
C652 C647 1.490 . S
C652 C654 1.395 . S
C652 C655 1.403 . S
H653 C659 0.930 . S
C654 H640 0.930 . S
C654 C652 1.395 . S
C654 C657 1.403 . S
C655 C652 1.403 . S
C655 C656 1.524 . S
C655 C659 1.400 . S
C656 H641 0.960 . S
C656 H642 0.960 . S
C656 H643 0.960 . S
C656 C655 1.524 . S
C657 C654 1.403 . S
C657 C658 1.392 . S
C657 C661 1.495 . S
C658 C657 1.392 . S
C658 C659 1.385 . S
C658 C660 1.478 . S
C659 H653 0.930 . S
C659 C655 1.400 . S
C659 C658 1.385 . S
C660 C658 1.478 . S
C660 C662 1.381 . S
C660 C666 1.383 . S
C661 C657 1.495 . S
C661 H667 0.959 . S
C661 H668 0.961 . S
C661 H669 0.960 . S
C662 C660 1.381 . S
C662 C663 1.394 . S
C662 H670 0.930 . S
C663 C662 1.394 . S
C663 C664 1.383 . S
C663 H671 0.929 . S
C664 C663 1.383 . S
C664 C665 1.377 . S
C665 H649 0.930 1_565 S
C665 C664 1.377 . S
C665 C666 1.379 . S
C666 H650 0.931 . S
C666 C660 1.383 . S
C666 C665 1.379 . S
H667 C661 0.959 . S
H668 C661 0.961 . S
H669 C661 0.960 . S
H670 C662 0.930 . S
H671 C663 0.929 . S
H672 C680 0.929 . S
H673 C682 0.930 . S
H674 C684 0.930 . S
H675 C687 0.929 . S
H676 C690 0.930 . S
H677 C692 0.960 . S
H678 C692 0.960 . S
H679 C692 0.960 . S
C680 H672 0.929 . S
C680 C681 1.377 . S
C680 C682 1.384 . S
C681 C680 1.377 . S
C681 C687 1.390 . S
C682 H673 0.930 . S
C682 C680 1.384 . S
C682 C683 1.372 . S
C683 C682 1.372 . S
C683 C684 1.400 . S
C683 C688 1.490 . S
C684 H674 0.930 . S
C684 C683 1.400 . S
C684 C687 1.386 . S
H685 C701 0.930 . S
H686 C702 0.931 . S
C687 H675 0.929 . S
C687 C681 1.390 . S
C687 C684 1.386 . S
C688 C683 1.490 . S
C688 C690 1.395 . S
C688 C691 1.403 . S
H689 C695 0.930 . S
C690 H676 0.930 . S
C690 C688 1.395 . S
C690 C693 1.403 . S
C691 C688 1.403 . S
C691 C692 1.524 . S
C691 C695 1.400 . S
C692 H677 0.960 . S
C692 H678 0.960 . S
C692 H679 0.960 . S
C692 C691 1.524 . S
C693 C690 1.403 . S
C693 C694 1.392 . S
C693 C697 1.495 . S
C694 C693 1.392 . S
C694 C695 1.385 . S
C694 C696 1.478 . S
C695 H689 0.930 . S
C695 C691 1.400 . S
C695 C694 1.385 . S
C696 C694 1.478 . S
C696 C698 1.381 . S
C696 C702 1.383 . S
C697 C693 1.495 . S
C697 H703 0.959 . S
C697 H704 0.961 . S
C697 H705 0.960 . S
C698 C696 1.381 . S
C698 C699 1.394 . S
C698 H706 0.930 . S
C699 C698 1.394 . S
C699 C700 1.383 . S
C699 H707 0.929 . S
C700 C699 1.383 . S
C700 C701 1.377 . S
C701 H685 0.930 . S
C701 C700 1.377 . S
C701 C702 1.379 . S
C702 H686 0.931 . S
C702 C696 1.383 . S
C702 C701 1.379 . S
H703 C697 0.959 . S
H704 C697 0.961 . S
H705 C697 0.960 . S
H706 C698 0.930 . S
H707 C699 0.929 . S
H708 C716 0.929 . S
H709 C718 0.930 . S
H710 C720 0.930 . S
H711 C723 0.929 . S
H712 C726 0.930 . S
H713 C728 0.960 . S
H714 C728 0.960 . S
H715 C728 0.960 . S
C716 H708 0.929 . S
C716 C717 1.377 . S
C716 C718 1.384 . S
C717 C716 1.377 . S
C717 C723 1.390 . S
C718 H709 0.930 . S
C718 C716 1.384 . S
C718 C719 1.372 . S
C719 C718 1.372 . S
C719 C720 1.400 . S
C719 C724 1.490 . S
C720 H710 0.930 . S
C720 C719 1.400 . S
C720 C723 1.386 . S
H721 C737 0.930 1_554 S
H722 C738 0.931 . S
C723 H711 0.929 . S
C723 C717 1.390 . S
C723 C720 1.386 . S
C724 C719 1.490 . S
C724 C726 1.395 . S
C724 C727 1.403 . S
H725 C731 0.930 . S
C726 H712 0.930 . S
C726 C724 1.395 . S
C726 C729 1.403 . S
C727 C724 1.403 . S
C727 C728 1.524 . S
C727 C731 1.400 . S
C728 H713 0.960 . S
C728 H714 0.960 . S
C728 H715 0.960 . S
C728 C727 1.524 . S
C729 C726 1.403 . S
C729 C730 1.392 . S
C729 C733 1.495 . S
C730 C729 1.392 . S
C730 C731 1.385 . S
C730 C732 1.478 . S
C731 H725 0.930 . S
C731 C727 1.400 . S
C731 C730 1.385 . S
C732 C730 1.478 . S
C732 C734 1.381 . S
C732 C738 1.383 . S
C733 C729 1.495 . S
C733 H739 0.959 . S
C733 H740 0.961 . S
C733 H741 0.960 . S
C734 C732 1.381 . S
C734 C735 1.394 . S
C734 H742 0.930 . S
C735 C734 1.394 . S
C735 C736 1.383 . S
C735 H743 0.929 . S
C736 C735 1.383 . S
C736 C737 1.377 . S
C737 H721 0.930 1_556 S
C737 C736 1.377 . S
C737 C738 1.379 . S
C738 H722 0.931 . S
C738 C732 1.383 . S
C738 C737 1.379 . S
H739 C733 0.959 . S
H740 C733 0.961 . S
H741 C733 0.960 . S
H742 C734 0.930 . S
H743 C735 0.929 . S
H744 C752 0.929 . S
H745 C754 0.930 . S
H746 C756 0.930 . S
H747 C759 0.929 . S
H748 C762 0.930 . S
H749 C764 0.960 . S
H750 C764 0.960 . S
H751 C764 0.960 . S
C752 H744 0.929 . S
C752 C753 1.377 . S
C752 C754 1.384 . S
C753 C752 1.377 . S
C753 C759 1.390 . S
C754 H745 0.930 . S
C754 C752 1.384 . S
C754 C755 1.372 . S
C755 C754 1.372 . S
C755 C756 1.400 . S
C755 C760 1.490 . S
C756 H746 0.930 . S
C756 C755 1.400 . S
C756 C759 1.386 . S
H757 C773 0.930 . S
H758 C774 0.931 . S
C759 H747 0.929 . S
C759 C753 1.390 . S
C759 C756 1.386 . S
C760 C755 1.490 . S
C760 C762 1.395 . S
C760 C763 1.403 . S
H761 C767 0.930 . S
C762 H748 0.930 . S
C762 C760 1.395 . S
C762 C765 1.403 . S
C763 C760 1.403 . S
C763 C764 1.524 . S
C763 C767 1.400 . S
C764 H749 0.960 . S
C764 H750 0.960 . S
C764 H751 0.960 . S
C764 C763 1.524 . S
C765 C762 1.403 . S
C765 C766 1.392 . S
C765 C769 1.495 . S
C766 C765 1.392 . S
C766 C767 1.385 . S
C766 C768 1.478 . S
C767 H761 0.930 . S
C767 C763 1.400 . S
C767 C766 1.385 . S
C768 C766 1.478 . S
C768 C770 1.381 . S
C768 C774 1.383 . S
C769 C765 1.495 . S
C769 H775 0.959 . S
C769 H776 0.961 . S
C769 H777 0.960 . S
C770 C768 1.381 . S
C770 C771 1.394 . S
C770 H778 0.930 . S
C771 C770 1.394 . S
C771 C772 1.383 . S
C771 H779 0.929 . S
C772 C771 1.383 . S
C772 C773 1.377 . S
C773 H757 0.930 . S
C773 C772 1.377 . S
C773 C774 1.379 . S
C774 H758 0.931 . S
C774 C768 1.383 . S
C774 C773 1.379 . S
H775 C769 0.959 . S
H776 C769 0.961 . S
H777 C769 0.960 . S
H778 C770 0.930 . S
H779 C771 0.929 . S
H780 C788 0.929 . S
H781 C790 0.930 . S
H782 C792 0.930 . S
H783 C795 0.929 . S
H784 C798 0.930 . S
H785 C800 0.960 . S
H786 C800 0.960 . S
H787 C800 0.960 . S
C788 H780 0.929 . S
C788 C789 1.377 . S
C788 C790 1.384 . S
C789 C788 1.377 . S
C789 C795 1.390 . S
C790 H781 0.930 . S
C790 C788 1.384 . S
C790 C791 1.372 . S
C791 C790 1.372 . S
C791 C792 1.400 . S
C791 C796 1.490 . S
C792 H782 0.930 . S
C792 C791 1.400 . S
C792 C795 1.386 . S
H793 C809 0.930 . S
H794 C810 0.931 . S
C795 H783 0.929 . S
C795 C789 1.390 . S
C795 C792 1.386 . S
C796 C791 1.490 . S
C796 C798 1.395 . S
C796 C799 1.403 . S
H797 C803 0.930 . S
C798 H784 0.930 . S
C798 C796 1.395 . S
C798 C801 1.403 . S
C799 C796 1.403 . S
C799 C800 1.524 . S
C799 C803 1.400 . S
C800 H785 0.960 . S
C800 H786 0.960 . S
C800 H787 0.960 . S
C800 C799 1.524 . S
C801 C798 1.403 . S
C801 C802 1.392 . S
C801 C805 1.495 . S
C802 C801 1.392 . S
C802 C803 1.385 . S
C802 C804 1.478 . S
C803 H797 0.930 . S
C803 C799 1.400 . S
C803 C802 1.385 . S
C804 C802 1.478 . S
C804 C806 1.381 . S
C804 C810 1.383 . S
C805 C801 1.495 . S
C805 H811 0.959 . S
C805 H812 0.961 . S
C805 H813 0.960 . S
C806 C804 1.381 . S
C806 C807 1.394 . S
C806 H814 0.930 . S
C807 C806 1.394 . S
C807 C808 1.383 . S
C807 H815 0.929 1_554 S
C808 C807 1.383 . S
C808 C809 1.377 . S
C809 H793 0.930 . S
C809 C808 1.377 . S
C809 C810 1.379 . S
C810 H794 0.931 . S
C810 C804 1.383 . S
C810 C809 1.379 . S
H811 C805 0.959 . S
H812 C805 0.961 . S
H813 C805 0.960 . S
H814 C806 0.930 . S
H815 C807 0.929 1_556 S
H816 C824 0.929 . S
H817 C826 0.930 . S
H818 C828 0.930 . S
H819 C831 0.929 . S
H820 C834 0.930 . S
H821 C836 0.960 . S
H822 C836 0.960 . S
H823 C836 0.960 . S
C824 H816 0.929 . S
C824 C825 1.377 . S
C824 C826 1.384 . S
C825 C824 1.377 . S
C825 C831 1.390 . S
C826 H817 0.930 . S
C826 C824 1.384 . S
C826 C827 1.372 . S
C827 C826 1.372 . S
C827 C828 1.400 . S
C827 C832 1.490 . S
C828 H818 0.930 . S
C828 C827 1.400 . S
C828 C831 1.386 . S
H829 C845 0.930 . S
H830 C846 0.931 . S
C831 H819 0.929 . S
C831 C825 1.390 . S
C831 C828 1.386 . S
C832 C827 1.490 . S
C832 C834 1.395 . S
C832 C835 1.403 . S
H833 C839 0.930 . S
C834 H820 0.930 . S
C834 C832 1.395 . S
C834 C837 1.403 . S
C835 C832 1.403 . S
C835 C836 1.524 . S
C835 C839 1.400 . S
C836 H821 0.960 . S
C836 H822 0.960 . S
C836 H823 0.960 . S
C836 C835 1.524 . S
C837 C834 1.403 . S
C837 C838 1.392 . S
C837 C841 1.495 . S
C838 C837 1.392 . S
C838 C839 1.385 . S
C838 C840 1.478 . S
C839 H833 0.930 . S
C839 C835 1.400 . S
C839 C838 1.385 . S
C840 C838 1.478 . S
C840 C842 1.381 . S
C840 C846 1.383 . S
C841 C837 1.495 . S
C841 H847 0.959 . S
C841 H848 0.961 . S
C841 H849 0.960 . S
C842 C840 1.381 . S
C842 C843 1.394 . S
C842 H850 0.930 . S
C843 C842 1.394 . S
C843 C844 1.383 . S
C843 H851 0.929 . S
C844 C843 1.383 . S
C844 C845 1.377 . S
C845 H829 0.930 . S
C845 C844 1.377 . S
C845 C846 1.379 . S
C846 H830 0.931 . S
C846 C840 1.383 . S
C846 C845 1.379 . S
H847 C841 0.959 . S
H848 C841 0.961 . S
H849 C841 0.960 . S
H850 C842 0.930 . S
H851 C843 0.929 . S
H852 C860 0.929 . S
H853 C862 0.930 . S
H854 C864 0.930 . S
H855 C867 0.929 . S
H856 C870 0.930 . S
H857 C872 0.960 . S
H858 C872 0.960 . S
H859 C872 0.960 . S
C860 H852 0.929 . S
C860 C861 1.377 . S
C860 C862 1.384 . S
C861 C860 1.377 . S
C861 C867 1.390 . S
C862 H853 0.930 . S
C862 C860 1.384 . S
C862 C863 1.372 . S
C863 C862 1.372 . S
C863 C864 1.400 . S
C863 C868 1.490 . S
C864 H854 0.930 . S
C864 C863 1.400 . S
C864 C867 1.386 . S
H865 C881 0.930 1_455 S
H866 C882 0.931 . S
C867 H855 0.929 . S
C867 C861 1.390 . S
C867 C864 1.386 . S
C868 C863 1.490 . S
C868 C870 1.395 . S
C868 C871 1.403 . S
H869 C875 0.930 . S
C870 H856 0.930 . S
C870 C868 1.395 . S
C870 C873 1.403 . S
C871 C868 1.403 . S
C871 C872 1.524 . S
C871 C875 1.400 . S
C872 H857 0.960 . S
C872 H858 0.960 . S
C872 H859 0.960 . S
C872 C871 1.524 . S
C873 C870 1.403 . S
C873 C874 1.392 . S
C873 C877 1.495 . S
C874 C873 1.392 . S
C874 C875 1.385 . S
C874 C876 1.478 . S
C875 H869 0.930 . S
C875 C871 1.400 . S
C875 C874 1.385 . S
C876 C874 1.478 . S
C876 C878 1.381 . S
C876 C882 1.383 . S
C877 C873 1.495 . S
C877 H883 0.959 . S
C877 H884 0.961 . S
C877 H885 0.960 . S
C878 C876 1.381 . S
C878 C879 1.394 . S
C878 H886 0.930 . S
C879 C878 1.394 . S
C879 C880 1.383 . S
C879 H887 0.929 . S
C880 C879 1.383 . S
C880 C881 1.377 . S
C881 H865 0.930 1_655 S
C881 C880 1.377 . S
C881 C882 1.379 . S
C882 H866 0.931 . S
C882 C876 1.383 . S
C882 C881 1.379 . S
H883 C877 0.959 . S
H884 C877 0.961 . S
H885 C877 0.960 . S
H886 C878 0.930 . S
H887 C879 0.929 . S
H888 C896 0.929 . S
H889 C898 0.930 . S
H890 C900 0.930 . S
H891 C903 0.929 . S
H892 C906 0.930 . S
H893 C908 0.960 . S
H894 C908 0.960 . S
H895 C908 0.960 . S
C896 H888 0.929 . S
C896 C897 1.377 . S
C896 C898 1.384 . S
C897 C896 1.377 . S
C897 C903 1.390 . S
C898 H889 0.930 . S
C898 C896 1.384 . S
C898 C899 1.372 . S
C899 C898 1.372 . S
C899 C900 1.400 . S
C899 C904 1.490 . S
C900 H890 0.930 . S
C900 C899 1.400 . S
C900 C903 1.386 . S
H901 C917 0.930 . S
H902 C918 0.931 . S
C903 H891 0.929 . S
C903 C897 1.390 . S
C903 C900 1.386 . S
C904 C899 1.490 . S
C904 C906 1.395 . S
C904 C907 1.403 . S
H905 C911 0.930 . S
C906 H892 0.930 . S
C906 C904 1.395 . S
C906 C909 1.403 . S
C907 C904 1.403 . S
C907 C908 1.524 . S
C907 C911 1.400 . S
C908 H893 0.960 . S
C908 H894 0.960 . S
C908 H895 0.960 . S
C908 C907 1.524 . S
C909 C906 1.403 . S
C909 C910 1.392 . S
C909 C913 1.495 . S
C910 C909 1.392 . S
C910 C911 1.385 . S
C910 C912 1.478 . S
C911 H905 0.930 . S
C911 C907 1.400 . S
C911 C910 1.385 . S
C912 C910 1.478 . S
C912 C914 1.381 . S
C912 C918 1.383 . S
C913 C909 1.495 . S
C913 H919 0.959 . S
C913 H920 0.961 . S
C913 H921 0.960 . S
C914 C912 1.381 . S
C914 C915 1.394 . S
C914 H922 0.930 . S
C915 C914 1.394 . S
C915 C916 1.383 . S
C915 H923 0.929 . S
C916 C915 1.383 . S
C916 C917 1.377 . S
C917 H901 0.930 . S
C917 C916 1.377 . S
C917 C918 1.379 . S
C918 H902 0.931 . S
C918 C912 1.383 . S
C918 C917 1.379 . S
H919 C913 0.959 . S
H920 C913 0.961 . S
H921 C913 0.960 . S
H922 C914 0.930 . S
H923 C915 0.929 . S
H924 C932 0.929 . S
H925 C934 0.930 . S
H926 C936 0.930 . S
H927 C939 0.929 . S
H928 C942 0.930 . S
H929 C944 0.960 . S
H930 C944 0.960 . S
H931 C944 0.960 . S
C932 H924 0.929 . S
C932 C933 1.377 . S
C932 C934 1.384 . S
C933 C932 1.377 . S
C933 C939 1.390 . S
C934 H925 0.930 . S
C934 C932 1.384 . S
C934 C935 1.372 . S
C935 C934 1.372 . S
C935 C936 1.400 . S
C935 C940 1.490 . S
C936 H926 0.930 . S
C936 C935 1.400 . S
C936 C939 1.386 . S
H937 C953 0.930 1_655 S
H938 C954 0.931 . S
C939 H927 0.929 . S
C939 C933 1.390 . S
C939 C936 1.386 . S
C940 C935 1.490 . S
C940 C942 1.395 . S
C940 C943 1.403 . S
H941 C947 0.930 . S
C942 H928 0.930 . S
C942 C940 1.395 . S
C942 C945 1.403 . S
C943 C940 1.403 . S
C943 C944 1.524 . S
C943 C947 1.400 . S
C944 H929 0.960 . S
C944 H930 0.960 . S
C944 H931 0.960 . S
C944 C943 1.524 . S
C945 C942 1.403 . S
C945 C946 1.392 . S
C945 C949 1.495 . S
C946 C945 1.392 . S
C946 C947 1.385 . S
C946 C948 1.478 . S
C947 H941 0.930 . S
C947 C943 1.400 . S
C947 C946 1.385 . S
C948 C946 1.478 . S
C948 C950 1.381 . S
C948 C954 1.383 . S
C949 C945 1.495 . S
C949 H955 0.959 . S
C949 H956 0.961 . S
C949 H957 0.960 . S
C950 C948 1.381 . S
C950 C951 1.394 . S
C950 H958 0.930 . S
C951 C950 1.394 . S
C951 C952 1.383 . S
C951 H959 0.929 . S
C952 C951 1.383 . S
C952 C953 1.377 . S
C953 H937 0.930 1_455 S
C953 C952 1.377 . S
C953 C954 1.379 . S
C954 H938 0.931 . S
C954 C948 1.383 . S
C954 C953 1.379 . S
H955 C949 0.959 . S
H956 C949 0.961 . S
H957 C949 0.960 . S
H958 C950 0.930 . S
H959 C951 0.929 . S
H960 C968 0.929 . S
H961 C970 0.930 . S
H962 C972 0.930 . S
H963 C975 0.929 . S
H964 C978 0.930 . S
H965 C980 0.960 . S
H966 C980 0.960 . S
H967 C980 0.960 . S
C968 H960 0.929 . S
C968 C969 1.377 . S
C968 C970 1.384 . S
C969 C968 1.377 . S
C969 C975 1.390 . S
C970 H961 0.930 . S
C970 C968 1.384 . S
C970 C971 1.372 . S
C971 C970 1.372 . S
C971 C972 1.400 . S
C971 C976 1.490 . S
C972 H962 0.930 . S
C972 C971 1.400 . S
C972 C975 1.386 . S
H973 C989 0.930 . S
H974 C990 0.931 . S
C975 H963 0.929 . S
C975 C969 1.390 . S
C975 C972 1.386 . S
C976 C971 1.490 . S
C976 C978 1.395 . S
C976 C979 1.403 . S
H977 C983 0.930 . S
C978 H964 0.930 . S
C978 C976 1.395 . S
C978 C981 1.403 . S
C979 C976 1.403 . S
C979 C980 1.524 . S
C979 C983 1.400 . S
C980 H965 0.960 . S
C980 H966 0.960 . S
C980 H967 0.960 . S
C980 C979 1.524 . S
C981 C978 1.403 . S
C981 C982 1.392 . S
C981 C985 1.495 . S
C982 C981 1.392 . S
C982 C983 1.385 . S
C982 C984 1.478 . S
C983 H977 0.930 . S
C983 C979 1.400 . S
C983 C982 1.385 . S
C984 C982 1.478 . S
C984 C986 1.381 . S
C984 C990 1.383 . S
C985 C981 1.495 . S
C985 H991 0.959 . S
C985 H992 0.961 . S
C985 H993 0.960 . S
C986 C984 1.381 . S
C986 C987 1.394 . S
C986 H994 0.930 . S
C987 C986 1.394 . S
C987 C988 1.383 . S
C987 H995 0.929 . S
C988 C987 1.383 . S
C988 C989 1.377 . S
C989 H973 0.930 . S
C989 C988 1.377 . S
C989 C990 1.379 . S
C990 H974 0.931 . S
C990 C984 1.383 . S
C990 C989 1.379 . S
H991 C985 0.959 . S
H992 C985 0.961 . S
H993 C985 0.960 . S
H994 C986 0.930 . S
H995 C987 0.929 . S
H996 C1004 0.929 . S
H997 C1006 0.930 . S
H998 C1008 0.930 . S
H999 C1011 0.929 . S
H1000 C1014 0.930 . S
H1001 C1016 0.960 . S
H1002 C1016 0.960 . S
H1003 C1016 0.960 . S
C1004 H996 0.929 . S
C1004 C1005 1.377 . S
C1004 C1006 1.384 . S
C1005 C1004 1.377 . S
C1005 C1011 1.390 . S
C1006 H997 0.930 . S
C1006 C1004 1.384 . S
C1006 C1007 1.372 . S
C1007 C1006 1.372 . S
C1007 C1008 1.400 . S
C1007 C1012 1.490 . S
C1008 H998 0.930 . S
C1008 C1007 1.400 . S
C1008 C1011 1.386 . S
H1009 C1025 0.930 . S
H1010 C1026 0.931 . S
C1011 H999 0.929 . S
C1011 C1005 1.390 . S
C1011 C1008 1.386 . S
C1012 C1007 1.490 . S
C1012 C1014 1.395 . S
C1012 C1015 1.403 . S
H1013 C1019 0.930 . S
C1014 H1000 0.930 . S
C1014 C1012 1.395 . S
C1014 C1017 1.403 . S
C1015 C1012 1.403 . S
C1015 C1016 1.524 . S
C1015 C1019 1.400 . S
C1016 H1001 0.960 . S
C1016 H1002 0.960 . S
C1016 H1003 0.960 . S
C1016 C1015 1.524 . S
C1017 C1014 1.403 . S
C1017 C1018 1.392 . S
C1017 C1021 1.495 . S
C1018 C1017 1.392 . S
C1018 C1019 1.385 . S
C1018 C1020 1.478 . S
C1019 H1013 0.930 . S
C1019 C1015 1.400 . S
C1019 C1018 1.385 . S
C1020 C1018 1.478 . S
C1020 C1022 1.381 . S
C1020 C1026 1.383 . S
C1021 C1017 1.495 . S
C1021 H1027 0.959 . S
C1021 H1028 0.961 . S
C1021 H1029 0.960 . S
C1022 C1020 1.381 . S
C1022 C1023 1.394 . S
C1022 H1030 0.930 . S
C1023 C1022 1.394 . S
C1023 C1024 1.383 . S
C1023 H1031 0.929 . S
C1024 C1023 1.383 . S
C1024 C1025 1.377 . S
C1025 H1009 0.930 . S
C1025 C1024 1.377 . S
C1025 C1026 1.379 . S
C1026 H1010 0.931 . S
C1026 C1020 1.383 . S
C1026 C1025 1.379 . S
H1027 C1021 0.959 . S
H1028 C1021 0.961 . S
H1029 C1021 0.960 . S
H1030 C1022 0.930 . S
H1031 C1023 0.929 . S
H1032 C1040 0.929 . S
H1033 C1042 0.930 . S
H1034 C1044 0.930 . S
H1035 C1047 0.929 . S
H1036 C1050 0.930 . S
H1037 C1052 0.960 . S
H1038 C1052 0.960 . S
H1039 C1052 0.960 . S
C1040 H1032 0.929 . S
C1040 C1041 1.377 . S
C1040 C1042 1.384 . S
C1041 C1040 1.377 . S
C1041 C1047 1.390 . S
C1042 H1033 0.930 . S
C1042 C1040 1.384 . S
C1042 C1043 1.372 . S
C1043 C1042 1.372 . S
C1043 C1044 1.400 . S
C1043 C1048 1.490 . S
C1044 H1034 0.930 . S
C1044 C1043 1.400 . S
C1044 C1047 1.386 . S
H1045 C1061 0.930 . S
H1046 C1062 0.931 . S
C1047 H1035 0.929 . S
C1047 C1041 1.390 . S
C1047 C1044 1.386 . S
C1048 C1043 1.490 . S
C1048 C1050 1.395 . S
C1048 C1051 1.403 . S
H1049 C1055 0.930 . S
C1050 H1036 0.930 . S
C1050 C1048 1.395 . S
C1050 C1053 1.403 . S
C1051 C1048 1.403 . S
C1051 C1052 1.524 . S
C1051 C1055 1.400 . S
C1052 H1037 0.960 . S
C1052 H1038 0.960 . S
C1052 H1039 0.960 . S
C1052 C1051 1.524 . S
C1053 C1050 1.403 . S
C1053 C1054 1.392 . S
C1053 C1057 1.495 . S
C1054 C1053 1.392 . S
C1054 C1055 1.385 . S
C1054 C1056 1.478 . S
C1055 H1049 0.930 . S
C1055 C1051 1.400 . S
C1055 C1054 1.385 . S
C1056 C1054 1.478 . S
C1056 C1058 1.381 . S
C1056 C1062 1.383 . S
C1057 C1053 1.495 . S
C1057 H1063 0.959 . S
C1057 H1064 0.961 . S
C1057 H1065 0.960 . S
C1058 C1056 1.381 . S
C1058 C1059 1.415 . S
C1058 H1066 0.930 . S
C1059 C1058 1.415 . S
C1059 C1060 1.397 . S
C1059 H1067 0.895 1_565 S
C1060 C1059 1.397 . S
C1060 C1061 1.377 . S
C1061 H1045 0.930 . S
C1061 C1060 1.377 . S
C1061 C1062 1.379 . S
C1062 H1046 0.931 . S
C1062 C1056 1.383 . S
C1062 C1061 1.379 . S
H1063 C1057 0.959 . S
H1064 C1057 0.961 . S
H1065 C1057 0.960 . S
H1066 C1058 0.930 . S
H1067 C1059 0.895 1_545 S
H1068 C1076 0.887 1_565 S
H1069 C1078 0.930 . S
H1070 C1080 0.930 . S
H1071 C1083 0.929 . S
H1072 C1086 0.930 . S
H1073 C1088 0.960 . S
H1074 C1088 0.960 . S
H1075 C1088 0.960 . S
C1076 H1068 0.887 1_545 S
C1076 C1077 1.395 . S
C1076 C1078 1.410 . S
C1077 C1076 1.395 . S
C1077 C1083 1.390 . S
C1078 H1069 0.930 . S
C1078 C1076 1.410 . S
C1078 C1079 1.372 . S
C1079 C1078 1.372 . S
C1079 C1080 1.400 . S
C1079 C1084 1.490 . S
C1080 H1070 0.930 . S
C1080 C1079 1.400 . S
C1080 C1083 1.386 . S
H1081 C1097 0.930 . S
H1082 C1098 0.931 . S
C1083 H1071 0.929 . S
C1083 C1077 1.390 . S
C1083 C1080 1.386 . S
C1084 C1079 1.490 . S
C1084 C1086 1.395 . S
C1084 C1087 1.403 . S
H1085 C1091 0.930 . S
C1086 H1072 0.930 . S
C1086 C1084 1.395 . S
C1086 C1089 1.403 . S
C1087 C1084 1.403 . S
C1087 C1088 1.524 . S
C1087 C1091 1.400 . S
C1088 H1073 0.960 . S
C1088 H1074 0.960 . S
C1088 H1075 0.960 . S
C1088 C1087 1.524 . S
C1089 C1086 1.403 . S
C1089 C1090 1.392 . S
C1089 C1093 1.495 . S
C1090 C1089 1.392 . S
C1090 C1091 1.385 . S
C1090 C1092 1.478 . S
C1091 H1085 0.930 . S
C1091 C1087 1.400 . S
C1091 C1090 1.385 . S
C1092 C1090 1.478 . S
C1092 C1094 1.381 . S
C1092 C1098 1.383 . S
C1093 C1089 1.495 . S
C1093 H1099 0.959 . S
C1093 H1100 0.961 . S
C1093 H1101 0.960 . S
C1094 C1092 1.381 . S
C1094 C1095 1.394 . S
C1094 H1102 0.930 . S
C1095 C1094 1.394 . S
C1095 C1096 1.383 . S
C1095 H1103 0.929 . S
C1096 C1095 1.383 . S
C1096 C1097 1.377 . S
C1097 H1081 0.930 . S
C1097 C1096 1.377 . S
C1097 C1098 1.379 . S
C1098 H1082 0.931 . S
C1098 C1092 1.383 . S
C1098 C1097 1.379 . S
H1099 C1093 0.959 . S
H1100 C1093 0.961 . S
H1101 C1093 0.960 . S
H1102 C1094 0.930 . S
H1103 C1095 0.929 . S
H1104 C1112 0.929 . S
H1105 C1114 0.930 . S
H1106 C1116 0.930 . S
H1107 C1119 0.929 . S
H1108 C1122 0.930 . S
H1109 C1124 0.960 . S
H1110 C1124 0.960 . S
H1111 C1124 0.960 . S
C1112 H1104 0.929 . S
C1112 C1113 1.377 . S
C1112 C1114 1.384 . S
C1113 C1112 1.377 . S
C1113 C1119 1.390 . S
C1114 H1105 0.930 . S
C1114 C1112 1.384 . S
C1114 C1115 1.372 . S
C1115 C1114 1.372 . S
C1115 C1116 1.400 . S
C1115 C1120 1.490 . S
C1116 H1106 0.930 . S
C1116 C1115 1.400 . S
C1116 C1119 1.386 . S
H1117 C1133 0.930 . S
H1118 C1134 0.931 . S
C1119 H1107 0.929 . S
C1119 C1113 1.390 . S
C1119 C1116 1.386 . S
C1120 C1115 1.490 . S
C1120 C1122 1.395 . S
C1120 C1123 1.403 . S
H1121 C1127 0.930 . S
C1122 H1108 0.930 . S
C1122 C1120 1.395 . S
C1122 C1125 1.403 . S
C1123 C1120 1.403 . S
C1123 C1124 1.524 . S
C1123 C1127 1.400 . S
C1124 H1109 0.960 . S
C1124 H1110 0.960 . S
C1124 H1111 0.960 . S
C1124 C1123 1.524 . S
C1125 C1122 1.403 . S
C1125 C1126 1.392 . S
C1125 C1129 1.495 . S
C1126 C1125 1.392 . S
C1126 C1127 1.385 . S
C1126 C1128 1.478 . S
C1127 H1121 0.930 . S
C1127 C1123 1.400 . S
C1127 C1126 1.385 . S
C1128 C1126 1.478 . S
C1128 C1130 1.381 . S
C1128 C1134 1.383 . S
C1129 C1125 1.495 . S
C1129 H1135 0.959 . S
C1129 H1136 0.961 . S
C1129 H1137 0.960 . S
C1130 C1128 1.381 . S
C1130 C1131 1.394 . S
C1130 H1138 0.930 . S
C1131 C1130 1.394 . S
C1131 C1132 1.383 . S
C1131 H1139 0.929 . S
C1132 C1131 1.383 . S
C1132 C1133 1.377 . S
C1133 H1117 0.930 . S
C1133 C1132 1.377 . S
C1133 C1134 1.379 . S
C1134 H1118 0.931 . S
C1134 C1128 1.383 . S
C1134 C1133 1.379 . S
H1135 C1129 0.959 . S
H1136 C1129 0.961 . S
H1137 C1129 0.960 . S
H1138 C1130 0.930 . S
H1139 C1131 0.929 . S
H1140 C1148 0.929 1_556 S
H1141 C1150 0.930 . S
H1142 C1152 0.930 . S
H1143 C1155 0.929 . S
H1144 C1158 0.930 . S
H1145 C1160 0.960 . S
H1146 C1160 0.960 . S
H1147 C1160 0.960 . S
C1148 H1140 0.929 1_554 S
C1148 C1149 1.377 . S
C1148 C1150 1.384 . S
C1149 C1148 1.377 . S
C1149 C1155 1.390 . S
C1150 H1141 0.930 . S
C1150 C1148 1.384 . S
C1150 C1151 1.372 . S
C1151 C1150 1.372 . S
C1151 C1152 1.400 . S
C1151 C1156 1.490 . S
C1152 H1142 0.930 . S
C1152 C1151 1.400 . S
C1152 C1155 1.386 . S
H1153 C1169 0.930 . S
H1154 C1170 0.931 . S
C1155 H1143 0.929 . S
C1155 C1149 1.390 . S
C1155 C1152 1.386 . S
C1156 C1151 1.490 . S
C1156 C1158 1.395 . S
C1156 C1159 1.403 . S
H1157 C1163 0.930 . S
C1158 H1144 0.930 . S
C1158 C1156 1.395 . S
C1158 C1161 1.403 . S
C1159 C1156 1.403 . S
C1159 C1160 1.524 . S
C1159 C1163 1.400 . S
C1160 H1145 0.960 . S
C1160 H1146 0.960 . S
C1160 H1147 0.960 . S
C1160 C1159 1.524 . S
C1161 C1158 1.403 . S
C1161 C1162 1.392 . S
C1161 C1165 1.495 . S
C1162 C1161 1.392 . S
C1162 C1163 1.385 . S
C1162 C1164 1.478 . S
C1163 H1157 0.930 . S
C1163 C1159 1.400 . S
C1163 C1162 1.385 . S
C1164 C1162 1.478 . S
C1164 C1166 1.381 . S
C1164 C1170 1.383 . S
C1165 C1161 1.495 . S
C1165 H1171 0.959 . S
C1165 H1172 0.961 . S
C1165 H1173 0.960 . S
C1166 C1164 1.381 . S
C1166 C1167 1.394 . S
C1166 H1174 0.930 . S
C1167 C1166 1.394 . S
C1167 C1168 1.383 . S
C1167 H1175 0.929 . S
C1168 C1167 1.383 . S
C1168 C1169 1.377 . S
C1169 H1153 0.930 . S
C1169 C1168 1.377 . S
C1169 C1170 1.379 . S
C1170 H1154 0.931 . S
C1170 C1164 1.383 . S
C1170 C1169 1.379 . S
H1171 C1165 0.959 . S
H1172 C1165 0.961 . S
H1173 C1165 0.960 . S
H1174 C1166 0.930 . S
H1175 C1167 0.929 . S
H1176 C1184 0.929 . S
H1177 C1186 0.930 . S
H1178 C1188 0.930 . S
H1179 C1191 0.929 . S
H1180 C1194 0.930 . S
H1181 C1196 0.960 . S
H1182 C1196 0.960 . S
H1183 C1196 0.960 . S
C1184 H1176 0.929 . S
C1184 C1185 1.377 . S
C1184 C1186 1.384 . S
C1185 C1184 1.377 . S
C1185 C1191 1.390 . S
C1186 H1177 0.930 . S
C1186 C1184 1.384 . S
C1186 C1187 1.372 . S
C1187 C1186 1.372 . S
C1187 C1188 1.400 . S
C1187 C1192 1.490 . S
C1188 H1178 0.930 . S
C1188 C1187 1.400 . S
C1188 C1191 1.386 . S
H1189 C1205 0.930 . S
H1190 C1206 0.931 . S
C1191 H1179 0.929 . S
C1191 C1185 1.390 . S
C1191 C1188 1.386 . S
C1192 C1187 1.490 . S
C1192 C1194 1.395 . S
C1192 C1195 1.403 . S
H1193 C1199 0.930 . S
C1194 H1180 0.930 . S
C1194 C1192 1.395 . S
C1194 C1197 1.403 . S
C1195 C1192 1.403 . S
C1195 C1196 1.524 . S
C1195 C1199 1.400 . S
C1196 H1181 0.960 . S
C1196 H1182 0.960 . S
C1196 H1183 0.960 . S
C1196 C1195 1.524 . S
C1197 C1194 1.403 . S
C1197 C1198 1.392 . S
C1197 C1201 1.495 . S
C1198 C1197 1.392 . S
C1198 C1199 1.385 . S
C1198 C1200 1.478 . S
C1199 H1193 0.930 . S
C1199 C1195 1.400 . S
C1199 C1198 1.385 . S
C1200 C1198 1.478 . S
C1200 C1202 1.381 . S
C1200 C1206 1.383 . S
C1201 C1197 1.495 . S
C1201 H1207 0.959 . S
C1201 H1208 0.961 . S
C1201 H1209 0.960 . S
C1202 C1200 1.381 . S
C1202 C1203 1.394 . S
C1202 H1210 0.930 . S
C1203 C1202 1.394 . S
C1203 C1204 1.383 . S
C1203 H1211 0.929 . S
C1204 C1203 1.383 . S
C1204 C1205 1.377 . S
C1205 H1189 0.930 . S
C1205 C1204 1.377 . S
C1205 C1206 1.379 . S
C1206 H1190 0.931 . S
C1206 C1200 1.383 . S
C1206 C1205 1.379 . S
H1207 C1201 0.959 . S
H1208 C1201 0.961 . S
H1209 C1201 0.960 . S
H1210 C1202 0.930 . S
H1211 C1203 0.929 . S
H1212 C1220 0.929 . S
H1213 C1222 0.930 . S
H1214 C1224 0.930 . S
H1215 C1227 0.929 . S
H1216 C1230 0.930 . S
H1217 C1232 0.960 . S
H1218 C1232 0.960 . S
H1219 C1232 0.960 . S
C1220 H1212 0.929 . S
C1220 C1221 1.377 . S
C1220 C1222 1.384 . S
C1221 C1220 1.377 . S
C1221 C1227 1.390 . S
C1222 H1213 0.930 . S
C1222 C1220 1.384 . S
C1222 C1223 1.372 . S
C1223 C1222 1.372 . S
C1223 C1224 1.400 . S
C1223 C1228 1.490 . S
C1224 H1214 0.930 . S
C1224 C1223 1.400 . S
C1224 C1227 1.386 . S
H1225 C1241 0.930 . S
H1226 C1242 0.931 . S
C1227 H1215 0.929 . S
C1227 C1221 1.390 . S
C1227 C1224 1.386 . S
C1228 C1223 1.490 . S
C1228 C1230 1.395 . S
C1228 C1231 1.403 . S
H1229 C1235 0.930 . S
C1230 H1216 0.930 . S
C1230 C1228 1.395 . S
C1230 C1233 1.403 . S
C1231 C1228 1.403 . S
C1231 C1232 1.524 . S
C1231 C1235 1.400 . S
C1232 H1217 0.960 . S
C1232 H1218 0.960 . S
C1232 H1219 0.960 . S
C1232 C1231 1.524 . S
C1233 C1230 1.403 . S
C1233 C1234 1.392 . S
C1233 C1237 1.495 . S
C1234 C1233 1.392 . S
C1234 C1235 1.385 . S
C1234 C1236 1.478 . S
C1235 H1229 0.930 . S
C1235 C1231 1.400 . S
C1235 C1234 1.385 . S
C1236 C1234 1.478 . S
C1236 C1238 1.381 . S
C1236 C1242 1.383 . S
C1237 C1233 1.495 . S
C1237 H1243 0.959 . S
C1237 H1244 0.961 . S
C1237 H1245 0.960 . S
C1238 C1236 1.381 . S
C1238 C1239 1.394 . S
C1238 H1246 0.930 . S
C1239 C1238 1.394 . S
C1239 C1240 1.383 . S
C1239 H1247 0.929 . S
C1240 C1239 1.383 . S
C1240 C1241 1.377 . S
C1241 H1225 0.930 . S
C1241 C1240 1.377 . S
C1241 C1242 1.379 . S
C1242 H1226 0.931 . S
C1242 C1236 1.383 . S
C1242 C1241 1.379 . S
H1243 C1237 0.959 . S
H1244 C1237 0.961 . S
H1245 C1237 0.960 . S
H1246 C1238 0.930 . S
H1247 C1239 0.929 . S
H1248 C1256 0.929 . S
H1249 C1258 0.930 . S
H1250 C1260 0.930 . S
H1251 C1263 0.929 . S
H1252 C1266 0.930 . S
H1253 C1268 0.960 . S
H1254 C1268 0.960 . S
H1255 C1268 0.960 . S
C1256 H1248 0.929 . S
C1256 C1257 1.377 . S
C1256 C1258 1.384 . S
C1257 C1256 1.377 . S
C1257 C1263 1.390 . S
C1258 H1249 0.930 . S
C1258 C1256 1.384 . S
C1258 C1259 1.372 . S
C1259 C1258 1.372 . S
C1259 C1260 1.400 . S
C1259 C1264 1.490 . S
C1260 H1250 0.930 . S
C1260 C1259 1.400 . S
C1260 C1263 1.386 . S
H1261 C1277 0.930 . S
H1262 C1278 0.931 . S
C1263 H1251 0.929 . S
C1263 C1257 1.390 . S
C1263 C1260 1.386 . S
C1264 C1259 1.490 . S
C1264 C1266 1.395 . S
C1264 C1267 1.403 . S
H1265 C1271 0.930 . S
C1266 H1252 0.930 . S
C1266 C1264 1.395 . S
C1266 C1269 1.403 . S
C1267 C1264 1.403 . S
C1267 C1268 1.524 . S
C1267 C1271 1.400 . S
C1268 H1253 0.960 . S
C1268 H1254 0.960 . S
C1268 H1255 0.960 . S
C1268 C1267 1.524 . S
C1269 C1266 1.403 . S
C1269 C1270 1.392 . S
C1269 C1273 1.495 . S
C1270 C1269 1.392 . S
C1270 C1271 1.385 . S
C1270 C1272 1.478 . S
C1271 H1265 0.930 . S
C1271 C1267 1.400 . S
C1271 C1270 1.385 . S
C1272 C1270 1.478 . S
C1272 C1274 1.381 . S
C1272 C1278 1.383 . S
C1273 C1269 1.495 . S
C1273 H1279 0.959 . S
C1273 H1280 0.961 . S
C1273 H1281 0.960 . S
C1274 C1272 1.381 . S
C1274 C1275 1.394 . S
C1274 H1282 0.930 . S
C1275 C1274 1.394 . S
C1275 C1276 1.383 . S
C1275 H1283 0.929 . S
C1276 C1275 1.383 . S
C1276 C1277 1.377 . S
C1277 H1261 0.930 . S
C1277 C1276 1.377 . S
C1277 C1278 1.379 . S
C1278 H1262 0.931 . S
C1278 C1272 1.383 . S
C1278 C1277 1.379 . S
H1279 C1273 0.959 . S
H1280 C1273 0.961 . S
H1281 C1273 0.960 . S
H1282 C1274 0.930 . S
H1283 C1275 0.929 . S
H1284 C1292 0.929 1_655 S
H1285 C1294 0.930 . S
H1286 C1296 0.930 . S
H1287 C1299 0.929 . S
H1288 C1302 0.930 . S
H1289 C1304 0.960 . S
H1290 C1304 0.960 . S
H1291 C1304 0.960 . S
C1292 H1284 0.929 1_455 S
C1292 C1293 1.377 . S
C1292 C1294 1.384 . S
C1293 C1292 1.377 . S
C1293 C1299 1.390 . S
C1294 H1285 0.930 . S
C1294 C1292 1.384 . S
C1294 C1295 1.372 . S
C1295 C1294 1.372 . S
C1295 C1296 1.400 . S
C1295 C1300 1.490 . S
C1296 H1286 0.930 . S
C1296 C1295 1.400 . S
C1296 C1299 1.386 . S
H1297 C1313 0.930 . S
H1298 C1314 0.931 . S
C1299 H1287 0.929 . S
C1299 C1293 1.390 . S
C1299 C1296 1.386 . S
C1300 C1295 1.490 . S
C1300 C1302 1.395 . S
C1300 C1303 1.403 . S
H1301 C1307 0.930 . S
C1302 H1288 0.930 . S
C1302 C1300 1.395 . S
C1302 C1305 1.403 . S
C1303 C1300 1.403 . S
C1303 C1304 1.524 . S
C1303 C1307 1.400 . S
C1304 H1289 0.960 . S
C1304 H1290 0.960 . S
C1304 H1291 0.960 . S
C1304 C1303 1.524 . S
C1305 C1302 1.403 . S
C1305 C1306 1.392 . S
C1305 C1309 1.495 . S
C1306 C1305 1.392 . S
C1306 C1307 1.385 . S
C1306 C1308 1.478 . S
C1307 H1301 0.930 . S
C1307 C1303 1.400 . S
C1307 C1306 1.385 . S
C1308 C1306 1.478 . S
C1308 C1310 1.381 . S
C1308 C1314 1.383 . S
C1309 C1305 1.495 . S
C1309 H1315 0.959 . S
C1309 H1316 0.961 . S
C1309 H1317 0.960 . S
C1310 C1308 1.381 . S
C1310 C1311 1.394 . S
C1310 H1318 0.930 . S
C1311 C1310 1.394 . S
C1311 C1312 1.383 . S
C1311 H1319 0.929 . S
C1312 C1311 1.383 . S
C1312 C1313 1.377 . S
C1313 H1297 0.930 . S
C1313 C1312 1.377 . S
C1313 C1314 1.379 . S
C1314 H1298 0.931 . S
C1314 C1308 1.383 . S
C1314 C1313 1.379 . S
H1315 C1309 0.959 . S
H1316 C1309 0.961 . S
H1317 C1309 0.960 . S
H1318 C1310 0.930 . S
H1319 C1311 0.929 . S
H1320 C1328 0.929 . S
H1321 C1330 0.930 . S
H1322 C1332 0.930 . S
H1323 C1335 0.929 . S
H1324 C1338 0.930 . S
H1325 C1340 0.960 . S
H1326 C1340 0.960 . S
H1327 C1340 0.960 . S
C1328 H1320 0.929 . S
C1328 C1329 1.377 . S
C1328 C1330 1.384 . S
C1329 C1328 1.377 . S
C1329 C1335 1.390 . S
C1330 H1321 0.930 . S
C1330 C1328 1.384 . S
C1330 C1331 1.372 . S
C1331 C1330 1.372 . S
C1331 C1332 1.400 . S
C1331 C1336 1.490 . S
C1332 H1322 0.930 . S
C1332 C1331 1.400 . S
C1332 C1335 1.386 . S
H1333 C1349 0.930 . S
H1334 C1350 0.931 . S
C1335 H1323 0.929 . S
C1335 C1329 1.390 . S
C1335 C1332 1.386 . S
C1336 C1331 1.490 . S
C1336 C1338 1.395 . S
C1336 C1339 1.403 . S
H1337 C1343 0.930 . S
C1338 H1324 0.930 . S
C1338 C1336 1.395 . S
C1338 C1341 1.403 . S
C1339 C1336 1.403 . S
C1339 C1340 1.524 . S
C1339 C1343 1.400 . S
C1340 H1325 0.960 . S
C1340 H1326 0.960 . S
C1340 H1327 0.960 . S
C1340 C1339 1.524 . S
C1341 C1338 1.403 . S
C1341 C1342 1.392 . S
C1341 C1345 1.495 . S
C1342 C1341 1.392 . S
C1342 C1343 1.385 . S
C1342 C1344 1.478 . S
C1343 H1337 0.930 . S
C1343 C1339 1.400 . S
C1343 C1342 1.385 . S
C1344 C1342 1.478 . S
C1344 C1346 1.381 . S
C1344 C1350 1.383 . S
C1345 C1341 1.495 . S
C1345 H1351 0.959 . S
C1345 H1352 0.961 . S
C1345 H1353 0.960 . S
C1346 C1344 1.381 . S
C1346 C1347 1.394 . S
C1346 H1354 0.930 . S
C1347 C1346 1.394 . S
C1347 C1348 1.383 . S
C1347 H1355 0.929 . S
C1348 C1347 1.383 . S
C1348 C1349 1.377 . S
C1349 H1333 0.930 . S
C1349 C1348 1.377 . S
C1349 C1350 1.379 . S
C1350 H1334 0.931 . S
C1350 C1344 1.383 . S
C1350 C1349 1.379 . S
H1351 C1345 0.959 . S
H1352 C1345 0.961 . S
H1353 C1345 0.960 . S
H1354 C1346 0.930 . S
H1355 C1347 0.929 . S
H1356 C1364 0.929 . S
H1357 C1366 0.930 . S
H1358 C1368 0.930 . S
H1359 C1371 0.929 . S
H1360 C1374 0.930 . S
H1361 C1376 0.960 . S
H1362 C1376 0.960 . S
H1363 C1376 0.960 . S
C1364 H1356 0.929 . S
C1364 C1365 1.377 . S
C1364 C1366 1.384 . S
C1365 C1364 1.377 . S
C1365 C1371 1.390 . S
C1366 H1357 0.930 . S
C1366 C1364 1.384 . S
C1366 C1367 1.372 . S
C1367 C1366 1.372 . S
C1367 C1368 1.400 . S
C1367 C1372 1.490 . S
C1368 H1358 0.930 . S
C1368 C1367 1.400 . S
C1368 C1371 1.386 . S
H1369 C1385 0.930 . S
H1370 C1386 0.931 . S
C1371 H1359 0.929 . S
C1371 C1365 1.390 . S
C1371 C1368 1.386 . S
C1372 C1367 1.490 . S
C1372 C1374 1.395 . S
C1372 C1375 1.403 . S
H1373 C1379 0.930 . S
C1374 H1360 0.930 . S
C1374 C1372 1.395 . S
C1374 C1377 1.403 . S
C1375 C1372 1.403 . S
C1375 C1376 1.524 . S
C1375 C1379 1.400 . S
C1376 H1361 0.960 . S
C1376 H1362 0.960 . S
C1376 H1363 0.960 . S
C1376 C1375 1.524 . S
C1377 C1374 1.403 . S
C1377 C1378 1.392 . S
C1377 C1381 1.495 . S
C1378 C1377 1.392 . S
C1378 C1379 1.385 . S
C1378 C1380 1.478 . S
C1379 H1373 0.930 . S
C1379 C1375 1.400 . S
C1379 C1378 1.385 . S
C1380 C1378 1.478 . S
C1380 C1382 1.381 . S
C1380 C1386 1.383 . S
C1381 C1377 1.495 . S
C1381 H1387 0.959 . S
C1381 H1388 0.961 . S
C1381 H1389 0.960 . S
C1382 C1380 1.381 . S
C1382 C1383 1.394 . S
C1382 H1390 0.930 . S
C1383 C1382 1.394 . S
C1383 C1384 1.383 . S
C1383 H1391 0.929 . S
C1384 C1383 1.383 . S
C1384 C1385 1.377 . S
C1385 H1369 0.930 . S
C1385 C1384 1.377 . S
C1385 C1386 1.379 . S
C1386 H1370 0.931 . S
C1386 C1380 1.383 . S
C1386 C1385 1.379 . S
H1387 C1381 0.959 . S
H1388 C1381 0.961 . S
H1389 C1381 0.960 . S
H1390 C1382 0.930 . S
H1391 C1383 0.929 . S
H1392 C1400 0.929 . S
H1393 C1402 0.930 . S
H1394 C1404 0.930 . S
H1395 C1407 0.929 . S
H1396 C1410 0.930 . S
H1397 C1412 0.960 . S
H1398 C1412 0.960 . S
H1399 C1412 0.960 . S
C1400 H1392 0.929 . S
C1400 C1401 1.377 . S
C1400 C1402 1.384 . S
C1401 C1400 1.377 . S
C1401 C1407 1.390 . S
C1402 H1393 0.930 . S
C1402 C1400 1.384 . S
C1402 C1403 1.372 . S
C1403 C1402 1.372 . S
C1403 C1404 1.400 . S
C1403 C1408 1.490 . S
C1404 H1394 0.930 . S
C1404 C1403 1.400 . S
C1404 C1407 1.386 . S
H1405 C1421 0.930 . S
H1406 C1422 0.931 . S
C1407 H1395 0.929 . S
C1407 C1401 1.390 . S
C1407 C1404 1.386 . S
C1408 C1403 1.490 . S
C1408 C1410 1.395 . S
C1408 C1411 1.403 . S
H1409 C1415 0.930 . S
C1410 H1396 0.930 . S
C1410 C1408 1.395 . S
C1410 C1413 1.403 . S
C1411 C1408 1.403 . S
C1411 C1412 1.524 . S
C1411 C1415 1.400 . S
C1412 H1397 0.960 . S
C1412 H1398 0.960 . S
C1412 H1399 0.960 . S
C1412 C1411 1.524 . S
C1413 C1410 1.403 . S
C1413 C1414 1.392 . S
C1413 C1417 1.495 . S
C1414 C1413 1.392 . S
C1414 C1415 1.385 . S
C1414 C1416 1.478 . S
C1415 H1409 0.930 . S
C1415 C1411 1.400 . S
C1415 C1414 1.385 . S
C1416 C1414 1.478 . S
C1416 C1418 1.381 . S
C1416 C1422 1.383 . S
C1417 C1413 1.495 . S
C1417 H1423 0.959 . S
C1417 H1424 0.961 . S
C1417 H1425 0.960 . S
C1418 C1416 1.381 . S
C1418 C1419 1.394 . S
C1418 H1426 0.930 . S
C1419 C1418 1.394 . S
C1419 C1420 1.383 . S
C1419 H1427 0.929 . S
C1420 C1419 1.383 . S
C1420 C1421 1.377 . S
C1421 H1405 0.930 . S
C1421 C1420 1.377 . S
C1421 C1422 1.379 . S
C1422 H1406 0.931 . S
C1422 C1416 1.383 . S
C1422 C1421 1.379 . S
H1423 C1417 0.959 . S
H1424 C1417 0.961 . S
H1425 C1417 0.960 . S
H1426 C1418 0.930 . S
H1427 C1419 0.929 . S
H1428 C1436 0.929 . S
H1429 C1438 0.930 . S
H1430 C1440 0.930 . S
H1431 C1443 0.929 . S
H1432 C1446 0.930 . S
H1433 C1448 0.960 . S
H1434 C1448 0.960 . S
H1435 C1448 0.960 . S
C1436 H1428 0.929 . S
C1436 C1437 1.377 . S
C1436 C1438 1.384 . S
C1437 C1436 1.377 . S
C1437 C1443 1.390 . S
C1438 H1429 0.930 . S
C1438 C1436 1.384 . S
C1438 C1439 1.372 . S
C1439 C1438 1.372 . S
C1439 C1440 1.400 . S
C1439 C1444 1.490 . S
C1440 H1430 0.930 . S
C1440 C1439 1.400 . S
C1440 C1443 1.386 . S
H1441 C1457 0.930 . S
H1442 C1458 0.931 . S
C1443 H1431 0.929 . S
C1443 C1437 1.390 . S
C1443 C1440 1.386 . S
C1444 C1439 1.490 . S
C1444 C1446 1.395 . S
C1444 C1447 1.403 . S
H1445 C1451 0.930 . S
C1446 H1432 0.930 . S
C1446 C1444 1.395 . S
C1446 C1449 1.403 . S
C1447 C1444 1.403 . S
C1447 C1448 1.524 . S
C1447 C1451 1.400 . S
C1448 H1433 0.960 . S
C1448 H1434 0.960 . S
C1448 H1435 0.960 . S
C1448 C1447 1.524 . S
C1449 C1446 1.403 . S
C1449 C1450 1.392 . S
C1449 C1453 1.495 . S
C1450 C1449 1.392 . S
C1450 C1451 1.385 . S
C1450 C1452 1.478 . S
C1451 H1445 0.930 . S
C1451 C1447 1.400 . S
C1451 C1450 1.385 . S
C1452 C1450 1.478 . S
C1452 C1454 1.381 . S
C1452 C1458 1.383 . S
C1453 C1449 1.495 . S
C1453 H1459 0.959 . S
C1453 H1460 0.961 . S
C1453 H1461 0.960 . S
C1454 C1452 1.381 . S
C1454 C1455 1.394 . S
C1454 H1462 0.930 . S
C1455 C1454 1.394 . S
C1455 C1456 1.383 . S
C1455 H1463 0.929 . S
C1456 C1455 1.383 . S
C1456 C1457 1.377 . S
C1457 H1441 0.930 . S
C1457 C1456 1.377 . S
C1457 C1458 1.379 . S
C1458 H1442 0.931 . S
C1458 C1452 1.383 . S
C1458 C1457 1.379 . S
H1459 C1453 0.959 . S
H1460 C1453 0.961 . S
H1461 C1453 0.960 . S
H1462 C1454 0.930 . S
H1463 C1455 0.929 . S
H1464 C1472 0.929 . S
H1465 C1474 0.930 . S
H1466 C1476 0.930 . S
H1467 C1479 0.929 . S
H1468 C1482 0.930 . S
H1469 C1484 0.960 . S
H1470 C1484 0.960 . S
H1471 C1484 0.960 . S
C1472 H1464 0.929 . S
C1472 C1473 1.377 . S
C1472 C1474 1.384 . S
C1473 C1472 1.377 . S
C1473 C1479 1.390 . S
C1474 H1465 0.930 . S
C1474 C1472 1.384 . S
C1474 C1475 1.372 . S
C1475 C1474 1.372 . S
C1475 C1476 1.400 . S
C1475 C1480 1.490 . S
C1476 H1466 0.930 . S
C1476 C1475 1.400 . S
C1476 C1479 1.386 . S
H1477 C1493 0.930 . S
H1478 C1494 0.931 . S
C1479 H1467 0.929 . S
C1479 C1473 1.390 . S
C1479 C1476 1.386 . S
C1480 C1475 1.490 . S
C1480 C1482 1.395 . S
C1480 C1483 1.403 . S
H1481 C1487 0.930 . S
C1482 H1468 0.930 . S
C1482 C1480 1.395 . S
C1482 C1485 1.403 . S
C1483 C1480 1.403 . S
C1483 C1484 1.524 . S
C1483 C1487 1.400 . S
C1484 H1469 0.960 . S
C1484 H1470 0.960 . S
C1484 H1471 0.960 . S
C1484 C1483 1.524 . S
C1485 C1482 1.403 . S
C1485 C1486 1.392 . S
C1485 C1489 1.495 . S
C1486 C1485 1.392 . S
C1486 C1487 1.385 . S
C1486 C1488 1.478 . S
C1487 H1481 0.930 . S
C1487 C1483 1.400 . S
C1487 C1486 1.385 . S
C1488 C1486 1.478 . S
C1488 C1490 1.381 . S
C1488 C1494 1.383 . S
C1489 C1485 1.495 . S
C1489 H1495 0.959 . S
C1489 H1496 0.961 . S
C1489 H1497 0.960 . S
C1490 C1488 1.381 . S
C1490 C1491 1.394 . S
C1490 H1498 0.930 . S
C1491 C1490 1.394 . S
C1491 C1492 1.383 . S
C1491 H1499 0.929 . S
C1492 C1491 1.383 . S
C1492 C1493 1.377 . S
C1493 H1477 0.930 . S
C1493 C1492 1.377 . S
C1493 C1494 1.379 . S
C1494 H1478 0.931 . S
C1494 C1488 1.383 . S
C1494 C1493 1.379 . S
H1495 C1489 0.959 . S
H1496 C1489 0.961 . S
H1497 C1489 0.960 . S
H1498 C1490 0.930 . S
H1499 C1491 0.929 . S
H1500 C1508 0.929 . S
H1501 C1510 0.930 . S
H1502 C1512 0.930 . S
H1503 C1515 0.929 . S
H1504 C1518 0.930 . S
H1505 C1520 0.960 . S
H1506 C1520 0.960 . S
H1507 C1520 0.960 . S
C1508 H1500 0.929 . S
C1508 C1509 1.377 . S
C1508 C1510 1.384 . S
C1509 C1508 1.377 . S
C1509 C1515 1.390 . S
C1510 H1501 0.930 . S
C1510 C1508 1.384 . S
C1510 C1511 1.372 . S
C1511 C1510 1.372 . S
C1511 C1512 1.400 . S
C1511 C1516 1.490 . S
C1512 H1502 0.930 . S
C1512 C1511 1.400 . S
C1512 C1515 1.386 . S
H1513 C1529 0.930 . S
H1514 C1530 0.931 . S
C1515 H1503 0.929 . S
C1515 C1509 1.390 . S
C1515 C1512 1.386 . S
C1516 C1511 1.490 . S
C1516 C1518 1.395 . S
C1516 C1519 1.403 . S
H1517 C1523 0.930 . S
C1518 H1504 0.930 . S
C1518 C1516 1.395 . S
C1518 C1521 1.403 . S
C1519 C1516 1.403 . S
C1519 C1520 1.524 . S
C1519 C1523 1.400 . S
C1520 H1505 0.960 . S
C1520 H1506 0.960 . S
C1520 H1507 0.960 . S
C1520 C1519 1.524 . S
C1521 C1518 1.403 . S
C1521 C1522 1.392 . S
C1521 C1525 1.495 . S
C1522 C1521 1.392 . S
C1522 C1523 1.385 . S
C1522 C1524 1.478 . S
C1523 H1517 0.930 . S
C1523 C1519 1.400 . S
C1523 C1522 1.385 . S
C1524 C1522 1.478 . S
C1524 C1526 1.381 . S
C1524 C1530 1.383 . S
C1525 C1521 1.495 . S
C1525 H1531 0.959 . S
C1525 H1532 0.961 . S
C1525 H1533 0.960 . S
C1526 C1524 1.381 . S
C1526 C1527 1.394 . S
C1526 H1534 0.930 . S
C1527 C1526 1.394 . S
C1527 C1528 1.383 . S
C1527 H1535 0.929 . S
C1528 C1527 1.383 . S
C1528 C1529 1.377 . S
C1529 H1513 0.930 . S
C1529 C1528 1.377 . S
C1529 C1530 1.379 . S
C1530 H1514 0.931 . S
C1530 C1524 1.383 . S
C1530 C1529 1.379 . S
H1531 C1525 0.959 . S
H1532 C1525 0.961 . S
H1533 C1525 0.960 . S
H1534 C1526 0.930 . S
H1535 C1527 0.929 . S
H1536 C1544 0.929 . S
H1537 C1546 0.930 . S
H1538 C1548 0.930 . S
H1539 C1551 0.929 . S
H1540 C1554 0.930 . S
H1541 C1556 0.960 . S
H1542 C1556 0.960 . S
H1543 C1556 0.960 . S
C1544 H1536 0.929 . S
C1544 C1545 1.377 . S
C1544 C1546 1.384 . S
C1545 C1544 1.377 . S
C1545 C1551 1.390 . S
C1546 H1537 0.930 . S
C1546 C1544 1.384 . S
C1546 C1547 1.372 . S
C1547 C1546 1.372 . S
C1547 C1548 1.400 . S
C1547 C1552 1.490 . S
C1548 H1538 0.930 . S
C1548 C1547 1.400 . S
C1548 C1551 1.386 . S
H1549 C1565 0.930 . S
H1550 C1566 0.931 . S
C1551 H1539 0.929 . S
C1551 C1545 1.390 . S
C1551 C1548 1.386 . S
C1552 C1547 1.490 . S
C1552 C1554 1.395 . S
C1552 C1555 1.403 . S
H1553 C1559 0.930 . S
C1554 H1540 0.930 . S
C1554 C1552 1.395 . S
C1554 C1557 1.403 . S
C1555 C1552 1.403 . S
C1555 C1556 1.524 . S
C1555 C1559 1.400 . S
C1556 H1541 0.960 . S
C1556 H1542 0.960 . S
C1556 H1543 0.960 . S
C1556 C1555 1.524 . S
C1557 C1554 1.403 . S
C1557 C1558 1.392 . S
C1557 C1561 1.495 . S
C1558 C1557 1.392 . S
C1558 C1559 1.385 . S
C1558 C1560 1.478 . S
C1559 H1553 0.930 . S
C1559 C1555 1.400 . S
C1559 C1558 1.385 . S
C1560 C1558 1.478 . S
C1560 C1562 1.381 . S
C1560 C1566 1.383 . S
C1561 C1557 1.495 . S
C1561 H1567 0.959 . S
C1561 H1568 0.961 . S
C1561 H1569 0.960 . S
C1562 C1560 1.381 . S
C1562 C1563 1.394 . S
C1562 H1570 0.930 . S
C1563 C1562 1.394 . S
C1563 C1564 1.383 . S
C1563 H1571 0.929 . S
C1564 C1563 1.383 . S
C1564 C1565 1.377 . S
C1565 H1549 0.930 . S
C1565 C1564 1.377 . S
C1565 C1566 1.379 . S
C1566 H1550 0.931 . S
C1566 C1560 1.383 . S
C1566 C1565 1.379 . S
H1567 C1561 0.959 . S
H1568 C1561 0.961 . S
H1569 C1561 0.960 . S
H1570 C1562 0.930 . S
H1571 C1563 0.929 . S
H1572 C1580 0.929 . S
H1573 C1582 0.930 . S
H1574 C1584 0.930 . S
H1575 C1587 0.929 . S
H1576 C1590 0.930 . S
H1577 C1592 0.960 . S
H1578 C1592 0.960 . S
H1579 C1592 0.960 . S
C1580 H1572 0.929 . S
C1580 C1581 1.377 . S
C1580 C1582 1.384 . S
C1581 C1580 1.377 . S
C1581 C1587 1.390 . S
C1582 H1573 0.930 . S
C1582 C1580 1.384 . S
C1582 C1583 1.372 . S
C1583 C1582 1.372 . S
C1583 C1584 1.400 . S
C1583 C1588 1.490 . S
C1584 H1574 0.930 . S
C1584 C1583 1.400 . S
C1584 C1587 1.386 . S
H1585 C1601 0.930 . S
H1586 C1602 0.931 . S
C1587 H1575 0.929 . S
C1587 C1581 1.390 . S
C1587 C1584 1.386 . S
C1588 C1583 1.490 . S
C1588 C1590 1.395 . S
C1588 C1591 1.403 . S
H1589 C1595 0.930 . S
C1590 H1576 0.930 . S
C1590 C1588 1.395 . S
C1590 C1593 1.403 . S
C1591 C1588 1.403 . S
C1591 C1592 1.524 . S
C1591 C1595 1.400 . S
C1592 H1577 0.960 . S
C1592 H1578 0.960 . S
C1592 H1579 0.960 . S
C1592 C1591 1.524 . S
C1593 C1590 1.403 . S
C1593 C1594 1.392 . S
C1593 C1597 1.495 . S
C1594 C1593 1.392 . S
C1594 C1595 1.385 . S
C1594 C1596 1.478 . S
C1595 H1589 0.930 . S
C1595 C1591 1.400 . S
C1595 C1594 1.385 . S
C1596 C1594 1.478 . S
C1596 C1598 1.381 . S
C1596 C1602 1.383 . S
C1597 C1593 1.495 . S
C1597 H1603 0.959 . S
C1597 H1604 0.961 . S
C1597 H1605 0.960 . S
C1598 C1596 1.381 . S
C1598 C1599 1.394 . S
C1598 H1606 0.930 . S
C1599 C1598 1.394 . S
C1599 C1600 1.383 . S
C1599 H1607 0.929 . S
C1600 C1599 1.383 . S
C1600 C1601 1.377 . S
C1601 H1585 0.930 . S
C1601 C1600 1.377 . S
C1601 C1602 1.379 . S
C1602 H1586 0.931 . S
C1602 C1596 1.383 . S
C1602 C1601 1.379 . S
H1603 C1597 0.959 . S
H1604 C1597 0.961 . S
H1605 C1597 0.960 . S
H1606 C1598 0.930 . S
H1607 C1599 0.929 . S
H1608 C1616 0.929 . S
H1609 C1618 0.930 . S
H1610 C1620 0.930 . S
H1611 C1623 0.929 . S
H1612 C1626 0.930 . S
H1613 C1628 0.960 . S
H1614 C1628 0.960 . S
H1615 C1628 0.960 . S
C1616 H1608 0.929 . S
C1616 C1617 1.377 . S
C1616 C1618 1.384 . S
C1617 C1616 1.377 . S
C1617 C1623 1.390 . S
C1618 H1609 0.930 . S
C1618 C1616 1.384 . S
C1618 C1619 1.372 . S
C1619 C1618 1.372 . S
C1619 C1620 1.400 . S
C1619 C1624 1.490 . S
C1620 H1610 0.930 . S
C1620 C1619 1.400 . S
C1620 C1623 1.386 . S
H1621 C1637 0.930 . S
H1622 C1638 0.931 . S
C1623 H1611 0.929 . S
C1623 C1617 1.390 . S
C1623 C1620 1.386 . S
C1624 C1619 1.490 . S
C1624 C1626 1.395 . S
C1624 C1627 1.403 . S
H1625 C1631 0.930 . S
C1626 H1612 0.930 . S
C1626 C1624 1.395 . S
C1626 C1629 1.403 . S
C1627 C1624 1.403 . S
C1627 C1628 1.524 . S
C1627 C1631 1.400 . S
C1628 H1613 0.960 . S
C1628 H1614 0.960 . S
C1628 H1615 0.960 . S
C1628 C1627 1.524 . S
C1629 C1626 1.403 . S
C1629 C1630 1.392 . S
C1629 C1633 1.495 . S
C1630 C1629 1.392 . S
C1630 C1631 1.385 . S
C1630 C1632 1.478 . S
C1631 H1625 0.930 . S
C1631 C1627 1.400 . S
C1631 C1630 1.385 . S
C1632 C1630 1.478 . S
C1632 C1634 1.381 . S
C1632 C1638 1.383 . S
C1633 C1629 1.495 . S
C1633 H1639 0.959 . S
C1633 H1640 0.961 . S
C1633 H1641 0.960 . S
C1634 C1632 1.381 . S
C1634 C1635 1.394 . S
C1634 H1642 0.930 . S
C1635 C1634 1.394 . S
C1635 C1636 1.383 . S
C1635 H1643 0.929 . S
C1636 C1635 1.383 . S
C1636 C1637 1.377 . S
C1637 H1621 0.930 . S
C1637 C1636 1.377 . S
C1637 C1638 1.379 . S
C1638 H1622 0.931 . S
C1638 C1632 1.383 . S
C1638 C1637 1.379 . S
H1639 C1633 0.959 . S
H1640 C1633 0.961 . S
H1641 C1633 0.960 . S
H1642 C1634 0.930 . S
H1643 C1635 0.929 . S
H1644 C1652 0.929 . S
H1645 C1654 0.930 . S
H1646 C1656 0.930 . S
H1647 C1659 0.929 . S
H1648 C1662 0.930 . S
H1649 C1664 0.960 . S
H1650 C1664 0.960 . S
H1651 C1664 0.960 . S
C1652 H1644 0.929 . S
C1652 C1653 1.377 . S
C1652 C1654 1.384 . S
C1653 C1652 1.377 . S
C1653 C1659 1.390 . S
C1654 H1645 0.930 . S
C1654 C1652 1.384 . S
C1654 C1655 1.372 . S
C1655 C1654 1.372 . S
C1655 C1656 1.400 . S
C1655 C1660 1.490 . S
C1656 H1646 0.930 . S
C1656 C1655 1.400 . S
C1656 C1659 1.386 . S
H1657 C1673 0.930 . S
H1658 C1674 0.931 . S
C1659 H1647 0.929 . S
C1659 C1653 1.390 . S
C1659 C1656 1.386 . S
C1660 C1655 1.490 . S
C1660 C1662 1.395 . S
C1660 C1663 1.403 . S
H1661 C1667 0.930 . S
C1662 H1648 0.930 . S
C1662 C1660 1.395 . S
C1662 C1665 1.403 . S
C1663 C1660 1.403 . S
C1663 C1664 1.524 . S
C1663 C1667 1.400 . S
C1664 H1649 0.960 . S
C1664 H1650 0.960 . S
C1664 H1651 0.960 . S
C1664 C1663 1.524 . S
C1665 C1662 1.403 . S
C1665 C1666 1.392 . S
C1665 C1669 1.495 . S
C1666 C1665 1.392 . S
C1666 C1667 1.385 . S
C1666 C1668 1.478 . S
C1667 H1661 0.930 . S
C1667 C1663 1.400 . S
C1667 C1666 1.385 . S
C1668 C1666 1.478 . S
C1668 C1670 1.381 . S
C1668 C1674 1.383 . S
C1669 C1665 1.495 . S
C1669 H1675 0.959 . S
C1669 H1676 0.961 . S
C1669 H1677 0.960 . S
C1670 C1668 1.381 . S
C1670 C1671 1.394 . S
C1670 H1678 0.930 . S
C1671 C1670 1.394 . S
C1671 C1672 1.383 . S
C1671 H1679 0.929 . S
C1672 C1671 1.383 . S
C1672 C1673 1.377 . S
C1673 H1657 0.930 . S
C1673 C1672 1.377 . S
C1673 C1674 1.379 . S
C1674 H1658 0.931 . S
C1674 C1668 1.383 . S
C1674 C1673 1.379 . S
H1675 C1669 0.959 . S
H1676 C1669 0.961 . S
H1677 C1669 0.960 . S
H1678 C1670 0.930 . S
H1679 C1671 0.929 . S
H1680 C1688 0.929 . S
H1681 C1690 0.930 . S
H1682 C1692 0.930 . S
H1683 C1695 0.929 . S
H1684 C1698 0.930 . S
H1685 C1700 0.960 . S
H1686 C1700 0.960 . S
H1687 C1700 0.960 . S
C1688 H1680 0.929 . S
C1688 C1689 1.377 . S
C1688 C1690 1.384 . S
C1689 C1688 1.377 . S
C1689 C1695 1.390 . S
C1690 H1681 0.930 . S
C1690 C1688 1.384 . S
C1690 C1691 1.372 . S
C1691 C1690 1.372 . S
C1691 C1692 1.400 . S
C1691 C1696 1.490 . S
C1692 H1682 0.930 . S
C1692 C1691 1.400 . S
C1692 C1695 1.386 . S
H1693 C1709 0.930 . S
H1694 C1710 0.931 . S
C1695 H1683 0.929 . S
C1695 C1689 1.390 . S
C1695 C1692 1.386 . S
C1696 C1691 1.490 . S
C1696 C1698 1.395 . S
C1696 C1699 1.403 . S
H1697 C1703 0.930 . S
C1698 H1684 0.930 . S
C1698 C1696 1.395 . S
C1698 C1701 1.403 . S
C1699 C1696 1.403 . S
C1699 C1700 1.524 . S
C1699 C1703 1.400 . S
C1700 H1685 0.960 . S
C1700 H1686 0.960 . S
C1700 H1687 0.960 . S
C1700 C1699 1.524 . S
C1701 C1698 1.403 . S
C1701 C1702 1.392 . S
C1701 C1705 1.495 . S
C1702 C1701 1.392 . S
C1702 C1703 1.385 . S
C1702 C1704 1.478 . S
C1703 H1697 0.930 . S
C1703 C1699 1.400 . S
C1703 C1702 1.385 . S
C1704 C1702 1.478 . S
C1704 C1706 1.381 . S
C1704 C1710 1.383 . S
C1705 C1701 1.495 . S
C1705 H1711 0.959 . S
C1705 H1712 0.961 . S
C1705 H1713 0.960 . S
C1706 C1704 1.381 . S
C1706 C1707 1.394 . S
C1706 H1714 0.930 . S
C1707 C1706 1.394 . S
C1707 C1708 1.383 . S
C1707 H1715 0.929 . S
C1708 C1707 1.383 . S
C1708 C1709 1.377 . S
C1709 H1693 0.930 . S
C1709 C1708 1.377 . S
C1709 C1710 1.379 . S
C1710 H1694 0.931 . S
C1710 C1704 1.383 . S
C1710 C1709 1.379 . S
H1711 C1705 0.959 . S
H1712 C1705 0.961 . S
H1713 C1705 0.960 . S
H1714 C1706 0.930 . S
H1715 C1707 0.929 . S
H1716 C1724 0.929 . S
H1717 C1726 0.930 . S
H1718 C1728 0.930 . S
H1719 C1731 0.929 . S
H1720 C1734 0.930 . S
H1721 C1736 0.960 . S
H1722 C1736 0.960 . S
H1723 C1736 0.960 . S
C1724 H1716 0.929 . S
C1724 C1725 1.377 . S
C1724 C1726 1.384 . S
C1725 C1724 1.377 . S
C1725 C1731 1.390 . S
C1726 H1717 0.930 . S
C1726 C1724 1.384 . S
C1726 C1727 1.372 . S
C1727 C1726 1.372 . S
C1727 C1728 1.400 . S
C1727 C1732 1.490 . S
C1728 H1718 0.930 . S
C1728 C1727 1.400 . S
C1728 C1731 1.386 . S
H1729 C1745 0.930 . S
H1730 C1746 0.931 . S
C1731 H1719 0.929 . S
C1731 C1725 1.390 . S
C1731 C1728 1.386 . S
C1732 C1727 1.490 . S
C1732 C1734 1.395 . S
C1732 C1735 1.403 . S
H1733 C1739 0.930 . S
C1734 H1720 0.930 . S
C1734 C1732 1.395 . S
C1734 C1737 1.403 . S
C1735 C1732 1.403 . S
C1735 C1736 1.524 . S
C1735 C1739 1.400 . S
C1736 H1721 0.960 . S
C1736 H1722 0.960 . S
C1736 H1723 0.960 . S
C1736 C1735 1.524 . S
C1737 C1734 1.403 . S
C1737 C1738 1.392 . S
C1737 C1741 1.495 . S
C1738 C1737 1.392 . S
C1738 C1739 1.385 . S
C1738 C1740 1.478 . S
C1739 H1733 0.930 . S
C1739 C1735 1.400 . S
C1739 C1738 1.385 . S
C1740 C1738 1.478 . S
C1740 C1742 1.381 . S
C1740 C1746 1.383 . S
C1741 C1737 1.495 . S
C1741 H1747 0.959 . S
C1741 H1748 0.961 . S
C1741 H1749 0.960 . S
C1742 C1740 1.381 . S
C1742 C1743 1.394 . S
C1742 H1750 0.930 . S
C1743 C1742 1.394 . S
C1743 C1744 1.383 . S
C1743 H1751 0.929 . S
C1744 C1743 1.383 . S
C1744 C1745 1.377 . S
C1745 H1729 0.930 . S
C1745 C1744 1.377 . S
C1745 C1746 1.379 . S
C1746 H1730 0.931 . S
C1746 C1740 1.383 . S
C1746 C1745 1.379 . S
H1747 C1741 0.959 . S
H1748 C1741 0.961 . S
H1749 C1741 0.960 . S
H1750 C1742 0.930 . S
H1751 C1743 0.929 . S
H1752 C1760 0.929 . S
H1753 C1762 0.930 . S
H1754 C1764 0.930 . S
H1755 C1767 0.929 . S
H1756 C1770 0.930 . S
H1757 C1772 0.960 . S
H1758 C1772 0.960 . S
H1759 C1772 0.960 . S
C1760 H1752 0.929 . S
C1760 C1761 1.377 . S
C1760 C1762 1.384 . S
C1761 C1760 1.377 . S
C1761 C1767 1.390 . S
C1762 H1753 0.930 . S
C1762 C1760 1.384 . S
C1762 C1763 1.372 . S
C1763 C1762 1.372 . S
C1763 C1764 1.400 . S
C1763 C1768 1.490 . S
C1764 H1754 0.930 . S
C1764 C1763 1.400 . S
C1764 C1767 1.386 . S
H1765 C1781 0.930 . S
H1766 C1782 0.931 . S
C1767 H1755 0.929 . S
C1767 C1761 1.390 . S
C1767 C1764 1.386 . S
C1768 C1763 1.490 . S
C1768 C1770 1.395 . S
C1768 C1771 1.403 . S
H1769 C1775 0.930 . S
C1770 H1756 0.930 . S
C1770 C1768 1.395 . S
C1770 C1773 1.403 . S
C1771 C1768 1.403 . S
C1771 C1772 1.524 . S
C1771 C1775 1.400 . S
C1772 H1757 0.960 . S
C1772 H1758 0.960 . S
C1772 H1759 0.960 . S
C1772 C1771 1.524 . S
C1773 C1770 1.403 . S
C1773 C1774 1.392 . S
C1773 C1777 1.495 . S
C1774 C1773 1.392 . S
C1774 C1775 1.385 . S
C1774 C1776 1.478 . S
C1775 H1769 0.930 . S
C1775 C1771 1.400 . S
C1775 C1774 1.385 . S
C1776 C1774 1.478 . S
C1776 C1778 1.381 . S
C1776 C1782 1.383 . S
C1777 C1773 1.495 . S
C1777 H1783 0.959 . S
C1777 H1784 0.961 . S
C1777 H1785 0.960 . S
C1778 C1776 1.381 . S
C1778 C1779 1.394 . S
C1778 H1786 0.930 . S
C1779 C1778 1.394 . S
C1779 C1780 1.383 . S
C1779 H1787 0.929 . S
C1780 C1779 1.383 . S
C1780 C1781 1.377 . S
C1781 H1765 0.930 . S
C1781 C1780 1.377 . S
C1781 C1782 1.379 . S
C1782 H1766 0.931 . S
C1782 C1776 1.383 . S
C1782 C1781 1.379 . S
H1783 C1777 0.959 . S
H1784 C1777 0.961 . S
H1785 C1777 0.960 . S
H1786 C1778 0.930 . S
H1787 C1779 0.929 . S
H1788 C1796 0.929 . S
H1789 C1798 0.930 . S
H1790 C1800 0.930 . S
H1791 C1803 0.929 . S
H1792 C1806 0.930 . S
H1793 C1808 0.960 . S
H1794 C1808 0.960 . S
H1795 C1808 0.960 . S
C1796 H1788 0.929 . S
C1796 C1797 1.377 . S
C1796 C1798 1.384 . S
C1797 C1796 1.377 . S
C1797 C1803 1.390 . S
C1798 H1789 0.930 . S
C1798 C1796 1.384 . S
C1798 C1799 1.372 . S
C1799 C1798 1.372 . S
C1799 C1800 1.400 . S
C1799 C1804 1.490 . S
C1800 H1790 0.930 . S
C1800 C1799 1.400 . S
C1800 C1803 1.386 . S
H1801 C1817 0.930 . S
H1802 C1818 0.931 . S
C1803 H1791 0.929 . S
C1803 C1797 1.390 . S
C1803 C1800 1.386 . S
C1804 C1799 1.490 . S
C1804 C1806 1.395 . S
C1804 C1807 1.403 . S
H1805 C1811 0.930 . S
C1806 H1792 0.930 . S
C1806 C1804 1.395 . S
C1806 C1809 1.403 . S
C1807 C1804 1.403 . S
C1807 C1808 1.524 . S
C1807 C1811 1.400 . S
C1808 H1793 0.960 . S
C1808 H1794 0.960 . S
C1808 H1795 0.960 . S
C1808 C1807 1.524 . S
C1809 C1806 1.403 . S
C1809 C1810 1.392 . S
C1809 C1813 1.495 . S
C1810 C1809 1.392 . S
C1810 C1811 1.385 . S
C1810 C1812 1.478 . S
C1811 H1805 0.930 . S
C1811 C1807 1.400 . S
C1811 C1810 1.385 . S
C1812 C1810 1.478 . S
C1812 C1814 1.381 . S
C1812 C1818 1.383 . S
C1813 C1809 1.495 . S
C1813 H1819 0.959 . S
C1813 H1820 0.961 . S
C1813 H1821 0.960 . S
C1814 C1812 1.381 . S
C1814 C1815 1.394 . S
C1814 H1822 0.930 . S
C1815 C1814 1.394 . S
C1815 C1816 1.383 . S
C1815 H1823 0.929 . S
C1816 C1815 1.383 . S
C1816 C1817 1.377 . S
C1817 H1801 0.930 . S
C1817 C1816 1.377 . S
C1817 C1818 1.379 . S
C1818 H1802 0.931 . S
C1818 C1812 1.383 . S
C1818 C1817 1.379 . S
H1819 C1813 0.959 . S
H1820 C1813 0.961 . S
H1821 C1813 0.960 . S
H1822 C1814 0.930 . S
H1823 C1815 0.929 . S
H1824 C1832 0.929 . S
H1825 C1834 0.930 . S
H1826 C1836 0.930 . S
H1827 C1839 0.929 . S
H1828 C1842 0.930 . S
H1829 C1844 0.960 . S
H1830 C1844 0.960 . S
H1831 C1844 0.960 . S
C1832 H1824 0.929 . S
C1832 C1833 1.377 . S
C1832 C1834 1.384 . S
C1833 C1832 1.377 . S
C1833 C1839 1.390 . S
C1834 H1825 0.930 . S
C1834 C1832 1.384 . S
C1834 C1835 1.372 . S
C1835 C1834 1.372 . S
C1835 C1836 1.400 . S
C1835 C1840 1.490 . S
C1836 H1826 0.930 . S
C1836 C1835 1.400 . S
C1836 C1839 1.386 . S
H1837 C1853 0.930 . S
H1838 C1854 0.931 . S
C1839 H1827 0.929 . S
C1839 C1833 1.390 . S
C1839 C1836 1.386 . S
C1840 C1835 1.490 . S
C1840 C1842 1.395 . S
C1840 C1843 1.403 . S
H1841 C1847 0.930 . S
C1842 H1828 0.930 . S
C1842 C1840 1.395 . S
C1842 C1845 1.403 . S
C1843 C1840 1.403 . S
C1843 C1844 1.524 . S
C1843 C1847 1.400 . S
C1844 H1829 0.960 . S
C1844 H1830 0.960 . S
C1844 H1831 0.960 . S
C1844 C1843 1.524 . S
C1845 C1842 1.403 . S
C1845 C1846 1.392 . S
C1845 C1849 1.495 . S
C1846 C1845 1.392 . S
C1846 C1847 1.385 . S
C1846 C1848 1.478 . S
C1847 H1841 0.930 . S
C1847 C1843 1.400 . S
C1847 C1846 1.385 . S
C1848 C1846 1.478 . S
C1848 C1850 1.381 . S
C1848 C1854 1.383 . S
C1849 C1845 1.495 . S
C1849 H1855 0.959 . S
C1849 H1856 0.961 . S
C1849 H1857 0.960 . S
C1850 C1848 1.381 . S
C1850 C1851 1.394 . S
C1850 H1858 0.930 . S
C1851 C1850 1.394 . S
C1851 C1852 1.383 . S
C1851 H1859 0.929 . S
C1852 C1851 1.383 . S
C1852 C1853 1.377 . S
C1853 H1837 0.930 . S
C1853 C1852 1.377 . S
C1853 C1854 1.379 . S
C1854 H1838 0.931 . S
C1854 C1848 1.383 . S
C1854 C1853 1.379 . S
H1855 C1849 0.959 . S
H1856 C1849 0.961 . S
H1857 C1849 0.960 . S
H1858 C1850 0.930 . S
H1859 C1851 0.929 . S
H1860 C1868 0.929 . S
H1861 C1870 0.930 . S
H1862 C1872 0.930 . S
H1863 C1875 0.929 . S
H1864 C1878 0.930 . S
H1865 C1880 0.960 . S
H1866 C1880 0.960 . S
H1867 C1880 0.960 . S
C1868 H1860 0.929 . S
C1868 C1869 1.377 . S
C1868 C1870 1.384 . S
C1869 C1868 1.377 . S
C1869 C1875 1.390 . S
C1870 H1861 0.930 . S
C1870 C1868 1.384 . S
C1870 C1871 1.372 . S
C1871 C1870 1.372 . S
C1871 C1872 1.400 . S
C1871 C1876 1.490 . S
C1872 H1862 0.930 . S
C1872 C1871 1.400 . S
C1872 C1875 1.386 . S
H1873 C1889 0.930 . S
H1874 C1890 0.931 . S
C1875 H1863 0.929 . S
C1875 C1869 1.390 . S
C1875 C1872 1.386 . S
C1876 C1871 1.490 . S
C1876 C1878 1.395 . S
C1876 C1879 1.403 . S
H1877 C1883 0.930 . S
C1878 H1864 0.930 . S
C1878 C1876 1.395 . S
C1878 C1881 1.403 . S
C1879 C1876 1.403 . S
C1879 C1880 1.524 . S
C1879 C1883 1.400 . S
C1880 H1865 0.960 . S
C1880 H1866 0.960 . S
C1880 H1867 0.960 . S
C1880 C1879 1.524 . S
C1881 C1878 1.403 . S
C1881 C1882 1.392 . S
C1881 C1885 1.495 . S
C1882 C1881 1.392 . S
C1882 C1883 1.385 . S
C1882 C1884 1.478 . S
C1883 H1877 0.930 . S
C1883 C1879 1.400 . S
C1883 C1882 1.385 . S
C1884 C1882 1.478 . S
C1884 C1886 1.381 . S
C1884 C1890 1.383 . S
C1885 C1881 1.495 . S
C1885 H1891 0.959 . S
C1885 H1892 0.961 . S
C1885 H1893 0.960 . S
C1886 C1884 1.381 . S
C1886 C1887 1.394 . S
C1886 H1894 0.930 . S
C1887 C1886 1.394 . S
C1887 C1888 1.383 . S
C1887 H1895 0.929 . S
C1888 C1887 1.383 . S
C1888 C1889 1.377 . S
C1889 H1873 0.930 . S
C1889 C1888 1.377 . S
C1889 C1890 1.379 . S
C1890 H1874 0.931 . S
C1890 C1884 1.383 . S
C1890 C1889 1.379 . S
H1891 C1885 0.959 . S
H1892 C1885 0.961 . S
H1893 C1885 0.960 . S
H1894 C1886 0.930 . S
H1895 C1887 0.929 . S
H1896 C1904 0.929 . S
H1897 C1906 0.930 . S
H1898 C1908 0.930 . S
H1899 C1911 0.929 . S
H1900 C1914 0.930 . S
H1901 C1916 0.960 . S
H1902 C1916 0.960 . S
H1903 C1916 0.960 . S
C1904 H1896 0.929 . S
C1904 C1905 1.377 . S
C1904 C1906 1.384 . S
C1905 C1904 1.377 . S
C1905 C1911 1.390 . S
C1906 H1897 0.930 . S
C1906 C1904 1.384 . S
C1906 C1907 1.372 . S
C1907 C1906 1.372 . S
C1907 C1908 1.400 . S
C1907 C1912 1.490 . S
C1908 H1898 0.930 . S
C1908 C1907 1.400 . S
C1908 C1911 1.386 . S
H1909 C1925 0.930 . S
H1910 C1926 0.931 . S
C1911 H1899 0.929 . S
C1911 C1905 1.390 . S
C1911 C1908 1.386 . S
C1912 C1907 1.490 . S
C1912 C1914 1.395 . S
C1912 C1915 1.403 . S
H1913 C1919 0.930 . S
C1914 H1900 0.930 . S
C1914 C1912 1.395 . S
C1914 C1917 1.403 . S
C1915 C1912 1.403 . S
C1915 C1916 1.524 . S
C1915 C1919 1.400 . S
C1916 H1901 0.960 . S
C1916 H1902 0.960 . S
C1916 H1903 0.960 . S
C1916 C1915 1.524 . S
C1917 C1914 1.403 . S
C1917 C1918 1.392 . S
C1917 C1921 1.495 . S
C1918 C1917 1.392 . S
C1918 C1919 1.385 . S
C1918 C1920 1.478 . S
C1919 H1913 0.930 . S
C1919 C1915 1.400 . S
C1919 C1918 1.385 . S
C1920 C1918 1.478 . S
C1920 C1922 1.381 . S
C1920 C1926 1.383 . S
C1921 C1917 1.495 . S
C1921 H1927 0.959 . S
C1921 H1928 0.961 . S
C1921 H1929 0.960 . S
C1922 C1920 1.381 . S
C1922 C1923 1.394 . S
C1922 H1930 0.930 . S
C1923 C1922 1.394 . S
C1923 C1924 1.383 . S
C1923 H1931 0.929 . S
C1924 C1923 1.383 . S
C1924 C1925 1.377 . S
C1925 H1909 0.930 . S
C1925 C1924 1.377 . S
C1925 C1926 1.379 . S
C1926 H1910 0.931 . S
C1926 C1920 1.383 . S
C1926 C1925 1.379 . S
H1927 C1921 0.959 . S
H1928 C1921 0.961 . S
H1929 C1921 0.960 . S
H1930 C1922 0.930 . S
H1931 C1923 0.929 . S
H1932 C1940 0.929 . S
H1933 C1942 0.930 . S
H1934 C1944 0.930 . S
H1935 C1947 0.929 . S
H1936 C1950 0.930 . S
H1937 C1952 0.960 . S
H1938 C1952 0.960 . S
H1939 C1952 0.960 . S
C1940 H1932 0.929 . S
C1940 C1941 1.377 . S
C1940 C1942 1.384 . S
C1941 C1940 1.377 . S
C1941 C1947 1.390 . S
C1942 H1933 0.930 . S
C1942 C1940 1.384 . S
C1942 C1943 1.372 . S
C1943 C1942 1.372 . S
C1943 C1944 1.400 . S
C1943 C1948 1.490 . S
C1944 H1934 0.930 . S
C1944 C1943 1.400 . S
C1944 C1947 1.386 . S
H1945 C1961 0.930 . S
H1946 C1962 0.931 . S
C1947 H1935 0.929 . S
C1947 C1941 1.390 . S
C1947 C1944 1.386 . S
C1948 C1943 1.490 . S
C1948 C1950 1.395 . S
C1948 C1951 1.403 . S
H1949 C1955 0.930 . S
C1950 H1936 0.930 . S
C1950 C1948 1.395 . S
C1950 C1953 1.403 . S
C1951 C1948 1.403 . S
C1951 C1952 1.524 . S
C1951 C1955 1.400 . S
C1952 H1937 0.960 . S
C1952 H1938 0.960 . S
C1952 H1939 0.960 . S
C1952 C1951 1.524 . S
C1953 C1950 1.403 . S
C1953 C1954 1.392 . S
C1953 C1957 1.495 . S
C1954 C1953 1.392 . S
C1954 C1955 1.385 . S
C1954 C1956 1.478 . S
C1955 H1949 0.930 . S
C1955 C1951 1.400 . S
C1955 C1954 1.385 . S
C1956 C1954 1.478 . S
C1956 C1958 1.381 . S
C1956 C1962 1.383 . S
C1957 C1953 1.495 . S
C1957 H1963 0.959 . S
C1957 H1964 0.961 . S
C1957 H1965 0.960 . S
C1958 C1956 1.381 . S
C1958 C1959 1.394 . S
C1958 H1966 0.930 . S
C1959 C1958 1.394 . S
C1959 C1960 1.383 . S
C1959 H1967 0.929 . S
C1960 C1959 1.383 . S
C1960 C1961 1.377 . S
C1961 H1945 0.930 . S
C1961 C1960 1.377 . S
C1961 C1962 1.379 . S
C1962 H1946 0.931 . S
C1962 C1956 1.383 . S
C1962 C1961 1.379 . S
H1963 C1957 0.959 . S
H1964 C1957 0.961 . S
H1965 C1957 0.960 . S
H1966 C1958 0.930 . S
H1967 C1959 0.929 . S
H1968 C1976 0.929 . S
H1969 C1978 0.930 . S
H1970 C1980 0.930 . S
H1971 C1983 0.929 . S
H1972 C1986 0.930 . S
H1973 C1988 0.960 . S
H1974 C1988 0.960 . S
H1975 C1988 0.960 . S
C1976 H1968 0.929 . S
C1976 C1977 1.377 . S
C1976 C1978 1.384 . S
C1977 C1976 1.377 . S
C1977 C1983 1.390 . S
C1978 H1969 0.930 . S
C1978 C1976 1.384 . S
C1978 C1979 1.372 . S
C1979 C1978 1.372 . S
C1979 C1980 1.400 . S
C1979 C1984 1.490 . S
C1980 H1970 0.930 . S
C1980 C1979 1.400 . S
C1980 C1983 1.386 . S
H1981 C1997 0.930 . S
H1982 C1998 0.931 . S
C1983 H1971 0.929 . S
C1983 C1977 1.390 . S
C1983 C1980 1.386 . S
C1984 C1979 1.490 . S
C1984 C1986 1.395 . S
C1984 C1987 1.403 . S
H1985 C1991 0.930 . S
C1986 H1972 0.930 . S
C1986 C1984 1.395 . S
C1986 C1989 1.403 . S
C1987 C1984 1.403 . S
C1987 C1988 1.524 . S
C1987 C1991 1.400 . S
C1988 H1973 0.960 . S
C1988 H1974 0.960 . S
C1988 H1975 0.960 . S
C1988 C1987 1.524 . S
C1989 C1986 1.403 . S
C1989 C1990 1.392 . S
C1989 C1993 1.495 . S
C1990 C1989 1.392 . S
C1990 C1991 1.385 . S
C1990 C1992 1.478 . S
C1991 H1985 0.930 . S
C1991 C1987 1.400 . S
C1991 C1990 1.385 . S
C1992 C1990 1.478 . S
C1992 C1994 1.381 . S
C1992 C1998 1.383 . S
C1993 C1989 1.495 . S
C1993 H1999 0.959 . S
C1993 H2000 0.961 . S
C1993 H2001 0.960 . S
C1994 C1992 1.381 . S
C1994 C1995 1.394 . S
C1994 H2002 0.930 . S
C1995 C1994 1.394 . S
C1995 C1996 1.383 . S
C1995 H2003 0.929 . S
C1996 C1995 1.383 . S
C1996 C1997 1.377 . S
C1997 H1981 0.930 . S
C1997 C1996 1.377 . S
C1997 C1998 1.379 . S
C1998 H1982 0.931 . S
C1998 C1992 1.383 . S
C1998 C1997 1.379 . S
H1999 C1993 0.959 . S
H2000 C1993 0.961 . S
H2001 C1993 0.960 . S
H2002 C1994 0.930 . S
H2003 C1995 0.929 . S
H2004 C2012 0.929 . S
H2005 C2014 0.930 . S
H2006 C2016 0.930 . S
H2007 C2019 0.929 . S
H2008 C2022 0.930 . S
H2009 C2024 0.960 . S
H2010 C2024 0.960 . S
H2011 C2024 0.960 . S
C2012 H2004 0.929 . S
C2012 C2013 1.377 . S
C2012 C2014 1.384 . S
C2013 C2012 1.377 . S
C2013 C2019 1.390 . S
C2014 H2005 0.930 . S
C2014 C2012 1.384 . S
C2014 C2015 1.372 . S
C2015 C2014 1.372 . S
C2015 C2016 1.400 . S
C2015 C2020 1.490 . S
C2016 H2006 0.930 . S
C2016 C2015 1.400 . S
C2016 C2019 1.386 . S
H2017 C2033 0.930 . S
H2018 C2034 0.931 . S
C2019 H2007 0.929 . S
C2019 C2013 1.390 . S
C2019 C2016 1.386 . S
C2020 C2015 1.490 . S
C2020 C2022 1.395 . S
C2020 C2023 1.403 . S
H2021 C2027 0.930 . S
C2022 H2008 0.930 . S
C2022 C2020 1.395 . S
C2022 C2025 1.403 . S
C2023 C2020 1.403 . S
C2023 C2024 1.524 . S
C2023 C2027 1.400 . S
C2024 H2009 0.960 . S
C2024 H2010 0.960 . S
C2024 H2011 0.960 . S
C2024 C2023 1.524 . S
C2025 C2022 1.403 . S
C2025 C2026 1.392 . S
C2025 C2029 1.495 . S
C2026 C2025 1.392 . S
C2026 C2027 1.385 . S
C2026 C2028 1.478 . S
C2027 H2021 0.930 . S
C2027 C2023 1.400 . S
C2027 C2026 1.385 . S
C2028 C2026 1.478 . S
C2028 C2030 1.381 . S
C2028 C2034 1.383 . S
C2029 C2025 1.495 . S
C2029 H2035 0.959 . S
C2029 H2036 0.961 . S
C2029 H2037 0.960 . S
C2030 C2028 1.381 . S
C2030 C2031 1.394 . S
C2030 H2038 0.930 . S
C2031 C2030 1.394 . S
C2031 C2032 1.383 . S
C2031 H2039 0.929 . S
C2032 C2031 1.383 . S
C2032 C2033 1.377 . S
C2033 H2017 0.930 . S
C2033 C2032 1.377 . S
C2033 C2034 1.379 . S
C2034 H2018 0.931 . S
C2034 C2028 1.383 . S
C2034 C2033 1.379 . S
H2035 C2029 0.959 . S
H2036 C2029 0.961 . S
H2037 C2029 0.960 . S
H2038 C2030 0.930 . S
H2039 C2031 0.929 . S
H2040 C2048 0.929 . S
H2041 C2050 0.930 . S
H2042 C2052 0.930 . S
H2043 C2055 0.929 . S
H2044 C2058 0.930 . S
H2045 C2060 0.960 . S
H2046 C2060 0.960 . S
H2047 C2060 0.960 . S
C2048 H2040 0.929 . S
C2048 C2049 1.377 . S
C2048 C2050 1.384 . S
C2049 C2048 1.377 . S
C2049 C2055 1.390 . S
C2050 H2041 0.930 . S
C2050 C2048 1.384 . S
C2050 C2051 1.372 . S
C2051 C2050 1.372 . S
C2051 C2052 1.400 . S
C2051 C2056 1.490 . S
C2052 H2042 0.930 . S
C2052 C2051 1.400 . S
C2052 C2055 1.386 . S
H2053 C2069 0.930 . S
H2054 C2070 0.931 . S
C2055 H2043 0.929 . S
C2055 C2049 1.390 . S
C2055 C2052 1.386 . S
C2056 C2051 1.490 . S
C2056 C2058 1.395 . S
C2056 C2059 1.403 . S
H2057 C2063 0.930 . S
C2058 H2044 0.930 . S
C2058 C2056 1.395 . S
C2058 C2061 1.403 . S
C2059 C2056 1.403 . S
C2059 C2060 1.524 . S
C2059 C2063 1.400 . S
C2060 H2045 0.960 . S
C2060 H2046 0.960 . S
C2060 H2047 0.960 . S
C2060 C2059 1.524 . S
C2061 C2058 1.403 . S
C2061 C2062 1.392 . S
C2061 C2065 1.495 . S
C2062 C2061 1.392 . S
C2062 C2063 1.385 . S
C2062 C2064 1.478 . S
C2063 H2057 0.930 . S
C2063 C2059 1.400 . S
C2063 C2062 1.385 . S
C2064 C2062 1.478 . S
C2064 C2066 1.381 . S
C2064 C2070 1.383 . S
C2065 C2061 1.495 . S
C2065 H2071 0.959 . S
C2065 H2072 0.961 . S
C2065 H2073 0.960 . S
C2066 C2064 1.381 . S
C2066 C2067 1.394 . S
C2066 H2074 0.930 . S
C2067 C2066 1.394 . S
C2067 C2068 1.383 . S
C2067 H2075 0.929 . S
C2068 C2067 1.383 . S
C2068 C2069 1.377 . S
C2069 H2053 0.930 . S
C2069 C2068 1.377 . S
C2069 C2070 1.379 . S
C2070 H2054 0.931 . S
C2070 C2064 1.383 . S
C2070 C2069 1.379 . S
H2071 C2065 0.959 . S
H2072 C2065 0.961 . S
H2073 C2065 0.960 . S
H2074 C2066 0.930 . S
H2075 C2067 0.929 . S
H2076 C2084 0.929 . S
H2077 C2086 0.930 . S
H2078 C2088 0.930 . S
H2079 C2091 0.929 . S
H2080 C2094 0.930 . S
H2081 C2096 0.960 . S
H2082 C2096 0.960 . S
H2083 C2096 0.960 . S
C2084 H2076 0.929 . S
C2084 C2085 1.377 . S
C2084 C2086 1.384 . S
C2085 C2084 1.377 . S
C2085 C2091 1.390 . S
C2086 H2077 0.930 . S
C2086 C2084 1.384 . S
C2086 C2087 1.372 . S
C2087 C2086 1.372 . S
C2087 C2088 1.400 . S
C2087 C2092 1.490 . S
C2088 H2078 0.930 . S
C2088 C2087 1.400 . S
C2088 C2091 1.386 . S
H2089 C2105 0.930 . S
H2090 C2106 0.931 . S
C2091 H2079 0.929 . S
C2091 C2085 1.390 . S
C2091 C2088 1.386 . S
C2092 C2087 1.490 . S
C2092 C2094 1.395 . S
C2092 C2095 1.403 . S
H2093 C2099 0.930 . S
C2094 H2080 0.930 . S
C2094 C2092 1.395 . S
C2094 C2097 1.403 . S
C2095 C2092 1.403 . S
C2095 C2096 1.524 . S
C2095 C2099 1.400 . S
C2096 H2081 0.960 . S
C2096 H2082 0.960 . S
C2096 H2083 0.960 . S
C2096 C2095 1.524 . S
C2097 C2094 1.403 . S
C2097 C2098 1.392 . S
C2097 C2101 1.495 . S
C2098 C2097 1.392 . S
C2098 C2099 1.385 . S
C2098 C2100 1.478 . S
C2099 H2093 0.930 . S
C2099 C2095 1.400 . S
C2099 C2098 1.385 . S
C2100 C2098 1.478 . S
C2100 C2102 1.381 . S
C2100 C2106 1.383 . S
C2101 C2097 1.495 . S
C2101 H2107 0.959 . S
C2101 H2108 0.961 . S
C2101 H2109 0.960 . S
C2102 C2100 1.381 . S
C2102 C2103 1.394 . S
C2102 H2110 0.930 . S
C2103 C2102 1.394 . S
C2103 C2104 1.383 . S
C2103 H2111 0.929 . S
C2104 C2103 1.383 . S
C2104 C2105 1.377 . S
C2105 H2089 0.930 . S
C2105 C2104 1.377 . S
C2105 C2106 1.379 . S
C2106 H2090 0.931 . S
C2106 C2100 1.383 . S
C2106 C2105 1.379 . S
H2107 C2101 0.959 . S
H2108 C2101 0.961 . S
H2109 C2101 0.960 . S
H2110 C2102 0.930 . S
H2111 C2103 0.929 . S
H2112 C2120 0.929 . S
H2113 C2122 0.930 . S
H2114 C2124 0.930 . S
H2115 C2127 0.929 . S
H2116 C2130 0.930 . S
H2117 C2132 0.960 . S
H2118 C2132 0.960 . S
H2119 C2132 0.960 . S
C2120 H2112 0.929 . S
C2120 C2121 1.377 . S
C2120 C2122 1.384 . S
C2121 C2120 1.377 . S
C2121 C2127 1.390 . S
C2122 H2113 0.930 . S
C2122 C2120 1.384 . S
C2122 C2123 1.372 . S
C2123 C2122 1.372 . S
C2123 C2124 1.400 . S
C2123 C2128 1.490 . S
C2124 H2114 0.930 . S
C2124 C2123 1.400 . S
C2124 C2127 1.386 . S
H2125 C2141 0.930 . S
H2126 C2142 0.931 . S
C2127 H2115 0.929 . S
C2127 C2121 1.390 . S
C2127 C2124 1.386 . S
C2128 C2123 1.490 . S
C2128 C2130 1.395 . S
C2128 C2131 1.403 . S
H2129 C2135 0.930 . S
C2130 H2116 0.930 . S
C2130 C2128 1.395 . S
C2130 C2133 1.403 . S
C2131 C2128 1.403 . S
C2131 C2132 1.524 . S
C2131 C2135 1.400 . S
C2132 H2117 0.960 . S
C2132 H2118 0.960 . S
C2132 H2119 0.960 . S
C2132 C2131 1.524 . S
C2133 C2130 1.403 . S
C2133 C2134 1.392 . S
C2133 C2137 1.495 . S
C2134 C2133 1.392 . S
C2134 C2135 1.385 . S
C2134 C2136 1.478 . S
C2135 H2129 0.930 . S
C2135 C2131 1.400 . S
C2135 C2134 1.385 . S
C2136 C2134 1.478 . S
C2136 C2138 1.381 . S
C2136 C2142 1.383 . S
C2137 C2133 1.495 . S
C2137 H2143 0.959 . S
C2137 H2144 0.961 . S
C2137 H2145 0.960 . S
C2138 C2136 1.381 . S
C2138 C2139 1.394 . S
C2138 H2146 0.930 . S
C2139 C2138 1.394 . S
C2139 C2140 1.383 . S
C2139 H2147 0.929 . S
C2140 C2139 1.383 . S
C2140 C2141 1.377 . S
C2141 H2125 0.930 . S
C2141 C2140 1.377 . S
C2141 C2142 1.379 . S
C2142 H2126 0.931 . S
C2142 C2136 1.383 . S
C2142 C2141 1.379 . S
H2143 C2137 0.959 . S
H2144 C2137 0.961 . S
H2145 C2137 0.960 . S
H2146 C2138 0.930 . S
H2147 C2139 0.929 . S
H2148 C2156 0.929 . S
H2149 C2158 0.930 . S
H2150 C2160 0.930 . S
H2151 C2163 0.929 . S
H2152 C2166 0.930 . S
H2153 C2168 0.960 . S
H2154 C2168 0.960 . S
H2155 C2168 0.960 . S
C2156 H2148 0.929 . S
C2156 C2157 1.377 . S
C2156 C2158 1.384 . S
C2157 C2156 1.377 . S
C2157 C2163 1.390 . S
C2158 H2149 0.930 . S
C2158 C2156 1.384 . S
C2158 C2159 1.372 . S
C2159 C2158 1.372 . S
C2159 C2160 1.400 . S
C2159 C2164 1.490 . S
C2160 H2150 0.930 . S
C2160 C2159 1.400 . S
C2160 C2163 1.386 . S
H2161 C2177 0.930 . S
H2162 C2178 0.931 . S
C2163 H2151 0.929 . S
C2163 C2157 1.390 . S
C2163 C2160 1.386 . S
C2164 C2159 1.490 . S
C2164 C2166 1.395 . S
C2164 C2167 1.403 . S
H2165 C2171 0.930 . S
C2166 H2152 0.930 . S
C2166 C2164 1.395 . S
C2166 C2169 1.403 . S
C2167 C2164 1.403 . S
C2167 C2168 1.524 . S
C2167 C2171 1.400 . S
C2168 H2153 0.960 . S
C2168 H2154 0.960 . S
C2168 H2155 0.960 . S
C2168 C2167 1.524 . S
C2169 C2166 1.403 . S
C2169 C2170 1.392 . S
C2169 C2173 1.495 . S
C2170 C2169 1.392 . S
C2170 C2171 1.385 . S
C2170 C2172 1.478 . S
C2171 H2165 0.930 . S
C2171 C2167 1.400 . S
C2171 C2170 1.385 . S
C2172 C2170 1.478 . S
C2172 C2174 1.381 . S
C2172 C2178 1.383 . S
C2173 C2169 1.495 . S
C2173 H2179 0.959 . S
C2173 H2180 0.961 . S
C2173 H2181 0.960 . S
C2174 C2172 1.381 . S
C2174 C2175 1.394 . S
C2174 H2182 0.930 . S
C2175 C2174 1.394 . S
C2175 C2176 1.383 . S
C2175 H2183 0.929 . S
C2176 C2175 1.383 . S
C2176 C2177 1.377 . S
C2177 H2161 0.930 . S
C2177 C2176 1.377 . S
C2177 C2178 1.379 . S
C2178 H2162 0.931 . S
C2178 C2172 1.383 . S
C2178 C2177 1.379 . S
H2179 C2173 0.959 . S
H2180 C2173 0.961 . S
H2181 C2173 0.960 . S
H2182 C2174 0.930 . S
H2183 C2175 0.929 . S
H2184 C2192 0.929 . S
H2185 C2194 0.930 . S
H2186 C2196 0.930 . S
H2187 C2199 0.929 . S
H2188 C2202 0.930 . S
H2189 C2204 0.960 . S
H2190 C2204 0.960 . S
H2191 C2204 0.960 . S
C2192 H2184 0.929 . S
C2192 C2193 1.377 . S
C2192 C2194 1.384 . S
C2193 C2192 1.377 . S
C2193 C2199 1.390 . S
C2194 H2185 0.930 . S
C2194 C2192 1.384 . S
C2194 C2195 1.372 . S
C2195 C2194 1.372 . S
C2195 C2196 1.400 . S
C2195 C2200 1.490 . S
C2196 H2186 0.930 . S
C2196 C2195 1.400 . S
C2196 C2199 1.386 . S
H2197 C2213 0.930 . S
H2198 C2214 0.931 . S
C2199 H2187 0.929 . S
C2199 C2193 1.390 . S
C2199 C2196 1.386 . S
C2200 C2195 1.490 . S
C2200 C2202 1.395 . S
C2200 C2203 1.403 . S
H2201 C2207 0.930 . S
C2202 H2188 0.930 . S
C2202 C2200 1.395 . S
C2202 C2205 1.403 . S
C2203 C2200 1.403 . S
C2203 C2204 1.524 . S
C2203 C2207 1.400 . S
C2204 H2189 0.960 . S
C2204 H2190 0.960 . S
C2204 H2191 0.960 . S
C2204 C2203 1.524 . S
C2205 C2202 1.403 . S
C2205 C2206 1.392 . S
C2205 C2209 1.495 . S
C2206 C2205 1.392 . S
C2206 C2207 1.385 . S
C2206 C2208 1.478 . S
C2207 H2201 0.930 . S
C2207 C2203 1.400 . S
C2207 C2206 1.385 . S
C2208 C2206 1.478 . S
C2208 C2210 1.381 . S
C2208 C2214 1.383 . S
C2209 C2205 1.495 . S
C2209 H2215 0.959 . S
C2209 H2216 0.961 . S
C2209 H2217 0.960 . S
C2210 C2208 1.381 . S
C2210 C2211 1.394 . S
C2210 H2218 0.930 . S
C2211 C2210 1.394 . S
C2211 C2212 1.383 . S
C2211 H2219 0.929 . S
C2212 C2211 1.383 . S
C2212 C2213 1.377 . S
C2213 H2197 0.930 . S
C2213 C2212 1.377 . S
C2213 C2214 1.379 . S
C2214 H2198 0.931 . S
C2214 C2208 1.383 . S
C2214 C2213 1.379 . S
H2215 C2209 0.959 . S
H2216 C2209 0.961 . S
H2217 C2209 0.960 . S
H2218 C2210 0.930 . S
H2219 C2211 0.929 . S
H2220 C2228 0.929 . S
H2221 C2230 0.930 . S
H2222 C2232 0.930 . S
H2223 C2235 0.929 . S
H2224 C2238 0.930 . S
H2225 C2240 0.960 . S
H2226 C2240 0.960 . S
H2227 C2240 0.960 . S
C2228 H2220 0.929 . S
C2228 C2229 1.377 . S
C2228 C2230 1.384 . S
C2229 C2228 1.377 . S
C2229 C2235 1.390 . S
C2230 H2221 0.930 . S
C2230 C2228 1.384 . S
C2230 C2231 1.372 . S
C2231 C2230 1.372 . S
C2231 C2232 1.400 . S
C2231 C2236 1.490 . S
C2232 H2222 0.930 . S
C2232 C2231 1.400 . S
C2232 C2235 1.386 . S
H2233 C2249 0.930 . S
H2234 C2250 0.931 . S
C2235 H2223 0.929 . S
C2235 C2229 1.390 . S
C2235 C2232 1.386 . S
C2236 C2231 1.490 . S
C2236 C2238 1.395 . S
C2236 C2239 1.403 . S
H2237 C2243 0.930 . S
C2238 H2224 0.930 . S
C2238 C2236 1.395 . S
C2238 C2241 1.403 . S
C2239 C2236 1.403 . S
C2239 C2240 1.524 . S
C2239 C2243 1.400 . S
C2240 H2225 0.960 . S
C2240 H2226 0.960 . S
C2240 H2227 0.960 . S
C2240 C2239 1.524 . S
C2241 C2238 1.403 . S
C2241 C2242 1.392 . S
C2241 C2245 1.495 . S
C2242 C2241 1.392 . S
C2242 C2243 1.385 . S
C2242 C2244 1.478 . S
C2243 H2237 0.930 . S
C2243 C2239 1.400 . S
C2243 C2242 1.385 . S
C2244 C2242 1.478 . S
C2244 C2246 1.381 . S
C2244 C2250 1.383 . S
C2245 C2241 1.495 . S
C2245 H2251 0.959 . S
C2245 H2252 0.961 . S
C2245 H2253 0.960 . S
C2246 C2244 1.381 . S
C2246 C2247 1.394 . S
C2246 H2254 0.930 . S
C2247 C2246 1.394 . S
C2247 C2248 1.383 . S
C2247 H2255 0.929 . S
C2248 C2247 1.383 . S
C2248 C2249 1.377 . S
C2249 H2233 0.930 . S
C2249 C2248 1.377 . S
C2249 C2250 1.379 . S
C2250 H2234 0.931 . S
C2250 C2244 1.383 . S
C2250 C2249 1.379 . S
H2251 C2245 0.959 . S
H2252 C2245 0.961 . S
H2253 C2245 0.960 . S
H2254 C2246 0.930 . S
H2255 C2247 0.929 . S
H2256 C2264 0.929 . S
H2257 C2266 0.930 . S
H2258 C2268 0.930 . S
H2259 C2271 0.929 . S
H2260 C2274 0.930 . S
H2261 C2276 0.960 . S
H2262 C2276 0.960 . S
H2263 C2276 0.960 . S
C2264 H2256 0.929 . S
C2264 C2265 1.377 . S
C2264 C2266 1.384 1_455 S
C2265 C2264 1.377 . S
C2265 C2271 1.390 1_455 S
C2266 H2257 0.930 . S
C2266 C2264 1.384 1_655 S
C2266 C2267 1.372 . S
C2267 C2266 1.372 . S
C2267 C2268 1.400 . S
C2267 C2272 1.490 . S
C2268 H2258 0.930 . S
C2268 C2267 1.400 . S
C2268 C2271 1.386 . S
H2269 C2285 0.930 . S
H2270 C2286 0.931 . S
C2271 H2259 0.929 . S
C2271 C2265 1.390 1_655 S
C2271 C2268 1.386 . S
C2272 C2267 1.490 . S
C2272 C2274 1.395 . S
C2272 C2275 1.403 . S
H2273 C2279 0.930 . S
C2274 H2260 0.930 . S
C2274 C2272 1.395 . S
C2274 C2277 1.403 . S
C2275 C2272 1.403 . S
C2275 C2276 1.524 . S
C2275 C2279 1.400 . S
C2276 H2261 0.960 . S
C2276 H2262 0.960 . S
C2276 H2263 0.960 . S
C2276 C2275 1.524 . S
C2277 C2274 1.403 . S
C2277 C2278 1.392 . S
C2277 C2281 1.495 . S
C2278 C2277 1.392 . S
C2278 C2279 1.385 . S
C2278 C2280 1.478 . S
C2279 H2273 0.930 . S
C2279 C2275 1.400 . S
C2279 C2278 1.385 . S
C2280 C2278 1.478 . S
C2280 C2282 1.381 . S
C2280 C2286 1.383 . S
C2281 C2277 1.495 . S
C2281 H2287 0.959 . S
C2281 H2288 0.961 . S
C2281 H2289 0.960 . S
C2282 C2280 1.381 . S
C2282 C2283 1.394 1_554 S
C2282 H2290 0.930 . S
C2283 C2282 1.394 1_556 S
C2283 C2284 1.383 . S
C2283 H2291 0.929 . S
C2284 C2283 1.383 . S
C2284 C2285 1.377 1_556 S
C2285 H2269 0.930 . S
C2285 C2284 1.377 1_554 S
C2285 C2286 1.379 . S
C2286 H2270 0.931 . S
C2286 C2280 1.383 . S
C2286 C2285 1.379 . S
H2287 C2281 0.959 . S
H2288 C2281 0.961 . S
H2289 C2281 0.960 . S
H2290 C2282 0.930 . S
H2291 C2283 0.929 . S
H2292 C2300 0.929 . S
H2293 C2302 0.930 . S
H2294 C2304 0.930 . S
H2295 C2307 0.929 . S
H2296 C2310 0.930 . S
H2297 C2312 0.960 . S
H2298 C2312 0.960 . S
H2299 C2312 0.960 . S
C2300 H2292 0.929 . S
C2300 C2301 1.377 . S
C2300 C2302 1.384 . S
C2301 C2300 1.377 . S
C2301 C2307 1.390 . S
C2302 H2293 0.930 . S
C2302 C2300 1.384 . S
C2302 C2303 1.372 . S
C2303 C2302 1.372 . S
C2303 C2304 1.400 . S
C2303 C2308 1.490 . S
C2304 H2294 0.930 . S
C2304 C2303 1.400 . S
C2304 C2307 1.386 . S
H2305 C2321 0.930 . S
H2306 C2322 0.931 . S
C2307 H2295 0.929 . S
C2307 C2301 1.390 . S
C2307 C2304 1.386 . S
C2308 C2303 1.490 . S
C2308 C2310 1.395 . S
C2308 C2311 1.403 . S
H2309 C2315 0.930 . S
C2310 H2296 0.930 . S
C2310 C2308 1.395 . S
C2310 C2313 1.403 . S
C2311 C2308 1.403 . S
C2311 C2312 1.524 . S
C2311 C2315 1.400 . S
C2312 H2297 0.960 . S
C2312 H2298 0.960 . S
C2312 H2299 0.960 . S
C2312 C2311 1.524 . S
C2313 C2310 1.403 . S
C2313 C2314 1.392 . S
C2313 C2317 1.495 . S
C2314 C2313 1.392 . S
C2314 C2315 1.385 . S
C2314 C2316 1.478 . S
C2315 H2309 0.930 . S
C2315 C2311 1.400 . S
C2315 C2314 1.385 . S
C2316 C2314 1.478 . S
C2316 C2318 1.381 . S
C2316 C2322 1.383 . S
C2317 C2313 1.495 . S
C2317 H2323 0.959 . S
C2317 H2324 0.961 . S
C2317 H2325 0.960 . S
C2318 C2316 1.381 . S
C2318 C2319 1.394 . S
C2318 H2326 0.930 . S
C2319 C2318 1.394 . S
C2319 C2320 1.383 . S
C2319 H2327 0.929 . S
C2320 C2319 1.383 . S
C2320 C2321 1.377 . S
C2321 H2305 0.930 . S
C2321 C2320 1.377 . S
C2321 C2322 1.379 . S
C2322 H2306 0.931 . S
C2322 C2316 1.383 . S
C2322 C2321 1.379 . S
H2323 C2317 0.959 . S
H2324 C2317 0.961 . S
H2325 C2317 0.960 . S
H2326 C2318 0.930 . S
H2327 C2319 0.929 . S
H2328 C2336 0.929 . S
H2329 C2338 0.930 . S
H2330 C2340 0.930 . S
H2331 C2343 0.929 . S
H2332 C2346 0.930 . S
H2333 C2348 0.960 . S
H2334 C2348 0.960 . S
H2335 C2348 0.960 . S
C2336 H2328 0.929 . S
C2336 C2337 1.377 . S
C2336 C2338 1.384 1_554 S
C2337 C2336 1.377 . S
C2337 C2343 1.390 1_554 S
C2338 H2329 0.930 . S
C2338 C2336 1.384 1_556 S
C2338 C2339 1.372 . S
C2339 C2338 1.372 . S
C2339 C2340 1.400 . S
C2339 C2344 1.490 . S
C2340 H2330 0.930 . S
C2340 C2339 1.400 . S
C2340 C2343 1.386 . S
H2341 C2357 0.930 . S
H2342 C2358 0.931 . S
C2343 H2331 0.929 . S
C2343 C2337 1.390 1_556 S
C2343 C2340 1.386 . S
C2344 C2339 1.490 . S
C2344 C2346 1.395 . S
C2344 C2347 1.403 . S
H2345 C2351 0.930 . S
C2346 H2332 0.930 . S
C2346 C2344 1.395 . S
C2346 C2349 1.403 . S
C2347 C2344 1.403 . S
C2347 C2348 1.524 . S
C2347 C2351 1.400 . S
C2348 H2333 0.960 . S
C2348 H2334 0.960 . S
C2348 H2335 0.960 . S
C2348 C2347 1.524 . S
C2349 C2346 1.403 . S
C2349 C2350 1.392 . S
C2349 C2353 1.495 . S
C2350 C2349 1.392 . S
C2350 C2351 1.385 . S
C2350 C2352 1.478 . S
C2351 H2345 0.930 . S
C2351 C2347 1.400 . S
C2351 C2350 1.385 . S
C2352 C2350 1.478 . S
C2352 C2354 1.381 . S
C2352 C2358 1.383 . S
C2353 C2349 1.495 . S
C2353 H2359 0.959 . S
C2353 H2360 0.961 . S
C2353 H2361 0.960 . S
C2354 C2352 1.381 . S
C2354 C2355 1.394 . S
C2354 H2362 0.930 . S
C2355 C2354 1.394 . S
C2355 C2356 1.383 . S
C2355 H2363 0.929 . S
C2356 C2355 1.383 . S
C2356 C2357 1.377 . S
C2357 H2341 0.930 . S
C2357 C2356 1.377 . S
C2357 C2358 1.379 . S
C2358 H2342 0.931 . S
C2358 C2352 1.383 . S
C2358 C2357 1.379 . S
H2359 C2353 0.959 . S
H2360 C2353 0.961 . S
H2361 C2353 0.960 . S
H2362 C2354 0.930 . S
H2363 C2355 0.929 . S
H2364 C2372 0.929 . S
H2365 C2374 0.930 . S
H2366 C2376 0.930 . S
H2367 C2379 0.929 . S
H2368 C2382 0.930 . S
H2369 C2384 0.960 . S
H2370 C2384 0.960 . S
H2371 C2384 0.960 . S
C2372 H2364 0.929 . S
C2372 C2373 1.377 . S
C2372 C2374 1.384 . S
C2373 C2372 1.377 . S
C2373 C2379 1.390 . S
C2374 H2365 0.930 . S
C2374 C2372 1.384 . S
C2374 C2375 1.372 . S
C2375 C2374 1.372 . S
C2375 C2376 1.400 . S
C2375 C2380 1.490 . S
C2376 H2366 0.930 . S
C2376 C2375 1.400 . S
C2376 C2379 1.386 . S
H2377 C2393 0.930 . S
H2378 C2394 0.931 . S
C2379 H2367 0.929 . S
C2379 C2373 1.390 . S
C2379 C2376 1.386 . S
C2380 C2375 1.490 . S
C2380 C2382 1.395 . S
C2380 C2383 1.403 . S
H2381 C2387 0.930 . S
C2382 H2368 0.930 . S
C2382 C2380 1.395 . S
C2382 C2385 1.403 . S
C2383 C2380 1.403 . S
C2383 C2384 1.524 . S
C2383 C2387 1.400 . S
C2384 H2369 0.960 . S
C2384 H2370 0.960 . S
C2384 H2371 0.960 . S
C2384 C2383 1.524 . S
C2385 C2382 1.403 . S
C2385 C2386 1.392 . S
C2385 C2389 1.495 . S
C2386 C2385 1.392 . S
C2386 C2387 1.385 . S
C2386 C2388 1.478 . S
C2387 H2381 0.930 . S
C2387 C2383 1.400 . S
C2387 C2386 1.385 . S
C2388 C2386 1.478 . S
C2388 C2390 1.381 . S
C2388 C2394 1.383 . S
C2389 C2385 1.495 . S
C2389 H2395 0.959 . S
C2389 H2396 0.961 . S
C2389 H2397 0.960 . S
C2390 C2388 1.381 . S
C2390 C2391 1.394 1_455 S
C2390 H2398 0.930 1_455 S
C2391 C2390 1.394 1_655 S
C2391 C2392 1.383 . S
C2391 H2399 0.929 . S
C2392 C2391 1.383 . S
C2392 C2393 1.377 1_655 S
C2393 H2377 0.930 . S
C2393 C2392 1.377 1_455 S
C2393 C2394 1.379 . S
C2394 H2378 0.931 . S
C2394 C2388 1.383 . S
C2394 C2393 1.379 . S
H2395 C2389 0.959 . S
H2396 C2389 0.961 . S
H2397 C2389 0.960 . S
H2398 C2390 0.930 1_655 S
H2399 C2391 0.929 . S
H2400 C2408 0.917 1_545 S
H2401 C2410 0.930 . S
H2402 C2412 0.930 . S
H2403 C2415 0.929 . S
H2404 C2418 0.930 . S
H2405 C2420 0.960 . S
H2406 C2420 0.960 . S
H2407 C2420 0.960 . S
C2408 H2400 0.917 1_565 S
C2408 C2409 1.371 1_565 S
C2408 C2410 1.403 . S
C2409 C2408 1.371 1_545 S
C2409 C2415 1.390 1_545 S
C2410 H2401 0.930 . S
C2410 C2408 1.403 . S
C2410 C2411 1.372 . S
C2411 C2410 1.372 . S
C2411 C2412 1.400 . S
C2411 C2416 1.490 . S
C2412 H2402 0.930 . S
C2412 C2411 1.400 . S
C2412 C2415 1.386 . S
H2413 C2429 0.933 . S
H2414 C2430 0.931 . S
C2415 H2403 0.929 . S
C2415 C2409 1.390 1_565 S
C2415 C2412 1.386 . S
C2416 C2411 1.490 . S
C2416 C2418 1.395 . S
C2416 C2419 1.403 . S
H2417 C2423 0.930 . S
C2418 H2404 0.930 . S
C2418 C2416 1.395 . S
C2418 C2421 1.403 . S
C2419 C2416 1.403 . S
C2419 C2420 1.524 . S
C2419 C2423 1.400 . S
C2420 H2405 0.960 . S
C2420 H2406 0.960 . S
C2420 H2407 0.960 . S
C2420 C2419 1.524 . S
C2421 C2418 1.403 . S
C2421 C2422 1.392 . S
C2421 C2425 1.495 . S
C2422 C2421 1.392 . S
C2422 C2423 1.385 . S
C2422 C2424 1.478 . S
C2423 H2417 0.930 . S
C2423 C2419 1.400 . S
C2423 C2422 1.385 . S
C2424 C2422 1.478 . S
C2424 C2426 1.381 . S
C2424 C2430 1.383 . S
C2425 C2421 1.495 . S
C2425 H2431 0.959 . S
C2425 H2432 0.961 . S
C2425 H2433 0.960 . S
C2426 C2424 1.381 . S
C2426 C2427 1.394 . S
C2426 H2434 0.930 . S
C2427 C2426 1.394 . S
C2427 C2428 1.383 1_455 S
C2427 H2435 0.929 1_455 S
C2428 C2427 1.383 1_655 S
C2428 C2429 1.377 1_655 S
C2429 H2413 0.933 . S
C2429 C2428 1.377 1_455 S
C2429 C2430 1.379 . S
C2430 H2414 0.931 . S
C2430 C2424 1.383 . S
C2430 C2429 1.379 . S
H2431 C2425 0.959 . S
H2432 C2425 0.961 . S
H2433 C2425 0.960 . S
H2434 C2426 0.930 . S
H2435 C2427 0.929 1_655 S
H2436 C2444 0.929 . S
H2437 C2446 0.930 . S
H2438 C2448 0.930 . S
H2439 C2451 0.929 . S
H2440 C2454 0.930 . S
H2441 C2456 0.960 . S
H2442 C2456 0.960 . S
H2443 C2456 0.960 . S
C2444 H2436 0.929 . S
C2444 C2445 1.377 . S
C2444 C2446 1.384 . S
C2445 C2444 1.377 . S
C2445 C2451 1.390 . S
C2446 H2437 0.930 . S
C2446 C2444 1.384 . S
C2446 C2447 1.372 . S
C2447 C2446 1.372 . S
C2447 C2448 1.400 . S
C2447 C2452 1.490 . S
C2448 H2438 0.930 . S
C2448 C2447 1.400 . S
C2448 C2451 1.386 . S
H2449 C2465 0.930 . S
H2450 C2466 0.931 . S
C2451 H2439 0.929 . S
C2451 C2445 1.390 . S
C2451 C2448 1.386 . S
C2452 C2447 1.490 . S
C2452 C2454 1.395 . S
C2452 C2455 1.403 . S
H2453 C2459 0.930 . S
C2454 H2440 0.930 . S
C2454 C2452 1.395 . S
C2454 C2457 1.403 . S
C2455 C2452 1.403 . S
C2455 C2456 1.524 . S
C2455 C2459 1.400 . S
C2456 H2441 0.960 . S
C2456 H2442 0.960 . S
C2456 H2443 0.960 . S
C2456 C2455 1.524 . S
C2457 C2454 1.403 . S
C2457 C2458 1.392 . S
C2457 C2461 1.495 . S
C2458 C2457 1.392 . S
C2458 C2459 1.385 . S
C2458 C2460 1.478 . S
C2459 H2453 0.930 . S
C2459 C2455 1.400 . S
C2459 C2458 1.385 . S
C2460 C2458 1.478 . S
C2460 C2462 1.381 . S
C2460 C2466 1.383 . S
C2461 C2457 1.495 . S
C2461 H2467 0.959 . S
C2461 H2468 0.961 . S
C2461 H2469 0.960 . S
C2462 C2460 1.381 . S
C2462 C2463 1.394 . S
C2462 H2470 0.930 . S
C2463 C2462 1.394 . S
C2463 C2464 1.383 1_545 S
C2463 H2471 0.929 . S
C2464 C2463 1.383 1_565 S
C2464 C2465 1.377 . S
C2465 H2449 0.930 . S
C2465 C2464 1.377 . S
C2465 C2466 1.379 1_565 S
C2466 H2450 0.931 . S
C2466 C2460 1.383 . S
C2466 C2465 1.379 1_545 S
H2467 C2461 0.959 . S
H2468 C2461 0.961 . S
H2469 C2461 0.960 . S
H2470 C2462 0.930 . S
H2471 C2463 0.929 . S
H2472 C2480 0.929 . S
H2473 C2482 0.930 . S
H2474 C2484 0.930 . S
H2475 C2487 0.929 . S
H2476 C2490 0.930 . S
H2477 C2492 0.960 . S
H2478 C2492 0.960 . S
H2479 C2492 0.960 . S
C2480 H2472 0.929 . S
C2480 C2481 1.377 . S
C2480 C2482 1.384 . S
C2481 C2480 1.377 . S
C2481 C2487 1.390 . S
C2482 H2473 0.930 . S
C2482 C2480 1.384 . S
C2482 C2483 1.372 . S
C2483 C2482 1.372 . S
C2483 C2484 1.400 . S
C2483 C2488 1.490 . S
C2484 H2474 0.930 . S
C2484 C2483 1.400 . S
C2484 C2487 1.386 . S
H2485 C2501 0.930 . S
H2486 C2502 0.931 . S
C2487 H2475 0.929 . S
C2487 C2481 1.390 . S
C2487 C2484 1.386 . S
C2488 C2483 1.490 . S
C2488 C2490 1.395 . S
C2488 C2491 1.403 . S
H2489 C2495 0.930 . S
C2490 H2476 0.930 . S
C2490 C2488 1.395 . S
C2490 C2493 1.403 . S
C2491 C2488 1.403 . S
C2491 C2492 1.524 . S
C2491 C2495 1.400 . S
C2492 H2477 0.960 . S
C2492 H2478 0.960 . S
C2492 H2479 0.960 . S
C2492 C2491 1.524 . S
C2493 C2490 1.403 . S
C2493 C2494 1.392 . S
C2493 C2497 1.495 . S
C2494 C2493 1.392 . S
C2494 C2495 1.385 . S
C2494 C2496 1.478 . S
C2495 H2489 0.930 . S
C2495 C2491 1.400 . S
C2495 C2494 1.385 . S
C2496 C2494 1.478 . S
C2496 C2498 1.381 . S
C2496 C2502 1.383 . S
C2497 C2493 1.495 . S
C2497 H2503 0.959 . S
C2497 H2504 0.961 . S
C2497 H2505 0.960 . S
C2498 C2496 1.381 . S
C2498 C2499 1.394 . S
C2498 H2506 0.930 . S
C2499 C2498 1.394 . S
C2499 C2500 1.383 . S
C2499 H2507 0.929 . S
C2500 C2499 1.383 . S
C2500 C2501 1.377 . S
C2501 H2485 0.930 . S
C2501 C2500 1.377 . S
C2501 C2502 1.379 . S
C2502 H2486 0.931 . S
C2502 C2496 1.383 . S
C2502 C2501 1.379 . S
H2503 C2497 0.959 . S
H2504 C2497 0.961 . S
H2505 C2497 0.960 . S
H2506 C2498 0.930 . S
H2507 C2499 0.929 . S
H2508 C2516 0.929 . S
H2509 C2518 0.930 . S
H2510 C2520 0.930 . S
H2511 C2523 0.929 . S
H2512 C2526 0.930 . S
H2513 C2528 0.960 . S
H2514 C2528 0.960 . S
H2515 C2528 0.960 . S
C2516 H2508 0.929 . S
C2516 C2517 1.377 1_655 S
C2516 C2518 1.384 . S
C2517 C2516 1.377 1_455 S
C2517 C2523 1.390 . S
C2518 H2509 0.930 . S
C2518 C2516 1.384 . S
C2518 C2519 1.372 . S
C2519 C2518 1.372 . S
C2519 C2520 1.400 . S
C2519 C2524 1.490 . S
C2520 H2510 0.930 . S
C2520 C2519 1.400 . S
C2520 C2523 1.386 1_655 S
H2521 C2537 0.930 . S
H2522 C2538 0.931 . S
C2523 H2511 0.929 . S
C2523 C2517 1.390 . S
C2523 C2520 1.386 1_455 S
C2524 C2519 1.490 . S
C2524 C2526 1.395 . S
C2524 C2527 1.403 . S
H2525 C2531 0.930 . S
C2526 H2512 0.930 . S
C2526 C2524 1.395 . S
C2526 C2529 1.403 . S
C2527 C2524 1.403 . S
C2527 C2528 1.524 . S
C2527 C2531 1.400 . S
C2528 H2513 0.960 . S
C2528 H2514 0.960 . S
C2528 H2515 0.960 . S
C2528 C2527 1.524 . S
C2529 C2526 1.403 . S
C2529 C2530 1.392 . S
C2529 C2533 1.495 . S
C2530 C2529 1.392 . S
C2530 C2531 1.385 . S
C2530 C2532 1.478 . S
C2531 H2525 0.930 . S
C2531 C2527 1.400 . S
C2531 C2530 1.385 . S
C2532 C2530 1.478 . S
C2532 C2534 1.381 . S
C2532 C2538 1.383 . S
C2533 C2529 1.495 . S
C2533 H2539 0.959 . S
C2533 H2540 0.961 . S
C2533 H2541 0.960 . S
C2534 C2532 1.381 . S
C2534 C2535 1.394 . S
C2534 H2542 0.930 . S
C2535 C2534 1.394 . S
C2535 C2536 1.383 . S
C2535 H2543 0.929 . S
C2536 C2535 1.383 . S
C2536 C2537 1.377 . S
C2537 H2521 0.930 . S
C2537 C2536 1.377 . S
C2537 C2538 1.379 . S
C2538 H2522 0.931 . S
C2538 C2532 1.383 . S
C2538 C2537 1.379 . S
H2539 C2533 0.959 . S
H2540 C2533 0.961 . S
H2541 C2533 0.960 . S
H2542 C2534 0.930 . S
H2543 C2535 0.929 . S
H2544 C2552 0.929 . S
H2545 C2554 0.930 . S
H2546 C2556 0.930 . S
H2547 C2559 0.929 . S
H2548 C2562 0.930 . S
H2549 C2564 0.960 . S
H2550 C2564 0.960 . S
H2551 C2564 0.960 . S
C2552 H2544 0.929 . S
C2552 C2553 1.377 . S
C2552 C2554 1.384 1_554 S
C2553 C2552 1.377 . S
C2553 C2559 1.390 1_554 S
C2554 H2545 0.930 . S
C2554 C2552 1.384 1_556 S
C2554 C2555 1.372 . S
C2555 C2554 1.372 . S
C2555 C2556 1.400 . S
C2555 C2560 1.490 . S
C2556 H2546 0.930 . S
C2556 C2555 1.400 . S
C2556 C2559 1.386 . S
H2557 C2573 0.930 . S
H2558 C2574 0.931 . S
C2559 H2547 0.929 . S
C2559 C2553 1.390 1_556 S
C2559 C2556 1.386 . S
C2560 C2555 1.490 . S
C2560 C2562 1.395 . S
C2560 C2563 1.403 . S
H2561 C2567 0.930 . S
C2562 H2548 0.930 . S
C2562 C2560 1.395 . S
C2562 C2565 1.403 . S
C2563 C2560 1.403 . S
C2563 C2564 1.524 . S
C2563 C2567 1.400 . S
C2564 H2549 0.960 . S
C2564 H2550 0.960 . S
C2564 H2551 0.960 . S
C2564 C2563 1.524 . S
C2565 C2562 1.403 . S
C2565 C2566 1.392 . S
C2565 C2569 1.495 . S
C2566 C2565 1.392 . S
C2566 C2567 1.385 . S
C2566 C2568 1.478 . S
C2567 H2561 0.930 . S
C2567 C2563 1.400 . S
C2567 C2566 1.385 . S
C2568 C2566 1.478 . S
C2568 C2570 1.381 . S
C2568 C2574 1.383 . S
C2569 C2565 1.495 . S
C2569 H2575 0.959 . S
C2569 H2576 0.961 . S
C2569 H2577 0.960 . S
C2570 C2568 1.381 . S
C2570 C2571 1.394 1_545 S
C2570 H2578 0.930 . S
C2571 C2570 1.394 1_565 S
C2571 C2572 1.383 . S
C2571 H2579 0.929 . S
C2572 C2571 1.383 . S
C2572 C2573 1.377 1_565 S
C2573 H2557 0.930 . S
C2573 C2572 1.377 1_545 S
C2573 C2574 1.379 . S
C2574 H2558 0.931 . S
C2574 C2568 1.383 . S
C2574 C2573 1.379 . S
H2575 C2569 0.959 . S
H2576 C2569 0.961 . S
H2577 C2569 0.960 . S
H2578 C2570 0.930 . S
H2579 C2571 0.929 . S
H2580 C2588 0.929 . S
H2581 C2590 0.930 . S
H2582 C2592 0.930 . S
H2583 C2595 0.929 . S
H2584 C2598 0.930 . S
H2585 C2600 0.960 . S
H2586 C2600 0.960 . S
H2587 C2600 0.960 . S
C2588 H2580 0.929 . S
C2588 C2589 1.377 1_554 S
C2588 C2590 1.384 . S
C2589 C2588 1.377 1_556 S
C2589 C2595 1.390 . S
C2590 H2581 0.930 . S
C2590 C2588 1.384 . S
C2590 C2591 1.372 . S
C2591 C2590 1.372 . S
C2591 C2592 1.400 . S
C2591 C2596 1.490 . S
C2592 H2582 0.930 . S
C2592 C2591 1.400 . S
C2592 C2595 1.386 1_554 S
H2593 C2609 0.930 . S
H2594 C2610 0.931 . S
C2595 H2583 0.929 . S
C2595 C2589 1.390 . S
C2595 C2592 1.386 1_556 S
C2596 C2591 1.490 . S
C2596 C2598 1.395 . S
C2596 C2599 1.403 . S
H2597 C2603 0.930 . S
C2598 H2584 0.930 . S
C2598 C2596 1.395 . S
C2598 C2601 1.403 . S
C2599 C2596 1.403 . S
C2599 C2600 1.524 . S
C2599 C2603 1.400 . S
C2600 H2585 0.960 . S
C2600 H2586 0.960 . S
C2600 H2587 0.960 . S
C2600 C2599 1.524 . S
C2601 C2598 1.403 . S
C2601 C2602 1.392 . S
C2601 C2605 1.495 . S
C2602 C2601 1.392 . S
C2602 C2603 1.385 . S
C2602 C2604 1.478 . S
C2603 H2597 0.930 . S
C2603 C2599 1.400 . S
C2603 C2602 1.385 . S
C2604 C2602 1.478 . S
C2604 C2606 1.381 . S
C2604 C2610 1.383 . S
C2605 C2601 1.495 . S
C2605 H2611 0.959 . S
C2605 H2612 0.961 . S
C2605 H2613 0.960 . S
C2606 C2604 1.381 . S
C2606 C2607 1.394 . S
C2606 H2614 0.930 . S
C2607 C2606 1.394 . S
C2607 C2608 1.383 . S
C2607 H2615 0.929 . S
C2608 C2607 1.383 . S
C2608 C2609 1.377 . S
C2609 H2593 0.930 . S
C2609 C2608 1.377 . S
C2609 C2610 1.379 . S
C2610 H2594 0.931 . S
C2610 C2604 1.383 . S
C2610 C2609 1.379 . S
H2611 C2605 0.959 . S
H2612 C2605 0.961 . S
H2613 C2605 0.960 . S
H2614 C2606 0.930 . S
H2615 C2607 0.929 . S
H2616 C2624 0.929 . S
H2617 C2626 0.930 . S
H2618 C2628 0.930 . S
H2619 C2631 0.929 . S
H2620 C2634 0.930 . S
H2621 C2636 0.960 . S
H2622 C2636 0.960 . S
H2623 C2636 0.960 . S
C2624 H2616 0.929 . S
C2624 C2625 1.377 . S
C2624 C2626 1.384 . S
C2625 C2624 1.377 . S
C2625 C2631 1.390 . S
C2626 H2617 0.930 . S
C2626 C2624 1.384 . S
C2626 C2627 1.372 . S
C2627 C2626 1.372 . S
C2627 C2628 1.400 . S
C2627 C2632 1.490 . S
C2628 H2618 0.930 . S
C2628 C2627 1.400 . S
C2628 C2631 1.386 . S
H2629 C2645 0.930 . S
H2630 C2646 0.931 . S
C2631 H2619 0.929 . S
C2631 C2625 1.390 . S
C2631 C2628 1.386 . S
C2632 C2627 1.490 . S
C2632 C2634 1.395 . S
C2632 C2635 1.403 . S
H2633 C2639 0.930 . S
C2634 H2620 0.930 . S
C2634 C2632 1.395 . S
C2634 C2637 1.403 . S
C2635 C2632 1.403 . S
C2635 C2636 1.524 . S
C2635 C2639 1.400 . S
C2636 H2621 0.960 . S
C2636 H2622 0.960 . S
C2636 H2623 0.960 . S
C2636 C2635 1.524 . S
C2637 C2634 1.403 . S
C2637 C2638 1.392 . S
C2637 C2641 1.495 . S
C2638 C2637 1.392 . S
C2638 C2639 1.385 . S
C2638 C2640 1.478 . S
C2639 H2633 0.930 . S
C2639 C2635 1.400 . S
C2639 C2638 1.385 . S
C2640 C2638 1.478 . S
C2640 C2642 1.381 . S
C2640 C2646 1.383 . S
C2641 C2637 1.495 . S
C2641 H2647 0.959 . S
C2641 H2648 0.961 . S
C2641 H2649 0.960 . S
C2642 C2640 1.381 . S
C2642 C2643 1.394 . S
C2642 H2650 0.930 . S
C2643 C2642 1.394 . S
C2643 C2644 1.383 . S
C2643 H2651 0.929 . S
C2644 C2643 1.383 . S
C2644 C2645 1.377 . S
C2645 H2629 0.930 . S
C2645 C2644 1.377 . S
C2645 C2646 1.379 . S
C2646 H2630 0.931 . S
C2646 C2640 1.383 . S
C2646 C2645 1.379 . S
H2647 C2641 0.959 . S
H2648 C2641 0.961 . S
H2649 C2641 0.960 . S
H2650 C2642 0.930 . S
H2651 C2643 0.929 . S
H2652 C2660 0.929 . S
H2653 C2662 0.930 . S
H2654 C2664 0.930 . S
H2655 C2667 0.929 . S
H2656 C2670 0.930 . S
H2657 C2672 0.960 . S
H2658 C2672 0.960 . S
H2659 C2672 0.960 . S
C2660 H2652 0.929 . S
C2660 C2661 1.377 . S
C2660 C2662 1.384 . S
C2661 C2660 1.377 . S
C2661 C2667 1.390 . S
C2662 H2653 0.930 . S
C2662 C2660 1.384 . S
C2662 C2663 1.372 . S
C2663 C2662 1.372 . S
C2663 C2664 1.400 . S
C2663 C2668 1.490 . S
C2664 H2654 0.930 . S
C2664 C2663 1.400 . S
C2664 C2667 1.386 . S
H2665 C2681 0.930 . S
H2666 C2682 0.931 . S
C2667 H2655 0.929 . S
C2667 C2661 1.390 . S
C2667 C2664 1.386 . S
C2668 C2663 1.490 . S
C2668 C2670 1.395 . S
C2668 C2671 1.403 . S
H2669 C2675 0.930 . S
C2670 H2656 0.930 . S
C2670 C2668 1.395 . S
C2670 C2673 1.403 . S
C2671 C2668 1.403 . S
C2671 C2672 1.524 . S
C2671 C2675 1.400 . S
C2672 H2657 0.960 . S
C2672 H2658 0.960 . S
C2672 H2659 0.960 . S
C2672 C2671 1.524 . S
C2673 C2670 1.403 . S
C2673 C2674 1.392 . S
C2673 C2677 1.495 . S
C2674 C2673 1.392 . S
C2674 C2675 1.385 . S
C2674 C2676 1.478 . S
C2675 H2669 0.930 . S
C2675 C2671 1.400 . S
C2675 C2674 1.385 . S
C2676 C2674 1.478 . S
C2676 C2678 1.381 . S
C2676 C2682 1.383 . S
C2677 C2673 1.495 . S
C2677 H2683 0.959 . S
C2677 H2684 0.961 . S
C2677 H2685 0.960 . S
C2678 C2676 1.381 . S
C2678 C2679 1.394 . S
C2678 H2686 0.930 . S
C2679 C2678 1.394 . S
C2679 C2680 1.383 1_565 S
C2679 H2687 0.918 1_565 S
C2680 C2679 1.383 1_545 S
C2680 C2681 1.377 . S
C2681 H2665 0.930 . S
C2681 C2680 1.377 . S
C2681 C2682 1.379 1_545 S
C2682 H2666 0.931 . S
C2682 C2676 1.383 . S
C2682 C2681 1.379 1_565 S
H2683 C2677 0.959 . S
H2684 C2677 0.961 . S
H2685 C2677 0.960 . S
H2686 C2678 0.930 . S
H2687 C2679 0.918 1_545 S
H2688 C2696 0.929 . S
H2689 C2698 0.930 . S
H2690 C2700 0.930 . S
H2691 C2703 0.929 . S
H2692 C2706 0.930 . S
H2693 C2708 0.960 . S
H2694 C2708 0.960 . S
H2695 C2708 0.960 . S
C2696 H2688 0.929 . S
C2696 C2697 1.377 . S
C2696 C2698 1.384 1_655 S
C2697 C2696 1.377 . S
C2697 C2703 1.390 1_655 S
C2698 H2689 0.930 . S
C2698 C2696 1.384 1_455 S
C2698 C2699 1.372 . S
C2699 C2698 1.372 . S
C2699 C2700 1.400 . S
C2699 C2704 1.490 . S
C2700 H2690 0.930 . S
C2700 C2699 1.400 . S
C2700 C2703 1.386 . S
H2701 C2717 0.927 1_554 S
H2702 C2718 0.931 . S
C2703 H2691 0.929 . S
C2703 C2697 1.390 1_455 S
C2703 C2700 1.386 . S
C2704 C2699 1.490 . S
C2704 C2706 1.395 . S
C2704 C2707 1.403 . S
H2705 C2711 0.930 . S
C2706 H2692 0.930 . S
C2706 C2704 1.395 . S
C2706 C2709 1.403 . S
C2707 C2704 1.403 . S
C2707 C2708 1.524 . S
C2707 C2711 1.400 . S
C2708 H2693 0.960 . S
C2708 H2694 0.960 . S
C2708 H2695 0.960 . S
C2708 C2707 1.524 . S
C2709 C2706 1.403 . S
C2709 C2710 1.392 . S
C2709 C2713 1.495 . S
C2710 C2709 1.392 . S
C2710 C2711 1.385 . S
C2710 C2712 1.478 . S
C2711 H2705 0.930 . S
C2711 C2707 1.400 . S
C2711 C2710 1.385 . S
C2712 C2710 1.478 . S
C2712 C2714 1.381 . S
C2712 C2718 1.383 . S
C2713 C2709 1.495 . S
C2713 H2719 0.959 . S
C2713 H2720 0.961 . S
C2713 H2721 0.960 . S
C2714 C2712 1.381 . S
C2714 C2715 1.394 1_556 S
C2714 H2722 0.930 . S
C2715 C2714 1.394 1_554 S
C2715 C2716 1.383 . S
C2715 H2723 0.929 . S
C2716 C2715 1.383 . S
C2716 C2717 1.377 1_554 S
C2717 H2701 0.927 1_556 S
C2717 C2716 1.377 1_556 S
C2717 C2718 1.379 . S
C2718 H2702 0.931 . S
C2718 C2712 1.383 . S
C2718 C2717 1.379 . S
H2719 C2713 0.959 . S
H2720 C2713 0.961 . S
H2721 C2713 0.960 . S
H2722 C2714 0.930 . S
H2723 C2715 0.929 . S
H2724 C2732 0.929 . S
H2725 C2734 0.930 . S
H2726 C2736 0.930 . S
H2727 C2739 0.929 . S
H2728 C2742 0.930 . S
H2729 C2744 0.960 . S
H2730 C2744 0.960 . S
H2731 C2744 0.960 . S
C2732 H2724 0.929 . S
C2732 C2733 1.377 . S
C2732 C2734 1.384 . S
C2733 C2732 1.377 . S
C2733 C2739 1.390 . S
C2734 H2725 0.930 . S
C2734 C2732 1.384 . S
C2734 C2735 1.372 . S
C2735 C2734 1.372 . S
C2735 C2736 1.400 . S
C2735 C2740 1.490 . S
C2736 H2726 0.930 . S
C2736 C2735 1.400 . S
C2736 C2739 1.386 . S
H2737 C2753 0.930 . S
H2738 C2754 0.931 . S
C2739 H2727 0.929 . S
C2739 C2733 1.390 . S
C2739 C2736 1.386 . S
C2740 C2735 1.490 . S
C2740 C2742 1.395 . S
C2740 C2743 1.403 . S
H2741 C2747 0.930 . S
C2742 H2728 0.930 . S
C2742 C2740 1.395 . S
C2742 C2745 1.403 . S
C2743 C2740 1.403 . S
C2743 C2744 1.524 . S
C2743 C2747 1.400 . S
C2744 H2729 0.960 . S
C2744 H2730 0.960 . S
C2744 H2731 0.960 . S
C2744 C2743 1.524 . S
C2745 C2742 1.403 . S
C2745 C2746 1.392 . S
C2745 C2749 1.495 . S
C2746 C2745 1.392 . S
C2746 C2747 1.385 . S
C2746 C2748 1.478 . S
C2747 H2741 0.930 . S
C2747 C2743 1.400 . S
C2747 C2746 1.385 . S
C2748 C2746 1.478 . S
C2748 C2750 1.381 . S
C2748 C2754 1.383 . S
C2749 C2745 1.495 . S
C2749 H2755 0.959 . S
C2749 H2756 0.961 . S
C2749 H2757 0.960 . S
C2750 C2748 1.381 . S
C2750 C2751 1.394 . S
C2750 H2758 0.930 . S
C2751 C2750 1.394 . S
C2751 C2752 1.383 . S
C2751 H2759 0.929 . S
C2752 C2751 1.383 . S
C2752 C2753 1.377 . S
C2753 H2737 0.930 . S
C2753 C2752 1.377 . S
C2753 C2754 1.379 . S
C2754 H2738 0.931 . S
C2754 C2748 1.383 . S
C2754 C2753 1.379 . S
H2755 C2749 0.959 . S
H2756 C2749 0.961 . S
H2757 C2749 0.960 . S
H2758 C2750 0.930 . S
H2759 C2751 0.929 . S
H2760 C2768 0.929 . S
H2761 C2770 0.930 . S
H2762 C2772 0.930 . S
H2763 C2775 0.929 . S
H2764 C2778 0.930 . S
H2765 C2780 0.960 . S
H2766 C2780 0.960 . S
H2767 C2780 0.960 . S
C2768 H2760 0.929 . S
C2768 C2769 1.377 1_554 S
C2768 C2770 1.384 . S
C2769 C2768 1.377 1_556 S
C2769 C2775 1.390 . S
C2770 H2761 0.930 . S
C2770 C2768 1.384 . S
C2770 C2771 1.372 . S
C2771 C2770 1.372 . S
C2771 C2772 1.400 . S
C2771 C2776 1.490 . S
C2772 H2762 0.930 . S
C2772 C2771 1.400 . S
C2772 C2775 1.386 1_554 S
H2773 C2789 0.930 . S
H2774 C2790 0.931 . S
C2775 H2763 0.929 . S
C2775 C2769 1.390 . S
C2775 C2772 1.386 1_556 S
C2776 C2771 1.490 . S
C2776 C2778 1.395 . S
C2776 C2779 1.403 . S
H2777 C2783 0.930 . S
C2778 H2764 0.930 . S
C2778 C2776 1.395 . S
C2778 C2781 1.403 . S
C2779 C2776 1.403 . S
C2779 C2780 1.524 . S
C2779 C2783 1.400 . S
C2780 H2765 0.960 . S
C2780 H2766 0.960 . S
C2780 H2767 0.960 . S
C2780 C2779 1.524 . S
C2781 C2778 1.403 . S
C2781 C2782 1.392 . S
C2781 C2785 1.495 . S
C2782 C2781 1.392 . S
C2782 C2783 1.385 . S
C2782 C2784 1.478 . S
C2783 H2777 0.930 . S
C2783 C2779 1.400 . S
C2783 C2782 1.385 . S
C2784 C2782 1.478 . S
C2784 C2786 1.381 . S
C2784 C2790 1.383 . S
C2785 C2781 1.495 . S
C2785 H2791 0.959 . S
C2785 H2792 0.961 . S
C2785 H2793 0.960 . S
C2786 C2784 1.381 . S
C2786 C2787 1.394 . S
C2786 H2794 0.930 . S
C2787 C2786 1.394 . S
C2787 C2788 1.383 . S
C2787 H2795 0.929 . S
C2788 C2787 1.383 . S
C2788 C2789 1.377 . S
C2789 H2773 0.930 . S
C2789 C2788 1.377 . S
C2789 C2790 1.379 . S
C2790 H2774 0.931 . S
C2790 C2784 1.383 . S
C2790 C2789 1.379 . S
H2791 C2785 0.959 . S
H2792 C2785 0.961 . S
H2793 C2785 0.960 . S
H2794 C2786 0.930 . S
H2795 C2787 0.929 . S
H2796 C2804 0.929 . S
H2797 C2806 0.930 . S
H2798 C2808 0.930 . S
H2799 C2811 0.929 . S
H2800 C2814 0.930 . S
H2801 C2816 0.960 . S
H2802 C2816 0.960 . S
H2803 C2816 0.960 . S
C2804 H2796 0.929 . S
C2804 C2805 1.377 . S
C2804 C2806 1.384 . S
C2805 C2804 1.377 . S
C2805 C2811 1.390 . S
C2806 H2797 0.930 . S
C2806 C2804 1.384 . S
C2806 C2807 1.372 . S
C2807 C2806 1.372 . S
C2807 C2808 1.400 . S
C2807 C2812 1.490 . S
C2808 H2798 0.930 . S
C2808 C2807 1.400 . S
C2808 C2811 1.386 . S
H2809 C2825 0.930 . S
H2810 C2826 0.931 . S
C2811 H2799 0.929 . S
C2811 C2805 1.390 . S
C2811 C2808 1.386 . S
C2812 C2807 1.490 . S
C2812 C2814 1.395 . S
C2812 C2815 1.403 . S
H2813 C2819 0.930 . S
C2814 H2800 0.930 . S
C2814 C2812 1.395 . S
C2814 C2817 1.403 . S
C2815 C2812 1.403 . S
C2815 C2816 1.524 . S
C2815 C2819 1.400 . S
C2816 H2801 0.960 . S
C2816 H2802 0.960 . S
C2816 H2803 0.960 . S
C2816 C2815 1.524 . S
C2817 C2814 1.403 . S
C2817 C2818 1.392 . S
C2817 C2821 1.495 . S
C2818 C2817 1.392 . S
C2818 C2819 1.385 . S
C2818 C2820 1.478 . S
C2819 H2813 0.930 . S
C2819 C2815 1.400 . S
C2819 C2818 1.385 . S
C2820 C2818 1.478 . S
C2820 C2822 1.381 . S
C2820 C2826 1.383 . S
C2821 C2817 1.495 . S
C2821 H2827 0.959 . S
C2821 H2828 0.958 1_655 S
C2821 H2829 0.960 . S
C2822 C2820 1.381 . S
C2822 C2823 1.394 1_655 S
C2822 H2830 0.930 . S
C2823 C2822 1.394 1_455 S
C2823 C2824 1.383 . S
C2823 H2831 0.929 . S
C2824 C2823 1.383 . S
C2824 C2825 1.377 1_455 S
C2825 H2809 0.930 . S
C2825 C2824 1.377 1_655 S
C2825 C2826 1.379 . S
C2826 H2810 0.931 . S
C2826 C2820 1.383 . S
C2826 C2825 1.379 . S
H2827 C2821 0.959 . S
H2828 C2821 0.958 1_455 S
H2829 C2821 0.960 . S
H2830 C2822 0.930 . S
H2831 C2823 0.929 . S
H2832 C2840 0.929 . S
H2833 C2842 0.930 . S
H2834 C2844 0.930 . S
H2835 C2847 0.929 . S
H2836 C2850 0.930 . S
H2837 C2852 0.960 . S
H2838 C2852 0.960 . S
H2839 C2852 0.960 . S
C2840 H2832 0.929 . S
C2840 C2841 1.377 1_545 S
C2840 C2842 1.384 . S
C2841 C2840 1.377 1_565 S
C2841 C2847 1.390 . S
C2842 H2833 0.930 . S
C2842 C2840 1.384 . S
C2842 C2843 1.372 . S
C2843 C2842 1.372 . S
C2843 C2844 1.400 . S
C2843 C2848 1.490 . S
C2844 H2834 0.930 . S
C2844 C2843 1.400 . S
C2844 C2847 1.386 1_545 S
H2845 C2861 0.930 . S
H2846 C2862 0.931 . S
C2847 H2835 0.929 . S
C2847 C2841 1.390 . S
C2847 C2844 1.386 1_565 S
C2848 C2843 1.490 . S
C2848 C2850 1.395 . S
C2848 C2851 1.403 . S
H2849 C2855 0.930 . S
C2850 H2836 0.930 . S
C2850 C2848 1.395 . S
C2850 C2853 1.403 . S
C2851 C2848 1.403 . S
C2851 C2852 1.524 . S
C2851 C2855 1.400 . S
C2852 H2837 0.960 . S
C2852 H2838 0.960 . S
C2852 H2839 0.960 . S
C2852 C2851 1.524 . S
C2853 C2850 1.403 . S
C2853 C2854 1.392 . S
C2853 C2857 1.495 . S
C2854 C2853 1.392 . S
C2854 C2855 1.385 . S
C2854 C2856 1.478 . S
C2855 H2849 0.930 . S
C2855 C2851 1.400 . S
C2855 C2854 1.385 . S
C2856 C2854 1.478 . S
C2856 C2858 1.381 . S
C2856 C2862 1.383 . S
C2857 C2853 1.495 . S
C2857 H2863 0.959 . S
C2857 H2864 0.961 . S
C2857 H2865 0.960 . S
C2858 C2856 1.381 . S
C2858 C2859 1.394 . S
C2858 H2866 0.930 . S
C2859 C2858 1.394 . S
C2859 C2860 1.383 1_655 S
C2859 H2867 0.929 . S
C2860 C2859 1.383 1_455 S
C2860 C2861 1.377 . S
C2861 H2845 0.930 . S
C2861 C2860 1.377 . S
C2861 C2862 1.379 1_455 S
C2862 H2846 0.931 . S
C2862 C2856 1.383 . S
C2862 C2861 1.379 1_655 S
H2863 C2857 0.959 . S
H2864 C2857 0.961 . S
H2865 C2857 0.960 . S
H2866 C2858 0.930 . S
H2867 C2859 0.929 . S
H2868 C2876 0.929 . S
H2869 C2878 0.944 . S
H2870 C2880 0.930 . S
H2871 C2883 0.929 . S
H2872 C2886 0.930 . S
H2873 C2888 0.960 . S
H2874 C2888 0.960 . S
H2875 C2888 0.960 . S
C2876 H2868 0.929 . S
C2876 C2877 1.377 . S
C2876 C2878 1.384 1_545 S
C2877 C2876 1.377 . S
C2877 C2883 1.390 1_545 S
C2878 H2869 0.944 . S
C2878 C2876 1.384 1_565 S
C2878 C2879 1.372 . S
C2879 C2878 1.372 . S
C2879 C2880 1.400 . S
C2879 C2884 1.490 . S
C2880 H2870 0.930 . S
C2880 C2879 1.400 . S
C2880 C2883 1.386 . S
H2881 C2897 0.930 . S
H2882 C2898 0.931 . S
C2883 H2871 0.929 . S
C2883 C2877 1.390 1_565 S
C2883 C2880 1.386 . S
C2884 C2879 1.490 . S
C2884 C2886 1.395 . S
C2884 C2887 1.403 . S
H2885 C2891 0.930 . S
C2886 H2872 0.930 . S
C2886 C2884 1.395 . S
C2886 C2889 1.403 . S
C2887 C2884 1.403 . S
C2887 C2888 1.524 . S
C2887 C2891 1.400 . S
C2888 H2873 0.960 . S
C2888 H2874 0.960 . S
C2888 H2875 0.960 . S
C2888 C2887 1.524 . S
C2889 C2886 1.403 . S
C2889 C2890 1.392 . S
C2889 C2893 1.495 . S
C2890 C2889 1.392 . S
C2890 C2891 1.385 . S
C2890 C2892 1.478 . S
C2891 H2885 0.930 . S
C2891 C2887 1.400 . S
C2891 C2890 1.385 . S
C2892 C2890 1.478 . S
C2892 C2894 1.381 . S
C2892 C2898 1.383 . S
C2893 C2889 1.495 . S
C2893 H2899 0.959 . S
C2893 H2900 0.961 . S
C2893 H2901 0.960 . S
C2894 C2892 1.381 . S
C2894 C2895 1.394 . S
C2894 H2902 0.930 . S
C2895 C2894 1.394 . S
C2895 C2896 1.383 . S
C2895 H2903 0.929 . S
C2896 C2895 1.383 . S
C2896 C2897 1.377 . S
C2897 H2881 0.930 . S
C2897 C2896 1.377 . S
C2897 C2898 1.379 . S
C2898 H2882 0.931 . S
C2898 C2892 1.383 . S
C2898 C2897 1.379 . S
H2899 C2893 0.959 . S
H2900 C2893 0.961 . S
H2901 C2893 0.960 . S
H2902 C2894 0.930 . S
H2903 C2895 0.929 . S
H2904 C2912 0.929 . S
H2905 C2914 0.930 . S
H2906 C2916 0.930 . S
H2907 C2919 0.929 . S
H2908 C2922 0.930 . S
H2909 C2924 0.960 . S
H2910 C2924 0.960 . S
H2911 C2924 0.960 . S
C2912 H2904 0.929 . S
C2912 C2913 1.377 . S
C2912 C2914 1.384 . S
C2913 C2912 1.377 . S
C2913 C2919 1.390 . S
C2914 H2905 0.930 . S
C2914 C2912 1.384 . S
C2914 C2915 1.372 . S
C2915 C2914 1.372 . S
C2915 C2916 1.400 . S
C2915 C2920 1.490 . S
C2916 H2906 0.930 . S
C2916 C2915 1.400 . S
C2916 C2919 1.386 . S
H2917 C2933 0.930 . S
H2918 C2934 0.931 . S
C2919 H2907 0.929 . S
C2919 C2913 1.390 . S
C2919 C2916 1.386 . S
C2920 C2915 1.490 . S
C2920 C2922 1.395 . S
C2920 C2923 1.403 . S
H2921 C2927 0.930 . S
C2922 H2908 0.930 . S
C2922 C2920 1.395 . S
C2922 C2925 1.403 . S
C2923 C2920 1.403 . S
C2923 C2924 1.524 . S
C2923 C2927 1.400 . S
C2924 H2909 0.960 . S
C2924 H2910 0.960 . S
C2924 H2911 0.960 . S
C2924 C2923 1.524 . S
C2925 C2922 1.403 . S
C2925 C2926 1.392 . S
C2925 C2929 1.495 . S
C2926 C2925 1.392 . S
C2926 C2927 1.385 . S
C2926 C2928 1.478 . S
C2927 H2921 0.930 . S
C2927 C2923 1.400 . S
C2927 C2926 1.385 . S
C2928 C2926 1.478 . S
C2928 C2930 1.381 . S
C2928 C2934 1.383 . S
C2929 C2925 1.495 . S
C2929 H2935 0.959 . S
C2929 H2936 0.961 . S
C2929 H2937 0.960 . S
C2930 C2928 1.381 . S
C2930 C2931 1.394 . S
C2930 H2938 0.930 . S
C2931 C2930 1.394 . S
C2931 C2932 1.383 . S
C2931 H2939 0.929 . S
C2932 C2931 1.383 . S
C2932 C2933 1.377 . S
C2933 H2917 0.930 . S
C2933 C2932 1.377 . S
C2933 C2934 1.379 . S
C2934 H2918 0.931 . S
C2934 C2928 1.383 . S
C2934 C2933 1.379 . S
H2935 C2929 0.959 . S
H2936 C2929 0.961 . S
H2937 C2929 0.960 . S
H2938 C2930 0.930 . S
H2939 C2931 0.929 . S
H2940 C2948 0.929 . S
H2941 C2950 0.930 . S
H2942 C2952 0.930 . S
H2943 C2955 0.929 . S
H2944 C2958 0.930 . S
H2945 C2960 0.960 . S
H2946 C2960 0.960 . S
H2947 C2960 0.960 . S
C2948 H2940 0.929 . S
C2948 C2949 1.377 . S
C2948 C2950 1.384 . S
C2949 C2948 1.377 . S
C2949 C2955 1.390 . S
C2950 H2941 0.930 . S
C2950 C2948 1.384 . S
C2950 C2951 1.372 . S
C2951 C2950 1.372 . S
C2951 C2952 1.400 . S
C2951 C2956 1.490 . S
C2952 H2942 0.930 . S
C2952 C2951 1.400 . S
C2952 C2955 1.386 . S
H2953 C2969 0.930 . S
H2954 C2970 0.931 . S
C2955 H2943 0.929 . S
C2955 C2949 1.390 . S
C2955 C2952 1.386 . S
C2956 C2951 1.490 . S
C2956 C2958 1.395 . S
C2956 C2959 1.403 . S
H2957 C2963 0.930 . S
C2958 H2944 0.930 . S
C2958 C2956 1.395 . S
C2958 C2961 1.403 . S
C2959 C2956 1.403 . S
C2959 C2960 1.524 . S
C2959 C2963 1.400 . S
C2960 H2945 0.960 . S
C2960 H2946 0.960 . S
C2960 H2947 0.960 . S
C2960 C2959 1.524 . S
C2961 C2958 1.403 . S
C2961 C2962 1.392 . S
C2961 C2965 1.495 . S
C2962 C2961 1.392 . S
C2962 C2963 1.385 . S
C2962 C2964 1.478 . S
C2963 H2957 0.930 . S
C2963 C2959 1.400 . S
C2963 C2962 1.385 . S
C2964 C2962 1.478 . S
C2964 C2966 1.381 . S
C2964 C2970 1.383 . S
C2965 C2961 1.495 . S
C2965 H2971 0.959 . S
C2965 H2972 0.961 . S
C2965 H2973 0.960 . S
C2966 C2964 1.381 . S
C2966 C2967 1.394 1_455 S
C2966 H2974 0.930 . S
C2967 C2966 1.394 1_655 S
C2967 C2968 1.383 . S
C2967 H2975 0.929 . S
C2968 C2967 1.383 . S
C2968 C2969 1.377 1_655 S
C2969 H2953 0.930 . S
C2969 C2968 1.377 1_455 S
C2969 C2970 1.379 . S
C2970 H2954 0.931 . S
C2970 C2964 1.383 . S
C2970 C2969 1.379 . S
H2971 C2965 0.959 . S
H2972 C2965 0.961 . S
H2973 C2965 0.960 . S
H2974 C2966 0.930 . S
H2975 C2967 0.929 . S
H2976 C2984 0.929 . S
H2977 C2986 0.930 . S
H2978 C2988 0.930 . S
H2979 C2991 0.929 . S
H2980 C2994 0.930 . S
H2981 C2996 0.960 . S
H2982 C2996 0.960 . S
H2983 C2996 0.960 . S
C2984 H2976 0.929 . S
C2984 C2985 1.377 1_554 S
C2984 C2986 1.384 . S
C2985 C2984 1.377 1_556 S
C2985 C2991 1.390 . S
C2986 H2977 0.930 . S
C2986 C2984 1.384 . S
C2986 C2987 1.372 . S
C2987 C2986 1.372 . S
C2987 C2988 1.400 . S
C2987 C2992 1.490 . S
C2988 H2978 0.930 . S
C2988 C2987 1.400 . S
C2988 C2991 1.386 1_554 S
H2989 C3005 0.930 . S
H2990 C3006 0.931 . S
C2991 H2979 0.929 . S
C2991 C2985 1.390 . S
C2991 C2988 1.386 1_556 S
C2992 C2987 1.490 . S
C2992 C2994 1.395 . S
C2992 C2995 1.403 . S
H2993 C2999 0.930 . S
C2994 H2980 0.930 . S
C2994 C2992 1.395 . S
C2994 C2997 1.403 . S
C2995 C2992 1.403 . S
C2995 C2996 1.524 . S
C2995 C2999 1.400 . S
C2996 H2981 0.960 . S
C2996 H2982 0.960 . S
C2996 H2983 0.960 . S
C2996 C2995 1.524 . S
C2997 C2994 1.403 . S
C2997 C2998 1.392 . S
C2997 C3001 1.495 . S
C2998 C2997 1.392 . S
C2998 C2999 1.385 . S
C2998 C3000 1.478 . S
C2999 H2993 0.930 . S
C2999 C2995 1.400 . S
C2999 C2998 1.385 . S
C3000 C2998 1.478 . S
C3000 C3002 1.381 . S
C3000 C3006 1.383 . S
C3001 C2997 1.495 . S
C3001 H3007 0.959 . S
C3001 H3008 0.961 . S
C3001 H3009 0.960 . S
C3002 C3000 1.381 . S
C3002 C3003 1.394 . S
C3002 H3010 0.930 . S
C3003 C3002 1.394 . S
C3003 C3004 1.383 1_565 S
C3003 H3011 0.929 . S
C3004 C3003 1.383 1_545 S
C3004 C3005 1.377 . S
C3005 H2989 0.930 . S
C3005 C3004 1.377 . S
C3005 C3006 1.379 1_545 S
C3006 H2990 0.931 . S
C3006 C3000 1.383 . S
C3006 C3005 1.379 1_565 S
H3007 C3001 0.959 . S
H3008 C3001 0.961 . S
H3009 C3001 0.960 . S
H3010 C3002 0.930 . S
H3011 C3003 0.929 . S
H3012 C3020 0.929 . S
H3013 C3022 0.930 . S
H3014 C3024 0.930 . S
H3015 C3027 0.929 . S
H3016 C3030 0.930 . S
H3017 C3032 0.960 . S
H3018 C3032 0.960 . S
H3019 C3032 0.960 . S
C3020 H3012 0.929 . S
C3020 C3021 1.377 . S
C3020 C3022 1.384 . S
C3021 C3020 1.377 . S
C3021 C3027 1.390 . S
C3022 H3013 0.930 . S
C3022 C3020 1.384 . S
C3022 C3023 1.372 . S
C3023 C3022 1.372 . S
C3023 C3024 1.400 . S
C3023 C3028 1.490 . S
C3024 H3014 0.930 . S
C3024 C3023 1.400 . S
C3024 C3027 1.386 . S
H3025 C3041 0.930 . S
H3026 C3042 0.931 1_554 S
C3027 H3015 0.929 . S
C3027 C3021 1.390 . S
C3027 C3024 1.386 . S
C3028 C3023 1.490 . S
C3028 C3030 1.395 . S
C3028 C3031 1.403 . S
H3029 C3035 0.930 . S
C3030 H3016 0.930 . S
C3030 C3028 1.395 . S
C3030 C3033 1.403 . S
C3031 C3028 1.403 . S
C3031 C3032 1.524 . S
C3031 C3035 1.400 . S
C3032 H3017 0.960 . S
C3032 H3018 0.960 . S
C3032 H3019 0.960 . S
C3032 C3031 1.524 . S
C3033 C3030 1.403 . S
C3033 C3034 1.392 . S
C3033 C3037 1.495 . S
C3034 C3033 1.392 . S
C3034 C3035 1.385 . S
C3034 C3036 1.478 . S
C3035 H3029 0.930 . S
C3035 C3031 1.400 . S
C3035 C3034 1.385 . S
C3036 C3034 1.478 . S
C3036 C3038 1.381 . S
C3036 C3042 1.383 . S
C3037 C3033 1.495 . S
C3037 H3043 0.959 . S
C3037 H3044 0.961 . S
C3037 H3045 0.960 . S
C3038 C3036 1.381 . S
C3038 C3039 1.394 . S
C3038 H3046 0.930 . S
C3039 C3038 1.394 . S
C3039 C3040 1.383 1_556 S
C3039 H3047 0.929 . S
C3040 C3039 1.383 1_554 S
C3040 C3041 1.377 . S
C3041 H3025 0.930 . S
C3041 C3040 1.377 . S
C3041 C3042 1.379 1_554 S
C3042 H3026 0.931 1_556 S
C3042 C3036 1.383 . S
C3042 C3041 1.379 1_556 S
H3043 C3037 0.959 . S
H3044 C3037 0.961 . S
H3045 C3037 0.960 . S
H3046 C3038 0.930 . S
H3047 C3039 0.929 . S
H3048 C3056 0.929 . S
H3049 C3058 0.930 . S
H3050 C3060 0.930 . S
H3051 C3063 0.929 . S
H3052 C3066 0.930 . S
H3053 C3068 0.960 . S
H3054 C3068 0.960 . S
H3055 C3068 0.960 . S
C3056 H3048 0.929 . S
C3056 C3057 1.377 . S
C3056 C3058 1.384 . S
C3057 C3056 1.377 . S
C3057 C3063 1.390 . S
C3058 H3049 0.930 . S
C3058 C3056 1.384 . S
C3058 C3059 1.372 . S
C3059 C3058 1.372 . S
C3059 C3060 1.400 . S
C3059 C3064 1.490 . S
C3060 H3050 0.930 . S
C3060 C3059 1.400 . S
C3060 C3063 1.386 . S
H3061 C3077 0.930 . S
H3062 C3078 0.931 . S
C3063 H3051 0.929 . S
C3063 C3057 1.390 . S
C3063 C3060 1.386 . S
C3064 C3059 1.490 . S
C3064 C3066 1.395 . S
C3064 C3067 1.403 . S
H3065 C3071 0.930 . S
C3066 H3052 0.930 . S
C3066 C3064 1.395 . S
C3066 C3069 1.403 . S
C3067 C3064 1.403 . S
C3067 C3068 1.524 . S
C3067 C3071 1.400 . S
C3068 H3053 0.960 . S
C3068 H3054 0.960 . S
C3068 H3055 0.960 . S
C3068 C3067 1.524 . S
C3069 C3066 1.403 . S
C3069 C3070 1.392 . S
C3069 C3073 1.495 . S
C3070 C3069 1.392 . S
C3070 C3071 1.385 . S
C3070 C3072 1.478 . S
C3071 H3065 0.930 . S
C3071 C3067 1.400 . S
C3071 C3070 1.385 . S
C3072 C3070 1.478 . S
C3072 C3074 1.381 . S
C3072 C3078 1.383 . S
C3073 C3069 1.495 . S
C3073 H3079 0.959 . S
C3073 H3080 0.961 . S
C3073 H3081 0.960 . S
C3074 C3072 1.381 . S
C3074 C3075 1.394 . S
C3074 H3082 0.930 . S
C3075 C3074 1.394 . S
C3075 C3076 1.383 . S
C3075 H3083 0.929 . S
C3076 C3075 1.383 . S
C3076 C3077 1.377 . S
C3077 H3061 0.930 . S
C3077 C3076 1.377 . S
C3077 C3078 1.379 . S
C3078 H3062 0.931 . S
C3078 C3072 1.383 . S
C3078 C3077 1.379 . S
H3079 C3073 0.959 . S
H3080 C3073 0.961 . S
H3081 C3073 0.960 . S
H3082 C3074 0.930 . S
H3083 C3075 0.929 . S
H3084 C3092 0.929 . S
H3085 C3094 0.930 . S
H3086 C3096 0.930 . S
H3087 C3099 0.929 . S
H3088 C3102 0.930 . S
H3089 C3104 0.960 . S
H3090 C3104 0.960 . S
H3091 C3104 0.960 . S
C3092 H3084 0.929 . S
C3092 C3093 1.377 . S
C3092 C3094 1.384 . S
C3093 C3092 1.377 . S
C3093 C3099 1.390 . S
C3094 H3085 0.930 . S
C3094 C3092 1.384 . S
C3094 C3095 1.372 . S
C3095 C3094 1.372 . S
C3095 C3096 1.400 . S
C3095 C3100 1.490 . S
C3096 H3086 0.930 . S
C3096 C3095 1.400 . S
C3096 C3099 1.386 . S
H3097 C3113 0.930 1_565 S
H3098 C3114 0.931 . S
C3099 H3087 0.929 . S
C3099 C3093 1.390 . S
C3099 C3096 1.386 . S
C3100 C3095 1.490 . S
C3100 C3102 1.395 . S
C3100 C3103 1.403 . S
H3101 C3107 0.930 . S
C3102 H3088 0.930 . S
C3102 C3100 1.395 . S
C3102 C3105 1.403 . S
C3103 C3100 1.403 . S
C3103 C3104 1.524 . S
C3103 C3107 1.400 . S
C3104 H3089 0.960 . S
C3104 H3090 0.960 . S
C3104 H3091 0.960 . S
C3104 C3103 1.524 . S
C3105 C3102 1.403 . S
C3105 C3106 1.392 . S
C3105 C3109 1.495 . S
C3106 C3105 1.392 . S
C3106 C3107 1.385 . S
C3106 C3108 1.478 . S
C3107 H3101 0.930 . S
C3107 C3103 1.400 . S
C3107 C3106 1.385 . S
C3108 C3106 1.478 . S
C3108 C3110 1.381 . S
C3108 C3114 1.383 . S
C3109 C3105 1.495 . S
C3109 H3115 0.959 . S
C3109 H3116 0.961 . S
C3109 H3117 0.960 . S
C3110 C3108 1.381 . S
C3110 C3111 1.394 . S
C3110 H3118 0.930 . S
C3111 C3110 1.394 . S
C3111 C3112 1.383 1_545 S
C3111 H3119 0.929 1_545 S
C3112 C3111 1.383 1_565 S
C3112 C3113 1.377 1_565 S
C3113 H3097 0.930 1_545 S
C3113 C3112 1.377 1_545 S
C3113 C3114 1.379 . S
C3114 H3098 0.931 . S
C3114 C3108 1.383 . S
C3114 C3113 1.379 . S
H3115 C3109 0.959 . S
H3116 C3109 0.961 . S
H3117 C3109 0.960 . S
H3118 C3110 0.930 . S
H3119 C3111 0.929 1_565 S
C537 C18 1.679 . S
C556 C417 1.604 . S
C573 C426 1.591 . S
C592 C40 1.621 . S
C609 C52 1.678 . S
C628 C367 1.648 1_545 S
C645 C74 1.679 . S
C664 C389 1.632 1_565 S
C681 C505 1.630 . S
C700 C98 1.678 . S
C717 C118 1.687 . S
C736 C477 1.633 1_556 S
C753 C513 1.632 . S
C772 C140 1.670 . S
C789 C164 1.679 . S
C808 C455 1.604 1_554 S
C825 C186 1.695 . S
C844 C307 1.621 . S
C861 C216 1.682 . S
C880 C345 1.652 1_655 S
C897 C315 1.627 . S
C916 C238 1.676 . S
C933 C250 1.687 . S
C952 C279 1.656 1_455 S
C969 C282 1.666 . S
C988 C139 1.593 . S
C1005 C296 1.683 . S
C1024 C175 1.651 . S
C1041 C316 1.682 . S
C1060 C109 1.638 1_565 S
C1077 C117 1.624 1_545 S
C1096 C348 1.666 . S
C1113 C370 1.680 . S
C1132 C235 1.613 . S
C1149 C213 1.629 1_554 S
C1168 C392 1.672 . S
C1185 C249 1.625 . S
C1204 C406 1.672 . S
C1221 C197 1.686 1_556 S
C1240 C425 1.720 . S
C1257 C37 1.628 . S
C1276 C458 1.671 . S
C1293 C73 1.626 1_455 S
C1312 C480 1.668 . S
C1329 C51 1.622 . S
C1348 C494 1.663 . S
C1365 C514 1.677 . S
C1384 C15 1.606 1_655 S
C1401 C106 0.841 . S
C1420 C10 0.795 . S
C1437 C120 0.846 . S
C1456 C32 0.799 . S
C1473 C142 0.853 . S
C1492 C62 0.881 . S
C1509 C172 0.849 . S
C1528 C84 0.827 . S
C1545 C96 0.861 . S
C1564 C194 0.888 . S
C1581 C128 0.837 . S
C1600 C252 0.853 . S
C1617 C150 0.844 . S
C1636 C206 0.851 . S
C1653 C162 0.845 . S
C1672 C228 0.873 . S
C1689 C184 0.833 . S
C1708 C8 0.818 . S
C1725 C208 0.839 . S
C1744 C54 0.855 . S
C1761 C230 0.827 . S
C1780 C76 0.810 . S
C1797 C30 0.862 . S
C1816 C260 0.890 . S
C1833 C360 0.848 . S
C1852 C274 0.793 . S
C1869 C382 0.846 . S
C1888 C294 0.885 . S
C1905 C326 0.835 . S
C1924 C414 0.842 . S
C1941 C340 0.874 . S
C1960 C433 0.907 . S
C1977 C448 0.843 . S
C1996 C362 0.881 . S
C2013 C384 0.836 . S
C2032 C516 0.818 . S
C2049 C470 0.831 . S
C2068 C404 0.853 . S
C2085 C439 0.875 . S
C2104 C502 0.875 . S
C2121 C272 0.838 . S
C2140 C450 0.877 . S
C2157 C472 0.837 . S
C2176 C318 0.875 . S
C2193 C492 0.816 . S
C2212 C338 0.839 . S
C2229 C304 0.854 . S
C2248 C524 0.799 . S
C2265 C21 1.214 . S
C2284 C205 1.215 . S
C2301 C227 1.198 . S
C2320 C43 1.207 . S
C2337 C191 1.209 . S
C2356 C59 1.218 . S
C2373 C263 1.214 . S
C2392 C81 1.215 . S
C2409 C95 1.216 . S
C2428 C87 1.215 . S
C2445 C65 1.213 . S
C2464 C125 1.213 . S
C2481 C147 1.210 . S
C2500 C29 1.209 . S
C2517 C7 1.217 . S
C2536 C161 1.227 . S
C2553 C183 1.208 . S
C2572 C131 1.206 . S
C2589 C219 1.221 . S
C2608 C169 1.206 . S
C2625 C241 1.219 . S
C2644 C153 1.226 . S
C2661 C257 1.222 . S
C2680 C103 1.211 . S
C2697 C285 1.236 . S
C2716 C469 1.233 . S
C2733 C293 1.229 . S
C2752 C499 1.213 . S
C2769 C447 1.222 . S
C2788 C323 1.227 . S
C2805 C527 1.223 . S
C2824 C351 1.219 . S
C2841 C373 1.226 . S
C2860 C337 1.222 . S
C2877 C395 1.218 . S
C2896 C329 1.202 . S
C2913 C301 1.211 . S
C2932 C403 1.207 . S
C2949 C428 1.167 . S
C2968 C271 1.161 . S
C2985 C461 1.220 . S
C3004 C381 1.225 . S
C3021 C436 1.163 . S
C3040 C483 1.176 . S
C3057 C491 1.227 . S
C3076 C411 1.230 . S
C3093 C521 1.214 . S
C3112 C359 1.205 . S
