# Generated by pormake.
# Topology zfb, (5)-cn, num edge types: 1
# Building blocks:
#     Node 0, Type 0, BuildingBlock: BEQFEK_clean_sbu_0, # of connection points: 5
#     Node 1, Type 0, BuildingBlock: BEQFEK_clean_sbu_0, # of connection points: 5
#     Node 2, Type 0, BuildingBlock: BEQFEK_clean_sbu_0, # of connection points: 5
#     Node 3, Type 0, BuildingBlock: BEQFEK_clean_sbu_0, # of connection points: 5
#     Node 4, Type 0, BuildingBlock: BEQFEK_clean_sbu_0, # of connection points: 5
#     Node 5, Type 0, BuildingBlock: BEQFEK_clean_sbu_0, # of connection points: 5
#     Node 6, Type 0, BuildingBlock: BEQFEK_clean_sbu_0, # of connection points: 5
#     Node 7, Type 0, BuildingBlock: BEQFEK_clean_sbu_0, # of connection points: 5
#     Edge 8, Type (0, 0), None
#     Edge 9, Type (0, 0), None
#     Edge 10, Type (0, 0), None
#     Edge 11, Type (0, 0), None
#     Edge 12, Type (0, 0), None
#     Edge 13, Type (0, 0), None
#     Edge 14, Type (0, 0), None
#     Edge 15, Type (0, 0), None
#     Edge 16, Type (0, 0), None
#     Edge 17, Type (0, 0), None
#     Edge 18, Type (0, 0), None
#     Edge 19, Type (0, 0), None
#     Edge 20, Type (0, 0), None
#     Edge 21, Type (0, 0), None
#     Edge 22, Type (0, 0), None
#     Edge 23, Type (0, 0), None
#     Edge 24, Type (0, 0), None
#     Edge 25, Type (0, 0), None
#     Edge 26, Type (0, 0), None
#     Edge 27, Type (0, 0), None
# Relax obj value: 0.096
# Max RMSD: 0.123
# Mean RMSD: 0.123
data_MOF--net-zfb--node1-BEQFEK_clean_sbu_0--edge1-none
_symmetry_space_group_name_H-M    P1
_symmetry_Int_Tables_number       1
_symmetry_cell_setting            triclinic
loop_
_symmetry_equiv_pos_as_xyz
'x, y, z'
_cell_length_a     14.789756
_cell_length_b     14.790128
_cell_length_c     22.192717
_cell_angle_alpha  89.999997
_cell_angle_beta   90.000001
_cell_angle_gamma 89.998275
loop_
_atom_site_label
_atom_site_type_symbol
_atom_site_fract_x
_atom_site_fract_y
_atom_site_fract_z
_atom_type_partial_charge
Co0 Co 0.19576 0.40203 0.14166 0.0
Co1 Co 0.19583 0.42469 1.00153 0.0
C2 C 0.04192 0.47655 0.08486 0.0
O3 O 0.07117 0.43904 0.13252 0.0
O4 O 0.08519 0.4754 0.03546 0.0
C5 C 0.15526 0.33659 0.26678 0.0
O6 O 0.08804 0.29242 0.24173 0.0
C7 C 0.11163 0.39892 0.88567 0.0
C8 C 0.21985 0.44334 0.82375 0.0
C9 C 0.13313 0.4084 0.82552 0.0
N10 N 0.18258 0.42716 0.91804 0.0
N11 N 0.24676 0.45464 0.88096 0.0
C12 C 0.02669 0.36039 0.91212 0.0
H13 H 0.03086 0.35698 0.96188 0.0
H14 H 0.01444 0.29131 0.89465 0.0
H15 H 0.96827 0.40294 0.89861 0.0
C16 C 0.21294 0.20519 0.09969 0.0
N17 N 0.21303 0.29528 0.08914 0.0
N18 N 0.21381 0.30695 0.03032 0.0
C19 C 0.21542 0.22597 1.00196 0.0
C20 C 0.21088 0.15765 0.04474 0.0
C21 C 0.22281 0.16537 0.16112 0.0
H22 H 0.24357 0.21758 0.19395 0.0
H23 H 0.15769 0.13474 0.17521 0.0
H24 H 0.27569 0.11234 0.16045 0.0
O25 O 0.25055 0.52401 0.11378 0.0
O26 O 0.29211 0.50775 0.0192 0.0
H27 H 0.26536 0.15484 0.9234 0.0
H28 H 0.15562 0.20484 0.91524 0.0
C29 C 0.22372 0.21444 0.93508 0.0
H30 H 0.2567 0.274 0.91462 0.0
H31 H 0.31026 0.47738 0.89467 0.0
O32 O 0.20977 0.38174 0.23331 0.0
C33 C 0.28273 0.55741 0.06502 0.0
Co34 Co 0.5952 0.19576 0.64166 0.0
Co35 Co 0.57254 0.19583 0.50153 0.0
C36 C 0.52066 0.04194 0.58486 0.0
O37 O 0.55818 0.07118 0.63252 0.0
O38 O 0.52181 0.0852 0.53546 0.0
C39 C 0.66064 0.15525 0.76678 0.0
O40 O 0.70481 0.08803 0.74173 0.0
C41 C 0.5983 0.11164 0.38567 0.0
C42 C 0.55389 0.21987 0.32375 0.0
C43 C 0.58882 0.13313 0.32552 0.0
N44 N 0.57007 0.18258 0.41804 0.0
N45 N 0.54259 0.24677 0.38096 0.0
C46 C 0.63681 0.02669 0.41211 0.0
H47 H 0.64023 0.03086 0.46188 0.0
H48 H 0.7059 0.01443 0.39465 0.0
H49 H 0.59426 0.96827 0.39861 0.0
C50 C 0.79205 0.21294 0.59969 0.0
N51 N 0.70195 0.21302 0.58914 0.0
N52 N 0.69028 0.21379 0.53032 0.0
C53 C 0.77126 0.21541 0.50196 0.0
C54 C 0.83959 0.21088 0.54474 0.0
C55 C 0.83186 0.22281 0.66112 0.0
H56 H 0.77965 0.24356 0.69395 0.0
H57 H 0.86251 0.1577 0.67521 0.0
H58 H 0.88489 0.2757 0.66045 0.0
O59 O 0.47323 0.25057 0.61378 0.0
O60 O 0.48949 0.29213 0.5192 0.0
H61 H 0.8424 0.26532 0.42339 0.0
H62 H 0.79238 0.1556 0.41524 0.0
C63 C 0.78279 0.2237 0.43508 0.0
H64 H 0.72324 0.2567 0.41462 0.0
H65 H 0.51986 0.31028 0.39467 0.0
O66 O 0.61549 0.20976 0.73331 0.0
C67 C 0.43983 0.28275 0.56502 0.0
Co68 Co 0.80141 0.59519 0.14166 0.0
Co69 Co 0.80135 0.57253 1.00153 0.0
C70 C 0.95525 0.52066 0.08486 0.0
O71 O 0.92601 0.55818 0.13252 0.0
O72 O 0.91199 0.52181 0.03546 0.0
C73 C 0.84192 0.66063 0.26678 0.0
O74 O 0.90914 0.7048 0.24173 0.0
C75 C 0.88554 0.5983 0.88567 0.0
C76 C 0.77732 0.55388 0.82375 0.0
C77 C 0.86405 0.58882 0.82552 0.0
N78 N 0.8146 0.57006 0.91804 0.0
N79 N 0.75041 0.54258 0.88096 0.0
C80 C 0.97049 0.63682 0.91212 0.0
H81 H 0.96631 0.64023 0.96188 0.0
H82 H 0.98273 0.70591 0.89465 0.0
H83 H 0.02891 0.59428 0.89861 0.0
C84 C 0.78423 0.79203 0.09969 0.0
N85 N 0.78415 0.70194 0.08914 0.0
N86 N 0.78337 0.69027 0.03032 0.0
C87 C 0.78176 0.77125 1.00196 0.0
C88 C 0.7863 0.83957 0.04474 0.0
C89 C 0.77437 0.83185 0.16112 0.0
H90 H 0.75361 0.77964 0.19395 0.0
H91 H 0.83949 0.86248 0.17521 0.0
H92 H 0.72148 0.88488 0.16045 0.0
O93 O 0.74663 0.47321 0.11378 0.0
O94 O 0.70506 0.48948 0.01921 0.0
H95 H 0.73182 0.84238 0.9234 0.0
H96 H 0.84156 0.79238 0.91524 0.0
C97 C 0.77346 0.78278 0.93508 0.0
H98 H 0.74047 0.72322 0.91462 0.0
H99 H 0.68691 0.51984 0.89467 0.0
O100 O 0.78741 0.61548 0.23331 0.0
C101 C 0.71445 0.43982 0.06502 0.0
Co102 Co 0.40198 0.80146 0.64166 0.0
Co103 Co 0.42464 0.80139 0.50152 0.0
C104 C 0.47653 0.95527 0.58486 0.0
O105 O 0.439 0.92604 0.63252 0.0
O106 O 0.47537 0.91202 0.53546 0.0
C107 C 0.33654 0.84197 0.76678 0.0
O108 O 0.29237 0.90919 0.74173 0.0
C109 C 0.39888 0.88558 0.38567 0.0
C110 C 0.44329 0.77735 0.32375 0.0
C111 C 0.40836 0.86409 0.32552 0.0
N112 N 0.42711 0.81464 0.41804 0.0
N113 N 0.45459 0.75045 0.38096 0.0
C114 C 0.36036 0.97053 0.41211 0.0
H115 H 0.35696 0.96636 0.46188 0.0
H116 H 0.29128 0.98279 0.39465 0.0
H117 H 0.40291 0.02895 0.39861 0.0
C118 C 0.20513 0.78428 0.59969 0.0
N119 N 0.29523 0.78421 0.58914 0.0
N120 N 0.3069 0.78343 0.53032 0.0
C121 C 0.22592 0.78181 0.50196 0.0
C122 C 0.15759 0.78634 0.54474 0.0
C123 C 0.16532 0.77441 0.66112 0.0
H124 H 0.21753 0.75366 0.69395 0.0
H125 H 0.13467 0.83952 0.67521 0.0
H126 H 0.11229 0.72151 0.66045 0.0
O127 O 0.52395 0.74665 0.61378 0.0
O128 O 0.50768 0.70509 0.5192 0.0
H129 H 0.15478 0.7319 0.42339 0.0
H130 H 0.2048 0.84162 0.41524 0.0
C131 C 0.21438 0.77352 0.43508 0.0
H132 H 0.27394 0.74052 0.41462 0.0
H133 H 0.47732 0.68694 0.39467 0.0
O134 O 0.38169 0.78746 0.73331 0.0
C135 C 0.55735 0.71447 0.56502 0.0
Co136 Co 0.69578 0.09517 0.95876 0.0
Co137 Co 0.69583 0.07254 0.0989 0.0
C138 C 0.54193 0.02067 0.01558 0.0
O139 O 0.57118 0.05816 0.96792 0.0
O140 O 0.58518 0.02183 0.06499 0.0
C141 C 0.65527 0.16062 0.83365 0.0
O142 O 0.58807 0.20483 0.8587 0.0
C143 C 0.61161 0.09849 0.2147 0.0
C144 C 0.71977 0.05407 0.27671 0.0
C145 C 0.63312 0.08919 0.27485 0.0
N146 N 0.68257 0.07014 0.18239 0.0
N147 N 0.74671 0.04265 0.21951 0.0
C148 C 0.52668 0.13692 0.18818 0.0
H149 H 0.53113 0.14075 0.13844 0.0
H150 H 0.51404 0.20581 0.20588 0.0
H151 H 0.46835 0.09403 0.20137 0.0
C152 C 0.71303 0.29202 1.00073 0.0
N153 N 0.71306 0.20193 0.01128 0.0
N154 N 0.71384 0.19026 0.07009 0.0
C155 C 0.71549 0.27124 0.09846 0.0
C156 C 0.71104 0.33956 0.05568 0.0
C157 C 0.72288 0.33184 0.93929 0.0
H158 H 0.74364 0.27963 0.90646 0.0
H159 H 0.65775 0.36246 0.92521 0.0
H160 H 0.77576 0.38488 0.93997 0.0
O161 O 0.75061 0.9732 0.98664 0.0
O162 O 0.7921 0.98946 0.08124 0.0
H163 H 0.76524 0.34244 0.17706 0.0
H164 H 0.65561 0.29219 0.18517 0.0
C165 C 0.72374 0.28276 0.16534 0.0
H166 H 0.75685 0.22325 0.18579 0.0
H167 H 0.81019 0.01981 0.20584 0.0
O168 O 0.70977 0.11546 0.86712 0.0
C169 C 0.78278 0.93983 0.03541 0.0
Co170 Co 0.902 0.69579 0.45876 0.0
Co171 Co 0.92463 0.69584 0.59891 0.0
C172 C 0.97653 0.54194 0.51559 0.0
O173 O 0.93903 0.5712 0.46792 0.0
O174 O 0.97535 0.5852 0.56499 0.0
C175 C 0.83655 0.65527 0.33365 0.0
O176 O 0.79234 0.58807 0.3587 0.0
C177 C 0.89869 0.61162 0.7147 0.0
C178 C 0.94309 0.71977 0.77671 0.0
C179 C 0.90799 0.63312 0.77485 0.0
N180 N 0.92703 0.68257 0.68239 0.0
N181 N 0.95451 0.74671 0.71951 0.0
C182 C 0.86026 0.52668 0.68818 0.0
H183 H 0.85644 0.53114 0.63844 0.0
H184 H 0.79137 0.51405 0.70587 0.0
H185 H 0.90316 0.46836 0.70137 0.0
C186 C 0.70514 0.71303 0.50073 0.0
N187 N 0.79524 0.71307 0.51128 0.0
N188 N 0.80691 0.71384 0.57009 0.0
C189 C 0.72593 0.7155 0.59846 0.0
C190 C 0.65761 0.71105 0.55568 0.0
C191 C 0.66533 0.72289 0.43929 0.0
H192 H 0.71753 0.74364 0.40646 0.0
H193 H 0.6347 0.65777 0.42521 0.0
H194 H 0.61229 0.77578 0.43997 0.0
O195 O 0.02396 0.75063 0.48664 0.0
O196 O 0.0077 0.79212 0.58124 0.0
H197 H 0.65472 0.76524 0.67706 0.0
H198 H 0.70499 0.65562 0.68517 0.0
C199 C 0.71441 0.72375 0.66534 0.0
H200 H 0.77391 0.75686 0.68579 0.0
H201 H 0.97735 0.81019 0.70584 0.0
O202 O 0.88171 0.70977 0.36712 0.0
C203 C 0.05733 0.7828 0.53541 0.0
Co204 Co 0.3014 0.90205 0.95876 0.0
Co205 Co 0.30134 0.92468 0.0989 0.0
C206 C 0.45525 0.97656 0.01558 0.0
O207 O 0.42599 0.93907 0.96792 0.0
O208 O 0.41199 0.97539 0.06499 0.0
C209 C 0.34191 0.8366 0.83365 0.0
O210 O 0.40911 0.79239 0.8587 0.0
C211 C 0.38556 0.89873 0.2147 0.0
C212 C 0.27741 0.94315 0.27671 0.0
C213 C 0.36406 0.90804 0.27485 0.0
N214 N 0.31461 0.92708 0.18239 0.0
N215 N 0.25047 0.95457 0.21951 0.0
C216 C 0.4705 0.8603 0.18818 0.0
H217 H 0.46605 0.85648 0.13844 0.0
H218 H 0.48313 0.79141 0.20587 0.0
H219 H 0.52882 0.90319 0.20137 0.0
C220 C 0.28415 0.7052 1.00073 0.0
N221 N 0.28411 0.7953 0.01128 0.0
N222 N 0.28334 0.80696 0.07009 0.0
C223 C 0.28168 0.72598 0.09846 0.0
C224 C 0.28613 0.65766 0.05568 0.0
C225 C 0.2743 0.66539 0.93929 0.0
H226 H 0.25354 0.71759 0.90646 0.0
H227 H 0.33942 0.63476 0.92521 0.0
H228 H 0.22142 0.61234 0.93997 0.0
O229 O 0.24657 0.02402 0.98664 0.0
O230 O 0.20507 0.00776 0.08124 0.0
H231 H 0.23193 0.65478 0.17706 0.0
H232 H 0.34156 0.70503 0.18518 0.0
C233 C 0.27343 0.71446 0.16534 0.0
H234 H 0.24032 0.77397 0.18579 0.0
H235 H 0.18699 0.97741 0.20584 0.0
O236 O 0.28741 0.88176 0.86712 0.0
C237 C 0.2144 0.05739 0.03541 0.0
Co238 Co 0.09518 0.30143 0.45876 0.0
Co239 Co 0.07254 0.30137 0.59891 0.0
C240 C 0.02064 0.45527 0.51558 0.0
O241 O 0.05814 0.42602 0.46792 0.0
O242 O 0.02182 0.41202 0.56499 0.0
C243 C 0.16063 0.34195 0.33365 0.0
O244 O 0.20483 0.40915 0.3587 0.0
C245 C 0.09849 0.3856 0.7147 0.0
C246 C 0.05408 0.27744 0.77671 0.0
C247 C 0.08919 0.36409 0.77485 0.0
N248 N 0.07014 0.31464 0.68239 0.0
N249 N 0.04267 0.2505 0.71951 0.0
C250 C 0.13691 0.47053 0.68818 0.0
H251 H 0.14072 0.46608 0.63844 0.0
H252 H 0.2058 0.48317 0.70587 0.0
H253 H 0.09401 0.52885 0.70137 0.0
C254 C 0.29204 0.28418 0.50073 0.0
N255 N 0.20194 0.28415 0.51128 0.0
N256 N 0.19027 0.28338 0.57009 0.0
C257 C 0.27125 0.28172 0.59846 0.0
C258 C 0.33957 0.28617 0.55568 0.0
C259 C 0.33185 0.27433 0.43929 0.0
H260 H 0.27964 0.25358 0.40646 0.0
H261 H 0.36248 0.33945 0.42521 0.0
H262 H 0.38489 0.22144 0.43997 0.0
O263 O 0.97322 0.24659 0.48664 0.0
O264 O 0.98948 0.2051 0.58124 0.0
H265 H 0.34246 0.23198 0.67706 0.0
H266 H 0.29219 0.3416 0.68518 0.0
C267 C 0.28277 0.27347 0.66534 0.0
H268 H 0.22327 0.24036 0.68579 0.0
H269 H 0.01983 0.18702 0.70584 0.0
O270 O 0.11547 0.28745 0.36712 0.0
C271 C 0.93984 0.21441 0.53541 0.0
loop_
_geom_bond_atom_site_label_1
_geom_bond_atom_site_label_2
_geom_bond_distance
_geom_bond_site_symmetry_2
_ccdc_geom_bond_type
Co0 O3 1.970 . S
Co0 N17 1.989 . S
Co0 O25 1.967 . S
Co0 O32 1.920 . S
Co1 O4 1.966 1_556 S
Co1 N10 2.022 . S
Co1 N18 1.993 1_556 S
Co1 O26 1.941 1_556 S
C2 O3 1.258 . S
C2 O4 1.263 . S
O3 Co0 1.970 . S
O3 C2 1.258 . S
O4 Co1 1.966 1_554 S
O4 C2 1.263 . S
C5 O6 1.235 . S
C5 O32 1.289 . S
O6 C5 1.235 . S
C7 C9 1.400 . S
C7 N10 1.351 . S
C7 C12 1.501 . S
C8 C9 1.387 . S
C8 N11 1.341 . S
C9 C7 1.400 . S
C9 C8 1.387 . S
N10 Co1 2.022 . S
N10 C7 1.351 . S
N10 N11 1.365 . S
N11 C8 1.341 . S
N11 N10 1.365 . S
N11 H31 0.862 . S
C12 C7 1.501 . S
C12 H13 0.961 . S
C12 H14 0.961 1_455 S
C12 H15 0.960 1_455 S
H13 C12 0.961 . S
H14 C12 0.961 1_655 S
H15 C12 0.960 1_655 S
C16 N17 1.342 . S
C16 C20 1.401 . S
C16 C21 1.499 . S
N17 Co0 1.989 . S
N17 C16 1.342 . S
N17 N18 1.388 . S
N18 Co1 1.993 1_554 S
N18 N17 1.388 . S
N18 C19 1.346 . S
C19 N18 1.346 . S
C19 C20 1.396 . S
C19 C29 1.510 1_554 S
C20 C16 1.401 . S
C20 C19 1.396 . S
C21 C16 1.499 . S
C21 H22 0.959 . S
C21 H23 0.960 . S
C21 H24 0.961 . S
H22 C21 0.959 . S
H23 C21 0.960 . S
H24 C21 0.961 . S
O25 Co0 1.967 . S
O25 C33 1.258 . S
O26 Co1 1.941 1_554 S
O26 C33 1.266 . S
H27 C29 0.959 . S
H28 C29 0.961 . S
C29 C19 1.510 1_556 S
C29 H27 0.959 . S
C29 H28 0.961 . S
C29 H30 0.960 . S
H30 C29 0.960 . S
H31 N11 0.862 . S
O32 Co0 1.920 . S
O32 C5 1.289 . S
C33 O25 1.258 . S
C33 O26 1.266 . S
Co34 O37 1.970 . S
Co34 N51 1.989 . S
Co34 O59 1.967 . S
Co34 O66 1.920 . S
Co35 O38 1.966 . S
Co35 N44 2.022 . S
Co35 N52 1.993 . S
Co35 O60 1.941 . S
C36 O37 1.258 . S
C36 O38 1.263 . S
O37 Co34 1.970 . S
O37 C36 1.258 . S
O38 Co35 1.966 . S
O38 C36 1.263 . S
C39 O40 1.235 . S
C39 O66 1.289 . S
O40 C39 1.235 . S
C41 C43 1.400 . S
C41 N44 1.351 . S
C41 C46 1.501 . S
C42 C43 1.387 . S
C42 N45 1.341 . S
C43 C41 1.400 . S
C43 C42 1.387 . S
N44 Co35 2.022 . S
N44 C41 1.351 . S
N44 N45 1.365 . S
N45 C42 1.341 . S
N45 N44 1.365 . S
N45 H65 0.862 . S
C46 C41 1.501 . S
C46 H47 0.961 . S
C46 H48 0.961 1_545 S
C46 H49 0.960 1_545 S
H47 C46 0.961 . S
H48 C46 0.961 1_565 S
H49 C46 0.960 1_565 S
C50 N51 1.342 . S
C50 C54 1.401 . S
C50 C55 1.499 . S
N51 Co34 1.989 . S
N51 C50 1.342 . S
N51 N52 1.388 . S
N52 Co35 1.993 . S
N52 N51 1.388 . S
N52 C53 1.346 . S
C53 N52 1.346 . S
C53 C54 1.396 . S
C53 C63 1.510 . S
C54 C50 1.401 . S
C54 C53 1.396 . S
C55 C50 1.499 . S
C55 H56 0.959 . S
C55 H57 0.960 . S
C55 H58 0.961 . S
H56 C55 0.959 . S
H57 C55 0.960 . S
H58 C55 0.961 . S
O59 Co34 1.967 . S
O59 C67 1.258 . S
O60 Co35 1.941 . S
O60 C67 1.266 . S
H61 C63 0.959 . S
H62 C63 0.961 . S
C63 C53 1.510 . S
C63 H61 0.959 . S
C63 H62 0.961 . S
C63 H64 0.960 . S
H64 C63 0.960 . S
H65 N45 0.862 . S
O66 Co34 1.920 . S
O66 C39 1.289 . S
C67 O59 1.258 . S
C67 O60 1.266 . S
Co68 O71 1.970 . S
Co68 N85 1.989 . S
Co68 O93 1.967 . S
Co68 O100 1.920 . S
Co69 O72 1.966 1_556 S
Co69 N78 2.022 . S
Co69 N86 1.993 1_556 S
Co69 O94 1.941 1_556 S
C70 O71 1.258 . S
C70 O72 1.263 . S
O71 Co68 1.970 . S
O71 C70 1.258 . S
O72 Co69 1.966 1_554 S
O72 C70 1.263 . S
C73 O74 1.235 . S
C73 O100 1.289 . S
O74 C73 1.235 . S
C75 C77 1.400 . S
C75 N78 1.351 . S
C75 C80 1.501 . S
C76 C77 1.387 . S
C76 N79 1.341 . S
C77 C75 1.400 . S
C77 C76 1.387 . S
N78 Co69 2.022 . S
N78 C75 1.351 . S
N78 N79 1.365 . S
N79 C76 1.341 . S
N79 N78 1.365 . S
N79 H99 0.862 . S
C80 C75 1.501 . S
C80 H81 0.961 . S
C80 H82 0.961 1_655 S
C80 H83 0.960 1_655 S
H81 C80 0.961 . S
H82 C80 0.961 1_455 S
H83 C80 0.960 1_455 S
C84 N85 1.342 . S
C84 C88 1.401 . S
C84 C89 1.499 . S
N85 Co68 1.989 . S
N85 C84 1.342 . S
N85 N86 1.388 . S
N86 Co69 1.993 1_554 S
N86 N85 1.388 . S
N86 C87 1.346 . S
C87 N86 1.346 . S
C87 C88 1.396 . S
C87 C97 1.510 1_554 S
C88 C84 1.401 . S
C88 C87 1.396 . S
C89 C84 1.499 . S
C89 H90 0.959 . S
C89 H91 0.960 . S
C89 H92 0.961 . S
H90 C89 0.959 . S
H91 C89 0.960 . S
H92 C89 0.961 . S
O93 Co68 1.967 . S
O93 C101 1.258 . S
O94 Co69 1.941 1_554 S
O94 C101 1.266 . S
H95 C97 0.959 . S
H96 C97 0.961 . S
C97 C87 1.510 1_556 S
C97 H95 0.959 . S
C97 H96 0.961 . S
C97 H98 0.960 . S
H98 C97 0.960 . S
H99 N79 0.862 . S
O100 Co68 1.920 . S
O100 C73 1.289 . S
C101 O93 1.258 . S
C101 O94 1.266 . S
Co102 O105 1.970 . S
Co102 N119 1.989 . S
Co102 O127 1.967 . S
Co102 O134 1.920 . S
Co103 O106 1.966 . S
Co103 N112 2.022 . S
Co103 N120 1.993 . S
Co103 O128 1.941 . S
C104 O105 1.258 . S
C104 O106 1.263 . S
O105 Co102 1.970 . S
O105 C104 1.258 . S
O106 Co103 1.966 . S
O106 C104 1.263 . S
C107 O108 1.235 . S
C107 O134 1.289 . S
O108 C107 1.235 . S
C109 C111 1.400 . S
C109 N112 1.351 . S
C109 C114 1.501 . S
C110 C111 1.387 . S
C110 N113 1.341 . S
C111 C109 1.400 . S
C111 C110 1.387 . S
N112 Co103 2.022 . S
N112 C109 1.351 . S
N112 N113 1.365 . S
N113 C110 1.341 . S
N113 N112 1.365 . S
N113 H133 0.862 . S
C114 C109 1.501 . S
C114 H115 0.961 . S
C114 H116 0.961 1_565 S
C114 H117 0.960 1_565 S
H115 C114 0.961 . S
H116 C114 0.961 1_545 S
H117 C114 0.960 1_545 S
C118 N119 1.342 . S
C118 C122 1.401 . S
C118 C123 1.499 . S
N119 Co102 1.989 . S
N119 C118 1.342 . S
N119 N120 1.388 . S
N120 Co103 1.993 . S
N120 N119 1.388 . S
N120 C121 1.346 . S
C121 N120 1.346 . S
C121 C122 1.396 . S
C121 C131 1.510 . S
C122 C118 1.401 . S
C122 C121 1.396 . S
C123 C118 1.499 . S
C123 H124 0.959 . S
C123 H125 0.960 . S
C123 H126 0.961 . S
H124 C123 0.959 . S
H125 C123 0.960 . S
H126 C123 0.961 . S
O127 Co102 1.967 . S
O127 C135 1.258 . S
O128 Co103 1.941 . S
O128 C135 1.266 . S
H129 C131 0.959 . S
H130 C131 0.961 . S
C131 C121 1.510 . S
C131 H129 0.959 . S
C131 H130 0.961 . S
C131 H132 0.960 . S
H132 C131 0.960 . S
H133 N113 0.862 . S
O134 Co102 1.920 . S
O134 C107 1.289 . S
C135 O127 1.258 . S
C135 O128 1.266 . S
Co136 O139 1.970 . S
Co136 N153 1.989 . S
Co136 O161 1.967 1_545 S
Co136 O168 1.920 . S
Co137 O140 1.966 . S
Co137 N146 2.022 . S
Co137 N154 1.993 . S
Co137 O162 1.941 1_545 S
C138 O139 1.258 1_554 S
C138 O140 1.263 . S
O139 Co136 1.970 . S
O139 C138 1.258 1_556 S
O140 Co137 1.966 . S
O140 C138 1.263 . S
C141 O142 1.235 . S
C141 O168 1.289 . S
O142 C141 1.235 . S
C143 C145 1.400 . S
C143 N146 1.351 . S
C143 C148 1.501 . S
C144 C145 1.387 . S
C144 N147 1.341 . S
C145 C143 1.400 . S
C145 C144 1.387 . S
N146 Co137 2.022 . S
N146 C143 1.351 . S
N146 N147 1.365 . S
N147 C144 1.341 . S
N147 N146 1.365 . S
N147 H167 0.862 . S
C148 C143 1.501 . S
C148 H149 0.961 . S
C148 H150 0.961 . S
C148 H151 0.960 . S
H149 C148 0.961 . S
H150 C148 0.961 . S
H151 C148 0.960 . S
C152 N153 1.342 . S
C152 C156 1.401 1_556 S
C152 C157 1.499 . S
N153 Co136 1.989 . S
N153 C152 1.342 . S
N153 N154 1.388 1_556 S
N154 Co137 1.993 . S
N154 N153 1.388 1_554 S
N154 C155 1.346 . S
C155 N154 1.346 . S
C155 C156 1.396 . S
C155 C165 1.510 . S
C156 C152 1.401 1_554 S
C156 C155 1.396 . S
C157 C152 1.499 . S
C157 H158 0.959 . S
C157 H159 0.960 . S
C157 H160 0.961 . S
H158 C157 0.959 . S
H159 C157 0.960 . S
H160 C157 0.961 . S
O161 Co136 1.967 1_565 S
O161 C169 1.258 1_556 S
O162 Co137 1.941 1_565 S
O162 C169 1.266 . S
H163 C165 0.959 . S
H164 C165 0.961 . S
C165 C155 1.510 . S
C165 H163 0.959 . S
C165 H164 0.961 . S
C165 H166 0.960 . S
H166 C165 0.960 . S
H167 N147 0.862 . S
O168 Co136 1.920 . S
O168 C141 1.289 . S
C169 O161 1.258 1_554 S
C169 O162 1.266 . S
Co170 O173 1.970 . S
Co170 N187 1.989 . S
Co170 O195 1.967 1_655 S
Co170 O202 1.920 . S
Co171 O174 1.966 . S
Co171 N180 2.022 . S
Co171 N188 1.993 . S
Co171 O196 1.941 1_655 S
C172 O173 1.258 . S
C172 O174 1.263 . S
O173 Co170 1.970 . S
O173 C172 1.258 . S
O174 Co171 1.966 . S
O174 C172 1.263 . S
C175 O176 1.235 . S
C175 O202 1.289 . S
O176 C175 1.235 . S
C177 C179 1.400 . S
C177 N180 1.351 . S
C177 C182 1.501 . S
C178 C179 1.387 . S
C178 N181 1.341 . S
C179 C177 1.400 . S
C179 C178 1.387 . S
N180 Co171 2.022 . S
N180 C177 1.351 . S
N180 N181 1.365 . S
N181 C178 1.341 . S
N181 N180 1.365 . S
N181 H201 0.862 . S
C182 C177 1.501 . S
C182 H183 0.961 . S
C182 H184 0.961 . S
C182 H185 0.960 . S
H183 C182 0.961 . S
H184 C182 0.961 . S
H185 C182 0.960 . S
C186 N187 1.342 . S
C186 C190 1.401 . S
C186 C191 1.499 . S
N187 Co170 1.989 . S
N187 C186 1.342 . S
N187 N188 1.388 . S
N188 Co171 1.993 . S
N188 N187 1.388 . S
N188 C189 1.346 . S
C189 N188 1.346 . S
C189 C190 1.396 . S
C189 C199 1.510 . S
C190 C186 1.401 . S
C190 C189 1.396 . S
C191 C186 1.499 . S
C191 H192 0.959 . S
C191 H193 0.960 . S
C191 H194 0.961 . S
H192 C191 0.959 . S
H193 C191 0.960 . S
H194 C191 0.961 . S
O195 Co170 1.967 1_455 S
O195 C203 1.258 . S
O196 Co171 1.941 1_455 S
O196 C203 1.266 . S
H197 C199 0.959 . S
H198 C199 0.961 . S
C199 C189 1.510 . S
C199 H197 0.959 . S
C199 H198 0.961 . S
C199 H200 0.960 . S
H200 C199 0.960 . S
H201 N181 0.862 . S
O202 Co170 1.920 . S
O202 C175 1.289 . S
C203 O195 1.258 . S
C203 O196 1.266 . S
Co204 O207 1.970 . S
Co204 N221 1.989 . S
Co204 O229 1.967 1_565 S
Co204 O236 1.920 . S
Co205 O208 1.966 . S
Co205 N214 2.022 . S
Co205 N222 1.993 . S
Co205 O230 1.941 1_565 S
C206 O207 1.258 1_554 S
C206 O208 1.263 . S
O207 Co204 1.970 . S
O207 C206 1.258 1_556 S
O208 Co205 1.966 . S
O208 C206 1.263 . S
C209 O210 1.235 . S
C209 O236 1.289 . S
O210 C209 1.235 . S
C211 C213 1.400 . S
C211 N214 1.351 . S
C211 C216 1.501 . S
C212 C213 1.387 . S
C212 N215 1.341 . S
C213 C211 1.400 . S
C213 C212 1.387 . S
N214 Co205 2.022 . S
N214 C211 1.351 . S
N214 N215 1.365 . S
N215 C212 1.341 . S
N215 N214 1.365 . S
N215 H235 0.862 . S
C216 C211 1.501 . S
C216 H217 0.961 . S
C216 H218 0.961 . S
C216 H219 0.960 . S
H217 C216 0.961 . S
H218 C216 0.961 . S
H219 C216 0.960 . S
C220 N221 1.342 . S
C220 C224 1.401 1_556 S
C220 C225 1.499 . S
N221 Co204 1.989 . S
N221 C220 1.342 . S
N221 N222 1.388 1_556 S
N222 Co205 1.993 . S
N222 N221 1.388 1_554 S
N222 C223 1.346 . S
C223 N222 1.346 . S
C223 C224 1.396 . S
C223 C233 1.510 . S
C224 C220 1.401 1_554 S
C224 C223 1.396 . S
C225 C220 1.499 . S
C225 H226 0.959 . S
C225 H227 0.960 . S
C225 H228 0.961 . S
H226 C225 0.959 . S
H227 C225 0.960 . S
H228 C225 0.961 . S
O229 Co204 1.967 1_545 S
O229 C237 1.258 1_556 S
O230 Co205 1.941 1_545 S
O230 C237 1.266 . S
H231 C233 0.959 . S
H232 C233 0.961 . S
C233 C223 1.510 . S
C233 H231 0.959 . S
C233 H232 0.961 . S
C233 H234 0.960 . S
H234 C233 0.960 . S
H235 N215 0.862 . S
O236 Co204 1.920 . S
O236 C209 1.289 . S
C237 O229 1.258 1_554 S
C237 O230 1.266 . S
Co238 O241 1.970 . S
Co238 N255 1.989 . S
Co238 O263 1.967 1_455 S
Co238 O270 1.920 . S
Co239 O242 1.966 . S
Co239 N248 2.022 . S
Co239 N256 1.993 . S
Co239 O264 1.941 1_455 S
C240 O241 1.258 . S
C240 O242 1.263 . S
O241 Co238 1.970 . S
O241 C240 1.258 . S
O242 Co239 1.966 . S
O242 C240 1.263 . S
C243 O244 1.235 . S
C243 O270 1.289 . S
O244 C243 1.235 . S
C245 C247 1.400 . S
C245 N248 1.351 . S
C245 C250 1.501 . S
C246 C247 1.387 . S
C246 N249 1.341 . S
C247 C245 1.400 . S
C247 C246 1.387 . S
N248 Co239 2.022 . S
N248 C245 1.351 . S
N248 N249 1.365 . S
N249 C246 1.341 . S
N249 N248 1.365 . S
N249 H269 0.862 . S
C250 C245 1.501 . S
C250 H251 0.961 . S
C250 H252 0.961 . S
C250 H253 0.960 . S
H251 C250 0.961 . S
H252 C250 0.961 . S
H253 C250 0.960 . S
C254 N255 1.342 . S
C254 C258 1.401 . S
C254 C259 1.499 . S
N255 Co238 1.989 . S
N255 C254 1.342 . S
N255 N256 1.388 . S
N256 Co239 1.993 . S
N256 N255 1.388 . S
N256 C257 1.346 . S
C257 N256 1.346 . S
C257 C258 1.396 . S
C257 C267 1.510 . S
C258 C254 1.401 . S
C258 C257 1.396 . S
C259 C254 1.499 . S
C259 H260 0.959 . S
C259 H261 0.960 . S
C259 H262 0.961 . S
H260 C259 0.959 . S
H261 C259 0.960 . S
H262 C259 0.961 . S
O263 Co238 1.967 1_655 S
O263 C271 1.258 . S
O264 Co239 1.941 1_655 S
O264 C271 1.266 . S
H265 C267 0.959 . S
H266 C267 0.961 . S
C267 C257 1.510 . S
C267 H265 0.959 . S
C267 H266 0.961 . S
C267 H268 0.960 . S
H268 C267 0.960 . S
H269 N249 0.862 . S
O270 Co238 1.920 . S
O270 C243 1.289 . S
C271 O263 1.258 . S
C271 O264 1.266 . S
C237 C20 2.009 . S
C271 C54 2.009 . S
C169 C88 2.009 . S
C203 C122 2.009 . S
C101 C156 2.009 . S
C135 C190 2.009 . S
C33 C224 2.009 . S
C258 C67 2.009 . S
C2 C70 0.618 1_455 S
C104 C36 0.619 1_565 S
C206 C138 0.619 1_565 S
C172 C240 0.618 1_655 S
C5 C243 1.901 . S
C141 C39 1.901 . S
C175 C73 1.901 . S
C209 C107 1.902 . S
C77 C179 0.779 . S
C111 C213 0.778 . S
C247 C9 0.779 . S
C145 C43 0.779 . S
