# Generated by pormake.
# Topology yfq, (5)-cn, num edge types: 1
# Building blocks:
#     Node 0, Type 0, BuildingBlock: BEQFEK_clean_sbu_0, # of connection points: 5
#     Node 1, Type 0, BuildingBlock: BEQFEK_clean_sbu_0, # of connection points: 5
#     Node 2, Type 0, BuildingBlock: BEQFEK_clean_sbu_0, # of connection points: 5
#     Node 3, Type 0, BuildingBlock: BEQFEK_clean_sbu_0, # of connection points: 5
#     Node 4, Type 0, BuildingBlock: BEQFEK_clean_sbu_0, # of connection points: 5
#     Node 5, Type 0, BuildingBlock: BEQFEK_clean_sbu_0, # of connection points: 5
#     Node 6, Type 0, BuildingBlock: BEQFEK_clean_sbu_0, # of connection points: 5
#     Node 7, Type 0, BuildingBlock: BEQFEK_clean_sbu_0, # of connection points: 5
#     Node 8, Type 0, BuildingBlock: BEQFEK_clean_sbu_0, # of connection points: 5
#     Node 9, Type 0, BuildingBlock: BEQFEK_clean_sbu_0, # of connection points: 5
#     Node 10, Type 0, BuildingBlock: BEQFEK_clean_sbu_0, # of connection points: 5
#     Node 11, Type 0, BuildingBlock: BEQFEK_clean_sbu_0, # of connection points: 5
#     Node 12, Type 0, BuildingBlock: BEQFEK_clean_sbu_0, # of connection points: 5
#     Node 13, Type 0, BuildingBlock: BEQFEK_clean_sbu_0, # of connection points: 5
#     Node 14, Type 0, BuildingBlock: BEQFEK_clean_sbu_0, # of connection points: 5
#     Node 15, Type 0, BuildingBlock: BEQFEK_clean_sbu_0, # of connection points: 5
#     Node 16, Type 0, BuildingBlock: BEQFEK_clean_sbu_0, # of connection points: 5
#     Node 17, Type 0, BuildingBlock: BEQFEK_clean_sbu_0, # of connection points: 5
#     Node 18, Type 0, BuildingBlock: BEQFEK_clean_sbu_0, # of connection points: 5
#     Node 19, Type 0, BuildingBlock: BEQFEK_clean_sbu_0, # of connection points: 5
#     Node 20, Type 0, BuildingBlock: BEQFEK_clean_sbu_0, # of connection points: 5
#     Node 21, Type 0, BuildingBlock: BEQFEK_clean_sbu_0, # of connection points: 5
#     Node 22, Type 0, BuildingBlock: BEQFEK_clean_sbu_0, # of connection points: 5
#     Node 23, Type 0, BuildingBlock: BEQFEK_clean_sbu_0, # of connection points: 5
#     Node 24, Type 0, BuildingBlock: BEQFEK_clean_sbu_0, # of connection points: 5
#     Node 25, Type 0, BuildingBlock: BEQFEK_clean_sbu_0, # of connection points: 5
#     Node 26, Type 0, BuildingBlock: BEQFEK_clean_sbu_0, # of connection points: 5
#     Node 27, Type 0, BuildingBlock: BEQFEK_clean_sbu_0, # of connection points: 5
#     Node 28, Type 0, BuildingBlock: BEQFEK_clean_sbu_0, # of connection points: 5
#     Node 29, Type 0, BuildingBlock: BEQFEK_clean_sbu_0, # of connection points: 5
#     Node 30, Type 0, BuildingBlock: BEQFEK_clean_sbu_0, # of connection points: 5
#     Node 31, Type 0, BuildingBlock: BEQFEK_clean_sbu_0, # of connection points: 5
#     Edge 32, Type (0, 0), BuildingBlock: OJICUG_clean_linker_0, # of connection points: 2
#     Edge 33, Type (0, 0), BuildingBlock: OJICUG_clean_linker_0, # of connection points: 2
#     Edge 34, Type (0, 0), BuildingBlock: OJICUG_clean_linker_0, # of connection points: 2
#     Edge 35, Type (0, 0), BuildingBlock: OJICUG_clean_linker_0, # of connection points: 2
#     Edge 36, Type (0, 0), BuildingBlock: OJICUG_clean_linker_0, # of connection points: 2
#     Edge 37, Type (0, 0), BuildingBlock: OJICUG_clean_linker_0, # of connection points: 2
#     Edge 38, Type (0, 0), BuildingBlock: OJICUG_clean_linker_0, # of connection points: 2
#     Edge 39, Type (0, 0), BuildingBlock: OJICUG_clean_linker_0, # of connection points: 2
#     Edge 40, Type (0, 0), BuildingBlock: OJICUG_clean_linker_0, # of connection points: 2
#     Edge 41, Type (0, 0), BuildingBlock: OJICUG_clean_linker_0, # of connection points: 2
#     Edge 42, Type (0, 0), BuildingBlock: OJICUG_clean_linker_0, # of connection points: 2
#     Edge 43, Type (0, 0), BuildingBlock: OJICUG_clean_linker_0, # of connection points: 2
#     Edge 44, Type (0, 0), BuildingBlock: OJICUG_clean_linker_0, # of connection points: 2
#     Edge 45, Type (0, 0), BuildingBlock: OJICUG_clean_linker_0, # of connection points: 2
#     Edge 46, Type (0, 0), BuildingBlock: OJICUG_clean_linker_0, # of connection points: 2
#     Edge 47, Type (0, 0), BuildingBlock: OJICUG_clean_linker_0, # of connection points: 2
#     Edge 48, Type (0, 0), BuildingBlock: OJICUG_clean_linker_0, # of connection points: 2
#     Edge 49, Type (0, 0), BuildingBlock: OJICUG_clean_linker_0, # of connection points: 2
#     Edge 50, Type (0, 0), BuildingBlock: OJICUG_clean_linker_0, # of connection points: 2
#     Edge 51, Type (0, 0), BuildingBlock: OJICUG_clean_linker_0, # of connection points: 2
#     Edge 52, Type (0, 0), BuildingBlock: OJICUG_clean_linker_0, # of connection points: 2
#     Edge 53, Type (0, 0), BuildingBlock: OJICUG_clean_linker_0, # of connection points: 2
#     Edge 54, Type (0, 0), BuildingBlock: OJICUG_clean_linker_0, # of connection points: 2
#     Edge 55, Type (0, 0), BuildingBlock: OJICUG_clean_linker_0, # of connection points: 2
#     Edge 56, Type (0, 0), BuildingBlock: OJICUG_clean_linker_0, # of connection points: 2
#     Edge 57, Type (0, 0), BuildingBlock: OJICUG_clean_linker_0, # of connection points: 2
#     Edge 58, Type (0, 0), BuildingBlock: OJICUG_clean_linker_0, # of connection points: 2
#     Edge 59, Type (0, 0), BuildingBlock: OJICUG_clean_linker_0, # of connection points: 2
#     Edge 60, Type (0, 0), BuildingBlock: OJICUG_clean_linker_0, # of connection points: 2
#     Edge 61, Type (0, 0), BuildingBlock: OJICUG_clean_linker_0, # of connection points: 2
#     Edge 62, Type (0, 0), BuildingBlock: OJICUG_clean_linker_0, # of connection points: 2
#     Edge 63, Type (0, 0), BuildingBlock: OJICUG_clean_linker_0, # of connection points: 2
#     Edge 64, Type (0, 0), BuildingBlock: OJICUG_clean_linker_0, # of connection points: 2
#     Edge 65, Type (0, 0), BuildingBlock: OJICUG_clean_linker_0, # of connection points: 2
#     Edge 66, Type (0, 0), BuildingBlock: OJICUG_clean_linker_0, # of connection points: 2
#     Edge 67, Type (0, 0), BuildingBlock: OJICUG_clean_linker_0, # of connection points: 2
#     Edge 68, Type (0, 0), BuildingBlock: OJICUG_clean_linker_0, # of connection points: 2
#     Edge 69, Type (0, 0), BuildingBlock: OJICUG_clean_linker_0, # of connection points: 2
#     Edge 70, Type (0, 0), BuildingBlock: OJICUG_clean_linker_0, # of connection points: 2
#     Edge 71, Type (0, 0), BuildingBlock: OJICUG_clean_linker_0, # of connection points: 2
#     Edge 72, Type (0, 0), BuildingBlock: OJICUG_clean_linker_0, # of connection points: 2
#     Edge 73, Type (0, 0), BuildingBlock: OJICUG_clean_linker_0, # of connection points: 2
#     Edge 74, Type (0, 0), BuildingBlock: OJICUG_clean_linker_0, # of connection points: 2
#     Edge 75, Type (0, 0), BuildingBlock: OJICUG_clean_linker_0, # of connection points: 2
#     Edge 76, Type (0, 0), BuildingBlock: OJICUG_clean_linker_0, # of connection points: 2
#     Edge 77, Type (0, 0), BuildingBlock: OJICUG_clean_linker_0, # of connection points: 2
#     Edge 78, Type (0, 0), BuildingBlock: OJICUG_clean_linker_0, # of connection points: 2
#     Edge 79, Type (0, 0), BuildingBlock: OJICUG_clean_linker_0, # of connection points: 2
#     Edge 80, Type (0, 0), BuildingBlock: OJICUG_clean_linker_0, # of connection points: 2
#     Edge 81, Type (0, 0), BuildingBlock: OJICUG_clean_linker_0, # of connection points: 2
#     Edge 82, Type (0, 0), BuildingBlock: OJICUG_clean_linker_0, # of connection points: 2
#     Edge 83, Type (0, 0), BuildingBlock: OJICUG_clean_linker_0, # of connection points: 2
#     Edge 84, Type (0, 0), BuildingBlock: OJICUG_clean_linker_0, # of connection points: 2
#     Edge 85, Type (0, 0), BuildingBlock: OJICUG_clean_linker_0, # of connection points: 2
#     Edge 86, Type (0, 0), BuildingBlock: OJICUG_clean_linker_0, # of connection points: 2
#     Edge 87, Type (0, 0), BuildingBlock: OJICUG_clean_linker_0, # of connection points: 2
#     Edge 88, Type (0, 0), BuildingBlock: OJICUG_clean_linker_0, # of connection points: 2
#     Edge 89, Type (0, 0), BuildingBlock: OJICUG_clean_linker_0, # of connection points: 2
#     Edge 90, Type (0, 0), BuildingBlock: OJICUG_clean_linker_0, # of connection points: 2
#     Edge 91, Type (0, 0), BuildingBlock: OJICUG_clean_linker_0, # of connection points: 2
#     Edge 92, Type (0, 0), BuildingBlock: OJICUG_clean_linker_0, # of connection points: 2
#     Edge 93, Type (0, 0), BuildingBlock: OJICUG_clean_linker_0, # of connection points: 2
#     Edge 94, Type (0, 0), BuildingBlock: OJICUG_clean_linker_0, # of connection points: 2
#     Edge 95, Type (0, 0), BuildingBlock: OJICUG_clean_linker_0, # of connection points: 2
#     Edge 96, Type (0, 0), BuildingBlock: OJICUG_clean_linker_0, # of connection points: 2
#     Edge 97, Type (0, 0), BuildingBlock: OJICUG_clean_linker_0, # of connection points: 2
#     Edge 98, Type (0, 0), BuildingBlock: OJICUG_clean_linker_0, # of connection points: 2
#     Edge 99, Type (0, 0), BuildingBlock: OJICUG_clean_linker_0, # of connection points: 2
#     Edge 100, Type (0, 0), BuildingBlock: OJICUG_clean_linker_0, # of connection points: 2
#     Edge 101, Type (0, 0), BuildingBlock: OJICUG_clean_linker_0, # of connection points: 2
#     Edge 102, Type (0, 0), BuildingBlock: OJICUG_clean_linker_0, # of connection points: 2
#     Edge 103, Type (0, 0), BuildingBlock: OJICUG_clean_linker_0, # of connection points: 2
#     Edge 104, Type (0, 0), BuildingBlock: OJICUG_clean_linker_0, # of connection points: 2
#     Edge 105, Type (0, 0), BuildingBlock: OJICUG_clean_linker_0, # of connection points: 2
#     Edge 106, Type (0, 0), BuildingBlock: OJICUG_clean_linker_0, # of connection points: 2
#     Edge 107, Type (0, 0), BuildingBlock: OJICUG_clean_linker_0, # of connection points: 2
#     Edge 108, Type (0, 0), BuildingBlock: OJICUG_clean_linker_0, # of connection points: 2
#     Edge 109, Type (0, 0), BuildingBlock: OJICUG_clean_linker_0, # of connection points: 2
#     Edge 110, Type (0, 0), BuildingBlock: OJICUG_clean_linker_0, # of connection points: 2
#     Edge 111, Type (0, 0), BuildingBlock: OJICUG_clean_linker_0, # of connection points: 2
# Relax obj value: 0.343
# Max RMSD: 0.208
# Mean RMSD: 0.208
data_MOF--net-yfq--node1-BEQFEK_clean_sbu_0--edge1-OJICUG_clean_linker_0
_symmetry_space_group_name_H-M    P1
_symmetry_Int_Tables_number       1
_symmetry_cell_setting            triclinic
loop_
_symmetry_equiv_pos_as_xyz
'x, y, z'
_cell_length_a     43.103994
_cell_length_b     43.049536
_cell_length_c     48.557306
_cell_angle_alpha  89.95552
_cell_angle_beta   90.015037
_cell_angle_gamma 89.926164
loop_
_atom_site_label
_atom_site_type_symbol
_atom_site_fract_x
_atom_site_fract_y
_atom_site_fract_z
_atom_type_partial_charge
Co0 Co 0.1114 0.20804 0.32397 0.0
Co1 Co 0.0992 0.17292 0.26806 0.0
C2 C 0.05506 0.21968 0.28694 0.0
O3 O 0.07113 0.22286 0.30881 0.0
O4 O 0.06399 0.20219 0.26736 0.0
C5 C 0.12559 0.26456 0.35042 0.0
O6 O 0.12242 0.27489 0.32509 0.0
C7 C 0.08975 0.15646 0.20915 0.0
C8 C 0.12255 0.11734 0.20483 0.0
C9 C 0.10278 0.13635 0.18983 0.0
N10 N 0.10209 0.15013 0.23406 0.0
N11 N 0.12126 0.12637 0.23132 0.0
C12 C 0.06517 0.18049 0.2045 0.0
H13 H 0.0485 0.18027 0.22184 0.0
H14 H 0.07607 0.20381 0.20355 0.0
H15 H 0.05211 0.17605 0.18523 0.0
C16 C 0.17107 0.22024 0.29799 0.0
N17 N 0.1426 0.20764 0.2977 0.0
N18 N 0.13724 0.195 0.27352 0.0
C19 C 0.16183 0.20074 0.25707 0.0
C20 C 0.18388 0.21693 0.27216 0.0
C21 C 0.18703 0.23251 0.32313 0.0
H22 H 0.17768 0.22133 0.34195 0.0
H23 H 0.18356 0.25799 0.32444 0.0
H24 H 0.21238 0.22809 0.32199 0.0
O25 O 0.10476 0.16655 0.3375 0.0
O26 O 0.08931 0.14292 0.29912 0.0
H27 H 0.1696 0.16827 0.22459 0.0
H28 H 0.18074 0.20747 0.21625 0.0
C29 C 0.16322 0.19307 0.22705 0.0
H30 H 0.14022 0.19698 0.21745 0.0
H31 H 0.13441 0.1171 0.24739 0.0
O32 O 0.12216 0.23571 0.35504 0.0
C33 C 0.09348 0.14311 0.32521 0.0
Co34 Co 0.02445 0.86312 0.57241 0.0
Co35 Co 0.06193 0.8525 0.51736 0.0
C36 C 0.01556 0.80696 0.53473 0.0
O37 O 0.01091 0.82296 0.55642 0.0
O38 O 0.03384 0.81625 0.51587 0.0
C39 C 0.96705 0.87441 0.59911 0.0
O40 O 0.9566 0.87045 0.57393 0.0
C41 C 0.07622 0.84666 0.45804 0.0
C42 C 0.12116 0.87104 0.45523 0.0
C43 C 0.09867 0.85649 0.43947 0.0
N44 N 0.08501 0.85515 0.48358 0.0
N45 N 0.11211 0.86934 0.48174 0.0
C46 C 0.04552 0.83227 0.45145 0.0
H47 H 0.02766 0.8403 0.46628 0.0
H48 H 0.03811 0.83805 0.43017 0.0
H49 H 0.04758 0.80665 0.45331 0.0
C50 C 0.01281 0.92359 0.54707 0.0
N51 N 0.0254 0.89503 0.5466 0.0
N52 N 0.03925 0.89038 0.52279 0.0
C53 C 0.03439 0.91557 0.50677 0.0
C54 C 0.01765 0.93727 0.52177 0.0
C55 C -0.00421 0.93732 0.57105 0.0
H56 H 0.00542 0.92837 0.59066 0.0
H57 H 0.97087 0.93122 0.56955 0.0
H58 H -0.00255 0.96299 0.57119 0.0
O59 O 0.06567 0.85662 0.58668 0.0
O60 O 0.09153 0.84319 0.5488 0.0
H61 H 0.07117 0.91786 0.47738 0.0
H62 H 0.03801 0.94138 0.46858 0.0
C63 C 0.0455 0.91897 0.47775 0.0
H64 H 0.03636 0.89959 0.46514 0.0
H65 H 0.12387 0.8789 0.49849 0.0
O66 O -0.00392 0.87262 0.60342 0.0
C67 C 0.09007 0.8467 0.57494 0.0
Co68 Co 0.37526 0.77892 0.82451 0.0
Co69 Co 0.38728 0.81494 0.76877 0.0
C70 C 0.43184 0.7685 0.78759 0.0
O71 O 0.41573 0.76486 0.80938 0.0
O72 O 0.4228 0.78607 0.76808 0.0
C73 C 0.3619 0.72185 0.8508 0.0
O74 O 0.36548 0.71165 0.82549 0.0
C75 C 0.39671 0.83202 0.70988 0.0
C76 C 0.36326 0.87059 0.70565 0.0
C77 C 0.38331 0.85199 0.69057 0.0
N78 N 0.38427 0.83801 0.73481 0.0
N79 N 0.36473 0.86148 0.73213 0.0
C80 C 0.4217 0.80845 0.70519 0.0
H81 H 0.43807 0.80847 0.72277 0.0
H82 H 0.41114 0.78501 0.70366 0.0
H83 H 0.43503 0.81355 0.68619 0.0
C84 C 0.31603 0.76602 0.79794 0.0
N85 N 0.34425 0.77916 0.798 0.0
N86 N 0.34954 0.79229 0.77398 0.0
C87 C 0.32516 0.78642 0.75733 0.0
C88 C 0.30333 0.76959 0.77209 0.0
C89 C 0.30017 0.7528 0.82276 0.0
H90 H 0.3091 0.76375 0.84182 0.0
H91 H 0.30422 0.72738 0.82364 0.0
H92 H 0.27473 0.75665 0.82152 0.0
O93 O 0.38142 0.82043 0.83827 0.0
O94 O 0.39667 0.84468 0.80008 0.0
H95 H 0.31719 0.81936 0.72522 0.0
H96 H 0.30634 0.78023 0.71641 0.0
C97 C 0.32375 0.79458 0.7274 0.0
H98 H 0.34678 0.79097 0.71779 0.0
H99 H 0.35141 0.87044 0.74822 0.0
O100 O 0.36475 0.75075 0.85545 0.0
C101 C 0.39246 0.84414 0.82617 0.0
Co102 Co 0.4598 0.12337 0.07347 0.0
Co103 Co 0.42309 0.13446 0.01798 0.0
C104 C 0.46974 0.17938 0.03566 0.0
O105 O 0.47385 0.16332 0.05742 0.0
O106 O 0.45163 0.17034 0.01658 0.0
C107 C 0.51704 0.11171 0.10022 0.0
O108 O 0.52736 0.11538 0.07496 0.0
C109 C 0.40877 0.14074 0.95858 0.0
C110 C 0.3644 0.11536 0.95556 0.0
C111 C 0.38657 0.13055 0.93991 0.0
N112 N 0.40015 0.13183 0.98407 0.0
N113 N 0.37337 0.11705 0.9821 0.0
C114 C 0.43912 0.15591 0.9521 0.0
H115 H 0.45734 0.14747 0.96642 0.0
H116 H 0.44627 0.15127 0.93054 0.0
H117 H 0.43671 0.18137 0.95494 0.0
C118 C 0.47116 0.06287 0.04825 0.0
N119 N 0.45872 0.09149 0.04771 0.0
N120 N 0.44536 0.09638 0.02371 0.0
C121 C 0.45049 0.07133 0.00763 0.0
C122 C 0.46682 0.04943 0.0228 0.0
C123 C 0.48776 0.04893 0.0724 0.0
H124 H 0.47818 0.05814 0.09192 0.0
H125 H 0.51281 0.05453 0.071 0.0
H126 H 0.48558 0.02331 0.07263 0.0
O127 O 0.41855 0.1303 0.08741 0.0
O128 O 0.39342 0.14425 0.04925 0.0
H129 H 0.41455 0.06894 0.97744 0.0
H130 H 0.4484 0.04633 0.96896 0.0
C131 C 0.44022 0.06837 0.97833 0.0
H132 H 0.44925 0.08823 0.96623 0.0
H133 H 0.36182 0.10707 0.99877 0.0
O134 O 0.48804 0.11375 0.10463 0.0
C135 C 0.39448 0.14067 0.0754 0.0
Co136 Co 0.11209 0.77682 0.18654 0.0
Co137 Co 0.10041 0.81284 0.24226 0.0
C138 C 0.05522 0.76721 0.22331 0.0
O139 O 0.07131 0.76339 0.20153 0.0
O140 O 0.06454 0.78446 0.2429 0.0
C141 C 0.1253 0.71996 0.1595 0.0
O142 O 0.12222 0.70922 0.1847 0.0
C143 C 0.09049 0.83054 0.301 0.0
C144 C 0.1245 0.86851 0.3053 0.0
C145 C 0.10381 0.85055 0.32027 0.0
N146 N 0.10353 0.83593 0.27619 0.0
N147 N 0.12343 0.85903 0.27892 0.0
C148 C 0.06492 0.80762 0.30557 0.0
H149 H 0.04891 0.80778 0.28773 0.0
H150 H 0.07496 0.78397 0.30754 0.0
H151 H 0.05133 0.81328 0.32429 0.0
C152 C 0.17142 0.7635 0.21289 0.0
N153 N 0.14312 0.77654 0.21305 0.0
N154 N 0.13801 0.78974 0.23705 0.0
C155 C 0.1626 0.78396 0.25352 0.0
C156 C 0.18441 0.76716 0.23863 0.0
C157 C 0.18717 0.7507 0.18784 0.0
H158 H 0.17795 0.76185 0.16895 0.0
H159 H 0.18329 0.72528 0.18674 0.0
H160 H 0.21258 0.75469 0.1889 0.0
O161 O 0.10663 0.8184 0.17283 0.0
O162 O 0.09124 0.84273 0.2109 0.0
H163 H 0.17152 0.81701 0.28529 0.0
H164 H 0.18144 0.77768 0.29441 0.0
C165 C 0.16432 0.79239 0.28337 0.0
H166 H 0.14126 0.78952 0.2931 0.0
H167 H 0.13718 0.86754 0.26293 0.0
O168 O 0.12226 0.74894 0.15533 0.0
C169 C 0.09564 0.84219 0.18484 0.0
Co170 Co 0.45771 0.86249 0.43802 0.0
Co171 Co 0.42076 0.85108 0.49315 0.0
C172 C 0.46703 0.80582 0.47515 0.0
O173 O 0.47131 0.82203 0.45352 0.0
O174 O 0.44912 0.81496 0.49434 0.0
C175 C 0.515 0.87453 0.41172 0.0
O176 O 0.52522 0.87051 0.43698 0.0
C177 C 0.40718 0.84522 0.5525 0.0
C178 C 0.36197 0.86916 0.55566 0.0
C179 C 0.38492 0.85503 0.57126 0.0
N180 N 0.39786 0.85334 0.52701 0.0
N181 N 0.37059 0.86722 0.52905 0.0
C182 C 0.43823 0.83136 0.55885 0.0
H183 H 0.45571 0.8395 0.54373 0.0
H184 H 0.44586 0.83747 0.57999 0.0
H185 H 0.43659 0.8057 0.55726 0.0
C186 C 0.46869 0.92287 0.46353 0.0
N187 N 0.4567 0.89409 0.46404 0.0
N188 N 0.44301 0.88917 0.48787 0.0
C189 C 0.44741 0.91442 0.50388 0.0
C190 C 0.46361 0.93642 0.48881 0.0
C191 C 0.48514 0.93705 0.43944 0.0
H192 H 0.47551 0.928 0.41988 0.0
H193 H 0.51021 0.93142 0.44071 0.0
H194 H 0.48292 0.96268 0.4394 0.0
O195 O 0.41649 0.85628 0.42384 0.0
O196 O 0.39118 0.84184 0.46173 0.0
H197 H 0.41062 0.91619 0.53329 0.0
H198 H 0.44336 0.94022 0.542 0.0
C199 C 0.43626 0.91768 0.5329 0.0
H200 H 0.44579 0.89849 0.54556 0.0
H201 H 0.35847 0.87654 0.51237 0.0
O202 O 0.48605 0.87244 0.40714 0.0
C203 C 0.39235 0.84583 0.43563 0.0
Co204 Co 0.37258 0.21061 0.68676 0.0
Co205 Co 0.38453 0.17428 0.74245 0.0
C206 C 0.42887 0.22107 0.72396 0.0
O207 O 0.41277 0.22483 0.70219 0.0
O208 O 0.41989 0.20327 0.7433 0.0
C209 C 0.36081 0.26782 0.66012 0.0
O210 O 0.36476 0.27805 0.68537 0.0
C211 C 0.39413 0.1574 0.8015 0.0
C212 C 0.36247 0.1174 0.80545 0.0
C213 C 0.38175 0.13663 0.82066 0.0
N214 N 0.38187 0.15119 0.77651 0.0
N215 N 0.3634 0.1269 0.77905 0.0
C216 C 0.41837 0.18167 0.8063 0.0
H217 H 0.43486 0.18205 0.78883 0.0
H218 H 0.4071 0.2048 0.80773 0.0
H219 H 0.43178 0.17697 0.82535 0.0
C220 C 0.3126 0.22224 0.71275 0.0
N221 N 0.34113 0.20967 0.71294 0.0
N222 N 0.3465 0.19665 0.73701 0.0
C223 C 0.32197 0.20234 0.75354 0.0
C224 C 0.29976 0.21845 0.73853 0.0
C225 C 0.29825 0.23854 0.68863 0.0
H226 H 0.30718 0.22877 0.66908 0.0
H227 H 0.30377 0.26366 0.68972 0.0
H228 H 0.27266 0.23628 0.68875 0.0
O229 O 0.37935 0.16929 0.67291 0.0
O230 O 0.39431 0.14464 0.71103 0.0
H231 H 0.30056 0.20492 0.79384 0.0
H232 H 0.3421 0.19844 0.79374 0.0
C233 C 0.31996 0.19301 0.78317 0.0
H234 H 0.31598 0.16763 0.78443 0.0
H235 H 0.35053 0.11748 0.76289 0.0
O236 O 0.36258 0.23879 0.65566 0.0
C237 C 0.39032 0.14545 0.68491 0.0
Co238 Co 0.02617 0.12694 0.93767 0.0
Co239 Co 0.0628 0.13823 0.9929 0.0
C240 C 0.0166 0.18357 0.97479 0.0
O241 O 0.01242 0.16741 0.95311 0.0
O242 O 0.03454 0.17445 0.994 0.0
C243 C 0.9692 0.11344 0.91113 0.0
O244 O 0.95864 0.11683 0.93634 0.0
C245 C 0.0778 0.14457 0.05206 0.0
C246 C 0.12123 0.11743 0.05486 0.0
C247 C 0.09969 0.1334 0.07061 0.0
N248 N 0.08598 0.13541 0.02655 0.0
N249 N 0.11223 0.11962 0.02837 0.0
C250 C 0.04784 0.16052 0.05869 0.0
H251 H 0.02945 0.15301 0.04418 0.0
H252 H 0.04042 0.15554 0.08013 0.0
H253 H 0.05098 0.18596 0.05635 0.0
C254 C 0.01361 0.0672 0.96366 0.0
N255 N 0.02648 0.09557 0.9639 0.0
N256 N 0.04013 0.10039 0.98775 0.0
C257 C 0.03509 0.07539 1.00397 0.0
C258 C 0.01798 0.05381 0.98915 0.0
C259 C 0.00021 0.0517 0.93874 0.0
H260 H 0.01099 0.06096 0.91972 0.0
H261 H 0.97482 0.05575 0.9381 0.0
H262 H 0.00409 0.02622 0.93961 0.0
O263 O 0.06752 0.13296 0.92358 0.0
O264 O 0.09253 0.14738 0.96158 0.0
H265 H 0.07045 0.07045 0.03449 0.0
H266 H 0.03399 0.05276 0.04386 0.0
C267 C 0.04488 0.07293 0.03346 0.0
H268 H 0.03817 0.09435 0.04455 0.0
H269 H 0.12326 0.10916 0.01165 0.0
O270 O -0.00192 0.11664 0.90674 0.0
C271 C 0.09158 0.14341 0.93549 0.0
Co272 Co 0.8744 0.7746 0.68656 0.0
Co273 Co 0.88553 0.81127 0.74209 0.0
C274 C 0.93118 0.7657 0.72342 0.0
O275 O 0.91515 0.76152 0.70168 0.0
O276 O 0.92179 0.78325 0.74279 0.0
C277 C 0.86264 0.71743 0.65979 0.0
O278 O 0.86664 0.7069 0.68496 0.0
C279 C 0.89468 0.82868 0.80098 0.0
C280 C 0.86171 0.86773 0.80473 0.0
C281 C 0.88164 0.84918 0.82 0.0
N282 N 0.88221 0.8344 0.77598 0.0
N283 N 0.86291 0.8581 0.77839 0.0
C284 C 0.91947 0.80496 0.80597 0.0
H285 H 0.93606 0.80491 0.78857 0.0
H286 H 0.90875 0.78159 0.80738 0.0
H287 H 0.93259 0.80994 0.8251 0.0
C288 C 0.81566 0.76008 0.71324 0.0
N289 N 0.84349 0.77402 0.71311 0.0
N290 N 0.8483 0.7877 0.73696 0.0
C291 C 0.82392 0.78157 0.75353 0.0
C292 C 0.80272 0.76381 0.73893 0.0
C293 C 0.80026 0.74599 0.68858 0.0
H294 H 0.80877 0.75703 0.66939 0.0
H295 H 0.80522 0.72073 0.688 0.0
H296 H 0.77471 0.74894 0.68977 0.0
O297 O 0.87938 0.81622 0.67274 0.0
O298 O 0.89406 0.8412 0.71069 0.0
H299 H 0.81551 0.81562 0.78457 0.0
H300 H 0.80399 0.77689 0.79421 0.0
C301 C 0.82183 0.7907 0.78319 0.0
H302 H 0.84459 0.78721 0.79334 0.0
H303 H 0.84971 0.86702 0.76219 0.0
O304 O 0.86459 0.74648 0.65548 0.0
C305 C 0.88973 0.84034 0.68463 0.0
Co306 Co 0.95749 0.12463 0.43642 0.0
Co307 Co 0.92057 0.13744 0.49135 0.0
C308 C 0.9692 0.1806 0.47311 0.0
O309 O 0.97327 0.16432 0.45153 0.0
O310 O 0.95053 0.17214 0.49193 0.0
C311 C 0.01409 0.11091 0.4097 0.0
O312 O 0.02455 0.11495 0.43488 0.0
C313 C 0.9113 0.14128 0.55105 0.0
C314 C 0.86046 0.13715 0.55525 0.0
C315 C 0.88755 0.1405 0.57032 0.0
N316 N 0.89886 0.13819 0.52578 0.0
N317 N 0.86844 0.13581 0.52843 0.0
C318 C 0.94502 0.14721 0.55621 0.0
H319 H 0.94853 0.1725 0.55927 0.0
H320 H 0.95913 0.1396 0.53833 0.0
H321 H 0.95309 0.13514 0.57506 0.0
C322 C 0.96607 0.06378 0.46213 0.0
N323 N 0.95503 0.09298 0.46258 0.0
N324 N 0.94067 0.09808 0.4861 0.0
C325 C 0.94331 0.07229 0.5018 0.0
C326 C 0.95945 0.04998 0.48704 0.0
C327 C 0.98321 0.04943 0.4385 0.0
H328 H 0.97403 0.05833 0.4187 0.0
H329 H 0.0082 0.05514 0.44023 0.0
H330 H 0.98108 0.0238 0.43856 0.0
O331 O 0.91639 0.13316 0.42246 0.0
O332 O 0.89098 0.14761 0.46032 0.0
H333 H 0.90616 0.07727 0.53081 0.0
H334 H 0.93065 0.04382 0.53669 0.0
C335 C 0.93034 0.06854 0.53017 0.0
H336 H 0.94453 0.08212 0.54488 0.0
H337 H 0.85313 0.13325 0.51195 0.0
O338 O 0.98513 0.11345 0.4053 0.0
C339 C 0.89234 0.14398 0.4342 0.0
Co340 Co 0.61265 0.21062 0.18639 0.0
Co341 Co 0.60131 0.17475 0.24227 0.0
C342 C 0.55613 0.22058 0.22355 0.0
O343 O 0.57208 0.22425 0.20168 0.0
O344 O 0.5655 0.20326 0.24312 0.0
C345 C 0.62522 0.26774 0.15986 0.0
O346 O 0.62194 0.27799 0.18518 0.0
C347 C 0.59144 0.15692 0.30099 0.0
C348 C 0.62622 0.1196 0.30553 0.0
C349 C 0.60508 0.1372 0.32037 0.0
N350 N 0.60471 0.15172 0.27625 0.0
N351 N 0.62508 0.12901 0.27912 0.0
C352 C 0.56536 0.17936 0.30539 0.0
H353 H 0.54945 0.17885 0.28748 0.0
H354 H 0.57488 0.2032 0.30733 0.0
H355 H 0.5518 0.17348 0.32408 0.0
C356 C 0.672 0.22402 0.21244 0.0
N357 N 0.64384 0.21074 0.21269 0.0
N358 N 0.63883 0.19778 0.23682 0.0
C359 C 0.6633 0.20397 0.25327 0.0
C360 C 0.68496 0.22079 0.23824 0.0
C361 C 0.68757 0.23684 0.18731 0.0
H362 H 0.67844 0.22554 0.16848 0.0
H363 H 0.68342 0.26222 0.18609 0.0
H364 H 0.71303 0.23307 0.18838 0.0
O365 O 0.60692 0.16908 0.17271 0.0
O366 O 0.59189 0.14488 0.21099 0.0
H367 H 0.67264 0.17169 0.28563 0.0
H368 H 0.68161 0.21136 0.29419 0.0
C369 C 0.66492 0.19613 0.28326 0.0
H370 H 0.64171 0.19872 0.29279 0.0
H371 H 0.63909 0.12073 0.26321 0.0
O372 O 0.62259 0.23879 0.15533 0.0
C373 C 0.59603 0.14536 0.18489 0.0
Co374 Co 0.52835 0.86354 0.93721 0.0
Co375 Co 0.56542 0.8503 0.99208 0.0
C376 C 0.51596 0.80789 0.9742 0.0
O377 O 0.512 0.82427 0.95264 0.0
O378 O 0.53503 0.81595 0.99284 0.0
C379 C 0.47163 0.8774 0.9107 0.0
O380 O 0.46134 0.87341 0.93594 0.0
C381 C 0.57507 0.84576 0.05173 0.0
C382 C 0.62567 0.85235 0.0559 0.0
C383 C 0.59881 0.84758 0.07101 0.0
N384 N 0.58731 0.84963 0.02646 0.0
N385 N 0.61759 0.85344 0.02909 0.0
C386 C 0.54167 0.8381 0.05674 0.0
H387 H 0.53881 0.81251 0.05587 0.0
H388 H 0.5269 0.8485 0.04043 0.0
H389 H 0.5338 0.84608 0.07726 0.0
C390 C 0.52046 0.92439 0.9629 0.0
N391 N 0.53138 0.89515 0.96326 0.0
N392 N 0.54564 0.88982 0.9868 0.0
C393 C 0.54299 0.91547 1.00263 0.0
C394 C 0.52701 0.93797 0.9879 0.0
C395 C 0.50321 0.93886 0.93937 0.0
H396 H 0.51217 0.92994 0.91952 0.0
H397 H 0.4782 0.93329 0.94125 0.0
H398 H 0.5055 0.96448 0.93943 0.0
O399 O 0.56926 0.85436 0.92316 0.0
O400 O 0.59484 0.8399 0.96096 0.0
H401 H 0.57991 0.91071 0.03188 0.0
H402 H 0.55447 0.9433 0.03823 0.0
C403 C 0.55551 0.91879 0.0312 0.0
H404 H 0.54159 0.90437 0.04549 0.0
H405 H 0.6327 0.85697 0.01261 0.0
O406 O 0.50057 0.87491 0.90619 0.0
C407 C 0.59334 0.84349 0.93484 0.0
Co408 Co 0.87516 0.2099 0.82284 0.0
Co409 Co 0.88745 0.17301 0.76787 0.0
C410 C 0.93219 0.21957 0.78689 0.0
O411 O 0.91584 0.22392 0.8084 0.0
O412 O 0.92324 0.20162 0.76769 0.0
C413 C 0.86131 0.26677 0.84936 0.0
O414 O 0.86503 0.27728 0.82416 0.0
C415 C 0.89282 0.16272 0.70833 0.0
C416 C 0.88206 0.11278 0.70424 0.0
C417 C 0.88941 0.13908 0.68915 0.0
N418 N 0.88738 0.151 0.73357 0.0
N419 N 0.88112 0.12109 0.73099 0.0
C420 C 0.90315 0.19541 0.70321 0.0
H421 H 0.89391 0.2111 0.71938 0.0
H422 H 0.89591 0.20375 0.6826 0.0
H423 H 0.92886 0.19622 0.70418 0.0
C424 C 0.81565 0.22167 0.79634 0.0
N425 N 0.84425 0.20933 0.79613 0.0
N426 N 0.84906 0.19498 0.77258 0.0
C427 C 0.82367 0.19881 0.75658 0.0
C428 C 0.802 0.21616 0.77117 0.0
C429 C 0.80014 0.23543 0.82112 0.0
H430 H 0.80928 0.22472 0.84023 0.0
H431 H 0.80433 0.26082 0.82158 0.0
H432 H 0.77468 0.23171 0.82029 0.0
O433 O 0.88119 0.16842 0.8368 0.0
O434 O 0.89607 0.14301 0.7991 0.0
H435 H 0.8253 0.16181 0.72718 0.0
H436 H 0.79754 0.1919 0.71882 0.0
C437 C 0.82075 0.18716 0.72766 0.0
H438 H 0.83823 0.19883 0.71458 0.0
H439 H 0.87592 0.10641 0.74746 0.0
O440 O 0.86427 0.23782 0.8538 0.0
C441 C 0.89169 0.14418 0.82514 0.0
Co442 Co 0.52598 0.12433 0.57266 0.0
Co443 Co 0.56334 0.13533 0.51754 0.0
C444 C 0.51682 0.1807 0.5352 0.0
O445 O 0.51228 0.16457 0.55684 0.0
O446 O 0.53506 0.17155 0.51625 0.0
C447 C 0.46876 0.11249 0.59957 0.0
O448 O 0.45818 0.11621 0.57439 0.0
C449 C 0.57739 0.14123 0.45817 0.0
C450 C 0.62268 0.1174 0.45536 0.0
C451 C 0.59994 0.13161 0.43959 0.0
N452 N 0.58636 0.13292 0.48372 0.0
N453 N 0.61367 0.11907 0.48189 0.0
C454 C 0.54646 0.15521 0.45159 0.0
H455 H 0.52883 0.14727 0.46666 0.0
H456 H 0.53895 0.14897 0.43044 0.0
H457 H 0.54822 0.18087 0.45302 0.0
C458 C 0.51507 0.06382 0.54734 0.0
N459 N 0.52711 0.09258 0.54677 0.0
N460 N 0.54097 0.09735 0.52298 0.0
C461 C 0.53664 0.07202 0.50706 0.0
C462 C 0.52032 0.05012 0.52215 0.0
C463 C 0.4984 0.04982 0.57139 0.0
H464 H 0.50799 0.05888 0.59096 0.0
H465 H 0.47339 0.05563 0.57 0.0
H466 H 0.50046 0.02417 0.57148 0.0
O467 O 0.56721 0.13072 0.58677 0.0
O468 O 0.59297 0.14444 0.54892 0.0
H469 H 0.57361 0.06993 0.47784 0.0
H470 H 0.54073 0.04613 0.46899 0.0
C471 C 0.54794 0.06862 0.4781 0.0
H472 H 0.53866 0.08788 0.46538 0.0
H473 H 0.62561 0.10971 0.49865 0.0
O474 O 0.49777 0.11459 0.60379 0.0
C475 C 0.59158 0.14068 0.57503 0.0
Co476 Co 0.61397 0.77865 0.32336 0.0
Co477 Co 0.60058 0.81615 0.26884 0.0
C478 C 0.55783 0.76703 0.28692 0.0
O479 O 0.57431 0.7628 0.30836 0.0
O480 O 0.56602 0.78599 0.26821 0.0
C481 C 0.62724 0.72174 0.3497 0.0
O482 O 0.62287 0.71151 0.32449 0.0
C483 C 0.59607 0.82578 0.20923 0.0
C484 C 0.60132 0.87658 0.20501 0.0
C485 C 0.59726 0.84957 0.18994 0.0
N486 N 0.59961 0.83813 0.23448 0.0
N487 N 0.60264 0.86854 0.23183 0.0
C488 C 0.58931 0.79215 0.2042 0.0
H489 H 0.59856 0.77773 0.2213 0.0
H490 H 0.59914 0.78413 0.18438 0.0
H491 H 0.56379 0.78892 0.20334 0.0
C492 C 0.67448 0.77033 0.29726 0.0
N493 N 0.64534 0.78145 0.29709 0.0
N494 N 0.64002 0.79607 0.27372 0.0
C495 C 0.66563 0.79354 0.25782 0.0
C496 C 0.68804 0.77722 0.27233 0.0
C497 C 0.68897 0.75278 0.32061 0.0
H498 H 0.68048 0.76188 0.34057 0.0
H499 H 0.68289 0.72786 0.31882 0.0
H500 H 0.7146 0.75461 0.32022 0.0
O501 O 0.60536 0.81955 0.33771 0.0
O502 O 0.5904 0.8454 0.3002 0.0
H503 H 0.69361 0.80602 0.2226 0.0
H504 H 0.65502 0.79266 0.21487 0.0
C505 C 0.66904 0.80661 0.22944 0.0
H506 H 0.6606 0.83092 0.22899 0.0
H507 H 0.60572 0.88377 0.2483 0.0
O508 O 0.62532 0.75074 0.35421 0.0
C509 C 0.59425 0.8437 0.32629 0.0
Co510 Co 0.96011 0.86229 0.07252 0.0
Co511 Co 0.92328 0.85165 0.01711 0.0
C512 C 0.96863 0.80556 0.03539 0.0
O513 O 0.97307 0.8216 0.0571 0.0
O514 O 0.95097 0.81505 0.01612 0.0
C515 C 0.01729 0.87456 0.09939 0.0
O516 O 0.02787 0.87126 0.07417 0.0
C517 C 0.90829 0.8449 0.95788 0.0
C518 C 0.86522 0.87254 0.95472 0.0
C519 C 0.8865 0.85597 0.93917 0.0
N520 N 0.90028 0.85466 0.98328 0.0
N521 N 0.87427 0.87078 0.98123 0.0
C522 C 0.93799 0.82838 0.95148 0.0
H523 H 0.95655 0.83604 0.96576 0.0
H524 H 0.94537 0.83266 0.92992 0.0
H525 H 0.93453 0.80305 0.95439 0.0
C526 C 0.97362 0.92182 0.04653 0.0
N527 N 0.96037 0.89362 0.04624 0.0
N528 N 0.94654 0.8891 0.02242 0.0
C529 C 0.95182 0.9141 0.00627 0.0
C530 C 0.96927 0.9354 0.02112 0.0
C531 C 0.98729 0.937 0.07149 0.0
H532 H 0.97639 0.92782 0.09049 0.0
H533 H 0.01261 0.93252 0.0721 0.0
H534 H 0.98381 0.96254 0.07072 0.0
O535 O 0.9186 0.85696 0.08646 0.0
O536 O 0.89347 0.8428 0.04843 0.0
H537 H 0.91634 0.91998 0.976 0.0
H538 H 0.95319 0.93669 0.96638 0.0
C539 C 0.94185 0.91682 0.97686 0.0
H540 H 0.94788 0.89522 0.96571 0.0
H541 H 0.86336 0.88165 0.99781 0.0
O542 O 0.98833 0.87192 0.10365 0.0
C543 C 0.89446 0.84674 0.07453 0.0
Co544 Co 0.6128 0.70788 0.82369 0.0
Co545 Co 0.59975 0.67135 0.76868 0.0
C546 C 0.55631 0.71933 0.78751 0.0
O547 O 0.57273 0.72319 0.80904 0.0
O548 O 0.56474 0.70097 0.76841 0.0
C549 C 0.62657 0.7646 0.84998 0.0
O550 O 0.62269 0.77485 0.82471 0.0
C551 C 0.59383 0.66144 0.70913 0.0
C552 C 0.60419 0.61143 0.70473 0.0
C553 C 0.59692 0.6379 0.6898 0.0
N554 N 0.59937 0.6495 0.73428 0.0
N555 N 0.6054 0.61955 0.73152 0.0
C556 C 0.58365 0.69426 0.70426 0.0
H557 H 0.59394 0.70989 0.71994 0.0
H558 H 0.58982 0.70239 0.68332 0.0
H559 H 0.55804 0.69547 0.70637 0.0
C560 C 0.67237 0.71863 0.79717 0.0
N561 N 0.64373 0.7065 0.79708 0.0
N562 N 0.63862 0.69233 0.7735 0.0
C563 C 0.6639 0.69603 0.75736 0.0
C564 C 0.68578 0.71314 0.77189 0.0
C565 C 0.68792 0.73271 0.82176 0.0
H566 H 0.67901 0.7221 0.84099 0.0
H567 H 0.68346 0.75807 0.82209 0.0
H568 H 0.71342 0.72918 0.8208 0.0
O569 O 0.60555 0.66662 0.83762 0.0
O570 O 0.59027 0.64157 0.79987 0.0
H571 H 0.66136 0.65954 0.72752 0.0
H572 H 0.68965 0.68914 0.71941 0.0
C573 C 0.6664 0.68477 0.72829 0.0
H574 H 0.64906 0.69703 0.71543 0.0
H575 H 0.61061 0.60472 0.74788 0.0
O576 O 0.62401 0.73566 0.8546 0.0
C577 C 0.59451 0.64266 0.82593 0.0
Co578 Co 0.52501 0.36153 0.07285 0.0
Co579 Co 0.56192 0.35083 0.01753 0.0
C580 C 0.51641 0.30491 0.03559 0.0
O581 O 0.51196 0.32096 0.0573 0.0
O582 O 0.5342 0.31429 0.0164 0.0
C583 C 0.46784 0.37412 0.09971 0.0
O584 O 0.45722 0.37095 0.07449 0.0
C585 C 0.57722 0.34426 0.95837 0.0
C586 C 0.62017 0.37201 0.95549 0.0
C587 C 0.59904 0.35547 0.9398 0.0
N588 N 0.58506 0.35391 0.98383 0.0
N589 N 0.61101 0.3701 0.98195 0.0
C590 C 0.54763 0.3277 0.95178 0.0
H591 H 0.52895 0.33532 0.96597 0.0
H592 H 0.54036 0.33202 0.93018 0.0
H593 H 0.55117 0.30238 0.95467 0.0
C594 C 0.51169 0.42117 0.04695 0.0
N595 N 0.52486 0.39291 0.04663 0.0
N596 N 0.53867 0.38833 0.02281 0.0
C597 C 0.53345 0.41338 0.00669 0.0
C598 C 0.51607 0.43475 0.02155 0.0
C599 C 0.49808 0.4364 0.07192 0.0
H600 H 0.50894 0.42713 0.09091 0.0
H601 H 0.47274 0.43209 0.07252 0.0
H602 H 0.50165 0.46192 0.07118 0.0
O603 O 0.56648 0.35604 0.08686 0.0
O604 O 0.59173 0.34198 0.04886 0.0
H605 H 0.56891 0.41926 0.97642 0.0
H606 H 0.53201 0.43595 0.96679 0.0
C607 C 0.5434 0.41608 0.97727 0.0
H608 H 0.53744 0.39448 0.96614 0.0
H609 H 0.62178 0.38093 0.99862 0.0
O610 O 0.4968 0.37126 0.10395 0.0
C611 C 0.5907 0.34592 0.07495 0.0
Co612 Co 0.87424 0.28073 0.32364 0.0
Co613 Co 0.88644 0.31602 0.26775 0.0
C614 C 0.93069 0.26944 0.28661 0.0
O615 O 0.9146 0.26628 0.30847 0.0
O616 O 0.9217 0.28678 0.26691 0.0
C617 C 0.86052 0.22389 0.34975 0.0
O618 O 0.86379 0.21387 0.32435 0.0
C619 C 0.89577 0.3331 0.20885 0.0
C620 C 0.86205 0.37143 0.20461 0.0
C621 C 0.88222 0.35295 0.18954 0.0
N622 N 0.88332 0.33904 0.23379 0.0
N623 N 0.86361 0.36237 0.2311 0.0
C624 C 0.9209 0.30967 0.20417 0.0
H625 H 0.93721 0.30972 0.22179 0.0
H626 H 0.91046 0.28619 0.20256 0.0
H627 H 0.93424 0.3149 0.18521 0.0
C628 C 0.81471 0.2683 0.29756 0.0
N629 N 0.84308 0.28111 0.29735 0.0
N630 N 0.84845 0.29377 0.27316 0.0
C631 C 0.82397 0.28782 0.25663 0.0
C632 C 0.80197 0.27147 0.27168 0.0
C633 C 0.7988 0.25584 0.32267 0.0
H634 H 0.80804 0.26704 0.34151 0.0
H635 H 0.80244 0.23039 0.32396 0.0
H636 H 0.77342 0.26009 0.32148 0.0
O637 O 0.88065 0.32214 0.33731 0.0
O638 O 0.89653 0.34573 0.29902 0.0
H639 H 0.81582 0.32 0.22395 0.0
H640 H 0.80551 0.28056 0.21573 0.0
C641 C 0.82268 0.29534 0.22657 0.0
H642 H 0.84582 0.29184 0.21713 0.0
H643 H 0.85024 0.37124 0.24718 0.0
O644 O 0.86366 0.25272 0.35457 0.0
C645 C 0.89225 0.34549 0.3251 0.0
Co646 Co 0.96213 0.62433 0.57178 0.0
Co647 Co 0.92474 0.63496 0.51663 0.0
C648 C 0.97058 0.68079 0.53426 0.0
O649 O 0.97522 0.66471 0.55592 0.0
O650 O 0.95257 0.67145 0.51522 0.0
C651 C 0.01964 0.613 0.59831 0.0
O652 O 0.02995 0.61693 0.57308 0.0
C653 C 0.91001 0.64103 0.45735 0.0
C654 C 0.8657 0.6155 0.45458 0.0
C655 C 0.88772 0.63075 0.43881 0.0
N656 N 0.90157 0.63212 0.48288 0.0
N657 N 0.87483 0.61726 0.48107 0.0
C658 C 0.94029 0.65625 0.45072 0.0
H659 H 0.95855 0.64807 0.46511 0.0
H660 H 0.94744 0.65136 0.4292 0.0
H661 H 0.93777 0.68174 0.4533 0.0
C662 C 0.9739 0.56396 0.54651 0.0
N663 N 0.96143 0.59257 0.54592 0.0
N664 N 0.94767 0.59723 0.52206 0.0
C665 C 0.95253 0.57201 0.50611 0.0
C666 C 0.96909 0.55027 0.52125 0.0
C667 C 0.99055 0.5501 0.57067 0.0
H668 H 0.98081 0.55916 0.59018 0.0
H669 H 0.01554 0.55598 0.56937 0.0
H670 H 0.98867 0.52445 0.57084 0.0
O671 O 0.92087 0.63028 0.586 0.0
O672 O 0.8951 0.64394 0.5481 0.0
H673 H 0.91575 0.56886 0.47678 0.0
H674 H 0.94961 0.54652 0.46775 0.0
C675 C 0.94145 0.56858 0.47708 0.0
H676 H 0.94991 0.58839 0.46459 0.0
H677 H 0.86342 0.60727 0.49781 0.0
O678 O 0.99065 0.61487 0.60274 0.0
C679 C 0.89647 0.64019 0.57421 0.0
Co680 Co 0.6116 0.27523 0.68728 0.0
Co681 Co 0.60041 0.31195 0.7427 0.0
C682 C 0.5546 0.26669 0.72387 0.0
O683 O 0.57067 0.26237 0.70216 0.0
O684 O 0.56408 0.28413 0.74326 0.0
C685 C 0.62397 0.21809 0.66064 0.0
O686 O 0.62009 0.20756 0.68582 0.0
C687 C 0.59113 0.32913 0.80155 0.0
C688 C 0.62381 0.36832 0.80547 0.0
C689 C 0.60402 0.34958 0.82065 0.0
N690 N 0.60356 0.33503 0.77659 0.0
N691 N 0.62267 0.35882 0.77909 0.0
C692 C 0.56651 0.30527 0.80643 0.0
H693 H 0.54977 0.30543 0.78913 0.0
H694 H 0.57736 0.28191 0.80749 0.0
H695 H 0.55351 0.30993 0.82569 0.0
C696 C 0.67044 0.26078 0.71398 0.0
N697 N 0.64247 0.27454 0.71389 0.0
N698 N 0.63766 0.28828 0.73772 0.0
C699 C 0.66217 0.28234 0.75424 0.0
C700 C 0.68347 0.26467 0.73963 0.0
C701 C 0.686 0.24701 0.68924 0.0
H702 H 0.67727 0.25801 0.67011 0.0
H703 H 0.68145 0.22168 0.6886 0.0
H704 H 0.71151 0.25029 0.69039 0.0
O705 O 0.60678 0.31685 0.67338 0.0
O706 O 0.59198 0.34188 0.71127 0.0
H707 H 0.67054 0.31676 0.78495 0.0
H708 H 0.68247 0.27819 0.79482 0.0
C709 C 0.66443 0.29179 0.78381 0.0
H710 H 0.64178 0.28827 0.79412 0.0
H711 H 0.63581 0.36787 0.76293 0.0
O712 O 0.6216 0.24709 0.65628 0.0
C713 C 0.59637 0.341 0.68522 0.0
Co714 Co 0.95652 0.3643 0.93704 0.0
Co715 Co 0.91973 0.35232 0.99215 0.0
C716 C 0.96752 0.30834 0.97466 0.0
O717 O 0.97143 0.32456 0.95297 0.0
O718 O 0.94907 0.31698 0.99363 0.0
C719 C 0.01368 0.3771 0.91109 0.0
O720 O 0.0236 0.37357 0.9365 0.0
C721 C 0.90614 0.34629 0.05149 0.0
C722 C 0.86068 0.36976 0.0546 0.0
C723 C 0.88376 0.35588 0.07022 0.0
N724 N 0.89677 0.3543 0.02598 0.0
N725 N 0.86936 0.36791 0.02799 0.0
C726 C 0.93732 0.33275 0.05788 0.0
H727 H 0.95481 0.34133 0.04296 0.0
H728 H 0.94473 0.33865 0.07913 0.0
H729 H 0.93604 0.3071 0.05598 0.0
C730 C 0.96589 0.42512 0.9622 0.0
N731 N 0.95442 0.39613 0.96276 0.0
N732 N 0.94098 0.39095 0.98666 0.0
C733 C 0.9451 0.41625 1.00266 0.0
C734 C 0.96079 0.43856 0.98752 0.0
C735 C 0.98222 0.43951 0.93815 0.0
H736 H 0.97299 0.4301 0.91857 0.0
H737 H 0.0074 0.4345 0.93963 0.0
H738 H 0.97933 0.46508 0.93802 0.0
O739 O 0.91558 0.3566 0.92279 0.0
O740 O 0.89041 0.3421 0.96074 0.0
H741 H 0.94167 0.44161 0.04105 0.0
H742 H 0.94464 0.39987 0.04423 0.0
C743 C 0.93461 0.41908 0.03191 0.0
H744 H 0.90899 0.41729 0.03277 0.0
H745 H 0.85717 0.37711 0.0113 0.0
O746 O 0.98482 0.37462 0.90625 0.0
C747 C 0.89162 0.34579 0.93461 0.0
Co748 Co 0.87329 0.71069 0.1857 0.0
Co749 Co 0.88513 0.67454 0.24146 0.0
C750 C 0.92954 0.72127 0.22299 0.0
O751 O 0.9135 0.725 0.20118 0.0
O752 O 0.92049 0.70353 0.24234 0.0
C753 C 0.86096 0.7679 0.15924 0.0
O754 O 0.86475 0.77806 0.18454 0.0
C755 C 0.89478 0.65759 0.30044 0.0
C756 C 0.8629 0.61777 0.30445 0.0
C757 C 0.88235 0.63688 0.31961 0.0
N758 N 0.8824 0.65147 0.2755 0.0
N759 N 0.8638 0.62728 0.27806 0.0
C760 C 0.91919 0.6817 0.3052 0.0
H761 H 0.93566 0.68192 0.28771 0.0
H762 H 0.90808 0.70492 0.30659 0.0
H763 H 0.93258 0.67696 0.32424 0.0
C764 C 0.81312 0.72216 0.21154 0.0
N765 N 0.84173 0.70972 0.21181 0.0
N766 N 0.8471 0.69686 0.23595 0.0
C767 C 0.82254 0.70259 0.25244 0.0
C768 C 0.80028 0.71851 0.23733 0.0
C769 C 0.79866 0.73813 0.18729 0.0
H770 H 0.80784 0.72841 0.16781 0.0
H771 H 0.80374 0.76334 0.18833 0.0
H772 H 0.77312 0.73543 0.18731 0.0
O773 O 0.88021 0.66934 0.17187 0.0
O774 O 0.89495 0.64485 0.21014 0.0
H775 H 0.80124 0.70552 0.29276 0.0
H776 H 0.84274 0.69878 0.29262 0.0
C777 C 0.82054 0.69343 0.28211 0.0
H778 H 0.8164 0.66808 0.28349 0.0
H779 H 0.85083 0.61795 0.26192 0.0
O780 O 0.86318 0.73892 0.15466 0.0
C781 C 0.89111 0.64555 0.18401 0.0
Co782 Co 0.52661 0.62489 0.43741 0.0
Co783 Co 0.56411 0.63752 0.4921 0.0
C784 C 0.51494 0.68065 0.47431 0.0
O785 O 0.51062 0.66435 0.45278 0.0
O786 O 0.53406 0.67231 0.49284 0.0
C787 C 0.46988 0.61154 0.41067 0.0
O788 O 0.45938 0.61574 0.43581 0.0
C789 C 0.57378 0.64103 0.55182 0.0
C790 C 0.62468 0.63701 0.5557 0.0
C791 C 0.5977 0.64018 0.57095 0.0
N792 N 0.58603 0.63815 0.52646 0.0
N793 N 0.61649 0.63584 0.52892 0.0
C794 C 0.54008 0.64682 0.55722 0.0
H795 H 0.52589 0.63967 0.53924 0.0
H796 H 0.53215 0.63427 0.57584 0.0
H797 H 0.53652 0.67203 0.56082 0.0
C798 C 0.51834 0.564 0.46304 0.0
N799 N 0.52938 0.59318 0.46348 0.0
N800 N 0.544 0.59817 0.48689 0.0
C801 C 0.54159 0.57231 0.50252 0.0
C802 C 0.52529 0.55009 0.48783 0.0
C803 C 0.50085 0.54982 0.43955 0.0
H804 H 0.50997 0.55855 0.41968 0.0
H805 H 0.47595 0.55592 0.44139 0.0
H806 H 0.50267 0.52416 0.43966 0.0
O807 O 0.56762 0.63359 0.42328 0.0
O808 O 0.59364 0.64748 0.46098 0.0
H809 H 0.57907 0.57717 0.53121 0.0
H810 H 0.55481 0.54363 0.53714 0.0
C811 C 0.55493 0.5684 0.53075 0.0
H812 H 0.54085 0.58184 0.54565 0.0
H813 H 0.63168 0.63343 0.51233 0.0
O814 O 0.49887 0.61377 0.40634 0.0
C815 C 0.59194 0.64398 0.43486 0.0
Co816 Co 0.3736 0.27635 0.18684 0.0
Co817 Co 0.38517 0.31232 0.24262 0.0
C818 C 0.43041 0.26664 0.22373 0.0
O819 O 0.41433 0.26288 0.20193 0.0
O820 O 0.42109 0.28395 0.24329 0.0
C821 C 0.36083 0.2193 0.16021 0.0
O822 O 0.36412 0.2089 0.18551 0.0
C823 C 0.39524 0.33011 0.30132 0.0
C824 C 0.36073 0.36769 0.3058 0.0
C825 C 0.38179 0.34997 0.32066 0.0
N826 N 0.38195 0.33535 0.27658 0.0
N827 N 0.36174 0.35822 0.27942 0.0
C828 C 0.42117 0.30749 0.30575 0.0
H829 H 0.43706 0.30787 0.28783 0.0
H830 H 0.41148 0.28373 0.30775 0.0
H831 H 0.4348 0.31329 0.32441 0.0
C832 C 0.31442 0.26287 0.21316 0.0
N833 N 0.3426 0.2761 0.21331 0.0
N834 N 0.3477 0.28916 0.23737 0.0
C835 C 0.32325 0.28309 0.25389 0.0
C836 C 0.30154 0.26624 0.23896 0.0
C837 C 0.29871 0.2501 0.18809 0.0
H838 H 0.30781 0.26137 0.16922 0.0
H839 H 0.30277 0.22471 0.18689 0.0
H840 H 0.27327 0.25397 0.18921 0.0
O841 O 0.37898 0.31791 0.17313 0.0
O842 O 0.3942 0.34223 0.21125 0.0
H843 H 0.3141 0.31568 0.28598 0.0
H844 H 0.30486 0.27613 0.29484 0.0
C845 C 0.32166 0.29118 0.28381 0.0
H846 H 0.34485 0.2885 0.29338 0.0
H847 H 0.34776 0.36658 0.2635 0.0
O848 O 0.36355 0.24826 0.15576 0.0
C849 C 0.38982 0.34171 0.18518 0.0
Co850 Co 0.45866 0.62617 0.93789 0.0
Co851 Co 0.42201 0.63745 0.99312 0.0
C852 C 0.46747 0.68311 0.97477 0.0
O853 O 0.47173 0.66696 0.95309 0.0
O854 O 0.4499 0.6738 0.99415 0.0
C855 C 0.51579 0.61294 0.9115 0.0
O856 O 0.52623 0.61639 0.93675 0.0
C857 C 0.40706 0.64412 0.05222 0.0
C858 C 0.36394 0.61666 0.05533 0.0
C859 C 0.38537 0.63294 0.07091 0.0
N860 N 0.39888 0.63467 0.0268 0.0
N861 N 0.37282 0.61869 0.0288 0.0
C862 C 0.43689 0.66033 0.05867 0.0
H863 H 0.43361 0.6857 0.05586 0.0
H864 H 0.45537 0.65256 0.04433 0.0
H865 H 0.4443 0.65586 0.0802 0.0
C866 C 0.47184 0.56666 0.9641 0.0
N867 N 0.45876 0.59497 0.96427 0.0
N868 N 0.44504 0.59978 0.98809 0.0
C869 C 0.45025 0.57486 1.00437 0.0
C870 C 0.46753 0.55332 0.98961 0.0
C871 C 0.48526 0.55112 0.9392 0.0
H872 H 0.47442 0.56032 0.92017 0.0
H873 H 0.51064 0.5552 0.93853 0.0
H874 H 0.48147 0.52564 0.94011 0.0
O875 O 0.41725 0.63158 0.92376 0.0
O876 O 0.39237 0.64651 0.96167 0.0
H877 H 0.41484 0.56966 0.03479 0.0
H878 H 0.45149 0.55237 0.04431 0.0
C879 C 0.44039 0.57239 0.03382 0.0
H880 H 0.44679 0.59391 0.04489 0.0
H881 H 0.36183 0.60799 0.01218 0.0
O882 O 0.48691 0.61601 0.90701 0.0
C883 C 0.39326 0.64231 0.93561 0.0
Co884 Co 0.11358 0.71124 0.6864 0.0
Co885 Co 0.10249 0.67387 0.74152 0.0
C886 C 0.05688 0.71976 0.72349 0.0
O887 O 0.07303 0.72431 0.70187 0.0
O888 O 0.06611 0.70176 0.74263 0.0
C889 C 0.12546 0.76881 0.66006 0.0
O890 O 0.12201 0.77905 0.68537 0.0
C891 C 0.0951 0.65826 0.80058 0.0
C892 C 0.12377 0.61586 0.8039 0.0
C893 C 0.10652 0.63668 0.81934 0.0
N894 N 0.10532 0.65058 0.77525 0.0
N895 N 0.12204 0.62493 0.77738 0.0
C896 C 0.07783 0.68758 0.80692 0.0
H897 H 0.08616 0.70669 0.79349 0.0
H898 H 0.08063 0.69436 0.82882 0.0
H899 H 0.05282 0.68396 0.80261 0.0
C900 C 0.1729 0.72427 0.71263 0.0
N901 N 0.14473 0.71103 0.71273 0.0
N902 N 0.13999 0.6971 0.73649 0.0
C903 C 0.16478 0.70238 0.75282 0.0
C904 C 0.18623 0.71984 0.73814 0.0
C905 C 0.18812 0.73819 0.68779 0.0
H906 H 0.17913 0.72731 0.66872 0.0
H907 H 0.18343 0.76351 0.68722 0.0
H908 H 0.21365 0.73488 0.68867 0.0
O909 O 0.10811 0.6699 0.67214 0.0
O910 O 0.09367 0.64435 0.7099 0.0
H911 H 0.17095 0.66721 0.78339 0.0
H912 H 0.18626 0.70463 0.79314 0.0
C913 C 0.16703 0.69264 0.78234 0.0
H914 H 0.14502 0.6981 0.79304 0.0
H915 H 0.13341 0.61437 0.76089 0.0
O916 O 0.12327 0.73983 0.65555 0.0
C917 C 0.09776 0.64563 0.68382 0.0
Co918 Co 0.02841 0.36202 0.43712 0.0
Co919 Co 0.06503 0.34921 0.49232 0.0
C920 C 0.01705 0.30568 0.47363 0.0
O921 O 0.01306 0.32206 0.45207 0.0
O922 O 0.03538 0.31421 0.49269 0.0
C923 C 0.97185 0.37581 0.41009 0.0
O924 O 0.9612 0.3718 0.43521 0.0
C925 C 0.07445 0.34484 0.55205 0.0
C926 C 0.12498 0.35183 0.55633 0.0
C927 C 0.09813 0.34684 0.57138 0.0
N928 N 0.08673 0.34881 0.52681 0.0
N929 N 0.11696 0.35287 0.52951 0.0
C930 C 0.04111 0.33689 0.55699 0.0
H931 H 0.03855 0.31125 0.55654 0.0
H932 H 0.02634 0.34678 0.54042 0.0
H933 H 0.033 0.34522 0.57732 0.0
C934 C 0.01938 0.4227 0.46286 0.0
N935 N 0.03042 0.3935 0.46339 0.0
N936 N 0.04454 0.38835 0.48703 0.0
C937 C 0.0417 0.41407 0.50274 0.0
C938 C 0.02574 0.43642 0.48783 0.0
C939 C 0.00268 0.43717 0.43902 0.0
H940 H 0.01208 0.42823 0.41934 0.0
H941 H 0.97763 0.43162 0.44046 0.0
H942 H 0.00496 0.46279 0.43909 0.0
O943 O 0.06968 0.35408 0.4234 0.0
O944 O 0.09487 0.3395 0.46137 0.0
H945 H 0.07891 0.40994 0.53178 0.0
H946 H 0.05309 0.44223 0.53818 0.0
C947 C 0.0544 0.4177 0.53123 0.0
H948 H 0.04079 0.40314 0.54565 0.0
H949 H 0.1321 0.3565 0.51306 0.0
O950 O 0.00083 0.37316 0.40586 0.0
C951 C 0.09372 0.34338 0.43527 0.0
Co952 Co 0.37562 0.71054 0.32363 0.0
Co953 Co 0.38725 0.6744 0.26807 0.0
C954 C 0.43257 0.71999 0.28692 0.0
O955 O 0.41648 0.72394 0.30869 0.0
O956 O 0.42322 0.70264 0.26741 0.0
C957 C 0.3618 0.76749 0.35014 0.0
O958 O 0.36504 0.77801 0.32489 0.0
C959 C 0.39617 0.65744 0.20919 0.0
C960 C 0.36365 0.6181 0.20542 0.0
C961 C 0.3831 0.63707 0.19013 0.0
N962 N 0.38413 0.65129 0.23424 0.0
N963 N 0.36513 0.6274 0.23184 0.0
C964 C 0.42045 0.6816 0.20414 0.0
H965 H 0.43737 0.68163 0.22131 0.0
H966 H 0.40932 0.70483 0.20318 0.0
H967 H 0.43329 0.67711 0.18476 0.0
C968 C 0.31619 0.72363 0.29728 0.0
N969 N 0.34455 0.71071 0.29713 0.0
N970 N 0.34969 0.69751 0.27314 0.0
C971 C 0.32508 0.70316 0.25667 0.0
C972 C 0.30321 0.7199 0.27154 0.0
C973 C 0.3003 0.73625 0.32234 0.0
H974 H 0.3096 0.72516 0.34123 0.0
H975 H 0.30391 0.76171 0.32346 0.0
H976 H 0.27493 0.73201 0.32126 0.0
O977 O 0.38108 0.66898 0.33749 0.0
O978 O 0.39617 0.64447 0.29942 0.0
H979 H 0.3171 0.66972 0.22502 0.0
H980 H 0.30567 0.70866 0.21587 0.0
C981 C 0.32337 0.6946 0.22685 0.0
H982 H 0.34624 0.6983 0.21698 0.0
H983 H 0.35223 0.61821 0.24808 0.0
O984 O 0.36517 0.73859 0.3546 0.0
C985 C 0.39183 0.64508 0.32548 0.0
Co986 Co 0.02697 0.62394 0.07263 0.0
Co987 Co 0.06293 0.63608 0.01681 0.0
C988 C 0.01564 0.68007 0.03528 0.0
O989 O 0.01209 0.66392 0.05706 0.0
O990 O 0.0336 0.6713 0.016 0.0
C991 C 0.9701 0.61128 0.09943 0.0
O992 O 0.95974 0.61479 0.07415 0.0
C993 C 0.079 0.64483 0.95752 0.0
C994 C 0.12045 0.61492 0.95414 0.0
C995 C 0.10029 0.63294 0.93859 0.0
N996 N 0.08585 0.6335 0.98273 0.0
N997 N 0.11096 0.61605 0.98052 0.0
C998 C 0.05351 0.66772 0.95222 0.0
H999 H 0.05235 0.68471 0.96929 0.0
H1000 H 0.03101 0.65527 0.95117 0.0
H1001 H 0.05739 0.68076 0.93284 0.0
C1002 C 0.01641 0.56358 0.04693 0.0
N1003 N 0.02836 0.59237 0.04658 0.0
N1004 N 0.04115 0.59783 0.02244 0.0
C1005 C 0.03589 0.57309 0.00604 0.0
C1006 C 0.02036 0.55066 0.02121 0.0
C1007 C 0.00058 0.54899 0.07115 0.0
H1008 H 0.01017 0.55827 0.09064 0.0
H1009 H 0.97535 0.55393 0.07008 0.0
H1010 H 0.00352 0.52343 0.07113 0.0
O1011 O 0.06822 0.63124 0.0863 0.0
O1012 O 0.09268 0.64594 0.04804 0.0
H1013 H 0.03381 0.55111 0.96597 0.0
H1014 H 0.03842 0.59293 0.96565 0.0
C1015 C 0.04497 0.57113 0.97637 0.0
H1016 H 0.07046 0.56824 0.97492 0.0
H1017 H 0.12102 0.60403 0.99692 0.0
O1018 O -0.00093 0.61367 0.10384 0.0
C1019 C 0.09198 0.64205 0.07417 0.0
Co1020 Co 0.11315 0.27861 0.82421 0.0
Co1021 Co 0.10009 0.31587 0.76938 0.0
C1022 C 0.05733 0.26676 0.78747 0.0
O1023 O 0.07366 0.26261 0.80901 0.0
O1024 O 0.0656 0.28569 0.76876 0.0
C1025 C 0.12653 0.22171 0.8507 0.0
O1026 O 0.12241 0.21145 0.82547 0.0
C1027 C 0.09583 0.32517 0.70968 0.0
C1028 C 0.10052 0.37601 0.70532 0.0
C1029 C 0.09676 0.3489 0.69032 0.0
N1030 N 0.09921 0.33764 0.7349 0.0
N1031 N 0.10191 0.36807 0.73216 0.0
C1032 C 0.0894 0.29146 0.70471 0.0
H1033 H 0.09806 0.27723 0.72217 0.0
H1034 H 0.10007 0.28333 0.68527 0.0
H1035 H 0.06395 0.28811 0.70304 0.0
C1036 C 0.17387 0.27038 0.79841 0.0
N1037 N 0.14469 0.28141 0.79806 0.0
N1038 N 0.13949 0.29589 0.77459 0.0
C1039 C 0.16519 0.29334 0.75883 0.0
C1040 C 0.18756 0.27717 0.77351 0.0
C1041 C 0.18826 0.25299 0.82189 0.0
H1042 H 0.17954 0.26208 0.84177 0.0
H1043 H 0.18238 0.22801 0.8201 0.0
H1044 H 0.21389 0.25499 0.82167 0.0
O1045 O 0.10428 0.31963 0.83831 0.0
O1046 O 0.08981 0.34531 0.80054 0.0
H1047 H 0.19334 0.30575 0.72369 0.0
H1048 H 0.15487 0.29216 0.71583 0.0
C1049 C 0.16873 0.30626 0.7304 0.0
H1050 H 0.16019 0.33054 0.7298 0.0
H1051 H 0.10477 0.3834 0.7486 0.0
O1052 O 0.12438 0.25071 0.8552 0.0
C1053 C 0.09339 0.34376 0.82666 0.0
Co1054 Co 0.46146 0.36279 0.57294 0.0
Co1055 Co 0.42432 0.35201 0.51774 0.0
C1056 C 0.47083 0.30663 0.53529 0.0
O1057 O 0.47525 0.32265 0.55701 0.0
O1058 O 0.45265 0.31587 0.51631 0.0
C1059 C 0.51877 0.37435 0.59965 0.0
O1060 O 0.52921 0.37044 0.57446 0.0
C1061 C 0.41007 0.3462 0.45839 0.0
C1062 C 0.36496 0.37039 0.45562 0.0
C1063 C 0.38753 0.35596 0.43983 0.0
N1064 N 0.40125 0.35462 0.48394 0.0
N1065 N 0.37405 0.3687 0.48213 0.0
C1066 C 0.44085 0.33193 0.45178 0.0
H1067 H 0.45865 0.33991 0.46667 0.0
H1068 H 0.44825 0.33788 0.43053 0.0
H1069 H 0.43892 0.3063 0.45349 0.0
C1070 C 0.47278 0.42333 0.54767 0.0
N1071 N 0.46041 0.3947 0.54713 0.0
N1072 N 0.44671 0.38999 0.52327 0.0
C1073 C 0.45146 0.41521 0.50727 0.0
C1074 C 0.46796 0.437 0.52235 0.0
C1075 C 0.48956 0.43713 0.57174 0.0
H1076 H 0.47994 0.42807 0.5913 0.0
H1077 H 0.51455 0.43122 0.57032 0.0
H1078 H 0.48765 0.46278 0.57193 0.0
O1079 O 0.42024 0.35615 0.5871 0.0
O1080 O 0.39472 0.34251 0.54911 0.0
H1081 H 0.41476 0.41736 0.47777 0.0
H1082 H 0.44779 0.44102 0.46908 0.0
C1083 C 0.44043 0.41858 0.47822 0.0
H1084 H 0.44974 0.39924 0.46563 0.0
H1085 H 0.36224 0.37817 0.49889 0.0
O1086 O 0.48976 0.3724 0.60399 0.0
C1087 C 0.396 0.34604 0.57525 0.0
C1088 C 0.09373 0.16233 0.11514 0.0
C1089 C 0.09899 0.13438 0.10105 0.0
H1090 H 0.09231 0.18543 0.15405 0.0
C1091 C 0.10473 0.10723 0.11622 0.0
H1092 H 0.09001 0.18372 0.10385 0.0
C1093 C 0.10493 0.10791 0.145 0.0
C1094 C 0.09979 0.13584 0.1593 0.0
H1095 H 0.10895 0.08538 0.10581 0.0
H1096 H 0.1094 0.08652 0.15608 0.0
C1097 C 0.09458 0.16316 0.14398 0.0
C1098 C 0.09163 0.82699 0.39531 0.0
C1099 C 0.09825 0.8549 0.40901 0.0
H1100 H 0.08972 0.80305 0.35684 0.0
C1101 C 0.10584 0.88127 0.39344 0.0
H1102 H 0.08649 0.80613 0.40692 0.0
C1103 C 0.10655 0.87989 0.36468 0.0
C1104 C 0.10014 0.85196 0.35077 0.0
H1105 H 0.11115 0.90307 0.40353 0.0
H1106 H 0.11248 0.90071 0.35331 0.0
C1107 C 0.09303 0.8254 0.3665 0.0
C1108 C 0.39237 0.82561 0.64462 0.0
C1109 C 0.38607 0.85264 0.65999 0.0
H1110 H 0.39748 0.80531 0.60446 0.0
C1111 C 0.37955 0.88032 0.64568 0.0
H1112 H 0.3957 0.80343 0.65464 0.0
C1113 C 0.37934 0.88101 0.61689 0.0
C1114 C 0.38614 0.85416 0.60169 0.0
H1115 H 0.37422 0.9015 0.65676 0.0
H1116 H 0.37397 0.90263 0.60648 0.0
C1117 C 0.3929 0.8265 0.61577 0.0
C1118 C 0.38032 0.10704 0.86505 0.0
C1119 C 0.3852 0.13535 0.8512 0.0
H1120 H 0.37686 0.08349 0.90386 0.0
C1121 C 0.3907 0.16221 0.86702 0.0
H1122 H 0.37564 0.08596 0.85363 0.0
C1123 C 0.39213 0.16057 0.89584 0.0
C1124 C 0.38704 0.13228 0.90946 0.0
H1125 H 0.39275 0.18476 0.85741 0.0
H1126 H 0.39607 0.18163 0.90752 0.0
C1127 C 0.38099 0.10558 0.89382 0.0
C1128 C 0.88067 0.88062 0.89292 0.0
C1129 C 0.88682 0.85401 0.90873 0.0
H1130 H 0.87522 0.90002 0.85262 0.0
C1131 C 0.89196 0.82564 0.89525 0.0
H1132 H 0.8765 0.90278 0.90282 0.0
C1133 C 0.89065 0.82388 0.86645 0.0
C1134 C 0.88504 0.85065 0.8505 0.0
H1135 H 0.89593 0.80463 0.90703 0.0
H1136 H 0.89289 0.80131 0.85691 0.0
C1137 C 0.87999 0.87901 0.86417 0.0
C1138 C 0.87183 0.16222 0.6445 0.0
C1139 C 0.89063 0.14095 0.65878 0.0
H1140 H 0.85613 0.1786 0.6051 0.0
C1141 C 0.90874 0.11978 0.64378 0.0
H1142 H 0.85683 0.17805 0.65563 0.0
C1143 C 0.90845 0.1202 0.61495 0.0
C1144 C 0.88969 0.14152 0.60068 0.0
H1145 H 0.92292 0.10275 0.65437 0.0
H1146 H 0.92205 0.10315 0.60385 0.0
C1147 C 0.87121 0.16236 0.61569 0.0
C1148 C 0.60829 0.10807 0.3649 0.0
C1149 C 0.60134 0.13582 0.35086 0.0
H1150 H 0.61334 0.08512 0.40385 0.0
C1151 C 0.59363 0.1623 0.36648 0.0
H1152 H 0.61467 0.08732 0.35363 0.0
C1153 C 0.59223 0.16079 0.3953 0.0
C1154 C 0.59943 0.13307 0.40912 0.0
H1155 H 0.58986 0.18455 0.35671 0.0
H1156 H 0.58666 0.18161 0.40681 0.0
C1157 C 0.60757 0.10678 0.39366 0.0
C1158 C 0.61712 0.8275 0.11649 0.0
C1159 C 0.59687 0.84659 0.10141 0.0
H1160 H 0.6331 0.81347 0.15645 0.0
C1161 C 0.57658 0.86646 0.11564 0.0
H1162 H 0.63345 0.8125 0.10596 0.0
C1163 C 0.57638 0.86703 0.14446 0.0
C1164 C 0.59623 0.84752 0.15955 0.0
H1165 H 0.5616 0.8823 0.10449 0.0
H1166 H 0.56088 0.88289 0.155 0.0
C1167 C 0.6167 0.82783 0.14532 0.0
C1168 C 0.61443 0.66167 0.61633 0.0
C1169 C 0.59582 0.64098 0.60133 0.0
H1170 H 0.62918 0.67704 0.65627 0.0
C1171 C 0.57723 0.61958 0.61561 0.0
H1172 H 0.6294 0.67797 0.60574 0.0
C1173 C 0.57722 0.61894 0.64444 0.0
C1174 C 0.59544 0.63997 0.65944 0.0
H1175 H 0.56355 0.60262 0.60451 0.0
H1176 H 0.56315 0.60186 0.65503 0.0
C1177 C 0.6141 0.66131 0.64516 0.0
C1178 C 0.60463 0.38052 0.89372 0.0
C1179 C 0.59881 0.35373 0.90936 0.0
H1180 H 0.60984 0.40026 0.85353 0.0
C1181 C 0.59404 0.32541 0.89573 0.0
H1182 H 0.60851 0.40265 0.90376 0.0
C1183 C 0.59539 0.32387 0.86693 0.0
C1184 C 0.60064 0.35082 0.85114 0.0
H1185 H 0.59031 0.30428 0.90739 0.0
H1186 H 0.59344 0.30134 0.85725 0.0
C1187 C 0.60534 0.37912 0.86497 0.0
C1188 C 0.89144 0.32658 0.14361 0.0
C1189 C 0.88495 0.35358 0.15895 0.0
H1190 H 0.89668 0.30628 0.10345 0.0
C1191 C 0.8782 0.3812 0.14462 0.0
H1192 H 0.89495 0.30445 0.15364 0.0
C1193 C 0.87798 0.38186 0.11584 0.0
C1194 C 0.88497 0.35504 0.10066 0.0
H1195 H 0.87272 0.40235 0.15569 0.0
H1196 H 0.87244 0.40343 0.10541 0.0
C1197 C 0.89194 0.32744 0.11476 0.0
C1198 C 0.89151 0.66241 0.36593 0.0
C1199 C 0.8859 0.63556 0.35013 0.0
H1200 H 0.89709 0.68182 0.40641 0.0
C1201 C 0.88103 0.60726 0.36398 0.0
H1202 H 0.89356 0.68496 0.35631 0.0
C1203 C 0.88183 0.60579 0.39275 0.0
C1204 C 0.888 0.63247 0.40837 0.0
H1205 H 0.87627 0.58619 0.35257 0.0
H1206 H 0.87772 0.5837 0.4028 0.0
C1207 C 0.89306 0.66077 0.39474 0.0
C1208 C 0.37989 0.38069 0.39383 0.0
C1209 C 0.38788 0.35439 0.40938 0.0
H1210 H 0.37276 0.40006 0.35373 0.0
C1211 C 0.39476 0.32655 0.39565 0.0
H1212 H 0.37436 0.40243 0.40394 0.0
C1213 C 0.39321 0.32494 0.36684 0.0
C1214 C 0.38567 0.35142 0.35113 0.0
H1215 H 0.4002 0.30573 0.40723 0.0
H1216 H 0.39674 0.30262 0.35715 0.0
C1217 C 0.37902 0.37929 0.36507 0.0
C1218 C 0.38086 0.60719 0.11676 0.0
C1219 C 0.38617 0.63424 0.10134 0.0
H1220 H 0.37676 0.58683 0.1568 0.0
C1221 C 0.39116 0.66238 0.11519 0.0
H1222 H 0.37686 0.58519 0.10653 0.0
C1223 C 0.39052 0.66349 0.14402 0.0
C1224 C 0.38578 0.63628 0.15958 0.0
H1225 H 0.39454 0.68369 0.1037 0.0
H1226 H 0.39259 0.68588 0.15391 0.0
C1227 C 0.38088 0.60815 0.14553 0.0
C1228 C 0.07435 0.63941 0.89208 0.0
C1229 C 0.10144 0.63586 0.90803 0.0
H1230 H 0.05477 0.643 0.85147 0.0
C1231 C 0.13001 0.63255 0.89433 0.0
H1232 H 0.05172 0.64023 0.90164 0.0
C1233 C 0.13152 0.63296 0.86557 0.0
C1234 C 0.10457 0.63713 0.84977 0.0
H1235 H 0.15129 0.62939 0.90587 0.0
H1236 H 0.15386 0.63017 0.85565 0.0
C1237 C 0.07598 0.64052 0.86325 0.0
C1238 C 0.11626 0.32725 0.64568 0.0
C1239 C 0.09564 0.34676 0.65993 0.0
H1240 H 0.1331 0.31205 0.60631 0.0
C1241 C 0.07554 0.36603 0.64486 0.0
H1242 H 0.13285 0.31308 0.6568 0.0
C1243 C 0.07568 0.36543 0.61603 0.0
C1244 C 0.09616 0.34577 0.60178 0.0
H1245 H 0.05991 0.38174 0.65541 0.0
H1246 H 0.06053 0.38112 0.6049 0.0
C1247 C 0.11662 0.32689 0.61686 0.0
C1248 C 0.97773 0.25034 0.26094 0.0
C1249 C 0.96214 0.25582 0.28591 0.0
H1250 H 0.01959 0.2342 0.24158 0.0
C1251 C 0.97765 0.2501 0.31084 0.0
H1252 H 0.96636 0.25477 0.24143 0.0
C1253 C 0.00812 0.23938 0.31092 0.0
C1254 C 0.02368 0.23344 0.28608 0.0
H1255 H 0.96646 0.25449 0.33044 0.0
H1256 H 0.01925 0.23512 0.33058 0.0
C1257 C 0.00816 0.23878 0.26103 0.0
C1258 C 0.98779 0.72851 0.55834 0.0
C1259 C 0.98291 0.71276 0.53342 0.0
H1260 H 0.00094 0.77063 0.57813 0.0
C1261 C 0.98799 0.72853 0.50845 0.0
H1262 H 0.98364 0.71719 0.57794 0.0
C1263 C -0.00154 0.7594 0.50856 0.0
C1264 C 0.00293 0.77512 0.53364 0.0
H1265 H 0.98417 0.71694 0.48895 0.0
H1266 H 0.00285 0.771 0.48915 0.0
C1267 C -0.0027 0.75935 0.55845 0.0
C1268 C 0.4792 0.75007 0.81165 0.0
C1269 C 0.46337 0.75519 0.78679 0.0
H1270 H 0.5211 0.73568 0.83121 0.0
C1271 C 0.4787 0.74937 0.76175 0.0
H1272 H 0.4682 0.75477 0.83128 0.0
C1273 C 0.50917 0.73794 0.76172 0.0
C1274 C 0.52499 0.73315 0.7867 0.0
H1275 H 0.46705 0.75335 0.74229 0.0
H1276 H 0.52039 0.73301 0.74224 0.0
C1277 C 0.50972 0.73953 0.8116 0.0
C1278 C 0.48891 0.2265 0.05956 0.0
C1279 C 0.48289 0.21101 0.03469 0.0
H1280 H 0.50331 0.26831 0.07919 0.0
C1281 C 0.48749 0.22685 0.00967 0.0
H1282 H 0.48521 0.21513 0.0792 0.0
C1283 C 0.4984 0.25755 0.00967 0.0
C1284 C 0.50383 0.27306 0.03469 0.0
H1285 H 0.48283 0.21548 0.99022 0.0
H1286 H 0.50226 0.26924 0.9902 0.0
C1287 C 0.4989 0.25719 0.05956 0.0
C1288 C 0.97695 0.73886 0.24891 0.0
C1289 C 0.96119 0.73432 0.22387 0.0
H1290 H 0.01931 0.75322 0.26848 0.0
C1291 C 0.97682 0.74009 0.19902 0.0
H1292 H 0.96549 0.73439 0.26836 0.0
C1293 C 0.0076 0.74977 0.19908 0.0
C1294 C 0.02339 0.75463 0.224 0.0
H1295 H 0.96549 0.73641 0.17937 0.0
H1296 H 0.01885 0.75403 0.17949 0.0
C1297 C 0.00772 0.74941 0.24898 0.0
C1298 C 0.494 0.72735 0.45074 0.0
C1299 C 0.50104 0.71199 0.47549 0.0
H1300 H 0.4787 0.76909 0.43138 0.0
C1301 C 0.4971 0.72787 0.50057 0.0
H1302 H 0.49715 0.71594 0.43105 0.0
C1303 C 0.48598 0.75853 0.50076 0.0
C1304 C 0.4797 0.77397 0.47585 0.0
H1305 H 0.50255 0.71661 0.51993 0.0
H1306 H 0.48271 0.77027 0.52027 0.0
C1307 C 0.48383 0.75802 0.45091 0.0
C1308 C 0.47601 0.23992 0.69986 0.0
C1309 C 0.4605 0.23414 0.72477 0.0
H1310 H 0.51797 0.25382 0.68019 0.0
C1311 C 0.47636 0.23866 0.74975 0.0
H1312 H 0.4646 0.23627 0.68024 0.0
C1313 C 0.50714 0.24919 0.74972 0.0
C1314 C 0.52269 0.25438 0.72469 0.0
H1315 H 0.46498 0.23418 0.76924 0.0
H1316 H 0.51884 0.25295 0.76918 0.0
C1317 C 0.50679 0.24957 0.69982 0.0
C1318 C -0.00167 0.23106 0.95079 0.0
C1319 C 0.00347 0.21524 0.97567 0.0
H1320 H 0.9839 0.27291 0.93114 0.0
C1321 C -0.00234 0.23063 1.00068 0.0
H1322 H 0.00302 0.22002 0.93118 0.0
C1323 C 0.98615 0.26115 1.00066 0.0
C1324 C 0.98132 0.27694 0.97564 0.0
H1325 H 0.00165 0.21899 0.02015 0.0
H1326 H 0.98118 0.27242 0.02011 0.0
C1327 C 0.98775 0.26159 0.95078 0.0
C1328 C 0.9788 0.74804 0.69942 0.0
C1329 C 0.96299 0.75307 0.72429 0.0
H1330 H 0.02092 0.73448 0.67983 0.0
C1331 C 0.97855 0.74779 0.74932 0.0
H1332 H 0.96762 0.7523 0.67979 0.0
C1333 C 0.00929 0.73707 0.74935 0.0
C1334 C 0.02509 0.73247 0.72435 0.0
H1335 H 0.9669 0.75169 0.76878 0.0
H1336 H 0.02073 0.73261 0.76882 0.0
C1337 C 0.00954 0.73821 0.69945 0.0
C1338 C -0.00138 0.25846 0.44939 0.0
C1339 C 0.00379 0.27409 0.47434 0.0
H1340 H 0.98471 0.21654 0.42961 0.0
C1341 C -0.00153 0.25837 0.49929 0.0
H1342 H 0.00298 0.26974 0.42982 0.0
C1343 C 0.98749 0.2277 0.49916 0.0
C1344 C 0.98273 0.21207 0.47409 0.0
H1345 H 0.00254 0.26985 0.5188 0.0
H1346 H 0.9829 0.21619 0.51858 0.0
C1347 C 0.98859 0.22775 0.44927 0.0
C1348 C 0.47795 0.24892 0.24945 0.0
C1349 C 0.4622 0.25389 0.22446 0.0
H1350 H 0.52027 0.23408 0.26887 0.0
C1351 C 0.47786 0.24861 0.19955 0.0
H1352 H 0.46644 0.25303 0.26895 0.0
C1353 C 0.50863 0.23883 0.19951 0.0
C1354 C 0.52437 0.23341 0.22438 0.0
H1355 H 0.46654 0.25264 0.17994 0.0
H1356 H 0.51989 0.23488 0.17987 0.0
C1357 C 0.50871 0.23829 0.24941 0.0
C1358 C 0.49423 0.7617 0.95053 0.0
C1359 C 0.5017 0.77675 0.97531 0.0
H1360 H 0.47848 0.72024 0.93107 0.0
C1361 C 0.49791 0.76069 1.00032 0.0
H1362 H 0.49723 0.77325 0.93088 0.0
C1363 C 0.48664 0.73013 1.00044 0.0
C1364 C 0.48002 0.71496 0.97549 0.0
H1365 H 0.50368 0.77171 0.01971 0.0
H1366 H 0.48358 0.71822 0.01991 0.0
C1367 C 0.48389 0.73111 0.95061 0.0
C1368 C 0.97989 0.23653 0.81116 0.0
C1369 C 0.96397 0.23221 0.78624 0.0
H1370 H 0.02201 0.24975 0.83092 0.0
C1371 C 0.97944 0.23808 0.76128 0.0
H1372 H 0.96877 0.2317 0.83071 0.0
C1373 C 0.01011 0.24893 0.7614 0.0
C1374 C 0.02598 0.25302 0.78645 0.0
H1375 H 0.96772 0.23466 0.74178 0.0
H1376 H 0.02139 0.25406 0.742 0.0
C1377 C 0.0106 0.24644 0.81126 0.0
C1378 C 0.48901 0.25904 0.55918 0.0
C1379 C 0.48361 0.27481 0.53432 0.0
H1380 H 0.50276 0.21693 0.57878 0.0
C1381 C 0.48848 0.25913 0.50928 0.0
H1382 H 0.48505 0.27029 0.57882 0.0
C1383 C 0.49918 0.22831 0.50926 0.0
C1384 C 0.5041 0.21255 0.53427 0.0
H1385 H 0.48426 0.27073 0.48983 0.0
H1386 H 0.50336 0.21677 0.48979 0.0
C1387 C 0.49876 0.22824 0.55915 0.0
C1388 C 0.47963 0.73868 0.26113 0.0
C1389 C 0.46441 0.73252 0.28615 0.0
H1390 H 0.52139 0.75486 0.24164 0.0
C1391 C 0.4806 0.73652 0.31098 0.0
H1392 H 0.46771 0.73553 0.24169 0.0
C1393 C 0.51132 0.74642 0.31091 0.0
C1394 C 0.52645 0.75331 0.28604 0.0
H1395 H 0.46968 0.73147 0.33058 0.0
H1396 H 0.52293 0.7495 0.33051 0.0
C1397 C 0.51031 0.74951 0.26109 0.0
C1398 C -0.004 0.72698 0.05932 0.0
C1399 C 0.0021 0.71157 0.03443 0.0
H1400 H 0.98155 0.76881 0.07899 0.0
C1401 C -0.00257 0.72746 0.00944 0.0
H1402 H -0.00028 0.71556 0.07894 0.0
C1403 C 0.98651 0.75817 0.00947 0.0
C1404 C 0.9811 0.77364 0.0345 0.0
H1405 H 0.00212 0.71615 0.98996 0.0
H1406 H 0.98268 0.76991 0.99002 0.0
C1407 C 0.98598 0.7577 0.05936 0.0
C1408 C 0.12664 0.31869 0.36871 0.0
C1409 C 0.12861 0.28659 0.37358 0.0
H1410 H 0.11511 0.36305 0.38567 0.0
C1411 C 0.1291 0.2758 0.40093 0.0
H1412 H 0.12697 0.32786 0.34793 0.0
C1413 C 0.123 0.29619 0.42266 0.0
C1414 C 0.11593 0.32743 0.41716 0.0
H1415 H 0.13134 0.25124 0.40538 0.0
H1416 H 0.11974 0.28664 0.44311 0.0
C1417 C 0.1203 0.33898 0.39038 0.0
C1418 C 0.89321 0.86717 0.63973 0.0
C1419 C 0.90506 0.86295 0.66643 0.0
H1420 H 0.90377 0.87422 0.5972 0.0
C1421 C 0.93617 0.87058 0.67166 0.0
H1422 H 0.86924 0.86154 0.6352 0.0
C1423 C 0.9562 0.8772 0.64977 0.0
C1424 C 0.94518 0.87663 0.6225 0.0
H1425 H 0.94597 0.86743 0.69203 0.0
H1426 H 0.98071 0.87994 0.65404 0.0
C1427 C 0.91313 0.87397 0.6179 0.0
C1428 C 0.36417 0.68968 0.92299 0.0
C1429 C 0.37115 0.65843 0.91744 0.0
H1430 H 0.35607 0.73478 0.90583 0.0
C1431 C 0.36695 0.64709 0.89057 0.0
H1432 H 0.36731 0.69908 0.94349 0.0
C1433 C 0.36084 0.66756 0.86894 0.0
C1434 C 0.35889 0.69965 0.8739 0.0
H1435 H 0.37208 0.62304 0.8858 0.0
H1436 H 0.36059 0.65853 0.84812 0.0
C1437 C 0.35828 0.71025 0.90129 0.0
C1438 C 0.57113 0.11147 0.11866 0.0
C1439 C 0.53907 0.10952 0.12352 0.0
H1440 H 0.61545 0.12319 0.13547 0.0
C1441 C 0.52831 0.10964 0.15087 0.0
H1442 H 0.58028 0.11068 0.0979 0.0
C1443 C 0.5487 0.11616 0.17253 0.0
C1444 C 0.57993 0.12299 0.16699 0.0
H1445 H 0.50379 0.10749 0.15534 0.0
H1446 H 0.53917 0.11981 0.19292 0.0
C1447 C 0.59141 0.11817 0.14025 0.0
C1448 C 0.12093 0.68939 0.08688 0.0
C1449 C 0.11437 0.658 0.09211 0.0
H1450 H 0.1293 0.73414 0.10455 0.0
C1451 C 0.11946 0.6461 0.11868 0.0
H1452 H 0.11706 0.69921 0.06662 0.0
C1453 C 0.12614 0.6661 0.14048 0.0
C1454 C 0.12775 0.69829 0.13598 0.0
H1455 H 0.11464 0.62192 0.12318 0.0
H1456 H 0.12709 0.65661 0.16113 0.0
C1457 C 0.1274 0.7095 0.10875 0.0
C1458 C 0.58944 0.86906 0.37173 0.0
C1459 C 0.578 0.86527 0.34484 0.0
H1460 H 0.57823 0.8751 0.41424 0.0
C1461 C 0.5468 0.87239 0.33941 0.0
H1462 H 0.61346 0.86381 0.3764 0.0
C1463 C 0.52638 0.87821 0.3612 0.0
C1464 C 0.53709 0.87734 0.38856 0.0
H1465 H 0.53733 0.86952 0.3189 0.0
H1466 H 0.50188 0.88064 0.35673 0.0
C1467 C 0.56912 0.87509 0.39345 0.0
C1468 C 0.36196 0.32196 0.64171 0.0
C1469 C 0.35901 0.28995 0.63685 0.0
H1470 H 0.37498 0.36596 0.62486 0.0
C1471 C 0.35869 0.27919 0.6095 0.0
H1472 H 0.36157 0.33113 0.66248 0.0
C1473 C 0.36572 0.29941 0.58782 0.0
C1474 C 0.3735 0.33045 0.59335 0.0
H1475 H 0.3558 0.25472 0.60503 0.0
H1476 H 0.36898 0.2898 0.5674 0.0
C1477 C 0.36921 0.34206 0.6201 0.0
C1478 C 0.95856 0.10906 0.86056 0.0
C1479 C 0.94745 0.11008 0.88778 0.0
H1480 H 0.94826 0.11764 0.81813 0.0
C1481 C 0.91532 0.11209 0.89227 0.0
H1482 H 0.98314 0.10674 0.8564 0.0
C1483 C 0.89532 0.11797 0.87027 0.0
C1484 C 0.90719 0.12191 0.84356 0.0
H1485 H 0.90592 0.11214 0.91295 0.0
H1486 H 0.87123 0.12325 0.87465 0.0
C1487 C 0.93846 0.11472 0.83851 0.0
C1488 C 0.85963 0.70667 0.60913 0.0
C1489 C 0.86031 0.69558 0.63639 0.0
H1490 H 0.86929 0.69649 0.56686 0.0
C1491 C 0.86303 0.66348 0.64097 0.0
H1492 H 0.85685 0.73122 0.60489 0.0
C1493 C 0.86981 0.64357 0.61912 0.0
C1494 C 0.8739 0.6555 0.59243 0.0
H1495 H 0.86287 0.65408 0.66167 0.0
H1496 H 0.87552 0.61957 0.62362 0.0
C1497 C 0.8662 0.68665 0.58722 0.0
C1498 C 0.06813 0.10927 0.39128 0.0
C1499 C 0.03603 0.10801 0.38643 0.0
H1500 H 0.11264 0.1202 0.37447 0.0
C1501 C 0.02525 0.10836 0.35908 0.0
H1502 H 0.07728 0.10827 0.41204 0.0
C1503 C 0.04573 0.11455 0.33742 0.0
C1504 C 0.07708 0.12083 0.34298 0.0
H1505 H 0.00068 0.10673 0.35462 0.0
H1506 H 0.03625 0.11847 0.31704 0.0
C1507 C 0.08851 0.11564 0.36969 0.0
C1508 C 0.61754 0.34204 0.1198 0.0
C1509 C 0.61332 0.33042 0.09304 0.0
H1510 H 0.62484 0.33108 0.16222 0.0
C1511 C 0.62109 0.29934 0.08756 0.0
H1512 H 0.6118 0.36597 0.12451 0.0
C1513 C 0.62787 0.27909 0.10928 0.0
C1514 C 0.62737 0.28986 0.13663 0.0
H1515 H 0.61793 0.28973 0.06713 0.0
H1516 H 0.6307 0.2546 0.10484 0.0
C1517 C 0.62457 0.3219 0.14146 0.0
C1518 C 0.41749 0.87792 0.89243 0.0
C1519 C 0.44953 0.87995 0.88749 0.0
H1520 H 0.37316 0.86607 0.87571 0.0
C1521 C 0.4602 0.87996 0.86011 0.0
H1522 H 0.4084 0.8786 0.91321 0.0
C1523 C 0.43976 0.87343 0.83849 0.0
C1524 C 0.40858 0.86645 0.84411 0.0
H1525 H 0.4847 0.88216 0.85558 0.0
H1526 H 0.44924 0.86987 0.81807 0.0
C1527 C 0.39716 0.87119 0.87088 0.0
C1528 C 0.86334 0.29811 0.92178 0.0
C1529 C 0.86972 0.32952 0.91644 0.0
H1530 H 0.85595 0.2531 0.90431 0.0
C1531 C 0.86519 0.3411 0.88968 0.0
H1532 H 0.86678 0.28854 0.94221 0.0
C1533 C 0.85935 0.3208 0.86791 0.0
C1534 C 0.85799 0.28864 0.87264 0.0
H1535 H 0.86988 0.36528 0.88508 0.0
H1536 H 0.85885 0.33006 0.84717 0.0
C1537 C 0.85769 0.27772 0.89995 0.0
C1538 C 0.41485 0.11197 0.6184 0.0
C1539 C 0.44696 0.11015 0.62302 0.0
H1540 H 0.37061 0.1234 0.63558 0.0
C1541 C 0.45799 0.11025 0.6503 0.0
H1542 H 0.40549 0.1112 0.59771 0.0
C1543 C 0.43778 0.1166 0.67213 0.0
C1544 C 0.40644 0.12326 0.66684 0.0
H1545 H 0.48257 0.10822 0.65458 0.0
H1546 H 0.44748 0.12024 0.69246 0.0
C1547 C 0.39473 0.11849 0.64017 0.0
C1548 C 0.62574 0.66765 0.36812 0.0
C1549 C 0.62916 0.69962 0.37295 0.0
H1550 H 0.61217 0.62387 0.38507 0.0
C1551 C 0.62977 0.71041 0.40029 0.0
H1552 H 0.62589 0.65845 0.34737 0.0
C1553 C 0.62252 0.69034 0.42201 0.0
C1554 C 0.61427 0.65942 0.41652 0.0
H1555 H 0.63301 0.73485 0.40471 0.0
H1556 H 0.61953 0.70001 0.44244 0.0
C1557 C 0.61827 0.6477 0.38977 0.0
C1558 C 0.09133 0.86917 0.14006 0.0
C1559 C 0.07962 0.86447 0.16674 0.0
H1560 H 0.08057 0.87614 0.09755 0.0
C1561 C 0.04826 0.87111 0.17197 0.0
H1562 H 0.11547 0.86429 0.13553 0.0
C1563 C 0.02804 0.87723 0.15008 0.0
C1564 C 0.03908 0.87717 0.12282 0.0
H1565 H 0.03856 0.86755 0.19231 0.0
H1566 H 0.00345 0.87921 0.15434 0.0
C1567 C 0.07121 0.87548 0.11824 0.0
C1568 C 0.62647 0.81877 0.8682 0.0
C1569 C 0.62904 0.78673 0.87314 0.0
H1570 H 0.61414 0.86298 0.88502 0.0
C1571 C 0.62946 0.776 0.90052 0.0
H1572 H 0.6268 0.8279 0.84741 0.0
C1573 C 0.62285 0.79635 0.92218 0.0
C1574 C 0.61538 0.82747 0.9166 0.0
H1575 H 0.63208 0.75149 0.90503 0.0
H1576 H 0.61965 0.78682 0.94265 0.0
C1577 C 0.61963 0.839 0.88979 0.0
C1578 C 0.39391 0.36883 0.14047 0.0
C1579 C 0.40571 0.36407 0.16712 0.0
H1580 H 0.40456 0.37584 0.09795 0.0
C1581 C 0.43706 0.37071 0.17232 0.0
H1582 H 0.36977 0.36397 0.13597 0.0
C1583 C 0.45722 0.37683 0.15041 0.0
C1584 C 0.44611 0.37679 0.12316 0.0
H1585 H 0.44682 0.36711 0.19264 0.0
H1586 H 0.48181 0.37878 0.15464 0.0
C1587 C 0.41397 0.37516 0.11863 0.0
C1588 C 0.86322 0.19139 0.42176 0.0
C1589 C 0.87038 0.16023 0.41603 0.0
H1590 H 0.85474 0.23652 0.40482 0.0
C1591 C 0.86619 0.14901 0.38913 0.0
H1592 H 0.86635 0.20068 0.4423 0.0
C1593 C 0.85982 0.16953 0.36762 0.0
C1594 C 0.85766 0.20157 0.37274 0.0
H1595 H 0.87145 0.12501 0.38425 0.0
H1596 H 0.85956 0.16062 0.34677 0.0
C1597 C 0.85709 0.21203 0.40017 0.0
C1598 C 0.07368 0.61309 0.61686 0.0
C1599 C 0.04165 0.61054 0.62159 0.0
H1600 H 0.11776 0.62503 0.63406 0.0
C1601 C 0.0308 0.60972 0.64891 0.0
H1602 H 0.08291 0.61303 0.59612 0.0
C1603 C 0.05101 0.61593 0.67076 0.0
C1604 C 0.08215 0.62341 0.66545 0.0
H1605 H 0.00631 0.60707 0.65327 0.0
H1606 H 0.04136 0.61888 0.6912 0.0
C1607 C 0.09379 0.61949 0.63865 0.0
C1608 C 0.62446 0.16413 0.64187 0.0
C1609 C 0.6268 0.19625 0.6373 0.0
H1610 H 0.61262 0.12011 0.62446 0.0
C1611 C 0.6276 0.20733 0.61004 0.0
H1612 H 0.62457 0.15474 0.66258 0.0
C1613 C 0.62144 0.18726 0.58809 0.0
C1614 C 0.61402 0.15605 0.59328 0.0
H1615 H 0.63013 0.23191 0.60581 0.0
H1616 H 0.61838 0.19706 0.56771 0.0
C1617 C 0.6181 0.14416 0.61999 0.0
C1618 C 0.0462 0.37328 0.83913 0.0
C1619 C 0.07721 0.36568 0.84493 0.0
H1620 H 0.00126 0.38266 0.85593 0.0
C1621 C 0.08842 0.3697 0.87186 0.0
H1622 H 0.03692 0.37026 0.81857 0.0
C1623 C 0.068 0.37653 0.89331 0.0
C1624 C 0.03607 0.37931 0.88811 0.0
H1625 H 0.1123 0.36409 0.87681 0.0
H1626 H 0.07688 0.37673 0.91417 0.0
C1627 C 0.02567 0.37988 0.86064 0.0
C1628 C 0.8611 0.82216 0.14103 0.0
C1629 C 0.85857 0.79012 0.13608 0.0
H1630 H 0.87333 0.86641 0.12423 0.0
C1631 C 0.85804 0.7795 0.1087 0.0
H1632 H 0.86082 0.83122 0.16184 0.0
C1633 C 0.86453 0.79991 0.08703 0.0
C1634 C 0.87201 0.83102 0.09261 0.0
H1635 H 0.85543 0.75501 0.10417 0.0
H1636 H 0.86769 0.79042 0.06656 0.0
C1637 C 0.8678 0.84246 0.11943 0.0
C1638 C 0.43875 0.6153 0.33821 0.0
C1639 C 0.40755 0.62254 0.34355 0.0
H1640 H 0.48347 0.60636 0.35569 0.0
C1641 C 0.39583 0.61797 0.37024 0.0
H1642 H 0.44844 0.61873 0.31784 0.0
C1643 C 0.41591 0.61121 0.39198 0.0
C1644 C 0.44799 0.60897 0.38731 0.0
H1645 H 0.3718 0.62328 0.37485 0.0
H1646 H 0.40661 0.6107 0.4127 0.0
C1647 C 0.45893 0.60874 0.36002 0.0
C1648 C 0.36746 0.145 0.1201 0.0
C1649 C 0.37208 0.15661 0.09337 0.0
H1650 H 0.36007 0.15597 0.16249 0.0
C1651 C 0.365 0.18785 0.08788 0.0
H1652 H 0.3727 0.12094 0.12481 0.0
C1653 C 0.35845 0.20816 0.10959 0.0
C1654 C 0.35852 0.1973 0.13692 0.0
H1655 H 0.36852 0.19745 0.06748 0.0
H1656 H 0.35613 0.23272 0.10516 0.0
C1657 C 0.36068 0.1652 0.14174 0.0
C1658 C 0.54708 0.61422 0.83905 0.0
C1659 C 0.57842 0.6208 0.8443 0.0
H1660 H 0.50216 0.60691 0.85663 0.0
C1661 C 0.59002 0.6166 0.87109 0.0
H1662 H 0.53749 0.61736 0.8186 0.0
C1663 C 0.56977 0.611 0.89294 0.0
C1664 C 0.53766 0.60951 0.88825 0.0
H1665 H 0.61417 0.62142 0.87562 0.0
H1666 H 0.57903 0.61078 0.91368 0.0
C1667 C 0.52674 0.60881 0.86096 0.0
C1668 C 0.11668 0.84296 0.61991 0.0
C1669 C 0.11262 0.83128 0.59315 0.0
H1670 H 0.12416 0.83214 0.66234 0.0
C1671 C 0.12068 0.80027 0.5877 0.0
H1672 H 0.11068 0.86684 0.6246 0.0
C1673 C 0.12774 0.78014 0.60945 0.0
C1674 C 0.1272 0.79093 0.63678 0.0
H1675 H 0.11762 0.79062 0.56728 0.0
H1676 H 0.13086 0.75567 0.60502 0.0
C1677 C 0.12397 0.82294 0.64159 0.0
C1678 C 0.94048 0.37305 0.33763 0.0
C1679 C 0.90897 0.36739 0.34301 0.0
H1680 H 0.98559 0.37986 0.35505 0.0
C1681 C 0.89752 0.37262 0.3697 0.0
H1682 H 0.94998 0.36906 0.31727 0.0
C1683 C 0.91793 0.37842 0.39141 0.0
C1684 C 0.95007 0.37909 0.38671 0.0
H1685 H 0.87328 0.36851 0.37435 0.0
H1686 H 0.90868 0.37948 0.41212 0.0
C1687 C 0.96098 0.37869 0.3594 0.0
C1688 C 0.35783 0.77835 0.40071 0.0
C1689 C 0.35847 0.78935 0.37343 0.0
H1690 H 0.36666 0.78894 0.44304 0.0
C1691 C 0.36013 0.8215 0.36878 0.0
H1692 H 0.35582 0.75373 0.405 0.0
C1693 C 0.36598 0.84169 0.39064 0.0
C1694 C 0.37022 0.82997 0.41739 0.0
H1695 H 0.35989 0.83083 0.34806 0.0
H1696 H 0.37095 0.86583 0.38612 0.0
C1697 C 0.36346 0.79863 0.42263 0.0
C1698 C 0.89578 0.6183 0.1394 0.0
C1699 C 0.90728 0.6232 0.16612 0.0
H1700 H 0.90686 0.61046 0.0971 0.0
C1701 C 0.9385 0.61626 0.1717 0.0
H1702 H 0.87175 0.62341 0.13461 0.0
C1703 C 0.95886 0.60948 0.15008 0.0
C1704 C 0.94808 0.60922 0.12273 0.0
H1705 H 0.94803 0.61998 0.19209 0.0
H1706 H 0.98338 0.60725 0.15457 0.0
C1707 C 0.91603 0.61132 0.11785 0.0
C1708 C 0.11847 0.14742 0.89066 0.0
C1709 C 0.11412 0.15901 0.91741 0.0
H1710 H 0.12611 0.15838 0.84829 0.0
C1711 C 0.12191 0.19005 0.92296 0.0
H1712 H 0.11272 0.12351 0.88589 0.0
C1713 C 0.12894 0.21029 0.9013 0.0
C1714 C 0.12861 0.19956 0.87394 0.0
H1715 H 0.11865 0.19964 0.94339 0.0
H1716 H 0.13179 0.23476 0.90578 0.0
C1717 C 0.12572 0.16754 0.86906 0.0
C1718 C 0.54978 0.37106 0.6722 0.0
C1719 C 0.58093 0.36353 0.66697 0.0
H1720 H 0.50515 0.3801 0.65457 0.0
C1721 C 0.59272 0.36767 0.64025 0.0
H1722 H 0.54003 0.36797 0.69258 0.0
C1723 C 0.57272 0.37425 0.6184 0.0
C1724 C 0.54065 0.37679 0.62302 0.0
H1725 H 0.61672 0.36211 0.63572 0.0
H1726 H 0.58205 0.37444 0.59769 0.0
C1727 C 0.52967 0.37746 0.65029 0.0
C1728 C 0.23536 0.21055 0.24972 0.0
C1729 C 0.21373 0.22961 0.26301 0.0
H1730 H 0.28084 0.20729 0.23236 0.0
C1731 C 0.2212 0.26067 0.26879 0.0
H1732 H 0.23012 0.18642 0.24547 0.0
C1733 C 0.25007 0.27256 0.26142 0.0
C1734 C 0.27171 0.25351 0.24814 0.0
H1735 H 0.2046 0.27582 0.27881 0.0
H1736 H 0.25528 0.29671 0.26564 0.0
C1737 C 0.26424 0.22244 0.24237 0.0
C1738 C 0.98006 0.96536 0.49224 0.0
C1739 C 0.00355 0.96626 0.51217 0.0
H1740 H 0.94675 0.9917 0.46913 0.0
C1741 C 0.01154 -0.0055 0.52459 0.0
H1742 H 0.97339 0.94357 0.48279 0.0
C1743 C -0.00387 0.0217 0.51715 0.0
C1744 C 0.97277 0.02084 0.49711 0.0
H1745 H 0.02963 -0.00456 0.54007 0.0
H1746 H 0.00288 0.04349 0.52654 0.0
C1747 C 0.96468 0.99258 0.48475 0.0
C1748 C 0.2382 0.71323 0.7597 0.0
C1749 C 0.21605 0.73254 0.74736 0.0
H1750 H 0.28386 0.71006 0.77678 0.0
C1751 C 0.22291 0.76398 0.74264 0.0
H1752 H 0.23348 0.68881 0.76306 0.0
C1753 C 0.25166 0.77601 0.75015 0.0
C1754 C 0.27372 0.75674 0.76263 0.0
H1755 H 0.20593 0.77929 0.73332 0.0
H1756 H 0.25645 0.80041 0.74671 0.0
C1757 C 0.2669 0.7253 0.76735 0.0
C1758 C 0.52123 -0.00469 0.98616 0.0
C1759 C 0.51328 0.96681 0.99815 0.0
H1760 H 0.51193 0.04423 0.9845 0.0
C1761 C 0.48956 0.96537 0.01781 0.0
H1762 H 0.53942 -0.00338 0.9708 0.0
C1763 C 0.47363 0.99226 0.02523 0.0
C1764 C 0.48148 0.02076 0.01317 0.0
H1765 H 0.48289 0.94336 0.02688 0.0
H1766 H 0.45525 0.99087 0.0404 0.0
C1767 C 0.50536 0.02223 0.99365 0.0
C1768 C 0.2516 0.71254 0.24953 0.0
C1769 C 0.27307 0.73207 0.26244 0.0
H1770 H 0.20603 0.70844 0.23248 0.0
C1771 C 0.26514 0.76311 0.26794 0.0
H1772 H 0.25716 0.68841 0.24553 0.0
C1773 C 0.236 0.77449 0.26065 0.0
C1774 C 0.21454 0.75497 0.24773 0.0
H1775 H 0.28158 0.77861 0.27769 0.0
H1776 H 0.23044 0.79862 0.26466 0.0
C1777 C 0.22247 0.72393 0.24223 0.0
C1778 C 0.51595 0.99276 0.52489 0.0
C1779 C 0.50689 0.02084 0.51269 0.0
H1780 H 0.50849 0.94358 0.527 0.0
C1781 C 0.48288 0.0213 0.49326 0.0
H1782 H 0.5344 0.99221 0.54004 0.0
C1783 C 0.46793 0.99379 0.48613 0.0
C1784 C 0.47701 0.9657 0.49831 0.0
H1785 H 0.47541 0.04297 0.48401 0.0
H1786 H 0.44946 -0.00565 0.471 0.0
C1787 C 0.50101 0.96525 0.51775 0.0
C1788 C 0.21543 0.23969 0.74396 0.0
C1789 C 0.21655 0.26374 0.76333 0.0
H1790 H 0.24137 0.20551 0.72161 0.0
C1791 C 0.24495 0.2724 0.77506 0.0
H1792 H 0.19351 0.23247 0.73511 0.0
C1793 C 0.27211 0.257 0.76749 0.0
C1794 C 0.27095 0.23277 0.74826 0.0
H1795 H 0.246 0.29081 0.79023 0.0
H1796 H 0.29402 0.26417 0.77637 0.0
C1797 C 0.24253 0.22416 0.73654 0.0
C1798 C 0.01326 0.9722 0.01654 0.0
C1799 C 0.98176 0.96546 0.01225 0.0
H1800 H 0.04955 0.00592 0.01252 0.0
C1801 C 0.96216 0.98804 1.00091 0.0
H1802 H 0.02876 0.9549 0.02516 0.0
C1803 C 0.97399 0.01707 0.9939 0.0
C1804 C 0.0055 0.0238 0.99816 0.0
H1805 H 0.9377 0.98337 0.99791 0.0
H1806 H 0.9585 0.03436 0.98526 0.0
C1807 C 0.02509 0.00125 0.00952 0.0
C1808 C 0.75016 0.77009 0.75896 0.0
C1809 C 0.7732 0.75069 0.74823 0.0
H1810 H 0.70366 0.77315 0.77402 0.0
C1811 C 0.76735 0.71886 0.74474 0.0
H1812 H 0.75422 0.79476 0.7614 0.0
C1813 C 0.73864 0.70648 0.75202 0.0
C1814 C 0.71548 0.72593 0.76253 0.0
H1815 H 0.78507 0.70358 0.73655 0.0
H1816 H 0.73471 0.68175 0.74986 0.0
C1817 C 0.72137 0.75778 0.76596 0.0
C1818 C 0.76515 0.2273 0.26828 0.0
C1819 C 0.77232 0.25843 0.26241 0.0
H1820 H 0.73146 0.1909 0.26516 0.0
C1821 C 0.75056 0.27719 0.24893 0.0
H1822 H 0.78185 0.21237 0.27843 0.0
C1823 C 0.72184 0.26497 0.2415 0.0
C1824 C 0.71467 0.23384 0.24739 0.0
H1825 H 0.75557 0.30136 0.2446 0.0
H1826 H 0.70513 0.27991 0.23137 0.0
C1827 C 0.73644 0.21508 0.26084 0.0
C1828 C 0.76533 0.26013 0.76577 0.0
C1829 C 0.77186 0.22841 0.76222 0.0
H1830 H 0.73162 0.2965 0.76165 0.0
C1831 C 0.7489 0.20852 0.75206 0.0
H1832 H 0.78285 0.27583 0.77361 0.0
C1833 C 0.71981 0.22036 0.74517 0.0
C1834 C 0.71335 0.25208 0.74872 0.0
H1835 H 0.75331 0.18387 0.74985 0.0
H1836 H 0.70228 0.20475 0.7372 0.0
C1837 C 0.73616 0.2719 0.75917 0.0
C1838 C 0.74545 0.77265 0.27366 0.0
C1839 C 0.71703 0.76389 0.26203 0.0
H1840 H 0.79454 0.76448 0.27494 0.0
C1841 C 0.71591 0.73974 0.24275 0.0
H1842 H 0.74651 0.79111 0.28878 0.0
C1843 C 0.74302 0.7242 0.23535 0.0
C1844 C 0.77146 0.73289 0.247 0.0
H1845 H 0.69398 0.73244 0.23399 0.0
H1846 H 0.74184 0.70546 0.22051 0.0
C1847 C 0.77262 0.75724 0.26611 0.0
C1848 C 0.51149 0.51645 0.99437 0.0
C1849 C 0.47999 0.52328 0.99863 0.0
H1850 H 0.54772 0.4826 0.99838 0.0
C1851 C 0.46036 0.5008 0.00997 0.0
H1852 H 0.52699 0.53368 0.98574 0.0
C1853 C 0.47215 0.47171 0.01697 0.0
C1854 C 0.50364 0.46486 0.0127 0.0
H1855 H 0.43591 0.50556 0.01295 0.0
H1856 H 0.45663 0.45447 0.02557 0.0
C1857 C 0.52327 0.48736 1.00138 0.0
C1858 C 0.97402 0.49297 0.52437 0.0
C1859 C 0.98276 0.521 0.51193 0.0
H1860 H 0.98175 0.44383 0.52669 0.0
C1861 C 0.00661 0.52139 0.49235 0.0
H1862 H 0.95567 0.49245 0.53961 0.0
C1863 C 0.02162 0.49386 0.48523 0.0
C1864 C 0.01279 0.46582 0.49761 0.0
H1865 H 0.01385 0.54301 0.48291 0.0
H1866 H 0.03984 0.49433 0.46987 0.0
C1867 C 0.98907 0.46546 0.5173 0.0
C1868 C 0.01528 0.49333 0.02292 0.0
C1869 C 0.00613 0.52183 0.01156 0.0
H1870 H 0.00719 0.44423 0.02439 0.0
C1871 C 0.98127 0.52308 0.993 0.0
H1872 H 0.03438 0.49214 0.03739 0.0
C1873 C 0.96566 0.49594 0.98582 0.0
C1874 C 0.97481 0.46746 0.99721 0.0
H1875 H 0.97369 0.54507 0.98444 0.0
H1876 H 0.94664 0.49709 0.97126 0.0
C1877 C -0.00038 0.46622 0.01581 0.0
C1878 C 0.5053 0.46536 0.49285 0.0
C1879 C 0.48187 0.46608 0.51282 0.0
H1880 H 0.53833 0.49195 0.46972 0.0
C1881 C 0.47371 0.49425 0.52533 0.0
H1882 H 0.51209 0.44364 0.48331 0.0
C1883 C 0.48893 0.52154 0.51796 0.0
C1884 C 0.51223 0.52085 0.49787 0.0
H1885 H 0.45564 0.49507 0.54083 0.0
H1886 H 0.48205 0.54327 0.52742 0.0
C1887 C 0.52046 0.49268 0.4854 0.0
loop_
_geom_bond_atom_site_label_1
_geom_bond_atom_site_label_2
_geom_bond_distance
_geom_bond_site_symmetry_2
_ccdc_geom_bond_type
Co0 O3 1.970 . S
Co0 N17 1.989 . S
Co0 O25 1.967 . S
Co0 O32 1.920 . S
Co1 O4 1.966 . S
Co1 N10 2.022 . S
Co1 N18 1.993 . S
Co1 O26 1.941 . S
C2 O3 1.258 . S
C2 O4 1.263 . S
O3 Co0 1.970 . S
O3 C2 1.258 . S
O4 Co1 1.966 . S
O4 C2 1.263 . S
C5 O6 1.235 . S
C5 O32 1.289 . S
O6 C5 1.235 . S
C7 C9 1.400 . S
C7 N10 1.351 . S
C7 C12 1.501 . S
C8 C9 1.387 . S
C8 N11 1.341 . S
C9 C7 1.400 . S
C9 C8 1.387 . S
N10 Co1 2.022 . S
N10 C7 1.351 . S
N10 N11 1.365 . S
N11 C8 1.341 . S
N11 N10 1.365 . S
N11 H31 0.862 . S
C12 C7 1.501 . S
C12 H13 0.961 . S
C12 H14 0.961 . S
C12 H15 0.960 . S
H13 C12 0.961 . S
H14 C12 0.961 . S
H15 C12 0.960 . S
C16 N17 1.342 . S
C16 C20 1.401 . S
C16 C21 1.499 . S
N17 Co0 1.989 . S
N17 C16 1.342 . S
N17 N18 1.388 . S
N18 Co1 1.993 . S
N18 N17 1.388 . S
N18 C19 1.346 . S
C19 N18 1.346 . S
C19 C20 1.396 . S
C19 C29 1.510 . S
C20 C16 1.401 . S
C20 C19 1.396 . S
C21 C16 1.499 . S
C21 H22 0.959 . S
C21 H23 0.960 . S
C21 H24 0.961 . S
H22 C21 0.959 . S
H23 C21 0.960 . S
H24 C21 0.961 . S
O25 Co0 1.967 . S
O25 C33 1.258 . S
O26 Co1 1.941 . S
O26 C33 1.266 . S
H27 C29 0.959 . S
H28 C29 0.961 . S
C29 C19 1.510 . S
C29 H27 0.959 . S
C29 H28 0.961 . S
C29 H30 0.960 . S
H30 C29 0.960 . S
H31 N11 0.862 . S
O32 Co0 1.920 . S
O32 C5 1.289 . S
C33 O25 1.258 . S
C33 O26 1.266 . S
Co34 O37 1.970 . S
Co34 N51 1.989 . S
Co34 O59 1.967 . S
Co34 O66 1.920 . S
Co35 O38 1.966 . S
Co35 N44 2.022 . S
Co35 N52 1.993 . S
Co35 O60 1.941 . S
C36 O37 1.258 . S
C36 O38 1.263 . S
O37 Co34 1.970 . S
O37 C36 1.258 . S
O38 Co35 1.966 . S
O38 C36 1.263 . S
C39 O40 1.235 . S
C39 O66 1.289 1_655 S
O40 C39 1.235 . S
C41 C43 1.400 . S
C41 N44 1.351 . S
C41 C46 1.501 . S
C42 C43 1.387 . S
C42 N45 1.341 . S
C43 C41 1.400 . S
C43 C42 1.387 . S
N44 Co35 2.022 . S
N44 C41 1.351 . S
N44 N45 1.365 . S
N45 C42 1.341 . S
N45 N44 1.365 . S
N45 H65 0.862 . S
C46 C41 1.501 . S
C46 H47 0.961 . S
C46 H48 0.961 . S
C46 H49 0.960 . S
H47 C46 0.961 . S
H48 C46 0.961 . S
H49 C46 0.960 . S
C50 N51 1.342 . S
C50 C54 1.401 . S
C50 C55 1.499 . S
N51 Co34 1.989 . S
N51 C50 1.342 . S
N51 N52 1.388 . S
N52 Co35 1.993 . S
N52 N51 1.388 . S
N52 C53 1.346 . S
C53 N52 1.346 . S
C53 C54 1.396 . S
C53 C63 1.510 . S
C54 C50 1.401 . S
C54 C53 1.396 . S
C55 C50 1.499 . S
C55 H56 0.959 . S
C55 H57 0.960 1_455 S
C55 H58 0.961 . S
H56 C55 0.959 . S
H57 C55 0.960 1_655 S
H58 C55 0.961 . S
O59 Co34 1.967 . S
O59 C67 1.258 . S
O60 Co35 1.941 . S
O60 C67 1.266 . S
H61 C63 0.959 . S
H62 C63 0.961 . S
C63 C53 1.510 . S
C63 H61 0.959 . S
C63 H62 0.961 . S
C63 H64 0.960 . S
H64 C63 0.960 . S
H65 N45 0.862 . S
O66 Co34 1.920 . S
O66 C39 1.289 1_455 S
C67 O59 1.258 . S
C67 O60 1.266 . S
Co68 O71 1.970 . S
Co68 N85 1.989 . S
Co68 O93 1.967 . S
Co68 O100 1.920 . S
Co69 O72 1.966 . S
Co69 N78 2.022 . S
Co69 N86 1.993 . S
Co69 O94 1.941 . S
C70 O71 1.258 . S
C70 O72 1.263 . S
O71 Co68 1.970 . S
O71 C70 1.258 . S
O72 Co69 1.966 . S
O72 C70 1.263 . S
C73 O74 1.235 . S
C73 O100 1.289 . S
O74 C73 1.235 . S
C75 C77 1.400 . S
C75 N78 1.351 . S
C75 C80 1.501 . S
C76 C77 1.387 . S
C76 N79 1.341 . S
C77 C75 1.400 . S
C77 C76 1.387 . S
N78 Co69 2.022 . S
N78 C75 1.351 . S
N78 N79 1.365 . S
N79 C76 1.341 . S
N79 N78 1.365 . S
N79 H99 0.862 . S
C80 C75 1.501 . S
C80 H81 0.961 . S
C80 H82 0.961 . S
C80 H83 0.960 . S
H81 C80 0.961 . S
H82 C80 0.961 . S
H83 C80 0.960 . S
C84 N85 1.342 . S
C84 C88 1.401 . S
C84 C89 1.499 . S
N85 Co68 1.989 . S
N85 C84 1.342 . S
N85 N86 1.388 . S
N86 Co69 1.993 . S
N86 N85 1.388 . S
N86 C87 1.346 . S
C87 N86 1.346 . S
C87 C88 1.396 . S
C87 C97 1.510 . S
C88 C84 1.401 . S
C88 C87 1.396 . S
C89 C84 1.499 . S
C89 H90 0.959 . S
C89 H91 0.960 . S
C89 H92 0.961 . S
H90 C89 0.959 . S
H91 C89 0.960 . S
H92 C89 0.961 . S
O93 Co68 1.967 . S
O93 C101 1.258 . S
O94 Co69 1.941 . S
O94 C101 1.266 . S
H95 C97 0.959 . S
H96 C97 0.961 . S
C97 C87 1.510 . S
C97 H95 0.959 . S
C97 H96 0.961 . S
C97 H98 0.960 . S
H98 C97 0.960 . S
H99 N79 0.862 . S
O100 Co68 1.920 . S
O100 C73 1.289 . S
C101 O93 1.258 . S
C101 O94 1.266 . S
Co102 O105 1.970 . S
Co102 N119 1.989 . S
Co102 O127 1.967 . S
Co102 O134 1.920 . S
Co103 O106 1.966 . S
Co103 N112 2.022 1_554 S
Co103 N120 1.993 . S
Co103 O128 1.941 . S
C104 O105 1.258 . S
C104 O106 1.263 . S
O105 Co102 1.970 . S
O105 C104 1.258 . S
O106 Co103 1.966 . S
O106 C104 1.263 . S
C107 O108 1.235 . S
C107 O134 1.289 . S
O108 C107 1.235 . S
C109 C111 1.400 . S
C109 N112 1.351 . S
C109 C114 1.501 . S
C110 C111 1.387 . S
C110 N113 1.341 . S
C111 C109 1.400 . S
C111 C110 1.387 . S
N112 Co103 2.022 1_556 S
N112 C109 1.351 . S
N112 N113 1.365 . S
N113 C110 1.341 . S
N113 N112 1.365 . S
N113 H133 0.862 . S
C114 C109 1.501 . S
C114 H115 0.961 . S
C114 H116 0.961 . S
C114 H117 0.960 . S
H115 C114 0.961 . S
H116 C114 0.961 . S
H117 C114 0.960 . S
C118 N119 1.342 . S
C118 C122 1.401 . S
C118 C123 1.499 . S
N119 Co102 1.989 . S
N119 C118 1.342 . S
N119 N120 1.388 . S
N120 Co103 1.993 . S
N120 N119 1.388 . S
N120 C121 1.346 . S
C121 N120 1.346 . S
C121 C122 1.396 . S
C121 C131 1.510 1_554 S
C122 C118 1.401 . S
C122 C121 1.396 . S
C123 C118 1.499 . S
C123 H124 0.959 . S
C123 H125 0.960 . S
C123 H126 0.961 . S
H124 C123 0.959 . S
H125 C123 0.960 . S
H126 C123 0.961 . S
O127 Co102 1.967 . S
O127 C135 1.258 . S
O128 Co103 1.941 . S
O128 C135 1.266 . S
H129 C131 0.959 . S
H130 C131 0.961 . S
C131 C121 1.510 1_556 S
C131 H129 0.959 . S
C131 H130 0.961 . S
C131 H132 0.960 . S
H132 C131 0.960 . S
H133 N113 0.862 . S
O134 Co102 1.920 . S
O134 C107 1.289 . S
C135 O127 1.258 . S
C135 O128 1.266 . S
Co136 O139 1.970 . S
Co136 N153 1.989 . S
Co136 O161 1.967 . S
Co136 O168 1.920 . S
Co137 O140 1.966 . S
Co137 N146 2.022 . S
Co137 N154 1.993 . S
Co137 O162 1.941 . S
C138 O139 1.258 . S
C138 O140 1.263 . S
O139 Co136 1.970 . S
O139 C138 1.258 . S
O140 Co137 1.966 . S
O140 C138 1.263 . S
C141 O142 1.235 . S
C141 O168 1.289 . S
O142 C141 1.235 . S
C143 C145 1.400 . S
C143 N146 1.351 . S
C143 C148 1.501 . S
C144 C145 1.387 . S
C144 N147 1.341 . S
C145 C143 1.400 . S
C145 C144 1.387 . S
N146 Co137 2.022 . S
N146 C143 1.351 . S
N146 N147 1.365 . S
N147 C144 1.341 . S
N147 N146 1.365 . S
N147 H167 0.862 . S
C148 C143 1.501 . S
C148 H149 0.961 . S
C148 H150 0.961 . S
C148 H151 0.960 . S
H149 C148 0.961 . S
H150 C148 0.961 . S
H151 C148 0.960 . S
C152 N153 1.342 . S
C152 C156 1.401 . S
C152 C157 1.499 . S
N153 Co136 1.989 . S
N153 C152 1.342 . S
N153 N154 1.388 . S
N154 Co137 1.993 . S
N154 N153 1.388 . S
N154 C155 1.346 . S
C155 N154 1.346 . S
C155 C156 1.396 . S
C155 C165 1.510 . S
C156 C152 1.401 . S
C156 C155 1.396 . S
C157 C152 1.499 . S
C157 H158 0.959 . S
C157 H159 0.960 . S
C157 H160 0.961 . S
H158 C157 0.959 . S
H159 C157 0.960 . S
H160 C157 0.961 . S
O161 Co136 1.967 . S
O161 C169 1.258 . S
O162 Co137 1.941 . S
O162 C169 1.266 . S
H163 C165 0.959 . S
H164 C165 0.961 . S
C165 C155 1.510 . S
C165 H163 0.959 . S
C165 H164 0.961 . S
C165 H166 0.960 . S
H166 C165 0.960 . S
H167 N147 0.862 . S
O168 Co136 1.920 . S
O168 C141 1.289 . S
C169 O161 1.258 . S
C169 O162 1.266 . S
Co170 O173 1.970 . S
Co170 N187 1.989 . S
Co170 O195 1.967 . S
Co170 O202 1.920 . S
Co171 O174 1.966 . S
Co171 N180 2.022 . S
Co171 N188 1.993 . S
Co171 O196 1.941 . S
C172 O173 1.258 . S
C172 O174 1.263 . S
O173 Co170 1.970 . S
O173 C172 1.258 . S
O174 Co171 1.966 . S
O174 C172 1.263 . S
C175 O176 1.235 . S
C175 O202 1.289 . S
O176 C175 1.235 . S
C177 C179 1.400 . S
C177 N180 1.351 . S
C177 C182 1.501 . S
C178 C179 1.387 . S
C178 N181 1.341 . S
C179 C177 1.400 . S
C179 C178 1.387 . S
N180 Co171 2.022 . S
N180 C177 1.351 . S
N180 N181 1.365 . S
N181 C178 1.341 . S
N181 N180 1.365 . S
N181 H201 0.862 . S
C182 C177 1.501 . S
C182 H183 0.961 . S
C182 H184 0.961 . S
C182 H185 0.960 . S
H183 C182 0.961 . S
H184 C182 0.961 . S
H185 C182 0.960 . S
C186 N187 1.342 . S
C186 C190 1.401 . S
C186 C191 1.499 . S
N187 Co170 1.989 . S
N187 C186 1.342 . S
N187 N188 1.388 . S
N188 Co171 1.993 . S
N188 N187 1.388 . S
N188 C189 1.346 . S
C189 N188 1.346 . S
C189 C190 1.396 . S
C189 C199 1.510 . S
C190 C186 1.401 . S
C190 C189 1.396 . S
C191 C186 1.499 . S
C191 H192 0.959 . S
C191 H193 0.960 . S
C191 H194 0.961 . S
H192 C191 0.959 . S
H193 C191 0.960 . S
H194 C191 0.961 . S
O195 Co170 1.967 . S
O195 C203 1.258 . S
O196 Co171 1.941 . S
O196 C203 1.266 . S
H197 C199 0.959 . S
H198 C199 0.961 . S
C199 C189 1.510 . S
C199 H197 0.959 . S
C199 H198 0.961 . S
C199 H200 0.960 . S
H200 C199 0.960 . S
H201 N181 0.862 . S
O202 Co170 1.920 . S
O202 C175 1.289 . S
C203 O195 1.258 . S
C203 O196 1.266 . S
Co204 O207 1.970 . S
Co204 N221 1.989 . S
Co204 O229 1.967 . S
Co204 O236 1.920 . S
Co205 O208 1.966 . S
Co205 N214 2.022 . S
Co205 N222 1.993 . S
Co205 O230 1.941 . S
C206 O207 1.258 . S
C206 O208 1.263 . S
O207 Co204 1.970 . S
O207 C206 1.258 . S
O208 Co205 1.966 . S
O208 C206 1.263 . S
C209 O210 1.235 . S
C209 O236 1.289 . S
O210 C209 1.235 . S
C211 C213 1.400 . S
C211 N214 1.351 . S
C211 C216 1.501 . S
C212 C213 1.387 . S
C212 N215 1.341 . S
C213 C211 1.400 . S
C213 C212 1.387 . S
N214 Co205 2.022 . S
N214 C211 1.351 . S
N214 N215 1.365 . S
N215 C212 1.341 . S
N215 N214 1.365 . S
N215 H235 0.862 . S
C216 C211 1.501 . S
C216 H217 0.961 . S
C216 H218 0.961 . S
C216 H219 0.960 . S
H217 C216 0.961 . S
H218 C216 0.961 . S
H219 C216 0.960 . S
C220 N221 1.342 . S
C220 C224 1.401 . S
C220 C225 1.499 . S
N221 Co204 1.989 . S
N221 C220 1.342 . S
N221 N222 1.388 . S
N222 Co205 1.993 . S
N222 N221 1.388 . S
N222 C223 1.346 . S
C223 N222 1.346 . S
C223 C224 1.396 . S
C223 C233 1.510 . S
C224 C220 1.401 . S
C224 C223 1.396 . S
C225 C220 1.499 . S
C225 H226 0.959 . S
C225 H227 0.960 . S
C225 H228 0.961 . S
H226 C225 0.959 . S
H227 C225 0.960 . S
H228 C225 0.961 . S
O229 Co204 1.967 . S
O229 C237 1.258 . S
O230 Co205 1.941 . S
O230 C237 1.266 . S
H231 C233 0.959 . S
H232 C233 0.961 . S
C233 C223 1.510 . S
C233 H231 0.959 . S
C233 H232 0.961 . S
C233 H234 0.960 . S
H234 C233 0.960 . S
H235 N215 0.862 . S
O236 Co204 1.920 . S
O236 C209 1.289 . S
C237 O229 1.258 . S
C237 O230 1.266 . S
Co238 O241 1.970 . S
Co238 N255 1.989 . S
Co238 O263 1.967 . S
Co238 O270 1.920 . S
Co239 O242 1.966 . S
Co239 N248 2.022 1_556 S
Co239 N256 1.993 . S
Co239 O264 1.941 . S
C240 O241 1.258 . S
C240 O242 1.263 . S
O241 Co238 1.970 . S
O241 C240 1.258 . S
O242 Co239 1.966 . S
O242 C240 1.263 . S
C243 O244 1.235 . S
C243 O270 1.289 1_655 S
O244 C243 1.235 . S
C245 C247 1.400 . S
C245 N248 1.351 . S
C245 C250 1.501 . S
C246 C247 1.387 . S
C246 N249 1.341 . S
C247 C245 1.400 . S
C247 C246 1.387 . S
N248 Co239 2.022 1_554 S
N248 C245 1.351 . S
N248 N249 1.365 . S
N249 C246 1.341 . S
N249 N248 1.365 . S
N249 H269 0.862 . S
C250 C245 1.501 . S
C250 H251 0.961 . S
C250 H252 0.961 . S
C250 H253 0.960 . S
H251 C250 0.961 . S
H252 C250 0.961 . S
H253 C250 0.960 . S
C254 N255 1.342 . S
C254 C258 1.401 . S
C254 C259 1.499 . S
N255 Co238 1.989 . S
N255 C254 1.342 . S
N255 N256 1.388 . S
N256 Co239 1.993 . S
N256 N255 1.388 . S
N256 C257 1.346 . S
C257 N256 1.346 . S
C257 C258 1.396 . S
C257 C267 1.510 1_556 S
C258 C254 1.401 . S
C258 C257 1.396 . S
C259 C254 1.499 . S
C259 H260 0.959 . S
C259 H261 0.960 1_455 S
C259 H262 0.961 . S
H260 C259 0.959 . S
H261 C259 0.960 1_655 S
H262 C259 0.961 . S
O263 Co238 1.967 . S
O263 C271 1.258 . S
O264 Co239 1.941 . S
O264 C271 1.266 . S
H265 C267 0.959 . S
H266 C267 0.961 . S
C267 C257 1.510 1_554 S
C267 H265 0.959 . S
C267 H266 0.961 . S
C267 H268 0.960 . S
H268 C267 0.960 . S
H269 N249 0.862 . S
O270 Co238 1.920 . S
O270 C243 1.289 1_455 S
C271 O263 1.258 . S
C271 O264 1.266 . S
Co272 O275 1.970 . S
Co272 N289 1.989 . S
Co272 O297 1.967 . S
Co272 O304 1.920 . S
Co273 O276 1.966 . S
Co273 N282 2.022 . S
Co273 N290 1.993 . S
Co273 O298 1.941 . S
C274 O275 1.258 . S
C274 O276 1.263 . S
O275 Co272 1.970 . S
O275 C274 1.258 . S
O276 Co273 1.966 . S
O276 C274 1.263 . S
C277 O278 1.235 . S
C277 O304 1.289 . S
O278 C277 1.235 . S
C279 C281 1.400 . S
C279 N282 1.351 . S
C279 C284 1.501 . S
C280 C281 1.387 . S
C280 N283 1.341 . S
C281 C279 1.400 . S
C281 C280 1.387 . S
N282 Co273 2.022 . S
N282 C279 1.351 . S
N282 N283 1.365 . S
N283 C280 1.341 . S
N283 N282 1.365 . S
N283 H303 0.862 . S
C284 C279 1.501 . S
C284 H285 0.961 . S
C284 H286 0.961 . S
C284 H287 0.960 . S
H285 C284 0.961 . S
H286 C284 0.961 . S
H287 C284 0.960 . S
C288 N289 1.342 . S
C288 C292 1.401 . S
C288 C293 1.499 . S
N289 Co272 1.989 . S
N289 C288 1.342 . S
N289 N290 1.388 . S
N290 Co273 1.993 . S
N290 N289 1.388 . S
N290 C291 1.346 . S
C291 N290 1.346 . S
C291 C292 1.396 . S
C291 C301 1.510 . S
C292 C288 1.401 . S
C292 C291 1.396 . S
C293 C288 1.499 . S
C293 H294 0.959 . S
C293 H295 0.960 . S
C293 H296 0.961 . S
H294 C293 0.959 . S
H295 C293 0.960 . S
H296 C293 0.961 . S
O297 Co272 1.967 . S
O297 C305 1.258 . S
O298 Co273 1.941 . S
O298 C305 1.266 . S
H299 C301 0.959 . S
H300 C301 0.961 . S
C301 C291 1.510 . S
C301 H299 0.959 . S
C301 H300 0.961 . S
C301 H302 0.960 . S
H302 C301 0.960 . S
H303 N283 0.862 . S
O304 Co272 1.920 . S
O304 C277 1.289 . S
C305 O297 1.258 . S
C305 O298 1.266 . S
Co306 O309 1.970 . S
Co306 N323 1.989 . S
Co306 O331 1.967 . S
Co306 O338 1.920 . S
Co307 O310 1.966 . S
Co307 N316 2.022 . S
Co307 N324 1.993 . S
Co307 O332 1.941 . S
C308 O309 1.258 . S
C308 O310 1.263 . S
O309 Co306 1.970 . S
O309 C308 1.258 . S
O310 Co307 1.966 . S
O310 C308 1.263 . S
C311 O312 1.235 . S
C311 O338 1.289 1_455 S
O312 C311 1.235 . S
C313 C315 1.400 . S
C313 N316 1.351 . S
C313 C318 1.501 . S
C314 C315 1.387 . S
C314 N317 1.341 . S
C315 C313 1.400 . S
C315 C314 1.387 . S
N316 Co307 2.022 . S
N316 C313 1.351 . S
N316 N317 1.365 . S
N317 C314 1.341 . S
N317 N316 1.365 . S
N317 H337 0.862 . S
C318 C313 1.501 . S
C318 H319 0.961 . S
C318 H320 0.961 . S
C318 H321 0.960 . S
H319 C318 0.961 . S
H320 C318 0.961 . S
H321 C318 0.960 . S
C322 N323 1.342 . S
C322 C326 1.401 . S
C322 C327 1.499 . S
N323 Co306 1.989 . S
N323 C322 1.342 . S
N323 N324 1.388 . S
N324 Co307 1.993 . S
N324 N323 1.388 . S
N324 C325 1.346 . S
C325 N324 1.346 . S
C325 C326 1.396 . S
C325 C335 1.510 . S
C326 C322 1.401 . S
C326 C325 1.396 . S
C327 C322 1.499 . S
C327 H328 0.959 . S
C327 H329 0.960 1_655 S
C327 H330 0.961 . S
H328 C327 0.959 . S
H329 C327 0.960 1_455 S
H330 C327 0.961 . S
O331 Co306 1.967 . S
O331 C339 1.258 . S
O332 Co307 1.941 . S
O332 C339 1.266 . S
H333 C335 0.959 . S
H334 C335 0.961 . S
C335 C325 1.510 . S
C335 H333 0.959 . S
C335 H334 0.961 . S
C335 H336 0.960 . S
H336 C335 0.960 . S
H337 N317 0.862 . S
O338 Co306 1.920 . S
O338 C311 1.289 1_655 S
C339 O331 1.258 . S
C339 O332 1.266 . S
Co340 O343 1.970 . S
Co340 N357 1.989 . S
Co340 O365 1.967 . S
Co340 O372 1.920 . S
Co341 O344 1.966 . S
Co341 N350 2.022 . S
Co341 N358 1.993 . S
Co341 O366 1.941 . S
C342 O343 1.258 . S
C342 O344 1.263 . S
O343 Co340 1.970 . S
O343 C342 1.258 . S
O344 Co341 1.966 . S
O344 C342 1.263 . S
C345 O346 1.235 . S
C345 O372 1.289 . S
O346 C345 1.235 . S
C347 C349 1.400 . S
C347 N350 1.351 . S
C347 C352 1.501 . S
C348 C349 1.387 . S
C348 N351 1.341 . S
C349 C347 1.400 . S
C349 C348 1.387 . S
N350 Co341 2.022 . S
N350 C347 1.351 . S
N350 N351 1.365 . S
N351 C348 1.341 . S
N351 N350 1.365 . S
N351 H371 0.862 . S
C352 C347 1.501 . S
C352 H353 0.961 . S
C352 H354 0.961 . S
C352 H355 0.960 . S
H353 C352 0.961 . S
H354 C352 0.961 . S
H355 C352 0.960 . S
C356 N357 1.342 . S
C356 C360 1.401 . S
C356 C361 1.499 . S
N357 Co340 1.989 . S
N357 C356 1.342 . S
N357 N358 1.388 . S
N358 Co341 1.993 . S
N358 N357 1.388 . S
N358 C359 1.346 . S
C359 N358 1.346 . S
C359 C360 1.396 . S
C359 C369 1.510 . S
C360 C356 1.401 . S
C360 C359 1.396 . S
C361 C356 1.499 . S
C361 H362 0.959 . S
C361 H363 0.960 . S
C361 H364 0.961 . S
H362 C361 0.959 . S
H363 C361 0.960 . S
H364 C361 0.961 . S
O365 Co340 1.967 . S
O365 C373 1.258 . S
O366 Co341 1.941 . S
O366 C373 1.266 . S
H367 C369 0.959 . S
H368 C369 0.961 . S
C369 C359 1.510 . S
C369 H367 0.959 . S
C369 H368 0.961 . S
C369 H370 0.960 . S
H370 C369 0.960 . S
H371 N351 0.862 . S
O372 Co340 1.920 . S
O372 C345 1.289 . S
C373 O365 1.258 . S
C373 O366 1.266 . S
Co374 O377 1.970 . S
Co374 N391 1.989 . S
Co374 O399 1.967 . S
Co374 O406 1.920 . S
Co375 O378 1.966 . S
Co375 N384 2.022 1_556 S
Co375 N392 1.993 . S
Co375 O400 1.941 . S
C376 O377 1.258 . S
C376 O378 1.263 . S
O377 Co374 1.970 . S
O377 C376 1.258 . S
O378 Co375 1.966 . S
O378 C376 1.263 . S
C379 O380 1.235 . S
C379 O406 1.289 . S
O380 C379 1.235 . S
C381 C383 1.400 . S
C381 N384 1.351 . S
C381 C386 1.501 . S
C382 C383 1.387 . S
C382 N385 1.341 . S
C383 C381 1.400 . S
C383 C382 1.387 . S
N384 Co375 2.022 1_554 S
N384 C381 1.351 . S
N384 N385 1.365 . S
N385 C382 1.341 . S
N385 N384 1.365 . S
N385 H405 0.862 . S
C386 C381 1.501 . S
C386 H387 0.961 . S
C386 H388 0.961 . S
C386 H389 0.960 . S
H387 C386 0.961 . S
H388 C386 0.961 . S
H389 C386 0.960 . S
C390 N391 1.342 . S
C390 C394 1.401 . S
C390 C395 1.499 . S
N391 Co374 1.989 . S
N391 C390 1.342 . S
N391 N392 1.388 . S
N392 Co375 1.993 . S
N392 N391 1.388 . S
N392 C393 1.346 . S
C393 N392 1.346 . S
C393 C394 1.396 . S
C393 C403 1.510 1_556 S
C394 C390 1.401 . S
C394 C393 1.396 . S
C395 C390 1.499 . S
C395 H396 0.959 . S
C395 H397 0.960 . S
C395 H398 0.961 . S
H396 C395 0.959 . S
H397 C395 0.960 . S
H398 C395 0.961 . S
O399 Co374 1.967 . S
O399 C407 1.258 . S
O400 Co375 1.941 . S
O400 C407 1.266 . S
H401 C403 0.959 . S
H402 C403 0.961 . S
C403 C393 1.510 1_554 S
C403 H401 0.959 . S
C403 H402 0.961 . S
C403 H404 0.960 . S
H404 C403 0.960 . S
H405 N385 0.862 . S
O406 Co374 1.920 . S
O406 C379 1.289 . S
C407 O399 1.258 . S
C407 O400 1.266 . S
Co408 O411 1.970 . S
Co408 N425 1.989 . S
Co408 O433 1.967 . S
Co408 O440 1.920 . S
Co409 O412 1.966 . S
Co409 N418 2.022 . S
Co409 N426 1.993 . S
Co409 O434 1.941 . S
C410 O411 1.258 . S
C410 O412 1.263 . S
O411 Co408 1.970 . S
O411 C410 1.258 . S
O412 Co409 1.966 . S
O412 C410 1.263 . S
C413 O414 1.235 . S
C413 O440 1.289 . S
O414 C413 1.235 . S
C415 C417 1.400 . S
C415 N418 1.351 . S
C415 C420 1.501 . S
C416 C417 1.387 . S
C416 N419 1.341 . S
C417 C415 1.400 . S
C417 C416 1.387 . S
N418 Co409 2.022 . S
N418 C415 1.351 . S
N418 N419 1.365 . S
N419 C416 1.341 . S
N419 N418 1.365 . S
N419 H439 0.862 . S
C420 C415 1.501 . S
C420 H421 0.961 . S
C420 H422 0.961 . S
C420 H423 0.960 . S
H421 C420 0.961 . S
H422 C420 0.961 . S
H423 C420 0.960 . S
C424 N425 1.342 . S
C424 C428 1.401 . S
C424 C429 1.499 . S
N425 Co408 1.989 . S
N425 C424 1.342 . S
N425 N426 1.388 . S
N426 Co409 1.993 . S
N426 N425 1.388 . S
N426 C427 1.346 . S
C427 N426 1.346 . S
C427 C428 1.396 . S
C427 C437 1.510 . S
C428 C424 1.401 . S
C428 C427 1.396 . S
C429 C424 1.499 . S
C429 H430 0.959 . S
C429 H431 0.960 . S
C429 H432 0.961 . S
H430 C429 0.959 . S
H431 C429 0.960 . S
H432 C429 0.961 . S
O433 Co408 1.967 . S
O433 C441 1.258 . S
O434 Co409 1.941 . S
O434 C441 1.266 . S
H435 C437 0.959 . S
H436 C437 0.961 . S
C437 C427 1.510 . S
C437 H435 0.959 . S
C437 H436 0.961 . S
C437 H438 0.960 . S
H438 C437 0.960 . S
H439 N419 0.862 . S
O440 Co408 1.920 . S
O440 C413 1.289 . S
C441 O433 1.258 . S
C441 O434 1.266 . S
Co442 O445 1.970 . S
Co442 N459 1.989 . S
Co442 O467 1.967 . S
Co442 O474 1.920 . S
Co443 O446 1.966 . S
Co443 N452 2.022 . S
Co443 N460 1.993 . S
Co443 O468 1.941 . S
C444 O445 1.258 . S
C444 O446 1.263 . S
O445 Co442 1.970 . S
O445 C444 1.258 . S
O446 Co443 1.966 . S
O446 C444 1.263 . S
C447 O448 1.235 . S
C447 O474 1.289 . S
O448 C447 1.235 . S
C449 C451 1.400 . S
C449 N452 1.351 . S
C449 C454 1.501 . S
C450 C451 1.387 . S
C450 N453 1.341 . S
C451 C449 1.400 . S
C451 C450 1.387 . S
N452 Co443 2.022 . S
N452 C449 1.351 . S
N452 N453 1.365 . S
N453 C450 1.341 . S
N453 N452 1.365 . S
N453 H473 0.862 . S
C454 C449 1.501 . S
C454 H455 0.961 . S
C454 H456 0.961 . S
C454 H457 0.960 . S
H455 C454 0.961 . S
H456 C454 0.961 . S
H457 C454 0.960 . S
C458 N459 1.342 . S
C458 C462 1.401 . S
C458 C463 1.499 . S
N459 Co442 1.989 . S
N459 C458 1.342 . S
N459 N460 1.388 . S
N460 Co443 1.993 . S
N460 N459 1.388 . S
N460 C461 1.346 . S
C461 N460 1.346 . S
C461 C462 1.396 . S
C461 C471 1.510 . S
C462 C458 1.401 . S
C462 C461 1.396 . S
C463 C458 1.499 . S
C463 H464 0.959 . S
C463 H465 0.960 . S
C463 H466 0.961 . S
H464 C463 0.959 . S
H465 C463 0.960 . S
H466 C463 0.961 . S
O467 Co442 1.967 . S
O467 C475 1.258 . S
O468 Co443 1.941 . S
O468 C475 1.266 . S
H469 C471 0.959 . S
H470 C471 0.961 . S
C471 C461 1.510 . S
C471 H469 0.959 . S
C471 H470 0.961 . S
C471 H472 0.960 . S
H472 C471 0.960 . S
H473 N453 0.862 . S
O474 Co442 1.920 . S
O474 C447 1.289 . S
C475 O467 1.258 . S
C475 O468 1.266 . S
Co476 O479 1.970 . S
Co476 N493 1.989 . S
Co476 O501 1.967 . S
Co476 O508 1.920 . S
Co477 O480 1.966 . S
Co477 N486 2.022 . S
Co477 N494 1.993 . S
Co477 O502 1.941 . S
C478 O479 1.258 . S
C478 O480 1.263 . S
O479 Co476 1.970 . S
O479 C478 1.258 . S
O480 Co477 1.966 . S
O480 C478 1.263 . S
C481 O482 1.235 . S
C481 O508 1.289 . S
O482 C481 1.235 . S
C483 C485 1.400 . S
C483 N486 1.351 . S
C483 C488 1.501 . S
C484 C485 1.387 . S
C484 N487 1.341 . S
C485 C483 1.400 . S
C485 C484 1.387 . S
N486 Co477 2.022 . S
N486 C483 1.351 . S
N486 N487 1.365 . S
N487 C484 1.341 . S
N487 N486 1.365 . S
N487 H507 0.862 . S
C488 C483 1.501 . S
C488 H489 0.961 . S
C488 H490 0.961 . S
C488 H491 0.960 . S
H489 C488 0.961 . S
H490 C488 0.961 . S
H491 C488 0.960 . S
C492 N493 1.342 . S
C492 C496 1.401 . S
C492 C497 1.499 . S
N493 Co476 1.989 . S
N493 C492 1.342 . S
N493 N494 1.388 . S
N494 Co477 1.993 . S
N494 N493 1.388 . S
N494 C495 1.346 . S
C495 N494 1.346 . S
C495 C496 1.396 . S
C495 C505 1.510 . S
C496 C492 1.401 . S
C496 C495 1.396 . S
C497 C492 1.499 . S
C497 H498 0.959 . S
C497 H499 0.960 . S
C497 H500 0.961 . S
H498 C497 0.959 . S
H499 C497 0.960 . S
H500 C497 0.961 . S
O501 Co476 1.967 . S
O501 C509 1.258 . S
O502 Co477 1.941 . S
O502 C509 1.266 . S
H503 C505 0.959 . S
H504 C505 0.961 . S
C505 C495 1.510 . S
C505 H503 0.959 . S
C505 H504 0.961 . S
C505 H506 0.960 . S
H506 C505 0.960 . S
H507 N487 0.862 . S
O508 Co476 1.920 . S
O508 C481 1.289 . S
C509 O501 1.258 . S
C509 O502 1.266 . S
Co510 O513 1.970 . S
Co510 N527 1.989 . S
Co510 O535 1.967 . S
Co510 O542 1.920 . S
Co511 O514 1.966 . S
Co511 N520 2.022 1_554 S
Co511 N528 1.993 . S
Co511 O536 1.941 . S
C512 O513 1.258 . S
C512 O514 1.263 . S
O513 Co510 1.970 . S
O513 C512 1.258 . S
O514 Co511 1.966 . S
O514 C512 1.263 . S
C515 O516 1.235 . S
C515 O542 1.289 1_455 S
O516 C515 1.235 . S
C517 C519 1.400 . S
C517 N520 1.351 . S
C517 C522 1.501 . S
C518 C519 1.387 . S
C518 N521 1.341 . S
C519 C517 1.400 . S
C519 C518 1.387 . S
N520 Co511 2.022 1_556 S
N520 C517 1.351 . S
N520 N521 1.365 . S
N521 C518 1.341 . S
N521 N520 1.365 . S
N521 H541 0.862 . S
C522 C517 1.501 . S
C522 H523 0.961 . S
C522 H524 0.961 . S
C522 H525 0.960 . S
H523 C522 0.961 . S
H524 C522 0.961 . S
H525 C522 0.960 . S
C526 N527 1.342 . S
C526 C530 1.401 . S
C526 C531 1.499 . S
N527 Co510 1.989 . S
N527 C526 1.342 . S
N527 N528 1.388 . S
N528 Co511 1.993 . S
N528 N527 1.388 . S
N528 C529 1.346 . S
C529 N528 1.346 . S
C529 C530 1.396 . S
C529 C539 1.510 1_554 S
C530 C526 1.401 . S
C530 C529 1.396 . S
C531 C526 1.499 . S
C531 H532 0.959 . S
C531 H533 0.960 1_655 S
C531 H534 0.961 . S
H532 C531 0.959 . S
H533 C531 0.960 1_455 S
H534 C531 0.961 . S
O535 Co510 1.967 . S
O535 C543 1.258 . S
O536 Co511 1.941 . S
O536 C543 1.266 . S
H537 C539 0.959 . S
H538 C539 0.961 . S
C539 C529 1.510 1_556 S
C539 H537 0.959 . S
C539 H538 0.961 . S
C539 H540 0.960 . S
H540 C539 0.960 . S
H541 N521 0.862 . S
O542 Co510 1.920 . S
O542 C515 1.289 1_655 S
C543 O535 1.258 . S
C543 O536 1.266 . S
Co544 O547 1.970 . S
Co544 N561 1.989 . S
Co544 O569 1.967 . S
Co544 O576 1.920 . S
Co545 O548 1.966 . S
Co545 N554 2.022 . S
Co545 N562 1.993 . S
Co545 O570 1.941 . S
C546 O547 1.258 . S
C546 O548 1.263 . S
O547 Co544 1.970 . S
O547 C546 1.258 . S
O548 Co545 1.966 . S
O548 C546 1.263 . S
C549 O550 1.235 . S
C549 O576 1.289 . S
O550 C549 1.235 . S
C551 C553 1.400 . S
C551 N554 1.351 . S
C551 C556 1.501 . S
C552 C553 1.387 . S
C552 N555 1.341 . S
C553 C551 1.400 . S
C553 C552 1.387 . S
N554 Co545 2.022 . S
N554 C551 1.351 . S
N554 N555 1.365 . S
N555 C552 1.341 . S
N555 N554 1.365 . S
N555 H575 0.862 . S
C556 C551 1.501 . S
C556 H557 0.961 . S
C556 H558 0.961 . S
C556 H559 0.960 . S
H557 C556 0.961 . S
H558 C556 0.961 . S
H559 C556 0.960 . S
C560 N561 1.342 . S
C560 C564 1.401 . S
C560 C565 1.499 . S
N561 Co544 1.989 . S
N561 C560 1.342 . S
N561 N562 1.388 . S
N562 Co545 1.993 . S
N562 N561 1.388 . S
N562 C563 1.346 . S
C563 N562 1.346 . S
C563 C564 1.396 . S
C563 C573 1.510 . S
C564 C560 1.401 . S
C564 C563 1.396 . S
C565 C560 1.499 . S
C565 H566 0.959 . S
C565 H567 0.960 . S
C565 H568 0.961 . S
H566 C565 0.959 . S
H567 C565 0.960 . S
H568 C565 0.961 . S
O569 Co544 1.967 . S
O569 C577 1.258 . S
O570 Co545 1.941 . S
O570 C577 1.266 . S
H571 C573 0.959 . S
H572 C573 0.961 . S
C573 C563 1.510 . S
C573 H571 0.959 . S
C573 H572 0.961 . S
C573 H574 0.960 . S
H574 C573 0.960 . S
H575 N555 0.862 . S
O576 Co544 1.920 . S
O576 C549 1.289 . S
C577 O569 1.258 . S
C577 O570 1.266 . S
Co578 O581 1.970 . S
Co578 N595 1.989 . S
Co578 O603 1.967 . S
Co578 O610 1.920 . S
Co579 O582 1.966 . S
Co579 N588 2.022 1_554 S
Co579 N596 1.993 . S
Co579 O604 1.941 . S
C580 O581 1.258 . S
C580 O582 1.263 . S
O581 Co578 1.970 . S
O581 C580 1.258 . S
O582 Co579 1.966 . S
O582 C580 1.263 . S
C583 O584 1.235 . S
C583 O610 1.289 . S
O584 C583 1.235 . S
C585 C587 1.400 . S
C585 N588 1.351 . S
C585 C590 1.501 . S
C586 C587 1.387 . S
C586 N589 1.341 . S
C587 C585 1.400 . S
C587 C586 1.387 . S
N588 Co579 2.022 1_556 S
N588 C585 1.351 . S
N588 N589 1.365 . S
N589 C586 1.341 . S
N589 N588 1.365 . S
N589 H609 0.862 . S
C590 C585 1.501 . S
C590 H591 0.961 . S
C590 H592 0.961 . S
C590 H593 0.960 . S
H591 C590 0.961 . S
H592 C590 0.961 . S
H593 C590 0.960 . S
C594 N595 1.342 . S
C594 C598 1.401 . S
C594 C599 1.499 . S
N595 Co578 1.989 . S
N595 C594 1.342 . S
N595 N596 1.388 . S
N596 Co579 1.993 . S
N596 N595 1.388 . S
N596 C597 1.346 . S
C597 N596 1.346 . S
C597 C598 1.396 . S
C597 C607 1.510 1_554 S
C598 C594 1.401 . S
C598 C597 1.396 . S
C599 C594 1.499 . S
C599 H600 0.959 . S
C599 H601 0.960 . S
C599 H602 0.961 . S
H600 C599 0.959 . S
H601 C599 0.960 . S
H602 C599 0.961 . S
O603 Co578 1.967 . S
O603 C611 1.258 . S
O604 Co579 1.941 . S
O604 C611 1.266 . S
H605 C607 0.959 . S
H606 C607 0.961 . S
C607 C597 1.510 1_556 S
C607 H605 0.959 . S
C607 H606 0.961 . S
C607 H608 0.960 . S
H608 C607 0.960 . S
H609 N589 0.862 . S
O610 Co578 1.920 . S
O610 C583 1.289 . S
C611 O603 1.258 . S
C611 O604 1.266 . S
Co612 O615 1.970 . S
Co612 N629 1.989 . S
Co612 O637 1.967 . S
Co612 O644 1.920 . S
Co613 O616 1.966 . S
Co613 N622 2.022 . S
Co613 N630 1.993 . S
Co613 O638 1.941 . S
C614 O615 1.258 . S
C614 O616 1.263 . S
O615 Co612 1.970 . S
O615 C614 1.258 . S
O616 Co613 1.966 . S
O616 C614 1.263 . S
C617 O618 1.235 . S
C617 O644 1.289 . S
O618 C617 1.235 . S
C619 C621 1.400 . S
C619 N622 1.351 . S
C619 C624 1.501 . S
C620 C621 1.387 . S
C620 N623 1.341 . S
C621 C619 1.400 . S
C621 C620 1.387 . S
N622 Co613 2.022 . S
N622 C619 1.351 . S
N622 N623 1.365 . S
N623 C620 1.341 . S
N623 N622 1.365 . S
N623 H643 0.862 . S
C624 C619 1.501 . S
C624 H625 0.961 . S
C624 H626 0.961 . S
C624 H627 0.960 . S
H625 C624 0.961 . S
H626 C624 0.961 . S
H627 C624 0.960 . S
C628 N629 1.342 . S
C628 C632 1.401 . S
C628 C633 1.499 . S
N629 Co612 1.989 . S
N629 C628 1.342 . S
N629 N630 1.388 . S
N630 Co613 1.993 . S
N630 N629 1.388 . S
N630 C631 1.346 . S
C631 N630 1.346 . S
C631 C632 1.396 . S
C631 C641 1.510 . S
C632 C628 1.401 . S
C632 C631 1.396 . S
C633 C628 1.499 . S
C633 H634 0.959 . S
C633 H635 0.960 . S
C633 H636 0.961 . S
H634 C633 0.959 . S
H635 C633 0.960 . S
H636 C633 0.961 . S
O637 Co612 1.967 . S
O637 C645 1.258 . S
O638 Co613 1.941 . S
O638 C645 1.266 . S
H639 C641 0.959 . S
H640 C641 0.961 . S
C641 C631 1.510 . S
C641 H639 0.959 . S
C641 H640 0.961 . S
C641 H642 0.960 . S
H642 C641 0.960 . S
H643 N623 0.862 . S
O644 Co612 1.920 . S
O644 C617 1.289 . S
C645 O637 1.258 . S
C645 O638 1.266 . S
Co646 O649 1.970 . S
Co646 N663 1.989 . S
Co646 O671 1.967 . S
Co646 O678 1.920 . S
Co647 O650 1.966 . S
Co647 N656 2.022 . S
Co647 N664 1.993 . S
Co647 O672 1.941 . S
C648 O649 1.258 . S
C648 O650 1.263 . S
O649 Co646 1.970 . S
O649 C648 1.258 . S
O650 Co647 1.966 . S
O650 C648 1.263 . S
C651 O652 1.235 . S
C651 O678 1.289 1_455 S
O652 C651 1.235 . S
C653 C655 1.400 . S
C653 N656 1.351 . S
C653 C658 1.501 . S
C654 C655 1.387 . S
C654 N657 1.341 . S
C655 C653 1.400 . S
C655 C654 1.387 . S
N656 Co647 2.022 . S
N656 C653 1.351 . S
N656 N657 1.365 . S
N657 C654 1.341 . S
N657 N656 1.365 . S
N657 H677 0.862 . S
C658 C653 1.501 . S
C658 H659 0.961 . S
C658 H660 0.961 . S
C658 H661 0.960 . S
H659 C658 0.961 . S
H660 C658 0.961 . S
H661 C658 0.960 . S
C662 N663 1.342 . S
C662 C666 1.401 . S
C662 C667 1.499 . S
N663 Co646 1.989 . S
N663 C662 1.342 . S
N663 N664 1.388 . S
N664 Co647 1.993 . S
N664 N663 1.388 . S
N664 C665 1.346 . S
C665 N664 1.346 . S
C665 C666 1.396 . S
C665 C675 1.510 . S
C666 C662 1.401 . S
C666 C665 1.396 . S
C667 C662 1.499 . S
C667 H668 0.959 . S
C667 H669 0.960 1_655 S
C667 H670 0.961 . S
H668 C667 0.959 . S
H669 C667 0.960 1_455 S
H670 C667 0.961 . S
O671 Co646 1.967 . S
O671 C679 1.258 . S
O672 Co647 1.941 . S
O672 C679 1.266 . S
H673 C675 0.959 . S
H674 C675 0.961 . S
C675 C665 1.510 . S
C675 H673 0.959 . S
C675 H674 0.961 . S
C675 H676 0.960 . S
H676 C675 0.960 . S
H677 N657 0.862 . S
O678 Co646 1.920 . S
O678 C651 1.289 1_655 S
C679 O671 1.258 . S
C679 O672 1.266 . S
Co680 O683 1.970 . S
Co680 N697 1.989 . S
Co680 O705 1.967 . S
Co680 O712 1.920 . S
Co681 O684 1.966 . S
Co681 N690 2.022 . S
Co681 N698 1.993 . S
Co681 O706 1.941 . S
C682 O683 1.258 . S
C682 O684 1.263 . S
O683 Co680 1.970 . S
O683 C682 1.258 . S
O684 Co681 1.966 . S
O684 C682 1.263 . S
C685 O686 1.235 . S
C685 O712 1.289 . S
O686 C685 1.235 . S
C687 C689 1.400 . S
C687 N690 1.351 . S
C687 C692 1.501 . S
C688 C689 1.387 . S
C688 N691 1.341 . S
C689 C687 1.400 . S
C689 C688 1.387 . S
N690 Co681 2.022 . S
N690 C687 1.351 . S
N690 N691 1.365 . S
N691 C688 1.341 . S
N691 N690 1.365 . S
N691 H711 0.862 . S
C692 C687 1.501 . S
C692 H693 0.961 . S
C692 H694 0.961 . S
C692 H695 0.960 . S
H693 C692 0.961 . S
H694 C692 0.961 . S
H695 C692 0.960 . S
C696 N697 1.342 . S
C696 C700 1.401 . S
C696 C701 1.499 . S
N697 Co680 1.989 . S
N697 C696 1.342 . S
N697 N698 1.388 . S
N698 Co681 1.993 . S
N698 N697 1.388 . S
N698 C699 1.346 . S
C699 N698 1.346 . S
C699 C700 1.396 . S
C699 C709 1.510 . S
C700 C696 1.401 . S
C700 C699 1.396 . S
C701 C696 1.499 . S
C701 H702 0.959 . S
C701 H703 0.960 . S
C701 H704 0.961 . S
H702 C701 0.959 . S
H703 C701 0.960 . S
H704 C701 0.961 . S
O705 Co680 1.967 . S
O705 C713 1.258 . S
O706 Co681 1.941 . S
O706 C713 1.266 . S
H707 C709 0.959 . S
H708 C709 0.961 . S
C709 C699 1.510 . S
C709 H707 0.959 . S
C709 H708 0.961 . S
C709 H710 0.960 . S
H710 C709 0.960 . S
H711 N691 0.862 . S
O712 Co680 1.920 . S
O712 C685 1.289 . S
C713 O705 1.258 . S
C713 O706 1.266 . S
Co714 O717 1.970 . S
Co714 N731 1.989 . S
Co714 O739 1.967 . S
Co714 O746 1.920 . S
Co715 O718 1.966 . S
Co715 N724 2.022 1_556 S
Co715 N732 1.993 . S
Co715 O740 1.941 . S
C716 O717 1.258 . S
C716 O718 1.263 . S
O717 Co714 1.970 . S
O717 C716 1.258 . S
O718 Co715 1.966 . S
O718 C716 1.263 . S
C719 O720 1.235 . S
C719 O746 1.289 1_455 S
O720 C719 1.235 . S
C721 C723 1.400 . S
C721 N724 1.351 . S
C721 C726 1.501 . S
C722 C723 1.387 . S
C722 N725 1.341 . S
C723 C721 1.400 . S
C723 C722 1.387 . S
N724 Co715 2.022 1_554 S
N724 C721 1.351 . S
N724 N725 1.365 . S
N725 C722 1.341 . S
N725 N724 1.365 . S
N725 H745 0.862 . S
C726 C721 1.501 . S
C726 H727 0.961 . S
C726 H728 0.961 . S
C726 H729 0.960 . S
H727 C726 0.961 . S
H728 C726 0.961 . S
H729 C726 0.960 . S
C730 N731 1.342 . S
C730 C734 1.401 . S
C730 C735 1.499 . S
N731 Co714 1.989 . S
N731 C730 1.342 . S
N731 N732 1.388 . S
N732 Co715 1.993 . S
N732 N731 1.388 . S
N732 C733 1.346 . S
C733 N732 1.346 . S
C733 C734 1.396 . S
C733 C743 1.510 1_556 S
C734 C730 1.401 . S
C734 C733 1.396 . S
C735 C730 1.499 . S
C735 H736 0.959 . S
C735 H737 0.960 1_655 S
C735 H738 0.961 . S
H736 C735 0.959 . S
H737 C735 0.960 1_455 S
H738 C735 0.961 . S
O739 Co714 1.967 . S
O739 C747 1.258 . S
O740 Co715 1.941 . S
O740 C747 1.266 . S
H741 C743 0.959 . S
H742 C743 0.961 . S
C743 C733 1.510 1_554 S
C743 H741 0.959 . S
C743 H742 0.961 . S
C743 H744 0.960 . S
H744 C743 0.960 . S
H745 N725 0.862 . S
O746 Co714 1.920 . S
O746 C719 1.289 1_655 S
C747 O739 1.258 . S
C747 O740 1.266 . S
Co748 O751 1.970 . S
Co748 N765 1.989 . S
Co748 O773 1.967 . S
Co748 O780 1.920 . S
Co749 O752 1.966 . S
Co749 N758 2.022 . S
Co749 N766 1.993 . S
Co749 O774 1.941 . S
C750 O751 1.258 . S
C750 O752 1.263 . S
O751 Co748 1.970 . S
O751 C750 1.258 . S
O752 Co749 1.966 . S
O752 C750 1.263 . S
C753 O754 1.235 . S
C753 O780 1.289 . S
O754 C753 1.235 . S
C755 C757 1.400 . S
C755 N758 1.351 . S
C755 C760 1.501 . S
C756 C757 1.387 . S
C756 N759 1.341 . S
C757 C755 1.400 . S
C757 C756 1.387 . S
N758 Co749 2.022 . S
N758 C755 1.351 . S
N758 N759 1.365 . S
N759 C756 1.341 . S
N759 N758 1.365 . S
N759 H779 0.862 . S
C760 C755 1.501 . S
C760 H761 0.961 . S
C760 H762 0.961 . S
C760 H763 0.960 . S
H761 C760 0.961 . S
H762 C760 0.961 . S
H763 C760 0.960 . S
C764 N765 1.342 . S
C764 C768 1.401 . S
C764 C769 1.499 . S
N765 Co748 1.989 . S
N765 C764 1.342 . S
N765 N766 1.388 . S
N766 Co749 1.993 . S
N766 N765 1.388 . S
N766 C767 1.346 . S
C767 N766 1.346 . S
C767 C768 1.396 . S
C767 C777 1.510 . S
C768 C764 1.401 . S
C768 C767 1.396 . S
C769 C764 1.499 . S
C769 H770 0.959 . S
C769 H771 0.960 . S
C769 H772 0.961 . S
H770 C769 0.959 . S
H771 C769 0.960 . S
H772 C769 0.961 . S
O773 Co748 1.967 . S
O773 C781 1.258 . S
O774 Co749 1.941 . S
O774 C781 1.266 . S
H775 C777 0.959 . S
H776 C777 0.961 . S
C777 C767 1.510 . S
C777 H775 0.959 . S
C777 H776 0.961 . S
C777 H778 0.960 . S
H778 C777 0.960 . S
H779 N759 0.862 . S
O780 Co748 1.920 . S
O780 C753 1.289 . S
C781 O773 1.258 . S
C781 O774 1.266 . S
Co782 O785 1.970 . S
Co782 N799 1.989 . S
Co782 O807 1.967 . S
Co782 O814 1.920 . S
Co783 O786 1.966 . S
Co783 N792 2.022 . S
Co783 N800 1.993 . S
Co783 O808 1.941 . S
C784 O785 1.258 . S
C784 O786 1.263 . S
O785 Co782 1.970 . S
O785 C784 1.258 . S
O786 Co783 1.966 . S
O786 C784 1.263 . S
C787 O788 1.235 . S
C787 O814 1.289 . S
O788 C787 1.235 . S
C789 C791 1.400 . S
C789 N792 1.351 . S
C789 C794 1.501 . S
C790 C791 1.387 . S
C790 N793 1.341 . S
C791 C789 1.400 . S
C791 C790 1.387 . S
N792 Co783 2.022 . S
N792 C789 1.351 . S
N792 N793 1.365 . S
N793 C790 1.341 . S
N793 N792 1.365 . S
N793 H813 0.862 . S
C794 C789 1.501 . S
C794 H795 0.961 . S
C794 H796 0.961 . S
C794 H797 0.960 . S
H795 C794 0.961 . S
H796 C794 0.961 . S
H797 C794 0.960 . S
C798 N799 1.342 . S
C798 C802 1.401 . S
C798 C803 1.499 . S
N799 Co782 1.989 . S
N799 C798 1.342 . S
N799 N800 1.388 . S
N800 Co783 1.993 . S
N800 N799 1.388 . S
N800 C801 1.346 . S
C801 N800 1.346 . S
C801 C802 1.396 . S
C801 C811 1.510 . S
C802 C798 1.401 . S
C802 C801 1.396 . S
C803 C798 1.499 . S
C803 H804 0.959 . S
C803 H805 0.960 . S
C803 H806 0.961 . S
H804 C803 0.959 . S
H805 C803 0.960 . S
H806 C803 0.961 . S
O807 Co782 1.967 . S
O807 C815 1.258 . S
O808 Co783 1.941 . S
O808 C815 1.266 . S
H809 C811 0.959 . S
H810 C811 0.961 . S
C811 C801 1.510 . S
C811 H809 0.959 . S
C811 H810 0.961 . S
C811 H812 0.960 . S
H812 C811 0.960 . S
H813 N793 0.862 . S
O814 Co782 1.920 . S
O814 C787 1.289 . S
C815 O807 1.258 . S
C815 O808 1.266 . S
Co816 O819 1.970 . S
Co816 N833 1.989 . S
Co816 O841 1.967 . S
Co816 O848 1.920 . S
Co817 O820 1.966 . S
Co817 N826 2.022 . S
Co817 N834 1.993 . S
Co817 O842 1.941 . S
C818 O819 1.258 . S
C818 O820 1.263 . S
O819 Co816 1.970 . S
O819 C818 1.258 . S
O820 Co817 1.966 . S
O820 C818 1.263 . S
C821 O822 1.235 . S
C821 O848 1.289 . S
O822 C821 1.235 . S
C823 C825 1.400 . S
C823 N826 1.351 . S
C823 C828 1.501 . S
C824 C825 1.387 . S
C824 N827 1.341 . S
C825 C823 1.400 . S
C825 C824 1.387 . S
N826 Co817 2.022 . S
N826 C823 1.351 . S
N826 N827 1.365 . S
N827 C824 1.341 . S
N827 N826 1.365 . S
N827 H847 0.862 . S
C828 C823 1.501 . S
C828 H829 0.961 . S
C828 H830 0.961 . S
C828 H831 0.960 . S
H829 C828 0.961 . S
H830 C828 0.961 . S
H831 C828 0.960 . S
C832 N833 1.342 . S
C832 C836 1.401 . S
C832 C837 1.499 . S
N833 Co816 1.989 . S
N833 C832 1.342 . S
N833 N834 1.388 . S
N834 Co817 1.993 . S
N834 N833 1.388 . S
N834 C835 1.346 . S
C835 N834 1.346 . S
C835 C836 1.396 . S
C835 C845 1.510 . S
C836 C832 1.401 . S
C836 C835 1.396 . S
C837 C832 1.499 . S
C837 H838 0.959 . S
C837 H839 0.960 . S
C837 H840 0.961 . S
H838 C837 0.959 . S
H839 C837 0.960 . S
H840 C837 0.961 . S
O841 Co816 1.967 . S
O841 C849 1.258 . S
O842 Co817 1.941 . S
O842 C849 1.266 . S
H843 C845 0.959 . S
H844 C845 0.961 . S
C845 C835 1.510 . S
C845 H843 0.959 . S
C845 H844 0.961 . S
C845 H846 0.960 . S
H846 C845 0.960 . S
H847 N827 0.862 . S
O848 Co816 1.920 . S
O848 C821 1.289 . S
C849 O841 1.258 . S
C849 O842 1.266 . S
Co850 O853 1.970 . S
Co850 N867 1.989 . S
Co850 O875 1.967 . S
Co850 O882 1.920 . S
Co851 O854 1.966 . S
Co851 N860 2.022 1_556 S
Co851 N868 1.993 . S
Co851 O876 1.941 . S
C852 O853 1.258 . S
C852 O854 1.263 . S
O853 Co850 1.970 . S
O853 C852 1.258 . S
O854 Co851 1.966 . S
O854 C852 1.263 . S
C855 O856 1.235 . S
C855 O882 1.289 . S
O856 C855 1.235 . S
C857 C859 1.400 . S
C857 N860 1.351 . S
C857 C862 1.501 . S
C858 C859 1.387 . S
C858 N861 1.341 . S
C859 C857 1.400 . S
C859 C858 1.387 . S
N860 Co851 2.022 1_554 S
N860 C857 1.351 . S
N860 N861 1.365 . S
N861 C858 1.341 . S
N861 N860 1.365 . S
N861 H881 0.862 . S
C862 C857 1.501 . S
C862 H863 0.961 . S
C862 H864 0.961 . S
C862 H865 0.960 . S
H863 C862 0.961 . S
H864 C862 0.961 . S
H865 C862 0.960 . S
C866 N867 1.342 . S
C866 C870 1.401 . S
C866 C871 1.499 . S
N867 Co850 1.989 . S
N867 C866 1.342 . S
N867 N868 1.388 . S
N868 Co851 1.993 . S
N868 N867 1.388 . S
N868 C869 1.346 . S
C869 N868 1.346 . S
C869 C870 1.396 . S
C869 C879 1.510 1_556 S
C870 C866 1.401 . S
C870 C869 1.396 . S
C871 C866 1.499 . S
C871 H872 0.959 . S
C871 H873 0.960 . S
C871 H874 0.961 . S
H872 C871 0.959 . S
H873 C871 0.960 . S
H874 C871 0.961 . S
O875 Co850 1.967 . S
O875 C883 1.258 . S
O876 Co851 1.941 . S
O876 C883 1.266 . S
H877 C879 0.959 . S
H878 C879 0.961 . S
C879 C869 1.510 1_554 S
C879 H877 0.959 . S
C879 H878 0.961 . S
C879 H880 0.960 . S
H880 C879 0.960 . S
H881 N861 0.862 . S
O882 Co850 1.920 . S
O882 C855 1.289 . S
C883 O875 1.258 . S
C883 O876 1.266 . S
Co884 O887 1.970 . S
Co884 N901 1.989 . S
Co884 O909 1.967 . S
Co884 O916 1.920 . S
Co885 O888 1.966 . S
Co885 N894 2.022 . S
Co885 N902 1.993 . S
Co885 O910 1.941 . S
C886 O887 1.258 . S
C886 O888 1.263 . S
O887 Co884 1.970 . S
O887 C886 1.258 . S
O888 Co885 1.966 . S
O888 C886 1.263 . S
C889 O890 1.235 . S
C889 O916 1.289 . S
O890 C889 1.235 . S
C891 C893 1.400 . S
C891 N894 1.351 . S
C891 C896 1.501 . S
C892 C893 1.387 . S
C892 N895 1.341 . S
C893 C891 1.400 . S
C893 C892 1.387 . S
N894 Co885 2.022 . S
N894 C891 1.351 . S
N894 N895 1.365 . S
N895 C892 1.341 . S
N895 N894 1.365 . S
N895 H915 0.862 . S
C896 C891 1.501 . S
C896 H897 0.961 . S
C896 H898 0.961 . S
C896 H899 0.960 . S
H897 C896 0.961 . S
H898 C896 0.961 . S
H899 C896 0.960 . S
C900 N901 1.342 . S
C900 C904 1.401 . S
C900 C905 1.499 . S
N901 Co884 1.989 . S
N901 C900 1.342 . S
N901 N902 1.388 . S
N902 Co885 1.993 . S
N902 N901 1.388 . S
N902 C903 1.346 . S
C903 N902 1.346 . S
C903 C904 1.396 . S
C903 C913 1.510 . S
C904 C900 1.401 . S
C904 C903 1.396 . S
C905 C900 1.499 . S
C905 H906 0.959 . S
C905 H907 0.960 . S
C905 H908 0.961 . S
H906 C905 0.959 . S
H907 C905 0.960 . S
H908 C905 0.961 . S
O909 Co884 1.967 . S
O909 C917 1.258 . S
O910 Co885 1.941 . S
O910 C917 1.266 . S
H911 C913 0.959 . S
H912 C913 0.961 . S
C913 C903 1.510 . S
C913 H911 0.959 . S
C913 H912 0.961 . S
C913 H914 0.960 . S
H914 C913 0.960 . S
H915 N895 0.862 . S
O916 Co884 1.920 . S
O916 C889 1.289 . S
C917 O909 1.258 . S
C917 O910 1.266 . S
Co918 O921 1.970 . S
Co918 N935 1.989 . S
Co918 O943 1.967 . S
Co918 O950 1.920 . S
Co919 O922 1.966 . S
Co919 N928 2.022 . S
Co919 N936 1.993 . S
Co919 O944 1.941 . S
C920 O921 1.258 . S
C920 O922 1.263 . S
O921 Co918 1.970 . S
O921 C920 1.258 . S
O922 Co919 1.966 . S
O922 C920 1.263 . S
C923 O924 1.235 . S
C923 O950 1.289 1_655 S
O924 C923 1.235 . S
C925 C927 1.400 . S
C925 N928 1.351 . S
C925 C930 1.501 . S
C926 C927 1.387 . S
C926 N929 1.341 . S
C927 C925 1.400 . S
C927 C926 1.387 . S
N928 Co919 2.022 . S
N928 C925 1.351 . S
N928 N929 1.365 . S
N929 C926 1.341 . S
N929 N928 1.365 . S
N929 H949 0.862 . S
C930 C925 1.501 . S
C930 H931 0.961 . S
C930 H932 0.961 . S
C930 H933 0.960 . S
H931 C930 0.961 . S
H932 C930 0.961 . S
H933 C930 0.960 . S
C934 N935 1.342 . S
C934 C938 1.401 . S
C934 C939 1.499 . S
N935 Co918 1.989 . S
N935 C934 1.342 . S
N935 N936 1.388 . S
N936 Co919 1.993 . S
N936 N935 1.388 . S
N936 C937 1.346 . S
C937 N936 1.346 . S
C937 C938 1.396 . S
C937 C947 1.510 . S
C938 C934 1.401 . S
C938 C937 1.396 . S
C939 C934 1.499 . S
C939 H940 0.959 . S
C939 H941 0.960 1_455 S
C939 H942 0.961 . S
H940 C939 0.959 . S
H941 C939 0.960 1_655 S
H942 C939 0.961 . S
O943 Co918 1.967 . S
O943 C951 1.258 . S
O944 Co919 1.941 . S
O944 C951 1.266 . S
H945 C947 0.959 . S
H946 C947 0.961 . S
C947 C937 1.510 . S
C947 H945 0.959 . S
C947 H946 0.961 . S
C947 H948 0.960 . S
H948 C947 0.960 . S
H949 N929 0.862 . S
O950 Co918 1.920 . S
O950 C923 1.289 1_455 S
C951 O943 1.258 . S
C951 O944 1.266 . S
Co952 O955 1.970 . S
Co952 N969 1.989 . S
Co952 O977 1.967 . S
Co952 O984 1.920 . S
Co953 O956 1.966 . S
Co953 N962 2.022 . S
Co953 N970 1.993 . S
Co953 O978 1.941 . S
C954 O955 1.258 . S
C954 O956 1.263 . S
O955 Co952 1.970 . S
O955 C954 1.258 . S
O956 Co953 1.966 . S
O956 C954 1.263 . S
C957 O958 1.235 . S
C957 O984 1.289 . S
O958 C957 1.235 . S
C959 C961 1.400 . S
C959 N962 1.351 . S
C959 C964 1.501 . S
C960 C961 1.387 . S
C960 N963 1.341 . S
C961 C959 1.400 . S
C961 C960 1.387 . S
N962 Co953 2.022 . S
N962 C959 1.351 . S
N962 N963 1.365 . S
N963 C960 1.341 . S
N963 N962 1.365 . S
N963 H983 0.862 . S
C964 C959 1.501 . S
C964 H965 0.961 . S
C964 H966 0.961 . S
C964 H967 0.960 . S
H965 C964 0.961 . S
H966 C964 0.961 . S
H967 C964 0.960 . S
C968 N969 1.342 . S
C968 C972 1.401 . S
C968 C973 1.499 . S
N969 Co952 1.989 . S
N969 C968 1.342 . S
N969 N970 1.388 . S
N970 Co953 1.993 . S
N970 N969 1.388 . S
N970 C971 1.346 . S
C971 N970 1.346 . S
C971 C972 1.396 . S
C971 C981 1.510 . S
C972 C968 1.401 . S
C972 C971 1.396 . S
C973 C968 1.499 . S
C973 H974 0.959 . S
C973 H975 0.960 . S
C973 H976 0.961 . S
H974 C973 0.959 . S
H975 C973 0.960 . S
H976 C973 0.961 . S
O977 Co952 1.967 . S
O977 C985 1.258 . S
O978 Co953 1.941 . S
O978 C985 1.266 . S
H979 C981 0.959 . S
H980 C981 0.961 . S
C981 C971 1.510 . S
C981 H979 0.959 . S
C981 H980 0.961 . S
C981 H982 0.960 . S
H982 C981 0.960 . S
H983 N963 0.862 . S
O984 Co952 1.920 . S
O984 C957 1.289 . S
C985 O977 1.258 . S
C985 O978 1.266 . S
Co986 O989 1.970 . S
Co986 N1003 1.989 . S
Co986 O1011 1.967 . S
Co986 O1018 1.920 . S
Co987 O990 1.966 . S
Co987 N996 2.022 1_554 S
Co987 N1004 1.993 . S
Co987 O1012 1.941 . S
C988 O989 1.258 . S
C988 O990 1.263 . S
O989 Co986 1.970 . S
O989 C988 1.258 . S
O990 Co987 1.966 . S
O990 C988 1.263 . S
C991 O992 1.235 . S
C991 O1018 1.289 1_655 S
O992 C991 1.235 . S
C993 C995 1.400 . S
C993 N996 1.351 . S
C993 C998 1.501 . S
C994 C995 1.387 . S
C994 N997 1.341 . S
C995 C993 1.400 . S
C995 C994 1.387 . S
N996 Co987 2.022 1_556 S
N996 C993 1.351 . S
N996 N997 1.365 . S
N997 C994 1.341 . S
N997 N996 1.365 . S
N997 H1017 0.862 . S
C998 C993 1.501 . S
C998 H999 0.961 . S
C998 H1000 0.961 . S
C998 H1001 0.960 . S
H999 C998 0.961 . S
H1000 C998 0.961 . S
H1001 C998 0.960 . S
C1002 N1003 1.342 . S
C1002 C1006 1.401 . S
C1002 C1007 1.499 . S
N1003 Co986 1.989 . S
N1003 C1002 1.342 . S
N1003 N1004 1.388 . S
N1004 Co987 1.993 . S
N1004 N1003 1.388 . S
N1004 C1005 1.346 . S
C1005 N1004 1.346 . S
C1005 C1006 1.396 . S
C1005 C1015 1.510 1_554 S
C1006 C1002 1.401 . S
C1006 C1005 1.396 . S
C1007 C1002 1.499 . S
C1007 H1008 0.959 . S
C1007 H1009 0.960 1_455 S
C1007 H1010 0.961 . S
H1008 C1007 0.959 . S
H1009 C1007 0.960 1_655 S
H1010 C1007 0.961 . S
O1011 Co986 1.967 . S
O1011 C1019 1.258 . S
O1012 Co987 1.941 . S
O1012 C1019 1.266 . S
H1013 C1015 0.959 . S
H1014 C1015 0.961 . S
C1015 C1005 1.510 1_556 S
C1015 H1013 0.959 . S
C1015 H1014 0.961 . S
C1015 H1016 0.960 . S
H1016 C1015 0.960 . S
H1017 N997 0.862 . S
O1018 Co986 1.920 . S
O1018 C991 1.289 1_455 S
C1019 O1011 1.258 . S
C1019 O1012 1.266 . S
Co1020 O1023 1.970 . S
Co1020 N1037 1.989 . S
Co1020 O1045 1.967 . S
Co1020 O1052 1.920 . S
Co1021 O1024 1.966 . S
Co1021 N1030 2.022 . S
Co1021 N1038 1.993 . S
Co1021 O1046 1.941 . S
C1022 O1023 1.258 . S
C1022 O1024 1.263 . S
O1023 Co1020 1.970 . S
O1023 C1022 1.258 . S
O1024 Co1021 1.966 . S
O1024 C1022 1.263 . S
C1025 O1026 1.235 . S
C1025 O1052 1.289 . S
O1026 C1025 1.235 . S
C1027 C1029 1.400 . S
C1027 N1030 1.351 . S
C1027 C1032 1.501 . S
C1028 C1029 1.387 . S
C1028 N1031 1.341 . S
C1029 C1027 1.400 . S
C1029 C1028 1.387 . S
N1030 Co1021 2.022 . S
N1030 C1027 1.351 . S
N1030 N1031 1.365 . S
N1031 C1028 1.341 . S
N1031 N1030 1.365 . S
N1031 H1051 0.862 . S
C1032 C1027 1.501 . S
C1032 H1033 0.961 . S
C1032 H1034 0.961 . S
C1032 H1035 0.960 . S
H1033 C1032 0.961 . S
H1034 C1032 0.961 . S
H1035 C1032 0.960 . S
C1036 N1037 1.342 . S
C1036 C1040 1.401 . S
C1036 C1041 1.499 . S
N1037 Co1020 1.989 . S
N1037 C1036 1.342 . S
N1037 N1038 1.388 . S
N1038 Co1021 1.993 . S
N1038 N1037 1.388 . S
N1038 C1039 1.346 . S
C1039 N1038 1.346 . S
C1039 C1040 1.396 . S
C1039 C1049 1.510 . S
C1040 C1036 1.401 . S
C1040 C1039 1.396 . S
C1041 C1036 1.499 . S
C1041 H1042 0.959 . S
C1041 H1043 0.960 . S
C1041 H1044 0.961 . S
H1042 C1041 0.959 . S
H1043 C1041 0.960 . S
H1044 C1041 0.961 . S
O1045 Co1020 1.967 . S
O1045 C1053 1.258 . S
O1046 Co1021 1.941 . S
O1046 C1053 1.266 . S
H1047 C1049 0.959 . S
H1048 C1049 0.961 . S
C1049 C1039 1.510 . S
C1049 H1047 0.959 . S
C1049 H1048 0.961 . S
C1049 H1050 0.960 . S
H1050 C1049 0.960 . S
H1051 N1031 0.862 . S
O1052 Co1020 1.920 . S
O1052 C1025 1.289 . S
C1053 O1045 1.258 . S
C1053 O1046 1.266 . S
Co1054 O1057 1.970 . S
Co1054 N1071 1.989 . S
Co1054 O1079 1.967 . S
Co1054 O1086 1.920 . S
Co1055 O1058 1.966 . S
Co1055 N1064 2.022 . S
Co1055 N1072 1.993 . S
Co1055 O1080 1.941 . S
C1056 O1057 1.258 . S
C1056 O1058 1.263 . S
O1057 Co1054 1.970 . S
O1057 C1056 1.258 . S
O1058 Co1055 1.966 . S
O1058 C1056 1.263 . S
C1059 O1060 1.235 . S
C1059 O1086 1.289 . S
O1060 C1059 1.235 . S
C1061 C1063 1.400 . S
C1061 N1064 1.351 . S
C1061 C1066 1.501 . S
C1062 C1063 1.387 . S
C1062 N1065 1.341 . S
C1063 C1061 1.400 . S
C1063 C1062 1.387 . S
N1064 Co1055 2.022 . S
N1064 C1061 1.351 . S
N1064 N1065 1.365 . S
N1065 C1062 1.341 . S
N1065 N1064 1.365 . S
N1065 H1085 0.862 . S
C1066 C1061 1.501 . S
C1066 H1067 0.961 . S
C1066 H1068 0.961 . S
C1066 H1069 0.960 . S
H1067 C1066 0.961 . S
H1068 C1066 0.961 . S
H1069 C1066 0.960 . S
C1070 N1071 1.342 . S
C1070 C1074 1.401 . S
C1070 C1075 1.499 . S
N1071 Co1054 1.989 . S
N1071 C1070 1.342 . S
N1071 N1072 1.388 . S
N1072 Co1055 1.993 . S
N1072 N1071 1.388 . S
N1072 C1073 1.346 . S
C1073 N1072 1.346 . S
C1073 C1074 1.396 . S
C1073 C1083 1.510 . S
C1074 C1070 1.401 . S
C1074 C1073 1.396 . S
C1075 C1070 1.499 . S
C1075 H1076 0.959 . S
C1075 H1077 0.960 . S
C1075 H1078 0.961 . S
H1076 C1075 0.959 . S
H1077 C1075 0.960 . S
H1078 C1075 0.961 . S
O1079 Co1054 1.967 . S
O1079 C1087 1.258 . S
O1080 Co1055 1.941 . S
O1080 C1087 1.266 . S
H1081 C1083 0.959 . S
H1082 C1083 0.961 . S
C1083 C1073 1.510 . S
C1083 H1081 0.959 . S
C1083 H1082 0.961 . S
C1083 H1084 0.960 . S
H1084 C1083 0.960 . S
H1085 N1065 0.862 . S
O1086 Co1054 1.920 . S
O1086 C1059 1.289 . S
C1087 O1079 1.258 . S
C1087 O1080 1.266 . S
C1088 C1089 1.387 . S
C1088 H1092 0.950 . S
C1088 C1097 1.390 . S
C1089 C1088 1.387 . S
C1089 C1091 1.387 . S
H1090 C1097 0.950 . S
C1091 C1089 1.387 . S
C1091 C1093 1.390 . S
C1091 H1095 0.950 . S
H1092 C1088 0.950 . S
C1093 C1091 1.390 . S
C1093 C1094 1.387 . S
C1093 H1096 0.950 . S
C1094 C1093 1.387 . S
C1094 C1097 1.387 . S
H1095 C1091 0.950 . S
H1096 C1093 0.950 . S
C1097 C1088 1.390 . S
C1097 H1090 0.950 . S
C1097 C1094 1.387 . S
C1098 C1099 1.387 . S
C1098 H1102 0.950 . S
C1098 C1107 1.390 . S
C1099 C1098 1.387 . S
C1099 C1101 1.387 . S
H1100 C1107 0.950 . S
C1101 C1099 1.387 . S
C1101 C1103 1.390 . S
C1101 H1105 0.950 . S
H1102 C1098 0.950 . S
C1103 C1101 1.390 . S
C1103 C1104 1.387 . S
C1103 H1106 0.950 . S
C1104 C1103 1.387 . S
C1104 C1107 1.387 . S
H1105 C1101 0.950 . S
H1106 C1103 0.950 . S
C1107 C1098 1.390 . S
C1107 H1100 0.950 . S
C1107 C1104 1.387 . S
C1108 C1109 1.387 . S
C1108 H1112 0.950 . S
C1108 C1117 1.390 . S
C1109 C1108 1.387 . S
C1109 C1111 1.387 . S
H1110 C1117 0.950 . S
C1111 C1109 1.387 . S
C1111 C1113 1.390 . S
C1111 H1115 0.950 . S
H1112 C1108 0.950 . S
C1113 C1111 1.390 . S
C1113 C1114 1.387 . S
C1113 H1116 0.950 . S
C1114 C1113 1.387 . S
C1114 C1117 1.387 . S
H1115 C1111 0.950 . S
H1116 C1113 0.950 . S
C1117 C1108 1.390 . S
C1117 H1110 0.950 . S
C1117 C1114 1.387 . S
C1118 C1119 1.387 . S
C1118 H1122 0.950 . S
C1118 C1127 1.390 . S
C1119 C1118 1.387 . S
C1119 C1121 1.387 . S
H1120 C1127 0.950 . S
C1121 C1119 1.387 . S
C1121 C1123 1.390 . S
C1121 H1125 0.950 . S
H1122 C1118 0.950 . S
C1123 C1121 1.390 . S
C1123 C1124 1.387 . S
C1123 H1126 0.950 . S
C1124 C1123 1.387 . S
C1124 C1127 1.387 . S
H1125 C1121 0.950 . S
H1126 C1123 0.950 . S
C1127 C1118 1.390 . S
C1127 H1120 0.950 . S
C1127 C1124 1.387 . S
C1128 C1129 1.387 . S
C1128 H1132 0.950 . S
C1128 C1137 1.390 . S
C1129 C1128 1.387 . S
C1129 C1131 1.387 . S
H1130 C1137 0.950 . S
C1131 C1129 1.387 . S
C1131 C1133 1.390 . S
C1131 H1135 0.950 . S
H1132 C1128 0.950 . S
C1133 C1131 1.390 . S
C1133 C1134 1.387 . S
C1133 H1136 0.950 . S
C1134 C1133 1.387 . S
C1134 C1137 1.387 . S
H1135 C1131 0.950 . S
H1136 C1133 0.950 . S
C1137 C1128 1.390 . S
C1137 H1130 0.950 . S
C1137 C1134 1.387 . S
C1138 C1139 1.387 . S
C1138 H1142 0.950 . S
C1138 C1147 1.390 . S
C1139 C1138 1.387 . S
C1139 C1141 1.387 . S
H1140 C1147 0.950 . S
C1141 C1139 1.387 . S
C1141 C1143 1.390 . S
C1141 H1145 0.950 . S
H1142 C1138 0.950 . S
C1143 C1141 1.390 . S
C1143 C1144 1.387 . S
C1143 H1146 0.950 . S
C1144 C1143 1.387 . S
C1144 C1147 1.387 . S
H1145 C1141 0.950 . S
H1146 C1143 0.950 . S
C1147 C1138 1.390 . S
C1147 H1140 0.950 . S
C1147 C1144 1.387 . S
C1148 C1149 1.387 . S
C1148 H1152 0.950 . S
C1148 C1157 1.390 . S
C1149 C1148 1.387 . S
C1149 C1151 1.387 . S
H1150 C1157 0.950 . S
C1151 C1149 1.387 . S
C1151 C1153 1.390 . S
C1151 H1155 0.950 . S
H1152 C1148 0.950 . S
C1153 C1151 1.390 . S
C1153 C1154 1.387 . S
C1153 H1156 0.950 . S
C1154 C1153 1.387 . S
C1154 C1157 1.387 . S
H1155 C1151 0.950 . S
H1156 C1153 0.950 . S
C1157 C1148 1.390 . S
C1157 H1150 0.950 . S
C1157 C1154 1.387 . S
C1158 C1159 1.387 . S
C1158 H1162 0.950 . S
C1158 C1167 1.390 . S
C1159 C1158 1.387 . S
C1159 C1161 1.387 . S
H1160 C1167 0.950 . S
C1161 C1159 1.387 . S
C1161 C1163 1.390 . S
C1161 H1165 0.950 . S
H1162 C1158 0.950 . S
C1163 C1161 1.390 . S
C1163 C1164 1.387 . S
C1163 H1166 0.950 . S
C1164 C1163 1.387 . S
C1164 C1167 1.387 . S
H1165 C1161 0.950 . S
H1166 C1163 0.950 . S
C1167 C1158 1.390 . S
C1167 H1160 0.950 . S
C1167 C1164 1.387 . S
C1168 C1169 1.387 . S
C1168 H1172 0.950 . S
C1168 C1177 1.390 . S
C1169 C1168 1.387 . S
C1169 C1171 1.387 . S
H1170 C1177 0.950 . S
C1171 C1169 1.387 . S
C1171 C1173 1.390 . S
C1171 H1175 0.950 . S
H1172 C1168 0.950 . S
C1173 C1171 1.390 . S
C1173 C1174 1.387 . S
C1173 H1176 0.950 . S
C1174 C1173 1.387 . S
C1174 C1177 1.387 . S
H1175 C1171 0.950 . S
H1176 C1173 0.950 . S
C1177 C1168 1.390 . S
C1177 H1170 0.950 . S
C1177 C1174 1.387 . S
C1178 C1179 1.387 . S
C1178 H1182 0.950 . S
C1178 C1187 1.390 . S
C1179 C1178 1.387 . S
C1179 C1181 1.387 . S
H1180 C1187 0.950 . S
C1181 C1179 1.387 . S
C1181 C1183 1.390 . S
C1181 H1185 0.950 . S
H1182 C1178 0.950 . S
C1183 C1181 1.390 . S
C1183 C1184 1.387 . S
C1183 H1186 0.950 . S
C1184 C1183 1.387 . S
C1184 C1187 1.387 . S
H1185 C1181 0.950 . S
H1186 C1183 0.950 . S
C1187 C1178 1.390 . S
C1187 H1180 0.950 . S
C1187 C1184 1.387 . S
C1188 C1189 1.387 . S
C1188 H1192 0.950 . S
C1188 C1197 1.390 . S
C1189 C1188 1.387 . S
C1189 C1191 1.387 . S
H1190 C1197 0.950 . S
C1191 C1189 1.387 . S
C1191 C1193 1.390 . S
C1191 H1195 0.950 . S
H1192 C1188 0.950 . S
C1193 C1191 1.390 . S
C1193 C1194 1.387 . S
C1193 H1196 0.950 . S
C1194 C1193 1.387 . S
C1194 C1197 1.387 . S
H1195 C1191 0.950 . S
H1196 C1193 0.950 . S
C1197 C1188 1.390 . S
C1197 H1190 0.950 . S
C1197 C1194 1.387 . S
C1198 C1199 1.387 . S
C1198 H1202 0.950 . S
C1198 C1207 1.390 . S
C1199 C1198 1.387 . S
C1199 C1201 1.387 . S
H1200 C1207 0.950 . S
C1201 C1199 1.387 . S
C1201 C1203 1.390 . S
C1201 H1205 0.950 . S
H1202 C1198 0.950 . S
C1203 C1201 1.390 . S
C1203 C1204 1.387 . S
C1203 H1206 0.950 . S
C1204 C1203 1.387 . S
C1204 C1207 1.387 . S
H1205 C1201 0.950 . S
H1206 C1203 0.950 . S
C1207 C1198 1.390 . S
C1207 H1200 0.950 . S
C1207 C1204 1.387 . S
C1208 C1209 1.387 . S
C1208 H1212 0.950 . S
C1208 C1217 1.390 . S
C1209 C1208 1.387 . S
C1209 C1211 1.387 . S
H1210 C1217 0.950 . S
C1211 C1209 1.387 . S
C1211 C1213 1.390 . S
C1211 H1215 0.950 . S
H1212 C1208 0.950 . S
C1213 C1211 1.390 . S
C1213 C1214 1.387 . S
C1213 H1216 0.950 . S
C1214 C1213 1.387 . S
C1214 C1217 1.387 . S
H1215 C1211 0.950 . S
H1216 C1213 0.950 . S
C1217 C1208 1.390 . S
C1217 H1210 0.950 . S
C1217 C1214 1.387 . S
C1218 C1219 1.387 . S
C1218 H1222 0.950 . S
C1218 C1227 1.390 . S
C1219 C1218 1.387 . S
C1219 C1221 1.387 . S
H1220 C1227 0.950 . S
C1221 C1219 1.387 . S
C1221 C1223 1.390 . S
C1221 H1225 0.950 . S
H1222 C1218 0.950 . S
C1223 C1221 1.390 . S
C1223 C1224 1.387 . S
C1223 H1226 0.950 . S
C1224 C1223 1.387 . S
C1224 C1227 1.387 . S
H1225 C1221 0.950 . S
H1226 C1223 0.950 . S
C1227 C1218 1.390 . S
C1227 H1220 0.950 . S
C1227 C1224 1.387 . S
C1228 C1229 1.387 . S
C1228 H1232 0.950 . S
C1228 C1237 1.390 . S
C1229 C1228 1.387 . S
C1229 C1231 1.387 . S
H1230 C1237 0.950 . S
C1231 C1229 1.387 . S
C1231 C1233 1.390 . S
C1231 H1235 0.950 . S
H1232 C1228 0.950 . S
C1233 C1231 1.390 . S
C1233 C1234 1.387 . S
C1233 H1236 0.950 . S
C1234 C1233 1.387 . S
C1234 C1237 1.387 . S
H1235 C1231 0.950 . S
H1236 C1233 0.950 . S
C1237 C1228 1.390 . S
C1237 H1230 0.950 . S
C1237 C1234 1.387 . S
C1238 C1239 1.387 . S
C1238 H1242 0.950 . S
C1238 C1247 1.390 . S
C1239 C1238 1.387 . S
C1239 C1241 1.387 . S
H1240 C1247 0.950 . S
C1241 C1239 1.387 . S
C1241 C1243 1.390 . S
C1241 H1245 0.950 . S
H1242 C1238 0.950 . S
C1243 C1241 1.390 . S
C1243 C1244 1.387 . S
C1243 H1246 0.950 . S
C1244 C1243 1.387 . S
C1244 C1247 1.387 . S
H1245 C1241 0.950 . S
H1246 C1243 0.950 . S
C1247 C1238 1.390 . S
C1247 H1240 0.950 . S
C1247 C1244 1.387 . S
C1248 C1249 1.387 . S
C1248 H1252 0.950 . S
C1248 C1257 1.390 1_655 S
C1249 C1248 1.387 . S
C1249 C1251 1.387 . S
H1250 C1257 0.950 . S
C1251 C1249 1.387 . S
C1251 C1253 1.390 1_655 S
C1251 H1255 0.950 . S
H1252 C1248 0.950 . S
C1253 C1251 1.390 1_455 S
C1253 C1254 1.387 . S
C1253 H1256 0.950 . S
C1254 C1253 1.387 . S
C1254 C1257 1.387 . S
H1255 C1251 0.950 . S
H1256 C1253 0.950 . S
C1257 C1248 1.390 1_455 S
C1257 H1250 0.950 . S
C1257 C1254 1.387 . S
C1258 C1259 1.387 . S
C1258 H1262 0.950 . S
C1258 C1267 1.390 1_655 S
C1259 C1258 1.387 . S
C1259 C1261 1.387 . S
H1260 C1267 0.950 . S
C1261 C1259 1.387 . S
C1261 C1263 1.390 1_655 S
C1261 H1265 0.950 . S
H1262 C1258 0.950 . S
C1263 C1261 1.390 1_455 S
C1263 C1264 1.387 . S
C1263 H1266 0.950 . S
C1264 C1263 1.387 . S
C1264 C1267 1.387 . S
H1265 C1261 0.950 . S
H1266 C1263 0.950 . S
C1267 C1258 1.390 1_455 S
C1267 H1260 0.950 . S
C1267 C1264 1.387 . S
C1268 C1269 1.387 . S
C1268 H1272 0.950 . S
C1268 C1277 1.390 . S
C1269 C1268 1.387 . S
C1269 C1271 1.387 . S
H1270 C1277 0.950 . S
C1271 C1269 1.387 . S
C1271 C1273 1.390 . S
C1271 H1275 0.950 . S
H1272 C1268 0.950 . S
C1273 C1271 1.390 . S
C1273 C1274 1.387 . S
C1273 H1276 0.950 . S
C1274 C1273 1.387 . S
C1274 C1277 1.387 . S
H1275 C1271 0.950 . S
H1276 C1273 0.950 . S
C1277 C1268 1.390 . S
C1277 H1270 0.950 . S
C1277 C1274 1.387 . S
C1278 C1279 1.387 . S
C1278 H1282 0.950 . S
C1278 C1287 1.390 . S
C1279 C1278 1.387 . S
C1279 C1281 1.387 . S
H1280 C1287 0.950 . S
C1281 C1279 1.387 . S
C1281 C1283 1.390 . S
C1281 H1285 0.950 1_554 S
H1282 C1278 0.950 . S
C1283 C1281 1.390 . S
C1283 C1284 1.387 . S
C1283 H1286 0.950 1_554 S
C1284 C1283 1.387 . S
C1284 C1287 1.387 . S
H1285 C1281 0.950 1_556 S
H1286 C1283 0.950 1_556 S
C1287 C1278 1.390 . S
C1287 H1280 0.950 . S
C1287 C1284 1.387 . S
C1288 C1289 1.387 . S
C1288 H1292 0.950 . S
C1288 C1297 1.390 1_655 S
C1289 C1288 1.387 . S
C1289 C1291 1.387 . S
H1290 C1297 0.950 . S
C1291 C1289 1.387 . S
C1291 C1293 1.390 1_655 S
C1291 H1295 0.950 . S
H1292 C1288 0.950 . S
C1293 C1291 1.390 1_455 S
C1293 C1294 1.387 . S
C1293 H1296 0.950 . S
C1294 C1293 1.387 . S
C1294 C1297 1.387 . S
H1295 C1291 0.950 . S
H1296 C1293 0.950 . S
C1297 C1288 1.390 1_455 S
C1297 H1290 0.950 . S
C1297 C1294 1.387 . S
C1298 C1299 1.387 . S
C1298 H1302 0.950 . S
C1298 C1307 1.390 . S
C1299 C1298 1.387 . S
C1299 C1301 1.387 . S
H1300 C1307 0.950 . S
C1301 C1299 1.387 . S
C1301 C1303 1.390 . S
C1301 H1305 0.950 . S
H1302 C1298 0.950 . S
C1303 C1301 1.390 . S
C1303 C1304 1.387 . S
C1303 H1306 0.950 . S
C1304 C1303 1.387 . S
C1304 C1307 1.387 . S
H1305 C1301 0.950 . S
H1306 C1303 0.950 . S
C1307 C1298 1.390 . S
C1307 H1300 0.950 . S
C1307 C1304 1.387 . S
C1308 C1309 1.387 . S
C1308 H1312 0.950 . S
C1308 C1317 1.390 . S
C1309 C1308 1.387 . S
C1309 C1311 1.387 . S
H1310 C1317 0.950 . S
C1311 C1309 1.387 . S
C1311 C1313 1.390 . S
C1311 H1315 0.950 . S
H1312 C1308 0.950 . S
C1313 C1311 1.390 . S
C1313 C1314 1.387 . S
C1313 H1316 0.950 . S
C1314 C1313 1.387 . S
C1314 C1317 1.387 . S
H1315 C1311 0.950 . S
H1316 C1313 0.950 . S
C1317 C1308 1.390 . S
C1317 H1310 0.950 . S
C1317 C1314 1.387 . S
C1318 C1319 1.387 . S
C1318 H1322 0.950 . S
C1318 C1327 1.390 1_455 S
C1319 C1318 1.387 . S
C1319 C1321 1.387 . S
H1320 C1327 0.950 . S
C1321 C1319 1.387 . S
C1321 C1323 1.390 1_455 S
C1321 H1325 0.950 1_556 S
H1322 C1318 0.950 . S
C1323 C1321 1.390 1_655 S
C1323 C1324 1.387 . S
C1323 H1326 0.950 1_556 S
C1324 C1323 1.387 . S
C1324 C1327 1.387 . S
H1325 C1321 0.950 1_554 S
H1326 C1323 0.950 1_554 S
C1327 C1318 1.390 1_655 S
C1327 H1320 0.950 . S
C1327 C1324 1.387 . S
C1328 C1329 1.387 . S
C1328 H1332 0.950 . S
C1328 C1337 1.390 1_655 S
C1329 C1328 1.387 . S
C1329 C1331 1.387 . S
H1330 C1337 0.950 . S
C1331 C1329 1.387 . S
C1331 C1333 1.390 1_655 S
C1331 H1335 0.950 . S
H1332 C1328 0.950 . S
C1333 C1331 1.390 1_455 S
C1333 C1334 1.387 . S
C1333 H1336 0.950 . S
C1334 C1333 1.387 . S
C1334 C1337 1.387 . S
H1335 C1331 0.950 . S
H1336 C1333 0.950 . S
C1337 C1328 1.390 1_455 S
C1337 H1330 0.950 . S
C1337 C1334 1.387 . S
C1338 C1339 1.387 . S
C1338 H1342 0.950 . S
C1338 C1347 1.390 1_455 S
C1339 C1338 1.387 . S
C1339 C1341 1.387 . S
H1340 C1347 0.950 . S
C1341 C1339 1.387 . S
C1341 C1343 1.390 1_455 S
C1341 H1345 0.950 . S
H1342 C1338 0.950 . S
C1343 C1341 1.390 1_655 S
C1343 C1344 1.387 . S
C1343 H1346 0.950 . S
C1344 C1343 1.387 . S
C1344 C1347 1.387 . S
H1345 C1341 0.950 . S
H1346 C1343 0.950 . S
C1347 C1338 1.390 1_655 S
C1347 H1340 0.950 . S
C1347 C1344 1.387 . S
C1348 C1349 1.387 . S
C1348 H1352 0.950 . S
C1348 C1357 1.390 . S
C1349 C1348 1.387 . S
C1349 C1351 1.387 . S
H1350 C1357 0.950 . S
C1351 C1349 1.387 . S
C1351 C1353 1.390 . S
C1351 H1355 0.950 . S
H1352 C1348 0.950 . S
C1353 C1351 1.390 . S
C1353 C1354 1.387 . S
C1353 H1356 0.950 . S
C1354 C1353 1.387 . S
C1354 C1357 1.387 . S
H1355 C1351 0.950 . S
H1356 C1353 0.950 . S
C1357 C1348 1.390 . S
C1357 H1350 0.950 . S
C1357 C1354 1.387 . S
C1358 C1359 1.387 . S
C1358 H1362 0.950 . S
C1358 C1367 1.390 . S
C1359 C1358 1.387 . S
C1359 C1361 1.387 . S
H1360 C1367 0.950 . S
C1361 C1359 1.387 . S
C1361 C1363 1.390 . S
C1361 H1365 0.950 1_556 S
H1362 C1358 0.950 . S
C1363 C1361 1.390 . S
C1363 C1364 1.387 . S
C1363 H1366 0.950 1_556 S
C1364 C1363 1.387 . S
C1364 C1367 1.387 . S
H1365 C1361 0.950 1_554 S
H1366 C1363 0.950 1_554 S
C1367 C1358 1.390 . S
C1367 H1360 0.950 . S
C1367 C1364 1.387 . S
C1368 C1369 1.387 . S
C1368 H1372 0.950 . S
C1368 C1377 1.390 1_655 S
C1369 C1368 1.387 . S
C1369 C1371 1.387 . S
H1370 C1377 0.950 . S
C1371 C1369 1.387 . S
C1371 C1373 1.390 1_655 S
C1371 H1375 0.950 . S
H1372 C1368 0.950 . S
C1373 C1371 1.390 1_455 S
C1373 C1374 1.387 . S
C1373 H1376 0.950 . S
C1374 C1373 1.387 . S
C1374 C1377 1.387 . S
H1375 C1371 0.950 . S
H1376 C1373 0.950 . S
C1377 C1368 1.390 1_455 S
C1377 H1370 0.950 . S
C1377 C1374 1.387 . S
C1378 C1379 1.387 . S
C1378 H1382 0.950 . S
C1378 C1387 1.390 . S
C1379 C1378 1.387 . S
C1379 C1381 1.387 . S
H1380 C1387 0.950 . S
C1381 C1379 1.387 . S
C1381 C1383 1.390 . S
C1381 H1385 0.950 . S
H1382 C1378 0.950 . S
C1383 C1381 1.390 . S
C1383 C1384 1.387 . S
C1383 H1386 0.950 . S
C1384 C1383 1.387 . S
C1384 C1387 1.387 . S
H1385 C1381 0.950 . S
H1386 C1383 0.950 . S
C1387 C1378 1.390 . S
C1387 H1380 0.950 . S
C1387 C1384 1.387 . S
C1388 C1389 1.387 . S
C1388 H1392 0.950 . S
C1388 C1397 1.390 . S
C1389 C1388 1.387 . S
C1389 C1391 1.387 . S
H1390 C1397 0.950 . S
C1391 C1389 1.387 . S
C1391 C1393 1.390 . S
C1391 H1395 0.950 . S
H1392 C1388 0.950 . S
C1393 C1391 1.390 . S
C1393 C1394 1.387 . S
C1393 H1396 0.950 . S
C1394 C1393 1.387 . S
C1394 C1397 1.387 . S
H1395 C1391 0.950 . S
H1396 C1393 0.950 . S
C1397 C1388 1.390 . S
C1397 H1390 0.950 . S
C1397 C1394 1.387 . S
C1398 C1399 1.387 . S
C1398 H1402 0.950 . S
C1398 C1407 1.390 1_455 S
C1399 C1398 1.387 . S
C1399 C1401 1.387 . S
H1400 C1407 0.950 . S
C1401 C1399 1.387 . S
C1401 C1403 1.390 1_455 S
C1401 H1405 0.950 1_554 S
H1402 C1398 0.950 . S
C1403 C1401 1.390 1_655 S
C1403 C1404 1.387 . S
C1403 H1406 0.950 1_554 S
C1404 C1403 1.387 . S
C1404 C1407 1.387 . S
H1405 C1401 0.950 1_556 S
H1406 C1403 0.950 1_556 S
C1407 C1398 1.390 1_655 S
C1407 H1400 0.950 . S
C1407 C1404 1.387 . S
C1408 C1409 1.387 . S
C1408 H1412 0.950 . S
C1408 C1417 1.390 . S
C1409 C1408 1.387 . S
C1409 C1411 1.387 . S
H1410 C1417 0.950 . S
C1411 C1409 1.387 . S
C1411 C1413 1.390 . S
C1411 H1415 0.950 . S
H1412 C1408 0.950 . S
C1413 C1411 1.390 . S
C1413 C1414 1.387 . S
C1413 H1416 0.950 . S
C1414 C1413 1.387 . S
C1414 C1417 1.387 . S
H1415 C1411 0.950 . S
H1416 C1413 0.950 . S
C1417 C1408 1.390 . S
C1417 H1410 0.950 . S
C1417 C1414 1.387 . S
C1418 C1419 1.387 . S
C1418 H1422 0.950 . S
C1418 C1427 1.390 . S
C1419 C1418 1.387 . S
C1419 C1421 1.387 . S
H1420 C1427 0.950 . S
C1421 C1419 1.387 . S
C1421 C1423 1.390 . S
C1421 H1425 0.950 . S
H1422 C1418 0.950 . S
C1423 C1421 1.390 . S
C1423 C1424 1.387 . S
C1423 H1426 0.950 . S
C1424 C1423 1.387 . S
C1424 C1427 1.387 . S
H1425 C1421 0.950 . S
H1426 C1423 0.950 . S
C1427 C1418 1.390 . S
C1427 H1420 0.950 . S
C1427 C1424 1.387 . S
C1428 C1429 1.387 . S
C1428 H1432 0.950 . S
C1428 C1437 1.390 . S
C1429 C1428 1.387 . S
C1429 C1431 1.387 . S
H1430 C1437 0.950 . S
C1431 C1429 1.387 . S
C1431 C1433 1.390 . S
C1431 H1435 0.950 . S
H1432 C1428 0.950 . S
C1433 C1431 1.390 . S
C1433 C1434 1.387 . S
C1433 H1436 0.950 . S
C1434 C1433 1.387 . S
C1434 C1437 1.387 . S
H1435 C1431 0.950 . S
H1436 C1433 0.950 . S
C1437 C1428 1.390 . S
C1437 H1430 0.950 . S
C1437 C1434 1.387 . S
C1438 C1439 1.387 . S
C1438 H1442 0.950 . S
C1438 C1447 1.390 . S
C1439 C1438 1.387 . S
C1439 C1441 1.387 . S
H1440 C1447 0.950 . S
C1441 C1439 1.387 . S
C1441 C1443 1.390 . S
C1441 H1445 0.950 . S
H1442 C1438 0.950 . S
C1443 C1441 1.390 . S
C1443 C1444 1.387 . S
C1443 H1446 0.950 . S
C1444 C1443 1.387 . S
C1444 C1447 1.387 . S
H1445 C1441 0.950 . S
H1446 C1443 0.950 . S
C1447 C1438 1.390 . S
C1447 H1440 0.950 . S
C1447 C1444 1.387 . S
C1448 C1449 1.387 . S
C1448 H1452 0.950 . S
C1448 C1457 1.390 . S
C1449 C1448 1.387 . S
C1449 C1451 1.387 . S
H1450 C1457 0.950 . S
C1451 C1449 1.387 . S
C1451 C1453 1.390 . S
C1451 H1455 0.950 . S
H1452 C1448 0.950 . S
C1453 C1451 1.390 . S
C1453 C1454 1.387 . S
C1453 H1456 0.950 . S
C1454 C1453 1.387 . S
C1454 C1457 1.387 . S
H1455 C1451 0.950 . S
H1456 C1453 0.950 . S
C1457 C1448 1.390 . S
C1457 H1450 0.950 . S
C1457 C1454 1.387 . S
C1458 C1459 1.387 . S
C1458 H1462 0.950 . S
C1458 C1467 1.390 . S
C1459 C1458 1.387 . S
C1459 C1461 1.387 . S
H1460 C1467 0.950 . S
C1461 C1459 1.387 . S
C1461 C1463 1.390 . S
C1461 H1465 0.950 . S
H1462 C1458 0.950 . S
C1463 C1461 1.390 . S
C1463 C1464 1.387 . S
C1463 H1466 0.950 . S
C1464 C1463 1.387 . S
C1464 C1467 1.387 . S
H1465 C1461 0.950 . S
H1466 C1463 0.950 . S
C1467 C1458 1.390 . S
C1467 H1460 0.950 . S
C1467 C1464 1.387 . S
C1468 C1469 1.387 . S
C1468 H1472 0.950 . S
C1468 C1477 1.390 . S
C1469 C1468 1.387 . S
C1469 C1471 1.387 . S
H1470 C1477 0.950 . S
C1471 C1469 1.387 . S
C1471 C1473 1.390 . S
C1471 H1475 0.950 . S
H1472 C1468 0.950 . S
C1473 C1471 1.390 . S
C1473 C1474 1.387 . S
C1473 H1476 0.950 . S
C1474 C1473 1.387 . S
C1474 C1477 1.387 . S
H1475 C1471 0.950 . S
H1476 C1473 0.950 . S
C1477 C1468 1.390 . S
C1477 H1470 0.950 . S
C1477 C1474 1.387 . S
C1478 C1479 1.387 . S
C1478 H1482 0.950 . S
C1478 C1487 1.390 . S
C1479 C1478 1.387 . S
C1479 C1481 1.387 . S
H1480 C1487 0.950 . S
C1481 C1479 1.387 . S
C1481 C1483 1.390 . S
C1481 H1485 0.950 . S
H1482 C1478 0.950 . S
C1483 C1481 1.390 . S
C1483 C1484 1.387 . S
C1483 H1486 0.950 . S
C1484 C1483 1.387 . S
C1484 C1487 1.387 . S
H1485 C1481 0.950 . S
H1486 C1483 0.950 . S
C1487 C1478 1.390 . S
C1487 H1480 0.950 . S
C1487 C1484 1.387 . S
C1488 C1489 1.387 . S
C1488 H1492 0.950 . S
C1488 C1497 1.390 . S
C1489 C1488 1.387 . S
C1489 C1491 1.387 . S
H1490 C1497 0.950 . S
C1491 C1489 1.387 . S
C1491 C1493 1.390 . S
C1491 H1495 0.950 . S
H1492 C1488 0.950 . S
C1493 C1491 1.390 . S
C1493 C1494 1.387 . S
C1493 H1496 0.950 . S
C1494 C1493 1.387 . S
C1494 C1497 1.387 . S
H1495 C1491 0.950 . S
H1496 C1493 0.950 . S
C1497 C1488 1.390 . S
C1497 H1490 0.950 . S
C1497 C1494 1.387 . S
C1498 C1499 1.387 . S
C1498 H1502 0.950 . S
C1498 C1507 1.390 . S
C1499 C1498 1.387 . S
C1499 C1501 1.387 . S
H1500 C1507 0.950 . S
C1501 C1499 1.387 . S
C1501 C1503 1.390 . S
C1501 H1505 0.950 . S
H1502 C1498 0.950 . S
C1503 C1501 1.390 . S
C1503 C1504 1.387 . S
C1503 H1506 0.950 . S
C1504 C1503 1.387 . S
C1504 C1507 1.387 . S
H1505 C1501 0.950 . S
H1506 C1503 0.950 . S
C1507 C1498 1.390 . S
C1507 H1500 0.950 . S
C1507 C1504 1.387 . S
C1508 C1509 1.387 . S
C1508 H1512 0.950 . S
C1508 C1517 1.390 . S
C1509 C1508 1.387 . S
C1509 C1511 1.387 . S
H1510 C1517 0.950 . S
C1511 C1509 1.387 . S
C1511 C1513 1.390 . S
C1511 H1515 0.950 . S
H1512 C1508 0.950 . S
C1513 C1511 1.390 . S
C1513 C1514 1.387 . S
C1513 H1516 0.950 . S
C1514 C1513 1.387 . S
C1514 C1517 1.387 . S
H1515 C1511 0.950 . S
H1516 C1513 0.950 . S
C1517 C1508 1.390 . S
C1517 H1510 0.950 . S
C1517 C1514 1.387 . S
C1518 C1519 1.387 . S
C1518 H1522 0.950 . S
C1518 C1527 1.390 . S
C1519 C1518 1.387 . S
C1519 C1521 1.387 . S
H1520 C1527 0.950 . S
C1521 C1519 1.387 . S
C1521 C1523 1.390 . S
C1521 H1525 0.950 . S
H1522 C1518 0.950 . S
C1523 C1521 1.390 . S
C1523 C1524 1.387 . S
C1523 H1526 0.950 . S
C1524 C1523 1.387 . S
C1524 C1527 1.387 . S
H1525 C1521 0.950 . S
H1526 C1523 0.950 . S
C1527 C1518 1.390 . S
C1527 H1520 0.950 . S
C1527 C1524 1.387 . S
C1528 C1529 1.387 . S
C1528 H1532 0.950 . S
C1528 C1537 1.390 . S
C1529 C1528 1.387 . S
C1529 C1531 1.387 . S
H1530 C1537 0.950 . S
C1531 C1529 1.387 . S
C1531 C1533 1.390 . S
C1531 H1535 0.950 . S
H1532 C1528 0.950 . S
C1533 C1531 1.390 . S
C1533 C1534 1.387 . S
C1533 H1536 0.950 . S
C1534 C1533 1.387 . S
C1534 C1537 1.387 . S
H1535 C1531 0.950 . S
H1536 C1533 0.950 . S
C1537 C1528 1.390 . S
C1537 H1530 0.950 . S
C1537 C1534 1.387 . S
C1538 C1539 1.387 . S
C1538 H1542 0.950 . S
C1538 C1547 1.390 . S
C1539 C1538 1.387 . S
C1539 C1541 1.387 . S
H1540 C1547 0.950 . S
C1541 C1539 1.387 . S
C1541 C1543 1.390 . S
C1541 H1545 0.950 . S
H1542 C1538 0.950 . S
C1543 C1541 1.390 . S
C1543 C1544 1.387 . S
C1543 H1546 0.950 . S
C1544 C1543 1.387 . S
C1544 C1547 1.387 . S
H1545 C1541 0.950 . S
H1546 C1543 0.950 . S
C1547 C1538 1.390 . S
C1547 H1540 0.950 . S
C1547 C1544 1.387 . S
C1548 C1549 1.387 . S
C1548 H1552 0.950 . S
C1548 C1557 1.390 . S
C1549 C1548 1.387 . S
C1549 C1551 1.387 . S
H1550 C1557 0.950 . S
C1551 C1549 1.387 . S
C1551 C1553 1.390 . S
C1551 H1555 0.950 . S
H1552 C1548 0.950 . S
C1553 C1551 1.390 . S
C1553 C1554 1.387 . S
C1553 H1556 0.950 . S
C1554 C1553 1.387 . S
C1554 C1557 1.387 . S
H1555 C1551 0.950 . S
H1556 C1553 0.950 . S
C1557 C1548 1.390 . S
C1557 H1550 0.950 . S
C1557 C1554 1.387 . S
C1558 C1559 1.387 . S
C1558 H1562 0.950 . S
C1558 C1567 1.390 . S
C1559 C1558 1.387 . S
C1559 C1561 1.387 . S
H1560 C1567 0.950 . S
C1561 C1559 1.387 . S
C1561 C1563 1.390 . S
C1561 H1565 0.950 . S
H1562 C1558 0.950 . S
C1563 C1561 1.390 . S
C1563 C1564 1.387 . S
C1563 H1566 0.950 . S
C1564 C1563 1.387 . S
C1564 C1567 1.387 . S
H1565 C1561 0.950 . S
H1566 C1563 0.950 . S
C1567 C1558 1.390 . S
C1567 H1560 0.950 . S
C1567 C1564 1.387 . S
C1568 C1569 1.387 . S
C1568 H1572 0.950 . S
C1568 C1577 1.390 . S
C1569 C1568 1.387 . S
C1569 C1571 1.387 . S
H1570 C1577 0.950 . S
C1571 C1569 1.387 . S
C1571 C1573 1.390 . S
C1571 H1575 0.950 . S
H1572 C1568 0.950 . S
C1573 C1571 1.390 . S
C1573 C1574 1.387 . S
C1573 H1576 0.950 . S
C1574 C1573 1.387 . S
C1574 C1577 1.387 . S
H1575 C1571 0.950 . S
H1576 C1573 0.950 . S
C1577 C1568 1.390 . S
C1577 H1570 0.950 . S
C1577 C1574 1.387 . S
C1578 C1579 1.387 . S
C1578 H1582 0.950 . S
C1578 C1587 1.390 . S
C1579 C1578 1.387 . S
C1579 C1581 1.387 . S
H1580 C1587 0.950 . S
C1581 C1579 1.387 . S
C1581 C1583 1.390 . S
C1581 H1585 0.950 . S
H1582 C1578 0.950 . S
C1583 C1581 1.390 . S
C1583 C1584 1.387 . S
C1583 H1586 0.950 . S
C1584 C1583 1.387 . S
C1584 C1587 1.387 . S
H1585 C1581 0.950 . S
H1586 C1583 0.950 . S
C1587 C1578 1.390 . S
C1587 H1580 0.950 . S
C1587 C1584 1.387 . S
C1588 C1589 1.387 . S
C1588 H1592 0.950 . S
C1588 C1597 1.390 . S
C1589 C1588 1.387 . S
C1589 C1591 1.387 . S
H1590 C1597 0.950 . S
C1591 C1589 1.387 . S
C1591 C1593 1.390 . S
C1591 H1595 0.950 . S
H1592 C1588 0.950 . S
C1593 C1591 1.390 . S
C1593 C1594 1.387 . S
C1593 H1596 0.950 . S
C1594 C1593 1.387 . S
C1594 C1597 1.387 . S
H1595 C1591 0.950 . S
H1596 C1593 0.950 . S
C1597 C1588 1.390 . S
C1597 H1590 0.950 . S
C1597 C1594 1.387 . S
C1598 C1599 1.387 . S
C1598 H1602 0.950 . S
C1598 C1607 1.390 . S
C1599 C1598 1.387 . S
C1599 C1601 1.387 . S
H1600 C1607 0.950 . S
C1601 C1599 1.387 . S
C1601 C1603 1.390 . S
C1601 H1605 0.950 . S
H1602 C1598 0.950 . S
C1603 C1601 1.390 . S
C1603 C1604 1.387 . S
C1603 H1606 0.950 . S
C1604 C1603 1.387 . S
C1604 C1607 1.387 . S
H1605 C1601 0.950 . S
H1606 C1603 0.950 . S
C1607 C1598 1.390 . S
C1607 H1600 0.950 . S
C1607 C1604 1.387 . S
C1608 C1609 1.387 . S
C1608 H1612 0.950 . S
C1608 C1617 1.390 . S
C1609 C1608 1.387 . S
C1609 C1611 1.387 . S
H1610 C1617 0.950 . S
C1611 C1609 1.387 . S
C1611 C1613 1.390 . S
C1611 H1615 0.950 . S
H1612 C1608 0.950 . S
C1613 C1611 1.390 . S
C1613 C1614 1.387 . S
C1613 H1616 0.950 . S
C1614 C1613 1.387 . S
C1614 C1617 1.387 . S
H1615 C1611 0.950 . S
H1616 C1613 0.950 . S
C1617 C1608 1.390 . S
C1617 H1610 0.950 . S
C1617 C1614 1.387 . S
C1618 C1619 1.387 . S
C1618 H1622 0.950 . S
C1618 C1627 1.390 . S
C1619 C1618 1.387 . S
C1619 C1621 1.387 . S
H1620 C1627 0.950 . S
C1621 C1619 1.387 . S
C1621 C1623 1.390 . S
C1621 H1625 0.950 . S
H1622 C1618 0.950 . S
C1623 C1621 1.390 . S
C1623 C1624 1.387 . S
C1623 H1626 0.950 . S
C1624 C1623 1.387 . S
C1624 C1627 1.387 . S
H1625 C1621 0.950 . S
H1626 C1623 0.950 . S
C1627 C1618 1.390 . S
C1627 H1620 0.950 . S
C1627 C1624 1.387 . S
C1628 C1629 1.387 . S
C1628 H1632 0.950 . S
C1628 C1637 1.390 . S
C1629 C1628 1.387 . S
C1629 C1631 1.387 . S
H1630 C1637 0.950 . S
C1631 C1629 1.387 . S
C1631 C1633 1.390 . S
C1631 H1635 0.950 . S
H1632 C1628 0.950 . S
C1633 C1631 1.390 . S
C1633 C1634 1.387 . S
C1633 H1636 0.950 . S
C1634 C1633 1.387 . S
C1634 C1637 1.387 . S
H1635 C1631 0.950 . S
H1636 C1633 0.950 . S
C1637 C1628 1.390 . S
C1637 H1630 0.950 . S
C1637 C1634 1.387 . S
C1638 C1639 1.387 . S
C1638 H1642 0.950 . S
C1638 C1647 1.390 . S
C1639 C1638 1.387 . S
C1639 C1641 1.387 . S
H1640 C1647 0.950 . S
C1641 C1639 1.387 . S
C1641 C1643 1.390 . S
C1641 H1645 0.950 . S
H1642 C1638 0.950 . S
C1643 C1641 1.390 . S
C1643 C1644 1.387 . S
C1643 H1646 0.950 . S
C1644 C1643 1.387 . S
C1644 C1647 1.387 . S
H1645 C1641 0.950 . S
H1646 C1643 0.950 . S
C1647 C1638 1.390 . S
C1647 H1640 0.950 . S
C1647 C1644 1.387 . S
C1648 C1649 1.387 . S
C1648 H1652 0.950 . S
C1648 C1657 1.390 . S
C1649 C1648 1.387 . S
C1649 C1651 1.387 . S
H1650 C1657 0.950 . S
C1651 C1649 1.387 . S
C1651 C1653 1.390 . S
C1651 H1655 0.950 . S
H1652 C1648 0.950 . S
C1653 C1651 1.390 . S
C1653 C1654 1.387 . S
C1653 H1656 0.950 . S
C1654 C1653 1.387 . S
C1654 C1657 1.387 . S
H1655 C1651 0.950 . S
H1656 C1653 0.950 . S
C1657 C1648 1.390 . S
C1657 H1650 0.950 . S
C1657 C1654 1.387 . S
C1658 C1659 1.387 . S
C1658 H1662 0.950 . S
C1658 C1667 1.390 . S
C1659 C1658 1.387 . S
C1659 C1661 1.387 . S
H1660 C1667 0.950 . S
C1661 C1659 1.387 . S
C1661 C1663 1.390 . S
C1661 H1665 0.950 . S
H1662 C1658 0.950 . S
C1663 C1661 1.390 . S
C1663 C1664 1.387 . S
C1663 H1666 0.950 . S
C1664 C1663 1.387 . S
C1664 C1667 1.387 . S
H1665 C1661 0.950 . S
H1666 C1663 0.950 . S
C1667 C1658 1.390 . S
C1667 H1660 0.950 . S
C1667 C1664 1.387 . S
C1668 C1669 1.387 . S
C1668 H1672 0.950 . S
C1668 C1677 1.390 . S
C1669 C1668 1.387 . S
C1669 C1671 1.387 . S
H1670 C1677 0.950 . S
C1671 C1669 1.387 . S
C1671 C1673 1.390 . S
C1671 H1675 0.950 . S
H1672 C1668 0.950 . S
C1673 C1671 1.390 . S
C1673 C1674 1.387 . S
C1673 H1676 0.950 . S
C1674 C1673 1.387 . S
C1674 C1677 1.387 . S
H1675 C1671 0.950 . S
H1676 C1673 0.950 . S
C1677 C1668 1.390 . S
C1677 H1670 0.950 . S
C1677 C1674 1.387 . S
C1678 C1679 1.387 . S
C1678 H1682 0.950 . S
C1678 C1687 1.390 . S
C1679 C1678 1.387 . S
C1679 C1681 1.387 . S
H1680 C1687 0.950 . S
C1681 C1679 1.387 . S
C1681 C1683 1.390 . S
C1681 H1685 0.950 . S
H1682 C1678 0.950 . S
C1683 C1681 1.390 . S
C1683 C1684 1.387 . S
C1683 H1686 0.950 . S
C1684 C1683 1.387 . S
C1684 C1687 1.387 . S
H1685 C1681 0.950 . S
H1686 C1683 0.950 . S
C1687 C1678 1.390 . S
C1687 H1680 0.950 . S
C1687 C1684 1.387 . S
C1688 C1689 1.387 . S
C1688 H1692 0.950 . S
C1688 C1697 1.390 . S
C1689 C1688 1.387 . S
C1689 C1691 1.387 . S
H1690 C1697 0.950 . S
C1691 C1689 1.387 . S
C1691 C1693 1.390 . S
C1691 H1695 0.950 . S
H1692 C1688 0.950 . S
C1693 C1691 1.390 . S
C1693 C1694 1.387 . S
C1693 H1696 0.950 . S
C1694 C1693 1.387 . S
C1694 C1697 1.387 . S
H1695 C1691 0.950 . S
H1696 C1693 0.950 . S
C1697 C1688 1.390 . S
C1697 H1690 0.950 . S
C1697 C1694 1.387 . S
C1698 C1699 1.387 . S
C1698 H1702 0.950 . S
C1698 C1707 1.390 . S
C1699 C1698 1.387 . S
C1699 C1701 1.387 . S
H1700 C1707 0.950 . S
C1701 C1699 1.387 . S
C1701 C1703 1.390 . S
C1701 H1705 0.950 . S
H1702 C1698 0.950 . S
C1703 C1701 1.390 . S
C1703 C1704 1.387 . S
C1703 H1706 0.950 . S
C1704 C1703 1.387 . S
C1704 C1707 1.387 . S
H1705 C1701 0.950 . S
H1706 C1703 0.950 . S
C1707 C1698 1.390 . S
C1707 H1700 0.950 . S
C1707 C1704 1.387 . S
C1708 C1709 1.387 . S
C1708 H1712 0.950 . S
C1708 C1717 1.390 . S
C1709 C1708 1.387 . S
C1709 C1711 1.387 . S
H1710 C1717 0.950 . S
C1711 C1709 1.387 . S
C1711 C1713 1.390 . S
C1711 H1715 0.950 . S
H1712 C1708 0.950 . S
C1713 C1711 1.390 . S
C1713 C1714 1.387 . S
C1713 H1716 0.950 . S
C1714 C1713 1.387 . S
C1714 C1717 1.387 . S
H1715 C1711 0.950 . S
H1716 C1713 0.950 . S
C1717 C1708 1.390 . S
C1717 H1710 0.950 . S
C1717 C1714 1.387 . S
C1718 C1719 1.387 . S
C1718 H1722 0.950 . S
C1718 C1727 1.390 . S
C1719 C1718 1.387 . S
C1719 C1721 1.387 . S
H1720 C1727 0.950 . S
C1721 C1719 1.387 . S
C1721 C1723 1.390 . S
C1721 H1725 0.950 . S
H1722 C1718 0.950 . S
C1723 C1721 1.390 . S
C1723 C1724 1.387 . S
C1723 H1726 0.950 . S
C1724 C1723 1.387 . S
C1724 C1727 1.387 . S
H1725 C1721 0.950 . S
H1726 C1723 0.950 . S
C1727 C1718 1.390 . S
C1727 H1720 0.950 . S
C1727 C1724 1.387 . S
C1728 C1729 1.387 . S
C1728 H1732 0.950 . S
C1728 C1737 1.390 . S
C1729 C1728 1.387 . S
C1729 C1731 1.387 . S
H1730 C1737 0.950 . S
C1731 C1729 1.387 . S
C1731 C1733 1.390 . S
C1731 H1735 0.950 . S
H1732 C1728 0.950 . S
C1733 C1731 1.390 . S
C1733 C1734 1.387 . S
C1733 H1736 0.950 . S
C1734 C1733 1.387 . S
C1734 C1737 1.387 . S
H1735 C1731 0.950 . S
H1736 C1733 0.950 . S
C1737 C1728 1.390 . S
C1737 H1730 0.950 . S
C1737 C1734 1.387 . S
C1738 C1739 1.387 . S
C1738 H1742 0.950 . S
C1738 C1747 1.390 1_455 S
C1739 C1738 1.387 . S
C1739 C1741 1.387 1_565 S
H1740 C1747 0.950 . S
C1741 C1739 1.387 1_545 S
C1741 C1743 1.390 1_455 S
C1741 H1745 0.950 . S
H1742 C1738 0.950 . S
C1743 C1741 1.390 1_655 S
C1743 C1744 1.387 . S
C1743 H1746 0.950 . S
C1744 C1743 1.387 . S
C1744 C1747 1.387 1_545 S
H1745 C1741 0.950 . S
H1746 C1743 0.950 . S
C1747 C1738 1.390 1_655 S
C1747 H1740 0.950 . S
C1747 C1744 1.387 1_565 S
C1748 C1749 1.387 . S
C1748 H1752 0.950 . S
C1748 C1757 1.390 . S
C1749 C1748 1.387 . S
C1749 C1751 1.387 . S
H1750 C1757 0.950 . S
C1751 C1749 1.387 . S
C1751 C1753 1.390 . S
C1751 H1755 0.950 . S
H1752 C1748 0.950 . S
C1753 C1751 1.390 . S
C1753 C1754 1.387 . S
C1753 H1756 0.950 . S
C1754 C1753 1.387 . S
C1754 C1757 1.387 . S
H1755 C1751 0.950 . S
H1756 C1753 0.950 . S
C1757 C1748 1.390 . S
C1757 H1750 0.950 . S
C1757 C1754 1.387 . S
C1758 C1759 1.387 1_545 S
C1758 H1762 0.950 . S
C1758 C1767 1.390 . S
C1759 C1758 1.387 1_565 S
C1759 C1761 1.387 1_556 S
H1760 C1767 0.950 . S
C1761 C1759 1.387 1_554 S
C1761 C1763 1.390 . S
C1761 H1765 0.950 . S
H1762 C1758 0.950 . S
C1763 C1761 1.390 . S
C1763 C1764 1.387 1_565 S
C1763 H1766 0.950 . S
C1764 C1763 1.387 1_545 S
C1764 C1767 1.387 1_554 S
H1765 C1761 0.950 . S
H1766 C1763 0.950 . S
C1767 C1758 1.390 . S
C1767 H1760 0.950 . S
C1767 C1764 1.387 1_556 S
C1768 C1769 1.387 . S
C1768 H1772 0.950 . S
C1768 C1777 1.390 . S
C1769 C1768 1.387 . S
C1769 C1771 1.387 . S
H1770 C1777 0.950 . S
C1771 C1769 1.387 . S
C1771 C1773 1.390 . S
C1771 H1775 0.950 . S
H1772 C1768 0.950 . S
C1773 C1771 1.390 . S
C1773 C1774 1.387 . S
C1773 H1776 0.950 . S
C1774 C1773 1.387 . S
C1774 C1777 1.387 . S
H1775 C1771 0.950 . S
H1776 C1773 0.950 . S
C1777 C1768 1.390 . S
C1777 H1770 0.950 . S
C1777 C1774 1.387 . S
C1778 C1779 1.387 1_565 S
C1778 H1782 0.950 . S
C1778 C1787 1.390 . S
C1779 C1778 1.387 1_545 S
C1779 C1781 1.387 . S
H1780 C1787 0.950 . S
C1781 C1779 1.387 . S
C1781 C1783 1.390 . S
C1781 H1785 0.950 . S
H1782 C1778 0.950 . S
C1783 C1781 1.390 . S
C1783 C1784 1.387 1_545 S
C1783 H1786 0.950 . S
C1784 C1783 1.387 1_565 S
C1784 C1787 1.387 . S
H1785 C1781 0.950 . S
H1786 C1783 0.950 . S
C1787 C1778 1.390 . S
C1787 H1780 0.950 . S
C1787 C1784 1.387 . S
C1788 C1789 1.387 . S
C1788 H1792 0.950 . S
C1788 C1797 1.390 . S
C1789 C1788 1.387 . S
C1789 C1791 1.387 . S
H1790 C1797 0.950 . S
C1791 C1789 1.387 . S
C1791 C1793 1.390 . S
C1791 H1795 0.950 . S
H1792 C1788 0.950 . S
C1793 C1791 1.390 . S
C1793 C1794 1.387 . S
C1793 H1796 0.950 . S
C1794 C1793 1.387 . S
C1794 C1797 1.387 . S
H1795 C1791 0.950 . S
H1796 C1793 0.950 . S
C1797 C1788 1.390 . S
C1797 H1790 0.950 . S
C1797 C1794 1.387 . S
C1798 C1799 1.387 1_455 S
C1798 H1802 0.950 . S
C1798 C1807 1.390 1_565 S
C1799 C1798 1.387 1_655 S
C1799 C1801 1.387 1_554 S
H1800 C1807 0.950 . S
C1801 C1799 1.387 1_556 S
C1801 C1803 1.390 1_565 S
C1801 H1805 0.950 . S
H1802 C1798 0.950 . S
C1803 C1801 1.390 1_545 S
C1803 C1804 1.387 1_655 S
C1803 H1806 0.950 . S
C1804 C1803 1.387 1_455 S
C1804 C1807 1.387 1_556 S
H1805 C1801 0.950 . S
H1806 C1803 0.950 . S
C1807 C1798 1.390 1_545 S
C1807 H1800 0.950 . S
C1807 C1804 1.387 1_554 S
C1808 C1809 1.387 . S
C1808 H1812 0.950 . S
C1808 C1817 1.390 . S
C1809 C1808 1.387 . S
C1809 C1811 1.387 . S
H1810 C1817 0.950 . S
C1811 C1809 1.387 . S
C1811 C1813 1.390 . S
C1811 H1815 0.950 . S
H1812 C1808 0.950 . S
C1813 C1811 1.390 . S
C1813 C1814 1.387 . S
C1813 H1816 0.950 . S
C1814 C1813 1.387 . S
C1814 C1817 1.387 . S
H1815 C1811 0.950 . S
H1816 C1813 0.950 . S
C1817 C1808 1.390 . S
C1817 H1810 0.950 . S
C1817 C1814 1.387 . S
C1818 C1819 1.387 . S
C1818 H1822 0.950 . S
C1818 C1827 1.390 . S
C1819 C1818 1.387 . S
C1819 C1821 1.387 . S
H1820 C1827 0.950 . S
C1821 C1819 1.387 . S
C1821 C1823 1.390 . S
C1821 H1825 0.950 . S
H1822 C1818 0.950 . S
C1823 C1821 1.390 . S
C1823 C1824 1.387 . S
C1823 H1826 0.950 . S
C1824 C1823 1.387 . S
C1824 C1827 1.387 . S
H1825 C1821 0.950 . S
H1826 C1823 0.950 . S
C1827 C1818 1.390 . S
C1827 H1820 0.950 . S
C1827 C1824 1.387 . S
C1828 C1829 1.387 . S
C1828 H1832 0.950 . S
C1828 C1837 1.390 . S
C1829 C1828 1.387 . S
C1829 C1831 1.387 . S
H1830 C1837 0.950 . S
C1831 C1829 1.387 . S
C1831 C1833 1.390 . S
C1831 H1835 0.950 . S
H1832 C1828 0.950 . S
C1833 C1831 1.390 . S
C1833 C1834 1.387 . S
C1833 H1836 0.950 . S
C1834 C1833 1.387 . S
C1834 C1837 1.387 . S
H1835 C1831 0.950 . S
H1836 C1833 0.950 . S
C1837 C1828 1.390 . S
C1837 H1830 0.950 . S
C1837 C1834 1.387 . S
C1838 C1839 1.387 . S
C1838 H1842 0.950 . S
C1838 C1847 1.390 . S
C1839 C1838 1.387 . S
C1839 C1841 1.387 . S
H1840 C1847 0.950 . S
C1841 C1839 1.387 . S
C1841 C1843 1.390 . S
C1841 H1845 0.950 . S
H1842 C1838 0.950 . S
C1843 C1841 1.390 . S
C1843 C1844 1.387 . S
C1843 H1846 0.950 . S
C1844 C1843 1.387 . S
C1844 C1847 1.387 . S
H1845 C1841 0.950 . S
H1846 C1843 0.950 . S
C1847 C1838 1.390 . S
C1847 H1840 0.950 . S
C1847 C1844 1.387 . S
C1848 C1849 1.387 . S
C1848 H1852 0.950 . S
C1848 C1857 1.390 . S
C1849 C1848 1.387 . S
C1849 C1851 1.387 1_556 S
H1850 C1857 0.950 . S
C1851 C1849 1.387 1_554 S
C1851 C1853 1.390 . S
C1851 H1855 0.950 . S
H1852 C1848 0.950 . S
C1853 C1851 1.390 . S
C1853 C1854 1.387 . S
C1853 H1856 0.950 . S
C1854 C1853 1.387 . S
C1854 C1857 1.387 1_554 S
H1855 C1851 0.950 . S
H1856 C1853 0.950 . S
C1857 C1848 1.390 . S
C1857 H1850 0.950 . S
C1857 C1854 1.387 1_556 S
C1858 C1859 1.387 . S
C1858 H1862 0.950 . S
C1858 C1867 1.390 1_655 S
C1859 C1858 1.387 . S
C1859 C1861 1.387 . S
H1860 C1867 0.950 . S
C1861 C1859 1.387 . S
C1861 C1863 1.390 1_655 S
C1861 H1865 0.950 . S
H1862 C1858 0.950 . S
C1863 C1861 1.390 1_455 S
C1863 C1864 1.387 . S
C1863 H1866 0.950 . S
C1864 C1863 1.387 . S
C1864 C1867 1.387 . S
H1865 C1861 0.950 . S
H1866 C1863 0.950 . S
C1867 C1858 1.390 1_455 S
C1867 H1860 0.950 . S
C1867 C1864 1.387 . S
C1868 C1869 1.387 . S
C1868 H1872 0.950 . S
C1868 C1877 1.390 1_455 S
C1869 C1868 1.387 . S
C1869 C1871 1.387 1_554 S
H1870 C1877 0.950 . S
C1871 C1869 1.387 1_556 S
C1871 C1873 1.390 1_455 S
C1871 H1875 0.950 . S
H1872 C1868 0.950 . S
C1873 C1871 1.390 1_655 S
C1873 C1874 1.387 . S
C1873 H1876 0.950 . S
C1874 C1873 1.387 . S
C1874 C1877 1.387 1_556 S
H1875 C1871 0.950 . S
H1876 C1873 0.950 . S
C1877 C1868 1.390 1_655 S
C1877 H1870 0.950 . S
C1877 C1874 1.387 1_554 S
C1878 C1879 1.387 . S
C1878 H1882 0.950 . S
C1878 C1887 1.390 . S
C1879 C1878 1.387 . S
C1879 C1881 1.387 . S
H1880 C1887 0.950 . S
C1881 C1879 1.387 . S
C1881 C1883 1.390 . S
C1881 H1885 0.950 . S
H1882 C1878 0.950 . S
C1883 C1881 1.390 . S
C1883 C1884 1.387 . S
C1883 H1886 0.950 . S
C1884 C1883 1.387 . S
C1884 C1887 1.387 . S
H1885 C1881 0.950 . S
H1886 C1883 0.950 . S
C1887 C1878 1.390 . S
C1887 H1880 0.950 . S
C1887 C1884 1.387 . S
C1089 C247 1.613 . S
C1094 C9 1.614 . S
C1099 C43 1.613 . S
C1104 C145 1.614 . S
C1109 C77 1.614 . S
C1114 C179 1.613 . S
C1119 C213 1.613 . S
C1124 C111 1.614 . S
C1129 C519 1.613 . S
C1134 C281 1.614 . S
C1139 C417 1.613 . S
C1144 C315 1.614 . S
C1149 C349 1.614 . S
C1154 C451 1.613 . S
C1159 C383 1.614 . S
C1164 C485 1.613 . S
C1169 C791 1.613 . S
C1174 C553 1.614 . S
C1179 C587 1.614 . S
C1184 C689 1.613 . S
C1189 C621 1.614 . S
C1194 C723 1.613 . S
C1199 C757 1.614 . S
C1204 C655 1.613 . S
C1209 C1063 1.613 . S
C1214 C825 1.614 . S
C1219 C859 1.613 . S
C1224 C961 1.614 . S
C1229 C995 1.613 . S
C1234 C893 1.614 . S
C1239 C1029 1.613 . S
C1244 C927 1.614 . S
C1249 C614 1.394 . S
C1254 C2 1.394 . S
C1259 C648 1.394 . S
C1264 C36 1.394 . S
C1269 C70 1.394 . S
C1274 C546 1.394 . S
C1279 C104 1.394 . S
C1284 C580 1.394 . S
C1289 C750 1.394 . S
C1294 C138 1.394 . S
C1299 C784 1.394 . S
C1304 C172 1.394 . S
C1309 C206 1.394 . S
C1314 C682 1.394 . S
C1319 C240 1.394 . S
C1324 C716 1.394 . S
C1329 C274 1.394 . S
C1334 C886 1.394 . S
C1339 C920 1.394 . S
C1344 C308 1.394 . S
C1349 C818 1.394 . S
C1354 C342 1.394 . S
C1359 C376 1.394 . S
C1364 C852 1.394 . S
C1369 C410 1.394 . S
C1374 C1022 1.394 . S
C1379 C1056 1.394 . S
C1384 C444 1.394 . S
C1389 C954 1.394 . S
C1394 C478 1.394 . S
C1399 C988 1.394 . S
C1404 C512 1.394 . S
C1409 C5 1.215 . S
C1414 C951 1.167 . S
C1419 C305 1.170 . S
C1424 C39 1.217 . S
C1429 C883 1.171 . S
C1434 C73 1.214 . S
C1439 C107 1.216 . S
C1444 C373 1.167 . S
C1449 C1019 1.172 . S
C1454 C141 1.215 . S
C1459 C509 1.170 . S
C1464 C175 1.217 . S
C1469 C209 1.217 . S
C1474 C1087 1.167 . S
C1479 C243 1.214 . S
C1484 C441 1.170 . S
C1489 C277 1.216 . S
C1494 C679 1.167 . S
C1499 C311 1.214 . S
C1504 C33 1.170 . S
C1509 C611 1.171 . S
C1514 C345 1.216 . S
C1519 C379 1.216 . S
C1524 C101 1.171 . S
C1529 C747 1.168 . S
C1534 C413 1.217 . S
C1539 C447 1.214 . S
C1544 C237 1.169 . S
C1549 C481 1.215 . S
C1554 C815 1.172 . S
C1559 C169 1.168 . S
C1564 C515 1.214 . S
C1569 C549 1.217 . S
C1574 C407 1.169 . S
C1579 C849 1.171 . S
C1584 C583 1.217 . S
C1589 C339 1.170 . S
C1594 C617 1.214 . S
C1599 C651 1.215 . S
C1604 C917 1.167 . S
C1609 C685 1.216 . S
C1614 C475 1.167 . S
C1619 C1053 1.168 . S
C1624 C719 1.214 . S
C1629 C753 1.217 . S
C1634 C543 1.167 . S
C1639 C985 1.171 . S
C1644 C787 1.216 . S
C1649 C135 1.172 . S
C1654 C821 1.216 . S
C1659 C577 1.167 . S
C1664 C855 1.215 . S
C1669 C67 1.171 . S
C1674 C889 1.216 . S
C1679 C645 1.170 . S
C1684 C923 1.217 . S
C1689 C957 1.214 . S
C1694 C203 1.167 . S
C1699 C781 1.172 . S
C1704 C991 1.216 . S
C1709 C271 1.171 . S
C1714 C1025 1.217 . S
C1719 C713 1.167 . S
C1724 C1059 1.214 . S
C1729 C20 1.540 . S
C1734 C836 1.540 . S
C1739 C54 1.540 . S
C1744 C326 1.540 . S
C1749 C904 1.537 . S
C1754 C88 1.537 . S
C1759 C394 1.540 . S
C1764 C122 1.540 . S
C1769 C972 1.537 . S
C1774 C156 1.537 . S
C1779 C462 1.540 . S
C1784 C190 1.540 . S
C1789 C1040 1.537 . S
C1794 C224 1.537 . S
C1799 C530 1.540 . S
C1804 C258 1.540 . S
C1809 C292 1.537 . S
C1814 C564 1.537 . S
C1819 C632 1.537 . S
C1824 C360 1.537 . S
C1829 C428 1.540 . S
C1834 C700 1.540 . S
C1839 C496 1.540 . S
C1844 C768 1.540 . S
C1849 C870 1.540 . S
C1854 C598 1.540 . S
C1859 C666 1.537 . S
C1864 C938 1.537 . S
C1869 C1006 1.540 . S
C1874 C734 1.540 . S
C1879 C1074 1.537 . S
C1884 C802 1.537 . S
