# Generated by pormake.
# Topology umz, (4)-cn, num edge types: 1
# Building blocks:
#     Node 0, Type 0, BuildingBlock: TATPOV_clean_sbu_0, # of connection points: 4
#     Node 1, Type 0, BuildingBlock: TATPOV_clean_sbu_0, # of connection points: 4
#     Node 2, Type 0, BuildingBlock: TATPOV_clean_sbu_0, # of connection points: 4
#     Node 3, Type 0, BuildingBlock: TATPOV_clean_sbu_0, # of connection points: 4
#     Node 4, Type 0, BuildingBlock: TATPOV_clean_sbu_0, # of connection points: 4
#     Node 5, Type 0, BuildingBlock: TATPOV_clean_sbu_0, # of connection points: 4
#     Node 6, Type 0, BuildingBlock: TATPOV_clean_sbu_0, # of connection points: 4
#     Node 7, Type 0, BuildingBlock: TATPOV_clean_sbu_0, # of connection points: 4
#     Node 8, Type 0, BuildingBlock: TATPOV_clean_sbu_0, # of connection points: 4
#     Node 9, Type 0, BuildingBlock: TATPOV_clean_sbu_0, # of connection points: 4
#     Node 10, Type 0, BuildingBlock: TATPOV_clean_sbu_0, # of connection points: 4
#     Node 11, Type 0, BuildingBlock: TATPOV_clean_sbu_0, # of connection points: 4
#     Node 12, Type 0, BuildingBlock: TATPOV_clean_sbu_0, # of connection points: 4
#     Node 13, Type 0, BuildingBlock: TATPOV_clean_sbu_0, # of connection points: 4
#     Node 14, Type 0, BuildingBlock: TATPOV_clean_sbu_0, # of connection points: 4
#     Node 15, Type 0, BuildingBlock: TATPOV_clean_sbu_0, # of connection points: 4
#     Edge 16, Type (0, 0), BuildingBlock: OJICUG_clean_linker_0, # of connection points: 2
#     Edge 17, Type (0, 0), BuildingBlock: OJICUG_clean_linker_0, # of connection points: 2
#     Edge 18, Type (0, 0), BuildingBlock: OJICUG_clean_linker_0, # of connection points: 2
#     Edge 19, Type (0, 0), BuildingBlock: OJICUG_clean_linker_0, # of connection points: 2
#     Edge 20, Type (0, 0), BuildingBlock: OJICUG_clean_linker_0, # of connection points: 2
#     Edge 21, Type (0, 0), BuildingBlock: OJICUG_clean_linker_0, # of connection points: 2
#     Edge 22, Type (0, 0), BuildingBlock: OJICUG_clean_linker_0, # of connection points: 2
#     Edge 23, Type (0, 0), BuildingBlock: OJICUG_clean_linker_0, # of connection points: 2
#     Edge 24, Type (0, 0), BuildingBlock: OJICUG_clean_linker_0, # of connection points: 2
#     Edge 25, Type (0, 0), BuildingBlock: OJICUG_clean_linker_0, # of connection points: 2
#     Edge 26, Type (0, 0), BuildingBlock: OJICUG_clean_linker_0, # of connection points: 2
#     Edge 27, Type (0, 0), BuildingBlock: OJICUG_clean_linker_0, # of connection points: 2
#     Edge 28, Type (0, 0), BuildingBlock: OJICUG_clean_linker_0, # of connection points: 2
#     Edge 29, Type (0, 0), BuildingBlock: OJICUG_clean_linker_0, # of connection points: 2
#     Edge 30, Type (0, 0), BuildingBlock: OJICUG_clean_linker_0, # of connection points: 2
#     Edge 31, Type (0, 0), BuildingBlock: OJICUG_clean_linker_0, # of connection points: 2
#     Edge 32, Type (0, 0), BuildingBlock: OJICUG_clean_linker_0, # of connection points: 2
#     Edge 33, Type (0, 0), BuildingBlock: OJICUG_clean_linker_0, # of connection points: 2
#     Edge 34, Type (0, 0), BuildingBlock: OJICUG_clean_linker_0, # of connection points: 2
#     Edge 35, Type (0, 0), BuildingBlock: OJICUG_clean_linker_0, # of connection points: 2
#     Edge 36, Type (0, 0), BuildingBlock: OJICUG_clean_linker_0, # of connection points: 2
#     Edge 37, Type (0, 0), BuildingBlock: OJICUG_clean_linker_0, # of connection points: 2
#     Edge 38, Type (0, 0), BuildingBlock: OJICUG_clean_linker_0, # of connection points: 2
#     Edge 39, Type (0, 0), BuildingBlock: OJICUG_clean_linker_0, # of connection points: 2
#     Edge 40, Type (0, 0), BuildingBlock: OJICUG_clean_linker_0, # of connection points: 2
#     Edge 41, Type (0, 0), BuildingBlock: OJICUG_clean_linker_0, # of connection points: 2
#     Edge 42, Type (0, 0), BuildingBlock: OJICUG_clean_linker_0, # of connection points: 2
#     Edge 43, Type (0, 0), BuildingBlock: OJICUG_clean_linker_0, # of connection points: 2
#     Edge 44, Type (0, 0), BuildingBlock: OJICUG_clean_linker_0, # of connection points: 2
#     Edge 45, Type (0, 0), BuildingBlock: OJICUG_clean_linker_0, # of connection points: 2
#     Edge 46, Type (0, 0), BuildingBlock: OJICUG_clean_linker_0, # of connection points: 2
#     Edge 47, Type (0, 0), BuildingBlock: OJICUG_clean_linker_0, # of connection points: 2
# Relax obj value: 0.189
# Max RMSD: 0.158
# Mean RMSD: 0.158
data_MOF--net-umz--node1-TATPOV_clean_sbu_0--edge1-OJICUG_clean_linker_0
_symmetry_space_group_name_H-M    P1
_symmetry_Int_Tables_number       1
_symmetry_cell_setting            triclinic
loop_
_symmetry_equiv_pos_as_xyz
'x, y, z'
_cell_length_a     42.931638
_cell_length_b     42.937734
_cell_length_c     15.958753
_cell_angle_alpha  90.062836
_cell_angle_beta   89.894009
_cell_angle_gamma 89.930566
loop_
_atom_site_label
_atom_site_type_symbol
_atom_site_fract_x
_atom_site_fract_y
_atom_site_fract_z
_atom_type_partial_charge
Zn0 Zn 0.98937 0.58181 0.9572 0.0
Zn1 Zn 0.01687 0.63189 -0.00567 0.0
O2 O 0.9768 0.62655 0.06794 0.0
O3 O 0.94982 0.58682 0.02192 0.0
O4 O 0.02604 0.67817 0.00392 0.0
O5 O 0.99041 0.58545 0.83314 0.0
O6 O 0.02244 0.62307 0.86695 0.0
C7 C 0.95291 0.60896 0.07343 0.0
C8 C 0.04923 0.57658 0.05312 0.0
O9 O 0.04999 0.60628 0.05262 0.0
O10 O 0.027 0.56228 0.01725 0.0
C11 C 1.00274 0.69497 0.98419 0.0
O12 O 0.9769 0.68109 0.96084 0.0
C13 C 1.01074 0.60512 0.81168 0.0
Zn14 Zn 0.94225 0.98748 0.47133 0.0
Zn15 Zn 0.89168 0.01495 0.50576 0.0
O16 O 0.89642 0.97544 0.58143 0.0
O17 O 0.93694 0.94871 0.53869 0.0
O18 O 0.84537 0.02428 0.51282 0.0
O19 O 0.93886 0.98689 0.34726 0.0
O20 O 0.90072 0.01886 0.37813 0.0
C21 C 0.91427 0.95178 0.58861 0.0
C22 C 0.94676 0.0483 0.56317 0.0
O23 O 0.91704 0.04874 0.5626 0.0
O24 O 0.96136 0.02589 0.52868 0.0
C25 C 0.82895 1.00113 0.48988 0.0
O26 O 0.84329 0.97557 0.4658 0.0
C27 C 0.91887 1.00663 0.32397 0.0
Zn28 Zn 0.53474 0.94181 0.96392 0.0
Zn29 Zn 0.50696 0.89176 -4e-05 0.0
O30 O 0.54663 0.89684 0.07487 0.0
O31 O 0.57376 0.93674 0.03055 0.0
O32 O 0.49802 0.8454 0.00808 0.0
O33 O 0.53477 0.93806 0.83978 0.0
O34 O 0.50234 0.90063 0.87239 0.0
C35 C 0.57046 0.91444 0.08137 0.0
C36 C 0.47415 0.94711 0.05743 0.0
O37 O 0.47343 0.9174 0.05738 0.0
O38 O 0.49658 0.96133 0.0221 0.0
C39 C 0.52132 0.82912 0.98507 0.0
O40 O 0.54661 0.84362 0.95993 0.0
C41 C 0.51453 0.91843 0.81753 0.0
Zn42 Zn 0.58434 0.53445 0.4682 0.0
Zn43 Zn 0.63432 0.50647 0.50379 0.0
O44 O 0.62947 0.54629 0.57881 0.0
O45 O 0.58961 0.57352 0.53453 0.0
O46 O 0.68065 0.49698 0.51121 0.0
O47 O 0.58784 0.53437 0.34408 0.0
O48 O 0.62526 0.50182 0.37629 0.0
C49 C 0.61192 0.57022 0.58525 0.0
C50 C 0.57886 0.47406 0.56181 0.0
O51 O 0.60857 0.47317 0.56146 0.0
O52 O 0.56468 0.49653 0.5266 0.0
C53 C 0.69731 0.52025 0.49044 0.0
O54 O 0.68324 0.54612 0.46801 0.0
C55 C 0.60741 0.51403 0.32162 0.0
Zn56 Zn 0.98804 0.94252 0.02204 0.0
Zn57 Zn 0.01637 0.8927 0.98514 0.0
O58 O 0.97633 0.89733 0.91152 0.0
O59 O 0.94887 0.93699 0.95649 0.0
O60 O 0.02604 0.84651 0.97567 0.0
O61 O 0.98847 0.93848 0.146 0.0
O62 O 0.02121 0.9013 0.11277 0.0
C63 C 0.95224 0.91466 0.90568 0.0
C64 C 0.04824 0.94855 0.92746 0.0
O65 O 0.04935 0.91885 0.92738 0.0
O66 O 0.02571 0.96254 0.96324 0.0
C67 C 1.00297 0.8298 -0.00223 0.0
O68 O 0.97739 0.84382 0.02309 0.0
C69 C 1.00889 0.91897 0.16789 0.0
Zn70 Zn 0.58099 0.98716 0.51828 0.0
Zn71 Zn 0.6311 0.01498 0.48218 0.0
O72 O 0.62603 0.9755 0.40629 0.0
O73 O 0.58617 0.9483 0.45069 0.0
O74 O 0.67737 0.02429 0.47383 0.0
O75 O 0.58483 0.98694 0.64242 0.0
O76 O 0.62238 0.01925 0.60991 0.0
C77 C 0.60841 0.95169 0.39956 0.0
C78 C 0.57567 0.04788 0.42609 0.0
O79 O 0.60538 0.04859 0.42599 0.0
O80 O 0.56143 0.02539 0.461 0.0
C81 C 0.69402 1.00089 0.49369 0.0
O82 O 0.67995 0.97499 0.51581 0.0
C83 C 0.60459 1.00704 0.66479 0.0
Zn84 Zn 0.53856 0.58087 0.02065 0.0
Zn85 Zn 0.51059 0.63091 0.98494 0.0
O86 O 0.5503 0.62599 0.90948 0.0
O87 O 0.57752 0.5861 0.95369 0.0
O88 O 0.50073 0.67711 0.97621 0.0
O89 O 0.53865 0.5846 0.1447 0.0
O90 O 0.50618 0.62212 0.11268 0.0
C91 C 0.57419 0.60839 0.90287 0.0
C92 C 0.47806 0.57532 0.92815 0.0
O93 O 0.47724 0.60502 0.92828 0.0
O94 O 0.50056 0.56111 0.96307 0.0
C95 C 0.52393 0.69423 -0.00536 0.0
O96 O 0.55019 0.68069 0.01618 0.0
C97 C 0.51843 0.60426 0.16731 0.0
Zn98 Zn 0.94486 0.53494 0.50776 0.0
Zn99 Zn 0.89508 0.50651 0.47404 0.0
O100 O 0.89907 0.54613 0.39816 0.0
O101 O 0.93898 0.57365 0.44054 0.0
O102 O 0.8488 0.49679 0.46837 0.0
O103 O 0.94178 0.53562 0.63188 0.0
O104 O 0.90466 0.50256 0.60148 0.0
C105 C 0.9164 0.57013 0.39081 0.0
C106 C 0.95063 0.47412 0.41582 0.0
O107 O 0.92093 0.47311 0.4164 0.0
O108 O 0.96469 0.49681 0.45034 0.0
C109 C 0.8323 0.51986 0.49198 0.0
O110 O 0.84656 0.54543 0.51594 0.0
C111 C 0.92251 0.51523 0.65538 0.0
Zn112 Zn 0.04023 0.44464 0.01123 0.0
Zn113 Zn 0.01367 0.39347 0.97256 0.0
O114 O 0.0543 0.39887 0.9015 0.0
O115 O 0.07961 0.44003 0.9454 0.0
O116 O 1.00401 0.34757 0.95492 0.0
O117 O 0.0393 0.43942 0.13497 0.0
O118 O 1.0083 0.40097 0.10078 0.0
C119 C 0.07761 0.41721 0.89567 0.0
C120 C 0.98052 0.44947 0.91646 0.0
O121 O 0.98063 0.41977 0.91548 0.0
O122 O 1.0023 0.46417 0.95306 0.0
C123 C 0.99175 0.32947 0.00888 0.0
O124 O 0.98205 0.34101 0.08059 0.0
C125 C 0.01974 0.41897 0.15633 0.0
Zn126 Zn 0.08034 0.03685 0.52027 0.0
Zn127 Zn 0.13085 1.00966 0.48452 0.0
O128 O 0.1258 0.04942 0.40959 0.0
O129 O 0.08522 0.07584 0.45338 0.0
O130 O 0.17716 1.00035 0.47662 0.0
O131 O 0.08385 0.037 0.64443 0.0
O132 O 0.12181 1.00502 0.61209 0.0
C133 C 0.10779 0.073 0.40302 0.0
C134 C 0.07586 0.97626 0.42735 0.0
O135 O 0.10558 0.97598 0.42723 0.0
O136 O 0.06125 0.99851 0.46256 0.0
C137 C 0.1938 0.02332 0.49963 0.0
O138 O 0.17971 0.04893 0.52444 0.0
C139 C 0.10372 0.01699 0.66682 0.0
Zn140 Zn 0.48824 0.08059 0.01892 0.0
Zn141 Zn 0.5164 0.13056 0.98317 0.0
O142 O 0.47683 0.12587 0.9077 0.0
O143 O 0.44942 0.08611 0.95171 0.0
O144 O 0.52606 0.17676 0.97514 0.0
O145 O 0.48804 0.08438 0.14308 0.0
O146 O 0.52058 0.12176 0.11081 0.0
C147 C 0.4529 0.1084 0.90097 0.0
C148 C 0.54891 0.07488 0.92621 0.0
O149 O 0.5498 0.10458 0.92638 0.0
O150 O 0.52633 0.06078 0.96119 0.0
C151 C 0.5029 0.19353 -0.00349 0.0
O152 O 0.47707 0.17959 0.01989 0.0
C153 C 0.50825 0.10401 0.16555 0.0
Zn154 Zn 0.44518 0.48762 0.52085 0.0
Zn155 Zn 0.39484 0.51572 0.48585 0.0
O156 O 0.39871 0.47554 0.41181 0.0
O157 O 0.43937 0.44887 0.45347 0.0
O158 O 0.34895 0.52712 0.47919 0.0
O159 O 0.44147 0.48751 0.64501 0.0
O160 O 0.40395 0.52001 0.61327 0.0
C161 C 0.41652 0.45184 0.40431 0.0
C162 C 0.45084 0.54785 0.42786 0.0
O163 O 0.42114 0.54858 0.42801 0.0
O164 O 0.46511 0.52549 0.46323 0.0
C165 C 0.33274 0.52133 0.41442 0.0
O166 O 0.34668 0.5102 0.34742 0.0
C167 C 0.42182 0.50773 0.66775 0.0
Zn168 Zn 0.03431 0.08155 0.96932 0.0
Zn169 Zn 1.00546 0.13138 0.00681 0.0
O170 O 0.04581 0.12831 0.07973 0.0
O171 O 0.07291 0.08805 0.03664 0.0
O172 O 0.99257 0.1767 0.01971 0.0
O173 O 0.03416 0.08614 0.84534 0.0
O174 O 1.00087 0.12283 0.8789 0.0
C175 C 0.06976 0.11079 0.08629 0.0
C176 C 0.97452 0.07424 0.0628 0.0
O177 O 0.97346 0.10391 0.0639 0.0
O178 O 0.99698 0.06039 0.0264 0.0
C179 C 1.00362 0.19599 0.96691 0.0
O180 O 0.02184 0.18551 0.90691 0.0
C181 C 0.01348 0.10543 0.82359 0.0
Zn182 Zn 0.44185 0.03531 0.46443 0.0
Zn183 Zn 0.39168 1.0078 0.50105 0.0
O184 O 0.39718 0.04737 0.57643 0.0
O185 O 0.43709 0.07437 0.53143 0.0
O186 O 0.3453 0.99891 0.51006 0.0
O187 O 0.43798 0.03532 0.34033 0.0
O188 O 0.40039 1.00311 0.37332 0.0
C189 C 0.41491 0.07112 0.5828 0.0
C190 C 0.44692 0.97471 0.55739 0.0
O191 O 0.41721 0.97414 0.55766 0.0
O192 O 0.46124 0.99708 0.52211 0.0
C193 C 0.32874 0.02254 0.49171 0.0
O194 O 0.34288 0.04846 0.47016 0.0
C195 C 0.41822 0.01518 0.31827 0.0
Zn196 Zn 0.49023 0.44141 0.96876 0.0
Zn197 Zn 0.51785 0.39125 0.00454 0.0
O198 O 0.47809 0.39643 0.07976 0.0
O199 O 0.45114 0.4365 0.03558 0.0
O200 O 0.52696 0.3449 0.01228 0.0
O201 O 0.49034 0.43778 0.84456 0.0
O202 O 0.5227 0.40024 0.87704 0.0
C203 C 0.4543 0.41417 0.08635 0.0
C204 C 0.55077 0.4464 0.06188 0.0
O205 O 0.55138 0.41669 0.06184 0.0
O206 O 0.52839 0.46075 0.02674 0.0
C207 C 0.50364 0.32845 -0.00912 0.0
O208 O 0.47799 0.34274 0.96757 0.0
C209 C 0.51063 0.41813 0.82225 0.0
Zn210 Zn 0.0871 0.48843 0.46101 0.0
Zn211 Zn 0.13625 0.51762 0.49397 0.0
O212 O 0.13347 0.47802 0.57032 0.0
O213 O 0.09381 0.44997 0.52866 0.0
O214 O 0.18236 0.52872 0.49482 0.0
O215 O 0.0889 0.4877 0.33647 0.0
O216 O 0.12441 0.5223 0.36798 0.0
C217 C 0.11636 0.45387 0.5783 0.0
C218 C 0.08076 0.54905 0.55424 0.0
O219 O 0.11045 0.55041 0.55374 0.0
O220 O 0.06697 0.52631 0.51914 0.0
C221 C 0.19828 0.51568 0.43712 0.0
O222 O 0.184 0.49697 0.38457 0.0
C223 C 0.10689 0.50935 0.31381 0.0
C224 C 0.03205 0.74595 0.98882 0.0
C225 C 1.00375 0.72944 0.98855 0.0
H226 H 0.05415 0.79091 -0.00963 0.0
C227 C 0.97567 0.74623 -0.00899 0.0
H228 H 0.05406 0.73362 0.98662 0.0
C229 C 0.97573 0.77866 -0.00581 0.0
C230 C 1.00386 0.79532 -0.00635 0.0
H231 H 0.95346 0.73428 -0.00885 0.0
H232 H 0.95355 0.79071 -0.00368 0.0
C233 C 0.0321 0.77868 -0.00949 0.0
C234 C 0.74532 0.97383 0.48936 0.0
C235 C 0.72852 1.0019 0.49141 0.0
H236 H 0.78984 0.95172 0.48681 0.0
C237 C 0.74503 0.03019 0.49312 0.0
H238 H 0.73338 0.95163 0.48775 0.0
C239 C 0.77777 0.03023 0.49385 0.0
C240 C 0.79444 1.002 0.49127 0.0
H241 H 0.73268 0.05219 0.49507 0.0
H242 H 0.78999 0.05227 0.49554 0.0
C243 C 0.77778 0.97389 0.48865 0.0
C244 C 0.54943 0.77835 0.98526 0.0
C245 C 0.52103 0.7946 0.98793 0.0
H246 H 0.57246 0.73429 0.9857 0.0
C247 C 0.49311 0.77753 -0.00792 0.0
H248 H 0.57138 0.79071 0.98226 0.0
C249 C 0.49372 0.7448 -0.00719 0.0
C250 C 0.52229 0.7287 -0.00896 0.0
H251 H 0.47086 0.78943 -0.00614 0.0
H252 H 0.47194 0.73214 -0.00408 0.0
C253 C 0.55006 0.7459 0.98744 0.0
C254 C 0.7486 0.5472 0.49369 0.0
C255 C 0.73182 0.51915 0.49217 0.0
H256 H 0.79309 0.56927 0.49531 0.0
C257 C 0.74838 0.49085 0.49043 0.0
H258 H 0.73664 0.56942 0.49532 0.0
C259 C 0.78113 0.49077 0.48912 0.0
C260 C 0.79777 0.51898 0.49119 0.0
H261 H 0.73605 0.46886 0.48888 0.0
H262 H 0.79338 0.46871 0.4874 0.0
C263 C 0.78107 0.54711 0.49387 0.0
C264 C 0.98017 0.27478 0.05605 0.0
C265 C 0.99186 0.29527 -0.00518 0.0
H266 H 0.97452 0.22734 0.09532 0.0
C267 C 1.00557 0.28266 0.92227 0.0
H268 H 0.96941 0.28368 0.11266 0.0
C269 C 1.00861 0.25044 0.91259 0.0
C270 C 0.99789 0.22996 0.97499 0.0
H271 H 0.01476 0.29769 0.8737 0.0
H272 H 0.01993 0.24164 0.85665 0.0
C273 C 0.98309 0.24246 0.04616 0.0
C274 C 0.27767 0.04996 0.49944 0.0
C275 C 0.29424 0.02178 0.49521 0.0
H276 H 0.23335 0.0724 0.50466 0.0
C277 C 0.27749 0.99365 0.4925 0.0
H278 H 0.2898 0.07205 0.50194 0.0
C279 C 0.24475 0.99387 0.49281 0.0
C280 C 0.22831 0.0222 0.49745 0.0
H281 H 0.28965 0.97157 0.48888 0.0
H282 H 0.23235 0.97194 0.49022 0.0
C283 C 0.24521 0.05016 0.50119 0.0
C284 C 0.47602 0.24495 -0.00565 0.0
C285 C 0.50404 0.22803 -0.0058 0.0
H286 H 0.45407 0.28955 -0.00702 0.0
C287 C 0.5324 0.24443 -0.00658 0.0
H288 H 0.45376 0.2331 -0.00529 0.0
C289 C 0.53258 0.27717 -0.00629 0.0
C290 C 0.5044 0.29395 -0.00687 0.0
H291 H 0.55437 0.232 -0.00636 0.0
H292 H 0.55468 0.2893 -0.00667 0.0
C293 C 0.4762 0.2774 -0.00683 0.0
C294 C 0.28264 0.53437 0.4896 0.0
C295 C 0.2982 0.52316 0.41784 0.0
H296 H 0.23875 0.54109 0.55204 0.0
C297 C 0.2804 0.51154 0.35103 0.0
H298 H 0.29566 0.54353 0.54219 0.0
C299 C 0.24799 0.50991 0.35704 0.0
C300 C 0.23244 0.52011 0.4297 0.0
H301 H 0.29151 0.50277 0.29476 0.0
H302 H 0.23515 0.50012 0.30494 0.0
C303 C 0.25004 0.53299 0.49531 0.0
C304 C 1.01176 0.58332 0.6673 0.0
C305 C 0.02651 0.60075 0.73014 0.0
H306 H 0.0174 0.55362 0.56108 0.0
C307 C 0.05862 0.60673 0.72295 0.0
H308 H 0.987 0.57867 0.67067 0.0
C309 C 0.07628 0.59199 0.66061 0.0
C310 C 0.06199 0.5713 0.60429 0.0
H311 H 0.07067 0.62014 0.77039 0.0
H312 H 0.10135 0.5948 0.66107 0.0
C313 C 0.0293 0.56879 0.60483 0.0
C314 C 0.95532 0.02303 0.11618 0.0
C315 C 0.95231 0.05565 0.11318 0.0
H316 H 0.94583 0.98142 0.18517 0.0
C317 C 0.93114 0.0703 0.1678 0.0
H318 H 0.97087 1.01084 0.07377 0.0
C319 C 0.91648 0.05321 0.23116 0.0
C320 C 0.92303 0.02133 0.2411 0.0
H321 H 0.92788 0.09531 0.16622 0.0
H322 H 0.90272 0.06565 0.27732 0.0
C323 C 0.94084 1.00605 0.1797 0.0
C324 C 0.46733 0.91696 0.72676 0.0
C325 C 0.49944 0.92268 0.73522 0.0
H326 H 0.42516 0.92919 0.66313 0.0
C327 C 0.51481 0.93976 0.6727 0.0
H328 H 0.45482 0.90381 0.77388 0.0
C329 C 0.49785 0.95429 0.60932 0.0
C330 C 0.46514 0.95215 0.60762 0.0
H331 H 0.53959 0.94416 0.67704 0.0
H332 H 0.51021 0.96926 0.56593 0.0
C333 C 0.45026 0.93173 0.66356 0.0
C334 C 0.59384 0.44968 0.16773 0.0
C335 C 0.57335 0.46458 0.11208 0.0
H336 H 0.62194 0.45423 0.27768 0.0
C337 C 0.57123 0.49729 0.11389 0.0
H338 H 0.59637 0.42458 0.16717 0.0
C339 C 0.58587 0.51426 0.17711 0.0
C340 C 0.60304 0.49888 0.23936 0.0
H341 H 0.55621 0.50966 0.07069 0.0
H342 H 0.58148 0.53904 0.18155 0.0
C343 C 0.60872 0.46676 0.23076 0.0
C344 C 0.07313 0.93318 0.32115 0.0
C345 C 0.05797 0.95341 0.37727 0.0
H346 H 0.06891 0.90515 0.21081 0.0
C347 C 0.02523 0.95502 0.37603 0.0
H348 H 0.09827 0.93105 0.32127 0.0
C349 C 1.00843 0.94015 0.31289 0.0
C350 C 0.02401 0.92331 0.25011 0.0
H351 H 0.01268 0.96981 0.41962 0.0
H352 H 0.98357 0.94416 0.30887 0.0
C353 C 0.05622 0.9181 0.25815 0.0
C354 C 0.56885 0.0238 0.8735 0.0
C355 C 0.57134 0.05648 0.87573 0.0
H356 H 0.57857 0.98205 0.80503 0.0
C357 C 0.59197 0.0712 0.82002 0.0
H358 H 0.55372 1.01156 0.91674 0.0
C359 C 0.60659 0.05406 0.75647 0.0
C360 C 0.6005 0.02204 0.74743 0.0
H361 H 0.59479 0.09626 0.82088 0.0
H362 H 0.61991 0.0665 0.70954 0.0
C363 C 0.58324 1.00677 0.80978 0.0
C364 C 0.50178 0.56808 0.37522 0.0
C365 C 0.46907 0.57032 0.37734 0.0
H366 H 0.5435 0.57824 0.3072 0.0
C367 C 0.45419 0.59087 0.3218 0.0
H368 H 0.51413 0.55301 0.4183 0.0
C369 C 0.47125 0.60572 0.25862 0.0
C370 C 0.50335 0.59995 0.24975 0.0
H371 H 0.42909 0.59349 0.32258 0.0
H372 H 0.45872 0.61898 0.21181 0.0
C373 C 0.51873 0.5827 0.31187 0.0
C374 C 0.95948 0.49995 0.86293 0.0
C375 C 0.95773 0.46724 0.86583 0.0
H376 H 0.94849 0.54123 0.79413 0.0
C377 C 0.93727 0.45186 0.81103 0.0
H378 H 0.97446 0.51268 0.90543 0.0
C379 C 0.92203 0.46845 0.74775 0.0
C380 C 0.9273 0.50057 0.73804 0.0
H381 H 0.935 0.42674 0.8125 0.0
H382 H 0.90883 0.45555 0.70152 0.0
C383 C 0.94445 0.51643 0.79946 0.0
C384 C 0.01922 0.43945 0.30204 0.0
C385 C 1.00426 0.42254 0.23854 0.0
H386 H 0.01393 0.46867 0.40934 0.0
C387 C 0.97212 0.41672 0.24584 0.0
H388 H 0.04401 0.44396 0.29855 0.0
C389 C 0.95464 0.4313 0.30885 0.0
C390 C 0.96915 0.45163 0.36573 0.0
H391 H 0.95991 0.40371 0.19788 0.0
H392 H 0.92954 0.42876 0.30836 0.0
C393 C 1.00186 0.4538 0.3652 0.0
C394 C 0.09116 0.95251 0.82087 0.0
C395 C 0.07042 0.9671 0.87675 0.0
H396 H 0.11918 0.95746 0.71065 0.0
C397 C 0.06768 0.99976 0.87484 0.0
H398 H 0.09415 0.92746 0.82146 0.0
C399 C 0.08202 0.01692 0.81144 0.0
C400 C 0.0995 1.00181 0.74909 0.0
H401 H 0.05245 1.0119 0.91817 0.0
H402 H 0.0772 0.04162 0.80701 0.0
C403 C 0.10573 0.96979 0.75766 0.0
C404 C 0.52472 0.0681 0.3738 0.0
C405 C 0.55741 0.07042 0.37594 0.0
H406 H 0.48305 0.07806 0.30559 0.0
C407 C 0.57227 0.091 0.32038 0.0
H408 H 0.51237 0.05302 0.41691 0.0
C409 C 0.55523 0.10573 0.25707 0.0
C410 C 0.52319 0.09981 0.24809 0.0
H411 H 0.59735 0.09368 0.32118 0.0
H412 H 0.56777 0.119 0.21023 0.0
C413 C 0.50779 0.0826 0.3103 0.0
C414 C 0.44343 0.50739 0.81221 0.0
C415 C 0.42612 0.52275 0.75024 0.0
H416 H 0.47312 0.51202 0.91857 0.0
C417 C 0.42016 0.5548 0.75935 0.0
H418 H 0.44801 0.48265 0.80738 0.0
C419 C 0.43492 0.57187 0.82259 0.0
C420 C 0.45557 0.55703 0.87792 0.0
H421 H 0.40681 0.56731 0.71267 0.0
H422 H 0.43217 0.59695 0.82351 0.0
C423 C 0.45797 0.52434 0.87564 0.0
C424 C 0.94944 0.09138 0.66942 0.0
C425 C 0.96463 0.07112 0.61344 0.0
H426 H 0.95355 0.11938 0.77988 0.0
C427 C 0.99737 0.06941 0.61513 0.0
H428 H 0.9243 0.09359 0.66898 0.0
C429 C 0.0141 0.08419 0.67855 0.0
C430 C 0.99846 0.10107 0.74119 0.0
H431 H 1.00994 0.05459 0.57167 0.0
H432 H 0.03894 0.0801 0.68285 0.0
C433 C 0.96628 0.10638 0.7327 0.0
C434 C 0.41655 0.96788 0.22752 0.0
C435 C 0.42236 0.99998 0.23589 0.0
H436 H 0.42863 0.9256 0.16378 0.0
C437 C 0.43945 0.01522 0.17316 0.0
H438 H 0.40339 0.95546 0.27482 0.0
C439 C 0.4539 0.99815 0.10962 0.0
C440 C 0.45167 0.96545 0.10796 0.0
H441 H 0.44393 0.03999 0.17743 0.0
H442 H 0.46887 1.01041 0.06603 0.0
C443 C 0.43123 0.95069 0.16416 0.0
C444 C 0.55802 0.41655 0.73162 0.0
C445 C 0.52591 0.42243 0.74005 0.0
H446 H 0.60032 0.42852 0.66794 0.0
C447 C 0.5107 0.43963 0.67759 0.0
H448 H 0.57042 0.40331 0.77872 0.0
C449 C 0.5278 0.45407 0.6142 0.0
C450 C 0.5605 0.45171 0.61242 0.0
H451 H 0.48593 0.44417 0.6819 0.0
H452 H 0.51555 0.4691 0.57079 0.0
C453 C 0.57523 0.43122 0.66841 0.0
C454 C 0.08381 0.50899 0.17085 0.0
C455 C 0.10133 0.52451 0.23213 0.0
H456 H 0.05393 0.5133 0.0648 0.0
C457 C 0.10705 0.55657 0.22269 0.0
H458 H 0.07946 0.48424 0.17588 0.0
C459 C 0.09212 0.57345 0.15944 0.0
C460 C 0.07149 0.55843 0.1044 0.0
H461 H 0.12058 0.56919 0.26876 0.0
H462 H 0.09485 0.59852 0.15799 0.0
C463 C 0.06908 0.52576 0.10743 0.0
C464 C 0.90072 0.57708 0.24115 0.0
C465 C 0.91569 0.58888 0.31274 0.0
H466 H 0.90045 0.57483 0.10723 0.0
C467 C 0.93614 0.61423 0.30327 0.0
H468 H 0.88448 0.55788 0.2461 0.0
C469 C 0.9452 0.62411 0.22336 0.0
C470 C 0.93413 0.60862 0.15167 0.0
H471 H 0.94763 0.62429 0.35725 0.0
H472 H 0.96345 0.64141 0.21844 0.0
C473 C 0.90995 0.58681 0.16121 0.0
C474 C 0.93517 0.90831 0.67638 0.0
C475 C 0.91406 0.93315 0.66689 0.0
H476 H 0.96335 0.88204 0.76111 0.0
C477 C 0.89892 0.94481 0.73859 0.0
H478 H 0.94681 0.89836 0.62233 0.0
C479 C 0.90858 0.93557 0.81849 0.0
C480 C 0.93334 0.91436 0.82787 0.0
H481 H 0.88218 0.96362 0.73365 0.0
H482 H 0.89889 0.94748 0.87247 0.0
C483 C 0.94464 0.89889 0.75627 0.0
C484 C 0.61383 0.93559 0.16921 0.0
C485 C 0.58912 0.91439 0.15964 0.0
H486 H 0.64024 0.96356 0.2542 0.0
C487 C 0.57771 0.89906 0.23121 0.0
H488 H 0.62358 0.94741 0.11529 0.0
C489 C 0.58715 0.90849 0.31118 0.0
C490 C 0.60833 0.93321 0.32085 0.0
H491 H 0.559 0.88225 0.22622 0.0
H492 H 0.57547 0.89859 0.36515 0.0
C493 C 0.62346 0.94483 0.24918 0.0
C494 C 0.59078 0.6138 0.67286 0.0
C495 C 0.61198 0.58901 0.66342 0.0
H496 H 0.56263 0.64029 0.75765 0.0
C497 C 0.62722 0.57763 0.73508 0.0
H498 H 0.57903 0.62353 0.61885 0.0
C499 C 0.61766 0.58715 0.81498 0.0
C500 C 0.59287 0.60836 0.82447 0.0
H501 H 0.64404 0.55888 0.73019 0.0
H502 H 0.62748 0.57549 0.869 0.0
C503 C 0.58139 0.62348 0.75276 0.0
C504 C 0.13091 0.44842 0.72925 0.0
C505 C 0.11687 0.43569 0.65743 0.0
H506 H 0.12976 0.45198 0.86297 0.0
C507 C 0.09672 0.41011 0.66727 0.0
H508 H 0.14685 0.46786 0.72414 0.0
C509 C 0.08699 0.40086 0.74721 0.0
C510 C 0.09709 0.4172 0.81858 0.0
H511 H 0.0859 0.39937 0.61321 0.0
H512 H 0.06895 0.38333 0.75203 0.0
C513 C 0.121 0.43933 0.80919 0.0
C514 C 0.11361 0.09023 0.17344 0.0
C515 C 0.08861 0.1112 0.16426 0.0
H516 H 0.14016 0.06211 0.25779 0.0
C517 C 0.07695 0.12617 0.23621 0.0
H518 H 0.12355 0.07867 0.11924 0.0
C519 C 0.08637 0.11649 0.31598 0.0
C520 C 0.10778 0.09188 0.32507 0.0
H521 H 0.05801 0.14277 0.2316 0.0
H522 H 0.07447 0.12606 0.37014 0.0
C523 C 0.1232 0.08073 0.25321 0.0
C524 C 0.39979 0.07835 0.73301 0.0
C525 C 0.41514 0.08969 0.66135 0.0
H526 H 0.39946 0.07598 0.86692 0.0
C527 C 0.43658 0.1142 0.67095 0.0
H528 H 0.3828 0.05981 0.72802 0.0
C529 C 0.44602 0.12365 0.75091 0.0
C530 C 0.43434 0.10856 0.82254 0.0
H531 H 0.44843 0.12389 0.61698 0.0
H532 H 0.46491 0.14025 0.75588 0.0
C533 C 0.40941 0.08762 0.81297 0.0
C534 C 0.41088 0.43556 0.17431 0.0
C535 C 0.43551 0.41419 0.16463 0.0
H536 H 0.38457 0.46375 0.25938 0.0
C537 C 0.44674 0.39874 0.23615 0.0
H538 H 0.40126 0.44748 0.12043 0.0
C539 C 0.43725 0.40823 0.31616 0.0
C540 C 0.41622 0.43314 0.32594 0.0
H541 H 0.46537 0.3818 0.2311 0.0
H542 H 0.44884 0.39825 0.37009 0.0
C543 C 0.40121 0.44486 0.25432 0.0
loop_
_geom_bond_atom_site_label_1
_geom_bond_atom_site_label_2
_geom_bond_distance
_geom_bond_site_symmetry_2
_ccdc_geom_bond_type
Zn0 O3 2.031 1_455 S
Zn0 O5 2.049 1_554 S
Zn0 O10 2.067 . S
Zn1 O2 1.962 1_455 S
Zn1 O4 1.984 1_554 S
Zn1 O6 1.996 1_554 S
Zn1 O9 1.943 . S
O2 Zn1 1.962 1_655 S
O2 C7 1.254 . S
O3 Zn0 2.031 1_655 S
O3 C7 1.269 . S
O4 Zn1 1.984 1_556 S
O4 C11 1.260 1_556 S
O5 Zn0 2.049 1_556 S
O5 C13 1.260 . S
O6 Zn1 1.996 1_556 S
O6 C13 1.257 . S
C7 O2 1.254 . S
C7 O3 1.269 . S
C8 O9 1.249 . S
C8 O10 1.270 . S
O9 Zn1 1.943 . S
O9 C8 1.249 . S
O10 Zn0 2.067 . S
O10 C8 1.270 . S
C11 O4 1.260 1_554 S
C11 O12 1.232 1_455 S
O12 C11 1.232 1_655 S
C13 O5 1.260 . S
C13 O6 1.257 . S
Zn14 O17 2.031 1_545 S
Zn14 O19 2.049 . S
Zn14 O24 2.067 . S
Zn15 O16 1.962 1_545 S
Zn15 O18 1.986 . S
Zn15 O20 1.996 . S
Zn15 O23 1.943 . S
O16 Zn15 1.962 1_565 S
O16 C21 1.254 . S
O17 Zn14 2.031 1_565 S
O17 C21 1.269 . S
O18 Zn15 1.986 . S
O18 C25 1.262 . S
O19 Zn14 2.049 . S
O19 C27 1.260 . S
O20 Zn15 1.996 . S
O20 C27 1.257 . S
C21 O16 1.254 . S
C21 O17 1.269 . S
C22 O23 1.249 . S
C22 O24 1.270 . S
O23 Zn15 1.943 . S
O23 C22 1.249 . S
O24 Zn14 2.067 . S
O24 C22 1.270 . S
C25 O18 1.262 . S
C25 O26 1.232 1_545 S
O26 C25 1.232 1_565 S
C27 O19 1.260 . S
C27 O20 1.257 . S
Zn28 O31 2.031 . S
Zn28 O33 2.049 1_554 S
Zn28 O38 2.067 . S
Zn29 O30 1.962 . S
Zn29 O32 1.984 1_554 S
Zn29 O34 1.996 1_554 S
Zn29 O37 1.943 . S
O30 Zn29 1.962 . S
O30 C35 1.254 . S
O31 Zn28 2.031 . S
O31 C35 1.269 . S
O32 Zn29 1.984 1_556 S
O32 C39 1.260 1_556 S
O33 Zn28 2.049 1_556 S
O33 C41 1.260 . S
O34 Zn29 1.996 1_556 S
O34 C41 1.257 . S
C35 O30 1.254 . S
C35 O31 1.269 . S
C36 O37 1.249 . S
C36 O38 1.270 . S
O37 Zn29 1.943 . S
O37 C36 1.249 . S
O38 Zn28 2.067 . S
O38 C36 1.270 . S
C39 O32 1.260 1_554 S
C39 O40 1.232 . S
O40 C39 1.232 . S
C41 O33 1.260 . S
C41 O34 1.257 . S
Zn42 O45 2.031 . S
Zn42 O47 2.049 . S
Zn42 O52 2.067 . S
Zn43 O44 1.962 . S
Zn43 O46 1.986 . S
Zn43 O48 1.996 . S
Zn43 O51 1.943 . S
O44 Zn43 1.962 . S
O44 C49 1.254 . S
O45 Zn42 2.031 . S
O45 C49 1.269 . S
O46 Zn43 1.986 . S
O46 C53 1.262 . S
O47 Zn42 2.049 . S
O47 C55 1.260 . S
O48 Zn43 1.996 . S
O48 C55 1.257 . S
C49 O44 1.254 . S
C49 O45 1.269 . S
C50 O51 1.249 . S
C50 O52 1.270 . S
O51 Zn43 1.943 . S
O51 C50 1.249 . S
O52 Zn42 2.067 . S
O52 C50 1.270 . S
C53 O46 1.262 . S
C53 O54 1.232 . S
O54 C53 1.232 . S
C55 O47 1.260 . S
C55 O48 1.257 . S
Zn56 O59 2.031 1_455 S
Zn56 O61 2.049 1_556 S
Zn56 O66 2.067 . S
Zn57 O58 1.962 1_455 S
Zn57 O60 1.984 1_556 S
Zn57 O62 1.996 1_556 S
Zn57 O65 1.943 . S
O58 Zn57 1.962 1_655 S
O58 C63 1.254 . S
O59 Zn56 2.031 1_655 S
O59 C63 1.269 . S
O60 Zn57 1.984 1_554 S
O60 C67 1.260 1_554 S
O61 Zn56 2.049 1_554 S
O61 C69 1.260 . S
O62 Zn57 1.996 1_554 S
O62 C69 1.257 . S
C63 O58 1.254 . S
C63 O59 1.269 . S
C64 O65 1.249 . S
C64 O66 1.270 . S
O65 Zn57 1.943 . S
O65 C64 1.249 . S
O66 Zn56 2.067 . S
O66 C64 1.270 . S
C67 O60 1.260 1_556 S
C67 O68 1.232 1_455 S
O68 C67 1.232 1_655 S
C69 O61 1.260 . S
C69 O62 1.257 . S
Zn70 O73 2.031 1_545 S
Zn70 O75 2.049 . S
Zn70 O80 2.067 . S
Zn71 O72 1.962 1_545 S
Zn71 O74 1.986 . S
Zn71 O76 1.996 . S
Zn71 O79 1.943 . S
O72 Zn71 1.962 1_565 S
O72 C77 1.254 . S
O73 Zn70 2.031 1_565 S
O73 C77 1.269 . S
O74 Zn71 1.986 . S
O74 C81 1.262 . S
O75 Zn70 2.049 . S
O75 C83 1.260 . S
O76 Zn71 1.996 . S
O76 C83 1.257 . S
C77 O72 1.254 . S
C77 O73 1.269 . S
C78 O79 1.249 . S
C78 O80 1.270 . S
O79 Zn71 1.943 . S
O79 C78 1.249 . S
O80 Zn70 2.067 . S
O80 C78 1.270 . S
C81 O74 1.262 . S
C81 O82 1.232 1_545 S
O82 C81 1.232 1_565 S
C83 O75 1.260 . S
C83 O76 1.257 . S
Zn84 O87 2.031 . S
Zn84 O89 2.049 1_556 S
Zn84 O94 2.067 . S
Zn85 O86 1.962 . S
Zn85 O88 1.984 1_556 S
Zn85 O90 1.996 1_556 S
Zn85 O93 1.943 . S
O86 Zn85 1.962 . S
O86 C91 1.254 . S
O87 Zn84 2.031 . S
O87 C91 1.269 . S
O88 Zn85 1.984 1_554 S
O88 C95 1.260 1_554 S
O89 Zn84 2.049 1_554 S
O89 C97 1.260 . S
O90 Zn85 1.996 1_554 S
O90 C97 1.257 . S
C91 O86 1.254 . S
C91 O87 1.269 . S
C92 O93 1.249 . S
C92 O94 1.270 . S
O93 Zn85 1.943 . S
O93 C92 1.249 . S
O94 Zn84 2.067 . S
O94 C92 1.270 . S
C95 O88 1.260 1_556 S
C95 O96 1.232 . S
O96 C95 1.232 . S
C97 O89 1.260 . S
C97 O90 1.257 . S
Zn98 O101 2.031 . S
Zn98 O103 2.049 . S
Zn98 O108 2.067 . S
Zn99 O100 1.962 . S
Zn99 O102 1.986 . S
Zn99 O104 1.996 . S
Zn99 O107 1.943 . S
O100 Zn99 1.962 . S
O100 C105 1.254 . S
O101 Zn98 2.031 . S
O101 C105 1.269 . S
O102 Zn99 1.986 . S
O102 C109 1.262 . S
O103 Zn98 2.049 . S
O103 C111 1.260 . S
O104 Zn99 1.996 . S
O104 C111 1.257 . S
C105 O100 1.254 . S
C105 O101 1.269 . S
C106 O107 1.249 . S
C106 O108 1.270 . S
O107 Zn99 1.943 . S
O107 C106 1.249 . S
O108 Zn98 2.067 . S
O108 C106 1.270 . S
C109 O102 1.262 . S
C109 O110 1.232 . S
O110 C109 1.232 . S
C111 O103 1.260 . S
C111 O104 1.257 . S
Zn112 O115 2.031 1_655 S
Zn112 O117 2.049 1_556 S
Zn112 O122 2.067 . S
Zn113 O114 1.962 1_655 S
Zn113 O116 1.984 1_556 S
Zn113 O118 1.996 1_556 S
Zn113 O121 1.943 . S
O114 Zn113 1.962 1_455 S
O114 C119 1.254 . S
O115 Zn112 2.031 1_455 S
O115 C119 1.269 . S
O116 Zn113 1.984 1_554 S
O116 C123 1.260 1_554 S
O117 Zn112 2.049 1_554 S
O117 C125 1.260 . S
O118 Zn113 1.996 1_554 S
O118 C125 1.257 . S
C119 O114 1.254 . S
C119 O115 1.269 . S
C120 O121 1.249 . S
C120 O122 1.270 . S
O121 Zn113 1.943 . S
O121 C120 1.249 . S
O122 Zn112 2.067 . S
O122 C120 1.270 . S
C123 O116 1.260 1_556 S
C123 O124 1.232 1_655 S
O124 C123 1.232 1_455 S
C125 O117 1.260 . S
C125 O118 1.257 . S
Zn126 O129 2.031 1_565 S
Zn126 O131 2.049 . S
Zn126 O136 2.067 . S
Zn127 O128 1.962 1_565 S
Zn127 O130 1.986 . S
Zn127 O132 1.996 . S
Zn127 O135 1.943 . S
O128 Zn127 1.962 1_545 S
O128 C133 1.254 . S
O129 Zn126 2.031 1_545 S
O129 C133 1.269 . S
O130 Zn127 1.986 . S
O130 C137 1.262 . S
O131 Zn126 2.049 . S
O131 C139 1.260 . S
O132 Zn127 1.996 . S
O132 C139 1.257 . S
C133 O128 1.254 . S
C133 O129 1.269 . S
C134 O135 1.249 . S
C134 O136 1.270 . S
O135 Zn127 1.943 . S
O135 C134 1.249 . S
O136 Zn126 2.067 . S
O136 C134 1.270 . S
C137 O130 1.262 . S
C137 O138 1.232 1_565 S
O138 C137 1.232 1_545 S
C139 O131 1.260 . S
C139 O132 1.257 . S
Zn140 O143 2.031 . S
Zn140 O145 2.049 1_556 S
Zn140 O150 2.067 . S
Zn141 O142 1.962 . S
Zn141 O144 1.984 1_556 S
Zn141 O146 1.996 1_556 S
Zn141 O149 1.943 . S
O142 Zn141 1.962 . S
O142 C147 1.254 . S
O143 Zn140 2.031 . S
O143 C147 1.269 . S
O144 Zn141 1.984 1_554 S
O144 C151 1.260 1_554 S
O145 Zn140 2.049 1_554 S
O145 C153 1.260 . S
O146 Zn141 1.996 1_554 S
O146 C153 1.257 . S
C147 O142 1.254 . S
C147 O143 1.269 . S
C148 O149 1.249 . S
C148 O150 1.270 . S
O149 Zn141 1.943 . S
O149 C148 1.249 . S
O150 Zn140 2.067 . S
O150 C148 1.270 . S
C151 O144 1.260 1_556 S
C151 O152 1.232 . S
O152 C151 1.232 . S
C153 O145 1.260 . S
C153 O146 1.257 . S
Zn154 O157 2.031 . S
Zn154 O159 2.049 . S
Zn154 O164 2.067 . S
Zn155 O156 1.962 . S
Zn155 O158 1.986 . S
Zn155 O160 1.996 . S
Zn155 O163 1.943 . S
O156 Zn155 1.962 . S
O156 C161 1.254 . S
O157 Zn154 2.031 . S
O157 C161 1.269 . S
O158 Zn155 1.986 . S
O158 C165 1.262 . S
O159 Zn154 2.049 . S
O159 C167 1.260 . S
O160 Zn155 1.996 . S
O160 C167 1.257 . S
C161 O156 1.254 . S
C161 O157 1.269 . S
C162 O163 1.249 . S
C162 O164 1.270 . S
O163 Zn155 1.943 . S
O163 C162 1.249 . S
O164 Zn154 2.067 . S
O164 C162 1.270 . S
C165 O158 1.262 . S
C165 O166 1.232 . S
O166 C165 1.232 . S
C167 O159 1.260 . S
C167 O160 1.257 . S
Zn168 O171 2.031 1_655 S
Zn168 O173 2.049 1_554 S
Zn168 O178 2.067 . S
Zn169 O170 1.962 1_655 S
Zn169 O172 1.984 1_554 S
Zn169 O174 1.996 1_554 S
Zn169 O177 1.943 . S
O170 Zn169 1.962 1_455 S
O170 C175 1.254 . S
O171 Zn168 2.031 1_455 S
O171 C175 1.269 . S
O172 Zn169 1.984 1_556 S
O172 C179 1.260 1_556 S
O173 Zn168 2.049 1_556 S
O173 C181 1.260 . S
O174 Zn169 1.996 1_556 S
O174 C181 1.257 . S
C175 O170 1.254 . S
C175 O171 1.269 . S
C176 O177 1.249 . S
C176 O178 1.270 . S
O177 Zn169 1.943 . S
O177 C176 1.249 . S
O178 Zn168 2.067 . S
O178 C176 1.270 . S
C179 O172 1.260 1_554 S
C179 O180 1.232 1_655 S
O180 C179 1.232 1_455 S
C181 O173 1.260 . S
C181 O174 1.257 . S
Zn182 O185 2.031 1_565 S
Zn182 O187 2.049 . S
Zn182 O192 2.067 . S
Zn183 O184 1.962 1_565 S
Zn183 O186 1.986 . S
Zn183 O188 1.996 . S
Zn183 O191 1.943 . S
O184 Zn183 1.962 1_545 S
O184 C189 1.254 . S
O185 Zn182 2.031 1_545 S
O185 C189 1.269 . S
O186 Zn183 1.986 . S
O186 C193 1.262 . S
O187 Zn182 2.049 . S
O187 C195 1.260 . S
O188 Zn183 1.996 . S
O188 C195 1.257 . S
C189 O184 1.254 . S
C189 O185 1.269 . S
C190 O191 1.249 . S
C190 O192 1.270 . S
O191 Zn183 1.943 . S
O191 C190 1.249 . S
O192 Zn182 2.067 . S
O192 C190 1.270 . S
C193 O186 1.262 . S
C193 O194 1.232 1_565 S
O194 C193 1.232 1_545 S
C195 O187 1.260 . S
C195 O188 1.257 . S
Zn196 O199 2.031 . S
Zn196 O201 2.049 1_554 S
Zn196 O206 2.067 . S
Zn197 O198 1.962 . S
Zn197 O200 1.984 1_554 S
Zn197 O202 1.996 1_554 S
Zn197 O205 1.943 . S
O198 Zn197 1.962 . S
O198 C203 1.254 . S
O199 Zn196 2.031 . S
O199 C203 1.269 . S
O200 Zn197 1.984 1_556 S
O200 C207 1.260 1_556 S
O201 Zn196 2.049 1_556 S
O201 C209 1.260 . S
O202 Zn197 1.996 1_556 S
O202 C209 1.257 . S
C203 O198 1.254 . S
C203 O199 1.269 . S
C204 O205 1.249 . S
C204 O206 1.270 . S
O205 Zn197 1.943 . S
O205 C204 1.249 . S
O206 Zn196 2.067 . S
O206 C204 1.270 . S
C207 O200 1.260 1_554 S
C207 O208 1.232 . S
O208 C207 1.232 . S
C209 O201 1.260 . S
C209 O202 1.257 . S
Zn210 O213 2.031 . S
Zn210 O215 2.049 . S
Zn210 O220 2.067 . S
Zn211 O212 1.962 . S
Zn211 O214 1.986 . S
Zn211 O216 1.996 . S
Zn211 O219 1.943 . S
O212 Zn211 1.962 . S
O212 C217 1.254 . S
O213 Zn210 2.031 . S
O213 C217 1.269 . S
O214 Zn211 1.986 . S
O214 C221 1.262 . S
O215 Zn210 2.049 . S
O215 C223 1.260 . S
O216 Zn211 1.996 . S
O216 C223 1.257 . S
C217 O212 1.254 . S
C217 O213 1.269 . S
C218 O219 1.249 . S
C218 O220 1.270 . S
O219 Zn211 1.943 . S
O219 C218 1.249 . S
O220 Zn210 2.067 . S
O220 C218 1.270 . S
C221 O214 1.262 . S
C221 O222 1.232 . S
O222 C221 1.232 . S
C223 O215 1.260 . S
C223 O216 1.257 . S
C224 C225 1.387 . S
C224 H228 0.950 . S
C224 C233 1.390 1_554 S
C225 C224 1.387 . S
C225 C227 1.387 1_455 S
H226 C233 0.950 . S
C227 C225 1.387 1_655 S
C227 C229 1.390 1_554 S
C227 H231 0.950 . S
H228 C224 0.950 . S
C229 C227 1.390 1_556 S
C229 C230 1.387 1_655 S
C229 H232 0.950 . S
C230 C229 1.387 1_455 S
C230 C233 1.387 . S
H231 C227 0.950 . S
H232 C229 0.950 . S
C233 C224 1.390 1_556 S
C233 H226 0.950 . S
C233 C230 1.387 . S
C234 C235 1.387 1_565 S
C234 H238 0.950 . S
C234 C243 1.390 . S
C235 C234 1.387 1_545 S
C235 C237 1.387 . S
H236 C243 0.950 . S
C237 C235 1.387 . S
C237 C239 1.390 . S
C237 H241 0.950 . S
H238 C234 0.950 . S
C239 C237 1.390 . S
C239 C240 1.387 . S
C239 H242 0.950 . S
C240 C239 1.387 . S
C240 C243 1.387 1_545 S
H241 C237 0.950 . S
H242 C239 0.950 . S
C243 C234 1.390 . S
C243 H236 0.950 . S
C243 C240 1.387 1_565 S
C244 C245 1.387 . S
C244 H248 0.950 . S
C244 C253 1.390 1_554 S
C245 C244 1.387 . S
C245 C247 1.387 . S
H246 C253 0.950 . S
C247 C245 1.387 . S
C247 C249 1.390 1_554 S
C247 H251 0.950 . S
H248 C244 0.950 . S
C249 C247 1.390 1_556 S
C249 C250 1.387 . S
C249 H252 0.950 . S
C250 C249 1.387 . S
C250 C253 1.387 . S
H251 C247 0.950 . S
H252 C249 0.950 . S
C253 C244 1.390 1_556 S
C253 H246 0.950 . S
C253 C250 1.387 . S
C254 C255 1.387 . S
C254 H258 0.950 . S
C254 C263 1.390 . S
C255 C254 1.387 . S
C255 C257 1.387 . S
H256 C263 0.950 . S
C257 C255 1.387 . S
C257 C259 1.390 . S
C257 H261 0.950 . S
H258 C254 0.950 . S
C259 C257 1.390 . S
C259 C260 1.387 . S
C259 H262 0.950 . S
C260 C259 1.387 . S
C260 C263 1.387 . S
H261 C257 0.950 . S
H262 C259 0.950 . S
C263 C254 1.390 . S
C263 H256 0.950 . S
C263 C260 1.387 . S
C264 C265 1.387 . S
C264 H268 0.950 . S
C264 C273 1.390 1_556 S
C265 C264 1.387 . S
C265 C267 1.387 1_655 S
H266 C273 0.950 . S
C267 C265 1.387 1_455 S
C267 C269 1.390 1_556 S
C267 H271 0.950 . S
H268 C264 0.950 . S
C269 C267 1.390 1_554 S
C269 C270 1.387 1_455 S
C269 H272 0.950 . S
C270 C269 1.387 1_655 S
C270 C273 1.387 . S
H271 C267 0.950 . S
H272 C269 0.950 . S
C273 C264 1.390 1_554 S
C273 H266 0.950 . S
C273 C270 1.387 . S
C274 C275 1.387 1_545 S
C274 H278 0.950 . S
C274 C283 1.390 . S
C275 C274 1.387 1_565 S
C275 C277 1.387 . S
H276 C283 0.950 . S
C277 C275 1.387 . S
C277 C279 1.390 . S
C277 H281 0.950 . S
H278 C274 0.950 . S
C279 C277 1.390 . S
C279 C280 1.387 . S
C279 H282 0.950 . S
C280 C279 1.387 . S
C280 C283 1.387 1_565 S
H281 C277 0.950 . S
H282 C279 0.950 . S
C283 C274 1.390 . S
C283 H276 0.950 . S
C283 C280 1.387 1_545 S
C284 C285 1.387 . S
C284 H288 0.950 . S
C284 C293 1.390 1_556 S
C285 C284 1.387 . S
C285 C287 1.387 . S
H286 C293 0.950 . S
C287 C285 1.387 . S
C287 C289 1.390 1_556 S
C287 H291 0.950 . S
H288 C284 0.950 . S
C289 C287 1.390 1_554 S
C289 C290 1.387 . S
C289 H292 0.950 . S
C290 C289 1.387 . S
C290 C293 1.387 . S
H291 C287 0.950 . S
H292 C289 0.950 . S
C293 C284 1.390 1_554 S
C293 H286 0.950 . S
C293 C290 1.387 . S
C294 C295 1.387 . S
C294 H298 0.950 . S
C294 C303 1.390 . S
C295 C294 1.387 . S
C295 C297 1.387 . S
H296 C303 0.950 . S
C297 C295 1.387 . S
C297 C299 1.390 . S
C297 H301 0.950 . S
H298 C294 0.950 . S
C299 C297 1.390 . S
C299 C300 1.387 . S
C299 H302 0.950 . S
C300 C299 1.387 . S
C300 C303 1.387 . S
H301 C297 0.950 . S
H302 C299 0.950 . S
C303 C294 1.390 . S
C303 H296 0.950 . S
C303 C300 1.387 . S
C304 C305 1.387 . S
C304 H308 0.950 . S
C304 C313 1.390 . S
C305 C304 1.387 . S
C305 C307 1.387 . S
H306 C313 0.950 . S
C307 C305 1.387 . S
C307 C309 1.390 . S
C307 H311 0.950 . S
H308 C304 0.950 . S
C309 C307 1.390 . S
C309 C310 1.387 . S
C309 H312 0.950 . S
C310 C309 1.387 . S
C310 C313 1.387 . S
H311 C307 0.950 . S
H312 C309 0.950 . S
C313 C304 1.390 . S
C313 H306 0.950 . S
C313 C310 1.387 . S
C314 C315 1.387 . S
C314 H318 0.950 . S
C314 C323 1.390 . S
C315 C314 1.387 . S
C315 C317 1.387 . S
H316 C323 0.950 . S
C317 C315 1.387 . S
C317 C319 1.390 . S
C317 H321 0.950 . S
H318 C314 0.950 . S
C319 C317 1.390 . S
C319 C320 1.387 . S
C319 H322 0.950 . S
C320 C319 1.387 . S
C320 C323 1.387 . S
H321 C317 0.950 . S
H322 C319 0.950 . S
C323 C314 1.390 . S
C323 H316 0.950 . S
C323 C320 1.387 . S
C324 C325 1.387 . S
C324 H328 0.950 . S
C324 C333 1.390 . S
C325 C324 1.387 . S
C325 C327 1.387 . S
H326 C333 0.950 . S
C327 C325 1.387 . S
C327 C329 1.390 . S
C327 H331 0.950 . S
H328 C324 0.950 . S
C329 C327 1.390 . S
C329 C330 1.387 . S
C329 H332 0.950 . S
C330 C329 1.387 . S
C330 C333 1.387 . S
H331 C327 0.950 . S
H332 C329 0.950 . S
C333 C324 1.390 . S
C333 H326 0.950 . S
C333 C330 1.387 . S
C334 C335 1.387 . S
C334 H338 0.950 . S
C334 C343 1.390 . S
C335 C334 1.387 . S
C335 C337 1.387 . S
H336 C343 0.950 . S
C337 C335 1.387 . S
C337 C339 1.390 . S
C337 H341 0.950 . S
H338 C334 0.950 . S
C339 C337 1.390 . S
C339 C340 1.387 . S
C339 H342 0.950 . S
C340 C339 1.387 . S
C340 C343 1.387 . S
H341 C337 0.950 . S
H342 C339 0.950 . S
C343 C334 1.390 . S
C343 H336 0.950 . S
C343 C340 1.387 . S
C344 C345 1.387 . S
C344 H348 0.950 . S
C344 C353 1.390 . S
C345 C344 1.387 . S
C345 C347 1.387 . S
H346 C353 0.950 . S
C347 C345 1.387 . S
C347 C349 1.390 . S
C347 H351 0.950 . S
H348 C344 0.950 . S
C349 C347 1.390 . S
C349 C350 1.387 . S
C349 H352 0.950 . S
C350 C349 1.387 . S
C350 C353 1.387 . S
H351 C347 0.950 . S
H352 C349 0.950 . S
C353 C344 1.390 . S
C353 H346 0.950 . S
C353 C350 1.387 . S
C354 C355 1.387 . S
C354 H358 0.950 . S
C354 C363 1.390 . S
C355 C354 1.387 . S
C355 C357 1.387 . S
H356 C363 0.950 . S
C357 C355 1.387 . S
C357 C359 1.390 . S
C357 H361 0.950 . S
H358 C354 0.950 . S
C359 C357 1.390 . S
C359 C360 1.387 . S
C359 H362 0.950 . S
C360 C359 1.387 . S
C360 C363 1.387 . S
H361 C357 0.950 . S
H362 C359 0.950 . S
C363 C354 1.390 . S
C363 H356 0.950 . S
C363 C360 1.387 . S
C364 C365 1.387 . S
C364 H368 0.950 . S
C364 C373 1.390 . S
C365 C364 1.387 . S
C365 C367 1.387 . S
H366 C373 0.950 . S
C367 C365 1.387 . S
C367 C369 1.390 . S
C367 H371 0.950 . S
H368 C364 0.950 . S
C369 C367 1.390 . S
C369 C370 1.387 . S
C369 H372 0.950 . S
C370 C369 1.387 . S
C370 C373 1.387 . S
H371 C367 0.950 . S
H372 C369 0.950 . S
C373 C364 1.390 . S
C373 H366 0.950 . S
C373 C370 1.387 . S
C374 C375 1.387 . S
C374 H378 0.950 . S
C374 C383 1.390 . S
C375 C374 1.387 . S
C375 C377 1.387 . S
H376 C383 0.950 . S
C377 C375 1.387 . S
C377 C379 1.390 . S
C377 H381 0.950 . S
H378 C374 0.950 . S
C379 C377 1.390 . S
C379 C380 1.387 . S
C379 H382 0.950 . S
C380 C379 1.387 . S
C380 C383 1.387 . S
H381 C377 0.950 . S
H382 C379 0.950 . S
C383 C374 1.390 . S
C383 H376 0.950 . S
C383 C380 1.387 . S
C384 C385 1.387 . S
C384 H388 0.950 . S
C384 C393 1.390 . S
C385 C384 1.387 . S
C385 C387 1.387 . S
H386 C393 0.950 . S
C387 C385 1.387 . S
C387 C389 1.390 . S
C387 H391 0.950 . S
H388 C384 0.950 . S
C389 C387 1.390 . S
C389 C390 1.387 . S
C389 H392 0.950 . S
C390 C389 1.387 . S
C390 C393 1.387 . S
H391 C387 0.950 . S
H392 C389 0.950 . S
C393 C384 1.390 . S
C393 H386 0.950 . S
C393 C390 1.387 . S
C394 C395 1.387 . S
C394 H398 0.950 . S
C394 C403 1.390 . S
C395 C394 1.387 . S
C395 C397 1.387 . S
H396 C403 0.950 . S
C397 C395 1.387 . S
C397 C399 1.390 . S
C397 H401 0.950 . S
H398 C394 0.950 . S
C399 C397 1.390 . S
C399 C400 1.387 . S
C399 H402 0.950 . S
C400 C399 1.387 . S
C400 C403 1.387 . S
H401 C397 0.950 . S
H402 C399 0.950 . S
C403 C394 1.390 . S
C403 H396 0.950 . S
C403 C400 1.387 . S
C404 C405 1.387 . S
C404 H408 0.950 . S
C404 C413 1.390 . S
C405 C404 1.387 . S
C405 C407 1.387 . S
H406 C413 0.950 . S
C407 C405 1.387 . S
C407 C409 1.390 . S
C407 H411 0.950 . S
H408 C404 0.950 . S
C409 C407 1.390 . S
C409 C410 1.387 . S
C409 H412 0.950 . S
C410 C409 1.387 . S
C410 C413 1.387 . S
H411 C407 0.950 . S
H412 C409 0.950 . S
C413 C404 1.390 . S
C413 H406 0.950 . S
C413 C410 1.387 . S
C414 C415 1.387 . S
C414 H418 0.950 . S
C414 C423 1.390 . S
C415 C414 1.387 . S
C415 C417 1.387 . S
H416 C423 0.950 . S
C417 C415 1.387 . S
C417 C419 1.390 . S
C417 H421 0.950 . S
H418 C414 0.950 . S
C419 C417 1.390 . S
C419 C420 1.387 . S
C419 H422 0.950 . S
C420 C419 1.387 . S
C420 C423 1.387 . S
H421 C417 0.950 . S
H422 C419 0.950 . S
C423 C414 1.390 . S
C423 H416 0.950 . S
C423 C420 1.387 . S
C424 C425 1.387 . S
C424 H428 0.950 . S
C424 C433 1.390 . S
C425 C424 1.387 . S
C425 C427 1.387 . S
H426 C433 0.950 . S
C427 C425 1.387 . S
C427 C429 1.390 . S
C427 H431 0.950 . S
H428 C424 0.950 . S
C429 C427 1.390 . S
C429 C430 1.387 . S
C429 H432 0.950 . S
C430 C429 1.387 . S
C430 C433 1.387 . S
H431 C427 0.950 . S
H432 C429 0.950 . S
C433 C424 1.390 . S
C433 H426 0.950 . S
C433 C430 1.387 . S
C434 C435 1.387 . S
C434 H438 0.950 . S
C434 C443 1.390 . S
C435 C434 1.387 . S
C435 C437 1.387 . S
H436 C443 0.950 . S
C437 C435 1.387 . S
C437 C439 1.390 . S
C437 H441 0.950 . S
H438 C434 0.950 . S
C439 C437 1.390 . S
C439 C440 1.387 . S
C439 H442 0.950 . S
C440 C439 1.387 . S
C440 C443 1.387 . S
H441 C437 0.950 . S
H442 C439 0.950 . S
C443 C434 1.390 . S
C443 H436 0.950 . S
C443 C440 1.387 . S
C444 C445 1.387 . S
C444 H448 0.950 . S
C444 C453 1.390 . S
C445 C444 1.387 . S
C445 C447 1.387 . S
H446 C453 0.950 . S
C447 C445 1.387 . S
C447 C449 1.390 . S
C447 H451 0.950 . S
H448 C444 0.950 . S
C449 C447 1.390 . S
C449 C450 1.387 . S
C449 H452 0.950 . S
C450 C449 1.387 . S
C450 C453 1.387 . S
H451 C447 0.950 . S
H452 C449 0.950 . S
C453 C444 1.390 . S
C453 H446 0.950 . S
C453 C450 1.387 . S
C454 C455 1.387 . S
C454 H458 0.950 . S
C454 C463 1.390 . S
C455 C454 1.387 . S
C455 C457 1.387 . S
H456 C463 0.950 . S
C457 C455 1.387 . S
C457 C459 1.390 . S
C457 H461 0.950 . S
H458 C454 0.950 . S
C459 C457 1.390 . S
C459 C460 1.387 . S
C459 H462 0.950 . S
C460 C459 1.387 . S
C460 C463 1.387 . S
H461 C457 0.950 . S
H462 C459 0.950 . S
C463 C454 1.390 . S
C463 H456 0.950 . S
C463 C460 1.387 . S
C464 C465 1.387 . S
C464 H468 0.950 . S
C464 C473 1.390 . S
C465 C464 1.387 . S
C465 C467 1.387 . S
H466 C473 0.950 . S
C467 C465 1.387 . S
C467 C469 1.390 . S
C467 H471 0.950 . S
H468 C464 0.950 . S
C469 C467 1.390 . S
C469 C470 1.387 . S
C469 H472 0.950 . S
C470 C469 1.387 . S
C470 C473 1.387 . S
H471 C467 0.950 . S
H472 C469 0.950 . S
C473 C464 1.390 . S
C473 H466 0.950 . S
C473 C470 1.387 . S
C474 C475 1.387 . S
C474 H478 0.950 . S
C474 C483 1.390 . S
C475 C474 1.387 . S
C475 C477 1.387 . S
H476 C483 0.950 . S
C477 C475 1.387 . S
C477 C479 1.390 . S
C477 H481 0.950 . S
H478 C474 0.950 . S
C479 C477 1.390 . S
C479 C480 1.387 . S
C479 H482 0.950 . S
C480 C479 1.387 . S
C480 C483 1.387 . S
H481 C477 0.950 . S
H482 C479 0.950 . S
C483 C474 1.390 . S
C483 H476 0.950 . S
C483 C480 1.387 . S
C484 C485 1.387 . S
C484 H488 0.950 . S
C484 C493 1.390 . S
C485 C484 1.387 . S
C485 C487 1.387 . S
H486 C493 0.950 . S
C487 C485 1.387 . S
C487 C489 1.390 . S
C487 H491 0.950 . S
H488 C484 0.950 . S
C489 C487 1.390 . S
C489 C490 1.387 . S
C489 H492 0.950 . S
C490 C489 1.387 . S
C490 C493 1.387 . S
H491 C487 0.950 . S
H492 C489 0.950 . S
C493 C484 1.390 . S
C493 H486 0.950 . S
C493 C490 1.387 . S
C494 C495 1.387 . S
C494 H498 0.950 . S
C494 C503 1.390 . S
C495 C494 1.387 . S
C495 C497 1.387 . S
H496 C503 0.950 . S
C497 C495 1.387 . S
C497 C499 1.390 . S
C497 H501 0.950 . S
H498 C494 0.950 . S
C499 C497 1.390 . S
C499 C500 1.387 . S
C499 H502 0.950 . S
C500 C499 1.387 . S
C500 C503 1.387 . S
H501 C497 0.950 . S
H502 C499 0.950 . S
C503 C494 1.390 . S
C503 H496 0.950 . S
C503 C500 1.387 . S
C504 C505 1.387 . S
C504 H508 0.950 . S
C504 C513 1.390 . S
C505 C504 1.387 . S
C505 C507 1.387 . S
H506 C513 0.950 . S
C507 C505 1.387 . S
C507 C509 1.390 . S
C507 H511 0.950 . S
H508 C504 0.950 . S
C509 C507 1.390 . S
C509 C510 1.387 . S
C509 H512 0.950 . S
C510 C509 1.387 . S
C510 C513 1.387 . S
H511 C507 0.950 . S
H512 C509 0.950 . S
C513 C504 1.390 . S
C513 H506 0.950 . S
C513 C510 1.387 . S
C514 C515 1.387 . S
C514 H518 0.950 . S
C514 C523 1.390 . S
C515 C514 1.387 . S
C515 C517 1.387 . S
H516 C523 0.950 . S
C517 C515 1.387 . S
C517 C519 1.390 . S
C517 H521 0.950 . S
H518 C514 0.950 . S
C519 C517 1.390 . S
C519 C520 1.387 . S
C519 H522 0.950 . S
C520 C519 1.387 . S
C520 C523 1.387 . S
H521 C517 0.950 . S
H522 C519 0.950 . S
C523 C514 1.390 . S
C523 H516 0.950 . S
C523 C520 1.387 . S
C524 C525 1.387 . S
C524 H528 0.950 . S
C524 C533 1.390 . S
C525 C524 1.387 . S
C525 C527 1.387 . S
H526 C533 0.950 . S
C527 C525 1.387 . S
C527 C529 1.390 . S
C527 H531 0.950 . S
H528 C524 0.950 . S
C529 C527 1.390 . S
C529 C530 1.387 . S
C529 H532 0.950 . S
C530 C529 1.387 . S
C530 C533 1.387 . S
H531 C527 0.950 . S
H532 C529 0.950 . S
C533 C524 1.390 . S
C533 H526 0.950 . S
C533 C530 1.387 . S
C534 C535 1.387 . S
C534 H538 0.950 . S
C534 C543 1.390 . S
C535 C534 1.387 . S
C535 C537 1.387 . S
H536 C543 0.950 . S
C537 C535 1.387 . S
C537 C539 1.390 . S
C537 H541 0.950 . S
H538 C534 0.950 . S
C539 C537 1.390 . S
C539 C540 1.387 . S
C539 H542 0.950 . S
C540 C539 1.387 . S
C540 C543 1.387 . S
H541 C537 0.950 . S
H542 C539 0.950 . S
C543 C534 1.390 . S
C543 H536 0.950 . S
C543 C540 1.387 . S
C225 C11 1.294 . S
C230 C67 1.294 . S
C235 C81 1.294 . S
C240 C25 1.294 . S
C245 C39 1.293 . S
C250 C95 1.293 . S
C255 C53 1.294 . S
C260 C109 1.294 . S
C265 C123 1.293 . S
C270 C179 1.293 . S
C275 C193 1.295 . S
C280 C137 1.295 . S
C285 C151 1.294 . S
C290 C207 1.294 . S
C295 C165 1.294 . S
C300 C221 1.294 . S
C305 C13 1.246 . S
C310 C218 1.243 . S
C315 C176 1.240 . S
C320 C27 1.244 . S
C325 C41 1.249 . S
C330 C190 1.242 . S
C335 C204 1.240 . S
C340 C55 1.249 . S
C345 C134 1.238 . S
C350 C69 1.247 . S
C355 C148 1.240 . S
C360 C83 1.244 . S
C365 C162 1.243 . S
C370 C97 1.246 . S
C375 C120 1.242 . S
C380 C111 1.245 . S
C385 C125 1.247 . S
C390 C106 1.238 . S
C395 C64 1.243 . S
C400 C139 1.246 . S
C405 C78 1.242 . S
C410 C153 1.249 . S
C415 C167 1.248 . S
C420 C92 1.242 . S
C425 C22 1.243 . S
C430 C181 1.247 . S
C435 C195 1.248 . S
C440 C36 1.242 . S
C445 C209 1.247 . S
C450 C50 1.243 . S
C455 C223 1.249 . S
C460 C8 1.242 . S
C465 C105 1.389 . S
C470 C7 1.392 . S
C475 C21 1.391 . S
C480 C63 1.388 . S
C485 C35 1.392 . S
C490 C77 1.389 . S
C495 C49 1.391 . S
C500 C91 1.388 . S
C505 C217 1.390 . S
C510 C119 1.388 . S
C515 C175 1.388 . S
C520 C133 1.390 . S
C525 C189 1.390 . S
C530 C147 1.388 . S
C535 C203 1.388 . S
C540 C161 1.391 . S
