# Generated by pormake.
# Topology fng, (5)-cn, num edge types: 1
# Building blocks:
#     Node 0, Type 0, BuildingBlock: BEQFEK_clean_sbu_0, # of connection points: 5
#     Node 1, Type 0, BuildingBlock: BEQFEK_clean_sbu_0, # of connection points: 5
#     Node 2, Type 0, BuildingBlock: BEQFEK_clean_sbu_0, # of connection points: 5
#     Node 3, Type 0, BuildingBlock: BEQFEK_clean_sbu_0, # of connection points: 5
#     Node 4, Type 0, BuildingBlock: BEQFEK_clean_sbu_0, # of connection points: 5
#     Node 5, Type 0, BuildingBlock: BEQFEK_clean_sbu_0, # of connection points: 5
#     Node 6, Type 0, BuildingBlock: BEQFEK_clean_sbu_0, # of connection points: 5
#     Node 7, Type 0, BuildingBlock: BEQFEK_clean_sbu_0, # of connection points: 5
#     Node 8, Type 0, BuildingBlock: BEQFEK_clean_sbu_0, # of connection points: 5
#     Node 9, Type 0, BuildingBlock: BEQFEK_clean_sbu_0, # of connection points: 5
#     Node 10, Type 0, BuildingBlock: BEQFEK_clean_sbu_0, # of connection points: 5
#     Node 11, Type 0, BuildingBlock: BEQFEK_clean_sbu_0, # of connection points: 5
#     Node 12, Type 0, BuildingBlock: BEQFEK_clean_sbu_0, # of connection points: 5
#     Node 13, Type 0, BuildingBlock: BEQFEK_clean_sbu_0, # of connection points: 5
#     Node 14, Type 0, BuildingBlock: BEQFEK_clean_sbu_0, # of connection points: 5
#     Node 15, Type 0, BuildingBlock: BEQFEK_clean_sbu_0, # of connection points: 5
#     Node 16, Type 0, BuildingBlock: BEQFEK_clean_sbu_0, # of connection points: 5
#     Node 17, Type 0, BuildingBlock: BEQFEK_clean_sbu_0, # of connection points: 5
#     Edge 18, Type (0, 0), BuildingBlock: CIFDUS_clean_linker_0, # of connection points: 2
#     Edge 19, Type (0, 0), BuildingBlock: CIFDUS_clean_linker_0, # of connection points: 2
#     Edge 20, Type (0, 0), BuildingBlock: CIFDUS_clean_linker_0, # of connection points: 2
#     Edge 21, Type (0, 0), BuildingBlock: CIFDUS_clean_linker_0, # of connection points: 2
#     Edge 22, Type (0, 0), BuildingBlock: CIFDUS_clean_linker_0, # of connection points: 2
#     Edge 23, Type (0, 0), BuildingBlock: CIFDUS_clean_linker_0, # of connection points: 2
#     Edge 24, Type (0, 0), BuildingBlock: CIFDUS_clean_linker_0, # of connection points: 2
#     Edge 25, Type (0, 0), BuildingBlock: CIFDUS_clean_linker_0, # of connection points: 2
#     Edge 26, Type (0, 0), BuildingBlock: CIFDUS_clean_linker_0, # of connection points: 2
#     Edge 27, Type (0, 0), BuildingBlock: CIFDUS_clean_linker_0, # of connection points: 2
#     Edge 28, Type (0, 0), BuildingBlock: CIFDUS_clean_linker_0, # of connection points: 2
#     Edge 29, Type (0, 0), BuildingBlock: CIFDUS_clean_linker_0, # of connection points: 2
#     Edge 30, Type (0, 0), BuildingBlock: CIFDUS_clean_linker_0, # of connection points: 2
#     Edge 31, Type (0, 0), BuildingBlock: CIFDUS_clean_linker_0, # of connection points: 2
#     Edge 32, Type (0, 0), BuildingBlock: CIFDUS_clean_linker_0, # of connection points: 2
#     Edge 33, Type (0, 0), BuildingBlock: CIFDUS_clean_linker_0, # of connection points: 2
#     Edge 34, Type (0, 0), BuildingBlock: CIFDUS_clean_linker_0, # of connection points: 2
#     Edge 35, Type (0, 0), BuildingBlock: CIFDUS_clean_linker_0, # of connection points: 2
#     Edge 36, Type (0, 0), BuildingBlock: CIFDUS_clean_linker_0, # of connection points: 2
#     Edge 37, Type (0, 0), BuildingBlock: CIFDUS_clean_linker_0, # of connection points: 2
#     Edge 38, Type (0, 0), BuildingBlock: CIFDUS_clean_linker_0, # of connection points: 2
#     Edge 39, Type (0, 0), BuildingBlock: CIFDUS_clean_linker_0, # of connection points: 2
#     Edge 40, Type (0, 0), BuildingBlock: CIFDUS_clean_linker_0, # of connection points: 2
#     Edge 41, Type (0, 0), BuildingBlock: CIFDUS_clean_linker_0, # of connection points: 2
#     Edge 42, Type (0, 0), BuildingBlock: CIFDUS_clean_linker_0, # of connection points: 2
#     Edge 43, Type (0, 0), BuildingBlock: CIFDUS_clean_linker_0, # of connection points: 2
#     Edge 44, Type (0, 0), BuildingBlock: CIFDUS_clean_linker_0, # of connection points: 2
#     Edge 45, Type (0, 0), BuildingBlock: CIFDUS_clean_linker_0, # of connection points: 2
#     Edge 46, Type (0, 0), BuildingBlock: CIFDUS_clean_linker_0, # of connection points: 2
#     Edge 47, Type (0, 0), BuildingBlock: CIFDUS_clean_linker_0, # of connection points: 2
#     Edge 48, Type (0, 0), BuildingBlock: CIFDUS_clean_linker_0, # of connection points: 2
#     Edge 49, Type (0, 0), BuildingBlock: CIFDUS_clean_linker_0, # of connection points: 2
#     Edge 50, Type (0, 0), BuildingBlock: CIFDUS_clean_linker_0, # of connection points: 2
#     Edge 51, Type (0, 0), BuildingBlock: CIFDUS_clean_linker_0, # of connection points: 2
#     Edge 52, Type (0, 0), BuildingBlock: CIFDUS_clean_linker_0, # of connection points: 2
#     Edge 53, Type (0, 0), BuildingBlock: CIFDUS_clean_linker_0, # of connection points: 2
#     Edge 54, Type (0, 0), BuildingBlock: CIFDUS_clean_linker_0, # of connection points: 2
#     Edge 55, Type (0, 0), BuildingBlock: CIFDUS_clean_linker_0, # of connection points: 2
#     Edge 56, Type (0, 0), BuildingBlock: CIFDUS_clean_linker_0, # of connection points: 2
#     Edge 57, Type (0, 0), BuildingBlock: CIFDUS_clean_linker_0, # of connection points: 2
#     Edge 58, Type (0, 0), BuildingBlock: CIFDUS_clean_linker_0, # of connection points: 2
#     Edge 59, Type (0, 0), BuildingBlock: CIFDUS_clean_linker_0, # of connection points: 2
#     Edge 60, Type (0, 0), BuildingBlock: CIFDUS_clean_linker_0, # of connection points: 2
#     Edge 61, Type (0, 0), BuildingBlock: CIFDUS_clean_linker_0, # of connection points: 2
#     Edge 62, Type (0, 0), BuildingBlock: CIFDUS_clean_linker_0, # of connection points: 2
# Relax obj value: 0.341
# Max RMSD: 0.248
# Mean RMSD: 0.248
data_MOF--net-fng--node1-BEQFEK_clean_sbu_0--edge1-CIFDUS_clean_linker_0
_symmetry_space_group_name_H-M    P1
_symmetry_Int_Tables_number       1
_symmetry_cell_setting            triclinic
loop_
_symmetry_equiv_pos_as_xyz
'x, y, z'
_cell_length_a     67.006281
_cell_length_b     67.004654
_cell_length_c     16.452136
_cell_angle_alpha  89.926253
_cell_angle_beta   90.069183
_cell_angle_gamma 120.01818
loop_
_atom_site_label
_atom_site_type_symbol
_atom_site_fract_x
_atom_site_fract_y
_atom_site_fract_z
_atom_type_partial_charge
Co0 Co 0.11824 0.23519 0.9684 0.0
Co1 Co 0.10544 0.21167 0.1399 0.0
C2 C 0.06917 0.19999 0.0176 0.0
O3 O 0.08486 0.21369 0.96928 0.0
O4 O 0.07386 0.19736 0.09067 0.0
C5 C 0.10901 0.25185 0.82223 0.0
O6 O 0.09126 0.25014 0.86202 0.0
C7 C 0.09125 0.20179 0.31362 0.0
C8 C 0.12009 0.19805 0.3609 0.0
C9 C 0.10093 0.19923 0.3849 0.0
N10 N 0.10462 0.20281 0.25085 0.0
N11 N 0.12146 0.19997 0.2796 0.0
C12 C 0.06945 0.20266 0.30468 0.0
H13 H 0.06904 0.21025 0.24516 0.0
H14 H 0.06738 0.21249 0.3548 0.0
H15 H 0.05461 0.18481 0.30739 0.0
C16 C 0.1397 0.27781 0.06983 0.0
N17 N 0.12761 0.25473 0.06048 0.0
N18 N 0.12157 0.24485 0.13247 0.0
C19 C 0.12934 0.26147 0.18986 0.0
C20 C 0.14135 0.28291 0.15243 0.0
C21 C 0.14996 0.29445 0.00084 0.0
H22 H 0.15495 0.28666 0.95111 0.0
H23 H 0.13685 0.29841 0.97672 0.0
H24 H 0.16522 0.31074 0.02114 0.0
O25 O 0.13355 0.21688 0.96544 0.0
O26 O 0.12329 0.19897 0.08421 0.0
H27 H 0.13168 0.24778 0.30485 0.0
H28 H 0.1285 0.27292 0.31322 0.0
C29 C 0.12336 0.25699 0.27813 0.0
H30 H 0.10448 0.24622 0.28389 0.0
H31 H 0.13467 0.20062 0.24411 0.0
O32 O 0.12464 0.25039 0.86115 0.0
C33 C 0.13358 0.20261 0.01614 0.0
Co34 Co 0.77622 0.88623 0.02664 0.0
Co35 Co 0.79837 0.89753 0.19853 0.0
C36 C 0.80921 0.87079 0.08021 0.0
O37 O 0.79637 0.87263 0.02758 0.0
O38 O 0.81142 0.8792 0.15114 0.0
C39 C 0.75835 0.86051 0.88198 0.0
O40 O 0.76353 0.84613 0.9176 0.0
C41 C 0.80481 0.8879 0.36594 0.0
C42 C 0.81251 0.9205 0.42563 0.0
C43 C 0.80741 0.8981 0.44131 0.0
N44 N 0.80744 0.90334 0.30874 0.0
N45 N 0.81292 0.92306 0.34456 0.0
C46 C 0.79685 0.86308 0.34859 0.0
H47 H 0.78843 0.85808 0.28809 0.0
H48 H 0.78479 0.85171 0.39622 0.0
H49 H 0.81203 0.86061 0.34838 0.0
C50 C 0.73306 0.866 0.12354 0.0
N51 N 0.7562 0.87686 0.11743 0.0
N52 N 0.76534 0.88195 0.19064 0.0
C53 C 0.74816 0.87478 0.24587 0.0
C54 C 0.72712 0.8643 0.2052 0.0
C55 C 0.71715 0.85824 0.05195 0.0
H56 H 0.72351 0.87226 0.00614 0.0
H57 H 0.71714 0.84324 0.02337 0.0
H58 H 0.69931 0.85334 0.06974 0.0
O59 O 0.79582 0.92015 0.02273 0.0
O60 O 0.81194 0.92811 0.14499 0.0
H61 H 0.76531 0.89472 0.35154 0.0
H62 H 0.73601 0.87279 0.37038 0.0
C63 C 0.75177 0.87695 0.33605 0.0
H64 H 0.75721 0.86469 0.35653 0.0
H65 H 0.81505 0.93766 0.31403 0.0
O66 O 0.75967 0.87728 0.92239 0.0
C67 C 0.80935 0.93458 0.07494 0.0
Co68 Co 0.11041 0.8881 0.07821 0.0
Co69 Co 0.09725 0.89682 0.25059 0.0
C70 C 0.12646 0.93593 0.13984 0.0
O71 O 0.12484 0.92172 0.08566 0.0
O72 O 0.11704 0.92904 0.20926 0.0
C73 C 0.13663 0.89668 0.93295 0.0
O74 O 0.15301 0.9143 0.97237 0.0
C75 C 0.10366 0.91002 0.42277 0.0
C76 C 0.06914 0.88558 0.47155 0.0
C77 C 0.09116 0.90226 0.49447 0.0
N78 N 0.08976 0.89791 0.36091 0.0
N79 N 0.06904 0.88372 0.39027 0.0
C80 C 0.12807 0.92902 0.41188 0.0
H81 H 0.13829 0.92235 0.3813 0.0
H82 H 0.13621 0.93724 0.47048 0.0
H83 H 0.12824 0.94231 0.37112 0.0
C84 C 0.12809 0.86253 0.17352 0.0
N85 N 0.1182 0.87571 0.16786 0.0
N86 N 0.1121 0.87875 0.24084 0.0
C87 C 0.11755 0.86711 0.29526 0.0
C88 C 0.12795 0.85656 0.25447 0.0
C89 C 0.13641 0.855 0.10194 0.0
H90 H 0.12301 0.84836 0.05381 0.0
H91 H 0.15199 0.87013 0.07666 0.0
H92 H 0.14062 0.84148 0.11875 0.0
O93 O 0.07675 0.8746 0.07076 0.0
O94 O 0.06719 0.88127 0.19232 0.0
H95 H 0.09505 0.86152 0.39589 0.0
H96 H 0.117 0.85421 0.4174 0.0
C97 C 0.11324 0.86641 0.38486 0.0
H98 H 0.12456 0.88368 0.41096 0.0
H99 H 0.05509 0.872 0.35518 0.0
O100 O 0.11916 0.88161 0.97172 0.0
C101 C 0.06165 0.87321 0.12069 0.0
Co102 Co 0.22766 0.11107 -0.00049 0.0
Co103 Co 0.2028 0.10029 0.83299 0.0
C104 C 0.19213 0.06266 0.95014 0.0
O105 O 0.20637 0.07718 0.00062 0.0
O106 O 0.18894 0.06898 0.88062 0.0
C107 C 0.24176 0.10322 0.14925 0.0
O108 O 0.23743 0.08311 0.12109 0.0
C109 C 0.18952 0.0837 0.6662 0.0
C110 C 0.1935 0.11534 0.60941 0.0
C111 C 0.19083 0.09391 0.59106 0.0
N112 N 0.19296 0.09911 0.72455 0.0
N113 N 0.19431 0.11756 0.69046 0.0
C114 C 0.18518 0.05992 0.68372 0.0
H115 H 0.17382 0.05287 0.73756 0.0
H116 H 0.20165 0.06054 0.69813 0.0
H117 H 0.17665 0.04822 0.63151 0.0
C118 C 0.26923 0.13256 0.89407 0.0
N119 N 0.24623 0.12084 0.90533 0.0
N120 N 0.23582 0.11534 0.83432 0.0
C121 C 0.252 0.12284 0.77536 0.0
C122 C 0.27373 0.13429 0.81105 0.0
C123 C 0.28635 0.14273 0.9618 0.0
H124 H 0.27967 0.14954 0.0095 0.0
H125 H 0.28886 0.12903 0.98943 0.0
H126 H 0.30319 0.15683 0.93973 0.0
O127 O 0.20958 0.12675 0.00993 0.0
O128 O 0.19183 0.11901 0.89098 0.0
H129 H 0.23979 0.12766 0.66104 0.0
H130 H 0.26239 0.12061 0.65213 0.0
C131 C 0.24689 0.11725 0.68705 0.0
H132 H 0.2341 0.09877 0.68034 0.0
H133 H 0.19779 0.13245 0.72212 0.0
O134 O 0.24595 0.11928 0.09927 0.0
C135 C 0.19586 0.12839 0.96076 0.0
Co136 Co 0.88445 0.10878 0.94203 0.0
Co137 Co 0.90191 0.10131 0.77511 0.0
C138 C 0.9356 0.12665 0.89994 0.0
O139 O 0.91869 0.12304 0.94499 0.0
O140 O 0.93247 0.11965 0.8266 0.0
C141 C 0.89172 0.13379 0.08741 0.0
O142 O 0.91121 0.14841 0.05201 0.0
C143 C 0.91655 0.10622 0.60144 0.0
C144 C 0.88535 0.07591 0.5533 0.0
C145 C 0.90514 0.09578 0.52955 0.0
N146 N 0.9033 0.09367 0.66425 0.0
N147 N 0.88524 0.07508 0.6347 0.0
C148 C 0.93844 0.12883 0.61004 0.0
H149 H 0.94121 0.13483 0.674 0.0
H150 H 0.93819 0.14198 0.56963 0.0
H151 H 0.95311 0.12665 0.59087 0.0
C152 C 0.85833 0.12316 0.83071 0.0
N153 N 0.87416 0.11685 0.8469 0.0
N154 N 0.88471 0.11721 0.77935 0.0
C155 C 0.87765 0.12597 0.71957 0.0
C156 C 0.85976 0.12908 0.74811 0.0
C157 C 0.84145 0.12186 0.89284 0.0
H158 H 0.84069 0.11092 0.9448 0.0
H159 H 0.84703 0.13942 0.91611 0.0
H160 H 0.82402 0.1146 0.86564 0.0
O161 O 0.8713 0.07563 0.94658 0.0
O162 O 0.88445 0.07023 0.82997 0.0
H163 H 0.88532 0.12227 0.59605 0.0
H164 H 0.88956 0.15047 0.62013 0.0
C165 C 0.89121 0.13582 0.64333 0.0
H166 H 0.90963 0.14256 0.65665 0.0
H167 H 0.87171 0.06288 0.67013 0.0
O168 O 0.87596 0.11764 0.04549 0.0
C169 C 0.87321 0.06241 0.89597 0.0
Co170 Co 0.88834 0.77611 0.94972 0.0
Co171 Co 0.90281 0.79882 0.77878 0.0
C172 C 0.87348 0.80877 0.88855 0.0
O173 O 0.8748 0.79596 0.9425 0.0
O174 O 0.8829 0.81124 0.81923 0.0
C175 C 0.86127 0.75918 0.09242 0.0
O176 O 0.84652 0.76286 0.05183 0.0
C177 C 0.8956 0.80021 0.60486 0.0
C178 C 0.93143 0.81646 0.55995 0.0
C179 C 0.90863 0.8049 0.53436 0.0
N180 N 0.9101 0.80771 0.66857 0.0
N181 N 0.93148 0.81815 0.64127 0.0
C182 C 0.86991 0.78648 0.61333 0.0
H183 H 0.86495 0.7807 0.67708 0.0
H184 H 0.86238 0.7714 0.57198 0.0
H185 H 0.86259 0.79756 0.59636 0.0
C186 C 0.86957 0.73318 0.85176 0.0
N187 N 0.8804 0.7563 0.85904 0.0
N188 N 0.88818 0.76583 0.78741 0.0
C189 C 0.88355 0.74895 0.73311 0.0
C190 C 0.87103 0.7278 0.77137 0.0
C191 C 0.8581 0.71678 0.9206 0.0
H192 H 0.84884 0.72304 0.95943 0.0
H193 H 0.84585 0.69918 0.89824 0.0
H194 H 0.87147 0.71612 0.95847 0.0
O195 O 0.92227 0.79595 0.95905 0.0
O196 O 0.93241 0.81305 0.83862 0.0
H197 H 0.89797 0.73849 0.63651 0.0
H198 H 0.88201 0.75176 0.60369 0.0
C199 C 0.89422 0.75249 0.65053 0.0
H200 H 0.91054 0.76916 0.64735 0.0
H201 H 0.94606 0.82477 0.67836 0.0
O202 O 0.87827 0.76006 0.05481 0.0
C203 C 0.9376 0.81001 0.91022 0.0
Co204 Co 0.77679 0.56212 0.33557 0.0
Co205 Co 0.7699 0.5413 0.50872 0.0
C206 C 0.72961 0.52873 0.40311 0.0
O207 O 0.74316 0.54138 0.34723 0.0
O208 O 0.73728 0.52705 0.47219 0.0
C209 C 0.76537 0.57676 0.189 0.0
O210 O 0.74677 0.57346 0.22721 0.0
C211 C 0.75801 0.53102 0.68211 0.0
C212 C 0.78925 0.5311 0.72601 0.0
C213 C 0.769 0.52982 0.75198 0.0
N214 N 0.77163 0.5337 0.6183 0.0
N215 N 0.78997 0.53314 0.64477 0.0
C216 C 0.73489 0.52928 0.67529 0.0
H217 H 0.72438 0.51595 0.62959 0.0
H218 H 0.73686 0.54581 0.65321 0.0
H219 H 0.72562 0.52459 0.73425 0.0
C220 C 0.80143 0.60611 0.42855 0.0
N221 N 0.78921 0.58294 0.42371 0.0
N222 N 0.78567 0.57415 0.49737 0.0
C223 C 0.79517 0.59154 0.55175 0.0
C224 C 0.8057 0.61243 0.51009 0.0
C225 C 0.80951 0.62167 0.35602 0.0
H226 H 0.81397 0.61352 0.30601 0.0
H227 H 0.79534 0.6244 0.3346 0.0
H228 H 0.82473 0.63862 0.37103 0.0
O229 O 0.79191 0.54353 0.32541 0.0
O230 O 0.78636 0.52816 0.44813 0.0
H231 H 0.80319 0.58091 0.66397 0.0
H232 H 0.79743 0.60442 0.67486 0.0
C233 C 0.79253 0.58821 0.64194 0.0
H234 H 0.77432 0.57603 0.65644 0.0
H235 H 0.80354 0.53532 0.6077 0.0
O236 O 0.7817 0.57701 0.22912 0.0
C237 C 0.79424 0.53059 0.37629 0.0
Co238 Co 0.43252 0.21598 0.3468 0.0
Co239 Co 0.45613 0.23357 0.51476 0.0
C240 C 0.4654 0.20224 0.4106 0.0
O241 O 0.45172 0.20147 0.35565 0.0
O242 O 0.46868 0.21392 0.4752 0.0
C243 C 0.41663 0.19181 0.19783 0.0
O244 O 0.42414 0.17866 0.22839 0.0
C245 C 0.46104 0.22435 0.68195 0.0
C246 C 0.47158 0.2577 0.74156 0.0
C247 C 0.46469 0.2348 0.7571 0.0
N248 N 0.46518 0.24022 0.62466 0.0
N249 N 0.47218 0.26031 0.66029 0.0
C250 C 0.45026 0.19906 0.6651 0.0
H251 H 0.44217 0.19482 0.60402 0.0
H252 H 0.43714 0.18879 0.71182 0.0
H253 H 0.46384 0.19421 0.66723 0.0
C254 C 0.39019 0.19748 0.4482 0.0
N255 N 0.41325 0.20932 0.43847 0.0
N256 N 0.42316 0.21775 0.50903 0.0
C257 C 0.40657 0.21206 0.56554 0.0
C258 C 0.38522 0.1987 0.52936 0.0
C259 C 0.37348 0.18464 0.38143 0.0
H260 H 0.3805 0.17625 0.34173 0.0
H261 H 0.35651 0.17146 0.406 0.0
H262 H 0.3711 0.19706 0.3438 0.0
O263 O 0.45303 0.24966 0.33332 0.0
O264 O 0.46978 0.26289 0.4528 0.0
H265 H 0.39539 0.2214 0.67488 0.0
H266 H 0.41364 0.20931 0.69066 0.0
C267 C 0.41063 0.22092 0.65101 0.0
H268 H 0.42571 0.23854 0.6536 0.0
H269 H 0.47563 0.27533 0.62954 0.0
O270 O 0.41536 0.20639 0.24357 0.0
C271 C 0.46676 0.26626 0.37873 0.0
Co272 Co 0.77938 0.21815 0.34191 0.0
Co273 Co 0.76845 0.23261 0.50938 0.0
C274 C 0.79652 0.26833 0.39211 0.0
O275 O 0.79428 0.25243 0.34424 0.0
O276 O 0.78756 0.26369 0.46272 0.0
C277 C 0.80388 0.22605 0.19458 0.0
O278 O 0.81799 0.24603 0.22802 0.0
C279 C 0.77214 0.24688 0.68246 0.0
C280 C 0.7421 0.21537 0.73033 0.0
C281 C 0.76164 0.23548 0.75424 0.0
N282 N 0.75995 0.2334 0.61957 0.0
N283 N 0.74151 0.21512 0.64883 0.0
C284 C 0.79474 0.26882 0.67418 0.0
H285 H 0.80132 0.27118 0.61111 0.0
H286 H 0.80764 0.26899 0.71695 0.0
H287 H 0.79227 0.28354 0.69005 0.0
C288 C 0.79221 0.19055 0.45203 0.0
N289 N 0.78562 0.20622 0.43702 0.0
N290 N 0.78431 0.21533 0.50595 0.0
C291 C 0.79218 0.20746 0.56613 0.0
C292 C 0.79653 0.19057 0.53558 0.0
C293 C 0.79278 0.17514 0.3875 0.0
H294 H 0.78228 0.17458 0.3344 0.0
H295 H 0.81081 0.182 0.3669 0.0
H296 H 0.78604 0.15741 0.41137 0.0
O297 O 0.74645 0.20588 0.33142 0.0
O298 O 0.73815 0.21607 0.44915 0.0
H299 H 0.78524 0.21231 0.68935 0.0
H300 H 0.81418 0.21758 0.67268 0.0
C301 C 0.79993 0.21939 0.64636 0.0
H302 H 0.80664 0.23797 0.63744 0.0
H303 H 0.72961 0.20142 0.61324 0.0
O304 O 0.78869 0.21002 0.23855 0.0
C305 C 0.73202 0.20652 0.37955 0.0
Co306 Co 0.90099 0.45264 0.36511 0.0
Co307 Co 0.87868 0.44172 0.19245 0.0
C308 C 0.86732 0.40407 0.30956 0.0
O309 O 0.88035 0.41908 0.3611 0.0
O310 O 0.86502 0.40983 0.23774 0.0
C311 C 0.91804 0.44351 0.51059 0.0
O312 O 0.91669 0.42597 0.47036 0.0
C313 C 0.86969 0.42757 0.01996 0.0
C314 C 0.86431 0.45524 0.9708 0.0
C315 C 0.86644 0.43651 0.94815 0.0
N316 N 0.87011 0.4409 0.08173 0.0
N317 N 0.86635 0.45706 0.05203 0.0
C318 C 0.87166 0.40642 0.03071 0.0
H319 H 0.85417 0.39149 0.0411 0.0
H320 H 0.88226 0.40814 0.085 0.0
H321 H 0.87887 0.4027 0.97599 0.0
C322 C 0.94423 0.475 0.2676 0.0
N323 N 0.9211 0.46323 0.27463 0.0
N324 N 0.91177 0.4584 0.20164 0.0
C325 C 0.9288 0.4669 0.14569 0.0
C326 C 0.94996 0.47783 0.18549 0.0
C327 C 0.96036 0.48362 0.3385 0.0
H328 H 0.9625 0.46932 0.36262 0.0
H329 H 0.9775 0.49809 0.32056 0.0
H330 H 0.953 0.48931 0.38757 0.0
O331 O 0.88195 0.46728 0.36946 0.0
O332 O 0.86506 0.45852 0.24882 0.0
H333 H 0.91455 0.47029 0.03339 0.0
H334 H 0.94102 0.46974 0.02086 0.0
C335 C 0.92486 0.46269 0.05618 0.0
H336 H 0.91528 0.44392 0.0453 0.0
H337 H 0.86631 0.47005 0.08683 0.0
O338 O 0.91601 0.45889 0.47233 0.0
C339 C 0.86801 0.46784 0.31846 0.0
Co340 Co 0.55307 0.4501 0.29214 0.0
Co341 Co 0.56088 0.43288 0.12559 0.0
C342 C 0.60035 0.46332 0.23609 0.0
O343 O 0.58679 0.46404 0.28827 0.0
O344 O 0.59274 0.45208 0.17013 0.0
C345 C 0.56075 0.47375 0.4418 0.0
O346 O 0.58133 0.48734 0.41144 0.0
C347 C 0.57566 0.44255 0.95853 0.0
C348 C 0.55365 0.409 0.89889 0.0
C349 C 0.56905 0.43207 0.88322 0.0
N350 N 0.56429 0.42655 0.01587 0.0
N351 N 0.55174 0.40636 0.98015 0.0
C352 C 0.58955 0.46789 0.97545 0.0
H353 H 0.58627 0.4718 0.03785 0.0
H354 H 0.58555 0.47779 0.93062 0.0
H355 H 0.60812 0.47349 0.96978 0.0
C356 C 0.5296 0.4682 0.18583 0.0
N357 N 0.54148 0.45709 0.19792 0.0
N358 N 0.54375 0.44881 0.12815 0.0
C359 C 0.53276 0.45389 0.06991 0.0
C360 C 0.5239 0.4667 0.104 0.0
C361 C 0.52394 0.47995 0.25151 0.0
H362 H 0.53872 0.48871 0.29399 0.0
H363 H 0.51959 0.49264 0.22582 0.0
H364 H 0.50894 0.4668 0.28647 0.0
O365 O 0.53934 0.41638 0.30401 0.0
O366 O 0.54408 0.40327 0.1861 0.0
H367 H 0.512 0.44305 0.96088 0.0
H368 H 0.54239 0.45606 0.94483 0.0
C369 C 0.52807 0.44437 0.98531 0.0
H370 H 0.52614 0.42699 0.9846 0.0
H371 H 0.54045 0.3912 0.0108 0.0
O372 O 0.54494 0.4594 0.39519 0.0
C373 C 0.53675 0.39981 0.25908 0.0
Co374 Co 0.54706 0.10538 0.33197 0.0
Co375 Co 0.5624 0.12796 0.16192 0.0
C376 C 0.53153 0.13702 0.26841 0.0
O377 O 0.53187 0.12407 0.32417 0.0
O378 O 0.54246 0.13995 0.20224 0.0
C379 C 0.52212 0.08795 0.4789 0.0
O380 O 0.50817 0.09428 0.4469 0.0
C381 C 0.55236 0.13204 0.99498 0.0
C382 C 0.58573 0.14325 0.93446 0.0
C383 C 0.56268 0.13582 0.91961 0.0
N384 N 0.56845 0.13666 0.05179 0.0
N385 N 0.58854 0.14404 0.01563 0.0
C386 C 0.52708 0.12085 0.01256 0.0
H387 H 0.52312 0.11284 0.0738 0.0
H388 H 0.51688 0.1076 0.96611 0.0
H389 H 0.52187 0.13417 0.01055 0.0
C390 C 0.52972 0.06254 0.23458 0.0
N391 N 0.54022 0.08564 0.24158 0.0
N392 N 0.54743 0.09512 0.16959 0.0
C393 C 0.54211 0.07823 0.11462 0.0
C394 C 0.53046 0.0571 0.15368 0.0
C395 C 0.51892 0.04618 0.30403 0.0
H396 H 0.53272 0.04704 0.34378 0.0
H397 H 0.50847 0.05146 0.34081 0.0
H398 H 0.50787 0.02821 0.28259 0.0
O399 O 0.58077 0.12628 0.34287 0.0
O400 O 0.59207 0.14236 0.22132 0.0
H401 H 0.56721 0.09737 0.02249 0.0
H402 H 0.55056 0.06688 0.00359 0.0
C403 C 0.54986 0.08197 0.02781 0.0
H404 H 0.53748 0.08435 0.99024 0.0
H405 H 0.60375 0.14792 0.04599 0.0
O406 O 0.53795 0.08841 0.43525 0.0
C407 C 0.59657 0.13994 0.29466 0.0
Co408 Co 0.44427 0.89074 0.72273 0.0
Co409 Co 0.43389 0.86889 0.895 0.0
C410 C 0.39619 0.85568 0.77583 0.0
O411 O 0.41083 0.86892 0.72383 0.0
O412 O 0.40234 0.85401 0.84756 0.0
C413 C 0.43457 0.90739 0.57868 0.0
O414 O 0.41488 0.90115 0.61513 0.0
C415 C 0.4178 0.86116 0.06289 0.0
C416 C 0.44517 0.85712 0.12214 0.0
C417 C 0.42633 0.85979 0.13813 0.0
N418 N 0.43154 0.86024 0.00546 0.0
N419 N 0.44731 0.85691 0.04106 0.0
C420 C 0.39891 0.86639 0.04592 0.0
H421 H 0.40123 0.87448 0.98519 0.0
H422 H 0.3983 0.87784 0.09332 0.0
H423 H 0.38216 0.85001 0.04658 0.0
C424 C 0.46527 0.93406 0.81806 0.0
N425 N 0.45377 0.9109 0.81272 0.0
N426 N 0.44954 0.90194 0.88623 0.0
C427 C 0.45839 0.91931 0.94102 0.0
C428 C 0.46863 0.94024 0.89962 0.0
C429 C 0.47376 0.94978 0.74595 0.0
H430 H 0.48132 0.94314 0.70092 0.0
H431 H 0.45896 0.95002 0.71662 0.0
H432 H 0.48688 0.96759 0.76346 0.0
O433 O 0.46057 0.87309 0.72034 0.0
O434 O 0.45252 0.8569 0.84245 0.0
H435 H 0.46245 0.90433 0.05044 0.0
H436 H 0.46517 0.93219 0.06578 0.0
C437 C 0.45598 0.91591 0.03125 0.0
H438 H 0.4376 0.90802 0.04754 0.0
H439 H 0.46067 0.85641 0.01033 0.0
O440 O 0.45069 0.90699 0.6181 0.0
C441 C 0.46213 0.86008 0.77322 0.0
Co442 Co 0.10996 0.55374 0.72546 0.0
Co443 Co 0.13398 0.56611 0.89459 0.0
C444 C 0.14294 0.53806 0.77394 0.0
O445 O 0.12957 0.5396 0.72285 0.0
O446 O 0.14605 0.54712 0.84418 0.0
C447 C 0.09159 0.5294 0.57866 0.0
O448 O 0.09628 0.5144 0.61204 0.0
C449 C 0.13768 0.55437 0.06115 0.0
C450 C 0.15131 0.58802 0.12237 0.0
C451 C 0.14205 0.56465 0.13694 0.0
N452 N 0.1435 0.57083 0.00462 0.0
N453 N 0.1524 0.59103 0.04133 0.0
C454 C 0.12499 0.52908 0.04294 0.0
H455 H 0.11847 0.52583 0.97953 0.0
H456 H 0.11048 0.51968 0.08602 0.0
H457 H 0.13697 0.5223 0.05069 0.0
C458 C 0.06783 0.53452 0.82877 0.0
N459 N 0.09086 0.54479 0.81876 0.0
N460 N 0.10102 0.55128 0.89011 0.0
C461 C 0.08473 0.54606 0.94746 0.0
C462 C 0.0632 0.53482 0.91093 0.0
C463 C 0.05081 0.52486 0.76067 0.0
H464 H 0.05022 0.53919 0.72907 0.0
H465 H 0.05639 0.51623 0.71605 0.0
H466 H 0.03332 0.51241 0.78339 0.0
O467 O 0.13005 0.58772 0.72188 0.0
O468 O 0.14759 0.59674 0.84176 0.0
H469 H 0.10561 0.57148 0.03658 0.0
H470 H 0.07522 0.55705 0.0569 0.0
C471 C 0.08942 0.55471 0.03323 0.0
H472 H 0.09065 0.54198 0.07275 0.0
H473 H 0.1574 0.60657 0.01147 0.0
O474 O 0.09282 0.54568 0.62196 0.0
C475 C 0.14414 0.60261 0.77183 0.0
Co476 Co 0.45179 0.55209 0.62961 0.0
Co477 Co 0.43869 0.56331 0.79878 0.0
C478 C 0.46593 0.60067 0.68074 0.0
O479 O 0.46474 0.58571 0.63075 0.0
O480 O 0.45701 0.59488 0.75125 0.0
C481 C 0.4765 0.56084 0.48192 0.0
O482 O 0.49026 0.58089 0.51564 0.0
C483 C 0.4456 0.57927 0.96754 0.0
C484 C 0.41355 0.55186 0.02322 0.0
C485 C 0.43506 0.5704 0.04183 0.0
N486 N 0.43135 0.56587 0.90837 0.0
N487 N 0.41186 0.55014 0.94187 0.0
C488 C 0.46996 0.59803 0.95319 0.0
H489 H 0.47609 0.59598 0.89287 0.0
H490 H 0.4816 0.59815 0.00143 0.0
H491 H 0.47061 0.6149 0.95459 0.0
C492 C 0.4712 0.52943 0.73296 0.0
N493 N 0.46037 0.54165 0.72312 0.0
N494 N 0.45503 0.54636 0.79485 0.0
C495 C 0.46239 0.53719 0.85281 0.0
C496 C 0.47284 0.52611 0.81564 0.0
C497 C 0.47908 0.52056 0.66398 0.0
H498 H 0.46604 0.51428 0.61464 0.0
H499 H 0.49538 0.53489 0.63921 0.0
H500 H 0.48202 0.50641 0.6839 0.0
O501 O 0.41811 0.53765 0.6221 0.0
O502 O 0.40849 0.546 0.74086 0.0
H503 H 0.44291 0.53421 0.95975 0.0
H504 H 0.46796 0.53172 0.98007 0.0
C505 C 0.46104 0.54049 0.94225 0.0
H506 H 0.47157 0.559 0.95631 0.0
H507 H 0.3982 0.53698 0.90963 0.0
O508 O 0.46126 0.54471 0.52537 0.0
C509 C 0.40297 0.5368 0.67067 0.0
Co510 Co 0.56391 0.78583 0.64859 0.0
Co511 Co 0.54067 0.77269 0.47837 0.0
C512 C 0.53144 0.73666 0.60301 0.0
O513 O 0.54436 0.75212 0.65327 0.0
O514 O 0.52865 0.74188 0.53107 0.0
C515 C 0.58304 0.78036 0.79416 0.0
O516 O 0.57912 0.76108 0.75948 0.0
C517 C 0.5372 0.75691 0.31206 0.0
C518 C 0.52364 0.77694 0.25014 0.0
C519 C 0.53294 0.76285 0.23603 0.0
N520 N 0.53135 0.76759 0.36822 0.0
N521 N 0.52247 0.77885 0.33106 0.0
C522 C 0.54964 0.7441 0.33096 0.0
H523 H 0.55668 0.74792 0.39367 0.0
H524 H 0.56371 0.74846 0.2866 0.0
H525 H 0.5373 0.72534 0.32606 0.0
C526 C 0.60643 0.80834 0.54798 0.0
N527 N 0.58337 0.79552 0.55641 0.0
N528 N 0.57362 0.79111 0.48413 0.0
C529 C 0.59028 0.80173 0.42751 0.0
C530 C 0.61155 0.81251 0.46582 0.0
C531 C 0.62302 0.81636 0.61756 0.0
H532 H 0.62173 0.83004 0.65105 0.0
H533 H 0.61833 0.80185 0.66023 0.0
H534 H 0.64102 0.82323 0.59652 0.0
O535 O 0.54374 0.79959 0.64852 0.0
O536 O 0.52661 0.78966 0.52805 0.0
H537 H 0.60058 0.82086 0.3149 0.0
H538 H 0.58524 0.7902 0.30398 0.0
C539 C 0.58619 0.80462 0.33985 0.0
H540 H 0.57004 0.80512 0.33273 0.0
H541 H 0.51743 0.7894 0.36056 0.0
O542 O 0.58082 0.7951 0.75236 0.0
C543 C 0.52965 0.79959 0.59654 0.0
Co544 Co 0.22321 0.77735 0.62245 0.0
Co545 Co 0.23383 0.765 0.45191 0.0
C546 C 0.2714 0.79134 0.57181 0.0
O547 O 0.25671 0.79005 0.62326 0.0
O548 O 0.26526 0.78278 0.50095 0.0
C549 C 0.23101 0.80275 0.76766 0.0
O550 O 0.25081 0.8169 0.73304 0.0
C551 C 0.24962 0.77562 0.28518 0.0
C552 C 0.22637 0.74263 0.2241 0.0
C553 C 0.24265 0.76549 0.20943 0.0
N554 N 0.23752 0.75962 0.34173 0.0
N555 N 0.22425 0.73973 0.30511 0.0
C556 C 0.26496 0.8007 0.30349 0.0
H557 H 0.26124 0.80489 0.36485 0.0
H558 H 0.26294 0.81159 0.25708 0.0
H559 H 0.28315 0.80471 0.30207 0.0
C560 C 0.20274 0.79953 0.52312 0.0
N561 N 0.21372 0.7874 0.53078 0.0
N562 N 0.21728 0.7815 0.45823 0.0
C563 C 0.20806 0.78929 0.40211 0.0
C564 C 0.19898 0.80124 0.44122 0.0
C565 C 0.19655 0.8096 0.59304 0.0
H566 H 0.21222 0.82053 0.62961 0.0
H567 H 0.18886 0.82005 0.57226 0.0
H568 H 0.18413 0.79546 0.63291 0.0
O569 O 0.20803 0.74336 0.62571 0.0
O570 O 0.2159 0.73437 0.50483 0.0
H571 H 0.19091 0.78452 0.28668 0.0
H572 H 0.22146 0.7966 0.28108 0.0
C573 C 0.20574 0.78374 0.31329 0.0
H574 H 0.20308 0.76625 0.30346 0.0
H575 H 0.21239 0.72468 0.33505 0.0
O576 O 0.2154 0.7864 0.72608 0.0
C577 C 0.20665 0.72845 0.57479 0.0
Co578 Co 0.21756 0.43938 0.62998 0.0
Co579 Co 0.23263 0.4637 0.46054 0.0
C580 C 0.20376 0.47335 0.57573 0.0
O581 O 0.20421 0.45953 0.62758 0.0
O582 O 0.21361 0.4765 0.50684 0.0
C583 C 0.19196 0.42153 0.77693 0.0
O584 O 0.17588 0.42388 0.73999 0.0
C585 C 0.22497 0.46849 0.28739 0.0
C586 C 0.26046 0.48392 0.23976 0.0
C587 C 0.23767 0.47458 0.21567 0.0
N588 N 0.23959 0.47329 0.35011 0.0
N589 N 0.2608 0.48299 0.3213 0.0
C590 C 0.19953 0.45871 0.29719 0.0
H591 H 0.19597 0.46519 0.3542 0.0
H592 H 0.19078 0.43967 0.30178 0.0
H593 H 0.19228 0.46339 0.24467 0.0
C594 C 0.19819 0.39732 0.52463 0.0
N595 N 0.20927 0.42034 0.53604 0.0
N596 N 0.2171 0.43072 0.46558 0.0
C597 C 0.21221 0.41459 0.40798 0.0
C598 C 0.19949 0.39295 0.44273 0.0
C599 C 0.18677 0.38001 0.59102 0.0
H600 H 0.17972 0.38679 0.63745 0.0
H601 H 0.17277 0.36346 0.56645 0.0
H602 H 0.19978 0.37681 0.6208 0.0
O603 O 0.25147 0.45892 0.63813 0.0
O604 O 0.26247 0.47663 0.519 0.0
H605 H 0.22542 0.40495 0.30485 0.0
H606 H 0.21139 0.42089 0.28042 0.0
C607 C 0.2229 0.41934 0.32506 0.0
H608 H 0.23989 0.43533 0.3254 0.0
H609 H 0.27542 0.48787 0.35697 0.0
O610 O 0.20877 0.42319 0.73573 0.0
C611 C 0.2672 0.4729 0.5904 0.0
H612 H 0.09741 0.2353 0.44377 0.0
H613 H 0.09846 0.17395 0.51606 0.0
H614 H 0.10115 0.18512 0.6588 0.0
H615 H 0.10606 0.21361 0.76148 0.0
H616 H 0.1038 0.27444 0.69219 0.0
H617 H 0.09851 0.26219 0.54898 0.0
C618 C 0.09719 0.22389 0.49095 0.0
C619 C 0.09709 0.20348 0.4698 0.0
C620 C 0.0991 0.23064 0.57281 0.0
C621 C 0.09809 0.18949 0.53132 0.0
C622 C 0.09985 0.19598 0.61268 0.0
C623 C 0.1045 0.2242 0.71473 0.0
C624 C 0.10591 0.24515 0.73612 0.0
C625 C 0.10095 0.21677 0.6338 0.0
C626 C 0.10315 0.25845 0.6762 0.0
C627 C 0.10004 0.25138 0.59475 0.0
H628 H 0.77491 0.89966 0.53053 0.0
H629 H 0.81822 0.86913 0.52258 0.0
H630 H 0.80318 0.85077 0.65511 0.0
H631 H 0.78095 0.84729 0.77855 0.0
H632 H 0.73906 0.87954 0.78709 0.0
H633 H 0.74973 0.89282 0.64714 0.0
C634 C 0.78103 0.88897 0.55804 0.0
C635 C 0.79797 0.88608 0.51868 0.0
C636 C 0.77233 0.87862 0.63337 0.0
C637 C 0.80538 0.87174 0.55302 0.0
C638 C 0.79673 0.86125 0.62831 0.0
C639 C 0.77358 0.8566 0.74889 0.0
C640 C 0.75932 0.86255 0.79288 0.0
C641 C 0.78057 0.86499 0.66976 0.0
C642 C 0.7501 0.87482 0.75418 0.0
C643 C 0.75637 0.8826 0.67463 0.0
H644 H 0.10209 0.90061 0.87153 0.0
H645 H 0.16392 0.90023 0.8032 0.0
H646 H 0.15645 0.90421 0.65913 0.0
H647 H 0.13044 0.90483 0.55347 0.0
H648 H 0.06925 0.90624 0.62535 0.0
H649 H 0.07838 0.90494 0.76827 0.0
C650 C 0.11389 0.90137 0.82484 0.0
C651 C 0.13318 0.89959 0.84668 0.0
C652 C 0.10966 0.90402 0.7435 0.0
C653 C 0.14879 0.90123 0.78682 0.0
C654 C 0.14452 0.90356 0.70491 0.0
C655 C 0.11959 0.90572 0.60047 0.0
C656 C 0.0994 0.90606 0.57921 0.0
C657 C 0.12485 0.90471 0.68254 0.0
C658 C 0.08497 0.90621 0.64061 0.0
C659 C 0.09011 0.90533 0.72211 0.0
H660 H 0.18887 0.1122 0.44823 0.0
H661 H 0.20922 0.06582 0.55251 0.0
H662 H 0.22543 0.06373 0.42399 0.0
H663 H 0.23734 0.07791 0.28404 0.0
H664 H 0.22258 0.12931 0.18926 0.0
H665 H 0.20191 0.12744 0.31271 0.0
C666 C 0.19658 0.10136 0.44289 0.0
C667 C 0.19696 0.08866 0.51032 0.0
C668 C 0.20779 0.10181 0.37077 0.0
C669 C 0.20735 0.07495 0.50187 0.0
C670 C 0.21732 0.0742 0.4283 0.0
C671 C 0.22975 0.08881 0.29099 0.0
C672 C 0.2317 0.10383 0.22804 0.0
C673 C 0.21818 0.08803 0.36303 0.0
C674 C 0.22172 0.11785 0.23737 0.0
C675 C 0.20963 0.11662 0.3076 0.0
H676 H 0.87115 0.09551 0.44217 0.0
H677 H 0.94443 0.12132 0.43891 0.0
H678 H 0.94718 0.13889 0.30539 0.0
H679 H 0.92802 0.14382 0.18552 0.0
H680 H 0.85427 0.11536 0.18666 0.0
H681 H 0.85244 0.10223 0.32665 0.0
C682 C 0.88775 0.10489 0.41216 0.0
C683 C 0.90755 0.10691 0.44973 0.0
C684 C 0.88908 0.11463 0.33571 0.0
C685 C 0.92898 0.11957 0.4111 0.0
C686 C 0.93052 0.12957 0.33488 0.0
C687 C 0.91162 0.13528 0.21715 0.0
C688 C 0.89127 0.13063 0.17617 0.0
C689 C 0.91061 0.12691 0.29619 0.0
C690 C 0.87012 0.11919 0.21729 0.0
C691 C 0.86907 0.11152 0.29689 0.0
H692 H 0.89308 0.75836 0.19158 0.0
H693 H 0.83374 0.76754 0.19351 0.0
H694 H 0.84271 0.78207 0.33274 0.0
H695 H 0.87022 0.79658 0.4474 0.0
H696 H 0.93005 0.78822 0.44085 0.0
H697 H 0.91849 0.76979 0.30865 0.0
C698 C 0.88181 0.76312 0.22277 0.0
C699 C 0.86294 0.76212 0.1817 0.0
C700 C 0.88754 0.77227 0.30126 0.0
C701 C 0.84844 0.76818 0.22354 0.0
C702 C 0.8537 0.77675 0.3029 0.0
C703 C 0.88048 0.79037 0.41764 0.0
C704 C 0.90098 0.79384 0.45392 0.0
C705 C 0.87368 0.77962 0.3413 0.0
C706 C 0.91436 0.78611 0.41374 0.0
C707 C 0.90767 0.77533 0.33844 0.0
H708 H 0.77356 0.54484 0.12726 0.0
H709 H 0.75163 0.5931 0.06033 0.0
H710 H 0.74852 0.58108 0.91732 0.0
H711 H 0.75473 0.5585 0.81176 0.0
H712 H 0.77529 0.50938 0.88288 0.0
H713 H 0.77608 0.51996 0.02523 0.0
C714 C 0.76825 0.55285 0.08116 0.0
C715 C 0.76348 0.57027 0.10302 0.0
C716 C 0.766 0.54548 0.00066 0.0
C717 C 0.7558 0.57996 0.0439 0.0
C718 C 0.75393 0.57301 0.96263 0.0
C719 C 0.75852 0.54951 0.85868 0.0
C720 C 0.76456 0.53288 0.83731 0.0
C721 C 0.75919 0.55589 0.94031 0.0
C722 C 0.77037 0.52204 0.89834 0.0
C723 C 0.77098 0.5282 0.97945 0.0
H724 H 0.4385 0.17984 0.08608 0.0
H725 H 0.39865 0.21394 0.11205 0.0
H726 H 0.40985 0.22999 0.97545 0.0
H727 H 0.43454 0.23793 0.8558 0.0
H728 H 0.47491 0.20454 0.83012 0.0
H729 H 0.4602 0.18476 0.96052 0.0
C730 C 0.43175 0.19027 0.06114 0.0
C731 C 0.41795 0.1959 0.10939 0.0
C732 C 0.4389 0.20007 0.98379 0.0
C733 C 0.4094 0.20948 0.07617 0.0
C734 C 0.41598 0.21884 -0.00154 0.0
C735 C 0.44015 0.22639 0.87926 0.0
C736 C 0.45611 0.22298 0.83527 0.0
C737 C 0.43144 0.21499 0.95324 0.0
C738 C 0.46284 0.20755 0.86423 0.0
C739 C 0.45436 0.19621 0.93825 0.0
H740 H 0.76247 0.20235 0.84385 0.0
H741 H 0.78604 0.27519 0.84332 0.0
H742 H 0.80457 0.27922 0.97568 0.0
H743 H 0.81147 0.26135 0.09505 0.0
H744 H 0.78555 0.18801 0.09794 0.0
H745 H 0.77087 0.18487 0.95955 0.0
C746 C 0.77154 0.21911 0.87289 0.0
C747 C 0.77274 0.23845 0.83443 0.0
C748 C 0.78193 0.22119 0.94861 0.0
C749 C 0.78495 0.26011 0.87183 0.0
C750 C 0.79552 0.26238 0.94734 0.0
C751 C 0.80313 0.24477 0.06462 0.0
C752 C 0.79969 0.22491 0.10629 0.0
C753 C 0.79392 0.24298 0.98658 0.0
C754 C 0.78848 0.2035 0.06675 0.0
C755 C 0.77992 0.20169 0.98809 0.0
H756 H 0.90292 0.43375 0.88961 0.0
H757 H 0.84029 0.43226 0.81758 0.0
H758 H 0.85088 0.43398 0.67457 0.0
H759 H 0.87926 0.43902 0.57149 0.0
H760 H 0.94161 0.4397 0.64047 0.0
H761 H 0.92982 0.43495 0.78417 0.0
C762 C 0.89117 0.43282 0.84248 0.0
C763 C 0.87056 0.43229 0.86366 0.0
C764 C 0.89759 0.43421 0.76048 0.0
C765 C 0.85602 0.43227 0.80225 0.0
C766 C 0.86216 0.43346 0.72074 0.0
C767 C 0.89025 0.43815 0.61826 0.0
C768 C 0.91147 0.44026 0.59669 0.0
C769 C 0.88315 0.43504 0.69945 0.0
C770 C 0.92536 0.43847 0.65662 0.0
C771 C 0.91857 0.43569 0.73833 0.0
H772 H 0.5349 0.42669 0.78373 0.0
H773 H 0.60878 0.46413 0.81012 0.0
H774 H 0.61261 0.48343 0.67947 0.0
H775 H 0.59492 0.48709 0.55378 0.0
H776 H 0.52086 0.44903 0.52735 0.0
H777 H 0.51703 0.43305 0.66363 0.0
C778 C 0.55182 0.43901 0.76043 0.0
C779 C 0.57159 0.44372 0.80489 0.0
C780 C 0.55379 0.45012 0.68622 0.0
C781 C 0.5934 0.46014 0.77591 0.0
C782 C 0.59555 0.47119 0.70165 0.0
C783 C 0.57789 0.47575 0.57845 0.0
C784 C 0.5582 0.46908 0.53011 0.0
C785 C 0.57586 0.46607 0.65581 0.0
C786 C 0.53629 0.45433 0.56316 0.0
C787 C 0.5341 0.44503 0.64075 0.0
H788 H 0.50863 0.10883 0.58914 0.0
H789 H 0.5436 0.06973 0.56663 0.0
H790 H 0.55873 0.08071 0.70443 0.0
H791 H 0.56608 0.10546 0.82333 0.0
H792 H 0.53203 0.14528 0.84549 0.0
H793 H 0.51261 0.13024 0.71471 0.0
C794 C 0.519 0.10214 0.61521 0.0
C795 C 0.52521 0.08869 0.56765 0.0
C796 C 0.52833 0.10924 0.69314 0.0
C797 C 0.53872 0.08022 0.60212 0.0
C798 C 0.54756 0.08668 0.68045 0.0
C799 C 0.55444 0.11084 0.79908 0.0
C800 C 0.5508 0.1268 0.84194 0.0
C801 C 0.54329 0.10198 0.72491 0.0
C802 C 0.53523 0.13324 0.8121 0.0
C803 C 0.52409 0.12457 0.73789 0.0
H804 H 0.39902 0.88212 0.47686 0.0
H805 H 0.47228 0.92987 0.48237 0.0
H806 H 0.47565 0.92021 0.34179 0.0
H807 H 0.45873 0.89445 0.22564 0.0
H808 H 0.38598 0.84517 0.22098 0.0
H809 H 0.3813 0.85904 0.35389 0.0
C810 C 0.41558 0.89095 0.44637 0.0
C811 C 0.43543 0.90665 0.48957 0.0
C812 C 0.41752 0.88454 0.36695 0.0
C813 C 0.45683 0.91774 0.44996 0.0
C814 C 0.45878 0.91206 0.37007 0.0
C815 C 0.44185 0.88678 0.25391 0.0
C816 C 0.42278 0.86851 0.21541 0.0
C817 C 0.43943 0.89479 0.32951 0.0
C818 C 0.40088 0.85907 0.25075 0.0
C819 C 0.39824 0.86704 0.32627 0.0
H820 H 0.10996 0.51243 0.47073 0.0
H821 H 0.0778 0.55431 0.48772 0.0
H822 H 0.08992 0.56812 0.34917 0.0
H823 H 0.11374 0.57202 0.2308 0.0
H824 H 0.14668 0.53104 0.2136 0.0
H825 H 0.13033 0.51318 0.34556 0.0
C826 C 0.10503 0.52408 0.4434 0.0
C827 C 0.09319 0.53253 0.48967 0.0
C828 C 0.11273 0.53254 0.36478 0.0
C829 C 0.08702 0.54768 0.45342 0.0
C830 C 0.09412 0.55573 0.37455 0.0
C831 C 0.11732 0.55918 0.25623 0.0
C832 C 0.13175 0.55315 0.21435 0.0
C833 C 0.10777 0.54901 0.33116 0.0
C834 C 0.13581 0.53606 0.24596 0.0
C835 C 0.12642 0.52586 0.32097 0.0
H836 H 0.4866 0.59623 0.37875 0.0
H837 H 0.45691 0.52234 0.38762 0.0
H838 H 0.44223 0.51913 0.24936 0.0
H839 H 0.43435 0.53683 0.13284 0.0
H840 H 0.46241 0.6104 0.12487 0.0
H841 H 0.48119 0.61433 0.2569 0.0
C842 C 0.47746 0.57948 0.34965 0.0
C843 C 0.4728 0.55951 0.39326 0.0
C844 C 0.46832 0.57771 0.27146 0.0
C845 C 0.46069 0.53792 0.35513 0.0
C846 C 0.45213 0.53607 0.2765 0.0
C847 C 0.44451 0.55372 0.16029 0.0
C848 C 0.44672 0.5733 0.12052 0.0
C849 C 0.45515 0.55575 0.23545 0.0
C850 C 0.46038 0.59514 0.1552 0.0
C851 C 0.47111 0.59734 0.2303 0.0
H852 H 0.56152 0.79902 0.1446 0.0
H853 H 0.5288 0.72503 0.15781 0.0
H854 H 0.54529 0.72426 0.02529 0.0
H855 H 0.56534 0.74455 0.90032 0.0
H856 H 0.59694 0.81862 0.88715 0.0
H857 H 0.58517 0.81959 0.02678 0.0
C858 C 0.55804 0.78275 0.11825 0.0
C859 C 0.5436 0.76204 0.15904 0.0
C860 C 0.56758 0.78255 0.04293 0.0
C861 C 0.53967 0.74109 0.12626 0.0
C862 C 0.54913 0.7407 0.05092 0.0
C863 C 0.57024 0.76097 0.92876 0.0
C864 C 0.58181 0.78149 0.88334 0.0
C865 C 0.56269 0.76131 0.00795 0.0
C866 C 0.58793 0.80261 0.92087 0.0
C867 C 0.58104 0.80315 0.00034 0.0
H868 H 0.20821 0.76245 0.11796 0.0
H869 H 0.28225 0.79583 0.13067 0.0
H870 H 0.28537 0.81411 -0.00188 0.0
H871 H 0.2666 0.81689 0.87344 0.0
H872 H 0.19233 0.78219 0.86061 0.0
H873 H 0.18965 0.76866 0.00022 0.0
C874 C 0.22501 0.77375 0.09147 0.0
C875 C 0.24499 0.77747 0.13215 0.0
C876 C 0.22656 0.78412 0.01617 0.0
C877 C 0.26671 0.79259 0.09918 0.0
C878 C 0.26844 0.80304 0.02386 0.0
C879 C 0.24985 0.80695 0.902 0.0
C880 C 0.22965 0.80038 0.85677 0.0
C881 C 0.24844 0.79852 0.9811 0.0
C882 C 0.20807 0.78736 0.89431 0.0
C883 C 0.20654 0.77945 0.97372 0.0
H884 H 0.22732 0.45961 0.83777 0.0
H885 H 0.16544 0.39766 0.90811 0.0
H886 H 0.17325 0.40925 0.05189 0.0
H887 H 0.19896 0.43645 0.15656 0.0
H888 H 0.25969 0.49933 0.08242 0.0
H889 H 0.25101 0.48798 0.94033 0.0
C890 C 0.21563 0.44861 0.88486 0.0
C891 C 0.19617 0.42761 0.8635 0.0
C892 C 0.21993 0.45569 0.9661 0.0
C893 C 0.18071 0.41374 0.924 0.0
C894 C 0.18515 0.42043 0.00579 0.0
C895 C 0.20988 0.44805 0.10947 0.0
C896 C 0.22981 0.46893 0.13027 0.0
C897 C 0.20479 0.44137 0.02756 0.0
C898 C 0.24421 0.48325 0.06806 0.0
C899 C 0.23933 0.47674 0.98683 0.0
H900 H 0.17437 0.38099 0.30497 0.0
H901 H 0.20343 0.35542 0.48248 0.0
H902 H 0.18963 0.3198 0.40392 0.0
H903 H 0.16958 0.29624 0.28397 0.0
H904 H 0.13815 0.32077 0.1119 0.0
H905 H 0.15367 0.35712 0.18654 0.0
C906 C 0.17764 0.36756 0.3263 0.0
C907 C 0.18981 0.37068 0.39932 0.0
C908 C 0.16967 0.34726 0.2809 0.0
C909 C 0.19383 0.3532 0.42698 0.0
C910 C 0.18615 0.33299 0.38168 0.0
C911 C 0.16603 0.30952 0.26318 0.0
C912 C 0.15259 0.30578 0.19293 0.0
C913 C 0.1741 0.32988 0.30848 0.0
C914 C 0.14858 0.3233 0.16542 0.0
C915 C 0.15721 0.34396 0.20864 0.0
H916 H 0.70895 0.8811 0.31516 0.0
H917 H 0.69296 0.82046 0.17584 0.0
H918 H 0.65546 0.79918 0.2432 0.0
H919 H 0.62806 0.79733 0.34665 0.0
H920 H 0.64534 0.85684 0.49444 0.0
H921 H 0.682 0.87891 0.42158 0.0
C922 C 0.69732 0.86314 0.30038 0.0
C923 C 0.70376 0.85222 0.24155 0.0
C924 C 0.67628 0.85078 0.34192 0.0
C925 C 0.6883 0.8292 0.22085 0.0
C926 C 0.66699 0.817 0.25984 0.0
C927 C 0.63996 0.81512 0.36283 0.0
C928 C 0.63426 0.82552 0.42579 0.0
C929 C 0.66096 0.82751 0.32128 0.0
C930 C 0.64964 0.84851 0.44673 0.0
C931 C 0.67045 0.86112 0.40472 0.0
H932 H 0.15501 0.79259 0.45137 0.0
H933 H 0.22078 0.83793 0.34135 0.0
H934 H 0.2045 0.85879 0.27092 0.0
H935 H 0.17151 0.8644 0.24246 0.0
H936 H 0.10516 0.81768 0.34598 0.0
H937 H 0.12145 0.79689 0.41675 0.0
C938 C 0.16568 0.80715 0.41235 0.0
C939 C 0.18903 0.81409 0.40212 0.0
C940 C 0.15605 0.81866 0.37071 0.0
C941 C 0.20277 0.8326 0.35036 0.0
C942 C 0.19346 0.84442 0.31 0.0
C943 C 0.16066 0.84951 0.27989 0.0
C944 C 0.13733 0.84271 0.29031 0.0
C945 C 0.17012 0.8376 0.31971 0.0
C946 C 0.12329 0.82337 0.33846 0.0
C947 C 0.13258 0.81152 0.37881 0.0
H948 H 0.37306 0.17154 0.66223 0.0
H949 H 0.3471 0.20132 0.48922 0.0
H950 H 0.31054 0.18489 0.56381 0.0
H951 H 0.28647 0.16272 0.68006 0.0
H952 H 0.31161 0.13081 0.8477 0.0
H953 H 0.34844 0.14815 0.77543 0.0
C954 C 0.35933 0.17437 0.64105 0.0
C955 C 0.36261 0.18758 0.57071 0.0
C956 C 0.33847 0.16482 0.684 0.0
C957 C 0.34476 0.19103 0.54298 0.0
C958 C 0.324 0.18178 0.58589 0.0
C959 C 0.29996 0.1594 0.70024 0.0
C960 C 0.29636 0.14551 0.76908 0.0
C961 C 0.32072 0.16874 0.65666 0.0
C962 C 0.31409 0.14169 0.79553 0.0
C963 C 0.33504 0.1514 0.75377 0.0
H964 H 0.83432 0.14943 0.79801 0.0
H965 H 0.85065 0.12322 0.5837 0.0
H966 H 0.83562 0.14208 0.49819 0.0
H967 H 0.8202 0.16847 0.48531 0.0
H968 H 0.78751 0.17777 0.69656 0.0
H969 H 0.80623 0.16269 0.78286 0.0
C970 C 0.83411 0.14698 0.73317 0.0
C971 C 0.84571 0.13643 0.69831 0.0
C972 C 0.82264 0.15525 0.6837 0.0
C973 C 0.84423 0.13326 0.61318 0.0
C974 C 0.835 0.14356 0.56363 0.0
C975 C 0.81631 0.16665 0.54942 0.0
C976 C 0.80386 0.17631 0.58413 0.0
C977 C 0.82466 0.15516 0.59835 0.0
C978 C 0.79889 0.17282 0.66807 0.0
C979 C 0.80916 0.1636 0.71783 0.0
H980 H 0.84311 0.71357 0.64101 0.0
H981 H 0.87649 0.69135 0.81324 0.0
H982 H 0.86072 0.6542 0.74275 0.0
H983 H 0.83736 0.62823 0.63197 0.0
H984 H 0.80093 0.64926 0.46845 0.0
H985 H 0.81876 0.68715 0.53319 0.0
C986 C 0.84688 0.70053 0.66289 0.0
C987 C 0.86082 0.70498 0.73197 0.0
C988 C 0.83751 0.67925 0.62282 0.0
C989 C 0.86557 0.68807 0.76051 0.0
C990 C 0.8567 0.66697 0.71996 0.0
C991 C 0.83318 0.64106 0.61106 0.0
C992 C 0.81777 0.63592 0.54575 0.0
C993 C 0.84262 0.66237 0.65113 0.0
C994 C 0.81294 0.65287 0.51794 0.0
C995 C 0.82292 0.67444 0.55554 0.0
H996 H 0.9666 0.50889 0.06205 0.0
H997 H 0.98521 0.47031 0.22451 0.0
H998 H 0.02213 0.48491 0.15438 0.0
H999 H 0.04816 0.50699 0.0421 0.0
H1000 H 0.02843 0.54332 0.87349 0.0
H1001 H 0.99235 0.53044 0.94824 0.0
C1002 C 0.97873 0.50361 0.08167 0.0
C1003 C 0.97316 0.48841 0.14784 0.0
C1004 C 0.99942 0.51126 0.03882 0.0
C1005 C 0.98919 0.48211 0.17406 0.0
C1006 C 0.01016 0.49024 0.13342 0.0
C1007 C 0.03589 0.51202 0.02187 0.0
C1008 C 0.04075 0.52594 0.9524 0.0
C1009 C 0.01528 0.50452 0.06498 0.0
C1010 C 0.02481 0.53234 0.92622 0.0
C1011 C 0.00434 0.52516 0.96934 0.0
H1012 H 0.45627 0.49424 0.93703 0.0
H1013 H 0.5158 0.53303 0.7847 0.0
H1014 H 0.53671 0.51763 0.85977 0.0
H1015 H 0.53875 0.4948 0.97373 0.0
H1016 H 0.48085 0.45952 0.13546 0.0
H1017 H 0.45889 0.47281 0.05465 0.0
C1018 C 0.47393 0.49951 0.92097 0.0
C1019 C 0.4846 0.51498 0.85615 0.0
C1020 C 0.48624 0.49164 0.96733 0.0
C1021 C 0.50718 0.52107 0.83413 0.0
C1022 C 0.51923 0.5125 0.87763 0.0
C1023 C 0.52135 0.49019 0.9913 0.0
C1024 C 0.51134 0.47634 0.06028 0.0
C1025 C 0.50906 0.49811 0.94519 0.0
C1026 C 0.48889 0.47041 0.08301 0.0
C1027 C 0.47632 0.47782 0.03645 0.0
H1028 H 0.50027 0.04037 0.02949 0.0
H1029 H 0.53973 0.02303 0.19217 0.0
H1030 H 0.52549 0.98588 0.12317 0.0
H1031 H 0.50192 0.95858 0.01574 0.0
H1032 H 0.45968 0.97451 0.86165 0.0
H1033 H 0.4756 0.01245 0.92543 0.0
C1034 C 0.50563 0.02834 0.04972 0.0
C1035 C 0.5209 0.03418 0.1156 0.0
C1036 C 0.49717 0.00704 0.01046 0.0
C1037 C 0.52779 0.01864 0.14193 0.0
C1038 C 0.51978 0.99755 0.1022 0.0
C1039 C 0.49602 0.97028 0.99696 0.0
C1040 C 0.47947 0.96372 0.93489 0.0
C1041 C 0.50447 0.99158 0.0364 0.0
C1042 C 0.47247 0.97926 0.90918 0.0
C1043 C 0.48141 0.00083 0.94609 0.0
H1044 H 0.14978 0.18163 0.11724 0.0
H1045 H 0.14304 0.19401 0.86382 0.0
H1046 H 0.16112 0.17169 0.82447 0.0
H1047 H 0.17883 0.14862 0.8615 0.0
H1048 H 0.18776 0.13793 0.11453 0.0
H1049 H 0.16887 0.15958 0.1545 0.0
C1050 C 0.15227 0.1794 0.05346 0.0
C1051 C 0.14503 0.18942 0.99362 0.0
C1052 C 0.16306 0.16684 0.03112 0.0
C1053 C 0.14856 0.18659 0.91117 0.0
C1054 C 0.15884 0.17376 0.88852 0.0
C1055 C 0.17656 0.15096 0.92539 0.0
C1056 C 0.18453 0.14157 0.98491 0.0
C1057 C 0.16613 0.16379 0.94791 0.0
C1058 C 0.18179 0.14502 0.0675 0.0
C1059 C 0.17096 0.15737 0.09041 0.0
H1060 H 0.82114 0.95385 0.92436 0.0
H1061 H 0.8265 0.9709 0.17938 0.0
H1062 H 0.84685 0.01191 0.14605 0.0
H1063 H 0.86244 0.04282 0.0449 0.0
H1064 H 0.85908 0.02631 0.79006 0.0
H1065 H 0.83873 0.9851 0.82289 0.0
C1066 C 0.82675 0.96656 0.97255 0.0
C1067 C 0.82216 0.95936 0.05418 0.0
C1068 C 0.83881 0.99015 0.95303 0.0
C1069 C 0.82983 0.97601 0.1161 0.0
C1070 C 0.84142 0.99945 0.09711 0.0
C1071 C 0.85726 0.03021 0.99647 0.0
C1072 C 0.86205 0.03756 0.91512 0.0
C1073 C 0.8459 0.00669 0.01585 0.0
C1074 C 0.85558 0.02105 0.85315 0.0
C1075 C 0.84389 0.99752 0.87189 0.0
H1076 H 0.95392 0.81867 0.06529 0.0
H1077 H 0.97595 0.83057 0.8147 0.0
H1078 H 0.0162 0.85124 0.85789 0.0
H1079 H 0.04513 0.8654 0.96645 0.0
H1080 H 0.02332 0.85505 0.21722 0.0
H1081 H 0.98297 0.8344 0.17424 0.0
C1082 C 0.96754 0.82576 0.02015 0.0
C1083 C 0.96194 0.82294 0.9369 0.0
C1084 C 0.99066 0.83792 0.04539 0.0
C1085 C 0.97977 0.8325 0.87916 0.0
C1086 C 0.00281 0.84429 0.90377 0.0
C1087 C 0.03156 0.85863 0.01176 0.0
C1088 C 0.03723 0.86162 0.09491 0.0
C1089 C 0.00844 0.84702 0.98667 0.0
C1090 C 0.01942 0.85301 0.15281 0.0
C1091 C 0.99635 0.84114 0.1283 0.0
H1092 H 0.8639 0.81759 0.03924 0.0
H1093 H 0.85578 0.82833 0.78536 0.0
H1094 H 0.83478 0.84821 0.82272 0.0
H1095 H 0.81863 0.86221 0.92779 0.0
H1096 H 0.82845 0.85271 0.18142 0.0
H1097 H 0.84898 0.83254 0.14356 0.0
C1098 C 0.85751 0.82422 0.99184 0.0
C1099 C 0.86125 0.82134 0.90951 0.0
C1100 C 0.84581 0.83582 0.01377 0.0
C1101 C 0.85314 0.83033 0.84909 0.0
C1102 C 0.84111 0.84164 0.87046 0.0
C1103 C 0.82523 0.85569 0.97484 0.0
C1104 C 0.82192 0.85885 0.0574 0.0
C1105 C 0.83731 0.84442 0.95263 0.0
C1106 C 0.8308 0.85054 0.11754 0.0
C1107 C 0.8425 0.83898 0.09593 0.0
H1108 H 0.1832 0.04441 0.10266 0.0
H1109 H 0.1717 0.02555 0.84895 0.0
H1110 H 0.15061 0.98482 0.88597 0.0
H1111 H 0.13568 0.95468 0.98954 0.0
H1112 H 0.14531 0.97297 0.24378 0.0
H1113 H 0.16689 0.01393 0.20732 0.0
C1114 C 0.1761 0.03137 0.05549 0.0
C1115 C 0.17909 0.03801 0.97307 0.0
C1116 C 0.16367 0.00795 0.07727 0.0
C1117 C 0.16957 0.02093 0.91273 0.0
C1118 C 0.15756 0.99763 0.93385 0.0
C1119 C 0.14253 0.96759 0.03718 0.0
C1120 C 0.13905 0.96078 0.11933 0.0
C1121 C 0.15455 0.99097 0.01581 0.0
C1122 C 0.14775 0.97777 0.18014 0.0
C1123 C 0.16012 0.00116 0.15929 0.0
H1124 H 0.97641 0.14755 0.81865 0.0
H1125 H 0.94758 0.1338 0.06036 0.0
H1126 H 0.98618 0.15464 0.11897 0.0
H1127 H 0.02843 0.17733 0.10164 0.0
H1128 H 0.05668 0.19221 0.8588 0.0
H1129 H 0.01823 0.17045 0.80129 0.0
C1130 C 0.97858 0.14903 0.88413 0.0
C1131 C 0.95913 0.13911 0.93482 0.0
C1132 C 0.00081 0.16132 0.91757 0.0
C1133 C 0.96225 0.14137 0.0197 0.0
C1134 C 0.98434 0.15326 0.05343 0.0
C1135 C 0.02613 0.17573 0.03624 0.0
C1136 C 0.04545 0.18643 0.98491 0.0
C1137 C 0.00379 0.16339 0.00298 0.0
C1138 C 0.04215 0.1843 0.90006 0.0
C1139 C 0.02013 0.17179 0.86683 0.0
H1140 H 0.84594 0.4831 0.21854 0.0
H1141 H 0.86007 0.47779 0.47134 0.0
H1142 H 0.83785 0.49594 0.51144 0.0
H1143 H 0.81472 0.51366 0.47516 0.0
H1144 H 0.80208 0.52083 0.22247 0.0
H1145 H 0.82333 0.50159 0.18204 0.0
C1146 C 0.84411 0.48587 0.28239 0.0
C1147 C 0.85464 0.47907 0.34177 0.0
C1148 C 0.83156 0.49665 0.30514 0.0
C1149 C 0.85225 0.48297 0.42427 0.0
C1150 C 0.83949 0.49329 0.44737 0.0
C1151 C 0.8165 0.51089 0.41125 0.0
C1152 C 0.80675 0.51857 0.35198 0.0
C1153 C 0.8291 0.50022 0.38837 0.0
C1154 C 0.80947 0.51512 0.26935 0.0
C1155 C 0.8216 0.5041 0.24616 0.0
H1156 H 0.51649 0.35898 0.17703 0.0
H1157 H 0.53058 0.3877 0.41901 0.0
H1158 H 0.51077 0.34907 0.47737 0.0
H1159 H 0.4889 0.30707 0.46017 0.0
H1160 H 0.47324 0.27828 0.21834 0.0
H1161 H 0.49413 0.31689 0.15983 0.0
C1162 C 0.51531 0.35676 0.24251 0.0
C1163 C 0.52504 0.37621 0.29345 0.0
C1164 C 0.50354 0.33446 0.27588 0.0
C1165 C 0.52317 0.37304 0.37826 0.0
C1166 C 0.51186 0.35094 0.41182 0.0
C1167 C 0.49012 0.30923 0.39468 0.0
C1168 C 0.47953 0.28979 0.34387 0.0
C1169 C 0.5019 0.33152 0.36126 0.0
C1170 C 0.48113 0.29294 0.25903 0.0
C1171 C 0.49313 0.31503 0.22538 0.0
H1172 H 0.69321 0.18908 0.47311 0.0
H1173 H 0.71661 0.20048 0.22413 0.0
H1174 H 0.67693 0.18188 0.17613 0.0
H1175 H 0.63557 0.16118 0.20406 0.0
H1176 H 0.61161 0.14767 0.45227 0.0
H1177 H 0.65139 0.16823 0.50116 0.0
C1178 C 0.68956 0.18763 0.40845 0.0
C1179 C 0.70781 0.19612 0.35235 0.0
C1180 C 0.66659 0.17642 0.38098 0.0
C1181 C 0.70286 0.19394 0.26864 0.0
C1182 C 0.68017 0.18333 0.24102 0.0
C1183 C 0.63903 0.16285 0.26888 0.0
C1184 C 0.62064 0.15292 0.32432 0.0
C1185 C 0.6619 0.17431 0.29656 0.0
C1186 C 0.62546 0.15507 0.40816 0.0
C1187 C 0.6482 0.16686 0.43624 0.0
H1188 H 0.5201 0.14819 0.41261 0.0
H1189 H 0.51387 0.15319 0.15322 0.0
H1190 H 0.49224 0.17322 0.17468 0.0
H1191 H 0.47543 0.18956 0.267 0.0
H1192 H 0.48371 0.18676 0.52621 0.0
H1193 H 0.50428 0.16561 0.50498 0.0
C1194 C 0.51393 0.15359 0.3608 0.0
C1195 C 0.51847 0.14913 0.28145 0.0
C1196 C 0.50195 0.16552 0.37357 0.0
C1197 C 0.51064 0.15649 0.21488 0.0
C1198 C 0.49825 0.1679 0.2271 0.0
C1199 C 0.48167 0.18425 0.31887 0.0
C1200 C 0.47796 0.1896 0.39808 0.0
C1201 C 0.49385 0.17253 0.30615 0.0
C1202 C 0.48641 0.18289 0.46465 0.0
C1203 C 0.49812 0.17076 0.45255 0.0
H1204 H 0.81495 0.30728 0.48373 0.0
H1205 H 0.80682 0.28364 0.23553 0.0
H1206 H 0.82742 0.32342 0.18728 0.0
H1207 H 0.84793 0.36519 0.21558 0.0
H1208 H 0.8574 0.38839 0.46476 0.0
H1209 H 0.83613 0.34869 0.51212 0.0
C1210 C 0.81765 0.31084 0.41909 0.0
C1211 C 0.80932 0.29252 0.36349 0.0
C1212 C 0.82978 0.33375 0.39169 0.0
C1213 C 0.81315 0.29743 0.27985 0.0
C1214 C 0.82488 0.32019 0.25206 0.0
C1215 C 0.84526 0.36151 0.28014 0.0
C1216 C 0.85422 0.37974 0.33634 0.0
C1217 C 0.83328 0.33852 0.30742 0.0
C1218 C 0.85079 0.3747 0.42 0.0
C1219 C 0.83858 0.35198 0.44733 0.0
H1220 H 0.70896 0.51678 0.25552 0.0
H1221 H 0.69406 0.51141 0.51238 0.0
H1222 H 0.6527 0.49101 0.48294 0.0
H1223 H 0.6209 0.47508 0.38412 0.0
H1224 H 0.63588 0.4787 0.12766 0.0
H1225 H 0.67722 0.49946 0.15714 0.0
C1226 C 0.69667 0.51117 0.30514 0.0
C1227 C 0.70457 0.51573 0.38606 0.0
C1228 C 0.67299 0.49917 0.2878 0.0
C1229 C 0.68843 0.50808 0.44963 0.0
C1230 C 0.66479 0.49647 0.43281 0.0
C1231 C 0.63322 0.48046 0.33463 0.0
C1232 C 0.62535 0.47551 0.25373 0.0
C1233 C 0.6569 0.49201 0.35212 0.0
C1234 C 0.6415 0.48229 0.19039 0.0
C1235 C 0.66512 0.49418 0.20721 0.0
H1236 H 0.52014 0.80968 0.74636 0.0
H1237 H 0.50952 0.81561 0.49069 0.0
H1238 H 0.4881 0.83527 0.52285 0.0
H1239 H 0.4724 0.85076 0.62351 0.0
H1240 H 0.4812 0.84296 0.87931 0.0
H1241 H 0.50331 0.82402 0.84715 0.0
C1242 C 0.5132 0.81534 0.69769 0.0
C1243 C 0.51653 0.81131 0.61627 0.0
C1244 C 0.50057 0.82627 0.71662 0.0
C1245 C 0.50716 0.81847 0.55388 0.0
C1246 C 0.49496 0.82975 0.5722 0.0
C1247 C 0.47922 0.84498 0.67222 0.0
C1248 C 0.47528 0.84838 0.75366 0.0
C1249 C 0.49157 0.83375 0.65332 0.0
C1250 C 0.48396 0.84051 0.81611 0.0
C1251 C 0.49665 0.82972 0.79778 0.0
H1252 H 0.19813 0.71066 0.72732 0.0
H1253 H 0.1878 0.69097 0.47441 0.0
H1254 H 0.16721 0.65027 0.51317 0.0
H1255 H 0.15213 0.62033 0.61895 0.0
H1256 H 0.1643 0.64012 0.87166 0.0
H1257 H 0.18425 0.68077 0.83285 0.0
C1258 C 0.19129 0.69746 0.68066 0.0
C1259 C 0.19434 0.70382 0.59813 0.0
C1260 C 0.17986 0.67414 0.70334 0.0
C1261 C 0.18569 0.68652 0.53838 0.0
C1262 C 0.17389 0.66326 0.56049 0.0
C1263 C 0.1591 0.63354 0.66554 0.0
C1264 C 0.15662 0.62721 0.74808 0.0
C1265 C 0.17087 0.65687 0.64278 0.0
C1266 C 0.16602 0.64453 0.80769 0.0
C1267 C 0.17738 0.66778 0.78557 0.0
H1268 H 0.30588 0.4913 0.49767 0.0
H1269 H 0.2828 0.48107 0.74689 0.0
H1270 H 0.32275 0.50042 0.79407 0.0
H1271 H 0.36434 0.51997 0.76449 0.0
H1272 H 0.38707 0.52817 0.51504 0.0
H1273 H 0.34724 0.5099 0.46824 0.0
C1274 C 0.30961 0.49341 0.56229 0.0
C1275 C 0.29142 0.48486 0.61861 0.0
C1276 C 0.33258 0.50413 0.58906 0.0
C1277 C 0.29651 0.48745 0.70222 0.0
C1278 C 0.31934 0.49854 0.72929 0.0
C1279 C 0.36055 0.51779 0.69992 0.0
C1280 C 0.37866 0.52546 0.64344 0.0
C1281 C 0.33753 0.5069 0.67327 0.0
C1282 C 0.37346 0.52232 0.55993 0.0
C1283 C 0.35068 0.51193 0.53299 0.0
H1284 H 0.15132 0.52899 0.62085 0.0
H1285 H 0.1621 0.5195 0.87346 0.0
H1286 H 0.18158 0.4984 0.83371 0.0
H1287 H 0.19525 0.48252 0.72771 0.0
H1288 H 0.18636 0.49359 0.47491 0.0
H1289 H 0.16638 0.51432 0.51436 0.0
C1290 C 0.1579 0.52227 0.66727 0.0
C1291 C 0.15515 0.52569 0.7501 0.0
C1292 C 0.16939 0.5105 0.64395 0.0
C1293 C 0.16403 0.51714 0.80939 0.0
C1294 C 0.17511 0.50504 0.78669 0.0
C1295 C 0.1889 0.48941 0.6811 0.0
C1296 C 0.19212 0.48637 0.5984 0.0
C1297 C 0.17783 0.50159 0.70423 0.0
C1298 C 0.1841 0.49571 0.53889 0.0
C1299 C 0.17266 0.50751 0.56146 0.0
H1300 H 0.48342 0.63925 0.77536 0.0
H1301 H 0.47418 0.61674 0.52543 0.0
H1302 H 0.49296 0.6566 0.47912 0.0
H1303 H 0.51238 0.69802 0.50902 0.0
H1304 H 0.52346 0.72072 0.75883 0.0
H1305 H 0.50367 0.6808 0.80532 0.0
C1306 C 0.48546 0.6431 0.71083 0.0
C1307 C 0.47736 0.62503 0.65413 0.0
C1308 C 0.49665 0.66615 0.68434 0.0
C1309 C 0.48034 0.63031 0.57058 0.0
C1310 C 0.49104 0.65312 0.54386 0.0
C1311 C 0.51038 0.69422 0.57359 0.0
C1312 C 0.51931 0.71233 0.63018 0.0
C1313 C 0.49931 0.67119 0.60013 0.0
C1314 C 0.51679 0.7071 0.71378 0.0
C1315 C 0.50544 0.68426 0.74057 0.0
H1316 H 0.28848 0.79972 0.72507 0.0
H1317 H 0.30939 0.80914 0.47329 0.0
H1318 H 0.34992 0.82986 0.51477 0.0
H1319 H 0.37919 0.84586 0.62236 0.0
H1320 H 0.35822 0.83518 0.87417 0.0
H1321 H 0.31773 0.81424 0.83262 0.0
C1322 C 0.30189 0.80629 0.67914 0.0
C1323 C 0.29594 0.80303 0.59612 0.0
C1324 C 0.32506 0.81791 0.70343 0.0
C1325 C 0.31352 0.81139 0.53751 0.0
C1326 C 0.33667 0.82327 0.56121 0.0
C1327 C 0.36577 0.83894 0.66826 0.0
C1328 C 0.3717 0.84219 0.75132 0.0
C1329 C 0.3426 0.82673 0.64396 0.0
C1330 C 0.35411 0.83288 0.80992 0.0
C1331 C 0.33098 0.82097 0.78619 0.0
loop_
_geom_bond_atom_site_label_1
_geom_bond_atom_site_label_2
_geom_bond_distance
_geom_bond_site_symmetry_2
_ccdc_geom_bond_type
Co0 O3 1.970 . S
Co0 N17 1.989 . S
Co0 O25 1.967 . S
Co0 O32 1.920 1_554 S
Co1 O4 1.966 . S
Co1 N10 2.022 . S
Co1 N18 1.993 . S
Co1 O26 1.941 . S
C2 O3 1.258 . S
C2 O4 1.263 . S
O3 Co0 1.970 . S
O3 C2 1.258 . S
O4 Co1 1.966 . S
O4 C2 1.263 . S
C5 O6 1.235 . S
C5 O32 1.289 . S
O6 C5 1.235 . S
C7 C9 1.400 . S
C7 N10 1.351 . S
C7 C12 1.501 . S
C8 C9 1.387 . S
C8 N11 1.341 . S
C9 C7 1.400 . S
C9 C8 1.387 . S
N10 Co1 2.022 . S
N10 C7 1.351 . S
N10 N11 1.365 . S
N11 C8 1.341 . S
N11 N10 1.365 . S
N11 H31 0.862 . S
C12 C7 1.501 . S
C12 H13 0.961 . S
C12 H14 0.961 . S
C12 H15 0.960 . S
H13 C12 0.961 . S
H14 C12 0.961 . S
H15 C12 0.960 . S
C16 N17 1.342 . S
C16 C20 1.401 . S
C16 C21 1.499 . S
N17 Co0 1.989 . S
N17 C16 1.342 . S
N17 N18 1.388 . S
N18 Co1 1.993 . S
N18 N17 1.388 . S
N18 C19 1.346 . S
C19 N18 1.346 . S
C19 C20 1.396 . S
C19 C29 1.510 . S
C20 C16 1.401 . S
C20 C19 1.396 . S
C21 C16 1.499 . S
C21 H22 0.959 1_554 S
C21 H23 0.960 . S
C21 H24 0.961 . S
H22 C21 0.959 1_556 S
H23 C21 0.960 . S
H24 C21 0.961 . S
O25 Co0 1.967 . S
O25 C33 1.258 . S
O26 Co1 1.941 . S
O26 C33 1.266 . S
H27 C29 0.959 . S
H28 C29 0.961 . S
C29 C19 1.510 . S
C29 H27 0.959 . S
C29 H28 0.961 . S
C29 H30 0.960 . S
H30 C29 0.960 . S
H31 N11 0.862 . S
O32 Co0 1.920 1_556 S
O32 C5 1.289 . S
C33 O25 1.258 . S
C33 O26 1.266 . S
Co34 O37 1.970 . S
Co34 N51 1.989 . S
Co34 O59 1.967 . S
Co34 O66 1.920 1_554 S
Co35 O38 1.966 . S
Co35 N44 2.022 . S
Co35 N52 1.993 . S
Co35 O60 1.941 . S
C36 O37 1.258 . S
C36 O38 1.263 . S
O37 Co34 1.970 . S
O37 C36 1.258 . S
O38 Co35 1.966 . S
O38 C36 1.263 . S
C39 O40 1.235 . S
C39 O66 1.289 . S
O40 C39 1.235 . S
C41 C43 1.400 . S
C41 N44 1.351 . S
C41 C46 1.501 . S
C42 C43 1.387 . S
C42 N45 1.341 . S
C43 C41 1.400 . S
C43 C42 1.387 . S
N44 Co35 2.022 . S
N44 C41 1.351 . S
N44 N45 1.365 . S
N45 C42 1.341 . S
N45 N44 1.365 . S
N45 H65 0.862 . S
C46 C41 1.501 . S
C46 H47 0.961 . S
C46 H48 0.961 . S
C46 H49 0.960 . S
H47 C46 0.961 . S
H48 C46 0.961 . S
H49 C46 0.960 . S
C50 N51 1.342 . S
C50 C54 1.401 . S
C50 C55 1.499 . S
N51 Co34 1.989 . S
N51 C50 1.342 . S
N51 N52 1.388 . S
N52 Co35 1.993 . S
N52 N51 1.388 . S
N52 C53 1.346 . S
C53 N52 1.346 . S
C53 C54 1.396 . S
C53 C63 1.510 . S
C54 C50 1.401 . S
C54 C53 1.396 . S
C55 C50 1.499 . S
C55 H56 0.959 1_554 S
C55 H57 0.960 . S
C55 H58 0.961 . S
H56 C55 0.959 1_556 S
H57 C55 0.960 . S
H58 C55 0.961 . S
O59 Co34 1.967 . S
O59 C67 1.258 . S
O60 Co35 1.941 . S
O60 C67 1.266 . S
H61 C63 0.959 . S
H62 C63 0.961 . S
C63 C53 1.510 . S
C63 H61 0.959 . S
C63 H62 0.961 . S
C63 H64 0.960 . S
H64 C63 0.960 . S
H65 N45 0.862 . S
O66 Co34 1.920 1_556 S
O66 C39 1.289 . S
C67 O59 1.258 . S
C67 O60 1.266 . S
Co68 O71 1.970 . S
Co68 N85 1.989 . S
Co68 O93 1.967 . S
Co68 O100 1.920 1_554 S
Co69 O72 1.966 . S
Co69 N78 2.022 . S
Co69 N86 1.993 . S
Co69 O94 1.941 . S
C70 O71 1.258 . S
C70 O72 1.263 . S
O71 Co68 1.970 . S
O71 C70 1.258 . S
O72 Co69 1.966 . S
O72 C70 1.263 . S
C73 O74 1.235 . S
C73 O100 1.289 . S
O74 C73 1.235 . S
C75 C77 1.400 . S
C75 N78 1.351 . S
C75 C80 1.501 . S
C76 C77 1.387 . S
C76 N79 1.341 . S
C77 C75 1.400 . S
C77 C76 1.387 . S
N78 Co69 2.022 . S
N78 C75 1.351 . S
N78 N79 1.365 . S
N79 C76 1.341 . S
N79 N78 1.365 . S
N79 H99 0.862 . S
C80 C75 1.501 . S
C80 H81 0.961 . S
C80 H82 0.961 . S
C80 H83 0.960 . S
H81 C80 0.961 . S
H82 C80 0.961 . S
H83 C80 0.960 . S
C84 N85 1.342 . S
C84 C88 1.401 . S
C84 C89 1.499 . S
N85 Co68 1.989 . S
N85 C84 1.342 . S
N85 N86 1.388 . S
N86 Co69 1.993 . S
N86 N85 1.388 . S
N86 C87 1.346 . S
C87 N86 1.346 . S
C87 C88 1.396 . S
C87 C97 1.510 . S
C88 C84 1.401 . S
C88 C87 1.396 . S
C89 C84 1.499 . S
C89 H90 0.959 1_554 S
C89 H91 0.960 . S
C89 H92 0.961 . S
H90 C89 0.959 1_556 S
H91 C89 0.960 . S
H92 C89 0.961 . S
O93 Co68 1.967 . S
O93 C101 1.258 . S
O94 Co69 1.941 . S
O94 C101 1.266 . S
H95 C97 0.959 . S
H96 C97 0.961 . S
C97 C87 1.510 . S
C97 H95 0.959 . S
C97 H96 0.961 . S
C97 H98 0.960 . S
H98 C97 0.960 . S
H99 N79 0.862 . S
O100 Co68 1.920 1_556 S
O100 C73 1.289 . S
C101 O93 1.258 . S
C101 O94 1.266 . S
Co102 O105 1.970 . S
Co102 N119 1.989 . S
Co102 O127 1.967 . S
Co102 O134 1.920 1_556 S
Co103 O106 1.966 . S
Co103 N112 2.022 . S
Co103 N120 1.993 . S
Co103 O128 1.941 . S
C104 O105 1.258 . S
C104 O106 1.263 . S
O105 Co102 1.970 . S
O105 C104 1.258 . S
O106 Co103 1.966 . S
O106 C104 1.263 . S
C107 O108 1.235 . S
C107 O134 1.289 . S
O108 C107 1.235 . S
C109 C111 1.400 . S
C109 N112 1.351 . S
C109 C114 1.501 . S
C110 C111 1.387 . S
C110 N113 1.341 . S
C111 C109 1.400 . S
C111 C110 1.387 . S
N112 Co103 2.022 . S
N112 C109 1.351 . S
N112 N113 1.365 . S
N113 C110 1.341 . S
N113 N112 1.365 . S
N113 H133 0.862 . S
C114 C109 1.501 . S
C114 H115 0.961 . S
C114 H116 0.961 . S
C114 H117 0.960 . S
H115 C114 0.961 . S
H116 C114 0.961 . S
H117 C114 0.960 . S
C118 N119 1.342 . S
C118 C122 1.401 . S
C118 C123 1.499 . S
N119 Co102 1.989 . S
N119 C118 1.342 . S
N119 N120 1.388 . S
N120 Co103 1.993 . S
N120 N119 1.388 . S
N120 C121 1.346 . S
C121 N120 1.346 . S
C121 C122 1.396 . S
C121 C131 1.510 . S
C122 C118 1.401 . S
C122 C121 1.396 . S
C123 C118 1.499 . S
C123 H124 0.959 1_556 S
C123 H125 0.960 . S
C123 H126 0.961 . S
H124 C123 0.959 1_554 S
H125 C123 0.960 . S
H126 C123 0.961 . S
O127 Co102 1.967 . S
O127 C135 1.258 . S
O128 Co103 1.941 . S
O128 C135 1.266 . S
H129 C131 0.959 . S
H130 C131 0.961 . S
C131 C121 1.510 . S
C131 H129 0.959 . S
C131 H130 0.961 . S
C131 H132 0.960 . S
H132 C131 0.960 . S
H133 N113 0.862 . S
O134 Co102 1.920 1_554 S
O134 C107 1.289 . S
C135 O127 1.258 . S
C135 O128 1.266 . S
Co136 O139 1.970 . S
Co136 N153 1.989 . S
Co136 O161 1.967 . S
Co136 O168 1.920 1_556 S
Co137 O140 1.966 . S
Co137 N146 2.022 . S
Co137 N154 1.993 . S
Co137 O162 1.941 . S
C138 O139 1.258 . S
C138 O140 1.263 . S
O139 Co136 1.970 . S
O139 C138 1.258 . S
O140 Co137 1.966 . S
O140 C138 1.263 . S
C141 O142 1.235 . S
C141 O168 1.289 . S
O142 C141 1.235 . S
C143 C145 1.400 . S
C143 N146 1.351 . S
C143 C148 1.501 . S
C144 C145 1.387 . S
C144 N147 1.341 . S
C145 C143 1.400 . S
C145 C144 1.387 . S
N146 Co137 2.022 . S
N146 C143 1.351 . S
N146 N147 1.365 . S
N147 C144 1.341 . S
N147 N146 1.365 . S
N147 H167 0.862 . S
C148 C143 1.501 . S
C148 H149 0.961 . S
C148 H150 0.961 . S
C148 H151 0.960 . S
H149 C148 0.961 . S
H150 C148 0.961 . S
H151 C148 0.960 . S
C152 N153 1.342 . S
C152 C156 1.401 . S
C152 C157 1.499 . S
N153 Co136 1.989 . S
N153 C152 1.342 . S
N153 N154 1.388 . S
N154 Co137 1.993 . S
N154 N153 1.388 . S
N154 C155 1.346 . S
C155 N154 1.346 . S
C155 C156 1.396 . S
C155 C165 1.510 . S
C156 C152 1.401 . S
C156 C155 1.396 . S
C157 C152 1.499 . S
C157 H158 0.959 1_556 S
C157 H159 0.960 . S
C157 H160 0.961 . S
H158 C157 0.959 1_554 S
H159 C157 0.960 . S
H160 C157 0.961 . S
O161 Co136 1.967 . S
O161 C169 1.258 . S
O162 Co137 1.941 . S
O162 C169 1.266 . S
H163 C165 0.959 . S
H164 C165 0.961 . S
C165 C155 1.510 . S
C165 H163 0.959 . S
C165 H164 0.961 . S
C165 H166 0.960 . S
H166 C165 0.960 . S
H167 N147 0.862 . S
O168 Co136 1.920 1_554 S
O168 C141 1.289 . S
C169 O161 1.258 . S
C169 O162 1.266 . S
Co170 O173 1.970 . S
Co170 N187 1.989 . S
Co170 O195 1.967 . S
Co170 O202 1.920 1_556 S
Co171 O174 1.966 . S
Co171 N180 2.022 . S
Co171 N188 1.993 . S
Co171 O196 1.941 . S
C172 O173 1.258 . S
C172 O174 1.263 . S
O173 Co170 1.970 . S
O173 C172 1.258 . S
O174 Co171 1.966 . S
O174 C172 1.263 . S
C175 O176 1.235 . S
C175 O202 1.289 . S
O176 C175 1.235 . S
C177 C179 1.400 . S
C177 N180 1.351 . S
C177 C182 1.501 . S
C178 C179 1.387 . S
C178 N181 1.341 . S
C179 C177 1.400 . S
C179 C178 1.387 . S
N180 Co171 2.022 . S
N180 C177 1.351 . S
N180 N181 1.365 . S
N181 C178 1.341 . S
N181 N180 1.365 . S
N181 H201 0.862 . S
C182 C177 1.501 . S
C182 H183 0.961 . S
C182 H184 0.961 . S
C182 H185 0.960 . S
H183 C182 0.961 . S
H184 C182 0.961 . S
H185 C182 0.960 . S
C186 N187 1.342 . S
C186 C190 1.401 . S
C186 C191 1.499 . S
N187 Co170 1.989 . S
N187 C186 1.342 . S
N187 N188 1.388 . S
N188 Co171 1.993 . S
N188 N187 1.388 . S
N188 C189 1.346 . S
C189 N188 1.346 . S
C189 C190 1.396 . S
C189 C199 1.510 . S
C190 C186 1.401 . S
C190 C189 1.396 . S
C191 C186 1.499 . S
C191 H192 0.959 1_556 S
C191 H193 0.960 . S
C191 H194 0.961 . S
H192 C191 0.959 1_554 S
H193 C191 0.960 . S
H194 C191 0.961 . S
O195 Co170 1.967 . S
O195 C203 1.258 . S
O196 Co171 1.941 . S
O196 C203 1.266 . S
H197 C199 0.959 . S
H198 C199 0.961 . S
C199 C189 1.510 . S
C199 H197 0.959 . S
C199 H198 0.961 . S
C199 H200 0.960 . S
H200 C199 0.960 . S
H201 N181 0.862 . S
O202 Co170 1.920 1_554 S
O202 C175 1.289 . S
C203 O195 1.258 . S
C203 O196 1.266 . S
Co204 O207 1.970 . S
Co204 N221 1.989 . S
Co204 O229 1.967 . S
Co204 O236 1.920 . S
Co205 O208 1.966 . S
Co205 N214 2.022 . S
Co205 N222 1.993 . S
Co205 O230 1.941 . S
C206 O207 1.258 . S
C206 O208 1.263 . S
O207 Co204 1.970 . S
O207 C206 1.258 . S
O208 Co205 1.966 . S
O208 C206 1.263 . S
C209 O210 1.235 . S
C209 O236 1.289 . S
O210 C209 1.235 . S
C211 C213 1.400 . S
C211 N214 1.351 . S
C211 C216 1.501 . S
C212 C213 1.387 . S
C212 N215 1.341 . S
C213 C211 1.400 . S
C213 C212 1.387 . S
N214 Co205 2.022 . S
N214 C211 1.351 . S
N214 N215 1.365 . S
N215 C212 1.341 . S
N215 N214 1.365 . S
N215 H235 0.862 . S
C216 C211 1.501 . S
C216 H217 0.961 . S
C216 H218 0.961 . S
C216 H219 0.960 . S
H217 C216 0.961 . S
H218 C216 0.961 . S
H219 C216 0.960 . S
C220 N221 1.342 . S
C220 C224 1.401 . S
C220 C225 1.499 . S
N221 Co204 1.989 . S
N221 C220 1.342 . S
N221 N222 1.388 . S
N222 Co205 1.993 . S
N222 N221 1.388 . S
N222 C223 1.346 . S
C223 N222 1.346 . S
C223 C224 1.396 . S
C223 C233 1.510 . S
C224 C220 1.401 . S
C224 C223 1.396 . S
C225 C220 1.499 . S
C225 H226 0.959 . S
C225 H227 0.960 . S
C225 H228 0.961 . S
H226 C225 0.959 . S
H227 C225 0.960 . S
H228 C225 0.961 . S
O229 Co204 1.967 . S
O229 C237 1.258 . S
O230 Co205 1.941 . S
O230 C237 1.266 . S
H231 C233 0.959 . S
H232 C233 0.961 . S
C233 C223 1.510 . S
C233 H231 0.959 . S
C233 H232 0.961 . S
C233 H234 0.960 . S
H234 C233 0.960 . S
H235 N215 0.862 . S
O236 Co204 1.920 . S
O236 C209 1.289 . S
C237 O229 1.258 . S
C237 O230 1.266 . S
Co238 O241 1.970 . S
Co238 N255 1.989 . S
Co238 O263 1.967 . S
Co238 O270 1.920 . S
Co239 O242 1.966 . S
Co239 N248 2.022 . S
Co239 N256 1.993 . S
Co239 O264 1.941 . S
C240 O241 1.258 . S
C240 O242 1.263 . S
O241 Co238 1.970 . S
O241 C240 1.258 . S
O242 Co239 1.966 . S
O242 C240 1.263 . S
C243 O244 1.235 . S
C243 O270 1.289 . S
O244 C243 1.235 . S
C245 C247 1.400 . S
C245 N248 1.351 . S
C245 C250 1.501 . S
C246 C247 1.387 . S
C246 N249 1.341 . S
C247 C245 1.400 . S
C247 C246 1.387 . S
N248 Co239 2.022 . S
N248 C245 1.351 . S
N248 N249 1.365 . S
N249 C246 1.341 . S
N249 N248 1.365 . S
N249 H269 0.862 . S
C250 C245 1.501 . S
C250 H251 0.961 . S
C250 H252 0.961 . S
C250 H253 0.960 . S
H251 C250 0.961 . S
H252 C250 0.961 . S
H253 C250 0.960 . S
C254 N255 1.342 . S
C254 C258 1.401 . S
C254 C259 1.499 . S
N255 Co238 1.989 . S
N255 C254 1.342 . S
N255 N256 1.388 . S
N256 Co239 1.993 . S
N256 N255 1.388 . S
N256 C257 1.346 . S
C257 N256 1.346 . S
C257 C258 1.396 . S
C257 C267 1.510 . S
C258 C254 1.401 . S
C258 C257 1.396 . S
C259 C254 1.499 . S
C259 H260 0.959 . S
C259 H261 0.960 . S
C259 H262 0.961 . S
H260 C259 0.959 . S
H261 C259 0.960 . S
H262 C259 0.961 . S
O263 Co238 1.967 . S
O263 C271 1.258 . S
O264 Co239 1.941 . S
O264 C271 1.266 . S
H265 C267 0.959 . S
H266 C267 0.961 . S
C267 C257 1.510 . S
C267 H265 0.959 . S
C267 H266 0.961 . S
C267 H268 0.960 . S
H268 C267 0.960 . S
H269 N249 0.862 . S
O270 Co238 1.920 . S
O270 C243 1.289 . S
C271 O263 1.258 . S
C271 O264 1.266 . S
Co272 O275 1.970 . S
Co272 N289 1.989 . S
Co272 O297 1.967 . S
Co272 O304 1.920 . S
Co273 O276 1.966 . S
Co273 N282 2.022 . S
Co273 N290 1.993 . S
Co273 O298 1.941 . S
C274 O275 1.258 . S
C274 O276 1.263 . S
O275 Co272 1.970 . S
O275 C274 1.258 . S
O276 Co273 1.966 . S
O276 C274 1.263 . S
C277 O278 1.235 . S
C277 O304 1.289 . S
O278 C277 1.235 . S
C279 C281 1.400 . S
C279 N282 1.351 . S
C279 C284 1.501 . S
C280 C281 1.387 . S
C280 N283 1.341 . S
C281 C279 1.400 . S
C281 C280 1.387 . S
N282 Co273 2.022 . S
N282 C279 1.351 . S
N282 N283 1.365 . S
N283 C280 1.341 . S
N283 N282 1.365 . S
N283 H303 0.862 . S
C284 C279 1.501 . S
C284 H285 0.961 . S
C284 H286 0.961 . S
C284 H287 0.960 . S
H285 C284 0.961 . S
H286 C284 0.961 . S
H287 C284 0.960 . S
C288 N289 1.342 . S
C288 C292 1.401 . S
C288 C293 1.499 . S
N289 Co272 1.989 . S
N289 C288 1.342 . S
N289 N290 1.388 . S
N290 Co273 1.993 . S
N290 N289 1.388 . S
N290 C291 1.346 . S
C291 N290 1.346 . S
C291 C292 1.396 . S
C291 C301 1.510 . S
C292 C288 1.401 . S
C292 C291 1.396 . S
C293 C288 1.499 . S
C293 H294 0.959 . S
C293 H295 0.960 . S
C293 H296 0.961 . S
H294 C293 0.959 . S
H295 C293 0.960 . S
H296 C293 0.961 . S
O297 Co272 1.967 . S
O297 C305 1.258 . S
O298 Co273 1.941 . S
O298 C305 1.266 . S
H299 C301 0.959 . S
H300 C301 0.961 . S
C301 C291 1.510 . S
C301 H299 0.959 . S
C301 H300 0.961 . S
C301 H302 0.960 . S
H302 C301 0.960 . S
H303 N283 0.862 . S
O304 Co272 1.920 . S
O304 C277 1.289 . S
C305 O297 1.258 . S
C305 O298 1.266 . S
Co306 O309 1.970 . S
Co306 N323 1.989 . S
Co306 O331 1.967 . S
Co306 O338 1.920 . S
Co307 O310 1.966 . S
Co307 N316 2.022 1_554 S
Co307 N324 1.993 . S
Co307 O332 1.941 . S
C308 O309 1.258 . S
C308 O310 1.263 . S
O309 Co306 1.970 . S
O309 C308 1.258 . S
O310 Co307 1.966 . S
O310 C308 1.263 . S
C311 O312 1.235 . S
C311 O338 1.289 . S
O312 C311 1.235 . S
C313 C315 1.400 . S
C313 N316 1.351 . S
C313 C318 1.501 . S
C314 C315 1.387 . S
C314 N317 1.341 . S
C315 C313 1.400 . S
C315 C314 1.387 . S
N316 Co307 2.022 1_556 S
N316 C313 1.351 . S
N316 N317 1.365 . S
N317 C314 1.341 . S
N317 N316 1.365 . S
N317 H337 0.862 . S
C318 C313 1.501 . S
C318 H319 0.961 1_556 S
C318 H320 0.961 . S
C318 H321 0.960 . S
H319 C318 0.961 1_554 S
H320 C318 0.961 . S
H321 C318 0.960 . S
C322 N323 1.342 . S
C322 C326 1.401 . S
C322 C327 1.499 . S
N323 Co306 1.989 . S
N323 C322 1.342 . S
N323 N324 1.388 . S
N324 Co307 1.993 . S
N324 N323 1.388 . S
N324 C325 1.346 . S
C325 N324 1.346 . S
C325 C326 1.396 . S
C325 C335 1.510 1_554 S
C326 C322 1.401 . S
C326 C325 1.396 . S
C327 C322 1.499 . S
C327 H328 0.959 . S
C327 H329 0.960 . S
C327 H330 0.961 . S
H328 C327 0.959 . S
H329 C327 0.960 . S
H330 C327 0.961 . S
O331 Co306 1.967 . S
O331 C339 1.258 . S
O332 Co307 1.941 . S
O332 C339 1.266 . S
H333 C335 0.959 . S
H334 C335 0.961 . S
C335 C325 1.510 1_556 S
C335 H333 0.959 . S
C335 H334 0.961 . S
C335 H336 0.960 . S
H336 C335 0.960 . S
H337 N317 0.862 . S
O338 Co306 1.920 . S
O338 C311 1.289 . S
C339 O331 1.258 . S
C339 O332 1.266 . S
Co340 O343 1.970 . S
Co340 N357 1.989 . S
Co340 O365 1.967 . S
Co340 O372 1.920 . S
Co341 O344 1.966 . S
Co341 N350 2.022 1_554 S
Co341 N358 1.993 . S
Co341 O366 1.941 . S
C342 O343 1.258 . S
C342 O344 1.263 . S
O343 Co340 1.970 . S
O343 C342 1.258 . S
O344 Co341 1.966 . S
O344 C342 1.263 . S
C345 O346 1.235 . S
C345 O372 1.289 . S
O346 C345 1.235 . S
C347 C349 1.400 . S
C347 N350 1.351 . S
C347 C352 1.501 . S
C348 C349 1.387 . S
C348 N351 1.341 . S
C349 C347 1.400 . S
C349 C348 1.387 . S
N350 Co341 2.022 1_556 S
N350 C347 1.351 . S
N350 N351 1.365 . S
N351 C348 1.341 . S
N351 N350 1.365 . S
N351 H371 0.862 . S
C352 C347 1.501 . S
C352 H353 0.961 1_556 S
C352 H354 0.961 . S
C352 H355 0.960 . S
H353 C352 0.961 1_554 S
H354 C352 0.961 . S
H355 C352 0.960 . S
C356 N357 1.342 . S
C356 C360 1.401 . S
C356 C361 1.499 . S
N357 Co340 1.989 . S
N357 C356 1.342 . S
N357 N358 1.388 . S
N358 Co341 1.993 . S
N358 N357 1.388 . S
N358 C359 1.346 . S
C359 N358 1.346 . S
C359 C360 1.396 . S
C359 C369 1.510 1_554 S
C360 C356 1.401 . S
C360 C359 1.396 . S
C361 C356 1.499 . S
C361 H362 0.959 . S
C361 H363 0.960 . S
C361 H364 0.961 . S
H362 C361 0.959 . S
H363 C361 0.960 . S
H364 C361 0.961 . S
O365 Co340 1.967 . S
O365 C373 1.258 . S
O366 Co341 1.941 . S
O366 C373 1.266 . S
H367 C369 0.959 . S
H368 C369 0.961 . S
C369 C359 1.510 1_556 S
C369 H367 0.959 . S
C369 H368 0.961 . S
C369 H370 0.960 . S
H370 C369 0.960 . S
H371 N351 0.862 . S
O372 Co340 1.920 . S
O372 C345 1.289 . S
C373 O365 1.258 . S
C373 O366 1.266 . S
Co374 O377 1.970 . S
Co374 N391 1.989 . S
Co374 O399 1.967 . S
Co374 O406 1.920 . S
Co375 O378 1.966 . S
Co375 N384 2.022 1_554 S
Co375 N392 1.993 . S
Co375 O400 1.941 . S
C376 O377 1.258 . S
C376 O378 1.263 . S
O377 Co374 1.970 . S
O377 C376 1.258 . S
O378 Co375 1.966 . S
O378 C376 1.263 . S
C379 O380 1.235 . S
C379 O406 1.289 . S
O380 C379 1.235 . S
C381 C383 1.400 . S
C381 N384 1.351 . S
C381 C386 1.501 . S
C382 C383 1.387 . S
C382 N385 1.341 . S
C383 C381 1.400 . S
C383 C382 1.387 . S
N384 Co375 2.022 1_556 S
N384 C381 1.351 . S
N384 N385 1.365 . S
N385 C382 1.341 . S
N385 N384 1.365 . S
N385 H405 0.862 . S
C386 C381 1.501 . S
C386 H387 0.961 1_556 S
C386 H388 0.961 . S
C386 H389 0.960 . S
H387 C386 0.961 1_554 S
H388 C386 0.961 . S
H389 C386 0.960 . S
C390 N391 1.342 . S
C390 C394 1.401 . S
C390 C395 1.499 . S
N391 Co374 1.989 . S
N391 C390 1.342 . S
N391 N392 1.388 . S
N392 Co375 1.993 . S
N392 N391 1.388 . S
N392 C393 1.346 . S
C393 N392 1.346 . S
C393 C394 1.396 . S
C393 C403 1.510 1_554 S
C394 C390 1.401 . S
C394 C393 1.396 . S
C395 C390 1.499 . S
C395 H396 0.959 . S
C395 H397 0.960 . S
C395 H398 0.961 . S
H396 C395 0.959 . S
H397 C395 0.960 . S
H398 C395 0.961 . S
O399 Co374 1.967 . S
O399 C407 1.258 . S
O400 Co375 1.941 . S
O400 C407 1.266 . S
H401 C403 0.959 . S
H402 C403 0.961 . S
C403 C393 1.510 1_556 S
C403 H401 0.959 . S
C403 H402 0.961 . S
C403 H404 0.960 . S
H404 C403 0.960 . S
H405 N385 0.862 . S
O406 Co374 1.920 . S
O406 C379 1.289 . S
C407 O399 1.258 . S
C407 O400 1.266 . S
Co408 O411 1.970 . S
Co408 N425 1.989 . S
Co408 O433 1.967 . S
Co408 O440 1.920 . S
Co409 O412 1.966 . S
Co409 N418 2.022 1_556 S
Co409 N426 1.993 . S
Co409 O434 1.941 . S
C410 O411 1.258 . S
C410 O412 1.263 . S
O411 Co408 1.970 . S
O411 C410 1.258 . S
O412 Co409 1.966 . S
O412 C410 1.263 . S
C413 O414 1.235 . S
C413 O440 1.289 . S
O414 C413 1.235 . S
C415 C417 1.400 . S
C415 N418 1.351 . S
C415 C420 1.501 . S
C416 C417 1.387 . S
C416 N419 1.341 . S
C417 C415 1.400 . S
C417 C416 1.387 . S
N418 Co409 2.022 1_554 S
N418 C415 1.351 . S
N418 N419 1.365 . S
N419 C416 1.341 . S
N419 N418 1.365 . S
N419 H439 0.862 . S
C420 C415 1.501 . S
C420 H421 0.961 1_554 S
C420 H422 0.961 . S
C420 H423 0.960 . S
H421 C420 0.961 1_556 S
H422 C420 0.961 . S
H423 C420 0.960 . S
C424 N425 1.342 . S
C424 C428 1.401 . S
C424 C429 1.499 . S
N425 Co408 1.989 . S
N425 C424 1.342 . S
N425 N426 1.388 . S
N426 Co409 1.993 . S
N426 N425 1.388 . S
N426 C427 1.346 . S
C427 N426 1.346 . S
C427 C428 1.396 . S
C427 C437 1.510 1_556 S
C428 C424 1.401 . S
C428 C427 1.396 . S
C429 C424 1.499 . S
C429 H430 0.959 . S
C429 H431 0.960 . S
C429 H432 0.961 . S
H430 C429 0.959 . S
H431 C429 0.960 . S
H432 C429 0.961 . S
O433 Co408 1.967 . S
O433 C441 1.258 . S
O434 Co409 1.941 . S
O434 C441 1.266 . S
H435 C437 0.959 . S
H436 C437 0.961 . S
C437 C427 1.510 1_554 S
C437 H435 0.959 . S
C437 H436 0.961 . S
C437 H438 0.960 . S
H438 C437 0.960 . S
H439 N419 0.862 . S
O440 Co408 1.920 . S
O440 C413 1.289 . S
C441 O433 1.258 . S
C441 O434 1.266 . S
Co442 O445 1.970 . S
Co442 N459 1.989 . S
Co442 O467 1.967 . S
Co442 O474 1.920 . S
Co443 O446 1.966 . S
Co443 N452 2.022 1_556 S
Co443 N460 1.993 . S
Co443 O468 1.941 . S
C444 O445 1.258 . S
C444 O446 1.263 . S
O445 Co442 1.970 . S
O445 C444 1.258 . S
O446 Co443 1.966 . S
O446 C444 1.263 . S
C447 O448 1.235 . S
C447 O474 1.289 . S
O448 C447 1.235 . S
C449 C451 1.400 . S
C449 N452 1.351 . S
C449 C454 1.501 . S
C450 C451 1.387 . S
C450 N453 1.341 . S
C451 C449 1.400 . S
C451 C450 1.387 . S
N452 Co443 2.022 1_554 S
N452 C449 1.351 . S
N452 N453 1.365 . S
N453 C450 1.341 . S
N453 N452 1.365 . S
N453 H473 0.862 . S
C454 C449 1.501 . S
C454 H455 0.961 1_554 S
C454 H456 0.961 . S
C454 H457 0.960 . S
H455 C454 0.961 1_556 S
H456 C454 0.961 . S
H457 C454 0.960 . S
C458 N459 1.342 . S
C458 C462 1.401 . S
C458 C463 1.499 . S
N459 Co442 1.989 . S
N459 C458 1.342 . S
N459 N460 1.388 . S
N460 Co443 1.993 . S
N460 N459 1.388 . S
N460 C461 1.346 . S
C461 N460 1.346 . S
C461 C462 1.396 . S
C461 C471 1.510 1_556 S
C462 C458 1.401 . S
C462 C461 1.396 . S
C463 C458 1.499 . S
C463 H464 0.959 . S
C463 H465 0.960 . S
C463 H466 0.961 . S
H464 C463 0.959 . S
H465 C463 0.960 . S
H466 C463 0.961 . S
O467 Co442 1.967 . S
O467 C475 1.258 . S
O468 Co443 1.941 . S
O468 C475 1.266 . S
H469 C471 0.959 . S
H470 C471 0.961 . S
C471 C461 1.510 1_554 S
C471 H469 0.959 . S
C471 H470 0.961 . S
C471 H472 0.960 . S
H472 C471 0.960 . S
H473 N453 0.862 . S
O474 Co442 1.920 . S
O474 C447 1.289 . S
C475 O467 1.258 . S
C475 O468 1.266 . S
Co476 O479 1.970 . S
Co476 N493 1.989 . S
Co476 O501 1.967 . S
Co476 O508 1.920 . S
Co477 O480 1.966 . S
Co477 N486 2.022 1_556 S
Co477 N494 1.993 . S
Co477 O502 1.941 . S
C478 O479 1.258 . S
C478 O480 1.263 . S
O479 Co476 1.970 . S
O479 C478 1.258 . S
O480 Co477 1.966 . S
O480 C478 1.263 . S
C481 O482 1.235 . S
C481 O508 1.289 . S
O482 C481 1.235 . S
C483 C485 1.400 . S
C483 N486 1.351 . S
C483 C488 1.501 . S
C484 C485 1.387 . S
C484 N487 1.341 . S
C485 C483 1.400 . S
C485 C484 1.387 . S
N486 Co477 2.022 1_554 S
N486 C483 1.351 . S
N486 N487 1.365 . S
N487 C484 1.341 . S
N487 N486 1.365 . S
N487 H507 0.862 . S
C488 C483 1.501 . S
C488 H489 0.961 1_554 S
C488 H490 0.961 . S
C488 H491 0.960 . S
H489 C488 0.961 1_556 S
H490 C488 0.961 . S
H491 C488 0.960 . S
C492 N493 1.342 . S
C492 C496 1.401 . S
C492 C497 1.499 . S
N493 Co476 1.989 . S
N493 C492 1.342 . S
N493 N494 1.388 . S
N494 Co477 1.993 . S
N494 N493 1.388 . S
N494 C495 1.346 . S
C495 N494 1.346 . S
C495 C496 1.396 . S
C495 C505 1.510 1_556 S
C496 C492 1.401 . S
C496 C495 1.396 . S
C497 C492 1.499 . S
C497 H498 0.959 . S
C497 H499 0.960 . S
C497 H500 0.961 . S
H498 C497 0.959 . S
H499 C497 0.960 . S
H500 C497 0.961 . S
O501 Co476 1.967 . S
O501 C509 1.258 . S
O502 Co477 1.941 . S
O502 C509 1.266 . S
H503 C505 0.959 . S
H504 C505 0.961 . S
C505 C495 1.510 1_554 S
C505 H503 0.959 . S
C505 H504 0.961 . S
C505 H506 0.960 . S
H506 C505 0.960 . S
H507 N487 0.862 . S
O508 Co476 1.920 . S
O508 C481 1.289 . S
C509 O501 1.258 . S
C509 O502 1.266 . S
Co510 O513 1.970 . S
Co510 N527 1.989 . S
Co510 O535 1.967 . S
Co510 O542 1.920 . S
Co511 O514 1.966 . S
Co511 N520 2.022 . S
Co511 N528 1.993 . S
Co511 O536 1.941 . S
C512 O513 1.258 . S
C512 O514 1.263 . S
O513 Co510 1.970 . S
O513 C512 1.258 . S
O514 Co511 1.966 . S
O514 C512 1.263 . S
C515 O516 1.235 . S
C515 O542 1.289 . S
O516 C515 1.235 . S
C517 C519 1.400 . S
C517 N520 1.351 . S
C517 C522 1.501 . S
C518 C519 1.387 . S
C518 N521 1.341 . S
C519 C517 1.400 . S
C519 C518 1.387 . S
N520 Co511 2.022 . S
N520 C517 1.351 . S
N520 N521 1.365 . S
N521 C518 1.341 . S
N521 N520 1.365 . S
N521 H541 0.862 . S
C522 C517 1.501 . S
C522 H523 0.961 . S
C522 H524 0.961 . S
C522 H525 0.960 . S
H523 C522 0.961 . S
H524 C522 0.961 . S
H525 C522 0.960 . S
C526 N527 1.342 . S
C526 C530 1.401 . S
C526 C531 1.499 . S
N527 Co510 1.989 . S
N527 C526 1.342 . S
N527 N528 1.388 . S
N528 Co511 1.993 . S
N528 N527 1.388 . S
N528 C529 1.346 . S
C529 N528 1.346 . S
C529 C530 1.396 . S
C529 C539 1.510 . S
C530 C526 1.401 . S
C530 C529 1.396 . S
C531 C526 1.499 . S
C531 H532 0.959 . S
C531 H533 0.960 . S
C531 H534 0.961 . S
H532 C531 0.959 . S
H533 C531 0.960 . S
H534 C531 0.961 . S
O535 Co510 1.967 . S
O535 C543 1.258 . S
O536 Co511 1.941 . S
O536 C543 1.266 . S
H537 C539 0.959 . S
H538 C539 0.961 . S
C539 C529 1.510 . S
C539 H537 0.959 . S
C539 H538 0.961 . S
C539 H540 0.960 . S
H540 C539 0.960 . S
H541 N521 0.862 . S
O542 Co510 1.920 . S
O542 C515 1.289 . S
C543 O535 1.258 . S
C543 O536 1.266 . S
Co544 O547 1.970 . S
Co544 N561 1.989 . S
Co544 O569 1.967 . S
Co544 O576 1.920 . S
Co545 O548 1.966 . S
Co545 N554 2.022 . S
Co545 N562 1.993 . S
Co545 O570 1.941 . S
C546 O547 1.258 . S
C546 O548 1.263 . S
O547 Co544 1.970 . S
O547 C546 1.258 . S
O548 Co545 1.966 . S
O548 C546 1.263 . S
C549 O550 1.235 . S
C549 O576 1.289 . S
O550 C549 1.235 . S
C551 C553 1.400 . S
C551 N554 1.351 . S
C551 C556 1.501 . S
C552 C553 1.387 . S
C552 N555 1.341 . S
C553 C551 1.400 . S
C553 C552 1.387 . S
N554 Co545 2.022 . S
N554 C551 1.351 . S
N554 N555 1.365 . S
N555 C552 1.341 . S
N555 N554 1.365 . S
N555 H575 0.862 . S
C556 C551 1.501 . S
C556 H557 0.961 . S
C556 H558 0.961 . S
C556 H559 0.960 . S
H557 C556 0.961 . S
H558 C556 0.961 . S
H559 C556 0.960 . S
C560 N561 1.342 . S
C560 C564 1.401 . S
C560 C565 1.499 . S
N561 Co544 1.989 . S
N561 C560 1.342 . S
N561 N562 1.388 . S
N562 Co545 1.993 . S
N562 N561 1.388 . S
N562 C563 1.346 . S
C563 N562 1.346 . S
C563 C564 1.396 . S
C563 C573 1.510 . S
C564 C560 1.401 . S
C564 C563 1.396 . S
C565 C560 1.499 . S
C565 H566 0.959 . S
C565 H567 0.960 . S
C565 H568 0.961 . S
H566 C565 0.959 . S
H567 C565 0.960 . S
H568 C565 0.961 . S
O569 Co544 1.967 . S
O569 C577 1.258 . S
O570 Co545 1.941 . S
O570 C577 1.266 . S
H571 C573 0.959 . S
H572 C573 0.961 . S
C573 C563 1.510 . S
C573 H571 0.959 . S
C573 H572 0.961 . S
C573 H574 0.960 . S
H574 C573 0.960 . S
H575 N555 0.862 . S
O576 Co544 1.920 . S
O576 C549 1.289 . S
C577 O569 1.258 . S
C577 O570 1.266 . S
Co578 O581 1.970 . S
Co578 N595 1.989 . S
Co578 O603 1.967 . S
Co578 O610 1.920 . S
Co579 O582 1.966 . S
Co579 N588 2.022 . S
Co579 N596 1.993 . S
Co579 O604 1.941 . S
C580 O581 1.258 . S
C580 O582 1.263 . S
O581 Co578 1.970 . S
O581 C580 1.258 . S
O582 Co579 1.966 . S
O582 C580 1.263 . S
C583 O584 1.235 . S
C583 O610 1.289 . S
O584 C583 1.235 . S
C585 C587 1.400 . S
C585 N588 1.351 . S
C585 C590 1.501 . S
C586 C587 1.387 . S
C586 N589 1.341 . S
C587 C585 1.400 . S
C587 C586 1.387 . S
N588 Co579 2.022 . S
N588 C585 1.351 . S
N588 N589 1.365 . S
N589 C586 1.341 . S
N589 N588 1.365 . S
N589 H609 0.862 . S
C590 C585 1.501 . S
C590 H591 0.961 . S
C590 H592 0.961 . S
C590 H593 0.960 . S
H591 C590 0.961 . S
H592 C590 0.961 . S
H593 C590 0.960 . S
C594 N595 1.342 . S
C594 C598 1.401 . S
C594 C599 1.499 . S
N595 Co578 1.989 . S
N595 C594 1.342 . S
N595 N596 1.388 . S
N596 Co579 1.993 . S
N596 N595 1.388 . S
N596 C597 1.346 . S
C597 N596 1.346 . S
C597 C598 1.396 . S
C597 C607 1.510 . S
C598 C594 1.401 . S
C598 C597 1.396 . S
C599 C594 1.499 . S
C599 H600 0.959 . S
C599 H601 0.960 . S
C599 H602 0.961 . S
H600 C599 0.959 . S
H601 C599 0.960 . S
H602 C599 0.961 . S
O603 Co578 1.967 . S
O603 C611 1.258 . S
O604 Co579 1.941 . S
O604 C611 1.266 . S
H605 C607 0.959 . S
H606 C607 0.961 . S
C607 C597 1.510 . S
C607 H605 0.959 . S
C607 H606 0.961 . S
C607 H608 0.960 . S
H608 C607 0.960 . S
H609 N589 0.862 . S
O610 Co578 1.920 . S
O610 C583 1.289 . S
C611 O603 1.258 . S
C611 O604 1.266 . S
H612 C618 0.930 . S
H613 C621 0.930 . S
H614 C622 0.930 . S
H615 C623 0.930 . S
H616 C626 0.930 . S
H617 C627 0.930 . S
C618 H612 0.930 . S
C618 C619 1.355 . S
C618 C620 1.415 . S
C619 C618 1.355 . S
C619 C621 1.419 . S
C620 C618 1.415 . S
C620 C625 1.425 . S
C620 C627 1.409 . S
C621 H613 0.930 . S
C621 C619 1.419 . S
C621 C622 1.362 . S
C622 H614 0.930 . S
C622 C621 1.362 . S
C622 C625 1.409 . S
C623 H615 0.930 . S
C623 C624 1.355 . S
C623 C625 1.415 . S
C624 C623 1.355 . S
C624 C626 1.419 . S
C625 C620 1.425 . S
C625 C622 1.409 . S
C625 C623 1.415 . S
C626 H616 0.930 . S
C626 C624 1.419 . S
C626 C627 1.362 . S
C627 H617 0.930 . S
C627 C620 1.409 . S
C627 C626 1.362 . S
H628 C634 0.930 . S
H629 C637 0.930 . S
H630 C638 0.930 . S
H631 C639 0.930 . S
H632 C642 0.930 . S
H633 C643 0.930 . S
C634 H628 0.930 . S
C634 C635 1.355 . S
C634 C636 1.415 . S
C635 C634 1.355 . S
C635 C637 1.419 . S
C636 C634 1.415 . S
C636 C641 1.425 . S
C636 C643 1.409 . S
C637 H629 0.930 . S
C637 C635 1.419 . S
C637 C638 1.362 . S
C638 H630 0.930 . S
C638 C637 1.362 . S
C638 C641 1.409 . S
C639 H631 0.930 . S
C639 C640 1.355 . S
C639 C641 1.415 . S
C640 C639 1.355 . S
C640 C642 1.419 . S
C641 C636 1.425 . S
C641 C638 1.409 . S
C641 C639 1.415 . S
C642 H632 0.930 . S
C642 C640 1.419 . S
C642 C643 1.362 . S
C643 H633 0.930 . S
C643 C636 1.409 . S
C643 C642 1.362 . S
H644 C650 0.930 . S
H645 C653 0.930 . S
H646 C654 0.930 . S
H647 C655 0.930 . S
H648 C658 0.930 . S
H649 C659 0.930 . S
C650 H644 0.930 . S
C650 C651 1.355 . S
C650 C652 1.415 . S
C651 C650 1.355 . S
C651 C653 1.419 . S
C652 C650 1.415 . S
C652 C657 1.425 . S
C652 C659 1.409 . S
C653 H645 0.930 . S
C653 C651 1.419 . S
C653 C654 1.362 . S
C654 H646 0.930 . S
C654 C653 1.362 . S
C654 C657 1.409 . S
C655 H647 0.930 . S
C655 C656 1.355 . S
C655 C657 1.415 . S
C656 C655 1.355 . S
C656 C658 1.419 . S
C657 C652 1.425 . S
C657 C654 1.409 . S
C657 C655 1.415 . S
C658 H648 0.930 . S
C658 C656 1.419 . S
C658 C659 1.362 . S
C659 H649 0.930 . S
C659 C652 1.409 . S
C659 C658 1.362 . S
H660 C666 0.930 . S
H661 C669 0.930 . S
H662 C670 0.930 . S
H663 C671 0.930 . S
H664 C674 0.930 . S
H665 C675 0.930 . S
C666 H660 0.930 . S
C666 C667 1.355 . S
C666 C668 1.415 . S
C667 C666 1.355 . S
C667 C669 1.419 . S
C668 C666 1.415 . S
C668 C673 1.425 . S
C668 C675 1.409 . S
C669 H661 0.930 . S
C669 C667 1.419 . S
C669 C670 1.362 . S
C670 H662 0.930 . S
C670 C669 1.362 . S
C670 C673 1.409 . S
C671 H663 0.930 . S
C671 C672 1.355 . S
C671 C673 1.415 . S
C672 C671 1.355 . S
C672 C674 1.419 . S
C673 C668 1.425 . S
C673 C670 1.409 . S
C673 C671 1.415 . S
C674 H664 0.930 . S
C674 C672 1.419 . S
C674 C675 1.362 . S
C675 H665 0.930 . S
C675 C668 1.409 . S
C675 C674 1.362 . S
H676 C682 0.930 . S
H677 C685 0.930 . S
H678 C686 0.930 . S
H679 C687 0.930 . S
H680 C690 0.930 . S
H681 C691 0.930 . S
C682 H676 0.930 . S
C682 C683 1.355 . S
C682 C684 1.415 . S
C683 C682 1.355 . S
C683 C685 1.419 . S
C684 C682 1.415 . S
C684 C689 1.425 . S
C684 C691 1.409 . S
C685 H677 0.930 . S
C685 C683 1.419 . S
C685 C686 1.362 . S
C686 H678 0.930 . S
C686 C685 1.362 . S
C686 C689 1.409 . S
C687 H679 0.930 . S
C687 C688 1.355 . S
C687 C689 1.415 . S
C688 C687 1.355 . S
C688 C690 1.419 . S
C689 C684 1.425 . S
C689 C686 1.409 . S
C689 C687 1.415 . S
C690 H680 0.930 . S
C690 C688 1.419 . S
C690 C691 1.362 . S
C691 H681 0.930 . S
C691 C684 1.409 . S
C691 C690 1.362 . S
H692 C698 0.930 . S
H693 C701 0.930 . S
H694 C702 0.930 . S
H695 C703 0.930 . S
H696 C706 0.930 . S
H697 C707 0.930 . S
C698 H692 0.930 . S
C698 C699 1.355 . S
C698 C700 1.415 . S
C699 C698 1.355 . S
C699 C701 1.419 . S
C700 C698 1.415 . S
C700 C705 1.425 . S
C700 C707 1.409 . S
C701 H693 0.930 . S
C701 C699 1.419 . S
C701 C702 1.362 . S
C702 H694 0.930 . S
C702 C701 1.362 . S
C702 C705 1.409 . S
C703 H695 0.930 . S
C703 C704 1.355 . S
C703 C705 1.415 . S
C704 C703 1.355 . S
C704 C706 1.419 . S
C705 C700 1.425 . S
C705 C702 1.409 . S
C705 C703 1.415 . S
C706 H696 0.930 . S
C706 C704 1.419 . S
C706 C707 1.362 . S
C707 H697 0.930 . S
C707 C700 1.409 . S
C707 C706 1.362 . S
H708 C714 0.930 . S
H709 C717 0.930 . S
H710 C718 0.930 . S
H711 C719 0.930 . S
H712 C722 0.930 . S
H713 C723 0.930 1_554 S
C714 H708 0.930 . S
C714 C715 1.355 . S
C714 C716 1.415 . S
C715 C714 1.355 . S
C715 C717 1.419 . S
C716 C714 1.415 . S
C716 C721 1.420 1_554 S
C716 C723 1.409 1_554 S
C717 H709 0.930 . S
C717 C715 1.419 . S
C717 C718 1.362 . S
C718 H710 0.930 . S
C718 C717 1.362 . S
C718 C721 1.401 1_554 S
C719 H711 0.930 . S
C719 C720 1.355 . S
C719 C721 1.427 . S
C720 C719 1.355 . S
C720 C722 1.419 . S
C721 C716 1.420 1_556 S
C721 C718 1.401 1_556 S
C721 C719 1.427 . S
C722 H712 0.930 . S
C722 C720 1.419 . S
C722 C723 1.362 . S
C723 H713 0.930 1_556 S
C723 C716 1.409 1_556 S
C723 C722 1.362 . S
H724 C730 0.930 . S
H725 C733 0.930 . S
H726 C734 0.930 1_556 S
H727 C735 0.930 . S
H728 C738 0.930 . S
H729 C739 0.930 . S
C730 H724 0.930 . S
C730 C731 1.355 . S
C730 C732 1.415 . S
C731 C730 1.355 . S
C731 C733 1.419 . S
C732 C730 1.415 . S
C732 C737 1.425 1_554 S
C732 C739 1.409 . S
C733 H725 0.930 . S
C733 C731 1.419 . S
C733 C734 1.362 . S
C734 H726 0.930 1_554 S
C734 C733 1.362 . S
C734 C737 1.409 1_554 S
C735 H727 0.930 . S
C735 C736 1.355 . S
C735 C737 1.415 . S
C736 C735 1.355 . S
C736 C738 1.419 . S
C737 C732 1.425 1_556 S
C737 C734 1.409 1_556 S
C737 C735 1.415 . S
C738 H728 0.930 . S
C738 C736 1.419 . S
C738 C739 1.362 1_556 S
C739 H729 0.930 . S
C739 C732 1.409 . S
C739 C738 1.362 1_554 S
H740 C746 0.930 . S
H741 C749 0.930 . S
H742 C750 0.930 . S
H743 C751 0.930 . S
H744 C754 0.930 . S
H745 C755 0.930 1_556 S
C746 H740 0.930 . S
C746 C747 1.355 . S
C746 C748 1.415 . S
C747 C746 1.355 . S
C747 C749 1.419 . S
C748 C746 1.415 . S
C748 C753 1.425 1_556 S
C748 C755 1.409 1_556 S
C749 H741 0.930 . S
C749 C747 1.419 . S
C749 C750 1.362 1_556 S
C750 H742 0.930 . S
C750 C749 1.362 1_554 S
C750 C753 1.409 . S
C751 H743 0.930 . S
C751 C752 1.355 . S
C751 C753 1.415 . S
C752 C751 1.355 . S
C752 C754 1.419 . S
C753 C748 1.425 1_554 S
C753 C750 1.409 . S
C753 C751 1.415 . S
C754 H744 0.930 . S
C754 C752 1.419 . S
C754 C755 1.362 . S
C755 H745 0.930 1_554 S
C755 C748 1.409 1_554 S
C755 C754 1.362 . S
H756 C762 0.930 . S
H757 C765 0.930 . S
H758 C766 0.930 . S
H759 C767 0.930 . S
H760 C770 0.930 . S
H761 C771 0.930 . S
C762 H756 0.930 . S
C762 C763 1.355 . S
C762 C764 1.415 . S
C763 C762 1.355 . S
C763 C765 1.419 . S
C764 C762 1.415 . S
C764 C769 1.425 . S
C764 C771 1.409 . S
C765 H757 0.930 . S
C765 C763 1.419 . S
C765 C766 1.362 . S
C766 H758 0.930 . S
C766 C765 1.362 . S
C766 C769 1.409 . S
C767 H759 0.930 . S
C767 C768 1.355 . S
C767 C769 1.415 . S
C768 C767 1.355 . S
C768 C770 1.419 . S
C769 C764 1.425 . S
C769 C766 1.409 . S
C769 C767 1.415 . S
C770 H760 0.930 . S
C770 C768 1.419 . S
C770 C771 1.362 . S
C771 H761 0.930 . S
C771 C764 1.409 . S
C771 C770 1.362 . S
H772 C778 0.930 . S
H773 C781 0.930 . S
H774 C782 0.930 . S
H775 C783 0.930 . S
H776 C786 0.930 . S
H777 C787 0.930 . S
C778 H772 0.930 . S
C778 C779 1.355 . S
C778 C780 1.415 . S
C779 C778 1.355 . S
C779 C781 1.419 . S
C780 C778 1.415 . S
C780 C785 1.425 . S
C780 C787 1.409 . S
C781 H773 0.930 . S
C781 C779 1.419 . S
C781 C782 1.362 . S
C782 H774 0.930 . S
C782 C781 1.362 . S
C782 C785 1.409 . S
C783 H775 0.930 . S
C783 C784 1.355 . S
C783 C785 1.415 . S
C784 C783 1.355 . S
C784 C786 1.419 . S
C785 C780 1.425 . S
C785 C782 1.409 . S
C785 C783 1.415 . S
C786 H776 0.930 . S
C786 C784 1.419 . S
C786 C787 1.362 . S
C787 H777 0.930 . S
C787 C780 1.409 . S
C787 C786 1.362 . S
H788 C794 0.930 . S
H789 C797 0.930 . S
H790 C798 0.930 . S
H791 C799 0.930 . S
H792 C802 0.930 . S
H793 C803 0.930 . S
C794 H788 0.930 . S
C794 C795 1.355 . S
C794 C796 1.415 . S
C795 C794 1.355 . S
C795 C797 1.419 . S
C796 C794 1.415 . S
C796 C801 1.425 . S
C796 C803 1.409 . S
C797 H789 0.930 . S
C797 C795 1.419 . S
C797 C798 1.362 . S
C798 H790 0.930 . S
C798 C797 1.362 . S
C798 C801 1.409 . S
C799 H791 0.930 . S
C799 C800 1.355 . S
C799 C801 1.415 . S
C800 C799 1.355 . S
C800 C802 1.419 . S
C801 C796 1.425 . S
C801 C798 1.409 . S
C801 C799 1.415 . S
C802 H792 0.930 . S
C802 C800 1.419 . S
C802 C803 1.362 . S
C803 H793 0.930 . S
C803 C796 1.409 . S
C803 C802 1.362 . S
H804 C810 0.930 . S
H805 C813 0.930 . S
H806 C814 0.930 . S
H807 C815 0.930 . S
H808 C818 0.930 . S
H809 C819 0.930 . S
C810 H804 0.930 . S
C810 C811 1.355 . S
C810 C812 1.415 . S
C811 C810 1.355 . S
C811 C813 1.419 . S
C812 C810 1.415 . S
C812 C817 1.425 . S
C812 C819 1.409 . S
C813 H805 0.930 . S
C813 C811 1.419 . S
C813 C814 1.362 . S
C814 H806 0.930 . S
C814 C813 1.362 . S
C814 C817 1.409 . S
C815 H807 0.930 . S
C815 C816 1.355 . S
C815 C817 1.415 . S
C816 C815 1.355 . S
C816 C818 1.419 . S
C817 C812 1.425 . S
C817 C814 1.409 . S
C817 C815 1.415 . S
C818 H808 0.930 . S
C818 C816 1.419 . S
C818 C819 1.362 . S
C819 H809 0.930 . S
C819 C812 1.409 . S
C819 C818 1.362 . S
H820 C826 0.930 . S
H821 C829 0.930 . S
H822 C830 0.930 . S
H823 C831 0.930 . S
H824 C834 0.930 . S
H825 C835 0.930 . S
C826 H820 0.930 . S
C826 C827 1.355 . S
C826 C828 1.415 . S
C827 C826 1.355 . S
C827 C829 1.419 . S
C828 C826 1.415 . S
C828 C833 1.425 . S
C828 C835 1.409 . S
C829 H821 0.930 . S
C829 C827 1.419 . S
C829 C830 1.362 . S
C830 H822 0.930 . S
C830 C829 1.362 . S
C830 C833 1.409 . S
C831 H823 0.930 . S
C831 C832 1.355 . S
C831 C833 1.415 . S
C832 C831 1.355 . S
C832 C834 1.419 . S
C833 C828 1.425 . S
C833 C830 1.409 . S
C833 C831 1.415 . S
C834 H824 0.930 . S
C834 C832 1.419 . S
C834 C835 1.362 . S
C835 H825 0.930 . S
C835 C828 1.409 . S
C835 C834 1.362 . S
H836 C842 0.930 . S
H837 C845 0.930 . S
H838 C846 0.930 . S
H839 C847 0.930 . S
H840 C850 0.930 . S
H841 C851 0.930 . S
C842 H836 0.930 . S
C842 C843 1.355 . S
C842 C844 1.415 . S
C843 C842 1.355 . S
C843 C845 1.419 . S
C844 C842 1.415 . S
C844 C849 1.425 . S
C844 C851 1.409 . S
C845 H837 0.930 . S
C845 C843 1.419 . S
C845 C846 1.362 . S
C846 H838 0.930 . S
C846 C845 1.362 . S
C846 C849 1.409 . S
C847 H839 0.930 . S
C847 C848 1.355 . S
C847 C849 1.415 . S
C848 C847 1.355 . S
C848 C850 1.419 . S
C849 C844 1.425 . S
C849 C846 1.409 . S
C849 C847 1.415 . S
C850 H840 0.930 . S
C850 C848 1.419 . S
C850 C851 1.362 . S
C851 H841 0.930 . S
C851 C844 1.409 . S
C851 C850 1.362 . S
H852 C858 0.930 . S
H853 C861 0.930 . S
H854 C862 0.930 . S
H855 C863 0.930 . S
H856 C866 0.930 . S
H857 C867 0.930 . S
C858 H852 0.930 . S
C858 C859 1.355 . S
C858 C860 1.415 1_554 S
C859 C858 1.355 . S
C859 C861 1.419 . S
C860 C858 1.415 1_556 S
C860 C865 1.425 . S
C860 C867 1.409 . S
C861 H853 0.930 . S
C861 C859 1.419 . S
C861 C862 1.362 . S
C862 H854 0.930 . S
C862 C861 1.362 . S
C862 C865 1.409 1_554 S
C863 H855 0.930 . S
C863 C864 1.355 . S
C863 C865 1.415 . S
C864 C863 1.355 . S
C864 C866 1.419 . S
C865 C860 1.425 . S
C865 C862 1.409 1_556 S
C865 C863 1.415 . S
C866 H856 0.930 . S
C866 C864 1.419 . S
C866 C867 1.362 . S
C867 H857 0.930 . S
C867 C860 1.409 . S
C867 C866 1.362 . S
H868 C874 0.930 . S
H869 C877 0.930 . S
H870 C878 0.930 . S
H871 C879 0.930 . S
H872 C882 0.930 . S
H873 C883 0.930 1_554 S
C874 H868 0.930 . S
C874 C875 1.355 . S
C874 C876 1.415 . S
C875 C874 1.355 . S
C875 C877 1.419 . S
C876 C874 1.415 . S
C876 C881 1.425 1_554 S
C876 C883 1.409 1_554 S
C877 H869 0.930 . S
C877 C875 1.419 . S
C877 C878 1.362 1_554 S
C878 H870 0.930 . S
C878 C877 1.362 1_556 S
C878 C881 1.409 . S
C879 H871 0.930 . S
C879 C880 1.355 . S
C879 C881 1.415 . S
C880 C879 1.355 . S
C880 C882 1.419 . S
C881 C876 1.425 1_556 S
C881 C878 1.409 . S
C881 C879 1.415 . S
C882 H872 0.930 . S
C882 C880 1.419 . S
C882 C883 1.362 . S
C883 H873 0.930 1_556 S
C883 C876 1.409 1_556 S
C883 C882 1.362 . S
H884 C890 0.930 . S
H885 C893 0.930 . S
H886 C894 0.930 . S
H887 C895 0.930 . S
H888 C898 0.930 . S
H889 C899 0.930 . S
C890 H884 0.930 . S
C890 C891 1.355 . S
C890 C892 1.415 . S
C891 C890 1.355 . S
C891 C893 1.419 . S
C892 C890 1.415 . S
C892 C897 1.425 . S
C892 C899 1.409 1_556 S
C893 H885 0.930 . S
C893 C891 1.419 . S
C893 C894 1.362 . S
C894 H886 0.930 . S
C894 C893 1.362 . S
C894 C897 1.409 . S
C895 H887 0.930 . S
C895 C896 1.355 . S
C895 C897 1.415 1_554 S
C896 C895 1.355 . S
C896 C898 1.419 . S
C897 C892 1.425 . S
C897 C894 1.409 . S
C897 C895 1.415 1_556 S
C898 H888 0.930 . S
C898 C896 1.419 . S
C898 C899 1.362 . S
C899 H889 0.930 . S
C899 C892 1.409 1_554 S
C899 C898 1.362 . S
H900 C906 0.930 . S
H901 C909 0.930 . S
H902 C910 0.930 . S
H903 C911 0.930 . S
H904 C914 0.930 . S
H905 C915 0.930 . S
C906 H900 0.930 . S
C906 C907 1.355 . S
C906 C908 1.415 . S
C907 C906 1.355 . S
C907 C909 1.419 . S
C908 C906 1.415 . S
C908 C913 1.425 . S
C908 C915 1.409 . S
C909 H901 0.930 . S
C909 C907 1.419 . S
C909 C910 1.362 . S
C910 H902 0.930 . S
C910 C909 1.362 . S
C910 C913 1.409 . S
C911 H903 0.930 . S
C911 C912 1.355 . S
C911 C913 1.415 . S
C912 C911 1.355 . S
C912 C914 1.419 . S
C913 C908 1.425 . S
C913 C910 1.409 . S
C913 C911 1.415 . S
C914 H904 0.930 . S
C914 C912 1.419 . S
C914 C915 1.362 . S
C915 H905 0.930 . S
C915 C908 1.409 . S
C915 C914 1.362 . S
H916 C922 0.930 . S
H917 C925 0.930 . S
H918 C926 0.930 . S
H919 C927 0.930 . S
H920 C930 0.930 . S
H921 C931 0.930 . S
C922 H916 0.930 . S
C922 C923 1.355 . S
C922 C924 1.415 . S
C923 C922 1.355 . S
C923 C925 1.419 . S
C924 C922 1.415 . S
C924 C929 1.425 . S
C924 C931 1.409 . S
C925 H917 0.930 . S
C925 C923 1.419 . S
C925 C926 1.362 . S
C926 H918 0.930 . S
C926 C925 1.362 . S
C926 C929 1.409 . S
C927 H919 0.930 . S
C927 C928 1.355 . S
C927 C929 1.415 . S
C928 C927 1.355 . S
C928 C930 1.419 . S
C929 C924 1.425 . S
C929 C926 1.409 . S
C929 C927 1.415 . S
C930 H920 0.930 . S
C930 C928 1.419 . S
C930 C931 1.362 . S
C931 H921 0.930 . S
C931 C924 1.409 . S
C931 C930 1.362 . S
H932 C938 0.930 . S
H933 C941 0.930 . S
H934 C942 0.930 . S
H935 C943 0.930 . S
H936 C946 0.930 . S
H937 C947 0.930 . S
C938 H932 0.930 . S
C938 C939 1.355 . S
C938 C940 1.415 . S
C939 C938 1.355 . S
C939 C941 1.419 . S
C940 C938 1.415 . S
C940 C945 1.425 . S
C940 C947 1.409 . S
C941 H933 0.930 . S
C941 C939 1.419 . S
C941 C942 1.362 . S
C942 H934 0.930 . S
C942 C941 1.362 . S
C942 C945 1.409 . S
C943 H935 0.930 . S
C943 C944 1.355 . S
C943 C945 1.415 . S
C944 C943 1.355 . S
C944 C946 1.419 . S
C945 C940 1.425 . S
C945 C942 1.409 . S
C945 C943 1.415 . S
C946 H936 0.930 . S
C946 C944 1.419 . S
C946 C947 1.362 . S
C947 H937 0.930 . S
C947 C940 1.409 . S
C947 C946 1.362 . S
H948 C954 0.930 . S
H949 C957 0.930 . S
H950 C958 0.930 . S
H951 C959 0.930 . S
H952 C962 0.930 . S
H953 C963 0.930 . S
C954 H948 0.930 . S
C954 C955 1.355 . S
C954 C956 1.415 . S
C955 C954 1.355 . S
C955 C957 1.419 . S
C956 C954 1.415 . S
C956 C961 1.425 . S
C956 C963 1.409 . S
C957 H949 0.930 . S
C957 C955 1.419 . S
C957 C958 1.362 . S
C958 H950 0.930 . S
C958 C957 1.362 . S
C958 C961 1.409 . S
C959 H951 0.930 . S
C959 C960 1.355 . S
C959 C961 1.415 . S
C960 C959 1.355 . S
C960 C962 1.419 . S
C961 C956 1.425 . S
C961 C958 1.409 . S
C961 C959 1.415 . S
C962 H952 0.930 . S
C962 C960 1.419 . S
C962 C963 1.362 . S
C963 H953 0.930 . S
C963 C956 1.409 . S
C963 C962 1.362 . S
H964 C970 0.930 . S
H965 C973 0.930 . S
H966 C974 0.930 . S
H967 C975 0.930 . S
H968 C978 0.930 . S
H969 C979 0.930 . S
C970 H964 0.930 . S
C970 C971 1.355 . S
C970 C972 1.415 . S
C971 C970 1.355 . S
C971 C973 1.419 . S
C972 C970 1.415 . S
C972 C977 1.425 . S
C972 C979 1.409 . S
C973 H965 0.930 . S
C973 C971 1.419 . S
C973 C974 1.362 . S
C974 H966 0.930 . S
C974 C973 1.362 . S
C974 C977 1.409 . S
C975 H967 0.930 . S
C975 C976 1.355 . S
C975 C977 1.415 . S
C976 C975 1.355 . S
C976 C978 1.419 . S
C977 C972 1.425 . S
C977 C974 1.409 . S
C977 C975 1.415 . S
C978 H968 0.930 . S
C978 C976 1.419 . S
C978 C979 1.362 . S
C979 H969 0.930 . S
C979 C972 1.409 . S
C979 C978 1.362 . S
H980 C986 0.930 . S
H981 C989 0.930 . S
H982 C990 0.930 . S
H983 C991 0.930 . S
H984 C994 0.930 . S
H985 C995 0.930 . S
C986 H980 0.930 . S
C986 C987 1.355 . S
C986 C988 1.415 . S
C987 C986 1.355 . S
C987 C989 1.419 . S
C988 C986 1.415 . S
C988 C993 1.425 . S
C988 C995 1.409 . S
C989 H981 0.930 . S
C989 C987 1.419 . S
C989 C990 1.362 . S
C990 H982 0.930 . S
C990 C989 1.362 . S
C990 C993 1.409 . S
C991 H983 0.930 . S
C991 C992 1.355 . S
C991 C993 1.415 . S
C992 C991 1.355 . S
C992 C994 1.419 . S
C993 C988 1.425 . S
C993 C990 1.409 . S
C993 C991 1.415 . S
C994 H984 0.930 . S
C994 C992 1.419 . S
C994 C995 1.362 . S
C995 H985 0.930 . S
C995 C988 1.409 . S
C995 C994 1.362 . S
H996 C1002 0.930 . S
H997 C1005 0.930 . S
H998 C1006 0.930 . S
H999 C1007 0.930 . S
H1000 C1010 0.930 . S
H1001 C1011 0.930 . S
C1002 H996 0.930 . S
C1002 C1003 1.355 . S
C1002 C1004 1.401 1_655 S
C1003 C1002 1.355 . S
C1003 C1005 1.419 . S
C1004 C1002 1.401 1_455 S
C1004 C1009 1.439 1_454 S
C1004 C1011 1.416 . S
C1005 H997 0.930 . S
C1005 C1003 1.419 . S
C1005 C1006 1.362 1_554 S
C1006 H998 0.930 . S
C1006 C1005 1.362 1_556 S
C1006 C1009 1.416 . S
C1007 H999 0.930 . S
C1007 C1008 1.355 . S
C1007 C1009 1.401 1_455 S
C1008 C1007 1.355 . S
C1008 C1010 1.419 . S
C1009 C1004 1.439 1_656 S
C1009 C1006 1.416 . S
C1009 C1007 1.401 1_655 S
C1010 H1000 0.930 . S
C1010 C1008 1.419 . S
C1010 C1011 1.362 1_556 S
C1011 H1001 0.930 . S
C1011 C1004 1.416 . S
C1011 C1010 1.362 1_554 S
H1012 C1018 0.930 1_554 S
H1013 C1021 0.930 . S
H1014 C1022 0.930 . S
H1015 C1023 0.930 1_556 S
H1016 C1026 0.930 . S
H1017 C1027 0.930 . S
C1018 H1012 0.930 1_556 S
C1018 C1019 1.355 . S
C1018 C1020 1.415 1_556 S
C1019 C1018 1.355 . S
C1019 C1021 1.419 . S
C1020 C1018 1.415 1_554 S
C1020 C1025 1.425 1_554 S
C1020 C1027 1.409 . S
C1021 H1013 0.930 . S
C1021 C1019 1.419 . S
C1021 C1022 1.362 . S
C1022 H1014 0.930 . S
C1022 C1021 1.362 . S
C1022 C1025 1.409 . S
C1023 H1015 0.930 1_554 S
C1023 C1024 1.355 . S
C1023 C1025 1.415 1_554 S
C1024 C1023 1.355 . S
C1024 C1026 1.419 . S
C1025 C1020 1.425 1_556 S
C1025 C1022 1.409 . S
C1025 C1023 1.415 1_556 S
C1026 H1016 0.930 . S
C1026 C1024 1.419 . S
C1026 C1027 1.362 . S
C1027 H1017 0.930 . S
C1027 C1020 1.409 . S
C1027 C1026 1.362 . S
H1028 C1034 0.930 . S
H1029 C1037 0.930 . S
H1030 C1038 0.930 . S
H1031 C1039 0.930 . S
H1032 C1042 0.930 . S
H1033 C1043 0.930 . S
C1034 H1028 0.930 . S
C1034 C1035 1.355 . S
C1034 C1036 1.443 . S
C1035 C1034 1.355 . S
C1035 C1037 1.419 . S
C1036 C1034 1.443 . S
C1036 C1041 1.390 1_544 S
C1036 C1043 1.399 1_545 S
C1037 H1029 0.930 . S
C1037 C1035 1.419 . S
C1037 C1038 1.362 1_554 S
C1038 H1030 0.930 . S
C1038 C1037 1.362 1_556 S
C1038 C1041 1.399 1_545 S
C1039 H1031 0.930 . S
C1039 C1040 1.355 . S
C1039 C1041 1.443 . S
C1040 C1039 1.355 . S
C1040 C1042 1.419 . S
C1041 C1036 1.390 1_566 S
C1041 C1038 1.399 1_565 S
C1041 C1039 1.443 . S
C1042 H1032 0.930 . S
C1042 C1040 1.419 . S
C1042 C1043 1.362 1_556 S
C1043 H1033 0.930 . S
C1043 C1036 1.399 1_565 S
C1043 C1042 1.362 1_554 S
H1044 C1050 0.930 . S
H1045 C1053 0.930 . S
H1046 C1054 0.930 . S
H1047 C1055 0.930 . S
H1048 C1058 0.930 . S
H1049 C1059 0.930 . S
C1050 H1044 0.930 . S
C1050 C1051 1.355 . S
C1050 C1052 1.415 . S
C1051 C1050 1.355 . S
C1051 C1053 1.419 1_554 S
C1052 C1050 1.415 . S
C1052 C1057 1.425 1_554 S
C1052 C1059 1.409 . S
C1053 H1045 0.930 . S
C1053 C1051 1.419 1_556 S
C1053 C1054 1.362 . S
C1054 H1046 0.930 . S
C1054 C1053 1.362 . S
C1054 C1057 1.409 . S
C1055 H1047 0.930 . S
C1055 C1056 1.355 . S
C1055 C1057 1.415 . S
C1056 C1055 1.355 . S
C1056 C1058 1.419 1_556 S
C1057 C1052 1.425 1_556 S
C1057 C1054 1.409 . S
C1057 C1055 1.415 . S
C1058 H1048 0.930 . S
C1058 C1056 1.419 1_554 S
C1058 C1059 1.362 . S
C1059 H1049 0.930 . S
C1059 C1052 1.409 . S
C1059 C1058 1.362 . S
H1060 C1066 0.930 . S
H1061 C1069 0.930 . S
H1062 C1070 0.930 1_556 S
H1063 C1071 0.930 . S
H1064 C1074 0.930 . S
H1065 C1075 0.930 1_554 S
C1066 H1060 0.930 . S
C1066 C1067 1.355 . S
C1066 C1068 1.415 . S
C1067 C1066 1.355 . S
C1067 C1069 1.419 . S
C1068 C1066 1.415 . S
C1068 C1073 1.425 1_564 S
C1068 C1075 1.409 1_564 S
C1069 H1061 0.930 . S
C1069 C1067 1.419 . S
C1069 C1070 1.362 . S
C1070 H1062 0.930 1_554 S
C1070 C1069 1.362 . S
C1070 C1073 1.409 1_564 S
C1071 H1063 0.930 . S
C1071 C1072 1.355 . S
C1071 C1073 1.415 . S
C1072 C1071 1.355 . S
C1072 C1074 1.419 . S
C1073 C1068 1.425 1_546 S
C1073 C1070 1.409 1_546 S
C1073 C1071 1.415 . S
C1074 H1064 0.930 . S
C1074 C1072 1.419 . S
C1074 C1075 1.362 . S
C1075 H1065 0.930 1_556 S
C1075 C1068 1.409 1_546 S
C1075 C1074 1.362 . S
H1076 C1082 0.930 . S
H1077 C1085 0.930 . S
H1078 C1086 0.930 1_455 S
H1079 C1087 0.930 . S
H1080 C1090 0.930 . S
H1081 C1091 0.930 1_655 S
C1082 H1076 0.930 . S
C1082 C1083 1.355 . S
C1082 C1084 1.415 1_556 S
C1083 C1082 1.355 . S
C1083 C1085 1.419 . S
C1084 C1082 1.415 1_554 S
C1084 C1089 1.425 1_654 S
C1084 C1091 1.409 1_655 S
C1085 H1077 0.930 . S
C1085 C1083 1.419 . S
C1085 C1086 1.362 . S
C1086 H1078 0.930 1_655 S
C1086 C1085 1.362 . S
C1086 C1089 1.409 1_655 S
C1087 H1079 0.930 . S
C1087 C1088 1.355 . S
C1087 C1089 1.415 1_554 S
C1088 C1087 1.355 . S
C1088 C1090 1.419 . S
C1089 C1084 1.425 1_456 S
C1089 C1086 1.409 1_455 S
C1089 C1087 1.415 1_556 S
C1090 H1080 0.930 . S
C1090 C1088 1.419 . S
C1090 C1091 1.362 . S
C1091 H1081 0.930 1_455 S
C1091 C1084 1.409 1_455 S
C1091 C1090 1.362 . S
H1092 C1098 0.930 1_554 S
H1093 C1101 0.930 . S
H1094 C1102 0.930 . S
H1095 C1103 0.930 1_556 S
H1096 C1106 0.930 . S
H1097 C1107 0.930 . S
C1098 H1092 0.930 1_556 S
C1098 C1099 1.355 . S
C1098 C1100 1.415 1_556 S
C1099 C1098 1.355 . S
C1099 C1101 1.419 . S
C1100 C1098 1.415 1_554 S
C1100 C1105 1.425 1_554 S
C1100 C1107 1.409 . S
C1101 H1093 0.930 . S
C1101 C1099 1.419 . S
C1101 C1102 1.362 . S
C1102 H1094 0.930 . S
C1102 C1101 1.362 . S
C1102 C1105 1.409 . S
C1103 H1095 0.930 1_554 S
C1103 C1104 1.355 . S
C1103 C1105 1.415 1_554 S
C1104 C1103 1.355 . S
C1104 C1106 1.419 . S
C1105 C1100 1.425 1_556 S
C1105 C1102 1.409 . S
C1105 C1103 1.415 1_556 S
C1106 H1096 0.930 . S
C1106 C1104 1.419 . S
C1106 C1107 1.362 . S
C1107 H1097 0.930 . S
C1107 C1100 1.409 . S
C1107 C1106 1.362 . S
H1108 C1114 0.930 1_554 S
H1109 C1117 0.930 . S
H1110 C1118 0.930 . S
H1111 C1119 0.930 1_556 S
H1112 C1122 0.930 . S
H1113 C1123 0.930 . S
C1114 H1108 0.930 1_556 S
C1114 C1115 1.355 . S
C1114 C1116 1.415 1_556 S
C1115 C1114 1.355 . S
C1115 C1117 1.419 . S
C1116 C1114 1.415 1_554 S
C1116 C1121 1.425 1_544 S
C1116 C1123 1.409 . S
C1117 H1109 0.930 . S
C1117 C1115 1.419 . S
C1117 C1118 1.362 1_545 S
C1118 H1110 0.930 . S
C1118 C1117 1.362 1_565 S
C1118 C1121 1.409 . S
C1119 H1111 0.930 1_554 S
C1119 C1120 1.355 . S
C1119 C1121 1.415 1_554 S
C1120 C1119 1.355 . S
C1120 C1122 1.419 . S
C1121 C1116 1.425 1_566 S
C1121 C1118 1.409 . S
C1121 C1119 1.415 1_556 S
C1122 H1112 0.930 . S
C1122 C1120 1.419 . S
C1122 C1123 1.362 1_565 S
C1123 H1113 0.930 . S
C1123 C1116 1.409 . S
C1123 C1122 1.362 1_545 S
H1124 C1130 0.930 . S
H1125 C1133 0.930 . S
H1126 C1134 0.930 . S
H1127 C1135 0.930 . S
H1128 C1138 0.930 . S
H1129 C1139 0.930 . S
C1130 H1124 0.930 . S
C1130 C1131 1.355 . S
C1130 C1132 1.415 1_655 S
C1131 C1130 1.355 . S
C1131 C1133 1.419 1_556 S
C1132 C1130 1.415 1_455 S
C1132 C1137 1.425 1_456 S
C1132 C1139 1.409 . S
C1133 H1125 0.930 . S
C1133 C1131 1.419 1_554 S
C1133 C1134 1.362 . S
C1134 H1126 0.930 . S
C1134 C1133 1.362 . S
C1134 C1137 1.409 . S
C1135 H1127 0.930 . S
C1135 C1136 1.355 . S
C1135 C1137 1.415 1_455 S
C1136 C1135 1.355 . S
C1136 C1138 1.419 1_554 S
C1137 C1132 1.425 1_654 S
C1137 C1134 1.409 . S
C1137 C1135 1.415 1_655 S
C1138 H1128 0.930 . S
C1138 C1136 1.419 1_556 S
C1138 C1139 1.362 . S
C1139 H1129 0.930 . S
C1139 C1132 1.409 . S
C1139 C1138 1.362 . S
H1140 C1146 0.930 . S
H1141 C1149 0.930 . S
H1142 C1150 0.930 . S
H1143 C1151 0.930 . S
H1144 C1154 0.930 . S
H1145 C1155 0.930 . S
C1146 H1140 0.930 . S
C1146 C1147 1.355 . S
C1146 C1148 1.415 . S
C1147 C1146 1.355 . S
C1147 C1149 1.419 . S
C1148 C1146 1.415 . S
C1148 C1153 1.425 . S
C1148 C1155 1.409 . S
C1149 H1141 0.930 . S
C1149 C1147 1.419 . S
C1149 C1150 1.362 . S
C1150 H1142 0.930 . S
C1150 C1149 1.362 . S
C1150 C1153 1.409 . S
C1151 H1143 0.930 . S
C1151 C1152 1.355 . S
C1151 C1153 1.415 . S
C1152 C1151 1.355 . S
C1152 C1154 1.419 . S
C1153 C1148 1.425 . S
C1153 C1150 1.409 . S
C1153 C1151 1.415 . S
C1154 H1144 0.930 . S
C1154 C1152 1.419 . S
C1154 C1155 1.362 . S
C1155 H1145 0.930 . S
C1155 C1148 1.409 . S
C1155 C1154 1.362 . S
H1156 C1162 0.930 . S
H1157 C1165 0.930 . S
H1158 C1166 0.930 . S
H1159 C1167 0.930 . S
H1160 C1170 0.930 . S
H1161 C1171 0.930 . S
C1162 H1156 0.930 . S
C1162 C1163 1.355 . S
C1162 C1164 1.415 . S
C1163 C1162 1.355 . S
C1163 C1165 1.419 . S
C1164 C1162 1.415 . S
C1164 C1169 1.425 . S
C1164 C1171 1.409 . S
C1165 H1157 0.930 . S
C1165 C1163 1.419 . S
C1165 C1166 1.362 . S
C1166 H1158 0.930 . S
C1166 C1165 1.362 . S
C1166 C1169 1.409 . S
C1167 H1159 0.930 . S
C1167 C1168 1.355 . S
C1167 C1169 1.415 . S
C1168 C1167 1.355 . S
C1168 C1170 1.419 . S
C1169 C1164 1.425 . S
C1169 C1166 1.409 . S
C1169 C1167 1.415 . S
C1170 H1160 0.930 . S
C1170 C1168 1.419 . S
C1170 C1171 1.362 . S
C1171 H1161 0.930 . S
C1171 C1164 1.409 . S
C1171 C1170 1.362 . S
H1172 C1178 0.930 . S
H1173 C1181 0.930 . S
H1174 C1182 0.930 . S
H1175 C1183 0.930 . S
H1176 C1186 0.930 . S
H1177 C1187 0.930 . S
C1178 H1172 0.930 . S
C1178 C1179 1.355 . S
C1178 C1180 1.415 . S
C1179 C1178 1.355 . S
C1179 C1181 1.419 . S
C1180 C1178 1.415 . S
C1180 C1185 1.425 . S
C1180 C1187 1.409 . S
C1181 H1173 0.930 . S
C1181 C1179 1.419 . S
C1181 C1182 1.362 . S
C1182 H1174 0.930 . S
C1182 C1181 1.362 . S
C1182 C1185 1.409 . S
C1183 H1175 0.930 . S
C1183 C1184 1.355 . S
C1183 C1185 1.415 . S
C1184 C1183 1.355 . S
C1184 C1186 1.419 . S
C1185 C1180 1.425 . S
C1185 C1182 1.409 . S
C1185 C1183 1.415 . S
C1186 H1176 0.930 . S
C1186 C1184 1.419 . S
C1186 C1187 1.362 . S
C1187 H1177 0.930 . S
C1187 C1180 1.409 . S
C1187 C1186 1.362 . S
H1188 C1194 0.930 . S
H1189 C1197 0.930 . S
H1190 C1198 0.930 . S
H1191 C1199 0.930 . S
H1192 C1202 0.930 . S
H1193 C1203 0.930 . S
C1194 H1188 0.930 . S
C1194 C1195 1.355 . S
C1194 C1196 1.415 . S
C1195 C1194 1.355 . S
C1195 C1197 1.419 . S
C1196 C1194 1.415 . S
C1196 C1201 1.425 . S
C1196 C1203 1.409 . S
C1197 H1189 0.930 . S
C1197 C1195 1.419 . S
C1197 C1198 1.362 . S
C1198 H1190 0.930 . S
C1198 C1197 1.362 . S
C1198 C1201 1.409 . S
C1199 H1191 0.930 . S
C1199 C1200 1.355 . S
C1199 C1201 1.415 . S
C1200 C1199 1.355 . S
C1200 C1202 1.419 . S
C1201 C1196 1.425 . S
C1201 C1198 1.409 . S
C1201 C1199 1.415 . S
C1202 H1192 0.930 . S
C1202 C1200 1.419 . S
C1202 C1203 1.362 . S
C1203 H1193 0.930 . S
C1203 C1196 1.409 . S
C1203 C1202 1.362 . S
H1204 C1210 0.930 . S
H1205 C1213 0.930 . S
H1206 C1214 0.930 . S
H1207 C1215 0.930 . S
H1208 C1218 0.930 . S
H1209 C1219 0.930 . S
C1210 H1204 0.930 . S
C1210 C1211 1.355 . S
C1210 C1212 1.415 . S
C1211 C1210 1.355 . S
C1211 C1213 1.419 . S
C1212 C1210 1.415 . S
C1212 C1217 1.425 . S
C1212 C1219 1.409 . S
C1213 H1205 0.930 . S
C1213 C1211 1.419 . S
C1213 C1214 1.362 . S
C1214 H1206 0.930 . S
C1214 C1213 1.362 . S
C1214 C1217 1.409 . S
C1215 H1207 0.930 . S
C1215 C1216 1.355 . S
C1215 C1217 1.415 . S
C1216 C1215 1.355 . S
C1216 C1218 1.419 . S
C1217 C1212 1.425 . S
C1217 C1214 1.409 . S
C1217 C1215 1.415 . S
C1218 H1208 0.930 . S
C1218 C1216 1.419 . S
C1218 C1219 1.362 . S
C1219 H1209 0.930 . S
C1219 C1212 1.409 . S
C1219 C1218 1.362 . S
H1220 C1226 0.930 . S
H1221 C1229 0.930 . S
H1222 C1230 0.930 . S
H1223 C1231 0.930 . S
H1224 C1234 0.930 . S
H1225 C1235 0.930 . S
C1226 H1220 0.930 . S
C1226 C1227 1.355 . S
C1226 C1228 1.415 . S
C1227 C1226 1.355 . S
C1227 C1229 1.419 . S
C1228 C1226 1.415 . S
C1228 C1233 1.425 . S
C1228 C1235 1.409 . S
C1229 H1221 0.930 . S
C1229 C1227 1.419 . S
C1229 C1230 1.362 . S
C1230 H1222 0.930 . S
C1230 C1229 1.362 . S
C1230 C1233 1.409 . S
C1231 H1223 0.930 . S
C1231 C1232 1.355 . S
C1231 C1233 1.415 . S
C1232 C1231 1.355 . S
C1232 C1234 1.419 . S
C1233 C1228 1.425 . S
C1233 C1230 1.409 . S
C1233 C1231 1.415 . S
C1234 H1224 0.930 . S
C1234 C1232 1.419 . S
C1234 C1235 1.362 . S
C1235 H1225 0.930 . S
C1235 C1228 1.409 . S
C1235 C1234 1.362 . S
H1236 C1242 0.930 . S
H1237 C1245 0.930 . S
H1238 C1246 0.930 . S
H1239 C1247 0.930 . S
H1240 C1250 0.930 . S
H1241 C1251 0.930 . S
C1242 H1236 0.930 . S
C1242 C1243 1.355 . S
C1242 C1244 1.415 . S
C1243 C1242 1.355 . S
C1243 C1245 1.419 . S
C1244 C1242 1.415 . S
C1244 C1249 1.425 . S
C1244 C1251 1.409 . S
C1245 H1237 0.930 . S
C1245 C1243 1.419 . S
C1245 C1246 1.362 . S
C1246 H1238 0.930 . S
C1246 C1245 1.362 . S
C1246 C1249 1.409 . S
C1247 H1239 0.930 . S
C1247 C1248 1.355 . S
C1247 C1249 1.415 . S
C1248 C1247 1.355 . S
C1248 C1250 1.419 . S
C1249 C1244 1.425 . S
C1249 C1246 1.409 . S
C1249 C1247 1.415 . S
C1250 H1240 0.930 . S
C1250 C1248 1.419 . S
C1250 C1251 1.362 . S
C1251 H1241 0.930 . S
C1251 C1244 1.409 . S
C1251 C1250 1.362 . S
H1252 C1258 0.930 . S
H1253 C1261 0.930 . S
H1254 C1262 0.930 . S
H1255 C1263 0.930 . S
H1256 C1266 0.930 . S
H1257 C1267 0.930 . S
C1258 H1252 0.930 . S
C1258 C1259 1.355 . S
C1258 C1260 1.415 . S
C1259 C1258 1.355 . S
C1259 C1261 1.419 . S
C1260 C1258 1.415 . S
C1260 C1265 1.425 . S
C1260 C1267 1.409 . S
C1261 H1253 0.930 . S
C1261 C1259 1.419 . S
C1261 C1262 1.362 . S
C1262 H1254 0.930 . S
C1262 C1261 1.362 . S
C1262 C1265 1.409 . S
C1263 H1255 0.930 . S
C1263 C1264 1.355 . S
C1263 C1265 1.415 . S
C1264 C1263 1.355 . S
C1264 C1266 1.419 . S
C1265 C1260 1.425 . S
C1265 C1262 1.409 . S
C1265 C1263 1.415 . S
C1266 H1256 0.930 . S
C1266 C1264 1.419 . S
C1266 C1267 1.362 . S
C1267 H1257 0.930 . S
C1267 C1260 1.409 . S
C1267 C1266 1.362 . S
H1268 C1274 0.930 . S
H1269 C1277 0.930 . S
H1270 C1278 0.930 . S
H1271 C1279 0.930 . S
H1272 C1282 0.930 . S
H1273 C1283 0.930 . S
C1274 H1268 0.930 . S
C1274 C1275 1.355 . S
C1274 C1276 1.415 . S
C1275 C1274 1.355 . S
C1275 C1277 1.419 . S
C1276 C1274 1.415 . S
C1276 C1281 1.425 . S
C1276 C1283 1.409 . S
C1277 H1269 0.930 . S
C1277 C1275 1.419 . S
C1277 C1278 1.362 . S
C1278 H1270 0.930 . S
C1278 C1277 1.362 . S
C1278 C1281 1.409 . S
C1279 H1271 0.930 . S
C1279 C1280 1.355 . S
C1279 C1281 1.415 . S
C1280 C1279 1.355 . S
C1280 C1282 1.419 . S
C1281 C1276 1.425 . S
C1281 C1278 1.409 . S
C1281 C1279 1.415 . S
C1282 H1272 0.930 . S
C1282 C1280 1.419 . S
C1282 C1283 1.362 . S
C1283 H1273 0.930 . S
C1283 C1276 1.409 . S
C1283 C1282 1.362 . S
H1284 C1290 0.930 . S
H1285 C1293 0.930 . S
H1286 C1294 0.930 . S
H1287 C1295 0.930 . S
H1288 C1298 0.930 . S
H1289 C1299 0.930 . S
C1290 H1284 0.930 . S
C1290 C1291 1.355 . S
C1290 C1292 1.415 . S
C1291 C1290 1.355 . S
C1291 C1293 1.419 . S
C1292 C1290 1.415 . S
C1292 C1297 1.425 . S
C1292 C1299 1.409 . S
C1293 H1285 0.930 . S
C1293 C1291 1.419 . S
C1293 C1294 1.362 . S
C1294 H1286 0.930 . S
C1294 C1293 1.362 . S
C1294 C1297 1.409 . S
C1295 H1287 0.930 . S
C1295 C1296 1.355 . S
C1295 C1297 1.415 . S
C1296 C1295 1.355 . S
C1296 C1298 1.419 . S
C1297 C1292 1.425 . S
C1297 C1294 1.409 . S
C1297 C1295 1.415 . S
C1298 H1288 0.930 . S
C1298 C1296 1.419 . S
C1298 C1299 1.362 . S
C1299 H1289 0.930 . S
C1299 C1292 1.409 . S
C1299 C1298 1.362 . S
H1300 C1306 0.930 . S
H1301 C1309 0.930 . S
H1302 C1310 0.930 . S
H1303 C1311 0.930 . S
H1304 C1314 0.930 . S
H1305 C1315 0.930 . S
C1306 H1300 0.930 . S
C1306 C1307 1.355 . S
C1306 C1308 1.415 . S
C1307 C1306 1.355 . S
C1307 C1309 1.419 . S
C1308 C1306 1.415 . S
C1308 C1313 1.425 . S
C1308 C1315 1.409 . S
C1309 H1301 0.930 . S
C1309 C1307 1.419 . S
C1309 C1310 1.362 . S
C1310 H1302 0.930 . S
C1310 C1309 1.362 . S
C1310 C1313 1.409 . S
C1311 H1303 0.930 . S
C1311 C1312 1.355 . S
C1311 C1313 1.415 . S
C1312 C1311 1.355 . S
C1312 C1314 1.419 . S
C1313 C1308 1.425 . S
C1313 C1310 1.409 . S
C1313 C1311 1.415 . S
C1314 H1304 0.930 . S
C1314 C1312 1.419 . S
C1314 C1315 1.362 . S
C1315 H1305 0.930 . S
C1315 C1308 1.409 . S
C1315 C1314 1.362 . S
H1316 C1322 0.930 . S
H1317 C1325 0.930 . S
H1318 C1326 0.930 . S
H1319 C1327 0.930 . S
H1320 C1330 0.930 . S
H1321 C1331 0.930 . S
C1322 H1316 0.930 . S
C1322 C1323 1.355 . S
C1322 C1324 1.415 . S
C1323 C1322 1.355 . S
C1323 C1325 1.419 . S
C1324 C1322 1.415 . S
C1324 C1329 1.425 . S
C1324 C1331 1.409 . S
C1325 H1317 0.930 . S
C1325 C1323 1.419 . S
C1325 C1326 1.362 . S
C1326 H1318 0.930 . S
C1326 C1325 1.362 . S
C1326 C1329 1.409 . S
C1327 H1319 0.930 . S
C1327 C1328 1.355 . S
C1327 C1329 1.415 . S
C1328 C1327 1.355 . S
C1328 C1330 1.419 . S
C1329 C1324 1.425 . S
C1329 C1326 1.409 . S
C1329 C1327 1.415 . S
C1330 H1320 0.930 . S
C1330 C1328 1.419 . S
C1330 C1331 1.362 . S
C1331 H1321 0.930 . S
C1331 C1324 1.409 . S
C1331 C1330 1.362 . S
C619 C9 1.040 . S
C624 C5 1.129 . S
C635 C43 1.146 . S
C640 C39 1.143 . S
C651 C73 1.191 . S
C656 C77 1.131 . S
C667 C111 1.117 . S
C672 C107 1.117 . S
C683 C145 1.132 . S
C688 C141 1.191 . S
C699 C175 1.124 . S
C704 C179 1.036 . S
C715 C209 1.155 . S
C720 C213 1.066 . S
C731 C243 1.191 . S
C736 C247 1.162 . S
C747 C281 1.153 . S
C752 C277 1.194 . S
C763 C315 1.040 . S
C768 C311 1.129 . S
C779 C349 1.167 . S
C784 C345 1.184 . S
C795 C379 1.168 . S
C800 C383 1.163 . S
C811 C413 1.123 . S
C816 C417 1.124 . S
C827 C447 1.194 . S
C832 C451 1.155 . S
C843 C481 1.155 . S
C848 C485 1.156 . S
C859 C519 1.072 . S
C864 C515 1.092 . S
C875 C553 1.099 . S
C880 C549 1.177 . S
C891 C583 1.146 . S
C896 C587 1.057 . S
C907 C598 1.819 . S
C912 C20 1.815 . S
C923 C54 1.780 . S
C928 C530 1.800 . S
C939 C564 1.781 . S
C944 C88 1.784 . S
C955 C258 1.819 . S
C960 C122 1.816 . S
C971 C156 1.787 . S
C976 C292 1.780 . S
C987 C190 1.816 . S
C992 C224 1.819 . S
C1003 C326 1.779 . S
C1008 C462 1.793 . S
C1019 C496 1.808 . S
C1024 C360 1.821 . S
C1035 C394 1.811 . S
C1040 C428 1.786 . S
C1051 C33 1.286 . S
C1056 C135 1.290 . S
C1067 C67 1.301 . S
C1072 C169 1.294 . S
C1083 C203 1.321 . S
C1088 C101 1.325 . S
C1099 C172 1.716 . S
C1104 C36 1.742 . S
C1115 C104 1.717 . S
C1120 C70 1.743 . S
C1131 C138 1.696 . S
C1136 C2 1.693 . S
C1147 C339 1.295 . S
C1152 C237 1.301 . S
C1163 C373 1.284 . S
C1168 C271 1.286 . S
C1179 C305 1.293 . S
C1184 C407 1.299 . S
C1195 C376 1.736 . S
C1200 C240 1.707 . S
C1211 C274 1.702 . S
C1216 C308 1.690 . S
C1227 C206 1.715 . S
C1232 C342 1.741 . S
C1243 C543 1.322 . S
C1248 C441 1.316 . S
C1259 C577 1.328 . S
C1264 C475 1.329 . S
C1275 C611 1.291 . S
C1280 C509 1.287 . S
C1291 C444 1.719 . S
C1296 C580 1.743 . S
C1307 C478 1.711 . S
C1312 C512 1.690 . S
C1323 C546 1.702 . S
C1328 C410 1.732 . S
