# Generated by pormake.
# Topology uoy, (4)-cn, num edge types: 1
# Building blocks:
#     Node 0, Type 0, BuildingBlock: NAHDIM_clean_sbu_0, # of connection points: 4
#     Node 1, Type 0, BuildingBlock: NAHDIM_clean_sbu_0, # of connection points: 4
#     Node 2, Type 0, BuildingBlock: NAHDIM_clean_sbu_0, # of connection points: 4
#     Node 3, Type 0, BuildingBlock: NAHDIM_clean_sbu_0, # of connection points: 4
#     Node 4, Type 0, BuildingBlock: NAHDIM_clean_sbu_0, # of connection points: 4
#     Node 5, Type 0, BuildingBlock: NAHDIM_clean_sbu_0, # of connection points: 4
#     Node 6, Type 0, BuildingBlock: NAHDIM_clean_sbu_0, # of connection points: 4
#     Node 7, Type 0, BuildingBlock: NAHDIM_clean_sbu_0, # of connection points: 4
#     Node 8, Type 0, BuildingBlock: NAHDIM_clean_sbu_0, # of connection points: 4
#     Node 9, Type 0, BuildingBlock: NAHDIM_clean_sbu_0, # of connection points: 4
#     Node 10, Type 0, BuildingBlock: NAHDIM_clean_sbu_0, # of connection points: 4
#     Node 11, Type 0, BuildingBlock: NAHDIM_clean_sbu_0, # of connection points: 4
#     Node 12, Type 0, BuildingBlock: NAHDIM_clean_sbu_0, # of connection points: 4
#     Node 13, Type 0, BuildingBlock: NAHDIM_clean_sbu_0, # of connection points: 4
#     Node 14, Type 0, BuildingBlock: NAHDIM_clean_sbu_0, # of connection points: 4
#     Node 15, Type 0, BuildingBlock: NAHDIM_clean_sbu_0, # of connection points: 4
#     Edge 16, Type (0, 0), BuildingBlock: CIFDUS_clean_linker_0, # of connection points: 2
#     Edge 17, Type (0, 0), BuildingBlock: CIFDUS_clean_linker_0, # of connection points: 2
#     Edge 18, Type (0, 0), BuildingBlock: CIFDUS_clean_linker_0, # of connection points: 2
#     Edge 19, Type (0, 0), BuildingBlock: CIFDUS_clean_linker_0, # of connection points: 2
#     Edge 20, Type (0, 0), BuildingBlock: CIFDUS_clean_linker_0, # of connection points: 2
#     Edge 21, Type (0, 0), BuildingBlock: CIFDUS_clean_linker_0, # of connection points: 2
#     Edge 22, Type (0, 0), BuildingBlock: CIFDUS_clean_linker_0, # of connection points: 2
#     Edge 23, Type (0, 0), BuildingBlock: CIFDUS_clean_linker_0, # of connection points: 2
#     Edge 24, Type (0, 0), BuildingBlock: CIFDUS_clean_linker_0, # of connection points: 2
#     Edge 25, Type (0, 0), BuildingBlock: CIFDUS_clean_linker_0, # of connection points: 2
#     Edge 26, Type (0, 0), BuildingBlock: CIFDUS_clean_linker_0, # of connection points: 2
#     Edge 27, Type (0, 0), BuildingBlock: CIFDUS_clean_linker_0, # of connection points: 2
#     Edge 28, Type (0, 0), BuildingBlock: CIFDUS_clean_linker_0, # of connection points: 2
#     Edge 29, Type (0, 0), BuildingBlock: CIFDUS_clean_linker_0, # of connection points: 2
#     Edge 30, Type (0, 0), BuildingBlock: CIFDUS_clean_linker_0, # of connection points: 2
#     Edge 31, Type (0, 0), BuildingBlock: CIFDUS_clean_linker_0, # of connection points: 2
#     Edge 32, Type (0, 0), BuildingBlock: CIFDUS_clean_linker_0, # of connection points: 2
#     Edge 33, Type (0, 0), BuildingBlock: CIFDUS_clean_linker_0, # of connection points: 2
#     Edge 34, Type (0, 0), BuildingBlock: CIFDUS_clean_linker_0, # of connection points: 2
#     Edge 35, Type (0, 0), BuildingBlock: CIFDUS_clean_linker_0, # of connection points: 2
#     Edge 36, Type (0, 0), BuildingBlock: CIFDUS_clean_linker_0, # of connection points: 2
#     Edge 37, Type (0, 0), BuildingBlock: CIFDUS_clean_linker_0, # of connection points: 2
#     Edge 38, Type (0, 0), BuildingBlock: CIFDUS_clean_linker_0, # of connection points: 2
#     Edge 39, Type (0, 0), BuildingBlock: CIFDUS_clean_linker_0, # of connection points: 2
#     Edge 40, Type (0, 0), BuildingBlock: CIFDUS_clean_linker_0, # of connection points: 2
#     Edge 41, Type (0, 0), BuildingBlock: CIFDUS_clean_linker_0, # of connection points: 2
#     Edge 42, Type (0, 0), BuildingBlock: CIFDUS_clean_linker_0, # of connection points: 2
#     Edge 43, Type (0, 0), BuildingBlock: CIFDUS_clean_linker_0, # of connection points: 2
#     Edge 44, Type (0, 0), BuildingBlock: CIFDUS_clean_linker_0, # of connection points: 2
#     Edge 45, Type (0, 0), BuildingBlock: CIFDUS_clean_linker_0, # of connection points: 2
#     Edge 46, Type (0, 0), BuildingBlock: CIFDUS_clean_linker_0, # of connection points: 2
#     Edge 47, Type (0, 0), BuildingBlock: CIFDUS_clean_linker_0, # of connection points: 2
# Relax obj value: 0.106
# Max RMSD: 0.147
# Mean RMSD: 0.147
data_MOF--net-uoy--node1-NAHDIM_clean_sbu_0--edge1-CIFDUS_clean_linker_0
_symmetry_space_group_name_H-M    P1
_symmetry_Int_Tables_number       1
_symmetry_cell_setting            triclinic
loop_
_symmetry_equiv_pos_as_xyz
'x, y, z'
_cell_length_a     25.067771
_cell_length_b     24.946088
_cell_length_c     89.64979
_cell_angle_alpha  89.721092
_cell_angle_beta   90.146671
_cell_angle_gamma 90.034698
loop_
_atom_site_label
_atom_site_type_symbol
_atom_site_fract_x
_atom_site_fract_y
_atom_site_fract_z
_atom_type_partial_charge
C0 C 0.17723 0.06652 0.17152 0.0
O1 O 0.18358 0.11832 0.16967 0.0
O2 O 0.29567 0.11163 0.19582 0.0
Zn3 Zn 0.28929 0.07863 0.1754 0.0
O4 O 0.29336 0.13305 0.15872 0.0
C5 C 0.39849 0.06503 0.17419 0.0
O6 O 0.39112 0.11674 0.17601 0.0
O7 O 0.21842 0.03763 0.17387 0.0
C8 C 0.27949 0.182 0.15873 0.0
O9 O 0.25915 0.20332 0.17081 0.0
C10 C 0.26386 0.13957 0.2036 0.0
O11 O 0.21715 0.15344 0.19818 0.0
O12 O 0.35749 0.03479 0.17334 0.0
C13 C 0.89967 0.61042 0.42711 0.0
O14 O 0.84862 0.607 0.43027 0.0
O15 O 0.82815 0.7194 0.44317 0.0
Zn16 Zn 0.86931 0.71898 0.42404 0.0
O17 O 0.82137 0.71406 0.40617 0.0
C18 C 0.87927 0.83133 0.42275 0.0
O19 O 0.82716 0.82571 0.42276 0.0
O20 O 0.91939 0.65611 0.42403 0.0
C21 C 0.84115 0.72842 0.39374 0.0
O22 O 0.891 0.74462 0.3933 0.0
C23 C 0.77859 0.72902 0.44438 0.0
O24 O 0.7497 0.73611 0.43229 0.0
O25 O 0.90835 0.78955 0.42309 0.0
C26 C 0.31889 0.44629 0.67338 0.0
O27 O 0.32519 0.39756 0.66821 0.0
O28 O 0.19514 0.37148 0.69235 0.0
Zn29 Zn 0.20787 0.41593 0.6739 0.0
O30 O 0.21468 0.37029 0.65559 0.0
C31 C 0.09822 0.44361 0.67284 0.0
O32 O 0.09362 0.39207 0.67565 0.0
O33 O 0.27235 0.4626 0.67656 0.0
C34 C 0.23351 0.32302 0.65576 0.0
O35 O 0.2496 0.30199 0.66845 0.0
C36 C 0.23082 0.35346 0.70113 0.0
O37 O 0.28135 0.36189 0.69808 0.0
O38 O 0.14445 0.4637 0.67133 0.0
C39 C 0.5361 0.84089 0.91673 0.0
O40 O 0.5884 0.84381 0.91625 0.0
O41 O 0.6089 0.74417 0.93658 0.0
Zn42 Zn 0.5659 0.73335 0.9179 0.0
O43 O 0.61286 0.73572 0.89977 0.0
C44 C 0.55329 0.62374 0.92662 0.0
O45 O 0.59985 0.63391 0.93273 0.0
O46 O 0.51421 0.79489 0.91701 0.0
C47 C 0.65353 0.70573 0.89855 0.0
O48 O 0.66491 0.67156 0.90928 0.0
C49 C 0.65684 0.75998 0.93802 0.0
O50 O 0.68526 0.77199 0.92618 0.0
O51 O 0.52928 0.66097 0.91951 0.0
C52 C 0.09511 0.45206 0.05645 0.0
O53 O 0.09244 0.40213 0.05191 0.0
O54 O 0.1994 0.38019 0.04167 0.0
Zn55 Zn 0.20286 0.4222 0.0608 0.0
O56 O 0.20179 0.3767 0.07938 0.0
C57 C 0.31113 0.45333 0.05439 0.0
O58 O 0.31196 0.40697 0.04752 0.0
O59 O 0.13935 0.47031 0.06111 0.0
C60 C 0.24361 0.35409 0.08437 0.0
O61 O 0.2882 0.3577 0.07678 0.0
C62 C 0.2167 0.33324 0.03917 0.0
O63 O 0.23937 0.30581 0.05 0.0
O64 O 0.26863 0.46832 0.06083 0.0
C65 C 0.58768 0.62095 0.2972 0.0
O66 O 0.63917 0.62537 0.29483 0.0
O67 O 0.63254 0.74164 0.27732 0.0
Zn68 Zn 0.60016 0.73333 0.29775 0.0
O69 O 0.65512 0.73212 0.31414 0.0
C70 C 0.57024 0.843 0.29845 0.0
O71 O 0.61849 0.84706 0.29289 0.0
O72 O 0.56015 0.66335 0.29876 0.0
C73 C 0.6974 0.76016 0.31477 0.0
O74 O 0.70925 0.79277 0.30372 0.0
C75 C 0.67916 0.72806 0.27327 0.0
O76 O 0.71179 0.70552 0.28291 0.0
O77 O 0.55167 0.79663 0.30135 0.0
C78 C 0.36311 0.06921 0.555 0.0
O79 O 0.36818 0.11966 0.55096 0.0
O80 O 0.24547 0.13223 0.53706 0.0
Zn81 Zn 0.25194 0.09698 0.55725 0.0
O82 O 0.25352 0.14934 0.57424 0.0
C83 C 0.14247 0.06552 0.55638 0.0
O84 O 0.13725 0.11428 0.55098 0.0
O85 O 0.31716 0.05105 0.55812 0.0
C86 C 0.22479 0.19121 0.57488 0.0
O87 O 0.19342 0.20348 0.56362 0.0
C88 C 0.26008 0.17899 0.53311 0.0
O89 O 0.28369 0.21049 0.5428 0.0
O90 O 0.18861 0.04873 0.55995 0.0
C91 C 0.9257 0.86276 0.80944 0.0
O92 O 0.87352 0.8577 0.8091 0.0
O93 O 0.87074 0.75176 0.78902 0.0
Zn94 Zn 0.9148 0.75088 0.80776 0.0
O95 O 0.86709 0.74337 0.82554 0.0
C96 C 0.94317 0.64096 0.80796 0.0
O97 O 0.89118 0.63722 0.80946 0.0
O98 O 0.95431 0.82073 0.80909 0.0
C99 C 0.88415 0.72323 0.83769 0.0
O100 O 0.93429 0.70833 0.83869 0.0
C101 C 0.82366 0.73296 0.78841 0.0
O102 O 0.80196 0.71268 0.80051 0.0
O103 O 0.96427 0.68723 0.80695 0.0
C104 C 0.59766 0.59703 0.68239 0.0
O105 O 0.59196 0.64884 0.68441 0.0
O106 O 0.71367 0.66163 0.70208 0.0
Zn107 Zn 0.70929 0.62334 0.68251 0.0
O108 O 0.70961 0.67403 0.6651 0.0
C109 C 0.81788 0.59355 0.67698 0.0
O110 O 0.82221 0.64472 0.67366 0.0
O111 O 0.64423 0.57744 0.6815 0.0
C112 C 0.71194 0.65244 0.65232 0.0
O113 O 0.71251 0.59987 0.65144 0.0
C114 C 0.74138 0.70397 0.70346 0.0
O115 O 0.76389 0.7251 0.6916 0.0
O116 O 0.77295 0.57512 0.68105 0.0
C117 C 0.40805 0.12992 0.92944 0.0
O118 O 0.35577 0.12717 0.93019 0.0
O119 O 0.34708 0.22921 0.95445 0.0
Zn120 Zn 0.38031 0.23696 0.93417 0.0
O121 O 0.32687 0.23427 0.91746 0.0
C122 C 0.3883 0.34957 0.93005 0.0
O123 O 0.3368 0.34262 0.92815 0.0
O124 O 0.43053 0.17525 0.93107 0.0
C125 C 0.34707 0.24372 0.90472 0.0
O126 O 0.39849 0.25349 0.90382 0.0
C127 C 0.30117 0.24693 0.95777 0.0
O128 O 0.27185 0.26966 0.94735 0.0
O129 O 0.41734 0.30901 0.93302 0.0
C130 C 0.89973 0.90662 0.16878 0.0
O131 O 0.89226 0.85575 0.16564 0.0
O132 O 0.78202 0.84696 0.18955 0.0
Zn133 Zn 0.78807 0.89554 0.1716 0.0
O134 O 0.78391 0.85355 0.15263 0.0
C135 C 0.6788 0.91006 0.17155 0.0
O136 O 0.68599 0.85791 0.17125 0.0
O137 O 0.85918 0.9354 0.17184 0.0
C138 C 0.77989 0.80291 0.15181 0.0
O139 O 0.78079 0.774 0.16409 0.0
C140 C 0.81714 0.83591 0.19934 0.0
O141 O 0.86558 0.85532 0.19797 0.0
O142 O 0.71992 0.94029 0.17182 0.0
C143 C 0.03719 0.32171 0.42635 0.0
O144 O 0.08567 0.32444 0.42087 0.0
O145 O 0.11571 0.20018 0.44412 0.0
Zn146 Zn 0.0651 0.21134 0.42688 0.0
O147 O 0.10311 0.21959 0.40732 0.0
C148 C 0.05087 0.10134 0.42404 0.0
O149 O 0.10299 0.10659 0.42343 0.0
O150 O 0.0185 0.27616 0.43007 0.0
C151 C 0.1534 0.22051 0.4057 0.0
O152 O 0.18433 0.21671 0.41751 0.0
C153 C 0.13558 0.2349 0.45285 0.0
O154 O 0.12521 0.28593 0.45067 0.0
O155 O 0.02243 0.14321 0.4255 0.0
C156 C 0.64219 0.91572 0.5569 0.0
O157 O 0.63751 0.867 0.56238 0.0
O158 O 0.76241 0.84109 0.53621 0.0
Zn159 Zn 0.75244 0.8856 0.55462 0.0
O160 O 0.74644 0.83892 0.5729 0.0
C161 C 0.86219 0.91432 0.55864 0.0
O162 O 0.86777 0.86221 0.5602 0.0
O163 O 0.6877 0.93215 0.55271 0.0
C164 C 0.74688 0.78807 0.57216 0.0
O165 O 0.75203 0.765 0.5591 0.0
C166 C 0.72626 0.83113 0.52666 0.0
O167 O 0.67801 0.85029 0.52861 0.0
O168 O 0.81596 0.93359 0.55644 0.0
C169 C 0.10047 0.13068 0.80953 0.0
O170 O 0.1526 0.13571 0.81016 0.0
O171 O 0.14492 0.25147 0.78763 0.0
Zn172 Zn 0.11066 0.24328 0.80777 0.0
O173 O 0.16313 0.24473 0.82476 0.0
C174 C 0.0797 0.35179 0.80718 0.0
O175 O 0.12976 0.35529 0.803 0.0
O176 O 0.07196 0.17268 0.80847 0.0
C177 C 0.20712 0.27 0.82506 0.0
O178 O 0.22225 0.29776 0.81333 0.0
C179 C 0.19021 0.23586 0.78303 0.0
O180 O 0.22246 0.20995 0.7921 0.0
O181 O 0.06034 0.30576 0.8101 0.0
C182 C 0.81428 0.59937 0.04959 0.0
O183 O 0.81603 0.64769 0.05533 0.0
O184 O 0.69109 0.67406 0.03086 0.0
Zn185 Zn 0.70389 0.62452 0.04814 0.0
O186 O 0.7108 0.66409 0.06742 0.0
C187 C 0.59596 0.59544 0.05236 0.0
O188 O 0.59261 0.64694 0.05522 0.0
O189 O 0.76982 0.58073 0.0452 0.0
C190 C 0.71744 0.71444 0.06823 0.0
O191 O 0.71781 0.7433 0.05594 0.0
C192 C 0.72597 0.68947 0.02152 0.0
O193 O 0.77584 0.67456 0.02328 0.0
O194 O 0.6411 0.57547 0.04923 0.0
C195 C 0.41905 0.35309 0.31037 0.0
O196 O 0.37089 0.34777 0.31593 0.0
O197 O 0.3621 0.22607 0.29085 0.0
Zn198 Zn 0.40872 0.23949 0.30872 0.0
O199 O 0.36986 0.23671 0.3283 0.0
C200 C 0.44076 0.13241 0.30972 0.0
O201 O 0.38889 0.12861 0.31155 0.0
O202 O 0.44454 0.31135 0.3065 0.0
C203 C 0.31968 0.23323 0.32992 0.0
O204 O 0.28882 0.23114 0.31808 0.0
C205 C 0.32707 0.25525 0.28453 0.0
O206 O 0.31423 0.30169 0.29034 0.0
O207 O 0.46157 0.17878 0.30858 0.0
H208 H 0.31571 0.28262 0.09506 0.0
H209 H 0.16973 0.36414 0.10649 0.0
H210 H 0.17001 0.32093 0.131 0.0
H211 H 0.21112 0.25879 0.14908 0.0
H212 H 0.35345 0.17265 0.13689 0.0
H213 H 0.35565 0.21927 0.11285 0.0
C214 C 0.28399 0.29095 0.10292 0.0
C215 C 0.24284 0.32652 0.09898 0.0
C216 C 0.28395 0.26537 0.11689 0.0
C217 C 0.20174 0.33662 0.10923 0.0
C218 C 0.20198 0.31214 0.12327 0.0
C219 C 0.24287 0.25079 0.1412 0.0
C220 C 0.28231 0.21285 0.14473 0.0
C221 C 0.24287 0.27644 0.12722 0.0
C222 C 0.32272 0.20187 0.13436 0.0
C223 C 0.32394 0.22839 0.12063 0.0
H224 H 0.86633 0.77193 0.36687 0.0
H225 H 0.74217 0.6848 0.38987 0.0
H226 H 0.68755 0.68561 0.36728 0.0
H227 H 0.67453 0.71226 0.34121 0.0
H228 H 0.79734 0.80195 0.3184 0.0
H229 H 0.85318 0.79879 0.34077 0.0
C230 C 0.82741 0.75292 0.36694 0.0
C231 C 0.80838 0.72826 0.38003 0.0
C232 C 0.79601 0.75404 0.35397 0.0
C233 C 0.75771 0.70414 0.37995 0.0
C234 C 0.72648 0.70454 0.36704 0.0
C235 C 0.71362 0.73092 0.34109 0.0
C236 C 0.73179 0.75723 0.32815 0.0
C237 C 0.74517 0.72953 0.35401 0.0
C238 C 0.78237 0.78153 0.32823 0.0
C239 C 0.81433 0.77972 0.341 0.0
H240 H 0.26852 0.16594 0.60175 0.0
H241 H 0.17928 0.28951 0.57886 0.0
H242 H 0.17503 0.34161 0.60182 0.0
H243 H 0.19482 0.35103 0.62848 0.0
H244 H 0.28185 0.22621 0.65152 0.0
H245 H 0.28866 0.17555 0.62837 0.0
C246 C 0.24841 0.20443 0.60175 0.0
C247 C 0.22429 0.22383 0.5886 0.0
C248 C 0.24548 0.2338 0.61502 0.0
C249 C 0.1981 0.2736 0.58883 0.0
C250 C 0.19562 0.30341 0.60195 0.0
C251 C 0.2154 0.3128 0.62845 0.0
C252 C 0.23776 0.29244 0.64172 0.0
C253 C 0.21884 0.28371 0.61513 0.0
C254 C 0.26413 0.24275 0.64148 0.0
C255 C 0.26813 0.21378 0.62824 0.0
H256 H 0.78219 0.75851 0.84003 0.0
H257 H 0.90351 0.66924 0.86372 0.0
H258 H 0.84209 0.6544 0.88443 0.0
H259 H 0.75428 0.66741 0.89587 0.0
H260 H 0.63398 0.75889 0.87245 0.0
H261 H 0.69474 0.77197 0.85151 0.0
C262 C 0.79525 0.73578 0.84972 0.0
C263 C 0.84735 0.71504 0.85033 0.0
C264 C 0.75991 0.72767 0.86161 0.0
C265 C 0.86367 0.68583 0.86298 0.0
C266 C 0.82854 0.6772 0.87482 0.0
C267 C 0.74124 0.68993 0.88615 0.0
C268 C 0.68968 0.71201 0.88569 0.0
C269 C 0.7766 0.69795 0.87424 0.0
C270 C 0.67353 0.74154 0.87308 0.0
C271 C 0.70823 0.74906 0.8611 0.0
H272 H 0.73273 0.82325 0.60055 0.0
H273 H 0.74735 0.67895 0.57445 0.0
H274 H 0.73694 0.6245 0.59692 0.0
H275 H 0.72417 0.61775 0.62392 0.0
H276 H 0.71006 0.76181 0.65012 0.0
H277 H 0.71963 0.81645 0.6276 0.0
C278 C 0.73368 0.77989 0.59976 0.0
C279 C 0.74085 0.75525 0.58582 0.0
C280 C 0.72765 0.74877 0.61273 0.0
C281 C 0.7419 0.699 0.58502 0.0
C282 C 0.73592 0.66779 0.59787 0.0
C283 C 0.72302 0.6611 0.62472 0.0
C284 C 0.71637 0.68563 0.63868 0.0
C285 C 0.72879 0.69224 0.61177 0.0
C286 C 0.71511 0.74188 0.63951 0.0
C287 C 0.72063 0.77317 0.62665 0.0
H288 H 0.37529 0.28008 0.87736 0.0
H289 H 0.24384 0.21009 0.90164 0.0
H290 H 0.18922 0.21143 0.87901 0.0
H291 H 0.17902 0.23247 0.8524 0.0
H292 H 0.30977 0.30482 0.82833 0.0
H293 H 0.3646 0.30251 0.85089 0.0
C294 C 0.33472 0.26499 0.87771 0.0
C295 C 0.31369 0.24481 0.89114 0.0
C296 C 0.3035 0.26632 0.86472 0.0
C297 C 0.26093 0.22586 0.89143 0.0
C298 C 0.22973 0.22655 0.8785 0.0
C299 C 0.21957 0.24762 0.85207 0.0
C300 C 0.24036 0.26862 0.83869 0.0
C301 C 0.25065 0.24665 0.86509 0.0
C302 C 0.29279 0.28849 0.83849 0.0
C303 C 0.32419 0.28714 0.85137 0.0
H304 H 0.73062 0.664 0.09488 0.0
H305 H 0.72931 0.82097 0.07434 0.0
H306 H 0.74988 0.86185 0.09837 0.0
H307 H 0.76802 0.85301 0.12509 0.0
H308 H 0.76932 0.69613 0.14568 0.0
H309 H 0.74929 0.65513 0.12161 0.0
C310 C 0.73463 0.7072 0.09565 0.0
C311 C 0.7283 0.73941 0.08283 0.0
C312 C 0.74673 0.73038 0.10946 0.0
C313 C 0.73392 0.79526 0.08403 0.0
C314 C 0.74576 0.81866 0.09775 0.0
C315 C 0.76416 0.8098 0.12434 0.0
C316 C 0.77018 0.77767 0.13718 0.0
C317 C 0.75234 0.78658 0.11052 0.0
C318 C 0.76491 0.72179 0.13598 0.0
C319 C 0.75335 0.69832 0.12223 0.0
H320 H 0.2584 0.22368 0.39811 0.0
H321 H 0.0998 0.22593 0.3792 0.0
H322 H 0.13714 0.23019 0.35415 0.0
H323 H 0.21469 0.23227 0.33754 0.0
H324 H 0.3733 0.23045 0.35645 0.0
H325 H 0.33597 0.22702 0.38151 0.0
C326 C 0.23198 0.22519 0.38852 0.0
C327 C 0.17643 0.22437 0.39056 0.0
C328 C 0.25367 0.22762 0.37411 0.0
C329 C 0.14278 0.22646 0.37798 0.0
C330 C 0.16406 0.22885 0.36363 0.0
C331 C 0.24111 0.23111 0.34714 0.0
C332 C 0.29667 0.23149 0.34509 0.0
C333 C 0.21943 0.22926 0.36155 0.0
C334 C 0.33032 0.23018 0.35767 0.0
C335 C 0.30905 0.2282 0.37204 0.0
H336 H 0.22025 0.2166 0.22144 0.0
H337 H 0.34294 0.09516 0.22024 0.0
H338 H 0.37073 0.11848 0.24538 0.0
H339 H 0.36239 0.17423 0.26735 0.0
H340 H 0.24359 0.29923 0.26875 0.0
H341 H 0.21187 0.27337 0.24392 0.0
C342 C 0.25291 0.19519 0.22673 0.0
C343 C 0.27951 0.15429 0.21895 0.0
C344 C 0.2694 0.20935 0.2412 0.0
C345 C 0.32197 0.12706 0.22591 0.0
C346 C 0.33787 0.14023 0.24032 0.0
C347 C 0.32926 0.19573 0.26232 0.0
C348 C 0.30532 0.23854 0.26992 0.0
C349 C 0.31212 0.18144 0.24801 0.0
C350 C 0.26274 0.26611 0.26313 0.0
C351 C 0.24465 0.25138 0.24893 0.0
H352 H 0.82918 0.72027 0.47101 0.0
H353 H 0.67812 0.76443 0.45125 0.0
H354 H 0.64657 0.79584 0.47547 0.0
H355 H 0.66542 0.8188 0.50166 0.0
H356 H 0.81828 0.77738 0.52082 0.0
H357 H 0.84543 0.73673 0.4974 0.0
C358 C 0.78908 0.73618 0.47199 0.0
C359 C 0.75632 0.74058 0.45929 0.0
C360 C 0.77169 0.75516 0.48582 0.0
C361 C 0.70431 0.76084 0.46083 0.0
C362 C 0.68631 0.77903 0.47467 0.0
C363 C 0.70443 0.80033 0.50076 0.0
C364 C 0.73999 0.80174 0.51292 0.0
C365 C 0.72021 0.77767 0.48715 0.0
C366 C 0.79033 0.77743 0.51159 0.0
C367 C 0.80593 0.75412 0.49819 0.0
H368 H 0.2955 0.30862 0.72234 0.0
H369 H 0.13005 0.33919 0.71169 0.0
H370 H 0.10323 0.30297 0.73578 0.0
H371 H 0.12656 0.26765 0.76033 0.0
H372 H 0.29122 0.2359 0.77136 0.0
H373 H 0.31847 0.26714 0.74657 0.0
C374 C 0.25357 0.30699 0.72525 0.0
C375 C 0.21495 0.32711 0.71526 0.0
C376 C 0.23825 0.2861 0.73919 0.0
C377 C 0.16072 0.32428 0.71917 0.0
C378 C 0.14526 0.30363 0.73296 0.0
C379 C 0.16845 0.26731 0.75731 0.0
C380 C 0.20687 0.25003 0.76771 0.0
C381 C 0.1837 0.28528 0.74313 0.0
C382 C 0.26086 0.2491 0.76355 0.0
C383 C 0.27646 0.26713 0.7494 0.0
H384 H 0.78504 0.71123 -0.00331 0.0
H385 H 0.62704 0.72832 0.01521 0.0
H386 H 0.59317 0.75797 -0.0089 0.0
H387 H 0.60572 0.76777 0.96426 0.0
H388 H 0.7625 0.74958 0.94525 0.0
H389 H 0.79976 0.73242 0.97011 0.0
C390 C 0.74342 0.72235 -0.00449 0.0
C391 C 0.70844 0.71653 0.00766 0.0
C392 C 0.72388 0.73869 0.98151 0.0
C393 C 0.65471 0.73163 0.00599 0.0
C394 C 0.63521 0.74853 -0.00781 0.0
C395 C 0.64819 0.76072 0.96559 0.0
C396 C 0.68121 0.75897 0.95298 0.0
C397 C 0.66901 0.75033 0.9798 0.0
C398 C 0.73628 0.75087 0.95483 0.0
C399 C 0.7575 0.74077 0.96901 0.0
H400 H 0.28082 0.25599 0.02763 0.0
H401 H 0.15629 0.36784 0.01579 0.0
H402 H 0.1673 0.34606 0.98947 0.0
H403 H 0.21881 0.30287 0.9697 0.0
H404 H 0.34685 0.19484 0.98142 0.0
H405 H 0.32757 0.20706 0.00786 0.0
C406 C 0.25545 0.27484 0.01931 0.0
C407 C 0.21815 0.31379 0.02364 0.0
C408 C 0.26296 0.26321 0.00415 0.0
C409 C 0.18569 0.33807 0.01272 0.0
C410 C 0.19198 0.32571 -0.00233 0.0
C411 C 0.24197 0.28132 0.97802 0.0
C412 C 0.28454 0.24846 0.97359 0.0
C413 C 0.23154 0.28952 -0.00678 0.0
C414 C 0.31414 0.22082 0.98453 0.0
C415 C 0.3032 0.22781 -0.00033 0.0
H416 H 0.78135 0.73599 0.26329 0.0
H417 H 0.61723 0.75051 0.24912 0.0
H418 H 0.64604 0.78027 0.22448 0.0
H419 H 0.717 0.8085 0.20767 0.0
H420 H 0.88131 0.79947 0.222 0.0
H421 H 0.85324 0.76062 0.24583 0.0
C422 C 0.75196 0.74504 0.25474 0.0
C423 C 0.69726 0.74134 0.25804 0.0
C424 C 0.76879 0.76334 0.24067 0.0
C425 C 0.65959 0.75347 0.24689 0.0
C426 C 0.676 0.77046 0.2328 0.0
C427 C 0.74685 0.79752 0.21591 0.0
C428 C 0.80117 0.80719 0.21309 0.0
C429 C 0.7304 0.77652 0.22967 0.0
C430 C 0.8392 0.79272 0.22393 0.0
C431 C 0.82317 0.77059 0.23757 0.0
H432 H 0.18071 0.29646 0.47467 0.0
H433 H 0.15695 0.13206 0.46122 0.0
H434 H 0.19665 0.10071 0.48445 0.0
H435 H 0.23175 0.11937 0.50929 0.0
H436 H 0.25649 0.28294 0.52312 0.0
H437 H 0.22333 0.3151 0.49897 0.0
C438 C 0.18471 0.2538 0.47676 0.0
C439 C 0.16521 0.21677 0.46627 0.0
C440 C 0.20752 0.23581 0.49023 0.0
C441 C 0.17117 0.16158 0.46911 0.0
C442 C 0.19383 0.14349 0.48242 0.0
C443 C 0.23027 0.16209 0.507 0.0
C444 C 0.24594 0.19871 0.51803 0.0
C445 C 0.21108 0.1802 0.49317 0.0
C446 C 0.24453 0.25389 0.51481 0.0
C447 C 0.22537 0.27231 0.50103 0.0
H448 H 0.69934 0.67172 0.72994 0.0
H449 H 0.81521 0.77999 0.71081 0.0
H450 H 0.84819 0.80181 0.73567 0.0
H451 H 0.85016 0.78318 0.76255 0.0
H452 H 0.73474 0.67451 0.7817 0.0
H453 H 0.69533 0.66015 0.75711 0.0
C454 C 0.73136 0.70062 0.73121 0.0
C455 C 0.75528 0.72357 0.71852 0.0
C456 C 0.75055 0.71255 0.74553 0.0
C457 C 0.79626 0.76145 0.72037 0.0
C458 C 0.81535 0.7738 0.73459 0.0
C459 C 0.81608 0.7567 0.76137 0.0
C460 C 0.79594 0.72932 0.77389 0.0
C461 C 0.79379 0.74843 0.7472 0.0
C462 C 0.75124 0.69583 0.77222 0.0
C463 C 0.72875 0.68748 0.75815 0.0
H464 H 0.1467 0.96093 0.17019 0.0
H465 H 0.08398 0.12182 0.17239 0.0
H466 H -0.00673 0.08718 0.17199 0.0
H467 H 0.93085 0.01136 0.17085 0.0
H468 H -0.00709 0.85048 0.16786 0.0
H469 H 0.08392 0.88485 0.16873 0.0
C470 C 0.11317 0.98833 0.17061 0.0
C471 C 0.1224 0.04388 0.17132 0.0
C472 C 0.06062 0.96818 0.17022 0.0
C473 C 0.07833 0.07883 0.17178 0.0
C474 C 0.02621 0.0591 0.17158 0.0
C475 C 0.96427 0.98383 0.17042 0.0
C476 C 0.95485 0.92845 0.16931 0.0
C477 C 0.01678 0.00387 0.17077 0.0
C478 C -0.00121 0.89338 0.16867 0.0
C479 C 0.05103 0.91297 0.16919 0.0
H480 H 0.0679 0.42406 0.42052 0.0
H481 H 0.93361 0.33012 0.43563 0.0
H482 H 0.87964 0.41133 0.43743 0.0
H483 H 0.87008 0.50863 0.43422 0.0
H484 H 0.00456 0.60242 0.41916 0.0
H485 H 0.05898 0.52146 0.41786 0.0
C486 C 0.02685 0.42126 0.42423 0.0
C487 C 0.00481 0.37099 0.42788 0.0
C488 C -0.00395 0.46806 0.42523 0.0
C489 C 0.95159 0.36824 0.43273 0.0
C490 C 0.92067 0.41467 0.43375 0.0
C491 C 0.91132 0.51145 0.43068 0.0
C492 C 0.93312 0.56156 0.42675 0.0
C493 C 0.94241 0.46474 0.42995 0.0
C494 C 0.98672 0.56441 0.42224 0.0
C495 C 0.01788 0.51811 0.42148 0.0
H496 H 0.42338 0.41951 0.67125 0.0
H497 H 0.31885 0.55235 0.68086 0.0
H498 H 0.39589 0.6107 0.68464 0.0
H499 H 0.49296 0.62412 0.68501 0.0
H500 H 0.59705 0.49056 0.6757 0.0
H501 H 0.52005 0.43244 0.67206 0.0
C502 C 0.41739 0.46124 0.67415 0.0
C503 C 0.36548 0.48155 0.67572 0.0
C504 C 0.46178 0.49447 0.67639 0.0
C505 C 0.35844 0.53566 0.67958 0.0
C506 C 0.40246 0.56909 0.68174 0.0
C507 C 0.4988 0.5823 0.68221 0.0
C508 C 0.55069 0.56183 0.6806 0.0
C509 C 0.45431 0.54894 0.68015 0.0
C510 C 0.55755 0.50744 0.67701 0.0
C511 C 0.51354 0.47411 0.6749 0.0
H512 H 0.37084 0.02873 0.92544 0.0
H513 H 0.51648 0.12106 0.92715 0.0
H514 H 0.56854 0.03993 0.92279 0.0
H515 H 0.57279 0.94285 0.91903 0.0
H516 H 0.42733 0.85018 0.91764 0.0
H517 H 0.37503 0.93172 0.92124 0.0
C518 C 0.41398 0.03121 0.92485 0.0
C519 C 0.43971 0.08093 0.92667 0.0
C520 C 0.44366 0.98442 0.92237 0.0
C521 C 0.49564 0.08333 0.92583 0.0
C522 C 0.52544 0.03696 0.92332 0.0
C523 C 0.52962 0.94041 0.91943 0.0
C524 C 0.50403 0.89041 0.91809 0.0
C525 C 0.49987 0.9873 0.92164 0.0
C526 C 0.44806 0.8881 0.91866 0.0
C527 C 0.41812 0.9347 0.92074 0.0
H528 H -0.00251 0.42752 0.04525 0.0
H529 H 0.08601 0.55481 0.06647 0.0
H530 H 0.00725 0.61213 0.06574 0.0
H531 H 0.9131 0.62553 0.05952 0.0
H532 H 0.82436 0.49824 0.03838 0.0
H533 H 0.9037 0.44159 0.03857 0.0
C534 C -0.00041 0.46778 0.04973 0.0
C535 C 0.04747 0.48676 0.05595 0.0
C536 C 0.95423 0.50057 0.04926 0.0
C537 C 0.04959 0.53915 0.06163 0.0
C538 C 0.0046 0.572 0.06122 0.0
C539 C 0.91111 0.58549 0.05489 0.0
C540 C 0.86287 0.5661 0.04899 0.0
C541 C 0.9567 0.55304 0.05511 0.0
C542 C 0.86101 0.51413 0.04302 0.0
C543 C 0.90631 0.48165 0.04314 0.0
H544 H 0.48629 0.59665 0.30582 0.0
H545 H 0.63388 0.5244 0.29149 0.0
H546 H 0.59473 0.43541 0.29416 0.0
H547 H 0.51914 0.37784 0.30086 0.0
H548 H 0.37194 0.44977 0.31562 0.0
H549 H 0.41048 0.53894 0.3125 0.0
C550 C 0.50982 0.56145 0.30323 0.0
C551 C 0.56292 0.56726 0.29846 0.0
C552 C 0.48723 0.51023 0.3049 0.0
C553 C 0.59292 0.52117 0.29521 0.0
C554 C 0.5706 0.47018 0.29673 0.0
C555 C 0.49544 0.413 0.30339 0.0
C556 C 0.44276 0.40704 0.30848 0.0
C557 C 0.51788 0.46421 0.30163 0.0
C558 C 0.41267 0.4531 0.31171 0.0
C559 C 0.43463 0.50419 0.30992 0.0
H560 H 0.53936 0.89147 0.56358 0.0
H561 H 0.63949 0.01964 0.54719 0.0
H562 H 0.56203 0.07839 0.54514 0.0
H563 H 0.46594 0.09355 0.54809 0.0
H564 H 0.36594 0.965 0.56433 0.0
H565 H 0.44337 0.90634 0.56633 0.0
C566 C 0.54429 0.93224 0.55956 0.0
C567 C 0.59514 0.95108 0.55557 0.0
C568 C 0.49961 0.96582 0.55838 0.0
C569 C 0.60077 0.00404 0.55034 0.0
C570 C 0.5565 0.03773 0.54917 0.0
C571 C 0.46106 0.05272 0.55207 0.0
C572 C 0.41022 0.03379 0.55606 0.0
C573 C 0.50575 0.01906 0.55317 0.0
C574 C 0.40462 0.98068 0.56117 0.0
C575 C 0.44888 0.94704 0.56233 0.0
H576 H -0.00541 0.10618 0.80948 0.0
H577 H 0.15104 0.03391 0.81042 0.0
H578 H 0.11093 0.94483 0.81068 0.0
H579 H 0.03154 0.88727 0.81032 0.0
H580 H 0.87508 0.95954 0.80944 0.0
H581 H 0.91518 0.04862 0.80951 0.0
C582 C 0.01993 0.07097 0.80975 0.0
C583 C 0.07573 0.07681 0.80989 0.0
C584 C -0.00336 0.01976 0.80991 0.0
C585 C 0.10795 0.03068 0.81029 0.0
C586 C 0.08507 0.97964 0.81044 0.0
C587 C 0.00619 0.92248 0.81017 0.0
C588 C 0.9504 0.91664 0.80984 0.0
C589 C 0.02947 0.97369 0.8102 0.0
C590 C 0.91816 0.96277 0.80968 0.0
C591 C 0.94104 0.01382 0.80971 0.0
H592 H 0.64619 0.01495 0.17292 0.0
H593 H 0.5864 0.85294 0.17029 0.0
H594 H 0.49509 0.88579 0.17064 0.0
H595 H 0.43119 0.96046 0.17198 0.0
H596 H 0.49085 0.12248 0.17472 0.0
H597 H 0.58223 0.08974 0.17402 0.0
C598 C 0.6132 0.98687 0.17241 0.0
C599 C 0.62348 0.93156 0.17161 0.0
C600 C 0.56029 0.006 0.17264 0.0
C601 C 0.58001 0.89579 0.17094 0.0
C602 C 0.52751 0.9145 0.17114 0.0
C603 C 0.46416 0.98859 0.17238 0.0
C604 C 0.45384 0.04383 0.17342 0.0
C605 C 0.51706 0.96951 0.17202 0.0
C606 C 0.49729 0.07966 0.17395 0.0
C607 C 0.54981 0.06102 0.17355 0.0
H608 H 0.9847 0.85736 0.42179 0.0
H609 H 0.8274 0.92739 0.42354 0.0
H610 H 0.8663 0.017 0.42397 0.0
H611 H 0.94506 0.0757 0.42418 0.0
H612 H 0.10224 0.00539 0.42232 0.0
H613 H 0.06324 0.91597 0.42159 0.0
C614 C 0.95891 0.8922 0.42225 0.0
C615 C 0.90325 0.88556 0.42267 0.0
C616 C 0.98149 0.94372 0.42249 0.0
C617 C 0.87042 0.93123 0.42321 0.0
C618 C 0.89261 0.98259 0.42347 0.0
C619 C 0.97077 0.04083 0.4236 0.0
C620 C 0.02648 0.04735 0.42334 0.0
C621 C 0.9481 0.98933 0.42316 0.0
C622 C 0.0592 0.00166 0.42255 0.0
C623 C 0.03697 0.95039 0.42213 0.0
H624 H -0.00442 0.41489 0.67827 0.0
H625 H 0.09373 0.55034 0.666 0.0
H626 H 0.01539 0.60836 0.66589 0.0
H627 H 0.91955 0.6211 0.66986 0.0
H628 H 0.82167 0.48586 0.68249 0.0
H629 H 0.89954 0.42733 0.68185 0.0
C630 C -0.00014 0.45704 0.6755 0.0
C631 C 0.05045 0.47822 0.67218 0.0
C632 C 0.95476 0.49028 0.67556 0.0
C633 C 0.05525 0.53298 0.66864 0.0
C634 C 0.01049 0.56624 0.66857 0.0
C635 C 0.91517 0.5788 0.67243 0.0
C636 C 0.86488 0.55796 0.67625 0.0
C637 C 0.96012 0.54538 0.67212 0.0
C638 C 0.85995 0.50302 0.67954 0.0
C639 C 0.90445 0.46947 0.67918 0.0
H640 H 0.48956 0.38133 0.93678 0.0
H641 H 0.33923 0.43987 0.9197 0.0
H642 H 0.37688 0.52948 0.9169 0.0
H643 H 0.45246 0.59167 0.91936 0.0
H644 H 0.60205 0.53349 0.93705 0.0
H645 H 0.56474 0.44367 0.93952 0.0
C646 C 0.46507 0.41367 0.93243 0.0
C647 C 0.4117 0.40379 0.92845 0.0
C648 C 0.48682 0.46535 0.93094 0.0
C649 C 0.38043 0.44628 0.92289 0.0
C650 C 0.40193 0.49763 0.92126 0.0
C651 C 0.47691 0.55932 0.92372 0.0
C652 C 0.52997 0.56939 0.92799 0.0
C653 C 0.45507 0.50767 0.92525 0.0
C654 C 0.56101 0.52701 0.93371 0.0
C655 C 0.53975 0.4755 0.93512 0.0
H656 H 0.49583 0.62341 0.0608 0.0
H657 H 0.58759 0.49137 0.04341 0.0
H658 H 0.50737 0.43613 0.04235 0.0
H659 H 0.41129 0.42545 0.04618 0.0
H660 H 0.31961 0.55668 0.06404 0.0
H661 H 0.39983 0.61215 0.06506 0.0
C662 C 0.49831 0.58253 0.0568 0.0
C663 C 0.54759 0.56161 0.05217 0.0
C664 C 0.45209 0.55088 0.05626 0.0
C665 C 0.55016 0.50847 0.04707 0.0
C666 C 0.5043 0.47685 0.04642 0.0
C667 C 0.40879 0.46623 0.05027 0.0
C668 C 0.35955 0.48696 0.05497 0.0
C669 C 0.45506 0.4977 0.05095 0.0
C670 C 0.35707 0.53974 0.06035 0.0
C671 C 0.4029 0.5715 0.06094 0.0
H672 H 0.40754 0.02914 0.31232 0.0
H673 H 0.54704 0.12526 0.30311 0.0
H674 H 0.59918 0.04406 0.29887 0.0
H675 H 0.60458 0.94612 0.29719 0.0
H676 H 0.46533 0.84992 0.3066 0.0
H677 H 0.41359 0.93107 0.31133 0.0
C678 C 0.44941 0.03243 0.30944 0.0
C679 C 0.47328 0.08329 0.30799 0.0
C680 C 0.47911 0.98561 0.30699 0.0
C681 C 0.52764 0.08667 0.30431 0.0
C682 C 0.55746 0.04025 0.30184 0.0
C683 C 0.56288 0.94281 0.30026 0.0
C684 C 0.5388 0.89197 0.30146 0.0
C685 C 0.53349 0.98957 0.30304 0.0
C686 C 0.48485 0.88851 0.30558 0.0
C687 C 0.45523 0.9349 0.30828 0.0
H688 H 0.96582 0.88708 0.56371 0.0
H689 H 0.86425 0.022 0.55327 0.0
H690 H 0.94193 0.08054 0.55186 0.0
H691 H 0.03862 0.09317 0.55293 0.0
H692 H 0.14062 0.95889 0.56358 0.0
H693 H 0.06273 0.90043 0.56559 0.0
C694 C 0.96065 0.92932 0.56118 0.0
C695 C 0.90929 0.95001 0.55854 0.0
C696 C 0.00553 0.96289 0.56038 0.0
C697 C 0.9033 0.00493 0.55534 0.0
C698 C 0.94772 0.03849 0.5545 0.0
C699 C 0.04387 0.05113 0.55571 0.0
C700 C 0.09535 0.0304 0.55802 0.0
C701 C -0.00099 0.01783 0.55689 0.0
C702 C 0.1014 0.97589 0.56172 0.0
C703 C 0.0569 0.9424 0.56286 0.0
H704 H 0.91059 0.53818 0.81231 0.0
H705 H 0.05033 0.63352 0.80276 0.0
H706 H 0.10467 0.5524 0.80181 0.0
H707 H 0.11233 0.45466 0.80344 0.0
H708 H 0.97292 0.35915 0.81322 0.0
H709 H 0.91858 0.44035 0.81436 0.0
C710 C 0.95293 0.5413 0.81002 0.0
C711 C 0.9763 0.5919 0.80757 0.0
C712 C 0.98397 0.49452 0.80953 0.0
C713 C 0.03129 0.59513 0.80469 0.0
C714 C 0.0624 0.54874 0.80413 0.0
C715 C 0.07006 0.45149 0.80583 0.0
C716 C 0.04672 0.40083 0.8082 0.0
C717 C 0.03913 0.49827 0.8065 0.0
C718 C 0.99192 0.3976 0.81135 0.0
C719 C 0.96081 0.44402 0.81199 0.0
loop_
_geom_bond_atom_site_label_1
_geom_bond_atom_site_label_2
_geom_bond_distance
_geom_bond_site_symmetry_2
_ccdc_geom_bond_type
C0 O1 1.160 . S
C0 O7 1.185 . S
O1 C0 1.160 . S
O2 Zn3 1.899 . S
O2 C10 1.284 . S
Zn3 O2 1.899 . S
Zn3 O4 2.032 . S
Zn3 O7 2.086 . S
Zn3 O12 1.977 . S
O4 Zn3 2.032 . S
O4 C8 1.278 . S
C5 O6 1.203 . S
C5 O12 1.267 . S
O6 C5 1.203 . S
O7 C0 1.185 . S
O7 Zn3 2.086 . S
C8 O4 1.278 . S
C8 O9 1.211 . S
O9 C8 1.211 . S
C10 O2 1.284 . S
C10 O11 1.273 . S
O11 C10 1.273 . S
O12 Zn3 1.977 . S
O12 C5 1.267 . S
C13 O14 1.160 . S
C13 O20 1.185 . S
O14 C13 1.160 . S
O15 Zn16 1.899 . S
O15 C23 1.284 . S
Zn16 O15 1.899 . S
Zn16 O17 2.032 . S
Zn16 O20 2.086 . S
Zn16 O25 1.977 . S
O17 Zn16 2.032 . S
O17 C21 1.278 . S
C18 O19 1.203 . S
C18 O25 1.267 . S
O19 C18 1.203 . S
O20 C13 1.185 . S
O20 Zn16 2.086 . S
C21 O17 1.278 . S
C21 O22 1.211 . S
O22 C21 1.211 . S
C23 O15 1.284 . S
C23 O24 1.273 . S
O24 C23 1.273 . S
O25 Zn16 1.977 . S
O25 C18 1.267 . S
C26 O27 1.160 . S
C26 O33 1.185 . S
O27 C26 1.160 . S
O28 Zn29 1.899 . S
O28 C36 1.284 . S
Zn29 O28 1.899 . S
Zn29 O30 2.032 . S
Zn29 O33 2.086 . S
Zn29 O38 1.977 . S
O30 Zn29 2.032 . S
O30 C34 1.278 . S
C31 O32 1.203 . S
C31 O38 1.267 . S
O32 C31 1.203 . S
O33 C26 1.185 . S
O33 Zn29 2.086 . S
C34 O30 1.278 . S
C34 O35 1.211 . S
O35 C34 1.211 . S
C36 O28 1.284 . S
C36 O37 1.273 . S
O37 C36 1.273 . S
O38 Zn29 1.977 . S
O38 C31 1.267 . S
C39 O40 1.160 . S
C39 O46 1.185 . S
O40 C39 1.160 . S
O41 Zn42 1.899 . S
O41 C49 1.284 . S
Zn42 O41 1.899 . S
Zn42 O43 2.032 . S
Zn42 O46 2.086 . S
Zn42 O51 1.977 . S
O43 Zn42 2.032 . S
O43 C47 1.278 . S
C44 O45 1.203 . S
C44 O51 1.267 . S
O45 C44 1.203 . S
O46 C39 1.185 . S
O46 Zn42 2.086 . S
C47 O43 1.278 . S
C47 O48 1.211 . S
O48 C47 1.211 . S
C49 O41 1.284 . S
C49 O50 1.273 . S
O50 C49 1.273 . S
O51 Zn42 1.977 . S
O51 C44 1.267 . S
C52 O53 1.160 . S
C52 O59 1.185 . S
O53 C52 1.160 . S
O54 Zn55 1.899 . S
O54 C62 1.284 . S
Zn55 O54 1.899 . S
Zn55 O56 2.032 . S
Zn55 O59 2.086 . S
Zn55 O64 1.977 . S
O56 Zn55 2.032 . S
O56 C60 1.278 . S
C57 O58 1.203 . S
C57 O64 1.267 . S
O58 C57 1.203 . S
O59 C52 1.185 . S
O59 Zn55 2.086 . S
C60 O56 1.278 . S
C60 O61 1.211 . S
O61 C60 1.211 . S
C62 O54 1.284 . S
C62 O63 1.273 . S
O63 C62 1.273 . S
O64 Zn55 1.977 . S
O64 C57 1.267 . S
C65 O66 1.160 . S
C65 O72 1.185 . S
O66 C65 1.160 . S
O67 Zn68 1.899 . S
O67 C75 1.284 . S
Zn68 O67 1.899 . S
Zn68 O69 2.032 . S
Zn68 O72 2.086 . S
Zn68 O77 1.977 . S
O69 Zn68 2.032 . S
O69 C73 1.278 . S
C70 O71 1.203 . S
C70 O77 1.267 . S
O71 C70 1.203 . S
O72 C65 1.185 . S
O72 Zn68 2.086 . S
C73 O69 1.278 . S
C73 O74 1.211 . S
O74 C73 1.211 . S
C75 O67 1.284 . S
C75 O76 1.273 . S
O76 C75 1.273 . S
O77 Zn68 1.977 . S
O77 C70 1.267 . S
C78 O79 1.160 . S
C78 O85 1.185 . S
O79 C78 1.160 . S
O80 Zn81 1.899 . S
O80 C88 1.284 . S
Zn81 O80 1.899 . S
Zn81 O82 2.032 . S
Zn81 O85 2.086 . S
Zn81 O90 1.977 . S
O82 Zn81 2.032 . S
O82 C86 1.278 . S
C83 O84 1.203 . S
C83 O90 1.267 . S
O84 C83 1.203 . S
O85 C78 1.185 . S
O85 Zn81 2.086 . S
C86 O82 1.278 . S
C86 O87 1.211 . S
O87 C86 1.211 . S
C88 O80 1.284 . S
C88 O89 1.273 . S
O89 C88 1.273 . S
O90 Zn81 1.977 . S
O90 C83 1.267 . S
C91 O92 1.160 . S
C91 O98 1.185 . S
O92 C91 1.160 . S
O93 Zn94 1.899 . S
O93 C101 1.284 . S
Zn94 O93 1.899 . S
Zn94 O95 2.032 . S
Zn94 O98 2.086 . S
Zn94 O103 1.977 . S
O95 Zn94 2.032 . S
O95 C99 1.278 . S
C96 O97 1.203 . S
C96 O103 1.267 . S
O97 C96 1.203 . S
O98 C91 1.185 . S
O98 Zn94 2.086 . S
C99 O95 1.278 . S
C99 O100 1.211 . S
O100 C99 1.211 . S
C101 O93 1.284 . S
C101 O102 1.273 . S
O102 C101 1.273 . S
O103 Zn94 1.977 . S
O103 C96 1.267 . S
C104 O105 1.160 . S
C104 O111 1.185 . S
O105 C104 1.160 . S
O106 Zn107 1.899 . S
O106 C114 1.284 . S
Zn107 O106 1.899 . S
Zn107 O108 2.032 . S
Zn107 O111 2.086 . S
Zn107 O116 1.977 . S
O108 Zn107 2.032 . S
O108 C112 1.278 . S
C109 O110 1.203 . S
C109 O116 1.267 . S
O110 C109 1.203 . S
O111 C104 1.185 . S
O111 Zn107 2.086 . S
C112 O108 1.278 . S
C112 O113 1.211 . S
O113 C112 1.211 . S
C114 O106 1.284 . S
C114 O115 1.273 . S
O115 C114 1.273 . S
O116 Zn107 1.977 . S
O116 C109 1.267 . S
C117 O118 1.160 . S
C117 O124 1.185 . S
O118 C117 1.160 . S
O119 Zn120 1.899 . S
O119 C127 1.284 . S
Zn120 O119 1.899 . S
Zn120 O121 2.032 . S
Zn120 O124 2.086 . S
Zn120 O129 1.977 . S
O121 Zn120 2.032 . S
O121 C125 1.278 . S
C122 O123 1.203 . S
C122 O129 1.267 . S
O123 C122 1.203 . S
O124 C117 1.185 . S
O124 Zn120 2.086 . S
C125 O121 1.278 . S
C125 O126 1.211 . S
O126 C125 1.211 . S
C127 O119 1.284 . S
C127 O128 1.273 . S
O128 C127 1.273 . S
O129 Zn120 1.977 . S
O129 C122 1.267 . S
C130 O131 1.160 . S
C130 O137 1.185 . S
O131 C130 1.160 . S
O132 Zn133 1.899 . S
O132 C140 1.284 . S
Zn133 O132 1.899 . S
Zn133 O134 2.032 . S
Zn133 O137 2.086 . S
Zn133 O142 1.977 . S
O134 Zn133 2.032 . S
O134 C138 1.278 . S
C135 O136 1.203 . S
C135 O142 1.267 . S
O136 C135 1.203 . S
O137 C130 1.185 . S
O137 Zn133 2.086 . S
C138 O134 1.278 . S
C138 O139 1.211 . S
O139 C138 1.211 . S
C140 O132 1.284 . S
C140 O141 1.273 . S
O141 C140 1.273 . S
O142 Zn133 1.977 . S
O142 C135 1.267 . S
C143 O144 1.160 . S
C143 O150 1.185 . S
O144 C143 1.160 . S
O145 Zn146 1.899 . S
O145 C153 1.284 . S
Zn146 O145 1.899 . S
Zn146 O147 2.032 . S
Zn146 O150 2.086 . S
Zn146 O155 1.977 . S
O147 Zn146 2.032 . S
O147 C151 1.278 . S
C148 O149 1.203 . S
C148 O155 1.267 . S
O149 C148 1.203 . S
O150 C143 1.185 . S
O150 Zn146 2.086 . S
C151 O147 1.278 . S
C151 O152 1.211 . S
O152 C151 1.211 . S
C153 O145 1.284 . S
C153 O154 1.273 . S
O154 C153 1.273 . S
O155 Zn146 1.977 . S
O155 C148 1.267 . S
C156 O157 1.160 . S
C156 O163 1.185 . S
O157 C156 1.160 . S
O158 Zn159 1.899 . S
O158 C166 1.284 . S
Zn159 O158 1.899 . S
Zn159 O160 2.032 . S
Zn159 O163 2.086 . S
Zn159 O168 1.977 . S
O160 Zn159 2.032 . S
O160 C164 1.278 . S
C161 O162 1.203 . S
C161 O168 1.267 . S
O162 C161 1.203 . S
O163 C156 1.185 . S
O163 Zn159 2.086 . S
C164 O160 1.278 . S
C164 O165 1.211 . S
O165 C164 1.211 . S
C166 O158 1.284 . S
C166 O167 1.273 . S
O167 C166 1.273 . S
O168 Zn159 1.977 . S
O168 C161 1.267 . S
C169 O170 1.160 . S
C169 O176 1.185 . S
O170 C169 1.160 . S
O171 Zn172 1.899 . S
O171 C179 1.284 . S
Zn172 O171 1.899 . S
Zn172 O173 2.032 . S
Zn172 O176 2.086 . S
Zn172 O181 1.977 . S
O173 Zn172 2.032 . S
O173 C177 1.278 . S
C174 O175 1.203 . S
C174 O181 1.267 . S
O175 C174 1.203 . S
O176 C169 1.185 . S
O176 Zn172 2.086 . S
C177 O173 1.278 . S
C177 O178 1.211 . S
O178 C177 1.211 . S
C179 O171 1.284 . S
C179 O180 1.273 . S
O180 C179 1.273 . S
O181 Zn172 1.977 . S
O181 C174 1.267 . S
C182 O183 1.160 . S
C182 O189 1.185 . S
O183 C182 1.160 . S
O184 Zn185 1.899 . S
O184 C192 1.284 . S
Zn185 O184 1.899 . S
Zn185 O186 2.032 . S
Zn185 O189 2.086 . S
Zn185 O194 1.977 . S
O186 Zn185 2.032 . S
O186 C190 1.278 . S
C187 O188 1.203 . S
C187 O194 1.267 . S
O188 C187 1.203 . S
O189 C182 1.185 . S
O189 Zn185 2.086 . S
C190 O186 1.278 . S
C190 O191 1.211 . S
O191 C190 1.211 . S
C192 O184 1.284 . S
C192 O193 1.273 . S
O193 C192 1.273 . S
O194 Zn185 1.977 . S
O194 C187 1.267 . S
C195 O196 1.160 . S
C195 O202 1.185 . S
O196 C195 1.160 . S
O197 Zn198 1.899 . S
O197 C205 1.284 . S
Zn198 O197 1.899 . S
Zn198 O199 2.032 . S
Zn198 O202 2.086 . S
Zn198 O207 1.977 . S
O199 Zn198 2.032 . S
O199 C203 1.278 . S
C200 O201 1.203 . S
C200 O207 1.267 . S
O201 C200 1.203 . S
O202 C195 1.185 . S
O202 Zn198 2.086 . S
C203 O199 1.278 . S
C203 O204 1.211 . S
O204 C203 1.211 . S
C205 O197 1.284 . S
C205 O206 1.273 . S
O206 C205 1.273 . S
O207 Zn198 1.977 . S
O207 C200 1.267 . S
H208 C214 0.930 . S
H209 C217 0.930 . S
H210 C218 0.930 . S
H211 C219 0.930 . S
H212 C222 0.930 . S
H213 C223 0.930 . S
C214 H208 0.930 . S
C214 C215 1.355 . S
C214 C216 1.415 . S
C215 C214 1.355 . S
C215 C217 1.419 . S
C216 C214 1.415 . S
C216 C221 1.425 . S
C216 C223 1.409 . S
C217 H209 0.930 . S
C217 C215 1.419 . S
C217 C218 1.362 . S
C218 H210 0.930 . S
C218 C217 1.362 . S
C218 C221 1.409 . S
C219 H211 0.930 . S
C219 C220 1.355 . S
C219 C221 1.415 . S
C220 C219 1.355 . S
C220 C222 1.419 . S
C221 C216 1.425 . S
C221 C218 1.409 . S
C221 C219 1.415 . S
C222 H212 0.930 . S
C222 C220 1.419 . S
C222 C223 1.362 . S
C223 H213 0.930 . S
C223 C216 1.409 . S
C223 C222 1.362 . S
H224 C230 0.930 . S
H225 C233 0.930 . S
H226 C234 0.930 . S
H227 C235 0.930 . S
H228 C238 0.930 . S
H229 C239 0.930 . S
C230 H224 0.930 . S
C230 C231 1.355 . S
C230 C232 1.415 . S
C231 C230 1.355 . S
C231 C233 1.419 . S
C232 C230 1.415 . S
C232 C237 1.425 . S
C232 C239 1.409 . S
C233 H225 0.930 . S
C233 C231 1.419 . S
C233 C234 1.362 . S
C234 H226 0.930 . S
C234 C233 1.362 . S
C234 C237 1.409 . S
C235 H227 0.930 . S
C235 C236 1.355 . S
C235 C237 1.415 . S
C236 C235 1.355 . S
C236 C238 1.419 . S
C237 C232 1.425 . S
C237 C234 1.409 . S
C237 C235 1.415 . S
C238 H228 0.930 . S
C238 C236 1.419 . S
C238 C239 1.362 . S
C239 H229 0.930 . S
C239 C232 1.409 . S
C239 C238 1.362 . S
H240 C246 0.930 . S
H241 C249 0.930 . S
H242 C250 0.930 . S
H243 C251 0.930 . S
H244 C254 0.930 . S
H245 C255 0.930 . S
C246 H240 0.930 . S
C246 C247 1.355 . S
C246 C248 1.415 . S
C247 C246 1.355 . S
C247 C249 1.419 . S
C248 C246 1.415 . S
C248 C253 1.425 . S
C248 C255 1.409 . S
C249 H241 0.930 . S
C249 C247 1.419 . S
C249 C250 1.362 . S
C250 H242 0.930 . S
C250 C249 1.362 . S
C250 C253 1.409 . S
C251 H243 0.930 . S
C251 C252 1.355 . S
C251 C253 1.415 . S
C252 C251 1.355 . S
C252 C254 1.419 . S
C253 C248 1.425 . S
C253 C250 1.409 . S
C253 C251 1.415 . S
C254 H244 0.930 . S
C254 C252 1.419 . S
C254 C255 1.362 . S
C255 H245 0.930 . S
C255 C248 1.409 . S
C255 C254 1.362 . S
H256 C262 0.930 . S
H257 C265 0.930 . S
H258 C266 0.930 . S
H259 C267 0.930 . S
H260 C270 0.930 . S
H261 C271 0.930 . S
C262 H256 0.930 . S
C262 C263 1.355 . S
C262 C264 1.415 . S
C263 C262 1.355 . S
C263 C265 1.419 . S
C264 C262 1.415 . S
C264 C269 1.425 . S
C264 C271 1.409 . S
C265 H257 0.930 . S
C265 C263 1.419 . S
C265 C266 1.362 . S
C266 H258 0.930 . S
C266 C265 1.362 . S
C266 C269 1.409 . S
C267 H259 0.930 . S
C267 C268 1.355 . S
C267 C269 1.415 . S
C268 C267 1.355 . S
C268 C270 1.419 . S
C269 C264 1.425 . S
C269 C266 1.409 . S
C269 C267 1.415 . S
C270 H260 0.930 . S
C270 C268 1.419 . S
C270 C271 1.362 . S
C271 H261 0.930 . S
C271 C264 1.409 . S
C271 C270 1.362 . S
H272 C278 0.930 . S
H273 C281 0.930 . S
H274 C282 0.930 . S
H275 C283 0.930 . S
H276 C286 0.930 . S
H277 C287 0.930 . S
C278 H272 0.930 . S
C278 C279 1.355 . S
C278 C280 1.415 . S
C279 C278 1.355 . S
C279 C281 1.419 . S
C280 C278 1.415 . S
C280 C285 1.425 . S
C280 C287 1.409 . S
C281 H273 0.930 . S
C281 C279 1.419 . S
C281 C282 1.362 . S
C282 H274 0.930 . S
C282 C281 1.362 . S
C282 C285 1.409 . S
C283 H275 0.930 . S
C283 C284 1.355 . S
C283 C285 1.415 . S
C284 C283 1.355 . S
C284 C286 1.419 . S
C285 C280 1.425 . S
C285 C282 1.409 . S
C285 C283 1.415 . S
C286 H276 0.930 . S
C286 C284 1.419 . S
C286 C287 1.362 . S
C287 H277 0.930 . S
C287 C280 1.409 . S
C287 C286 1.362 . S
H288 C294 0.930 . S
H289 C297 0.930 . S
H290 C298 0.930 . S
H291 C299 0.930 . S
H292 C302 0.930 . S
H293 C303 0.930 . S
C294 H288 0.930 . S
C294 C295 1.355 . S
C294 C296 1.415 . S
C295 C294 1.355 . S
C295 C297 1.419 . S
C296 C294 1.415 . S
C296 C301 1.425 . S
C296 C303 1.409 . S
C297 H289 0.930 . S
C297 C295 1.419 . S
C297 C298 1.362 . S
C298 H290 0.930 . S
C298 C297 1.362 . S
C298 C301 1.409 . S
C299 H291 0.930 . S
C299 C300 1.355 . S
C299 C301 1.415 . S
C300 C299 1.355 . S
C300 C302 1.419 . S
C301 C296 1.425 . S
C301 C298 1.409 . S
C301 C299 1.415 . S
C302 H292 0.930 . S
C302 C300 1.419 . S
C302 C303 1.362 . S
C303 H293 0.930 . S
C303 C296 1.409 . S
C303 C302 1.362 . S
H304 C310 0.930 . S
H305 C313 0.930 . S
H306 C314 0.930 . S
H307 C315 0.930 . S
H308 C318 0.930 . S
H309 C319 0.930 . S
C310 H304 0.930 . S
C310 C311 1.355 . S
C310 C312 1.415 . S
C311 C310 1.355 . S
C311 C313 1.419 . S
C312 C310 1.415 . S
C312 C317 1.425 . S
C312 C319 1.409 . S
C313 H305 0.930 . S
C313 C311 1.419 . S
C313 C314 1.362 . S
C314 H306 0.930 . S
C314 C313 1.362 . S
C314 C317 1.409 . S
C315 H307 0.930 . S
C315 C316 1.355 . S
C315 C317 1.415 . S
C316 C315 1.355 . S
C316 C318 1.419 . S
C317 C312 1.425 . S
C317 C314 1.409 . S
C317 C315 1.415 . S
C318 H308 0.930 . S
C318 C316 1.419 . S
C318 C319 1.362 . S
C319 H309 0.930 . S
C319 C312 1.409 . S
C319 C318 1.362 . S
H320 C326 0.930 . S
H321 C329 0.930 . S
H322 C330 0.930 . S
H323 C331 0.930 . S
H324 C334 0.930 . S
H325 C335 0.930 . S
C326 H320 0.930 . S
C326 C327 1.355 . S
C326 C328 1.415 . S
C327 C326 1.355 . S
C327 C329 1.419 . S
C328 C326 1.415 . S
C328 C333 1.425 . S
C328 C335 1.409 . S
C329 H321 0.930 . S
C329 C327 1.419 . S
C329 C330 1.362 . S
C330 H322 0.930 . S
C330 C329 1.362 . S
C330 C333 1.409 . S
C331 H323 0.930 . S
C331 C332 1.355 . S
C331 C333 1.415 . S
C332 C331 1.355 . S
C332 C334 1.419 . S
C333 C328 1.425 . S
C333 C330 1.409 . S
C333 C331 1.415 . S
C334 H324 0.930 . S
C334 C332 1.419 . S
C334 C335 1.362 . S
C335 H325 0.930 . S
C335 C328 1.409 . S
C335 C334 1.362 . S
H336 C342 0.930 . S
H337 C345 0.930 . S
H338 C346 0.930 . S
H339 C347 0.930 . S
H340 C350 0.930 . S
H341 C351 0.930 . S
C342 H336 0.930 . S
C342 C343 1.355 . S
C342 C344 1.415 . S
C343 C342 1.355 . S
C343 C345 1.419 . S
C344 C342 1.415 . S
C344 C349 1.425 . S
C344 C351 1.409 . S
C345 H337 0.930 . S
C345 C343 1.419 . S
C345 C346 1.362 . S
C346 H338 0.930 . S
C346 C345 1.362 . S
C346 C349 1.409 . S
C347 H339 0.930 . S
C347 C348 1.355 . S
C347 C349 1.415 . S
C348 C347 1.355 . S
C348 C350 1.419 . S
C349 C344 1.425 . S
C349 C346 1.409 . S
C349 C347 1.415 . S
C350 H340 0.930 . S
C350 C348 1.419 . S
C350 C351 1.362 . S
C351 H341 0.930 . S
C351 C344 1.409 . S
C351 C350 1.362 . S
H352 C358 0.930 . S
H353 C361 0.930 . S
H354 C362 0.930 . S
H355 C363 0.930 . S
H356 C366 0.930 . S
H357 C367 0.930 . S
C358 H352 0.930 . S
C358 C359 1.355 . S
C358 C360 1.415 . S
C359 C358 1.355 . S
C359 C361 1.419 . S
C360 C358 1.415 . S
C360 C365 1.425 . S
C360 C367 1.409 . S
C361 H353 0.930 . S
C361 C359 1.419 . S
C361 C362 1.362 . S
C362 H354 0.930 . S
C362 C361 1.362 . S
C362 C365 1.409 . S
C363 H355 0.930 . S
C363 C364 1.355 . S
C363 C365 1.415 . S
C364 C363 1.355 . S
C364 C366 1.419 . S
C365 C360 1.425 . S
C365 C362 1.409 . S
C365 C363 1.415 . S
C366 H356 0.930 . S
C366 C364 1.419 . S
C366 C367 1.362 . S
C367 H357 0.930 . S
C367 C360 1.409 . S
C367 C366 1.362 . S
H368 C374 0.930 . S
H369 C377 0.930 . S
H370 C378 0.930 . S
H371 C379 0.930 . S
H372 C382 0.930 . S
H373 C383 0.930 . S
C374 H368 0.930 . S
C374 C375 1.355 . S
C374 C376 1.415 . S
C375 C374 1.355 . S
C375 C377 1.419 . S
C376 C374 1.415 . S
C376 C381 1.425 . S
C376 C383 1.409 . S
C377 H369 0.930 . S
C377 C375 1.419 . S
C377 C378 1.362 . S
C378 H370 0.930 . S
C378 C377 1.362 . S
C378 C381 1.409 . S
C379 H371 0.930 . S
C379 C380 1.355 . S
C379 C381 1.415 . S
C380 C379 1.355 . S
C380 C382 1.419 . S
C381 C376 1.425 . S
C381 C378 1.409 . S
C381 C379 1.415 . S
C382 H372 0.930 . S
C382 C380 1.419 . S
C382 C383 1.362 . S
C383 H373 0.930 . S
C383 C376 1.409 . S
C383 C382 1.362 . S
H384 C390 0.930 . S
H385 C393 0.930 . S
H386 C394 0.930 . S
H387 C395 0.930 . S
H388 C398 0.930 . S
H389 C399 0.930 . S
C390 H384 0.930 . S
C390 C391 1.355 . S
C390 C392 1.415 . S
C391 C390 1.355 . S
C391 C393 1.419 . S
C392 C390 1.415 . S
C392 C397 1.425 1_554 S
C392 C399 1.409 1_554 S
C393 H385 0.930 . S
C393 C391 1.419 . S
C393 C394 1.362 . S
C394 H386 0.930 . S
C394 C393 1.362 . S
C394 C397 1.409 1_554 S
C395 H387 0.930 . S
C395 C396 1.355 . S
C395 C397 1.415 . S
C396 C395 1.355 . S
C396 C398 1.419 . S
C397 C392 1.425 1_556 S
C397 C394 1.409 1_556 S
C397 C395 1.415 . S
C398 H388 0.930 . S
C398 C396 1.419 . S
C398 C399 1.362 . S
C399 H389 0.930 . S
C399 C392 1.409 1_556 S
C399 C398 1.362 . S
H400 C406 0.930 . S
H401 C409 0.930 . S
H402 C410 0.930 1_556 S
H403 C411 0.930 . S
H404 C414 0.930 . S
H405 C415 0.930 1_554 S
C406 H400 0.930 . S
C406 C407 1.355 . S
C406 C408 1.415 . S
C407 C406 1.355 . S
C407 C409 1.419 . S
C408 C406 1.415 . S
C408 C413 1.425 1_554 S
C408 C415 1.409 1_554 S
C409 H401 0.930 . S
C409 C407 1.419 . S
C409 C410 1.362 . S
C410 H402 0.930 1_554 S
C410 C409 1.362 . S
C410 C413 1.409 1_554 S
C411 H403 0.930 . S
C411 C412 1.355 . S
C411 C413 1.415 . S
C412 C411 1.355 . S
C412 C414 1.419 . S
C413 C408 1.425 1_556 S
C413 C410 1.409 1_556 S
C413 C411 1.415 . S
C414 H404 0.930 . S
C414 C412 1.419 . S
C414 C415 1.362 . S
C415 H405 0.930 1_556 S
C415 C408 1.409 1_556 S
C415 C414 1.362 . S
H416 C422 0.930 . S
H417 C425 0.930 . S
H418 C426 0.930 . S
H419 C427 0.930 . S
H420 C430 0.930 . S
H421 C431 0.930 . S
C422 H416 0.930 . S
C422 C423 1.355 . S
C422 C424 1.415 . S
C423 C422 1.355 . S
C423 C425 1.419 . S
C424 C422 1.415 . S
C424 C429 1.425 . S
C424 C431 1.409 . S
C425 H417 0.930 . S
C425 C423 1.419 . S
C425 C426 1.362 . S
C426 H418 0.930 . S
C426 C425 1.362 . S
C426 C429 1.409 . S
C427 H419 0.930 . S
C427 C428 1.355 . S
C427 C429 1.415 . S
C428 C427 1.355 . S
C428 C430 1.419 . S
C429 C424 1.425 . S
C429 C426 1.409 . S
C429 C427 1.415 . S
C430 H420 0.930 . S
C430 C428 1.419 . S
C430 C431 1.362 . S
C431 H421 0.930 . S
C431 C424 1.409 . S
C431 C430 1.362 . S
H432 C438 0.930 . S
H433 C441 0.930 . S
H434 C442 0.930 . S
H435 C443 0.930 . S
H436 C446 0.930 . S
H437 C447 0.930 . S
C438 H432 0.930 . S
C438 C439 1.355 . S
C438 C440 1.415 . S
C439 C438 1.355 . S
C439 C441 1.419 . S
C440 C438 1.415 . S
C440 C445 1.425 . S
C440 C447 1.409 . S
C441 H433 0.930 . S
C441 C439 1.419 . S
C441 C442 1.362 . S
C442 H434 0.930 . S
C442 C441 1.362 . S
C442 C445 1.409 . S
C443 H435 0.930 . S
C443 C444 1.355 . S
C443 C445 1.415 . S
C444 C443 1.355 . S
C444 C446 1.419 . S
C445 C440 1.425 . S
C445 C442 1.409 . S
C445 C443 1.415 . S
C446 H436 0.930 . S
C446 C444 1.419 . S
C446 C447 1.362 . S
C447 H437 0.930 . S
C447 C440 1.409 . S
C447 C446 1.362 . S
H448 C454 0.930 . S
H449 C457 0.930 . S
H450 C458 0.930 . S
H451 C459 0.930 . S
H452 C462 0.930 . S
H453 C463 0.930 . S
C454 H448 0.930 . S
C454 C455 1.355 . S
C454 C456 1.415 . S
C455 C454 1.355 . S
C455 C457 1.419 . S
C456 C454 1.415 . S
C456 C461 1.425 . S
C456 C463 1.409 . S
C457 H449 0.930 . S
C457 C455 1.419 . S
C457 C458 1.362 . S
C458 H450 0.930 . S
C458 C457 1.362 . S
C458 C461 1.409 . S
C459 H451 0.930 . S
C459 C460 1.355 . S
C459 C461 1.415 . S
C460 C459 1.355 . S
C460 C462 1.419 . S
C461 C456 1.425 . S
C461 C458 1.409 . S
C461 C459 1.415 . S
C462 H452 0.930 . S
C462 C460 1.419 . S
C462 C463 1.362 . S
C463 H453 0.930 . S
C463 C456 1.409 . S
C463 C462 1.362 . S
H464 C470 0.930 1_565 S
H465 C473 0.930 . S
H466 C474 0.930 1_655 S
H467 C475 0.930 1_545 S
H468 C478 0.930 . S
H469 C479 0.930 1_455 S
C470 H464 0.930 1_545 S
C470 C471 1.355 . S
C470 C472 1.415 1_545 S
C471 C470 1.355 . S
C471 C473 1.419 . S
C472 C470 1.415 1_565 S
C472 C477 1.425 1_465 S
C472 C479 1.409 1_455 S
C473 H465 0.930 . S
C473 C471 1.419 . S
C473 C474 1.362 . S
C474 H466 0.930 1_455 S
C474 C473 1.362 . S
C474 C477 1.409 1_455 S
C475 H467 0.930 1_565 S
C475 C476 1.355 . S
C475 C477 1.415 1_565 S
C476 C475 1.355 . S
C476 C478 1.419 . S
C477 C472 1.425 1_645 S
C477 C474 1.409 1_655 S
C477 C475 1.415 1_545 S
C478 H468 0.930 . S
C478 C476 1.419 . S
C478 C479 1.362 . S
C479 H469 0.930 1_655 S
C479 C472 1.409 1_655 S
C479 C478 1.362 . S
H480 C486 0.930 . S
H481 C489 0.930 . S
H482 C490 0.930 . S
H483 C491 0.930 . S
H484 C494 0.930 . S
H485 C495 0.930 . S
C486 H480 0.930 . S
C486 C487 1.355 . S
C486 C488 1.415 . S
C487 C486 1.355 . S
C487 C489 1.419 1_455 S
C488 C486 1.415 . S
C488 C493 1.425 1_455 S
C488 C495 1.409 . S
C489 H481 0.930 . S
C489 C487 1.419 1_655 S
C489 C490 1.362 . S
C490 H482 0.930 . S
C490 C489 1.362 . S
C490 C493 1.409 . S
C491 H483 0.930 . S
C491 C492 1.355 . S
C491 C493 1.415 . S
C492 C491 1.355 . S
C492 C494 1.419 1_655 S
C493 C488 1.425 1_655 S
C493 C490 1.409 . S
C493 C491 1.415 . S
C494 H484 0.930 . S
C494 C492 1.419 1_455 S
C494 C495 1.362 . S
C495 H485 0.930 . S
C495 C488 1.409 . S
C495 C494 1.362 . S
H496 C502 0.930 . S
H497 C505 0.930 . S
H498 C506 0.930 . S
H499 C507 0.930 . S
H500 C510 0.930 . S
H501 C511 0.930 . S
C502 H496 0.930 . S
C502 C503 1.355 . S
C502 C504 1.415 . S
C503 C502 1.355 . S
C503 C505 1.419 . S
C504 C502 1.415 . S
C504 C509 1.425 . S
C504 C511 1.409 . S
C505 H497 0.930 . S
C505 C503 1.419 . S
C505 C506 1.362 . S
C506 H498 0.930 . S
C506 C505 1.362 . S
C506 C509 1.409 . S
C507 H499 0.930 . S
C507 C508 1.355 . S
C507 C509 1.415 . S
C508 C507 1.355 . S
C508 C510 1.419 . S
C509 C504 1.425 . S
C509 C506 1.409 . S
C509 C507 1.415 . S
C510 H500 0.930 . S
C510 C508 1.419 . S
C510 C511 1.362 . S
C511 H501 0.930 . S
C511 C504 1.409 . S
C511 C510 1.362 . S
H512 C518 0.930 . S
H513 C521 0.930 . S
H514 C522 0.930 . S
H515 C523 0.930 . S
H516 C526 0.930 . S
H517 C527 0.930 . S
C518 H512 0.930 . S
C518 C519 1.355 . S
C518 C520 1.407 1_545 S
C519 C518 1.355 . S
C519 C521 1.419 . S
C520 C518 1.407 1_565 S
C520 C525 1.425 1_565 S
C520 C527 1.417 . S
C521 H513 0.930 . S
C521 C519 1.419 . S
C521 C522 1.362 . S
C522 H514 0.930 . S
C522 C521 1.362 . S
C522 C525 1.417 . S
C523 H515 0.930 . S
C523 C524 1.355 . S
C523 C525 1.407 1_565 S
C524 C523 1.355 . S
C524 C526 1.419 . S
C525 C520 1.425 1_545 S
C525 C522 1.417 . S
C525 C523 1.407 1_545 S
C526 H516 0.930 . S
C526 C524 1.419 . S
C526 C527 1.362 . S
C527 H517 0.930 . S
C527 C520 1.417 . S
C527 C526 1.362 . S
H528 C534 0.930 . S
H529 C537 0.930 . S
H530 C538 0.930 . S
H531 C539 0.930 . S
H532 C542 0.930 . S
H533 C543 0.930 . S
C534 H528 0.930 . S
C534 C535 1.355 . S
C534 C536 1.403 1_455 S
C535 C534 1.355 . S
C535 C537 1.419 . S
C536 C534 1.403 1_655 S
C536 C541 1.425 1_655 S
C536 C543 1.421 . S
C537 H529 0.930 . S
C537 C535 1.419 . S
C537 C538 1.362 . S
C538 H530 0.930 . S
C538 C537 1.362 . S
C538 C541 1.421 . S
C539 H531 0.930 . S
C539 C540 1.355 . S
C539 C541 1.403 1_655 S
C540 C539 1.355 . S
C540 C542 1.419 . S
C541 C536 1.425 1_455 S
C541 C538 1.421 . S
C541 C539 1.403 1_455 S
C542 H532 0.930 . S
C542 C540 1.419 . S
C542 C543 1.362 . S
C543 H533 0.930 . S
C543 C536 1.421 . S
C543 C542 1.362 . S
H544 C550 0.930 . S
H545 C553 0.930 . S
H546 C554 0.930 . S
H547 C555 0.930 . S
H548 C558 0.930 . S
H549 C559 0.930 . S
C550 H544 0.930 . S
C550 C551 1.355 . S
C550 C552 1.415 . S
C551 C550 1.355 . S
C551 C553 1.419 . S
C552 C550 1.415 . S
C552 C557 1.425 . S
C552 C559 1.409 . S
C553 H545 0.930 . S
C553 C551 1.419 . S
C553 C554 1.362 . S
C554 H546 0.930 . S
C554 C553 1.362 . S
C554 C557 1.409 . S
C555 H547 0.930 . S
C555 C556 1.355 . S
C555 C557 1.415 . S
C556 C555 1.355 . S
C556 C558 1.419 . S
C557 C552 1.425 . S
C557 C554 1.409 . S
C557 C555 1.415 . S
C558 H548 0.930 . S
C558 C556 1.419 . S
C558 C559 1.362 . S
C559 H549 0.930 . S
C559 C552 1.409 . S
C559 C558 1.362 . S
H560 C566 0.930 . S
H561 C569 0.930 . S
H562 C570 0.930 . S
H563 C571 0.930 . S
H564 C574 0.930 . S
H565 C575 0.930 . S
C566 H560 0.930 . S
C566 C567 1.355 . S
C566 C568 1.415 . S
C567 C566 1.355 . S
C567 C569 1.419 . S
C568 C566 1.415 . S
C568 C573 1.425 1_565 S
C568 C575 1.409 . S
C569 H561 0.930 . S
C569 C567 1.419 . S
C569 C570 1.362 1_565 S
C570 H562 0.930 . S
C570 C569 1.362 1_545 S
C570 C573 1.409 . S
C571 H563 0.930 . S
C571 C572 1.355 . S
C571 C573 1.415 . S
C572 C571 1.355 . S
C572 C574 1.419 . S
C573 C568 1.425 1_545 S
C573 C570 1.409 . S
C573 C571 1.415 . S
C574 H564 0.930 . S
C574 C572 1.419 . S
C574 C575 1.362 1_545 S
C575 H565 0.930 . S
C575 C568 1.409 . S
C575 C574 1.362 1_565 S
H576 C582 0.930 . S
H577 C585 0.930 . S
H578 C586 0.930 1_565 S
H579 C587 0.930 . S
H580 C590 0.930 . S
H581 C591 0.930 1_545 S
C582 H576 0.930 . S
C582 C583 1.355 . S
C582 C584 1.415 1_455 S
C583 C582 1.355 . S
C583 C585 1.419 . S
C584 C582 1.415 1_655 S
C584 C589 1.425 1_645 S
C584 C591 1.409 1_545 S
C585 H577 0.930 . S
C585 C583 1.419 . S
C585 C586 1.362 . S
C586 H578 0.930 1_545 S
C586 C585 1.362 . S
C586 C589 1.409 1_545 S
C587 H579 0.930 . S
C587 C588 1.355 . S
C587 C589 1.415 1_655 S
C588 C587 1.355 . S
C588 C590 1.419 . S
C589 C584 1.425 1_465 S
C589 C586 1.409 1_565 S
C589 C587 1.415 1_455 S
C590 H580 0.930 . S
C590 C588 1.419 . S
C590 C591 1.362 . S
C591 H581 0.930 1_565 S
C591 C584 1.409 1_565 S
C591 C590 1.362 . S
H592 C598 0.930 . S
H593 C601 0.930 . S
H594 C602 0.930 . S
H595 C603 0.930 . S
H596 C606 0.930 . S
H597 C607 0.930 . S
C598 H592 0.930 . S
C598 C599 1.355 1_545 S
C598 C600 1.415 . S
C599 C598 1.355 1_565 S
C599 C601 1.419 . S
C600 C598 1.415 . S
C600 C605 1.425 1_545 S
C600 C607 1.409 . S
C601 H593 0.930 . S
C601 C599 1.419 . S
C601 C602 1.362 . S
C602 H594 0.930 . S
C602 C601 1.362 . S
C602 C605 1.409 . S
C603 H595 0.930 . S
C603 C604 1.355 1_565 S
C603 C605 1.415 . S
C604 C603 1.355 1_545 S
C604 C606 1.419 . S
C605 C600 1.425 1_565 S
C605 C602 1.409 . S
C605 C603 1.415 . S
C606 H596 0.930 . S
C606 C604 1.419 . S
C606 C607 1.362 . S
C607 H597 0.930 . S
C607 C600 1.409 . S
C607 C606 1.362 . S
H608 C614 0.930 . S
H609 C617 0.930 . S
H610 C618 0.930 1_545 S
H611 C619 0.930 . S
H612 C622 0.930 . S
H613 C623 0.930 1_565 S
C614 H608 0.930 . S
C614 C615 1.355 1_455 S
C614 C616 1.415 . S
C615 C614 1.355 1_655 S
C615 C617 1.419 . S
C616 C614 1.415 . S
C616 C621 1.425 1_465 S
C616 C623 1.409 1_565 S
C617 H609 0.930 . S
C617 C615 1.419 . S
C617 C618 1.362 . S
C618 H610 0.930 1_565 S
C618 C617 1.362 . S
C618 C621 1.409 1_565 S
C619 H611 0.930 . S
C619 C620 1.355 1_655 S
C619 C621 1.415 . S
C620 C619 1.355 1_455 S
C620 C622 1.419 . S
C621 C616 1.425 1_645 S
C621 C618 1.409 1_545 S
C621 C619 1.415 . S
C622 H612 0.930 . S
C622 C620 1.419 . S
C622 C623 1.362 . S
C623 H613 0.930 1_545 S
C623 C616 1.409 1_545 S
C623 C622 1.362 . S
H624 C630 0.930 . S
H625 C633 0.930 . S
H626 C634 0.930 . S
H627 C635 0.930 . S
H628 C638 0.930 . S
H629 C639 0.930 . S
C630 H624 0.930 . S
C630 C631 1.355 . S
C630 C632 1.415 . S
C631 C630 1.355 . S
C631 C633 1.419 . S
C632 C630 1.415 . S
C632 C637 1.425 1_455 S
C632 C639 1.408 1_455 S
C633 H625 0.930 . S
C633 C631 1.419 . S
C633 C634 1.362 . S
C634 H626 0.930 . S
C634 C633 1.362 . S
C634 C637 1.409 1_455 S
C635 H627 0.930 . S
C635 C636 1.355 . S
C635 C637 1.415 . S
C636 C635 1.355 . S
C636 C638 1.419 . S
C637 C632 1.425 1_655 S
C637 C634 1.409 1_655 S
C637 C635 1.415 . S
C638 H628 0.930 . S
C638 C636 1.419 . S
C638 C639 1.362 . S
C639 H629 0.930 . S
C639 C632 1.408 1_655 S
C639 C638 1.362 . S
H640 C646 0.930 . S
H641 C649 0.930 . S
H642 C650 0.930 . S
H643 C651 0.930 . S
H644 C654 0.930 . S
H645 C655 0.930 . S
C646 H640 0.930 . S
C646 C647 1.355 . S
C646 C648 1.415 . S
C647 C646 1.355 . S
C647 C649 1.419 . S
C648 C646 1.415 . S
C648 C653 1.425 . S
C648 C655 1.409 . S
C649 H641 0.930 . S
C649 C647 1.419 . S
C649 C650 1.362 . S
C650 H642 0.930 . S
C650 C649 1.362 . S
C650 C653 1.409 . S
C651 H643 0.930 . S
C651 C652 1.355 . S
C651 C653 1.415 . S
C652 C651 1.355 . S
C652 C654 1.419 . S
C653 C648 1.425 . S
C653 C650 1.409 . S
C653 C651 1.415 . S
C654 H644 0.930 . S
C654 C652 1.419 . S
C654 C655 1.362 . S
C655 H645 0.930 . S
C655 C648 1.409 . S
C655 C654 1.362 . S
H656 C662 0.930 . S
H657 C665 0.930 . S
H658 C666 0.930 . S
H659 C667 0.930 . S
H660 C670 0.930 . S
H661 C671 0.930 . S
C662 H656 0.930 . S
C662 C663 1.355 . S
C662 C664 1.415 . S
C663 C662 1.355 . S
C663 C665 1.419 . S
C664 C662 1.415 . S
C664 C669 1.425 . S
C664 C671 1.409 . S
C665 H657 0.930 . S
C665 C663 1.419 . S
C665 C666 1.362 . S
C666 H658 0.930 . S
C666 C665 1.362 . S
C666 C669 1.409 . S
C667 H659 0.930 . S
C667 C668 1.355 . S
C667 C669 1.415 . S
C668 C667 1.355 . S
C668 C670 1.419 . S
C669 C664 1.425 . S
C669 C666 1.409 . S
C669 C667 1.415 . S
C670 H660 0.930 . S
C670 C668 1.419 . S
C670 C671 1.362 . S
C671 H661 0.930 . S
C671 C664 1.409 . S
C671 C670 1.362 . S
H672 C678 0.930 . S
H673 C681 0.930 . S
H674 C682 0.930 . S
H675 C683 0.930 . S
H676 C686 0.930 . S
H677 C687 0.930 . S
C678 H672 0.930 . S
C678 C679 1.355 . S
C678 C680 1.415 . S
C679 C678 1.355 . S
C679 C681 1.419 . S
C680 C678 1.415 . S
C680 C685 1.425 1_545 S
C680 C687 1.409 1_545 S
C681 H673 0.930 . S
C681 C679 1.419 . S
C681 C682 1.362 . S
C682 H674 0.930 . S
C682 C681 1.362 . S
C682 C685 1.409 1_545 S
C683 H675 0.930 . S
C683 C684 1.355 . S
C683 C685 1.415 . S
C684 C683 1.355 . S
C684 C686 1.419 . S
C685 C680 1.425 1_565 S
C685 C682 1.409 1_565 S
C685 C683 1.415 . S
C686 H676 0.930 . S
C686 C684 1.419 . S
C686 C687 1.362 . S
C687 H677 0.930 . S
C687 C680 1.409 1_565 S
C687 C686 1.362 . S
H688 C694 0.930 . S
H689 C697 0.930 . S
H690 C698 0.930 . S
H691 C699 0.930 . S
H692 C702 0.930 . S
H693 C703 0.930 . S
C694 H688 0.930 . S
C694 C695 1.355 . S
C694 C696 1.417 . S
C695 C694 1.355 . S
C695 C697 1.419 1_565 S
C696 C694 1.417 . S
C696 C701 1.425 1_665 S
C696 C703 1.406 1_655 S
C697 H689 0.930 . S
C697 C695 1.419 1_545 S
C697 C698 1.362 . S
C698 H690 0.930 . S
C698 C697 1.362 . S
C698 C701 1.407 1_655 S
C699 H691 0.930 . S
C699 C700 1.355 . S
C699 C701 1.417 . S
C700 C699 1.355 . S
C700 C702 1.419 1_545 S
C701 C696 1.425 1_445 S
C701 C698 1.407 1_455 S
C701 C699 1.417 . S
C702 H692 0.930 . S
C702 C700 1.419 1_565 S
C702 C703 1.362 . S
C703 H693 0.930 . S
C703 C696 1.406 1_455 S
C703 C702 1.362 . S
H704 C710 0.930 . S
H705 C713 0.930 . S
H706 C714 0.930 . S
H707 C715 0.930 . S
H708 C718 0.930 . S
H709 C719 0.930 . S
C710 H704 0.930 . S
C710 C711 1.355 . S
C710 C712 1.415 . S
C711 C710 1.355 . S
C711 C713 1.419 1_655 S
C712 C710 1.415 . S
C712 C717 1.425 1_655 S
C712 C719 1.409 . S
C713 H705 0.930 . S
C713 C711 1.419 1_455 S
C713 C714 1.362 . S
C714 H706 0.930 . S
C714 C713 1.362 . S
C714 C717 1.409 . S
C715 H707 0.930 . S
C715 C716 1.355 . S
C715 C717 1.415 . S
C716 C715 1.355 . S
C716 C718 1.419 1_455 S
C717 C712 1.425 1_455 S
C717 C714 1.409 . S
C717 C715 1.415 . S
C718 H708 0.930 . S
C718 C716 1.419 1_655 S
C718 C719 1.362 . S
C719 H709 0.930 . S
C719 C712 1.409 . S
C719 C718 1.362 . S
C215 C60 1.101 . S
C220 C8 1.043 . S
C231 C21 1.133 . S
C236 C73 1.063 . S
C247 C86 1.125 . S
C252 C34 1.144 . S
C263 C99 1.045 . S
C268 C47 1.069 . S
C279 C164 1.111 . S
C284 C112 1.149 . S
C295 C125 1.148 . S
C300 C177 1.112 . S
C311 C190 1.132 . S
C316 C138 1.140 . S
C327 C151 1.092 . S
C332 C203 1.041 . S
C343 C10 1.265 . S
C348 C205 1.277 . S
C359 C23 1.278 . S
C364 C166 1.266 . S
C375 C36 1.265 . S
C380 C179 1.278 . S
C391 C192 1.268 . S
C396 C49 1.273 . S
C407 C62 1.270 . S
C412 C127 1.277 . S
C423 C75 1.265 . S
C428 C140 1.277 . S
C439 C153 1.266 . S
C444 C88 1.275 . S
C455 C114 1.269 . S
C460 C101 1.272 . S
C471 C0 1.441 . S
C476 C130 1.472 . S
C487 C143 1.495 . S
C492 C13 1.467 . S
C503 C26 1.464 . S
C508 C104 1.497 . S
C519 C117 1.487 . S
C524 C39 1.480 . S
C535 C52 1.486 . S
C540 C182 1.481 . S
C551 C65 1.443 . S
C556 C195 1.467 . S
C567 C156 1.443 . S
C572 C78 1.495 . S
C583 C169 1.440 . S
C588 C91 1.475 . S
C599 C135 1.393 . S
C604 C5 1.394 . S
C615 C18 1.390 . S
C620 C148 1.400 . S
C631 C31 1.472 . S
C636 C109 1.453 . S
C647 C122 1.388 . S
C652 C44 1.406 . S
C663 C187 1.468 . S
C668 C57 1.436 . S
C679 C200 1.460 . S
C684 C70 1.421 . S
C695 C161 1.472 . S
C700 C83 1.451 . S
C711 C96 1.471 . S
C716 C174 1.455 . S
