# Generated by pormake.
# Topology smt, (6)-cn, num edge types: 1
# Building blocks:
#     Node 0, Type 0, BuildingBlock: VOLQOD_clean_sbu_1, # of connection points: 6
#     Node 1, Type 0, BuildingBlock: VOLQOD_clean_sbu_1, # of connection points: 6
#     Node 2, Type 0, BuildingBlock: VOLQOD_clean_sbu_1, # of connection points: 6
#     Node 3, Type 0, BuildingBlock: VOLQOD_clean_sbu_1, # of connection points: 6
#     Node 4, Type 0, BuildingBlock: VOLQOD_clean_sbu_1, # of connection points: 6
#     Node 5, Type 0, BuildingBlock: VOLQOD_clean_sbu_1, # of connection points: 6
#     Edge 6, Type (0, 0), BuildingBlock: CIFDUS_clean_linker_0, # of connection points: 2
#     Edge 7, Type (0, 0), BuildingBlock: CIFDUS_clean_linker_0, # of connection points: 2
#     Edge 8, Type (0, 0), BuildingBlock: CIFDUS_clean_linker_0, # of connection points: 2
#     Edge 9, Type (0, 0), BuildingBlock: CIFDUS_clean_linker_0, # of connection points: 2
#     Edge 10, Type (0, 0), BuildingBlock: CIFDUS_clean_linker_0, # of connection points: 2
#     Edge 11, Type (0, 0), BuildingBlock: CIFDUS_clean_linker_0, # of connection points: 2
#     Edge 12, Type (0, 0), BuildingBlock: CIFDUS_clean_linker_0, # of connection points: 2
#     Edge 13, Type (0, 0), BuildingBlock: CIFDUS_clean_linker_0, # of connection points: 2
#     Edge 14, Type (0, 0), BuildingBlock: CIFDUS_clean_linker_0, # of connection points: 2
#     Edge 15, Type (0, 0), BuildingBlock: CIFDUS_clean_linker_0, # of connection points: 2
#     Edge 16, Type (0, 0), BuildingBlock: CIFDUS_clean_linker_0, # of connection points: 2
#     Edge 17, Type (0, 0), BuildingBlock: CIFDUS_clean_linker_0, # of connection points: 2
#     Edge 18, Type (0, 0), BuildingBlock: CIFDUS_clean_linker_0, # of connection points: 2
#     Edge 19, Type (0, 0), BuildingBlock: CIFDUS_clean_linker_0, # of connection points: 2
#     Edge 20, Type (0, 0), BuildingBlock: CIFDUS_clean_linker_0, # of connection points: 2
#     Edge 21, Type (0, 0), BuildingBlock: CIFDUS_clean_linker_0, # of connection points: 2
#     Edge 22, Type (0, 0), BuildingBlock: CIFDUS_clean_linker_0, # of connection points: 2
#     Edge 23, Type (0, 0), BuildingBlock: CIFDUS_clean_linker_0, # of connection points: 2
# Relax obj value: 0.336
# Max RMSD: 0.251
# Mean RMSD: 0.251
data_MOF--net-smt--node1-VOLQOD_clean_sbu_1--edge1-CIFDUS_clean_linker_0
_symmetry_space_group_name_H-M    P1
_symmetry_Int_Tables_number       1
_symmetry_cell_setting            triclinic
loop_
_symmetry_equiv_pos_as_xyz
'x, y, z'
_cell_length_a     32.792543
_cell_length_b     32.75194
_cell_length_c     24.280984
_cell_angle_alpha  90.113456
_cell_angle_beta   89.954706
_cell_angle_gamma 119.6456
loop_
_atom_site_label
_atom_site_type_symbol
_atom_site_fract_x
_atom_site_fract_y
_atom_site_fract_z
_atom_type_partial_charge
O0 O 0.45153 0.01908 0.07494 0.0
Zn1 Zn 0.46845 0.06372 0.00987 0.0
O2 O 0.42681 0.0892 0.01121 0.0
Zn3 Zn 0.40475 0.09307 0.93971 0.0
Zn4 Zn 0.37368 0.0525 0.05501 0.0
Zn5 Zn 0.45816 0.14811 0.04725 0.0
O6 O 0.42769 0.16138 0.91973 0.0
O7 O 0.47817 0.19614 0.98871 0.0
O8 O 0.46988 0.03823 0.93312 0.0
O9 O 0.43428 0.07 0.88607 0.0
O10 O 0.33538 0.0448 0.93036 0.0
O11 O 0.32511 0.00493 0.0081 0.0
O12 O 0.34799 0.09173 0.08472 0.0
O13 O 0.53407 0.11418 0.02895 0.0
O14 O 0.41449 0.15893 0.0959 0.0
O15 O 0.51583 0.15605 0.08587 0.0
C16 C 0.42326 0.01067 0.11523 0.0
C17 C 0.46146 0.19791 0.94202 0.0
C18 C 0.31163 0.00838 0.96014 0.0
C19 C 0.45642 0.04727 0.88755 0.0
C20 C 0.37022 0.13387 0.10177 0.0
C21 C 0.54494 0.14412 0.06762 0.0
O22 O 0.39216 0.02321 0.11439 0.0
O23 O 0.43193 0.47241 0.2375 0.0
Zn24 Zn 0.40507 0.48987 0.1734 0.0
O25 O 0.33858 0.45063 0.17228 0.0
Zn26 Zn 0.3159 0.40959 0.10961 0.0
Zn27 Zn 0.32097 0.41435 0.23699 0.0
Zn28 Zn 0.30948 0.48768 0.17274 0.0
O29 O 0.26642 0.41807 0.06792 0.0
O30 O 0.29287 0.49186 0.09568 0.0
O31 O 0.43257 0.48745 0.10059 0.0
O32 O 0.36937 0.43259 0.05707 0.0
O33 O 0.30008 0.34304 0.13078 0.0
O34 O 0.31823 0.35429 0.2198 0.0
O35 O 0.25743 0.40023 0.26131 0.0
O36 O 0.42185 0.55634 0.18918 0.0
O37 O 0.2479 0.45222 0.21236 0.0
O38 O 0.35314 0.5526 0.20339 0.0
C39 C 0.41408 0.46145 0.28562 0.0
C40 C 0.27014 0.45854 0.06165 0.0
C41 C 0.30773 0.32901 0.17673 0.0
C42 C 0.4129 0.46289 0.05787 0.0
C43 C 0.23229 0.41761 0.2455 0.0
C44 C 0.39796 0.57555 0.20369 0.0
O45 O 0.37035 0.44516 0.29367 0.0
O46 O 0.94689 0.42057 0.40899 0.0
Zn47 Zn 0.90166 0.39828 0.34556 0.0
O48 O 0.87437 0.33139 0.33778 0.0
Zn49 Zn 0.87417 0.31497 0.26129 0.0
Zn50 Zn 0.91006 0.3109 0.37927 0.0
Zn51 Zn 0.81365 0.30029 0.37037 0.0
O52 O 0.80816 0.26617 0.23667 0.0
O53 O 0.76814 0.26571 0.311 0.0
O54 O 0.92907 0.43209 0.27399 0.0
O55 O 0.89407 0.37239 0.2153 0.0
O56 O 0.92676 0.30016 0.24694 0.0
O57 O 0.95796 0.3116 0.33075 0.0
O58 O 0.87 0.24595 0.40738 0.0
O59 O 0.85277 0.41436 0.36897 0.0
O60 O 0.80627 0.25103 0.4254 0.0
O61 O 0.79682 0.34646 0.40221 0.0
C62 C 0.95542 0.39856 0.44647 0.0
C63 C 0.7693 0.253 0.26174 0.0
C64 C 0.95959 0.30514 0.27937 0.0
C65 C 0.91871 0.41626 0.22492 0.0
C66 C 0.82992 0.22991 0.42954 0.0
C67 C 0.81424 0.39047 0.39458 0.0
O68 O 0.94124 0.35479 0.44251 0.0
O69 O 0.51133 0.96186 0.57637 0.0
Zn70 Zn 0.49207 0.91929 0.50855 0.0
O71 O 0.52953 0.88866 0.50311 0.0
Zn72 Zn 0.55999 0.89665 0.43243 0.0
Zn73 Zn 0.57617 0.91231 0.5591 0.0
Zn74 Zn 0.49109 0.82336 0.51509 0.0
O75 O 0.53497 0.83445 0.39008 0.0
O76 O 0.47256 0.79208 0.44273 0.0
O77 O 0.49322 0.95058 0.43552 0.0
O78 O 0.54027 0.93365 0.38604 0.0
O79 O 0.63091 0.93798 0.43872 0.0
O80 O 0.63519 0.96073 0.52587 0.0
O81 O 0.58794 0.86255 0.58866 0.0
O82 O 0.42528 0.87148 0.52591 0.0
O83 O 0.52798 0.79773 0.554 0.0
O84 O 0.43136 0.80982 0.55278 0.0
C85 C 0.53436 0.96226 0.61908 0.0
C86 C 0.49475 0.79826 0.39783 0.0
C87 C 0.65375 0.96522 0.47866 0.0
C88 C 0.51448 0.95238 0.39067 0.0
C89 C 0.56598 0.81835 0.58157 0.0
C90 C 0.40773 0.83101 0.54795 0.0
O91 O 0.55842 0.94147 0.61941 0.0
O92 O 0.55092 0.53077 0.75117 0.0
Zn93 Zn 0.56667 0.50115 0.68912 0.0
O94 O 0.63281 0.53422 0.67865 0.0
Zn95 Zn 0.65021 0.55367 0.6045 0.0
Zn96 Zn 0.66111 0.58771 0.7253 0.0
Zn97 Zn 0.65611 0.49416 0.69673 0.0
O98 O 0.68918 0.52719 0.57168 0.0
O99 O 0.66298 0.46574 0.62781 0.0
O100 O 0.53214 0.49688 0.61942 0.0
O101 O 0.59181 0.52529 0.56058 0.0
O102 O 0.67436 0.62324 0.59707 0.0
O103 O 0.66277 0.64016 0.68247 0.0
O104 O 0.72682 0.60258 0.74348 0.0
O105 O 0.54523 0.43571 0.71604 0.0
O106 O 0.72101 0.53318 0.72534 0.0
O107 O 0.61218 0.44251 0.74678 0.0
C108 C 0.57546 0.55305 0.79297 0.0
C109 C 0.68234 0.48619 0.58296 0.0
C110 C 0.67038 0.65058 0.63154 0.0
C111 C 0.54809 0.50592 0.57048 0.0
C112 C 0.74482 0.57598 0.74023 0.0
C113 C 0.56752 0.42008 0.74371 0.0
O114 O 0.6202 0.57444 0.7919 0.0
O115 O 0.02421 0.53544 0.89817 0.0
Zn116 Zn 0.07088 0.56477 0.83602 0.0
O117 O 0.09251 0.63135 0.83446 0.0
Zn118 Zn 0.08253 0.65344 0.76527 0.0
Zn119 Zn 0.06479 0.64898 0.89244 0.0
Zn120 Zn 0.15779 0.66413 0.84462 0.0
O121 O 0.14288 0.69616 0.72355 0.0
O122 O 0.18834 0.67716 0.77211 0.0
O123 O 0.04338 0.53515 0.76147 0.0
O124 O 0.05014 0.59771 0.71729 0.0
O125 O 0.03704 0.67739 0.77337 0.0
O126 O 0.01405 0.65812 0.86036 0.0
O127 O 0.1109 0.71145 0.92431 0.0
O128 O 0.12431 0.55355 0.85733 0.0
O129 O 0.17631 0.72583 0.88056 0.0
O130 O 0.17896 0.62494 0.88412 0.0
C131 C 0.01835 0.55317 0.94236 0.0
C132 C 0.18035 0.69382 0.72896 0.0
C133 C 0.00956 0.67234 0.81322 0.0
C134 C 0.03726 0.5542 0.71875 0.0
C135 C 0.15362 0.73888 0.91172 0.0
C136 C 0.16367 0.58092 0.88003 0.0
O137 O 0.03616 0.59745 0.94845 0.0
H138 H 0.23738 0.94049 0.01383 0.0
H139 H 0.3026 0.97846 0.85374 0.0
H140 H 0.25748 0.89653 0.8239 0.0
H141 H 0.20902 0.81317 0.8485 0.0
H142 H 0.1439 0.77516 0.0086 0.0
H143 H 0.18046 0.85834 0.03411 0.0
C144 C 0.24057 0.93095 0.97186 0.0
C145 C 0.27348 0.96511 0.93616 0.0
C146 C 0.21598 0.88377 0.95587 0.0
C147 C 0.2772 0.95273 0.88177 0.0
C148 C 0.25209 0.9058 0.86509 0.0
C149 C 0.20307 0.82325 0.88903 0.0
C150 C 0.17526 0.78851 0.92746 0.0
C151 C 0.22324 0.87088 0.90273 0.0
C152 C 0.1661 0.8016 0.97901 0.0
C153 C 0.18666 0.84898 -0.00665 0.0
H154 H 0.26935 0.25267 0.10821 0.0
H155 H 0.35981 0.31185 0.24967 0.0
H156 H 0.3837 0.25273 0.24296 0.0
H157 H 0.38799 0.19174 0.18865 0.0
H158 H 0.29443 0.12855 0.05113 0.0
H159 H 0.26219 0.18108 0.06492 0.0
C160 C 0.29349 0.25191 0.13815 0.0
C161 C 0.31338 0.28708 0.17858 0.0
C162 C 0.30688 0.21735 0.13457 0.0
C163 C 0.34407 0.28531 0.21782 0.0
C164 C 0.35807 0.25165 0.21395 0.0
C165 C 0.35968 0.1888 0.16278 0.0
C166 C 0.34381 0.15703 0.11879 0.0
C167 C 0.34106 0.21866 0.17128 0.0
C168 C 0.30694 0.1529 0.08548 0.0
C169 C 0.28881 0.18313 0.09302 0.0
H170 H 0.02672 0.29714 0.3339 0.0
H171 H -0.00451 0.33622 0.17643 0.0
H172 H 0.07876 0.37575 0.15225 0.0
H173 H 0.16092 0.4072 0.18087 0.0
H174 H 0.19168 0.36903 0.33914 0.0
H175 H 0.10777 0.32233 0.35903 0.0
C176 C 0.03801 0.3134 0.29374 0.0
C177 C 0.00517 0.31429 0.25728 0.0
C178 C 0.08585 0.33767 0.28125 0.0
C179 C 0.02007 0.33486 0.20512 0.0
C180 C 0.06776 0.35821 0.19171 0.0
C181 C 0.14915 0.38907 0.21996 0.0
C182 C 0.18215 0.39246 0.25926 0.0
C183 C 0.10102 0.36151 0.23047 0.0
C184 C 0.16671 0.36752 0.30886 0.0
C185 C 0.11888 0.34055 0.31997 0.0
H186 H 0.81676 0.15086 0.3805 0.0
H187 H 0.7909 0.20453 0.53078 0.0
H188 H 0.74121 0.12435 0.56447 0.0
H189 H 0.69638 0.04103 0.54483 0.0
H190 H 0.71146 0.98716 0.38819 0.0
H191 H 0.77525 0.06537 0.36351 0.0
C192 C 0.80106 0.14468 0.42117 0.0
C193 C 0.80727 0.1829 0.45357 0.0
C194 C 0.77048 0.09865 0.43863 0.0
C195 C 0.78635 0.17522 0.50559 0.0
C196 C 0.75798 0.12955 0.52461 0.0
C197 C 0.71416 0.04591 0.50568 0.0
C198 C 0.69881 0.00838 0.46809 0.0
C199 C 0.74845 0.09117 0.49056 0.0
C200 C 0.72241 0.01555 0.41766 0.0
C201 C 0.75864 0.06029 0.40345 0.0
H202 H 0.58497 0.76245 0.51898 0.0
H203 H 0.60011 0.81801 0.68329 0.0
H204 H 0.64083 0.77572 0.71201 0.0
H205 H 0.66721 0.71917 0.69115 0.0
H206 H 0.65465 0.66629 0.52524 0.0
H207 H 0.61975 0.7132 0.4956 0.0
C208 C 0.59695 0.76484 0.56114 0.0
C209 C 0.58854 0.79175 0.59965 0.0
C210 C 0.62161 0.74191 0.57659 0.0
C211 C 0.60555 0.79643 0.65357 0.0
C212 C 0.62905 0.77266 0.66974 0.0
C213 C 0.65779 0.71866 0.64823 0.0
C214 C 0.6629 0.6887 0.61072 0.0
C215 C 0.63684 0.74495 0.63166 0.0
C216 C 0.6511 0.68896 0.55509 0.0
C217 C 0.63051 0.71528 0.53819 0.0
H218 H 0.95741 0.63668 0.72328 0.0
H219 H 0.96165 0.70234 0.87872 0.0
H220 H 0.87938 0.68214 0.86727 0.0
H221 H 0.80372 0.63681 0.81781 0.0
H222 H 0.79939 0.56166 0.66982 0.0
H223 H 0.88407 0.59407 0.67352 0.0
C224 C 0.94071 0.64784 0.7538 0.0
C225 C 0.96532 0.67143 0.8013 0.0
C226 C 0.89303 0.63321 0.74883 0.0
C227 C 0.94314 0.68453 0.8415 0.0
C228 C 0.89613 0.67255 0.83522 0.0
C229 C 0.82165 0.62792 0.78648 0.0
C230 C 0.79578 0.5966 0.74411 0.0
C231 C 0.87025 0.64536 0.78998 0.0
C232 C 0.81885 0.58508 0.70342 0.0
C233 C 0.86718 0.60384 0.70522 0.0
H234 H 0.50518 0.01974 0.15176 0.0
H235 H 0.36026 0.96515 0.19762 0.0
H236 H 0.37663 0.94646 0.2896 0.0
H237 H 0.43247 0.94568 0.35707 0.0
H238 H 0.57706 0.00011 0.3101 0.0
H239 H 0.56083 0.02014 0.21899 0.0
C240 C 0.47698 0.00295 0.18153 0.0
C241 C 0.43144 -0.00684 0.16767 0.0
C242 C 0.48687 -0.00659 0.23459 0.0
C243 C 0.39554 0.97256 0.20719 0.0
C244 C 0.40495 0.96225 0.25991 0.0
C245 C 0.46051 0.96284 0.32718 0.0
C246 C 0.50593 0.97188 0.34024 0.0
C247 C 0.4506 0.97296 0.27426 0.0
C248 C 0.54185 -0.00687 0.30089 0.0
C249 C 0.53253 0.00418 0.2487 0.0
H250 H 0.38913 0.44855 0.39333 0.0
H251 H 0.50812 0.49249 0.28473 0.0
H252 H 0.5596 0.50932 0.36393 0.0
H253 H 0.57101 0.51346 0.46289 0.0
H254 H 0.45282 0.47043 0.57243 0.0
H255 H 0.40048 0.45122 0.49316 0.0
C256 C 0.42628 0.4616 0.38689 0.0
C257 C 0.44481 0.46942 0.33324 0.0
C258 C 0.45571 0.47152 0.43249 0.0
C259 C 0.493 0.48631 0.32562 0.0
C260 C 0.52246 0.49598 0.37082 0.0
C261 C 0.53381 0.49992 0.46969 0.0
C262 C 0.51584 0.49362 0.52346 0.0
C263 C 0.5042 0.48908 0.4243 0.0
C264 C 0.46751 0.4757 0.53138 0.0
C265 C 0.43762 0.46472 0.48615 0.0
H266 H 0.03552 0.47352 0.68475 0.0
H267 H -0.00645 0.57465 0.63825 0.0
H268 H 0.96765 0.53709 0.549 0.0
H269 H 0.95809 0.47722 0.48355 0.0
H270 H -0.0033 0.37337 0.52803 0.0
H271 H 0.02346 0.41078 0.61839 0.0
C272 C 0.02014 0.48682 0.65526 0.0
C273 C 0.01671 0.52692 0.668 0.0
C274 C 0.00551 0.4652 0.60338 0.0
C275 C -0.00303 0.54405 0.62931 0.0
C276 C -0.01775 0.52273 0.57814 0.0
C277 C 0.97294 0.46301 0.51261 0.0
C278 C 0.97601 0.423 0.49886 0.0
C279 C -0.01304 0.48379 0.56451 0.0
C280 C -0.00565 0.40447 0.53756 0.0
C281 C 0.00937 0.42565 0.58928 0.0
H282 H 0.47017 -0.01088 0.64369 0.0
H283 H 0.5865 0.97981 0.71291 0.0
H284 H 0.5722 0.00392 0.80268 0.0
H285 H 0.52485 0.02537 0.86272 0.0
H286 H 0.40859 0.03413 0.79221 0.0
H287 H 0.42447 0.01215 0.70241 0.0
C288 C 0.49284 -0.00701 0.67816 0.0
C289 C 0.52931 0.98267 0.67141 0.0
C290 C 0.48406 0.00618 0.72991 0.0
C291 C 0.55807 -0.01251 0.71684 0.0
C292 C 0.54982 0.00107 0.76837 0.0
C293 C 0.5029 0.02214 0.82774 0.0
C294 C 0.46563 0.03133 0.8343 0.0
C295 C 0.51247 0.00987 0.77564 0.0
C296 C 0.43771 0.02748 0.78838 0.0
C297 C 0.44674 0.01495 0.73685 0.0
H298 H 0.50017 0.53599 0.03547 0.0
H299 H 0.38492 0.41138 0.9637 0.0
H300 H 0.42413 0.43083 0.87494 0.0
H301 H 0.48958 0.48281 0.8177 0.0
H302 H 0.60735 0.60603 0.88743 0.0
H303 H 0.56803 0.58782 0.97733 0.0
C304 C 0.4839 0.51286 0.00054 0.0
C305 C 0.4396 0.4724 0.0062 0.0
C306 C 0.50654 0.52435 0.94927 0.0
C307 C 0.4189 0.44285 0.9605 0.0
C308 C 0.44115 0.454 0.90962 0.0
C309 C 0.50653 0.50625 0.85224 0.0
C310 C 0.55095 0.54612 0.84584 0.0
C311 C 0.48458 0.49486 0.90349 0.0
C312 C 0.57287 0.57536 0.89138 0.0
C313 C 0.55057 0.56479 0.94271 0.0
H314 H 0.0165 0.5778 0.049 0.0
H315 H 0.96323 0.45774 0.94022 0.0
H316 H 0.92593 0.40524 0.01797 0.0
H317 H 0.91176 0.3932 0.11673 0.0
H318 H 0.96708 0.51262 0.22664 0.0
H319 H 0.00023 0.5657 0.14816 0.0
C320 C -0.00367 0.54018 0.04216 0.0
C321 C -0.00723 0.52175 0.98883 0.0
C322 C 0.97561 0.5101 0.08719 0.0
C323 C 0.96674 0.47288 0.98083 0.0
C324 C 0.9454 0.44281 0.02527 0.0
C325 C 0.93079 0.43084 0.12371 0.0
C326 C 0.93703 0.44885 0.17761 0.0
C327 C 0.95017 0.46102 0.07864 0.0
C328 C 0.9619 0.49777 0.18565 0.0
C329 C 0.98085 0.52814 0.14079 0.0
H330 H 0.43166 0.22246 0.84897 0.0
H331 H 0.5445 0.27482 0.96787 0.0
H332 H 0.58715 0.34735 0.91651 0.0
H333 H 0.59401 0.39546 0.83698 0.0
H334 H 0.48077 0.34654 0.7196 0.0
H335 H 0.43681 0.27318 0.7711 0.0
C336 C 0.46545 0.24985 0.8637 0.0
C337 C 0.48481 0.24297 0.91203 0.0
C338 C 0.48996 0.292 0.83411 0.0
C339 C 0.52855 0.27902 0.93085 0.0
C340 C 0.55322 0.32058 0.90141 0.0
C341 C 0.55981 0.36861 0.82254 0.0
C342 C 0.54085 0.37594 0.77439 0.0
C343 C 0.53451 0.32723 0.85278 0.0
C344 C 0.49609 0.34143 0.75664 0.0
C345 C 0.47098 0.29956 0.786 0.0
H346 H 0.13527 0.4896 0.90682 0.0
H347 H 0.25606 0.6292 0.90604 0.0
H348 H 0.30166 0.6008 0.95506 0.0
H349 H 0.30464 0.53946 0.00749 0.0
H350 H 0.18443 0.4003 0.01401 0.0
H351 H 0.14138 0.42495 0.95199 0.0
C352 C 0.17175 0.51357 0.9167 0.0
C353 C 0.19199 0.56162 0.90371 0.0
C354 C 0.19777 0.49713 0.94589 0.0
C355 C 0.23938 0.59225 0.91647 0.0
C356 C 0.26558 0.57606 0.94435 0.0
C357 C 0.26922 0.5143 -0.00541 0.0
C358 C 0.24732 0.46847 0.01561 0.0
C359 C 0.24469 0.52905 0.9607 0.0
C360 C 0.20186 0.43583 -0.00189 0.0
C361 C 0.1772 0.45008 0.96319 0.0
H362 H 0.56189 0.15825 0.17576 0.0
H363 H 0.62974 0.16928 0.02015 0.0
H364 H 0.70599 0.20147 0.06668 0.0
H365 H 0.75343 0.2302 0.15194 0.0
H366 H 0.68247 0.21416 0.30725 0.0
H367 H 0.60741 0.17946 0.26056 0.0
C368 C 0.59346 0.1679 0.1521 0.0
C369 C 0.59072 0.16251 0.09479 0.0
C370 C 0.63654 0.18515 0.1791 0.0
C371 C 0.63141 0.17371 0.06447 0.0
C372 C 0.67485 0.192 0.09102 0.0
C373 C 0.7215 0.21851 0.17557 0.0
C374 C 0.72389 0.22558 0.23292 0.0
C375 C 0.67791 0.19832 0.1484 0.0
C376 C 0.682 0.20986 0.26297 0.0
C377 C 0.63886 0.19003 0.23636 0.0
H378 H 0.53473 0.76666 0.32212 0.0
H379 H 0.40198 0.74919 0.37746 0.0
H380 H 0.3601 0.68194 0.31661 0.0
H381 H 0.36058 0.62273 0.25615 0.0
H382 H 0.49264 0.63662 0.20362 0.0
H383 H 0.53509 0.71051 0.25404 0.0
C384 C 0.49673 0.74856 0.31992 0.0
C385 C 0.47147 0.76239 0.3546 0.0
C386 C 0.47259 0.70889 0.28572 0.0
C387 C 0.42218 0.73866 0.35165 0.0
C388 C 0.39813 0.70021 0.31686 0.0
C389 C 0.39862 0.64225 0.2549 0.0
C390 C 0.42324 0.62376 0.2267 0.0
C391 C 0.42289 0.68412 0.28501 0.0
C392 C 0.47264 0.64973 0.22548 0.0
C393 C 0.49707 0.69203 0.25442 0.0
H394 H 0.7361 0.3522 0.45777 0.0
H395 H 0.8402 0.48371 0.38678 0.0
H396 H 0.80587 0.52486 0.43527 0.0
H397 H 0.75005 0.5242 0.50391 0.0
H398 H 0.64877 0.39241 0.57696 0.0
H399 H 0.67816 0.35075 0.52126 0.0
C400 C 0.75111 0.3898 0.45238 0.0
C401 C 0.79089 0.41482 0.41913 0.0
C402 C 0.73185 0.41331 0.48103 0.0
C403 C 0.8097 0.46355 0.41248 0.0
C404 C 0.79015 0.48717 0.44024 0.0
C405 C 0.73412 0.48633 0.50699 0.0
C406 C 0.6977 0.4615 0.54481 0.0
C407 C 0.7518 0.46253 0.47554 0.0
C408 C 0.67733 0.41242 0.54861 0.0
C409 C 0.69401 0.38849 0.51675 0.0
H410 H 0.35516 0.74189 0.58437 0.0
H411 H 0.35269 0.87149 0.56333 0.0
H412 H 0.27743 0.8379 0.61127 0.0
H413 H 0.2168 0.77443 0.66872 0.0
H414 H 0.22312 0.64726 0.69268 0.0
H415 H 0.29184 0.67679 0.63333 0.0
C416 C 0.33804 0.76274 0.5898 0.0
C417 C 0.35987 0.8093 0.57112 0.0
C418 C 0.29533 0.74356 0.61799 0.0
C419 C 0.33679 0.83557 0.57773 0.0
C420 C 0.29377 0.81644 0.60522 0.0
C421 C 0.23273 0.75298 0.65966 0.0
C422 C 0.21545 0.70904 0.68496 0.0
C423 C 0.27329 0.77086 0.62683 0.0
C424 C 0.23633 0.68144 0.6737 0.0
C425 C 0.27563 0.69831 0.64 0.0
loop_
_geom_bond_atom_site_label_1
_geom_bond_atom_site_label_2
_geom_bond_distance
_geom_bond_site_symmetry_2
_ccdc_geom_bond_type
O0 Zn1 1.953 . S
O0 C16 1.225 . S
Zn1 O0 1.953 . S
Zn1 O2 1.949 . S
Zn1 O8 1.919 1_554 S
Zn1 O13 1.924 . S
O2 Zn1 1.949 . S
O2 Zn3 1.923 1_554 S
O2 Zn4 1.950 . S
O2 Zn5 1.945 . S
Zn3 O2 1.923 1_556 S
Zn3 O6 1.933 . S
Zn3 O9 1.941 . S
Zn3 O10 1.965 . S
Zn4 O2 1.950 . S
Zn4 O11 1.938 . S
Zn4 O12 1.906 . S
Zn4 O22 1.953 . S
Zn5 O2 1.945 . S
Zn5 O7 1.932 1_554 S
Zn5 O14 1.977 . S
Zn5 O15 1.910 . S
O6 Zn3 1.933 . S
O6 C17 1.226 . S
O7 Zn5 1.932 1_556 S
O7 C17 1.307 . S
O8 Zn1 1.919 1_556 S
O8 C19 1.253 . S
O9 Zn3 1.941 . S
O9 C19 1.283 . S
O10 Zn3 1.965 . S
O10 C18 1.303 . S
O11 Zn4 1.938 . S
O11 C18 1.247 1_554 S
O12 Zn4 1.906 . S
O12 C20 1.304 . S
O13 Zn1 1.924 . S
O13 C21 1.311 . S
O14 Zn5 1.977 . S
O14 C20 1.272 . S
O15 Zn5 1.910 . S
O15 C21 1.231 . S
C16 O0 1.225 . S
C16 O22 1.298 . S
C17 O6 1.226 . S
C17 O7 1.307 . S
C18 O10 1.303 . S
C18 O11 1.247 1_556 S
C19 O8 1.253 . S
C19 O9 1.283 . S
C20 O12 1.304 . S
C20 O14 1.272 . S
C21 O13 1.311 . S
C21 O15 1.231 . S
O22 Zn4 1.953 . S
O22 C16 1.298 . S
O23 Zn24 1.953 . S
O23 C39 1.225 . S
Zn24 O23 1.953 . S
Zn24 O25 1.949 . S
Zn24 O31 1.919 . S
Zn24 O36 1.924 . S
O25 Zn24 1.949 . S
O25 Zn26 1.923 . S
O25 Zn27 1.950 . S
O25 Zn28 1.945 . S
Zn26 O25 1.923 . S
Zn26 O29 1.933 . S
Zn26 O32 1.941 . S
Zn26 O33 1.965 . S
Zn27 O25 1.950 . S
Zn27 O34 1.938 . S
Zn27 O35 1.906 . S
Zn27 O45 1.953 . S
Zn28 O25 1.945 . S
Zn28 O30 1.932 . S
Zn28 O37 1.977 . S
Zn28 O38 1.910 . S
O29 Zn26 1.933 . S
O29 C40 1.226 . S
O30 Zn28 1.932 . S
O30 C40 1.307 . S
O31 Zn24 1.919 . S
O31 C42 1.253 . S
O32 Zn26 1.941 . S
O32 C42 1.283 . S
O33 Zn26 1.965 . S
O33 C41 1.303 . S
O34 Zn27 1.938 . S
O34 C41 1.247 . S
O35 Zn27 1.906 . S
O35 C43 1.304 . S
O36 Zn24 1.924 . S
O36 C44 1.311 . S
O37 Zn28 1.977 . S
O37 C43 1.272 . S
O38 Zn28 1.910 . S
O38 C44 1.231 . S
C39 O23 1.225 . S
C39 O45 1.298 . S
C40 O29 1.226 . S
C40 O30 1.307 . S
C41 O33 1.303 . S
C41 O34 1.247 . S
C42 O31 1.253 . S
C42 O32 1.283 . S
C43 O35 1.304 . S
C43 O37 1.272 . S
C44 O36 1.311 . S
C44 O38 1.231 . S
O45 Zn27 1.953 . S
O45 C39 1.298 . S
O46 Zn47 1.953 . S
O46 C62 1.225 . S
Zn47 O46 1.953 . S
Zn47 O48 1.949 . S
Zn47 O54 1.919 . S
Zn47 O59 1.924 . S
O48 Zn47 1.949 . S
O48 Zn49 1.923 . S
O48 Zn50 1.950 . S
O48 Zn51 1.945 . S
Zn49 O48 1.923 . S
Zn49 O52 1.933 . S
Zn49 O55 1.941 . S
Zn49 O56 1.965 . S
Zn50 O48 1.950 . S
Zn50 O57 1.938 . S
Zn50 O58 1.906 . S
Zn50 O68 1.953 . S
Zn51 O48 1.945 . S
Zn51 O53 1.932 . S
Zn51 O60 1.977 . S
Zn51 O61 1.910 . S
O52 Zn49 1.933 . S
O52 C63 1.226 . S
O53 Zn51 1.932 . S
O53 C63 1.307 . S
O54 Zn47 1.919 . S
O54 C65 1.253 . S
O55 Zn49 1.941 . S
O55 C65 1.283 . S
O56 Zn49 1.965 . S
O56 C64 1.303 . S
O57 Zn50 1.938 . S
O57 C64 1.247 . S
O58 Zn50 1.906 . S
O58 C66 1.304 . S
O59 Zn47 1.924 . S
O59 C67 1.311 . S
O60 Zn51 1.977 . S
O60 C66 1.272 . S
O61 Zn51 1.910 . S
O61 C67 1.231 . S
C62 O46 1.225 . S
C62 O68 1.298 . S
C63 O52 1.226 . S
C63 O53 1.307 . S
C64 O56 1.303 . S
C64 O57 1.247 . S
C65 O54 1.253 . S
C65 O55 1.283 . S
C66 O58 1.304 . S
C66 O60 1.272 . S
C67 O59 1.311 . S
C67 O61 1.231 . S
O68 Zn50 1.953 . S
O68 C62 1.298 . S
O69 Zn70 1.953 . S
O69 C85 1.225 . S
Zn70 O69 1.953 . S
Zn70 O71 1.949 . S
Zn70 O77 1.919 . S
Zn70 O82 1.924 . S
O71 Zn70 1.949 . S
O71 Zn72 1.923 . S
O71 Zn73 1.950 . S
O71 Zn74 1.945 . S
Zn72 O71 1.923 . S
Zn72 O75 1.933 . S
Zn72 O78 1.941 . S
Zn72 O79 1.965 . S
Zn73 O71 1.950 . S
Zn73 O80 1.938 . S
Zn73 O81 1.906 . S
Zn73 O91 1.953 . S
Zn74 O71 1.945 . S
Zn74 O76 1.932 . S
Zn74 O83 1.977 . S
Zn74 O84 1.910 . S
O75 Zn72 1.933 . S
O75 C86 1.226 . S
O76 Zn74 1.932 . S
O76 C86 1.307 . S
O77 Zn70 1.919 . S
O77 C88 1.253 . S
O78 Zn72 1.941 . S
O78 C88 1.283 . S
O79 Zn72 1.965 . S
O79 C87 1.303 . S
O80 Zn73 1.938 . S
O80 C87 1.247 . S
O81 Zn73 1.906 . S
O81 C89 1.304 . S
O82 Zn70 1.924 . S
O82 C90 1.311 . S
O83 Zn74 1.977 . S
O83 C89 1.272 . S
O84 Zn74 1.910 . S
O84 C90 1.231 . S
C85 O69 1.225 . S
C85 O91 1.298 . S
C86 O75 1.226 . S
C86 O76 1.307 . S
C87 O79 1.303 . S
C87 O80 1.247 . S
C88 O77 1.253 . S
C88 O78 1.283 . S
C89 O81 1.304 . S
C89 O83 1.272 . S
C90 O82 1.311 . S
C90 O84 1.231 . S
O91 Zn73 1.953 . S
O91 C85 1.298 . S
O92 Zn93 1.953 . S
O92 C108 1.225 . S
Zn93 O92 1.953 . S
Zn93 O94 1.949 . S
Zn93 O100 1.919 . S
Zn93 O105 1.924 . S
O94 Zn93 1.949 . S
O94 Zn95 1.923 . S
O94 Zn96 1.950 . S
O94 Zn97 1.945 . S
Zn95 O94 1.923 . S
Zn95 O98 1.933 . S
Zn95 O101 1.941 . S
Zn95 O102 1.965 . S
Zn96 O94 1.950 . S
Zn96 O103 1.938 . S
Zn96 O104 1.906 . S
Zn96 O114 1.953 . S
Zn97 O94 1.945 . S
Zn97 O99 1.932 . S
Zn97 O106 1.977 . S
Zn97 O107 1.910 . S
O98 Zn95 1.933 . S
O98 C109 1.226 . S
O99 Zn97 1.932 . S
O99 C109 1.307 . S
O100 Zn93 1.919 . S
O100 C111 1.253 . S
O101 Zn95 1.941 . S
O101 C111 1.283 . S
O102 Zn95 1.965 . S
O102 C110 1.303 . S
O103 Zn96 1.938 . S
O103 C110 1.247 . S
O104 Zn96 1.906 . S
O104 C112 1.304 . S
O105 Zn93 1.924 . S
O105 C113 1.311 . S
O106 Zn97 1.977 . S
O106 C112 1.272 . S
O107 Zn97 1.910 . S
O107 C113 1.231 . S
C108 O92 1.225 . S
C108 O114 1.298 . S
C109 O98 1.226 . S
C109 O99 1.307 . S
C110 O102 1.303 . S
C110 O103 1.247 . S
C111 O100 1.253 . S
C111 O101 1.283 . S
C112 O104 1.304 . S
C112 O106 1.272 . S
C113 O105 1.311 . S
C113 O107 1.231 . S
O114 Zn96 1.953 . S
O114 C108 1.298 . S
O115 Zn116 1.953 . S
O115 C131 1.225 . S
Zn116 O115 1.953 . S
Zn116 O117 1.949 . S
Zn116 O123 1.919 . S
Zn116 O128 1.924 . S
O117 Zn116 1.949 . S
O117 Zn118 1.923 . S
O117 Zn119 1.950 . S
O117 Zn120 1.945 . S
Zn118 O117 1.923 . S
Zn118 O121 1.933 . S
Zn118 O124 1.941 . S
Zn118 O125 1.965 . S
Zn119 O117 1.950 . S
Zn119 O126 1.938 . S
Zn119 O127 1.906 . S
Zn119 O137 1.953 . S
Zn120 O117 1.945 . S
Zn120 O122 1.932 . S
Zn120 O129 1.977 . S
Zn120 O130 1.910 . S
O121 Zn118 1.933 . S
O121 C132 1.226 . S
O122 Zn120 1.932 . S
O122 C132 1.307 . S
O123 Zn116 1.919 . S
O123 C134 1.253 . S
O124 Zn118 1.941 . S
O124 C134 1.283 . S
O125 Zn118 1.965 . S
O125 C133 1.303 . S
O126 Zn119 1.938 . S
O126 C133 1.247 . S
O127 Zn119 1.906 . S
O127 C135 1.304 . S
O128 Zn116 1.924 . S
O128 C136 1.311 . S
O129 Zn120 1.977 . S
O129 C135 1.272 . S
O130 Zn120 1.910 . S
O130 C136 1.231 . S
C131 O115 1.225 . S
C131 O137 1.298 . S
C132 O121 1.226 . S
C132 O122 1.307 . S
C133 O125 1.303 . S
C133 O126 1.247 . S
C134 O123 1.253 . S
C134 O124 1.283 . S
C135 O127 1.304 . S
C135 O129 1.272 . S
C136 O128 1.311 . S
C136 O130 1.231 . S
O137 Zn119 1.953 . S
O137 C131 1.298 . S
H138 C144 0.930 . S
H139 C147 0.930 . S
H140 C148 0.930 . S
H141 C149 0.930 . S
H142 C152 0.930 . S
H143 C153 0.930 . S
C144 H138 0.930 . S
C144 C145 1.355 . S
C144 C146 1.415 . S
C145 C144 1.355 . S
C145 C147 1.419 . S
C146 C144 1.415 . S
C146 C151 1.425 . S
C146 C153 1.409 . S
C147 H139 0.930 . S
C147 C145 1.419 . S
C147 C148 1.362 . S
C148 H140 0.930 . S
C148 C147 1.362 . S
C148 C151 1.409 . S
C149 H141 0.930 . S
C149 C150 1.355 . S
C149 C151 1.415 . S
C150 C149 1.355 . S
C150 C152 1.419 . S
C151 C146 1.425 . S
C151 C148 1.409 . S
C151 C149 1.415 . S
C152 H142 0.930 . S
C152 C150 1.419 . S
C152 C153 1.362 . S
C153 H143 0.930 . S
C153 C146 1.409 . S
C153 C152 1.362 . S
H154 C160 0.930 . S
H155 C163 0.930 . S
H156 C164 0.930 . S
H157 C165 0.930 . S
H158 C168 0.930 . S
H159 C169 0.930 . S
C160 H154 0.930 . S
C160 C161 1.355 . S
C160 C162 1.415 . S
C161 C160 1.355 . S
C161 C163 1.419 . S
C162 C160 1.415 . S
C162 C167 1.425 . S
C162 C169 1.409 . S
C163 H155 0.930 . S
C163 C161 1.419 . S
C163 C164 1.362 . S
C164 H156 0.930 . S
C164 C163 1.362 . S
C164 C167 1.409 . S
C165 H157 0.930 . S
C165 C166 1.355 . S
C165 C167 1.415 . S
C166 C165 1.355 . S
C166 C168 1.419 . S
C167 C162 1.425 . S
C167 C164 1.409 . S
C167 C165 1.415 . S
C168 H158 0.930 . S
C168 C166 1.419 . S
C168 C169 1.362 . S
C169 H159 0.930 . S
C169 C162 1.409 . S
C169 C168 1.362 . S
H170 C176 0.930 . S
H171 C179 0.930 . S
H172 C180 0.930 . S
H173 C181 0.930 . S
H174 C184 0.930 . S
H175 C185 0.930 . S
C176 H170 0.930 . S
C176 C177 1.355 . S
C176 C178 1.415 . S
C177 C176 1.355 . S
C177 C179 1.419 . S
C178 C176 1.415 . S
C178 C183 1.425 . S
C178 C185 1.409 . S
C179 H171 0.930 . S
C179 C177 1.419 . S
C179 C180 1.362 . S
C180 H172 0.930 . S
C180 C179 1.362 . S
C180 C183 1.409 . S
C181 H173 0.930 . S
C181 C182 1.355 . S
C181 C183 1.415 . S
C182 C181 1.355 . S
C182 C184 1.419 . S
C183 C178 1.425 . S
C183 C180 1.409 . S
C183 C181 1.415 . S
C184 H174 0.930 . S
C184 C182 1.419 . S
C184 C185 1.362 . S
C185 H175 0.930 . S
C185 C178 1.409 . S
C185 C184 1.362 . S
H186 C192 0.930 . S
H187 C195 0.930 . S
H188 C196 0.930 . S
H189 C197 0.930 . S
H190 C200 0.930 1_565 S
H191 C201 0.930 . S
C192 H186 0.930 . S
C192 C193 1.355 . S
C192 C194 1.415 . S
C193 C192 1.355 . S
C193 C195 1.419 . S
C194 C192 1.415 . S
C194 C199 1.425 . S
C194 C201 1.409 . S
C195 H187 0.930 . S
C195 C193 1.419 . S
C195 C196 1.362 . S
C196 H188 0.930 . S
C196 C195 1.362 . S
C196 C199 1.409 . S
C197 H189 0.930 . S
C197 C198 1.355 . S
C197 C199 1.415 . S
C198 C197 1.355 . S
C198 C200 1.419 . S
C199 C194 1.425 . S
C199 C196 1.409 . S
C199 C197 1.415 . S
C200 H190 0.930 1_545 S
C200 C198 1.419 . S
C200 C201 1.362 . S
C201 H191 0.930 . S
C201 C194 1.409 . S
C201 C200 1.362 . S
H202 C208 0.930 . S
H203 C211 0.930 . S
H204 C212 0.930 . S
H205 C213 0.930 . S
H206 C216 0.930 . S
H207 C217 0.930 . S
C208 H202 0.930 . S
C208 C209 1.355 . S
C208 C210 1.415 . S
C209 C208 1.355 . S
C209 C211 1.419 . S
C210 C208 1.415 . S
C210 C215 1.425 . S
C210 C217 1.409 . S
C211 H203 0.930 . S
C211 C209 1.419 . S
C211 C212 1.362 . S
C212 H204 0.930 . S
C212 C211 1.362 . S
C212 C215 1.409 . S
C213 H205 0.930 . S
C213 C214 1.355 . S
C213 C215 1.415 . S
C214 C213 1.355 . S
C214 C216 1.419 . S
C215 C210 1.425 . S
C215 C212 1.409 . S
C215 C213 1.415 . S
C216 H206 0.930 . S
C216 C214 1.419 . S
C216 C217 1.362 . S
C217 H207 0.930 . S
C217 C210 1.409 . S
C217 C216 1.362 . S
H218 C224 0.930 . S
H219 C227 0.930 . S
H220 C228 0.930 . S
H221 C229 0.930 . S
H222 C232 0.930 . S
H223 C233 0.930 . S
C224 H218 0.930 . S
C224 C225 1.355 . S
C224 C226 1.415 . S
C225 C224 1.355 . S
C225 C227 1.419 . S
C226 C224 1.415 . S
C226 C231 1.425 . S
C226 C233 1.409 . S
C227 H219 0.930 . S
C227 C225 1.419 . S
C227 C228 1.362 . S
C228 H220 0.930 . S
C228 C227 1.362 . S
C228 C231 1.409 . S
C229 H221 0.930 . S
C229 C230 1.355 . S
C229 C231 1.415 . S
C230 C229 1.355 . S
C230 C232 1.419 . S
C231 C226 1.425 . S
C231 C228 1.409 . S
C231 C229 1.415 . S
C232 H222 0.930 . S
C232 C230 1.419 . S
C232 C233 1.362 . S
C233 H223 0.930 . S
C233 C226 1.409 . S
C233 C232 1.362 . S
H234 C240 0.930 . S
H235 C243 0.930 . S
H236 C244 0.930 . S
H237 C245 0.930 . S
H238 C248 0.930 . S
H239 C249 0.930 . S
C240 H234 0.930 . S
C240 C241 1.355 1_565 S
C240 C242 1.415 . S
C241 C240 1.355 1_545 S
C241 C243 1.419 . S
C242 C240 1.415 . S
C242 C247 1.425 . S
C242 C249 1.409 . S
C243 H235 0.930 . S
C243 C241 1.419 . S
C243 C244 1.362 . S
C244 H236 0.930 . S
C244 C243 1.362 . S
C244 C247 1.409 1_545 S
C245 H237 0.930 . S
C245 C246 1.355 . S
C245 C247 1.415 . S
C246 C245 1.355 . S
C246 C248 1.419 . S
C247 C242 1.425 . S
C247 C244 1.409 1_565 S
C247 C245 1.415 . S
C248 H238 0.930 . S
C248 C246 1.419 . S
C248 C249 1.362 . S
C249 H239 0.930 . S
C249 C242 1.409 . S
C249 C248 1.362 . S
H250 C256 0.930 . S
H251 C259 0.930 . S
H252 C260 0.930 . S
H253 C261 0.930 . S
H254 C264 0.930 . S
H255 C265 0.930 . S
C256 H250 0.930 . S
C256 C257 1.355 . S
C256 C258 1.415 . S
C257 C256 1.355 . S
C257 C259 1.419 . S
C258 C256 1.415 . S
C258 C263 1.425 . S
C258 C265 1.409 . S
C259 H251 0.930 . S
C259 C257 1.419 . S
C259 C260 1.362 . S
C260 H252 0.930 . S
C260 C259 1.362 . S
C260 C263 1.409 . S
C261 H253 0.930 . S
C261 C262 1.355 . S
C261 C263 1.415 . S
C262 C261 1.355 . S
C262 C264 1.419 . S
C263 C258 1.425 . S
C263 C260 1.409 . S
C263 C261 1.415 . S
C264 H254 0.930 . S
C264 C262 1.419 . S
C264 C265 1.362 . S
C265 H255 0.930 . S
C265 C258 1.409 . S
C265 C264 1.362 . S
H266 C272 0.930 . S
H267 C275 0.930 1_655 S
H268 C276 0.930 . S
H269 C277 0.930 . S
H270 C280 0.930 . S
H271 C281 0.930 . S
C272 H266 0.930 . S
C272 C273 1.355 . S
C272 C274 1.415 . S
C273 C272 1.355 . S
C273 C275 1.419 . S
C274 C272 1.415 . S
C274 C279 1.425 . S
C274 C281 1.409 . S
C275 H267 0.930 1_455 S
C275 C273 1.419 . S
C275 C276 1.362 1_455 S
C276 H268 0.930 . S
C276 C275 1.362 1_655 S
C276 C279 1.409 1_655 S
C277 H269 0.930 . S
C277 C278 1.351 1_655 S
C277 C279 1.415 1_655 S
C278 C277 1.351 1_455 S
C278 C280 1.424 . S
C279 C274 1.425 . S
C279 C276 1.409 1_455 S
C279 C277 1.415 1_455 S
C280 H270 0.930 . S
C280 C278 1.424 . S
C280 C281 1.362 . S
C281 H271 0.930 . S
C281 C274 1.409 . S
C281 C280 1.362 . S
H282 C288 0.930 . S
H283 C291 0.930 . S
H284 C292 0.930 . S
H285 C293 0.930 1_565 S
H286 C296 0.930 . S
H287 C297 0.930 . S
C288 H282 0.930 . S
C288 C289 1.355 1_545 S
C288 C290 1.415 . S
C289 C288 1.355 1_565 S
C289 C291 1.419 . S
C290 C288 1.415 . S
C290 C295 1.425 . S
C290 C297 1.409 . S
C291 H283 0.930 . S
C291 C289 1.419 . S
C291 C292 1.362 . S
C292 H284 0.930 . S
C292 C291 1.362 . S
C292 C295 1.409 1_565 S
C293 H285 0.930 1_545 S
C293 C294 1.355 . S
C293 C295 1.415 . S
C294 C293 1.355 . S
C294 C296 1.419 . S
C295 C290 1.425 . S
C295 C292 1.409 1_545 S
C295 C293 1.415 . S
C296 H286 0.930 . S
C296 C294 1.419 . S
C296 C297 1.362 . S
C297 H287 0.930 . S
C297 C290 1.409 . S
C297 C296 1.362 . S
H298 C304 0.930 1_554 S
H299 C307 0.930 . S
H300 C308 0.930 . S
H301 C309 0.930 . S
H302 C312 0.930 . S
H303 C313 0.930 . S
C304 H298 0.930 1_556 S
C304 C305 1.355 1_556 S
C304 C306 1.415 . S
C305 C304 1.355 1_554 S
C305 C307 1.419 . S
C306 C304 1.415 . S
C306 C311 1.425 . S
C306 C313 1.409 . S
C307 H299 0.930 . S
C307 C305 1.419 . S
C307 C308 1.362 1_554 S
C308 H300 0.930 . S
C308 C307 1.362 1_556 S
C308 C311 1.409 . S
C309 H301 0.930 . S
C309 C310 1.355 . S
C309 C311 1.415 . S
C310 C309 1.355 . S
C310 C312 1.419 . S
C311 C306 1.425 . S
C311 C308 1.409 . S
C311 C309 1.415 . S
C312 H302 0.930 . S
C312 C310 1.419 . S
C312 C313 1.362 . S
C313 H303 0.930 . S
C313 C306 1.409 . S
C313 C312 1.362 . S
H314 C320 0.930 . S
H315 C323 0.930 1_556 S
H316 C324 0.930 1_455 S
H317 C325 0.930 . S
H318 C328 0.930 . S
H319 C329 0.930 . S
C320 H314 0.930 . S
C320 C321 1.355 1_655 S
C320 C322 1.415 . S
C321 C320 1.355 1_455 S
C321 C323 1.419 . S
C322 C320 1.415 . S
C322 C327 1.425 . S
C322 C329 1.409 . S
C323 H315 0.930 1_554 S
C323 C321 1.419 . S
C323 C324 1.362 1_455 S
C324 H316 0.930 1_655 S
C324 C323 1.362 1_655 S
C324 C327 1.409 . S
C325 H317 0.930 . S
C325 C326 1.355 . S
C325 C327 1.415 . S
C326 C325 1.355 . S
C326 C328 1.419 . S
C327 C322 1.425 . S
C327 C324 1.409 . S
C327 C325 1.415 . S
C328 H318 0.930 . S
C328 C326 1.419 . S
C328 C329 1.362 . S
C329 H319 0.930 . S
C329 C322 1.409 . S
C329 C328 1.362 . S
H330 C336 0.930 . S
H331 C339 0.930 . S
H332 C340 0.930 . S
H333 C341 0.930 . S
H334 C344 0.930 . S
H335 C345 0.930 . S
C336 H330 0.930 . S
C336 C337 1.355 . S
C336 C338 1.415 . S
C337 C336 1.355 . S
C337 C339 1.419 . S
C338 C336 1.415 . S
C338 C343 1.425 . S
C338 C345 1.409 . S
C339 H331 0.930 . S
C339 C337 1.419 . S
C339 C340 1.362 . S
C340 H332 0.930 . S
C340 C339 1.362 . S
C340 C343 1.409 . S
C341 H333 0.930 . S
C341 C342 1.355 . S
C341 C343 1.415 . S
C342 C341 1.355 . S
C342 C344 1.419 . S
C343 C338 1.425 . S
C343 C340 1.409 . S
C343 C341 1.415 . S
C344 H334 0.930 . S
C344 C342 1.419 . S
C344 C345 1.362 . S
C345 H335 0.930 . S
C345 C338 1.409 . S
C345 C344 1.362 . S
H346 C352 0.930 . S
H347 C355 0.930 . S
H348 C356 0.930 . S
H349 C357 0.930 1_556 S
H350 C360 0.930 . S
H351 C361 0.930 . S
C352 H346 0.930 . S
C352 C353 1.355 . S
C352 C354 1.415 . S
C353 C352 1.355 . S
C353 C355 1.419 . S
C354 C352 1.415 . S
C354 C359 1.425 . S
C354 C361 1.409 1_556 S
C355 H347 0.930 . S
C355 C353 1.419 . S
C355 C356 1.362 . S
C356 H348 0.930 . S
C356 C355 1.362 . S
C356 C359 1.409 . S
C357 H349 0.930 1_554 S
C357 C358 1.355 . S
C357 C359 1.415 1_554 S
C358 C357 1.355 . S
C358 C360 1.419 . S
C359 C354 1.425 . S
C359 C356 1.409 . S
C359 C357 1.415 1_556 S
C360 H350 0.930 . S
C360 C358 1.419 . S
C360 C361 1.362 . S
C361 H351 0.930 . S
C361 C354 1.409 1_554 S
C361 C360 1.362 . S
H362 C368 0.930 . S
H363 C371 0.930 . S
H364 C372 0.930 . S
H365 C373 0.930 . S
H366 C376 0.930 . S
H367 C377 0.930 . S
C368 H362 0.930 . S
C368 C369 1.355 . S
C368 C370 1.415 . S
C369 C368 1.355 . S
C369 C371 1.419 . S
C370 C368 1.415 . S
C370 C375 1.425 . S
C370 C377 1.409 . S
C371 H363 0.930 . S
C371 C369 1.419 . S
C371 C372 1.362 . S
C372 H364 0.930 . S
C372 C371 1.362 . S
C372 C375 1.409 . S
C373 H365 0.930 . S
C373 C374 1.355 . S
C373 C375 1.415 . S
C374 C373 1.355 . S
C374 C376 1.419 . S
C375 C370 1.425 . S
C375 C372 1.409 . S
C375 C373 1.415 . S
C376 H366 0.930 . S
C376 C374 1.419 . S
C376 C377 1.362 . S
C377 H367 0.930 . S
C377 C370 1.409 . S
C377 C376 1.362 . S
H378 C384 0.930 . S
H379 C387 0.930 . S
H380 C388 0.930 . S
H381 C389 0.930 . S
H382 C392 0.930 . S
H383 C393 0.930 . S
C384 H378 0.930 . S
C384 C385 1.355 . S
C384 C386 1.415 . S
C385 C384 1.355 . S
C385 C387 1.419 . S
C386 C384 1.415 . S
C386 C391 1.425 . S
C386 C393 1.409 . S
C387 H379 0.930 . S
C387 C385 1.419 . S
C387 C388 1.362 . S
C388 H380 0.930 . S
C388 C387 1.362 . S
C388 C391 1.409 . S
C389 H381 0.930 . S
C389 C390 1.355 . S
C389 C391 1.415 . S
C390 C389 1.355 . S
C390 C392 1.419 . S
C391 C386 1.425 . S
C391 C388 1.409 . S
C391 C389 1.415 . S
C392 H382 0.930 . S
C392 C390 1.419 . S
C392 C393 1.362 . S
C393 H383 0.930 . S
C393 C386 1.409 . S
C393 C392 1.362 . S
H394 C400 0.930 . S
H395 C403 0.930 . S
H396 C404 0.930 . S
H397 C405 0.930 . S
H398 C408 0.930 . S
H399 C409 0.930 . S
C400 H394 0.930 . S
C400 C401 1.355 . S
C400 C402 1.415 . S
C401 C400 1.355 . S
C401 C403 1.419 . S
C402 C400 1.415 . S
C402 C407 1.425 . S
C402 C409 1.409 . S
C403 H395 0.930 . S
C403 C401 1.419 . S
C403 C404 1.362 . S
C404 H396 0.930 . S
C404 C403 1.362 . S
C404 C407 1.409 . S
C405 H397 0.930 . S
C405 C406 1.355 . S
C405 C407 1.415 . S
C406 C405 1.355 . S
C406 C408 1.419 . S
C407 C402 1.425 . S
C407 C404 1.409 . S
C407 C405 1.415 . S
C408 H398 0.930 . S
C408 C406 1.419 . S
C408 C409 1.362 . S
C409 H399 0.930 . S
C409 C402 1.409 . S
C409 C408 1.362 . S
H410 C416 0.930 . S
H411 C419 0.930 . S
H412 C420 0.930 . S
H413 C421 0.930 . S
H414 C424 0.930 . S
H415 C425 0.930 . S
C416 H410 0.930 . S
C416 C417 1.355 . S
C416 C418 1.415 . S
C417 C416 1.355 . S
C417 C419 1.419 . S
C418 C416 1.415 . S
C418 C423 1.425 . S
C418 C425 1.409 . S
C419 H411 0.930 . S
C419 C417 1.419 . S
C419 C420 1.362 . S
C420 H412 0.930 . S
C420 C419 1.362 . S
C420 C423 1.409 . S
C421 H413 0.930 . S
C421 C422 1.355 . S
C421 C423 1.415 . S
C422 C421 1.355 . S
C422 C424 1.419 . S
C423 C418 1.425 . S
C423 C420 1.409 . S
C423 C421 1.415 . S
C424 H414 0.930 . S
C424 C422 1.419 . S
C424 C425 1.362 . S
C425 H415 0.930 . S
C425 C418 1.409 . S
C425 C424 1.362 . S
C145 C18 1.125 1_565 S
C150 C135 1.151 . S
C161 C41 1.130 . S
C166 C20 1.145 . S
C177 C64 1.125 1_455 S
C182 C43 1.151 . S
C193 C66 1.124 . S
C198 C87 1.150 1_545 S
C209 C89 1.125 . S
C214 C110 1.150 . S
C225 C133 1.150 1_655 S
C230 C112 1.124 . S
C241 C16 1.572 . S
C246 C88 1.560 . S
C257 C39 1.575 . S
C262 C111 1.569 . S
C273 C134 1.549 . S
C278 C62 1.586 1_455 S
C289 C85 1.557 . S
C294 C19 1.573 . S
C305 C42 1.549 . S
C310 C108 1.588 . S
C321 C131 1.544 1_554 S
C326 C65 1.593 . S
C337 C17 1.292 . S
C342 C113 1.321 . S
C353 C136 1.358 . S
C358 C40 1.347 . S
C369 C21 1.331 . S
C374 C63 1.311 . S
C385 C86 1.297 . S
C390 C44 1.327 . S
C401 C67 1.325 . S
C406 C109 1.301 . S
C417 C90 1.321 . S
C422 C132 1.292 . S
