# Generated by pormake.
# Topology ana, (4)-cn, num edge types: 1
# Building blocks:
#     Node 0, Type 0, BuildingBlock: AZAVOO_clean_sbu_0, # of connection points: 4
#     Node 1, Type 0, BuildingBlock: AZAVOO_clean_sbu_0, # of connection points: 4
#     Node 2, Type 0, BuildingBlock: AZAVOO_clean_sbu_0, # of connection points: 4
#     Node 3, Type 0, BuildingBlock: AZAVOO_clean_sbu_0, # of connection points: 4
#     Node 4, Type 0, BuildingBlock: AZAVOO_clean_sbu_0, # of connection points: 4
#     Node 5, Type 0, BuildingBlock: AZAVOO_clean_sbu_0, # of connection points: 4
#     Node 6, Type 0, BuildingBlock: AZAVOO_clean_sbu_0, # of connection points: 4
#     Node 7, Type 0, BuildingBlock: AZAVOO_clean_sbu_0, # of connection points: 4
#     Node 8, Type 0, BuildingBlock: AZAVOO_clean_sbu_0, # of connection points: 4
#     Node 9, Type 0, BuildingBlock: AZAVOO_clean_sbu_0, # of connection points: 4
#     Node 10, Type 0, BuildingBlock: AZAVOO_clean_sbu_0, # of connection points: 4
#     Node 11, Type 0, BuildingBlock: AZAVOO_clean_sbu_0, # of connection points: 4
#     Node 12, Type 0, BuildingBlock: AZAVOO_clean_sbu_0, # of connection points: 4
#     Node 13, Type 0, BuildingBlock: AZAVOO_clean_sbu_0, # of connection points: 4
#     Node 14, Type 0, BuildingBlock: AZAVOO_clean_sbu_0, # of connection points: 4
#     Node 15, Type 0, BuildingBlock: AZAVOO_clean_sbu_0, # of connection points: 4
#     Node 16, Type 0, BuildingBlock: AZAVOO_clean_sbu_0, # of connection points: 4
#     Node 17, Type 0, BuildingBlock: AZAVOO_clean_sbu_0, # of connection points: 4
#     Node 18, Type 0, BuildingBlock: AZAVOO_clean_sbu_0, # of connection points: 4
#     Node 19, Type 0, BuildingBlock: AZAVOO_clean_sbu_0, # of connection points: 4
#     Node 20, Type 0, BuildingBlock: AZAVOO_clean_sbu_0, # of connection points: 4
#     Node 21, Type 0, BuildingBlock: AZAVOO_clean_sbu_0, # of connection points: 4
#     Node 22, Type 0, BuildingBlock: AZAVOO_clean_sbu_0, # of connection points: 4
#     Node 23, Type 0, BuildingBlock: AZAVOO_clean_sbu_0, # of connection points: 4
#     Node 24, Type 0, BuildingBlock: AZAVOO_clean_sbu_0, # of connection points: 4
#     Node 25, Type 0, BuildingBlock: AZAVOO_clean_sbu_0, # of connection points: 4
#     Node 26, Type 0, BuildingBlock: AZAVOO_clean_sbu_0, # of connection points: 4
#     Node 27, Type 0, BuildingBlock: AZAVOO_clean_sbu_0, # of connection points: 4
#     Node 28, Type 0, BuildingBlock: AZAVOO_clean_sbu_0, # of connection points: 4
#     Node 29, Type 0, BuildingBlock: AZAVOO_clean_sbu_0, # of connection points: 4
#     Node 30, Type 0, BuildingBlock: AZAVOO_clean_sbu_0, # of connection points: 4
#     Node 31, Type 0, BuildingBlock: AZAVOO_clean_sbu_0, # of connection points: 4
#     Node 32, Type 0, BuildingBlock: AZAVOO_clean_sbu_0, # of connection points: 4
#     Node 33, Type 0, BuildingBlock: AZAVOO_clean_sbu_0, # of connection points: 4
#     Node 34, Type 0, BuildingBlock: AZAVOO_clean_sbu_0, # of connection points: 4
#     Node 35, Type 0, BuildingBlock: AZAVOO_clean_sbu_0, # of connection points: 4
#     Node 36, Type 0, BuildingBlock: AZAVOO_clean_sbu_0, # of connection points: 4
#     Node 37, Type 0, BuildingBlock: AZAVOO_clean_sbu_0, # of connection points: 4
#     Node 38, Type 0, BuildingBlock: AZAVOO_clean_sbu_0, # of connection points: 4
#     Node 39, Type 0, BuildingBlock: AZAVOO_clean_sbu_0, # of connection points: 4
#     Node 40, Type 0, BuildingBlock: AZAVOO_clean_sbu_0, # of connection points: 4
#     Node 41, Type 0, BuildingBlock: AZAVOO_clean_sbu_0, # of connection points: 4
#     Node 42, Type 0, BuildingBlock: AZAVOO_clean_sbu_0, # of connection points: 4
#     Node 43, Type 0, BuildingBlock: AZAVOO_clean_sbu_0, # of connection points: 4
#     Node 44, Type 0, BuildingBlock: AZAVOO_clean_sbu_0, # of connection points: 4
#     Node 45, Type 0, BuildingBlock: AZAVOO_clean_sbu_0, # of connection points: 4
#     Node 46, Type 0, BuildingBlock: AZAVOO_clean_sbu_0, # of connection points: 4
#     Node 47, Type 0, BuildingBlock: AZAVOO_clean_sbu_0, # of connection points: 4
#     Edge 48, Type (0, 0), BuildingBlock: OJICUG_clean_linker_0, # of connection points: 2
#     Edge 49, Type (0, 0), BuildingBlock: OJICUG_clean_linker_0, # of connection points: 2
#     Edge 50, Type (0, 0), BuildingBlock: OJICUG_clean_linker_0, # of connection points: 2
#     Edge 51, Type (0, 0), BuildingBlock: OJICUG_clean_linker_0, # of connection points: 2
#     Edge 52, Type (0, 0), BuildingBlock: OJICUG_clean_linker_0, # of connection points: 2
#     Edge 53, Type (0, 0), BuildingBlock: OJICUG_clean_linker_0, # of connection points: 2
#     Edge 54, Type (0, 0), BuildingBlock: OJICUG_clean_linker_0, # of connection points: 2
#     Edge 55, Type (0, 0), BuildingBlock: OJICUG_clean_linker_0, # of connection points: 2
#     Edge 56, Type (0, 0), BuildingBlock: OJICUG_clean_linker_0, # of connection points: 2
#     Edge 57, Type (0, 0), BuildingBlock: OJICUG_clean_linker_0, # of connection points: 2
#     Edge 58, Type (0, 0), BuildingBlock: OJICUG_clean_linker_0, # of connection points: 2
#     Edge 59, Type (0, 0), BuildingBlock: OJICUG_clean_linker_0, # of connection points: 2
#     Edge 60, Type (0, 0), BuildingBlock: OJICUG_clean_linker_0, # of connection points: 2
#     Edge 61, Type (0, 0), BuildingBlock: OJICUG_clean_linker_0, # of connection points: 2
#     Edge 62, Type (0, 0), BuildingBlock: OJICUG_clean_linker_0, # of connection points: 2
#     Edge 63, Type (0, 0), BuildingBlock: OJICUG_clean_linker_0, # of connection points: 2
#     Edge 64, Type (0, 0), BuildingBlock: OJICUG_clean_linker_0, # of connection points: 2
#     Edge 65, Type (0, 0), BuildingBlock: OJICUG_clean_linker_0, # of connection points: 2
#     Edge 66, Type (0, 0), BuildingBlock: OJICUG_clean_linker_0, # of connection points: 2
#     Edge 67, Type (0, 0), BuildingBlock: OJICUG_clean_linker_0, # of connection points: 2
#     Edge 68, Type (0, 0), BuildingBlock: OJICUG_clean_linker_0, # of connection points: 2
#     Edge 69, Type (0, 0), BuildingBlock: OJICUG_clean_linker_0, # of connection points: 2
#     Edge 70, Type (0, 0), BuildingBlock: OJICUG_clean_linker_0, # of connection points: 2
#     Edge 71, Type (0, 0), BuildingBlock: OJICUG_clean_linker_0, # of connection points: 2
#     Edge 72, Type (0, 0), BuildingBlock: OJICUG_clean_linker_0, # of connection points: 2
#     Edge 73, Type (0, 0), BuildingBlock: OJICUG_clean_linker_0, # of connection points: 2
#     Edge 74, Type (0, 0), BuildingBlock: OJICUG_clean_linker_0, # of connection points: 2
#     Edge 75, Type (0, 0), BuildingBlock: OJICUG_clean_linker_0, # of connection points: 2
#     Edge 76, Type (0, 0), BuildingBlock: OJICUG_clean_linker_0, # of connection points: 2
#     Edge 77, Type (0, 0), BuildingBlock: OJICUG_clean_linker_0, # of connection points: 2
#     Edge 78, Type (0, 0), BuildingBlock: OJICUG_clean_linker_0, # of connection points: 2
#     Edge 79, Type (0, 0), BuildingBlock: OJICUG_clean_linker_0, # of connection points: 2
#     Edge 80, Type (0, 0), BuildingBlock: OJICUG_clean_linker_0, # of connection points: 2
#     Edge 81, Type (0, 0), BuildingBlock: OJICUG_clean_linker_0, # of connection points: 2
#     Edge 82, Type (0, 0), BuildingBlock: OJICUG_clean_linker_0, # of connection points: 2
#     Edge 83, Type (0, 0), BuildingBlock: OJICUG_clean_linker_0, # of connection points: 2
#     Edge 84, Type (0, 0), BuildingBlock: OJICUG_clean_linker_0, # of connection points: 2
#     Edge 85, Type (0, 0), BuildingBlock: OJICUG_clean_linker_0, # of connection points: 2
#     Edge 86, Type (0, 0), BuildingBlock: OJICUG_clean_linker_0, # of connection points: 2
#     Edge 87, Type (0, 0), BuildingBlock: OJICUG_clean_linker_0, # of connection points: 2
#     Edge 88, Type (0, 0), BuildingBlock: OJICUG_clean_linker_0, # of connection points: 2
#     Edge 89, Type (0, 0), BuildingBlock: OJICUG_clean_linker_0, # of connection points: 2
#     Edge 90, Type (0, 0), BuildingBlock: OJICUG_clean_linker_0, # of connection points: 2
#     Edge 91, Type (0, 0), BuildingBlock: OJICUG_clean_linker_0, # of connection points: 2
#     Edge 92, Type (0, 0), BuildingBlock: OJICUG_clean_linker_0, # of connection points: 2
#     Edge 93, Type (0, 0), BuildingBlock: OJICUG_clean_linker_0, # of connection points: 2
#     Edge 94, Type (0, 0), BuildingBlock: OJICUG_clean_linker_0, # of connection points: 2
#     Edge 95, Type (0, 0), BuildingBlock: OJICUG_clean_linker_0, # of connection points: 2
#     Edge 96, Type (0, 0), BuildingBlock: OJICUG_clean_linker_0, # of connection points: 2
#     Edge 97, Type (0, 0), BuildingBlock: OJICUG_clean_linker_0, # of connection points: 2
#     Edge 98, Type (0, 0), BuildingBlock: OJICUG_clean_linker_0, # of connection points: 2
#     Edge 99, Type (0, 0), BuildingBlock: OJICUG_clean_linker_0, # of connection points: 2
#     Edge 100, Type (0, 0), BuildingBlock: OJICUG_clean_linker_0, # of connection points: 2
#     Edge 101, Type (0, 0), BuildingBlock: OJICUG_clean_linker_0, # of connection points: 2
#     Edge 102, Type (0, 0), BuildingBlock: OJICUG_clean_linker_0, # of connection points: 2
#     Edge 103, Type (0, 0), BuildingBlock: OJICUG_clean_linker_0, # of connection points: 2
#     Edge 104, Type (0, 0), BuildingBlock: OJICUG_clean_linker_0, # of connection points: 2
#     Edge 105, Type (0, 0), BuildingBlock: OJICUG_clean_linker_0, # of connection points: 2
#     Edge 106, Type (0, 0), BuildingBlock: OJICUG_clean_linker_0, # of connection points: 2
#     Edge 107, Type (0, 0), BuildingBlock: OJICUG_clean_linker_0, # of connection points: 2
#     Edge 108, Type (0, 0), BuildingBlock: OJICUG_clean_linker_0, # of connection points: 2
#     Edge 109, Type (0, 0), BuildingBlock: OJICUG_clean_linker_0, # of connection points: 2
#     Edge 110, Type (0, 0), BuildingBlock: OJICUG_clean_linker_0, # of connection points: 2
#     Edge 111, Type (0, 0), BuildingBlock: OJICUG_clean_linker_0, # of connection points: 2
#     Edge 112, Type (0, 0), BuildingBlock: OJICUG_clean_linker_0, # of connection points: 2
#     Edge 113, Type (0, 0), BuildingBlock: OJICUG_clean_linker_0, # of connection points: 2
#     Edge 114, Type (0, 0), BuildingBlock: OJICUG_clean_linker_0, # of connection points: 2
#     Edge 115, Type (0, 0), BuildingBlock: OJICUG_clean_linker_0, # of connection points: 2
#     Edge 116, Type (0, 0), BuildingBlock: OJICUG_clean_linker_0, # of connection points: 2
#     Edge 117, Type (0, 0), BuildingBlock: OJICUG_clean_linker_0, # of connection points: 2
#     Edge 118, Type (0, 0), BuildingBlock: OJICUG_clean_linker_0, # of connection points: 2
#     Edge 119, Type (0, 0), BuildingBlock: OJICUG_clean_linker_0, # of connection points: 2
#     Edge 120, Type (0, 0), BuildingBlock: OJICUG_clean_linker_0, # of connection points: 2
#     Edge 121, Type (0, 0), BuildingBlock: OJICUG_clean_linker_0, # of connection points: 2
#     Edge 122, Type (0, 0), BuildingBlock: OJICUG_clean_linker_0, # of connection points: 2
#     Edge 123, Type (0, 0), BuildingBlock: OJICUG_clean_linker_0, # of connection points: 2
#     Edge 124, Type (0, 0), BuildingBlock: OJICUG_clean_linker_0, # of connection points: 2
#     Edge 125, Type (0, 0), BuildingBlock: OJICUG_clean_linker_0, # of connection points: 2
#     Edge 126, Type (0, 0), BuildingBlock: OJICUG_clean_linker_0, # of connection points: 2
#     Edge 127, Type (0, 0), BuildingBlock: OJICUG_clean_linker_0, # of connection points: 2
#     Edge 128, Type (0, 0), BuildingBlock: OJICUG_clean_linker_0, # of connection points: 2
#     Edge 129, Type (0, 0), BuildingBlock: OJICUG_clean_linker_0, # of connection points: 2
#     Edge 130, Type (0, 0), BuildingBlock: OJICUG_clean_linker_0, # of connection points: 2
#     Edge 131, Type (0, 0), BuildingBlock: OJICUG_clean_linker_0, # of connection points: 2
#     Edge 132, Type (0, 0), BuildingBlock: OJICUG_clean_linker_0, # of connection points: 2
#     Edge 133, Type (0, 0), BuildingBlock: OJICUG_clean_linker_0, # of connection points: 2
#     Edge 134, Type (0, 0), BuildingBlock: OJICUG_clean_linker_0, # of connection points: 2
#     Edge 135, Type (0, 0), BuildingBlock: OJICUG_clean_linker_0, # of connection points: 2
#     Edge 136, Type (0, 0), BuildingBlock: OJICUG_clean_linker_0, # of connection points: 2
#     Edge 137, Type (0, 0), BuildingBlock: OJICUG_clean_linker_0, # of connection points: 2
#     Edge 138, Type (0, 0), BuildingBlock: OJICUG_clean_linker_0, # of connection points: 2
#     Edge 139, Type (0, 0), BuildingBlock: OJICUG_clean_linker_0, # of connection points: 2
#     Edge 140, Type (0, 0), BuildingBlock: OJICUG_clean_linker_0, # of connection points: 2
#     Edge 141, Type (0, 0), BuildingBlock: OJICUG_clean_linker_0, # of connection points: 2
#     Edge 142, Type (0, 0), BuildingBlock: OJICUG_clean_linker_0, # of connection points: 2
#     Edge 143, Type (0, 0), BuildingBlock: OJICUG_clean_linker_0, # of connection points: 2
# Relax obj value: 0.254
# Max RMSD: 0.257
# Mean RMSD: 0.230
data_MOF--net-ana--node1-AZAVOO_clean_sbu_0--edge1-OJICUG_clean_linker_0
_symmetry_space_group_name_H-M    P1
_symmetry_Int_Tables_number       1
_symmetry_cell_setting            triclinic
loop_
_symmetry_equiv_pos_as_xyz
'x, y, z'
_cell_length_a     47.495708
_cell_length_b     45.417713
_cell_length_c     45.501002
_cell_angle_alpha  90.162128
_cell_angle_beta   90.910527
_cell_angle_gamma 92.860684
loop_
_atom_site_label
_atom_site_type_symbol
_atom_site_fract_x
_atom_site_fract_y
_atom_site_fract_z
_atom_type_partial_charge
Mg0 Mg 0.14407 0.21253 0.4328 0.0
O1 O 0.10276 0.189 0.41753 0.0
O2 O 0.09885 0.14379 0.43625 0.0
Mg3 Mg 0.13877 0.13827 0.46434 0.0
C4 C 0.08925 0.16428 0.42042 0.0
C5 C 0.11218 0.26017 0.4002 0.0
O6 O 0.09428 0.25181 0.42063 0.0
O7 O 0.16927 0.18526 0.40069 0.0
O8 O 0.16533 0.14136 0.42305 0.0
O9 O 0.12427 0.22712 0.47515 0.0
O10 O 0.14667 0.18608 0.46943 0.0
C11 C 0.17472 0.15798 0.40244 0.0
C12 C 0.13342 0.20311 0.48622 0.0
O13 O 0.13578 0.24818 0.39914 0.0
Mg14 Mg 0.03582 0.90403 0.64835 0.0
O15 O 0.0516 0.94999 0.63435 0.0
O16 O 0.04762 0.9532 0.58548 0.0
Mg17 Mg 0.02302 0.91129 0.56941 0.0
C18 C 0.05535 0.96403 0.61039 0.0
C19 C 0.07237 0.8916 0.70583 0.0
O20 O 0.07721 0.86672 0.69247 0.0
O21 O 0.07368 0.8835 0.62757 0.0
O22 O 0.06131 0.884 0.57995 0.0
O23 O 0.99248 0.91888 0.65572 0.0
O24 O 0.00693 0.90114 0.61371 0.0
C25 C 0.07774 0.87636 0.60082 0.0
C26 C 0.98672 0.911 0.62882 0.0
O27 O 0.05771 0.9105 0.6929 0.0
Mg28 Mg 0.34138 0.77508 0.91575 0.0
O29 O 0.38063 0.80167 0.9002 0.0
O30 O 0.37973 0.84815 0.91599 0.0
Mg31 Mg 0.3387 0.85199 0.94098 0.0
C32 C 0.39165 0.82782 0.90219 0.0
C33 C 0.37616 0.72445 0.89215 0.0
O34 O 0.39266 0.73554 0.91328 0.0
O35 O 0.31388 0.79632 0.88009 0.0
O36 O 0.31378 0.84217 0.89868 0.0
O37 O 0.36263 0.76739 0.95987 0.0
O38 O 0.33601 0.80459 0.94947 0.0
C39 C 0.30636 0.82302 0.87912 0.0
C40 C 0.35132 0.79134 0.96808 0.0
O41 O 0.35295 0.73636 0.88667 0.0
Mg42 Mg 0.4008 0.11914 0.13652 0.0
O43 O 0.3939 0.07424 0.11361 0.0
O44 O 0.40277 0.07615 0.06531 0.0
Mg45 Mg 0.40701 0.12582 0.05597 0.0
C46 C 0.39639 0.06179 0.0886 0.0
C47 C 0.3708 0.11406 0.19772 0.0
O48 O 0.36216 0.14011 0.19039 0.0
O49 O 0.35678 0.13413 0.12395 0.0
O50 O 0.36478 0.12413 0.07852 0.0
O51 O 0.44651 0.11223 0.13802 0.0
O52 O 0.42598 0.13437 0.10071 0.0
C53 C 0.35513 0.14171 0.09717 0.0
C54 C 0.44857 0.1247 0.11256 0.0
O55 O 0.38552 0.10003 0.17982 0.0
Mg56 Mg 0.10231 0.79661 0.06759 0.0
O57 O 0.14312 0.81391 0.09074 0.0
O58 O 0.1412 0.80258 0.13838 0.0
Mg59 Mg 0.09845 0.7786 0.14609 0.0
C60 C 0.15408 0.81419 0.11655 0.0
C61 C 0.09612 0.83832 0.01329 0.0
O62 O 0.07008 0.83711 0.02271 0.0
O63 O 0.07782 0.83432 0.08726 0.0
O64 O 0.07644 0.82089 0.13456 0.0
O65 O 0.12084 0.75185 0.06206 0.0
O66 O 0.09554 0.76478 0.09977 0.0
C67 C 0.07043 0.83851 0.1138 0.0
C68 C 0.10978 0.74522 0.08717 0.0
O69 O 0.1145 0.82389 0.02694 0.0
Mg70 Mg 0.3935 0.84932 0.33275 0.0
O71 O 0.38055 0.80439 0.35154 0.0
O72 O 0.33471 0.79568 0.34139 0.0
Mg73 Mg 0.31912 0.83397 0.31406 0.0
C74 C 0.35796 0.78805 0.35277 0.0
C75 C 0.45467 0.83615 0.35236 0.0
O76 O 0.45037 0.81593 0.33186 0.0
O77 O 0.3703 0.87342 0.36796 0.0
O78 O 0.3256 0.86724 0.35225 0.0
O79 O 0.4049 0.82856 0.29073 0.0
O80 O 0.36268 0.84427 0.2999 0.0
C81 C 0.3443 0.879 0.36975 0.0
C82 C 0.37922 0.83198 0.28193 0.0
O83 O 0.43448 0.85198 0.35939 0.0
Mg84 Mg 0.38887 0.18504 0.55939 0.0
O85 O 0.3463 0.1717 0.57923 0.0
O86 O 0.34609 0.18501 0.62639 0.0
Mg87 Mg 0.38946 0.20705 0.63713 0.0
C88 C 0.33392 0.17317 0.60379 0.0
C89 C 0.39366 0.14402 0.5038 0.0
O90 O 0.42052 0.14693 0.51121 0.0
O91 O 0.41 0.14697 0.58299 0.0
O92 O 0.40997 0.1633 0.62954 0.0
O93 O 0.37398 0.23073 0.55027 0.0
O94 O 0.39661 0.2179 0.59069 0.0
C95 C 0.41604 0.14414 0.61034 0.0
C96 C 0.38462 0.23781 0.57585 0.0
O97 O 0.37581 0.15684 0.5192 0.0
Mg98 Mg 0.1225 0.14468 0.86032 0.0
O99 O 0.14034 0.18468 0.8858 0.0
O100 O 0.18597 0.19018 0.87509 0.0
Mg101 Mg 0.19639 0.15469 0.84151 0.0
C102 C 0.16429 0.19851 0.88846 0.0
C103 C 0.07068 0.11681 0.88916 0.0
O104 O 0.08384 0.09396 0.87964 0.0
O105 O 0.14426 0.11236 0.88988 0.0
O106 O 0.18813 0.11532 0.87298 0.0
O107 O 0.11116 0.17371 0.82377 0.0
O108 O 0.15167 0.15193 0.82705 0.0
C109 C 0.1691 0.10295 0.889 0.0
C110 C 0.13554 0.16915 0.81277 0.0
O111 O 0.08262 0.14232 0.88693 0.0
Mg112 Mg 0.11949 0.36338 0.14386 0.0
O113 O 0.11421 0.37584 0.09586 0.0
O114 O 0.07775 0.40415 0.08635 0.0
Mg115 Mg 0.05345 0.4024 0.12924 0.0
C116 C 0.09971 0.39125 0.07837 0.0
C117 C 0.17395 0.32924 0.14969 0.0
O118 O 0.16989 0.33588 0.17738 0.0
O119 O 0.08621 0.32567 0.13945 0.0
O120 O 0.05395 0.35261 0.12254 0.0
O121 O 0.14202 0.40611 0.15017 0.0
O122 O 0.09547 0.40096 0.15319 0.0
C123 C 0.06304 0.33757 0.14379 0.0
C124 C 0.11801 0.41816 0.15209 0.0
O125 O 0.15516 0.33498 0.13073 0.0
Mg126 Mg 0.68118 0.08389 0.87985 0.0
O127 O 0.66125 0.10544 0.8398 0.0
O128 O 0.68333 0.14906 0.83099 0.0
Mg129 Mg 0.71548 0.15661 0.86873 0.0
C130 C 0.66461 0.12886 0.82462 0.0
C131 C 0.65375 0.0224 0.88185 0.0
O132 O 0.68035 0.01887 0.88871 0.0
O133 O 0.65815 0.11322 0.91043 0.0
O134 O 0.68006 0.15741 0.90335 0.0
O135 O 0.71384 0.06488 0.85228 0.0
O136 O 0.71907 0.10843 0.87409 0.0
C137 C 0.66157 0.14068 0.91613 0.0
C138 C 0.72931 0.08866 0.85748 0.0
O139 O 0.64565 0.04844 0.87853 0.0
Mg140 Mg 0.83793 0.88838 0.38236 0.0
O141 O 0.85881 0.86767 0.34337 0.0
O142 O 0.83483 0.82549 0.33204 0.0
Mg143 Mg 0.79844 0.8196 0.36471 0.0
C144 C 0.85495 0.84458 0.32754 0.0
C145 C 0.87182 0.94142 0.40691 0.0
O146 O 0.84967 0.93938 0.42388 0.0
O147 O 0.85644 0.8557 0.41315 0.0
O148 O 0.82771 0.81576 0.4057 0.0
O149 O 0.80955 0.9121 0.35262 0.0
O150 O 0.79902 0.86785 0.37061 0.0
C151 C 0.84771 0.82966 0.41991 0.0
C152 C 0.79202 0.88942 0.35411 0.0
O153 O 0.87519 0.92097 0.38839 0.0
Mg154 Mg 0.80362 0.10418 0.11972 0.0
O155 O 0.82979 0.11504 0.16062 0.0
O156 O 0.84133 0.16318 0.16224 0.0
Mg157 Mg 0.81678 0.18365 0.12397 0.0
C158 C 0.84287 0.13722 0.17259 0.0
C159 C 0.82724 0.04196 0.10494 0.0
O160 O 0.83487 0.05488 0.08036 0.0
O161 O 0.84203 0.11394 0.09286 0.0
O162 O 0.84668 0.16302 0.09069 0.0
O163 O 0.76397 0.10813 0.14361 0.0
O164 O 0.78588 0.14508 0.1202 0.0
C165 C 0.85419 0.13744 0.08314 0.0
C166 C 0.76478 0.13554 0.13566 0.0
O167 O 0.81422 0.05614 0.12421 0.0
Mg168 Mg 0.34367 0.62009 0.60603 0.0
O169 O 0.3734 0.6272 0.64428 0.0
O170 O 0.38708 0.67429 0.6509 0.0
Mg171 Mg 0.36154 0.69823 0.61537 0.0
C172 C 0.38799 0.6472 0.65796 0.0
C173 C 0.33649 0.55052 0.60233 0.0
O174 O 0.30979 0.5556 0.59773 0.0
O175 O 0.37932 0.62964 0.57602 0.0
O176 O 0.38767 0.67844 0.57789 0.0
O177 O 0.3075 0.62386 0.63493 0.0
O178 O 0.32795 0.66177 0.61146 0.0
C179 C 0.39251 0.65301 0.56745 0.0
C180 C 0.30872 0.65183 0.62915 0.0
O181 O 0.35421 0.57205 0.6064 0.0
Mg182 Mg 0.19898 0.58887 0.39283 0.0
O183 O 0.18098 0.61325 0.35393 0.0
O184 O 0.20695 0.65482 0.3457 0.0
Mg185 Mg 0.24165 0.65709 0.3817 0.0
C186 C 0.18618 0.63683 0.33948 0.0
C187 C 0.16572 0.53109 0.3965 0.0
O188 O 0.19165 0.52522 0.40408 0.0
O189 O 0.18007 0.62141 0.42346 0.0
O190 O 0.20912 0.66148 0.41883 0.0
O191 O 0.22776 0.56546 0.36389 0.0
O192 O 0.23866 0.60858 0.38498 0.0
C193 C 0.18822 0.64762 0.43087 0.0
C194 C 0.2455 0.58776 0.36754 0.0
O195 O 0.16002 0.55783 0.39255 0.0
Mg196 Mg 0.34862 0.36667 0.84359 0.0
O197 O 0.36004 0.3601 0.89285 0.0
O198 O 0.40691 0.36755 0.89834 0.0
Mg199 Mg 0.42639 0.36982 0.85277 0.0
C200 C 0.38236 0.36256 0.90906 0.0
C201 C 0.28508 0.35299 0.83018 0.0
O202 O 0.29395 0.35268 0.80301 0.0
O203 O 0.35934 0.31966 0.83254 0.0
O204 O 0.40249 0.32532 0.84694 0.0
O205 O 0.34938 0.41426 0.85158 0.0
O206 O 0.38758 0.39196 0.83839 0.0
C207 C 0.38513 0.32143 0.82564 0.0
C208 C 0.37618 0.41577 0.84686 0.0
O209 O 0.30288 0.35439 0.85135 0.0
Mg210 Mg 0.84492 0.81173 0.60647 0.0
O211 O 0.85375 0.80958 0.55711 0.0
O212 O 0.90003 0.80613 0.55005 0.0
Mg213 Mg 0.92054 0.80285 0.59554 0.0
C214 C 0.87484 0.80776 0.54023 0.0
C215 C 0.77975 0.7969 0.61401 0.0
O216 O 0.78833 0.78379 0.638 0.0
O217 O 0.84818 0.76175 0.60856 0.0
O218 O 0.89472 0.75951 0.60185 0.0
O219 O 0.8548 0.86073 0.60718 0.0
O220 O 0.88624 0.82696 0.61396 0.0
C221 C 0.87034 0.74723 0.60601 0.0
C222 C 0.88081 0.8542 0.61076 0.0
O223 O 0.79792 0.80837 0.59673 0.0
Mg224 Mg 0.93986 0.09919 0.31893 0.0
O225 O 0.91084 0.13145 0.34113 0.0
O226 O 0.86623 0.11801 0.32877 0.0
Mg227 Mg 0.86636 0.07657 0.30065 0.0
C228 C 0.88437 0.13527 0.34193 0.0
C229 C 0.98747 0.14156 0.35032 0.0
O230 O 0.97618 0.16257 0.33502 0.0
O231 O 0.92882 0.06341 0.35254 0.0
O232 O 0.88387 0.05173 0.33992 0.0
O233 O 0.93895 0.12761 0.27828 0.0
O234 O 0.90918 0.08991 0.28705 0.0
C235 C 0.90559 0.04869 0.35628 0.0
C236 C 0.91657 0.11178 0.27062 0.0
O237 O 0.97719 0.11528 0.34795 0.0
Mg238 Mg 0.60469 0.20018 0.08676 0.0
O239 O 0.61451 0.18627 0.03964 0.0
O240 O 0.58005 0.20053 0.0096 0.0
Mg241 Mg 0.54646 0.21996 0.03813 0.0
C242 C 0.6035 0.18865 0.01404 0.0
C243 C 0.65615 0.18304 0.12537 0.0
O244 O 0.63555 0.17553 0.14321 0.0
O245 O 0.61461 0.24858 0.07671 0.0
O246 O 0.57697 0.25926 0.04935 0.0
O247 O 0.58177 0.1569 0.09467 0.0
O248 O 0.56164 0.19607 0.07708 0.0
C249 C 0.60023 0.26689 0.06242 0.0
C250 C 0.5593 0.16881 0.08477 0.0
O251 O 0.65027 0.19403 0.1005 0.0
Mg252 Mg 0.53438 0.89183 0.79759 0.0
O253 O 0.55924 0.85231 0.81328 0.0
O254 O 0.60027 0.85209 0.78997 0.0
Mg255 Mg 0.60218 0.89197 0.75953 0.0
C256 C 0.58288 0.84104 0.80852 0.0
C257 C 0.49143 0.857 0.8349 0.0
O258 O 0.50011 0.83726 0.8164 0.0
O259 O 0.56332 0.92221 0.82619 0.0
O260 O 0.60341 0.92107 0.80093 0.0
O261 O 0.51506 0.86659 0.75953 0.0
O262 O 0.55601 0.89188 0.75815 0.0
C263 C 0.58926 0.93002 0.82259 0.0
C264 C 0.53745 0.87458 0.74521 0.0
O265 O 0.50241 0.88313 0.83396 0.0
Mg266 Mg 0.88842 0.10387 0.90065 0.0
O267 O 0.87445 0.15162 0.90035 0.0
O268 O 0.82937 0.15162 0.91423 0.0
Mg269 Mg 0.81603 0.10465 0.9272 0.0
C270 C 0.85202 0.16507 0.90565 0.0
C271 C 0.95097 0.09944 0.9044 0.0
O272 O 0.94022 0.07444 0.9148 0.0
O273 O 0.8947 0.10879 0.95002 0.0
O274 O 0.84966 0.11067 0.96335 0.0
O275 O 0.86949 0.09745 0.85515 0.0
O276 O 0.84682 0.08886 0.89659 0.0
C277 C 0.87601 0.1118 0.96938 0.0
C278 C 0.84615 0.09086 0.86847 0.0
O279 O 0.93431 0.11853 0.89511 0.0
Mg280 Mg 0.57261 0.09109 0.67621 0.0
O281 O 0.59037 0.1272 0.64598 0.0
O282 O 0.63727 0.12776 0.64541 0.0
Mg283 Mg 0.64968 0.09322 0.67994 0.0
C284 C 0.61395 0.13789 0.63682 0.0
C285 C 0.50662 0.08548 0.66231 0.0
O286 O 0.50547 0.07328 0.68844 0.0
O287 O 0.58412 0.05357 0.64639 0.0
O288 O 0.63054 0.05272 0.65469 0.0
O289 O 0.57329 0.12291 0.71413 0.0
O290 O 0.60886 0.09583 0.70256 0.0
C291 C 0.6075 0.04116 0.64396 0.0
C292 C 0.59888 0.1155 0.71926 0.0
O293 O 0.53037 0.09429 0.65229 0.0
Mg294 Mg 0.63268 0.88969 0.37647 0.0
O295 O 0.65178 0.8461 0.38945 0.0
O296 O 0.69613 0.85424 0.40605 0.0
Mg297 Mg 0.70271 0.90436 0.40967 0.0
C298 C 0.67514 0.83681 0.3991 0.0
C299 C 0.56826 0.87817 0.3811 0.0
O300 O 0.57223 0.9034 0.39514 0.0
O301 O 0.62392 0.8973 0.42451 0.0
O302 O 0.66742 0.90349 0.44362 0.0
O303 O 0.65426 0.88618 0.33338 0.0
O304 O 0.67276 0.90909 0.37276 0.0
C305 C 0.64068 0.90115 0.44647 0.0
C306 C 0.67583 0.89919 0.34657 0.0
O307 O 0.5894 0.8662 0.37021 0.0
Mg308 Mg 0.91848 0.8969 0.17247 0.0
O309 O 0.90244 0.85751 0.14496 0.0
O310 O 0.85796 0.84465 0.15632 0.0
Mg311 Mg 0.84525 0.87639 0.19246 0.0
C312 C 0.88004 0.84118 0.14132 0.0
C313 C 0.98084 0.90439 0.15618 0.0
O314 O 0.98121 0.91079 0.18437 0.0
O315 O 0.89244 0.92729 0.14412 0.0
O316 O 0.84931 0.91536 0.1609 0.0
O317 O 0.932 0.86764 0.20956 0.0
O318 O 0.88965 0.88518 0.20488 0.0
C319 C 0.86596 0.93121 0.14498 0.0
C320 C 0.90655 0.86894 0.219 0.0
O321 O 0.95709 0.90037 0.14315 0.0
Mg322 Mg 0.826 0.55091 0.8612 0.0
O323 O 0.84662 0.57407 0.90134 0.0
O324 O 0.88797 0.55434 0.91061 0.0
Mg325 Mg 0.89272 0.5168 0.87746 0.0
C326 C 0.86945 0.57286 0.91641 0.0
C327 C 0.77288 0.58388 0.84151 0.0
O328 O 0.7676 0.55851 0.82809 0.0
O329 O 0.85736 0.5744 0.83101 0.0
O330 O 0.89622 0.54958 0.83905 0.0
O331 O 0.8041 0.51651 0.88948 0.0
O332 O 0.84666 0.51309 0.87141 0.0
C333 C 0.88277 0.56899 0.82508 0.0
C334 C 0.82674 0.50195 0.88733 0.0
O335 O 0.79559 0.5878 0.85645 0.0
Mg336 Mg 0.32458 0.89947 0.11939 0.0
O337 O 0.3401 0.86974 0.08374 0.0
O338 O 0.38701 0.87029 0.08277 0.0
Mg339 Mg 0.4018 0.90281 0.11918 0.0
C340 C 0.36286 0.8609 0.07309 0.0
C341 C 0.26541 0.86999 0.13505 0.0
O342 O 0.2755 0.87463 0.16181 0.0
O343 O 0.33635 0.86607 0.15383 0.0
O344 O 0.38346 0.8709 0.15394 0.0
O345 O 0.32628 0.93822 0.08926 0.0
O346 O 0.36169 0.92579 0.11796 0.0
C347 C 0.36043 0.85936 0.16389 0.0
C348 C 0.35191 0.94351 0.09874 0.0
O349 O 0.28042 0.87784 0.11327 0.0
Mg350 Mg 0.1619 0.10798 0.64504 0.0
O351 O 0.1476 0.13943 0.60971 0.0
O352 O 0.10149 0.14588 0.61223 0.0
Mg353 Mg 0.08614 0.11721 0.65082 0.0
C354 C 0.12535 0.15116 0.60035 0.0
C355 C 0.21931 0.12445 0.61275 0.0
O356 O 0.20481 0.11563 0.58922 0.0
O357 O 0.15883 0.14294 0.67996 0.0
O358 O 0.11228 0.14588 0.68431 0.0
O359 O 0.15176 0.06943 0.61537 0.0
O360 O 0.12172 0.08781 0.64626 0.0
C361 C 0.13758 0.1534 0.69229 0.0
C362 C 0.12675 0.06861 0.62643 0.0
O363 O 0.20762 0.12322 0.63765 0.0
Mg364 Mg 0.17366 0.93147 0.86258 0.0
O365 O 0.15006 0.90955 0.90122 0.0
O366 O 0.11053 0.93339 0.90728 0.0
Mg367 Mg 0.11049 0.9726 0.87556 0.0
C368 C 0.12683 0.91292 0.91433 0.0
C369 C 0.21953 0.89058 0.83888 0.0
O370 O 0.22297 0.91277 0.82059 0.0
O371 O 0.14127 0.91229 0.82916 0.0
O372 O 0.1057 0.94202 0.83537 0.0
O373 O 0.19783 0.96384 0.89277 0.0
O374 O 0.15643 0.97134 0.87244 0.0
C375 C 0.11728 0.9215 0.8214 0.0
C376 C 0.1768 0.98066 0.88944 0.0
O377 O 0.20064 0.89152 0.85831 0.0
Mg378 Mg 0.67709 0.44489 0.35646 0.0
O379 O 0.65493 0.42296 0.39618 0.0
O380 O 0.61636 0.44759 0.40469 0.0
Mg381 Mg 0.61531 0.48665 0.373 0.0
C382 C 0.63247 0.42662 0.41056 0.0
C383 C 0.72612 0.40801 0.3363 0.0
O384 O 0.73107 0.43273 0.32192 0.0
O385 O 0.64307 0.42609 0.32469 0.0
O386 O 0.60729 0.45485 0.33395 0.0
O387 O 0.70315 0.47663 0.38514 0.0
O388 O 0.66108 0.48524 0.36692 0.0
C389 C 0.61824 0.43445 0.31921 0.0
C390 C 0.68263 0.49421 0.38257 0.0
O391 O 0.70399 0.40518 0.35159 0.0
Mg392 Mg 0.8293 0.40157 0.6476 0.0
O393 O 0.843 0.37684 0.60735 0.0
O394 O 0.88976 0.37356 0.60718 0.0
Mg395 Mg 0.90641 0.39827 0.64826 0.0
C396 C 0.86539 0.3683 0.59562 0.0
C397 C 0.77107 0.38231 0.61571 0.0
O398 O 0.78363 0.39377 0.59259 0.0
O399 O 0.83796 0.36257 0.67661 0.0
O400 O 0.88503 0.36328 0.67789 0.0
O401 O 0.83483 0.44428 0.62309 0.0
O402 O 0.8683 0.42431 0.64946 0.0
C403 C 0.86102 0.35241 0.68586 0.0
C404 C 0.86078 0.44515 0.63247 0.0
O405 O 0.78394 0.38328 0.64043 0.0
Mg406 Mg 0.67796 0.60739 0.1371 0.0
O407 O 0.66599 0.63725 0.09937 0.0
O408 O 0.62077 0.64791 0.1019 0.0
Mg409 Mg 0.60382 0.62362 0.14256 0.0
C410 C 0.64462 0.65014 0.08937 0.0
C411 C 0.73761 0.61881 0.10572 0.0
O412 O 0.72454 0.61063 0.08115 0.0
O413 O 0.67804 0.64517 0.16906 0.0
O414 O 0.63229 0.65303 0.17351 0.0
O415 O 0.66524 0.56792 0.11012 0.0
O416 O 0.6367 0.59069 0.13968 0.0
C417 C 0.65818 0.6588 0.18055 0.0
C418 C 0.64035 0.56991 0.12103 0.0
O419 O 0.72421 0.61846 0.12963 0.0
Mg420 Mg 0.65867 0.70645 0.9184 0.0
O421 O 0.61823 0.67892 0.90843 0.0
O422 O 0.61899 0.63454 0.92906 0.0
Mg423 Mg 0.66187 0.63346 0.95268 0.0
C424 C 0.6067 0.65357 0.91355 0.0
C425 C 0.62002 0.74969 0.88644 0.0
O426 O 0.604 0.74073 0.90826 0.0
O427 O 0.68236 0.67974 0.88454 0.0
O428 O 0.68302 0.6364 0.90809 0.0
O429 O 0.64143 0.72092 0.96198 0.0
O430 O 0.66643 0.6818 0.95544 0.0
C431 C 0.68901 0.65282 0.8861 0.0
C432 C 0.65306 0.69809 0.97287 0.0
O433 O 0.64452 0.7398 0.88434 0.0
Mg434 Mg 0.54375 0.40878 0.14485 0.0
O435 O 0.561 0.45454 0.1318 0.0
O436 O 0.55231 0.46075 0.08381 0.0
Mg437 Mg 0.52378 0.42163 0.06798 0.0
C438 C 0.56313 0.46965 0.10828 0.0
C439 C 0.55788 0.40729 0.21105 0.0
O440 O 0.53032 0.40304 0.21052 0.0
O441 O 0.57759 0.38693 0.11848 0.0
O442 O 0.5607 0.39135 0.07263 0.0
O443 O 0.50224 0.4259 0.15774 0.0
O444 O 0.51197 0.41032 0.11334 0.0
C445 C 0.57845 0.38126 0.09096 0.0
C446 C 0.49388 0.42043 0.13096 0.0
O447 O 0.57073 0.41043 0.18687 0.0
Mg448 Mg 0.84582 0.30047 0.42791 0.0
O449 O 0.88571 0.32646 0.4138 0.0
O450 O 0.88493 0.37336 0.4282 0.0
Mg451 Mg 0.8429 0.37756 0.45137 0.0
C452 C 0.89701 0.3525 0.41543 0.0
C453 C 0.84375 0.23834 0.39909 0.0
O454 O 0.8195 0.23694 0.41263 0.0
O455 O 0.8204 0.3211 0.39062 0.0
O456 O 0.8199 0.36745 0.40773 0.0
O457 O 0.86521 0.29233 0.47227 0.0
O458 O 0.83962 0.33022 0.46113 0.0
C459 C 0.81329 0.3478 0.38835 0.0
C460 C 0.85418 0.31654 0.48024 0.0
O461 O 0.85892 0.26215 0.40011 0.0
Mg462 Mg 0.95942 0.60534 0.65569 0.0
O463 O 0.94093 0.56082 0.64002 0.0
O464 O 0.93832 0.56054 0.591 0.0
Mg465 Mg 0.96211 0.60286 0.57567 0.0
C466 C 0.93355 0.54841 0.61577 0.0
C467 C 0.92717 0.61286 0.71562 0.0
O468 O 0.91995 0.63785 0.70394 0.0
O469 O 0.91979 0.62759 0.6405 0.0
O470 O 0.9257 0.62982 0.59188 0.0
O471 O 0.00297 0.58945 0.65745 0.0
O472 O 0.98399 0.61024 0.61864 0.0
C473 C 0.91225 0.63623 0.61499 0.0
C474 C 0.00571 0.59921 0.63087 0.0
O475 O 0.94227 0.5958 0.70117 0.0
Mg476 Mg 0.60757 0.30229 0.55789 0.0
O477 O 0.64921 0.31971 0.57891 0.0
O478 O 0.64971 0.30953 0.62678 0.0
Mg479 Mg 0.60764 0.28474 0.63664 0.0
C480 C 0.66136 0.32087 0.6041 0.0
C481 C 0.60109 0.34705 0.50565 0.0
O482 O 0.57582 0.34774 0.51687 0.0
O483 O 0.58401 0.33994 0.57894 0.0
O484 O 0.58438 0.32658 0.62631 0.0
O485 O 0.62474 0.2567 0.55166 0.0
O486 O 0.60165 0.27055 0.5905 0.0
C487 C 0.57743 0.34405 0.60576 0.0
C488 C 0.61424 0.25027 0.57707 0.0
O489 O 0.61872 0.33003 0.51703 0.0
Mg490 Mg 0.88958 0.34572 0.85133 0.0
O491 O 0.87493 0.30289 0.87332 0.0
O492 O 0.82898 0.29593 0.86272 0.0
Mg493 Mg 0.81507 0.33263 0.83224 0.0
C494 C 0.85163 0.2878 0.87505 0.0
C495 C 0.94975 0.33205 0.8728 0.0
O496 O 0.94471 0.31033 0.85401 0.0
O497 O 0.86701 0.37396 0.88375 0.0
O498 O 0.82265 0.36951 0.86681 0.0
O499 O 0.9007 0.32072 0.81155 0.0
O500 O 0.85914 0.33905 0.81838 0.0
C501 C 0.84155 0.38174 0.88376 0.0
C502 C 0.87529 0.32433 0.80199 0.0
O503 O 0.93016 0.34916 0.87843 0.0
Mg504 Mg 0.91146 0.68342 0.07115 0.0
O505 O 0.86691 0.66806 0.08472 0.0
O506 O 0.85924 0.68575 0.12958 0.0
Mg507 Mg 0.89829 0.71315 0.14476 0.0
C508 C 0.85117 0.67079 0.10692 0.0
C509 C 0.88729 0.65273 0.01522 0.0
O510 O 0.86934 0.6733 0.01978 0.0
O511 O 0.93033 0.6501 0.10269 0.0
O512 O 0.92278 0.67118 0.14623 0.0
O513 O 0.89506 0.72557 0.05311 0.0
O514 O 0.91009 0.71938 0.09885 0.0
C515 C 0.93259 0.65065 0.13077 0.0
C516 C 0.89871 0.73573 0.07956 0.0
O517 O 0.90808 0.65068 0.03294 0.0
Mg518 Mg 0.64267 0.66077 0.34492 0.0
O519 O 0.65916 0.70004 0.37173 0.0
O520 O 0.70543 0.70555 0.36488 0.0
Mg521 Mg 0.71769 0.66888 0.33319 0.0
C522 C 0.68276 0.71399 0.37621 0.0
C523 C 0.58047 0.67052 0.3584 0.0
O524 O 0.58375 0.68697 0.3349 0.0
O525 O 0.66077 0.62791 0.37591 0.0
O526 O 0.70609 0.62927 0.3639 0.0
O527 O 0.63516 0.69064 0.30812 0.0
O528 O 0.67438 0.66696 0.31374 0.0
C529 C 0.68516 0.61758 0.37778 0.0
C530 C 0.65977 0.68491 0.2985 0.0
O531 O 0.60173 0.65859 0.36958 0.0
Mg532 Mg 0.61156 0.86009 0.62991 0.0
O533 O 0.6102 0.87186 0.58086 0.0
O534 O 0.57275 0.89833 0.56961 0.0
Mg535 Mg 0.54564 0.89806 0.61076 0.0
C536 C 0.59571 0.88665 0.56268 0.0
C537 C 0.66835 0.83988 0.60878 0.0
O538 O 0.66685 0.86611 0.597 0.0
O539 O 0.57895 0.8224 0.62212 0.0
O540 O 0.54505 0.84789 0.6065 0.0
O541 O 0.63325 0.9033 0.63778 0.0
O542 O 0.58667 0.89756 0.63602 0.0
C543 C 0.5555 0.83329 0.62738 0.0
C544 C 0.60901 0.9151 0.63666 0.0
O545 O 0.64789 0.82973 0.62398 0.0
Mg546 Mg 0.34729 0.33397 0.09957 0.0
O547 O 0.35569 0.34091 0.04946 0.0
O548 O 0.40185 0.33354 0.04563 0.0
Mg549 Mg 0.42203 0.32151 0.08907 0.0
C550 C 0.37819 0.34002 0.03427 0.0
C551 C 0.28959 0.31766 0.11805 0.0
O552 O 0.30746 0.30808 0.13775 0.0
O553 O 0.34905 0.28448 0.09362 0.0
O554 O 0.39503 0.27795 0.08811 0.0
O555 O 0.35877 0.38184 0.10885 0.0
O556 O 0.38865 0.34599 0.10861 0.0
C557 C 0.36951 0.26784 0.08972 0.0
C558 C 0.38445 0.37365 0.11051 0.0
O559 O 0.29944 0.33043 0.09526 0.0
Mg560 Mg 0.46493 0.58422 0.80624 0.0
O561 O 0.43513 0.61509 0.8291 0.0
O562 O 0.39237 0.6101 0.80815 0.0
Mg563 Mg 0.39391 0.57309 0.77405 0.0
C564 C 0.40962 0.62253 0.82666 0.0
C565 C 0.50562 0.62171 0.84637 0.0
O566 O 0.49292 0.64209 0.83146 0.0
O567 O 0.44687 0.54351 0.83074 0.0
O568 O 0.40403 0.53929 0.80929 0.0
O569 O 0.47198 0.61893 0.77122 0.0
O570 O 0.43929 0.5826 0.76925 0.0
C571 C 0.42252 0.53049 0.82749 0.0
C572 C 0.45061 0.60593 0.75769 0.0
O573 O 0.49839 0.59478 0.84162 0.0
Mg574 Mg 0.14392 0.70333 0.60669 0.0
O575 O 0.15078 0.69439 0.55751 0.0
O576 O 0.10891 0.69435 0.5342 0.0
Mg577 Mg 0.07605 0.70639 0.56742 0.0
C578 C 0.13548 0.69136 0.53422 0.0
C579 C 0.20093 0.69859 0.63853 0.0
O580 O 0.18308 0.68856 0.65835 0.0
O581 O 0.1405 0.75245 0.59797 0.0
O582 O 0.09871 0.75167 0.57449 0.0
O583 O 0.13359 0.65521 0.61454 0.0
O584 O 0.10227 0.68746 0.60193 0.0
C585 C 0.12068 0.76555 0.58501 0.0
C586 C 0.1079 0.66056 0.60727 0.0
O587 O 0.19125 0.70832 0.61444 0.0
Mg588 Mg 0.04073 0.40899 0.30856 0.0
O589 O 0.06319 0.36876 0.32604 0.0
O590 O 0.10429 0.36465 0.30354 0.0
Mg591 Mg 0.10906 0.40377 0.27241 0.0
C592 C 0.08594 0.35554 0.32206 0.0
C593 C 0.99663 0.37761 0.34689 0.0
O594 O 0.00479 0.35684 0.32927 0.0
O595 O 0.07047 0.43861 0.33685 0.0
O596 O 0.11104 0.43367 0.31327 0.0
O597 O 0.02093 0.38276 0.2716 0.0
O598 O 0.063 0.4058 0.26966 0.0
C599 C 0.0969 0.4443 0.33411 0.0
C600 C 0.044 0.38836 0.25752 0.0
O601 O 0.00813 0.40342 0.34478 0.0
Mg602 Mg 0.40624 0.60931 0.38409 0.0
O603 O 0.38753 0.65458 0.38206 0.0
O604 O 0.34419 0.65312 0.40071 0.0
Mg605 Mg 0.33762 0.60683 0.4197 0.0
C606 C 0.36489 0.66698 0.38848 0.0
C607 C 0.46976 0.62215 0.3852 0.0
O608 O 0.46664 0.60129 0.40501 0.0
O609 O 0.4177 0.6194 0.4318 0.0
O610 O 0.37453 0.61962 0.45079 0.0
O611 O 0.38257 0.59727 0.34234 0.0
O612 O 0.36632 0.58963 0.38719 0.0
C613 C 0.40128 0.62331 0.45311 0.0
C614 C 0.36192 0.58933 0.35928 0.0
O615 O 0.44828 0.63008 0.37089 0.0
Mg616 Mg 0.08616 0.59393 0.20075 0.0
O617 O 0.09979 0.62794 0.16679 0.0
O618 O 0.14626 0.63009 0.16097 0.0
Mg619 Mg 0.16278 0.59765 0.19552 0.0
C620 C 0.12181 0.63876 0.15442 0.0
C621 C 0.01933 0.59528 0.19421 0.0
O622 O 0.01961 0.59395 0.22305 0.0
O623 O 0.09526 0.55558 0.17149 0.0
O624 O 0.14227 0.55598 0.17313 0.0
O625 O 0.08967 0.62837 0.23593 0.0
O626 O 0.1246 0.60094 0.22283 0.0
C627 C 0.11832 0.54379 0.16575 0.0
C628 C 0.1158 0.6218 0.23896 0.0
O629 O 0.04239 0.59499 0.18058 0.0
Mg630 Mg 0.12981 0.37891 0.89099 0.0
O631 O 0.14417 0.33338 0.9043 0.0
O632 O 0.18884 0.33675 0.92078 0.0
Mg633 Mg 0.20113 0.38605 0.92308 0.0
C634 C 0.16631 0.32156 0.91402 0.0
C635 C 0.06461 0.37244 0.89744 0.0
O636 O 0.06992 0.39734 0.9117 0.0
O637 O 0.12262 0.38908 0.93893 0.0
O638 O 0.16675 0.39183 0.95675 0.0
O639 O 0.1503 0.37243 0.84762 0.0
O640 O 0.17142 0.39345 0.88658 0.0
C641 C 0.14019 0.39272 0.96023 0.0
C642 C 0.17324 0.38279 0.86051 0.0
O643 O 0.08485 0.35956 0.88583 0.0
Mg644 Mg 0.42559 0.40317 0.66776 0.0
O645 O 0.40803 0.36248 0.64275 0.0
O646 O 0.36286 0.35297 0.65364 0.0
Mg647 Mg 0.35231 0.38675 0.68888 0.0
C648 C 0.38491 0.34723 0.63949 0.0
C649 C 0.48758 0.40881 0.64988 0.0
O650 O 0.48855 0.41636 0.6778 0.0
O651 O 0.40031 0.43323 0.63871 0.0
O652 O 0.35663 0.42437 0.65537 0.0
O653 O 0.43934 0.37531 0.7048 0.0
O654 O 0.39734 0.39407 0.70184 0.0
C655 C 0.37413 0.43852 0.6389 0.0
C656 C 0.4146 0.37784 0.71577 0.0
O657 O 0.46357 0.40433 0.63749 0.0
Mg658 Mg 0.3047 0.04208 0.36176 0.0
O659 O 0.33113 0.06811 0.397 0.0
O660 O 0.3749 0.05235 0.39453 0.0
Mg661 Mg 0.37602 0.01482 0.36086 0.0
C662 C 0.35694 0.06908 0.40559 0.0
C663 C 0.26892 0.10086 0.35779 0.0
O664 O 0.29226 0.11485 0.34934 0.0
O665 O 0.32631 0.06792 0.32477 0.0
O666 O 0.36753 0.04632 0.32273 0.0
O667 O 0.29266 0.00578 0.39365 0.0
O668 O 0.33065 0.00721 0.36638 0.0
C669 C 0.34986 0.06415 0.31249 0.0
C670 C 0.31566 0.99391 0.38599 0.0
O671 O 0.26899 0.07359 0.36406 0.0
C672 C 0.07249 0.31965 0.36181 0.0
C673 C 0.09195 0.32983 0.34071 0.0
H674 H 0.06361 0.28974 0.39703 0.0
C675 C 0.11776 0.3161 0.33864 0.0
H676 H 0.0524 0.32963 0.36402 0.0
C677 C 0.12423 0.29322 0.35768 0.0
C678 C 0.10503 0.28356 0.3792 0.0
H679 H 0.13324 0.32334 0.32263 0.0
H680 H 0.14443 0.28339 0.35578 0.0
C681 C 0.07896 0.29678 0.38082 0.0
C682 C 0.93487 0.91094 0.63775 0.0
C683 C 0.95717 0.90552 0.61878 0.0
H684 H 0.89226 0.89881 0.64959 0.0
C685 C 0.9515 0.88853 0.59328 0.0
H686 H 0.93852 0.92407 0.65748 0.0
C687 C 0.92525 0.87384 0.58913 0.0
C688 C 0.9041 0.87656 0.60992 0.0
H689 H 0.96808 0.88413 0.57805 0.0
H690 H 0.92219 0.85866 0.57083 0.0
C691 C 0.90839 0.89654 0.63327 0.0
C692 C 0.41077 0.68627 0.88089 0.0
C693 C 0.38435 0.69808 0.87564 0.0
H694 H 0.43937 0.65322 0.86983 0.0
C695 C 0.3659 0.68425 0.85482 0.0
H696 H 0.42549 0.69631 0.89683 0.0
C697 C 0.37381 0.65932 0.83942 0.0
C698 C 0.4004 0.64772 0.84439 0.0
H699 H 0.34535 0.6927 0.85034 0.0
H700 H 0.35919 0.64942 0.8233 0.0
C701 C 0.41872 0.66145 0.86543 0.0
C702 C 0.50027 0.11735 0.11079 0.0
C703 C 0.47654 0.13119 0.09971 0.0
H704 H 0.54528 0.11804 0.11409 0.0
C705 C 0.48041 0.15434 0.07956 0.0
H706 H 0.49791 0.09927 0.12618 0.0
C707 C 0.50757 0.16536 0.07294 0.0
C708 C 0.53131 0.15311 0.08598 0.0
H709 H 0.46251 0.16539 0.07058 0.0
H710 H 0.50983 0.1845 0.05892 0.0
C711 C 0.52743 0.12807 0.1038 0.0
C712 C 0.14062 0.67508 0.1164 0.0
C713 C 0.11865 0.66429 0.1345 0.0
H714 H 0.15496 0.70912 0.08643 0.0
C715 C 0.09358 0.67947 0.13515 0.0
H716 H 0.16019 0.66388 0.1154 0.0
C717 C 0.09092 0.70534 0.11927 0.0
C718 C 0.11296 0.71653 0.10173 0.0
H719 H 0.07618 0.672 0.1488 0.0
H720 H 0.07155 0.71683 0.12098 0.0
C721 C 0.13765 0.70087 0.0998 0.0
C722 C 0.48873 0.86818 0.38222 0.0
C723 C 0.48365 0.84407 0.36311 0.0
H724 H 0.51939 0.89779 0.40289 0.0
C725 C 0.50676 0.82958 0.35206 0.0
H726 H 0.47143 0.87976 0.39126 0.0
C727 C 0.53434 0.84 0.35869 0.0
C728 C 0.53935 0.86512 0.37648 0.0
H729 H 0.50358 0.81086 0.33738 0.0
H730 H 0.55168 0.82895 0.34907 0.0
C731 C 0.51627 0.8786 0.3888 0.0
C732 C 0.35895 0.28177 0.5923 0.0
C733 C 0.38421 0.26768 0.58821 0.0
H734 H 0.33921 0.31816 0.61241 0.0
C735 C 0.40956 0.28078 0.59926 0.0
H736 H 0.33914 0.27176 0.58422 0.0
C737 C 0.40977 0.30727 0.61476 0.0
C738 C 0.38446 0.32085 0.62028 0.0
H739 H 0.42926 0.27012 0.59644 0.0
H740 H 0.42969 0.31641 0.6235 0.0
C741 C 0.35903 0.30809 0.60858 0.0
C742 C 0.02308 0.13725 0.89464 0.0
C743 C 0.04064 0.1133 0.89683 0.0
H744 H 0.98076 0.15158 0.89486 0.0
C745 C 0.02865 0.08524 0.90327 0.0
H746 H 0.03171 0.15913 0.88953 0.0
C747 C -0.00043 0.08098 0.90649 0.0
C748 C 0.98184 0.10462 0.90291 0.0
H749 H 0.04167 0.0664 0.90512 0.0
H750 H 0.99092 0.05894 0.91089 0.0
C751 C 0.99389 0.1329 0.89743 0.0
C752 C 0.34474 0.11331 0.24537 0.0
C753 C 0.36538 0.10193 0.22731 0.0
H754 H 0.32348 0.11028 0.28661 0.0
C755 C 0.38145 0.07904 0.23798 0.0
H756 H 0.33208 0.13103 0.23773 0.0
C757 C 0.37694 0.06761 0.26599 0.0
C758 C 0.35594 0.07846 0.28393 0.0
H759 H 0.39769 0.06995 0.22474 0.0
H760 H 0.38958 0.04973 0.27327 0.0
C761 C 0.33988 0.10149 0.27336 0.0
C762 C 0.10506 0.19334 0.53164 0.0
C763 C 0.13103 0.19536 0.51738 0.0
H764 H 0.08267 0.17738 0.56952 0.0
C765 C 0.15523 0.18608 0.53192 0.0
H766 H 0.08613 0.20024 0.52062 0.0
C767 C 0.15347 0.17345 0.55963 0.0
C768 C 0.12728 0.16923 0.57331 0.0
H769 H 0.17553 0.18763 0.5213 0.0
H770 H 0.17258 0.16575 0.56965 0.0
C771 C 0.10315 0.18016 0.55948 0.0
C772 C 0.11544 0.88848 0.7767 0.0
C773 C 0.104 0.91108 0.79327 0.0
H774 H 0.11432 0.86443 0.73597 0.0
C775 C 0.08121 0.92593 0.78131 0.0
H776 H 0.13301 0.87662 0.78522 0.0
C777 C 0.07095 0.91935 0.75307 0.0
C778 C 0.08288 0.89743 0.73616 0.0
H779 H 0.07182 0.94347 0.79333 0.0
H780 H 0.05376 0.93169 0.7444 0.0
C781 C 0.10482 0.88157 0.74846 0.0
C782 C 0.38187 0.8106 0.01007 0.0
C783 C 0.3551 0.80419 -0.00248 0.0
H784 H 0.40555 0.83417 0.04405 0.0
C785 C 0.3312 0.81431 0.0112 0.0
H786 H 0.40058 0.80324 -0.00047 0.0
C787 C 0.33387 0.83169 0.03632 0.0
C788 C 0.36063 0.83981 0.04819 0.0
H789 H 0.31034 0.80961 0.00178 0.0
H790 H 0.31485 0.83964 0.04573 0.0
C791 C 0.38465 0.82849 0.03528 0.0
C792 C 0.34425 0.83543 0.24073 0.0
C793 C 0.37123 0.82828 0.25063 0.0
H794 H 0.31935 0.85034 0.20472 0.0
C795 C 0.39223 0.82392 0.22989 0.0
H796 H 0.32749 0.83848 0.25615 0.0
C797 C 0.38767 0.83102 0.20046 0.0
C798 C 0.36193 0.8422 0.19131 0.0
H799 H 0.41312 0.81791 0.23676 0.0
H800 H 0.4051 0.8302 0.18544 0.0
C801 C 0.33957 0.84219 0.21119 0.0
C802 C 0.4038 0.10991 0.46229 0.0
C803 C 0.38427 0.12566 0.4781 0.0
H804 H 0.41061 0.07993 0.42712 0.0
C805 C 0.35571 0.12341 0.46928 0.0
H806 H 0.42595 0.11117 0.46841 0.0
C807 C 0.34685 0.10552 0.44542 0.0
C808 C 0.36634 0.08935 0.42992 0.0
H809 H 0.34011 0.13533 0.48092 0.0
H810 H 0.32467 0.10406 0.43943 0.0
C811 C 0.39495 0.09196 0.43855 0.0
C812 C 0.11912 0.18684 0.76407 0.0
C813 C 0.14113 0.17677 0.78184 0.0
H814 H 0.10083 0.18753 0.72085 0.0
C815 C 0.16558 0.1675 0.7684 0.0
H816 H 0.10023 0.19478 0.77374 0.0
C817 C 0.16608 0.16377 0.73794 0.0
C818 C 0.14195 0.16889 0.72071 0.0
H819 H 0.18312 0.16018 0.78151 0.0
H820 H 0.18403 0.15361 0.72852 0.0
C821 C 0.11943 0.18269 0.73369 0.0
C822 C 0.13087 0.85599 0.97525 0.0
C823 C 0.10392 0.85676 0.98751 0.0
H824 H 0.1592 0.87283 0.94244 0.0
C825 C 0.08444 0.87562 0.97507 0.0
H826 H 0.14637 0.84165 0.98425 0.0
C827 C 0.09182 0.8936 0.95123 0.0
C828 C 0.11882 0.89303 0.93904 0.0
H829 H 0.06349 0.87679 0.98394 0.0
H830 H 0.0763 0.90802 0.94242 0.0
C831 C 0.1382 0.87382 0.95121 0.0
C832 C 0.24994 0.30883 0.15282 0.0
C833 C 0.25912 0.31666 0.12451 0.0
H834 H 0.21574 0.30656 0.18294 0.0
C835 C 0.23921 0.32529 0.10351 0.0
H836 H 0.26469 0.3019 0.16951 0.0
C837 C 0.21095 0.32747 0.11115 0.0
C838 C 0.20223 0.32149 0.14006 0.0
H839 H 0.24559 0.33125 0.08147 0.0
H840 H 0.1963 0.33536 0.09484 0.0
C841 C 0.22186 0.31145 0.16057 0.0
C842 C 0.77519 0.11734 0.85165 0.0
C843 C 0.75946 0.09036 0.8499 0.0
H844 H 0.81624 0.13861 0.85705 0.0
C845 C 0.77373 0.06418 0.8465 0.0
H846 H 0.76478 0.13786 0.85406 0.0
C847 C 0.80312 0.06462 0.84888 0.0
C848 C 0.81858 0.0913 0.85367 0.0
H849 H 0.76218 0.04303 0.84513 0.0
H850 H 0.81349 0.04392 0.8497 0.0
C851 C 0.80462 0.1178 0.85322 0.0
C852 C 0.14206 0.46799 0.14783 0.0
C853 C 0.11699 0.45061 0.15132 0.0
H854 H 0.16207 0.51117 0.14881 0.0
C855 C 0.09162 0.46461 0.15507 0.0
H856 H 0.16195 0.45792 0.14438 0.0
C857 C 0.09166 0.49535 0.15726 0.0
C858 C 0.11712 0.51261 0.15595 0.0
H859 H 0.07194 0.45183 0.15753 0.0
H860 H 0.07195 0.50537 0.16175 0.0
C861 C 0.14213 0.49861 0.15012 0.0
C862 C 0.72281 0.92097 0.33474 0.0
C863 C 0.70459 0.89586 0.33646 0.0
H864 H 0.76533 0.9384 0.33777 0.0
C865 C 0.71583 0.86789 0.33763 0.0
H866 H 0.71447 0.94274 0.33429 0.0
C867 C 0.74495 0.86534 0.3408 0.0
C868 C 0.76307 0.89075 0.34207 0.0
H869 H 0.70204 0.84826 0.33943 0.0
H870 H 0.75297 0.84374 0.3445 0.0
C871 C 0.75191 0.9184 0.33696 0.0
C872 C 0.87046 0.97453 0.11071 0.0
C873 C 0.85447 0.9573 0.13063 0.0
H874 H 0.87397 0.01495 0.0864 0.0
C875 C 0.82817 0.96695 0.13941 0.0
H876 H 0.89074 0.96766 0.10347 0.0
C877 C 0.81897 0.99408 0.1302 0.0
C878 C 0.8355 0.01187 0.11144 0.0
H879 H 0.81521 0.95429 0.15469 0.0
H880 H 0.7992 0.00147 0.13836 0.0
C881 C 0.86086 0.00152 0.10093 0.0
C882 C 0.25058 0.70434 0.62095 0.0
C883 C 0.23115 0.69254 0.64129 0.0
H884 H 0.2912 0.70119 0.60179 0.0
C885 C 0.24002 0.67159 0.66166 0.0
H886 H 0.24445 0.72079 0.60522 0.0
C887 C 0.26665 0.66015 0.65949 0.0
C888 C 0.28502 0.66984 0.63725 0.0
H889 H 0.22566 0.66227 0.67781 0.0
H890 H 0.27209 0.6423 0.67392 0.0
C891 C 0.27743 0.69324 0.61911 0.0
C892 C 0.10084 0.49108 0.3634 0.0
C893 C 0.1121 0.4644 0.35499 0.0
H894 H 0.10923 0.53361 0.38324 0.0
C895 C 0.13959 0.45837 0.36395 0.0
H896 H 0.07966 0.49617 0.35664 0.0
C897 C 0.15621 0.47934 0.37961 0.0
C898 C 0.14592 0.50708 0.38594 0.0
H899 H 0.14861 0.4378 0.3579 0.0
H900 H 0.17775 0.4744 0.38507 0.0
C901 C 0.11776 0.51246 0.37853 0.0
C902 C 0.38978 0.49763 0.85522 0.0
C903 C 0.4159 0.502 0.84164 0.0
H904 H 0.35714 0.46677 0.86828 0.0
C905 C 0.43137 0.47742 0.83458 0.0
H906 H 0.37741 0.51627 0.86058 0.0
C907 C 0.41946 0.44879 0.83829 0.0
C908 C 0.39206 0.44458 0.84928 0.0
H909 H 0.45137 0.48034 0.82357 0.0
H910 H 0.43077 0.43023 0.83054 0.0
C911 C 0.3781 0.46922 0.85928 0.0
C912 C 0.88257 0.67391 0.63792 0.0
C913 C 0.89124 0.65919 0.61258 0.0
H914 H 0.86818 0.71429 0.65547 0.0
C915 C 0.88469 0.67088 0.58483 0.0
H916 H 0.88697 0.66541 0.65963 0.0
C917 C 0.87386 0.69878 0.58259 0.0
C918 C 0.86891 0.71507 0.608 0.0
H919 H 0.89062 0.65993 0.56484 0.0
H920 H 0.87213 0.70882 0.5611 0.0
C921 C 0.87159 0.70183 0.63561 0.0
C922 C 0.02378 0.1255 0.38671 0.0
C923 C 0.01266 0.14792 0.36942 0.0
H924 H 0.05642 0.11304 0.41644 0.0
C925 C 0.02626 0.17611 0.37004 0.0
H926 H 0.01377 0.10355 0.38688 0.0
C927 C 0.05081 0.18155 0.38701 0.0
C928 C 0.06228 0.15895 0.40385 0.0
H929 H 0.01822 0.19389 0.35706 0.0
H930 H 0.06098 0.20342 0.38659 0.0
C931 C 0.04825 0.13096 0.40375 0.0
C932 C 0.61465 0.30997 0.09394 0.0
C933 C 0.60685 0.29873 0.06602 0.0
H934 H 0.61202 0.34596 0.12403 0.0
C935 C 0.59803 0.31816 0.04423 0.0
H936 H 0.62173 0.29546 0.11111 0.0
C937 C 0.59281 0.34721 0.05148 0.0
C938 C 0.59565 0.35696 0.08082 0.0
H939 H 0.59236 0.31011 0.02238 0.0
H940 H 0.58338 0.36076 0.03482 0.0
C941 C 0.60897 0.33896 0.10137 0.0
C942 C 0.43061 0.86396 0.88712 0.0
C943 C 0.41852 0.83501 0.88698 0.0
H944 H 0.46323 0.89365 0.87094 0.0
C945 C 0.43181 0.81314 0.87117 0.0
H946 H 0.42102 0.88135 0.89917 0.0
C947 C 0.45597 0.82022 0.85505 0.0
C948 C 0.46748 0.84933 0.85435 0.0
H949 H 0.42326 0.79058 0.8707 0.0
H950 H 0.46527 0.80289 0.84264 0.0
C951 C 0.45485 0.87103 0.87098 0.0
C952 C 0.87751 0.21396 0.89812 0.0
C953 C 0.85202 0.19725 0.90106 0.0
H954 H 0.89741 0.25595 0.8884 0.0
C955 C 0.82646 0.21146 0.89875 0.0
H956 H 0.89756 0.20374 0.90019 0.0
C957 C 0.82634 0.2414 0.89195 0.0
C958 C 0.85179 0.25782 0.8876 0.0
H959 H 0.80645 0.19924 0.90108 0.0
H960 H 0.80626 0.25142 0.88908 0.0
C961 C 0.8774 0.24398 0.89165 0.0
C962 C 0.43307 0.11056 0.64913 0.0
C963 C 0.43493 0.1212 0.62021 0.0
H964 H 0.45422 0.09026 0.68505 0.0
C965 C 0.45863 0.11516 0.60362 0.0
H966 H 0.41497 0.11495 0.66237 0.0
C967 C 0.48142 0.10164 0.61683 0.0
C968 C 0.48059 0.09346 0.64663 0.0
H969 H 0.4607 0.12332 0.58137 0.0
H970 H 0.50032 0.09918 0.60421 0.0
C971 C 0.45559 0.09652 0.66215 0.0
C972 C 0.65458 0.78539 0.40204 0.0
C973 C 0.67844 0.80467 0.39977 0.0
H974 H 0.63743 0.74131 0.39766 0.0
C975 C 0.70485 0.79296 0.3951 0.0
H976 H 0.63403 0.79378 0.40615 0.0
C977 C 0.70684 0.76274 0.38995 0.0
C978 C 0.68249 0.74376 0.38964 0.0
H979 H 0.72363 0.80735 0.39337 0.0
H980 H 0.72714 0.75465 0.38427 0.0
C981 C 0.65661 0.75524 0.39732 0.0
C982 C 0.02852 0.86804 0.10245 0.0
C983 C 0.0515 0.86224 0.12098 0.0
H984 H 0.98774 0.88616 0.0991 0.0
C985 C 0.05324 0.87519 0.14904 0.0
H986 H 0.02663 0.85821 0.08074 0.0
C987 C 0.03126 0.89142 0.15943 0.0
C988 C 0.00678 0.89454 0.14218 0.0
H989 H 0.07086 0.87122 0.16368 0.0
H990 H 0.03263 0.89956 0.18183 0.0
C991 C 0.0062 0.88393 0.11305 0.0
C992 C 0.52515 0.85505 0.66529 0.0
C993 C 0.55122 0.84411 0.65765 0.0
H994 H 0.50019 0.87269 0.69944 0.0
C995 C 0.57242 0.84242 0.67951 0.0
H996 H 0.50827 0.85613 0.64909 0.0
C997 C 0.56801 0.85259 0.70796 0.0
C998 C 0.54198 0.8635 0.71541 0.0
H999 H 0.59254 0.83346 0.67469 0.0
H1000 H 0.58474 0.85133 0.72428 0.0
C1001 C 0.52045 0.86432 0.69404 0.0
C1002 C 0.84412 0.79797 0.49594 0.0
C1003 C 0.86991 0.80883 0.50821 0.0
H1004 H 0.81734 0.79501 0.45771 0.0
C1005 C 0.89015 0.82247 0.48988 0.0
H1006 H 0.82831 0.78705 0.50957 0.0
C1007 C 0.88375 0.82739 0.46028 0.0
C1008 C 0.85729 0.81807 0.4484 0.0
H1009 H 0.91024 0.83095 0.49881 0.0
H1010 H 0.89895 0.83974 0.44704 0.0
C1011 C 0.838 0.80221 0.46619 0.0
C1012 C 0.88149 0.15345 0.2088 0.0
C1013 C 0.86143 0.13188 0.19831 0.0
H1014 H 0.91516 0.16398 0.23985 0.0
C1015 C 0.86008 0.10404 0.21171 0.0
H1016 H 0.8832 0.17505 0.19878 0.0
C1017 C 0.87825 0.09779 0.23486 0.0
C1018 C 0.89835 0.11914 0.24535 0.0
H1019 H 0.84501 0.08682 0.20425 0.0
H1020 H 0.87662 0.07595 0.24438 0.0
C1021 C 0.89992 0.14707 0.23209 0.0
C1022 C 0.63474 0.18089 0.93862 0.0
C1023 C 0.64569 0.15281 0.94051 0.0
H1024 H 0.61194 0.21402 0.96048 0.0
C1025 C 0.64257 0.13664 0.96662 0.0
H1026 H 0.637 0.19375 0.9187 0.0
C1027 C 0.62926 0.14859 0.99071 0.0
C1028 C 0.61799 0.17648 0.98874 0.0
H1029 H 0.65112 0.11505 0.96868 0.0
H1030 H 0.62742 0.13587 0.01076 0.0
C1031 C 0.62048 0.19242 0.96241 0.0
C1032 C 0.61788 0.12694 0.79897 0.0
C1033 C 0.64729 0.13141 0.79778 0.0
H1034 H 0.57919 0.11979 0.77448 0.0
C1035 C 0.66022 0.13476 0.7704 0.0
H1036 H 0.60756 0.12419 0.81993 0.0
C1037 C 0.64414 0.13136 0.74447 0.0
C1038 C 0.61486 0.12564 0.74565 0.0
H1039 H 0.68292 0.13798 0.76906 0.0
H1040 H 0.65471 0.13207 0.72354 0.0
C1041 C 0.6017 0.12462 0.77306 0.0
C1042 C 0.60002 0.90173 0.481 0.0
C1043 C 0.6291 0.89988 0.47637 0.0
H1044 H 0.56658 0.89915 0.51215 0.0
C1045 C 0.64698 0.89457 0.50044 0.0
H1046 H 0.58571 0.90579 0.46286 0.0
C1047 C 0.63599 0.89028 0.52835 0.0
C1048 C 0.60693 0.89159 0.53298 0.0
H1049 H 0.66945 0.89289 0.49766 0.0
H1050 H 0.65037 0.88598 0.54631 0.0
C1051 C 0.58906 0.89788 0.50916 0.0
C1052 C 0.89903 0.85572 0.2996 0.0
C1053 C 0.87152 0.84283 0.30049 0.0
H1054 H 0.93234 0.8731 0.27239 0.0
C1055 C 0.85815 0.83329 0.27415 0.0
H1056 H 0.90977 0.86325 0.31963 0.0
C1057 C 0.87078 0.83957 0.24721 0.0
C1058 C 0.89728 0.85462 0.24631 0.0
H1059 H 0.8369 0.82344 0.27418 0.0
H1060 H 0.85914 0.83425 0.22707 0.0
C1061 C 0.91199 0.86122 0.27264 0.0
C1062 C 0.88688 0.09925 0.02087 0.0
C1063 C 0.8842 0.12075 -0.00077 0.0
H1064 H 0.88102 0.08846 0.06606 0.0
C1065 C 0.88022 0.15002 0.00746 0.0
H1066 H 0.88988 0.07654 0.01481 0.0
C1067 C 0.87459 0.15684 0.03662 0.0
C1068 C 0.87259 0.13425 0.05759 0.0
H1069 H 0.87802 0.16686 0.99085 0.0
H1070 H 0.86826 0.17884 0.04174 0.0
C1071 C 0.8815 0.1061 0.0501 0.0
C1072 C 0.7572 0.63414 0.85395 0.0
C1073 C 0.75051 0.60512 0.84439 0.0
H1074 H 0.74192 0.6731 0.87362 0.0
C1075 C 0.72205 0.59529 0.84192 0.0
H1076 H 0.77896 0.64236 0.8558 0.0
C1077 C 0.70099 0.61276 0.8524 0.0
C1078 C 0.70801 0.64059 0.86466 0.0
H1079 H 0.71623 0.57308 0.83454 0.0
H1080 H 0.67954 0.60351 0.85329 0.0
C1081 C 0.736 0.65189 0.86377 0.0
C1082 C 0.22117 0.84504 0.15424 0.0
C1083 C 0.23695 0.85573 0.13031 0.0
H1084 H 0.1828 0.82351 0.16873 0.0
C1085 C 0.22528 0.85262 0.10182 0.0
H1086 H 0.22955 0.84703 0.17647 0.0
C1087 C 0.1984 0.83921 0.09736 0.0
C1088 C 0.1826 0.82845 0.12128 0.0
H1089 H 0.23686 0.86062 0.08289 0.0
H1090 H 0.19008 0.83722 0.0751 0.0
C1091 C 0.19435 0.8315 0.14978 0.0
C1092 C 0.80484 0.45183 0.89556 0.0
C1093 C 0.82838 0.47162 0.89842 0.0
H1094 H 0.79043 0.40683 0.88929 0.0
C1095 C 0.85476 0.46063 0.90528 0.0
H1096 H 0.78419 0.45978 0.89049 0.0
C1097 C 0.85835 0.43031 0.90503 0.0
C1098 C 0.83567 0.41057 0.89716 0.0
H1099 H 0.87312 0.47548 0.90834 0.0
H1100 H 0.87952 0.42277 0.90761 0.0
C1101 C 0.80847 0.42144 0.89482 0.0
C1102 C 0.26232 0.13735 0.5832 0.0
C1103 C 0.24872 0.13656 0.61039 0.0
H1104 H 0.2998 0.14944 0.55974 0.0
C1105 C 0.26337 0.14787 0.6354 0.0
H1106 H 0.25163 0.12886 0.56351 0.0
C1107 C 0.29095 0.15979 0.63326 0.0
C1108 C 0.3046 0.16061 0.60607 0.0
H1109 H 0.25351 0.14767 0.65671 0.0
H1110 H 0.30155 0.16832 0.65297 0.0
C1111 C 0.28996 0.14918 0.58107 0.0
C1112 C 0.15209 0.02384 0.90787 0.0
C1113 C 0.17742 0.01119 0.90063 0.0
H1114 H 0.12981 0.06331 0.91138 0.0
C1115 C 0.20181 0.02957 0.89741 0.0
H1116 H 0.1331 0.01009 0.91099 0.0
C1117 C 0.19994 0.06027 0.89717 0.0
C1118 C 0.17368 0.07292 0.90048 0.0
H1119 H 0.22164 0.02032 0.89185 0.0
H1120 H 0.21849 0.07382 0.89161 0.0
C1121 C 0.15029 0.05444 0.90818 0.0
C1122 C 0.76537 0.34428 0.3663 0.0
C1123 C 0.79314 0.35624 0.36551 0.0
H1124 H 0.72182 0.35164 0.35752 0.0
C1125 C 0.79903 0.38205 0.34942 0.0
H1126 H 0.76035 0.32462 0.37901 0.0
C1127 C 0.77712 0.39733 0.33683 0.0
C1128 C 0.74894 0.38745 0.34095 0.0
H1129 H 0.82031 0.39178 0.34886 0.0
H1130 H 0.78218 0.41836 0.32651 0.0
C1131 C 0.74333 0.35993 0.3543 0.0
C1132 C 0.90504 0.47498 0.64348 0.0
C1133 C 0.88103 0.46973 0.6254 0.0
H1134 H 0.94036 0.50419 0.65461 0.0
C1135 C 0.87593 0.48919 0.60219 0.0
H1136 H 0.90955 0.46042 0.66158 0.0
C1137 C 0.89409 0.51401 0.5978 0.0
C1138 C 0.91714 0.52004 0.61701 0.0
H1139 H 0.85763 0.4856 0.58788 0.0
H1140 H 0.88927 0.52926 0.58037 0.0
C1141 C 0.9227 0.50005 0.63955 0.0
C1142 C 0.61816 0.52926 0.08996 0.0
C1143 C 0.61785 0.54705 0.11522 0.0
H1144 H 0.60025 0.49093 0.06759 0.0
C1145 C 0.59759 0.54077 0.13677 0.0
H1146 H 0.63361 0.53368 0.07306 0.0
C1147 C 0.57918 0.51598 0.13406 0.0
C1148 C 0.58013 0.4976 0.10933 0.0
H1149 H 0.59698 0.55404 0.15655 0.0
H1150 H 0.56461 0.51079 0.15161 0.0
C1151 C 0.59911 0.50492 0.08682 0.0
C1152 C 0.62726 0.78242 0.84256 0.0
C1153 C 0.60988 0.77162 0.8652 0.0
H1154 H 0.63236 0.81253 0.80676 0.0
C1155 C 0.5828 0.78247 0.86782 0.0
H1156 H 0.64817 0.77441 0.83982 0.0
C1157 C 0.57366 0.8043 0.84882 0.0
C1158 C 0.59139 0.81581 0.82673 0.0
H1159 H 0.56877 0.77447 0.88488 0.0
H1160 H 0.55292 0.81258 0.85191 0.0
C1161 C 0.61813 0.80426 0.82355 0.0
C1162 C 0.44304 0.42063 0.14452 0.0
C1163 C 0.46361 0.41859 0.12278 0.0
H1164 H 0.40083 0.4079 0.1573 0.0
C1165 C 0.45534 0.40798 0.09473 0.0
H1166 H 0.44873 0.42878 0.16632 0.0
C1167 C 0.42815 0.39586 0.0898 0.0
C1168 C 0.40867 0.3948 0.11257 0.0
H1169 H 0.47054 0.40636 0.07739 0.0
H1170 H 0.42303 0.38529 0.06889 0.0
C1171 C 0.41564 0.40873 0.13941 0.0
C1172 C 0.8927 0.18569 0.36383 0.0
C1173 C 0.87425 0.16129 0.35742 0.0
H1174 H 0.89741 0.22938 0.38156 0.0
C1175 C 0.84569 0.16247 0.36483 0.0
H1176 H 0.91478 0.18556 0.35823 0.0
C1177 C 0.83578 0.18749 0.37837 0.0
C1178 C 0.85414 0.21202 0.3844 0.0
H1179 H 0.83094 0.14401 0.36021 0.0
H1180 H 0.81369 0.18768 0.38388 0.0
C1181 C 0.88269 0.21089 0.37699 0.0
C1182 C 0.05829 0.60099 0.63594 0.0
C1183 C 0.03404 0.6058 0.61878 0.0
H1184 H 0.10137 0.61473 0.64534 0.0
C1185 C 0.03674 0.6233 0.59345 0.0
H1186 H 0.05699 0.58738 0.65543 0.0
C1187 C 0.06201 0.63916 0.58797 0.0
C1188 C 0.08507 0.63741 0.60741 0.0
H1189 H 0.01864 0.62704 0.57942 0.0
H1190 H 0.06285 0.65424 0.56962 0.0
C1191 C 0.08372 0.61667 0.6302 0.0
C1192 C 0.59116 0.21039 0.60639 0.0
C1193 C 0.61457 0.22049 0.59016 0.0
H1194 H 0.57235 0.17644 0.63289 0.0
C1195 C 0.63753 0.20234 0.5876 0.0
H1196 H 0.57303 0.22378 0.60852 0.0
C1197 C 0.63743 0.17506 0.60228 0.0
C1198 C 0.61399 0.16523 0.61889 0.0
H1199 H 0.65583 0.20964 0.57518 0.0
H1200 H 0.65572 0.16184 0.60087 0.0
C1201 C 0.5907 0.18306 0.62022 0.0
C1202 C 0.02936 0.33411 0.87788 0.0
C1203 C 0.03528 0.3603 0.89381 0.0
H1204 H 0.99764 0.30433 0.85915 0.0
C1205 C 0.01281 0.37537 0.9054 0.0
H1206 H 0.04621 0.3218 0.86893 0.0
C1207 C 0.98495 0.3653 0.8999 0.0
C1208 C 0.97899 0.33994 0.88268 0.0
H1209 H 0.01665 0.39546 0.91805 0.0
H1210 H 0.96811 0.37803 0.90826 0.0
C1211 C 0.00149 0.32401 0.8724 0.0
C1212 C 0.86683 0.76523 0.10864 0.0
C1213 C 0.88895 0.7643 0.08868 0.0
H1214 H 0.8462 0.79074 0.14069 0.0
C1215 C 0.9057 0.78985 0.08321 0.0
H1216 H 0.854 0.74549 0.11342 0.0
C1217 C 0.9017 0.81558 0.09918 0.0
C1218 C 0.88075 0.81606 0.1207 0.0
H1219 H 0.9232 0.7893 0.06825 0.0
H1220 H 0.91593 0.8346 0.09574 0.0
C1221 C 0.86251 0.79106 0.12431 0.0
C1222 C 0.50131 0.65852 0.35869 0.0
C1223 C 0.49781 0.63632 0.37995 0.0
H1224 H 0.53024 0.6872 0.33557 0.0
C1225 C 0.52143 0.62761 0.39606 0.0
H1226 H 0.48344 0.66595 0.34616 0.0
C1227 C 0.54821 0.63992 0.39014 0.0
C1228 C 0.55189 0.66113 0.36794 0.0
H1229 H 0.51937 0.61081 0.41285 0.0
H1230 H 0.56611 0.63203 0.40229 0.0
C1231 C 0.52811 0.67082 0.35276 0.0
C1232 C 0.88328 0.60622 0.78429 0.0
C1233 C 0.89602 0.58305 0.79907 0.0
H1234 H 0.88334 0.63408 0.74632 0.0
C1235 C 0.92024 0.57141 0.78714 0.0
H1236 H 0.86464 0.61572 0.79293 0.0
C1237 C 0.93062 0.5816 0.76034 0.0
C1238 C 0.9173 0.60395 0.74504 0.0
H1239 H 0.93062 0.55356 0.79787 0.0
H1240 H 0.94885 0.57155 0.75138 0.0
C1241 C 0.89397 0.61673 0.7576 0.0
C1242 C 0.62496 0.68151 0.04889 0.0
C1243 C 0.64731 0.66598 0.06106 0.0
H1244 H 0.6093 0.70455 0.01117 0.0
C1245 C 0.67207 0.66386 0.04489 0.0
H1246 H 0.60565 0.68368 0.06088 0.0
C1247 C 0.67388 0.67533 0.01668 0.0
C1248 C 0.65124 0.6897 0.00401 0.0
H1249 H 0.6898 0.65232 0.05349 0.0
H1250 H 0.69295 0.67237 0.00446 0.0
C1251 C 0.62702 0.69355 0.02057 0.0
C1252 C 0.55858 0.41726 0.26508 0.0
C1253 C 0.57326 0.41076 0.23948 0.0
H1254 H 0.56136 0.4298 0.31046 0.0
C1255 C 0.6027 0.40898 0.24117 0.0
H1256 H 0.53588 0.41871 0.26453 0.0
C1257 C 0.61726 0.41471 0.26774 0.0
C1258 C 0.60267 0.42292 0.29289 0.0
H1259 H 0.61454 0.40378 0.22185 0.0
H1260 H 0.64004 0.41425 0.26816 0.0
C1261 C 0.57315 0.42358 0.29142 0.0
C1262 C 0.83968 0.35959 0.54835 0.0
C1263 C 0.86282 0.35386 0.56661 0.0
H1264 H 0.81918 0.3525 0.50681 0.0
C1265 C 0.88335 0.33517 0.55645 0.0
H1266 H 0.82366 0.3741 0.55539 0.0
C1267 C 0.88056 0.32233 0.52843 0.0
C1268 C 0.8576 0.32871 0.51011 0.0
H1269 H 0.90139 0.33039 0.57016 0.0
H1270 H 0.89652 0.30798 0.52091 0.0
C1271 C 0.83723 0.34738 0.52039 0.0
C1272 C 0.88891 0.31301 0.75087 0.0
C1273 C 0.8676 0.31849 0.77094 0.0
H1274 H 0.90327 0.3192 0.70694 0.0
C1275 C 0.84096 0.32574 0.76017 0.0
H1276 H 0.90948 0.30667 0.75842 0.0
C1277 C 0.83731 0.33262 0.73053 0.0
C1278 C 0.86039 0.33266 0.71157 0.0
H1279 H 0.8239 0.32936 0.77506 0.0
H1280 H 0.81753 0.34147 0.72355 0.0
C1281 C 0.88536 0.32022 0.72131 0.0
C1282 C 0.85488 0.61489 0.94762 0.0
C1283 C 0.87435 0.59343 0.94158 0.0
H1284 H 0.8437 0.6503 0.97544 0.0
C1285 C 0.89831 0.59172 0.95999 0.0
H1286 H 0.8362 0.61691 0.93395 0.0
C1287 C 0.90259 0.61094 0.98393 0.0
C1288 C 0.88305 0.63233 0.98992 0.0
H1289 H 0.91374 0.57545 0.95603 0.0
H1290 H 0.9212 0.60901 -0.00229 0.0
C1291 C 0.85919 0.6341 0.97146 0.0
C1292 C 0.64487 0.70124 0.24885 0.0
C1293 C 0.66603 0.69041 0.26728 0.0
H1294 H 0.62569 0.69954 0.20599 0.0
C1295 C 0.68918 0.6776 0.25448 0.0
H1296 H 0.62709 0.71199 0.25794 0.0
C1297 C 0.68857 0.67091 0.22449 0.0
C1298 C 0.66463 0.67665 0.20721 0.0
H1299 H 0.70614 0.66964 0.26803 0.0
H1300 H 0.7052 0.65805 0.21587 0.0
C1301 C 0.64399 0.69408 0.21901 0.0
C1302 C 0.5906 0.38793 0.47089 0.0
C1303 C 0.60916 0.36684 0.4809 0.0
H1304 H 0.58334 0.42322 0.44119 0.0
C1305 C 0.63551 0.36537 0.46741 0.0
H1306 H 0.57016 0.38976 0.48078 0.0
C1307 C 0.64309 0.3846 0.44448 0.0
C1308 C 0.62458 0.40589 0.43467 0.0
H1309 H 0.65032 0.34939 0.47458 0.0
H1310 H 0.66356 0.38291 0.43462 0.0
C1311 C 0.59822 0.40724 0.44818 0.0
C1312 C 0.71473 0.8328 0.58585 0.0
C1313 C 0.69495 0.82454 0.60727 0.0
H1314 H 0.7568 0.82997 0.57074 0.0
C1315 C 0.70209 0.80387 0.62872 0.0
H1316 H 0.70968 0.8484 0.56882 0.0
C1317 C 0.72933 0.79344 0.63004 0.0
C1318 C 0.74971 0.8033 0.60974 0.0
H1319 H 0.6872 0.79704 0.64545 0.0
H1320 H 0.73475 0.77875 0.64773 0.0
C1321 C 0.74175 0.82216 0.58695 0.0
C1322 C 0.28772 0.56062 0.35487 0.0
C1323 C 0.27408 0.58735 0.35561 0.0
H1324 H 0.32751 0.54034 0.35516 0.0
C1325 C 0.28946 0.61375 0.34952 0.0
H1326 H 0.27629 0.53997 0.35955 0.0
C1327 C 0.31858 0.61369 0.34562 0.0
C1328 C 0.33264 0.58742 0.34881 0.0
H1329 H 0.27933 0.63458 0.34966 0.0
H1330 H 0.33041 0.63456 0.34337 0.0
C1331 C 0.31695 0.56073 0.35206 0.0
C1332 C 0.58163 0.99222 0.6354 0.0
C1333 C 0.607 0.0097 0.635 0.0
H1334 H 0.56229 0.94852 0.63678 0.0
C1335 C 0.63247 0.99568 0.63178 0.0
H1336 H 0.56159 0.00224 0.63801 0.0
C1337 C 0.63282 0.96499 0.63131 0.0
C1338 C 0.60772 0.94749 0.63402 0.0
H1339 H 0.65238 0.00838 0.63126 0.0
H1340 H 0.65301 0.95501 0.62991 0.0
C1341 C 0.582 0.96138 0.635 0.0
C1342 C 0.22502 0.39174 0.86265 0.0
C1343 C 0.20139 0.37741 0.84906 0.0
H1344 H 0.26973 0.39441 0.86795 0.0
C1345 C 0.20543 0.35585 0.82747 0.0
H1346 H 0.2227 0.40906 0.87871 0.0
C1347 C 0.23277 0.34789 0.82072 0.0
C1348 C 0.2561 0.36093 0.83604 0.0
H1349 H 0.18756 0.34447 0.81662 0.0
H1350 H 0.23563 0.33098 0.80435 0.0
C1351 C 0.25199 0.38327 0.85659 0.0
C1352 C 0.38383 0.48726 0.61479 0.0
C1353 C 0.36434 0.46472 0.62327 0.0
H1354 H 0.39023 0.5322 0.60157 0.0
C1355 C 0.33534 0.46946 0.62072 0.0
H1356 H 0.4063 0.48436 0.61639 0.0
C1357 C 0.32611 0.49691 0.61208 0.0
C1358 C 0.34572 0.52018 0.60615 0.0
H1359 H 0.31977 0.45243 0.62684 0.0
H1360 H 0.3037 0.50034 0.61175 0.0
C1361 C 0.37461 0.51478 0.60649 0.0
C1362 C 0.73477 0.17599 0.11885 0.0
C1363 C 0.7394 0.1528 0.13844 0.0
H1364 H 0.70455 0.20363 0.09914 0.0
C1365 C 0.71743 0.14282 0.15679 0.0
H1366 H 0.75128 0.18416 0.1044 0.0
C1367 C 0.69069 0.15413 0.15392 0.0
C1368 C 0.68538 0.17531 0.13234 0.0
H1369 H 0.72043 0.12506 0.17218 0.0
H1370 H 0.67381 0.14489 0.1673 0.0
C1371 C 0.70793 0.18697 0.11565 0.0
C1372 C 0.64774 0.97014 0.86523 0.0
C1373 C 0.63549 0.9968 0.87206 0.0
H1374 H 0.64248 0.9281 0.84398 0.0
C1375 C 0.60657 -0.00044 0.86614 0.0
H1376 H 0.66991 0.96722 0.86956 0.0
C1377 C 0.59068 0.97672 0.85197 0.0
C1378 C 0.60368 0.95117 0.84303 0.0
H1379 H 0.59655 0.01981 0.87128 0.0
H1380 H 0.5688 0.97987 0.84627 0.0
C1381 C 0.63207 0.94773 0.85054 0.0
C1382 C 0.91975 -0.00024 0.37305 0.0
C1383 C 0.90395 0.0246 0.37759 0.0
H1384 H 0.92184 0.95316 0.3792 0.0
C1385 C 0.8816 0.02301 0.39733 0.0
H1386 H 0.93691 0.00055 0.35762 0.0
C1387 C 0.87328 0.99615 0.41011 0.0
C1388 C 0.88666 0.97036 0.40245 0.0
H1389 H 0.86909 0.04197 0.40092 0.0
H1390 H 0.85456 0.99517 0.42342 0.0
C1391 C 0.91101 0.97267 0.38525 0.0
C1392 C 0.34211 0.22246 0.10549 0.0
C1393 C 0.36383 0.23565 0.08872 0.0
H1394 H 0.32274 0.18211 0.12145 0.0
C1395 C 0.38116 0.21768 0.07249 0.0
H1396 H 0.32848 0.23582 0.11827 0.0
C1397 C 0.37736 0.187 0.07369 0.0
C1398 C 0.35672 0.17378 0.09184 0.0
H1399 H 0.39793 0.22735 0.05922 0.0
H1400 H 0.39144 0.17386 0.06145 0.0
C1401 C 0.33885 0.19179 0.10734 0.0
C1402 C 0.56401 0.6673 0.88478 0.0
C1403 C 0.57911 0.64561 0.89925 0.0
H1404 H 0.52891 0.67682 0.85709 0.0
C1405 C 0.56853 0.61615 0.89809 0.0
H1406 H 0.5714 0.69025 0.88538 0.0
C1407 C 0.54411 0.60841 0.88165 0.0
C1408 C 0.52973 0.63 0.8662 0.0
H1409 H 0.57961 0.5989 0.90901 0.0
H1410 H 0.53696 0.58541 0.88043 0.0
C1411 C 0.53958 0.6596 0.86854 0.0
C1412 C 0.10856 0.81281 0.56228 0.0
C1413 C 0.12011 0.79787 0.58615 0.0
H1414 H 0.08715 0.85041 0.54788 0.0
C1415 C 0.12417 0.8126 0.61317 0.0
H1416 H 0.10544 0.80191 0.54117 0.0
C1417 C 0.11306 0.84026 0.61734 0.0
C1418 C 0.09807 0.85354 0.59441 0.0
H1419 H 0.133 0.80144 0.63192 0.0
H1420 H 0.11391 0.84981 0.6392 0.0
C1421 C 0.09798 0.8406 0.56625 0.0
C1422 C 0.96163 0.34218 0.36965 0.0
C1423 C 0.97289 0.37123 0.36694 0.0
H1424 H 0.92919 0.31349 0.38715 0.0
C1425 C 0.96023 0.39392 0.38217 0.0
H1426 H 0.97101 0.32412 0.35843 0.0
C1427 C 0.93605 0.3878 0.39875 0.0
C1428 C 0.92413 0.35886 0.40044 0.0
H1429 H 0.96846 0.41652 0.38058 0.0
H1430 H 0.9263 0.40588 0.40955 0.0
C1431 C 0.93759 0.33607 0.38618 0.0
C1432 C 0.38582 0.74579 0.36932 0.0
C1433 C 0.35949 0.75802 0.36496 0.0
H1434 H 0.4081 0.70741 0.37989 0.0
C1435 C 0.33482 0.74043 0.36995 0.0
H1436 H 0.40525 0.75867 0.36561 0.0
C1437 C 0.33648 0.71097 0.37833 0.0
C1438 C 0.36283 0.69849 0.38145 0.0
H1439 H 0.31421 0.74923 0.36683 0.0
H1440 H 0.31715 0.69775 0.38148 0.0
C1441 C 0.38746 0.71631 0.37728 0.0
C1442 C 0.99339 0.60282 0.1468 0.0
C1443 C 0.99358 0.6027 0.17774 0.0
H1444 H 0.97343 0.61766 0.10741 0.0
C1445 C 0.97051 0.61343 0.19255 0.0
H1446 H 0.0107 0.59427 0.13473 0.0
C1447 C 0.94918 0.62687 0.17686 0.0
C1448 C 0.95045 0.62963 0.1461 0.0
H1449 H 0.96987 0.61336 0.21633 0.0
H1450 H 0.93262 0.63674 0.18903 0.0
C1451 C 0.97193 0.61606 0.13109 0.0
C1452 C 0.19185 0.27475 0.91122 0.0
C1453 C 0.16649 0.28904 0.91439 0.0
H1454 H 0.21115 0.23451 0.9008 0.0
C1455 C 0.14095 0.27208 0.91437 0.0
H1456 H 0.21189 0.28723 0.9113 0.0
C1457 C 0.14053 0.24184 0.90878 0.0
C1458 C 0.16563 0.22801 0.90256 0.0
H1459 H 0.1211 0.28243 0.91722 0.0
H1460 H 0.12028 0.22983 0.90719 0.0
C1461 C 0.19141 0.24451 0.9052 0.0
C1462 C 0.53482 0.37285 0.59539 0.0
C1463 C 0.55818 0.36732 0.61351 0.0
H1464 H 0.49377 0.39044 0.59276 0.0
C1465 C 0.56011 0.38008 0.64165 0.0
H1466 H 0.53276 0.36314 0.57364 0.0
C1467 C 0.53807 0.39595 0.65246 0.0
C1468 C 0.51333 0.39888 0.63557 0.0
H1469 H 0.57799 0.3763 0.656 0.0
H1470 H 0.53965 0.40402 0.67488 0.0
C1471 C 0.51243 0.38834 0.60642 0.0
C1472 C 0.0272 0.37271 0.20763 0.0
C1473 C 0.04874 0.37424 0.22907 0.0
H1474 H 0.01521 0.36031 0.16357 0.0
C1475 C 0.07476 0.36245 0.22299 0.0
H1476 H 0.0069 0.38156 0.21198 0.0
C1477 C 0.0793 0.34957 0.19566 0.0
C1478 C 0.05819 0.34929 0.17357 0.0
H1479 H 0.09146 0.3628 0.23946 0.0
H1480 H 0.09957 0.34055 0.19167 0.0
C1481 C 0.03199 0.36065 0.18 0.0
C1482 C 0.3542 0.35186 0.95497 0.0
C1483 C 0.38022 0.35846 0.94135 0.0
H1484 H 0.3329 0.34095 -0.00478 0.0
C1485 C 0.40484 0.36027 0.95888 0.0
H1486 H 0.33478 0.3504 0.94213 0.0
C1487 C 0.40375 0.35479 0.98891 0.0
C1488 C 0.37798 0.34742 0.00253 0.0
H1489 H 0.42526 0.3655 0.9494 0.0
H1490 H 0.42336 0.35618 0.00144 0.0
C1491 C 0.35308 0.3465 0.98536 0.0
C1492 C 0.40728 0.60746 0.68842 0.0
C1493 C 0.40624 0.63775 0.68252 0.0
H1494 H 0.42236 0.57408 0.71638 0.0
C1495 C 0.42216 0.65793 0.70046 0.0
H1496 H 0.39572 0.5911 0.67497 0.0
C1497 C 0.43793 0.64785 0.72449 0.0
C1498 C 0.43767 0.61757 0.73083 0.0
H1499 H 0.42194 0.68139 0.69635 0.0
H1500 H 0.44933 0.66368 0.73867 0.0
C1501 C 0.42267 0.59758 0.71223 0.0
C1502 C 0.17712 0.68969 0.5012 0.0
C1503 C 0.1486 0.68235 0.50662 0.0
H1504 H 0.21188 0.68507 0.47232 0.0
C1505 C 0.13278 0.6652 0.4859 0.0
H1506 H 0.18974 0.70299 0.51677 0.0
C1507 C 0.14554 0.6545 0.46087 0.0
C1508 C 0.17415 0.6614 0.45568 0.0
H1509 H 0.11077 0.65912 0.48955 0.0
H1510 H 0.13309 0.64051 0.44574 0.0
C1511 C 0.1897 0.67962 0.47572 0.0
C1512 C 0.16317 0.63617 0.26045 0.0
C1513 C 0.13372 0.63398 0.26319 0.0
H1514 H 0.2032 0.64003 0.28304 0.0
C1515 C 0.12186 0.63821 0.29085 0.0
H1516 H 0.17277 0.63302 0.23932 0.0
C1517 C 0.13923 0.64143 0.31583 0.0
C1518 C 0.16863 0.64156 0.31329 0.0
H1519 H 0.09922 0.63633 0.29356 0.0
H1520 H 0.1297 0.64208 0.33729 0.0
C1521 C 0.18055 0.64033 0.28536 0.0
C1522 C 0.09106 0.39878 0.02452 0.0
C1523 C 0.10977 0.39469 0.04818 0.0
H1524 H 0.08601 0.40117 0.97771 0.0
C1525 C 0.13858 0.39244 0.04281 0.0
H1526 H 0.06874 0.40063 0.02819 0.0
C1527 C 0.14847 0.39311 0.01428 0.0
C1528 C 0.12971 0.39566 0.99036 0.0
H1529 H 0.15354 0.3897 0.06072 0.0
H1530 H 0.17077 0.3906 0.01101 0.0
C1531 C 0.10095 0.39902 -0.00428 0.0
C1532 C 0.42043 0.33768 0.78821 0.0
C1533 C 0.39238 0.33625 0.79761 0.0
H1534 H 0.44936 0.35154 0.75483 0.0
C1535 C 0.37151 0.34808 0.7795 0.0
H1536 H 0.43691 0.32847 0.80153 0.0
C1537 C 0.37866 0.36158 0.75291 0.0
C1538 C 0.40671 0.3629 0.74349 0.0
H1539 H 0.34964 0.3472 0.78594 0.0
H1540 H 0.36217 0.37088 0.73978 0.0
C1541 C 0.4275 0.35071 0.76137 0.0
C1542 C 0.41997 0.61467 0.50296 0.0
C1543 C 0.41257 0.6346 0.48115 0.0
H1544 H 0.42067 0.60581 0.54903 0.0
C1545 C 0.40761 0.66381 0.4888 0.0
H1546 H 0.42372 0.59201 0.49735 0.0
C1547 C 0.40586 0.67182 0.51832 0.0
C1548 C 0.40847 0.65037 0.54019 0.0
H1549 H 0.40176 0.6794 0.47205 0.0
H1550 H 0.39851 0.69338 0.52361 0.0
C1551 C 0.41816 0.62262 0.53247 0.0
C1552 C 0.19419 0.11485 0.37799 0.0
C1553 C 0.19569 0.14538 0.3831 0.0
H1554 H 0.21607 0.07695 0.36573 0.0
C1555 C 0.22014 0.16199 0.37515 0.0
H1556 H 0.1755 0.10155 0.38368 0.0
C1557 C 0.24371 0.14777 0.36503 0.0
C1558 C 0.243 0.11683 0.36275 0.0
H1559 H 0.2219 0.18555 0.37906 0.0
H1560 H 0.26295 0.16079 0.3609 0.0
C1561 C 0.21755 0.10073 0.36792 0.0
C1562 C 0.72975 0.35393 0.63742 0.0
C1563 C 0.74281 0.36705 0.61284 0.0
H1564 H 0.69402 0.32904 0.65401 0.0
C1565 C 0.7289 0.36476 0.58538 0.0
H1566 H 0.7399 0.35519 0.6589 0.0
C1567 C 0.70258 0.34967 0.58255 0.0
C1568 C 0.68952 0.33649 0.60711 0.0
H1569 H 0.73837 0.37452 0.56597 0.0
H1570 H 0.6925 0.3484 0.56103 0.0
C1571 C 0.70344 0.33884 0.63459 0.0
C1572 C 0.35781 0.92734 0.39333 0.0
C1573 C 0.33677 0.90531 0.3867 0.0
H1574 H 0.36733 0.97363 0.39864 0.0
C1575 C 0.30831 0.91213 0.38917 0.0
H1576 H 0.37994 0.92285 0.3921 0.0
C1577 C 0.30115 0.94132 0.39347 0.0
C1578 C 0.32236 0.96393 0.39492 0.0
H1579 H 0.2916 0.89555 0.38465 0.0
H1580 H 0.27915 0.9465 0.39193 0.0
C1581 C 0.35063 0.95654 0.397 0.0
C1582 C 0.80669 0.65513 0.13222 0.0
C1583 C 0.82255 0.65637 0.10644 0.0
H1584 H 0.7678 0.64211 0.15223 0.0
C1585 C 0.8106 0.64412 0.08037 0.0
H1586 H 0.81526 0.66415 0.15272 0.0
C1587 C 0.7831 0.63147 0.08004 0.0
C1588 C 0.76718 0.63065 0.10581 0.0
H1589 H 0.82229 0.6447 0.06011 0.0
H1590 H 0.77425 0.62262 0.05958 0.0
C1591 C 0.77942 0.64236 0.13193 0.0
C1592 C 0.66229 0.57129 0.39789 0.0
C1593 C 0.68714 0.58738 0.38997 0.0
H1594 H 0.6414 0.52866 0.40184 0.0
C1595 C 0.71212 0.5722 0.38738 0.0
H1596 H 0.64271 0.58215 0.40064 0.0
C1597 C 0.71135 0.54134 0.38868 0.0
C1598 C 0.68556 0.52529 0.39218 0.0
H1599 H 0.7317 0.58385 0.38164 0.0
H1600 H 0.73031 0.53009 0.38379 0.0
C1601 C 0.66144 0.54052 0.39856 0.0
C1602 C 0.23461 0.84136 0.85592 0.0
C1603 C 0.24069 0.86783 0.84082 0.0
H1604 H 0.25153 0.80478 0.87864 0.0
C1605 C 0.26838 0.87426 0.83151 0.0
H1606 H 0.21339 0.83571 0.86309 0.0
C1607 C 0.29018 0.85665 0.84062 0.0
C1608 C 0.28446 0.83194 0.85839 0.0
H1609 H 0.27371 0.89443 0.81975 0.0
H1610 H 0.31178 0.86398 0.83627 0.0
C1611 C 0.25636 0.82338 0.8644 0.0
C1612 C 0.38912 0.9823 0.11106 0.0
C1613 C 0.36771 0.97138 0.09167 0.0
H1614 H 0.41477 0.01993 0.12535 0.0
C1615 C 0.35901 0.98928 0.06841 0.0
H1616 H 0.39627 0.96909 0.12923 0.0
C1617 C 0.37024 0.01826 0.06578 0.0
C1618 C 0.38974 0.02985 0.08682 0.0
H1619 H 0.34257 0.98141 0.05314 0.0
H1620 H 0.36215 0.03221 0.04866 0.0
C1621 C 0.3997 0.01141 0.10892 0.0
C1622 C 0.0908 0.00112 0.59053 0.0
C1623 C 0.07071 0.99303 0.61176 0.0
H1624 H 0.12478 0.03152 0.57867 0.0
C1625 C 0.06722 0.01168 0.6359 0.0
H1626 H 0.09394 0.98699 0.57177 0.0
C1627 C 0.08427 0.03738 0.63945 0.0
C1628 C 0.1057 0.04452 0.61935 0.0
H1629 H 0.05176 0.00598 0.65247 0.0
H1630 H 0.08165 0.05077 0.65886 0.0
C1631 C 0.10845 0.02651 0.59451 0.0
loop_
_geom_bond_atom_site_label_1
_geom_bond_atom_site_label_2
_geom_bond_distance
_geom_bond_site_symmetry_2
_ccdc_geom_bond_type
Mg0 O1 2.028 . S
Mg0 O7 1.986 . S
Mg0 O9 2.114 . S
Mg0 O10 2.251 . S
Mg0 O13 2.010 . S
O1 Mg0 2.028 . S
O1 C4 1.250 . S
O2 Mg3 2.028 . S
O2 C4 1.248 . S
Mg3 O2 2.028 . S
Mg3 O8 2.032 . S
Mg3 O10 2.079 . S
C4 O1 1.250 . S
C4 O2 1.248 . S
C5 O6 1.264 . S
C5 O13 1.249 . S
O6 C5 1.264 . S
O7 Mg0 1.986 . S
O7 C11 1.246 . S
O8 Mg3 2.032 . S
O8 C11 1.259 . S
O9 Mg0 2.114 . S
O9 C12 1.252 . S
O10 Mg0 2.251 . S
O10 Mg3 2.079 . S
O10 C12 1.273 . S
C11 O7 1.246 . S
C11 O8 1.259 . S
C12 O9 1.252 . S
C12 O10 1.273 . S
O13 Mg0 2.010 . S
O13 C5 1.249 . S
Mg14 O15 2.028 . S
Mg14 O21 1.986 . S
Mg14 O23 2.114 . S
Mg14 O24 2.251 . S
Mg14 O27 2.010 . S
O15 Mg14 2.028 . S
O15 C18 1.250 . S
O16 Mg17 2.028 . S
O16 C18 1.248 . S
Mg17 O16 2.028 . S
Mg17 O22 2.032 . S
Mg17 O24 2.079 . S
C18 O15 1.250 . S
C18 O16 1.248 . S
C19 O20 1.264 . S
C19 O27 1.249 . S
O20 C19 1.264 . S
O21 Mg14 1.986 . S
O21 C25 1.246 . S
O22 Mg17 2.032 . S
O22 C25 1.259 . S
O23 Mg14 2.114 . S
O23 C26 1.252 . S
O24 Mg14 2.251 . S
O24 Mg17 2.079 . S
O24 C26 1.273 . S
C25 O21 1.246 . S
C25 O22 1.259 . S
C26 O23 1.252 . S
C26 O24 1.273 . S
O27 Mg14 2.010 . S
O27 C19 1.249 . S
Mg28 O29 2.028 . S
Mg28 O35 1.986 . S
Mg28 O37 2.114 . S
Mg28 O38 2.251 . S
Mg28 O41 2.010 . S
O29 Mg28 2.028 . S
O29 C32 1.250 . S
O30 Mg31 2.028 . S
O30 C32 1.248 . S
Mg31 O30 2.028 . S
Mg31 O36 2.032 . S
Mg31 O38 2.079 . S
C32 O29 1.250 . S
C32 O30 1.248 . S
C33 O34 1.264 . S
C33 O41 1.249 . S
O34 C33 1.264 . S
O35 Mg28 1.986 . S
O35 C39 1.246 . S
O36 Mg31 2.032 . S
O36 C39 1.259 . S
O37 Mg28 2.114 . S
O37 C40 1.252 . S
O38 Mg28 2.251 . S
O38 Mg31 2.079 . S
O38 C40 1.273 . S
C39 O35 1.246 . S
C39 O36 1.259 . S
C40 O37 1.252 . S
C40 O38 1.273 . S
O41 Mg28 2.010 . S
O41 C33 1.249 . S
Mg42 O43 2.028 . S
Mg42 O49 1.986 . S
Mg42 O51 2.114 . S
Mg42 O52 2.251 . S
Mg42 O55 2.010 . S
O43 Mg42 2.028 . S
O43 C46 1.250 . S
O44 Mg45 2.028 . S
O44 C46 1.248 . S
Mg45 O44 2.028 . S
Mg45 O50 2.032 . S
Mg45 O52 2.079 . S
C46 O43 1.250 . S
C46 O44 1.248 . S
C47 O48 1.264 . S
C47 O55 1.249 . S
O48 C47 1.264 . S
O49 Mg42 1.986 . S
O49 C53 1.246 . S
O50 Mg45 2.032 . S
O50 C53 1.259 . S
O51 Mg42 2.114 . S
O51 C54 1.252 . S
O52 Mg42 2.251 . S
O52 Mg45 2.079 . S
O52 C54 1.273 . S
C53 O49 1.246 . S
C53 O50 1.259 . S
C54 O51 1.252 . S
C54 O52 1.273 . S
O55 Mg42 2.010 . S
O55 C47 1.249 . S
Mg56 O57 2.028 . S
Mg56 O63 1.986 . S
Mg56 O65 2.114 . S
Mg56 O66 2.251 . S
Mg56 O69 2.010 . S
O57 Mg56 2.028 . S
O57 C60 1.250 . S
O58 Mg59 2.028 . S
O58 C60 1.248 . S
Mg59 O58 2.028 . S
Mg59 O64 2.032 . S
Mg59 O66 2.079 . S
C60 O57 1.250 . S
C60 O58 1.248 . S
C61 O62 1.264 1_554 S
C61 O69 1.249 . S
O62 C61 1.264 1_556 S
O63 Mg56 1.986 . S
O63 C67 1.246 . S
O64 Mg59 2.032 . S
O64 C67 1.259 . S
O65 Mg56 2.114 . S
O65 C68 1.252 . S
O66 Mg56 2.251 . S
O66 Mg59 2.079 . S
O66 C68 1.273 . S
C67 O63 1.246 . S
C67 O64 1.259 . S
C68 O65 1.252 . S
C68 O66 1.273 . S
O69 Mg56 2.010 . S
O69 C61 1.249 . S
Mg70 O71 2.028 . S
Mg70 O77 1.986 . S
Mg70 O79 2.114 . S
Mg70 O80 2.251 . S
Mg70 O83 2.010 . S
O71 Mg70 2.028 . S
O71 C74 1.250 . S
O72 Mg73 2.028 . S
O72 C74 1.248 . S
Mg73 O72 2.028 . S
Mg73 O78 2.032 . S
Mg73 O80 2.079 . S
C74 O71 1.250 . S
C74 O72 1.248 . S
C75 O76 1.264 . S
C75 O83 1.249 . S
O76 C75 1.264 . S
O77 Mg70 1.986 . S
O77 C81 1.246 . S
O78 Mg73 2.032 . S
O78 C81 1.259 . S
O79 Mg70 2.114 . S
O79 C82 1.252 . S
O80 Mg70 2.251 . S
O80 Mg73 2.079 . S
O80 C82 1.273 . S
C81 O77 1.246 . S
C81 O78 1.259 . S
C82 O79 1.252 . S
C82 O80 1.273 . S
O83 Mg70 2.010 . S
O83 C75 1.249 . S
Mg84 O85 2.028 . S
Mg84 O91 1.986 . S
Mg84 O93 2.114 . S
Mg84 O94 2.251 . S
Mg84 O97 2.010 . S
O85 Mg84 2.028 . S
O85 C88 1.250 . S
O86 Mg87 2.028 . S
O86 C88 1.248 . S
Mg87 O86 2.028 . S
Mg87 O92 2.032 . S
Mg87 O94 2.079 . S
C88 O85 1.250 . S
C88 O86 1.248 . S
C89 O90 1.264 . S
C89 O97 1.249 . S
O90 C89 1.264 . S
O91 Mg84 1.986 . S
O91 C95 1.246 . S
O92 Mg87 2.032 . S
O92 C95 1.259 . S
O93 Mg84 2.114 . S
O93 C96 1.252 . S
O94 Mg84 2.251 . S
O94 Mg87 2.079 . S
O94 C96 1.273 . S
C95 O91 1.246 . S
C95 O92 1.259 . S
C96 O93 1.252 . S
C96 O94 1.273 . S
O97 Mg84 2.010 . S
O97 C89 1.249 . S
Mg98 O99 2.028 . S
Mg98 O105 1.986 . S
Mg98 O107 2.114 . S
Mg98 O108 2.251 . S
Mg98 O111 2.010 . S
O99 Mg98 2.028 . S
O99 C102 1.250 . S
O100 Mg101 2.028 . S
O100 C102 1.248 . S
Mg101 O100 2.028 . S
Mg101 O106 2.032 . S
Mg101 O108 2.079 . S
C102 O99 1.250 . S
C102 O100 1.248 . S
C103 O104 1.264 . S
C103 O111 1.249 . S
O104 C103 1.264 . S
O105 Mg98 1.986 . S
O105 C109 1.246 . S
O106 Mg101 2.032 . S
O106 C109 1.259 . S
O107 Mg98 2.114 . S
O107 C110 1.252 . S
O108 Mg98 2.251 . S
O108 Mg101 2.079 . S
O108 C110 1.273 . S
C109 O105 1.246 . S
C109 O106 1.259 . S
C110 O107 1.252 . S
C110 O108 1.273 . S
O111 Mg98 2.010 . S
O111 C103 1.249 . S
Mg112 O113 2.028 . S
Mg112 O119 1.986 . S
Mg112 O121 2.114 . S
Mg112 O122 2.251 . S
Mg112 O125 2.010 . S
O113 Mg112 2.028 . S
O113 C116 1.250 . S
O114 Mg115 2.028 . S
O114 C116 1.248 . S
Mg115 O114 2.028 . S
Mg115 O120 2.032 . S
Mg115 O122 2.079 . S
C116 O113 1.250 . S
C116 O114 1.248 . S
C117 O118 1.264 . S
C117 O125 1.249 . S
O118 C117 1.264 . S
O119 Mg112 1.986 . S
O119 C123 1.246 . S
O120 Mg115 2.032 . S
O120 C123 1.259 . S
O121 Mg112 2.114 . S
O121 C124 1.252 . S
O122 Mg112 2.251 . S
O122 Mg115 2.079 . S
O122 C124 1.273 . S
C123 O119 1.246 . S
C123 O120 1.259 . S
C124 O121 1.252 . S
C124 O122 1.273 . S
O125 Mg112 2.010 . S
O125 C117 1.249 . S
Mg126 O127 2.028 . S
Mg126 O133 1.986 . S
Mg126 O135 2.114 . S
Mg126 O136 2.251 . S
Mg126 O139 2.010 . S
O127 Mg126 2.028 . S
O127 C130 1.250 . S
O128 Mg129 2.028 . S
O128 C130 1.248 . S
Mg129 O128 2.028 . S
Mg129 O134 2.032 . S
Mg129 O136 2.079 . S
C130 O127 1.250 . S
C130 O128 1.248 . S
C131 O132 1.264 . S
C131 O139 1.249 . S
O132 C131 1.264 . S
O133 Mg126 1.986 . S
O133 C137 1.246 . S
O134 Mg129 2.032 . S
O134 C137 1.259 . S
O135 Mg126 2.114 . S
O135 C138 1.252 . S
O136 Mg126 2.251 . S
O136 Mg129 2.079 . S
O136 C138 1.273 . S
C137 O133 1.246 . S
C137 O134 1.259 . S
C138 O135 1.252 . S
C138 O136 1.273 . S
O139 Mg126 2.010 . S
O139 C131 1.249 . S
Mg140 O141 2.028 . S
Mg140 O147 1.986 . S
Mg140 O149 2.114 . S
Mg140 O150 2.251 . S
Mg140 O153 2.010 . S
O141 Mg140 2.028 . S
O141 C144 1.250 . S
O142 Mg143 2.028 . S
O142 C144 1.248 . S
Mg143 O142 2.028 . S
Mg143 O148 2.032 . S
Mg143 O150 2.079 . S
C144 O141 1.250 . S
C144 O142 1.248 . S
C145 O146 1.264 . S
C145 O153 1.249 . S
O146 C145 1.264 . S
O147 Mg140 1.986 . S
O147 C151 1.246 . S
O148 Mg143 2.032 . S
O148 C151 1.259 . S
O149 Mg140 2.114 . S
O149 C152 1.252 . S
O150 Mg140 2.251 . S
O150 Mg143 2.079 . S
O150 C152 1.273 . S
C151 O147 1.246 . S
C151 O148 1.259 . S
C152 O149 1.252 . S
C152 O150 1.273 . S
O153 Mg140 2.010 . S
O153 C145 1.249 . S
Mg154 O155 2.028 . S
Mg154 O161 1.986 . S
Mg154 O163 2.114 . S
Mg154 O164 2.251 . S
Mg154 O167 2.010 . S
O155 Mg154 2.028 . S
O155 C158 1.250 . S
O156 Mg157 2.028 . S
O156 C158 1.248 . S
Mg157 O156 2.028 . S
Mg157 O162 2.032 . S
Mg157 O164 2.079 . S
C158 O155 1.250 . S
C158 O156 1.248 . S
C159 O160 1.264 1_545 S
C159 O167 1.249 . S
O160 C159 1.264 1_565 S
O161 Mg154 1.986 . S
O161 C165 1.246 . S
O162 Mg157 2.032 . S
O162 C165 1.259 . S
O163 Mg154 2.114 . S
O163 C166 1.252 . S
O164 Mg154 2.251 . S
O164 Mg157 2.079 . S
O164 C166 1.273 . S
C165 O161 1.246 . S
C165 O162 1.259 . S
C166 O163 1.252 . S
C166 O164 1.273 . S
O167 Mg154 2.010 . S
O167 C159 1.249 . S
Mg168 O169 2.028 . S
Mg168 O175 1.986 . S
Mg168 O177 2.114 . S
Mg168 O178 2.251 . S
Mg168 O181 2.010 . S
O169 Mg168 2.028 . S
O169 C172 1.250 . S
O170 Mg171 2.028 . S
O170 C172 1.248 . S
Mg171 O170 2.028 . S
Mg171 O176 2.032 . S
Mg171 O178 2.079 . S
C172 O169 1.250 . S
C172 O170 1.248 . S
C173 O174 1.264 . S
C173 O181 1.249 . S
O174 C173 1.264 . S
O175 Mg168 1.986 . S
O175 C179 1.246 . S
O176 Mg171 2.032 . S
O176 C179 1.259 . S
O177 Mg168 2.114 . S
O177 C180 1.252 . S
O178 Mg168 2.251 . S
O178 Mg171 2.079 . S
O178 C180 1.273 . S
C179 O175 1.246 . S
C179 O176 1.259 . S
C180 O177 1.252 . S
C180 O178 1.273 . S
O181 Mg168 2.010 . S
O181 C173 1.249 . S
Mg182 O183 2.028 . S
Mg182 O189 1.986 . S
Mg182 O191 2.114 . S
Mg182 O192 2.251 . S
Mg182 O195 2.010 . S
O183 Mg182 2.028 . S
O183 C186 1.250 . S
O184 Mg185 2.028 . S
O184 C186 1.248 . S
Mg185 O184 2.028 . S
Mg185 O190 2.032 . S
Mg185 O192 2.079 . S
C186 O183 1.250 . S
C186 O184 1.248 . S
C187 O188 1.264 . S
C187 O195 1.249 . S
O188 C187 1.264 . S
O189 Mg182 1.986 . S
O189 C193 1.246 . S
O190 Mg185 2.032 . S
O190 C193 1.259 . S
O191 Mg182 2.114 . S
O191 C194 1.252 . S
O192 Mg182 2.251 . S
O192 Mg185 2.079 . S
O192 C194 1.273 . S
C193 O189 1.246 . S
C193 O190 1.259 . S
C194 O191 1.252 . S
C194 O192 1.273 . S
O195 Mg182 2.010 . S
O195 C187 1.249 . S
Mg196 O197 2.028 . S
Mg196 O203 1.986 . S
Mg196 O205 2.114 . S
Mg196 O206 2.251 . S
Mg196 O209 2.010 . S
O197 Mg196 2.028 . S
O197 C200 1.250 . S
O198 Mg199 2.028 . S
O198 C200 1.248 . S
Mg199 O198 2.028 . S
Mg199 O204 2.032 . S
Mg199 O206 2.079 . S
C200 O197 1.250 . S
C200 O198 1.248 . S
C201 O202 1.264 . S
C201 O209 1.249 . S
O202 C201 1.264 . S
O203 Mg196 1.986 . S
O203 C207 1.246 . S
O204 Mg199 2.032 . S
O204 C207 1.259 . S
O205 Mg196 2.114 . S
O205 C208 1.252 . S
O206 Mg196 2.251 . S
O206 Mg199 2.079 . S
O206 C208 1.273 . S
C207 O203 1.246 . S
C207 O204 1.259 . S
C208 O205 1.252 . S
C208 O206 1.273 . S
O209 Mg196 2.010 . S
O209 C201 1.249 . S
Mg210 O211 2.028 . S
Mg210 O217 1.986 . S
Mg210 O219 2.114 . S
Mg210 O220 2.251 . S
Mg210 O223 2.010 . S
O211 Mg210 2.028 . S
O211 C214 1.250 . S
O212 Mg213 2.028 . S
O212 C214 1.248 . S
Mg213 O212 2.028 . S
Mg213 O218 2.032 . S
Mg213 O220 2.079 . S
C214 O211 1.250 . S
C214 O212 1.248 . S
C215 O216 1.264 . S
C215 O223 1.249 . S
O216 C215 1.264 . S
O217 Mg210 1.986 . S
O217 C221 1.246 . S
O218 Mg213 2.032 . S
O218 C221 1.259 . S
O219 Mg210 2.114 . S
O219 C222 1.252 . S
O220 Mg210 2.251 . S
O220 Mg213 2.079 . S
O220 C222 1.273 . S
C221 O217 1.246 . S
C221 O218 1.259 . S
C222 O219 1.252 . S
C222 O220 1.273 . S
O223 Mg210 2.010 . S
O223 C215 1.249 . S
Mg224 O225 2.028 . S
Mg224 O231 1.986 . S
Mg224 O233 2.114 . S
Mg224 O234 2.251 . S
Mg224 O237 2.010 . S
O225 Mg224 2.028 . S
O225 C228 1.250 . S
O226 Mg227 2.028 . S
O226 C228 1.248 . S
Mg227 O226 2.028 . S
Mg227 O232 2.032 . S
Mg227 O234 2.079 . S
C228 O225 1.250 . S
C228 O226 1.248 . S
C229 O230 1.264 1_655 S
C229 O237 1.249 . S
O230 C229 1.264 1_455 S
O231 Mg224 1.986 . S
O231 C235 1.246 . S
O232 Mg227 2.032 . S
O232 C235 1.259 . S
O233 Mg224 2.114 . S
O233 C236 1.252 . S
O234 Mg224 2.251 . S
O234 Mg227 2.079 . S
O234 C236 1.273 . S
C235 O231 1.246 . S
C235 O232 1.259 . S
C236 O233 1.252 . S
C236 O234 1.273 . S
O237 Mg224 2.010 . S
O237 C229 1.249 . S
Mg238 O239 2.028 . S
Mg238 O245 1.986 . S
Mg238 O247 2.114 . S
Mg238 O248 2.251 . S
Mg238 O251 2.010 . S
O239 Mg238 2.028 . S
O239 C242 1.250 . S
O240 Mg241 2.028 . S
O240 C242 1.248 . S
Mg241 O240 2.028 . S
Mg241 O246 2.032 . S
Mg241 O248 2.079 . S
C242 O239 1.250 . S
C242 O240 1.248 . S
C243 O244 1.264 . S
C243 O251 1.249 . S
O244 C243 1.264 . S
O245 Mg238 1.986 . S
O245 C249 1.246 . S
O246 Mg241 2.032 . S
O246 C249 1.259 . S
O247 Mg238 2.114 . S
O247 C250 1.252 . S
O248 Mg238 2.251 . S
O248 Mg241 2.079 . S
O248 C250 1.273 . S
C249 O245 1.246 . S
C249 O246 1.259 . S
C250 O247 1.252 . S
C250 O248 1.273 . S
O251 Mg238 2.010 . S
O251 C243 1.249 . S
Mg252 O253 2.028 . S
Mg252 O259 1.986 . S
Mg252 O261 2.114 . S
Mg252 O262 2.251 . S
Mg252 O265 2.010 . S
O253 Mg252 2.028 . S
O253 C256 1.250 . S
O254 Mg255 2.028 . S
O254 C256 1.248 . S
Mg255 O254 2.028 . S
Mg255 O260 2.032 . S
Mg255 O262 2.079 . S
C256 O253 1.250 . S
C256 O254 1.248 . S
C257 O258 1.264 . S
C257 O265 1.249 . S
O258 C257 1.264 . S
O259 Mg252 1.986 . S
O259 C263 1.246 . S
O260 Mg255 2.032 . S
O260 C263 1.259 . S
O261 Mg252 2.114 . S
O261 C264 1.252 . S
O262 Mg252 2.251 . S
O262 Mg255 2.079 . S
O262 C264 1.273 . S
C263 O259 1.246 . S
C263 O260 1.259 . S
C264 O261 1.252 . S
C264 O262 1.273 . S
O265 Mg252 2.010 . S
O265 C257 1.249 . S
Mg266 O267 2.028 . S
Mg266 O273 1.986 . S
Mg266 O275 2.114 . S
Mg266 O276 2.251 . S
Mg266 O279 2.010 . S
O267 Mg266 2.028 . S
O267 C270 1.250 . S
O268 Mg269 2.028 . S
O268 C270 1.248 . S
Mg269 O268 2.028 . S
Mg269 O274 2.032 . S
Mg269 O276 2.079 . S
C270 O267 1.250 . S
C270 O268 1.248 . S
C271 O272 1.264 . S
C271 O279 1.249 . S
O272 C271 1.264 . S
O273 Mg266 1.986 . S
O273 C277 1.246 . S
O274 Mg269 2.032 . S
O274 C277 1.259 . S
O275 Mg266 2.114 . S
O275 C278 1.252 . S
O276 Mg266 2.251 . S
O276 Mg269 2.079 . S
O276 C278 1.273 . S
C277 O273 1.246 . S
C277 O274 1.259 . S
C278 O275 1.252 . S
C278 O276 1.273 . S
O279 Mg266 2.010 . S
O279 C271 1.249 . S
Mg280 O281 2.028 . S
Mg280 O287 1.986 . S
Mg280 O289 2.114 . S
Mg280 O290 2.251 . S
Mg280 O293 2.010 . S
O281 Mg280 2.028 . S
O281 C284 1.250 . S
O282 Mg283 2.028 . S
O282 C284 1.248 . S
Mg283 O282 2.028 . S
Mg283 O288 2.032 . S
Mg283 O290 2.079 . S
C284 O281 1.250 . S
C284 O282 1.248 . S
C285 O286 1.264 . S
C285 O293 1.249 . S
O286 C285 1.264 . S
O287 Mg280 1.986 . S
O287 C291 1.246 . S
O288 Mg283 2.032 . S
O288 C291 1.259 . S
O289 Mg280 2.114 . S
O289 C292 1.252 . S
O290 Mg280 2.251 . S
O290 Mg283 2.079 . S
O290 C292 1.273 . S
C291 O287 1.246 . S
C291 O288 1.259 . S
C292 O289 1.252 . S
C292 O290 1.273 . S
O293 Mg280 2.010 . S
O293 C285 1.249 . S
Mg294 O295 2.028 . S
Mg294 O301 1.986 . S
Mg294 O303 2.114 . S
Mg294 O304 2.251 . S
Mg294 O307 2.010 . S
O295 Mg294 2.028 . S
O295 C298 1.250 . S
O296 Mg297 2.028 . S
O296 C298 1.248 . S
Mg297 O296 2.028 . S
Mg297 O302 2.032 . S
Mg297 O304 2.079 . S
C298 O295 1.250 . S
C298 O296 1.248 . S
C299 O300 1.264 . S
C299 O307 1.249 . S
O300 C299 1.264 . S
O301 Mg294 1.986 . S
O301 C305 1.246 . S
O302 Mg297 2.032 . S
O302 C305 1.259 . S
O303 Mg294 2.114 . S
O303 C306 1.252 . S
O304 Mg294 2.251 . S
O304 Mg297 2.079 . S
O304 C306 1.273 . S
C305 O301 1.246 . S
C305 O302 1.259 . S
C306 O303 1.252 . S
C306 O304 1.273 . S
O307 Mg294 2.010 . S
O307 C299 1.249 . S
Mg308 O309 2.028 . S
Mg308 O315 1.986 . S
Mg308 O317 2.114 . S
Mg308 O318 2.251 . S
Mg308 O321 2.010 . S
O309 Mg308 2.028 . S
O309 C312 1.250 . S
O310 Mg311 2.028 . S
O310 C312 1.248 . S
Mg311 O310 2.028 . S
Mg311 O316 2.032 . S
Mg311 O318 2.079 . S
C312 O309 1.250 . S
C312 O310 1.248 . S
C313 O314 1.264 . S
C313 O321 1.249 . S
O314 C313 1.264 . S
O315 Mg308 1.986 . S
O315 C319 1.246 . S
O316 Mg311 2.032 . S
O316 C319 1.259 . S
O317 Mg308 2.114 . S
O317 C320 1.252 . S
O318 Mg308 2.251 . S
O318 Mg311 2.079 . S
O318 C320 1.273 . S
C319 O315 1.246 . S
C319 O316 1.259 . S
C320 O317 1.252 . S
C320 O318 1.273 . S
O321 Mg308 2.010 . S
O321 C313 1.249 . S
Mg322 O323 2.028 . S
Mg322 O329 1.986 . S
Mg322 O331 2.114 . S
Mg322 O332 2.251 . S
Mg322 O335 2.010 . S
O323 Mg322 2.028 . S
O323 C326 1.250 . S
O324 Mg325 2.028 . S
O324 C326 1.248 . S
Mg325 O324 2.028 . S
Mg325 O330 2.032 . S
Mg325 O332 2.079 . S
C326 O323 1.250 . S
C326 O324 1.248 . S
C327 O328 1.264 . S
C327 O335 1.249 . S
O328 C327 1.264 . S
O329 Mg322 1.986 . S
O329 C333 1.246 . S
O330 Mg325 2.032 . S
O330 C333 1.259 . S
O331 Mg322 2.114 . S
O331 C334 1.252 . S
O332 Mg322 2.251 . S
O332 Mg325 2.079 . S
O332 C334 1.273 . S
C333 O329 1.246 . S
C333 O330 1.259 . S
C334 O331 1.252 . S
C334 O332 1.273 . S
O335 Mg322 2.010 . S
O335 C327 1.249 . S
Mg336 O337 2.028 . S
Mg336 O343 1.986 . S
Mg336 O345 2.114 . S
Mg336 O346 2.251 . S
Mg336 O349 2.010 . S
O337 Mg336 2.028 . S
O337 C340 1.250 . S
O338 Mg339 2.028 . S
O338 C340 1.248 . S
Mg339 O338 2.028 . S
Mg339 O344 2.032 . S
Mg339 O346 2.079 . S
C340 O337 1.250 . S
C340 O338 1.248 . S
C341 O342 1.264 . S
C341 O349 1.249 . S
O342 C341 1.264 . S
O343 Mg336 1.986 . S
O343 C347 1.246 . S
O344 Mg339 2.032 . S
O344 C347 1.259 . S
O345 Mg336 2.114 . S
O345 C348 1.252 . S
O346 Mg336 2.251 . S
O346 Mg339 2.079 . S
O346 C348 1.273 . S
C347 O343 1.246 . S
C347 O344 1.259 . S
C348 O345 1.252 . S
C348 O346 1.273 . S
O349 Mg336 2.010 . S
O349 C341 1.249 . S
Mg350 O351 2.028 . S
Mg350 O357 1.986 . S
Mg350 O359 2.114 . S
Mg350 O360 2.251 . S
Mg350 O363 2.010 . S
O351 Mg350 2.028 . S
O351 C354 1.250 . S
O352 Mg353 2.028 . S
O352 C354 1.248 . S
Mg353 O352 2.028 . S
Mg353 O358 2.032 . S
Mg353 O360 2.079 . S
C354 O351 1.250 . S
C354 O352 1.248 . S
C355 O356 1.264 . S
C355 O363 1.249 . S
O356 C355 1.264 . S
O357 Mg350 1.986 . S
O357 C361 1.246 . S
O358 Mg353 2.032 . S
O358 C361 1.259 . S
O359 Mg350 2.114 . S
O359 C362 1.252 . S
O360 Mg350 2.251 . S
O360 Mg353 2.079 . S
O360 C362 1.273 . S
C361 O357 1.246 . S
C361 O358 1.259 . S
C362 O359 1.252 . S
C362 O360 1.273 . S
O363 Mg350 2.010 . S
O363 C355 1.249 . S
Mg364 O365 2.028 . S
Mg364 O371 1.986 . S
Mg364 O373 2.114 . S
Mg364 O374 2.251 . S
Mg364 O377 2.010 . S
O365 Mg364 2.028 . S
O365 C368 1.250 . S
O366 Mg367 2.028 . S
O366 C368 1.248 . S
Mg367 O366 2.028 . S
Mg367 O372 2.032 . S
Mg367 O374 2.079 . S
C368 O365 1.250 . S
C368 O366 1.248 . S
C369 O370 1.264 . S
C369 O377 1.249 . S
O370 C369 1.264 . S
O371 Mg364 1.986 . S
O371 C375 1.246 . S
O372 Mg367 2.032 . S
O372 C375 1.259 . S
O373 Mg364 2.114 . S
O373 C376 1.252 . S
O374 Mg364 2.251 . S
O374 Mg367 2.079 . S
O374 C376 1.273 . S
C375 O371 1.246 . S
C375 O372 1.259 . S
C376 O373 1.252 . S
C376 O374 1.273 . S
O377 Mg364 2.010 . S
O377 C369 1.249 . S
Mg378 O379 2.028 . S
Mg378 O385 1.986 . S
Mg378 O387 2.114 . S
Mg378 O388 2.251 . S
Mg378 O391 2.010 . S
O379 Mg378 2.028 . S
O379 C382 1.250 . S
O380 Mg381 2.028 . S
O380 C382 1.248 . S
Mg381 O380 2.028 . S
Mg381 O386 2.032 . S
Mg381 O388 2.079 . S
C382 O379 1.250 . S
C382 O380 1.248 . S
C383 O384 1.264 . S
C383 O391 1.249 . S
O384 C383 1.264 . S
O385 Mg378 1.986 . S
O385 C389 1.246 . S
O386 Mg381 2.032 . S
O386 C389 1.259 . S
O387 Mg378 2.114 . S
O387 C390 1.252 . S
O388 Mg378 2.251 . S
O388 Mg381 2.079 . S
O388 C390 1.273 . S
C389 O385 1.246 . S
C389 O386 1.259 . S
C390 O387 1.252 . S
C390 O388 1.273 . S
O391 Mg378 2.010 . S
O391 C383 1.249 . S
Mg392 O393 2.028 . S
Mg392 O399 1.986 . S
Mg392 O401 2.114 . S
Mg392 O402 2.251 . S
Mg392 O405 2.010 . S
O393 Mg392 2.028 . S
O393 C396 1.250 . S
O394 Mg395 2.028 . S
O394 C396 1.248 . S
Mg395 O394 2.028 . S
Mg395 O400 2.032 . S
Mg395 O402 2.079 . S
C396 O393 1.250 . S
C396 O394 1.248 . S
C397 O398 1.264 . S
C397 O405 1.249 . S
O398 C397 1.264 . S
O399 Mg392 1.986 . S
O399 C403 1.246 . S
O400 Mg395 2.032 . S
O400 C403 1.259 . S
O401 Mg392 2.114 . S
O401 C404 1.252 . S
O402 Mg392 2.251 . S
O402 Mg395 2.079 . S
O402 C404 1.273 . S
C403 O399 1.246 . S
C403 O400 1.259 . S
C404 O401 1.252 . S
C404 O402 1.273 . S
O405 Mg392 2.010 . S
O405 C397 1.249 . S
Mg406 O407 2.028 . S
Mg406 O413 1.986 . S
Mg406 O415 2.114 . S
Mg406 O416 2.251 . S
Mg406 O419 2.010 . S
O407 Mg406 2.028 . S
O407 C410 1.250 . S
O408 Mg409 2.028 . S
O408 C410 1.248 . S
Mg409 O408 2.028 . S
Mg409 O414 2.032 . S
Mg409 O416 2.079 . S
C410 O407 1.250 . S
C410 O408 1.248 . S
C411 O412 1.264 . S
C411 O419 1.249 . S
O412 C411 1.264 . S
O413 Mg406 1.986 . S
O413 C417 1.246 . S
O414 Mg409 2.032 . S
O414 C417 1.259 . S
O415 Mg406 2.114 . S
O415 C418 1.252 . S
O416 Mg406 2.251 . S
O416 Mg409 2.079 . S
O416 C418 1.273 . S
C417 O413 1.246 . S
C417 O414 1.259 . S
C418 O415 1.252 . S
C418 O416 1.273 . S
O419 Mg406 2.010 . S
O419 C411 1.249 . S
Mg420 O421 2.028 . S
Mg420 O427 1.986 . S
Mg420 O429 2.114 . S
Mg420 O430 2.251 . S
Mg420 O433 2.010 . S
O421 Mg420 2.028 . S
O421 C424 1.250 . S
O422 Mg423 2.028 . S
O422 C424 1.248 . S
Mg423 O422 2.028 . S
Mg423 O428 2.032 . S
Mg423 O430 2.079 . S
C424 O421 1.250 . S
C424 O422 1.248 . S
C425 O426 1.264 . S
C425 O433 1.249 . S
O426 C425 1.264 . S
O427 Mg420 1.986 . S
O427 C431 1.246 . S
O428 Mg423 2.032 . S
O428 C431 1.259 . S
O429 Mg420 2.114 . S
O429 C432 1.252 . S
O430 Mg420 2.251 . S
O430 Mg423 2.079 . S
O430 C432 1.273 . S
C431 O427 1.246 . S
C431 O428 1.259 . S
C432 O429 1.252 . S
C432 O430 1.273 . S
O433 Mg420 2.010 . S
O433 C425 1.249 . S
Mg434 O435 2.028 . S
Mg434 O441 1.986 . S
Mg434 O443 2.114 . S
Mg434 O444 2.251 . S
Mg434 O447 2.010 . S
O435 Mg434 2.028 . S
O435 C438 1.250 . S
O436 Mg437 2.028 . S
O436 C438 1.248 . S
Mg437 O436 2.028 . S
Mg437 O442 2.032 . S
Mg437 O444 2.079 . S
C438 O435 1.250 . S
C438 O436 1.248 . S
C439 O440 1.264 . S
C439 O447 1.249 . S
O440 C439 1.264 . S
O441 Mg434 1.986 . S
O441 C445 1.246 . S
O442 Mg437 2.032 . S
O442 C445 1.259 . S
O443 Mg434 2.114 . S
O443 C446 1.252 . S
O444 Mg434 2.251 . S
O444 Mg437 2.079 . S
O444 C446 1.273 . S
C445 O441 1.246 . S
C445 O442 1.259 . S
C446 O443 1.252 . S
C446 O444 1.273 . S
O447 Mg434 2.010 . S
O447 C439 1.249 . S
Mg448 O449 2.028 . S
Mg448 O455 1.986 . S
Mg448 O457 2.114 . S
Mg448 O458 2.251 . S
Mg448 O461 2.010 . S
O449 Mg448 2.028 . S
O449 C452 1.250 . S
O450 Mg451 2.028 . S
O450 C452 1.248 . S
Mg451 O450 2.028 . S
Mg451 O456 2.032 . S
Mg451 O458 2.079 . S
C452 O449 1.250 . S
C452 O450 1.248 . S
C453 O454 1.264 . S
C453 O461 1.249 . S
O454 C453 1.264 . S
O455 Mg448 1.986 . S
O455 C459 1.246 . S
O456 Mg451 2.032 . S
O456 C459 1.259 . S
O457 Mg448 2.114 . S
O457 C460 1.252 . S
O458 Mg448 2.251 . S
O458 Mg451 2.079 . S
O458 C460 1.273 . S
C459 O455 1.246 . S
C459 O456 1.259 . S
C460 O457 1.252 . S
C460 O458 1.273 . S
O461 Mg448 2.010 . S
O461 C453 1.249 . S
Mg462 O463 2.028 . S
Mg462 O469 1.986 . S
Mg462 O471 2.114 . S
Mg462 O472 2.251 . S
Mg462 O475 2.010 . S
O463 Mg462 2.028 . S
O463 C466 1.250 . S
O464 Mg465 2.028 . S
O464 C466 1.248 . S
Mg465 O464 2.028 . S
Mg465 O470 2.032 . S
Mg465 O472 2.079 . S
C466 O463 1.250 . S
C466 O464 1.248 . S
C467 O468 1.264 . S
C467 O475 1.249 . S
O468 C467 1.264 . S
O469 Mg462 1.986 . S
O469 C473 1.246 . S
O470 Mg465 2.032 . S
O470 C473 1.259 . S
O471 Mg462 2.114 . S
O471 C474 1.252 . S
O472 Mg462 2.251 . S
O472 Mg465 2.079 . S
O472 C474 1.273 . S
C473 O469 1.246 . S
C473 O470 1.259 . S
C474 O471 1.252 . S
C474 O472 1.273 . S
O475 Mg462 2.010 . S
O475 C467 1.249 . S
Mg476 O477 2.028 . S
Mg476 O483 1.986 . S
Mg476 O485 2.114 . S
Mg476 O486 2.251 . S
Mg476 O489 2.010 . S
O477 Mg476 2.028 . S
O477 C480 1.250 . S
O478 Mg479 2.028 . S
O478 C480 1.248 . S
Mg479 O478 2.028 . S
Mg479 O484 2.032 . S
Mg479 O486 2.079 . S
C480 O477 1.250 . S
C480 O478 1.248 . S
C481 O482 1.264 . S
C481 O489 1.249 . S
O482 C481 1.264 . S
O483 Mg476 1.986 . S
O483 C487 1.246 . S
O484 Mg479 2.032 . S
O484 C487 1.259 . S
O485 Mg476 2.114 . S
O485 C488 1.252 . S
O486 Mg476 2.251 . S
O486 Mg479 2.079 . S
O486 C488 1.273 . S
C487 O483 1.246 . S
C487 O484 1.259 . S
C488 O485 1.252 . S
C488 O486 1.273 . S
O489 Mg476 2.010 . S
O489 C481 1.249 . S
Mg490 O491 2.028 . S
Mg490 O497 1.986 . S
Mg490 O499 2.114 . S
Mg490 O500 2.251 . S
Mg490 O503 2.010 . S
O491 Mg490 2.028 . S
O491 C494 1.250 . S
O492 Mg493 2.028 . S
O492 C494 1.248 . S
Mg493 O492 2.028 . S
Mg493 O498 2.032 . S
Mg493 O500 2.079 . S
C494 O491 1.250 . S
C494 O492 1.248 . S
C495 O496 1.264 . S
C495 O503 1.249 . S
O496 C495 1.264 . S
O497 Mg490 1.986 . S
O497 C501 1.246 . S
O498 Mg493 2.032 . S
O498 C501 1.259 . S
O499 Mg490 2.114 . S
O499 C502 1.252 . S
O500 Mg490 2.251 . S
O500 Mg493 2.079 . S
O500 C502 1.273 . S
C501 O497 1.246 . S
C501 O498 1.259 . S
C502 O499 1.252 . S
C502 O500 1.273 . S
O503 Mg490 2.010 . S
O503 C495 1.249 . S
Mg504 O505 2.028 . S
Mg504 O511 1.986 . S
Mg504 O513 2.114 . S
Mg504 O514 2.251 . S
Mg504 O517 2.010 . S
O505 Mg504 2.028 . S
O505 C508 1.250 . S
O506 Mg507 2.028 . S
O506 C508 1.248 . S
Mg507 O506 2.028 . S
Mg507 O512 2.032 . S
Mg507 O514 2.079 . S
C508 O505 1.250 . S
C508 O506 1.248 . S
C509 O510 1.264 1_554 S
C509 O517 1.249 . S
O510 C509 1.264 1_556 S
O511 Mg504 1.986 . S
O511 C515 1.246 . S
O512 Mg507 2.032 . S
O512 C515 1.259 . S
O513 Mg504 2.114 . S
O513 C516 1.252 . S
O514 Mg504 2.251 . S
O514 Mg507 2.079 . S
O514 C516 1.273 . S
C515 O511 1.246 . S
C515 O512 1.259 . S
C516 O513 1.252 . S
C516 O514 1.273 . S
O517 Mg504 2.010 . S
O517 C509 1.249 . S
Mg518 O519 2.028 . S
Mg518 O525 1.986 . S
Mg518 O527 2.114 . S
Mg518 O528 2.251 . S
Mg518 O531 2.010 . S
O519 Mg518 2.028 . S
O519 C522 1.250 . S
O520 Mg521 2.028 . S
O520 C522 1.248 . S
Mg521 O520 2.028 . S
Mg521 O526 2.032 . S
Mg521 O528 2.079 . S
C522 O519 1.250 . S
C522 O520 1.248 . S
C523 O524 1.264 . S
C523 O531 1.249 . S
O524 C523 1.264 . S
O525 Mg518 1.986 . S
O525 C529 1.246 . S
O526 Mg521 2.032 . S
O526 C529 1.259 . S
O527 Mg518 2.114 . S
O527 C530 1.252 . S
O528 Mg518 2.251 . S
O528 Mg521 2.079 . S
O528 C530 1.273 . S
C529 O525 1.246 . S
C529 O526 1.259 . S
C530 O527 1.252 . S
C530 O528 1.273 . S
O531 Mg518 2.010 . S
O531 C523 1.249 . S
Mg532 O533 2.028 . S
Mg532 O539 1.986 . S
Mg532 O541 2.114 . S
Mg532 O542 2.251 . S
Mg532 O545 2.010 . S
O533 Mg532 2.028 . S
O533 C536 1.250 . S
O534 Mg535 2.028 . S
O534 C536 1.248 . S
Mg535 O534 2.028 . S
Mg535 O540 2.032 . S
Mg535 O542 2.079 . S
C536 O533 1.250 . S
C536 O534 1.248 . S
C537 O538 1.264 . S
C537 O545 1.249 . S
O538 C537 1.264 . S
O539 Mg532 1.986 . S
O539 C543 1.246 . S
O540 Mg535 2.032 . S
O540 C543 1.259 . S
O541 Mg532 2.114 . S
O541 C544 1.252 . S
O542 Mg532 2.251 . S
O542 Mg535 2.079 . S
O542 C544 1.273 . S
C543 O539 1.246 . S
C543 O540 1.259 . S
C544 O541 1.252 . S
C544 O542 1.273 . S
O545 Mg532 2.010 . S
O545 C537 1.249 . S
Mg546 O547 2.028 . S
Mg546 O553 1.986 . S
Mg546 O555 2.114 . S
Mg546 O556 2.251 . S
Mg546 O559 2.010 . S
O547 Mg546 2.028 . S
O547 C550 1.250 . S
O548 Mg549 2.028 . S
O548 C550 1.248 . S
Mg549 O548 2.028 . S
Mg549 O554 2.032 . S
Mg549 O556 2.079 . S
C550 O547 1.250 . S
C550 O548 1.248 . S
C551 O552 1.264 . S
C551 O559 1.249 . S
O552 C551 1.264 . S
O553 Mg546 1.986 . S
O553 C557 1.246 . S
O554 Mg549 2.032 . S
O554 C557 1.259 . S
O555 Mg546 2.114 . S
O555 C558 1.252 . S
O556 Mg546 2.251 . S
O556 Mg549 2.079 . S
O556 C558 1.273 . S
C557 O553 1.246 . S
C557 O554 1.259 . S
C558 O555 1.252 . S
C558 O556 1.273 . S
O559 Mg546 2.010 . S
O559 C551 1.249 . S
Mg560 O561 2.028 . S
Mg560 O567 1.986 . S
Mg560 O569 2.114 . S
Mg560 O570 2.251 . S
Mg560 O573 2.010 . S
O561 Mg560 2.028 . S
O561 C564 1.250 . S
O562 Mg563 2.028 . S
O562 C564 1.248 . S
Mg563 O562 2.028 . S
Mg563 O568 2.032 . S
Mg563 O570 2.079 . S
C564 O561 1.250 . S
C564 O562 1.248 . S
C565 O566 1.264 . S
C565 O573 1.249 . S
O566 C565 1.264 . S
O567 Mg560 1.986 . S
O567 C571 1.246 . S
O568 Mg563 2.032 . S
O568 C571 1.259 . S
O569 Mg560 2.114 . S
O569 C572 1.252 . S
O570 Mg560 2.251 . S
O570 Mg563 2.079 . S
O570 C572 1.273 . S
C571 O567 1.246 . S
C571 O568 1.259 . S
C572 O569 1.252 . S
C572 O570 1.273 . S
O573 Mg560 2.010 . S
O573 C565 1.249 . S
Mg574 O575 2.028 . S
Mg574 O581 1.986 . S
Mg574 O583 2.114 . S
Mg574 O584 2.251 . S
Mg574 O587 2.010 . S
O575 Mg574 2.028 . S
O575 C578 1.250 . S
O576 Mg577 2.028 . S
O576 C578 1.248 . S
Mg577 O576 2.028 . S
Mg577 O582 2.032 . S
Mg577 O584 2.079 . S
C578 O575 1.250 . S
C578 O576 1.248 . S
C579 O580 1.264 . S
C579 O587 1.249 . S
O580 C579 1.264 . S
O581 Mg574 1.986 . S
O581 C585 1.246 . S
O582 Mg577 2.032 . S
O582 C585 1.259 . S
O583 Mg574 2.114 . S
O583 C586 1.252 . S
O584 Mg574 2.251 . S
O584 Mg577 2.079 . S
O584 C586 1.273 . S
C585 O581 1.246 . S
C585 O582 1.259 . S
C586 O583 1.252 . S
C586 O584 1.273 . S
O587 Mg574 2.010 . S
O587 C579 1.249 . S
Mg588 O589 2.028 . S
Mg588 O595 1.986 . S
Mg588 O597 2.114 . S
Mg588 O598 2.251 . S
Mg588 O601 2.010 . S
O589 Mg588 2.028 . S
O589 C592 1.250 . S
O590 Mg591 2.028 . S
O590 C592 1.248 . S
Mg591 O590 2.028 . S
Mg591 O596 2.032 . S
Mg591 O598 2.079 . S
C592 O589 1.250 . S
C592 O590 1.248 . S
C593 O594 1.264 1_455 S
C593 O601 1.249 . S
O594 C593 1.264 1_655 S
O595 Mg588 1.986 . S
O595 C599 1.246 . S
O596 Mg591 2.032 . S
O596 C599 1.259 . S
O597 Mg588 2.114 . S
O597 C600 1.252 . S
O598 Mg588 2.251 . S
O598 Mg591 2.079 . S
O598 C600 1.273 . S
C599 O595 1.246 . S
C599 O596 1.259 . S
C600 O597 1.252 . S
C600 O598 1.273 . S
O601 Mg588 2.010 . S
O601 C593 1.249 . S
Mg602 O603 2.028 . S
Mg602 O609 1.986 . S
Mg602 O611 2.114 . S
Mg602 O612 2.251 . S
Mg602 O615 2.010 . S
O603 Mg602 2.028 . S
O603 C606 1.250 . S
O604 Mg605 2.028 . S
O604 C606 1.248 . S
Mg605 O604 2.028 . S
Mg605 O610 2.032 . S
Mg605 O612 2.079 . S
C606 O603 1.250 . S
C606 O604 1.248 . S
C607 O608 1.264 . S
C607 O615 1.249 . S
O608 C607 1.264 . S
O609 Mg602 1.986 . S
O609 C613 1.246 . S
O610 Mg605 2.032 . S
O610 C613 1.259 . S
O611 Mg602 2.114 . S
O611 C614 1.252 . S
O612 Mg602 2.251 . S
O612 Mg605 2.079 . S
O612 C614 1.273 . S
C613 O609 1.246 . S
C613 O610 1.259 . S
C614 O611 1.252 . S
C614 O612 1.273 . S
O615 Mg602 2.010 . S
O615 C607 1.249 . S
Mg616 O617 2.028 . S
Mg616 O623 1.986 . S
Mg616 O625 2.114 . S
Mg616 O626 2.251 . S
Mg616 O629 2.010 . S
O617 Mg616 2.028 . S
O617 C620 1.250 . S
O618 Mg619 2.028 . S
O618 C620 1.248 . S
Mg619 O618 2.028 . S
Mg619 O624 2.032 . S
Mg619 O626 2.079 . S
C620 O617 1.250 . S
C620 O618 1.248 . S
C621 O622 1.264 . S
C621 O629 1.249 . S
O622 C621 1.264 . S
O623 Mg616 1.986 . S
O623 C627 1.246 . S
O624 Mg619 2.032 . S
O624 C627 1.259 . S
O625 Mg616 2.114 . S
O625 C628 1.252 . S
O626 Mg616 2.251 . S
O626 Mg619 2.079 . S
O626 C628 1.273 . S
C627 O623 1.246 . S
C627 O624 1.259 . S
C628 O625 1.252 . S
C628 O626 1.273 . S
O629 Mg616 2.010 . S
O629 C621 1.249 . S
Mg630 O631 2.028 . S
Mg630 O637 1.986 . S
Mg630 O639 2.114 . S
Mg630 O640 2.251 . S
Mg630 O643 2.010 . S
O631 Mg630 2.028 . S
O631 C634 1.250 . S
O632 Mg633 2.028 . S
O632 C634 1.248 . S
Mg633 O632 2.028 . S
Mg633 O638 2.032 . S
Mg633 O640 2.079 . S
C634 O631 1.250 . S
C634 O632 1.248 . S
C635 O636 1.264 . S
C635 O643 1.249 . S
O636 C635 1.264 . S
O637 Mg630 1.986 . S
O637 C641 1.246 . S
O638 Mg633 2.032 . S
O638 C641 1.259 . S
O639 Mg630 2.114 . S
O639 C642 1.252 . S
O640 Mg630 2.251 . S
O640 Mg633 2.079 . S
O640 C642 1.273 . S
C641 O637 1.246 . S
C641 O638 1.259 . S
C642 O639 1.252 . S
C642 O640 1.273 . S
O643 Mg630 2.010 . S
O643 C635 1.249 . S
Mg644 O645 2.028 . S
Mg644 O651 1.986 . S
Mg644 O653 2.114 . S
Mg644 O654 2.251 . S
Mg644 O657 2.010 . S
O645 Mg644 2.028 . S
O645 C648 1.250 . S
O646 Mg647 2.028 . S
O646 C648 1.248 . S
Mg647 O646 2.028 . S
Mg647 O652 2.032 . S
Mg647 O654 2.079 . S
C648 O645 1.250 . S
C648 O646 1.248 . S
C649 O650 1.264 . S
C649 O657 1.249 . S
O650 C649 1.264 . S
O651 Mg644 1.986 . S
O651 C655 1.246 . S
O652 Mg647 2.032 . S
O652 C655 1.259 . S
O653 Mg644 2.114 . S
O653 C656 1.252 . S
O654 Mg644 2.251 . S
O654 Mg647 2.079 . S
O654 C656 1.273 . S
C655 O651 1.246 . S
C655 O652 1.259 . S
C656 O653 1.252 . S
C656 O654 1.273 . S
O657 Mg644 2.010 . S
O657 C649 1.249 . S
Mg658 O659 2.028 . S
Mg658 O665 1.986 . S
Mg658 O667 2.114 . S
Mg658 O668 2.251 . S
Mg658 O671 2.010 . S
O659 Mg658 2.028 . S
O659 C662 1.250 . S
O660 Mg661 2.028 . S
O660 C662 1.248 . S
Mg661 O660 2.028 . S
Mg661 O666 2.032 . S
Mg661 O668 2.079 . S
C662 O659 1.250 . S
C662 O660 1.248 . S
C663 O664 1.264 . S
C663 O671 1.249 . S
O664 C663 1.264 . S
O665 Mg658 1.986 . S
O665 C669 1.246 . S
O666 Mg661 2.032 . S
O666 C669 1.259 . S
O667 Mg658 2.114 . S
O667 C670 1.252 . S
O668 Mg658 2.251 . S
O668 Mg661 2.079 . S
O668 C670 1.273 . S
C669 O665 1.246 . S
C669 O666 1.259 . S
C670 O667 1.252 . S
C670 O668 1.273 . S
O671 Mg658 2.010 . S
O671 C663 1.249 . S
C672 C673 1.387 . S
C672 H676 0.950 . S
C672 C681 1.390 . S
C673 C672 1.387 . S
C673 C675 1.387 . S
H674 C681 0.950 . S
C675 C673 1.387 . S
C675 C677 1.390 . S
C675 H679 0.950 . S
H676 C672 0.950 . S
C677 C675 1.390 . S
C677 C678 1.387 . S
C677 H680 0.950 . S
C678 C677 1.387 . S
C678 C681 1.387 . S
H679 C675 0.950 . S
H680 C677 0.950 . S
C681 C672 1.390 . S
C681 H674 0.950 . S
C681 C678 1.387 . S
C682 C683 1.387 1_655 S
C682 H686 0.950 1_655 S
C682 C691 1.390 . S
C683 C682 1.387 1_455 S
C683 C685 1.392 . S
H684 C691 0.950 . S
C685 C683 1.392 . S
C685 C687 1.379 1_455 S
C685 H689 0.956 . S
H686 C682 0.950 1_455 S
C687 C685 1.379 1_655 S
C687 C688 1.387 . S
C687 H690 0.950 . S
C688 C687 1.387 . S
C688 C691 1.387 . S
H689 C685 0.956 . S
H690 C687 0.950 . S
C691 C682 1.390 . S
C691 H684 0.950 . S
C691 C688 1.387 . S
C692 C693 1.387 . S
C692 H696 0.950 . S
C692 C701 1.390 . S
C693 C692 1.387 . S
C693 C695 1.387 . S
H694 C701 0.950 . S
C695 C693 1.387 . S
C695 C697 1.390 . S
C695 H699 0.950 . S
H696 C692 0.950 . S
C697 C695 1.390 . S
C697 C698 1.387 . S
C697 H700 0.950 . S
C698 C697 1.387 . S
C698 C701 1.387 . S
H699 C695 0.950 . S
H700 C697 0.950 . S
C701 C692 1.390 . S
C701 H694 0.950 . S
C701 C698 1.387 . S
C702 C703 1.387 . S
C702 H706 0.950 . S
C702 C711 1.390 . S
C703 C702 1.387 . S
C703 C705 1.387 . S
H704 C711 0.950 . S
C705 C703 1.387 . S
C705 C707 1.390 . S
C705 H709 0.950 . S
H706 C702 0.950 . S
C707 C705 1.390 . S
C707 C708 1.387 . S
C707 H710 0.950 . S
C708 C707 1.387 . S
C708 C711 1.387 . S
H709 C705 0.950 . S
H710 C707 0.950 . S
C711 C702 1.390 . S
C711 H704 0.950 . S
C711 C708 1.387 . S
C712 C713 1.387 . S
C712 H716 0.950 . S
C712 C721 1.390 . S
C713 C712 1.387 . S
C713 C715 1.387 . S
H714 C721 0.950 . S
C715 C713 1.387 . S
C715 C717 1.390 . S
C715 H719 0.950 . S
H716 C712 0.950 . S
C717 C715 1.390 . S
C717 C718 1.387 . S
C717 H720 0.950 . S
C718 C717 1.387 . S
C718 C721 1.387 . S
H719 C715 0.950 . S
H720 C717 0.950 . S
C721 C712 1.390 . S
C721 H714 0.950 . S
C721 C718 1.387 . S
C722 C723 1.387 . S
C722 H726 0.950 . S
C722 C731 1.390 . S
C723 C722 1.387 . S
C723 C725 1.387 . S
H724 C731 0.950 . S
C725 C723 1.387 . S
C725 C727 1.390 . S
C725 H729 0.950 . S
H726 C722 0.950 . S
C727 C725 1.390 . S
C727 C728 1.387 . S
C727 H730 0.950 . S
C728 C727 1.387 . S
C728 C731 1.387 . S
H729 C725 0.950 . S
H730 C727 0.950 . S
C731 C722 1.390 . S
C731 H724 0.950 . S
C731 C728 1.387 . S
C732 C733 1.387 . S
C732 H736 0.950 . S
C732 C741 1.390 . S
C733 C732 1.387 . S
C733 C735 1.387 . S
H734 C741 0.950 . S
C735 C733 1.387 . S
C735 C737 1.390 . S
C735 H739 0.950 . S
H736 C732 0.950 . S
C737 C735 1.390 . S
C737 C738 1.387 . S
C737 H740 0.950 . S
C738 C737 1.387 . S
C738 C741 1.387 . S
H739 C735 0.950 . S
H740 C737 0.950 . S
C741 C732 1.390 . S
C741 H734 0.950 . S
C741 C738 1.387 . S
C742 C743 1.387 1_655 S
C742 H746 0.950 1_655 S
C742 C751 1.390 . S
C743 C742 1.387 1_455 S
C743 C745 1.387 1_455 S
H744 C751 0.950 . S
C745 C743 1.387 1_655 S
C745 C747 1.390 . S
C745 H749 0.950 1_655 S
H746 C742 0.950 1_455 S
C747 C745 1.390 . S
C747 C748 1.387 . S
C747 H750 0.950 . S
C748 C747 1.387 . S
C748 C751 1.387 . S
H749 C745 0.950 1_455 S
H750 C747 0.950 . S
C751 C742 1.390 . S
C751 H744 0.950 . S
C751 C748 1.387 . S
C752 C753 1.387 . S
C752 H756 0.950 . S
C752 C761 1.390 . S
C753 C752 1.387 . S
C753 C755 1.387 . S
H754 C761 0.950 . S
C755 C753 1.387 . S
C755 C757 1.390 . S
C755 H759 0.950 . S
H756 C752 0.950 . S
C757 C755 1.390 . S
C757 C758 1.387 . S
C757 H760 0.950 . S
C758 C757 1.387 . S
C758 C761 1.387 . S
H759 C755 0.950 . S
H760 C757 0.950 . S
C761 C752 1.390 . S
C761 H754 0.950 . S
C761 C758 1.387 . S
C762 C763 1.387 . S
C762 H766 0.950 . S
C762 C771 1.390 . S
C763 C762 1.387 . S
C763 C765 1.387 . S
H764 C771 0.950 . S
C765 C763 1.387 . S
C765 C767 1.390 . S
C765 H769 0.950 . S
H766 C762 0.950 . S
C767 C765 1.390 . S
C767 C768 1.387 . S
C767 H770 0.950 . S
C768 C767 1.387 . S
C768 C771 1.387 . S
H769 C765 0.950 . S
H770 C767 0.950 . S
C771 C762 1.390 . S
C771 H764 0.950 . S
C771 C768 1.387 . S
C772 C773 1.387 . S
C772 H776 0.950 . S
C772 C781 1.390 . S
C773 C772 1.387 . S
C773 C775 1.387 . S
H774 C781 0.950 . S
C775 C773 1.387 . S
C775 C777 1.390 . S
C775 H779 0.950 . S
H776 C772 0.950 . S
C777 C775 1.390 . S
C777 C778 1.387 . S
C777 H780 0.950 . S
C778 C777 1.387 . S
C778 C781 1.387 . S
H779 C775 0.950 . S
H780 C777 0.950 . S
C781 C772 1.390 . S
C781 H774 0.950 . S
C781 C778 1.387 . S
C782 C783 1.387 . S
C782 H786 0.950 . S
C782 C791 1.390 . S
C783 C782 1.387 . S
C783 C785 1.387 . S
H784 C791 0.950 . S
C785 C783 1.387 . S
C785 C787 1.390 . S
C785 H789 0.950 1_554 S
H786 C782 0.950 . S
C787 C785 1.390 . S
C787 C788 1.387 . S
C787 H790 0.950 . S
C788 C787 1.387 . S
C788 C791 1.387 . S
H789 C785 0.950 1_556 S
H790 C787 0.950 . S
C791 C782 1.390 . S
C791 H784 0.950 . S
C791 C788 1.387 . S
C792 C793 1.387 . S
C792 H796 0.950 . S
C792 C801 1.390 . S
C793 C792 1.387 . S
C793 C795 1.387 . S
H794 C801 0.950 . S
C795 C793 1.387 . S
C795 C797 1.390 . S
C795 H799 0.950 . S
H796 C792 0.950 . S
C797 C795 1.390 . S
C797 C798 1.387 . S
C797 H800 0.950 . S
C798 C797 1.387 . S
C798 C801 1.387 . S
H799 C795 0.950 . S
H800 C797 0.950 . S
C801 C792 1.390 . S
C801 H794 0.950 . S
C801 C798 1.387 . S
C802 C803 1.387 . S
C802 H806 0.950 . S
C802 C811 1.390 . S
C803 C802 1.387 . S
C803 C805 1.387 . S
H804 C811 0.950 . S
C805 C803 1.387 . S
C805 C807 1.390 . S
C805 H809 0.950 . S
H806 C802 0.950 . S
C807 C805 1.390 . S
C807 C808 1.387 . S
C807 H810 0.950 . S
C808 C807 1.387 . S
C808 C811 1.387 . S
H809 C805 0.950 . S
H810 C807 0.950 . S
C811 C802 1.390 . S
C811 H804 0.950 . S
C811 C808 1.387 . S
C812 C813 1.387 . S
C812 H816 0.950 . S
C812 C821 1.390 . S
C813 C812 1.387 . S
C813 C815 1.387 . S
H814 C821 0.950 . S
C815 C813 1.387 . S
C815 C817 1.390 . S
C815 H819 0.950 . S
H816 C812 0.950 . S
C817 C815 1.390 . S
C817 C818 1.387 . S
C817 H820 0.950 . S
C818 C817 1.387 . S
C818 C821 1.387 . S
H819 C815 0.950 . S
H820 C817 0.950 . S
C821 C812 1.390 . S
C821 H814 0.950 . S
C821 C818 1.387 . S
C822 C823 1.387 . S
C822 H826 0.950 . S
C822 C831 1.390 . S
C823 C822 1.387 . S
C823 C825 1.387 . S
H824 C831 0.950 . S
C825 C823 1.387 . S
C825 C827 1.390 . S
C825 H829 0.950 . S
H826 C822 0.950 . S
C827 C825 1.390 . S
C827 C828 1.387 . S
C827 H830 0.950 . S
C828 C827 1.387 . S
C828 C831 1.387 . S
H829 C825 0.950 . S
H830 C827 0.950 . S
C831 C822 1.390 . S
C831 H824 0.950 . S
C831 C828 1.387 . S
C832 C833 1.387 . S
C832 H836 0.950 . S
C832 C841 1.390 . S
C833 C832 1.387 . S
C833 C835 1.387 . S
H834 C841 0.950 . S
C835 C833 1.387 . S
C835 C837 1.390 . S
C835 H839 0.950 . S
H836 C832 0.950 . S
C837 C835 1.390 . S
C837 C838 1.387 . S
C837 H840 0.950 . S
C838 C837 1.387 . S
C838 C841 1.387 . S
H839 C835 0.950 . S
H840 C837 0.950 . S
C841 C832 1.390 . S
C841 H834 0.950 . S
C841 C838 1.387 . S
C842 C843 1.387 . S
C842 H846 0.950 . S
C842 C851 1.390 . S
C843 C842 1.387 . S
C843 C845 1.387 . S
H844 C851 0.950 . S
C845 C843 1.387 . S
C845 C847 1.390 . S
C845 H849 0.950 . S
H846 C842 0.950 . S
C847 C845 1.390 . S
C847 C848 1.387 . S
C847 H850 0.950 . S
C848 C847 1.387 . S
C848 C851 1.387 . S
H849 C845 0.950 . S
H850 C847 0.950 . S
C851 C842 1.390 . S
C851 H844 0.950 . S
C851 C848 1.387 . S
C852 C853 1.387 . S
C852 H856 0.950 . S
C852 C861 1.390 . S
C853 C852 1.387 . S
C853 C855 1.387 . S
H854 C861 0.950 . S
C855 C853 1.387 . S
C855 C857 1.390 . S
C855 H859 0.950 . S
H856 C852 0.950 . S
C857 C855 1.390 . S
C857 C858 1.387 . S
C857 H860 0.950 . S
C858 C857 1.387 . S
C858 C861 1.387 . S
H859 C855 0.950 . S
H860 C857 0.950 . S
C861 C852 1.390 . S
C861 H854 0.950 . S
C861 C858 1.387 . S
C862 C863 1.387 . S
C862 H866 0.950 . S
C862 C871 1.390 . S
C863 C862 1.387 . S
C863 C865 1.387 . S
H864 C871 0.950 . S
C865 C863 1.387 . S
C865 C867 1.390 . S
C865 H869 0.950 . S
H866 C862 0.950 . S
C867 C865 1.390 . S
C867 C868 1.387 . S
C867 H870 0.950 . S
C868 C867 1.387 . S
C868 C871 1.387 . S
H869 C865 0.950 . S
H870 C867 0.950 . S
C871 C862 1.390 . S
C871 H864 0.950 . S
C871 C868 1.387 . S
C872 C873 1.387 . S
C872 H876 0.950 . S
C872 C881 1.390 . S
C873 C872 1.387 . S
C873 C875 1.387 . S
H874 C881 0.950 . S
C875 C873 1.387 . S
C875 C877 1.390 . S
C875 H879 0.950 . S
H876 C872 0.950 . S
C877 C875 1.390 . S
C877 C878 1.387 1_565 S
C877 H880 0.950 . S
C878 C877 1.387 1_545 S
C878 C881 1.387 1_545 S
H879 C875 0.950 . S
H880 C877 0.950 . S
C881 C872 1.390 . S
C881 H874 0.950 . S
C881 C878 1.387 1_565 S
C882 C883 1.387 . S
C882 H886 0.950 . S
C882 C891 1.390 . S
C883 C882 1.387 . S
C883 C885 1.387 . S
H884 C891 0.950 . S
C885 C883 1.387 . S
C885 C887 1.390 . S
C885 H889 0.950 . S
H886 C882 0.950 . S
C887 C885 1.390 . S
C887 C888 1.387 . S
C887 H890 0.950 . S
C888 C887 1.387 . S
C888 C891 1.387 . S
H889 C885 0.950 . S
H890 C887 0.950 . S
C891 C882 1.390 . S
C891 H884 0.950 . S
C891 C888 1.387 . S
C892 C893 1.387 . S
C892 H896 0.950 . S
C892 C901 1.390 . S
C893 C892 1.387 . S
C893 C895 1.387 . S
H894 C901 0.950 . S
C895 C893 1.387 . S
C895 C897 1.390 . S
C895 H899 0.950 . S
H896 C892 0.950 . S
C897 C895 1.390 . S
C897 C898 1.387 . S
C897 H900 0.950 . S
C898 C897 1.387 . S
C898 C901 1.387 . S
H899 C895 0.950 . S
H900 C897 0.950 . S
C901 C892 1.390 . S
C901 H894 0.950 . S
C901 C898 1.387 . S
C902 C903 1.387 . S
C902 H906 0.950 . S
C902 C911 1.390 . S
C903 C902 1.387 . S
C903 C905 1.387 . S
H904 C911 0.950 . S
C905 C903 1.387 . S
C905 C907 1.390 . S
C905 H909 0.950 . S
H906 C902 0.950 . S
C907 C905 1.390 . S
C907 C908 1.387 . S
C907 H910 0.950 . S
C908 C907 1.387 . S
C908 C911 1.387 . S
H909 C905 0.950 . S
H910 C907 0.950 . S
C911 C902 1.390 . S
C911 H904 0.950 . S
C911 C908 1.387 . S
C912 C913 1.387 . S
C912 H916 0.950 . S
C912 C921 1.390 . S
C913 C912 1.387 . S
C913 C915 1.387 . S
H914 C921 0.950 . S
C915 C913 1.387 . S
C915 C917 1.390 . S
C915 H919 0.950 . S
H916 C912 0.950 . S
C917 C915 1.390 . S
C917 C918 1.387 . S
C917 H920 0.950 . S
C918 C917 1.387 . S
C918 C921 1.387 . S
H919 C915 0.950 . S
H920 C917 0.950 . S
C921 C912 1.390 . S
C921 H914 0.950 . S
C921 C918 1.387 . S
C922 C923 1.387 . S
C922 H926 0.950 . S
C922 C931 1.390 . S
C923 C922 1.387 . S
C923 C925 1.387 . S
H924 C931 0.950 . S
C925 C923 1.387 . S
C925 C927 1.390 . S
C925 H929 0.950 . S
H926 C922 0.950 . S
C927 C925 1.390 . S
C927 C928 1.387 . S
C927 H930 0.950 . S
C928 C927 1.387 . S
C928 C931 1.387 . S
H929 C925 0.950 . S
H930 C927 0.950 . S
C931 C922 1.390 . S
C931 H924 0.950 . S
C931 C928 1.387 . S
C932 C933 1.387 . S
C932 H936 0.950 . S
C932 C941 1.390 . S
C933 C932 1.387 . S
C933 C935 1.387 . S
H934 C941 0.950 . S
C935 C933 1.387 . S
C935 C937 1.390 . S
C935 H939 0.950 . S
H936 C932 0.950 . S
C937 C935 1.390 . S
C937 C938 1.387 . S
C937 H940 0.950 . S
C938 C937 1.387 . S
C938 C941 1.387 . S
H939 C935 0.950 . S
H940 C937 0.950 . S
C941 C932 1.390 . S
C941 H934 0.950 . S
C941 C938 1.387 . S
C942 C943 1.387 . S
C942 H946 0.950 . S
C942 C951 1.390 . S
C943 C942 1.387 . S
C943 C945 1.387 . S
H944 C951 0.950 . S
C945 C943 1.387 . S
C945 C947 1.390 . S
C945 H949 0.950 . S
H946 C942 0.950 . S
C947 C945 1.390 . S
C947 C948 1.387 . S
C947 H950 0.950 . S
C948 C947 1.387 . S
C948 C951 1.387 . S
H949 C945 0.950 . S
H950 C947 0.950 . S
C951 C942 1.390 . S
C951 H944 0.950 . S
C951 C948 1.387 . S
C952 C953 1.387 . S
C952 H956 0.950 . S
C952 C961 1.390 . S
C953 C952 1.387 . S
C953 C955 1.387 . S
H954 C961 0.950 . S
C955 C953 1.387 . S
C955 C957 1.390 . S
C955 H959 0.950 . S
H956 C952 0.950 . S
C957 C955 1.390 . S
C957 C958 1.387 . S
C957 H960 0.950 . S
C958 C957 1.387 . S
C958 C961 1.387 . S
H959 C955 0.950 . S
H960 C957 0.950 . S
C961 C952 1.390 . S
C961 H954 0.950 . S
C961 C958 1.387 . S
C962 C963 1.387 . S
C962 H966 0.950 . S
C962 C971 1.390 . S
C963 C962 1.387 . S
C963 C965 1.387 . S
H964 C971 0.950 . S
C965 C963 1.387 . S
C965 C967 1.390 . S
C965 H969 0.950 . S
H966 C962 0.950 . S
C967 C965 1.390 . S
C967 C968 1.387 . S
C967 H970 0.950 . S
C968 C967 1.387 . S
C968 C971 1.387 . S
H969 C965 0.950 . S
H970 C967 0.950 . S
C971 C962 1.390 . S
C971 H964 0.950 . S
C971 C968 1.387 . S
C972 C973 1.387 . S
C972 H976 0.950 . S
C972 C981 1.390 . S
C973 C972 1.387 . S
C973 C975 1.387 . S
H974 C981 0.950 . S
C975 C973 1.387 . S
C975 C977 1.390 . S
C975 H979 0.950 . S
H976 C972 0.950 . S
C977 C975 1.390 . S
C977 C978 1.387 . S
C977 H980 0.950 . S
C978 C977 1.387 . S
C978 C981 1.387 . S
H979 C975 0.950 . S
H980 C977 0.950 . S
C981 C972 1.390 . S
C981 H974 0.950 . S
C981 C978 1.387 . S
C982 C983 1.387 . S
C982 H986 0.950 . S
C982 C991 1.390 . S
C983 C982 1.387 . S
C983 C985 1.387 . S
H984 C991 0.958 . S
C985 C983 1.387 . S
C985 C987 1.390 . S
C985 H989 0.950 . S
H986 C982 0.950 . S
C987 C985 1.390 . S
C987 C988 1.387 1_455 S
C987 H990 0.952 . S
C988 C987 1.387 1_655 S
C988 C991 1.387 1_655 S
H989 C985 0.950 . S
H990 C987 0.952 . S
C991 C982 1.390 . S
C991 H984 0.958 . S
C991 C988 1.387 1_455 S
C992 C993 1.387 . S
C992 H996 0.950 . S
C992 C1001 1.390 . S
C993 C992 1.387 . S
C993 C995 1.387 . S
H994 C1001 0.950 . S
C995 C993 1.387 . S
C995 C997 1.390 . S
C995 H999 0.950 . S
H996 C992 0.950 . S
C997 C995 1.390 . S
C997 C998 1.387 . S
C997 H1000 0.950 . S
C998 C997 1.387 . S
C998 C1001 1.387 . S
H999 C995 0.950 . S
H1000 C997 0.950 . S
C1001 C992 1.390 . S
C1001 H994 0.950 . S
C1001 C998 1.387 . S
C1002 C1003 1.387 . S
C1002 H1006 0.950 . S
C1002 C1011 1.390 . S
C1003 C1002 1.387 . S
C1003 C1005 1.387 . S
H1004 C1011 0.950 . S
C1005 C1003 1.387 . S
C1005 C1007 1.390 . S
C1005 H1009 0.950 . S
H1006 C1002 0.950 . S
C1007 C1005 1.390 . S
C1007 C1008 1.387 . S
C1007 H1010 0.950 . S
C1008 C1007 1.387 . S
C1008 C1011 1.387 . S
H1009 C1005 0.950 . S
H1010 C1007 0.950 . S
C1011 C1002 1.390 . S
C1011 H1004 0.950 . S
C1011 C1008 1.387 . S
C1012 C1013 1.387 . S
C1012 H1016 0.950 . S
C1012 C1021 1.390 . S
C1013 C1012 1.387 . S
C1013 C1015 1.387 . S
H1014 C1021 0.950 . S
C1015 C1013 1.387 . S
C1015 C1017 1.390 . S
C1015 H1019 0.950 . S
H1016 C1012 0.950 . S
C1017 C1015 1.390 . S
C1017 C1018 1.387 . S
C1017 H1020 0.950 . S
C1018 C1017 1.387 . S
C1018 C1021 1.387 . S
H1019 C1015 0.950 . S
H1020 C1017 0.950 . S
C1021 C1012 1.390 . S
C1021 H1014 0.950 . S
C1021 C1018 1.387 . S
C1022 C1023 1.387 . S
C1022 H1026 0.950 . S
C1022 C1031 1.352 1_556 S
C1023 C1022 1.387 . S
C1023 C1025 1.387 . S
H1024 C1031 0.970 . S
C1025 C1023 1.387 . S
C1025 C1027 1.419 . S
C1025 H1029 0.950 . S
H1026 C1022 0.950 . S
C1027 C1025 1.419 . S
C1027 C1028 1.373 1_556 S
C1027 H1030 0.936 1_556 S
C1028 C1027 1.373 1_554 S
C1028 C1031 1.406 . S
H1029 C1025 0.950 . S
H1030 C1027 0.936 1_554 S
C1031 C1022 1.352 1_554 S
C1031 H1024 0.970 . S
C1031 C1028 1.406 . S
C1032 C1033 1.387 . S
C1032 H1036 0.950 . S
C1032 C1041 1.390 . S
C1033 C1032 1.387 . S
C1033 C1035 1.387 . S
H1034 C1041 0.950 . S
C1035 C1033 1.387 . S
C1035 C1037 1.390 . S
C1035 H1039 0.950 . S
H1036 C1032 0.950 . S
C1037 C1035 1.390 . S
C1037 C1038 1.387 . S
C1037 H1040 0.950 . S
C1038 C1037 1.387 . S
C1038 C1041 1.387 . S
H1039 C1035 0.950 . S
H1040 C1037 0.950 . S
C1041 C1032 1.390 . S
C1041 H1034 0.950 . S
C1041 C1038 1.387 . S
C1042 C1043 1.387 . S
C1042 H1046 0.950 . S
C1042 C1051 1.390 . S
C1043 C1042 1.387 . S
C1043 C1045 1.387 . S
H1044 C1051 0.950 . S
C1045 C1043 1.387 . S
C1045 C1047 1.390 . S
C1045 H1049 0.950 . S
H1046 C1042 0.950 . S
C1047 C1045 1.390 . S
C1047 C1048 1.387 . S
C1047 H1050 0.950 . S
C1048 C1047 1.387 . S
C1048 C1051 1.387 . S
H1049 C1045 0.950 . S
H1050 C1047 0.950 . S
C1051 C1042 1.390 . S
C1051 H1044 0.950 . S
C1051 C1048 1.387 . S
C1052 C1053 1.387 . S
C1052 H1056 0.950 . S
C1052 C1061 1.390 . S
C1053 C1052 1.387 . S
C1053 C1055 1.387 . S
H1054 C1061 0.950 . S
C1055 C1053 1.387 . S
C1055 C1057 1.390 . S
C1055 H1059 0.950 . S
H1056 C1052 0.950 . S
C1057 C1055 1.390 . S
C1057 C1058 1.387 . S
C1057 H1060 0.950 . S
C1058 C1057 1.387 . S
C1058 C1061 1.387 . S
H1059 C1055 0.950 . S
H1060 C1057 0.950 . S
C1061 C1052 1.390 . S
C1061 H1054 0.950 . S
C1061 C1058 1.387 . S
C1062 C1063 1.387 1_554 S
C1062 H1066 0.950 1_554 S
C1062 C1071 1.390 . S
C1063 C1062 1.387 1_556 S
C1063 C1065 1.387 1_556 S
H1064 C1071 0.950 . S
C1065 C1063 1.387 1_554 S
C1065 C1067 1.390 . S
C1065 H1069 0.950 1_554 S
H1066 C1062 0.950 1_556 S
C1067 C1065 1.390 . S
C1067 C1068 1.387 . S
C1067 H1070 0.950 . S
C1068 C1067 1.387 . S
C1068 C1071 1.387 . S
H1069 C1065 0.950 1_556 S
H1070 C1067 0.950 . S
C1071 C1062 1.390 . S
C1071 H1064 0.950 . S
C1071 C1068 1.387 . S
C1072 C1073 1.387 . S
C1072 H1076 0.950 . S
C1072 C1081 1.390 . S
C1073 C1072 1.387 . S
C1073 C1075 1.387 . S
H1074 C1081 0.950 . S
C1075 C1073 1.387 . S
C1075 C1077 1.390 . S
C1075 H1079 0.950 . S
H1076 C1072 0.950 . S
C1077 C1075 1.390 . S
C1077 C1078 1.387 . S
C1077 H1080 0.950 . S
C1078 C1077 1.387 . S
C1078 C1081 1.387 . S
H1079 C1075 0.950 . S
H1080 C1077 0.950 . S
C1081 C1072 1.390 . S
C1081 H1074 0.950 . S
C1081 C1078 1.387 . S
C1082 C1083 1.387 . S
C1082 H1086 0.950 . S
C1082 C1091 1.390 . S
C1083 C1082 1.387 . S
C1083 C1085 1.387 . S
H1084 C1091 0.950 . S
C1085 C1083 1.387 . S
C1085 C1087 1.390 . S
C1085 H1089 0.950 . S
H1086 C1082 0.950 . S
C1087 C1085 1.390 . S
C1087 C1088 1.387 . S
C1087 H1090 0.950 . S
C1088 C1087 1.387 . S
C1088 C1091 1.387 . S
H1089 C1085 0.950 . S
H1090 C1087 0.950 . S
C1091 C1082 1.390 . S
C1091 H1084 0.950 . S
C1091 C1088 1.387 . S
C1092 C1093 1.387 . S
C1092 H1096 0.950 . S
C1092 C1101 1.390 . S
C1093 C1092 1.387 . S
C1093 C1095 1.387 . S
H1094 C1101 0.950 . S
C1095 C1093 1.387 . S
C1095 C1097 1.390 . S
C1095 H1099 0.950 . S
H1096 C1092 0.950 . S
C1097 C1095 1.390 . S
C1097 C1098 1.387 . S
C1097 H1100 0.950 . S
C1098 C1097 1.387 . S
C1098 C1101 1.387 . S
H1099 C1095 0.950 . S
H1100 C1097 0.950 . S
C1101 C1092 1.390 . S
C1101 H1094 0.950 . S
C1101 C1098 1.387 . S
C1102 C1103 1.387 . S
C1102 H1106 0.950 . S
C1102 C1111 1.390 . S
C1103 C1102 1.387 . S
C1103 C1105 1.387 . S
H1104 C1111 0.950 . S
C1105 C1103 1.387 . S
C1105 C1107 1.390 . S
C1105 H1109 0.950 . S
H1106 C1102 0.950 . S
C1107 C1105 1.390 . S
C1107 C1108 1.387 . S
C1107 H1110 0.950 . S
C1108 C1107 1.387 . S
C1108 C1111 1.387 . S
H1109 C1105 0.950 . S
H1110 C1107 0.950 . S
C1111 C1102 1.390 . S
C1111 H1104 0.950 . S
C1111 C1108 1.387 . S
C1112 C1113 1.387 . S
C1112 H1116 0.950 . S
C1112 C1121 1.390 . S
C1113 C1112 1.387 . S
C1113 C1115 1.387 . S
H1114 C1121 0.950 . S
C1115 C1113 1.387 . S
C1115 C1117 1.390 . S
C1115 H1119 0.950 . S
H1116 C1112 0.950 . S
C1117 C1115 1.390 . S
C1117 C1118 1.387 . S
C1117 H1120 0.950 . S
C1118 C1117 1.387 . S
C1118 C1121 1.387 . S
H1119 C1115 0.950 . S
H1120 C1117 0.950 . S
C1121 C1112 1.390 . S
C1121 H1114 0.950 . S
C1121 C1118 1.387 . S
C1122 C1123 1.387 . S
C1122 H1126 0.950 . S
C1122 C1131 1.390 . S
C1123 C1122 1.387 . S
C1123 C1125 1.387 . S
H1124 C1131 0.950 . S
C1125 C1123 1.387 . S
C1125 C1127 1.390 . S
C1125 H1129 0.950 . S
H1126 C1122 0.950 . S
C1127 C1125 1.390 . S
C1127 C1128 1.387 . S
C1127 H1130 0.950 . S
C1128 C1127 1.387 . S
C1128 C1131 1.387 . S
H1129 C1125 0.950 . S
H1130 C1127 0.950 . S
C1131 C1122 1.390 . S
C1131 H1124 0.950 . S
C1131 C1128 1.387 . S
C1132 C1133 1.387 . S
C1132 H1136 0.950 . S
C1132 C1141 1.390 . S
C1133 C1132 1.387 . S
C1133 C1135 1.387 . S
H1134 C1141 0.950 . S
C1135 C1133 1.387 . S
C1135 C1137 1.390 . S
C1135 H1139 0.950 . S
H1136 C1132 0.950 . S
C1137 C1135 1.390 . S
C1137 C1138 1.387 . S
C1137 H1140 0.950 . S
C1138 C1137 1.387 . S
C1138 C1141 1.387 . S
H1139 C1135 0.950 . S
H1140 C1137 0.950 . S
C1141 C1132 1.390 . S
C1141 H1134 0.950 . S
C1141 C1138 1.387 . S
C1142 C1143 1.387 . S
C1142 H1146 0.950 . S
C1142 C1151 1.390 . S
C1143 C1142 1.387 . S
C1143 C1145 1.387 . S
H1144 C1151 0.950 . S
C1145 C1143 1.387 . S
C1145 C1147 1.390 . S
C1145 H1149 0.950 . S
H1146 C1142 0.950 . S
C1147 C1145 1.390 . S
C1147 C1148 1.387 . S
C1147 H1150 0.950 . S
C1148 C1147 1.387 . S
C1148 C1151 1.387 . S
H1149 C1145 0.950 . S
H1150 C1147 0.950 . S
C1151 C1142 1.390 . S
C1151 H1144 0.950 . S
C1151 C1148 1.387 . S
C1152 C1153 1.387 . S
C1152 H1156 0.950 . S
C1152 C1161 1.390 . S
C1153 C1152 1.387 . S
C1153 C1155 1.387 . S
H1154 C1161 0.950 . S
C1155 C1153 1.387 . S
C1155 C1157 1.390 . S
C1155 H1159 0.950 . S
H1156 C1152 0.950 . S
C1157 C1155 1.390 . S
C1157 C1158 1.387 . S
C1157 H1160 0.950 . S
C1158 C1157 1.387 . S
C1158 C1161 1.387 . S
H1159 C1155 0.950 . S
H1160 C1157 0.950 . S
C1161 C1152 1.390 . S
C1161 H1154 0.950 . S
C1161 C1158 1.387 . S
C1162 C1163 1.387 . S
C1162 H1166 0.950 . S
C1162 C1171 1.390 . S
C1163 C1162 1.387 . S
C1163 C1165 1.387 . S
H1164 C1171 0.950 . S
C1165 C1163 1.387 . S
C1165 C1167 1.390 . S
C1165 H1169 0.950 . S
H1166 C1162 0.950 . S
C1167 C1165 1.390 . S
C1167 C1168 1.387 . S
C1167 H1170 0.950 . S
C1168 C1167 1.387 . S
C1168 C1171 1.387 . S
H1169 C1165 0.950 . S
H1170 C1167 0.950 . S
C1171 C1162 1.390 . S
C1171 H1164 0.950 . S
C1171 C1168 1.387 . S
C1172 C1173 1.387 . S
C1172 H1176 0.950 . S
C1172 C1181 1.390 . S
C1173 C1172 1.387 . S
C1173 C1175 1.387 . S
H1174 C1181 0.950 . S
C1175 C1173 1.387 . S
C1175 C1177 1.390 . S
C1175 H1179 0.950 . S
H1176 C1172 0.950 . S
C1177 C1175 1.390 . S
C1177 C1178 1.387 . S
C1177 H1180 0.950 . S
C1178 C1177 1.387 . S
C1178 C1181 1.387 . S
H1179 C1175 0.950 . S
H1180 C1177 0.950 . S
C1181 C1172 1.390 . S
C1181 H1174 0.950 . S
C1181 C1178 1.387 . S
C1182 C1183 1.387 1_455 S
C1182 H1186 0.950 1_455 S
C1182 C1191 1.390 . S
C1183 C1182 1.387 1_655 S
C1183 C1185 1.387 1_655 S
H1184 C1191 0.950 . S
C1185 C1183 1.387 1_455 S
C1185 C1187 1.390 . S
C1185 H1189 0.950 . S
H1186 C1182 0.950 1_655 S
C1187 C1185 1.390 . S
C1187 C1188 1.387 . S
C1187 H1190 0.950 . S
C1188 C1187 1.387 . S
C1188 C1191 1.387 . S
H1189 C1185 0.950 . S
H1190 C1187 0.950 . S
C1191 C1182 1.390 . S
C1191 H1184 0.950 . S
C1191 C1188 1.387 . S
C1192 C1193 1.387 . S
C1192 H1196 0.950 . S
C1192 C1201 1.390 . S
C1193 C1192 1.387 . S
C1193 C1195 1.387 . S
H1194 C1201 0.950 . S
C1195 C1193 1.387 . S
C1195 C1197 1.390 . S
C1195 H1199 0.950 . S
H1196 C1192 0.950 . S
C1197 C1195 1.390 . S
C1197 C1198 1.387 . S
C1197 H1200 0.950 . S
C1198 C1197 1.387 . S
C1198 C1201 1.387 . S
H1199 C1195 0.950 . S
H1200 C1197 0.950 . S
C1201 C1192 1.390 . S
C1201 H1194 0.950 . S
C1201 C1198 1.387 . S
C1202 C1203 1.387 . S
C1202 H1206 0.950 . S
C1202 C1211 1.390 1_455 S
C1203 C1202 1.387 . S
C1203 C1205 1.387 . S
H1204 C1211 0.950 . S
C1205 C1203 1.387 . S
C1205 C1207 1.394 1_455 S
C1205 H1209 0.950 . S
H1206 C1202 0.950 . S
C1207 C1205 1.394 1_655 S
C1207 C1208 1.386 . S
C1207 H1210 0.948 . S
C1208 C1207 1.386 . S
C1208 C1211 1.387 . S
H1209 C1205 0.950 . S
H1210 C1207 0.948 . S
C1211 C1202 1.390 1_655 S
C1211 H1204 0.950 . S
C1211 C1208 1.387 . S
C1212 C1213 1.387 . S
C1212 H1216 0.950 . S
C1212 C1221 1.390 . S
C1213 C1212 1.387 . S
C1213 C1215 1.387 . S
H1214 C1221 0.950 . S
C1215 C1213 1.387 . S
C1215 C1217 1.390 . S
C1215 H1219 0.950 . S
H1216 C1212 0.950 . S
C1217 C1215 1.390 . S
C1217 C1218 1.387 . S
C1217 H1220 0.950 . S
C1218 C1217 1.387 . S
C1218 C1221 1.387 . S
H1219 C1215 0.950 . S
H1220 C1217 0.950 . S
C1221 C1212 1.390 . S
C1221 H1214 0.950 . S
C1221 C1218 1.387 . S
C1222 C1223 1.387 . S
C1222 H1226 0.950 . S
C1222 C1231 1.390 . S
C1223 C1222 1.387 . S
C1223 C1225 1.387 . S
H1224 C1231 0.950 . S
C1225 C1223 1.387 . S
C1225 C1227 1.390 . S
C1225 H1229 0.950 . S
H1226 C1222 0.950 . S
C1227 C1225 1.390 . S
C1227 C1228 1.387 . S
C1227 H1230 0.950 . S
C1228 C1227 1.387 . S
C1228 C1231 1.387 . S
H1229 C1225 0.950 . S
H1230 C1227 0.950 . S
C1231 C1222 1.390 . S
C1231 H1224 0.950 . S
C1231 C1228 1.387 . S
C1232 C1233 1.387 . S
C1232 H1236 0.950 . S
C1232 C1241 1.390 . S
C1233 C1232 1.387 . S
C1233 C1235 1.387 . S
H1234 C1241 0.950 . S
C1235 C1233 1.387 . S
C1235 C1237 1.390 . S
C1235 H1239 0.950 . S
H1236 C1232 0.950 . S
C1237 C1235 1.390 . S
C1237 C1238 1.387 . S
C1237 H1240 0.950 . S
C1238 C1237 1.387 . S
C1238 C1241 1.387 . S
H1239 C1235 0.950 . S
H1240 C1237 0.950 . S
C1241 C1232 1.390 . S
C1241 H1234 0.950 . S
C1241 C1238 1.387 . S
C1242 C1243 1.387 . S
C1242 H1246 0.950 . S
C1242 C1251 1.390 . S
C1243 C1242 1.387 . S
C1243 C1245 1.387 . S
H1244 C1251 0.950 . S
C1245 C1243 1.387 . S
C1245 C1247 1.390 . S
C1245 H1249 0.950 . S
H1246 C1242 0.950 . S
C1247 C1245 1.390 . S
C1247 C1248 1.387 . S
C1247 H1250 0.950 1_554 S
C1248 C1247 1.387 . S
C1248 C1251 1.387 . S
H1249 C1245 0.950 . S
H1250 C1247 0.950 1_556 S
C1251 C1242 1.390 . S
C1251 H1244 0.950 . S
C1251 C1248 1.387 . S
C1252 C1253 1.387 . S
C1252 H1256 0.950 . S
C1252 C1261 1.390 . S
C1253 C1252 1.387 . S
C1253 C1255 1.387 . S
H1254 C1261 0.950 . S
C1255 C1253 1.387 . S
C1255 C1257 1.390 . S
C1255 H1259 0.950 . S
H1256 C1252 0.950 . S
C1257 C1255 1.390 . S
C1257 C1258 1.387 . S
C1257 H1260 0.950 . S
C1258 C1257 1.387 . S
C1258 C1261 1.387 . S
H1259 C1255 0.950 . S
H1260 C1257 0.950 . S
C1261 C1252 1.390 . S
C1261 H1254 0.950 . S
C1261 C1258 1.387 . S
C1262 C1263 1.387 . S
C1262 H1266 0.950 . S
C1262 C1271 1.390 . S
C1263 C1262 1.387 . S
C1263 C1265 1.387 . S
H1264 C1271 0.950 . S
C1265 C1263 1.387 . S
C1265 C1267 1.390 . S
C1265 H1269 0.950 . S
H1266 C1262 0.950 . S
C1267 C1265 1.390 . S
C1267 C1268 1.387 . S
C1267 H1270 0.950 . S
C1268 C1267 1.387 . S
C1268 C1271 1.387 . S
H1269 C1265 0.950 . S
H1270 C1267 0.950 . S
C1271 C1262 1.390 . S
C1271 H1264 0.950 . S
C1271 C1268 1.387 . S
C1272 C1273 1.387 . S
C1272 H1276 0.950 . S
C1272 C1281 1.390 . S
C1273 C1272 1.387 . S
C1273 C1275 1.387 . S
H1274 C1281 0.950 . S
C1275 C1273 1.387 . S
C1275 C1277 1.390 . S
C1275 H1279 0.950 . S
H1276 C1272 0.950 . S
C1277 C1275 1.390 . S
C1277 C1278 1.387 . S
C1277 H1280 0.950 . S
C1278 C1277 1.387 . S
C1278 C1281 1.387 . S
H1279 C1275 0.950 . S
H1280 C1277 0.950 . S
C1281 C1272 1.390 . S
C1281 H1274 0.950 . S
C1281 C1278 1.387 . S
C1282 C1283 1.387 . S
C1282 H1286 0.950 . S
C1282 C1291 1.390 . S
C1283 C1282 1.387 . S
C1283 C1285 1.387 . S
H1284 C1291 0.950 . S
C1285 C1283 1.387 . S
C1285 C1287 1.390 . S
C1285 H1289 0.950 . S
H1286 C1282 0.950 . S
C1287 C1285 1.390 . S
C1287 C1288 1.387 . S
C1287 H1290 0.950 1_556 S
C1288 C1287 1.387 . S
C1288 C1291 1.387 . S
H1289 C1285 0.950 . S
H1290 C1287 0.950 1_554 S
C1291 C1282 1.390 . S
C1291 H1284 0.950 . S
C1291 C1288 1.387 . S
C1292 C1293 1.387 . S
C1292 H1296 0.950 . S
C1292 C1301 1.390 . S
C1293 C1292 1.387 . S
C1293 C1295 1.387 . S
H1294 C1301 0.950 . S
C1295 C1293 1.387 . S
C1295 C1297 1.390 . S
C1295 H1299 0.950 . S
H1296 C1292 0.950 . S
C1297 C1295 1.390 . S
C1297 C1298 1.387 . S
C1297 H1300 0.950 . S
C1298 C1297 1.387 . S
C1298 C1301 1.387 . S
H1299 C1295 0.950 . S
H1300 C1297 0.950 . S
C1301 C1292 1.390 . S
C1301 H1294 0.950 . S
C1301 C1298 1.387 . S
C1302 C1303 1.387 . S
C1302 H1306 0.950 . S
C1302 C1311 1.390 . S
C1303 C1302 1.387 . S
C1303 C1305 1.387 . S
H1304 C1311 0.950 . S
C1305 C1303 1.387 . S
C1305 C1307 1.390 . S
C1305 H1309 0.950 . S
H1306 C1302 0.950 . S
C1307 C1305 1.390 . S
C1307 C1308 1.387 . S
C1307 H1310 0.950 . S
C1308 C1307 1.387 . S
C1308 C1311 1.387 . S
H1309 C1305 0.950 . S
H1310 C1307 0.950 . S
C1311 C1302 1.390 . S
C1311 H1304 0.950 . S
C1311 C1308 1.387 . S
C1312 C1313 1.387 . S
C1312 H1316 0.950 . S
C1312 C1321 1.390 . S
C1313 C1312 1.387 . S
C1313 C1315 1.387 . S
H1314 C1321 0.950 . S
C1315 C1313 1.387 . S
C1315 C1317 1.390 . S
C1315 H1319 0.950 . S
H1316 C1312 0.950 . S
C1317 C1315 1.390 . S
C1317 C1318 1.387 . S
C1317 H1320 0.950 . S
C1318 C1317 1.387 . S
C1318 C1321 1.387 . S
H1319 C1315 0.950 . S
H1320 C1317 0.950 . S
C1321 C1312 1.390 . S
C1321 H1314 0.950 . S
C1321 C1318 1.387 . S
C1322 C1323 1.387 . S
C1322 H1326 0.950 . S
C1322 C1331 1.390 . S
C1323 C1322 1.387 . S
C1323 C1325 1.387 . S
H1324 C1331 0.950 . S
C1325 C1323 1.387 . S
C1325 C1327 1.390 . S
C1325 H1329 0.950 . S
H1326 C1322 0.950 . S
C1327 C1325 1.390 . S
C1327 C1328 1.387 . S
C1327 H1330 0.950 . S
C1328 C1327 1.387 . S
C1328 C1331 1.387 . S
H1329 C1325 0.950 . S
H1330 C1327 0.950 . S
C1331 C1322 1.390 . S
C1331 H1324 0.950 . S
C1331 C1328 1.387 . S
C1332 C1333 1.387 . S
C1332 H1336 0.950 . S
C1332 C1341 1.390 . S
C1333 C1332 1.387 . S
C1333 C1335 1.387 . S
H1334 C1341 0.950 1_565 S
C1335 C1333 1.387 . S
C1335 C1337 1.390 . S
C1335 H1339 0.950 . S
H1336 C1332 0.950 . S
C1337 C1335 1.390 . S
C1337 C1338 1.387 1_545 S
C1337 H1340 0.950 1_545 S
C1338 C1337 1.387 1_565 S
C1338 C1341 1.387 1_565 S
H1339 C1335 0.950 . S
H1340 C1337 0.950 1_565 S
C1341 C1332 1.390 . S
C1341 H1334 0.950 1_545 S
C1341 C1338 1.387 1_545 S
C1342 C1343 1.387 . S
C1342 H1346 0.950 . S
C1342 C1351 1.390 . S
C1343 C1342 1.387 . S
C1343 C1345 1.387 . S
H1344 C1351 0.950 . S
C1345 C1343 1.387 . S
C1345 C1347 1.390 . S
C1345 H1349 0.950 . S
H1346 C1342 0.950 . S
C1347 C1345 1.390 . S
C1347 C1348 1.387 . S
C1347 H1350 0.950 . S
C1348 C1347 1.387 . S
C1348 C1351 1.387 . S
H1349 C1345 0.950 . S
H1350 C1347 0.950 . S
C1351 C1342 1.390 . S
C1351 H1344 0.950 . S
C1351 C1348 1.387 . S
C1352 C1353 1.387 . S
C1352 H1356 0.950 . S
C1352 C1361 1.390 . S
C1353 C1352 1.387 . S
C1353 C1355 1.387 . S
H1354 C1361 0.950 . S
C1355 C1353 1.387 . S
C1355 C1357 1.390 . S
C1355 H1359 0.950 . S
H1356 C1352 0.950 . S
C1357 C1355 1.390 . S
C1357 C1358 1.387 . S
C1357 H1360 0.950 . S
C1358 C1357 1.387 . S
C1358 C1361 1.387 . S
H1359 C1355 0.950 . S
H1360 C1357 0.950 . S
C1361 C1352 1.390 . S
C1361 H1354 0.950 . S
C1361 C1358 1.387 . S
C1362 C1363 1.387 . S
C1362 H1366 0.950 . S
C1362 C1371 1.390 . S
C1363 C1362 1.387 . S
C1363 C1365 1.387 . S
H1364 C1371 0.950 . S
C1365 C1363 1.387 . S
C1365 C1367 1.390 . S
C1365 H1369 0.950 . S
H1366 C1362 0.950 . S
C1367 C1365 1.390 . S
C1367 C1368 1.387 . S
C1367 H1370 0.950 . S
C1368 C1367 1.387 . S
C1368 C1371 1.387 . S
H1369 C1365 0.950 . S
H1370 C1367 0.950 . S
C1371 C1362 1.390 . S
C1371 H1364 0.950 . S
C1371 C1368 1.387 . S
C1372 C1373 1.387 . S
C1372 H1376 0.950 . S
C1372 C1381 1.390 1_545 S
C1373 C1372 1.387 . S
C1373 C1375 1.387 . S
H1374 C1381 0.950 . S
C1375 C1373 1.387 . S
C1375 C1377 1.390 1_545 S
C1375 H1379 0.950 . S
H1376 C1372 0.950 . S
C1377 C1375 1.390 1_565 S
C1377 C1378 1.387 . S
C1377 H1380 0.950 . S
C1378 C1377 1.387 . S
C1378 C1381 1.387 . S
H1379 C1375 0.950 . S
H1380 C1377 0.950 . S
C1381 C1372 1.390 1_565 S
C1381 H1374 0.950 . S
C1381 C1378 1.387 . S
C1382 C1383 1.387 . S
C1382 H1386 0.950 . S
C1382 C1391 1.390 1_545 S
C1383 C1382 1.387 . S
C1383 C1385 1.387 . S
H1384 C1391 0.950 . S
C1385 C1383 1.387 . S
C1385 C1387 1.390 1_545 S
C1385 H1389 0.950 . S
H1386 C1382 0.950 . S
C1387 C1385 1.390 1_565 S
C1387 C1388 1.387 . S
C1387 H1390 0.950 . S
C1388 C1387 1.387 . S
C1388 C1391 1.387 . S
H1389 C1385 0.950 . S
H1390 C1387 0.950 . S
C1391 C1382 1.390 1_565 S
C1391 H1384 0.950 . S
C1391 C1388 1.387 . S
C1392 C1393 1.387 . S
C1392 H1396 0.950 . S
C1392 C1401 1.390 . S
C1393 C1392 1.387 . S
C1393 C1395 1.387 . S
H1394 C1401 0.950 . S
C1395 C1393 1.387 . S
C1395 C1397 1.390 . S
C1395 H1399 0.950 . S
H1396 C1392 0.950 . S
C1397 C1395 1.390 . S
C1397 C1398 1.387 . S
C1397 H1400 0.950 . S
C1398 C1397 1.387 . S
C1398 C1401 1.387 . S
H1399 C1395 0.950 . S
H1400 C1397 0.950 . S
C1401 C1392 1.390 . S
C1401 H1394 0.950 . S
C1401 C1398 1.387 . S
C1402 C1403 1.387 . S
C1402 H1406 0.950 . S
C1402 C1411 1.390 . S
C1403 C1402 1.387 . S
C1403 C1405 1.387 . S
H1404 C1411 0.950 . S
C1405 C1403 1.387 . S
C1405 C1407 1.390 . S
C1405 H1409 0.950 . S
H1406 C1402 0.950 . S
C1407 C1405 1.390 . S
C1407 C1408 1.387 . S
C1407 H1410 0.950 . S
C1408 C1407 1.387 . S
C1408 C1411 1.387 . S
H1409 C1405 0.950 . S
H1410 C1407 0.950 . S
C1411 C1402 1.390 . S
C1411 H1404 0.950 . S
C1411 C1408 1.387 . S
C1412 C1413 1.387 . S
C1412 H1416 0.950 . S
C1412 C1421 1.390 . S
C1413 C1412 1.387 . S
C1413 C1415 1.387 . S
H1414 C1421 0.950 . S
C1415 C1413 1.387 . S
C1415 C1417 1.390 . S
C1415 H1419 0.950 . S
H1416 C1412 0.950 . S
C1417 C1415 1.390 . S
C1417 C1418 1.387 . S
C1417 H1420 0.950 . S
C1418 C1417 1.387 . S
C1418 C1421 1.387 . S
H1419 C1415 0.950 . S
H1420 C1417 0.950 . S
C1421 C1412 1.390 . S
C1421 H1414 0.950 . S
C1421 C1418 1.387 . S
C1422 C1423 1.387 . S
C1422 H1426 0.950 . S
C1422 C1431 1.390 . S
C1423 C1422 1.387 . S
C1423 C1425 1.387 . S
H1424 C1431 0.950 . S
C1425 C1423 1.387 . S
C1425 C1427 1.390 . S
C1425 H1429 0.950 . S
H1426 C1422 0.950 . S
C1427 C1425 1.390 . S
C1427 C1428 1.387 . S
C1427 H1430 0.950 . S
C1428 C1427 1.387 . S
C1428 C1431 1.387 . S
H1429 C1425 0.950 . S
H1430 C1427 0.950 . S
C1431 C1422 1.390 . S
C1431 H1424 0.950 . S
C1431 C1428 1.387 . S
C1432 C1433 1.387 . S
C1432 H1436 0.950 . S
C1432 C1441 1.390 . S
C1433 C1432 1.387 . S
C1433 C1435 1.387 . S
H1434 C1441 0.950 . S
C1435 C1433 1.387 . S
C1435 C1437 1.390 . S
C1435 H1439 0.950 . S
H1436 C1432 0.950 . S
C1437 C1435 1.390 . S
C1437 C1438 1.387 . S
C1437 H1440 0.950 . S
C1438 C1437 1.387 . S
C1438 C1441 1.387 . S
H1439 C1435 0.950 . S
H1440 C1437 0.950 . S
C1441 C1432 1.390 . S
C1441 H1434 0.950 . S
C1441 C1438 1.387 . S
C1442 C1443 1.387 1_655 S
C1442 H1446 0.950 1_655 S
C1442 C1451 1.390 . S
C1443 C1442 1.387 1_455 S
C1443 C1445 1.387 1_455 S
H1444 C1451 0.950 . S
C1445 C1443 1.387 1_655 S
C1445 C1447 1.390 . S
C1445 H1449 0.941 1_655 S
H1446 C1442 0.950 1_455 S
C1447 C1445 1.390 . S
C1447 C1448 1.387 . S
C1447 H1450 0.950 . S
C1448 C1447 1.387 . S
C1448 C1451 1.387 . S
H1449 C1445 0.941 1_455 S
H1450 C1447 0.950 . S
C1451 C1442 1.390 . S
C1451 H1444 0.950 . S
C1451 C1448 1.387 . S
C1452 C1453 1.387 . S
C1452 H1456 0.950 . S
C1452 C1461 1.390 . S
C1453 C1452 1.387 . S
C1453 C1455 1.387 . S
H1454 C1461 0.950 . S
C1455 C1453 1.387 . S
C1455 C1457 1.390 . S
C1455 H1459 0.950 . S
H1456 C1452 0.950 . S
C1457 C1455 1.390 . S
C1457 C1458 1.387 . S
C1457 H1460 0.950 . S
C1458 C1457 1.387 . S
C1458 C1461 1.387 . S
H1459 C1455 0.950 . S
H1460 C1457 0.950 . S
C1461 C1452 1.390 . S
C1461 H1454 0.950 . S
C1461 C1458 1.387 . S
C1462 C1463 1.387 . S
C1462 H1466 0.950 . S
C1462 C1471 1.390 . S
C1463 C1462 1.387 . S
C1463 C1465 1.387 . S
H1464 C1471 0.950 . S
C1465 C1463 1.387 . S
C1465 C1467 1.390 . S
C1465 H1469 0.950 . S
H1466 C1462 0.950 . S
C1467 C1465 1.390 . S
C1467 C1468 1.387 . S
C1467 H1470 0.950 . S
C1468 C1467 1.387 . S
C1468 C1471 1.387 . S
H1469 C1465 0.950 . S
H1470 C1467 0.950 . S
C1471 C1462 1.390 . S
C1471 H1464 0.950 . S
C1471 C1468 1.387 . S
C1472 C1473 1.387 . S
C1472 H1476 0.950 . S
C1472 C1481 1.390 . S
C1473 C1472 1.387 . S
C1473 C1475 1.387 . S
H1474 C1481 0.950 . S
C1475 C1473 1.387 . S
C1475 C1477 1.390 . S
C1475 H1479 0.950 . S
H1476 C1472 0.950 . S
C1477 C1475 1.390 . S
C1477 C1478 1.387 . S
C1477 H1480 0.950 . S
C1478 C1477 1.387 . S
C1478 C1481 1.387 . S
H1479 C1475 0.950 . S
H1480 C1477 0.950 . S
C1481 C1472 1.390 . S
C1481 H1474 0.950 . S
C1481 C1478 1.387 . S
C1482 C1483 1.387 . S
C1482 H1486 0.950 . S
C1482 C1491 1.390 . S
C1483 C1482 1.387 . S
C1483 C1485 1.387 . S
H1484 C1491 0.950 . S
C1485 C1483 1.387 . S
C1485 C1487 1.390 . S
C1485 H1489 0.950 . S
H1486 C1482 0.950 . S
C1487 C1485 1.390 . S
C1487 C1488 1.387 1_556 S
C1487 H1490 0.950 1_556 S
C1488 C1487 1.387 1_554 S
C1488 C1491 1.387 1_554 S
H1489 C1485 0.950 . S
H1490 C1487 0.950 1_554 S
C1491 C1482 1.390 . S
C1491 H1484 0.950 . S
C1491 C1488 1.387 1_556 S
C1492 C1493 1.387 . S
C1492 H1496 0.950 . S
C1492 C1501 1.390 . S
C1493 C1492 1.387 . S
C1493 C1495 1.387 . S
H1494 C1501 0.950 . S
C1495 C1493 1.387 . S
C1495 C1497 1.390 . S
C1495 H1499 0.950 . S
H1496 C1492 0.950 . S
C1497 C1495 1.390 . S
C1497 C1498 1.387 . S
C1497 H1500 0.950 . S
C1498 C1497 1.387 . S
C1498 C1501 1.387 . S
H1499 C1495 0.950 . S
H1500 C1497 0.950 . S
C1501 C1492 1.390 . S
C1501 H1494 0.950 . S
C1501 C1498 1.387 . S
C1502 C1503 1.387 . S
C1502 H1506 0.950 . S
C1502 C1511 1.390 . S
C1503 C1502 1.387 . S
C1503 C1505 1.387 . S
H1504 C1511 0.950 . S
C1505 C1503 1.387 . S
C1505 C1507 1.390 . S
C1505 H1509 0.950 . S
H1506 C1502 0.950 . S
C1507 C1505 1.390 . S
C1507 C1508 1.387 . S
C1507 H1510 0.950 . S
C1508 C1507 1.387 . S
C1508 C1511 1.387 . S
H1509 C1505 0.950 . S
H1510 C1507 0.950 . S
C1511 C1502 1.390 . S
C1511 H1504 0.950 . S
C1511 C1508 1.387 . S
C1512 C1513 1.387 . S
C1512 H1516 0.950 . S
C1512 C1521 1.390 . S
C1513 C1512 1.387 . S
C1513 C1515 1.387 . S
H1514 C1521 0.950 . S
C1515 C1513 1.387 . S
C1515 C1517 1.390 . S
C1515 H1519 0.950 . S
H1516 C1512 0.950 . S
C1517 C1515 1.390 . S
C1517 C1518 1.387 . S
C1517 H1520 0.950 . S
C1518 C1517 1.387 . S
C1518 C1521 1.387 . S
H1519 C1515 0.950 . S
H1520 C1517 0.950 . S
C1521 C1512 1.390 . S
C1521 H1514 0.950 . S
C1521 C1518 1.387 . S
C1522 C1523 1.387 . S
C1522 H1526 0.950 . S
C1522 C1531 1.390 . S
C1523 C1522 1.387 . S
C1523 C1525 1.387 . S
H1524 C1531 0.950 . S
C1525 C1523 1.387 . S
C1525 C1527 1.390 . S
C1525 H1529 0.950 . S
H1526 C1522 0.950 . S
C1527 C1525 1.390 . S
C1527 C1528 1.387 . S
C1527 H1530 0.950 . S
C1528 C1527 1.387 . S
C1528 C1531 1.387 . S
H1529 C1525 0.950 . S
H1530 C1527 0.950 . S
C1531 C1522 1.390 . S
C1531 H1524 0.950 . S
C1531 C1528 1.387 . S
C1532 C1533 1.387 . S
C1532 H1536 0.950 . S
C1532 C1541 1.390 . S
C1533 C1532 1.387 . S
C1533 C1535 1.387 . S
H1534 C1541 0.950 . S
C1535 C1533 1.387 . S
C1535 C1537 1.390 . S
C1535 H1539 0.950 . S
H1536 C1532 0.950 . S
C1537 C1535 1.390 . S
C1537 C1538 1.387 . S
C1537 H1540 0.950 . S
C1538 C1537 1.387 . S
C1538 C1541 1.387 . S
H1539 C1535 0.950 . S
H1540 C1537 0.950 . S
C1541 C1532 1.390 . S
C1541 H1534 0.950 . S
C1541 C1538 1.387 . S
C1542 C1543 1.387 . S
C1542 H1546 0.950 . S
C1542 C1551 1.390 . S
C1543 C1542 1.387 . S
C1543 C1545 1.387 . S
H1544 C1551 0.950 . S
C1545 C1543 1.387 . S
C1545 C1547 1.390 . S
C1545 H1549 0.950 . S
H1546 C1542 0.950 . S
C1547 C1545 1.390 . S
C1547 C1548 1.387 . S
C1547 H1550 0.950 . S
C1548 C1547 1.387 . S
C1548 C1551 1.387 . S
H1549 C1545 0.950 . S
H1550 C1547 0.950 . S
C1551 C1542 1.390 . S
C1551 H1544 0.950 . S
C1551 C1548 1.387 . S
C1552 C1553 1.387 . S
C1552 H1556 0.950 . S
C1552 C1561 1.390 . S
C1553 C1552 1.387 . S
C1553 C1555 1.387 . S
H1554 C1561 0.950 . S
C1555 C1553 1.387 . S
C1555 C1557 1.390 . S
C1555 H1559 0.950 . S
H1556 C1552 0.950 . S
C1557 C1555 1.390 . S
C1557 C1558 1.387 . S
C1557 H1560 0.950 . S
C1558 C1557 1.387 . S
C1558 C1561 1.387 . S
H1559 C1555 0.950 . S
H1560 C1557 0.950 . S
C1561 C1552 1.390 . S
C1561 H1554 0.950 . S
C1561 C1558 1.387 . S
C1562 C1563 1.387 . S
C1562 H1566 0.950 . S
C1562 C1571 1.390 . S
C1563 C1562 1.387 . S
C1563 C1565 1.387 . S
H1564 C1571 0.950 . S
C1565 C1563 1.387 . S
C1565 C1567 1.390 . S
C1565 H1569 0.950 . S
H1566 C1562 0.950 . S
C1567 C1565 1.390 . S
C1567 C1568 1.387 . S
C1567 H1570 0.950 . S
C1568 C1567 1.387 . S
C1568 C1571 1.387 . S
H1569 C1565 0.950 . S
H1570 C1567 0.950 . S
C1571 C1562 1.390 . S
C1571 H1564 0.950 . S
C1571 C1568 1.387 . S
C1572 C1573 1.387 . S
C1572 H1576 0.950 . S
C1572 C1581 1.390 . S
C1573 C1572 1.387 . S
C1573 C1575 1.387 . S
H1574 C1581 0.950 . S
C1575 C1573 1.387 . S
C1575 C1577 1.390 . S
C1575 H1579 0.950 . S
H1576 C1572 0.950 . S
C1577 C1575 1.390 . S
C1577 C1578 1.387 1_565 S
C1577 H1580 0.948 1_565 S
C1578 C1577 1.387 1_545 S
C1578 C1581 1.387 1_545 S
H1579 C1575 0.950 . S
H1580 C1577 0.948 1_545 S
C1581 C1572 1.390 . S
C1581 H1574 0.950 . S
C1581 C1578 1.387 1_565 S
C1582 C1583 1.387 . S
C1582 H1586 0.950 . S
C1582 C1591 1.390 . S
C1583 C1582 1.387 . S
C1583 C1585 1.387 . S
H1584 C1591 0.950 . S
C1585 C1583 1.387 . S
C1585 C1587 1.390 . S
C1585 H1589 0.950 . S
H1586 C1582 0.950 . S
C1587 C1585 1.390 . S
C1587 C1588 1.387 . S
C1587 H1590 0.950 . S
C1588 C1587 1.387 . S
C1588 C1591 1.387 . S
H1589 C1585 0.950 . S
H1590 C1587 0.950 . S
C1591 C1582 1.390 . S
C1591 H1584 0.950 . S
C1591 C1588 1.387 . S
C1592 C1593 1.387 . S
C1592 H1596 0.950 . S
C1592 C1601 1.390 . S
C1593 C1592 1.387 . S
C1593 C1595 1.387 . S
H1594 C1601 0.950 . S
C1595 C1593 1.387 . S
C1595 C1597 1.390 . S
C1595 H1599 0.950 . S
H1596 C1592 0.950 . S
C1597 C1595 1.390 . S
C1597 C1598 1.387 . S
C1597 H1600 0.950 . S
C1598 C1597 1.387 . S
C1598 C1601 1.387 . S
H1599 C1595 0.950 . S
H1600 C1597 0.950 . S
C1601 C1592 1.390 . S
C1601 H1594 0.950 . S
C1601 C1598 1.387 . S
C1602 C1603 1.387 . S
C1602 H1606 0.950 . S
C1602 C1611 1.390 . S
C1603 C1602 1.387 . S
C1603 C1605 1.387 . S
H1604 C1611 0.950 . S
C1605 C1603 1.387 . S
C1605 C1607 1.390 . S
C1605 H1609 0.950 . S
H1606 C1602 0.950 . S
C1607 C1605 1.390 . S
C1607 C1608 1.387 . S
C1607 H1610 0.950 . S
C1608 C1607 1.387 . S
C1608 C1611 1.387 . S
H1609 C1605 0.950 . S
H1610 C1607 0.950 . S
C1611 C1602 1.390 . S
C1611 H1604 0.950 . S
C1611 C1608 1.387 . S
C1612 C1613 1.387 1_545 S
C1612 H1616 0.950 1_545 S
C1612 C1621 1.390 . S
C1613 C1612 1.387 1_565 S
C1613 C1615 1.387 . S
H1614 C1621 0.950 . S
C1615 C1613 1.387 . S
C1615 C1617 1.390 1_565 S
C1615 H1619 0.950 . S
H1616 C1612 0.950 1_565 S
C1617 C1615 1.390 1_545 S
C1617 C1618 1.387 . S
C1617 H1620 0.950 . S
C1618 C1617 1.387 . S
C1618 C1621 1.387 . S
H1619 C1615 0.950 . S
H1620 C1617 0.950 . S
C1621 C1612 1.390 . S
C1621 H1614 0.950 . S
C1621 C1618 1.387 . S
C1622 C1623 1.387 . S
C1622 H1626 0.950 . S
C1622 C1631 1.390 1_565 S
C1623 C1622 1.387 . S
C1623 C1625 1.387 . S
H1624 C1631 0.950 . S
C1625 C1623 1.387 . S
C1625 C1627 1.389 . S
C1625 H1629 0.950 . S
H1626 C1622 0.950 . S
C1627 C1625 1.389 . S
C1627 C1628 1.388 1_565 S
C1627 H1630 0.950 1_565 S
C1628 C1627 1.388 1_545 S
C1628 C1631 1.387 . S
H1629 C1625 0.950 . S
H1630 C1627 0.950 1_545 S
C1631 C1622 1.390 1_545 S
C1631 H1624 0.950 . S
C1631 C1628 1.387 . S
C673 C592 1.228 . S
C678 C5 1.064 . S
C683 C26 1.303 . S
C688 C222 1.286 . S
C693 C33 1.103 . S
C698 C564 1.280 . S
C703 C54 1.346 . S
C708 C250 1.319 . S
C713 C620 1.312 . S
C718 C68 1.321 . S
C723 C75 1.085 . S
C728 C299 1.238 . S
C733 C96 1.265 . S
C738 C648 1.256 . S
C743 C103 1.085 . S
C748 C271 1.239 . S
C753 C47 1.059 . S
C758 C669 1.255 . S
C763 C12 1.346 . S
C768 C354 1.333 . S
C773 C375 1.228 . S
C778 C19 1.016 . S
C783 C40 1.297 1_554 S
C788 C340 1.285 . S
C793 C82 1.339 . S
C798 C347 1.301 . S
C803 C89 1.059 . S
C808 C662 1.251 . S
C813 C110 1.384 . S
C818 C361 1.348 . S
C823 C61 1.082 1_556 S
C828 C368 1.272 . S
C833 C551 1.140 . S
C838 C117 1.092 . S
C843 C138 1.394 . S
C848 C278 1.340 . S
C853 C124 1.351 . S
C858 C627 1.309 . S
C863 C306 1.357 . S
C868 C152 1.390 . S
C873 C319 1.278 . S
C878 C159 1.085 . S
C883 C579 1.199 . S
C888 C180 1.316 . S
C893 C599 1.254 . S
C898 C187 1.046 . S
C903 C571 1.316 . S
C908 C208 1.359 . S
C913 C473 1.267 . S
C918 C221 1.299 . S
C923 C229 1.156 1_455 S
C928 C4 1.350 . S
C933 C249 1.322 . S
C938 C445 1.299 . S
C943 C32 1.296 . S
C948 C257 1.123 . S
C953 C270 1.207 . S
C958 C494 1.227 . S
C963 C95 1.353 . S
C968 C285 1.146 . S
C973 C298 1.278 . S
C978 C522 1.305 . S
C983 C67 1.355 . S
C988 C313 1.154 . S
C993 C543 1.255 . S
C998 C264 1.324 . S
C1003 C214 1.245 . S
C1008 C151 1.242 . S
C1013 C158 1.357 . S
C1018 C236 1.361 . S
C1023 C137 1.390 . S
C1028 C242 1.387 . S
C1033 C130 1.460 . S
C1038 C292 1.489 . S
C1043 C305 1.325 . S
C1048 C536 1.321 . S
C1053 C144 1.353 . S
C1058 C320 1.365 . S
C1063 C277 1.289 . S
C1068 C165 1.234 . S
C1073 C327 1.091 . S
C1078 C431 1.222 . S
C1083 C341 1.158 . S
C1088 C60 1.408 . S
C1093 C334 1.328 . S
C1098 C501 1.258 . S
C1103 C355 1.176 . S
C1108 C88 1.416 . S
C1113 C376 1.327 1_545 S
C1118 C109 1.271 . S
C1123 C459 1.203 . S
C1128 C383 1.075 . S
C1133 C404 1.456 . S
C1138 C466 1.441 . S
C1143 C418 1.451 . S
C1148 C438 1.435 . S
C1153 C425 1.079 . S
C1158 C256 1.248 . S
C1163 C446 1.324 . S
C1168 C558 1.301 . S
C1173 C228 1.269 . S
C1178 C453 1.098 . S
C1183 C474 1.355 . S
C1188 C586 1.330 . S
C1193 C488 1.336 . S
C1198 C284 1.333 . S
C1203 C635 1.211 . S
C1208 C495 1.075 . S
C1213 C516 1.292 . S
C1218 C312 1.291 . S
C1223 C607 1.234 . S
C1228 C523 1.099 . S
C1233 C333 1.255 . S
C1238 C467 1.061 . S
C1243 C410 1.298 . S
C1248 C432 1.312 1_554 S
C1253 C439 1.038 . S
C1258 C389 1.239 . S
C1263 C396 1.296 . S
C1268 C460 1.309 . S
C1273 C502 1.366 . S
C1278 C403 1.323 . S
C1283 C326 1.276 . S
C1288 C509 1.096 1_556 S
C1293 C530 1.356 . S
C1298 C417 1.320 . S
C1303 C481 1.086 . S
C1308 C382 1.280 . S
C1313 C537 1.067 . S
C1318 C215 1.157 . S
C1323 C194 1.399 . S
C1328 C614 1.353 . S
C1333 C291 1.327 . S
C1338 C544 1.371 . S
C1343 C642 1.311 . S
C1348 C201 1.090 . S
C1353 C655 1.266 . S
C1358 C173 1.071 . S
C1363 C166 1.298 . S
C1368 C243 1.182 . S
C1373 C131 1.056 . S
C1378 C263 1.265 . S
C1383 C235 1.270 . S
C1388 C145 1.065 . S
C1393 C557 1.367 . S
C1398 C53 1.325 . S
C1403 C424 1.345 . S
C1408 C565 1.143 . S
C1413 C585 1.316 . S
C1418 C25 1.292 . S
C1423 C593 1.094 1_655 S
C1428 C452 1.279 . S
C1433 C74 1.237 . S
C1438 C606 1.217 . S
C1443 C621 1.148 . S
C1448 C515 1.358 . S
C1453 C634 1.265 . S
C1458 C102 1.304 . S
C1463 C487 1.298 . S
C1468 C649 1.107 . S
C1473 C600 1.307 . S
C1478 C123 1.241 . S
C1483 C200 1.289 . S
C1488 C550 1.278 . S
C1493 C172 1.452 . S
C1498 C572 1.467 . S
C1503 C578 1.379 . S
C1508 C193 1.384 . S
C1513 C628 1.504 . S
C1518 C186 1.477 . S
C1523 C116 1.230 . S
C1528 C641 1.225 1_554 S
C1533 C207 1.264 . S
C1538 C656 1.338 . S
C1543 C613 1.305 . S
C1548 C179 1.245 . S
C1553 C11 1.216 . S
C1558 C663 1.087 . S
C1563 C397 1.152 . S
C1568 C480 1.397 . S
C1573 C81 1.261 . S
C1578 C670 1.333 . S
C1583 C508 1.395 . S
C1588 C411 1.152 . S
C1593 C529 1.273 . S
C1598 C390 1.338 . S
C1603 C369 1.076 . S
C1608 C39 1.207 . S
C1613 C348 1.472 . S
C1618 C46 1.457 . S
C1623 C18 1.457 . S
C1628 C362 1.471 . S
