# Generated by pormake.
# Topology sxb, (6)-cn, num edge types: 1
# Building blocks:
#     Node 0, Type 0, BuildingBlock: BETDIP_clean_sbu_0, # of connection points: 6
#     Node 1, Type 0, BuildingBlock: BETDIP_clean_sbu_0, # of connection points: 6
#     Node 2, Type 0, BuildingBlock: BETDIP_clean_sbu_0, # of connection points: 6
#     Node 3, Type 0, BuildingBlock: BETDIP_clean_sbu_0, # of connection points: 6
#     Edge 4, Type (0, 0), BuildingBlock: MIFKUJ_clean_linker_0, # of connection points: 2
#     Edge 5, Type (0, 0), BuildingBlock: MIFKUJ_clean_linker_0, # of connection points: 2
#     Edge 6, Type (0, 0), BuildingBlock: MIFKUJ_clean_linker_0, # of connection points: 2
#     Edge 7, Type (0, 0), BuildingBlock: MIFKUJ_clean_linker_0, # of connection points: 2
#     Edge 8, Type (0, 0), BuildingBlock: MIFKUJ_clean_linker_0, # of connection points: 2
#     Edge 9, Type (0, 0), BuildingBlock: MIFKUJ_clean_linker_0, # of connection points: 2
#     Edge 10, Type (0, 0), BuildingBlock: MIFKUJ_clean_linker_0, # of connection points: 2
#     Edge 11, Type (0, 0), BuildingBlock: MIFKUJ_clean_linker_0, # of connection points: 2
#     Edge 12, Type (0, 0), BuildingBlock: MIFKUJ_clean_linker_0, # of connection points: 2
#     Edge 13, Type (0, 0), BuildingBlock: MIFKUJ_clean_linker_0, # of connection points: 2
#     Edge 14, Type (0, 0), BuildingBlock: MIFKUJ_clean_linker_0, # of connection points: 2
#     Edge 15, Type (0, 0), BuildingBlock: MIFKUJ_clean_linker_0, # of connection points: 2
# Relax obj value: 0.285
# Max RMSD: 0.114
# Mean RMSD: 0.077
data_MOF--net-sxb--node1-BETDIP_clean_sbu_0--edge1-MIFKUJ_clean_linker_0
_symmetry_space_group_name_H-M    P1
_symmetry_Int_Tables_number       1
_symmetry_cell_setting            triclinic
loop_
_symmetry_equiv_pos_as_xyz
'x, y, z'
_cell_length_a     23.086144
_cell_length_b     44.000388
_cell_length_c     39.169615
_cell_angle_alpha  94.211137
_cell_angle_beta   94.137384
_cell_angle_gamma 74.233368
loop_
_atom_site_label
_atom_site_type_symbol
_atom_site_fract_x
_atom_site_fract_y
_atom_site_fract_z
_atom_type_partial_charge
Tb0 Tb 1.01025 1.01478 0.98627 0.0
Tb1 Tb 0.11122 0.03218 -0.00691 0.0
C2 C 0.90359 1.01501 -0.00856 0.0
C3 C 0.85243 0.04337 -0.00697 0.0
C4 C 0.85016 0.06702 0.01951 0.0
C5 C 0.80045 0.09332 0.0213 0.0
C6 C 0.75123 0.09572 -0.00253 0.0
C7 C 0.75793 0.07444 0.96832 0.0
C8 C 0.80771 0.04823 0.96644 0.0
C9 C 1.05407 1.01299 0.92501 0.0
C10 C 0.99736 0.09311 0.98944 0.0
C11 C 0.21827 0.03137 0.98842 0.0
C12 C 0.26869 1.00261 0.98723 0.0
C13 C 0.26912 0.9782 0.96181 0.0
C14 C 0.31754 0.95122 0.96063 0.0
C15 C 0.36776 0.94905 0.98367 0.0
C16 C 0.36295 0.97129 0.01194 0.0
C17 C 0.31415 0.99805 0.0134 0.0
C18 C 0.06594 0.0336 0.05404 0.0
C19 C 0.12454 0.95399 -0.00962 0.0
O20 O 0.94267 1.01164 0.01766 0.0
O21 O 0.92939 1.00907 0.96226 0.0
O22 O 1.051 0.03485 0.94848 0.0
O23 O 1.03408 0.9911 0.93638 0.0
O24 O 0.97144 0.06955 -0.00725 0.0
O25 O 1.05693 0.08327 0.98613 0.0
O26 O 0.17956 0.03492 0.962 0.0
O27 O 0.19201 0.0377 0.01744 0.0
O28 O 0.07043 1.0119 0.03043 0.0
O29 O 0.08755 0.05524 0.04347 0.0
O30 O 0.1501 0.97752 0.98648 0.0
O31 O 0.06506 0.96383 -0.00597 0.0
H32 H 0.88555 0.06472 0.03964 0.0
H33 H 0.79716 0.10962 0.04366 0.0
H34 H 0.72156 0.07556 0.94898 0.0
H35 H 0.80986 0.03101 0.94499 0.0
H36 H 0.2332 0.98034 0.94202 0.0
H37 H 0.31939 0.93423 0.93899 0.0
H38 H 0.40009 0.97034 0.03073 0.0
H39 H 0.31335 1.01586 0.03412 0.0
Tb40 Tb 0.08194 0.99161 0.48719 0.0
Tb41 Tb 1.04519 0.05225 0.49014 0.0
C42 C 0.10348 0.93349 0.49283 0.0
C43 C 0.06414 0.91461 0.50138 0.0
C44 C 1.04301 0.91661 0.5345 0.0
C45 C 0.99827 0.90219 0.54045 0.0
C46 C 0.97385 0.88642 0.51321 0.0
C47 C 0.99541 0.88406 0.4804 0.0
C48 C 1.04091 0.89766 0.47462 0.0
C49 C 0.08174 1.01334 0.42545 0.0
C50 C 0.92787 1.02045 0.48963 0.0
C51 C 1.00592 0.10901 0.4768 0.0
C52 C 1.03836 0.13342 0.47851 0.0
C53 C 0.06549 0.13834 0.44912 0.0
C54 C 0.10778 0.15566 0.45186 0.0
C55 C 0.12203 0.16895 0.48379 0.0
C56 C 0.09264 0.16575 0.5128 0.0
C57 C 1.05102 0.14798 0.51022 0.0
C58 C 0.07904 0.03292 0.55335 0.0
C59 C 0.19865 0.02392 0.49072 0.0
O60 O 0.11768 0.9526 0.51723 0.0
O61 O 0.08759 0.94708 0.46385 0.0
O62 O 1.04019 1.02111 0.44614 0.0
O63 O 0.12742 0.99439 0.44042 0.0
O64 O 0.9763 0.99442 0.48626 0.0
O65 O 0.94641 0.04729 0.49283 0.0
O66 O 1.02463 0.08616 0.45365 0.0
O67 O 0.99804 0.09838 0.50597 0.0
O68 O 1.04762 1.02134 0.53092 0.0
O69 O 0.09425 0.05546 0.53995 0.0
O70 O 0.14964 0.04889 0.48442 0.0
O71 O 0.18023 0.99813 0.49669 0.0
H72 H 1.06004 0.92971 0.55554 0.0
H73 H 0.9825 0.90344 0.56604 0.0
H74 H 0.97782 0.87112 0.45937 0.0
H75 H 1.05658 0.89582 0.44893 0.0
H76 H 1.05621 0.12753 0.4243 0.0
H77 H 0.12945 0.15864 0.42915 0.0
H78 H 0.10307 0.17633 0.53753 0.0
H79 H 1.03077 0.14463 0.53327 0.0
Tb80 Tb 0.51029 0.51403 -0.00825 0.0
Tb81 Tb 0.61616 0.53263 -0.00576 0.0
C82 C 0.41224 0.51496 0.01363 0.0
C83 C 0.35713 0.54068 0.00766 0.0
C84 C 0.34158 0.5663 0.032 0.0
C85 C 0.29233 0.59205 0.02551 0.0
C86 C 0.25571 0.59203 -0.00476 0.0
C87 C 0.27568 0.5681 0.96942 0.0
C88 C 0.32532 0.54259 0.97572 0.0
C89 C 0.52695 0.51965 0.92557 0.0
C90 C 0.49719 0.59189 0.98913 0.0
C91 C 0.72182 0.53276 0.98664 0.0
C92 C 0.77363 0.50456 0.98668 0.0
C93 C 0.7828 0.48222 0.95869 0.0
C94 C 0.83174 0.45539 0.95957 0.0
C95 C 0.87388 0.45107 0.98785 0.0
C96 C 0.85969 0.47149 0.01738 0.0
C97 C 0.81049 0.49795 0.0166 0.0
C98 C 0.57527 0.53334 0.05614 0.0
C99 C 0.62909 0.45403 -0.00784 0.0
O100 O 0.45412 0.52386 0.03277 0.0
O101 O 0.43376 0.49658 0.98689 0.0
O102 O 0.56056 0.52454 0.95132 0.0
O103 O 0.48377 0.5103 0.93683 0.0
O104 O 0.47184 0.56866 -0.0052 0.0
O105 O 0.55652 0.5823 0.98442 0.0
O106 O 0.68215 0.53431 0.96083 0.0
O107 O 0.69659 0.54061 0.0159 0.0
O108 O 0.5787 0.51182 0.0322 0.0
O109 O 0.59279 0.55607 0.0447 0.0
O110 O 0.65558 0.47784 -0.00892 0.0
O111 O 0.56883 0.46307 -0.00617 0.0
H112 H 0.36714 0.56633 0.05631 0.0
H113 H 0.27986 0.61062 0.04548 0.0
H114 H 0.25024 0.56742 0.94524 0.0
H115 H 0.33806 0.52411 0.95571 0.0
H116 H 0.75301 0.48567 0.93582 0.0
H117 H 0.83919 0.43946 0.93694 0.0
H118 H 0.88926 0.46908 0.04031 0.0
H119 H 0.80206 0.51371 0.03928 0.0
Tb120 Tb 0.57931 0.48794 0.49504 0.0
Tb121 Tb 0.53944 0.55911 0.48942 0.0
C122 C 0.60751 0.43637 0.52228 0.0
C123 C 0.57867 0.41072 0.51711 0.0
C124 C 0.5519 0.40265 0.54487 0.0
C125 C 0.51124 0.38442 0.53914 0.0
C126 C 0.49801 0.37375 0.50569 0.0
C127 C 0.5268 0.38051 0.47811 0.0
C128 C 0.56679 0.39906 0.48373 0.0
C129 C 0.55924 0.50044 0.42814 0.0
C130 C 0.42496 0.52215 0.4915 0.0
C131 C 0.51139 0.61172 0.46416 0.0
C132 C 0.54633 0.63474 0.46535 0.0
C133 C 0.5605 0.64426 0.43437 0.0
C134 C 0.60478 0.66021 0.43414 0.0
C135 C 0.63493 0.66693 0.46493 0.0
C136 C 0.61981 0.65801 0.49602 0.0
C137 C 0.5759 0.64189 0.49624 0.0
C138 C 0.56248 0.54483 0.55581 0.0
C139 C 0.69357 0.52491 0.49272 0.0
O140 O 0.57305 0.46222 0.53651 0.0
O141 O 0.63522 0.44178 0.49619 0.0
O142 O 0.55381 0.51918 0.45466 0.0
O143 O 0.5741 0.47231 0.43982 0.0
O144 O 0.47261 0.49563 0.49571 0.0
O145 O 0.44272 0.54898 0.48721 0.0
O146 O 0.53689 0.5854 0.44718 0.0
O147 O 0.49112 0.60697 0.49318 0.0
O148 O 0.56599 0.52755 0.52856 0.0
O149 O 0.54681 0.5734 0.54547 0.0
O150 O 0.64598 0.55131 0.4878 0.0
O151 O 0.67578 0.49828 0.49777 0.0
H152 H 0.5599 0.41192 0.57067 0.0
H153 H 0.48974 0.37889 0.56069 0.0
H154 H 0.51685 0.37229 0.45215 0.0
H155 H 0.58595 0.40544 0.46176 0.0
H156 H 0.53933 0.63804 0.41025 0.0
H157 H 0.61616 0.66686 0.40991 0.0
H158 H 0.64182 0.66356 0.52013 0.0
H159 H 0.56675 0.63408 0.52039 0.0
H160 H 0.50468 0.64274 0.94871 0.0
H161 H 0.44545 0.69752 0.94616 0.0
H162 H 0.34138 0.68526 0.02826 0.0
H163 H 0.39695 0.62903 0.02771 0.0
H164 H 0.2729 0.73244 0.01437 0.0
H165 H 0.47795 0.74446 0.00754 0.0
H166 H 0.57652 0.73385 0.98168 0.0
H167 H 0.48713 0.75857 0.88361 0.0
H168 H 0.38818 0.76914 0.90889 0.0
H169 H 0.11943 0.9036 0.03212 0.0
H170 H 0.17866 0.84871 0.0345 0.0
H171 H 0.27728 0.85998 0.94947 0.0
H172 H 0.22136 0.91618 0.94975 0.0
H173 H 0.34844 0.81351 0.96509 0.0
H174 H 0.14285 0.80247 0.97301 0.0
H175 H 1.04497 0.81335 -0.0003 0.0
H176 H 0.13648 0.78703 0.09686 0.0
H177 H 0.23476 0.7762 0.07077 0.0
C178 C 0.46948 0.65123 0.96664 0.0
C179 C 0.45873 0.62896 0.98865 0.0
C180 C 0.43469 0.68439 0.96581 0.0
C181 C 0.38707 0.69982 0.98827 0.0
C182 C 0.37627 0.67715 0.01015 0.0
C183 C 0.40956 0.6436 0.01001 0.0
C184 C 0.34893 0.73763 0.98878 0.0
C185 C 0.29137 0.74953 0.00362 0.0
C186 C 0.36685 0.76331 0.97498 0.0
C187 C 0.42595 0.75722 0.95997 0.0
C188 C 0.47948 0.74759 0.98047 0.0
C189 C 0.53534 0.74156 0.96591 0.0
C190 C 0.53807 0.74543 0.93101 0.0
C191 C 0.48496 0.75549 0.91061 0.0
C192 C 0.42902 0.76151 0.92502 0.0
C193 C 0.15337 0.89487 0.01349 0.0
C194 C 0.16267 0.91685 -0.0094 0.0
C195 C 0.18816 0.86169 0.0143 0.0
C196 C 0.23432 0.84602 -0.00893 0.0
C197 C 0.24362 0.86837 0.96827 0.0
C198 C 0.21025 0.9019 0.96831 0.0
C199 C 0.27249 0.80826 -0.00937 0.0
C200 C 0.33002 0.79638 0.97581 0.0
C201 C 0.25466 0.78263 0.00458 0.0
C202 C 0.1959 0.78887 0.02006 0.0
C203 C 0.14194 0.79904 6e-05 0.0
C204 C 0.08647 0.80523 0.01508 0.0
C205 C 0.08453 0.80097 0.04997 0.0
C206 C 0.13804 0.79039 0.06988 0.0
C207 C 0.1936 0.78422 0.055 0.0
H208 H 1.04156 0.80582 0.06155 0.0
H209 H 0.58133 0.7407 0.91978 0.0
H210 H 0.60219 0.39864 0.01502 0.0
H211 H 0.65994 0.34261 0.0152 0.0
H212 H 0.80441 0.36459 0.96791 0.0
H213 H 0.74704 0.42086 0.96864 0.0
H214 H 0.80718 0.30553 0.94037 0.0
H215 H 0.80684 0.33895 0.05844 0.0
H216 H 0.76508 0.36158 0.11368 0.0
H217 H 0.66561 0.29197 0.11216 0.0
H218 H 0.70623 0.26913 0.05656 0.0
H219 H 1.02175 0.14764 0.96259 0.0
H220 H 0.96473 0.20375 0.96253 0.0
H221 H 0.82668 0.18372 0.01771 0.0
H222 H 0.88391 0.12752 0.01745 0.0
H223 H 0.82032 0.24197 0.04109 0.0
H224 H 0.81822 0.20891 0.92318 0.0
H225 H 0.85739 0.18647 0.86723 0.0
H226 H 0.95849 0.25527 0.86772 0.0
H227 H 0.92048 0.27789 0.92394 0.0
C228 C 0.64635 0.3922 0.00463 0.0
C229 C 0.66749 0.41688 -0.00801 0.0
C230 C 0.68081 0.35893 0.00487 0.0
C231 C 0.73977 0.34645 -0.00823 0.0
C232 C 0.76044 0.37106 0.97855 0.0
C233 C 0.72655 0.4045 0.97911 0.0
C234 C 0.77827 0.30912 -0.00818 0.0
C235 C 0.81 0.29234 0.963 0.0
C236 C 0.7842 0.28878 0.02001 0.0
C237 C 0.75898 0.30258 0.05312 0.0
C238 C 0.77558 0.32866 0.0697 0.0
C239 C 0.75221 0.34149 0.10112 0.0
C240 C 0.71253 0.32832 0.11639 0.0
C241 C 0.69624 0.30221 0.10026 0.0
C242 C 0.71943 0.2893 0.06879 0.0
C243 C 0.97914 0.15454 0.97475 0.0
C244 C 0.9596 0.13038 0.98964 0.0
C245 C 0.94496 0.18788 0.97453 0.0
C246 C 0.88782 0.20094 0.98969 0.0
C247 C 0.86899 0.17683 0.00523 0.0
C248 C 0.90268 0.14338 0.00486 0.0
C249 C 0.84938 0.23832 0.98962 0.0
C250 C 0.8176 0.25513 0.01844 0.0
C251 C 0.84313 0.25865 0.96135 0.0
C252 C 0.86714 0.24482 0.92798 0.0
C253 C 0.8493 0.21905 0.91153 0.0
C254 C 0.87118 0.20634 0.87973 0.0
C255 C 0.91057 0.21937 0.86399 0.0
C256 C 0.9281 0.24516 0.88 0.0
C257 C 0.9064 0.25794 0.91183 0.0
H258 H 0.92738 0.20953 0.83934 0.0
H259 H 0.69455 0.33828 0.14075 0.0
H260 H 0.10061 0.22986 0.50561 0.0
H261 H 0.16997 0.26317 0.50638 0.0
H262 H 0.30939 0.18335 0.46885 0.0
H263 H 0.23928 0.14981 0.46743 0.0
H264 H 0.33398 0.22832 0.53223 0.0
H265 H 0.26898 0.22278 0.41248 0.0
H266 H 0.19392 0.22362 0.36421 0.0
H267 H 0.09729 0.31795 0.39687 0.0
H268 H 0.17147 0.3175 0.44561 0.0
H269 H 0.51904 0.3164 0.4728 0.0
H270 H 0.45212 0.28153 0.46724 0.0
H271 H 0.31559 0.3531 0.5193 0.0
H272 H 0.38273 0.38829 0.52529 0.0
H273 H 0.29288 0.31072 0.44674 0.0
H274 H 0.35016 0.31467 0.56903 0.0
H275 H 0.42408 0.31508 0.61762 0.0
H276 H 0.53283 0.22461 0.58111 0.0
H277 H 0.45998 0.22403 0.53183 0.0
C278 C 0.14625 0.21948 0.49789 0.0
C279 C 0.16526 0.18769 0.48643 0.0
C280 C 0.18542 0.23835 0.49823 0.0
C281 C 0.24388 0.22541 0.48745 0.0
C282 C 0.26398 0.19336 0.47709 0.0
C283 C 0.2243 0.17448 0.47621 0.0
C284 C 0.28269 0.24626 0.48636 0.0
C285 C 0.32601 0.24598 0.51325 0.0
C286 C 0.27021 0.2696 0.46203 0.0
C287 C 0.22543 0.26998 0.43284 0.0
C288 C 0.23138 0.24358 0.40955 0.0
C289 C 0.18911 0.24401 0.38206 0.0
C290 C 0.14078 0.27079 0.37752 0.0
C291 C 0.13472 0.29722 0.40043 0.0
C292 C 0.17692 0.2969 0.42796 0.0
C293 C 0.47437 0.32479 0.48253 0.0
C294 C 0.45564 0.35456 0.49967 0.0
C295 C 0.43657 0.30502 0.47939 0.0
C296 C 0.37981 0.31514 0.49302 0.0
C297 C 0.35958 0.34542 0.50868 0.0
C298 C 0.39777 0.36515 0.51227 0.0
C299 C 0.34373 0.29285 0.49268 0.0
C300 C 0.30106 0.2929 0.46555 0.0
C301 C 0.35647 0.26943 0.5169 0.0
C302 C 0.4002 0.26955 0.5465 0.0
C303 C 0.39026 0.29508 0.57111 0.0
C304 C 0.43185 0.2953 0.59883 0.0
C305 C 0.48327 0.26995 0.60237 0.0
C306 C 0.49307 0.24428 0.57826 0.0
C307 C 0.45166 0.24399 0.55043 0.0
H308 H 0.51539 0.27014 0.62387 0.0
H309 H 0.10811 0.2711 0.3562 0.0
H310 H 0.86048 0.89543 0.48525 0.0
H311 H 0.80406 0.85527 0.48 0.0
H312 H 0.93986 0.79591 0.54565 0.0
H313 H 0.99568 0.83623 0.55148 0.0
H314 H 0.91153 0.77136 0.47261 0.0
H315 H 0.82516 0.81731 0.5802 0.0
H316 H 0.77955 0.86519 0.61593 0.0
H317 H 0.631 0.89018 0.54183 0.0
H318 H 0.67563 0.84244 0.50546 0.0
H319 H 0.74598 0.65508 0.49824 0.0
H320 H 0.80967 0.69182 0.50667 0.0
H321 H 0.68492 0.75699 0.44128 0.0
H322 H 0.62096 0.72082 0.43296 0.0
H323 H 0.71175 0.77701 0.51586 0.0
H324 H 0.79267 0.73505 0.408 0.0
H325 H 0.84211 0.69558 0.36393 0.0
H326 H 1.00085 0.66837 0.43088 0.0
H327 H 0.95187 0.70739 0.47568 0.0
C328 C 0.87656 0.87434 0.49964 0.0
C329 C 0.93154 0.86856 0.51897 0.0
C330 C 0.84504 0.85147 0.49634 0.0
C331 C 0.86893 0.82286 0.51214 0.0
C332 C 0.92162 0.818 0.53329 0.0
C333 C 0.95266 0.84105 0.53701 0.0
C334 C 0.84053 0.79726 0.50478 0.0
C335 C 0.86853 0.77198 0.48256 0.0
C336 C 0.78379 0.79935 0.51702 0.0
C337 C 0.75367 0.8263 0.54019 0.0
C338 C 0.78246 0.8329 0.57164 0.0
C339 C 0.75681 0.86002 0.59196 0.0
C340 C 0.70215 0.88063 0.58117 0.0
C341 C 0.67289 0.87401 0.55019 0.0
C342 C 0.69825 0.84687 0.52977 0.0
C343 C 0.73302 0.67699 0.48517 0.0
C344 C 0.67871 0.68547 0.46515 0.0
C345 C 0.76937 0.69766 0.4898 0.0
C346 C 0.75143 0.72667 0.47438 0.0
C347 C 0.69904 0.73442 0.45303 0.0
C348 C 0.66296 0.71376 0.4482 0.0
C349 C 0.78306 0.75067 0.48388 0.0
C350 C 0.75542 0.77584 0.50643 0.0
C351 C 0.83985 0.74863 0.47148 0.0
C352 C 0.86821 0.72383 0.44544 0.0
C353 C 0.83769 0.72027 0.41362 0.0
C354 C 0.86585 0.69819 0.38836 0.0
C355 C 0.92474 0.67964 0.39451 0.0
C356 C 0.95537 0.68291 0.42608 0.0
C357 C 0.92738 0.70497 0.45144 0.0
H358 H 0.94645 0.66253 0.37494 0.0
H359 H 0.68254 0.90178 0.59677 0.0
H360 H 0.40408 0.95116 0.91973 0.0
H361 H 0.47291 0.98265 0.92282 0.0
H362 H 0.55368 0.94161 0.0178 0.0
H363 H 0.47376 0.91501 0.01784 0.0
H364 H 0.51266 0.9983 0.03188 0.0
H365 H 0.62631 0.94756 0.9336 0.0
H366 H 0.62778 0.9244 0.87427 0.0
H367 H 0.5279 1.01441 0.83784 0.0
H368 H 0.52476 0.03799 0.89693 0.0
H369 H 0.71298 0.09156 0.06034 0.0
H370 H 0.64378 0.06035 0.05572 0.0
H371 H 0.56544 0.10298 0.96109 0.0
H372 H 0.64595 0.12937 0.96253 0.0
H373 H 0.60306 0.04637 0.94635 0.0
H374 H 0.49028 0.09735 0.04431 0.0
H375 H 0.48938 0.12077 0.10352 0.0
H376 H 0.587 0.03058 0.14043 0.0
H377 H 0.58957 1.00673 0.08148 0.0
C378 C 0.43807 0.94745 0.9407 0.0
C379 C 0.42863 0.93466 0.97097 0.0
C380 C 0.47863 0.96577 0.94228 0.0
C381 C 0.51784 0.96591 0.97144 0.0
C382 C 0.52192 0.94328 -0.00418 0.0
C383 C 0.47738 0.92711 -0.0047 0.0
C384 C 0.5426 0.99357 0.9802 0.0
C385 C 0.53364 1.00835 0.01327 0.0
C386 C 0.56697 1.00796 0.95562 0.0
C387 C 0.57544 0.99456 0.91979 0.0
C388 C 0.60522 0.96249 0.91291 0.0
C389 C 0.60599 0.94924 0.87932 0.0
C390 C 0.57796 0.96792 0.85231 0.0
C391 C 0.54972 0.99998 0.85877 0.0
C392 C 0.54859 1.01333 0.8923 0.0
C393 C 0.67949 0.09569 0.03913 0.0
C394 C 0.68962 0.10914 0.00946 0.0
C395 C 0.63863 0.07755 0.03667 0.0
C396 C 0.59975 0.07806 0.00727 0.0
C397 C 0.59679 0.10088 0.9833 0.0
C398 C 0.64163 0.11693 0.98467 0.0
C399 C 0.57362 0.05094 -0.00188 0.0
C400 C 0.5821 0.03631 0.96496 0.0
C401 C 0.54868 0.03671 0.02259 0.0
C402 C 0.53992 0.05022 0.05838 0.0
C403 C 0.5109 0.08242 0.06509 0.0
C404 C 0.5105 0.09582 0.0986 0.0
C405 C 0.5381 0.07717 0.12571 0.0
C406 C 0.56549 0.04498 0.11943 0.0
C407 C 0.56624 0.03148 0.08598 0.0
H408 H 0.53832 0.08767 0.15157 0.0
H409 H 0.57808 0.95754 0.82639 0.0
H410 H 0.31488 0.97343 0.48787 0.0
H411 H 0.42074 0.9721 0.48595 0.0
H412 H 0.37445 0.07316 0.49281 0.0
H413 H 0.26679 0.0743 0.49246 0.0
H414 H 0.48179 0.07065 0.4811 0.0
H415 H 0.503 0.98088 0.55389 0.0
H416 H 0.48221 0.93049 0.56543 0.0
H417 H 0.54675 0.89042 0.46749 0.0
H418 H 0.56772 0.94063 0.45542 0.0
H419 H 0.8122 0.07062 0.49855 0.0
H420 H 0.70592 0.07169 0.49988 0.0
H421 H 0.75146 0.97121 0.48209 0.0
H422 H 0.85904 0.97017 0.48194 0.0
H423 H 0.64488 0.9734 0.49948 0.0
H424 H 0.63139 0.06225 0.42899 0.0
H425 H 0.64545 0.11372 0.41572 0.0
H426 H 0.56386 0.15631 0.5089 0.0
H427 H 0.54971 0.10502 0.52276 0.0
C428 C 0.32498 0.99612 0.48922 0.0
C429 C 0.27343 0.02398 0.49059 0.0
C430 C 0.39036 0.9954 0.4887 0.0
C431 C 0.41646 1.02244 0.49055 0.0
C432 C 0.36453 0.05044 0.49168 0.0
C433 C 0.29874 0.05118 0.49152 0.0
C434 C 0.49227 1.02179 0.49074 0.0
C435 C 0.51573 0.04869 0.48559 0.0
C436 C 0.54592 0.99487 0.49589 0.0
C437 C 0.53613 0.96447 0.50362 0.0
C438 C 0.51286 0.96124 0.53492 0.0
C439 C 0.50082 0.9328 0.54147 0.0
C440 C 0.51242 0.90741 0.51701 0.0
C441 C 0.53714 0.91022 0.48622 0.0
C442 C 0.54924 0.93861 0.47955 0.0
C443 C 0.80183 0.04802 0.49459 0.0
C444 C 0.85307 1.02031 0.48988 0.0
C445 C 0.73641 0.04866 0.49489 0.0
C446 C 0.71014 1.0217 0.49005 0.0
C447 C 0.7617 0.99385 0.48577 0.0
C448 C 0.82741 0.99318 0.48562 0.0
C449 C 0.63442 1.02233 0.48994 0.0
C450 C 0.61099 0.99541 0.49508 0.0
C451 C 0.58081 0.0493 0.48492 0.0
C452 C 0.59024 0.07982 0.47708 0.0
C453 C 0.61678 0.08259 0.44669 0.0
C454 C 0.62471 0.11171 0.43907 0.0
C455 C 0.60577 0.13823 0.46152 0.0
C456 C 0.57872 0.13572 0.4916 0.0
C457 C 0.57075 0.10665 0.49936 0.0
H458 H 0.6119 0.16076 0.45556 0.0
H459 H 0.50299 0.88543 0.5221 0.0
H460 H 0.96753 0.42182 0.0351 0.0
H461 H 1.04829 0.4483 0.03812 0.0
H462 H 1.01028 0.46714 0.93112 0.0
H463 H 0.93548 0.43842 0.92774 0.0
H464 H 0.10795 0.4768 0.94752 0.0
H465 H 0.90536 0.54446 0.01873 0.0
H466 H 0.84933 0.55 0.07125 0.0
H467 H 1.00853 0.49657 0.12517 0.0
H468 H 0.0663 0.49264 0.07368 0.0
H469 H 0.17266 0.61649 0.94123 0.0
H470 H 0.0878 0.59294 0.93535 0.0
H471 H 0.10573 0.58027 0.04421 0.0
H472 H 0.18314 0.60698 0.05025 0.0
H473 H 1.01587 0.56759 0.02638 0.0
H474 H 0.2216 0.50429 0.96058 0.0
H475 H 0.2832 0.49977 0.9104 0.0
H476 H 0.12475 0.54316 0.84899 0.0
H477 H 0.06218 0.54676 0.89844 0.0
C478 C 0.97875 0.43028 0.01182 0.0
C479 C 0.93819 0.43384 0.9828 0.0
C480 C 1.02335 0.44654 0.01401 0.0
C481 C 1.02937 0.46354 0.98611 0.0
C482 C 1.00359 0.45632 0.95397 0.0
C483 C 0.96047 0.43944 0.95206 0.0
C484 C 1.05157 0.49228 0.99022 0.0
C485 C 0.0887 0.4965 0.96528 0.0
C486 C 1.02555 0.51841 0.01278 0.0
C487 C 0.98924 0.51663 0.0418 0.0
C488 C 0.92796 0.53326 0.04157 0.0
C489 C 0.89615 0.53655 0.0713 0.0
C490 C 0.9249 0.52291 0.10124 0.0
C491 C 0.98594 0.50656 0.10176 0.0
C492 C 1.0183 0.50396 0.07238 0.0
C493 C 0.15573 0.61038 0.96414 0.0
C494 C 0.1903 0.60864 -0.00459 0.0
C495 C 0.10881 0.59567 0.96049 0.0
C496 C 0.09611 0.58078 0.98848 0.0
C497 C 0.11705 0.58945 0.02141 0.0
C498 C 0.16195 0.60518 0.02489 0.0
C499 C 0.07364 0.55201 0.98422 0.0
C500 C 1.03576 0.54785 0.00884 0.0
C501 C 0.09968 0.52579 0.96171 0.0
C502 C 0.1378 0.52721 0.93352 0.0
C503 C 0.20023 0.51342 0.93652 0.0
C504 C 0.23517 0.51068 0.90814 0.0
C505 C 0.20809 0.52173 0.87673 0.0
C506 C 0.14585 0.53506 0.87346 0.0
C507 C 0.11064 0.53734 0.90158 0.0
H508 H 0.23524 0.51961 0.85483 0.0
H509 H 0.90013 0.52543 0.12418 0.0
H510 H 0.35803 0.48051 0.5201 0.0
H511 H 0.25259 0.48111 0.52214 0.0
H512 H 0.1999 0.56351 0.46379 0.0
H513 H 0.30653 0.56392 0.46383 0.0
H514 H 0.09192 0.56434 0.46483 0.0
H515 H 0.17308 0.4475 0.47327 0.0
H516 H 0.24007 0.40009 0.49897 0.0
H517 H 0.19193 0.44031 0.59967 0.0
H518 H 0.12484 0.48807 0.57437 0.0
H519 H 0.76056 0.56567 0.46285 0.0
H520 H 0.86566 0.56501 0.46079 0.0
H521 H 0.91838 0.48408 0.52136 0.0
H522 H 0.8117 0.48378 0.52156 0.0
H523 H 1.02636 0.48229 0.5185 0.0
H524 H 0.94922 0.60336 0.50407 0.0
H525 H 0.87361 0.64493 0.47355 0.0
H526 H 0.91183 0.59107 0.37803 0.0
H527 H 0.98764 0.54918 0.40804 0.0
C528 C 0.32559 0.49928 0.50714 0.0
C529 C 0.34997 0.52203 0.49161 0.0
C530 C 0.26032 0.4995 0.50792 0.0
C531 C 0.20733 0.52188 0.49229 0.0
C532 C 0.23211 0.54463 0.47668 0.0
C533 C 0.2974 0.54489 0.47665 0.0
C534 C 0.13146 0.52214 0.49229 0.0
C535 C 0.08036 0.5457 0.47715 0.0
C536 C 0.10438 0.49941 0.50676 0.0
C537 C 0.14501 0.47137 0.52205 0.0
C538 C 0.17706 0.44618 0.50088 0.0
C539 C 0.21503 0.41929 0.51538 0.0
C540 C 0.22057 0.41723 0.55098 0.0
C541 C 0.18791 0.44202 0.57213 0.0
C542 C 0.15002 0.46902 0.55775 0.0
C543 C 0.79293 0.54721 0.47629 0.0
C544 C 0.76851 0.52492 0.49253 0.0
C545 C 0.85814 0.54692 0.47544 0.0
C546 C 0.91111 0.5249 0.49155 0.0
C547 C 0.88625 0.5026 0.50792 0.0
C548 C 0.82094 0.50242 0.5081 0.0
C549 C 0.98697 0.52464 0.49146 0.0
C550 C 1.03801 0.50109 0.50654 0.0
C551 C 1.01409 0.54704 0.47643 0.0
C552 C 0.97324 0.57318 0.45823 0.0
C553 C 0.94183 0.60064 0.47653 0.0
C554 C 0.8987 0.6241 0.45937 0.0
C555 C 0.88718 0.62037 0.424 0.0
C556 C 0.92025 0.5937 0.40548 0.0
C557 C 0.96331 0.57013 0.42251 0.0
H558 H 0.85273 0.63818 0.41094 0.0
H559 H 0.24998 0.39639 0.56217 0.0
H560 H 0.97754 0.02952 0.38354 0.0
H561 H 0.96894 0.03262 0.32073 0.0
H562 H 0.16247 1.00934 0.31876 0.0
H563 H 0.17116 1.00549 0.38114 0.0
H564 H 0.1051 0.05992 0.2784 0.0
H565 H 0.09036 0.9549 0.29476 0.0
H566 H 1.04646 0.91572 0.31724 0.0
H567 H 0.87702 0.95694 0.26419 0.0
H568 H 0.91963 0.99677 0.24186 0.0
H569 H 0.15738 0.02932 0.10293 0.0
H570 H 0.15534 0.02522 0.16472 0.0
H571 H 0.96785 0.02573 0.15255 0.0
H572 H 0.97134 0.02784 0.09006 0.0
H573 H 1.01332 0.98943 0.20088 0.0
H574 H 1.0247 0.09388 0.18379 0.0
H575 H 0.06468 0.13503 0.1623 0.0
H576 H 0.23367 0.09829 0.2179 0.0
H577 H 0.19501 0.05664 0.23932 0.0
C578 C 1.01822 0.02519 0.36971 0.0
C579 C 0.0751 1.01726 0.3875 0.0
C580 C 1.01329 0.0268 0.33368 0.0
C581 C 0.06508 1.02105 0.31459 0.0
C582 C 0.12172 1.01386 0.33257 0.0
C583 C 0.12667 1.01164 0.36837 0.0
C584 C 1.06096 1.02263 0.27606 0.0
C585 C 0.08553 0.04427 0.26148 0.0
C586 C 1.03363 1.00305 0.25364 0.0
C587 C 1.00799 0.97909 0.26698 0.0
C588 C 1.04355 0.95583 0.28817 0.0
C589 C 1.01894 0.93346 0.30084 0.0
C590 C 0.95893 0.9339 0.29225 0.0
C591 C 0.92346 0.95668 0.27089 0.0
C592 C 0.94782 0.97916 0.25822 0.0
C593 C 0.11585 0.02825 0.11339 0.0
C594 C 0.0646 0.02888 0.09147 0.0
C595 C 0.11439 0.02627 0.14899 0.0
C596 C 1.06088 0.02614 0.1642 0.0
C597 C 1.00984 0.02597 0.14205 0.0
C598 C 1.01177 0.02718 0.10617 0.0
C599 C 1.05852 0.02649 0.20292 0.0
C600 C 1.0326 1.00529 0.21764 0.0
C601 C 0.08386 0.04684 0.22563 0.0
C602 C 0.10711 0.07197 0.21291 0.0
C603 C 0.07051 0.09446 0.19126 0.0
C604 C 0.09293 0.11789 0.1791 0.0
C605 C 0.15172 0.11923 0.18866 0.0
C606 C 0.18817 0.0972 0.21047 0.0
C607 C 0.16601 0.07369 0.22265 0.0
H608 H 0.169 0.13737 0.17921 0.0
H609 H 0.93997 0.91655 0.30206 0.0
H610 H 1.01052 0.98067 0.87159 0.0
H611 H 1.01381 0.98504 0.81023 0.0
H612 H 0.11152 0.05581 0.83 0.0
H613 H 0.10472 0.0528 0.89213 0.0
H614 H 1.04025 0.07214 0.77736 0.0
H615 H 0.17686 0.97078 0.80186 0.0
H616 H 0.20522 0.91781 0.82514 0.0
H617 H 0.06829 0.89124 0.75909 0.0
H618 H 1.03861 0.94416 0.73573 0.0
H619 H 0.13106 0.06363 0.60551 0.0
H620 H 0.1287 0.06044 0.66753 0.0
H621 H 1.02418 0.99255 0.6504 0.0
H622 H 1.02779 0.9952 0.58817 0.0
H623 H 0.10064 0.97475 0.70163 0.0
H624 H 0.96268 0.07448 0.67752 0.0
H625 H 0.92977 0.12746 0.65437 0.0
H626 H 0.06478 0.15698 0.71929 0.0
H627 H 0.09904 0.10402 0.74251 0.0
C628 C 1.03288 0.99721 0.86306 0.0
C629 C 1.05778 1.01619 0.88719 0.0
C630 C 1.03528 0.9995 0.82757 0.0
C631 C 0.06469 1.02004 0.81458 0.0
C632 C 0.0889 0.03947 0.83874 0.0
C633 C 0.08523 0.0377 0.87447 0.0
C634 C 0.06953 1.02128 0.77612 0.0
C635 C 1.05455 0.05074 0.76106 0.0
C636 C 0.08633 0.99359 0.75385 0.0
C637 C 0.10529 0.9615 0.76721 0.0
C638 C 0.15273 0.95365 0.79237 0.0
C639 C 0.169 0.92365 0.80559 0.0
C640 C 0.13851 0.9012 0.79364 0.0
C641 C 0.09186 0.90865 0.76833 0.0
C642 C 0.07535 0.93863 0.75505 0.0
C643 C 0.10767 0.04792 0.61487 0.0
C644 C 0.0794 0.02979 0.5915 0.0
C645 C 0.10589 0.04627 0.65061 0.0
C646 C 0.07518 0.0267 0.66441 0.0
C647 C 1.04804 1.00803 0.641 0.0
C648 C 1.05001 1.00958 0.60518 0.0
C649 C 0.07163 0.02558 0.70295 0.0
C650 C 0.08673 0.99614 0.71799 0.0
C651 C 1.05465 0.05325 0.72515 0.0
C652 C 1.03382 0.08519 0.71148 0.0
C653 C 0.98561 0.09221 0.68669 0.0
C654 C 0.96668 0.12224 0.67358 0.0
C655 C 0.99528 0.14554 0.68528 0.0
C656 C 1.04273 0.13889 0.71021 0.0
C657 C 0.06189 0.10888 0.72338 0.0
H658 H 0.98059 0.16877 0.67507 0.0
H659 H 0.15108 0.87801 0.80397 0.0
H660 H 0.56721 0.5539 0.39524 0.0
H661 H 0.56473 0.56107 0.33368 0.0
H662 H 0.54249 0.46738 0.31212 0.0
H663 H 0.54419 0.46047 0.37362 0.0
H664 H 0.62089 0.47408 0.2712 0.0
H665 H 0.42534 0.54062 0.29904 0.0
H666 H 0.35281 0.58423 0.32914 0.0
H667 H 0.43661 0.65122 0.29376 0.0
H668 H 0.51021 0.60795 0.26384 0.0
H669 H 0.55843 0.48274 0.08943 0.0
H670 H 0.55117 0.47853 0.1512 0.0
H671 H 0.56942 0.57325 0.17075 0.0
H672 H 0.57557 0.5776 0.10924 0.0
H673 H 0.49259 0.56696 0.21267 0.0
H674 H 0.68853 0.50322 0.18711 0.0
H675 H 0.76379 0.46135 0.15659 0.0
H676 H 0.68368 0.39121 0.18794 0.0
H677 H 0.6074 0.43277 0.21835 0.0
C678 C 0.55966 0.53522 0.37765 0.0
C679 C 0.554 0.50695 0.39019 0.0
C680 C 0.55885 0.5392 0.34193 0.0
C681 C 0.55258 0.51498 0.31724 0.0
C682 C 0.54728 0.48671 0.32988 0.0
C683 C 0.54797 0.48281 0.36544 0.0
C684 C 0.55345 0.51835 0.27862 0.0
C685 C 0.59193 0.49427 0.25856 0.0
C686 C 0.51758 0.545 0.26127 0.0
C687 C 0.47374 0.57098 0.27953 0.0
C688 C 0.42867 0.56461 0.29795 0.0
C689 C 0.38729 0.58928 0.31493 0.0
C690 C 0.39022 0.62046 0.31346 0.0
C691 C 0.43448 0.62705 0.29495 0.0
C692 C 0.47602 0.60246 0.27797 0.0
C693 C 0.56068 0.50273 0.10684 0.0
C694 C 0.56801 0.53046 0.0939 0.0
C695 C 0.55691 0.50027 0.1425 0.0
C696 C 0.56067 0.52537 0.16663 0.0
C697 C 0.56643 0.55332 0.15342 0.0
C698 C 0.5702 0.55576 0.1179 0.0
C699 C 0.55955 0.52254 0.20532 0.0
C700 C 0.5213 0.54673 0.22536 0.0
C701 C 0.59611 0.49621 0.22278 0.0
C702 C 0.64195 0.47112 0.20474 0.0
C703 C 0.68673 0.47889 0.18732 0.0
C704 C 0.72958 0.45522 0.17007 0.0
C705 C 0.72845 0.42366 0.1703 0.0
C706 C 0.68445 0.41568 0.18779 0.0
C707 C 0.64143 0.43928 0.20506 0.0
H708 H 0.76184 0.40538 0.15705 0.0
H709 H 0.35809 0.63952 0.32658 0.0
H710 H 0.63275 0.5626 0.60882 0.0
H711 H 0.63379 0.55415 0.67034 0.0
H712 H 0.50136 0.50178 0.64914 0.0
H713 H 0.50267 0.50882 0.58727 0.0
H714 H 0.47685 0.55812 0.70494 0.0
H715 H 0.61595 0.45951 0.67327 0.0
H716 H 0.70611 0.42452 0.64729 0.0
H717 H 0.81947 0.46874 0.71367 0.0
H718 H 0.72978 0.5044 0.73969 0.0
H719 H 0.45392 0.50876 0.87066 0.0
H720 H 0.46642 0.50983 0.80942 0.0
H721 H 0.63472 0.53363 0.83189 0.0
H722 H 0.62233 0.53236 0.89387 0.0
H723 H 0.64414 0.49127 0.77514 0.0
H724 H 0.50699 0.59021 0.80617 0.0
H725 H 0.4178 0.62541 0.83294 0.0
H726 H 0.30217 0.58158 0.76782 0.0
H727 H 0.39084 0.54582 0.74094 0.0
C728 C 0.60487 0.54862 0.61713 0.0
C729 C 0.56844 0.53596 0.59275 0.0
C730 C 0.6053 0.54389 0.65251 0.0
C731 C 0.56761 0.52731 0.66499 0.0
C732 C 0.53119 0.51455 0.64061 0.0
C733 C 0.53229 0.51838 0.60503 0.0
C734 C 0.5642 0.52481 0.70335 0.0
C735 C 0.5132 0.5431 0.72007 0.0
C736 C 0.61202 0.50605 0.7239 0.0
C737 C 0.66605 0.48497 0.70807 0.0
C738 C 0.66002 0.4621 0.68201 0.0
C739 C 0.71107 0.44205 0.66736 0.0
C740 C 0.76848 0.44449 0.67872 0.0
C741 C 0.77495 0.46694 0.70483 0.0
C742 C 0.72401 0.48707 0.71954 0.0
C743 C 0.49374 0.51431 0.86281 0.0
C744 C 0.53674 0.52074 0.88777 0.0
C745 C 0.50084 0.51498 0.82741 0.0
C746 C 0.55126 0.52221 0.81519 0.0
C747 C 0.59518 0.52802 0.84004 0.0
C748 C 0.5879 0.52747 0.87573 0.0
C749 C 0.5564 0.52445 0.77678 0.0
C750 C 0.60776 0.50628 0.76005 0.0
C751 C 0.50902 0.54346 0.7561 0.0
C752 C 0.45554 0.56519 0.77174 0.0
C753 C 0.46255 0.58797 0.79768 0.0
C754 C 0.4121 0.60804 0.81286 0.0
C755 C 0.35436 0.60569 0.80214 0.0
C756 C 0.34694 0.58335 0.77611 0.0
C757 C 0.39727 0.56321 0.76086 0.0
H758 H 0.31535 0.62122 0.81394 0.0
H759 H 0.80796 0.42892 0.66739 0.0
loop_
_geom_bond_atom_site_label_1
_geom_bond_atom_site_label_2
_geom_bond_distance
_geom_bond_site_symmetry_2
_ccdc_geom_bond_type
Tb0 C2 2.809 . S
Tb0 O20 2.484 1_566 S
Tb0 O21 2.440 . S
Tb0 O22 2.658 1_655 S
Tb0 O23 2.409 . S
Tb0 O24 2.378 1_565 S
Tb0 O28 2.325 1_566 S
Tb0 O31 2.341 1_655 S
Tb1 C11 2.809 . S
Tb1 O22 2.325 1_544 S
Tb1 O25 2.341 1_455 S
Tb1 O26 2.484 1_544 S
Tb1 O27 2.440 . S
Tb1 O28 2.658 1_455 S
Tb1 O29 2.409 . S
Tb1 O30 2.378 1_545 S
C2 Tb0 2.809 . S
C2 C3 1.517 1_565 S
C2 O20 1.248 1_566 S
C2 O21 1.266 . S
C3 C2 1.517 1_545 S
C3 C4 1.333 1_556 S
C3 C8 1.370 . S
C4 C3 1.333 1_554 S
C4 C5 1.380 . S
C4 H32 0.929 . S
C5 C4 1.380 . S
C5 C6 1.347 . S
C5 H33 0.931 . S
C6 C5 1.347 . S
C6 C7 1.369 1_554 S
C7 C6 1.369 1_556 S
C7 C8 1.408 . S
C7 H34 0.930 . S
C8 C3 1.370 . S
C8 C7 1.408 . S
C8 H35 0.930 . S
C9 O22 1.281 1_655 S
C9 O23 1.254 . S
C10 O24 1.236 . S
C10 O25 1.266 1_556 S
C11 Tb1 2.809 . S
C11 C12 1.514 1_545 S
C11 O26 1.248 1_544 S
C11 O27 1.266 . S
C12 C11 1.514 1_565 S
C12 C13 1.359 1_554 S
C12 C17 1.348 . S
C13 C12 1.359 1_556 S
C13 C14 1.380 . S
C13 H36 0.929 . S
C14 C13 1.380 . S
C14 C15 1.347 . S
C14 H37 0.931 . S
C15 C14 1.347 . S
C15 C16 1.369 1_556 S
C16 C15 1.369 1_554 S
C16 C17 1.408 . S
C16 H38 0.930 . S
C17 C12 1.348 . S
C17 C16 1.408 . S
C17 H39 0.935 . S
C18 O28 1.281 1_455 S
C18 O29 1.254 . S
C19 O30 1.236 . S
C19 O31 1.266 1_554 S
O20 Tb0 2.484 1_544 S
O20 C2 1.248 1_544 S
O21 Tb0 2.440 . S
O21 C2 1.266 . S
O22 Tb0 2.658 1_455 S
O22 Tb1 2.325 1_566 S
O22 C9 1.281 1_455 S
O23 Tb0 2.409 . S
O23 C9 1.254 . S
O24 Tb0 2.378 1_545 S
O24 C10 1.236 . S
O25 Tb1 2.341 1_655 S
O25 C10 1.266 1_554 S
O26 Tb1 2.484 1_566 S
O26 C11 1.248 1_566 S
O27 Tb1 2.440 . S
O27 C11 1.266 . S
O28 Tb0 2.325 1_544 S
O28 Tb1 2.658 1_655 S
O28 C18 1.281 1_655 S
O29 Tb1 2.409 . S
O29 C18 1.254 . S
O30 Tb1 2.378 1_565 S
O30 C19 1.236 . S
O31 Tb0 2.341 1_455 S
O31 C19 1.266 1_556 S
H32 C4 0.929 . S
H33 C5 0.931 . S
H34 C7 0.930 . S
H35 C8 0.930 . S
H36 C13 0.929 . S
H37 C14 0.931 . S
H38 C16 0.930 . S
H39 C17 0.935 . S
Tb40 C42 2.809 1_455 S
Tb40 O60 2.484 1_455 S
Tb40 O61 2.440 1_455 S
Tb40 O62 2.658 1_565 S
Tb40 O63 2.409 . S
Tb40 O64 2.378 1_455 S
Tb40 O68 2.325 1_455 S
Tb40 O71 2.341 . S
Tb41 C51 2.809 1_655 S
Tb41 O62 2.325 1_655 S
Tb41 O65 2.341 . S
Tb41 O66 2.484 1_655 S
Tb41 O67 2.440 1_655 S
Tb41 O68 2.658 1_545 S
Tb41 O69 2.409 . S
Tb41 O70 2.378 1_655 S
C42 Tb40 2.809 1_655 S
C42 C43 1.514 . S
C42 O60 1.248 . S
C42 O61 1.266 . S
C43 C42 1.514 . S
C43 C44 1.359 . S
C43 C48 1.348 . S
C44 C43 1.359 . S
C44 C45 1.380 . S
C44 H72 0.929 . S
C45 C44 1.380 . S
C45 C46 1.347 . S
C45 H73 0.931 . S
C46 C45 1.347 . S
C46 C47 1.369 . S
C47 C46 1.369 . S
C47 C48 1.408 . S
C47 H74 0.930 . S
C48 C43 1.348 . S
C48 C47 1.408 . S
C48 H75 0.930 . S
C49 O62 1.284 1_565 S
C49 O63 1.251 . S
C50 O64 1.236 1_545 S
C50 O65 1.266 . S
C51 Tb41 2.809 1_455 S
C51 C52 1.514 . S
C51 O66 1.248 . S
C51 O67 1.266 . S
C52 C51 1.514 . S
C52 C53 1.359 . S
C52 C57 1.348 . S
C53 C52 1.359 . S
C53 C54 1.380 . S
C53 H76 0.929 . S
C54 C53 1.380 . S
C54 C55 1.347 . S
C54 H77 0.931 . S
C55 C54 1.347 . S
C55 C56 1.369 . S
C56 C55 1.369 . S
C56 C57 1.408 . S
C56 H78 0.930 . S
C57 C52 1.348 . S
C57 C56 1.408 . S
C57 H79 0.930 . S
C58 O68 1.283 1_545 S
C58 O69 1.251 . S
C59 O70 1.236 1_565 S
C59 O71 1.266 . S
O60 Tb40 2.484 1_655 S
O60 C42 1.248 . S
O61 Tb40 2.440 1_655 S
O61 C42 1.266 . S
O62 Tb40 2.658 1_545 S
O62 Tb41 2.325 1_455 S
O62 C49 1.284 1_545 S
O63 Tb40 2.409 . S
O63 C49 1.251 . S
O64 Tb40 2.378 1_655 S
O64 C50 1.236 1_565 S
O65 Tb41 2.341 . S
O65 C50 1.266 . S
O66 Tb41 2.484 1_455 S
O66 C51 1.248 . S
O67 Tb41 2.440 1_455 S
O67 C51 1.266 . S
O68 Tb40 2.325 1_655 S
O68 Tb41 2.658 1_565 S
O68 C58 1.283 1_565 S
O69 Tb41 2.409 . S
O69 C58 1.251 . S
O70 Tb41 2.378 1_455 S
O70 C59 1.236 1_545 S
O71 Tb40 2.341 . S
O71 C59 1.266 . S
H72 C44 0.929 . S
H73 C45 0.931 . S
H74 C47 0.930 . S
H75 C48 0.930 . S
H76 C53 0.929 . S
H77 C54 0.931 . S
H78 C56 0.930 . S
H79 C57 0.930 . S
Tb80 C82 2.809 . S
Tb80 O100 2.484 1_556 S
Tb80 O101 2.440 . S
Tb80 O102 2.658 . S
Tb80 O103 2.409 . S
Tb80 O104 2.378 . S
Tb80 O108 2.325 1_556 S
Tb80 O111 2.341 . S
Tb81 C91 2.809 . S
Tb81 O102 2.325 1_554 S
Tb81 O105 2.341 . S
Tb81 O106 2.484 1_554 S
Tb81 O107 2.440 . S
Tb81 O108 2.658 . S
Tb81 O109 2.409 . S
Tb81 O110 2.378 . S
C82 Tb80 2.809 . S
C82 C83 1.517 . S
C82 O100 1.248 1_556 S
C82 O101 1.266 . S
C83 C82 1.517 . S
C83 C84 1.333 1_556 S
C83 C88 1.370 . S
C84 C83 1.333 1_554 S
C84 C85 1.380 . S
C84 H112 0.929 . S
C85 C84 1.380 . S
C85 C86 1.347 . S
C85 H113 0.931 . S
C86 C85 1.347 . S
C86 C87 1.369 1_554 S
C87 C86 1.369 1_556 S
C87 C88 1.408 . S
C87 H114 0.930 . S
C88 C83 1.370 . S
C88 C87 1.408 . S
C88 H115 0.930 . S
C89 O102 1.281 . S
C89 O103 1.254 . S
C90 O104 1.236 . S
C90 O105 1.266 1_556 S
C91 Tb81 2.809 . S
C91 C92 1.514 . S
C91 O106 1.248 1_554 S
C91 O107 1.266 . S
C92 C91 1.514 . S
C92 C93 1.359 1_554 S
C92 C97 1.348 . S
C93 C92 1.359 1_556 S
C93 C94 1.380 . S
C93 H116 0.929 . S
C94 C93 1.380 . S
C94 C95 1.347 . S
C94 H117 0.931 . S
C95 C94 1.347 . S
C95 C96 1.369 1_556 S
C96 C95 1.369 1_554 S
C96 C97 1.408 . S
C96 H118 0.930 . S
C97 C92 1.348 . S
C97 C96 1.408 . S
C97 H119 0.930 . S
C98 O108 1.281 . S
C98 O109 1.254 . S
C99 O110 1.236 . S
C99 O111 1.266 1_554 S
O100 Tb80 2.484 1_554 S
O100 C82 1.248 1_554 S
O101 Tb80 2.440 . S
O101 C82 1.266 . S
O102 Tb80 2.658 . S
O102 Tb81 2.325 1_556 S
O102 C89 1.281 . S
O103 Tb80 2.409 . S
O103 C89 1.254 . S
O104 Tb80 2.378 . S
O104 C90 1.236 . S
O105 Tb81 2.341 . S
O105 C90 1.266 1_554 S
O106 Tb81 2.484 1_556 S
O106 C91 1.248 1_556 S
O107 Tb81 2.440 . S
O107 C91 1.266 . S
O108 Tb80 2.325 1_554 S
O108 Tb81 2.658 . S
O108 C98 1.281 . S
O109 Tb81 2.409 . S
O109 C98 1.254 . S
O110 Tb81 2.378 . S
O110 C99 1.236 . S
O111 Tb80 2.341 . S
O111 C99 1.266 1_556 S
H112 C84 0.929 . S
H113 C85 0.931 . S
H114 C87 0.930 . S
H115 C88 0.930 . S
H116 C93 0.929 . S
H117 C94 0.931 . S
H118 C96 0.930 . S
H119 C97 0.930 . S
Tb120 C122 2.809 . S
Tb120 O140 2.484 . S
Tb120 O141 2.440 . S
Tb120 O142 2.658 . S
Tb120 O143 2.409 . S
Tb120 O144 2.378 . S
Tb120 O148 2.325 . S
Tb120 O151 2.341 . S
Tb121 C131 2.809 . S
Tb121 O142 2.325 . S
Tb121 O145 2.341 . S
Tb121 O146 2.484 . S
Tb121 O147 2.440 . S
Tb121 O148 2.658 . S
Tb121 O149 2.409 . S
Tb121 O150 2.378 . S
C122 Tb120 2.809 . S
C122 C123 1.514 . S
C122 O140 1.248 . S
C122 O141 1.266 . S
C123 C122 1.514 . S
C123 C124 1.359 . S
C123 C128 1.348 . S
C124 C123 1.359 . S
C124 C125 1.380 . S
C124 H152 0.929 . S
C125 C124 1.380 . S
C125 C126 1.347 . S
C125 H153 0.931 . S
C126 C125 1.347 . S
C126 C127 1.369 . S
C127 C126 1.369 . S
C127 C128 1.408 . S
C127 H154 0.930 . S
C128 C123 1.348 . S
C128 C127 1.408 . S
C128 H155 0.930 . S
C129 O142 1.281 . S
C129 O143 1.254 . S
C130 O144 1.236 . S
C130 O145 1.266 . S
C131 Tb121 2.809 . S
C131 C132 1.514 . S
C131 O146 1.248 . S
C131 O147 1.266 . S
C132 C131 1.514 . S
C132 C133 1.359 . S
C132 C137 1.348 . S
C133 C132 1.359 . S
C133 C134 1.380 . S
C133 H156 0.929 . S
C134 C133 1.380 . S
C134 C135 1.347 . S
C134 H157 0.931 . S
C135 C134 1.347 . S
C135 C136 1.369 . S
C136 C135 1.369 . S
C136 C137 1.408 . S
C136 H158 0.930 . S
C137 C132 1.348 . S
C137 C136 1.408 . S
C137 H159 0.930 . S
C138 O148 1.281 . S
C138 O149 1.254 . S
C139 O150 1.236 . S
C139 O151 1.266 . S
O140 Tb120 2.484 . S
O140 C122 1.248 . S
O141 Tb120 2.440 . S
O141 C122 1.266 . S
O142 Tb120 2.658 . S
O142 Tb121 2.325 . S
O142 C129 1.281 . S
O143 Tb120 2.409 . S
O143 C129 1.254 . S
O144 Tb120 2.378 . S
O144 C130 1.236 . S
O145 Tb121 2.341 . S
O145 C130 1.266 . S
O146 Tb121 2.484 . S
O146 C131 1.248 . S
O147 Tb121 2.440 . S
O147 C131 1.266 . S
O148 Tb120 2.325 . S
O148 Tb121 2.658 . S
O148 C138 1.281 . S
O149 Tb121 2.409 . S
O149 C138 1.254 . S
O150 Tb121 2.378 . S
O150 C139 1.236 . S
O151 Tb120 2.341 . S
O151 C139 1.266 . S
H152 C124 0.929 . S
H153 C125 0.931 . S
H154 C127 0.930 . S
H155 C128 0.930 . S
H156 C133 0.929 . S
H157 C134 0.931 . S
H158 C136 0.930 . S
H159 C137 0.930 . S
H160 C178 0.951 . S
H161 C180 0.951 . S
H162 C182 0.950 . S
H163 C183 0.950 . S
H164 C185 0.950 . S
H165 C188 0.950 1_554 S
H166 C189 0.950 . S
H167 C191 0.950 . S
H168 C192 0.950 . S
H169 C193 0.951 . S
H170 C195 0.951 . S
H171 C197 0.950 . S
H172 C198 0.950 . S
H173 C200 0.950 . S
H174 C203 0.950 1_556 S
H175 C204 0.950 . S
H176 C206 0.950 . S
H177 C207 0.950 . S
C178 H160 0.951 . S
C178 C179 1.360 1_556 S
C178 C180 1.388 . S
C179 C178 1.360 1_554 S
C179 C183 1.391 . S
C180 H161 0.951 . S
C180 C178 1.388 . S
C180 C181 1.351 1_556 S
C181 C180 1.351 1_554 S
C181 C182 1.429 . S
C181 C184 1.499 . S
C182 H162 0.950 . S
C182 C181 1.429 . S
C182 C183 1.374 . S
C183 H163 0.950 . S
C183 C179 1.391 . S
C183 C182 1.374 . S
C184 C181 1.499 . S
C184 C185 1.373 . S
C184 C186 1.389 1_554 S
C185 H164 0.950 . S
C185 C184 1.373 . S
C185 C201 1.377 . S
C186 C184 1.389 1_556 S
C186 C187 1.524 . S
C186 C200 1.377 . S
C187 C186 1.524 . S
C187 C188 1.397 . S
C187 C192 1.363 . S
C188 H165 0.950 1_556 S
C188 C187 1.397 . S
C188 C189 1.334 . S
C189 H166 0.950 . S
C189 C188 1.334 . S
C189 C190 1.287 . S
C190 C189 1.287 . S
C190 C191 1.524 . S
C190 H209 0.913 . S
C191 H167 0.950 . S
C191 C190 1.524 . S
C191 C192 1.415 . S
C192 H168 0.950 . S
C192 C187 1.363 . S
C192 C191 1.415 . S
C193 H169 0.951 . S
C193 C194 1.366 1_554 S
C193 C195 1.388 . S
C194 C193 1.366 1_556 S
C194 C198 1.384 . S
C195 H170 0.951 . S
C195 C193 1.388 . S
C195 C196 1.357 1_554 S
C196 C195 1.357 1_556 S
C196 C197 1.423 . S
C196 C199 1.499 . S
C197 H171 0.950 . S
C197 C196 1.423 . S
C197 C198 1.374 . S
C198 H172 0.950 . S
C198 C194 1.384 . S
C198 C197 1.374 . S
C199 C196 1.499 . S
C199 C200 1.373 . S
C199 C201 1.389 1_556 S
C200 H173 0.950 . S
C200 C186 1.377 . S
C200 C199 1.373 . S
C201 C185 1.377 . S
C201 C199 1.389 1_554 S
C201 C202 1.524 . S
C202 C201 1.524 . S
C202 C203 1.397 . S
C202 C207 1.363 . S
C203 H174 0.950 1_554 S
C203 C202 1.397 . S
C203 C204 1.334 . S
C204 H175 0.950 . S
C204 C203 1.334 . S
C204 C205 1.287 . S
C205 C204 1.287 . S
C205 C206 1.524 . S
C205 H208 0.999 . S
C206 H176 0.950 . S
C206 C205 1.524 . S
C206 C207 1.415 . S
C207 H177 0.950 . S
C207 C202 1.363 . S
C207 C206 1.415 . S
H208 C205 0.999 . S
H209 C190 0.913 . S
H210 C228 0.951 . S
H211 C230 0.951 . S
H212 C232 0.950 . S
H213 C233 0.950 . S
H214 C235 0.950 . S
H215 C238 0.950 . S
H216 C239 0.950 . S
H217 C241 0.950 . S
H218 C242 0.950 . S
H219 C243 0.951 . S
H220 C245 0.951 . S
H221 C247 0.950 . S
H222 C248 0.950 . S
H223 C250 0.950 . S
H224 C253 0.950 . S
H225 C254 0.950 . S
H226 C256 0.950 . S
H227 C257 0.950 . S
C228 H210 0.951 . S
C228 C229 1.365 1_554 S
C228 C230 1.388 . S
C229 C228 1.365 1_556 S
C229 C233 1.385 . S
C230 H211 0.951 . S
C230 C228 1.388 . S
C230 C231 1.366 . S
C231 C230 1.366 . S
C231 C232 1.414 1_554 S
C231 C234 1.499 . S
C232 H212 0.950 . S
C232 C231 1.414 1_556 S
C232 C233 1.374 . S
C233 H213 0.950 . S
C233 C229 1.385 . S
C233 C232 1.374 . S
C234 C231 1.499 . S
C234 C235 1.373 1_554 S
C234 C236 1.389 . S
C235 H214 0.950 . S
C235 C234 1.373 1_556 S
C235 C251 1.377 . S
C236 C234 1.389 . S
C236 C237 1.524 . S
C236 C250 1.377 . S
C237 C236 1.524 . S
C237 C238 1.397 . S
C237 C242 1.363 . S
C238 H215 0.950 . S
C238 C237 1.397 . S
C238 C239 1.334 . S
C239 H216 0.950 . S
C239 C238 1.334 . S
C239 C240 1.287 . S
C240 C239 1.287 . S
C240 C241 1.524 . S
C240 H259 0.913 . S
C241 H217 0.950 . S
C241 C240 1.524 . S
C241 C242 1.415 . S
C242 H218 0.950 . S
C242 C237 1.363 . S
C242 C241 1.415 . S
C243 H219 0.951 . S
C243 C244 1.362 1_556 S
C243 C245 1.388 . S
C244 C243 1.362 1_554 S
C244 C248 1.387 . S
C245 H220 0.951 . S
C245 C243 1.388 . S
C245 C246 1.366 . S
C246 C245 1.366 . S
C246 C247 1.414 1_556 S
C246 C249 1.499 . S
C247 H221 0.950 . S
C247 C246 1.414 1_554 S
C247 C248 1.374 . S
C248 H222 0.950 . S
C248 C244 1.387 . S
C248 C247 1.374 . S
C249 C246 1.499 . S
C249 C250 1.373 1_556 S
C249 C251 1.389 . S
C250 H223 0.950 . S
C250 C236 1.377 . S
C250 C249 1.373 1_554 S
C251 C235 1.377 . S
C251 C249 1.389 . S
C251 C252 1.524 . S
C252 C251 1.524 . S
C252 C253 1.397 . S
C252 C257 1.363 . S
C253 H224 0.950 . S
C253 C252 1.397 . S
C253 C254 1.334 . S
C254 H225 0.950 . S
C254 C253 1.334 . S
C254 C255 1.287 . S
C255 C254 1.287 . S
C255 C256 1.524 . S
C255 H258 0.999 . S
C256 H226 0.950 . S
C256 C255 1.524 . S
C256 C257 1.415 . S
C257 H227 0.950 . S
C257 C252 1.363 . S
C257 C256 1.415 . S
H258 C255 0.999 . S
H259 C240 0.913 . S
H260 C278 0.951 . S
H261 C280 0.951 . S
H262 C282 0.950 . S
H263 C283 0.950 . S
H264 C285 0.950 . S
H265 C288 0.950 . S
H266 C289 0.950 . S
H267 C291 0.950 . S
H268 C292 0.950 . S
H269 C293 0.951 . S
H270 C295 0.951 . S
H271 C297 0.950 . S
H272 C298 0.950 . S
H273 C300 0.950 . S
H274 C303 0.950 . S
H275 C304 0.950 . S
H276 C306 0.950 . S
H277 C307 0.950 . S
C278 H260 0.951 . S
C278 C279 1.366 . S
C278 C280 1.388 . S
C279 C278 1.366 . S
C279 C283 1.385 . S
C280 H261 0.951 . S
C280 C278 1.388 . S
C280 C281 1.366 . S
C281 C280 1.366 . S
C281 C282 1.414 . S
C281 C284 1.499 . S
C282 H262 0.950 . S
C282 C281 1.414 . S
C282 C283 1.374 . S
C283 H263 0.950 . S
C283 C279 1.385 . S
C283 C282 1.374 . S
C284 C281 1.499 . S
C284 C285 1.373 . S
C284 C286 1.389 . S
C285 H264 0.950 . S
C285 C284 1.373 . S
C285 C301 1.377 . S
C286 C284 1.389 . S
C286 C287 1.524 . S
C286 C300 1.377 . S
C287 C286 1.524 . S
C287 C288 1.397 . S
C287 C292 1.363 . S
C288 H265 0.950 . S
C288 C287 1.397 . S
C288 C289 1.334 . S
C289 H266 0.950 . S
C289 C288 1.334 . S
C289 C290 1.287 . S
C290 C289 1.287 . S
C290 C291 1.524 . S
C290 H309 0.913 . S
C291 H267 0.950 . S
C291 C290 1.524 . S
C291 C292 1.415 . S
C292 H268 0.950 . S
C292 C287 1.363 . S
C292 C291 1.415 . S
C293 H269 0.951 . S
C293 C294 1.366 . S
C293 C295 1.388 . S
C294 C293 1.366 . S
C294 C298 1.385 . S
C295 H270 0.951 . S
C295 C293 1.388 . S
C295 C296 1.366 . S
C296 C295 1.366 . S
C296 C297 1.414 . S
C296 C299 1.499 . S
C297 H271 0.950 . S
C297 C296 1.414 . S
C297 C298 1.374 . S
C298 H272 0.950 . S
C298 C294 1.385 . S
C298 C297 1.374 . S
C299 C296 1.499 . S
C299 C300 1.373 . S
C299 C301 1.389 . S
C300 H273 0.950 . S
C300 C286 1.377 . S
C300 C299 1.373 . S
C301 C285 1.377 . S
C301 C299 1.389 . S
C301 C302 1.524 . S
C302 C301 1.524 . S
C302 C303 1.397 . S
C302 C307 1.363 . S
C303 H274 0.950 . S
C303 C302 1.397 . S
C303 C304 1.334 . S
C304 H275 0.950 . S
C304 C303 1.334 . S
C304 C305 1.287 . S
C305 C304 1.287 . S
C305 C306 1.524 . S
C305 H308 0.999 . S
C306 H276 0.950 . S
C306 C305 1.524 . S
C306 C307 1.415 . S
C307 H277 0.950 . S
C307 C302 1.363 . S
C307 C306 1.415 . S
H308 C305 0.999 . S
H309 C290 0.913 . S
H310 C328 0.951 . S
H311 C330 0.951 . S
H312 C332 0.950 . S
H313 C333 0.950 . S
H314 C335 0.950 . S
H315 C338 0.950 . S
H316 C339 0.950 . S
H317 C341 0.950 . S
H318 C342 0.950 . S
H319 C343 0.951 . S
H320 C345 0.951 . S
H321 C347 0.950 . S
H322 C348 0.950 . S
H323 C350 0.950 . S
H324 C353 0.950 . S
H325 C354 0.950 . S
H326 C356 0.950 . S
H327 C357 0.950 . S
C328 H310 0.951 . S
C328 C329 1.366 . S
C328 C330 1.388 . S
C329 C328 1.366 . S
C329 C333 1.385 . S
C330 H311 0.951 . S
C330 C328 1.388 . S
C330 C331 1.366 . S
C331 C330 1.366 . S
C331 C332 1.414 . S
C331 C334 1.499 . S
C332 H312 0.950 . S
C332 C331 1.414 . S
C332 C333 1.374 . S
C333 H313 0.950 . S
C333 C329 1.385 . S
C333 C332 1.374 . S
C334 C331 1.499 . S
C334 C335 1.373 . S
C334 C336 1.389 . S
C335 H314 0.950 . S
C335 C334 1.373 . S
C335 C351 1.377 . S
C336 C334 1.389 . S
C336 C337 1.524 . S
C336 C350 1.377 . S
C337 C336 1.524 . S
C337 C338 1.397 . S
C337 C342 1.363 . S
C338 H315 0.950 . S
C338 C337 1.397 . S
C338 C339 1.334 . S
C339 H316 0.950 . S
C339 C338 1.334 . S
C339 C340 1.287 . S
C340 C339 1.287 . S
C340 C341 1.524 . S
C340 H359 0.913 . S
C341 H317 0.950 . S
C341 C340 1.524 . S
C341 C342 1.415 . S
C342 H318 0.950 . S
C342 C337 1.363 . S
C342 C341 1.415 . S
C343 H319 0.951 . S
C343 C344 1.366 . S
C343 C345 1.388 . S
C344 C343 1.366 . S
C344 C348 1.385 . S
C345 H320 0.951 . S
C345 C343 1.388 . S
C345 C346 1.366 . S
C346 C345 1.366 . S
C346 C347 1.414 . S
C346 C349 1.499 . S
C347 H321 0.950 . S
C347 C346 1.414 . S
C347 C348 1.374 . S
C348 H322 0.950 . S
C348 C344 1.385 . S
C348 C347 1.374 . S
C349 C346 1.499 . S
C349 C350 1.373 . S
C349 C351 1.389 . S
C350 H323 0.950 . S
C350 C336 1.377 . S
C350 C349 1.373 . S
C351 C335 1.377 . S
C351 C349 1.389 . S
C351 C352 1.524 . S
C352 C351 1.524 . S
C352 C353 1.397 . S
C352 C357 1.363 . S
C353 H324 0.950 . S
C353 C352 1.397 . S
C353 C354 1.334 . S
C354 H325 0.950 . S
C354 C353 1.334 . S
C354 C355 1.287 . S
C355 C354 1.287 . S
C355 C356 1.524 . S
C355 H358 0.999 . S
C356 H326 0.950 . S
C356 C355 1.524 . S
C356 C357 1.415 . S
C357 H327 0.950 . S
C357 C352 1.363 . S
C357 C356 1.415 . S
H358 C355 0.999 . S
H359 C340 0.913 . S
H360 C378 0.951 . S
H361 C380 0.951 1_545 S
H362 C382 0.950 . S
H363 C383 0.950 . S
H364 C385 0.958 . S
H365 C388 0.950 . S
H366 C389 0.950 . S
H367 C391 0.950 . S
H368 C392 0.950 1_545 S
H369 C393 0.951 . S
H370 C395 0.951 1_565 S
H371 C397 0.950 . S
H372 C398 0.950 . S
H373 C400 0.950 . S
H374 C403 0.950 . S
H375 C404 0.950 . S
H376 C406 0.950 . S
H377 C407 0.950 1_565 S
C378 H360 0.951 . S
C378 C379 1.366 . S
C378 C380 1.388 . S
C379 C378 1.366 . S
C379 C383 1.385 1_556 S
C380 H361 0.951 1_565 S
C380 C378 1.388 . S
C380 C381 1.366 . S
C381 C380 1.366 . S
C381 C382 1.414 1_556 S
C381 C384 1.499 . S
C382 H362 0.950 . S
C382 C381 1.414 1_554 S
C382 C383 1.374 . S
C383 H363 0.950 . S
C383 C379 1.385 1_554 S
C383 C382 1.374 . S
C384 C381 1.499 . S
C384 C385 1.386 1_556 S
C384 C386 1.389 . S
C385 H364 0.958 . S
C385 C384 1.386 1_554 S
C385 C401 1.357 1_565 S
C386 C384 1.389 . S
C386 C387 1.524 . S
C386 C400 1.377 1_565 S
C387 C386 1.524 . S
C387 C388 1.397 . S
C387 C392 1.363 . S
C388 H365 0.950 . S
C388 C387 1.397 . S
C388 C389 1.334 . S
C389 H366 0.950 . S
C389 C388 1.334 . S
C389 C390 1.287 . S
C390 C389 1.287 . S
C390 C391 1.524 . S
C390 H409 0.913 . S
C391 H367 0.950 . S
C391 C390 1.524 . S
C391 C392 1.415 . S
C392 H368 0.950 1_565 S
C392 C387 1.363 . S
C392 C391 1.415 . S
C393 H369 0.951 . S
C393 C394 1.366 . S
C393 C395 1.388 . S
C394 C393 1.366 . S
C394 C398 1.385 1_554 S
C395 H370 0.951 1_545 S
C395 C393 1.388 . S
C395 C396 1.366 . S
C396 C395 1.366 . S
C396 C397 1.414 1_554 S
C396 C399 1.499 . S
C397 H371 0.950 . S
C397 C396 1.414 1_556 S
C397 C398 1.374 . S
C398 H372 0.950 . S
C398 C394 1.385 1_556 S
C398 C397 1.374 . S
C399 C396 1.499 . S
C399 C400 1.373 1_554 S
C399 C401 1.389 . S
C400 H373 0.950 . S
C400 C386 1.377 1_545 S
C400 C399 1.373 1_556 S
C401 C385 1.357 1_545 S
C401 C399 1.389 . S
C401 C402 1.524 . S
C402 C401 1.524 . S
C402 C403 1.397 . S
C402 C407 1.363 . S
C403 H374 0.950 . S
C403 C402 1.397 . S
C403 C404 1.334 . S
C404 H375 0.950 . S
C404 C403 1.334 . S
C404 C405 1.287 . S
C405 C404 1.287 . S
C405 C406 1.524 . S
C405 H408 0.999 . S
C406 H376 0.950 . S
C406 C405 1.524 . S
C406 C407 1.415 . S
C407 H377 0.950 1_545 S
C407 C402 1.363 . S
C407 C406 1.415 . S
H408 C405 0.999 . S
H409 C390 0.913 . S
H410 C428 0.951 . S
H411 C430 0.951 . S
H412 C432 0.950 . S
H413 C433 0.950 . S
H414 C435 0.950 . S
H415 C438 0.950 . S
H416 C439 0.950 . S
H417 C441 0.950 . S
H418 C442 0.950 . S
H419 C443 0.951 . S
H420 C445 0.951 . S
H421 C447 0.950 . S
H422 C448 0.950 . S
H423 C450 0.950 . S
H424 C453 0.950 . S
H425 C454 0.950 . S
H426 C456 0.950 . S
H427 C457 0.950 . S
C428 H410 0.951 . S
C428 C429 1.381 . S
C428 C430 1.388 . S
C429 C428 1.381 . S
C429 C433 1.363 1_565 S
C430 H411 0.951 . S
C430 C428 1.388 . S
C430 C431 1.366 . S
C431 C430 1.366 . S
C431 C432 1.414 1_565 S
C431 C434 1.502 . S
C432 H412 0.950 . S
C432 C431 1.414 1_545 S
C432 C433 1.374 . S
C433 H413 0.950 . S
C433 C429 1.363 1_545 S
C433 C432 1.374 . S
C434 C431 1.502 . S
C434 C435 1.359 1_565 S
C434 C436 1.400 . S
C435 H414 0.950 . S
C435 C434 1.359 1_545 S
C435 C451 1.377 . S
C436 C434 1.400 . S
C436 C437 1.524 . S
C436 C450 1.377 . S
C437 C436 1.524 . S
C437 C438 1.397 . S
C437 C442 1.363 . S
C438 H415 0.950 . S
C438 C437 1.397 . S
C438 C439 1.334 . S
C439 H416 0.950 . S
C439 C438 1.334 . S
C439 C440 1.287 . S
C440 C439 1.287 . S
C440 C441 1.524 . S
C440 H459 0.913 . S
C441 H417 0.950 . S
C441 C440 1.524 . S
C441 C442 1.415 . S
C442 H418 0.950 . S
C442 C437 1.363 . S
C442 C441 1.415 . S
C443 H419 0.951 . S
C443 C444 1.366 . S
C443 C445 1.388 . S
C444 C443 1.366 . S
C444 C448 1.385 1_545 S
C445 H420 0.951 . S
C445 C443 1.388 . S
C445 C446 1.366 . S
C446 C445 1.366 . S
C446 C447 1.414 1_545 S
C446 C449 1.506 . S
C447 H421 0.950 . S
C447 C446 1.414 1_565 S
C447 C448 1.374 . S
C448 H422 0.950 . S
C448 C444 1.385 1_565 S
C448 C447 1.374 . S
C449 C446 1.506 . S
C449 C450 1.344 1_545 S
C449 C451 1.411 . S
C450 H423 0.950 . S
C450 C436 1.377 . S
C450 C449 1.344 1_565 S
C451 C435 1.377 . S
C451 C449 1.411 . S
C451 C452 1.524 . S
C452 C451 1.524 . S
C452 C453 1.397 . S
C452 C457 1.363 . S
C453 H424 0.950 . S
C453 C452 1.397 . S
C453 C454 1.334 . S
C454 H425 0.950 . S
C454 C453 1.334 . S
C454 C455 1.287 . S
C455 C454 1.287 . S
C455 C456 1.524 . S
C455 H458 0.999 . S
C456 H426 0.950 . S
C456 C455 1.524 . S
C456 C457 1.415 . S
C457 H427 0.950 . S
C457 C452 1.363 . S
C457 C456 1.415 . S
H458 C455 0.999 . S
H459 C440 0.913 . S
H460 C478 0.951 . S
H461 C480 0.951 . S
H462 C482 0.950 . S
H463 C483 0.950 . S
H464 C485 0.950 . S
H465 C488 0.950 . S
H466 C489 0.950 . S
H467 C491 0.950 . S
H468 C492 0.950 1_455 S
H469 C493 0.951 . S
H470 C495 0.951 . S
H471 C497 0.950 . S
H472 C498 0.950 . S
H473 C500 0.950 . S
H474 C503 0.950 . S
H475 C504 0.950 . S
H476 C506 0.950 . S
H477 C507 0.950 1_655 S
C478 H460 0.951 . S
C478 C479 1.366 1_554 S
C478 C480 1.388 . S
C479 C478 1.366 1_556 S
C479 C483 1.385 . S
C480 H461 0.951 . S
C480 C478 1.388 . S
C480 C481 1.366 1_554 S
C481 C480 1.366 1_556 S
C481 C482 1.414 . S
C481 C484 1.499 . S
C482 H462 0.950 . S
C482 C481 1.414 . S
C482 C483 1.374 . S
C483 H463 0.950 . S
C483 C479 1.385 . S
C483 C482 1.374 . S
C484 C481 1.499 . S
C484 C485 1.373 . S
C484 C486 1.389 1_556 S
C485 H464 0.950 . S
C485 C484 1.373 . S
C485 C501 1.377 1_655 S
C486 C484 1.389 1_554 S
C486 C487 1.524 . S
C486 C500 1.377 1_655 S
C487 C486 1.524 . S
C487 C488 1.397 . S
C487 C492 1.363 . S
C488 H465 0.950 . S
C488 C487 1.397 . S
C488 C489 1.334 . S
C489 H466 0.950 . S
C489 C488 1.334 . S
C489 C490 1.287 . S
C490 C489 1.287 . S
C490 C491 1.524 . S
C490 H509 0.913 . S
C491 H467 0.950 . S
C491 C490 1.524 . S
C491 C492 1.415 . S
C492 H468 0.950 1_655 S
C492 C487 1.363 . S
C492 C491 1.415 . S
C493 H469 0.951 . S
C493 C494 1.366 1_556 S
C493 C495 1.388 . S
C494 C493 1.366 1_554 S
C494 C498 1.385 . S
C495 H470 0.951 . S
C495 C493 1.388 . S
C495 C496 1.366 1_556 S
C496 C495 1.366 1_554 S
C496 C497 1.414 . S
C496 C499 1.499 . S
C497 H471 0.950 . S
C497 C496 1.414 . S
C497 C498 1.374 . S
C498 H472 0.950 . S
C498 C494 1.385 . S
C498 C497 1.374 . S
C499 C496 1.499 . S
C499 C500 1.373 . S
C499 C501 1.389 1_554 S
C500 H473 0.950 . S
C500 C486 1.377 1_455 S
C500 C499 1.373 . S
C501 C485 1.377 1_455 S
C501 C499 1.389 1_556 S
C501 C502 1.524 . S
C502 C501 1.524 . S
C502 C503 1.397 . S
C502 C507 1.363 . S
C503 H474 0.950 . S
C503 C502 1.397 . S
C503 C504 1.334 . S
C504 H475 0.950 . S
C504 C503 1.334 . S
C504 C505 1.287 . S
C505 C504 1.287 . S
C505 C506 1.524 . S
C505 H508 0.999 . S
C506 H476 0.950 . S
C506 C505 1.524 . S
C506 C507 1.415 . S
C507 H477 0.950 1_455 S
C507 C502 1.363 . S
C507 C506 1.415 . S
H508 C505 0.999 . S
H509 C490 0.913 . S
H510 C528 0.951 . S
H511 C530 0.951 . S
H512 C532 0.950 . S
H513 C533 0.950 . S
H514 C535 0.950 . S
H515 C538 0.950 . S
H516 C539 0.950 . S
H517 C541 0.950 . S
H518 C542 0.950 . S
H519 C543 0.951 . S
H520 C545 0.951 . S
H521 C547 0.950 . S
H522 C548 0.950 . S
H523 C550 0.950 . S
H524 C553 0.950 . S
H525 C554 0.950 . S
H526 C556 0.950 . S
H527 C557 0.950 . S
C528 H510 0.951 . S
C528 C529 1.366 . S
C528 C530 1.388 . S
C529 C528 1.366 . S
C529 C533 1.385 . S
C530 H511 0.951 . S
C530 C528 1.388 . S
C530 C531 1.366 . S
C531 C530 1.366 . S
C531 C532 1.414 . S
C531 C534 1.499 . S
C532 H512 0.950 . S
C532 C531 1.414 . S
C532 C533 1.374 . S
C533 H513 0.950 . S
C533 C529 1.385 . S
C533 C532 1.374 . S
C534 C531 1.499 . S
C534 C535 1.373 . S
C534 C536 1.389 . S
C535 H514 0.950 . S
C535 C534 1.373 . S
C535 C551 1.377 1_455 S
C536 C534 1.389 . S
C536 C537 1.524 . S
C536 C550 1.377 1_455 S
C537 C536 1.524 . S
C537 C538 1.397 . S
C537 C542 1.363 . S
C538 H515 0.950 . S
C538 C537 1.397 . S
C538 C539 1.334 . S
C539 H516 0.950 . S
C539 C538 1.334 . S
C539 C540 1.287 . S
C540 C539 1.287 . S
C540 C541 1.524 . S
C540 H559 0.913 . S
C541 H517 0.950 . S
C541 C540 1.524 . S
C541 C542 1.415 . S
C542 H518 0.950 . S
C542 C537 1.363 . S
C542 C541 1.415 . S
C543 H519 0.951 . S
C543 C544 1.366 . S
C543 C545 1.388 . S
C544 C543 1.366 . S
C544 C548 1.385 . S
C545 H520 0.951 . S
C545 C543 1.388 . S
C545 C546 1.366 . S
C546 C545 1.366 . S
C546 C547 1.414 . S
C546 C549 1.499 . S
C547 H521 0.950 . S
C547 C546 1.414 . S
C547 C548 1.374 . S
C548 H522 0.950 . S
C548 C544 1.385 . S
C548 C547 1.374 . S
C549 C546 1.499 . S
C549 C550 1.373 . S
C549 C551 1.389 . S
C550 H523 0.950 . S
C550 C536 1.377 1_655 S
C550 C549 1.373 . S
C551 C535 1.377 1_655 S
C551 C549 1.389 . S
C551 C552 1.524 . S
C552 C551 1.524 . S
C552 C553 1.397 . S
C552 C557 1.363 . S
C553 H524 0.950 . S
C553 C552 1.397 . S
C553 C554 1.334 . S
C554 H525 0.950 . S
C554 C553 1.334 . S
C554 C555 1.287 . S
C555 C554 1.287 . S
C555 C556 1.524 . S
C555 H558 0.999 . S
C556 H526 0.950 . S
C556 C555 1.524 . S
C556 C557 1.415 . S
C557 H527 0.950 . S
C557 C552 1.363 . S
C557 C556 1.415 . S
H558 C555 0.999 . S
H559 C540 0.913 . S
H560 C578 0.951 . S
H561 C580 0.951 . S
H562 C582 0.950 . S
H563 C583 0.950 . S
H564 C585 0.950 . S
H565 C588 0.950 1_455 S
H566 C589 0.950 . S
H567 C591 0.950 . S
H568 C592 0.950 . S
H569 C593 0.951 . S
H570 C595 0.951 . S
H571 C597 0.950 . S
H572 C598 0.950 . S
H573 C600 0.950 . S
H574 C603 0.950 1_655 S
H575 C604 0.950 . S
H576 C606 0.950 . S
H577 C607 0.950 . S
C578 H560 0.951 . S
C578 C579 1.366 . S
C578 C580 1.388 . S
C579 C578 1.366 . S
C579 C583 1.385 1_645 S
C580 H561 0.951 . S
C580 C578 1.388 . S
C580 C581 1.368 1_545 S
C581 C580 1.368 1_565 S
C581 C582 1.412 1_655 S
C581 C584 1.500 . S
C582 H562 0.950 . S
C582 C581 1.412 1_455 S
C582 C583 1.374 . S
C583 H563 0.950 . S
C583 C579 1.385 1_465 S
C583 C582 1.374 . S
C584 C581 1.500 . S
C584 C585 1.345 1_665 S
C584 C586 1.413 . S
C585 H564 0.950 . S
C585 C584 1.345 1_445 S
C585 C601 1.377 . S
C586 C584 1.413 . S
C586 C587 1.524 . S
C586 C600 1.377 . S
C587 C586 1.524 . S
C587 C588 1.397 . S
C587 C592 1.363 . S
C588 H565 0.950 1_655 S
C588 C587 1.397 . S
C588 C589 1.334 . S
C589 H566 0.950 . S
C589 C588 1.334 . S
C589 C590 1.287 . S
C590 C589 1.287 . S
C590 C591 1.524 . S
C590 H609 0.913 . S
C591 H567 0.950 . S
C591 C590 1.524 . S
C591 C592 1.415 . S
C592 H568 0.950 . S
C592 C587 1.363 . S
C592 C591 1.415 . S
C593 H569 0.951 . S
C593 C594 1.367 1_465 S
C593 C595 1.388 . S
C594 C593 1.367 1_645 S
C594 C598 1.383 . S
C595 H570 0.951 . S
C595 C593 1.388 . S
C595 C596 1.366 1_465 S
C596 C595 1.366 1_645 S
C596 C597 1.414 . S
C596 C599 1.499 . S
C597 H571 0.950 . S
C597 C596 1.414 . S
C597 C598 1.374 . S
C598 H572 0.950 . S
C598 C594 1.383 . S
C598 C597 1.374 . S
C599 C596 1.499 . S
C599 C600 1.373 1_545 S
C599 C601 1.389 1_655 S
C600 H573 0.950 . S
C600 C586 1.377 . S
C600 C599 1.373 1_565 S
C601 C585 1.377 . S
C601 C599 1.389 1_455 S
C601 C602 1.524 . S
C602 C601 1.524 . S
C602 C603 1.397 . S
C602 C607 1.363 . S
C603 H574 0.950 1_455 S
C603 C602 1.397 . S
C603 C604 1.334 . S
C604 H575 0.950 . S
C604 C603 1.334 . S
C604 C605 1.287 . S
C605 C604 1.287 . S
C605 C606 1.524 . S
C605 H608 0.999 . S
C606 H576 0.950 . S
C606 C605 1.524 . S
C606 C607 1.415 . S
C607 H577 0.950 . S
C607 C602 1.363 . S
C607 C606 1.415 . S
H608 C605 0.999 . S
H609 C590 0.913 . S
H610 C628 0.951 . S
H611 C630 0.951 . S
H612 C632 0.950 . S
H613 C633 0.950 . S
H614 C635 0.950 . S
H615 C638 0.950 . S
H616 C639 0.950 . S
H617 C641 0.950 . S
H618 C642 0.950 1_655 S
H619 C643 0.951 . S
H620 C645 0.951 . S
H621 C647 0.950 . S
H622 C648 0.950 . S
H623 C650 0.950 . S
H624 C653 0.950 . S
H625 C654 0.950 . S
H626 C656 0.950 1_455 S
H627 C657 0.950 . S
C628 H610 0.951 . S
C628 C629 1.364 1_655 S
C628 C630 1.388 . S
C629 C628 1.364 1_455 S
C629 C633 1.387 1_565 S
C630 H611 0.951 . S
C630 C628 1.388 . S
C630 C631 1.366 1_655 S
C631 C630 1.366 1_455 S
C631 C632 1.414 1_565 S
C631 C634 1.499 . S
C632 H612 0.950 . S
C632 C631 1.414 1_545 S
C632 C633 1.374 . S
C633 H613 0.950 . S
C633 C629 1.387 1_545 S
C633 C632 1.374 . S
C634 C631 1.499 . S
C634 C635 1.373 1_465 S
C634 C636 1.389 . S
C635 H614 0.950 . S
C635 C634 1.373 1_645 S
C635 C651 1.377 . S
C636 C634 1.389 . S
C636 C637 1.524 . S
C636 C650 1.377 . S
C637 C636 1.524 . S
C637 C638 1.397 . S
C637 C642 1.363 . S
C638 H615 0.950 . S
C638 C637 1.397 . S
C638 C639 1.334 . S
C639 H616 0.950 . S
C639 C638 1.334 . S
C639 C640 1.287 . S
C640 C639 1.287 . S
C640 C641 1.524 . S
C640 H659 0.913 . S
C641 H617 0.950 . S
C641 C640 1.524 . S
C641 C642 1.415 . S
C642 H618 0.950 1_455 S
C642 C637 1.363 . S
C642 C641 1.415 . S
C643 H619 0.951 . S
C643 C644 1.341 1_545 S
C643 C645 1.388 . S
C644 C643 1.341 1_565 S
C644 C648 1.412 1_455 S
C645 H620 0.951 . S
C645 C643 1.388 . S
C645 C646 1.378 . S
C646 C645 1.378 . S
C646 C647 1.402 1_445 S
C646 C649 1.498 . S
C647 H621 0.950 . S
C647 C646 1.402 1_665 S
C647 C648 1.374 . S
C648 H622 0.950 . S
C648 C644 1.412 1_655 S
C648 C647 1.374 . S
C649 C646 1.498 . S
C649 C650 1.372 1_545 S
C649 C651 1.391 1_455 S
C650 H623 0.950 . S
C650 C636 1.377 . S
C650 C649 1.372 1_565 S
C651 C635 1.377 . S
C651 C649 1.391 1_655 S
C651 C652 1.524 . S
C652 C651 1.524 . S
C652 C653 1.397 . S
C652 C657 1.363 1_655 S
C653 H624 0.950 . S
C653 C652 1.397 . S
C653 C654 1.334 . S
C654 H625 0.950 . S
C654 C653 1.334 . S
C654 C655 1.287 . S
C655 C654 1.287 . S
C655 C656 1.524 . S
C655 H658 0.999 . S
C656 H626 0.950 1_655 S
C656 C655 1.524 . S
C656 C657 1.415 1_655 S
C657 H627 0.950 . S
C657 C652 1.363 1_455 S
C657 C656 1.415 1_455 S
H658 C655 0.999 . S
H659 C640 0.913 . S
H660 C678 0.951 . S
H661 C680 0.951 . S
H662 C682 0.950 . S
H663 C683 0.950 . S
H664 C685 0.950 . S
H665 C688 0.950 . S
H666 C689 0.950 . S
H667 C691 0.950 . S
H668 C692 0.950 . S
H669 C693 0.951 . S
H670 C695 0.951 . S
H671 C697 0.950 . S
H672 C698 0.950 . S
H673 C700 0.950 . S
H674 C703 0.950 . S
H675 C704 0.950 . S
H676 C706 0.950 . S
H677 C707 0.950 . S
C678 H660 0.951 . S
C678 C679 1.366 . S
C678 C680 1.388 . S
C679 C678 1.366 . S
C679 C683 1.385 . S
C680 H661 0.951 . S
C680 C678 1.388 . S
C680 C681 1.366 . S
C681 C680 1.366 . S
C681 C682 1.414 . S
C681 C684 1.499 . S
C682 H662 0.950 . S
C682 C681 1.414 . S
C682 C683 1.374 . S
C683 H663 0.950 . S
C683 C679 1.385 . S
C683 C682 1.374 . S
C684 C681 1.499 . S
C684 C685 1.373 . S
C684 C686 1.389 . S
C685 H664 0.950 . S
C685 C684 1.373 . S
C685 C701 1.377 . S
C686 C684 1.389 . S
C686 C687 1.524 . S
C686 C700 1.377 . S
C687 C686 1.524 . S
C687 C688 1.397 . S
C687 C692 1.363 . S
C688 H665 0.950 . S
C688 C687 1.397 . S
C688 C689 1.334 . S
C689 H666 0.950 . S
C689 C688 1.334 . S
C689 C690 1.287 . S
C690 C689 1.287 . S
C690 C691 1.524 . S
C690 H709 0.913 . S
C691 H667 0.950 . S
C691 C690 1.524 . S
C691 C692 1.415 . S
C692 H668 0.950 . S
C692 C687 1.363 . S
C692 C691 1.415 . S
C693 H669 0.951 . S
C693 C694 1.366 . S
C693 C695 1.388 . S
C694 C693 1.366 . S
C694 C698 1.385 . S
C695 H670 0.951 . S
C695 C693 1.388 . S
C695 C696 1.366 . S
C696 C695 1.366 . S
C696 C697 1.414 . S
C696 C699 1.499 . S
C697 H671 0.950 . S
C697 C696 1.414 . S
C697 C698 1.374 . S
C698 H672 0.950 . S
C698 C694 1.385 . S
C698 C697 1.374 . S
C699 C696 1.499 . S
C699 C700 1.373 . S
C699 C701 1.389 . S
C700 H673 0.950 . S
C700 C686 1.377 . S
C700 C699 1.373 . S
C701 C685 1.377 . S
C701 C699 1.389 . S
C701 C702 1.524 . S
C702 C701 1.524 . S
C702 C703 1.397 . S
C702 C707 1.363 . S
C703 H674 0.950 . S
C703 C702 1.397 . S
C703 C704 1.334 . S
C704 H675 0.950 . S
C704 C703 1.334 . S
C704 C705 1.287 . S
C705 C704 1.287 . S
C705 C706 1.524 . S
C705 H708 0.999 . S
C706 H676 0.950 . S
C706 C705 1.524 . S
C706 C707 1.415 . S
C707 H677 0.950 . S
C707 C702 1.363 . S
C707 C706 1.415 . S
H708 C705 0.999 . S
H709 C690 0.913 . S
H710 C728 0.951 . S
H711 C730 0.951 . S
H712 C732 0.950 . S
H713 C733 0.950 . S
H714 C735 0.950 . S
H715 C738 0.950 . S
H716 C739 0.950 . S
H717 C741 0.950 . S
H718 C742 0.950 . S
H719 C743 0.951 . S
H720 C745 0.951 . S
H721 C747 0.950 . S
H722 C748 0.950 . S
H723 C750 0.950 . S
H724 C753 0.950 . S
H725 C754 0.950 . S
H726 C756 0.950 . S
H727 C757 0.950 . S
C728 H710 0.951 . S
C728 C729 1.366 . S
C728 C730 1.388 . S
C729 C728 1.366 . S
C729 C733 1.385 . S
C730 H711 0.951 . S
C730 C728 1.388 . S
C730 C731 1.366 . S
C731 C730 1.366 . S
C731 C732 1.414 . S
C731 C734 1.499 . S
C732 H712 0.950 . S
C732 C731 1.414 . S
C732 C733 1.374 . S
C733 H713 0.950 . S
C733 C729 1.385 . S
C733 C732 1.374 . S
C734 C731 1.499 . S
C734 C735 1.373 . S
C734 C736 1.389 . S
C735 H714 0.950 . S
C735 C734 1.373 . S
C735 C751 1.377 . S
C736 C734 1.389 . S
C736 C737 1.524 . S
C736 C750 1.377 . S
C737 C736 1.524 . S
C737 C738 1.397 . S
C737 C742 1.363 . S
C738 H715 0.950 . S
C738 C737 1.397 . S
C738 C739 1.334 . S
C739 H716 0.950 . S
C739 C738 1.334 . S
C739 C740 1.287 . S
C740 C739 1.287 . S
C740 C741 1.524 . S
C740 H759 0.913 . S
C741 H717 0.950 . S
C741 C740 1.524 . S
C741 C742 1.415 . S
C742 H718 0.950 . S
C742 C737 1.363 . S
C742 C741 1.415 . S
C743 H719 0.951 . S
C743 C744 1.366 . S
C743 C745 1.388 . S
C744 C743 1.366 . S
C744 C748 1.385 . S
C745 H720 0.951 . S
C745 C743 1.388 . S
C745 C746 1.366 . S
C746 C745 1.366 . S
C746 C747 1.414 . S
C746 C749 1.499 . S
C747 H721 0.950 . S
C747 C746 1.414 . S
C747 C748 1.374 . S
C748 H722 0.950 . S
C748 C744 1.385 . S
C748 C747 1.374 . S
C749 C746 1.499 . S
C749 C750 1.373 . S
C749 C751 1.389 . S
C750 H723 0.950 . S
C750 C736 1.377 . S
C750 C749 1.373 . S
C751 C735 1.377 . S
C751 C749 1.389 . S
C751 C752 1.524 . S
C752 C751 1.524 . S
C752 C753 1.397 . S
C752 C757 1.363 . S
C753 H724 0.950 . S
C753 C752 1.397 . S
C753 C754 1.334 . S
C754 H725 0.950 . S
C754 C753 1.334 . S
C754 C755 1.287 . S
C755 C754 1.287 . S
C755 C756 1.524 . S
C755 H758 0.999 . S
C756 H726 0.950 . S
C756 C755 1.524 . S
C756 C757 1.415 . S
C757 H727 0.950 . S
C757 C752 1.363 . S
C757 C756 1.415 . S
H758 C755 0.999 . S
H759 C740 0.913 . S
C179 C90 3.494 1_554 S
C194 C19 3.494 1_556 S
C229 C99 3.494 1_556 S
C244 C10 3.495 1_554 S
C279 C55 0.092 . S
C294 C126 0.091 . S
C329 C46 0.092 . S
C344 C135 0.093 . S
C379 C15 0.879 . S
C394 C6 0.879 . S
C429 C59 4.899 . S
C444 C50 4.892 . S
C479 C95 0.880 . S
C494 C86 0.880 . S
C529 C130 4.892 . S
C544 C139 4.892 . S
C579 C49 1.449 1_645 S
C594 C18 1.453 1_655 S
C629 C9 1.449 1_455 S
C644 C58 1.438 1_465 S
C679 C129 1.448 . S
C694 C98 1.449 . S
C729 C138 1.448 . S
C744 C89 1.450 . S
