# Generated by pormake.
# Topology mon, (4)-cn, num edge types: 1
# Building blocks:
#     Node 0, Type 0, BuildingBlock: KUFVIS_clean_sbu_0, # of connection points: 4
#     Node 1, Type 0, BuildingBlock: KUFVIS_clean_sbu_0, # of connection points: 4
#     Node 2, Type 0, BuildingBlock: KUFVIS_clean_sbu_0, # of connection points: 4
#     Node 3, Type 0, BuildingBlock: KUFVIS_clean_sbu_0, # of connection points: 4
#     Node 4, Type 0, BuildingBlock: KUFVIS_clean_sbu_0, # of connection points: 4
#     Node 5, Type 0, BuildingBlock: KUFVIS_clean_sbu_0, # of connection points: 4
#     Node 6, Type 0, BuildingBlock: KUFVIS_clean_sbu_0, # of connection points: 4
#     Node 7, Type 0, BuildingBlock: KUFVIS_clean_sbu_0, # of connection points: 4
#     Node 8, Type 0, BuildingBlock: KUFVIS_clean_sbu_0, # of connection points: 4
#     Node 9, Type 0, BuildingBlock: KUFVIS_clean_sbu_0, # of connection points: 4
#     Node 10, Type 0, BuildingBlock: KUFVIS_clean_sbu_0, # of connection points: 4
#     Node 11, Type 0, BuildingBlock: KUFVIS_clean_sbu_0, # of connection points: 4
#     Node 12, Type 0, BuildingBlock: KUFVIS_clean_sbu_0, # of connection points: 4
#     Node 13, Type 0, BuildingBlock: KUFVIS_clean_sbu_0, # of connection points: 4
#     Node 14, Type 0, BuildingBlock: KUFVIS_clean_sbu_0, # of connection points: 4
#     Node 15, Type 0, BuildingBlock: KUFVIS_clean_sbu_0, # of connection points: 4
#     Edge 16, Type (0, 0), BuildingBlock: EZIPEK_clean_linker_0, # of connection points: 2
#     Edge 17, Type (0, 0), BuildingBlock: EZIPEK_clean_linker_0, # of connection points: 2
#     Edge 18, Type (0, 0), BuildingBlock: EZIPEK_clean_linker_0, # of connection points: 2
#     Edge 19, Type (0, 0), BuildingBlock: EZIPEK_clean_linker_0, # of connection points: 2
#     Edge 20, Type (0, 0), BuildingBlock: EZIPEK_clean_linker_0, # of connection points: 2
#     Edge 21, Type (0, 0), BuildingBlock: EZIPEK_clean_linker_0, # of connection points: 2
#     Edge 22, Type (0, 0), BuildingBlock: EZIPEK_clean_linker_0, # of connection points: 2
#     Edge 23, Type (0, 0), BuildingBlock: EZIPEK_clean_linker_0, # of connection points: 2
#     Edge 24, Type (0, 0), BuildingBlock: EZIPEK_clean_linker_0, # of connection points: 2
#     Edge 25, Type (0, 0), BuildingBlock: EZIPEK_clean_linker_0, # of connection points: 2
#     Edge 26, Type (0, 0), BuildingBlock: EZIPEK_clean_linker_0, # of connection points: 2
#     Edge 27, Type (0, 0), BuildingBlock: EZIPEK_clean_linker_0, # of connection points: 2
#     Edge 28, Type (0, 0), BuildingBlock: EZIPEK_clean_linker_0, # of connection points: 2
#     Edge 29, Type (0, 0), BuildingBlock: EZIPEK_clean_linker_0, # of connection points: 2
#     Edge 30, Type (0, 0), BuildingBlock: EZIPEK_clean_linker_0, # of connection points: 2
#     Edge 31, Type (0, 0), BuildingBlock: EZIPEK_clean_linker_0, # of connection points: 2
#     Edge 32, Type (0, 0), BuildingBlock: EZIPEK_clean_linker_0, # of connection points: 2
#     Edge 33, Type (0, 0), BuildingBlock: EZIPEK_clean_linker_0, # of connection points: 2
#     Edge 34, Type (0, 0), BuildingBlock: EZIPEK_clean_linker_0, # of connection points: 2
#     Edge 35, Type (0, 0), BuildingBlock: EZIPEK_clean_linker_0, # of connection points: 2
#     Edge 36, Type (0, 0), BuildingBlock: EZIPEK_clean_linker_0, # of connection points: 2
#     Edge 37, Type (0, 0), BuildingBlock: EZIPEK_clean_linker_0, # of connection points: 2
#     Edge 38, Type (0, 0), BuildingBlock: EZIPEK_clean_linker_0, # of connection points: 2
#     Edge 39, Type (0, 0), BuildingBlock: EZIPEK_clean_linker_0, # of connection points: 2
#     Edge 40, Type (0, 0), BuildingBlock: EZIPEK_clean_linker_0, # of connection points: 2
#     Edge 41, Type (0, 0), BuildingBlock: EZIPEK_clean_linker_0, # of connection points: 2
#     Edge 42, Type (0, 0), BuildingBlock: EZIPEK_clean_linker_0, # of connection points: 2
#     Edge 43, Type (0, 0), BuildingBlock: EZIPEK_clean_linker_0, # of connection points: 2
#     Edge 44, Type (0, 0), BuildingBlock: EZIPEK_clean_linker_0, # of connection points: 2
#     Edge 45, Type (0, 0), BuildingBlock: EZIPEK_clean_linker_0, # of connection points: 2
#     Edge 46, Type (0, 0), BuildingBlock: EZIPEK_clean_linker_0, # of connection points: 2
#     Edge 47, Type (0, 0), BuildingBlock: EZIPEK_clean_linker_0, # of connection points: 2
# Relax obj value: 0.171
# Max RMSD: 0.161
# Mean RMSD: 0.161
data_MOF--net-mon--node1-KUFVIS_clean_sbu_0--edge1-EZIPEK_clean_linker_0
_symmetry_space_group_name_H-M    P1
_symmetry_Int_Tables_number       1
_symmetry_cell_setting            triclinic
loop_
_symmetry_equiv_pos_as_xyz
'x, y, z'
_cell_length_a     24.454244
_cell_length_b     24.442166
_cell_length_c     61.121245
_cell_angle_alpha  89.870252
_cell_angle_beta   90.045816
_cell_angle_gamma 89.973366
loop_
_atom_site_label
_atom_site_type_symbol
_atom_site_fract_x
_atom_site_fract_y
_atom_site_fract_z
_atom_type_partial_charge
Mn0 Mn 0.03458 0.02739 0.59948 0.0
Mn1 Mn 0.92947 0.07547 0.56901 0.0
C2 C 0.94512 0.0195 0.61248 0.0
C3 C 0.09277 0.9582 0.61232 0.0
C4 C 0.01324 0.1489 0.59086 0.0
O5 O 0.06626 0.02692 0.56859 0.0
O6 O 0.99064 0.05242 0.54949 0.0
C7 C 0.89186 0.98403 0.5412 0.0
N8 N 0.88207 0.02022 0.55768 0.0
C9 C 0.78664 0.9961 0.55845 0.0
C10 C 0.79612 0.95743 0.54196 0.0
C11 C 0.84893 0.95149 0.53327 0.0
C12 C 0.83107 0.02716 0.56578 0.0
H13 H 0.93197 0.98032 0.53404 0.0
C14 C 0.04041 0.03552 0.55069 0.0
O15 O 0.10623 0.00941 0.61333 0.0
O16 O 0.04683 0.94669 0.60272 0.0
N17 N 0.86906 0.09631 0.58697 0.0
C18 C 0.86691 0.13539 0.60281 0.0
C19 C 0.81703 0.14626 0.61327 0.0
C20 C 0.76996 0.11706 0.60725 0.0
C21 C 0.77346 0.07619 0.59125 0.0
C22 C 0.82439 0.06686 0.58153 0.0
H23 H 0.90291 0.15828 0.60734 0.0
O24 O 0.98667 0.0234 0.62568 0.0
O25 O 0.95707 0.02579 0.59189 0.0
O26 O 0.03978 0.11158 0.6008 0.0
O27 O 0.97251 0.13884 0.57864 0.0
C28 C 0.72832 0.04477 0.5844 0.0
C29 C 0.73482 1.00503 0.5679 0.0
H30 H 0.76307 0.93236 0.53576 0.0
H31 H 0.85641 0.92234 0.52031 0.0
H32 H 0.81471 0.17753 0.62574 0.0
H33 H 0.73128 0.12681 0.61486 0.0
H34 H 0.68839 0.05105 0.59164 0.0
H35 H 0.69976 0.98135 0.56266 0.0
Mn36 Mn 0.28951 0.74443 0.84809 0.0
Mn37 Mn 0.24297 0.63305 0.82106 0.0
C38 C 0.30015 0.65692 0.86329 0.0
C39 C 0.35675 0.80703 0.85906 0.0
C40 C 0.16809 0.71758 0.84158 0.0
O41 O 0.28752 0.77111 0.81641 0.0
O42 O 0.26112 0.69234 0.79984 0.0
C43 C 0.3357 0.59739 0.79344 0.0
N44 N 0.29973 0.58712 0.80997 0.0
C45 C 0.32704 0.49256 0.81161 0.0
C46 C 0.36516 0.50244 0.79492 0.0
C47 C 0.36954 0.5551 0.78583 0.0
C48 C 0.29491 0.53645 0.81871 0.0
H49 H 0.33839 0.63745 0.78605 0.0
C50 C 0.27751 0.74228 0.79939 0.0
O51 O 0.30514 0.81865 0.85999 0.0
O52 O 0.3699 0.76019 0.85055 0.0
N53 N 0.22627 0.57383 0.84032 0.0
C54 C 0.18788 0.57146 0.85643 0.0
C55 C 0.1783 0.52168 0.86721 0.0
C56 C 0.20806 0.47497 0.86122 0.0
C57 C 0.2485 0.47878 0.84503 0.0
C58 C 0.25636 0.52957 0.83492 0.0
H59 H 0.16426 0.6071 0.86084 0.0
O60 O 0.29606 0.70019 0.87552 0.0
O61 O 0.2929 0.66584 0.84253 0.0
O62 O 0.20542 0.74765 0.84965 0.0
O63 O 0.17866 0.6741 0.83107 0.0
C64 C 0.28063 0.43407 0.83825 0.0
C65 C 0.31978 0.44091 0.82151 0.0
H66 H 0.39113 0.46986 0.78893 0.0
H67 H 0.39851 0.56293 0.77282 0.0
H68 H 0.14739 0.51908 0.87983 0.0
H69 H 0.19884 0.43632 0.86896 0.0
H70 H 0.27544 0.3942 0.84574 0.0
H71 H 0.3442 0.40623 0.81642 0.0
Mn72 Mn 0.55694 0.99619 0.0958 0.0
Mn73 Mn 0.66593 0.94785 0.068 0.0
C74 C 0.64485 1.00643 0.11052 0.0
C75 C 0.49475 0.06349 0.1062 0.0
C76 C 0.58002 0.87457 0.08874 0.0
O77 O 0.52898 0.99412 0.06441 0.0
O78 O 0.60694 0.96881 0.04701 0.0
C79 C 0.70506 0.03903 0.04025 0.0
N80 N 0.71378 1.0032 0.05702 0.0
C81 C 0.80888 0.02807 0.05905 0.0
C82 C 0.80059 0.06614 0.04216 0.0
C83 C 0.74846 0.07159 0.03271 0.0
C84 C 0.76403 0.99699 0.06596 0.0
H85 H 0.66541 0.04253 0.0326 0.0
C86 C 0.55694 0.98519 0.04711 0.0
O87 O 0.48318 0.012 0.10772 0.0
O88 O 0.54175 0.0766 0.09779 0.0
N89 N 0.72447 0.92878 0.08727 0.0
C90 C 0.72528 0.89061 0.10353 0.0
C91 C 0.77419 0.88055 0.11486 0.0
C92 C 0.82167 0.90961 0.10925 0.0
C93 C 0.81951 0.94961 0.09278 0.0
C94 C 0.76947 0.95814 0.0822 0.0
H95 H 0.68896 0.86779 0.10774 0.0
O96 O 0.60178 1.00287 0.12291 0.0
O97 O 0.63533 0.99877 0.08978 0.0
O98 O 0.55276 0.91236 0.09789 0.0
O99 O 0.62261 0.88409 0.07748 0.0
C100 C 0.86509 0.9809 0.08629 0.0
C101 C 0.85987 0.01985 0.06934 0.0
H102 H 0.83399 0.09123 0.03626 0.0
H103 H 0.74188 0.10043 0.01951 0.0
H104 H 0.77549 0.84998 0.12769 0.0
H105 H 0.85959 0.90044 0.11757 0.0
H106 H 0.9044 0.97518 0.09416 0.0
H107 H 0.89524 0.04352 0.06442 0.0
Mn108 Mn 0.31303 0.27366 0.3461 0.0
Mn109 Mn 0.35049 0.3791 0.31343 0.0
C110 C 0.29894 0.36474 0.35717 0.0
C111 C 0.24879 0.2118 0.3601 0.0
C112 C 0.4323 0.30603 0.33706 0.0
O113 O 0.31536 0.23776 0.31566 0.0
O114 O 0.33617 0.31295 0.29564 0.0
C115 C 0.2455 0.39354 0.2899 0.0
N116 N 0.28584 0.41433 0.30282 0.0
C117 C 0.24064 0.50164 0.30469 0.0
C118 C 0.19851 0.4811 0.29148 0.0
C119 C 0.20093 0.42677 0.28408 0.0
C120 C 0.28357 0.46632 0.31024 0.0
H121 H 0.24711 0.35181 0.28418 0.0
C122 C 0.32357 0.26226 0.29736 0.0
O123 O 0.30082 0.20255 0.36164 0.0
O124 O 0.23378 0.25521 0.34954 0.0
N125 N 0.36464 0.44608 0.32853 0.0
C126 C 0.41043 0.46063 0.33984 0.0
C127 C 0.41624 0.51467 0.34724 0.0
C128 C 0.37533 0.55336 0.34266 0.0
C129 C 0.32914 0.53777 0.33058 0.0
C130 C 0.32591 0.48349 0.32343 0.0
H131 H 0.44248 0.43133 0.34311 0.0
O132 O 0.30469 0.32594 0.37152 0.0
O133 O 0.30666 0.34932 0.33721 0.0
O134 O 0.39681 0.2765 0.34676 0.0
O135 O 0.41934 0.34582 0.32445 0.0
C136 C 0.2865 0.57413 0.32513 0.0
C137 C 0.24195 0.5559 0.31241 0.0
H138 H 0.16425 0.50673 0.28683 0.0
H139 H 0.16859 0.4106 0.27388 0.0
H140 H 0.45219 0.52648 0.35641 0.0
H141 H 0.37985 0.59496 0.34847 0.0
H142 H 0.28755 0.61619 0.33065 0.0
H143 H 0.20931 0.58417 0.30839 0.0
Mn144 Mn 0.03546 0.9978 0.41424 0.0
Mn145 Mn 0.92739 0.94446 0.44134 0.0
C146 C 0.94714 1.00835 0.39987 0.0
C147 C 0.09748 0.06612 0.40401 0.0
C148 C 0.01444 0.87563 0.41876 0.0
O149 O 0.06359 0.99077 0.44586 0.0
O150 O 0.98517 0.96415 0.46255 0.0
C151 C 0.88735 0.03328 0.46995 0.0
N152 N 0.87883 0.99834 0.45292 0.0
C153 C 0.78369 0.02304 0.45105 0.0
C154 C 0.79177 0.06019 0.46821 0.0
C155 C 0.84383 0.06528 0.4777 0.0
C156 C 0.82874 0.99266 0.44386 0.0
H157 H 0.927 0.0366 0.47762 0.0
C158 C 0.03505 0.98027 0.46301 0.0
O159 O 0.10883 0.01471 0.40216 0.0
O160 O 0.05128 0.07863 0.4133 0.0
N161 N 0.86885 0.926 0.42199 0.0
C162 C 0.86753 0.88712 0.40608 0.0
C163 C 0.8182 0.87626 0.39519 0.0
C164 C 0.77066 0.90496 0.401 0.0
C165 C 0.77313 0.94534 0.41721 0.0
C166 C 0.82356 0.95466 0.42737 0.0
H167 H 0.90356 0.86389 0.40205 0.0
O168 O 0.9901 1.00776 0.38736 0.0
O169 O 0.95708 0.99842 0.42042 0.0
O170 O 0.03979 0.91508 0.40996 0.0
O171 O 0.97312 0.88234 0.43113 0.0
C172 C 0.7273 0.97577 0.42406 0.0
C173 C 0.73259 0.01464 0.44095 0.0
H174 H 0.7582 0.08469 0.47432 0.0
H175 H 0.85026 0.09337 0.49112 0.0
H176 H 0.81656 0.84507 0.38267 0.0
H177 H 0.73233 0.89497 0.39316 0.0
H178 H 0.68764 0.96922 0.41664 0.0
H179 H 0.69701 0.0376 0.44613 0.0
Mn180 Mn 0.31135 0.74294 0.66122 0.0
Mn181 Mn 0.36645 0.63258 0.68594 0.0
C182 C 0.30234 0.65715 0.64481 0.0
C183 C 0.23976 0.8032 0.65335 0.0
C184 C 0.43339 0.72467 0.66553 0.0
O185 O 0.31925 0.76649 0.69334 0.0
O186 O 0.34205 0.68506 0.70867 0.0
C187 C 0.27941 0.58125 0.7125 0.0
N188 N 0.31485 0.57879 0.69532 0.0
C189 C 0.29515 0.48337 0.68972 0.0
C190 C 0.25738 0.48531 0.70696 0.0
C191 C 0.24953 0.53446 0.71841 0.0
C192 C 0.32339 0.53143 0.68445 0.0
H193 H 0.27404 0.6186 0.72166 0.0
C194 C 0.32693 0.73528 0.71 0.0
O195 O 0.29041 0.81743 0.65108 0.0
O196 O 0.23019 0.75518 0.66166 0.0
N197 N 0.38909 0.57965 0.66482 0.0
C198 C 0.42852 0.5841 0.64919 0.0
C199 C 0.44205 0.53836 0.63649 0.0
C200 C 0.41538 0.48837 0.64016 0.0
C201 C 0.37437 0.48489 0.65614 0.0
C202 C 0.3623 0.53205 0.66815 0.0
H203 H 0.45017 0.62194 0.64669 0.0
O204 O 0.30151 0.70204 0.63337 0.0
O205 O 0.31264 0.66404 0.66551 0.0
O206 O 0.394 0.74956 0.65637 0.0
O207 O 0.42653 0.68314 0.67782 0.0
C208 C 0.34586 0.43625 0.66094 0.0
C209 C 0.30626 0.43549 0.67771 0.0
H210 H 0.23447 0.44923 0.71164 0.0
H211 H 0.22092 0.53612 0.73189 0.0
H212 H 0.4737 0.54133 0.62418 0.0
H213 H 0.42754 0.45282 0.63087 0.0
H214 H 0.35448 0.39902 0.65201 0.0
H215 H 0.28488 0.39776 0.68135 0.0
Mn216 Mn 0.56952 0.02654 0.91134 0.0
Mn217 Mn 0.67768 0.07119 0.94087 0.0
C218 C 0.65845 0.01574 0.89799 0.0
C219 C 0.50844 0.95925 0.8993 0.0
C220 C 0.59805 0.14786 0.9184 0.0
O221 O 0.53828 0.02804 0.94209 0.0
O222 O 0.61385 0.05632 0.96037 0.0
C223 C 0.70387 0.97817 0.97018 0.0
N224 N 0.71894 0.01322 0.95389 0.0
C225 C 0.81241 0.9826 0.95582 0.0
C226 C 0.79765 0.9455 0.97233 0.0
C227 C 0.74314 0.94326 0.97951 0.0
C228 C 0.77141 0.016 0.94699 0.0
H229 H 0.66231 0.97706 0.97611 0.0
C230 C 0.5641 0.03934 0.95969 0.0
O231 O 0.49682 0.01086 0.89784 0.0
O232 O 0.55439 0.94626 0.90856 0.0
N233 N 0.74118 0.08466 0.92351 0.0
C234 C 0.74819 0.12164 0.90705 0.0
C235 C 0.8002 0.12828 0.89773 0.0
C236 C 0.84436 0.09717 0.90559 0.0
C237 C 0.83584 0.05848 0.9222 0.0
C238 C 0.78302 0.05337 0.93072 0.0
H239 H 0.71444 0.14617 0.9012 0.0
O240 O 0.61677 0.02078 0.88492 0.0
O241 O 0.64724 0.02206 0.91861 0.0
O242 O 0.56715 0.11108 0.91032 0.0
O243 O 0.64127 0.13638 0.92898 0.0
C244 C 0.87779 0.02526 0.93082 0.0
C245 C 0.86616 0.9876 0.94772 0.0
H246 H 0.82787 0.91868 0.97964 0.0
H247 H 0.73154 0.9151 0.99238 0.0
H248 H 0.80643 0.1579 0.88479 0.0
H249 H 0.88472 0.10382 0.89894 0.0
H250 H 0.91912 0.02837 0.92457 0.0
H251 H 0.89872 0.96225 0.95421 0.0
Mn252 Mn 0.27441 0.27012 0.16105 0.0
Mn253 Mn 0.2452 0.37849 0.19259 0.0
C254 C 0.28042 0.35807 0.1449 0.0
C255 C 0.33739 0.20754 0.14699 0.0
C256 C 0.15861 0.30093 0.17466 0.0
O257 O 0.28325 0.23816 0.19184 0.0
O258 O 0.26839 0.31519 0.21082 0.0
C259 C 0.35724 0.39867 0.20904 0.0
N260 N 0.3106 0.41751 0.19945 0.0
C261 C 0.34424 0.50987 0.19955 0.0
C262 C 0.39267 0.49156 0.20946 0.0
C263 C 0.39938 0.4356 0.21405 0.0
C264 C 0.30458 0.47083 0.19421 0.0
H265 H 0.36208 0.35586 0.21292 0.0
C266 C 0.28067 0.2645 0.20976 0.0
O267 O 0.28553 0.19631 0.14766 0.0
O268 O 0.35271 0.25396 0.15511 0.0
N269 N 0.22118 0.44479 0.179 0.0
C270 C 0.16994 0.45646 0.17144 0.0
C271 C 0.15527 0.51098 0.16709 0.0
C272 C 0.19248 0.55331 0.17144 0.0
C273 C 0.24389 0.54074 0.18028 0.0
C274 C 0.25653 0.48555 0.18399 0.0
H275 H 0.14028 0.42446 0.16876 0.0
O276 O 0.26797 0.31493 0.13374 0.0
O277 O 0.28318 0.34936 0.16609 0.0
O278 O 0.19137 0.27054 0.16406 0.0
O279 O 0.17442 0.34176 0.18604 0.0
C280 C 0.28267 0.58094 0.18597 0.0
C281 C 0.33324 0.56542 0.19521 0.0
H282 H 0.42477 0.52011 0.21376 0.0
H283 H 0.43658 0.4211 0.22172 0.0
H284 H 0.11506 0.52041 0.1607 0.0
H285 H 0.18085 0.59534 0.16824 0.0
H286 H 0.27416 0.62388 0.18315 0.0
H287 H 0.36294 0.59664 0.19932 0.0
Mn288 Mn 0.81133 0.24794 0.16255 0.0
Mn289 Mn 0.85952 0.13912 0.19057 0.0
C290 C 0.80162 0.16026 0.14764 0.0
C291 C 0.74323 0.30975 0.15246 0.0
C292 C 0.93217 0.22751 0.17114 0.0
O293 O 0.81313 0.27518 0.19403 0.0
O294 O 0.83411 0.19587 0.21159 0.0
C295 C 0.76884 0.09346 0.21679 0.0
N296 N 0.80529 0.08814 0.20007 0.0
C297 C 0.78366 0.99261 0.19609 0.0
C298 C 0.74468 0.99756 0.21279 0.0
C299 C 0.73734 0.04819 0.22322 0.0
C300 C 0.81363 0.03922 0.19032 0.0
H301 H 0.76417 0.13181 0.22529 0.0
C302 C 0.81924 0.24637 0.21136 0.0
O303 O 0.79455 0.3219 0.15081 0.0
O304 O 0.73082 0.2623 0.16066 0.0
N305 N 0.88263 0.08308 0.17089 0.0
C306 C 0.92241 0.08513 0.15533 0.0
C307 C 0.9349 0.03788 0.14334 0.0
C308 C 0.90661 0.98905 0.14758 0.0
C309 C 0.86503 0.98822 0.16337 0.0
C310 C 0.854 0.03678 0.17463 0.0
H311 H 0.94467 0.12244 0.15217 0.0
O312 O 0.80496 0.2036 0.13533 0.0
O313 O 0.80935 0.16953 0.16839 0.0
O314 O 0.89508 0.25265 0.16058 0.0
O315 O 0.92229 0.18584 0.18291 0.0
C316 C 0.8346 0.94104 0.1686 0.0
C317 C 0.79412 0.94317 0.18502 0.0
H318 H 0.72045 0.96267 0.21785 0.0
H319 H 0.70793 0.05215 0.23634 0.0
H320 H 0.96673 0.0389 0.13105 0.0
H321 H 0.91762 0.95241 0.13874 0.0
H322 H 0.84233 0.90278 0.16025 0.0
H323 H 0.7713 0.90652 0.18902 0.0
Mn324 Mn 0.78162 0.77381 0.66172 0.0
Mn325 Mn 0.73205 0.8818 0.69011 0.0
C326 C 0.79018 0.86253 0.64767 0.0
C327 C 0.84982 0.71395 0.64929 0.0
C328 C 0.65955 0.79749 0.66826 0.0
O329 O 0.78118 0.74468 0.69303 0.0
O330 O 0.75106 0.82086 0.71055 0.0
C331 C 0.82195 0.91723 0.71926 0.0
N332 N 0.78714 0.92798 0.70236 0.0
C333 C 0.81219 0.02324 0.70235 0.0
C334 C 0.84921 0.01286 0.7194 0.0
C335 C 0.85407 0.95963 0.72789 0.0
C336 C 0.78155 0.97929 0.69431 0.0
H337 H 0.82489 0.87676 0.72625 0.0
C338 C 0.76962 0.77161 0.7104 0.0
O339 O 0.79849 0.70108 0.64871 0.0
O340 O 0.86228 0.76011 0.65853 0.0
N341 N 0.71494 0.94241 0.67154 0.0
C342 C 0.67823 0.94516 0.6548 0.0
C343 C 0.66935 0.99533 0.64416 0.0
C344 C 0.69798 0.04207 0.65098 0.0
C345 C 0.73641 0.03794 0.66794 0.0
C346 C 0.74395 0.98672 0.67775 0.0
H347 H 0.65572 0.9094 0.64967 0.0
O348 O 0.78636 0.82012 0.63496 0.0
O349 O 0.78341 0.85207 0.66836 0.0
O350 O 0.69768 0.76854 0.66019 0.0
O351 O 0.66881 0.84054 0.67921 0.0
C352 C 0.76715 0.08269 0.67562 0.0
C353 C 0.80466 0.07545 0.69295 0.0
H354 H 0.87392 0.0455 0.72615 0.0
H355 H 0.88203 0.95143 0.74124 0.0
H356 H 0.63999 0.99815 0.63095 0.0
H357 H 0.68973 0.08098 0.64322 0.0
H358 H 0.76215 0.12286 0.66837 0.0
H359 H 0.82797 0.11018 0.69876 0.0
Mn360 Mn 0.77907 0.24804 0.34768 0.0
Mn361 Mn 0.72375 0.13829 0.32289 0.0
C362 C 0.78997 0.16151 0.36364 0.0
C363 C 0.84965 0.30958 0.3547 0.0
C364 C 0.65702 0.22998 0.34374 0.0
O365 O 0.76965 0.27271 0.31581 0.0
O366 O 0.74608 0.19195 0.30034 0.0
C367 C 0.81035 0.08998 0.2953 0.0
N368 N 0.77566 0.08583 0.31268 0.0
C369 C 0.79643 0.99023 0.31707 0.0
C370 C 0.83343 0.99385 0.2996 0.0
C371 C 0.84039 0.04396 0.28867 0.0
C372 C 0.76807 0.03762 0.3231 0.0
H373 H 0.815 0.12807 0.28651 0.0
C374 C 0.76118 0.24211 0.29913 0.0
O375 O 0.79892 0.32256 0.35767 0.0
O376 O 0.85987 0.26161 0.34651 0.0
N377 N 0.703 0.08386 0.34379 0.0
C378 C 0.6646 0.0869 0.35985 0.0
C379 C 0.65223 0.04006 0.3722 0.0
C380 C 0.6789 0.99048 0.36768 0.0
C381 C 0.71882 0.98848 0.35124 0.0
C382 C 0.72996 0.0367 0.3397 0.0
H383 H 0.64304 0.12453 0.36297 0.0
O384 O 0.79099 0.20593 0.3753 0.0
O385 O 0.77834 0.16929 0.34308 0.0
O386 O 0.69664 0.25407 0.35299 0.0
O387 O 0.6634 0.18814 0.33162 0.0
C388 C 0.7471 0.94034 0.34552 0.0
C389 C 0.78601 0.94126 0.32851 0.0
H390 H 0.85637 0.95832 0.29434 0.0
H391 H 0.86836 0.04694 0.27501 0.0
H392 H 0.62148 0.0419 0.3849 0.0
H393 H 0.66786 0.95412 0.37677 0.0
H394 H 0.73876 0.90215 0.35385 0.0
H395 H 0.80728 0.90392 0.32421 0.0
Mn396 Mn 0.81798 0.77251 0.8477 0.0
Mn397 Mn 0.87565 0.87855 0.82058 0.0
C398 C 0.81328 0.86056 0.86235 0.0
C399 C 0.74624 0.71595 0.85935 0.0
C400 C 0.94117 0.78821 0.84271 0.0
O401 O 0.81972 0.74533 0.81588 0.0
O402 O 0.85199 0.82199 0.79928 0.0
C403 C 0.789 0.92434 0.79209 0.0
N404 N 0.8241 0.93022 0.80928 0.0
C405 C 0.80363 0.02632 0.81193 0.0
C406 C 0.76626 0.02093 0.79465 0.0
C407 C 0.75904 0.96974 0.78466 0.0
C408 C 0.83211 0.97956 0.81873 0.0
H409 H 0.78402 0.88537 0.78405 0.0
C410 C 0.83139 0.77366 0.79876 0.0
O411 O 0.79674 0.70024 0.86003 0.0
O412 O 0.73645 0.76276 0.84998 0.0
N413 N 0.89742 0.9355 0.84013 0.0
C414 C 0.9362 0.93417 0.85612 0.0
C415 C 0.94888 0.98222 0.86755 0.0
C416 C 0.92195 0.03121 0.86226 0.0
C417 C 0.88157 0.03146 0.84597 0.0
C418 C 0.87045 0.98219 0.83522 0.0
H419 H 0.9579 0.89697 0.85988 0.0
O420 O 0.81358 0.81728 0.87474 0.0
O421 O 0.82126 0.85091 0.84168 0.0
O422 O 0.90087 0.76294 0.85094 0.0
O423 O 0.93568 0.83023 0.83061 0.0
C424 C 0.85271 0.07885 0.83968 0.0
C425 C 0.8139 0.07632 0.82262 0.0
H426 H 0.74321 0.0559 0.78882 0.0
H427 H 0.73081 0.96541 0.77113 0.0
H428 H 0.98003 0.98173 0.88014 0.0
H429 H 0.93339 0.06855 0.87052 0.0
H430 H 0.86038 0.11753 0.84773 0.0
H431 H 0.79223 0.11311 0.81782 0.0
Mn432 Mn 0.53061 0.53127 0.10129 0.0
Mn433 Mn 0.42542 0.56549 0.0681 0.0
C434 C 0.43984 0.51729 0.11285 0.0
C435 C 0.59372 0.4674 0.11477 0.0
C436 C 0.5015 0.64885 0.08924 0.0
O437 O 0.56546 0.53158 0.07061 0.0
O438 O 0.48898 0.54288 0.05011 0.0
C439 C 0.40085 0.45841 0.04776 0.0
N440 N 0.38479 0.50165 0.06022 0.0
C441 C 0.29484 0.46346 0.06472 0.0
C442 C 0.31075 0.41806 0.05226 0.0
C443 C 0.364 0.41556 0.04374 0.0
C444 C 0.33366 0.50446 0.0685 0.0
H445 H 0.44145 0.4566 0.04097 0.0
C446 C 0.54022 0.53295 0.0522 0.0
O447 O 0.60264 0.51956 0.11616 0.0
O448 O 0.54935 0.45226 0.10497 0.0
N449 N 0.36142 0.58687 0.08394 0.0
C450 C 0.35184 0.6345 0.09484 0.0
C451 C 0.29965 0.64466 0.10351 0.0
C452 C 0.25768 0.60612 0.10065 0.0
C453 C 0.26821 0.55788 0.08901 0.0
C454 C 0.32099 0.55003 0.08072 0.0
H455 H 0.38369 0.66463 0.09687 0.0
O456 O 0.47896 0.52354 0.12701 0.0
O457 O 0.45506 0.52469 0.09281 0.0
O458 O 0.52722 0.61511 0.10141 0.0
O459 O 0.46418 0.63434 0.07577 0.0
C460 C 0.22832 0.51738 0.08524 0.0
C461 C 0.2418 0.46991 0.07332 0.0
H462 H 0.28228 0.38515 0.04898 0.0
H463 H 0.37652 0.38087 0.03398 0.0
H464 H 0.29176 0.68215 0.11236 0.0
H465 H 0.21753 0.614 0.10742 0.0
H466 H 0.18725 0.52216 0.09157 0.0
H467 H 0.21089 0.4389 0.07066 0.0
Mn468 Mn 0.05825 0.49864 0.5925 0.0
Mn469 Mn 0.16625 0.45008 0.56397 0.0
C470 C 0.14668 0.50708 0.60662 0.0
C471 C 0.9986 0.56753 0.60427 0.0
C472 C 0.08346 0.37658 0.58634 0.0
O473 O 0.02858 0.49707 0.56116 0.0
O474 O 0.10491 0.46802 0.54358 0.0
C475 C 0.19918 0.54305 0.53578 0.0
N476 N 0.21116 0.50666 0.55201 0.0
C477 C 0.30547 0.53484 0.55248 0.0
C478 C 0.29389 0.5733 0.53605 0.0
C479 C 0.2405 0.57744 0.52768 0.0
C480 C 0.26252 0.50207 0.56005 0.0
H481 H 0.15848 0.54571 0.529 0.0
C482 C 0.05524 0.48531 0.54375 0.0
O483 O 0.98554 0.51627 0.60548 0.0
O484 O 0.0448 0.57941 0.59497 0.0
N485 N 0.22731 0.43329 0.58228 0.0
C486 C 0.2312 0.39501 0.59844 0.0
C487 C 0.28182 0.38585 0.6086 0.0
C488 C 0.32779 0.41597 0.60198 0.0
C489 C 0.32246 0.45618 0.58572 0.0
C490 C 0.27093 0.46353 0.5762 0.0
H491 H 0.19609 0.37126 0.60338 0.0
O492 O 0.10419 0.50392 0.61931 0.0
O493 O 0.13633 0.50054 0.58591 0.0
O494 O 0.0542 0.41446 0.59452 0.0
O495 O 0.12579 0.38614 0.57492 0.0
C496 C 0.36633 0.48874 0.57839 0.0
C497 C 0.35788 0.52791 0.56172 0.0
H498 H 0.32569 0.59976 0.5297 0.0
H499 H 0.23135 0.60673 0.51489 0.0
H500 H 0.28559 0.35508 0.62128 0.0
H501 H 0.36703 0.40732 0.60932 0.0
H502 H 0.40671 0.48398 0.58544 0.0
H503 H 0.39189 0.55277 0.55623 0.0
Mn504 Mn 0.5434 0.49864 0.91566 0.0
Mn505 Mn 0.43733 0.43871 0.94162 0.0
C506 C 0.45591 0.50449 0.90055 0.0
C507 C 0.59943 0.57233 0.90611 0.0
C508 C 0.52812 0.37521 0.91892 0.0
O509 O 0.5705 0.49242 0.94749 0.0
O510 O 0.49301 0.46118 0.96358 0.0
C511 C 0.39018 0.52437 0.97009 0.0
N512 N 0.38498 0.48948 0.95284 0.0
C513 C 0.28918 0.51041 0.9493 0.0
C514 C 0.29385 0.54753 0.96666 0.0
C515 C 0.34455 0.55447 0.97712 0.0
C516 C 0.33616 0.48192 0.94288 0.0
H517 H 0.42883 0.52921 0.97842 0.0
C518 C 0.54196 0.48018 0.96445 0.0
O519 O 0.61566 0.5222 0.9041 0.0
O520 O 0.55237 0.58034 0.91542 0.0
N521 N 0.38129 0.41753 0.92153 0.0
C522 C 0.3833 0.37889 0.90554 0.0
C523 C 0.33572 0.36607 0.89381 0.0
C524 C 0.28648 0.39268 0.89882 0.0
C525 C 0.2855 0.43296 0.91512 0.0
C526 C 0.33432 0.44411 0.92621 0.0
H527 H 0.4206 0.35723 0.90204 0.0
O528 O 0.49955 0.50625 0.88847 0.0
O529 O 0.46501 0.49457 0.92117 0.0
O530 O 0.55282 0.41616 0.91085 0.0
O531 O 0.48665 0.37977 0.93135 0.0
C532 C 0.23783 0.46158 0.92113 0.0
C533 C 0.23967 0.50031 0.9382 0.0
H534 H 0.2587 0.57065 0.9722 0.0
H535 H 0.34835 0.58261 0.99068 0.0
H536 H 0.33675 0.33498 0.88124 0.0
H537 H 0.24958 0.38092 0.89032 0.0
H538 H 0.19943 0.45382 0.91286 0.0
H539 H 0.2027 0.52189 0.94274 0.0
Mn540 Mn 0.05981 0.5319 0.40635 0.0
Mn541 Mn 0.17076 0.56624 0.43563 0.0
C542 C 0.1457 0.52935 0.38868 0.0
C543 C 0.99824 0.4673 0.39254 0.0
C544 C 0.08895 0.64964 0.41879 0.0
O545 O 0.03202 0.51985 0.43744 0.0
O546 O 0.10864 0.54549 0.45474 0.0
C547 C 0.19126 0.45576 0.45385 0.0
N548 N 0.20986 0.50144 0.44345 0.0
C549 C 0.30226 0.46797 0.44406 0.0
C550 C 0.28421 0.42057 0.45482 0.0
C551 C 0.22835 0.41422 0.45955 0.0
C552 C 0.26305 0.50696 0.43804 0.0
H553 H 0.14852 0.4512 0.45784 0.0
C554 C 0.05939 0.52839 0.4548 0.0
O555 O 0.98501 0.51858 0.39411 0.0
O556 O 0.04628 0.4534 0.39956 0.0
N557 N 0.2366 0.58871 0.42141 0.0
C558 C 0.24814 0.63942 0.41321 0.0
C559 C 0.30256 0.65379 0.40864 0.0
C560 C 0.34499 0.61701 0.4135 0.0
C561 C 0.33263 0.56639 0.42311 0.0
C562 C 0.27751 0.55395 0.42698 0.0
H563 H 0.21609 0.66887 0.41018 0.0
O564 O 0.10116 0.54214 0.37847 0.0
O565 O 0.14002 0.52573 0.41 0.0
O566 O 0.05632 0.61484 0.41054 0.0
O567 O 0.13393 0.63597 0.42789 0.0
C568 C 0.37299 0.5283 0.42945 0.0
C569 C 0.35772 0.47865 0.43954 0.0
H570 H 0.31289 0.38899 0.45966 0.0
H571 H 0.21405 0.3778 0.46785 0.0
H572 H 0.31184 0.69349 0.40171 0.0
H573 H 0.38695 0.62846 0.41016 0.0
H574 H 0.41586 0.53666 0.42652 0.0
H575 H 0.38905 0.44948 0.44416 0.0
C576 C 0.03668 0.23823 0.61002 0.0
C577 C 0.03422 0.20628 0.59066 0.0
C578 C 0.05867 0.28708 0.56878 0.0
C579 C 0.06546 0.31827 0.58821 0.0
N580 N 0.07049 0.32071 0.6276 0.0
N581 N 0.0543 0.19774 0.55215 0.0
C582 C 0.057 0.2931 0.60895 0.0
C583 C 0.04856 0.23006 0.57023 0.0
N584 N 0.01776 0.21692 0.62925 0.0
N585 N 0.05953 0.31221 0.54877 0.0
H586 H 0.04706 0.1558 0.55233 0.0
H587 H 0.0713 0.21143 0.5375 0.0
H588 H 0.06701 0.35376 0.54665 0.0
H589 H 0.04774 0.29293 0.53434 0.0
H590 H 0.01282 0.23997 0.64342 0.0
H591 H 1.00292 0.17704 0.6306 0.0
H592 H 0.07063 0.30273 0.64306 0.0
H593 H 0.08625 0.36036 0.62744 0.0
C594 C 0.01752 0.734 0.82689 0.0
C595 C 0.99685 0.76402 0.84472 0.0
C596 C 0.08624 0.75504 0.86289 0.0
C597 C 0.10926 0.73464 0.84307 0.0
N598 N 0.09602 0.71817 0.80421 0.0
N599 N 0.01124 0.80433 0.88012 0.0
C600 C 0.07466 0.72767 0.82451 0.0
C601 C 0.03118 0.77506 0.86289 0.0
N602 N 0.98241 0.70985 0.81252 0.0
N603 N 0.11549 0.75254 0.88192 0.0
H604 H 0.97022 0.81581 0.88121 0.0
H605 H 0.03584 0.81926 0.89267 0.0
H606 H 0.15435 0.73521 0.88291 0.0
H607 H 0.09903 0.76233 0.89712 0.0
H608 H 0.99553 0.68363 0.80015 0.0
H609 H 0.94011 0.71085 0.81476 0.0
H610 H 0.07199 0.71757 0.79011 0.0
H611 H 0.1378 0.71779 0.80097 0.0
C612 C 0.53719 0.73208 0.06947 0.0
C613 C 0.51935 0.70737 0.08928 0.0
C614 C 0.54587 0.79071 0.10931 0.0
C615 C 0.55876 0.81709 0.08921 0.0
N616 N 0.55514 0.81555 0.04962 0.0
N617 N 0.49708 0.71696 0.12749 0.0
C618 C 0.55115 0.7885 0.06916 0.0
C619 C 0.52099 0.73779 0.10907 0.0
N620 N 0.54339 0.70124 0.05099 0.0
N621 N 0.55963 0.81498 0.12866 0.0
H622 H 0.47752 0.67903 0.12779 0.0
H623 H 0.49201 0.73938 0.14181 0.0
H624 H 0.57918 0.85283 0.12951 0.0
H625 H 0.55646 0.79534 0.14375 0.0
H626 H 0.56287 0.71552 0.03695 0.0
H627 H 0.53398 0.65978 0.05023 0.0
H628 H 0.54322 0.79847 0.03476 0.0
H629 H 0.56515 0.85676 0.04829 0.0
C630 C 0.58463 0.28521 0.32519 0.0
C631 C 0.60208 0.25649 0.34403 0.0
C632 C 0.51243 0.27439 0.36061 0.0
C633 C 0.49167 0.29176 0.33986 0.0
N634 N 0.50925 0.30154 0.30086 0.0
N635 N 0.58233 0.22298 0.38019 0.0
C636 C 0.52812 0.29426 0.32172 0.0
C637 C 0.56588 0.25081 0.36196 0.0
N638 N 0.62219 0.3056 0.31087 0.0
N639 N 0.48258 0.28305 0.37916 0.0
H640 H 0.62212 0.20828 0.3821 0.0
H641 H 0.55573 0.21209 0.39277 0.0
H642 H 0.44548 0.30409 0.37913 0.0
H643 H 0.49757 0.27524 0.39482 0.0
H644 H 0.61155 0.33097 0.29779 0.0
H645 H 0.66414 0.30224 0.31362 0.0
H646 H 0.53468 0.29867 0.28722 0.0
H647 H 0.46799 0.30351 0.29679 0.0
C648 C 0.07169 0.80024 0.43433 0.0
C649 C 0.03854 0.81983 0.41704 0.0
C650 C 0.05058 0.73183 0.39837 0.0
C651 C 0.07356 0.70897 0.41784 0.0
N652 N 0.09606 0.72199 0.4562 0.0
N653 N 0.99613 0.80454 0.38207 0.0
C654 C 0.08171 0.74334 0.43632 0.0
C655 C 0.02774 0.78563 0.39888 0.0
N656 N 0.0957 0.83622 0.44838 0.0
N657 N 0.05354 0.70372 0.37911 0.0
H658 H 0.98248 0.84494 0.38121 0.0
H659 H 0.98135 0.77949 0.36963 0.0
H660 H 0.07368 0.66631 0.37762 0.0
H661 H 0.04173 0.72027 0.36411 0.0
H662 H 0.12422 0.82426 0.46016 0.0
H663 H 0.09188 0.87848 0.44652 0.0
H664 H 0.09721 0.74548 0.47041 0.0
H665 H 0.1007 0.6803 0.45915 0.0
C666 C 0.51066 0.77352 0.68341 0.0
C667 C 0.4893 0.7487 0.66441 0.0
C668 C 0.57786 0.76309 0.64615 0.0
C669 C 0.60134 0.77901 0.66653 0.0
N670 N 0.59045 0.78579 0.70588 0.0
N671 N 0.50264 0.71763 0.62745 0.0
C672 C 0.56781 0.78052 0.68553 0.0
C673 C 0.52293 0.7428 0.64564 0.0
N674 N 0.47607 0.79253 0.69916 0.0
N675 N 0.60673 0.76986 0.62722 0.0
H676 H 0.46188 0.70546 0.62618 0.0
H677 H 0.52685 0.70632 0.6142 0.0
H678 H 0.6459 0.78662 0.6268 0.0
H679 H 0.58993 0.76381 0.61175 0.0
H680 H 0.48944 0.81521 0.71257 0.0
H681 H 0.43366 0.79124 0.69735 0.0
H682 H 0.56763 0.78209 0.72021 0.0
H683 H 0.63247 0.78721 0.70861 0.0
C684 C 0.5412 0.2863 0.89802 0.0
C685 C 0.55257 0.31975 0.91641 0.0
C686 C 0.58963 0.24101 0.93598 0.0
C687 C 0.58188 0.20713 0.91724 0.0
N688 N 0.56261 0.20256 0.87846 0.0
N689 N 0.60688 0.33279 0.94871 0.0
C690 C 0.56096 0.23111 0.89764 0.0
C691 C 0.58299 0.29828 0.93403 0.0
N692 N 0.51177 0.30722 0.88096 0.0
N693 N 0.59997 0.21886 0.95613 0.0
H694 H 0.60494 0.37525 0.94703 0.0
H695 H 0.63362 0.31926 0.96088 0.0
H696 H 0.60108 0.17701 0.95919 0.0
H697 H 0.60071 0.24222 0.97038 0.0
H698 H 0.49648 0.2833 0.86827 0.0
H699 H 0.50059 0.34838 0.88012 0.0
H700 H 0.5524 0.21962 0.86338 0.0
H701 H 0.57962 0.16359 0.87722 0.0
C702 C 0.06976 0.27636 0.19337 0.0
C703 C 0.0991 0.28725 0.1738 0.0
C704 C 0.0193 0.25785 0.15213 0.0
C705 C 0.98897 0.25011 0.17168 0.0
N706 N 0.98184 0.26404 0.21072 0.0
N707 N 0.09738 0.3009 0.13471 0.0
C708 C 0.01323 0.26292 0.19223 0.0
C709 C 0.07252 0.28166 0.1532 0.0
N710 N 0.09624 0.27626 0.21308 0.0
N711 N 0.99849 0.24017 0.13264 0.0
H712 H 0.13548 0.3201 0.13493 0.0
H713 H 0.07796 0.30296 0.11955 0.0
H714 H 0.96015 0.22184 0.13122 0.0
H715 H 0.02115 0.23918 0.11822 0.0
H716 H 0.07873 0.26146 0.22746 0.0
H717 H 0.13723 0.28667 0.21494 0.0
H718 H 0.99556 0.27946 0.22562 0.0
H719 H 0.94038 0.25448 0.21079 0.0
C720 C 0.07539 0.04219 0.49195 0.0
C721 C 0.05803 0.98914 0.48525 0.0
C722 C 0.05089 0.96069 0.5237 0.0
C723 C 0.06393 0.01473 0.53005 0.0
N724 N 0.11021 0.09818 0.52168 0.0
N725 N 0.04322 0.89425 0.49456 0.0
C726 C 0.08382 0.05246 0.51457 0.0
C727 C 0.05124 0.947 0.50114 0.0
N728 N 0.07867 0.08413 0.47721 0.0
N729 N 0.03408 0.92382 0.53915 0.0
H730 H 0.0396 0.88349 0.47818 0.0
H731 H 0.04379 0.8608 0.50512 0.0
H732 H 0.03556 0.93214 0.55587 0.0
H733 H 0.01663 0.88609 0.53551 0.0
H734 H 0.08514 0.12467 0.48174 0.0
H735 H 0.07058 0.07954 0.46061 0.0
H736 H 0.12926 0.12597 0.51123 0.0
H737 H 0.11842 0.10413 0.53828 0.0
C738 C 0.25174 0.77504 0.76202 0.0
C739 C 0.29304 0.76352 0.77755 0.0
C740 C 0.36006 0.75003 0.7484 0.0
C741 C 0.31774 0.75647 0.73256 0.0
N742 N 0.22559 0.78585 0.72391 0.0
N743 N 0.38867 0.75716 0.78632 0.0
C744 C 0.26446 0.77343 0.73923 0.0
C745 C 0.34807 0.75744 0.77093 0.0
N746 N 0.19989 0.7851 0.7693 0.0
N747 N 0.41097 0.73324 0.74204 0.0
H748 H 0.38088 0.76061 0.80301 0.0
H749 H 0.43016 0.75852 0.78258 0.0
H750 H 0.42216 0.72864 0.72574 0.0
H751 H 0.4414 0.72059 0.75283 0.0
H752 H 0.16552 0.78749 0.75932 0.0
H753 H 0.19142 0.7906 0.78589 0.0
H754 H 0.18771 0.80283 0.72757 0.0
H755 H 0.23172 0.78202 0.70716 0.0
C756 C 0.53854 0.05753 0.01912 0.0
C757 C 0.53416 1.00208 0.02575 0.0
C758 C 0.52895 0.97259 0.98774 0.0
C759 C 0.53814 0.02758 0.98105 0.0
N760 N 0.52935 0.12296 0.98938 0.0
N761 N 0.50158 0.91226 0.01741 0.0
C762 C 0.53514 0.07037 0.99651 0.0
C763 C 0.52124 0.96135 0.01032 0.0
N764 N 0.54933 0.09723 0.03421 0.0
N765 N 0.53157 0.93083 0.97297 0.0
H766 H 0.49286 0.90557 0.03392 0.0
H767 H 0.48792 0.88162 0.00692 0.0
H768 H 0.53649 0.93699 0.95623 0.0
H769 H 0.53179 0.88973 0.97752 0.0
H770 H 0.55956 0.13726 0.03002 0.0
H771 H 0.55043 0.08939 0.05098 0.0
H772 H 0.52347 0.1561 0.9998 0.0
H773 H 0.52425 0.13199 0.9728 0.0
C774 C 0.25116 0.22423 0.24534 0.0
C775 C 0.29431 0.23727 0.23085 0.0
C776 C 0.35904 0.23192 0.2614 0.0
C777 C 0.31457 0.23384 0.27619 0.0
N778 N 0.21773 0.22654 0.28271 0.0
N779 N 0.39067 0.24745 0.22421 0.0
C780 C 0.26043 0.22667 0.26833 0.0
C781 C 0.34898 0.23783 0.23855 0.0
N782 N 0.20142 0.2103 0.23693 0.0
N783 N 0.41069 0.22599 0.26951 0.0
H784 H 0.3842 0.25052 0.20737 0.0
H785 H 0.43093 0.25449 0.22896 0.0
H786 H 0.4177 0.2208 0.28625 0.0
H787 H 0.44528 0.22114 0.25979 0.0
H788 H 0.16875 0.19677 0.24641 0.0
H789 H 0.1951 0.20719 0.22007 0.0
H790 H 0.17691 0.22843 0.27792 0.0
H791 H 0.2234 0.22654 0.29962 0.0
C792 C 0.74381 0.25234 0.23823 0.0
C793 C 0.79735 0.26778 0.2321 0.0
C794 C 0.82225 0.28398 0.27017 0.0
C795 C 0.77007 0.2636 0.27668 0.0
N796 N 0.67653 0.24305 0.267 0.0
N797 N 0.87818 0.3187 0.24031 0.0
C798 C 0.7291 0.2533 0.26066 0.0
C799 C 0.83339 0.29075 0.24751 0.0
N800 N 0.7084 0.23337 0.22266 0.0
N801 N 0.86273 0.29226 0.28522 0.0
H802 H 0.8849 0.32549 0.22366 0.0
H803 H 0.90441 0.34017 0.25062 0.0
H804 H 0.8574 0.28733 0.30198 0.0
H805 H 0.90311 0.30059 0.28097 0.0
H806 H 0.6714 0.21427 0.22618 0.0
H807 H 0.71728 0.23486 0.20597 0.0
H808 H 0.64363 0.24092 0.25623 0.0
H809 H 0.66503 0.24032 0.28335 0.0
C810 C 0.74858 0.7375 0.74791 0.0
C811 C 0.78809 0.75013 0.73185 0.0
C812 C 0.8589 0.75402 0.76018 0.0
C813 C 0.81762 0.75278 0.77653 0.0
N814 N 0.72163 0.74534 0.78585 0.0
N815 N 0.88169 0.76933 0.7221 0.0
C816 C 0.76209 0.74353 0.77045 0.0
C817 C 0.84382 0.75644 0.73775 0.0
N818 N 0.69796 0.7205 0.74142 0.0
N819 N 0.91266 0.75438 0.7662 0.0
H820 H 0.87285 0.76994 0.70542 0.0
H821 H 0.92126 0.78231 0.7256 0.0
H822 H 0.92484 0.75606 0.78247 0.0
H823 H 0.9449 0.74895 0.75531 0.0
H824 H 0.66816 0.70627 0.75218 0.0
H825 H 0.68822 0.71526 0.72492 0.0
H826 H 0.68015 0.7456 0.782 0.0
H827 H 0.72904 0.75037 0.80248 0.0
C828 C 0.56004 0.44669 1.00259 0.0
C829 C 0.56414 0.48971 0.98692 0.0
C830 C 0.58528 0.55372 0.01672 0.0
C831 C 0.56787 0.51415 0.03199 0.0
N832 N 0.54648 0.42088 0.04066 0.0
N833 N 0.58198 0.58545 0.97923 0.0
C834 C 0.55925 0.4595 0.02529 0.0
C835 C 0.57884 0.54337 0.99393 0.0
N836 N 0.55542 0.39384 0.99563 0.0
N837 N 0.60735 0.6013 0.02425 0.0
H838 H 0.57744 0.58048 0.96244 0.0
H839 H 0.58585 0.62627 0.98382 0.0
H840 H 0.61336 0.60779 0.04097 0.0
H841 H 0.62483 0.63087 0.01415 0.0
H842 H 0.55725 0.35997 0.00595 0.0
H843 H 0.55345 0.38364 0.97914 0.0
H844 H 0.5329 0.38161 0.03703 0.0
H845 H 0.54751 0.4293 0.05739 0.0
C846 C 0.03367 0.55315 0.51416 0.0
C847 C 0.03138 0.49856 0.52203 0.0
C848 C 0.02855 0.46387 0.48454 0.0
C849 C 0.03501 0.5181 0.47665 0.0
N850 N 0.02403 0.61437 0.48299 0.0
N851 N 1.00367 0.40621 0.5154 0.0
C852 C 0.03052 0.56282 0.49123 0.0
C853 C 0.02093 0.45526 0.50735 0.0
N854 N 0.04255 0.59523 0.52839 0.0
N855 N 0.03356 0.4206 0.47061 0.0
H856 H 0.99485 0.40129 0.532 0.0
H857 H 0.99203 0.37352 0.50553 0.0
H858 H 0.03947 0.42552 0.45384 0.0
H859 H 0.03527 0.38009 0.4759 0.0
H860 H 0.05156 0.63498 0.5234 0.0
H861 H 0.0433 0.58978 0.54531 0.0
H862 H 0.01664 0.6486 0.49266 0.0
H863 H 0.0206 0.62161 0.46619 0.0
C864 C 0.17465 0.82735 0.62311 0.0
C865 C 0.1956 0.83839 0.64434 0.0
C866 C 0.14043 0.92207 0.64589 0.0
C867 C 0.12625 0.91543 0.62346 0.0
N868 N 0.13524 0.86464 0.58984 0.0
N869 N 0.20208 0.89803 0.67552 0.0
C870 C 0.14425 0.86849 0.61187 0.0
C871 C 0.1795 0.8863 0.65562 0.0
N872 N 0.18394 0.7776 0.61364 0.0
N873 N 0.11463 0.96092 0.6582 0.0
H874 H 0.22866 0.8714 0.68362 0.0
H875 H 0.19708 0.9355 0.68336 0.0
H876 H 0.08403 0.98633 0.652 0.0
H877 H 0.11932 0.96415 0.67509 0.0
H878 H 0.16508 0.76503 0.59922 0.0
H879 H 0.20656 0.74677 0.62122 0.0
H880 H 0.15254 0.83442 0.58006 0.0
H881 H 0.11454 0.89448 0.58088 0.0
C882 C 0.39302 0.85584 0.8922 0.0
C883 C 0.39804 0.84338 0.86955 0.0
C884 C 0.48115 0.89969 0.86767 0.0
C885 C 0.47205 0.91725 0.88951 0.0
N886 N 0.41698 0.91642 0.92214 0.0
N887 N 0.44309 0.85813 0.83499 0.0
C888 C 0.42727 0.89656 0.90166 0.0
C889 C 0.44141 0.86618 0.8571 0.0
N890 N 0.35725 0.82689 0.90493 0.0
N891 N 0.52806 0.91469 0.85709 0.0
H892 H 0.41438 0.83447 0.82668 0.0
H893 H 0.47007 0.87842 0.8246 0.0
H894 H 0.55744 0.94009 0.86412 0.0
H895 H 0.54004 0.89854 0.84209 0.0
H896 H 0.35571 0.83001 0.9219 0.0
H897 H 0.33261 0.79562 0.89883 0.0
H898 H 0.38135 0.90792 0.93082 0.0
H899 H 0.44248 0.94452 0.92994 0.0
C900 C 0.4668 0.1246 0.13696 0.0
C901 C 0.4571 0.10474 0.11552 0.0
C902 C 0.37101 0.15616 0.11392 0.0
C903 C 0.37764 0.17079 0.13628 0.0
N904 N 0.42744 0.16164 0.17016 0.0
N905 N 0.39818 0.09662 0.08411 0.0
C906 C 0.42458 0.15336 0.14807 0.0
C907 C 0.40859 0.11901 0.10416 0.0
N908 N 0.51638 0.11595 0.14674 0.0
N909 N 0.33053 0.17981 0.10168 0.0
H910 H 0.42619 0.07177 0.07593 0.0
H911 H 0.36062 0.1 0.07617 0.0
H912 H 0.30276 0.208 0.108 0.0
H913 H 0.3274 0.17538 0.08479 0.0
H914 H 0.52801 0.13442 0.16136 0.0
H915 H 0.54789 0.09404 0.13934 0.0
H916 H 0.45788 0.14505 0.18008 0.0
H917 H 0.39633 0.18056 0.17901 0.0
C918 C 0.13937 0.10373 0.36975 0.0
C919 C 0.13247 0.10736 0.39283 0.0
C920 C 0.19666 0.18453 0.39379 0.0
C921 C 0.20821 0.17637 0.37125 0.0
N922 N 0.1952 0.1252 0.33806 0.0
N923 N 0.15802 0.14751 0.42728 0.0
C924 C 0.18074 0.1352 0.35929 0.0
C925 C 0.16172 0.14711 0.40498 0.0
N926 N 0.10487 0.07166 0.35771 0.0
N927 N 0.21831 0.22869 0.40441 0.0
H928 H 0.13256 0.12101 0.43591 0.0
H929 H 0.1829 0.17122 0.43732 0.0
H930 H 0.24489 0.25625 0.39688 0.0
H931 H 0.20677 0.24048 0.42009 0.0
H932 H 0.10399 0.0716 0.34068 0.0
H933 H 0.0733 0.0489 0.36466 0.0
H934 H 0.18133 0.09161 0.3292 0.0
H935 H 0.22448 0.14825 0.32973 0.0
C936 C 0.88544 0.03628 0.36894 0.0
C937 C 0.89664 0.03743 0.3917 0.0
C938 C 0.82132 0.10329 0.39518 0.0
C939 C 0.81997 0.11196 0.37223 0.0
N940 N 0.87432 0.09937 0.33926 0.0
N941 N 0.88719 0.0947 0.42402 0.0
C942 C 0.85775 0.08144 0.35931 0.0
C943 C 0.86743 0.07649 0.4045 0.0
N944 N 0.90469 0.99475 0.35625 0.0
N945 N 0.78123 0.12404 0.40824 0.0
H946 H 0.92546 0.08403 0.43011 0.0
H947 H 0.86838 0.12629 0.43267 0.0
H948 H 0.7458 0.14174 0.40182 0.0
H949 H 0.78129 0.11862 0.42515 0.0
H950 H 0.89742 0.99308 0.33946 0.0
H951 H 0.923 0.95994 0.36295 0.0
H952 H 0.90513 0.07965 0.33049 0.0
H953 H 0.86329 0.13715 0.33277 0.0
C954 C 0.7237 0.07612 0.10652 0.0
C955 C 0.6941 0.03692 0.11918 0.0
C956 C 0.73089 0.08229 0.15161 0.0
C957 C 0.77033 0.11154 0.13895 0.0
N958 N 0.81062 0.12238 0.1031 0.0
N959 N 0.68362 0.99588 0.15494 0.0
C960 C 0.76982 0.10242 0.11602 0.0
C961 C 0.70377 0.03675 0.14207 0.0
N962 N 0.70413 0.09523 0.08708 0.0
N963 N 0.71223 0.10185 0.17107 0.0
H964 H 0.66685 0.96022 0.14839 0.0
H965 H 0.68858 0.99563 0.17186 0.0
H966 H 0.72263 0.14013 0.17718 0.0
H967 H 0.68032 0.08298 0.17954 0.0
H968 H 0.7233 0.12692 0.07857 0.0
H969 H 0.66561 0.08542 0.08103 0.0
H970 H 0.8104 0.11787 0.08616 0.0
H971 H 0.84661 0.13858 0.1096 0.0
C972 C 0.74669 0.94168 0.85767 0.0
C973 C 0.78401 0.91055 0.87069 0.0
C974 C 0.73595 0.94534 0.90268 0.0
C975 C 0.70813 0.9856 0.8899 0.0
N976 N 0.7025 0.02972 0.85452 0.0
N977 N 0.8219 0.89779 0.90688 0.0
C978 C 0.7202 0.98739 0.86723 0.0
C979 C 0.78237 0.91899 0.89362 0.0
N980 N 0.7288 0.92374 0.83783 0.0
N981 N 0.71436 0.92522 0.9216 0.0
H982 H 0.85794 0.881 0.90067 0.0
H983 H 0.82055 0.90175 0.92384 0.0
H984 H 0.67528 0.93477 0.92708 0.0
H985 H 0.73258 0.89297 0.93013 0.0
H986 H 0.69847 0.9444 0.82907 0.0
H987 H 0.73776 0.88522 0.83162 0.0
H988 H 0.70974 0.03119 0.83774 0.0
H989 H 0.68559 0.06515 0.86122 0.0
C990 C 0.82122 0.92223 0.6165 0.0
C991 C 0.82038 0.91215 0.63936 0.0
C992 C 0.88441 0.98857 0.64318 0.0
C993 C 0.89545 0.98881 0.62041 0.0
N994 N 0.88862 0.92993 0.58837 0.0
N995 N 0.87764 0.92205 0.67178 0.0
C996 C 0.86735 0.94922 0.60744 0.0
C997 C 0.85855 0.94196 0.65239 0.0
N998 N 0.78113 0.90228 0.60325 0.0
N999 N 0.90277 0.02971 0.65627 0.0
H1000 H 0.86901 0.88291 0.6775 0.0
H1001 H 0.9085 0.94179 0.68054 0.0
H1002 H 0.91869 0.06602 0.64988 0.0
H1003 H 0.89736 0.02921 0.67316 0.0
H1004 H 0.78202 0.90741 0.58633 0.0
H1005 H 0.74506 0.88555 0.60946 0.0
H1006 H 0.87019 0.89808 0.57974 0.0
H1007 H 0.92765 0.93958 0.58285 0.0
C1008 C 0.68143 0.39103 0.15657 0.0
C1009 C 0.70118 0.34731 0.14361 0.0
C1010 C 0.65409 0.3847 0.11144 0.0
C1011 C 0.63133 0.42655 0.12468 0.0
N1012 N 0.61412 0.46311 0.16071 0.0
N1013 N 0.69877 0.29619 0.10994 0.0
C1014 C 0.64253 0.42809 0.14751 0.0
C1015 C 0.68496 0.3421 0.12143 0.0
N1016 N 0.70043 0.39757 0.17744 0.0
N1017 N 0.6487 0.38726 0.08919 0.0
H1018 H 0.72199 0.2645 0.11663 0.0
H1019 H 0.68327 0.28726 0.09448 0.0
H1020 H 0.62814 0.41892 0.08122 0.0
H1021 H 0.669 0.36113 0.0785 0.0
H1022 H 0.6927 0.43221 0.18684 0.0
H1023 H 0.72692 0.36974 0.18492 0.0
H1024 H 0.61628 0.46211 0.17772 0.0
H1025 H 0.58442 0.49002 0.15484 0.0
C1026 C 0.90359 0.3966 0.3516 0.0
C1027 C 0.89335 0.34656 0.36263 0.0
C1028 C 0.94841 0.37743 0.39379 0.0
C1029 C 0.96143 0.42623 0.38228 0.0
N1030 N 0.96111 0.47692 0.34829 0.0
N1031 N 0.91417 0.28449 0.39225 0.0
C1032 C 0.94166 0.43445 0.36063 0.0
C1033 C 0.91875 0.3353 0.38303 0.0
N1034 N 0.87643 0.40821 0.33259 0.0
N1035 N 0.96136 0.37271 0.41548 0.0
H1036 H 0.89159 0.25294 0.38521 0.0
H1037 H 0.93664 0.27206 0.40586 0.0
H1038 H 0.98073 0.4037 0.42422 0.0
H1039 H 0.948 0.3407 0.42539 0.0
H1040 H 0.87685 0.44662 0.32517 0.0
H1041 H 0.85083 0.38014 0.32483 0.0
H1042 H 0.95277 0.48154 0.33168 0.0
H1043 H 0.98969 0.50503 0.35406 0.0
C1044 C 0.91605 0.62883 0.60426 0.0
C1045 C 0.96399 0.60992 0.61485 0.0
C1046 C 0.93801 0.65964 0.64827 0.0
C1047 C 0.89106 0.68033 0.63737 0.0
N1048 N 0.84354 0.69632 0.60327 0.0
N1049 N 0.02669 0.61558 0.64525 0.0
C1050 C 0.88234 0.66819 0.61486 0.0
C1051 C 0.97699 0.62819 0.63631 0.0
N1052 N 0.90232 0.60869 0.58414 0.0
N1053 N 0.94394 0.6675 0.67028 0.0
H1054 H 0.05577 0.59185 0.63719 0.0
H1055 H 0.04101 0.63238 0.65981 0.0
H1056 H 0.91602 0.68966 0.67963 0.0
H1057 H 0.97397 0.64839 0.67966 0.0
H1058 H 0.86457 0.61568 0.57674 0.0
H1059 H 0.92742 0.58199 0.57541 0.0
H1060 H 0.83899 0.69329 0.58637 0.0
H1061 H 0.81956 0.72713 0.6101 0.0
C1062 C 0.65505 0.66688 0.86203 0.0
C1063 C 0.70385 0.68565 0.87209 0.0
C1064 C 0.68025 0.63554 0.90578 0.0
C1065 C 0.63129 0.61735 0.89585 0.0
N1066 N 0.56545 0.62558 0.86662 0.0
N1067 N 0.75412 0.7014 0.90555 0.0
C1068 C 0.61643 0.63653 0.87467 0.0
C1069 C 0.71387 0.67395 0.89459 0.0
N1070 N 0.64699 0.6753 0.84016 0.0
N1071 N 0.69513 0.61541 0.92581 0.0
H1072 H 0.77815 0.73154 0.89826 0.0
H1073 H 0.75988 0.69864 0.9224 0.0
H1074 H 0.66995 0.58974 0.93503 0.0
H1075 H 0.73359 0.62164 0.9327 0.0
H1076 H 0.61537 0.65736 0.8313 0.0
H1077 H 0.67443 0.69694 0.83039 0.0
H1078 H 0.55014 0.64277 0.85227 0.0
H1079 H 0.5364 0.60323 0.87532 0.0
C1080 C 0.39743 0.53368 0.86905 0.0
C1081 C 0.40542 0.5327 0.89202 0.0
C1082 C 0.32857 0.59686 0.89481 0.0
C1083 C 0.33057 0.60795 0.87205 0.0
N1084 N 0.3908 0.60032 0.84046 0.0
N1085 N 0.39086 0.58742 0.92479 0.0
C1086 C 0.37093 0.57963 0.85959 0.0
C1087 C 0.37385 0.5701 0.90474 0.0
N1088 N 0.41929 0.49387 0.85615 0.0
N1089 N 0.28616 0.61529 0.90723 0.0
H1090 H 0.42878 0.57756 0.93141 0.0
H1091 H 0.37014 0.61785 0.93341 0.0
H1092 H 0.25125 0.6328 0.9003 0.0
H1093 H 0.28396 0.60795 0.92402 0.0
H1094 H 0.41568 0.49448 0.83918 0.0
H1095 H 0.43646 0.45829 0.8627 0.0
H1096 H 0.42327 0.58201 0.83217 0.0
H1097 H 0.38074 0.63892 0.8345 0.0
C1098 C 0.22585 0.57593 0.60297 0.0
C1099 C 0.19693 0.53542 0.61519 0.0
C1100 C 0.23519 0.57642 0.64814 0.0
C1101 C 0.27309 0.60806 0.63568 0.0
N1102 N 0.3121 0.62353 0.5999 0.0
N1103 N 0.18915 0.48912 0.65001 0.0
C1104 C 0.27203 0.60148 0.61264 0.0
C1105 C 0.20814 0.53195 0.6379 0.0
N1106 N 0.20562 0.59678 0.58392 0.0
N1107 N 0.21761 0.59287 0.66822 0.0
H1108 H 0.1715 0.45467 0.64282 0.0
H1109 H 0.19593 0.48615 0.6668 0.0
H1110 H 0.2279 0.63035 0.67509 0.0
H1111 H 0.18668 0.57224 0.67661 0.0
H1112 H 0.2244 0.62933 0.5758 0.0
H1113 H 0.16704 0.58734 0.57786 0.0
H1114 H 0.3117 0.62038 0.5829 0.0
H1115 H 0.3477 0.6402 0.60657 0.0
C1116 C 0.16624 0.4445 0.36494 0.0
C1117 C 0.18478 0.49188 0.37656 0.0
C1118 C 0.27881 0.45789 0.37352 0.0
C1119 C 0.26078 0.41086 0.3622 0.0
N1120 N 0.18825 0.3708 0.34035 0.0
N1121 N 0.25953 0.55424 0.37749 0.0
C1122 C 0.20491 0.4075 0.35585 0.0
C1123 C 0.24154 0.50181 0.37696 0.0
N1124 N 0.11196 0.43377 0.36214 0.0
N1125 N 0.33149 0.46146 0.38056 0.0
H1126 H 0.23206 0.58682 0.37627 0.0
H1127 H 0.30067 0.56451 0.3761 0.0
H1128 H 0.35932 0.42935 0.37894 0.0
H1129 H 0.34635 0.49554 0.38876 0.0
H1130 H 0.09724 0.3946 0.35881 0.0
H1131 H 0.08164 0.46326 0.36208 0.0
H1132 H 0.14953 0.37166 0.33323 0.0
H1133 H 0.21396 0.34345 0.33251 0.0
C1134 C 0.40062 0.4218 0.11245 0.0
C1135 C 0.39488 0.47786 0.11814 0.0
C1136 C 0.30492 0.45555 0.13337 0.0
C1137 C 0.31744 0.39912 0.13356 0.0
N1138 N 0.37918 0.32829 0.12009 0.0
N1139 N 0.34125 0.54757 0.13567 0.0
C1140 C 0.36578 0.38215 0.1222 0.0
C1141 C 0.34712 0.49455 0.12934 0.0
N1142 N 0.43715 0.40575 0.09678 0.0
N1143 N 0.25179 0.47145 0.13412 0.0
H1144 H 0.37216 0.57653 0.13366 0.0
H1145 H 0.30657 0.56171 0.14368 0.0
H1146 H 0.22028 0.44269 0.13361 0.0
H1147 H 0.23974 0.51206 0.13217 0.0
H1148 H 0.43821 0.36632 0.09034 0.0
H1149 H 0.46178 0.43232 0.08799 0.0
H1150 H 0.41908 0.31527 0.11701 0.0
H1151 H 0.35092 0.29688 0.11998 0.0
loop_
_geom_bond_atom_site_label_1
_geom_bond_atom_site_label_2
_geom_bond_distance
_geom_bond_site_symmetry_2
_ccdc_geom_bond_type
Mn0 O5 2.095 . S
Mn0 O15 2.162 . S
Mn0 O16 2.297 1_545 S
Mn0 O24 2.385 1_455 S
Mn0 O25 2.209 1_455 S
Mn0 O26 2.094 . S
Mn1 O6 2.121 . S
Mn1 N8 2.257 . S
Mn1 N17 2.282 . S
Mn1 O25 2.215 . S
Mn1 O27 2.117 . S
C2 O24 1.234 1_565 S
C2 O25 1.283 1_565 S
C3 O15 1.281 1_565 S
C3 O16 1.236 . S
C4 O26 1.240 . S
C4 O27 1.264 1_455 S
O5 Mn0 2.095 . S
O5 C14 1.250 . S
O6 Mn1 2.121 . S
O6 C14 1.258 1_655 S
C7 N8 1.326 1_565 S
C7 C11 1.460 . S
C7 H13 0.929 . S
N8 Mn1 2.257 . S
N8 C7 1.326 1_545 S
N8 C12 1.362 . S
C9 C10 1.258 . S
C9 C12 1.431 1_565 S
C9 C29 1.449 . S
C10 C9 1.258 . S
C10 C11 1.477 . S
C10 H30 0.931 . S
C11 C7 1.460 . S
C11 C10 1.477 . S
C11 H31 0.930 . S
C12 N8 1.362 . S
C12 C9 1.431 1_545 S
C12 C22 1.476 . S
H13 C7 0.929 . S
C14 O5 1.250 . S
C14 O6 1.258 1_455 S
O15 Mn0 2.162 . S
O15 C3 1.281 1_545 S
O16 Mn0 2.297 1_565 S
O16 C3 1.236 . S
N17 Mn1 2.282 . S
N17 C18 1.328 . S
N17 C22 1.318 . S
C18 N17 1.328 . S
C18 C19 1.457 . S
C18 H23 0.929 . S
C19 C18 1.457 . S
C19 C20 1.291 . S
C19 H32 0.931 . S
C20 C19 1.291 . S
C20 C21 1.373 . S
C20 H33 0.929 . S
C21 C20 1.373 . S
C21 C22 1.396 . S
C21 C28 1.403 . S
C22 C12 1.476 . S
C22 N17 1.318 . S
C22 C21 1.396 . S
H23 C18 0.929 . S
O24 Mn0 2.385 1_655 S
O24 C2 1.234 1_545 S
O25 Mn0 2.209 1_655 S
O25 Mn1 2.215 . S
O25 C2 1.283 1_545 S
O26 Mn0 2.094 . S
O26 C4 1.240 . S
O27 Mn1 2.117 . S
O27 C4 1.264 1_655 S
C28 C21 1.403 . S
C28 C29 1.399 1_545 S
C28 H34 0.929 . S
C29 C9 1.449 . S
C29 C28 1.399 1_565 S
C29 H35 0.930 . S
H30 C10 0.931 . S
H31 C11 0.930 . S
H32 C19 0.931 . S
H33 C20 0.929 . S
H34 C28 0.929 . S
H35 C29 0.930 . S
Mn36 O41 2.095 . S
Mn36 O51 2.162 . S
Mn36 O52 2.297 . S
Mn36 O60 2.385 . S
Mn36 O61 2.209 . S
Mn36 O62 2.094 . S
Mn37 O42 2.121 . S
Mn37 N44 2.257 . S
Mn37 N53 2.282 . S
Mn37 O61 2.215 . S
Mn37 O63 2.117 . S
C38 O60 1.234 . S
C38 O61 1.283 . S
C39 O51 1.281 . S
C39 O52 1.236 . S
C40 O62 1.240 . S
C40 O63 1.264 . S
O41 Mn36 2.095 . S
O41 C50 1.250 . S
O42 Mn37 2.121 . S
O42 C50 1.258 . S
C43 N44 1.326 . S
C43 C47 1.460 . S
C43 H49 0.929 . S
N44 Mn37 2.257 . S
N44 C43 1.326 . S
N44 C48 1.362 . S
C45 C46 1.258 . S
C45 C48 1.431 . S
C45 C65 1.449 . S
C46 C45 1.258 . S
C46 C47 1.477 . S
C46 H66 0.931 . S
C47 C43 1.460 . S
C47 C46 1.477 . S
C47 H67 0.930 . S
C48 N44 1.362 . S
C48 C45 1.431 . S
C48 C58 1.476 . S
H49 C43 0.929 . S
C50 O41 1.250 . S
C50 O42 1.258 . S
O51 Mn36 2.162 . S
O51 C39 1.281 . S
O52 Mn36 2.297 . S
O52 C39 1.236 . S
N53 Mn37 2.282 . S
N53 C54 1.328 . S
N53 C58 1.318 . S
C54 N53 1.328 . S
C54 C55 1.457 . S
C54 H59 0.929 . S
C55 C54 1.457 . S
C55 C56 1.291 . S
C55 H68 0.931 . S
C56 C55 1.291 . S
C56 C57 1.373 . S
C56 H69 0.929 . S
C57 C56 1.373 . S
C57 C58 1.396 . S
C57 C64 1.403 . S
C58 C48 1.476 . S
C58 N53 1.318 . S
C58 C57 1.396 . S
H59 C54 0.929 . S
O60 Mn36 2.385 . S
O60 C38 1.234 . S
O61 Mn36 2.209 . S
O61 Mn37 2.215 . S
O61 C38 1.283 . S
O62 Mn36 2.094 . S
O62 C40 1.240 . S
O63 Mn37 2.117 . S
O63 C40 1.264 . S
C64 C57 1.403 . S
C64 C65 1.399 . S
C64 H70 0.929 . S
C65 C45 1.449 . S
C65 C64 1.399 . S
C65 H71 0.930 . S
H66 C46 0.931 . S
H67 C47 0.930 . S
H68 C55 0.931 . S
H69 C56 0.929 . S
H70 C64 0.929 . S
H71 C65 0.930 . S
Mn72 O77 2.095 . S
Mn72 O87 2.162 . S
Mn72 O88 2.297 1_565 S
Mn72 O96 2.385 . S
Mn72 O97 2.209 . S
Mn72 O98 2.094 . S
Mn73 O78 2.121 . S
Mn73 N80 2.257 . S
Mn73 N89 2.282 . S
Mn73 O97 2.215 . S
Mn73 O99 2.117 . S
C74 O96 1.234 1_545 S
C74 O97 1.283 1_545 S
C75 O87 1.281 1_545 S
C75 O88 1.236 . S
C76 O98 1.240 . S
C76 O99 1.264 . S
O77 Mn72 2.095 . S
O77 C86 1.250 . S
O78 Mn73 2.121 . S
O78 C86 1.258 . S
C79 N80 1.326 1_545 S
C79 C83 1.460 . S
C79 H85 0.929 . S
N80 Mn73 2.257 . S
N80 C79 1.326 1_565 S
N80 C84 1.362 . S
C81 C82 1.258 . S
C81 C84 1.431 1_545 S
C81 C101 1.449 . S
C82 C81 1.258 . S
C82 C83 1.477 . S
C82 H102 0.931 . S
C83 C79 1.460 . S
C83 C82 1.477 . S
C83 H103 0.930 . S
C84 N80 1.362 . S
C84 C81 1.431 1_565 S
C84 C94 1.476 . S
H85 C79 0.929 . S
C86 O77 1.250 . S
C86 O78 1.258 . S
O87 Mn72 2.162 . S
O87 C75 1.281 1_565 S
O88 Mn72 2.297 1_545 S
O88 C75 1.236 . S
N89 Mn73 2.282 . S
N89 C90 1.328 . S
N89 C94 1.318 . S
C90 N89 1.328 . S
C90 C91 1.457 . S
C90 H95 0.929 . S
C91 C90 1.457 . S
C91 C92 1.291 . S
C91 H104 0.931 . S
C92 C91 1.291 . S
C92 C93 1.373 . S
C92 H105 0.929 . S
C93 C92 1.373 . S
C93 C94 1.396 . S
C93 C100 1.403 . S
C94 C84 1.476 . S
C94 N89 1.318 . S
C94 C93 1.396 . S
H95 C90 0.929 . S
O96 Mn72 2.385 . S
O96 C74 1.234 1_565 S
O97 Mn72 2.209 . S
O97 Mn73 2.215 . S
O97 C74 1.283 1_565 S
O98 Mn72 2.094 . S
O98 C76 1.240 . S
O99 Mn73 2.117 . S
O99 C76 1.264 . S
C100 C93 1.403 . S
C100 C101 1.399 1_565 S
C100 H106 0.929 . S
C101 C81 1.449 . S
C101 C100 1.399 1_545 S
C101 H107 0.930 . S
H102 C82 0.931 . S
H103 C83 0.930 . S
H104 C91 0.931 . S
H105 C92 0.929 . S
H106 C100 0.929 . S
H107 C101 0.930 . S
Mn108 O113 2.095 . S
Mn108 O123 2.162 . S
Mn108 O124 2.297 . S
Mn108 O132 2.385 . S
Mn108 O133 2.209 . S
Mn108 O134 2.094 . S
Mn109 O114 2.121 . S
Mn109 N116 2.257 . S
Mn109 N125 2.282 . S
Mn109 O133 2.215 . S
Mn109 O135 2.117 . S
C110 O132 1.234 . S
C110 O133 1.283 . S
C111 O123 1.281 . S
C111 O124 1.236 . S
C112 O134 1.240 . S
C112 O135 1.264 . S
O113 Mn108 2.095 . S
O113 C122 1.250 . S
O114 Mn109 2.121 . S
O114 C122 1.258 . S
C115 N116 1.326 . S
C115 C119 1.460 . S
C115 H121 0.929 . S
N116 Mn109 2.257 . S
N116 C115 1.326 . S
N116 C120 1.362 . S
C117 C118 1.258 . S
C117 C120 1.431 . S
C117 C137 1.449 . S
C118 C117 1.258 . S
C118 C119 1.477 . S
C118 H138 0.931 . S
C119 C115 1.460 . S
C119 C118 1.477 . S
C119 H139 0.930 . S
C120 N116 1.362 . S
C120 C117 1.431 . S
C120 C130 1.476 . S
H121 C115 0.929 . S
C122 O113 1.250 . S
C122 O114 1.258 . S
O123 Mn108 2.162 . S
O123 C111 1.281 . S
O124 Mn108 2.297 . S
O124 C111 1.236 . S
N125 Mn109 2.282 . S
N125 C126 1.328 . S
N125 C130 1.318 . S
C126 N125 1.328 . S
C126 C127 1.457 . S
C126 H131 0.929 . S
C127 C126 1.457 . S
C127 C128 1.291 . S
C127 H140 0.931 . S
C128 C127 1.291 . S
C128 C129 1.373 . S
C128 H141 0.929 . S
C129 C128 1.373 . S
C129 C130 1.396 . S
C129 C136 1.403 . S
C130 C120 1.476 . S
C130 N125 1.318 . S
C130 C129 1.396 . S
H131 C126 0.929 . S
O132 Mn108 2.385 . S
O132 C110 1.234 . S
O133 Mn108 2.209 . S
O133 Mn109 2.215 . S
O133 C110 1.283 . S
O134 Mn108 2.094 . S
O134 C112 1.240 . S
O135 Mn109 2.117 . S
O135 C112 1.264 . S
C136 C129 1.403 . S
C136 C137 1.399 . S
C136 H142 0.929 . S
C137 C117 1.449 . S
C137 C136 1.399 . S
C137 H143 0.930 . S
H138 C118 0.931 . S
H139 C119 0.930 . S
H140 C127 0.931 . S
H141 C128 0.929 . S
H142 C136 0.929 . S
H143 C137 0.930 . S
Mn144 O149 2.095 . S
Mn144 O159 2.162 . S
Mn144 O160 2.297 1_565 S
Mn144 O168 2.385 1_455 S
Mn144 O169 2.209 1_455 S
Mn144 O170 2.094 . S
Mn145 O150 2.121 . S
Mn145 N152 2.257 . S
Mn145 N161 2.282 . S
Mn145 O169 2.215 . S
Mn145 O171 2.117 . S
C146 O168 1.234 1_545 S
C146 O169 1.283 1_545 S
C147 O159 1.281 1_545 S
C147 O160 1.236 . S
C148 O170 1.240 . S
C148 O171 1.264 1_455 S
O149 Mn144 2.095 . S
O149 C158 1.250 . S
O150 Mn145 2.121 . S
O150 C158 1.258 1_655 S
C151 N152 1.326 1_545 S
C151 C155 1.460 . S
C151 H157 0.929 . S
N152 Mn145 2.257 . S
N152 C151 1.326 1_565 S
N152 C156 1.362 . S
C153 C154 1.258 . S
C153 C156 1.431 1_545 S
C153 C173 1.449 . S
C154 C153 1.258 . S
C154 C155 1.477 . S
C154 H174 0.931 . S
C155 C151 1.460 . S
C155 C154 1.477 . S
C155 H175 0.930 . S
C156 N152 1.362 . S
C156 C153 1.431 1_565 S
C156 C166 1.476 . S
H157 C151 0.929 . S
C158 O149 1.250 . S
C158 O150 1.258 1_455 S
O159 Mn144 2.162 . S
O159 C147 1.281 1_565 S
O160 Mn144 2.297 1_545 S
O160 C147 1.236 . S
N161 Mn145 2.282 . S
N161 C162 1.328 . S
N161 C166 1.318 . S
C162 N161 1.328 . S
C162 C163 1.457 . S
C162 H167 0.929 . S
C163 C162 1.457 . S
C163 C164 1.291 . S
C163 H176 0.931 . S
C164 C163 1.291 . S
C164 C165 1.373 . S
C164 H177 0.929 . S
C165 C164 1.373 . S
C165 C166 1.396 . S
C165 C172 1.403 . S
C166 C156 1.476 . S
C166 N161 1.318 . S
C166 C165 1.396 . S
H167 C162 0.929 . S
O168 Mn144 2.385 1_655 S
O168 C146 1.234 1_565 S
O169 Mn144 2.209 1_655 S
O169 Mn145 2.215 . S
O169 C146 1.283 1_565 S
O170 Mn144 2.094 . S
O170 C148 1.240 . S
O171 Mn145 2.117 . S
O171 C148 1.264 1_655 S
C172 C165 1.403 . S
C172 C173 1.399 1_565 S
C172 H178 0.929 . S
C173 C153 1.449 . S
C173 C172 1.399 1_545 S
C173 H179 0.930 . S
H174 C154 0.931 . S
H175 C155 0.930 . S
H176 C163 0.931 . S
H177 C164 0.929 . S
H178 C172 0.929 . S
H179 C173 0.930 . S
Mn180 O185 2.095 . S
Mn180 O195 2.162 . S
Mn180 O196 2.297 . S
Mn180 O204 2.385 . S
Mn180 O205 2.209 . S
Mn180 O206 2.094 . S
Mn181 O186 2.121 . S
Mn181 N188 2.257 . S
Mn181 N197 2.282 . S
Mn181 O205 2.215 . S
Mn181 O207 2.117 . S
C182 O204 1.234 . S
C182 O205 1.283 . S
C183 O195 1.281 . S
C183 O196 1.236 . S
C184 O206 1.240 . S
C184 O207 1.264 . S
O185 Mn180 2.095 . S
O185 C194 1.250 . S
O186 Mn181 2.121 . S
O186 C194 1.258 . S
C187 N188 1.326 . S
C187 C191 1.460 . S
C187 H193 0.929 . S
N188 Mn181 2.257 . S
N188 C187 1.326 . S
N188 C192 1.362 . S
C189 C190 1.258 . S
C189 C192 1.431 . S
C189 C209 1.449 . S
C190 C189 1.258 . S
C190 C191 1.477 . S
C190 H210 0.931 . S
C191 C187 1.460 . S
C191 C190 1.477 . S
C191 H211 0.930 . S
C192 N188 1.362 . S
C192 C189 1.431 . S
C192 C202 1.476 . S
H193 C187 0.929 . S
C194 O185 1.250 . S
C194 O186 1.258 . S
O195 Mn180 2.162 . S
O195 C183 1.281 . S
O196 Mn180 2.297 . S
O196 C183 1.236 . S
N197 Mn181 2.282 . S
N197 C198 1.328 . S
N197 C202 1.318 . S
C198 N197 1.328 . S
C198 C199 1.457 . S
C198 H203 0.929 . S
C199 C198 1.457 . S
C199 C200 1.291 . S
C199 H212 0.931 . S
C200 C199 1.291 . S
C200 C201 1.373 . S
C200 H213 0.929 . S
C201 C200 1.373 . S
C201 C202 1.396 . S
C201 C208 1.403 . S
C202 C192 1.476 . S
C202 N197 1.318 . S
C202 C201 1.396 . S
H203 C198 0.929 . S
O204 Mn180 2.385 . S
O204 C182 1.234 . S
O205 Mn180 2.209 . S
O205 Mn181 2.215 . S
O205 C182 1.283 . S
O206 Mn180 2.094 . S
O206 C184 1.240 . S
O207 Mn181 2.117 . S
O207 C184 1.264 . S
C208 C201 1.403 . S
C208 C209 1.399 . S
C208 H214 0.929 . S
C209 C189 1.449 . S
C209 C208 1.399 . S
C209 H215 0.930 . S
H210 C190 0.931 . S
H211 C191 0.930 . S
H212 C199 0.931 . S
H213 C200 0.929 . S
H214 C208 0.929 . S
H215 C209 0.930 . S
Mn216 O221 2.095 . S
Mn216 O231 2.162 . S
Mn216 O232 2.297 1_545 S
Mn216 O240 2.385 . S
Mn216 O241 2.209 . S
Mn216 O242 2.094 . S
Mn217 O222 2.121 . S
Mn217 N224 2.257 . S
Mn217 N233 2.282 . S
Mn217 O241 2.215 . S
Mn217 O243 2.117 . S
C218 O240 1.234 1_565 S
C218 O241 1.283 1_565 S
C219 O231 1.281 1_565 S
C219 O232 1.236 . S
C220 O242 1.240 . S
C220 O243 1.264 . S
O221 Mn216 2.095 . S
O221 C230 1.250 . S
O222 Mn217 2.121 . S
O222 C230 1.258 . S
C223 N224 1.326 1_565 S
C223 C227 1.460 . S
C223 H229 0.929 . S
N224 Mn217 2.257 . S
N224 C223 1.326 1_545 S
N224 C228 1.362 . S
C225 C226 1.258 . S
C225 C228 1.431 1_565 S
C225 C245 1.449 . S
C226 C225 1.258 . S
C226 C227 1.477 . S
C226 H246 0.931 . S
C227 C223 1.460 . S
C227 C226 1.477 . S
C227 H247 0.930 . S
C228 N224 1.362 . S
C228 C225 1.431 1_545 S
C228 C238 1.476 . S
H229 C223 0.929 . S
C230 O221 1.250 . S
C230 O222 1.258 . S
O231 Mn216 2.162 . S
O231 C219 1.281 1_545 S
O232 Mn216 2.297 1_565 S
O232 C219 1.236 . S
N233 Mn217 2.282 . S
N233 C234 1.328 . S
N233 C238 1.318 . S
C234 N233 1.328 . S
C234 C235 1.457 . S
C234 H239 0.929 . S
C235 C234 1.457 . S
C235 C236 1.291 . S
C235 H248 0.931 . S
C236 C235 1.291 . S
C236 C237 1.373 . S
C236 H249 0.929 . S
C237 C236 1.373 . S
C237 C238 1.396 . S
C237 C244 1.403 . S
C238 C228 1.476 . S
C238 N233 1.318 . S
C238 C237 1.396 . S
H239 C234 0.929 . S
O240 Mn216 2.385 . S
O240 C218 1.234 1_545 S
O241 Mn216 2.209 . S
O241 Mn217 2.215 . S
O241 C218 1.283 1_545 S
O242 Mn216 2.094 . S
O242 C220 1.240 . S
O243 Mn217 2.117 . S
O243 C220 1.264 . S
C244 C237 1.403 . S
C244 C245 1.399 1_545 S
C244 H250 0.929 . S
C245 C225 1.449 . S
C245 C244 1.399 1_565 S
C245 H251 0.930 . S
H246 C226 0.931 . S
H247 C227 0.930 . S
H248 C235 0.931 . S
H249 C236 0.929 . S
H250 C244 0.929 . S
H251 C245 0.930 . S
Mn252 O257 2.095 . S
Mn252 O267 2.162 . S
Mn252 O268 2.297 . S
Mn252 O276 2.385 . S
Mn252 O277 2.209 . S
Mn252 O278 2.094 . S
Mn253 O258 2.121 . S
Mn253 N260 2.257 . S
Mn253 N269 2.282 . S
Mn253 O277 2.215 . S
Mn253 O279 2.117 . S
C254 O276 1.234 . S
C254 O277 1.283 . S
C255 O267 1.281 . S
C255 O268 1.236 . S
C256 O278 1.240 . S
C256 O279 1.264 . S
O257 Mn252 2.095 . S
O257 C266 1.250 . S
O258 Mn253 2.121 . S
O258 C266 1.258 . S
C259 N260 1.326 . S
C259 C263 1.460 . S
C259 H265 0.929 . S
N260 Mn253 2.257 . S
N260 C259 1.326 . S
N260 C264 1.362 . S
C261 C262 1.258 . S
C261 C264 1.431 . S
C261 C281 1.449 . S
C262 C261 1.258 . S
C262 C263 1.477 . S
C262 H282 0.931 . S
C263 C259 1.460 . S
C263 C262 1.477 . S
C263 H283 0.930 . S
C264 N260 1.362 . S
C264 C261 1.431 . S
C264 C274 1.476 . S
H265 C259 0.929 . S
C266 O257 1.250 . S
C266 O258 1.258 . S
O267 Mn252 2.162 . S
O267 C255 1.281 . S
O268 Mn252 2.297 . S
O268 C255 1.236 . S
N269 Mn253 2.282 . S
N269 C270 1.328 . S
N269 C274 1.318 . S
C270 N269 1.328 . S
C270 C271 1.457 . S
C270 H275 0.929 . S
C271 C270 1.457 . S
C271 C272 1.291 . S
C271 H284 0.931 . S
C272 C271 1.291 . S
C272 C273 1.373 . S
C272 H285 0.929 . S
C273 C272 1.373 . S
C273 C274 1.396 . S
C273 C280 1.403 . S
C274 C264 1.476 . S
C274 N269 1.318 . S
C274 C273 1.396 . S
H275 C270 0.929 . S
O276 Mn252 2.385 . S
O276 C254 1.234 . S
O277 Mn252 2.209 . S
O277 Mn253 2.215 . S
O277 C254 1.283 . S
O278 Mn252 2.094 . S
O278 C256 1.240 . S
O279 Mn253 2.117 . S
O279 C256 1.264 . S
C280 C273 1.403 . S
C280 C281 1.399 . S
C280 H286 0.929 . S
C281 C261 1.449 . S
C281 C280 1.399 . S
C281 H287 0.930 . S
H282 C262 0.931 . S
H283 C263 0.930 . S
H284 C271 0.931 . S
H285 C272 0.929 . S
H286 C280 0.929 . S
H287 C281 0.930 . S
Mn288 O293 2.095 . S
Mn288 O303 2.162 . S
Mn288 O304 2.297 . S
Mn288 O312 2.385 . S
Mn288 O313 2.209 . S
Mn288 O314 2.094 . S
Mn289 O294 2.121 . S
Mn289 N296 2.257 . S
Mn289 N305 2.282 . S
Mn289 O313 2.215 . S
Mn289 O315 2.117 . S
C290 O312 1.234 . S
C290 O313 1.283 . S
C291 O303 1.281 . S
C291 O304 1.236 . S
C292 O314 1.240 . S
C292 O315 1.264 . S
O293 Mn288 2.095 . S
O293 C302 1.250 . S
O294 Mn289 2.121 . S
O294 C302 1.258 . S
C295 N296 1.326 . S
C295 C299 1.460 . S
C295 H301 0.929 . S
N296 Mn289 2.257 . S
N296 C295 1.326 . S
N296 C300 1.362 . S
C297 C298 1.258 . S
C297 C300 1.431 1_565 S
C297 C317 1.449 . S
C298 C297 1.258 . S
C298 C299 1.477 1_565 S
C298 H318 0.931 . S
C299 C295 1.460 . S
C299 C298 1.477 1_545 S
C299 H319 0.930 . S
C300 N296 1.362 . S
C300 C297 1.431 1_545 S
C300 C310 1.476 . S
H301 C295 0.929 . S
C302 O293 1.250 . S
C302 O294 1.258 . S
O303 Mn288 2.162 . S
O303 C291 1.281 . S
O304 Mn288 2.297 . S
O304 C291 1.236 . S
N305 Mn289 2.282 . S
N305 C306 1.328 . S
N305 C310 1.318 . S
C306 N305 1.328 . S
C306 C307 1.457 . S
C306 H311 0.929 . S
C307 C306 1.457 . S
C307 C308 1.291 1_545 S
C307 H320 0.931 . S
C308 C307 1.291 1_565 S
C308 C309 1.373 . S
C308 H321 0.929 . S
C309 C308 1.373 . S
C309 C310 1.396 1_565 S
C309 C316 1.403 . S
C310 C300 1.476 . S
C310 N305 1.318 . S
C310 C309 1.396 1_545 S
H311 C306 0.929 . S
O312 Mn288 2.385 . S
O312 C290 1.234 . S
O313 Mn288 2.209 . S
O313 Mn289 2.215 . S
O313 C290 1.283 . S
O314 Mn288 2.094 . S
O314 C292 1.240 . S
O315 Mn289 2.117 . S
O315 C292 1.264 . S
C316 C309 1.403 . S
C316 C317 1.399 . S
C316 H322 0.929 . S
C317 C297 1.449 . S
C317 C316 1.399 . S
C317 H323 0.930 . S
H318 C298 0.931 . S
H319 C299 0.930 . S
H320 C307 0.931 . S
H321 C308 0.929 . S
H322 C316 0.929 . S
H323 C317 0.930 . S
Mn324 O329 2.095 . S
Mn324 O339 2.162 . S
Mn324 O340 2.297 . S
Mn324 O348 2.385 . S
Mn324 O349 2.209 . S
Mn324 O350 2.094 . S
Mn325 O330 2.121 . S
Mn325 N332 2.257 . S
Mn325 N341 2.282 . S
Mn325 O349 2.215 . S
Mn325 O351 2.117 . S
C326 O348 1.234 . S
C326 O349 1.283 . S
C327 O339 1.281 . S
C327 O340 1.236 . S
C328 O350 1.240 . S
C328 O351 1.264 . S
O329 Mn324 2.095 . S
O329 C338 1.250 . S
O330 Mn325 2.121 . S
O330 C338 1.258 . S
C331 N332 1.326 . S
C331 C335 1.460 . S
C331 H337 0.929 . S
N332 Mn325 2.257 . S
N332 C331 1.326 . S
N332 C336 1.362 . S
C333 C334 1.258 . S
C333 C336 1.431 1_545 S
C333 C353 1.449 . S
C334 C333 1.258 . S
C334 C335 1.477 1_545 S
C334 H354 0.931 . S
C335 C331 1.460 . S
C335 C334 1.477 1_565 S
C335 H355 0.930 . S
C336 N332 1.362 . S
C336 C333 1.431 1_565 S
C336 C346 1.476 . S
H337 C331 0.929 . S
C338 O329 1.250 . S
C338 O330 1.258 . S
O339 Mn324 2.162 . S
O339 C327 1.281 . S
O340 Mn324 2.297 . S
O340 C327 1.236 . S
N341 Mn325 2.282 . S
N341 C342 1.328 . S
N341 C346 1.318 . S
C342 N341 1.328 . S
C342 C343 1.457 . S
C342 H347 0.929 . S
C343 C342 1.457 . S
C343 C344 1.291 1_565 S
C343 H356 0.931 . S
C344 C343 1.291 1_545 S
C344 C345 1.373 . S
C344 H357 0.929 . S
C345 C344 1.373 . S
C345 C346 1.396 1_545 S
C345 C352 1.403 . S
C346 C336 1.476 . S
C346 N341 1.318 . S
C346 C345 1.396 1_565 S
H347 C342 0.929 . S
O348 Mn324 2.385 . S
O348 C326 1.234 . S
O349 Mn324 2.209 . S
O349 Mn325 2.215 . S
O349 C326 1.283 . S
O350 Mn324 2.094 . S
O350 C328 1.240 . S
O351 Mn325 2.117 . S
O351 C328 1.264 . S
C352 C345 1.403 . S
C352 C353 1.399 . S
C352 H358 0.929 . S
C353 C333 1.449 . S
C353 C352 1.399 . S
C353 H359 0.930 . S
H354 C334 0.931 . S
H355 C335 0.930 . S
H356 C343 0.931 . S
H357 C344 0.929 . S
H358 C352 0.929 . S
H359 C353 0.930 . S
Mn360 O365 2.095 . S
Mn360 O375 2.162 . S
Mn360 O376 2.297 . S
Mn360 O384 2.385 . S
Mn360 O385 2.209 . S
Mn360 O386 2.094 . S
Mn361 O366 2.121 . S
Mn361 N368 2.257 . S
Mn361 N377 2.282 . S
Mn361 O385 2.215 . S
Mn361 O387 2.117 . S
C362 O384 1.234 . S
C362 O385 1.283 . S
C363 O375 1.281 . S
C363 O376 1.236 . S
C364 O386 1.240 . S
C364 O387 1.264 . S
O365 Mn360 2.095 . S
O365 C374 1.250 . S
O366 Mn361 2.121 . S
O366 C374 1.258 . S
C367 N368 1.326 . S
C367 C371 1.460 . S
C367 H373 0.929 . S
N368 Mn361 2.257 . S
N368 C367 1.326 . S
N368 C372 1.362 . S
C369 C370 1.258 . S
C369 C372 1.431 1_565 S
C369 C389 1.449 . S
C370 C369 1.258 . S
C370 C371 1.477 1_565 S
C370 H390 0.931 . S
C371 C367 1.460 . S
C371 C370 1.477 1_545 S
C371 H391 0.930 . S
C372 N368 1.362 . S
C372 C369 1.431 1_545 S
C372 C382 1.476 . S
H373 C367 0.929 . S
C374 O365 1.250 . S
C374 O366 1.258 . S
O375 Mn360 2.162 . S
O375 C363 1.281 . S
O376 Mn360 2.297 . S
O376 C363 1.236 . S
N377 Mn361 2.282 . S
N377 C378 1.328 . S
N377 C382 1.318 . S
C378 N377 1.328 . S
C378 C379 1.457 . S
C378 H383 0.929 . S
C379 C378 1.457 . S
C379 C380 1.291 1_545 S
C379 H392 0.931 . S
C380 C379 1.291 1_565 S
C380 C381 1.373 . S
C380 H393 0.929 . S
C381 C380 1.373 . S
C381 C382 1.396 1_565 S
C381 C388 1.403 . S
C382 C372 1.476 . S
C382 N377 1.318 . S
C382 C381 1.396 1_545 S
H383 C378 0.929 . S
O384 Mn360 2.385 . S
O384 C362 1.234 . S
O385 Mn360 2.209 . S
O385 Mn361 2.215 . S
O385 C362 1.283 . S
O386 Mn360 2.094 . S
O386 C364 1.240 . S
O387 Mn361 2.117 . S
O387 C364 1.264 . S
C388 C381 1.403 . S
C388 C389 1.399 . S
C388 H394 0.929 . S
C389 C369 1.449 . S
C389 C388 1.399 . S
C389 H395 0.930 . S
H390 C370 0.931 . S
H391 C371 0.930 . S
H392 C379 0.931 . S
H393 C380 0.929 . S
H394 C388 0.929 . S
H395 C389 0.930 . S
Mn396 O401 2.095 . S
Mn396 O411 2.162 . S
Mn396 O412 2.297 . S
Mn396 O420 2.385 . S
Mn396 O421 2.209 . S
Mn396 O422 2.094 . S
Mn397 O402 2.121 . S
Mn397 N404 2.257 . S
Mn397 N413 2.282 . S
Mn397 O421 2.215 . S
Mn397 O423 2.117 . S
C398 O420 1.234 . S
C398 O421 1.283 . S
C399 O411 1.281 . S
C399 O412 1.236 . S
C400 O422 1.240 . S
C400 O423 1.264 . S
O401 Mn396 2.095 . S
O401 C410 1.250 . S
O402 Mn397 2.121 . S
O402 C410 1.258 . S
C403 N404 1.326 . S
C403 C407 1.460 . S
C403 H409 0.929 . S
N404 Mn397 2.257 . S
N404 C403 1.326 . S
N404 C408 1.362 . S
C405 C406 1.258 . S
C405 C408 1.431 1_545 S
C405 C425 1.449 . S
C406 C405 1.258 . S
C406 C407 1.477 1_545 S
C406 H426 0.931 . S
C407 C403 1.460 . S
C407 C406 1.477 1_565 S
C407 H427 0.930 . S
C408 N404 1.362 . S
C408 C405 1.431 1_565 S
C408 C418 1.476 . S
H409 C403 0.929 . S
C410 O401 1.250 . S
C410 O402 1.258 . S
O411 Mn396 2.162 . S
O411 C399 1.281 . S
O412 Mn396 2.297 . S
O412 C399 1.236 . S
N413 Mn397 2.282 . S
N413 C414 1.328 . S
N413 C418 1.318 . S
C414 N413 1.328 . S
C414 C415 1.457 . S
C414 H419 0.929 . S
C415 C414 1.457 . S
C415 C416 1.291 1_565 S
C415 H428 0.931 . S
C416 C415 1.291 1_545 S
C416 C417 1.373 . S
C416 H429 0.929 . S
C417 C416 1.373 . S
C417 C418 1.396 1_545 S
C417 C424 1.403 . S
C418 C408 1.476 . S
C418 N413 1.318 . S
C418 C417 1.396 1_565 S
H419 C414 0.929 . S
O420 Mn396 2.385 . S
O420 C398 1.234 . S
O421 Mn396 2.209 . S
O421 Mn397 2.215 . S
O421 C398 1.283 . S
O422 Mn396 2.094 . S
O422 C400 1.240 . S
O423 Mn397 2.117 . S
O423 C400 1.264 . S
C424 C417 1.403 . S
C424 C425 1.399 . S
C424 H430 0.929 . S
C425 C405 1.449 . S
C425 C424 1.399 . S
C425 H431 0.930 . S
H426 C406 0.931 . S
H427 C407 0.930 . S
H428 C415 0.931 . S
H429 C416 0.929 . S
H430 C424 0.929 . S
H431 C425 0.930 . S
Mn432 O437 2.095 . S
Mn432 O447 2.162 . S
Mn432 O448 2.297 . S
Mn432 O456 2.385 . S
Mn432 O457 2.209 . S
Mn432 O458 2.094 . S
Mn433 O438 2.121 . S
Mn433 N440 2.257 . S
Mn433 N449 2.282 . S
Mn433 O457 2.215 . S
Mn433 O459 2.117 . S
C434 O456 1.234 . S
C434 O457 1.283 . S
C435 O447 1.281 . S
C435 O448 1.236 . S
C436 O458 1.240 . S
C436 O459 1.264 . S
O437 Mn432 2.095 . S
O437 C446 1.250 . S
O438 Mn433 2.121 . S
O438 C446 1.258 . S
C439 N440 1.326 . S
C439 C443 1.460 . S
C439 H445 0.929 . S
N440 Mn433 2.257 . S
N440 C439 1.326 . S
N440 C444 1.362 . S
C441 C442 1.258 . S
C441 C444 1.431 . S
C441 C461 1.449 . S
C442 C441 1.258 . S
C442 C443 1.477 . S
C442 H462 0.931 . S
C443 C439 1.460 . S
C443 C442 1.477 . S
C443 H463 0.930 . S
C444 N440 1.362 . S
C444 C441 1.431 . S
C444 C454 1.476 . S
H445 C439 0.929 . S
C446 O437 1.250 . S
C446 O438 1.258 . S
O447 Mn432 2.162 . S
O447 C435 1.281 . S
O448 Mn432 2.297 . S
O448 C435 1.236 . S
N449 Mn433 2.282 . S
N449 C450 1.328 . S
N449 C454 1.318 . S
C450 N449 1.328 . S
C450 C451 1.457 . S
C450 H455 0.929 . S
C451 C450 1.457 . S
C451 C452 1.291 . S
C451 H464 0.931 . S
C452 C451 1.291 . S
C452 C453 1.373 . S
C452 H465 0.929 . S
C453 C452 1.373 . S
C453 C454 1.396 . S
C453 C460 1.403 . S
C454 C444 1.476 . S
C454 N449 1.318 . S
C454 C453 1.396 . S
H455 C450 0.929 . S
O456 Mn432 2.385 . S
O456 C434 1.234 . S
O457 Mn432 2.209 . S
O457 Mn433 2.215 . S
O457 C434 1.283 . S
O458 Mn432 2.094 . S
O458 C436 1.240 . S
O459 Mn433 2.117 . S
O459 C436 1.264 . S
C460 C453 1.403 . S
C460 C461 1.399 . S
C460 H466 0.929 . S
C461 C441 1.449 . S
C461 C460 1.399 . S
C461 H467 0.930 . S
H462 C442 0.931 . S
H463 C443 0.930 . S
H464 C451 0.931 . S
H465 C452 0.929 . S
H466 C460 0.929 . S
H467 C461 0.930 . S
Mn468 O473 2.095 . S
Mn468 O483 2.162 1_455 S
Mn468 O484 2.297 . S
Mn468 O492 2.385 . S
Mn468 O493 2.209 . S
Mn468 O494 2.094 . S
Mn469 O474 2.121 . S
Mn469 N476 2.257 . S
Mn469 N485 2.282 . S
Mn469 O493 2.215 . S
Mn469 O495 2.117 . S
C470 O492 1.234 . S
C470 O493 1.283 . S
C471 O483 1.281 . S
C471 O484 1.236 1_655 S
C472 O494 1.240 . S
C472 O495 1.264 . S
O473 Mn468 2.095 . S
O473 C482 1.250 . S
O474 Mn469 2.121 . S
O474 C482 1.258 . S
C475 N476 1.326 . S
C475 C479 1.460 . S
C475 H481 0.929 . S
N476 Mn469 2.257 . S
N476 C475 1.326 . S
N476 C480 1.362 . S
C477 C478 1.258 . S
C477 C480 1.431 . S
C477 C497 1.449 . S
C478 C477 1.258 . S
C478 C479 1.477 . S
C478 H498 0.931 . S
C479 C475 1.460 . S
C479 C478 1.477 . S
C479 H499 0.930 . S
C480 N476 1.362 . S
C480 C477 1.431 . S
C480 C490 1.476 . S
H481 C475 0.929 . S
C482 O473 1.250 . S
C482 O474 1.258 . S
O483 Mn468 2.162 1_655 S
O483 C471 1.281 . S
O484 Mn468 2.297 . S
O484 C471 1.236 1_455 S
N485 Mn469 2.282 . S
N485 C486 1.328 . S
N485 C490 1.318 . S
C486 N485 1.328 . S
C486 C487 1.457 . S
C486 H491 0.929 . S
C487 C486 1.457 . S
C487 C488 1.291 . S
C487 H500 0.931 . S
C488 C487 1.291 . S
C488 C489 1.373 . S
C488 H501 0.929 . S
C489 C488 1.373 . S
C489 C490 1.396 . S
C489 C496 1.403 . S
C490 C480 1.476 . S
C490 N485 1.318 . S
C490 C489 1.396 . S
H491 C486 0.929 . S
O492 Mn468 2.385 . S
O492 C470 1.234 . S
O493 Mn468 2.209 . S
O493 Mn469 2.215 . S
O493 C470 1.283 . S
O494 Mn468 2.094 . S
O494 C472 1.240 . S
O495 Mn469 2.117 . S
O495 C472 1.264 . S
C496 C489 1.403 . S
C496 C497 1.399 . S
C496 H502 0.929 . S
C497 C477 1.449 . S
C497 C496 1.399 . S
C497 H503 0.930 . S
H498 C478 0.931 . S
H499 C479 0.930 . S
H500 C487 0.931 . S
H501 C488 0.929 . S
H502 C496 0.929 . S
H503 C497 0.930 . S
Mn504 O509 2.095 . S
Mn504 O519 2.162 . S
Mn504 O520 2.297 . S
Mn504 O528 2.385 . S
Mn504 O529 2.209 . S
Mn504 O530 2.094 . S
Mn505 O510 2.121 . S
Mn505 N512 2.257 . S
Mn505 N521 2.282 . S
Mn505 O529 2.215 . S
Mn505 O531 2.117 . S
C506 O528 1.234 . S
C506 O529 1.283 . S
C507 O519 1.281 . S
C507 O520 1.236 . S
C508 O530 1.240 . S
C508 O531 1.264 . S
O509 Mn504 2.095 . S
O509 C518 1.250 . S
O510 Mn505 2.121 . S
O510 C518 1.258 . S
C511 N512 1.326 . S
C511 C515 1.460 . S
C511 H517 0.929 . S
N512 Mn505 2.257 . S
N512 C511 1.326 . S
N512 C516 1.362 . S
C513 C514 1.258 . S
C513 C516 1.431 . S
C513 C533 1.449 . S
C514 C513 1.258 . S
C514 C515 1.477 . S
C514 H534 0.931 . S
C515 C511 1.460 . S
C515 C514 1.477 . S
C515 H535 0.930 . S
C516 N512 1.362 . S
C516 C513 1.431 . S
C516 C526 1.476 . S
H517 C511 0.929 . S
C518 O509 1.250 . S
C518 O510 1.258 . S
O519 Mn504 2.162 . S
O519 C507 1.281 . S
O520 Mn504 2.297 . S
O520 C507 1.236 . S
N521 Mn505 2.282 . S
N521 C522 1.328 . S
N521 C526 1.318 . S
C522 N521 1.328 . S
C522 C523 1.457 . S
C522 H527 0.929 . S
C523 C522 1.457 . S
C523 C524 1.291 . S
C523 H536 0.931 . S
C524 C523 1.291 . S
C524 C525 1.373 . S
C524 H537 0.929 . S
C525 C524 1.373 . S
C525 C526 1.396 . S
C525 C532 1.403 . S
C526 C516 1.476 . S
C526 N521 1.318 . S
C526 C525 1.396 . S
H527 C522 0.929 . S
O528 Mn504 2.385 . S
O528 C506 1.234 . S
O529 Mn504 2.209 . S
O529 Mn505 2.215 . S
O529 C506 1.283 . S
O530 Mn504 2.094 . S
O530 C508 1.240 . S
O531 Mn505 2.117 . S
O531 C508 1.264 . S
C532 C525 1.403 . S
C532 C533 1.399 . S
C532 H538 0.929 . S
C533 C513 1.449 . S
C533 C532 1.399 . S
C533 H539 0.930 . S
H534 C514 0.931 . S
H535 C515 0.930 . S
H536 C523 0.931 . S
H537 C524 0.929 . S
H538 C532 0.929 . S
H539 C533 0.930 . S
Mn540 O545 2.095 . S
Mn540 O555 2.162 1_455 S
Mn540 O556 2.297 . S
Mn540 O564 2.385 . S
Mn540 O565 2.209 . S
Mn540 O566 2.094 . S
Mn541 O546 2.121 . S
Mn541 N548 2.257 . S
Mn541 N557 2.282 . S
Mn541 O565 2.215 . S
Mn541 O567 2.117 . S
C542 O564 1.234 . S
C542 O565 1.283 . S
C543 O555 1.281 . S
C543 O556 1.236 1_655 S
C544 O566 1.240 . S
C544 O567 1.264 . S
O545 Mn540 2.095 . S
O545 C554 1.250 . S
O546 Mn541 2.121 . S
O546 C554 1.258 . S
C547 N548 1.326 . S
C547 C551 1.460 . S
C547 H553 0.929 . S
N548 Mn541 2.257 . S
N548 C547 1.326 . S
N548 C552 1.362 . S
C549 C550 1.258 . S
C549 C552 1.431 . S
C549 C569 1.449 . S
C550 C549 1.258 . S
C550 C551 1.477 . S
C550 H570 0.931 . S
C551 C547 1.460 . S
C551 C550 1.477 . S
C551 H571 0.930 . S
C552 N548 1.362 . S
C552 C549 1.431 . S
C552 C562 1.476 . S
H553 C547 0.929 . S
C554 O545 1.250 . S
C554 O546 1.258 . S
O555 Mn540 2.162 1_655 S
O555 C543 1.281 . S
O556 Mn540 2.297 . S
O556 C543 1.236 1_455 S
N557 Mn541 2.282 . S
N557 C558 1.328 . S
N557 C562 1.318 . S
C558 N557 1.328 . S
C558 C559 1.457 . S
C558 H563 0.929 . S
C559 C558 1.457 . S
C559 C560 1.291 . S
C559 H572 0.931 . S
C560 C559 1.291 . S
C560 C561 1.373 . S
C560 H573 0.929 . S
C561 C560 1.373 . S
C561 C562 1.396 . S
C561 C568 1.403 . S
C562 C552 1.476 . S
C562 N557 1.318 . S
C562 C561 1.396 . S
H563 C558 0.929 . S
O564 Mn540 2.385 . S
O564 C542 1.234 . S
O565 Mn540 2.209 . S
O565 Mn541 2.215 . S
O565 C542 1.283 . S
O566 Mn540 2.094 . S
O566 C544 1.240 . S
O567 Mn541 2.117 . S
O567 C544 1.264 . S
C568 C561 1.403 . S
C568 C569 1.399 . S
C568 H574 0.929 . S
C569 C549 1.449 . S
C569 C568 1.399 . S
C569 H575 0.930 . S
H570 C550 0.931 . S
H571 C551 0.930 . S
H572 C559 0.931 . S
H573 C560 0.929 . S
H574 C568 0.929 . S
H575 C569 0.930 . S
C576 C577 1.363 . S
C576 C582 1.379 . S
C576 N584 1.356 1_455 S
C577 C576 1.363 . S
C577 C583 1.363 . S
C578 C579 1.363 . S
C578 C583 1.379 . S
C578 N585 1.356 . S
C579 C578 1.363 . S
C579 C582 1.363 . S
N580 C582 1.356 . S
N580 H592 0.984 1_455 S
N580 H593 0.985 . S
N581 C583 1.356 . S
N581 H586 0.984 . S
N581 H587 0.985 . S
C582 C576 1.379 . S
C582 C579 1.363 . S
C582 N580 1.356 . S
C583 C577 1.363 . S
C583 C578 1.379 . S
C583 N581 1.356 . S
N584 C576 1.356 1_655 S
N584 H590 0.984 . S
N584 H591 0.984 . S
N585 C578 1.356 . S
N585 H588 0.984 . S
N585 H589 0.985 . S
H586 N581 0.984 . S
H587 N581 0.985 . S
H588 N585 0.984 . S
H589 N585 0.985 . S
H590 N584 0.984 . S
H591 N584 0.984 . S
H592 N580 0.984 1_655 S
H593 N580 0.985 . S
C594 C595 1.363 1_455 S
C594 C600 1.379 . S
C594 N602 1.356 1_455 S
C595 C594 1.363 1_655 S
C595 C601 1.363 1_655 S
C596 C597 1.363 . S
C596 C601 1.379 . S
C596 N603 1.356 . S
C597 C596 1.363 . S
C597 C600 1.363 . S
N598 C600 1.356 . S
N598 H610 0.984 . S
N598 H611 0.985 . S
N599 C601 1.356 1_655 S
N599 H604 0.984 . S
N599 H605 0.985 1_655 S
C600 C594 1.379 . S
C600 C597 1.363 . S
C600 N598 1.356 . S
C601 C595 1.363 1_455 S
C601 C596 1.379 . S
C601 N599 1.356 1_455 S
N602 C594 1.356 1_655 S
N602 H608 0.984 . S
N602 H609 0.984 . S
N603 C596 1.356 . S
N603 H606 0.984 . S
N603 H607 0.985 . S
H604 N599 0.984 . S
H605 N599 0.985 1_455 S
H606 N603 0.984 . S
H607 N603 0.985 . S
H608 N602 0.984 . S
H609 N602 0.984 . S
H610 N598 0.984 . S
H611 N598 0.985 . S
C612 C613 1.363 . S
C612 C618 1.379 . S
C612 N620 1.356 . S
C613 C612 1.363 . S
C613 C619 1.363 . S
C614 C615 1.363 . S
C614 C619 1.379 . S
C614 N621 1.356 . S
C615 C614 1.363 . S
C615 C618 1.363 . S
N616 C618 1.356 . S
N616 H628 0.984 . S
N616 H629 0.985 . S
N617 C619 1.356 . S
N617 H622 0.984 . S
N617 H623 0.985 . S
C618 C612 1.379 . S
C618 C615 1.363 . S
C618 N616 1.356 . S
C619 C613 1.363 . S
C619 C614 1.379 . S
C619 N617 1.356 . S
N620 C612 1.356 . S
N620 H626 0.984 . S
N620 H627 0.984 . S
N621 C614 1.356 . S
N621 H624 0.984 . S
N621 H625 0.985 . S
H622 N617 0.984 . S
H623 N617 0.985 . S
H624 N621 0.984 . S
H625 N621 0.985 . S
H626 N620 0.984 . S
H627 N620 0.984 . S
H628 N616 0.984 . S
H629 N616 0.985 . S
C630 C631 1.363 . S
C630 C636 1.379 . S
C630 N638 1.356 . S
C631 C630 1.363 . S
C631 C637 1.363 . S
C632 C633 1.363 . S
C632 C637 1.379 . S
C632 N639 1.356 . S
C633 C632 1.363 . S
C633 C636 1.363 . S
N634 C636 1.356 . S
N634 H646 0.984 . S
N634 H647 0.985 . S
N635 C637 1.356 . S
N635 H640 0.984 . S
N635 H641 0.985 . S
C636 C630 1.379 . S
C636 C633 1.363 . S
C636 N634 1.356 . S
C637 C631 1.363 . S
C637 C632 1.379 . S
C637 N635 1.356 . S
N638 C630 1.356 . S
N638 H644 0.984 . S
N638 H645 0.984 . S
N639 C632 1.356 . S
N639 H642 0.984 . S
N639 H643 0.985 . S
H640 N635 0.984 . S
H641 N635 0.985 . S
H642 N639 0.984 . S
H643 N639 0.985 . S
H644 N638 0.984 . S
H645 N638 0.984 . S
H646 N634 0.984 . S
H647 N634 0.985 . S
C648 C649 1.363 . S
C648 C654 1.379 . S
C648 N656 1.356 . S
C649 C648 1.363 . S
C649 C655 1.363 . S
C650 C651 1.363 . S
C650 C655 1.379 . S
C650 N657 1.356 . S
C651 C650 1.363 . S
C651 C654 1.363 . S
N652 C654 1.356 . S
N652 H664 0.984 . S
N652 H665 0.985 . S
N653 C655 1.356 1_655 S
N653 H658 0.984 . S
N653 H659 0.985 . S
C654 C648 1.379 . S
C654 C651 1.363 . S
C654 N652 1.356 . S
C655 C649 1.363 . S
C655 C650 1.379 . S
C655 N653 1.356 1_455 S
N656 C648 1.356 . S
N656 H662 0.984 . S
N656 H663 0.984 . S
N657 C650 1.356 . S
N657 H660 0.984 . S
N657 H661 0.985 1_455 S
H658 N653 0.984 . S
H659 N653 0.985 . S
H660 N657 0.984 . S
H661 N657 0.985 1_655 S
H662 N656 0.984 . S
H663 N656 0.984 . S
H664 N652 0.984 . S
H665 N652 0.985 . S
C666 C667 1.363 . S
C666 C672 1.379 . S
C666 N674 1.356 . S
C667 C666 1.363 . S
C667 C673 1.363 . S
C668 C669 1.363 . S
C668 C673 1.379 . S
C668 N675 1.356 . S
C669 C668 1.363 . S
C669 C672 1.363 . S
N670 C672 1.356 . S
N670 H682 0.984 . S
N670 H683 0.985 . S
N671 C673 1.356 . S
N671 H676 0.984 . S
N671 H677 0.985 . S
C672 C666 1.379 . S
C672 C669 1.363 . S
C672 N670 1.356 . S
C673 C667 1.363 . S
C673 C668 1.379 . S
C673 N671 1.356 . S
N674 C666 1.356 . S
N674 H680 0.984 . S
N674 H681 0.984 . S
N675 C668 1.356 . S
N675 H678 0.984 . S
N675 H679 0.985 . S
H676 N671 0.984 . S
H677 N671 0.985 . S
H678 N675 0.984 . S
H679 N675 0.985 . S
H680 N674 0.984 . S
H681 N674 0.984 . S
H682 N670 0.984 . S
H683 N670 0.985 . S
C684 C685 1.363 . S
C684 C690 1.379 . S
C684 N692 1.356 . S
C685 C684 1.363 . S
C685 C691 1.363 . S
C686 C687 1.363 . S
C686 C691 1.379 . S
C686 N693 1.356 . S
C687 C686 1.363 . S
C687 C690 1.363 . S
N688 C690 1.356 . S
N688 H700 0.984 . S
N688 H701 0.985 . S
N689 C691 1.356 . S
N689 H694 0.984 . S
N689 H695 0.985 . S
C690 C684 1.379 . S
C690 C687 1.363 . S
C690 N688 1.356 . S
C691 C685 1.363 . S
C691 C686 1.379 . S
C691 N689 1.356 . S
N692 C684 1.356 . S
N692 H698 0.984 . S
N692 H699 0.984 . S
N693 C686 1.356 . S
N693 H696 0.984 . S
N693 H697 0.985 . S
H694 N689 0.984 . S
H695 N689 0.985 . S
H696 N693 0.984 . S
H697 N693 0.985 . S
H698 N692 0.984 . S
H699 N692 0.984 . S
H700 N688 0.984 . S
H701 N688 0.985 . S
C702 C703 1.363 . S
C702 C708 1.379 . S
C702 N710 1.356 . S
C703 C702 1.363 . S
C703 C709 1.363 . S
C704 C705 1.363 1_455 S
C704 C709 1.379 . S
C704 N711 1.356 1_455 S
C705 C704 1.363 1_655 S
C705 C708 1.363 1_655 S
N706 C708 1.356 1_655 S
N706 H718 0.984 1_655 S
N706 H719 0.985 . S
N707 C709 1.356 . S
N707 H712 0.984 . S
N707 H713 0.985 . S
C708 C702 1.379 . S
C708 C705 1.363 1_455 S
C708 N706 1.356 1_455 S
C709 C703 1.363 . S
C709 C704 1.379 . S
C709 N707 1.356 . S
N710 C702 1.356 . S
N710 H716 0.984 . S
N710 H717 0.984 . S
N711 C704 1.356 1_655 S
N711 H714 0.984 . S
N711 H715 0.985 . S
H712 N707 0.984 . S
H713 N707 0.985 . S
H714 N711 0.984 . S
H715 N711 0.985 . S
H716 N710 0.984 . S
H717 N710 0.984 . S
H718 N706 0.984 1_455 S
H719 N706 0.985 . S
C720 C721 1.363 1_545 S
C720 C726 1.379 . S
C720 N728 1.356 . S
C721 C720 1.363 1_565 S
C721 C727 1.351 1_455 S
C722 C723 1.351 1_665 S
C722 C727 1.379 . S
C722 N729 1.366 . S
C723 C722 1.351 1_445 S
C723 C726 1.363 . S
N724 C726 1.356 . S
N724 H736 0.984 . S
N724 H737 0.985 . S
N725 C727 1.366 . S
N725 H730 0.984 . S
N725 H731 0.985 . S
C726 C720 1.379 . S
C726 C723 1.363 . S
C726 N724 1.356 . S
C727 C721 1.351 1_655 S
C727 C722 1.379 . S
C727 N725 1.366 . S
N728 C720 1.356 . S
N728 H734 0.984 . S
N728 H735 0.984 . S
N729 C722 1.366 . S
N729 H732 0.984 . S
N729 H733 0.985 . S
H730 N725 0.984 . S
H731 N725 0.985 . S
H732 N729 0.984 . S
H733 N729 0.985 . S
H734 N728 0.984 . S
H735 N728 0.984 . S
H736 N724 0.984 . S
H737 N724 0.985 . S
C738 C739 1.363 . S
C738 C744 1.379 . S
C738 N746 1.356 . S
C739 C738 1.363 . S
C739 C745 1.363 . S
C740 C741 1.363 . S
C740 C745 1.379 . S
C740 N747 1.356 . S
C741 C740 1.363 . S
C741 C744 1.363 . S
N742 C744 1.356 . S
N742 H754 0.984 . S
N742 H755 0.985 . S
N743 C745 1.356 . S
N743 H748 0.984 . S
N743 H749 0.985 . S
C744 C738 1.379 . S
C744 C741 1.363 . S
C744 N742 1.356 . S
C745 C739 1.363 . S
C745 C740 1.379 . S
C745 N743 1.356 . S
N746 C738 1.356 . S
N746 H752 0.984 . S
N746 H753 0.984 . S
N747 C740 1.356 . S
N747 H750 0.984 . S
N747 H751 0.985 . S
H748 N743 0.984 . S
H749 N743 0.985 . S
H750 N747 0.984 . S
H751 N747 0.985 . S
H752 N746 0.984 . S
H753 N746 0.984 . S
H754 N742 0.984 . S
H755 N742 0.985 . S
C756 C757 1.363 1_545 S
C756 C762 1.379 1_554 S
C756 N764 1.356 . S
C757 C756 1.363 1_565 S
C757 C763 1.363 . S
C758 C759 1.363 1_565 S
C758 C763 1.379 1_556 S
C758 N765 1.356 . S
C759 C758 1.363 1_545 S
C759 C762 1.363 . S
N760 C762 1.356 . S
N760 H772 0.984 . S
N760 H773 0.985 . S
N761 C763 1.356 . S
N761 H766 0.984 . S
N761 H767 0.985 . S
C762 C756 1.379 1_556 S
C762 C759 1.363 . S
C762 N760 1.356 . S
C763 C757 1.363 . S
C763 C758 1.379 1_554 S
C763 N761 1.356 . S
N764 C756 1.356 . S
N764 H770 0.984 . S
N764 H771 0.984 . S
N765 C758 1.356 . S
N765 H768 0.984 . S
N765 H769 0.985 . S
H766 N761 0.984 . S
H767 N761 0.985 . S
H768 N765 0.984 . S
H769 N765 0.985 . S
H770 N764 0.984 . S
H771 N764 0.984 . S
H772 N760 0.984 . S
H773 N760 0.985 . S
C774 C775 1.363 . S
C774 C780 1.379 . S
C774 N782 1.356 . S
C775 C774 1.363 . S
C775 C781 1.363 . S
C776 C777 1.363 . S
C776 C781 1.379 . S
C776 N783 1.356 . S
C777 C776 1.363 . S
C777 C780 1.363 . S
N778 C780 1.356 . S
N778 H790 0.984 . S
N778 H791 0.985 . S
N779 C781 1.356 . S
N779 H784 0.984 . S
N779 H785 0.985 . S
C780 C774 1.379 . S
C780 C777 1.363 . S
C780 N778 1.356 . S
C781 C775 1.363 . S
C781 C776 1.379 . S
C781 N779 1.356 . S
N782 C774 1.356 . S
N782 H788 0.984 . S
N782 H789 0.984 . S
N783 C776 1.356 . S
N783 H786 0.984 . S
N783 H787 0.985 . S
H784 N779 0.984 . S
H785 N779 0.985 . S
H786 N783 0.984 . S
H787 N783 0.985 . S
H788 N782 0.984 . S
H789 N782 0.984 . S
H790 N778 0.984 . S
H791 N778 0.985 . S
C792 C793 1.363 . S
C792 C798 1.379 . S
C792 N800 1.356 . S
C793 C792 1.363 . S
C793 C799 1.363 . S
C794 C795 1.363 . S
C794 C799 1.379 . S
C794 N801 1.356 . S
C795 C794 1.363 . S
C795 C798 1.363 . S
N796 C798 1.356 . S
N796 H808 0.984 . S
N796 H809 0.985 . S
N797 C799 1.356 . S
N797 H802 0.984 . S
N797 H803 0.985 . S
C798 C792 1.379 . S
C798 C795 1.363 . S
C798 N796 1.356 . S
C799 C793 1.363 . S
C799 C794 1.379 . S
C799 N797 1.356 . S
N800 C792 1.356 . S
N800 H806 0.984 . S
N800 H807 0.984 . S
N801 C794 1.356 . S
N801 H804 0.984 . S
N801 H805 0.985 . S
H802 N797 0.984 . S
H803 N797 0.985 . S
H804 N801 0.984 . S
H805 N801 0.985 . S
H806 N800 0.984 . S
H807 N800 0.984 . S
H808 N796 0.984 . S
H809 N796 0.985 . S
C810 C811 1.363 . S
C810 C816 1.379 . S
C810 N818 1.356 . S
C811 C810 1.363 . S
C811 C817 1.363 . S
C812 C813 1.363 . S
C812 C817 1.379 . S
C812 N819 1.356 . S
C813 C812 1.363 . S
C813 C816 1.363 . S
N814 C816 1.356 . S
N814 H826 0.984 . S
N814 H827 0.985 . S
N815 C817 1.356 . S
N815 H820 0.984 . S
N815 H821 0.985 . S
C816 C810 1.379 . S
C816 C813 1.363 . S
C816 N814 1.356 . S
C817 C811 1.363 . S
C817 C812 1.379 . S
C817 N815 1.356 . S
N818 C810 1.356 . S
N818 H824 0.984 . S
N818 H825 0.984 . S
N819 C812 1.356 . S
N819 H822 0.984 . S
N819 H823 0.985 . S
H820 N815 0.984 . S
H821 N815 0.985 . S
H822 N819 0.984 . S
H823 N819 0.985 . S
H824 N818 0.984 . S
H825 N818 0.984 . S
H826 N814 0.984 . S
H827 N814 0.985 . S
C828 C829 1.363 . S
C828 C834 1.379 1_556 S
C828 N836 1.356 . S
C829 C828 1.363 . S
C829 C835 1.363 . S
C830 C831 1.363 . S
C830 C835 1.379 1_554 S
C830 N837 1.356 . S
C831 C830 1.363 . S
C831 C834 1.363 . S
N832 C834 1.356 . S
N832 H844 0.984 . S
N832 H845 0.985 . S
N833 C835 1.356 . S
N833 H838 0.984 . S
N833 H839 0.985 . S
C834 C828 1.379 1_554 S
C834 C831 1.363 . S
C834 N832 1.356 . S
C835 C829 1.363 . S
C835 C830 1.379 1_556 S
C835 N833 1.356 . S
N836 C828 1.356 . S
N836 H842 0.984 . S
N836 H843 0.984 . S
N837 C830 1.356 . S
N837 H840 0.984 . S
N837 H841 0.985 . S
H838 N833 0.984 . S
H839 N833 0.985 . S
H840 N837 0.984 . S
H841 N837 0.985 . S
H842 N836 0.984 . S
H843 N836 0.984 . S
H844 N832 0.984 . S
H845 N832 0.985 . S
C846 C847 1.363 . S
C846 C852 1.379 . S
C846 N854 1.356 1_455 S
C847 C846 1.363 . S
C847 C853 1.363 . S
C848 C849 1.363 . S
C848 C853 1.379 . S
C848 N855 1.356 . S
C849 C848 1.363 . S
C849 C852 1.363 . S
N850 C852 1.356 1_655 S
N850 H862 0.984 . S
N850 H863 0.982 1_655 S
N851 C853 1.356 . S
N851 H856 0.984 . S
N851 H857 0.985 . S
C852 C846 1.379 . S
C852 C849 1.363 . S
C852 N850 1.356 1_455 S
C853 C847 1.363 . S
C853 C848 1.379 . S
C853 N851 1.356 . S
N854 C846 1.356 1_655 S
N854 H860 0.984 . S
N854 H861 0.982 1_655 S
N855 C848 1.356 . S
N855 H858 0.984 . S
N855 H859 0.985 . S
H856 N851 0.984 . S
H857 N851 0.985 . S
H858 N855 0.984 . S
H859 N855 0.985 . S
H860 N854 0.984 . S
H861 N854 0.982 1_455 S
H862 N850 0.984 . S
H863 N850 0.982 1_455 S
C864 C865 1.363 . S
C864 C870 1.379 . S
C864 N872 1.356 . S
C865 C864 1.363 . S
C865 C871 1.363 . S
C866 C867 1.363 . S
C866 C871 1.379 . S
C866 N873 1.356 . S
C867 C866 1.363 . S
C867 C870 1.363 . S
N868 C870 1.356 . S
N868 H880 0.984 . S
N868 H881 0.985 . S
N869 C871 1.356 . S
N869 H874 0.984 . S
N869 H875 0.985 . S
C870 C864 1.379 . S
C870 C867 1.363 . S
C870 N868 1.356 . S
C871 C865 1.363 . S
C871 C866 1.379 . S
C871 N869 1.356 . S
N872 C864 1.356 . S
N872 H878 0.984 . S
N872 H879 0.984 . S
N873 C866 1.356 . S
N873 H876 0.984 . S
N873 H877 0.985 . S
H874 N869 0.984 . S
H875 N869 0.985 . S
H876 N873 0.984 . S
H877 N873 0.985 . S
H878 N872 0.984 . S
H879 N872 0.984 . S
H880 N868 0.984 . S
H881 N868 0.985 . S
C882 C883 1.363 . S
C882 C888 1.379 . S
C882 N890 1.356 . S
C883 C882 1.363 . S
C883 C889 1.363 . S
C884 C885 1.363 . S
C884 C889 1.379 . S
C884 N891 1.356 . S
C885 C884 1.363 . S
C885 C888 1.363 . S
N886 C888 1.356 . S
N886 H898 0.984 . S
N886 H899 0.985 . S
N887 C889 1.356 . S
N887 H892 0.984 . S
N887 H893 0.985 . S
C888 C882 1.379 . S
C888 C885 1.363 . S
C888 N886 1.356 . S
C889 C883 1.363 . S
C889 C884 1.379 . S
C889 N887 1.356 . S
N890 C882 1.356 . S
N890 H896 0.984 . S
N890 H897 0.984 . S
N891 C884 1.356 . S
N891 H894 0.984 . S
N891 H895 0.985 . S
H892 N887 0.984 . S
H893 N887 0.985 . S
H894 N891 0.984 . S
H895 N891 0.985 . S
H896 N890 0.984 . S
H897 N890 0.984 . S
H898 N886 0.984 . S
H899 N886 0.985 . S
C900 C901 1.363 . S
C900 C906 1.379 . S
C900 N908 1.356 . S
C901 C900 1.363 . S
C901 C907 1.363 . S
C902 C903 1.363 . S
C902 C907 1.379 . S
C902 N909 1.356 . S
C903 C902 1.363 . S
C903 C906 1.363 . S
N904 C906 1.356 . S
N904 H916 0.984 . S
N904 H917 0.985 . S
N905 C907 1.356 . S
N905 H910 0.984 . S
N905 H911 0.985 . S
C906 C900 1.379 . S
C906 C903 1.363 . S
C906 N904 1.356 . S
C907 C901 1.363 . S
C907 C902 1.379 . S
C907 N905 1.356 . S
N908 C900 1.356 . S
N908 H914 0.984 . S
N908 H915 0.984 . S
N909 C902 1.356 . S
N909 H912 0.984 . S
N909 H913 0.985 . S
H910 N905 0.984 . S
H911 N905 0.985 . S
H912 N909 0.984 . S
H913 N909 0.985 . S
H914 N908 0.984 . S
H915 N908 0.984 . S
H916 N904 0.984 . S
H917 N904 0.985 . S
C918 C919 1.363 . S
C918 C924 1.379 . S
C918 N926 1.356 . S
C919 C918 1.363 . S
C919 C925 1.363 . S
C920 C921 1.363 . S
C920 C925 1.379 . S
C920 N927 1.356 . S
C921 C920 1.363 . S
C921 C924 1.363 . S
N922 C924 1.356 . S
N922 H934 0.984 . S
N922 H935 0.985 . S
N923 C925 1.356 . S
N923 H928 0.984 . S
N923 H929 0.985 . S
C924 C918 1.379 . S
C924 C921 1.363 . S
C924 N922 1.356 . S
C925 C919 1.363 . S
C925 C920 1.379 . S
C925 N923 1.356 . S
N926 C918 1.356 . S
N926 H932 0.984 1_545 S
N926 H933 0.984 1_545 S
N927 C920 1.356 . S
N927 H930 0.984 . S
N927 H931 0.985 . S
H928 N923 0.984 . S
H929 N923 0.985 . S
H930 N927 0.984 . S
H931 N927 0.985 . S
H932 N926 0.984 1_565 S
H933 N926 0.984 1_565 S
H934 N922 0.984 . S
H935 N922 0.985 . S
C936 C937 1.363 . S
C936 C942 1.379 . S
C936 N944 1.356 . S
C937 C936 1.363 . S
C937 C943 1.363 . S
C938 C939 1.363 . S
C938 C943 1.379 . S
C938 N945 1.356 . S
C939 C938 1.363 . S
C939 C942 1.363 . S
N940 C942 1.356 . S
N940 H952 0.984 . S
N940 H953 0.985 . S
N941 C943 1.356 . S
N941 H946 0.984 . S
N941 H947 0.985 . S
C942 C936 1.379 . S
C942 C939 1.363 . S
C942 N940 1.356 . S
C943 C937 1.363 . S
C943 C938 1.379 . S
C943 N941 1.356 . S
N944 C936 1.356 . S
N944 H950 0.984 . S
N944 H951 0.984 . S
N945 C938 1.356 . S
N945 H948 0.984 . S
N945 H949 0.985 . S
H946 N941 0.984 . S
H947 N941 0.985 . S
H948 N945 0.984 . S
H949 N945 0.985 . S
H950 N944 0.984 . S
H951 N944 0.984 . S
H952 N940 0.984 . S
H953 N940 0.985 . S
C954 C955 1.363 . S
C954 C960 1.379 . S
C954 N962 1.356 . S
C955 C954 1.363 . S
C955 C961 1.363 . S
C956 C957 1.363 . S
C956 C961 1.379 . S
C956 N963 1.356 . S
C957 C956 1.363 . S
C957 C960 1.363 . S
N958 C960 1.356 . S
N958 H970 0.984 . S
N958 H971 0.985 . S
N959 C961 1.356 . S
N959 H964 0.984 . S
N959 H965 0.985 . S
C960 C954 1.379 . S
C960 C957 1.363 . S
C960 N958 1.356 . S
C961 C955 1.363 . S
C961 C956 1.379 . S
C961 N959 1.356 . S
N962 C954 1.356 . S
N962 H968 0.984 . S
N962 H969 0.984 1_545 S
N963 C956 1.356 . S
N963 H966 0.984 . S
N963 H967 0.985 . S
H964 N959 0.984 . S
H965 N959 0.985 . S
H966 N963 0.984 . S
H967 N963 0.985 . S
H968 N962 0.984 . S
H969 N962 0.984 1_565 S
H970 N958 0.984 . S
H971 N958 0.985 . S
C972 C973 1.363 . S
C972 C978 1.379 . S
C972 N980 1.356 . S
C973 C972 1.363 . S
C973 C979 1.363 . S
C974 C975 1.363 . S
C974 C979 1.379 . S
C974 N981 1.356 . S
C975 C974 1.363 . S
C975 C978 1.363 . S
N976 C978 1.356 1_545 S
N976 H988 0.984 . S
N976 H989 0.985 . S
N977 C979 1.356 . S
N977 H982 0.984 . S
N977 H983 0.985 . S
C978 C972 1.379 . S
C978 C975 1.363 . S
C978 N976 1.356 1_565 S
C979 C973 1.363 . S
C979 C974 1.379 . S
C979 N977 1.356 . S
N980 C972 1.356 . S
N980 H986 0.984 . S
N980 H987 0.984 . S
N981 C974 1.356 . S
N981 H984 0.984 . S
N981 H985 0.985 . S
H982 N977 0.984 . S
H983 N977 0.985 . S
H984 N981 0.984 . S
H985 N981 0.985 . S
H986 N980 0.984 . S
H987 N980 0.984 . S
H988 N976 0.984 . S
H989 N976 0.985 . S
C990 C991 1.363 . S
C990 C996 1.379 . S
C990 N998 1.356 . S
C991 C990 1.363 . S
C991 C997 1.363 . S
C992 C993 1.363 . S
C992 C997 1.379 . S
C992 N999 1.356 1_565 S
C993 C992 1.363 . S
C993 C996 1.363 . S
N994 C996 1.356 . S
N994 H1006 0.984 . S
N994 H1007 0.985 . S
N995 C997 1.356 . S
N995 H1000 0.984 . S
N995 H1001 0.985 . S
C996 C990 1.379 . S
C996 C993 1.363 . S
C996 N994 1.356 . S
C997 C991 1.363 . S
C997 C992 1.379 . S
C997 N995 1.356 . S
N998 C990 1.356 . S
N998 H1004 0.984 . S
N998 H1005 0.984 . S
N999 C992 1.356 1_545 S
N999 H1002 0.984 . S
N999 H1003 0.985 . S
H1000 N995 0.984 . S
H1001 N995 0.985 . S
H1002 N999 0.984 . S
H1003 N999 0.985 . S
H1004 N998 0.984 . S
H1005 N998 0.984 . S
H1006 N994 0.984 . S
H1007 N994 0.985 . S
C1008 C1009 1.363 . S
C1008 C1014 1.379 . S
C1008 N1016 1.356 . S
C1009 C1008 1.363 . S
C1009 C1015 1.363 . S
C1010 C1011 1.363 . S
C1010 C1015 1.379 . S
C1010 N1017 1.356 . S
C1011 C1010 1.363 . S
C1011 C1014 1.363 . S
N1012 C1014 1.356 . S
N1012 H1024 0.984 . S
N1012 H1025 0.985 . S
N1013 C1015 1.356 . S
N1013 H1018 0.984 . S
N1013 H1019 0.985 . S
C1014 C1008 1.379 . S
C1014 C1011 1.363 . S
C1014 N1012 1.356 . S
C1015 C1009 1.363 . S
C1015 C1010 1.379 . S
C1015 N1013 1.356 . S
N1016 C1008 1.356 . S
N1016 H1022 0.984 . S
N1016 H1023 0.984 . S
N1017 C1010 1.356 . S
N1017 H1020 0.984 . S
N1017 H1021 0.985 . S
H1018 N1013 0.984 . S
H1019 N1013 0.985 . S
H1020 N1017 0.984 . S
H1021 N1017 0.985 . S
H1022 N1016 0.984 . S
H1023 N1016 0.984 . S
H1024 N1012 0.984 . S
H1025 N1012 0.985 . S
C1026 C1027 1.363 . S
C1026 C1032 1.379 . S
C1026 N1034 1.356 . S
C1027 C1026 1.363 . S
C1027 C1033 1.363 . S
C1028 C1029 1.363 . S
C1028 C1033 1.379 . S
C1028 N1035 1.356 . S
C1029 C1028 1.363 . S
C1029 C1032 1.363 . S
N1030 C1032 1.356 . S
N1030 H1042 0.984 . S
N1030 H1043 0.985 . S
N1031 C1033 1.356 . S
N1031 H1036 0.984 . S
N1031 H1037 0.985 . S
C1032 C1026 1.379 . S
C1032 C1029 1.363 . S
C1032 N1030 1.356 . S
C1033 C1027 1.363 . S
C1033 C1028 1.379 . S
C1033 N1031 1.356 . S
N1034 C1026 1.356 . S
N1034 H1040 0.984 . S
N1034 H1041 0.984 . S
N1035 C1028 1.356 . S
N1035 H1038 0.984 . S
N1035 H1039 0.985 . S
H1036 N1031 0.984 . S
H1037 N1031 0.985 . S
H1038 N1035 0.984 . S
H1039 N1035 0.985 . S
H1040 N1034 0.984 . S
H1041 N1034 0.984 . S
H1042 N1030 0.984 . S
H1043 N1030 0.985 . S
C1044 C1045 1.363 . S
C1044 C1050 1.379 . S
C1044 N1052 1.356 . S
C1045 C1044 1.363 . S
C1045 C1051 1.363 . S
C1046 C1047 1.363 . S
C1046 C1051 1.379 . S
C1046 N1053 1.356 . S
C1047 C1046 1.363 . S
C1047 C1050 1.363 . S
N1048 C1050 1.356 . S
N1048 H1060 0.984 . S
N1048 H1061 0.985 . S
N1049 C1051 1.356 1_455 S
N1049 H1054 0.984 . S
N1049 H1055 0.985 . S
C1050 C1044 1.379 . S
C1050 C1047 1.363 . S
C1050 N1048 1.356 . S
C1051 C1045 1.363 . S
C1051 C1046 1.379 . S
C1051 N1049 1.356 1_655 S
N1052 C1044 1.356 . S
N1052 H1058 0.984 . S
N1052 H1059 0.984 . S
N1053 C1046 1.356 . S
N1053 H1056 0.984 . S
N1053 H1057 0.985 . S
H1054 N1049 0.984 . S
H1055 N1049 0.985 . S
H1056 N1053 0.984 . S
H1057 N1053 0.985 . S
H1058 N1052 0.984 . S
H1059 N1052 0.984 . S
H1060 N1048 0.984 . S
H1061 N1048 0.985 . S
C1062 C1063 1.363 . S
C1062 C1068 1.379 . S
C1062 N1070 1.356 . S
C1063 C1062 1.363 . S
C1063 C1069 1.363 . S
C1064 C1065 1.363 . S
C1064 C1069 1.379 . S
C1064 N1071 1.356 . S
C1065 C1064 1.363 . S
C1065 C1068 1.363 . S
N1066 C1068 1.356 . S
N1066 H1078 0.984 . S
N1066 H1079 0.985 . S
N1067 C1069 1.356 . S
N1067 H1072 0.984 . S
N1067 H1073 0.985 . S
C1068 C1062 1.379 . S
C1068 C1065 1.363 . S
C1068 N1066 1.356 . S
C1069 C1063 1.363 . S
C1069 C1064 1.379 . S
C1069 N1067 1.356 . S
N1070 C1062 1.356 . S
N1070 H1076 0.984 . S
N1070 H1077 0.984 . S
N1071 C1064 1.356 . S
N1071 H1074 0.984 . S
N1071 H1075 0.985 . S
H1072 N1067 0.984 . S
H1073 N1067 0.985 . S
H1074 N1071 0.984 . S
H1075 N1071 0.985 . S
H1076 N1070 0.984 . S
H1077 N1070 0.984 . S
H1078 N1066 0.984 . S
H1079 N1066 0.985 . S
C1080 C1081 1.363 . S
C1080 C1086 1.379 . S
C1080 N1088 1.356 . S
C1081 C1080 1.363 . S
C1081 C1087 1.363 . S
C1082 C1083 1.363 . S
C1082 C1087 1.379 . S
C1082 N1089 1.356 . S
C1083 C1082 1.363 . S
C1083 C1086 1.363 . S
N1084 C1086 1.356 . S
N1084 H1096 0.984 . S
N1084 H1097 0.985 . S
N1085 C1087 1.356 . S
N1085 H1090 0.984 . S
N1085 H1091 0.985 . S
C1086 C1080 1.379 . S
C1086 C1083 1.363 . S
C1086 N1084 1.356 . S
C1087 C1081 1.363 . S
C1087 C1082 1.379 . S
C1087 N1085 1.356 . S
N1088 C1080 1.356 . S
N1088 H1094 0.984 . S
N1088 H1095 0.984 . S
N1089 C1082 1.356 . S
N1089 H1092 0.984 . S
N1089 H1093 0.985 . S
H1090 N1085 0.984 . S
H1091 N1085 0.985 . S
H1092 N1089 0.984 . S
H1093 N1089 0.985 . S
H1094 N1088 0.984 . S
H1095 N1088 0.984 . S
H1096 N1084 0.984 . S
H1097 N1084 0.985 . S
C1098 C1099 1.363 . S
C1098 C1104 1.379 . S
C1098 N1106 1.356 . S
C1099 C1098 1.363 . S
C1099 C1105 1.363 . S
C1100 C1101 1.363 . S
C1100 C1105 1.379 . S
C1100 N1107 1.356 . S
C1101 C1100 1.363 . S
C1101 C1104 1.363 . S
N1102 C1104 1.356 . S
N1102 H1114 0.984 . S
N1102 H1115 0.985 . S
N1103 C1105 1.356 . S
N1103 H1108 0.984 . S
N1103 H1109 0.985 . S
C1104 C1098 1.379 . S
C1104 C1101 1.363 . S
C1104 N1102 1.356 . S
C1105 C1099 1.363 . S
C1105 C1100 1.379 . S
C1105 N1103 1.356 . S
N1106 C1098 1.356 . S
N1106 H1112 0.984 . S
N1106 H1113 0.984 . S
N1107 C1100 1.356 . S
N1107 H1110 0.984 . S
N1107 H1111 0.985 . S
H1108 N1103 0.984 . S
H1109 N1103 0.985 . S
H1110 N1107 0.984 . S
H1111 N1107 0.985 . S
H1112 N1106 0.984 . S
H1113 N1106 0.984 . S
H1114 N1102 0.984 . S
H1115 N1102 0.985 . S
C1116 C1117 1.363 . S
C1116 C1122 1.379 . S
C1116 N1124 1.356 . S
C1117 C1116 1.363 . S
C1117 C1123 1.363 . S
C1118 C1119 1.363 . S
C1118 C1123 1.379 . S
C1118 N1125 1.356 . S
C1119 C1118 1.363 . S
C1119 C1122 1.363 . S
N1120 C1122 1.356 . S
N1120 H1132 0.984 . S
N1120 H1133 0.985 . S
N1121 C1123 1.356 . S
N1121 H1126 0.984 . S
N1121 H1127 0.985 . S
C1122 C1116 1.379 . S
C1122 C1119 1.363 . S
C1122 N1120 1.356 . S
C1123 C1117 1.363 . S
C1123 C1118 1.379 . S
C1123 N1121 1.356 . S
N1124 C1116 1.356 . S
N1124 H1130 0.984 . S
N1124 H1131 0.984 . S
N1125 C1118 1.356 . S
N1125 H1128 0.984 . S
N1125 H1129 0.985 . S
H1126 N1121 0.984 . S
H1127 N1121 0.985 . S
H1128 N1125 0.984 . S
H1129 N1125 0.985 . S
H1130 N1124 0.984 . S
H1131 N1124 0.984 . S
H1132 N1120 0.984 . S
H1133 N1120 0.985 . S
C1134 C1135 1.363 . S
C1134 C1140 1.379 . S
C1134 N1142 1.356 . S
C1135 C1134 1.363 . S
C1135 C1141 1.363 . S
C1136 C1137 1.363 . S
C1136 C1141 1.379 . S
C1136 N1143 1.356 . S
C1137 C1136 1.363 . S
C1137 C1140 1.363 . S
N1138 C1140 1.356 . S
N1138 H1150 0.984 . S
N1138 H1151 0.985 . S
N1139 C1141 1.356 . S
N1139 H1144 0.984 . S
N1139 H1145 0.985 . S
C1140 C1134 1.379 . S
C1140 C1137 1.363 . S
C1140 N1138 1.356 . S
C1141 C1135 1.363 . S
C1141 C1136 1.379 . S
C1141 N1139 1.356 . S
N1142 C1134 1.356 . S
N1142 H1148 0.984 . S
N1142 H1149 0.984 . S
N1143 C1136 1.356 . S
N1143 H1146 0.984 . S
N1143 H1147 0.985 . S
H1144 N1139 0.984 . S
H1145 N1139 0.985 . S
H1146 N1143 0.984 . S
H1147 N1143 0.985 . S
H1148 N1142 0.984 . S
H1149 N1142 0.984 . S
H1150 N1138 0.984 . S
H1151 N1138 0.985 . S
C577 C4 1.421 . S
C579 C472 1.421 . S
C595 C400 1.421 . S
C597 C40 1.421 . S
C613 C436 1.421 . S
C615 C76 1.421 . S
C631 C364 1.421 . S
C633 C112 1.421 . S
C649 C148 1.421 . S
C651 C544 1.421 . S
C667 C184 1.421 . S
C669 C328 1.421 . S
C685 C508 1.421 . S
C687 C220 1.421 . S
C703 C256 1.421 . S
C705 C292 1.421 . S
C721 C158 1.538 . S
C723 C14 1.538 . S
C739 C50 1.538 . S
C741 C194 1.538 . S
C757 C86 1.538 . S
C759 C230 1.538 . S
C775 C266 1.538 . S
C777 C122 1.538 . S
C793 C302 1.538 . S
C795 C374 1.538 . S
C811 C338 1.538 . S
C813 C410 1.538 . S
C829 C518 1.538 . S
C831 C446 1.538 . S
C847 C482 1.538 . S
C849 C554 1.538 . S
C865 C183 1.322 . S
C867 C3 1.322 . S
C883 C39 1.322 . S
C885 C219 1.322 . S
C901 C75 1.322 . S
C903 C255 1.322 . S
C919 C147 1.322 . S
C921 C111 1.322 . S
C937 C146 1.470 . S
C939 C362 1.470 . S
C955 C74 1.470 . S
C957 C290 1.470 . S
C973 C398 1.470 . S
C975 C218 1.470 . S
C991 C326 1.470 . S
C993 C2 1.470 . S
C1009 C291 1.322 . S
C1011 C435 1.322 . S
C1027 C363 1.322 . S
C1029 C543 1.322 . S
C1045 C471 1.322 . S
C1047 C327 1.322 . S
C1063 C399 1.322 . S
C1065 C507 1.322 . S
C1081 C506 1.470 . S
C1083 C38 1.470 . S
C1099 C470 1.470 . S
C1101 C182 1.470 . S
C1117 C542 1.470 . S
C1119 C110 1.470 . S
C1135 C434 1.470 . S
C1137 C254 1.470 . S
