# Generated by pormake.
# Topology smc, (6)-cn, num edge types: 1
# Building blocks:
#     Node 0, Type 0, BuildingBlock: BETFEN_clean_sbu_0, # of connection points: 6
#     Node 1, Type 0, BuildingBlock: BETFEN_clean_sbu_0, # of connection points: 6
#     Node 2, Type 0, BuildingBlock: BETFEN_clean_sbu_0, # of connection points: 6
#     Node 3, Type 0, BuildingBlock: BETFEN_clean_sbu_0, # of connection points: 6
#     Node 4, Type 0, BuildingBlock: BETFEN_clean_sbu_0, # of connection points: 6
#     Node 5, Type 0, BuildingBlock: BETFEN_clean_sbu_0, # of connection points: 6
#     Node 6, Type 0, BuildingBlock: BETFEN_clean_sbu_0, # of connection points: 6
#     Node 7, Type 0, BuildingBlock: BETFEN_clean_sbu_0, # of connection points: 6
#     Node 8, Type 0, BuildingBlock: BETFEN_clean_sbu_0, # of connection points: 6
#     Edge 9, Type (0, 0), BuildingBlock: AJUNOK_clean_linker_0, # of connection points: 2
#     Edge 10, Type (0, 0), BuildingBlock: AJUNOK_clean_linker_0, # of connection points: 2
#     Edge 11, Type (0, 0), BuildingBlock: AJUNOK_clean_linker_0, # of connection points: 2
#     Edge 12, Type (0, 0), BuildingBlock: AJUNOK_clean_linker_0, # of connection points: 2
#     Edge 13, Type (0, 0), BuildingBlock: AJUNOK_clean_linker_0, # of connection points: 2
#     Edge 14, Type (0, 0), BuildingBlock: AJUNOK_clean_linker_0, # of connection points: 2
#     Edge 15, Type (0, 0), BuildingBlock: AJUNOK_clean_linker_0, # of connection points: 2
#     Edge 16, Type (0, 0), BuildingBlock: AJUNOK_clean_linker_0, # of connection points: 2
#     Edge 17, Type (0, 0), BuildingBlock: AJUNOK_clean_linker_0, # of connection points: 2
#     Edge 18, Type (0, 0), BuildingBlock: AJUNOK_clean_linker_0, # of connection points: 2
#     Edge 19, Type (0, 0), BuildingBlock: AJUNOK_clean_linker_0, # of connection points: 2
#     Edge 20, Type (0, 0), BuildingBlock: AJUNOK_clean_linker_0, # of connection points: 2
#     Edge 21, Type (0, 0), BuildingBlock: AJUNOK_clean_linker_0, # of connection points: 2
#     Edge 22, Type (0, 0), BuildingBlock: AJUNOK_clean_linker_0, # of connection points: 2
#     Edge 23, Type (0, 0), BuildingBlock: AJUNOK_clean_linker_0, # of connection points: 2
#     Edge 24, Type (0, 0), BuildingBlock: AJUNOK_clean_linker_0, # of connection points: 2
#     Edge 25, Type (0, 0), BuildingBlock: AJUNOK_clean_linker_0, # of connection points: 2
#     Edge 26, Type (0, 0), BuildingBlock: AJUNOK_clean_linker_0, # of connection points: 2
#     Edge 27, Type (0, 0), BuildingBlock: AJUNOK_clean_linker_0, # of connection points: 2
#     Edge 28, Type (0, 0), BuildingBlock: AJUNOK_clean_linker_0, # of connection points: 2
#     Edge 29, Type (0, 0), BuildingBlock: AJUNOK_clean_linker_0, # of connection points: 2
#     Edge 30, Type (0, 0), BuildingBlock: AJUNOK_clean_linker_0, # of connection points: 2
#     Edge 31, Type (0, 0), BuildingBlock: AJUNOK_clean_linker_0, # of connection points: 2
#     Edge 32, Type (0, 0), BuildingBlock: AJUNOK_clean_linker_0, # of connection points: 2
#     Edge 33, Type (0, 0), BuildingBlock: AJUNOK_clean_linker_0, # of connection points: 2
#     Edge 34, Type (0, 0), BuildingBlock: AJUNOK_clean_linker_0, # of connection points: 2
#     Edge 35, Type (0, 0), BuildingBlock: AJUNOK_clean_linker_0, # of connection points: 2
# Relax obj value: 0.196
# Max RMSD: 0.339
# Mean RMSD: 0.339
data_MOF--net-smc--node1-BETFEN_clean_sbu_0--edge1-AJUNOK_clean_linker_0
_symmetry_space_group_name_H-M    P1
_symmetry_Int_Tables_number       1
_symmetry_cell_setting            triclinic
loop_
_symmetry_equiv_pos_as_xyz
'x, y, z'
_cell_length_a     31.711433
_cell_length_b     31.641628
_cell_length_c     28.019362
_cell_angle_alpha  90.543343
_cell_angle_beta   89.421958
_cell_angle_gamma 120.17931
loop_
_atom_site_label
_atom_site_type_symbol
_atom_site_fract_x
_atom_site_fract_y
_atom_site_fract_z
_atom_type_partial_charge
Pr0 Pr 1.02454 0.48107 0.05177 0.0
Pr1 Pr 0.08818 0.44609 1.01417 0.0
C2 C 0.96616 0.51999 0.05053 0.0
C3 C 0.92317 0.52672 0.05157 0.0
C4 C 0.9059 0.53504 0.09493 0.0
C5 C 0.87138 0.55019 0.09522 0.0
C6 C 0.85355 0.55758 0.0522 0.0
C7 C 0.86931 0.54749 1.00887 0.0
C8 C 0.90372 0.53208 1.00856 0.0
C9 C 0.0757 0.46662 0.12432 0.0
C10 C 0.97362 0.36674 0.05801 0.0
C11 C 0.15345 0.4174 0.99483 0.0
C12 C 0.20737 0.44273 0.99982 0.0
C13 C 0.23646 0.44961 0.95921 0.0
C14 C 0.28745 0.47685 0.96189 0.0
C15 C 0.31061 0.49766 1.00537 0.0
C16 C 0.28163 0.49032 0.04624 0.0
C17 C 0.23054 0.46356 0.04345 0.0
C18 C 1.02481 0.44057 0.94328 0.0
C19 C 0.13363 0.56635 1.02085 0.0
O20 O 0.97592 0.50207 1.01243 0.0
O21 O 0.986 0.51609 0.08986 0.0
O22 O 0.09414 0.48559 0.08421 0.0
O23 O 1.03214 0.46058 0.12987 0.0
O24 O 1.01218 0.37176 0.03322 0.0
O25 O 0.97353 0.40446 0.07697 0.0
O26 O 0.12675 0.40455 0.0337 0.0
O27 O 0.13758 0.43548 0.96263 0.0
O28 O 1.01354 0.42954 0.9866 0.0
O29 O 0.07198 0.46413 0.93833 0.0
O30 O 0.08946 0.55616 0.0317 0.0
O31 O 0.14448 0.5315 1.01499 0.0
H32 H 0.92032 0.5316 0.12862 0.0
H33 H 0.8597 0.55761 0.12918 0.0
H34 H 0.85542 0.55204 0.97531 0.0
H35 H 0.91646 0.52617 0.97451 0.0
H36 H 0.21964 0.43432 0.9251 0.0
H37 H 0.30884 0.48112 0.93002 0.0
H38 H 0.29857 0.50583 0.08026 0.0
H39 H 0.20931 0.4597 0.07531 0.0
Pr40 Pr 0.60255 0.5633 0.04598 0.0
Pr41 Pr 0.64111 0.66477 1.01022 0.0
C42 C 0.58037 0.4701 0.04856 0.0
C43 C 0.56765 0.41877 0.05103 0.0
C44 C 0.54133 0.39076 0.09052 0.0
C45 C 0.52361 0.34065 0.09089 0.0
C46 C 0.53139 0.3177 0.05158 0.0
C47 C 0.55912 0.34571 1.01258 0.0
C48 C 0.57734 0.39624 1.01236 0.0
C49 C 0.60165 0.62058 0.12479 0.0
C50 C 0.71417 0.62752 0.05892 0.0
C51 C 0.67308 0.76025 0.99744 0.0
C52 C 0.64661 0.78779 1.00104 0.0
C53 C 0.64324 0.81234 0.96099 0.0
C54 C 0.61492 0.83499 0.96272 0.0
C55 C 0.58955 0.83365 1.00462 0.0
C56 C 0.59256 0.80872 0.04448 0.0
C57 C 0.62077 0.78613 0.04271 0.0
C58 C 0.64114 0.60615 0.93625 0.0
C59 C 0.52188 0.58723 1.01023 0.0
O60 O 0.62007 0.50364 1.02737 0.0
O61 O 0.55323 0.48541 0.06919 0.0
O62 O 0.61467 0.63385 0.08255 0.0
O63 O 0.58672 0.5741 0.12759 0.0
O64 O 0.71231 0.6569 1.02606 0.0
O65 O 0.67522 0.59967 0.08353 0.0
O66 O 0.68048 0.74321 0.03703 0.0
O67 O 0.6598 0.72901 0.96213 0.0
O68 O 0.65298 0.60418 0.97914 0.0
O69 O 0.61838 0.63074 0.93446 0.0
O70 O 0.53405 0.55349 1.00867 0.0
O71 O 0.55545 0.63365 1.01663 0.0
H72 H 0.53392 0.40754 0.12088 0.0
H73 H 0.50362 0.3196 0.12188 0.0
H74 H 0.56667 0.32858 0.98262 0.0
H75 H 0.59766 0.41737 0.98155 0.0
H76 H 0.66221 0.81363 0.92817 0.0
H77 H 0.61349 0.85423 0.93157 0.0
H78 H 0.57298 0.80663 0.0771 0.0
H79 H 0.62191 0.76707 0.07393 0.0
Pr80 Pr 0.5211 0.05691 0.04386 0.0
Pr81 Pr 0.42291 0.99737 1.01934 0.0
C82 C 0.61708 0.11928 0.03934 0.0
C83 C 0.66698 0.16034 0.04576 0.0
C84 C 0.69515 0.16242 0.08497 0.0
C85 C 0.74529 0.19558 0.08532 0.0
C86 C 0.76791 0.22665 0.04627 0.0
C87 C 0.73902 0.22679 1.00868 0.0
C88 C 0.689 0.19393 1.00845 0.0
C89 C 0.46189 1.00704 0.12429 0.0
C90 C 0.46681 0.11182 0.06778 0.0
C91 C 0.32662 0.9343 1.0145 0.0
C92 C 0.29901 0.88049 1.01914 0.0
C93 C 0.26285 0.85219 0.98567 0.0
C94 C 0.24015 0.8011 0.98608 0.0
C95 C 0.25311 0.77731 1.02008 0.0
C96 C 0.28957 0.80572 0.05343 0.0
C97 C 0.31245 0.85681 0.05285 0.0
C98 C 0.47129 0.05541 0.94034 0.0
C99 C 0.49658 0.95165 1.00835 0.0
O100 O 0.58581 0.12427 1.01331 0.0
O101 O 0.59787 0.08209 0.06873 0.0
O102 O 0.46023 0.98826 0.08376 0.0
O103 O 0.49782 0.05194 0.12487 0.0
O104 O 0.43077 0.07576 0.04285 0.0
O105 O 0.50249 0.10679 0.08218 0.0
O106 O 0.34737 0.96016 0.05298 0.0
O107 O 0.35475 0.95013 0.97682 0.0
O108 O 0.47748 0.0697 0.98357 0.0
O109 O 0.44616 1.00791 0.93878 0.0
O110 O 0.53052 0.99733 1.00704 0.0
O111 O 0.45105 0.93998 1.01732 0.0
H112 H 0.67887 0.13727 0.11445 0.0
H113 H 0.76652 0.19629 0.11567 0.0
H114 H 0.75538 0.25093 0.97846 0.0
H115 H 0.66803 0.19313 0.97781 0.0
H116 H 0.25275 0.86969 0.95865 0.0
H117 H 0.21211 0.78014 0.96006 0.0
H118 H 0.30086 0.78842 0.07955 0.0
H119 H 0.3413 0.87776 0.07817 0.0
Pr120 Pr 0.69052 0.8144 0.38486 0.0
Pr121 Pr 0.75461 0.77469 0.34783 0.0
C122 C 0.62064 0.8378 0.39356 0.0
C123 C 0.58345 0.85252 0.39926 0.0
C124 C 0.59631 0.89783 0.42039 0.0
C125 C 0.56408 0.9157 0.41999 0.0
C126 C 0.51822 0.88866 0.39852 0.0
C127 C 0.50383 0.84151 0.38066 0.0
C128 C 0.53633 0.82373 0.38071 0.0
C129 C 0.75137 0.81734 0.46099 0.0
C130 C 0.64599 0.70309 0.4029 0.0
C131 C 0.81792 0.74264 0.33522 0.0
C132 C 0.87163 0.76914 0.33881 0.0
C133 C 0.89947 0.75869 0.30675 0.0
C134 C 0.95052 0.78684 0.30705 0.0
C135 C 0.97456 0.82593 0.33948 0.0
C136 C 0.94657 0.83614 0.37164 0.0
C137 C 0.89564 0.80847 0.37087 0.0
C138 C 0.69113 0.76836 0.27622 0.0
C139 C 0.79444 0.89353 0.34389 0.0
O140 O 0.6112 0.79516 0.37651 0.0
O141 O 0.66609 0.8675 0.40551 0.0
O142 O 0.75029 0.80473 0.41834 0.0
O143 O 0.72031 0.83261 0.4653 0.0
O144 O 0.67762 0.70402 0.37062 0.0
O145 O 0.65578 0.74305 0.42523 0.0
O146 O 0.79322 0.73585 0.375 0.0
O147 O 0.80105 0.75636 0.29992 0.0
O148 O 0.68015 0.76025 0.32043 0.0
O149 O 0.73824 0.78967 0.27093 0.0
O150 O 0.74811 0.87975 0.34124 0.0
O151 O 0.80802 0.86102 0.35236 0.0
H152 H 0.63214 0.92055 0.43563 0.0
H153 H 0.57608 0.95184 0.43443 0.0
H154 H 0.46795 0.81887 0.36549 0.0
H155 H 0.52518 0.78832 0.36481 0.0
H156 H 0.88169 0.72923 0.28101 0.0
H157 H 0.97121 0.77779 0.2822 0.0
H158 H 0.96411 0.86624 0.39676 0.0
H159 H 0.87508 0.81858 0.39464 0.0
Pr160 Pr 0.26585 0.89451 0.37487 0.0
Pr161 Pr 0.30274 0.99355 0.3526 0.0
C162 C 0.21977 0.79636 0.38033 0.0
C163 C 0.22148 0.75064 0.38144 0.0
C164 C 0.21779 0.72776 0.42525 0.0
C165 C 0.20676 0.67915 0.42643 0.0
C166 C 0.19913 0.65265 0.38385 0.0
C167 C 0.20654 0.67662 0.34 0.0
C168 C 0.2177 0.72523 0.33879 0.0
C169 C 0.28024 0.95372 0.45673 0.0
C170 C 0.38015 0.95281 0.38 0.0
C171 C 0.33434 0.09003 0.34578 0.0
C172 C 0.30855 0.11801 0.34912 0.0
C173 C 0.32396 0.15987 0.32116 0.0
C174 C 0.29735 0.18432 0.32113 0.0
C175 C 0.25496 0.16748 0.34931 0.0
C176 C 0.23935 0.1252 0.37688 0.0
C177 C 0.26561 0.10047 0.37636 0.0
C178 C 0.30543 0.94472 0.26912 0.0
C179 C 0.18493 0.92226 0.34596 0.0
O180 O 0.2293 0.82006 0.34005 0.0
O181 O 0.23311 0.82472 0.41802 0.0
O182 O 0.25927 0.95427 0.41883 0.0
O183 O 0.29401 0.92152 0.45312 0.0
O184 O 0.3753 0.9923 0.37763 0.0
O185 O 0.34285 0.90908 0.37388 0.0
O186 O 0.33823 0.06997 0.3849 0.0
O187 O 0.32249 0.06085 0.30907 0.0
O188 O 0.31734 0.93841 0.31041 0.0
O189 O 0.28169 0.9681 0.27331 0.0
O190 O 0.19628 0.88817 0.34215 0.0
O191 O 0.2186 0.96711 0.35704 0.0
H192 H 0.22055 0.7464 0.4587 0.0
H193 H 0.20219 0.66165 0.46065 0.0
H194 H 0.20074 0.65698 0.30659 0.0
H195 H 0.2202 0.74175 0.30441 0.0
H196 H 0.35622 0.17326 0.29883 0.0
H197 H 0.31014 0.21666 0.29936 0.0
H198 H 0.20626 0.1107 0.39809 0.0
H199 H 0.25185 0.06706 0.39647 0.0
Pr200 Pr 0.18997 0.39037 0.38161 0.0
Pr201 Pr 0.08794 0.33039 0.35551 0.0
C202 C 0.28442 0.45932 0.38608 0.0
C203 C 0.33643 0.49734 0.38727 0.0
C204 C 0.36093 0.51219 0.43094 0.0
C205 C 0.41085 0.54563 0.43202 0.0
C206 C 0.43728 0.56501 0.38948 0.0
C207 C 0.4127 0.55108 0.34575 0.0
C208 C 0.36253 0.51764 0.34466 0.0
C209 C 0.12561 0.33465 0.45692 0.0
C210 C 0.1303 0.44604 0.39535 0.0
C211 C 0.99199 0.26426 0.35257 0.0
C212 C 0.96593 0.20971 0.35156 0.0
C213 C 0.94374 0.18381 0.30937 0.0
C214 C 0.92018 0.13253 0.30791 0.0
C215 C 0.91788 0.10599 0.34874 0.0
C216 C 0.9407 0.1318 0.39067 0.0
C217 C 0.96454 0.18296 0.39207 0.0
C218 C 0.1391 0.38507 0.27565 0.0
C219 C 0.16129 0.2849 0.34852 0.0
O220 O 0.25921 0.44859 0.34674 0.0
O221 O 0.26036 0.43388 0.42355 0.0
O222 O 0.12096 0.36016 0.42644 0.0
O223 O 0.1668 0.33543 0.44971 0.0
O224 O 0.09354 0.40781 0.37317 0.0
O225 O 0.16844 0.44448 0.40999 0.0
O226 O 1.01454 0.28583 0.39201 0.0
O227 O 1.01714 0.28677 0.3145 0.0
O228 O 0.14636 0.40039 0.3185 0.0
O229 O 0.11156 0.33775 0.27507 0.0
O230 O 0.19455 0.3299 0.33984 0.0
O231 O 0.11836 0.27559 0.36498 0.0
H232 H 0.3417 0.49747 0.46429 0.0
H233 H 0.42905 0.55587 0.46622 0.0
H234 H 0.43223 0.56616 0.31259 0.0
H235 H 0.34439 0.50708 0.31044 0.0
H236 H 0.94443 0.20324 0.27748 0.0
H237 H 0.90255 0.11353 0.27525 0.0
H238 H 0.93969 0.11225 0.4226 0.0
H239 H 0.98172 0.20143 0.42508 0.0
Pr240 Pr 0.35498 0.14688 0.71393 0.0
Pr241 Pr 0.42254 0.10966 0.67739 0.0
C242 C 0.28373 0.16855 0.71785 0.0
C243 C 0.24442 0.18029 0.71935 0.0
C244 C 0.23612 0.20027 0.76083 0.0
C245 C 0.205 0.21953 0.75976 0.0
C246 C 0.18258 0.22006 0.71691 0.0
C247 C 0.18823 0.19674 0.67637 0.0
C248 C 0.21877 0.17683 0.67765 0.0
C249 C 0.41137 0.14387 0.79147 0.0
C250 C 0.30976 0.03252 0.72274 0.0
C251 C 0.48614 0.07757 0.66629 0.0
C252 C 0.53955 0.10232 0.67151 0.0
C253 C 0.566 0.08345 0.6485 0.0
C254 C 0.61704 0.1087 0.65033 0.0
C255 C 0.64266 0.15372 0.67471 0.0
C256 C 0.61585 0.17221 0.69821 0.0
C257 C 0.56481 0.14687 0.69646 0.0
C258 C 0.36302 0.10769 0.60403 0.0
C259 C 0.46199 0.22868 0.67917 0.0
O260 O 0.28125 0.13361 0.69043 0.0
O261 O 0.32326 0.1921 0.74357 0.0
O262 O 0.41271 0.13494 0.7481 0.0
O263 O 0.37906 0.15751 0.79643 0.0
O264 O 0.34504 0.03671 0.69322 0.0
O265 O 0.3127 0.0707 0.74415 0.0
O266 O 0.46059 0.07063 0.70546 0.0
O267 O 0.4711 0.09304 0.63087 0.0
O268 O 0.34983 0.09694 0.64742 0.0
O269 O 0.41049 0.13097 0.6016 0.0
O270 O 0.41599 0.21661 0.67832 0.0
O271 O 0.47514 0.19545 0.68511 0.0
H272 H 0.25484 0.20234 0.79366 0.0
H273 H 0.19937 0.23498 0.79218 0.0
H274 H 0.17075 0.19579 0.64303 0.0
H275 H 0.22443 0.16126 0.64529 0.0
H276 H 0.54718 0.04938 0.62872 0.0
H277 H 0.6364 0.09276 0.63284 0.0
H278 H 0.6344 0.20678 0.71718 0.0
H279 H 0.54508 0.16247 0.71392 0.0
Pr280 Pr 0.94156 0.23006 0.71974 0.0
Pr281 Pr 0.97119 0.32612 0.67276 0.0
C282 C 0.91727 0.13604 0.72298 0.0
C283 C 0.90389 0.08422 0.72411 0.0
C284 C 0.89508 0.06034 0.76801 0.0
C285 C 0.87697 1.01013 0.76952 0.0
C286 C 0.86793 0.98276 0.72719 0.0
C287 C 0.87803 1.00675 0.68311 0.0
C288 C 0.89592 0.05722 0.68158 0.0
C289 C 0.94035 0.29339 0.79185 0.0
C290 C 0.05588 0.30144 0.71852 0.0
C291 C 0.9956 0.41702 0.645 0.0
C292 C 0.97235 0.44723 0.65239 0.0
C293 C 0.97019 0.47422 0.61415 0.0
C294 C 0.94545 0.50026 0.61877 0.0
C295 C 0.92275 0.50081 0.66213 0.0
C296 C 0.92533 0.47394 0.70072 0.0
C297 C 0.94898 0.44667 0.69557 0.0
C298 C 0.9741 0.26172 0.60674 0.0
C299 C 0.85356 0.24717 0.68692 0.0
O300 O 0.91444 0.15667 0.68382 0.0
O301 O 0.93332 0.16466 0.76059 0.0
O302 O 0.95033 0.30232 0.74826 0.0
O303 O 0.92644 0.2476 0.79948 0.0
O304 O 0.04734 0.32813 0.68751 0.0
O305 O 1.0205 0.26722 0.74355 0.0
O306 O 0.97153 0.37849 0.61795 0.0
O307 O 1.01519 0.40861 0.68183 0.0
O308 O 0.98848 0.26662 0.64964 0.0
O309 O 0.945 0.27934 0.60316 0.0
O310 O 0.86595 0.21411 0.69392 0.0
O311 O 0.88651 0.29402 0.68437 0.0
H312 H 0.90065 0.08013 0.80128 0.0
H313 H 0.86915 0.99244 0.80399 0.0
H314 H 0.87208 0.98654 0.65005 0.0
H315 H 0.90277 0.07493 0.64719 0.0
H316 H 0.98696 0.47444 0.5802 0.0
H317 H 0.94375 0.51966 0.58791 0.0
H318 H 0.90961 0.47419 0.7351 0.0
H319 H 0.94854 0.42491 0.72526 0.0
Pr320 Pr 0.85399 0.72696 0.71559 0.0
Pr321 Pr 0.75546 0.66369 0.68845 0.0
C322 C 0.94834 0.79543 0.71672 0.0
C323 C 1.00026 0.83313 0.71726 0.0
C324 C 1.02798 0.8388 0.75784 0.0
C325 C 0.07818 0.87061 0.7573 0.0
C326 C 0.10187 0.89731 0.71606 0.0
C327 C 0.07377 0.89333 0.67593 0.0
C328 C 1.02316 0.86148 0.6766 0.0
C329 C 0.79621 0.66796 0.79275 0.0
C330 C 0.79265 0.77326 0.7433 0.0
C331 C 0.65965 0.59816 0.68089 0.0
C332 C 0.63085 0.54407 0.68344 0.0
C333 C 0.59926 0.51767 0.6459 0.0
C334 C 0.57487 0.46651 0.64507 0.0
C335 C 0.58157 0.44051 0.6818 0.0
C336 C 0.61269 0.46694 0.71981 0.0
C337 C 0.6374 0.51821 0.72047 0.0
C338 C 0.80481 0.72584 0.61216 0.0
C339 C 0.83404 0.62437 0.67457 0.0
O340 O 0.91636 0.80036 0.69181 0.0
O341 O 0.93112 0.75493 0.74128 0.0
O342 O 0.79544 0.65384 0.75023 0.0
O343 O 0.82968 0.71368 0.79673 0.0
O344 O 0.76051 0.74035 0.71306 0.0
O345 O 0.82477 0.76481 0.76159 0.0
O346 O 0.67912 0.62262 0.72034 0.0
O347 O 0.68896 0.61544 0.64411 0.0
O348 O 0.80904 0.73849 0.65588 0.0
O349 O 0.78066 0.67838 0.6086 0.0
O350 O 0.8663 0.67089 0.67422 0.0
O351 O 0.78805 0.61018 0.68485 0.0
H352 H 1.01095 0.81788 0.7898 0.0
H353 H 0.09875 0.8733 0.78894 0.0
H354 H 0.09085 0.91457 0.64415 0.0
H355 H 1.00221 0.85791 0.64497 0.0
H356 H 0.59395 0.53674 0.61674 0.0
H357 H 0.55039 0.44725 0.61583 0.0
H358 H 0.61853 0.44791 0.74863 0.0
H359 H 0.66214 0.53754 0.74954 0.0
C360 C 0.43876 0.5312 0.04218 0.0
C361 C 0.46897 0.57006 1.01152 0.0
C362 C 0.3878 0.50934 0.04111 0.0
C363 C 0.36488 0.52468 1.00852 0.0
H364 H 0.4547 0.51698 0.06679 0.0
H365 H 0.36611 0.479 0.0648 0.0
S366 S 0.42745 0.62568 0.92144 0.0
N367 N 0.47249 0.62401 0.94885 0.0
N368 N 0.37642 0.58221 0.94578 0.0
C369 C 0.39468 0.56408 0.9782 0.0
C370 C 0.44679 0.58702 0.98003 0.0
C371 C 0.50273 0.88061 0.97532 0.0
C372 C 0.51356 0.91593 1.01111 0.0
C373 C 0.52694 0.85346 0.97357 0.0
C374 C 0.56228 0.86053 1.00782 0.0
H375 H 0.47711 0.87549 0.94748 0.0
H376 H 0.51844 0.82722 0.94492 0.0
S377 S 0.60348 0.94887 0.10862 0.0
N378 N 0.56169 0.95639 0.08157 0.0
N379 N 0.60664 0.90554 0.07833 0.0
C380 C 0.57246 0.89505 0.04426 0.0
C381 C 0.54825 0.92271 0.04584 0.0
C382 C 0.22175 0.6953 0.97987 0.0
C383 C 0.22739 0.72293 1.02163 0.0
C384 C 0.1943 0.64383 0.9802 0.0
C385 C 0.17141 0.61852 1.02222 0.0
H386 H 0.23786 0.71366 0.94653 0.0
H387 H 0.18895 0.62395 0.94702 0.0
S388 S 0.17437 0.67316 0.14069 0.0
N389 N 0.20781 0.72056 0.10601 0.0
N390 N 0.15614 0.62435 0.10642 0.0
C391 C 0.17755 0.64558 0.06423 0.0
C392 C 0.20564 0.69765 0.06404 0.0
C393 C 0.45275 0.17962 0.04037 0.0
C394 C 0.47768 0.16345 0.06942 0.0
C395 C 0.47077 0.2299 0.03331 0.0
C396 C 0.51457 0.26527 0.05459 0.0
H397 H 0.41995 0.15347 1.02216 0.0
H398 H 0.45047 0.24122 1.01114 0.0
S399 S 0.5949 0.24415 0.13324 0.0
N400 N 0.54886 0.18919 0.1212 0.0
N401 N 0.58296 0.28212 0.10456 0.0
C402 C 0.53983 0.25013 0.08356 0.0
C403 C 0.52119 0.19966 0.09209 0.0
C404 C 0.84011 0.30868 0.03269 0.0
C405 C 0.82142 0.25963 0.04484 0.0
C406 C 0.89003 0.3414 0.0336 0.0
C407 C 0.92357 0.32698 0.04793 0.0
H408 H 0.81597 0.32239 1.02391 0.0
H409 H 0.90233 0.3792 1.02489 0.0
S410 S 0.8937 0.20087 0.0749 0.0
N411 N 0.84029 0.19625 0.06468 0.0
N412 N 0.93509 0.25931 0.06857 0.0
C413 C 0.90591 0.27755 0.05709 0.0
C414 C 0.85454 0.24362 0.05542 0.0
C415 C 0.82719 0.61768 1.02824 0.0
C416 C 0.81815 0.57533 0.05313 0.0
C417 C 0.79459 0.63577 0.03112 0.0
C418 C 0.75204 0.61237 0.05938 0.0
H419 H 0.85984 0.63705 1.00656 0.0
H420 H 0.80247 0.66783 1.01068 0.0
S421 S 0.70993 0.49635 0.12752 0.0
N422 N 0.76225 0.50818 0.10325 0.0
N423 N 0.70203 0.54169 0.11093 0.0
C424 C 0.74271 0.5692 0.08399 0.0
C425 C 0.7754 0.55081 0.08025 0.0
C426 C 0.05323 0.86191 0.38427 0.0
C427 C 1.02873 0.85534 0.3408 0.0
C428 C 0.10437 0.88686 0.38613 0.0
C429 C 0.13278 0.90681 0.34476 0.0
H430 H 1.0327 0.84597 0.41677 0.0
H431 H 0.1218 0.8888 0.4198 0.0
S432 S 0.08703 0.90243 0.22283 0.0
N433 N 1.03712 0.87308 0.25583 0.0
N434 N 0.13333 0.9196 0.2596 0.0
C435 C 0.10901 0.9018 0.30144 0.0
C436 C 0.05693 0.87621 0.29939 0.0
C437 C 0.18985 0.23388 0.30658 0.0
C438 C 0.17716 0.24829 0.34942 0.0
C439 C 0.21403 0.20685 0.30676 0.0
C440 C 0.22713 0.19397 0.34985 0.0
H441 H 0.18216 0.24471 0.27268 0.0
H442 H 0.2232 0.19659 0.2729 0.0
S443 S 0.20685 0.22774 0.47156 0.0
N444 N 0.18193 0.25027 0.43587 0.0
N445 N 0.22798 0.20032 0.43638 0.0
C446 C 0.21486 0.20851 0.39292 0.0
C447 C 0.18987 0.23559 0.39267 0.0
C448 C 0.89808 1.02289 0.31661 0.0
C449 C 0.88841 0.05151 0.34895 0.0
C450 C 0.86918 0.97131 0.3162 0.0
C451 C 0.82909 0.94697 0.34738 0.0
H452 H 0.92808 0.0405 0.29145 0.0
H453 H 0.87721 0.9506 0.29038 0.0
S454 S 0.78852 1.00504 0.43867 0.0
N455 N 0.83633 0.05136 0.41306 0.0
N456 N 0.78185 0.95538 0.4118 0.0
C457 C 0.81948 0.9753 0.37997 0.0
C458 C 0.84914 1.02729 0.38089 0.0
C459 C 0.13896 0.56875 0.41356 0.0
C460 C 0.18007 0.59933 0.38509 0.0
C461 C 0.11988 0.5179 0.41486 0.0
C462 C 0.14132 0.49641 0.38747 0.0
H463 H 0.12163 0.58435 0.43518 0.0
H464 H 0.0896 0.49573 0.43853 0.0
S465 S 0.2505 0.56024 0.30868 0.0
N466 N 0.24212 0.60425 0.33013 0.0
N467 N 0.20634 0.50925 0.33198 0.0
C468 C 0.18227 0.52668 0.35874 0.0
C469 C 0.20158 0.57799 0.35756 0.0
C470 C 0.52432 0.59223 0.3667 0.0
C471 C 0.4903 0.60043 0.39171 0.0
C472 C 0.57491 0.62399 0.37204 0.0
C473 C 0.59314 0.66476 0.40286 0.0
H474 H 0.51171 0.5608 0.34327 0.0
H475 H 0.59973 0.61687 0.35149 0.0
S476 S 0.51728 0.70419 0.47243 0.0
N477 N 0.47745 0.654 0.44443 0.0
N478 N 0.57107 0.71197 0.45736 0.0
C479 C 0.5586 0.67311 0.42775 0.0
C480 C 0.50764 0.64155 0.42127 0.0
C481 C 0.45003 0.95758 0.42413 0.0
C482 C 0.42698 0.95386 0.38048 0.0
C483 C 0.4803 0.93723 0.4296 0.0
C484 C 0.48743 0.91142 0.39196 0.0
H485 H 0.4417 0.97288 0.45512 0.0
H486 H 0.49619 0.93954 0.46425 0.0
S487 S 0.43496 0.89189 0.27058 0.0
N488 N 0.41418 0.9237 0.29899 0.0
N489 N 0.47009 0.88515 0.30911 0.0
C490 C 0.46575 0.90899 0.3478 0.0
C491 C 0.43606 0.93052 0.34208 0.0
C492 C 0.77257 0.22409 0.72266 0.0
C493 C 0.80117 0.22998 0.68196 0.0
C494 C 0.72144 0.20031 0.71983 0.0
C495 C 0.6971 0.18106 0.67625 0.0
H496 H 0.78975 0.23656 0.75716 0.0
H497 H 0.70076 0.19555 0.75233 0.0
S498 S 0.75645 0.18857 0.5592 0.0
N499 N 0.80228 0.21545 0.59701 0.0
N500 N 0.70644 0.17178 0.59107 0.0
C501 C 0.72573 0.18769 0.63515 0.0
C502 C 0.77769 0.21181 0.63818 0.0
C503 C 0.91909 0.57642 0.64374 0.0
C504 C 0.89801 0.53061 0.66638 0.0
C505 C 0.89689 0.60507 0.64517 0.0
C506 C 0.85251 0.58965 0.66951 0.0
H507 H 0.9537 0.59093 0.62516 0.0
H508 H 0.91526 0.64018 0.62743 0.0
S509 S 0.78324 0.47472 0.73803 0.0
N510 N 0.83007 0.47184 0.71545 0.0
N511 N 0.7895 0.52695 0.71942 0.0
C512 C 0.83115 0.54446 0.69315 0.0
C513 C 0.8537 0.51485 0.69151 0.0
C514 C 0.52804 0.35997 0.72179 0.0
C515 C 0.55487 0.38596 0.68131 0.0
C516 C 0.49978 0.30872 0.72126 0.0
C517 C 0.49808 0.28144 0.68065 0.0
H518 H 0.52744 0.37946 0.75355 0.0
H519 H 0.47805 0.29028 0.75251 0.0
S520 S 0.56256 0.33111 0.56612 0.0
N521 N 0.57879 0.38001 0.59982 0.0
N522 N 0.52563 0.2836 0.59931 0.0
C523 C 0.52545 0.30659 0.64041 0.0
C524 C 0.55387 0.35887 0.64063 0.0
C525 C 0.78538 0.84466 0.71304 0.0
C526 C 0.80712 0.82618 0.74368 0.0
C527 C 0.80576 0.89542 0.70648 0.0
C528 C 0.84876 0.92939 0.73016 0.0
H529 H 0.75294 0.81988 0.69354 0.0
H530 H 0.78752 0.9082 0.68314 0.0
S531 S 0.92305 0.90165 0.81123 0.0
N532 N 0.87568 0.84803 0.79783 0.0
N533 N 0.91459 0.94168 0.78203 0.0
C534 C 0.87149 0.91174 0.75989 0.0
C535 C 0.85038 0.86072 0.7678 0.0
C536 C 0.1774 0.95983 0.75615 0.0
C537 C 0.15572 0.92946 0.71647 0.0
C538 C 0.2279 0.98839 0.75995 0.0
C539 C 0.25952 0.98971 0.72334 0.0
H540 H 0.15506 0.96211 0.78446 0.0
H541 H 0.24213 1.01201 0.79099 0.0
S542 S 0.22096 0.91589 0.612 0.0
N543 N 0.1693 0.90005 0.64058 0.0
N544 N 0.26496 0.95695 0.64618 0.0
C545 C 0.23842 0.95898 0.68354 0.0
C546 C 0.18644 0.92863 0.6802 0.0
C547 C 0.10809 0.22128 0.6916 0.0
C548 C 0.15364 0.24506 0.71402 0.0
C549 C 0.07914 0.24288 0.68988 0.0
C550 C 0.09455 0.28955 0.70951 0.0
H551 H 0.09357 0.18464 0.67729 0.0
H552 H 1.04239 0.22102 0.67648 0.0
S553 S 0.21037 0.36694 0.7729 0.0
N554 N 0.21333 0.31827 0.75621 0.0
N555 N 0.1575 0.35816 0.75345 0.0
C556 C 0.14008 0.31408 0.73161 0.0
C557 C 0.16992 0.29202 0.73364 0.0
C558 C 0.13592 0.40434 0.18869 0.0
C559 C 0.13112 0.41334 0.23716 0.0
C560 C 0.12108 0.42437 0.15202 0.0
C561 C 0.10006 0.45352 0.16201 0.0
H562 H 0.14963 0.3802 0.17901 0.0
H563 H 0.12342 0.41439 0.11592 0.0
S564 S 0.07844 0.48856 0.28194 0.0
N565 N 0.10294 0.45423 0.29195 0.0
N566 N 0.0762 0.49143 0.22344 0.0
C567 C 0.09608 0.4638 0.20986 0.0
C568 C 0.11132 0.4439 0.24718 0.0
C569 C 0.64487 0.73829 0.19812 0.0
C570 C 0.66203 0.72872 0.24049 0.0
C571 C 0.6233 0.70238 0.16173 0.0
C572 C 0.6178 0.65548 0.1662 0.0
H573 H 0.64933 0.77413 0.19244 0.0
H574 H 0.61154 0.71153 0.12939 0.0
S575 S 0.66091 0.61327 0.26775 0.0
N576 N 0.67531 0.66956 0.28246 0.0
N577 N 0.63306 0.60233 0.21589 0.0
C578 C 0.63429 0.64535 0.20854 0.0
C579 C 0.65694 0.68192 0.24504 0.0
C580 C 0.39385 0.94048 0.17543 0.0
C581 C 0.41947 0.98906 0.15856 0.0
C582 C 0.35602 0.9254 0.21023 0.0
C583 C 0.34112 0.95779 0.22817 0.0
H584 H 0.40423 0.91446 0.16297 0.0
H585 H 0.33881 0.88837 0.22364 0.0
S586 S 0.39282 0.08734 0.19137 0.0
N587 N 0.42506 0.06834 0.16118 0.0
N588 N 0.35323 0.03979 0.2227 0.0
C589 C 0.36487 1.0055 0.20931 0.0
C590 C 0.40412 1.02115 0.17563 0.0
C591 C 0.48232 0.09382 0.85843 0.0
C592 C 0.4599 0.08256 0.90381 0.0
C593 C 0.46777 0.11523 0.8227 0.0
C594 C 0.43017 0.1261 0.83088 0.0
H595 H 0.51068 0.08531 0.8502 0.0
H596 H 0.48565 0.12268 0.78819 0.0
S597 S 0.35683 0.09962 0.94203 0.0
N598 N 0.39594 0.08111 0.95337 0.0
N599 N 0.36994 0.12211 0.88755 0.0
C600 C 0.40783 0.11521 0.87618 0.0
C601 C 0.42224 0.09317 0.91217 0.0
C602 C 0.96226 0.35545 0.91476 0.0
C603 C 0.99541 0.40523 0.90467 0.0
C604 C 0.94294 0.31966 0.87819 0.0
C605 C 0.95559 0.33213 0.82992 0.0
H606 H 0.95328 0.34339 0.95128 0.0
H607 H 0.91933 0.28177 0.88802 0.0
S608 S 1.03968 0.45755 0.78498 0.0
N609 N 1.03821 0.46496 0.84311 0.0
N610 N 1.00296 0.3986 0.77501 0.0
C611 C 0.98715 0.38205 0.81968 0.0
C612 C 1.00669 0.41825 0.85675 0.0
C613 C 0.71703 0.65804 0.82259 0.0
C614 C 0.75337 0.64523 0.82589 0.0
C615 C 0.67877 0.64173 0.85618 0.0
C616 C 0.67574 0.61299 0.89584 0.0
H617 H 0.71897 0.68225 0.79456 0.0
H618 H 0.65281 0.65416 0.85221 0.0
S619 S 0.76114 0.56755 0.91954 0.0
N620 N 0.7829 0.60001 0.87027 0.0
N621 N 0.71219 0.57061 0.93456 0.0
C622 C 0.71134 0.59877 0.89874 0.0
C623 C 0.7499 0.61477 0.86375 0.0
C624 C 0.80564 0.78725 0.49435 0.0
C625 C 0.76873 0.79924 0.50136 0.0
C626 C 0.81871 0.76521 0.53066 0.0
C627 C 0.79518 0.75407 0.57547 0.0
H628 H 0.82391 0.79405 0.46019 0.0
H629 H 0.84667 0.75592 0.52325 0.0
S630 S 0.69157 0.77169 0.60995 0.0
N631 N 0.70683 0.79508 0.55592 0.0
N632 N 0.7299 0.75258 0.6228 0.0
C633 C 0.75772 0.76518 0.58256 0.0
C634 C 0.74493 0.78807 0.54598 0.0
C635 C 0.33603 0.9983 0.52501 0.0
C636 C 0.29747 0.99177 0.49558 0.0
C637 C 0.3559 0.03536 0.55989 0.0
C638 C 0.33827 0.06789 0.56746 0.0
H639 H 0.35192 0.97516 0.52052 0.0
H640 H 0.38581 0.03873 0.58109 0.0
S641 S 0.23402 0.06337 0.50425 0.0
N642 N 0.23971 1.01896 0.47915 0.0
N643 N 0.27716 0.08854 0.54508 0.0
C644 C 0.29843 0.06076 0.53981 0.0
C645 C 0.27818 1.02291 0.50376 0.0
C646 C 1.01953 0.3135 0.53657 0.0
C647 C 1.01116 0.27493 0.56713 0.0
C648 C 0.05715 0.33217 0.50275 0.0
C649 C 0.08913 0.31365 0.49687 0.0
H650 H 0.99756 0.33081 0.53927 0.0
H651 H 0.06109 0.36205 0.48091 0.0
S652 S 0.08149 0.20986 0.56415 0.0
N653 N 1.03664 0.21638 0.58666 0.0
N654 N 0.10859 0.25269 0.52317 0.0
C655 C 0.08137 0.2747 0.52642 0.0
C656 C 1.04222 0.25513 0.56131 0.0
loop_
_geom_bond_atom_site_label_1
_geom_bond_atom_site_label_2
_geom_bond_distance
_geom_bond_site_symmetry_2
_ccdc_geom_bond_type
Pr0 C2 2.880 . S
Pr0 O20 2.562 1_554 S
Pr0 O21 2.490 . S
Pr0 O22 2.695 1_655 S
Pr0 O23 2.512 . S
Pr0 O25 2.437 . S
Pr0 O28 2.436 1_554 S
Pr0 O30 2.438 1_655 S
Pr1 C11 2.880 . S
Pr1 O22 2.436 1_556 S
Pr1 O24 2.438 1_456 S
Pr1 O26 2.562 1_556 S
Pr1 O27 2.490 . S
Pr1 O28 2.695 1_455 S
Pr1 O29 2.512 . S
Pr1 O31 2.437 . S
C2 Pr0 2.880 . S
C2 C3 1.491 . S
C2 O20 1.254 1_554 S
C2 O21 1.225 . S
C3 C2 1.491 . S
C3 C4 1.392 . S
C3 C8 1.356 1_554 S
C4 C3 1.392 . S
C4 C5 1.368 . S
C4 H32 0.929 . S
C5 C4 1.368 . S
C5 C6 1.386 . S
C5 H33 0.929 . S
C6 C5 1.386 . S
C6 C7 1.373 1_554 S
C7 C6 1.373 1_556 S
C7 C8 1.409 . S
C7 H34 0.931 . S
C8 C3 1.356 1_556 S
C8 C7 1.409 . S
C8 H35 0.930 . S
C9 O22 1.270 . S
C9 O23 1.248 1_455 S
C10 O24 1.267 . S
C10 O25 1.278 . S
C11 Pr1 2.880 . S
C11 C12 1.491 . S
C11 O26 1.254 1_556 S
C11 O27 1.225 . S
C12 C11 1.491 . S
C12 C13 1.392 . S
C12 C17 1.356 1_556 S
C13 C12 1.392 . S
C13 C14 1.368 . S
C13 H36 0.929 . S
C14 C13 1.368 . S
C14 C15 1.386 . S
C14 H37 0.929 . S
C15 C14 1.386 . S
C15 C16 1.373 1_556 S
C16 C15 1.373 1_554 S
C16 C17 1.409 . S
C16 H38 0.931 . S
C17 C12 1.356 1_554 S
C17 C16 1.409 . S
C17 H39 0.930 . S
C18 O28 1.270 . S
C18 O29 1.248 1_655 S
C19 O30 1.267 1_556 S
C19 O31 1.278 . S
O20 Pr0 2.562 1_556 S
O20 C2 1.254 1_556 S
O21 Pr0 2.490 . S
O21 C2 1.225 . S
O22 Pr0 2.695 1_455 S
O22 Pr1 2.436 1_554 S
O22 C9 1.270 . S
O23 Pr0 2.512 . S
O23 C9 1.248 1_655 S
O24 Pr1 2.438 1_654 S
O24 C10 1.267 . S
O25 Pr0 2.437 . S
O25 C10 1.278 . S
O26 Pr1 2.562 1_554 S
O26 C11 1.254 1_554 S
O27 Pr1 2.490 . S
O27 C11 1.225 . S
O28 Pr0 2.436 1_556 S
O28 Pr1 2.695 1_655 S
O28 C18 1.270 . S
O29 Pr1 2.512 . S
O29 C18 1.248 1_455 S
O30 Pr0 2.438 1_455 S
O30 C19 1.267 1_554 S
O31 Pr1 2.437 . S
O31 C19 1.278 . S
H32 C4 0.929 . S
H33 C5 0.929 . S
H34 C7 0.931 . S
H35 C8 0.930 . S
H36 C13 0.929 . S
H37 C14 0.929 . S
H38 C16 0.931 . S
H39 C17 0.930 . S
Pr40 C42 2.880 . S
Pr40 O60 2.562 1_554 S
Pr40 O61 2.490 . S
Pr40 O62 2.695 . S
Pr40 O63 2.512 . S
Pr40 O65 2.437 . S
Pr40 O68 2.436 1_554 S
Pr40 O70 2.438 . S
Pr41 C51 2.880 . S
Pr41 O62 2.436 1_556 S
Pr41 O64 2.438 1_556 S
Pr41 O66 2.562 1_556 S
Pr41 O67 2.490 . S
Pr41 O68 2.695 . S
Pr41 O69 2.512 . S
Pr41 O71 2.437 . S
C42 Pr40 2.880 . S
C42 C43 1.491 . S
C42 O60 1.254 1_554 S
C42 O61 1.225 . S
C43 C42 1.491 . S
C43 C44 1.392 . S
C43 C48 1.356 1_554 S
C44 C43 1.392 . S
C44 C45 1.368 . S
C44 H72 0.929 . S
C45 C44 1.368 . S
C45 C46 1.386 . S
C45 H73 0.929 . S
C46 C45 1.386 . S
C46 C47 1.373 1_554 S
C47 C46 1.373 1_556 S
C47 C48 1.409 . S
C47 H74 0.931 . S
C48 C43 1.356 1_556 S
C48 C47 1.409 . S
C48 H75 0.930 . S
C49 O62 1.270 . S
C49 O63 1.248 . S
C50 O64 1.267 . S
C50 O65 1.278 . S
C51 Pr41 2.880 . S
C51 C52 1.491 . S
C51 O66 1.254 1_556 S
C51 O67 1.225 . S
C52 C51 1.491 . S
C52 C53 1.392 . S
C52 C57 1.356 1_556 S
C53 C52 1.392 . S
C53 C54 1.368 . S
C53 H76 0.929 . S
C54 C53 1.368 . S
C54 C55 1.386 . S
C54 H77 0.929 . S
C55 C54 1.386 . S
C55 C56 1.373 1_556 S
C56 C55 1.373 1_554 S
C56 C57 1.409 . S
C56 H78 0.931 . S
C57 C52 1.356 1_554 S
C57 C56 1.409 . S
C57 H79 0.930 . S
C58 O68 1.270 . S
C58 O69 1.248 . S
C59 O70 1.267 1_556 S
C59 O71 1.278 . S
O60 Pr40 2.562 1_556 S
O60 C42 1.254 1_556 S
O61 Pr40 2.490 . S
O61 C42 1.225 . S
O62 Pr40 2.695 . S
O62 Pr41 2.436 1_554 S
O62 C49 1.270 . S
O63 Pr40 2.512 . S
O63 C49 1.248 . S
O64 Pr41 2.438 1_554 S
O64 C50 1.267 . S
O65 Pr40 2.437 . S
O65 C50 1.278 . S
O66 Pr41 2.562 1_554 S
O66 C51 1.254 1_554 S
O67 Pr41 2.490 . S
O67 C51 1.225 . S
O68 Pr40 2.436 1_556 S
O68 Pr41 2.695 . S
O68 C58 1.270 . S
O69 Pr41 2.512 . S
O69 C58 1.248 . S
O70 Pr40 2.438 . S
O70 C59 1.267 1_554 S
O71 Pr41 2.437 . S
O71 C59 1.278 . S
H72 C44 0.929 . S
H73 C45 0.929 . S
H74 C47 0.931 . S
H75 C48 0.930 . S
H76 C53 0.929 . S
H77 C54 0.929 . S
H78 C56 0.931 . S
H79 C57 0.930 . S
Pr80 C82 2.880 . S
Pr80 O100 2.562 1_554 S
Pr80 O101 2.490 . S
Pr80 O102 2.695 1_545 S
Pr80 O103 2.512 . S
Pr80 O105 2.437 . S
Pr80 O108 2.436 1_554 S
Pr80 O110 2.438 1_545 S
Pr81 C91 2.880 . S
Pr81 O102 2.436 1_556 S
Pr81 O104 2.438 1_566 S
Pr81 O106 2.562 1_556 S
Pr81 O107 2.490 . S
Pr81 O108 2.695 1_565 S
Pr81 O109 2.512 . S
Pr81 O111 2.437 . S
C82 Pr80 2.880 . S
C82 C83 1.491 . S
C82 O100 1.254 1_554 S
C82 O101 1.225 . S
C83 C82 1.491 . S
C83 C84 1.392 . S
C83 C88 1.356 1_554 S
C84 C83 1.392 . S
C84 C85 1.368 . S
C84 H112 0.929 . S
C85 C84 1.368 . S
C85 C86 1.386 . S
C85 H113 0.929 . S
C86 C85 1.386 . S
C86 C87 1.373 1_554 S
C87 C86 1.373 1_556 S
C87 C88 1.409 . S
C87 H114 0.931 . S
C88 C83 1.356 1_556 S
C88 C87 1.409 . S
C88 H115 0.930 . S
C89 O102 1.270 . S
C89 O103 1.248 1_565 S
C90 O104 1.267 . S
C90 O105 1.278 . S
C91 Pr81 2.880 . S
C91 C92 1.491 . S
C91 O106 1.254 1_556 S
C91 O107 1.225 . S
C92 C91 1.491 . S
C92 C93 1.392 . S
C92 C97 1.356 1_556 S
C93 C92 1.392 . S
C93 C94 1.368 . S
C93 H116 0.929 . S
C94 C93 1.368 . S
C94 C95 1.386 . S
C94 H117 0.929 . S
C95 C94 1.386 . S
C95 C96 1.373 1_556 S
C96 C95 1.373 1_554 S
C96 C97 1.409 . S
C96 H118 0.931 . S
C97 C92 1.356 1_554 S
C97 C96 1.409 . S
C97 H119 0.930 . S
C98 O108 1.270 . S
C98 O109 1.248 1_545 S
C99 O110 1.267 1_556 S
C99 O111 1.278 . S
O100 Pr80 2.562 1_556 S
O100 C82 1.254 1_556 S
O101 Pr80 2.490 . S
O101 C82 1.225 . S
O102 Pr80 2.695 1_565 S
O102 Pr81 2.436 1_554 S
O102 C89 1.270 . S
O103 Pr80 2.512 . S
O103 C89 1.248 1_545 S
O104 Pr81 2.438 1_544 S
O104 C90 1.267 . S
O105 Pr80 2.437 . S
O105 C90 1.278 . S
O106 Pr81 2.562 1_554 S
O106 C91 1.254 1_554 S
O107 Pr81 2.490 . S
O107 C91 1.225 . S
O108 Pr80 2.436 1_556 S
O108 Pr81 2.695 1_545 S
O108 C98 1.270 . S
O109 Pr81 2.512 . S
O109 C98 1.248 1_565 S
O110 Pr80 2.438 1_565 S
O110 C99 1.267 1_554 S
O111 Pr81 2.437 . S
O111 C99 1.278 . S
H112 C84 0.929 . S
H113 C85 0.929 . S
H114 C87 0.931 . S
H115 C88 0.930 . S
H116 C93 0.929 . S
H117 C94 0.929 . S
H118 C96 0.931 . S
H119 C97 0.930 . S
Pr120 C122 2.880 . S
Pr120 O140 2.562 . S
Pr120 O141 2.490 . S
Pr120 O142 2.695 . S
Pr120 O143 2.512 . S
Pr120 O145 2.437 . S
Pr120 O148 2.436 . S
Pr120 O150 2.438 . S
Pr121 C131 2.880 . S
Pr121 O142 2.436 . S
Pr121 O144 2.438 . S
Pr121 O146 2.562 . S
Pr121 O147 2.490 . S
Pr121 O148 2.695 . S
Pr121 O149 2.512 . S
Pr121 O151 2.437 . S
C122 Pr120 2.880 . S
C122 C123 1.491 . S
C122 O140 1.254 . S
C122 O141 1.225 . S
C123 C122 1.491 . S
C123 C124 1.392 . S
C123 C128 1.356 . S
C124 C123 1.392 . S
C124 C125 1.368 . S
C124 H152 0.929 . S
C125 C124 1.368 . S
C125 C126 1.386 . S
C125 H153 0.929 . S
C126 C125 1.386 . S
C126 C127 1.373 . S
C127 C126 1.373 . S
C127 C128 1.409 . S
C127 H154 0.931 . S
C128 C123 1.356 . S
C128 C127 1.409 . S
C128 H155 0.930 . S
C129 O142 1.270 . S
C129 O143 1.248 . S
C130 O144 1.267 . S
C130 O145 1.278 . S
C131 Pr121 2.880 . S
C131 C132 1.491 . S
C131 O146 1.254 . S
C131 O147 1.225 . S
C132 C131 1.491 . S
C132 C133 1.392 . S
C132 C137 1.356 . S
C133 C132 1.392 . S
C133 C134 1.368 . S
C133 H156 0.929 . S
C134 C133 1.368 . S
C134 C135 1.386 . S
C134 H157 0.929 . S
C135 C134 1.386 . S
C135 C136 1.373 . S
C136 C135 1.373 . S
C136 C137 1.409 . S
C136 H158 0.931 . S
C137 C132 1.356 . S
C137 C136 1.409 . S
C137 H159 0.930 . S
C138 O148 1.270 . S
C138 O149 1.248 . S
C139 O150 1.267 . S
C139 O151 1.278 . S
O140 Pr120 2.562 . S
O140 C122 1.254 . S
O141 Pr120 2.490 . S
O141 C122 1.225 . S
O142 Pr120 2.695 . S
O142 Pr121 2.436 . S
O142 C129 1.270 . S
O143 Pr120 2.512 . S
O143 C129 1.248 . S
O144 Pr121 2.438 . S
O144 C130 1.267 . S
O145 Pr120 2.437 . S
O145 C130 1.278 . S
O146 Pr121 2.562 . S
O146 C131 1.254 . S
O147 Pr121 2.490 . S
O147 C131 1.225 . S
O148 Pr120 2.436 . S
O148 Pr121 2.695 . S
O148 C138 1.270 . S
O149 Pr121 2.512 . S
O149 C138 1.248 . S
O150 Pr120 2.438 . S
O150 C139 1.267 . S
O151 Pr121 2.437 . S
O151 C139 1.278 . S
H152 C124 0.929 . S
H153 C125 0.929 . S
H154 C127 0.931 . S
H155 C128 0.930 . S
H156 C133 0.929 . S
H157 C134 0.929 . S
H158 C136 0.931 . S
H159 C137 0.930 . S
Pr160 C162 2.880 . S
Pr160 O180 2.562 . S
Pr160 O181 2.490 . S
Pr160 O182 2.695 . S
Pr160 O183 2.512 . S
Pr160 O185 2.437 . S
Pr160 O188 2.436 . S
Pr160 O190 2.438 . S
Pr161 C171 2.880 1_565 S
Pr161 O182 2.436 . S
Pr161 O184 2.438 . S
Pr161 O186 2.562 1_565 S
Pr161 O187 2.490 1_565 S
Pr161 O188 2.695 . S
Pr161 O189 2.512 . S
Pr161 O191 2.437 . S
C162 Pr160 2.880 . S
C162 C163 1.491 . S
C162 O180 1.254 . S
C162 O181 1.225 . S
C163 C162 1.491 . S
C163 C164 1.392 . S
C163 C168 1.356 . S
C164 C163 1.392 . S
C164 C165 1.368 . S
C164 H192 0.929 . S
C165 C164 1.368 . S
C165 C166 1.386 . S
C165 H193 0.929 . S
C166 C165 1.386 . S
C166 C167 1.373 . S
C167 C166 1.373 . S
C167 C168 1.409 . S
C167 H194 0.931 . S
C168 C163 1.356 . S
C168 C167 1.409 . S
C168 H195 0.930 . S
C169 O182 1.270 . S
C169 O183 1.248 . S
C170 O184 1.267 . S
C170 O185 1.278 . S
C171 Pr161 2.880 1_545 S
C171 C172 1.491 . S
C171 O186 1.254 . S
C171 O187 1.225 . S
C172 C171 1.491 . S
C172 C173 1.392 . S
C172 C177 1.356 . S
C173 C172 1.392 . S
C173 C174 1.368 . S
C173 H196 0.929 . S
C174 C173 1.368 . S
C174 C175 1.386 . S
C174 H197 0.929 . S
C175 C174 1.386 . S
C175 C176 1.373 . S
C176 C175 1.373 . S
C176 C177 1.409 . S
C176 H198 0.931 . S
C177 C172 1.356 . S
C177 C176 1.409 . S
C177 H199 0.930 . S
C178 O188 1.270 . S
C178 O189 1.248 . S
C179 O190 1.267 . S
C179 O191 1.278 . S
O180 Pr160 2.562 . S
O180 C162 1.254 . S
O181 Pr160 2.490 . S
O181 C162 1.225 . S
O182 Pr160 2.695 . S
O182 Pr161 2.436 . S
O182 C169 1.270 . S
O183 Pr160 2.512 . S
O183 C169 1.248 . S
O184 Pr161 2.438 . S
O184 C170 1.267 . S
O185 Pr160 2.437 . S
O185 C170 1.278 . S
O186 Pr161 2.562 1_545 S
O186 C171 1.254 . S
O187 Pr161 2.490 1_545 S
O187 C171 1.225 . S
O188 Pr160 2.436 . S
O188 Pr161 2.695 . S
O188 C178 1.270 . S
O189 Pr161 2.512 . S
O189 C178 1.248 . S
O190 Pr160 2.438 . S
O190 C179 1.267 . S
O191 Pr161 2.437 . S
O191 C179 1.278 . S
H192 C164 0.929 . S
H193 C165 0.929 . S
H194 C167 0.931 . S
H195 C168 0.930 . S
H196 C173 0.929 . S
H197 C174 0.929 . S
H198 C176 0.931 . S
H199 C177 0.930 . S
Pr200 C202 2.880 . S
Pr200 O220 2.562 . S
Pr200 O221 2.490 . S
Pr200 O222 2.695 . S
Pr200 O223 2.512 . S
Pr200 O225 2.437 . S
Pr200 O228 2.436 . S
Pr200 O230 2.438 . S
Pr201 C211 2.880 1_455 S
Pr201 O222 2.436 . S
Pr201 O224 2.438 . S
Pr201 O226 2.562 . S
Pr201 O227 2.490 1_455 S
Pr201 O228 2.695 . S
Pr201 O229 2.512 . S
Pr201 O231 2.437 . S
C202 Pr200 2.880 . S
C202 C203 1.491 . S
C202 O220 1.254 . S
C202 O221 1.225 . S
C203 C202 1.491 . S
C203 C204 1.392 . S
C203 C208 1.356 . S
C204 C203 1.392 . S
C204 C205 1.368 . S
C204 H232 0.929 . S
C205 C204 1.368 . S
C205 C206 1.386 . S
C205 H233 0.929 . S
C206 C205 1.386 . S
C206 C207 1.373 . S
C207 C206 1.373 . S
C207 C208 1.409 . S
C207 H234 0.931 . S
C208 C203 1.356 . S
C208 C207 1.409 . S
C208 H235 0.930 . S
C209 O222 1.270 . S
C209 O223 1.248 . S
C210 O224 1.267 . S
C210 O225 1.278 . S
C211 Pr201 2.880 1_655 S
C211 C212 1.491 . S
C211 O226 1.254 1_655 S
C211 O227 1.225 . S
C212 C211 1.491 . S
C212 C213 1.392 . S
C212 C217 1.356 . S
C213 C212 1.392 . S
C213 C214 1.368 . S
C213 H236 0.929 . S
C214 C213 1.368 . S
C214 C215 1.386 . S
C214 H237 0.929 . S
C215 C214 1.386 . S
C215 C216 1.373 . S
C216 C215 1.373 . S
C216 C217 1.409 . S
C216 H238 0.931 . S
C217 C212 1.356 . S
C217 C216 1.409 . S
C217 H239 0.930 . S
C218 O228 1.270 . S
C218 O229 1.248 . S
C219 O230 1.267 . S
C219 O231 1.278 . S
O220 Pr200 2.562 . S
O220 C202 1.254 . S
O221 Pr200 2.490 . S
O221 C202 1.225 . S
O222 Pr200 2.695 . S
O222 Pr201 2.436 . S
O222 C209 1.270 . S
O223 Pr200 2.512 . S
O223 C209 1.248 . S
O224 Pr201 2.438 . S
O224 C210 1.267 . S
O225 Pr200 2.437 . S
O225 C210 1.278 . S
O226 Pr201 2.562 . S
O226 C211 1.254 1_455 S
O227 Pr201 2.490 1_655 S
O227 C211 1.225 . S
O228 Pr200 2.436 . S
O228 Pr201 2.695 . S
O228 C218 1.270 . S
O229 Pr201 2.512 . S
O229 C218 1.248 . S
O230 Pr200 2.438 . S
O230 C219 1.267 . S
O231 Pr201 2.437 . S
O231 C219 1.278 . S
H232 C204 0.929 . S
H233 C205 0.929 . S
H234 C207 0.931 . S
H235 C208 0.930 . S
H236 C213 0.929 . S
H237 C214 0.929 . S
H238 C216 0.931 . S
H239 C217 0.930 . S
Pr240 C242 2.880 . S
Pr240 O260 2.562 . S
Pr240 O261 2.490 . S
Pr240 O262 2.695 . S
Pr240 O263 2.512 . S
Pr240 O265 2.437 . S
Pr240 O268 2.436 . S
Pr240 O270 2.438 . S
Pr241 C251 2.880 . S
Pr241 O262 2.436 . S
Pr241 O264 2.438 . S
Pr241 O266 2.562 . S
Pr241 O267 2.490 . S
Pr241 O268 2.695 . S
Pr241 O269 2.512 . S
Pr241 O271 2.437 . S
C242 Pr240 2.880 . S
C242 C243 1.491 . S
C242 O260 1.254 . S
C242 O261 1.225 . S
C243 C242 1.491 . S
C243 C244 1.392 . S
C243 C248 1.356 . S
C244 C243 1.392 . S
C244 C245 1.368 . S
C244 H272 0.929 . S
C245 C244 1.368 . S
C245 C246 1.386 . S
C245 H273 0.929 . S
C246 C245 1.386 . S
C246 C247 1.373 . S
C247 C246 1.373 . S
C247 C248 1.409 . S
C247 H274 0.931 . S
C248 C243 1.356 . S
C248 C247 1.409 . S
C248 H275 0.930 . S
C249 O262 1.270 . S
C249 O263 1.248 . S
C250 O264 1.267 . S
C250 O265 1.278 . S
C251 Pr241 2.880 . S
C251 C252 1.491 . S
C251 O266 1.254 . S
C251 O267 1.225 . S
C252 C251 1.491 . S
C252 C253 1.392 . S
C252 C257 1.356 . S
C253 C252 1.392 . S
C253 C254 1.368 . S
C253 H276 0.929 . S
C254 C253 1.368 . S
C254 C255 1.386 . S
C254 H277 0.929 . S
C255 C254 1.386 . S
C255 C256 1.373 . S
C256 C255 1.373 . S
C256 C257 1.409 . S
C256 H278 0.931 . S
C257 C252 1.356 . S
C257 C256 1.409 . S
C257 H279 0.930 . S
C258 O268 1.270 . S
C258 O269 1.248 . S
C259 O270 1.267 . S
C259 O271 1.278 . S
O260 Pr240 2.562 . S
O260 C242 1.254 . S
O261 Pr240 2.490 . S
O261 C242 1.225 . S
O262 Pr240 2.695 . S
O262 Pr241 2.436 . S
O262 C249 1.270 . S
O263 Pr240 2.512 . S
O263 C249 1.248 . S
O264 Pr241 2.438 . S
O264 C250 1.267 . S
O265 Pr240 2.437 . S
O265 C250 1.278 . S
O266 Pr241 2.562 . S
O266 C251 1.254 . S
O267 Pr241 2.490 . S
O267 C251 1.225 . S
O268 Pr240 2.436 . S
O268 Pr241 2.695 . S
O268 C258 1.270 . S
O269 Pr241 2.512 . S
O269 C258 1.248 . S
O270 Pr240 2.438 . S
O270 C259 1.267 . S
O271 Pr241 2.437 . S
O271 C259 1.278 . S
H272 C244 0.929 . S
H273 C245 0.929 . S
H274 C247 0.931 . S
H275 C248 0.930 . S
H276 C253 0.929 . S
H277 C254 0.929 . S
H278 C256 0.931 . S
H279 C257 0.930 . S
Pr280 C282 2.880 . S
Pr280 O300 2.562 . S
Pr280 O301 2.490 . S
Pr280 O302 2.695 . S
Pr280 O303 2.512 . S
Pr280 O305 2.437 . S
Pr280 O308 2.436 . S
Pr280 O310 2.438 . S
Pr281 C291 2.880 . S
Pr281 O302 2.436 . S
Pr281 O304 2.438 . S
Pr281 O306 2.562 . S
Pr281 O307 2.490 . S
Pr281 O308 2.695 . S
Pr281 O309 2.512 . S
Pr281 O311 2.437 . S
C282 Pr280 2.880 . S
C282 C283 1.491 . S
C282 O300 1.254 . S
C282 O301 1.225 . S
C283 C282 1.491 . S
C283 C284 1.392 . S
C283 C288 1.356 . S
C284 C283 1.392 . S
C284 C285 1.368 1_545 S
C284 H312 0.929 . S
C285 C284 1.368 1_565 S
C285 C286 1.386 . S
C285 H313 0.929 . S
C286 C285 1.386 . S
C286 C287 1.373 . S
C287 C286 1.373 . S
C287 C288 1.409 1_565 S
C287 H314 0.931 . S
C288 C283 1.356 . S
C288 C287 1.409 1_545 S
C288 H315 0.930 . S
C289 O302 1.270 . S
C289 O303 1.248 . S
C290 O304 1.267 . S
C290 O305 1.278 . S
C291 Pr281 2.880 . S
C291 C292 1.491 . S
C291 O306 1.254 . S
C291 O307 1.225 . S
C292 C291 1.491 . S
C292 C293 1.392 . S
C292 C297 1.356 . S
C293 C292 1.392 . S
C293 C294 1.368 . S
C293 H316 0.929 . S
C294 C293 1.368 . S
C294 C295 1.386 . S
C294 H317 0.929 . S
C295 C294 1.386 . S
C295 C296 1.373 . S
C296 C295 1.373 . S
C296 C297 1.409 . S
C296 H318 0.931 . S
C297 C292 1.356 . S
C297 C296 1.409 . S
C297 H319 0.930 . S
C298 O308 1.270 . S
C298 O309 1.248 . S
C299 O310 1.267 . S
C299 O311 1.278 . S
O300 Pr280 2.562 . S
O300 C282 1.254 . S
O301 Pr280 2.490 . S
O301 C282 1.225 . S
O302 Pr280 2.695 . S
O302 Pr281 2.436 . S
O302 C289 1.270 . S
O303 Pr280 2.512 . S
O303 C289 1.248 . S
O304 Pr281 2.438 . S
O304 C290 1.267 . S
O305 Pr280 2.437 . S
O305 C290 1.278 . S
O306 Pr281 2.562 . S
O306 C291 1.254 . S
O307 Pr281 2.490 . S
O307 C291 1.225 . S
O308 Pr280 2.436 . S
O308 Pr281 2.695 . S
O308 C298 1.270 . S
O309 Pr281 2.512 . S
O309 C298 1.248 . S
O310 Pr280 2.438 . S
O310 C299 1.267 . S
O311 Pr281 2.437 . S
O311 C299 1.278 . S
H312 C284 0.929 . S
H313 C285 0.929 . S
H314 C287 0.931 . S
H315 C288 0.930 . S
H316 C293 0.929 . S
H317 C294 0.929 . S
H318 C296 0.931 . S
H319 C297 0.930 . S
Pr320 C322 2.880 . S
Pr320 O340 2.562 . S
Pr320 O341 2.490 . S
Pr320 O342 2.695 . S
Pr320 O343 2.512 . S
Pr320 O345 2.437 . S
Pr320 O348 2.436 . S
Pr320 O350 2.438 . S
Pr321 C331 2.880 . S
Pr321 O342 2.436 . S
Pr321 O344 2.438 . S
Pr321 O346 2.562 . S
Pr321 O347 2.490 . S
Pr321 O348 2.695 . S
Pr321 O349 2.512 . S
Pr321 O351 2.437 . S
C322 Pr320 2.880 . S
C322 C323 1.491 . S
C322 O340 1.254 . S
C322 O341 1.225 . S
C323 C322 1.491 . S
C323 C324 1.392 . S
C323 C328 1.356 . S
C324 C323 1.392 . S
C324 C325 1.368 1_655 S
C324 H352 0.929 . S
C325 C324 1.368 1_455 S
C325 C326 1.386 . S
C325 H353 0.929 . S
C326 C325 1.386 . S
C326 C327 1.373 . S
C327 C326 1.373 . S
C327 C328 1.409 1_455 S
C327 H354 0.931 . S
C328 C323 1.356 . S
C328 C327 1.409 1_655 S
C328 H355 0.930 . S
C329 O342 1.270 . S
C329 O343 1.248 . S
C330 O344 1.267 . S
C330 O345 1.278 . S
C331 Pr321 2.880 . S
C331 C332 1.491 . S
C331 O346 1.254 . S
C331 O347 1.225 . S
C332 C331 1.491 . S
C332 C333 1.392 . S
C332 C337 1.356 . S
C333 C332 1.392 . S
C333 C334 1.368 . S
C333 H356 0.929 . S
C334 C333 1.368 . S
C334 C335 1.386 . S
C334 H357 0.929 . S
C335 C334 1.386 . S
C335 C336 1.373 . S
C336 C335 1.373 . S
C336 C337 1.409 . S
C336 H358 0.931 . S
C337 C332 1.356 . S
C337 C336 1.409 . S
C337 H359 0.930 . S
C338 O348 1.270 . S
C338 O349 1.248 . S
C339 O350 1.267 . S
C339 O351 1.278 . S
O340 Pr320 2.562 . S
O340 C322 1.254 . S
O341 Pr320 2.490 . S
O341 C322 1.225 . S
O342 Pr320 2.695 . S
O342 Pr321 2.436 . S
O342 C329 1.270 . S
O343 Pr320 2.512 . S
O343 C329 1.248 . S
O344 Pr321 2.438 . S
O344 C330 1.267 . S
O345 Pr320 2.437 . S
O345 C330 1.278 . S
O346 Pr321 2.562 . S
O346 C331 1.254 . S
O347 Pr321 2.490 . S
O347 C331 1.225 . S
O348 Pr320 2.436 . S
O348 Pr321 2.695 . S
O348 C338 1.270 . S
O349 Pr321 2.512 . S
O349 C338 1.248 . S
O350 Pr320 2.438 . S
O350 C339 1.267 . S
O351 Pr321 2.437 . S
O351 C339 1.278 . S
H352 C324 0.929 . S
H353 C325 0.929 . S
H354 C327 0.931 . S
H355 C328 0.930 . S
H356 C333 0.929 . S
H357 C334 0.929 . S
H358 C336 0.931 . S
H359 C337 0.930 . S
C360 C361 1.369 1_554 S
C360 C362 1.419 . S
C360 H364 0.930 . S
C361 C360 1.369 1_556 S
C361 C370 1.429 . S
C362 C360 1.419 . S
C362 C363 1.363 1_554 S
C362 H365 0.929 . S
C363 C362 1.363 1_556 S
C363 C369 1.428 . S
H364 C360 0.930 . S
H365 C362 0.929 . S
S366 N367 1.613 . S
S366 N368 1.610 . S
N367 S366 1.613 . S
N367 C370 1.350 . S
N368 S366 1.610 . S
N368 C369 1.351 . S
C369 C363 1.428 . S
C369 N368 1.351 . S
C369 C370 1.434 . S
C370 C361 1.429 . S
C370 N367 1.350 . S
C370 C369 1.434 . S
C371 C372 1.369 . S
C371 C373 1.419 . S
C371 H375 0.930 . S
C372 C371 1.369 . S
C372 C381 1.429 1_556 S
C373 C371 1.419 . S
C373 C374 1.363 . S
C373 H376 0.929 . S
C374 C373 1.363 . S
C374 C380 1.428 1_556 S
H375 C371 0.930 . S
H376 C373 0.929 . S
S377 N378 1.613 . S
S377 N379 1.610 . S
N378 S377 1.613 . S
N378 C381 1.350 . S
N379 S377 1.610 . S
N379 C380 1.351 . S
C380 C374 1.428 1_554 S
C380 N379 1.351 . S
C380 C381 1.434 . S
C381 C372 1.429 1_554 S
C381 N378 1.350 . S
C381 C380 1.434 . S
C382 C383 1.369 . S
C382 C384 1.419 . S
C382 H386 0.930 . S
C383 C382 1.369 . S
C383 C392 1.429 1_556 S
C384 C382 1.419 . S
C384 C385 1.363 . S
C384 H387 0.929 . S
C385 C384 1.363 . S
C385 C391 1.428 1_556 S
H386 C382 0.930 . S
H387 C384 0.929 . S
S388 N389 1.613 . S
S388 N390 1.610 . S
N389 S388 1.613 . S
N389 C392 1.350 . S
N390 S388 1.610 . S
N390 C391 1.351 . S
C391 C385 1.428 1_554 S
C391 N390 1.351 . S
C391 C392 1.434 . S
C392 C383 1.429 1_554 S
C392 N389 1.350 . S
C392 C391 1.434 . S
C393 C394 1.369 . S
C393 C395 1.419 . S
C393 H397 0.930 1_554 S
C394 C393 1.369 . S
C394 C403 1.429 . S
C395 C393 1.419 . S
C395 C396 1.363 . S
C395 H398 0.926 1_554 S
C396 C395 1.363 . S
C396 C402 1.428 . S
H397 C393 0.930 1_556 S
H398 C395 0.926 1_556 S
S399 N400 1.613 . S
S399 N401 1.610 . S
N400 S399 1.613 . S
N400 C403 1.350 . S
N401 S399 1.610 . S
N401 C402 1.351 . S
C402 C396 1.428 . S
C402 N401 1.351 . S
C402 C403 1.434 . S
C403 C394 1.429 . S
C403 N400 1.350 . S
C403 C402 1.434 . S
C404 C405 1.369 . S
C404 C406 1.419 . S
C404 H408 0.930 . S
C405 C404 1.369 . S
C405 C414 1.429 . S
C406 C404 1.419 . S
C406 C407 1.363 . S
C406 H409 0.929 . S
C407 C406 1.363 . S
C407 C413 1.428 . S
H408 C404 0.930 . S
H409 C406 0.929 . S
S410 N411 1.613 . S
S410 N412 1.610 . S
N411 S410 1.613 . S
N411 C414 1.350 . S
N412 S410 1.610 . S
N412 C413 1.351 . S
C413 C407 1.428 . S
C413 N412 1.351 . S
C413 C414 1.434 . S
C414 C405 1.429 . S
C414 N411 1.350 . S
C414 C413 1.434 . S
C415 C416 1.369 . S
C415 C417 1.419 . S
C415 H419 0.930 1_554 S
C416 C415 1.369 . S
C416 C425 1.429 . S
C417 C415 1.419 . S
C417 C418 1.366 . S
C417 H420 0.925 1_554 S
C418 C417 1.366 . S
C418 C424 1.428 . S
H419 C415 0.930 1_556 S
H420 C417 0.925 1_556 S
S421 N422 1.613 . S
S421 N423 1.610 . S
N422 S421 1.613 . S
N422 C425 1.350 . S
N423 S421 1.610 . S
N423 C424 1.351 . S
C424 C418 1.428 . S
C424 N423 1.351 . S
C424 C425 1.434 . S
C425 C416 1.429 . S
C425 N422 1.350 . S
C425 C424 1.434 . S
C426 C427 1.369 1_455 S
C426 C428 1.419 . S
C426 H430 0.927 1_455 S
C427 C426 1.369 1_655 S
C427 C436 1.429 1_655 S
C428 C426 1.419 . S
C428 C429 1.363 . S
C428 H431 0.929 . S
C429 C428 1.363 . S
C429 C435 1.428 . S
H430 C426 0.927 1_655 S
H431 C428 0.929 . S
S432 N433 1.613 . S
S432 N434 1.610 . S
N433 S432 1.613 . S
N433 C436 1.350 . S
N434 S432 1.610 . S
N434 C435 1.351 . S
C435 C429 1.428 . S
C435 N434 1.351 . S
C435 C436 1.434 . S
C436 C427 1.429 1_455 S
C436 N433 1.350 . S
C436 C435 1.434 . S
C437 C438 1.369 . S
C437 C439 1.419 . S
C437 H441 0.930 . S
C438 C437 1.369 . S
C438 C447 1.429 . S
C439 C437 1.419 . S
C439 C440 1.363 . S
C439 H442 0.929 . S
C440 C439 1.363 . S
C440 C446 1.428 . S
H441 C437 0.930 . S
H442 C439 0.929 . S
S443 N444 1.613 . S
S443 N445 1.610 . S
N444 S443 1.613 . S
N444 C447 1.350 . S
N445 S443 1.610 . S
N445 C446 1.351 . S
C446 C440 1.428 . S
C446 N445 1.351 . S
C446 C447 1.434 . S
C447 C438 1.429 . S
C447 N444 1.350 . S
C447 C446 1.434 . S
C448 C449 1.369 1_565 S
C448 C450 1.419 . S
C448 H452 0.930 1_565 S
C449 C448 1.369 1_545 S
C449 C458 1.429 1_545 S
C450 C448 1.419 . S
C450 C451 1.363 . S
C450 H453 0.929 . S
C451 C450 1.363 . S
C451 C457 1.428 . S
H452 C448 0.930 1_545 S
H453 C450 0.929 . S
S454 N455 1.613 1_565 S
S454 N456 1.610 . S
N455 S454 1.613 1_545 S
N455 C458 1.350 1_545 S
N456 S454 1.610 . S
N456 C457 1.351 . S
C457 C451 1.428 . S
C457 N456 1.351 . S
C457 C458 1.434 . S
C458 C449 1.429 1_565 S
C458 N455 1.350 1_565 S
C458 C457 1.434 . S
C459 C460 1.369 . S
C459 C461 1.419 . S
C459 H463 0.930 . S
C460 C459 1.369 . S
C460 C469 1.429 . S
C461 C459 1.419 . S
C461 C462 1.363 . S
C461 H464 0.929 . S
C462 C461 1.363 . S
C462 C468 1.428 . S
H463 C459 0.930 . S
H464 C461 0.929 . S
S465 N466 1.613 . S
S465 N467 1.610 . S
N466 S465 1.613 . S
N466 C469 1.350 . S
N467 S465 1.610 . S
N467 C468 1.351 . S
C468 C462 1.428 . S
C468 N467 1.351 . S
C468 C469 1.434 . S
C469 C460 1.429 . S
C469 N466 1.350 . S
C469 C468 1.434 . S
C470 C471 1.369 . S
C470 C472 1.419 . S
C470 H474 0.930 . S
C471 C470 1.369 . S
C471 C480 1.429 . S
C472 C470 1.419 . S
C472 C473 1.363 . S
C472 H475 0.929 . S
C473 C472 1.363 . S
C473 C479 1.428 . S
H474 C470 0.930 . S
H475 C472 0.929 . S
S476 N477 1.613 . S
S476 N478 1.610 . S
N477 S476 1.613 . S
N477 C480 1.350 . S
N478 S476 1.610 . S
N478 C479 1.351 . S
C479 C473 1.428 . S
C479 N478 1.351 . S
C479 C480 1.434 . S
C480 C471 1.429 . S
C480 N477 1.350 . S
C480 C479 1.434 . S
C481 C482 1.369 . S
C481 C483 1.419 . S
C481 H485 0.930 . S
C482 C481 1.369 . S
C482 C491 1.429 . S
C483 C481 1.419 . S
C483 C484 1.363 . S
C483 H486 0.929 . S
C484 C483 1.363 . S
C484 C490 1.428 . S
H485 C481 0.930 . S
H486 C483 0.929 . S
S487 N488 1.613 . S
S487 N489 1.610 . S
N488 S487 1.613 . S
N488 C491 1.350 . S
N489 S487 1.610 . S
N489 C490 1.351 . S
C490 C484 1.428 . S
C490 N489 1.351 . S
C490 C491 1.434 . S
C491 C482 1.429 . S
C491 N488 1.350 . S
C491 C490 1.434 . S
C492 C493 1.369 . S
C492 C494 1.419 . S
C492 H496 0.930 . S
C493 C492 1.369 . S
C493 C502 1.429 . S
C494 C492 1.419 . S
C494 C495 1.363 . S
C494 H497 0.929 . S
C495 C494 1.363 . S
C495 C501 1.428 . S
H496 C492 0.930 . S
H497 C494 0.929 . S
S498 N499 1.613 . S
S498 N500 1.610 . S
N499 S498 1.613 . S
N499 C502 1.350 . S
N500 S498 1.610 . S
N500 C501 1.351 . S
C501 C495 1.428 . S
C501 N500 1.351 . S
C501 C502 1.434 . S
C502 C493 1.429 . S
C502 N499 1.350 . S
C502 C501 1.434 . S
C503 C504 1.369 . S
C503 C505 1.419 . S
C503 H507 0.930 . S
C504 C503 1.369 . S
C504 C513 1.429 . S
C505 C503 1.419 . S
C505 C506 1.363 . S
C505 H508 0.929 . S
C506 C505 1.363 . S
C506 C512 1.428 . S
H507 C503 0.930 . S
H508 C505 0.929 . S
S509 N510 1.613 . S
S509 N511 1.610 . S
N510 S509 1.613 . S
N510 C513 1.350 . S
N511 S509 1.610 . S
N511 C512 1.351 . S
C512 C506 1.428 . S
C512 N511 1.351 . S
C512 C513 1.434 . S
C513 C504 1.429 . S
C513 N510 1.350 . S
C513 C512 1.434 . S
C514 C515 1.369 . S
C514 C516 1.419 . S
C514 H518 0.930 . S
C515 C514 1.369 . S
C515 C524 1.429 . S
C516 C514 1.419 . S
C516 C517 1.363 . S
C516 H519 0.929 . S
C517 C516 1.363 . S
C517 C523 1.428 . S
H518 C514 0.930 . S
H519 C516 0.929 . S
S520 N521 1.613 . S
S520 N522 1.610 . S
N521 S520 1.613 . S
N521 C524 1.350 . S
N522 S520 1.610 . S
N522 C523 1.351 . S
C523 C517 1.428 . S
C523 N522 1.351 . S
C523 C524 1.434 . S
C524 C515 1.429 . S
C524 N521 1.350 . S
C524 C523 1.434 . S
C525 C526 1.369 . S
C525 C527 1.419 . S
C525 H529 0.930 . S
C526 C525 1.369 . S
C526 C535 1.429 . S
C527 C525 1.419 . S
C527 C528 1.363 . S
C527 H530 0.929 . S
C528 C527 1.363 . S
C528 C534 1.428 . S
H529 C525 0.930 . S
H530 C527 0.929 . S
S531 N532 1.613 . S
S531 N533 1.610 . S
N532 S531 1.613 . S
N532 C535 1.350 . S
N533 S531 1.610 . S
N533 C534 1.351 . S
C534 C528 1.428 . S
C534 N533 1.351 . S
C534 C535 1.434 . S
C535 C526 1.429 . S
C535 N532 1.350 . S
C535 C534 1.434 . S
C536 C537 1.369 1_545 S
C536 C538 1.419 . S
C536 H540 0.930 . S
C537 C536 1.369 1_565 S
C537 C546 1.429 . S
C538 C536 1.419 . S
C538 C539 1.363 . S
C538 H541 0.929 . S
C539 C538 1.363 . S
C539 C545 1.428 1_545 S
H540 C536 0.930 . S
H541 C538 0.929 . S
S542 N543 1.613 . S
S542 N544 1.610 . S
N543 S542 1.613 . S
N543 C546 1.350 . S
N544 S542 1.610 . S
N544 C545 1.351 . S
C545 C539 1.428 1_565 S
C545 N544 1.351 . S
C545 C546 1.434 . S
C546 C537 1.429 . S
C546 N543 1.350 . S
C546 C545 1.434 . S
C547 C548 1.369 1_655 S
C547 C549 1.419 . S
C547 H551 0.930 . S
C548 C547 1.369 1_455 S
C548 C557 1.429 . S
C549 C547 1.419 . S
C549 C550 1.363 1_655 S
C549 H552 0.929 . S
C550 C549 1.363 1_455 S
C550 C556 1.428 . S
H551 C547 0.930 . S
H552 C549 0.929 . S
S553 N554 1.613 . S
S553 N555 1.610 . S
N554 S553 1.613 . S
N554 C557 1.350 . S
N555 S553 1.610 . S
N555 C556 1.351 . S
C556 C550 1.428 . S
C556 N555 1.351 . S
C556 C557 1.434 . S
C557 C548 1.429 . S
C557 N554 1.350 . S
C557 C556 1.434 . S
C558 C559 1.369 . S
C558 C560 1.419 . S
C558 H562 0.930 . S
C559 C558 1.369 . S
C559 C568 1.429 . S
C560 C558 1.419 . S
C560 C561 1.363 . S
C560 H563 0.929 . S
C561 C560 1.363 . S
C561 C567 1.428 . S
H562 C558 0.930 . S
H563 C560 0.929 . S
S564 N565 1.613 . S
S564 N566 1.610 . S
N565 S564 1.613 . S
N565 C568 1.350 . S
N566 S564 1.610 . S
N566 C567 1.351 . S
C567 C561 1.428 . S
C567 N566 1.351 . S
C567 C568 1.434 . S
C568 C559 1.429 . S
C568 N565 1.350 . S
C568 C567 1.434 . S
C569 C570 1.369 . S
C569 C571 1.419 . S
C569 H573 0.930 . S
C570 C569 1.369 . S
C570 C579 1.429 . S
C571 C569 1.419 . S
C571 C572 1.363 . S
C571 H574 0.929 . S
C572 C571 1.363 . S
C572 C578 1.428 . S
H573 C569 0.930 . S
H574 C571 0.929 . S
S575 N576 1.613 . S
S575 N577 1.610 . S
N576 S575 1.613 . S
N576 C579 1.350 . S
N577 S575 1.610 . S
N577 C578 1.351 . S
C578 C572 1.428 . S
C578 N577 1.351 . S
C578 C579 1.434 . S
C579 C570 1.429 . S
C579 N576 1.350 . S
C579 C578 1.434 . S
C580 C581 1.369 . S
C580 C582 1.419 . S
C580 H584 0.930 . S
C581 C580 1.369 . S
C581 C590 1.429 . S
C582 C580 1.419 . S
C582 C583 1.363 . S
C582 H585 0.929 . S
C583 C582 1.363 . S
C583 C589 1.428 . S
H584 C580 0.930 . S
H585 C582 0.929 . S
S586 N587 1.613 . S
S586 N588 1.610 1_545 S
N587 S586 1.613 . S
N587 C590 1.350 1_545 S
N588 S586 1.610 1_565 S
N588 C589 1.351 . S
C589 C583 1.428 . S
C589 N588 1.351 . S
C589 C590 1.434 . S
C590 C581 1.429 . S
C590 N587 1.350 1_565 S
C590 C589 1.434 . S
C591 C592 1.369 . S
C591 C593 1.419 . S
C591 H595 0.930 . S
C592 C591 1.369 . S
C592 C601 1.429 . S
C593 C591 1.419 . S
C593 C594 1.363 . S
C593 H596 0.929 . S
C594 C593 1.363 . S
C594 C600 1.428 . S
H595 C591 0.930 . S
H596 C593 0.929 . S
S597 N598 1.613 . S
S597 N599 1.610 . S
N598 S597 1.613 . S
N598 C601 1.350 . S
N599 S597 1.610 . S
N599 C600 1.351 . S
C600 C594 1.428 . S
C600 N599 1.351 . S
C600 C601 1.434 . S
C601 C592 1.429 . S
C601 N598 1.350 . S
C601 C600 1.434 . S
C602 C603 1.369 . S
C602 C604 1.419 . S
C602 H606 0.930 . S
C603 C602 1.369 . S
C603 C612 1.429 . S
C604 C602 1.419 . S
C604 C605 1.363 . S
C604 H607 0.929 . S
C605 C604 1.363 . S
C605 C611 1.428 . S
H606 C602 0.930 . S
H607 C604 0.929 . S
S608 N609 1.613 . S
S608 N610 1.610 . S
N609 S608 1.613 . S
N609 C612 1.350 . S
N610 S608 1.610 . S
N610 C611 1.351 . S
C611 C605 1.428 . S
C611 N610 1.351 . S
C611 C612 1.434 . S
C612 C603 1.429 . S
C612 N609 1.350 . S
C612 C611 1.434 . S
C613 C614 1.369 . S
C613 C615 1.419 . S
C613 H617 0.930 . S
C614 C613 1.369 . S
C614 C623 1.429 . S
C615 C613 1.419 . S
C615 C616 1.363 . S
C615 H618 0.929 . S
C616 C615 1.363 . S
C616 C622 1.428 . S
H617 C613 0.930 . S
H618 C615 0.929 . S
S619 N620 1.613 . S
S619 N621 1.610 . S
N620 S619 1.613 . S
N620 C623 1.350 . S
N621 S619 1.610 . S
N621 C622 1.351 . S
C622 C616 1.428 . S
C622 N621 1.351 . S
C622 C623 1.434 . S
C623 C614 1.429 . S
C623 N620 1.350 . S
C623 C622 1.434 . S
C624 C625 1.369 . S
C624 C626 1.419 . S
C624 H628 0.930 . S
C625 C624 1.369 . S
C625 C634 1.429 . S
C626 C624 1.419 . S
C626 C627 1.363 . S
C626 H629 0.929 . S
C627 C626 1.363 . S
C627 C633 1.428 . S
H628 C624 0.930 . S
H629 C626 0.929 . S
S630 N631 1.613 . S
S630 N632 1.610 . S
N631 S630 1.613 . S
N631 C634 1.350 . S
N632 S630 1.610 . S
N632 C633 1.351 . S
C633 C627 1.428 . S
C633 N632 1.351 . S
C633 C634 1.434 . S
C634 C625 1.429 . S
C634 N631 1.350 . S
C634 C633 1.434 . S
C635 C636 1.369 . S
C635 C637 1.419 1_565 S
C635 H639 0.930 . S
C636 C635 1.369 . S
C636 C645 1.429 . S
C637 C635 1.419 1_545 S
C637 C638 1.363 . S
C637 H640 0.929 . S
C638 C637 1.363 . S
C638 C644 1.428 . S
H639 C635 0.930 . S
H640 C637 0.929 . S
S641 N642 1.613 1_545 S
S641 N643 1.610 . S
N642 S641 1.613 1_565 S
N642 C645 1.350 . S
N643 S641 1.610 . S
N643 C644 1.351 . S
C644 C638 1.428 . S
C644 N643 1.351 . S
C644 C645 1.434 1_545 S
C645 C636 1.429 . S
C645 N642 1.350 . S
C645 C644 1.434 1_565 S
C646 C647 1.369 . S
C646 C648 1.419 1_655 S
C646 H650 0.930 . S
C647 C646 1.369 . S
C647 C656 1.429 . S
C648 C646 1.419 1_455 S
C648 C649 1.363 . S
C648 H651 0.929 . S
C649 C648 1.363 . S
C649 C655 1.428 . S
H650 C646 0.930 . S
H651 C648 0.929 . S
S652 N653 1.613 1_455 S
S652 N654 1.610 . S
N653 S652 1.613 1_655 S
N653 C656 1.350 . S
N654 S652 1.610 . S
N654 C655 1.351 . S
C655 C649 1.428 . S
C655 N654 1.351 . S
C655 C656 1.434 1_455 S
C656 C647 1.429 . S
C656 N653 1.350 . S
C656 C655 1.434 1_655 S
C361 C59 1.518 . S
C363 C15 1.585 . S
C372 C99 1.509 . S
C374 C55 1.590 . S
C383 C95 1.585 . S
C385 C19 1.516 . S
C394 C90 1.773 . S
C396 C46 1.701 . S
C405 C86 1.693 . S
C407 C10 1.779 . S
C416 C6 1.703 . S
C418 C50 1.773 . S
C427 C135 1.590 . S
C429 C179 1.511 . S
C438 C219 1.512 . S
C440 C175 1.588 . S
C449 C215 1.588 . S
C451 C139 1.512 . S
C460 C166 1.700 . S
C462 C210 1.775 . S
C471 C206 1.703 . S
C473 C130 1.773 . S
C482 C170 1.775 . S
C484 C126 1.699 . S
C493 C299 1.512 . S
C495 C255 1.589 . S
C504 C295 1.583 . S
C506 C339 1.518 . S
C515 C335 1.589 . S
C517 C259 1.512 . S
C526 C330 1.774 . S
C528 C286 1.700 . S
C537 C326 1.692 . S
C539 C250 1.779 . S
C548 C246 1.694 . S
C550 C290 1.778 1_455 S
C559 C218 2.319 . S
C561 C9 2.732 . S
C570 C138 2.318 . S
C572 C49 2.731 . S
C581 C89 2.730 . S
C583 C178 2.322 . S
C592 C98 2.319 . S
C594 C249 2.731 . S
C603 C18 2.329 . S
C605 C289 2.729 . S
C614 C329 2.732 . S
C616 C58 2.324 . S
C625 C129 2.732 . S
C627 C338 2.321 . S
C636 C169 2.728 . S
C638 C258 2.328 . S
C647 C298 2.323 . S
C649 C209 2.731 . S
