# Generated by pormake.
# Topology rho, (4)-cn, num edge types: 1
# Building blocks:
#     Node 0, Type 0, BuildingBlock: AZAVOO_clean_sbu_0, # of connection points: 4
#     Node 1, Type 0, BuildingBlock: AZAVOO_clean_sbu_0, # of connection points: 4
#     Node 2, Type 0, BuildingBlock: AZAVOO_clean_sbu_0, # of connection points: 4
#     Node 3, Type 0, BuildingBlock: AZAVOO_clean_sbu_0, # of connection points: 4
#     Node 4, Type 0, BuildingBlock: AZAVOO_clean_sbu_0, # of connection points: 4
#     Node 5, Type 0, BuildingBlock: AZAVOO_clean_sbu_0, # of connection points: 4
#     Node 6, Type 0, BuildingBlock: AZAVOO_clean_sbu_0, # of connection points: 4
#     Node 7, Type 0, BuildingBlock: AZAVOO_clean_sbu_0, # of connection points: 4
#     Node 8, Type 0, BuildingBlock: AZAVOO_clean_sbu_0, # of connection points: 4
#     Node 9, Type 0, BuildingBlock: AZAVOO_clean_sbu_0, # of connection points: 4
#     Node 10, Type 0, BuildingBlock: AZAVOO_clean_sbu_0, # of connection points: 4
#     Node 11, Type 0, BuildingBlock: AZAVOO_clean_sbu_0, # of connection points: 4
#     Node 12, Type 0, BuildingBlock: AZAVOO_clean_sbu_0, # of connection points: 4
#     Node 13, Type 0, BuildingBlock: AZAVOO_clean_sbu_0, # of connection points: 4
#     Node 14, Type 0, BuildingBlock: AZAVOO_clean_sbu_0, # of connection points: 4
#     Node 15, Type 0, BuildingBlock: AZAVOO_clean_sbu_0, # of connection points: 4
#     Node 16, Type 0, BuildingBlock: AZAVOO_clean_sbu_0, # of connection points: 4
#     Node 17, Type 0, BuildingBlock: AZAVOO_clean_sbu_0, # of connection points: 4
#     Node 18, Type 0, BuildingBlock: AZAVOO_clean_sbu_0, # of connection points: 4
#     Node 19, Type 0, BuildingBlock: AZAVOO_clean_sbu_0, # of connection points: 4
#     Node 20, Type 0, BuildingBlock: AZAVOO_clean_sbu_0, # of connection points: 4
#     Node 21, Type 0, BuildingBlock: AZAVOO_clean_sbu_0, # of connection points: 4
#     Node 22, Type 0, BuildingBlock: AZAVOO_clean_sbu_0, # of connection points: 4
#     Node 23, Type 0, BuildingBlock: AZAVOO_clean_sbu_0, # of connection points: 4
#     Node 24, Type 0, BuildingBlock: AZAVOO_clean_sbu_0, # of connection points: 4
#     Node 25, Type 0, BuildingBlock: AZAVOO_clean_sbu_0, # of connection points: 4
#     Node 26, Type 0, BuildingBlock: AZAVOO_clean_sbu_0, # of connection points: 4
#     Node 27, Type 0, BuildingBlock: AZAVOO_clean_sbu_0, # of connection points: 4
#     Node 28, Type 0, BuildingBlock: AZAVOO_clean_sbu_0, # of connection points: 4
#     Node 29, Type 0, BuildingBlock: AZAVOO_clean_sbu_0, # of connection points: 4
#     Node 30, Type 0, BuildingBlock: AZAVOO_clean_sbu_0, # of connection points: 4
#     Node 31, Type 0, BuildingBlock: AZAVOO_clean_sbu_0, # of connection points: 4
#     Node 32, Type 0, BuildingBlock: AZAVOO_clean_sbu_0, # of connection points: 4
#     Node 33, Type 0, BuildingBlock: AZAVOO_clean_sbu_0, # of connection points: 4
#     Node 34, Type 0, BuildingBlock: AZAVOO_clean_sbu_0, # of connection points: 4
#     Node 35, Type 0, BuildingBlock: AZAVOO_clean_sbu_0, # of connection points: 4
#     Node 36, Type 0, BuildingBlock: AZAVOO_clean_sbu_0, # of connection points: 4
#     Node 37, Type 0, BuildingBlock: AZAVOO_clean_sbu_0, # of connection points: 4
#     Node 38, Type 0, BuildingBlock: AZAVOO_clean_sbu_0, # of connection points: 4
#     Node 39, Type 0, BuildingBlock: AZAVOO_clean_sbu_0, # of connection points: 4
#     Node 40, Type 0, BuildingBlock: AZAVOO_clean_sbu_0, # of connection points: 4
#     Node 41, Type 0, BuildingBlock: AZAVOO_clean_sbu_0, # of connection points: 4
#     Node 42, Type 0, BuildingBlock: AZAVOO_clean_sbu_0, # of connection points: 4
#     Node 43, Type 0, BuildingBlock: AZAVOO_clean_sbu_0, # of connection points: 4
#     Node 44, Type 0, BuildingBlock: AZAVOO_clean_sbu_0, # of connection points: 4
#     Node 45, Type 0, BuildingBlock: AZAVOO_clean_sbu_0, # of connection points: 4
#     Node 46, Type 0, BuildingBlock: AZAVOO_clean_sbu_0, # of connection points: 4
#     Node 47, Type 0, BuildingBlock: AZAVOO_clean_sbu_0, # of connection points: 4
#     Edge 48, Type (0, 0), BuildingBlock: ZUJKAS_clean_linker_0, # of connection points: 2
#     Edge 49, Type (0, 0), BuildingBlock: ZUJKAS_clean_linker_0, # of connection points: 2
#     Edge 50, Type (0, 0), BuildingBlock: ZUJKAS_clean_linker_0, # of connection points: 2
#     Edge 51, Type (0, 0), BuildingBlock: ZUJKAS_clean_linker_0, # of connection points: 2
#     Edge 52, Type (0, 0), BuildingBlock: ZUJKAS_clean_linker_0, # of connection points: 2
#     Edge 53, Type (0, 0), BuildingBlock: ZUJKAS_clean_linker_0, # of connection points: 2
#     Edge 54, Type (0, 0), BuildingBlock: ZUJKAS_clean_linker_0, # of connection points: 2
#     Edge 55, Type (0, 0), BuildingBlock: ZUJKAS_clean_linker_0, # of connection points: 2
#     Edge 56, Type (0, 0), BuildingBlock: ZUJKAS_clean_linker_0, # of connection points: 2
#     Edge 57, Type (0, 0), BuildingBlock: ZUJKAS_clean_linker_0, # of connection points: 2
#     Edge 58, Type (0, 0), BuildingBlock: ZUJKAS_clean_linker_0, # of connection points: 2
#     Edge 59, Type (0, 0), BuildingBlock: ZUJKAS_clean_linker_0, # of connection points: 2
#     Edge 60, Type (0, 0), BuildingBlock: ZUJKAS_clean_linker_0, # of connection points: 2
#     Edge 61, Type (0, 0), BuildingBlock: ZUJKAS_clean_linker_0, # of connection points: 2
#     Edge 62, Type (0, 0), BuildingBlock: ZUJKAS_clean_linker_0, # of connection points: 2
#     Edge 63, Type (0, 0), BuildingBlock: ZUJKAS_clean_linker_0, # of connection points: 2
#     Edge 64, Type (0, 0), BuildingBlock: ZUJKAS_clean_linker_0, # of connection points: 2
#     Edge 65, Type (0, 0), BuildingBlock: ZUJKAS_clean_linker_0, # of connection points: 2
#     Edge 66, Type (0, 0), BuildingBlock: ZUJKAS_clean_linker_0, # of connection points: 2
#     Edge 67, Type (0, 0), BuildingBlock: ZUJKAS_clean_linker_0, # of connection points: 2
#     Edge 68, Type (0, 0), BuildingBlock: ZUJKAS_clean_linker_0, # of connection points: 2
#     Edge 69, Type (0, 0), BuildingBlock: ZUJKAS_clean_linker_0, # of connection points: 2
#     Edge 70, Type (0, 0), BuildingBlock: ZUJKAS_clean_linker_0, # of connection points: 2
#     Edge 71, Type (0, 0), BuildingBlock: ZUJKAS_clean_linker_0, # of connection points: 2
#     Edge 72, Type (0, 0), BuildingBlock: ZUJKAS_clean_linker_0, # of connection points: 2
#     Edge 73, Type (0, 0), BuildingBlock: ZUJKAS_clean_linker_0, # of connection points: 2
#     Edge 74, Type (0, 0), BuildingBlock: ZUJKAS_clean_linker_0, # of connection points: 2
#     Edge 75, Type (0, 0), BuildingBlock: ZUJKAS_clean_linker_0, # of connection points: 2
#     Edge 76, Type (0, 0), BuildingBlock: ZUJKAS_clean_linker_0, # of connection points: 2
#     Edge 77, Type (0, 0), BuildingBlock: ZUJKAS_clean_linker_0, # of connection points: 2
#     Edge 78, Type (0, 0), BuildingBlock: ZUJKAS_clean_linker_0, # of connection points: 2
#     Edge 79, Type (0, 0), BuildingBlock: ZUJKAS_clean_linker_0, # of connection points: 2
#     Edge 80, Type (0, 0), BuildingBlock: ZUJKAS_clean_linker_0, # of connection points: 2
#     Edge 81, Type (0, 0), BuildingBlock: ZUJKAS_clean_linker_0, # of connection points: 2
#     Edge 82, Type (0, 0), BuildingBlock: ZUJKAS_clean_linker_0, # of connection points: 2
#     Edge 83, Type (0, 0), BuildingBlock: ZUJKAS_clean_linker_0, # of connection points: 2
#     Edge 84, Type (0, 0), BuildingBlock: ZUJKAS_clean_linker_0, # of connection points: 2
#     Edge 85, Type (0, 0), BuildingBlock: ZUJKAS_clean_linker_0, # of connection points: 2
#     Edge 86, Type (0, 0), BuildingBlock: ZUJKAS_clean_linker_0, # of connection points: 2
#     Edge 87, Type (0, 0), BuildingBlock: ZUJKAS_clean_linker_0, # of connection points: 2
#     Edge 88, Type (0, 0), BuildingBlock: ZUJKAS_clean_linker_0, # of connection points: 2
#     Edge 89, Type (0, 0), BuildingBlock: ZUJKAS_clean_linker_0, # of connection points: 2
#     Edge 90, Type (0, 0), BuildingBlock: ZUJKAS_clean_linker_0, # of connection points: 2
#     Edge 91, Type (0, 0), BuildingBlock: ZUJKAS_clean_linker_0, # of connection points: 2
#     Edge 92, Type (0, 0), BuildingBlock: ZUJKAS_clean_linker_0, # of connection points: 2
#     Edge 93, Type (0, 0), BuildingBlock: ZUJKAS_clean_linker_0, # of connection points: 2
#     Edge 94, Type (0, 0), BuildingBlock: ZUJKAS_clean_linker_0, # of connection points: 2
#     Edge 95, Type (0, 0), BuildingBlock: ZUJKAS_clean_linker_0, # of connection points: 2
#     Edge 96, Type (0, 0), BuildingBlock: ZUJKAS_clean_linker_0, # of connection points: 2
#     Edge 97, Type (0, 0), BuildingBlock: ZUJKAS_clean_linker_0, # of connection points: 2
#     Edge 98, Type (0, 0), BuildingBlock: ZUJKAS_clean_linker_0, # of connection points: 2
#     Edge 99, Type (0, 0), BuildingBlock: ZUJKAS_clean_linker_0, # of connection points: 2
#     Edge 100, Type (0, 0), BuildingBlock: ZUJKAS_clean_linker_0, # of connection points: 2
#     Edge 101, Type (0, 0), BuildingBlock: ZUJKAS_clean_linker_0, # of connection points: 2
#     Edge 102, Type (0, 0), BuildingBlock: ZUJKAS_clean_linker_0, # of connection points: 2
#     Edge 103, Type (0, 0), BuildingBlock: ZUJKAS_clean_linker_0, # of connection points: 2
#     Edge 104, Type (0, 0), BuildingBlock: ZUJKAS_clean_linker_0, # of connection points: 2
#     Edge 105, Type (0, 0), BuildingBlock: ZUJKAS_clean_linker_0, # of connection points: 2
#     Edge 106, Type (0, 0), BuildingBlock: ZUJKAS_clean_linker_0, # of connection points: 2
#     Edge 107, Type (0, 0), BuildingBlock: ZUJKAS_clean_linker_0, # of connection points: 2
#     Edge 108, Type (0, 0), BuildingBlock: ZUJKAS_clean_linker_0, # of connection points: 2
#     Edge 109, Type (0, 0), BuildingBlock: ZUJKAS_clean_linker_0, # of connection points: 2
#     Edge 110, Type (0, 0), BuildingBlock: ZUJKAS_clean_linker_0, # of connection points: 2
#     Edge 111, Type (0, 0), BuildingBlock: ZUJKAS_clean_linker_0, # of connection points: 2
#     Edge 112, Type (0, 0), BuildingBlock: ZUJKAS_clean_linker_0, # of connection points: 2
#     Edge 113, Type (0, 0), BuildingBlock: ZUJKAS_clean_linker_0, # of connection points: 2
#     Edge 114, Type (0, 0), BuildingBlock: ZUJKAS_clean_linker_0, # of connection points: 2
#     Edge 115, Type (0, 0), BuildingBlock: ZUJKAS_clean_linker_0, # of connection points: 2
#     Edge 116, Type (0, 0), BuildingBlock: ZUJKAS_clean_linker_0, # of connection points: 2
#     Edge 117, Type (0, 0), BuildingBlock: ZUJKAS_clean_linker_0, # of connection points: 2
#     Edge 118, Type (0, 0), BuildingBlock: ZUJKAS_clean_linker_0, # of connection points: 2
#     Edge 119, Type (0, 0), BuildingBlock: ZUJKAS_clean_linker_0, # of connection points: 2
#     Edge 120, Type (0, 0), BuildingBlock: ZUJKAS_clean_linker_0, # of connection points: 2
#     Edge 121, Type (0, 0), BuildingBlock: ZUJKAS_clean_linker_0, # of connection points: 2
#     Edge 122, Type (0, 0), BuildingBlock: ZUJKAS_clean_linker_0, # of connection points: 2
#     Edge 123, Type (0, 0), BuildingBlock: ZUJKAS_clean_linker_0, # of connection points: 2
#     Edge 124, Type (0, 0), BuildingBlock: ZUJKAS_clean_linker_0, # of connection points: 2
#     Edge 125, Type (0, 0), BuildingBlock: ZUJKAS_clean_linker_0, # of connection points: 2
#     Edge 126, Type (0, 0), BuildingBlock: ZUJKAS_clean_linker_0, # of connection points: 2
#     Edge 127, Type (0, 0), BuildingBlock: ZUJKAS_clean_linker_0, # of connection points: 2
#     Edge 128, Type (0, 0), BuildingBlock: ZUJKAS_clean_linker_0, # of connection points: 2
#     Edge 129, Type (0, 0), BuildingBlock: ZUJKAS_clean_linker_0, # of connection points: 2
#     Edge 130, Type (0, 0), BuildingBlock: ZUJKAS_clean_linker_0, # of connection points: 2
#     Edge 131, Type (0, 0), BuildingBlock: ZUJKAS_clean_linker_0, # of connection points: 2
#     Edge 132, Type (0, 0), BuildingBlock: ZUJKAS_clean_linker_0, # of connection points: 2
#     Edge 133, Type (0, 0), BuildingBlock: ZUJKAS_clean_linker_0, # of connection points: 2
#     Edge 134, Type (0, 0), BuildingBlock: ZUJKAS_clean_linker_0, # of connection points: 2
#     Edge 135, Type (0, 0), BuildingBlock: ZUJKAS_clean_linker_0, # of connection points: 2
#     Edge 136, Type (0, 0), BuildingBlock: ZUJKAS_clean_linker_0, # of connection points: 2
#     Edge 137, Type (0, 0), BuildingBlock: ZUJKAS_clean_linker_0, # of connection points: 2
#     Edge 138, Type (0, 0), BuildingBlock: ZUJKAS_clean_linker_0, # of connection points: 2
#     Edge 139, Type (0, 0), BuildingBlock: ZUJKAS_clean_linker_0, # of connection points: 2
#     Edge 140, Type (0, 0), BuildingBlock: ZUJKAS_clean_linker_0, # of connection points: 2
#     Edge 141, Type (0, 0), BuildingBlock: ZUJKAS_clean_linker_0, # of connection points: 2
#     Edge 142, Type (0, 0), BuildingBlock: ZUJKAS_clean_linker_0, # of connection points: 2
#     Edge 143, Type (0, 0), BuildingBlock: ZUJKAS_clean_linker_0, # of connection points: 2
# Relax obj value: 0.212
# Max RMSD: 0.251
# Mean RMSD: 0.231
data_MOF--net-rho--node1-AZAVOO_clean_sbu_0--edge1-ZUJKAS_clean_linker_0
_symmetry_space_group_name_H-M    P1
_symmetry_Int_Tables_number       1
_symmetry_cell_setting            triclinic
loop_
_symmetry_equiv_pos_as_xyz
'x, y, z'
_cell_length_a     91.940913
_cell_length_b     90.413946
_cell_length_c     90.469196
_cell_angle_alpha  89.993117
_cell_angle_beta   89.984517
_cell_angle_gamma 89.955982
loop_
_atom_site_label
_atom_site_type_symbol
_atom_site_fract_x
_atom_site_fract_y
_atom_site_fract_z
_atom_type_partial_charge
Mg0 Mg 0.12278 0.26508 0.44174 0.0
O1 O 0.09869 0.25963 0.43787 0.0
O2 O 0.09321 0.23937 0.45087 0.0
Mg3 Mg 0.11377 0.23183 0.46286 0.0
C4 C 0.08961 0.2498 0.44208 0.0
C5 C 0.13423 0.28444 0.41596 0.0
O6 O 0.14658 0.27958 0.42142 0.0
O7 O 0.12914 0.2462 0.42652 0.0
O8 O 0.124 0.22637 0.44028 0.0
O9 O 0.11669 0.27852 0.4615 0.0
O10 O 0.12199 0.25469 0.4622 0.0
C11 C 0.12876 0.23222 0.42835 0.0
C12 C 0.11751 0.26634 0.469 0.0
O13 O 0.12237 0.28072 0.42215 0.0
Mg14 Mg 0.76714 0.09224 0.37711 0.0
O15 O 0.75805 0.09099 0.40079 0.0
O16 O 0.74242 0.07208 0.40152 0.0
Mg17 Mg 0.74127 0.06151 0.37867 0.0
C18 C 0.74905 0.08278 0.40777 0.0
C19 C 0.77704 0.12437 0.37148 0.0
O20 O 0.77059 0.12122 0.35891 0.0
O21 O 0.74591 0.10239 0.36893 0.0
O22 O 0.73106 0.08282 0.36961 0.0
O23 O 0.78459 0.07615 0.38323 0.0
O24 O 0.76318 0.06991 0.37405 0.0
C25 C 0.7335 0.09645 0.36679 0.0
C26 C 0.77547 0.06589 0.37951 0.0
O27 O 0.77701 0.11478 0.38175 0.0
Mg28 Mg 0.86534 0.7258 0.42682 0.0
O29 O 0.88909 0.73371 0.42691 0.0
O30 O 0.89139 0.75226 0.44312 0.0
Mg31 Mg 0.86859 0.75767 0.45151 0.0
C32 C 0.8968 0.74327 0.43373 0.0
C33 C 0.85966 0.707 0.39869 0.0
O34 O 0.84623 0.71042 0.40231 0.0
O35 O 0.85965 0.7452 0.41208 0.0
O36 O 0.8621 0.76414 0.42774 0.0
O37 O 0.8701 0.71141 0.4462 0.0
O38 O 0.86234 0.73451 0.4479 0.0
C39 C 0.85932 0.75902 0.41486 0.0
C40 C 0.86724 0.72283 0.45435 0.0
O41 O 0.87005 0.71163 0.4067 0.0
Mg42 Mg 0.22592 0.90899 0.37719 0.0
O43 O 0.23388 0.90742 0.40134 0.0
O44 O 0.25144 0.92433 0.4039 0.0
Mg45 Mg 0.25484 0.93637 0.38207 0.0
C46 C 0.24341 0.9141 0.40918 0.0
C47 C 0.20495 0.88489 0.36845 0.0
O48 O 0.20482 0.89426 0.35735 0.0
O49 O 0.24626 0.89706 0.3689 0.0
O50 O 0.26297 0.9148 0.37167 0.0
O51 O 0.21004 0.92643 0.38397 0.0
O52 O 0.23237 0.93093 0.37618 0.0
C53 C 0.2593 0.90178 0.36766 0.0
C54 C 0.22037 0.93586 0.38158 0.0
O55 O 0.21332 0.88747 0.37932 0.0
Mg56 Mg 0.11351 0.7582 0.59846 0.0
O57 O 0.11598 0.74859 0.57503 0.0
O58 O 0.09884 0.73123 0.57269 0.0
Mg59 Mg 0.08519 0.73019 0.59363 0.0
C60 C 0.10952 0.73859 0.5675 0.0
C61 C 0.14277 0.77165 0.60856 0.0
O62 O 0.13812 0.76583 0.621 0.0
O63 O 0.12331 0.73755 0.60919 0.0
O64 O 0.10462 0.72194 0.60706 0.0
O65 O 0.09785 0.77514 0.58999 0.0
O66 O 0.09144 0.75316 0.59835 0.0
C67 C 0.11737 0.72503 0.61173 0.0
C68 C 0.08769 0.76555 0.59246 0.0
O69 O 0.13542 0.76963 0.59685 0.0
Mg70 Mg 0.27005 0.14508 0.60555 0.0
O71 O 0.25848 0.12309 0.60034 0.0
O72 O 0.24588 0.12583 0.57936 0.0
Mg73 Mg 0.24753 0.15006 0.57251 0.0
C74 C 0.25038 0.11789 0.5901 0.0
C75 C 0.28412 0.12403 0.62826 0.0
O76 O 0.28492 0.1162 0.61605 0.0
O77 O 0.24882 0.15427 0.61485 0.0
O78 O 0.23602 0.15689 0.59401 0.0
O79 O 0.28811 0.13833 0.59059 0.0
O80 O 0.2688 0.15101 0.58336 0.0
C81 C 0.2372 0.15798 0.60805 0.0
C82 C 0.28047 0.14389 0.57995 0.0
O83 O 0.27755 0.13641 0.62794 0.0
Mg84 Mg 0.88813 0.24042 0.60208 0.0
O85 O 0.89058 0.24964 0.5786 0.0
O86 O 0.90993 0.26454 0.57828 0.0
Mg87 Mg 0.92005 0.26458 0.60127 0.0
C88 C 0.89919 0.25838 0.57182 0.0
C89 C 0.86378 0.22395 0.58533 0.0
O90 O 0.87502 0.22132 0.57675 0.0
O91 O 0.87937 0.26247 0.61056 0.0
O92 O 0.8998 0.27581 0.61087 0.0
O93 O 0.90281 0.22143 0.59659 0.0
O94 O 0.91036 0.24276 0.60562 0.0
C95 C 0.88621 0.27441 0.61347 0.0
C96 C 0.9135 0.2298 0.60066 0.0
O97 O 0.86547 0.23209 0.59664 0.0
Mg98 Mg 0.74367 0.86688 0.60043 0.0
O99 O 0.75162 0.89094 0.5986 0.0
O100 O 0.76705 0.89219 0.57952 0.0
Mg101 Mg 0.7704 0.86888 0.57052 0.0
C102 C 0.75992 0.89829 0.58998 0.0
C103 C 0.72451 0.88251 0.62435 0.0
O104 O 0.72213 0.89149 0.6132 0.0
O105 O 0.76484 0.86008 0.61147 0.0
O106 O 0.7804 0.86117 0.59254 0.0
O107 O 0.72647 0.87194 0.58377 0.0
O108 O 0.74839 0.86348 0.57825 0.0
C109 C 0.77759 0.85851 0.60612 0.0
C110 C 0.73608 0.86865 0.57382 0.0
O111 O 0.73318 0.87169 0.62265 0.0
Mg112 Mg 0.3949 0.08853 0.24177 0.0
O113 O 0.39403 0.06339 0.23864 0.0
O114 O 0.40943 0.05781 0.22038 0.0
Mg115 Mg 0.42026 0.07897 0.21219 0.0
C116 C 0.40017 0.05397 0.23017 0.0
C117 C 0.37243 0.09914 0.26372 0.0
O118 O 0.38226 0.10969 0.26363 0.0
O119 O 0.38189 0.09242 0.2208 0.0
O120 O 0.39842 0.08772 0.20331 0.0
O121 O 0.41317 0.08619 0.25786 0.0
O122 O 0.41605 0.08927 0.23382 0.0
C123 C 0.3857 0.09188 0.20725 0.0
C124 C 0.42184 0.08726 0.24661 0.0
O125 O 0.37436 0.08791 0.25552 0.0
Mg126 Mg 0.88185 0.39172 0.25552 0.0
O127 O 0.8834 0.41667 0.26072 0.0
O128 O 0.89991 0.41902 0.27869 0.0
Mg129 Mg 0.90884 0.39641 0.28494 0.0
C130 C 0.89077 0.42463 0.26967 0.0
C131 C 0.86304 0.40343 0.23027 0.0
O132 O 0.87526 0.41076 0.22855 0.0
O133 O 0.86871 0.38744 0.27655 0.0
O134 O 0.8864 0.3894 0.29336 0.0
O135 O 0.90001 0.39383 0.23923 0.0
O136 O 0.90308 0.38855 0.26283 0.0
C137 C 0.87318 0.38675 0.28991 0.0
C138 C 0.90876 0.39137 0.25015 0.0
O139 O 0.86163 0.39511 0.24149 0.0
Mg140 Mg 0.5991 0.90651 0.24253 0.0
O141 O 0.60068 0.93141 0.23858 0.0
O142 O 0.58617 0.93678 0.21954 0.0
Mg143 Mg 0.57437 0.91569 0.21236 0.0
C144 C 0.59528 0.94066 0.22947 0.0
C145 C 0.62569 0.89463 0.25855 0.0
O146 O 0.61945 0.88261 0.25342 0.0
O147 O 0.61215 0.90182 0.22179 0.0
O148 O 0.59582 0.90552 0.2039 0.0
O149 O 0.58076 0.9097 0.25842 0.0
O150 O 0.57802 0.90611 0.23445 0.0
C151 C 0.60846 0.90144 0.2082 0.0
C152 C 0.57215 0.9085 0.24714 0.0
O153 O 0.61977 0.90708 0.25607 0.0
Mg154 Mg 0.13396 0.58133 0.2534 0.0
O155 O 0.10957 0.5802 0.24772 0.0
O156 O 0.10642 0.5624 0.23086 0.0
Mg157 Mg 0.12865 0.5527 0.22535 0.0
C158 C 0.10137 0.57253 0.23926 0.0
C159 C 0.13652 0.60455 0.27801 0.0
O160 O 0.14454 0.5937 0.28321 0.0
O161 O 0.1382 0.59341 0.23178 0.0
O162 O 0.13504 0.57521 0.21541 0.0
O163 O 0.13054 0.56418 0.27063 0.0
O164 O 0.1363 0.55923 0.24741 0.0
C165 C 0.13797 0.58868 0.2185 0.0
C166 C 0.13242 0.5545 0.26026 0.0
O167 O 0.13048 0.60303 0.26547 0.0
Mg168 Mg 0.38727 0.89326 0.74618 0.0
O169 O 0.38553 0.91807 0.75216 0.0
O170 O 0.39978 0.92123 0.77197 0.0
Mg171 Mg 0.41101 0.89966 0.77805 0.0
C172 C 0.391 0.92628 0.76226 0.0
C173 C 0.36839 0.88561 0.72008 0.0
O174 O 0.3795 0.87649 0.71917 0.0
O175 O 0.37321 0.88686 0.76591 0.0
O176 O 0.38895 0.88961 0.78452 0.0
O177 O 0.40596 0.89789 0.7312 0.0
O178 O 0.40804 0.89286 0.75505 0.0
C179 C 0.37645 0.88584 0.7796 0.0
C180 C 0.41408 0.89672 0.74282 0.0
O181 O 0.36779 0.89454 0.7309 0.0
Mg182 Mg 0.12205 0.44342 0.71987 0.0
O183 O 0.1014 0.43581 0.7318 0.0
O184 O 0.09892 0.44808 0.75305 0.0
Mg185 Mg 0.11863 0.46347 0.75485 0.0
C186 C 0.09447 0.43851 0.74372 0.0
C187 C 0.10848 0.41976 0.69865 0.0
O188 O 0.09715 0.42854 0.69991 0.0
O189 O 0.1355 0.42998 0.73599 0.0
O190 O 0.13327 0.44293 0.7569 0.0
O191 O 0.10963 0.46185 0.70916 0.0
O192 O 0.121 0.46365 0.7306 0.0
C193 C 0.13833 0.43193 0.74965 0.0
C194 C 0.11274 0.4696 0.72079 0.0
O195 O 0.12033 0.42332 0.70492 0.0
Mg196 Mg 0.63719 0.08055 0.7605 0.0
O197 O 0.61236 0.07961 0.75694 0.0
O198 O 0.60766 0.05996 0.74265 0.0
Mg199 Mg 0.62919 0.04961 0.73572 0.0
C200 C 0.60344 0.07107 0.75025 0.0
C201 C 0.62903 0.1051 0.78307 0.0
O202 O 0.62299 0.09357 0.78942 0.0
O203 O 0.6397 0.09052 0.7376 0.0
O204 O 0.63482 0.07106 0.72324 0.0
O205 O 0.63503 0.06482 0.77941 0.0
O206 O 0.63873 0.05798 0.75627 0.0
C207 C 0.6382 0.08468 0.72486 0.0
C208 C 0.63593 0.05432 0.76973 0.0
O209 O 0.63541 0.10344 0.77074 0.0
Mg210 Mg 0.87545 0.55439 0.72552 0.0
O211 O 0.89603 0.56192 0.73745 0.0
O212 O 0.89961 0.54849 0.7578 0.0
Mg213 Mg 0.88053 0.53218 0.75892 0.0
C214 C 0.90343 0.55878 0.74895 0.0
C215 C 0.87549 0.57751 0.69857 0.0
O216 O 0.87387 0.56592 0.68998 0.0
O217 O 0.86161 0.56582 0.74275 0.0
O218 O 0.86481 0.55163 0.76273 0.0
O219 O 0.88845 0.53733 0.71334 0.0
O220 O 0.87744 0.53353 0.73472 0.0
C221 C 0.85905 0.56276 0.75626 0.0
C222 C 0.88579 0.52865 0.72442 0.0
O223 O 0.87637 0.57577 0.71247 0.0
Mg224 Mg 0.23116 0.36789 0.09073 0.0
O225 O 0.23844 0.39225 0.08967 0.0
O226 O 0.25314 0.39456 0.07012 0.0
Mg227 Mg 0.2558 0.372 0.05925 0.0
C228 C 0.24645 0.40009 0.08119 0.0
C229 C 0.2184 0.35946 0.12065 0.0
O230 O 0.2206 0.34661 0.11423 0.0
O231 O 0.25321 0.36108 0.09992 0.0
O232 O 0.26742 0.36335 0.08001 0.0
O233 O 0.21266 0.37311 0.07561 0.0
O234 O 0.23441 0.3658 0.06815 0.0
C235 C 0.26559 0.36003 0.09361 0.0
C236 C 0.2216 0.37053 0.06484 0.0
O237 O 0.22205 0.37116 0.11382 0.0
Mg238 Mg 0.24207 0.58491 0.8707 0.0
O239 O 0.23687 0.5839 0.89559 0.0
O240 O 0.21925 0.56715 0.8987 0.0
Mg241 Mg 0.21318 0.55748 0.87625 0.0
C242 C 0.22813 0.57668 0.90388 0.0
C243 C 0.26169 0.61171 0.86328 0.0
O244 O 0.2603 0.60555 0.8502 0.0
O245 O 0.22112 0.59787 0.86636 0.0
O246 O 0.20444 0.58012 0.86924 0.0
O247 O 0.25842 0.5667 0.87325 0.0
O248 O 0.23509 0.56315 0.86854 0.0
C249 C 0.20792 0.59346 0.86623 0.0
C250 C 0.24764 0.55765 0.87164 0.0
O251 O 0.25509 0.60602 0.87422 0.0
Mg252 Mg 0.38428 0.24284 0.92329 0.0
O253 O 0.40822 0.25027 0.92194 0.0
O254 O 0.41098 0.26995 0.93664 0.0
Mg255 Mg 0.38893 0.27566 0.94651 0.0
C256 C 0.41613 0.2604 0.92765 0.0
C257 C 0.376 0.22191 0.89793 0.0
O258 O 0.36323 0.2253 0.90351 0.0
O259 O 0.378 0.26176 0.90809 0.0
O260 O 0.38126 0.28125 0.92297 0.0
O261 O 0.38932 0.22914 0.94312 0.0
O262 O 0.38228 0.2525 0.94398 0.0
C263 C 0.37789 0.27567 0.91044 0.0
C264 C 0.38678 0.24092 0.95086 0.0
O265 O 0.38735 0.22751 0.90366 0.0
Mg266 Mg 0.75464 0.41388 0.87025 0.0
O267 O 0.75975 0.41341 0.8952 0.0
O268 O 0.77706 0.43021 0.89947 0.0
Mg269 Mg 0.78335 0.44106 0.87766 0.0
C270 C 0.76828 0.42026 0.90401 0.0
C271 C 0.73795 0.38546 0.86105 0.0
O272 O 0.74311 0.38981 0.84822 0.0
O273 O 0.77564 0.40116 0.86504 0.0
O274 O 0.79209 0.41885 0.86941 0.0
O275 O 0.73859 0.43217 0.87409 0.0
O276 O 0.76176 0.43572 0.86887 0.0
C277 C 0.7888 0.40571 0.86543 0.0
C278 C 0.74935 0.44125 0.8724 0.0
O279 O 0.74124 0.39276 0.87257 0.0
Mg280 Mg 0.60509 0.74706 0.93319 0.0
O281 O 0.58041 0.74462 0.92981 0.0
O282 O 0.57298 0.72552 0.94353 0.0
Mg283 Mg 0.59254 0.71589 0.95562 0.0
C284 C 0.57039 0.736 0.93444 0.0
C285 C 0.61909 0.76624 0.90885 0.0
O286 O 0.63065 0.76162 0.91604 0.0
O287 O 0.60878 0.72704 0.91859 0.0
O288 O 0.60159 0.70841 0.93309 0.0
O289 O 0.60155 0.76174 0.9527 0.0
O290 O 0.60355 0.73742 0.95392 0.0
C291 C 0.60675 0.71327 0.92091 0.0
C292 C 0.60122 0.74978 0.96058 0.0
O293 O 0.60657 0.76226 0.9133 0.0
Mg294 Mg 0.7719 0.6375 0.08963 0.0
O295 O 0.76073 0.6151 0.08515 0.0
O296 O 0.74725 0.6178 0.0647 0.0
Mg297 Mg 0.74954 0.64146 0.0563 0.0
C298 C 0.75203 0.60993 0.07538 0.0
C299 C 0.78421 0.64015 0.12096 0.0
O300 O 0.78374 0.65398 0.11651 0.0
O301 O 0.75037 0.64672 0.09834 0.0
O302 O 0.73802 0.64939 0.07725 0.0
O303 O 0.79066 0.63089 0.07534 0.0
O304 O 0.77079 0.64203 0.06717 0.0
C305 C 0.73897 0.65064 0.09128 0.0
C306 C 0.78292 0.63547 0.06431 0.0
O307 O 0.77911 0.63018 0.11254 0.0
Mg308 Mg 0.38643 0.74751 0.09685 0.0
O309 O 0.38955 0.75288 0.0723 0.0
O310 O 0.40619 0.7708 0.07079 0.0
Mg311 Mg 0.41415 0.77634 0.09404 0.0
C312 C 0.39724 0.76187 0.06473 0.0
C313 C 0.35553 0.73521 0.10114 0.0
O314 O 0.35708 0.74339 0.11304 0.0
O315 O 0.37379 0.76888 0.10036 0.0
O316 O 0.39164 0.78561 0.10016 0.0
O317 O 0.4042 0.73066 0.09594 0.0
O318 O 0.40754 0.75419 0.1015 0.0
C319 C 0.37825 0.78217 0.1018 0.0
C320 C 0.41305 0.7413 0.09925 0.0
O321 O 0.36577 0.73482 0.09172 0.0
Mg322 Mg 0.61303 0.25231 0.09349 0.0
O323 O 0.61095 0.24825 0.06849 0.0
O324 O 0.59478 0.23011 0.06534 0.0
Mg325 Mg 0.58656 0.22265 0.08788 0.0
C326 C 0.60367 0.23961 0.06013 0.0
C327 C 0.64205 0.2676 0.10047 0.0
O328 O 0.63963 0.26017 0.11271 0.0
O329 O 0.62647 0.23134 0.09648 0.0
O330 O 0.60935 0.21399 0.09373 0.0
O331 O 0.59456 0.26838 0.0928 0.0
O332 O 0.59209 0.24446 0.09703 0.0
C333 C 0.62248 0.21782 0.09632 0.0
C334 C 0.5861 0.2572 0.09525 0.0
O335 O 0.63316 0.2663 0.08981 0.0
Mg336 Mg 0.92061 0.7528 0.63533 0.0
O337 O 0.91696 0.74626 0.61103 0.0
O338 O 0.93584 0.73235 0.60394 0.0
Mg339 Mg 0.95121 0.72973 0.62354 0.0
C340 C 0.92371 0.73869 0.60126 0.0
C341 C 0.89437 0.76946 0.64799 0.0
O342 O 0.90432 0.77171 0.65816 0.0
O343 O 0.91393 0.72955 0.64237 0.0
O344 O 0.9333 0.71644 0.63518 0.0
O345 O 0.93317 0.77252 0.62788 0.0
O346 O 0.94289 0.75063 0.6325 0.0
C347 C 0.92073 0.71728 0.64116 0.0
C348 C 0.94442 0.76391 0.62758 0.0
O349 O 0.89747 0.76134 0.63696 0.0
Mg350 Mg 0.2389 0.93351 0.59767 0.0
O351 O 0.24342 0.92888 0.57319 0.0
O352 O 0.26245 0.94257 0.5663 0.0
Mg353 Mg 0.26945 0.95672 0.58602 0.0
C354 C 0.25259 0.93305 0.56345 0.0
C355 C 0.22598 0.9045 0.61038 0.0
O356 O 0.23371 0.90905 0.62172 0.0
O357 O 0.25904 0.9207 0.60446 0.0
O358 O 0.2772 0.93598 0.59852 0.0
O359 O 0.22371 0.95211 0.59199 0.0
O360 O 0.24738 0.95463 0.59537 0.0
C361 C 0.27252 0.92397 0.60425 0.0
C362 C 0.2351 0.96053 0.59195 0.0
O363 O 0.22542 0.91248 0.59883 0.0
Mg364 Mg 0.07666 0.23661 0.65224 0.0
O365 O 0.07645 0.2431 0.62773 0.0
O366 O 0.05513 0.25373 0.6224 0.0
Mg367 Mg 0.04219 0.25512 0.64394 0.0
C368 C 0.06771 0.24913 0.61855 0.0
C369 C 0.10629 0.22277 0.66022 0.0
O370 O 0.09804 0.21785 0.67102 0.0
O371 O 0.08109 0.26075 0.65808 0.0
O372 O 0.05956 0.27102 0.65289 0.0
O373 O 0.06581 0.21534 0.64629 0.0
O374 O 0.05412 0.23586 0.65234 0.0
C375 C 0.07271 0.27201 0.65737 0.0
C376 C 0.05366 0.22249 0.64748 0.0
O377 O 0.10076 0.23137 0.65063 0.0
Mg378 Mg 0.74034 0.08355 0.59779 0.0
O379 O 0.73613 0.08421 0.57289 0.0
O380 O 0.71848 0.06814 0.56758 0.0
Mg381 Mg 0.71197 0.05658 0.5891 0.0
C382 C 0.72769 0.07794 0.56363 0.0
C383 C 0.76234 0.10703 0.58642 0.0
O384 O 0.76553 0.09598 0.57756 0.0
O385 O 0.71925 0.09578 0.60213 0.0
O386 O 0.70252 0.07829 0.59846 0.0
O387 O 0.75709 0.06591 0.595 0.0
O388 O 0.73364 0.06158 0.59833 0.0
C389 C 0.70607 0.09141 0.60231 0.0
C390 C 0.74651 0.05651 0.59583 0.0
O391 O 0.75253 0.1053 0.59616 0.0
Mg392 Mg 0.9161 0.25087 0.3826 0.0
O393 O 0.9135 0.2566 0.40714 0.0
O394 O 0.9271 0.27649 0.41201 0.0
Mg395 Mg 0.93774 0.28385 0.39044 0.0
C396 C 0.91838 0.26631 0.41611 0.0
C397 C 0.88787 0.23489 0.37332 0.0
O398 O 0.89038 0.2431 0.36161 0.0
O399 O 0.90119 0.26992 0.3768 0.0
O400 O 0.91492 0.28974 0.38143 0.0
O401 O 0.93533 0.23706 0.38806 0.0
O402 O 0.93652 0.26084 0.38244 0.0
C403 C 0.90297 0.28389 0.37718 0.0
C404 C 0.943 0.24902 0.38696 0.0
O405 O 0.8967 0.23542 0.38411 0.0
Mg406 Mg 0.75295 0.88197 0.39308 0.0
O407 O 0.76355 0.90479 0.39513 0.0
O408 O 0.77967 0.90416 0.4136 0.0
Mg409 Mg 0.7795 0.88083 0.42316 0.0
C410 C 0.77311 0.91104 0.40324 0.0
C411 C 0.74234 0.87917 0.36058 0.0
O412 O 0.74817 0.86601 0.36234 0.0
O413 O 0.77334 0.87302 0.38204 0.0
O414 O 0.78863 0.87199 0.4012 0.0
O415 O 0.7361 0.88842 0.40955 0.0
O416 O 0.75705 0.87785 0.41526 0.0
C417 C 0.78574 0.86991 0.38753 0.0
C418 C 0.74505 0.88381 0.41959 0.0
O419 O 0.74306 0.88845 0.37108 0.0
Mg420 Mg 0.07325 0.74925 0.38413 0.0
O421 O 0.08067 0.74312 0.40751 0.0
O422 O 0.0681 0.72333 0.41495 0.0
Mg423 Mg 0.0523 0.71704 0.39647 0.0
C424 C 0.07773 0.73326 0.41717 0.0
C425 C 0.09421 0.77317 0.37123 0.0
O426 O 0.0839 0.77364 0.36118 0.0
O427 O 0.08562 0.72958 0.3747 0.0
O428 O 0.07163 0.71061 0.38168 0.0
O429 O 0.05566 0.76382 0.39311 0.0
O430 O 0.05303 0.73996 0.3884 0.0
C431 C 0.08269 0.71578 0.37485 0.0
C432 C 0.04766 0.75204 0.39358 0.0
O433 O 0.09304 0.76413 0.38191 0.0
Mg434 Mg 0.25128 0.11836 0.40326 0.0
O435 O 0.24135 0.09539 0.40644 0.0
O436 O 0.22671 0.09572 0.42613 0.0
Mg437 Mg 0.22702 0.11922 0.43529 0.0
C438 C 0.23262 0.08894 0.41532 0.0
C439 C 0.26117 0.12104 0.37055 0.0
O440 O 0.25729 0.1348 0.37306 0.0
O441 O 0.22997 0.12675 0.39368 0.0
O442 O 0.21609 0.12748 0.41395 0.0
O443 O 0.26947 0.11266 0.41847 0.0
O444 O 0.24875 0.1228 0.42565 0.0
C445 C 0.21792 0.12953 0.40009 0.0
C446 C 0.26123 0.11732 0.42911 0.0
O447 O 0.25953 0.1115 0.3807 0.0
Mg448 Mg 0.59177 0.87403 0.75708 0.0
O449 O 0.5939 0.89704 0.76724 0.0
O450 O 0.57625 0.90059 0.78381 0.0
Mg451 Mg 0.56347 0.87891 0.78511 0.0
C452 C 0.58735 0.90515 0.77667 0.0
C453 C 0.61832 0.86686 0.73759 0.0
O454 O 0.61062 0.85469 0.73629 0.0
O455 O 0.60187 0.8638 0.77769 0.0
O456 O 0.58385 0.86716 0.79397 0.0
O457 O 0.57596 0.8832 0.74075 0.0
O458 O 0.56981 0.87348 0.76233 0.0
C459 C 0.59656 0.86246 0.79068 0.0
C460 C 0.566 0.8802 0.75041 0.0
O461 O 0.61373 0.87706 0.74603 0.0
Mg462 Mg 0.06142 0.64837 0.76464 0.0
O463 O 0.06427 0.62456 0.75587 0.0
O464 O 0.04875 0.6215 0.73707 0.0
Mg465 Mg 0.03726 0.64339 0.73294 0.0
C466 C 0.05853 0.61654 0.74579 0.0
C467 C 0.08317 0.63725 0.78888 0.0
O468 O 0.07204 0.62869 0.79202 0.0
O469 O 0.07463 0.65682 0.74521 0.0
O470 O 0.05952 0.6531 0.72626 0.0
O471 O 0.04368 0.64032 0.77927 0.0
O472 O 0.0402 0.64852 0.75652 0.0
C473 C 0.07178 0.65731 0.73143 0.0
C474 C 0.03505 0.64205 0.76809 0.0
O475 O 0.08214 0.64633 0.77822 0.0
Mg476 Mg 0.42447 0.11223 0.75349 0.0
O477 O 0.41803 0.08819 0.75809 0.0
O478 O 0.43062 0.08002 0.77754 0.0
Mg479 Mg 0.44568 0.09873 0.78504 0.0
C480 C 0.42123 0.07804 0.76733 0.0
C481 C 0.40185 0.10497 0.72903 0.0
O482 O 0.411 0.09393 0.72733 0.0
O483 O 0.41173 0.11995 0.77364 0.0
O484 O 0.42593 0.11256 0.79227 0.0
O485 O 0.44248 0.10495 0.73851 0.0
O486 O 0.4449 0.10822 0.7626 0.0
C487 C 0.41465 0.11925 0.78742 0.0
C488 C 0.45053 0.10413 0.75022 0.0
O489 O 0.40448 0.11471 0.73881 0.0
Mg490 Mg 0.93727 0.35022 0.76379 0.0
O491 O 0.93573 0.37424 0.75539 0.0
O492 O 0.95149 0.37696 0.73673 0.0
Mg493 Mg 0.96179 0.35454 0.73222 0.0
C494 C 0.9419 0.38219 0.74551 0.0
C495 C 0.91586 0.36266 0.78775 0.0
O496 O 0.92728 0.37087 0.7907 0.0
O497 O 0.92365 0.34302 0.74417 0.0
O498 O 0.93902 0.34639 0.72537 0.0
O499 O 0.95542 0.35703 0.77854 0.0
O500 O 0.95846 0.34903 0.75566 0.0
C501 C 0.92652 0.34279 0.73039 0.0
C502 C 0.96394 0.35505 0.76731 0.0
O503 O 0.9166 0.35325 0.77735 0.0
Mg504 Mg 0.59768 0.13103 0.24391 0.0
O505 O 0.59975 0.10575 0.24052 0.0
O506 O 0.5838 0.0995 0.22293 0.0
Mg507 Mg 0.57258 0.12014 0.21445 0.0
C508 C 0.59358 0.09607 0.23234 0.0
C509 C 0.6185 0.12338 0.26951 0.0
O510 O 0.60727 0.11495 0.27262 0.0
O511 O 0.61074 0.13497 0.22286 0.0
O512 O 0.59479 0.12775 0.20565 0.0
O513 O 0.57989 0.12715 0.26012 0.0
O514 O 0.57635 0.13027 0.23617 0.0
C515 C 0.60729 0.13261 0.20941 0.0
C516 C 0.5711 0.12694 0.24895 0.0
O517 O 0.61818 0.13127 0.2579 0.0
Mg518 Mg 0.92203 0.61126 0.24676 0.0
O519 O 0.91766 0.58718 0.25325 0.0
O520 O 0.93234 0.58124 0.27199 0.0
Mg521 Mg 0.94627 0.60151 0.27735 0.0
C522 C 0.92235 0.57791 0.26277 0.0
C523 C 0.90106 0.61763 0.22073 0.0
O524 O 0.91307 0.62387 0.21592 0.0
O525 O 0.90995 0.61927 0.26725 0.0
O526 O 0.92577 0.61376 0.2852 0.0
O527 O 0.93969 0.60392 0.23131 0.0
O528 O 0.94317 0.60982 0.25473 0.0
C529 C 0.91371 0.6193 0.28084 0.0
C530 C 0.94845 0.60502 0.24247 0.0
O531 O 0.90114 0.61131 0.23327 0.0
Mg532 Mg 0.39683 0.86315 0.24771 0.0
O533 O 0.39614 0.88847 0.24437 0.0
O534 O 0.41217 0.89365 0.22651 0.0
Mg535 Mg 0.42216 0.87236 0.2179 0.0
C536 C 0.40278 0.89772 0.23608 0.0
C537 C 0.37663 0.86996 0.27439 0.0
O538 O 0.38875 0.87615 0.27893 0.0
O539 O 0.38339 0.86002 0.22682 0.0
O540 O 0.39961 0.86553 0.2093 0.0
O541 O 0.41499 0.86612 0.26372 0.0
O542 O 0.41812 0.86269 0.23976 0.0
C543 C 0.38684 0.8616 0.21325 0.0
C544 C 0.42366 0.86589 0.25245 0.0
O545 O 0.3763 0.86395 0.2617 0.0
Mg546 Mg 0.08886 0.36986 0.25514 0.0
O547 O 0.09062 0.39446 0.26069 0.0
O548 O 0.07458 0.40007 0.27836 0.0
Mg549 Mg 0.06255 0.37874 0.28421 0.0
C550 C 0.08467 0.40377 0.26941 0.0
C551 C 0.1197 0.36177 0.24213 0.0
O552 O 0.11813 0.35009 0.25061 0.0
O553 O 0.10087 0.3641 0.2764 0.0
O554 O 0.0839 0.36922 0.29337 0.0
O555 O 0.07154 0.37485 0.23864 0.0
O556 O 0.06736 0.3697 0.26215 0.0
C557 C 0.09659 0.36463 0.28982 0.0
C558 C 0.06237 0.3736 0.24944 0.0
O559 O 0.10982 0.3716 0.242 0.0
Mg560 Mg 0.75537 0.631 0.89028 0.0
O561 O 0.75186 0.6059 0.89292 0.0
O562 O 0.74135 0.60178 0.9148 0.0
Mg563 Mg 0.73693 0.62415 0.92541 0.0
C564 C 0.7467 0.5971 0.90265 0.0
C565 C 0.77281 0.63432 0.86191 0.0
O566 O 0.77987 0.64287 0.8712 0.0
O567 O 0.73153 0.63378 0.88446 0.0
O568 O 0.72109 0.62896 0.90631 0.0
O569 O 0.77643 0.62926 0.90237 0.0
O570 O 0.75521 0.6337 0.91301 0.0
C571 C 0.7203 0.63211 0.89256 0.0
C572 C 0.76894 0.63121 0.91433 0.0
O573 O 0.76144 0.62769 0.86632 0.0
Mg574 Mg 0.74396 0.42693 0.09186 0.0
O575 O 0.75238 0.42268 0.06835 0.0
O576 O 0.77151 0.4374 0.06465 0.0
Mg577 Mg 0.77481 0.45162 0.08527 0.0
C578 C 0.76267 0.42748 0.06019 0.0
C579 C 0.73051 0.39738 0.1023 0.0
O580 O 0.73705 0.40182 0.11443 0.0
O581 O 0.7633 0.41496 0.10207 0.0
O582 O 0.78118 0.43141 0.09918 0.0
O583 O 0.72925 0.44486 0.08347 0.0
O584 O 0.75175 0.44846 0.09118 0.0
C585 C 0.77638 0.41914 0.10422 0.0
C586 C 0.74003 0.45384 0.08558 0.0
O587 O 0.73108 0.4055 0.09085 0.0
Mg588 Mg 0.585 0.74096 0.15092 0.0
O589 O 0.58353 0.7452 0.12586 0.0
O590 O 0.56531 0.76111 0.12186 0.0
Mg591 Mg 0.55623 0.76813 0.14418 0.0
C592 C 0.5755 0.75276 0.11713 0.0
C593 C 0.60774 0.71661 0.14254 0.0
O594 O 0.59579 0.70967 0.13865 0.0
O595 O 0.59644 0.76307 0.15359 0.0
O596 O 0.57833 0.77893 0.1492 0.0
O597 O 0.56835 0.72322 0.14845 0.0
O598 O 0.56316 0.74664 0.15309 0.0
C599 C 0.59165 0.77624 0.15221 0.0
C600 C 0.5587 0.73359 0.14962 0.0
O601 O 0.60684 0.72958 0.14785 0.0
Mg602 Mg 0.24037 0.58588 0.09496 0.0
O603 O 0.23502 0.58554 0.07019 0.0
O604 O 0.21599 0.57051 0.06717 0.0
Mg605 Mg 0.20955 0.56093 0.08959 0.0
C606 C 0.2256 0.57925 0.06195 0.0
C607 C 0.25386 0.6161 0.10195 0.0
O608 O 0.24566 0.61374 0.11361 0.0
O609 O 0.22054 0.60012 0.09964 0.0
O610 O 0.20234 0.58391 0.09779 0.0
O611 O 0.25527 0.56656 0.09211 0.0
O612 O 0.23191 0.56471 0.09747 0.0
C613 C 0.20708 0.59689 0.10065 0.0
C614 C 0.24401 0.55825 0.09438 0.0
O615 O 0.25427 0.6064 0.0918 0.0
Mg616 Mg 0.41109 0.2511 0.1408 0.0
O617 O 0.41148 0.2482 0.11545 0.0
O618 O 0.42902 0.232 0.1098 0.0
Mg619 Mg 0.43863 0.22341 0.13122 0.0
C620 C 0.4189 0.24088 0.10598 0.0
C621 C 0.38946 0.27525 0.13082 0.0
O622 O 0.40109 0.27882 0.12317 0.0
O623 O 0.39884 0.22926 0.14282 0.0
O624 O 0.41623 0.21331 0.13602 0.0
O625 O 0.42827 0.2683 0.13881 0.0
O626 O 0.43276 0.24446 0.14177 0.0
C627 C 0.40318 0.21617 0.13993 0.0
C628 C 0.43759 0.25757 0.13908 0.0
O629 O 0.38991 0.26398 0.1392 0.0
Mg630 Mg 0.23403 0.36836 0.88701 0.0
O631 O 0.24067 0.39285 0.88825 0.0
O632 O 0.25363 0.39661 0.90881 0.0
Mg633 Mg 0.25708 0.37407 0.91942 0.0
C634 C 0.24758 0.40137 0.89705 0.0
C635 C 0.22315 0.36153 0.85498 0.0
O636 O 0.22495 0.34784 0.85948 0.0
O637 O 0.25655 0.36258 0.87856 0.0
O638 O 0.26992 0.36711 0.89874 0.0
O639 O 0.21486 0.373 0.90146 0.0
O640 O 0.23654 0.36629 0.90968 0.0
C641 C 0.26876 0.36339 0.88516 0.0
C642 C 0.22348 0.37059 0.91253 0.0
O643 O 0.22603 0.37212 0.86372 0.0
Mg644 Mg 0.5901 0.26754 0.87151 0.0
O645 O 0.59273 0.25976 0.89556 0.0
O646 O 0.57661 0.24176 0.89973 0.0
Mg647 Mg 0.56421 0.23743 0.87834 0.0
C648 C 0.5868 0.25027 0.90411 0.0
C649 C 0.61903 0.28252 0.86188 0.0
O650 O 0.61476 0.27668 0.84931 0.0
O651 O 0.6021 0.24695 0.86323 0.0
O652 O 0.58541 0.22951 0.86771 0.0
O653 O 0.57245 0.28308 0.87884 0.0
O654 O 0.56869 0.26017 0.87131 0.0
C655 C 0.59789 0.23348 0.86295 0.0
C656 C 0.56353 0.27218 0.87681 0.0
O657 O 0.61127 0.2806 0.87335 0.0
Mg658 Mg 0.39793 0.74298 0.87404 0.0
O659 O 0.3972 0.75019 0.89843 0.0
O660 O 0.41293 0.76883 0.90113 0.0
Mg661 Mg 0.42299 0.77408 0.87874 0.0
C662 C 0.40362 0.75982 0.90645 0.0
C663 C 0.3781 0.71572 0.87268 0.0
O664 O 0.39022 0.71085 0.8667 0.0
O665 O 0.38434 0.76301 0.86746 0.0
O666 O 0.40051 0.78122 0.87023 0.0
O667 O 0.41635 0.72789 0.87949 0.0
O668 O 0.41911 0.75105 0.87221 0.0
C669 C 0.3878 0.77666 0.86679 0.0
C670 C 0.42487 0.73906 0.87721 0.0
O671 O 0.37757 0.729 0.87723 0.0
H672 H 0.09379 0.36911 0.31944 0.0
H673 H 0.10693 0.35673 0.33923 0.0
H674 H 0.13391 0.3345 0.30716 0.0
H675 H 0.12066 0.34685 0.28711 0.0
H676 H 0.12005 0.31551 0.32647 0.0
H677 H 0.14714 0.36005 0.35788 0.0
H678 H 0.12844 0.3644 0.35423 0.0
H679 H 0.14099 0.36247 0.33906 0.0
C680 C 0.1027 0.36182 0.31656 0.0
C681 C 0.10609 0.35886 0.30169 0.0
C682 C 0.11031 0.35486 0.32791 0.0
C683 C 0.12151 0.34484 0.32467 0.0
C684 C 0.12538 0.34231 0.30987 0.0
H685 H 0.15748 0.29595 0.4009 0.0
H686 H 0.15697 0.31012 0.37777 0.0
C687 C 0.1178 0.34938 0.29845 0.0
C688 C 0.12759 0.33562 0.33669 0.0
H689 H 0.14103 0.33785 0.37178 0.0
C690 C 0.12498 0.32034 0.33623 0.0
C691 C 0.13414 0.3419 0.34936 0.0
C692 C 0.13798 0.35809 0.35011 0.0
C693 C 0.12772 0.31136 0.34855 0.0
C694 C 0.13306 0.31789 0.36165 0.0
C695 C 0.13673 0.33294 0.36176 0.0
C696 C 0.13355 0.30955 0.37568 0.0
C697 C 0.12435 0.29506 0.34765 0.0
C698 C 0.12053 0.30484 0.38222 0.0
C699 C 0.12076 0.29687 0.39542 0.0
C700 C 0.13404 0.29344 0.40231 0.0
C701 C 0.14708 0.29838 0.39583 0.0
C702 C 0.14682 0.30646 0.38264 0.0
H703 H 0.12419 0.29112 0.33602 0.0
H704 H 0.13244 0.28847 0.35396 0.0
H705 H 0.11345 0.293 0.35251 0.0
H706 H 0.11016 0.30733 0.3771 0.0
H707 H 0.11052 0.29327 0.40012 0.0
H708 H 0.73603 0.12161 0.35005 0.0
H709 H 0.71701 0.13299 0.3348 0.0
H710 H 0.68574 0.10183 0.35187 0.0
H711 H 0.70452 0.09049 0.36708 0.0
H712 H 0.70266 0.11639 0.31316 0.0
H713 H 0.66286 0.14063 0.35202 0.0
H714 H 0.68142 0.13662 0.35724 0.0
H715 H 0.66795 0.12218 0.35719 0.0
C716 C 0.72501 0.11747 0.35085 0.0
C717 C 0.72178 0.10508 0.35966 0.0
C718 C 0.71418 0.12396 0.34212 0.0
C719 C 0.69995 0.11834 0.34233 0.0
C720 C 0.69657 0.10653 0.35176 0.0
H721 H 0.62278 0.10726 0.29461 0.0
H722 H 0.64324 0.10869 0.31174 0.0
C723 C 0.70737 0.09997 0.36035 0.0
C724 C 0.68908 0.1232 0.33131 0.0
H725 H 0.65347 0.13329 0.3281 0.0
C726 C 0.69201 0.12046 0.31634 0.0
C727 C 0.67521 0.12846 0.33554 0.0
C728 C 0.67171 0.13228 0.35137 0.0
C729 C 0.68109 0.12176 0.30559 0.0
C730 C 0.66697 0.12618 0.30996 0.0
C731 C 0.66429 0.1298 0.32481 0.0
C732 C 0.65455 0.1258 0.29959 0.0
C733 C 0.68449 0.11747 0.28984 0.0
C734 C 0.65412 0.135 0.28712 0.0
C735 C 0.64247 0.13414 0.27723 0.0
C736 C 0.63102 0.12413 0.27973 0.0
C737 C 0.63144 0.11505 0.29233 0.0
C738 C 0.64309 0.1159 0.30217 0.0
H739 H 0.69515 0.11177 0.28885 0.0
H740 H 0.67591 0.11009 0.28536 0.0
H741 H 0.68483 0.12757 0.28288 0.0
H742 H 0.66277 0.14286 0.28506 0.0
H743 H 0.64241 0.14137 0.26768 0.0
H744 H 0.84002 0.69389 0.38007 0.0
H745 H 0.84527 0.67862 0.35832 0.0
H746 H 0.89126 0.68423 0.36573 0.0
H747 H 0.88618 0.69951 0.38738 0.0
H748 H 0.88135 0.6891 0.33567 0.0
H749 H 0.86248 0.63575 0.35979 0.0
H750 H 0.85019 0.65124 0.36066 0.0
H751 H 0.86677 0.65161 0.37111 0.0
C752 C 0.85125 0.69187 0.37707 0.0
C753 C 0.86269 0.69786 0.38549 0.0
C754 C 0.85421 0.68311 0.36468 0.0
C755 C 0.86863 0.68023 0.36054 0.0
C756 C 0.88005 0.68633 0.36879 0.0
H757 H 0.91655 0.61875 0.31086 0.0
H758 H 0.90305 0.63322 0.32897 0.0
C759 C 0.87712 0.69503 0.38118 0.0
C760 C 0.87202 0.67085 0.34761 0.0
H761 H 0.87255 0.63497 0.33591 0.0
C762 C 0.87926 0.6773 0.33559 0.0
C763 C 0.8693 0.65547 0.34766 0.0
C764 C 0.86184 0.648 0.3605 0.0
C765 C 0.8843 0.66867 0.32377 0.0
C766 C 0.88189 0.65322 0.32396 0.0
C767 C 0.87424 0.64684 0.33577 0.0
C768 C 0.88875 0.64338 0.31293 0.0
C769 C 0.89282 0.67601 0.31154 0.0
C770 C 0.88488 0.64401 0.29795 0.0
C771 C 0.89262 0.63574 0.28749 0.0
C772 C 0.90435 0.62674 0.2919 0.0
C773 C 0.90769 0.62566 0.30703 0.0
C774 C 0.89994 0.63387 0.31744 0.0
H775 H 0.89559 0.68767 0.3142 0.0
H776 H 0.90306 0.66986 0.30935 0.0
H777 H 0.88628 0.67594 0.30124 0.0
H778 H 0.87613 0.65116 0.29431 0.0
H779 H 0.88971 0.63677 0.27593 0.0
H780 H 0.3738 0.88188 0.30195 0.0
H781 H 0.35253 0.88118 0.31806 0.0
H782 H 0.32902 0.85623 0.28521 0.0
H783 H 0.35023 0.85705 0.26886 0.0
H784 H 0.3135 0.87966 0.29594 0.0
H785 H 0.33608 0.84735 0.34246 0.0
H786 H 0.34747 0.86274 0.33771 0.0
H787 H 0.34473 0.84807 0.32454 0.0
C788 C 0.36415 0.87617 0.29816 0.0
C789 C 0.36372 0.86951 0.28413 0.0
C790 C 0.35204 0.87565 0.30745 0.0
C791 C 0.33932 0.86835 0.30297 0.0
C792 C 0.3388 0.86176 0.28894 0.0
H793 H 0.25512 0.87807 0.34914 0.0
H794 H 0.27359 0.86608 0.3336 0.0
C795 C 0.35092 0.86229 0.27961 0.0
C796 C 0.32627 0.86862 0.31255 0.0
H797 H 0.3151 0.86253 0.34802 0.0
C798 C 0.31369 0.87561 0.30722 0.0
C799 C 0.32654 0.86323 0.32723 0.0
C800 C 0.33939 0.85479 0.33327 0.0
C801 C 0.30177 0.87834 0.31651 0.0
C802 C 0.30242 0.87377 0.33145 0.0
C803 C 0.31466 0.86602 0.33655 0.0
C804 C 0.29152 0.87886 0.34234 0.0
C805 C 0.28898 0.88696 0.31056 0.0
C806 C 0.29564 0.88946 0.35282 0.0
C807 C 0.2852 0.89629 0.36165 0.0
C808 C 0.27041 0.89259 0.36022 0.0
C809 C 0.26642 0.88118 0.35046 0.0
C810 C 0.27693 0.87438 0.34153 0.0
H811 H 0.29101 0.89127 0.29924 0.0
H812 H 0.27928 0.87968 0.31016 0.0
H813 H 0.28641 0.89642 0.31794 0.0
H814 H 0.30687 0.89301 0.35364 0.0
H815 H 0.28866 0.9049 0.36918 0.0
H816 H 0.07262 0.65331 0.70158 0.0
H817 H 0.09074 0.66248 0.68418 0.0
H818 H 0.11469 0.68231 0.72002 0.0
H819 H 0.09658 0.67302 0.73767 0.0
H820 H 0.10696 0.70159 0.69617 0.0
H821 H 0.13371 0.65087 0.67561 0.0
H822 H 0.11426 0.64921 0.6764 0.0
H823 H 0.12441 0.65173 0.69322 0.0
C824 C 0.08179 0.6595 0.70583 0.0
C825 C 0.08309 0.66252 0.72101 0.0
C826 C 0.09224 0.66458 0.69587 0.0
C827 C 0.10419 0.67282 0.70086 0.0
C828 C 0.10565 0.67576 0.71601 0.0
H829 H 0.13883 0.73084 0.63214 0.0
H830 H 0.14263 0.71705 0.65513 0.0
C831 C 0.09526 0.67051 0.72604 0.0
C832 C 0.11393 0.67981 0.68988 0.0
H833 H 0.13317 0.6717 0.65869 0.0
C834 C 0.11311 0.69518 0.68819 0.0
C835 C 0.12199 0.67136 0.67961 0.0
C836 C 0.12379 0.65488 0.68137 0.0
C837 C 0.11871 0.70217 0.67557 0.0
C838 C 0.12572 0.69352 0.66457 0.0
C839 C 0.12781 0.67833 0.66707 0.0
C840 C 0.12785 0.69934 0.64937 0.0
C841 C 0.11572 0.71848 0.67349 0.0
C842 C 0.11962 0.69311 0.6379 0.0
C843 C 0.11769 0.70076 0.62468 0.0
C844 C 0.12384 0.71486 0.62274 0.0
C845 C 0.13375 0.72011 0.63338 0.0
C846 C 0.13581 0.71231 0.64661 0.0
H847 H 0.10846 0.72301 0.68221 0.0
H848 H 0.1261 0.72469 0.67391 0.0
H849 H 0.11056 0.72053 0.66259 0.0
H850 H 0.11354 0.683 0.63964 0.0
H851 H 0.11026 0.69624 0.61656 0.0
H852 H 0.29979 0.09868 0.63211 0.0
H853 H 0.31773 0.0936 0.65136 0.0
H854 H 0.30698 0.13483 0.67269 0.0
H855 H 0.28887 0.13995 0.65358 0.0
H856 H 0.34137 0.11219 0.65551 0.0
H857 H 0.31008 0.10615 0.70763 0.0
H858 H 0.30175 0.10452 0.68961 0.0
H859 H 0.30572 0.12245 0.69717 0.0
C860 C 0.30099 0.10652 0.64107 0.0
C861 C 0.29298 0.11978 0.64124 0.0
C862 C 0.31125 0.1036 0.65206 0.0
C863 C 0.31364 0.1138 0.66348 0.0
C864 C 0.30514 0.12668 0.66412 0.0
H865 H 0.38126 0.12689 0.72881 0.0
H866 H 0.35965 0.12856 0.71308 0.0
C867 C 0.29483 0.12962 0.65314 0.0
C868 C 0.32615 0.11182 0.6736 0.0
H869 H 0.33576 0.109 0.70995 0.0
C870 C 0.34014 0.11134 0.66741 0.0
C871 C 0.3245 0.11088 0.68911 0.0
C872 C 0.3097 0.11089 0.6963 0.0
C873 C 0.35257 0.11022 0.6763 0.0
C874 C 0.35094 0.10926 0.69182 0.0
C875 C 0.33695 0.10971 0.69804 0.0
C876 C 0.36369 0.10791 0.70172 0.0
C877 C 0.36735 0.11047 0.66904 0.0
C878 C 0.37298 0.09564 0.70068 0.0
C879 C 0.38536 0.09468 0.70957 0.0
C880 C 0.38862 0.10594 0.71976 0.0
C881 C 0.3791 0.11807 0.72102 0.0
C882 C 0.36673 0.11902 0.71208 0.0
H883 H 0.36683 0.11499 0.65763 0.0
H884 H 0.37514 0.1172 0.67556 0.0
H885 H 0.37164 0.09902 0.66837 0.0
H886 H 0.37067 0.08681 0.69293 0.0
H887 H 0.39237 0.08512 0.70842 0.0
H888 H 0.89564 0.30254 0.61805 0.0
H889 H 0.88999 0.31767 0.63943 0.0
H890 H 0.85506 0.28806 0.65114 0.0
H891 H 0.8611 0.27238 0.62993 0.0
H892 H 0.86856 0.33214 0.65455 0.0
H893 H 0.88396 0.27989 0.68363 0.0
H894 H 0.88526 0.28143 0.66384 0.0
H895 H 0.86776 0.27983 0.67258 0.0
C896 C 0.88647 0.29943 0.6249 0.0
C897 C 0.8792 0.28595 0.62263 0.0
C898 C 0.88317 0.30817 0.63711 0.0
C899 C 0.87248 0.30367 0.64722 0.0
C900 C 0.86369 0.29146 0.64373 0.0
H901 H 0.90008 0.32985 0.7362 0.0
H902 H 0.88157 0.32225 0.71821 0.0
C903 C 0.86708 0.28257 0.63152 0.0
C904 C 0.87291 0.31005 0.66231 0.0
H905 H 0.88719 0.30191 0.69618 0.0
C906 C 0.87218 0.32549 0.66383 0.0
C907 C 0.87754 0.30137 0.67452 0.0
C908 C 0.87876 0.28472 0.67365 0.0
C909 C 0.87739 0.33254 0.67659 0.0
C910 C 0.88351 0.32391 0.68803 0.0
C911 C 0.8826 0.30847 0.68729 0.0
C912 C 0.8934 0.33036 0.6992 0.0
C913 C 0.87718 0.3492 0.67731 0.0
C914 C 0.90622 0.33728 0.69445 0.0
C915 C 0.91687 0.3414 0.7046 0.0
C916 C 0.91494 0.33869 0.71977 0.0
C917 C 0.90191 0.33208 0.72459 0.0
C918 C 0.89128 0.32782 0.71436 0.0
H919 H 0.86783 0.35376 0.671 0.0
H920 H 0.87656 0.35317 0.68891 0.0
H921 H 0.88729 0.35358 0.67224 0.0
H922 H 0.90828 0.33897 0.68278 0.0
H923 H 0.92671 0.34655 0.7005 0.0
H924 H 0.70376 0.90318 0.63101 0.0
H925 H 0.68761 0.90349 0.6525 0.0
H926 H 0.70936 0.86503 0.67004 0.0
H927 H 0.72568 0.86475 0.64877 0.0
H928 H 0.66895 0.88095 0.65899 0.0
H929 H 0.70553 0.89104 0.70656 0.0
H930 H 0.71085 0.89475 0.6877 0.0
H931 H 0.71165 0.87622 0.69491 0.0
C932 C 0.7053 0.89495 0.63958 0.0
C933 C 0.71595 0.88388 0.63814 0.0
C934 C 0.69606 0.89516 0.65185 0.0
C935 C 0.69738 0.88437 0.66293 0.0
C936 C 0.70835 0.87364 0.66179 0.0
H937 H 0.63028 0.84771 0.71765 0.0
H938 H 0.64997 0.85266 0.7002 0.0
C939 C 0.7176 0.87344 0.64954 0.0
C940 C 0.68632 0.8833 0.67479 0.0
H941 H 0.68198 0.88099 0.71222 0.0
C942 C 0.67178 0.88114 0.67063 0.0
C943 C 0.69003 0.88365 0.68996 0.0
C944 C 0.70535 0.88669 0.69508 0.0
C945 C 0.6609 0.87881 0.68122 0.0
C946 C 0.66472 0.87839 0.69635 0.0
C947 C 0.67915 0.8811 0.70058 0.0
C948 C 0.6538 0.87499 0.70786 0.0
C949 C 0.6454 0.87678 0.67612 0.0
C950 C 0.64985 0.88572 0.71831 0.0
C951 C 0.63863 0.88291 0.72835 0.0
C952 C 0.63122 0.8693 0.72811 0.0
C953 C 0.63568 0.85835 0.71806 0.0
C954 C 0.64689 0.86117 0.70804 0.0
H955 H 0.64373 0.8811 0.66474 0.0
H956 H 0.64273 0.86481 0.67608 0.0
H957 H 0.63768 0.88245 0.68368 0.0
H958 H 0.65514 0.89642 0.71837 0.0
H959 H 0.6355 0.89156 0.736 0.0
H960 H 0.34902 0.08044 0.26511 0.0
H961 H 0.32779 0.08249 0.2814 0.0
H962 H 0.34535 0.12252 0.30013 0.0
H963 H 0.36654 0.1206 0.28398 0.0
H964 H 0.33638 0.09958 0.32091 0.0
H965 H 0.294 0.11411 0.27937 0.0
H966 H 0.30562 0.09858 0.27533 0.0
H967 H 0.31318 0.11684 0.27597 0.0
C968 C 0.34832 0.08971 0.27265 0.0
C969 C 0.35946 0.10036 0.27327 0.0
C970 C 0.33617 0.09089 0.28187 0.0
C971 C 0.335 0.10272 0.29182 0.0
C972 C 0.34606 0.11335 0.29245 0.0
H973 H 0.26992 0.13946 0.34828 0.0
H974 H 0.28658 0.13353 0.32803 0.0
C975 C 0.35816 0.11223 0.28321 0.0
C976 C 0.32262 0.10376 0.30214 0.0
H977 H 0.28636 0.1117 0.30417 0.0
C978 C 0.32541 0.10211 0.31728 0.0
C979 C 0.3084 0.10717 0.29728 0.0
C980 C 0.30503 0.10939 0.28111 0.0
C981 C 0.31436 0.10398 0.32777 0.0
C982 C 0.30012 0.10741 0.32294 0.0
C983 C 0.29728 0.10893 0.30778 0.0
C984 C 0.28835 0.11035 0.33364 0.0
C985 C 0.31811 0.10275 0.34397 0.0
C986 C 0.28345 0.09913 0.3431 0.0
C987 C 0.27399 0.10247 0.3547 0.0
C988 C 0.26926 0.1171 0.35699 0.0
C989 C 0.27344 0.12811 0.34687 0.0
C990 C 0.28292 0.12475 0.33528 0.0
H991 H 0.33005 0.1029 0.34588 0.0
H992 H 0.3131 0.11194 0.35034 0.0
H993 H 0.31377 0.09219 0.34838 0.0
H994 H 0.28738 0.0879 0.34184 0.0
H995 H 0.27085 0.0937 0.3622 0.0
H996 H 0.90137 0.31402 0.37902 0.0
H997 H 0.88335 0.33017 0.36772 0.0
H998 H 0.85946 0.29217 0.35226 0.0
H999 H 0.87756 0.27581 0.3635 0.0
H1000 H 0.86756 0.31063 0.33027 0.0
H1001 H 0.8416 0.34371 0.37397 0.0
H1002 H 0.8609 0.34305 0.37671 0.0
H1003 H 0.85044 0.32622 0.37767 0.0
C1004 C 0.89215 0.30905 0.37349 0.0
C1005 C 0.89104 0.29361 0.372 0.0
C1006 C 0.8817 0.31832 0.36721 0.0
C1007 C 0.8699 0.31238 0.35936 0.0
C1008 C 0.86837 0.29697 0.35844 0.0
H1009 H 0.84813 0.37041 0.28639 0.0
H1010 H 0.83883 0.35246 0.30434 0.0
C1011 C 0.87879 0.28765 0.3648 0.0
C1012 C 0.86107 0.32229 0.3499 0.0
H1013 H 0.84553 0.35652 0.35025 0.0
C1014 C 0.86223 0.32044 0.33457 0.0
C1015 C 0.85399 0.33495 0.35556 0.0
C1016 C 0.85152 0.337 0.3719 0.0
C1017 C 0.85836 0.33181 0.3248 0.0
C1018 C 0.85276 0.34525 0.33058 0.0
C1019 C 0.8499 0.3463 0.34581 0.0
C1020 C 0.85352 0.35911 0.32181 0.0
C1021 C 0.86194 0.32988 0.3086 0.0
C1022 C 0.86351 0.36994 0.32628 0.0
C1023 C 0.86857 0.38038 0.31622 0.0
C1024 C 0.86386 0.38007 0.30145 0.0
C1025 C 0.8522 0.37074 0.29762 0.0
C1026 C 0.84697 0.36037 0.30783 0.0
H1027 H 0.86763 0.31928 0.30632 0.0
H1028 H 0.85176 0.32998 0.30203 0.0
H1029 H 0.86898 0.33905 0.3047 0.0
H1030 H 0.86857 0.3694 0.33709 0.0
H1031 H 0.87726 0.38771 0.31965 0.0
H1032 H 0.72676 0.90428 0.35493 0.0
H1033 H 0.70884 0.90803 0.33532 0.0
H1034 H 0.71922 0.86525 0.31714 0.0
H1035 H 0.73718 0.8613 0.33674 0.0
H1036 H 0.71417 0.89276 0.29597 0.0
H1037 H 0.67108 0.87919 0.33717 0.0
H1038 H 0.68487 0.89228 0.34252 0.0
H1039 H 0.68973 0.87332 0.33945 0.0
C1040 C 0.72544 0.89576 0.34663 0.0
C1041 C 0.73325 0.8824 0.3475 0.0
C1042 C 0.71521 0.89794 0.33544 0.0
C1043 C 0.7127 0.88686 0.32494 0.0
C1044 C 0.72106 0.8739 0.3252 0.0
H1045 H 0.63862 0.86968 0.26927 0.0
H1046 H 0.66054 0.86803 0.2845 0.0
C1047 C 0.73127 0.87167 0.33642 0.0
C1048 C 0.70037 0.88817 0.31463 0.0
H1049 H 0.66337 0.88579 0.31324 0.0
C1050 C 0.70305 0.89127 0.29969 0.0
C1051 C 0.68595 0.88609 0.31961 0.0
C1052 C 0.68262 0.88245 0.33554 0.0
C1053 C 0.69154 0.89251 0.28957 0.0
C1054 C 0.67713 0.89054 0.2946 0.0
C1055 C 0.67448 0.88732 0.3095 0.0
C1056 C 0.66455 0.89159 0.28456 0.0
C1057 C 0.69476 0.89571 0.27355 0.0
C1058 C 0.65962 0.90541 0.27967 0.0
C1059 C 0.64702 0.90643 0.27109 0.0
C1060 C 0.63923 0.89361 0.26727 0.0
C1061 C 0.64438 0.87976 0.27202 0.0
C1062 C 0.6569 0.87878 0.28069 0.0
H1063 H 0.7066 0.89522 0.27109 0.0
H1064 H 0.689 0.88768 0.26635 0.0
H1065 H 0.69071 0.90693 0.27072 0.0
H1066 H 0.66536 0.91542 0.28272 0.0
H1067 H 0.64334 0.91725 0.26756 0.0
H1068 H 0.12251 0.62992 0.26973 0.0
H1069 H 0.11664 0.65125 0.28524 0.0
H1070 H 0.13817 0.63052 0.32221 0.0
H1071 H 0.1444 0.60936 0.30671 0.0
H1072 H 0.09962 0.6505 0.30904 0.0
H1073 H 0.15354 0.67219 0.32534 0.0
H1074 H 0.15122 0.65921 0.31035 0.0
H1075 H 0.15176 0.65281 0.32919 0.0
C1076 C 0.12619 0.63 0.2811 0.0
C1077 C 0.13388 0.61793 0.287 0.0
C1078 C 0.12285 0.64221 0.28994 0.0
C1079 C 0.12714 0.64258 0.30482 0.0
C1080 C 0.13507 0.63067 0.31066 0.0
H1081 H 0.08244 0.68562 0.37568 0.0
H1082 H 0.09443 0.66862 0.35867 0.0
C1083 C 0.13851 0.61851 0.3018 0.0
C1084 C 0.12203 0.65465 0.31462 0.0
H1085 H 0.13321 0.67997 0.34023 0.0
C1086 C 0.107 0.65705 0.31572 0.0
C1087 C 0.13166 0.66331 0.32322 0.0
C1088 C 0.14795 0.66186 0.32187 0.0
C1089 C 0.10128 0.66752 0.32554 0.0
C1090 C 0.11085 0.67555 0.33477 0.0
C1091 C 0.12592 0.6736 0.3333 0.0
C1092 C 0.10523 0.68579 0.34615 0.0
C1093 C 0.08502 0.66985 0.32597 0.0
C1094 C 0.10796 0.70102 0.3452 0.0
C1095 C 0.10119 0.71081 0.35501 0.0
C1096 C 0.09158 0.70548 0.36589 0.0
C1097 C 0.08959 0.69012 0.36731 0.0
C1098 C 0.09641 0.68038 0.35758 0.0
H1099 H 0.07972 0.66596 0.31564 0.0
H1100 H 0.08037 0.66347 0.33532 0.0
H1101 H 0.08231 0.6817 0.32762 0.0
H1102 H 0.11483 0.70537 0.3365 0.0
H1103 H 0.10299 0.72257 0.35365 0.0
H1104 H 0.36902 0.87078 0.69381 0.0
H1105 H 0.35272 0.87399 0.67274 0.0
H1106 H 0.32697 0.90494 0.69789 0.0
H1107 H 0.34343 0.90208 0.71894 0.0
H1108 H 0.32315 0.87025 0.66828 0.0
H1109 H 0.33926 0.92901 0.66194 0.0
H1110 H 0.34887 0.91639 0.6739 0.0
H1111 H 0.33215 0.9248 0.67993 0.0
C1112 C 0.35983 0.87819 0.69492 0.0
C1113 C 0.35763 0.88636 0.70797 0.0
C1114 C 0.35051 0.87998 0.68286 0.0
C1115 C 0.33883 0.88991 0.68367 0.0
C1116 C 0.33613 0.89746 0.69695 0.0
H1117 H 0.26619 0.90388 0.62586 0.0
H1118 H 0.28315 0.89327 0.64364 0.0
C1119 C 0.34551 0.89578 0.70898 0.0
C1120 C 0.32993 0.89295 0.67038 0.0
H1121 H 0.31932 0.92085 0.64747 0.0
C1122 C 0.32235 0.88128 0.66364 0.0
C1123 C 0.32921 0.90728 0.66417 0.0
C1124 C 0.33792 0.92006 0.67025 0.0
C1125 C 0.31368 0.88369 0.65108 0.0
C1126 C 0.31238 0.89818 0.64534 0.0
C1127 C 0.32028 0.90974 0.65188 0.0
C1128 C 0.30243 0.90198 0.63301 0.0
C1129 C 0.30613 0.87066 0.64404 0.0
C1130 C 0.30761 0.91023 0.62095 0.0
C1131 C 0.2979 0.91658 0.61093 0.0
C1132 C 0.28283 0.91471 0.61272 0.0
C1133 C 0.27774 0.90548 0.62412 0.0
C1134 C 0.28745 0.89931 0.63427 0.0
H1135 H 0.31199 0.86017 0.64638 0.0
H1136 H 0.29501 0.86965 0.64871 0.0
H1137 H 0.30521 0.87205 0.63188 0.0
H1138 H 0.31914 0.91241 0.61975 0.0
H1139 H 0.30217 0.92354 0.6022 0.0
H1140 H 0.12927 0.39825 0.69606 0.0
H1141 H 0.12608 0.37302 0.68693 0.0
H1142 H 0.08122 0.38252 0.67676 0.0
H1143 H 0.0843 0.40781 0.68575 0.0
H1144 H 0.10643 0.35269 0.69882 0.0
H1145 H 0.09575 0.3618 0.63923 0.0
H1146 H 0.10395 0.3757 0.65089 0.0
H1147 H 0.08457 0.37296 0.65108 0.0
C1148 C 0.11878 0.39507 0.69166 0.0
C1149 C 0.10702 0.40505 0.69164 0.0
C1150 C 0.11699 0.38063 0.68646 0.0
C1151 C 0.10347 0.37596 0.68104 0.0
C1152 C 0.09182 0.386 0.68064 0.0
H1153 H 0.05761 0.29798 0.65823 0.0
H1154 H 0.0668 0.32259 0.66383 0.0
C1155 C 0.09359 0.40043 0.68585 0.0
C1156 C 0.10116 0.3603 0.67691 0.0
H1157 H 0.08908 0.33813 0.649 0.0
C1158 C 0.10285 0.34944 0.68787 0.0
C1159 C 0.09653 0.35614 0.66261 0.0
C1160 C 0.09522 0.36724 0.65023 0.0
C1161 C 0.09931 0.3346 0.68511 0.0
C1162 C 0.09417 0.33053 0.67096 0.0
C1163 C 0.09298 0.34131 0.65985 0.0
C1164 C 0.0889 0.31541 0.66775 0.0
C1165 C 0.10043 0.32352 0.69754 0.0
C1166 C 0.09832 0.30319 0.66812 0.0
C1167 C 0.09309 0.289 0.66496 0.0
C1168 C 0.07835 0.28685 0.66132 0.0
C1169 C 0.06901 0.29918 0.66099 0.0
C1170 C 0.07424 0.31329 0.66415 0.0
H1171 H 0.10195 0.32897 0.70844 0.0
H1172 H 0.09053 0.31652 0.69804 0.0
H1173 H 0.10989 0.31617 0.69555 0.0
H1174 H 0.10974 0.30465 0.67068 0.0
H1175 H 0.1006 0.27977 0.66522 0.0
H1176 H 0.67754 0.08483 0.6076 0.0
H1177 H 0.66203 0.09644 0.62586 0.0
H1178 H 0.69364 0.13115 0.63193 0.0
H1179 H 0.70955 0.11928 0.61386 0.0
H1180 H 0.68985 0.11692 0.65634 0.0
H1181 H 0.63518 0.12934 0.63576 0.0
H1182 H 0.64001 0.11131 0.62925 0.0
H1183 H 0.65047 0.12717 0.62338 0.0
C1184 C 0.68103 0.09521 0.61239 0.0
C1185 C 0.69499 0.10087 0.60956 0.0
C1186 C 0.672 0.102 0.62276 0.0
C1187 C 0.67662 0.11472 0.63033 0.0
C1188 C 0.68984 0.12135 0.62625 0.0
H1189 H 0.64791 0.11343 0.72317 0.0
H1190 H 0.65525 0.12686 0.70083 0.0
C1191 C 0.69895 0.1145 0.61593 0.0
C1192 C 0.66954 0.11857 0.64456 0.0
H1193 H 0.63615 0.11786 0.66097 0.0
C1194 C 0.67813 0.11776 0.65738 0.0
C1195 C 0.65427 0.11982 0.64599 0.0
C1196 C 0.64452 0.12212 0.6328 0.0
C1197 C 0.67181 0.11614 0.67138 0.0
C1198 C 0.65649 0.11554 0.67257 0.0
C1199 C 0.64791 0.11812 0.65999 0.0
C1200 C 0.64952 0.10915 0.68585 0.0
C1201 C 0.6816 0.11351 0.68453 0.0
C1202 C 0.64328 0.09505 0.68474 0.0
C1203 C 0.63908 0.08738 0.69739 0.0
C1204 C 0.64104 0.09365 0.71146 0.0
C1205 C 0.64643 0.1082 0.71251 0.0
C1206 C 0.65062 0.1159 0.69977 0.0
H1207 H 0.69328 0.11303 0.6814 0.0
H1208 H 0.68018 0.1226 0.69264 0.0
H1209 H 0.67867 0.10297 0.69008 0.0
H1210 H 0.64236 0.08963 0.67409 0.0
H1211 H 0.6348 0.0763 0.69612 0.0
H1212 H 0.89527 0.71405 0.65686 0.0
H1213 H 0.88501 0.69102 0.66673 0.0
H1214 H 0.92051 0.66638 0.64765 0.0
H1215 H 0.9309 0.68913 0.63792 0.0
H1216 H 0.87689 0.66371 0.6518 0.0
H1217 H 0.92169 0.65613 0.69221 0.0
H1218 H 0.91829 0.67353 0.68304 0.0
H1219 H 0.92777 0.65895 0.67355 0.0
C1220 C 0.90088 0.70372 0.65474 0.0
C1221 C 0.91401 0.70348 0.64675 0.0
C1222 C 0.89497 0.69059 0.66035 0.0
C1223 C 0.90214 0.67708 0.65808 0.0
C1224 C 0.91496 0.67675 0.64973 0.0
H1225 H 0.87749 0.58559 0.66937 0.0
H1226 H 0.88216 0.61041 0.65955 0.0
C1227 C 0.92087 0.6898 0.64417 0.0
C1228 C 0.89656 0.66326 0.66471 0.0
H1229 H 0.90609 0.63554 0.68836 0.0
C1230 C 0.88318 0.65758 0.65989 0.0
C1231 C 0.90474 0.65542 0.67537 0.0
C1232 C 0.91886 0.66136 0.68147 0.0
C1233 C 0.87796 0.64395 0.66516 0.0
C1234 C 0.88647 0.63582 0.67534 0.0
C1235 C 0.89964 0.64174 0.68045 0.0
C1236 C 0.88205 0.62112 0.68095 0.0
C1237 C 0.8634 0.63842 0.65988 0.0
C1238 C 0.8805 0.61894 0.69621 0.0
C1239 C 0.87798 0.60482 0.70184 0.0
C1240 C 0.87702 0.59255 0.69232 0.0
C1241 C 0.87815 0.59481 0.67698 0.0
C1242 C 0.88072 0.60899 0.67135 0.0
H1243 H 0.85665 0.6475 0.65524 0.0
H1244 H 0.86511 0.63008 0.65105 0.0
H1245 H 0.8573 0.63305 0.66902 0.0
H1246 H 0.88154 0.62814 0.7038 0.0
H1247 H 0.87709 0.6035 0.7137 0.0
H1248 H 0.26514 0.34407 0.1194 0.0
H1249 H 0.28562 0.33104 0.13091 0.0
H1250 H 0.31454 0.34865 0.09777 0.0
H1251 H 0.29428 0.36166 0.08624 0.0
H1252 H 0.30218 0.30964 0.11513 0.0
H1253 H 0.33728 0.35451 0.13658 0.0
H1254 H 0.3182 0.35715 0.13258 0.0
H1255 H 0.3314 0.35753 0.1179 0.0
C1256 C 0.27592 0.34542 0.11476 0.0
C1257 C 0.27808 0.35382 0.10185 0.0
C1258 C 0.28759 0.33796 0.12134 0.0
C1259 C 0.30159 0.33902 0.11527 0.0
C1260 C 0.30386 0.3479 0.10278 0.0
H1261 H 0.38444 0.29864 0.11248 0.0
H1262 H 0.36249 0.31376 0.11078 0.0
C1263 C 0.29223 0.35524 0.09614 0.0
C1264 C 0.31358 0.32963 0.12079 0.0
H1265 H 0.34888 0.33104 0.13231 0.0
C1266 C 0.31231 0.31425 0.11919 0.0
C1267 C 0.32676 0.33574 0.12601 0.0
C1268 C 0.32848 0.35214 0.12851 0.0
C1269 C 0.32418 0.30486 0.1218 0.0
C1270 C 0.33757 0.31103 0.12642 0.0
C1271 C 0.33862 0.32636 0.12869 0.0
C1272 C 0.35088 0.30194 0.1279 0.0
C1273 C 0.32254 0.28852 0.11877 0.0
C1274 C 0.35165 0.29034 0.13818 0.0
C1275 C 0.36416 0.28158 0.1391 0.0
C1276 C 0.37615 0.28439 0.12985 0.0
C1277 C 0.3754 0.29617 0.11974 0.0
C1278 C 0.36288 0.30485 0.11878 0.0
H1279 H 0.31254 0.28605 0.11233 0.0
H1280 H 0.33208 0.28422 0.11258 0.0
H1281 H 0.32186 0.28248 0.12942 0.0
H1282 H 0.3426 0.28808 0.14549 0.0
H1283 H 0.36445 0.27267 0.14709 0.0
H1284 H 0.35088 0.72256 0.88307 0.0
H1285 H 0.32953 0.70636 0.88399 0.0
H1286 H 0.35478 0.67081 0.86522 0.0
H1287 H 0.37614 0.68679 0.86438 0.0
H1288 H 0.31584 0.6921 0.86028 0.0
H1289 H 0.33588 0.65154 0.90144 0.0
H1290 H 0.34425 0.66942 0.89881 0.0
H1291 H 0.34834 0.65441 0.88643 0.0
C1292 C 0.35191 0.71125 0.87925 0.0
C1293 C 0.36523 0.70595 0.87369 0.0
C1294 C 0.3397 0.70203 0.87977 0.0
C1295 C 0.34064 0.68733 0.87488 0.0
C1296 C 0.35391 0.68202 0.86934 0.0
H1297 H 0.27791 0.62588 0.84231 0.0
H1298 H 0.29576 0.64549 0.84609 0.0
C1299 C 0.36609 0.69122 0.86879 0.0
C1300 C 0.32766 0.67765 0.87492 0.0
H1301 H 0.31538 0.64412 0.88689 0.0
C1302 C 0.31564 0.68169 0.86624 0.0
C1303 C 0.32735 0.66419 0.88287 0.0
C1304 C 0.33958 0.65968 0.89303 0.0
C1305 C 0.30359 0.67228 0.86477 0.0
C1306 C 0.30367 0.65841 0.87201 0.0
C1307 C 0.3154 0.65469 0.88122 0.0
C1308 C 0.29208 0.64729 0.86965 0.0
C1309 C 0.29091 0.67725 0.85542 0.0
C1310 C 0.28419 0.64165 0.88167 0.0
C1311 C 0.27402 0.63035 0.87957 0.0
C1312 C 0.27165 0.6244 0.8654 0.0
C1313 C 0.27942 0.63024 0.85335 0.0
C1314 C 0.28957 0.64153 0.85547 0.0
H1315 H 0.29051 0.68949 0.85444 0.0
H1316 H 0.2921 0.67262 0.84412 0.0
H1317 H 0.28043 0.6733 0.86008 0.0
H1318 H 0.28603 0.64588 0.89272 0.0
H1319 H 0.26824 0.62609 0.88909 0.0
H1320 H 0.27288 0.33757 0.87052 0.0
H1321 H 0.29652 0.32617 0.86541 0.0
H1322 H 0.31801 0.36687 0.87728 0.0
H1323 H 0.29443 0.37797 0.88331 0.0
H1324 H 0.32348 0.3298 0.85081 0.0
H1325 H 0.32728 0.33939 0.91151 0.0
H1326 H 0.31088 0.34295 0.90127 0.0
H1327 H 0.32575 0.35587 0.9006 0.0
C1328 C 0.28264 0.34421 0.87152 0.0
C1329 C 0.28199 0.35848 0.87757 0.0
C1330 C 0.29612 0.33772 0.86855 0.0
C1331 C 0.309 0.34557 0.87137 0.0
C1332 C 0.30818 0.36055 0.87536 0.0
H1333 H 0.38597 0.30417 0.90575 0.0
H1334 H 0.37286 0.32251 0.89109 0.0
C1335 C 0.29476 0.36687 0.87878 0.0
C1336 C 0.32273 0.33731 0.8734 0.0
H1337 H 0.34571 0.32578 0.90058 0.0
C1338 C 0.32853 0.32908 0.86161 0.0
C1339 C 0.32916 0.33623 0.88759 0.0
C1340 C 0.32291 0.34395 0.90101 0.0
C1341 C 0.34049 0.31959 0.86374 0.0
C1342 C 0.34663 0.3183 0.87801 0.0
C1343 C 0.34114 0.32696 0.88959 0.0
C1344 C 0.35745 0.30687 0.88203 0.0
C1345 C 0.34626 0.31085 0.85082 0.0
C1346 C 0.35367 0.29185 0.88109 0.0
C1347 C 0.36127 0.2813 0.88935 0.0
C1348 C 0.37251 0.28574 0.89887 0.0
C1349 C 0.37718 0.30052 0.89866 0.0
C1350 C 0.36978 0.31098 0.8902 0.0
H1351 H 0.34407 0.31662 0.8402 0.0
H1352 H 0.35814 0.30889 0.85185 0.0
H1353 H 0.3407 0.29997 0.85043 0.0
H1354 H 0.34404 0.28844 0.87511 0.0
H1355 H 0.35748 0.26996 0.88932 0.0
H1356 H 0.6374 0.28943 0.83916 0.0
H1357 H 0.65876 0.30549 0.83988 0.0
H1358 H 0.65209 0.31276 0.8865 0.0
H1359 H 0.63076 0.29658 0.88593 0.0
H1360 H 0.65885 0.33537 0.8482 0.0
H1361 H 0.69555 0.3022 0.884 0.0
H1362 H 0.67972 0.29441 0.87513 0.0
H1363 H 0.67774 0.30548 0.89149 0.0
C1364 C 0.64053 0.29432 0.84961 0.0
C1365 C 0.63236 0.29171 0.86249 0.0
C1366 C 0.65275 0.30351 0.84999 0.0
C1367 C 0.65711 0.31018 0.86327 0.0
C1368 C 0.64908 0.3075 0.87619 0.0
H1369 H 0.72306 0.3754 0.88531 0.0
H1370 H 0.70377 0.35674 0.88592 0.0
C1371 C 0.63684 0.29832 0.87582 0.0
C1372 C 0.66956 0.3206 0.86336 0.0
H1373 H 0.7033 0.32651 0.87802 0.0
C1374 C 0.66861 0.33341 0.85466 0.0
C1375 C 0.68221 0.31804 0.87188 0.0
C1376 C 0.68399 0.30423 0.88107 0.0
C1377 C 0.6799 0.34383 0.85436 0.0
C1378 C 0.69262 0.34122 0.86276 0.0
C1379 C 0.69355 0.32845 0.87155 0.0
C1380 C 0.70503 0.3517 0.86258 0.0
C1381 C 0.67796 0.35771 0.8453 0.0
C1382 C 0.71241 0.35473 0.84934 0.0
C1383 C 0.7234 0.3654 0.84894 0.0
C1384 C 0.72729 0.37318 0.86181 0.0
C1385 C 0.72029 0.36966 0.87519 0.0
C1386 C 0.70927 0.359 0.87557 0.0
H1387 H 0.66633 0.35983 0.84271 0.0
H1388 H 0.68241 0.3675 0.85117 0.0
H1389 H 0.68389 0.35649 0.83469 0.0
H1390 H 0.70951 0.34899 0.83925 0.0
H1391 H 0.72864 0.36774 0.83848 0.0
H1392 H 0.71208 0.65629 0.87694 0.0
H1393 H 0.68705 0.66491 0.8736 0.0
H1394 H 0.67101 0.62341 0.89059 0.0
H1395 H 0.69606 0.61519 0.89489 0.0
H1396 H 0.66019 0.65785 0.86177 0.0
H1397 H 0.66043 0.65184 0.92307 0.0
H1398 H 0.67652 0.64907 0.91212 0.0
H1399 H 0.66279 0.63491 0.91307 0.0
C1400 C 0.70319 0.64887 0.87953 0.0
C1401 C 0.70586 0.63525 0.88644 0.0
C1402 C 0.6889 0.65376 0.87757 0.0
C1403 C 0.6772 0.64496 0.88228 0.0
C1404 C 0.67991 0.63052 0.88728 0.0
H1405 H 0.59953 0.68407 0.9187 0.0
H1406 H 0.6126 0.66518 0.90472 0.0
C1407 C 0.69418 0.62582 0.88969 0.0
C1408 C 0.66283 0.65192 0.88469 0.0
H1409 H 0.64051 0.66336 0.91251 0.0
C1410 C 0.65571 0.65885 0.87282 0.0
C1411 C 0.65707 0.65333 0.89916 0.0
C1412 C 0.66462 0.64702 0.91261 0.0
C1413 C 0.64324 0.66757 0.87512 0.0
C1414 C 0.63787 0.66938 0.88965 0.0
C1415 C 0.64454 0.6618 0.90134 0.0
C1416 C 0.62689 0.68065 0.89367 0.0
C1417 C 0.63616 0.67505 0.86208 0.0
C1418 C 0.63007 0.69568 0.89149 0.0
C1419 C 0.62258 0.70652 0.89944 0.0
C1420 C 0.61197 0.70245 0.90987 0.0
C1421 C 0.60783 0.68752 0.91093 0.0
C1422 C 0.6152 0.67672 0.90285 0.0
H1423 H 0.63793 0.66862 0.85177 0.0
H1424 H 0.62429 0.6765 0.86384 0.0
H1425 H 0.64112 0.68612 0.86051 0.0
H1426 H 0.63922 0.69898 0.88472 0.0
H1427 H 0.62598 0.71794 0.89833 0.0
H1428 H 0.63442 0.72765 0.15011 0.0
H1429 H 0.65824 0.71657 0.14534 0.0
H1430 H 0.63751 0.67883 0.12525 0.0
H1431 H 0.61363 0.68969 0.13015 0.0
H1432 H 0.66127 0.6716 0.14424 0.0
H1433 H 0.67516 0.71526 0.10321 0.0
H1434 H 0.67023 0.72171 0.12132 0.0
H1435 H 0.6569 0.71261 0.11002 0.0
C1436 C 0.63491 0.71695 0.14475 0.0
C1437 C 0.62213 0.70961 0.14036 0.0
C1438 C 0.64853 0.71066 0.14203 0.0
C1439 C 0.64961 0.69699 0.13479 0.0
C1440 C 0.63688 0.68941 0.13084 0.0
H1441 H 0.71247 0.6577 0.07988 0.0
H1442 H 0.69188 0.66889 0.09246 0.0
C1443 C 0.62325 0.69567 0.13359 0.0
C1444 C 0.66395 0.69089 0.13056 0.0
H1445 H 0.69254 0.69665 0.10723 0.0
C1446 C 0.66822 0.67712 0.13627 0.0
C1447 C 0.67288 0.69812 0.12009 0.0
C1448 C 0.66857 0.71269 0.11318 0.0
C1449 C 0.68107 0.67019 0.13149 0.0
C1450 C 0.68985 0.67733 0.12085 0.0
C1451 C 0.68579 0.69129 0.11548 0.0
C1452 C 0.70238 0.66988 0.11381 0.0
C1453 C 0.68484 0.65504 0.13732 0.0
C1454 C 0.71513 0.66664 0.12172 0.0
C1455 C 0.72705 0.66017 0.11453 0.0
C1456 C 0.72637 0.65694 0.09932 0.0
C1457 C 0.71346 0.66008 0.09157 0.0
C1458 C 0.70164 0.66649 0.09873 0.0
H1459 H 0.67589 0.6502 0.144 0.0
H1460 H 0.68738 0.64742 0.12804 0.0
H1461 H 0.69467 0.65581 0.14439 0.0
H1462 H 0.71594 0.66935 0.13335 0.0
H1463 H 0.73683 0.65791 0.12081 0.0
H1464 H 0.34983 0.71565 0.07881 0.0
H1465 H 0.3303 0.69737 0.07782 0.0
H1466 H 0.31293 0.71413 0.11882 0.0
H1467 H 0.3325 0.73237 0.12 0.0
H1468 H 0.31829 0.68377 0.11883 0.0
H1469 H 0.28653 0.70019 0.06931 0.0
H1470 H 0.30577 0.69867 0.0662 0.0
H1471 H 0.29893 0.71262 0.07853 0.0
C1472 C 0.34172 0.71563 0.08749 0.0
C1473 C 0.34277 0.7254 0.09954 0.0
C1474 C 0.33051 0.70523 0.08685 0.0
C1475 C 0.32011 0.70451 0.09817 0.0
C1476 C 0.32083 0.71458 0.10994 0.0
H1477 H 0.25431 0.63939 0.12113 0.0
H1478 H 0.26967 0.6614 0.11999 0.0
C1479 C 0.33203 0.72498 0.11059 0.0
C1480 C 0.30941 0.69231 0.09853 0.0
H1481 H 0.28165 0.67628 0.07929 0.0
C1482 C 0.31018 0.68221 0.11027 0.0
C1483 C 0.29895 0.69027 0.08727 0.0
C1484 C 0.29737 0.70108 0.07467 0.0
C1485 C 0.30096 0.66989 0.11091 0.0
C1486 C 0.29052 0.6678 0.09963 0.0
C1487 C 0.28968 0.67795 0.08791 0.0
C1488 C 0.28054 0.65499 0.09976 0.0
C1489 C 0.30278 0.65899 0.12342 0.0
C1490 C 0.28125 0.64436 0.08849 0.0
C1491 C 0.27243 0.63179 0.08906 0.0
C1492 C 0.26274 0.62969 0.10091 0.0
C1493 C 0.26177 0.6406 0.11194 0.0
C1494 C 0.27056 0.65316 0.11134 0.0
H1495 H 0.31346 0.66024 0.12901 0.0
H1496 H 0.29413 0.66091 0.13176 0.0
H1497 H 0.30177 0.64744 0.11938 0.0
H1498 H 0.28886 0.64564 0.07944 0.0
H1499 H 0.27338 0.62363 0.08035 0.0
H1500 H 0.71493 0.38546 0.07945 0.0
H1501 H 0.70175 0.36195 0.07921 0.0
H1502 H 0.71563 0.35329 0.12391 0.0
H1503 H 0.72865 0.37684 0.12437 0.0
H1504 H 0.71194 0.33287 0.0838 0.0
H1505 H 0.6713 0.34939 0.12618 0.0
H1506 H 0.68294 0.3626 0.11704 0.0
H1507 H 0.68991 0.35139 0.13185 0.0
C1508 C 0.71516 0.37857 0.08925 0.0
C1509 C 0.72272 0.38308 0.10198 0.0
C1510 C 0.70766 0.36513 0.08906 0.0
C1511 C 0.70756 0.35601 0.1016 0.0
C1512 C 0.71535 0.36032 0.11422 0.0
H1513 H 0.66149 0.27474 0.12216 0.0
H1514 H 0.67901 0.29506 0.12207 0.0
C1515 C 0.72281 0.37377 0.11443 0.0
C1516 C 0.69918 0.34206 0.10153 0.0
H1517 H 0.67064 0.32456 0.1181 0.0
C1518 C 0.70291 0.33102 0.09129 0.0
C1519 C 0.68741 0.33972 0.11133 0.0
C1520 C 0.68253 0.35143 0.12214 0.0
C1521 C 0.69522 0.31763 0.09065 0.0
C1522 C 0.6834 0.31536 0.10039 0.0
C1523 C 0.67977 0.32633 0.11071 0.0
C1524 C 0.67419 0.30197 0.09971 0.0
C1525 C 0.69987 0.30598 0.07969 0.0
C1526 C 0.66582 0.29903 0.08709 0.0
C1527 C 0.65579 0.28744 0.0871 0.0
C1528 C 0.65388 0.27865 0.09978 0.0
C1529 C 0.66267 0.2813 0.11222 0.0
C1530 C 0.67268 0.29291 0.1122 0.0
H1531 H 0.71125 0.30769 0.07595 0.0
H1532 H 0.69891 0.29473 0.08453 0.0
H1533 H 0.6927 0.30654 0.06984 0.0
H1534 H 0.66663 0.30607 0.07743 0.0
H1535 H 0.64918 0.2857 0.07734 0.0
H1536 H 0.59186 0.86298 0.82035 0.0
H1537 H 0.6027 0.84706 0.839 0.0
H1538 H 0.63059 0.82755 0.80598 0.0
H1539 H 0.61963 0.84348 0.78704 0.0
H1540 H 0.61457 0.80705 0.82157 0.0
H1541 H 0.64146 0.84521 0.86054 0.0
H1542 H 0.62335 0.85127 0.85635 0.0
H1543 H 0.63679 0.85054 0.84188 0.0
C1544 C 0.60049 0.85551 0.81705 0.0
C1545 C 0.6048 0.85441 0.80218 0.0
C1546 C 0.6068 0.84652 0.82779 0.0
C1547 C 0.61759 0.83626 0.82392 0.0
C1548 C 0.62237 0.83551 0.8092 0.0
H1549 H 0.64403 0.77834 0.89756 0.0
H1550 H 0.64638 0.7943 0.87579 0.0
C1551 C 0.61611 0.84462 0.79841 0.0
C1552 C 0.62226 0.82515 0.83496 0.0
H1553 H 0.6328 0.82198 0.87097 0.0
C1554 C 0.61891 0.81025 0.83225 0.0
C1555 C 0.62809 0.82929 0.84881 0.0
C1556 C 0.63277 0.84494 0.85201 0.0
C1557 C 0.62013 0.7996 0.84344 0.0
C1558 C 0.62463 0.80403 0.8577 0.0
C1559 C 0.62912 0.81866 0.86008 0.0
C1560 C 0.62343 0.79401 0.87056 0.0
C1561 C 0.61612 0.78379 0.84003 0.0
C1562 C 0.60972 0.78877 0.87491 0.0
C1563 C 0.60832 0.77974 0.88733 0.0
C1564 C 0.62062 0.77581 0.89569 0.0
C1565 C 0.63435 0.78113 0.89133 0.0
C1566 C 0.63573 0.79023 0.87891 0.0
H1567 H 0.61734 0.78132 0.82806 0.0
H1568 H 0.62294 0.77592 0.84643 0.0
H1569 H 0.60457 0.78192 0.84307 0.0
H1570 H 0.60005 0.79183 0.86878 0.0
H1571 H 0.59759 0.77588 0.8904 0.0
H1572 H 0.21032 0.61882 0.84968 0.0
H1573 H 0.19035 0.63271 0.83818 0.0
H1574 H 0.15923 0.60436 0.85985 0.0
H1575 H 0.17894 0.59062 0.87139 0.0
H1576 H 0.1711 0.61924 0.81898 0.0
H1577 H 0.14063 0.64476 0.86501 0.0
H1578 H 0.15918 0.63841 0.86697 0.0
H1579 H 0.14427 0.62558 0.86848 0.0
C1580 C 0.19921 0.61584 0.85231 0.0
C1581 C 0.1962 0.60356 0.86135 0.0
C1582 C 0.18783 0.62375 0.84571 0.0
C1583 C 0.17331 0.61966 0.84828 0.0
C1584 C 0.17032 0.60792 0.85794 0.0
H1585 H 0.08899 0.61903 0.81225 0.0
H1586 H 0.11158 0.61724 0.82638 0.0
C1587 C 0.18163 0.59998 0.86443 0.0
C1588 C 0.1613 0.62611 0.83948 0.0
H1589 H 0.12679 0.63966 0.84274 0.0
C1590 C 0.16154 0.62406 0.82411 0.0
C1591 C 0.14884 0.63234 0.84622 0.0
C1592 C 0.14826 0.63554 0.86257 0.0
C1593 C 0.14926 0.62712 0.81541 0.0
C1594 C 0.13652 0.63256 0.82228 0.0
C1595 C 0.13655 0.63537 0.83754 0.0
C1596 C 0.12274 0.63429 0.81402 0.0
C1597 C 0.14973 0.62365 0.79909 0.0
C1598 C 0.12151 0.64459 0.8025 0.0
C1599 C 0.10862 0.6456 0.79435 0.0
C1600 C 0.09673 0.63637 0.79764 0.0
C1601 C 0.09794 0.62626 0.80938 0.0
C1602 C 0.11082 0.62526 0.81751 0.0
H1603 H 0.15948 0.61706 0.79604 0.0
H1604 H 0.13986 0.61744 0.79571 0.0
H1605 H 0.14999 0.63413 0.79273 0.0
H1606 H 0.13052 0.6518 0.79977 0.0
H1607 H 0.10802 0.65358 0.78544 0.0
H1608 H 0.41652 0.11902 0.81755 0.0
H1609 H 0.4046 0.13572 0.83481 0.0
H1610 H 0.38041 0.15533 0.79897 0.0
H1611 H 0.39249 0.13874 0.78146 0.0
H1612 H 0.39516 0.17573 0.8152 0.0
H1613 H 0.36438 0.13914 0.85279 0.0
H1614 H 0.38285 0.13307 0.8507 0.0
H1615 H 0.37087 0.13305 0.83494 0.0
C1616 C 0.40846 0.12666 0.81332 0.0
C1617 C 0.40557 0.12761 0.79808 0.0
C1618 C 0.40154 0.13614 0.82326 0.0
C1619 C 0.3915 0.14667 0.81821 0.0
C1620 C 0.38807 0.14721 0.8031 0.0
H1621 H 0.35392 0.20729 0.88389 0.0
H1622 H 0.3559 0.18976 0.86336 0.0
C1623 C 0.39498 0.1377 0.79312 0.0
C1624 C 0.38611 0.1582 0.82846 0.0
H1625 H 0.3712 0.16306 0.86267 0.0
C1626 C 0.38966 0.173 0.82545 0.0
C1627 C 0.37879 0.15466 0.84175 0.0
C1628 C 0.37387 0.13912 0.84516 0.0
C1629 C 0.38688 0.18421 0.83577 0.0
C1630 C 0.38061 0.18048 0.84954 0.0
C1631 C 0.37622 0.16585 0.85219 0.0
C1632 C 0.37931 0.19141 0.86164 0.0
C1633 C 0.39093 0.19992 0.83194 0.0
C1634 C 0.39184 0.19801 0.86754 0.0
C1635 C 0.39076 0.20801 0.87925 0.0
C1636 C 0.37712 0.21152 0.88534 0.0
C1637 C 0.36458 0.20486 0.87942 0.0
C1638 C 0.36568 0.19483 0.86771 0.0
H1639 H 0.39138 0.20161 0.81979 0.0
H1640 H 0.38306 0.20791 0.83675 0.0
H1641 H 0.40187 0.20239 0.83649 0.0
H1642 H 0.40249 0.19528 0.86321 0.0
H1643 H 0.40063 0.21289 0.88359 0.0
H1644 H 0.91057 0.3819 0.81041 0.0
H1645 H 0.88787 0.38536 0.82403 0.0
H1646 H 0.86751 0.35125 0.79797 0.0
H1647 H 0.89023 0.34758 0.78434 0.0
H1648 H 0.86107 0.39348 0.81113 0.0
H1649 H 0.85701 0.3398 0.84097 0.0
H1650 H 0.87383 0.34633 0.83299 0.0
H1651 H 0.8599 0.33878 0.82133 0.0
C1652 C 0.90132 0.37504 0.80763 0.0
C1653 C 0.90222 0.36447 0.79628 0.0
C1654 C 0.88836 0.37703 0.81544 0.0
C1655 C 0.87608 0.36844 0.81212 0.0
C1656 C 0.87694 0.35779 0.80089 0.0
H1657 H 0.7873 0.38298 0.84531 0.0
H1658 H 0.80795 0.37158 0.8323 0.0
C1659 C 0.88991 0.3558 0.79305 0.0
C1660 C 0.86218 0.37136 0.81986 0.0
H1661 H 0.83757 0.35669 0.84412 0.0
C1662 C 0.8559 0.38541 0.81828 0.0
C1663 C 0.85541 0.36075 0.82908 0.0
C1664 C 0.86189 0.34558 0.83134 0.0
C1665 C 0.84318 0.38925 0.82588 0.0
C1666 C 0.83667 0.37883 0.83545 0.0
C1667 C 0.84264 0.36461 0.83674 0.0
C1668 C 0.82432 0.38316 0.84497 0.0
C1669 C 0.83691 0.40455 0.82385 0.0
C1670 C 0.82679 0.39289 0.85673 0.0
C1671 C 0.81512 0.39942 0.86408 0.0
C1672 C 0.80074 0.39628 0.85984 0.0
C1673 C 0.79826 0.38558 0.84883 0.0
C1674 C 0.81002 0.37909 0.84138 0.0
H1675 H 0.84144 0.41017 0.81395 0.0
H1676 H 0.82488 0.40404 0.82279 0.0
H1677 H 0.8395 0.41137 0.8337 0.0
H1678 H 0.83778 0.39607 0.85969 0.0
H1679 H 0.81739 0.40749 0.87263 0.0
H1680 H 0.64184 0.22065 0.11882 0.0
H1681 H 0.64942 0.20051 0.13493 0.0
H1682 H 0.63273 0.16882 0.10357 0.0
H1683 H 0.62446 0.18904 0.08778 0.0
H1684 H 0.61743 0.1692 0.12793 0.0
H1685 H 0.67513 0.16584 0.14432 0.0
H1686 H 0.66862 0.18451 0.14527 0.0
H1687 H 0.66931 0.1752 0.12768 0.0
C1688 C 0.64048 0.20938 0.11499 0.0
C1689 C 0.6323 0.20636 0.10223 0.0
C1690 C 0.64491 0.19781 0.1242 0.0
C1691 C 0.64153 0.18311 0.12055 0.0
C1692 C 0.63539 0.18008 0.10665 0.0
H1693 H 0.6121 0.1175 0.18398 0.0
H1694 H 0.62459 0.12667 0.16192 0.0
C1695 C 0.63065 0.19164 0.09763 0.0
C1696 C 0.64027 0.17195 0.13252 0.0
H1697 H 0.65746 0.15747 0.16274 0.0
C1698 C 0.62631 0.1663 0.13527 0.0
C1699 C 0.65176 0.16842 0.1423 0.0
C1700 C 0.66707 0.17372 0.13965 0.0
C1701 C 0.6233 0.15793 0.14788 0.0
C1702 C 0.63467 0.15472 0.15792 0.0
C1703 C 0.64879 0.15988 0.15497 0.0
C1704 C 0.6315 0.14716 0.17207 0.0
C1705 C 0.60771 0.15346 0.15078 0.0
C1706 C 0.63233 0.15511 0.18538 0.0
C1707 C 0.62548 0.14972 0.1981 0.0
C1708 C 0.61755 0.13647 0.19752 0.0
C1709 C 0.61796 0.12788 0.18459 0.0
C1710 C 0.6251 0.13308 0.17203 0.0
H1711 H 0.59991 0.15957 0.14366 0.0
H1712 H 0.6064 0.14148 0.14844 0.0
H1713 H 0.6047 0.15544 0.1625 0.0
H1714 H 0.63724 0.16599 0.18564 0.0
H1715 H 0.62534 0.1565 0.20797 0.0
H1716 H 0.87431 0.6061 0.22751 0.0
H1717 H 0.85215 0.60705 0.2125 0.0
H1718 H 0.87518 0.63133 0.17881 0.0
H1719 H 0.89737 0.63031 0.19359 0.0
H1720 H 0.83698 0.63179 0.20226 0.0
H1721 H 0.85652 0.59742 0.15565 0.0
H1722 H 0.86566 0.59796 0.17331 0.0
H1723 H 0.86863 0.61237 0.15993 0.0
C1724 C 0.87468 0.61157 0.21686 0.0
C1725 C 0.88763 0.61807 0.21171 0.0
C1726 C 0.862 0.61211 0.20832 0.0
C1727 C 0.86209 0.61905 0.19445 0.0
C1728 C 0.87496 0.62564 0.18935 0.0
H1729 H 0.79795 0.65877 0.14014 0.0
H1730 H 0.81495 0.65213 0.15972 0.0
C1731 C 0.88762 0.62512 0.19786 0.0
C1732 C 0.84868 0.61984 0.18542 0.0
H1733 H 0.83546 0.61234 0.15102 0.0
C1734 C 0.83655 0.62737 0.19112 0.0
C1735 C 0.84803 0.61381 0.17102 0.0
C1736 C 0.86035 0.6048 0.16466 0.0
C1737 C 0.82407 0.62972 0.18248 0.0
C1738 C 0.82385 0.62459 0.16771 0.0
C1739 C 0.83568 0.61639 0.1623 0.0
C1740 C 0.81202 0.6285 0.15727 0.0
C1741 C 0.81132 0.63778 0.18921 0.0
C1742 C 0.80467 0.61743 0.14936 0.0
C1743 C 0.795 0.6212 0.13803 0.0
C1744 C 0.79261 0.63612 0.13434 0.0
C1745 C 0.79951 0.64718 0.14271 0.0
C1746 C 0.80918 0.6434 0.154 0.0
H1747 H 0.81113 0.63648 0.20142 0.0
H1748 H 0.81228 0.64976 0.18674 0.0
H1749 H 0.80085 0.63374 0.18464 0.0
H1750 H 0.80676 0.60586 0.15166 0.0
H1751 H 0.78986 0.61241 0.1318 0.0
H1752 H 0.38366 0.81155 0.10583 0.0
H1753 H 0.37116 0.82778 0.123 0.0
H1754 H 0.3375 0.79512 0.12899 0.0
H1755 H 0.35031 0.77842 0.11211 0.0
H1756 H 0.34446 0.84059 0.12979 0.0
H1757 H 0.35775 0.79449 0.16869 0.0
H1758 H 0.36414 0.79422 0.14988 0.0
H1759 H 0.34526 0.79092 0.15387 0.0
C1760 C 0.37341 0.8079 0.11046 0.0
C1761 C 0.36829 0.79345 0.10804 0.0
C1762 C 0.36618 0.81728 0.12023 0.0
C1763 C 0.35367 0.81246 0.12767 0.0
C1764 C 0.34739 0.79888 0.12368 0.0
H1765 H 0.36044 0.84763 0.21627 0.0
H1766 H 0.34506 0.83806 0.19634 0.0
C1767 C 0.35471 0.78937 0.11397 0.0
C1768 C 0.34937 0.82035 0.14135 0.0
H1769 H 0.3556 0.81798 0.17841 0.0
C1770 C 0.34641 0.83557 0.1405 0.0
C1771 C 0.35167 0.81378 0.15538 0.0
C1772 C 0.35493 0.79748 0.15713 0.0
C1773 C 0.34734 0.84462 0.15308 0.0
C1774 C 0.35153 0.83829 0.16672 0.0
C1775 C 0.35255 0.82286 0.1679 0.0
C1776 C 0.35818 0.84719 0.1787 0.0
C1777 C 0.34476 0.861 0.15142 0.0
C1778 C 0.37047 0.85579 0.17544 0.0
C1779 C 0.3793 0.86117 0.18674 0.0
C1780 C 0.37611 0.85797 0.20159 0.0
C1781 C 0.36325 0.85023 0.20493 0.0
C1782 C 0.3544 0.84481 0.19356 0.0
H1783 H 0.33595 0.86314 0.14329 0.0
H1784 H 0.34181 0.86623 0.16212 0.0
H1785 H 0.35479 0.86632 0.14714 0.0
H1786 H 0.3739 0.85746 0.16411 0.0
H1787 H 0.38903 0.86721 0.18375 0.0
H1788 H 0.20672 0.33662 0.13639 0.0
H1789 H 0.19197 0.33814 0.15883 0.0
H1790 H 0.19771 0.38542 0.15979 0.0
H1791 H 0.21246 0.3841 0.13724 0.0
H1792 H 0.20094 0.36451 0.18942 0.0
H1793 H 0.15007 0.36253 0.15595 0.0
H1794 H 0.16477 0.35023 0.15113 0.0
H1795 H 0.16689 0.36977 0.14859 0.0
C1796 C 0.20501 0.34734 0.14144 0.0
C1797 C 0.21067 0.36026 0.13497 0.0
C1798 C 0.1966 0.34816 0.15426 0.0
C1799 C 0.1938 0.36188 0.16087 0.0
C1800 C 0.19984 0.37474 0.15481 0.0
H1801 H 0.12519 0.38388 0.22235 0.0
H1802 H 0.14431 0.38469 0.20365 0.0
C1803 C 0.20821 0.37396 0.14192 0.0
C1804 C 0.18367 0.36283 0.17347 0.0
H1805 H 0.14752 0.36231 0.18183 0.0
C1806 C 0.18926 0.36408 0.18783 0.0
C1807 C 0.16849 0.36234 0.17122 0.0
C1808 C 0.16208 0.36121 0.15591 0.0
C1809 C 0.17993 0.36466 0.20013 0.0
C1810 C 0.16473 0.36389 0.19789 0.0
C1811 C 0.15919 0.36287 0.18348 0.0
C1812 C 0.15426 0.36406 0.21029 0.0
C1813 C 0.18635 0.36624 0.21538 0.0
C1814 C 0.15363 0.35223 0.22031 0.0
C1815 C 0.14266 0.35168 0.23101 0.0
C1816 C 0.13213 0.36294 0.23181 0.0
C1817 C 0.1331 0.375 0.22203 0.0
C1818 C 0.14402 0.37551 0.21133 0.0
H1819 H 0.19787 0.36992 0.21499 0.0
H1820 H 0.17998 0.37426 0.22206 0.0
H1821 H 0.18596 0.35538 0.22109 0.0
H1822 H 0.16131 0.34317 0.21952 0.0
H1823 H 0.14221 0.34224 0.23837 0.0
H1824 H 0.80033 0.63987 0.8523 0.0
H1825 H 0.81168 0.63086 0.82974 0.0
H1826 H 0.77067 0.6125 0.81557 0.0
H1827 H 0.75934 0.62098 0.83853 0.0
H1828 H 0.79051 0.59244 0.81467 0.0
H1829 H 0.81325 0.64162 0.78723 0.0
H1830 H 0.8191 0.64122 0.8061 0.0
H1831 H 0.8 0.64305 0.8019 0.0
C1832 C 0.79363 0.6342 0.84425 0.0
C1833 C 0.77898 0.631 0.84723 0.0
C1834 C 0.80012 0.62918 0.83124 0.0
C1835 C 0.79199 0.62119 0.82083 0.0
C1836 C 0.77713 0.6187 0.82343 0.0
H1837 H 0.84083 0.58429 0.74557 0.0
H1838 H 0.82298 0.59878 0.75952 0.0
C1839 C 0.77069 0.62352 0.83655 0.0
C1840 C 0.79951 0.61359 0.80849 0.0
H1841 H 0.826 0.61831 0.78249 0.0
C1842 C 0.79801 0.59818 0.80741 0.0
C1843 C 0.80914 0.62103 0.79881 0.0
C1844 C 0.81032 0.63767 0.79847 0.0
C1845 C 0.80658 0.58991 0.79765 0.0
C1846 C 0.81724 0.59721 0.78908 0.0
C1847 C 0.81804 0.6127 0.78934 0.0
C1848 C 0.82823 0.58883 0.7806 0.0
C1849 C 0.80432 0.5734 0.79686 0.0
C1850 C 0.83733 0.57876 0.78793 0.0
C1851 C 0.84743 0.57041 0.78003 0.0
C1852 C 0.84879 0.57215 0.76466 0.0
C1853 C 0.84002 0.58265 0.75741 0.0
C1854 C 0.82981 0.59093 0.76533 0.0
H1855 H 0.79301 0.57036 0.79995 0.0
H1856 H 0.8066 0.56908 0.78561 0.0
H1857 H 0.81176 0.56787 0.80478 0.0
H1858 H 0.83657 0.57729 0.79979 0.0
H1859 H 0.85414 0.56258 0.786 0.0
H1860 H 0.35258 0.86895 0.77266 0.0
H1861 H 0.34068 0.85103 0.78891 0.0
H1862 H 0.3663 0.86684 0.8256 0.0
H1863 H 0.37787 0.88486 0.80966 0.0
H1864 H 0.35682 0.82993 0.79951 0.0
H1865 H 0.33041 0.85559 0.84734 0.0
H1866 H 0.33398 0.86585 0.83058 0.0
H1867 H 0.34766 0.86439 0.84484 0.0
C1868 C 0.35523 0.86902 0.78433 0.0
C1869 C 0.36641 0.87812 0.78981 0.0
C1870 C 0.34839 0.85876 0.79361 0.0
C1871 C 0.35253 0.85756 0.80852 0.0
C1872 C 0.36263 0.86769 0.81426 0.0
H1873 H 0.38996 0.80669 0.86752 0.0
H1874 H 0.37514 0.82453 0.85424 0.0
C1875 C 0.36943 0.87791 0.80503 0.0
C1876 C 0.34924 0.84399 0.81713 0.0
H1877 H 0.34507 0.83287 0.8529 0.0
C1878 C 0.35365 0.83042 0.81104 0.0
C1879 C 0.34495 0.84454 0.83213 0.0
C1880 C 0.33884 0.8584 0.839 0.0
C1881 C 0.35583 0.81795 0.81998 0.0
C1882 C 0.3533 0.81906 0.83537 0.0
C1883 C 0.34718 0.83209 0.84112 0.0
C1884 C 0.35996 0.80835 0.84573 0.0
C1885 C 0.36233 0.80421 0.81314 0.0
C1886 C 0.35601 0.79336 0.84584 0.0
C1887 C 0.36461 0.78301 0.85338 0.0
C1888 C 0.37725 0.78756 0.86089 0.0
C1889 C 0.38045 0.80274 0.86166 0.0
C1890 C 0.3719 0.81301 0.85417 0.0
H1891 H 0.36472 0.80564 0.80118 0.0
H1892 H 0.37259 0.80119 0.81888 0.0
H1893 H 0.35464 0.79485 0.81435 0.0
H1894 H 0.34671 0.78958 0.83955 0.0
H1895 H 0.36176 0.77141 0.8527 0.0
H1896 H 0.22027 0.38847 0.84191 0.0
H1897 H 0.20737 0.39435 0.81917 0.0
H1898 H 0.19884 0.34801 0.81193 0.0
H1899 H 0.21168 0.34196 0.83493 0.0
H1900 H 0.21064 0.38475 0.78909 0.0
H1901 H 0.1581 0.36767 0.81482 0.0
H1902 H 0.17431 0.37039 0.8257 0.0
H1903 H 0.17265 0.35437 0.81413 0.0
C1904 C 0.21579 0.37948 0.83545 0.0
C1905 C 0.2168 0.36476 0.84034 0.0
C1906 C 0.2085 0.38286 0.8224 0.0
C1907 C 0.20205 0.37162 0.81399 0.0
C1908 C 0.20363 0.35683 0.81839 0.0
H1909 H 0.15244 0.40773 0.73808 0.0
H1910 H 0.16788 0.39 0.75134 0.0
C1911 C 0.21098 0.35341 0.8315 0.0
C1912 C 0.19266 0.37585 0.80144 0.0
H1913 H 0.15692 0.38142 0.79298 0.0
C1914 C 0.1989 0.38369 0.78966 0.0
C1915 C 0.17736 0.37447 0.80236 0.0
C1916 C 0.17011 0.36634 0.81493 0.0
C1917 C 0.19019 0.39109 0.7793 0.0
C1918 C 0.17491 0.3905 0.78079 0.0
C1919 C 0.16867 0.38178 0.79193 0.0
C1920 C 0.16535 0.40069 0.77256 0.0
C1921 C 0.19732 0.40042 0.76752 0.0
C1922 C 0.15877 0.4124 0.7802 0.0
C1923 C 0.15002 0.42251 0.77273 0.0
C1924 C 0.14761 0.42108 0.75745 0.0
C1925 C 0.15411 0.40919 0.74984 0.0
C1926 C 0.16294 0.39907 0.75736 0.0
H1927 H 0.20937 0.40047 0.76851 0.0
H1928 H 0.19439 0.39607 0.75645 0.0
H1929 H 0.19332 0.41199 0.76821 0.0
H1930 H 0.16055 0.41382 0.79195 0.0
H1931 H 0.14516 0.43147 0.77897 0.0
H1932 H 0.61639 0.11225 0.80942 0.0
H1933 H 0.61673 0.13613 0.82202 0.0
H1934 H 0.64223 0.15468 0.78658 0.0
H1935 H 0.64181 0.13084 0.77374 0.0
H1936 H 0.64137 0.15289 0.83142 0.0
H1937 H 0.60738 0.18317 0.79034 0.0
H1938 H 0.60834 0.16324 0.79078 0.0
H1939 H 0.62321 0.17377 0.78342 0.0
C1940 C 0.62202 0.12141 0.80425 0.0
C1941 C 0.629 0.11966 0.79054 0.0
C1942 C 0.62226 0.13503 0.8115 0.0
C1943 C 0.62942 0.14717 0.80518 0.0
C1944 C 0.63648 0.14548 0.79154 0.0
H1945 H 0.61871 0.23688 0.84145 0.0
H1946 H 0.63062 0.21701 0.82737 0.0
C1947 C 0.63624 0.13185 0.78425 0.0
C1948 C 0.62929 0.16156 0.81295 0.0
H1949 H 0.61413 0.196 0.81177 0.0
C1950 C 0.6356 0.16241 0.82704 0.0
C1951 C 0.6219 0.17399 0.80713 0.0
C1952 C 0.61472 0.17358 0.79213 0.0
C1953 C 0.63413 0.17513 0.83578 0.0
C1954 C 0.62595 0.1872 0.83033 0.0
C1955 C 0.62043 0.18672 0.81588 0.0
C1956 C 0.62099 0.19929 0.84013 0.0
C1957 C 0.64094 0.17538 0.85094 0.0
C1958 C 0.61184 0.19588 0.85205 0.0
C1959 C 0.60499 0.20711 0.85996 0.0
C1960 C 0.60714 0.222 0.85612 0.0
C1961 C 0.61693 0.22549 0.8447 0.0
C1962 C 0.6237 0.21418 0.83664 0.0
H1963 H 0.65065 0.16807 0.85143 0.0
H1964 H 0.64419 0.18676 0.85415 0.0
H1965 H 0.63295 0.17124 0.85915 0.0
H1966 H 0.60937 0.18448 0.85475 0.0
H1967 H 0.59755 0.20408 0.86874 0.0
H1968 H 0.83757 0.38765 0.22899 0.0
H1969 H 0.82149 0.38478 0.20753 0.0
H1970 H 0.84823 0.41507 0.18272 0.0
H1971 H 0.86429 0.41804 0.20396 0.0
H1972 H 0.80623 0.40757 0.19059 0.0
H1973 H 0.84652 0.37654 0.15718 0.0
H1974 H 0.84788 0.37834 0.17703 0.0
H1975 H 0.85356 0.39324 0.1652 0.0
C1976 C 0.83994 0.39381 0.21901 0.0
C1977 C 0.85227 0.40299 0.21814 0.0
C1978 C 0.83079 0.3921 0.20677 0.0
C1979 C 0.83392 0.39944 0.19349 0.0
C1980 C 0.84585 0.40905 0.1928 0.0
H1981 H 0.80512 0.42359 0.11029 0.0
H1982 H 0.81837 0.41477 0.13185 0.0
C1983 C 0.85494 0.41082 0.205 0.0
C1984 C 0.82472 0.39732 0.18028 0.0
H1985 H 0.8266 0.3874 0.14394 0.0
C1986 C 0.8105 0.40288 0.18044 0.0
C1987 C 0.83039 0.3911 0.16715 0.0
C1988 C 0.84538 0.38433 0.16661 0.0
C1989 C 0.80214 0.40341 0.16748 0.0
C1990 C 0.80813 0.39794 0.15411 0.0
C1991 C 0.82204 0.39157 0.15419 0.0
C1992 C 0.80099 0.4007 0.13972 0.0
C1993 C 0.78739 0.41075 0.16798 0.0
C1994 C 0.78713 0.39503 0.13655 0.0
C1995 C 0.77946 0.40011 0.12419 0.0
C1996 C 0.78557 0.41091 0.11485 0.0
C1997 C 0.8 0.41543 0.11734 0.0
C1998 C 0.80762 0.41038 0.12967 0.0
H1999 H 0.7854 0.41647 0.17866 0.0
H2000 H 0.7863 0.41894 0.1589 0.0
H2001 H 0.77881 0.40225 0.16651 0.0
H2002 H 0.78198 0.38729 0.14402 0.0
H2003 H 0.76842 0.39628 0.12253 0.0
H2004 H 0.63545 0.88937 0.21325 0.0
H2005 H 0.64657 0.86953 0.19886 0.0
H2006 H 0.61353 0.87485 0.1654 0.0
H2007 H 0.60278 0.8949 0.17931 0.0
H2008 H 0.63154 0.84602 0.19734 0.0
H2009 H 0.64469 0.85922 0.13994 0.0
H2010 H 0.64331 0.87353 0.15383 0.0
H2011 H 0.62743 0.86757 0.14366 0.0
C2012 C 0.63094 0.88677 0.2025 0.0
C2013 C 0.61794 0.89342 0.19764 0.0
C2014 C 0.63736 0.87542 0.19425 0.0
C2015 C 0.63087 0.87053 0.18107 0.0
C2016 C 0.61898 0.87847 0.17537 0.0
H2017 H 0.58583 0.80543 0.14758 0.0
H2018 H 0.60138 0.8265 0.15286 0.0
C2019 C 0.61267 0.88989 0.1835 0.0
C2020 C 0.63364 0.85534 0.17549 0.0
H2021 H 0.63056 0.83549 0.1436 0.0
C2022 C 0.63199 0.84365 0.1856 0.0
C2023 C 0.63443 0.8521 0.16021 0.0
C2024 C 0.63773 0.86384 0.14887 0.0
C2025 C 0.62898 0.82925 0.18079 0.0
C2026 C 0.62775 0.82648 0.16547 0.0
C2027 C 0.63127 0.83771 0.15536 0.0
C2028 C 0.61974 0.81338 0.16007 0.0
C2029 C 0.62552 0.81751 0.19214 0.0
C2030 C 0.62504 0.79896 0.16208 0.0
C2031 C 0.61607 0.78678 0.15918 0.0
C2032 C 0.60168 0.78889 0.15425 0.0
C2033 C 0.59675 0.80337 0.15155 0.0
C2034 C 0.60569 0.81545 0.15442 0.0
H2035 H 0.62616 0.82178 0.20364 0.0
H2036 H 0.61442 0.81307 0.19027 0.0
H2037 H 0.63333 0.80822 0.19104 0.0
H2038 H 0.6359 0.79715 0.16634 0.0
H2039 H 0.62026 0.77577 0.16122 0.0
H2040 H 0.13521 0.58346 0.18899 0.0
H2041 H 0.1441 0.59856 0.16871 0.0
H2042 H 0.15778 0.63218 0.19951 0.0
H2043 H 0.14903 0.61693 0.22012 0.0
H2044 H 0.13961 0.62867 0.15855 0.0
H2045 H 0.19576 0.6181 0.17966 0.0
H2046 H 0.18046 0.60792 0.18686 0.0
H2047 H 0.18269 0.6271 0.19142 0.0
C2048 C 0.13995 0.59413 0.19153 0.0
C2049 C 0.14169 0.59884 0.20622 0.0
C2050 C 0.1449 0.60283 0.17987 0.0
C2051 C 0.15171 0.61642 0.18262 0.0
C2052 C 0.15266 0.62165 0.19719 0.0
H2053 H 0.21367 0.62394 0.11279 0.0
H2054 H 0.19891 0.63733 0.13081 0.0
C2055 C 0.14767 0.61291 0.20893 0.0
C2056 C 0.15943 0.62369 0.17026 0.0
H2057 H 0.19311 0.62323 0.1547 0.0
C2058 C 0.15137 0.628 0.1578 0.0
C2059 C 0.17477 0.62315 0.16938 0.0
C2060 C 0.18401 0.61881 0.18248 0.0
C2061 C 0.15814 0.63007 0.14405 0.0
C2062 C 0.17324 0.62739 0.14274 0.0
C2063 C 0.18149 0.6251 0.15561 0.0
C2064 C 0.18005 0.62321 0.12845 0.0
C2065 C 0.1489 0.63415 0.1309 0.0
C2066 C 0.17409 0.61137 0.12044 0.0
C2067 C 0.18246 0.60372 0.11011 0.0
C2068 C 0.19707 0.60761 0.10775 0.0
C2069 C 0.2025 0.62051 0.11449 0.0
C2070 C 0.19406 0.62823 0.12479 0.0
H2071 H 0.14044 0.64229 0.13416 0.0
H2072 H 0.15551 0.63889 0.12178 0.0
H2073 H 0.14319 0.62415 0.12681 0.0
H2074 H 0.16346 0.60702 0.12319 0.0
H2075 H 0.17785 0.59397 0.10499 0.0
H2076 H 0.38408 0.21087 0.16241 0.0
H2077 H 0.37223 0.18714 0.1678 0.0
H2078 H 0.38749 0.16977 0.12617 0.0
H2079 H 0.39992 0.19315 0.12113 0.0
H2080 H 0.35295 0.16565 0.15475 0.0
H2081 H 0.41059 0.14681 0.15715 0.0
H2082 H 0.40574 0.16605 0.15566 0.0
H2083 H 0.40499 0.15425 0.13967 0.0
C2084 C 0.38454 0.2021 0.15426 0.0
C2085 C 0.39313 0.20362 0.14153 0.0
C2086 C 0.37773 0.18859 0.1573 0.0
C2087 C 0.37927 0.17663 0.14751 0.0
C2088 C 0.38642 0.17879 0.13399 0.0
H2089 H 0.3854 0.08718 0.17743 0.0
H2090 H 0.378 0.10543 0.15903 0.0
C2091 C 0.39352 0.19211 0.13113 0.0
C2092 C 0.37593 0.16146 0.15262 0.0
H2093 H 0.39282 0.12971 0.16332 0.0
C2094 C 0.3616 0.15766 0.15645 0.0
C2095 C 0.38726 0.1511 0.15487 0.0
C2096 C 0.40302 0.15474 0.15176 0.0
C2097 C 0.35837 0.14383 0.16279 0.0
C2098 C 0.3698 0.1337 0.16548 0.0
C2099 C 0.38399 0.13734 0.16105 0.0
C2100 C 0.36817 0.12034 0.17486 0.0
C2101 C 0.34283 0.14031 0.16675 0.0
C2102 C 0.36395 0.12203 0.18968 0.0
C2103 C 0.36795 0.11146 0.2002 0.0
C2104 C 0.37653 0.09927 0.19605 0.0
C2105 C 0.37897 0.09659 0.18096 0.0
C2106 C 0.37471 0.10701 0.17042 0.0
H2107 H 0.33516 0.1459 0.15908 0.0
H2108 H 0.34074 0.12822 0.1665 0.0
H2109 H 0.34054 0.14445 0.17806 0.0
H2110 H 0.3591 0.13226 0.19348 0.0
H2111 H 0.36585 0.11382 0.21174 0.0
H2112 H 0.88498 0.78876 0.66924 0.0
H2113 H 0.86322 0.80435 0.66855 0.0
H2114 H 0.85087 0.78469 0.62698 0.0
H2115 H 0.87239 0.76894 0.62767 0.0
H2116 H 0.85757 0.82498 0.64765 0.0
H2117 H 0.8126 0.78458 0.64908 0.0
H2118 H 0.83097 0.77976 0.65426 0.0
H2119 H 0.82563 0.77986 0.6351 0.0
C2120 C 0.87748 0.78755 0.66009 0.0
C2121 C 0.88043 0.77763 0.64848 0.0
C2122 C 0.86506 0.79648 0.65972 0.0
C2123 C 0.85533 0.79555 0.64782 0.0
C2124 C 0.85804 0.78534 0.63645 0.0
H2125 H 0.80635 0.85561 0.59923 0.0
H2126 H 0.82483 0.84205 0.61288 0.0
C2127 C 0.87042 0.77641 0.63681 0.0
C2128 C 0.84317 0.80621 0.6464 0.0
H2129 H 0.80714 0.80826 0.63774 0.0
C2130 C 0.84647 0.82135 0.6458 0.0
C2131 C 0.82865 0.80153 0.64429 0.0
C2132 C 0.82423 0.78555 0.64588 0.0
C2133 C 0.83584 0.83183 0.64204 0.0
C2134 C 0.82165 0.82697 0.63853 0.0
C2135 C 0.81809 0.81197 0.64024 0.0
C2136 C 0.81086 0.83685 0.63144 0.0
C2137 C 0.84003 0.84795 0.64145 0.0
C2138 C 0.79682 0.83843 0.63731 0.0
C2139 C 0.78612 0.84614 0.62945 0.0
C2140 C 0.78927 0.85222 0.61548 0.0
C2141 C 0.80352 0.85107 0.60993 0.0
C2142 C 0.81416 0.84341 0.6178 0.0
H2143 H 0.84904 0.85038 0.64927 0.0
H2144 H 0.8439 0.85067 0.63016 0.0
H2145 H 0.83066 0.85522 0.64412 0.0
H2146 H 0.79403 0.83335 0.64778 0.0
H2147 H 0.77526 0.84679 0.63404 0.0
H2148 H 0.86702 0.23123 0.35213 0.0
H2149 H 0.84617 0.21449 0.35273 0.0
H2150 H 0.85888 0.19944 0.39608 0.0
H2151 H 0.87969 0.21627 0.39568 0.0
H2152 H 0.84767 0.18382 0.35548 0.0
H2153 H 0.81539 0.20839 0.40117 0.0
H2154 H 0.82982 0.21829 0.39192 0.0
H2155 H 0.83405 0.20468 0.40574 0.0
C2156 C 0.86533 0.22445 0.36185 0.0
C2157 C 0.87502 0.22507 0.37385 0.0
C2158 C 0.8534 0.21492 0.36217 0.0
C2159 C 0.85088 0.2059 0.37453 0.0
C2160 C 0.86047 0.20655 0.38657 0.0
H2161 H 0.79447 0.13258 0.39459 0.0
H2162 H 0.81145 0.15338 0.39537 0.0
C2163 C 0.87241 0.21608 0.38627 0.0
C2164 C 0.83879 0.19512 0.37438 0.0
H2165 H 0.80797 0.18463 0.39265 0.0
C2166 C 0.83891 0.18406 0.36351 0.0
C2167 C 0.82745 0.19546 0.38494 0.0
C2168 C 0.82654 0.20741 0.39654 0.0
C2169 C 0.82816 0.1731 0.36311 0.0
C2170 C 0.81683 0.17339 0.37369 0.0
C2171 C 0.81665 0.18449 0.38453 0.0
C2172 C 0.80538 0.16192 0.3739 0.0
C2173 C 0.82926 0.16103 0.35163 0.0
C2174 C 0.796 0.16019 0.3618 0.0
C2175 C 0.78633 0.14829 0.36128 0.0
C2176 C 0.78583 0.13799 0.37291 0.0
C2177 C 0.79465 0.14027 0.38541 0.0
C2178 C 0.80434 0.15215 0.38589 0.0
H2179 H 0.8403 0.16045 0.34665 0.0
H2180 H 0.82663 0.15008 0.3565 0.0
H2181 H 0.82137 0.16326 0.34263 0.0
H2182 H 0.79645 0.1678 0.35257 0.0
H2183 H 0.77958 0.14694 0.35157 0.0
H2184 H 0.81457 0.86649 0.39325 0.0
H2185 H 0.83046 0.8478 0.38293 0.0
H2186 H 0.79757 0.83624 0.35092 0.0
H2187 H 0.78133 0.8549 0.36154 0.0
H2188 H 0.80337 0.81382 0.36766 0.0
H2189 H 0.85628 0.83502 0.35024 0.0
H2190 H 0.85186 0.84421 0.36716 0.0
H2191 H 0.84043 0.84685 0.35112 0.0
C2192 C 0.81086 0.86034 0.38369 0.0
C2193 C 0.79657 0.8619 0.37846 0.0
C2194 C 0.82009 0.84976 0.37759 0.0
C2195 C 0.81528 0.84059 0.36607 0.0
C2196 C 0.80155 0.84323 0.35977 0.0
H2197 H 0.85036 0.75275 0.38652 0.0
H2198 H 0.84163 0.77037 0.36789 0.0
C2199 C 0.79227 0.85388 0.36588 0.0
C2200 C 0.82292 0.82633 0.36365 0.0
H2201 H 0.85724 0.8125 0.36693 0.0
C2202 C 0.81512 0.81336 0.3668 0.0
C2203 C 0.83822 0.82558 0.36224 0.0
C2204 C 0.8471 0.8387 0.35733 0.0
C2205 C 0.82231 0.80035 0.37101 0.0
C2206 C 0.83767 0.80036 0.37186 0.0
C2207 C 0.84545 0.81262 0.36656 0.0
C2208 C 0.8453 0.78968 0.38151 0.0
C2209 C 0.8134 0.78734 0.37625 0.0
C2210 C 0.85072 0.79476 0.39507 0.0
C2211 C 0.85566 0.78481 0.40569 0.0
C2212 C 0.8553 0.76952 0.40297 0.0
C2213 C 0.85062 0.76446 0.38903 0.0
C2214 C 0.84565 0.77449 0.37836 0.0
H2215 H 0.80152 0.78943 0.37545 0.0
H2216 H 0.81601 0.77747 0.36946 0.0
H2217 H 0.81609 0.78472 0.38792 0.0
H2218 H 0.85048 0.80645 0.39774 0.0
H2219 H 0.85935 0.78914 0.4162 0.0
H2220 H 0.09973 0.79425 0.35029 0.0
H2221 H 0.11981 0.81198 0.34979 0.0
H2222 H 0.13677 0.79343 0.39018 0.0
H2223 H 0.11686 0.77554 0.39069 0.0
H2224 H 0.12594 0.83298 0.37144 0.0
H2225 H 0.17272 0.79487 0.36349 0.0
H2226 H 0.15414 0.78933 0.36017 0.0
H2227 H 0.16105 0.79025 0.37872 0.0
C2228 C 0.10781 0.79383 0.35899 0.0
C2229 C 0.1067 0.78346 0.37052 0.0
C2230 C 0.11926 0.80398 0.35869 0.0
C2231 C 0.12986 0.80389 0.36985 0.0
C2232 C 0.12887 0.79349 0.38131 0.0
H2233 H 0.20183 0.86352 0.38979 0.0
H2234 H 0.18383 0.8435 0.3904 0.0
C2235 C 0.11742 0.78333 0.38162 0.0
C2236 C 0.14148 0.81522 0.36991 0.0
H2237 H 0.17833 0.81998 0.36867 0.0
C2238 C 0.13739 0.83015 0.37077 0.0
C2239 C 0.15641 0.81146 0.36915 0.0
C2240 C 0.16139 0.79562 0.3677 0.0
C2241 C 0.14783 0.84144 0.37097 0.0
C2242 C 0.16274 0.83769 0.37007 0.0
C2243 C 0.16687 0.82277 0.36937 0.0
C2244 C 0.17412 0.84922 0.36939 0.0
C2245 C 0.14285 0.85729 0.37231 0.0
C2246 C 0.17478 0.85879 0.35722 0.0
C2247 C 0.18501 0.87017 0.35682 0.0
C2248 C 0.1948 0.87219 0.36859 0.0
C2249 C 0.1944 0.8623 0.38059 0.0
C2250 C 0.18415 0.85086 0.38095 0.0
H2251 H 0.13149 0.85807 0.37643 0.0
H2252 H 0.15006 0.86359 0.37988 0.0
H2253 H 0.1433 0.86262 0.36127 0.0
H2254 H 0.16726 0.85754 0.34809 0.0
H2255 H 0.18507 0.87752 0.34737 0.0
H2256 H 0.18915 0.13003 0.40686 0.0
H2257 H 0.17119 0.14744 0.39769 0.0
H2258 H 0.20204 0.16377 0.36566 0.0
H2259 H 0.22025 0.1463 0.37496 0.0
H2260 H 0.19371 0.1847 0.38445 0.0
H2261 H 0.14408 0.15774 0.36451 0.0
H2262 H 0.14987 0.1485 0.38099 0.0
H2263 H 0.16142 0.14829 0.36485 0.0
C2264 C 0.19198 0.13696 0.39752 0.0
C2265 C 0.20618 0.137 0.39182 0.0
C2266 C 0.1816 0.1468 0.39211 0.0
C2267 C 0.18521 0.15688 0.38089 0.0
C2268 C 0.19899 0.15601 0.37423 0.0
H2269 H 0.14 0.24 0.40124 0.0
H2270 H 0.15194 0.22367 0.38331 0.0
C2271 C 0.20939 0.14604 0.37959 0.0
C2272 C 0.17596 0.17017 0.37901 0.0
H2273 H 0.14015 0.17975 0.3808 0.0
C2274 C 0.18203 0.18383 0.38303 0.0
C2275 C 0.16076 0.1691 0.37696 0.0
C2276 C 0.15372 0.15511 0.37142 0.0
C2277 C 0.1732 0.19576 0.38722 0.0
C2278 C 0.15791 0.19398 0.38708 0.0
C2279 C 0.15188 0.18101 0.38113 0.0
C2280 C 0.14844 0.20373 0.39604 0.0
C2281 C 0.18032 0.20949 0.39337 0.0
C2282 C 0.14193 0.19783 0.40876 0.0
C2283 C 0.13506 0.20704 0.41894 0.0
C2284 C 0.13459 0.22241 0.41665 0.0
C2285 C 0.14036 0.22823 0.40344 0.0
C2286 C 0.14719 0.21893 0.39318 0.0
H2287 H 0.19236 0.20848 0.39389 0.0
H2288 H 0.17763 0.2191 0.38627 0.0
H2289 H 0.1762 0.21182 0.40467 0.0
H2290 H 0.14279 0.18612 0.41121 0.0
H2291 H 0.13062 0.20212 0.42888 0.0
H2292 H 0.20997 0.16373 0.59762 0.0
H2293 H 0.18946 0.17437 0.61088 0.0
H2294 H 0.21507 0.17634 0.65075 0.0
H2295 H 0.2359 0.16568 0.63749 0.0
H2296 H 0.17542 0.16332 0.6372 0.0
H2297 H 0.19948 0.21947 0.644 0.0
H2298 H 0.20644 0.20634 0.63072 0.0
H2299 H 0.21007 0.20384 0.65004 0.0
C2300 C 0.21133 0.16639 0.60921 0.0
C2301 C 0.22465 0.16393 0.61646 0.0
C2302 C 0.19955 0.17245 0.61678 0.0
C2303 C 0.20081 0.17625 0.63173 0.0
C2304 C 0.21396 0.17362 0.63914 0.0
H2305 H 0.12089 0.20325 0.67797 0.0
H2306 H 0.1448 0.19217 0.67352 0.0
C2307 C 0.22581 0.16747 0.63157 0.0
C2308 C 0.18823 0.18311 0.63927 0.0
H2309 H 0.17525 0.21626 0.65165 0.0
C2310 C 0.17541 0.17483 0.6406 0.0
C2311 C 0.1883 0.19815 0.64353 0.0
C2312 C 0.20175 0.20757 0.64197 0.0
C2313 C 0.16246 0.18133 0.64562 0.0
C2314 C 0.16243 0.19647 0.64957 0.0
C2315 C 0.17537 0.20464 0.64869 0.0
C2316 C 0.14877 0.20427 0.65329 0.0
C2317 C 0.14875 0.17215 0.64591 0.0
C2318 C 0.14337 0.21514 0.64368 0.0
C2319 C 0.12976 0.22154 0.6462 0.0
C2320 C 0.12132 0.21718 0.65841 0.0
C2321 C 0.12707 0.20677 0.66839 0.0
C2322 C 0.1407 0.20038 0.66586 0.0
H2323 H 0.15011 0.16145 0.64003 0.0
H2324 H 0.14579 0.16973 0.65755 0.0
H2325 H 0.13958 0.17828 0.64079 0.0
H2326 H 0.14947 0.21831 0.63394 0.0
H2327 H 0.12569 0.22957 0.63834 0.0
H2328 H 0.78445 0.11403 0.56749 0.0
H2329 H 0.79822 0.13713 0.5664 0.0
H2330 H 0.77169 0.15532 0.60126 0.0
H2331 H 0.75795 0.1322 0.6026 0.0
H2332 H 0.78895 0.16712 0.56168 0.0
H2333 H 0.81362 0.1583 0.61718 0.0
H2334 H 0.80445 0.14373 0.60725 0.0
H2335 H 0.79409 0.15784 0.61646 0.0
C2336 C 0.7815 0.12295 0.57491 0.0
C2337 C 0.77022 0.12122 0.58525 0.0
C2338 C 0.78935 0.13615 0.57422 0.0
C2339 C 0.78606 0.14782 0.58387 0.0
C2340 C 0.77451 0.14633 0.59388 0.0
H2341 H 0.83887 0.22576 0.6018 0.0
H2342 H 0.81767 0.20951 0.60038 0.0
C2343 C 0.76668 0.13313 0.5946 0.0
C2344 C 0.7952 0.16126 0.58386 0.0
H2345 H 0.82024 0.17988 0.60447 0.0
C2346 C 0.79572 0.17001 0.57105 0.0
C2347 C 0.80396 0.16498 0.59615 0.0
C2348 C 0.80415 0.15569 0.61002 0.0
C2349 C 0.80497 0.18232 0.57014 0.0
C2350 C 0.81407 0.18576 0.58226 0.0
C2351 C 0.81319 0.17726 0.59522 0.0
C2352 C 0.8255 0.19724 0.58144 0.0
C2353 C 0.80495 0.1915 0.55622 0.0
C2354 C 0.83677 0.19593 0.57107 0.0
C2355 C 0.84888 0.2052 0.57183 0.0
C2356 C 0.85001 0.21584 0.5831 0.0
C2357 C 0.83836 0.21763 0.59302 0.0
C2358 C 0.82623 0.20837 0.59223 0.0
H2359 H 0.79441 0.19058 0.55029 0.0
H2360 H 0.80708 0.20333 0.55866 0.0
H2361 H 0.81361 0.18741 0.5487 0.0
H2362 H 0.83659 0.18721 0.56286 0.0
H2363 H 0.85765 0.20353 0.56401 0.0
H2364 H 0.22441 0.88513 0.63355 0.0
H2365 H 0.21299 0.86068 0.63386 0.0
H2366 H 0.19982 0.86638 0.58848 0.0
H2367 H 0.21124 0.89078 0.588 0.0
H2368 H 0.18328 0.85417 0.62795 0.0
H2369 H 0.22033 0.8256 0.5888 0.0
H2370 H 0.22506 0.84276 0.59782 0.0
H2371 H 0.21311 0.84281 0.58211 0.0
C2372 C 0.21911 0.88118 0.62362 0.0
C2373 C 0.21875 0.88989 0.61074 0.0
C2374 C 0.21262 0.8672 0.62382 0.0
C2375 C 0.2058 0.86165 0.61112 0.0
C2376 C 0.2053 0.87036 0.5983 0.0
H2377 H 0.15222 0.78896 0.58571 0.0
H2378 H 0.16911 0.80974 0.58711 0.0
C2379 C 0.21173 0.88435 0.59809 0.0
C2380 C 0.1986 0.84703 0.61144 0.0
H2381 H 0.19831 0.8131 0.59491 0.0
C2382 C 0.18665 0.84511 0.62087 0.0
C2383 C 0.20305 0.83529 0.60216 0.0
C2384 C 0.21617 0.83662 0.59223 0.0
C2385 C 0.17863 0.83192 0.62085 0.0
C2386 C 0.18293 0.82024 0.61138 0.0
C2387 C 0.19509 0.82205 0.60218 0.0
C2388 C 0.17431 0.80646 0.6102 0.0
C2389 C 0.16527 0.83086 0.6305 0.0
C2390 C 0.17213 0.79735 0.62256 0.0
C2391 C 0.1624 0.7855 0.62184 0.0
C2392 C 0.1548 0.7825 0.60869 0.0
C2393 C 0.15782 0.79102 0.59604 0.0
C2394 C 0.16748 0.80291 0.59681 0.0
H2395 H 0.16166 0.84189 0.6345 0.0
H2396 H 0.15614 0.82562 0.62443 0.0
H2397 H 0.16777 0.82394 0.64031 0.0
H2398 H 0.17759 0.79971 0.63291 0.0
H2399 H 0.16045 0.77905 0.63173 0.0
H2400 H 0.10369 0.28773 0.48525 0.0
H2401 H 0.09482 0.28575 0.51074 0.0
H2402 H 0.11109 0.24108 0.51319 0.0
H2403 H 0.12 0.24295 0.48786 0.0
H2404 H 0.08178 0.24474 0.52293 0.0
H2405 H 0.11979 0.28484 0.54902 0.0
H2406 H 0.10999 0.29144 0.53313 0.0
H2407 H 0.12309 0.27686 0.53103 0.0
C2408 C 0.10544 0.27752 0.49125 0.0
C2409 C 0.11247 0.26546 0.4845 0.0
C2410 C 0.10041 0.27643 0.50581 0.0
C2411 C 0.10239 0.2633 0.51384 0.0
C2412 C 0.10944 0.2513 0.50715 0.0
H2413 H 0.09458 0.24357 0.60671 0.0
H2414 H 0.10244 0.24723 0.58116 0.0
C2415 C 0.11449 0.25238 0.49265 0.0
C2416 C 0.09688 0.26184 0.52913 0.0
H2417 H 0.10165 0.27446 0.56436 0.0
C2418 C 0.08607 0.25127 0.53199 0.0
C2419 C 0.10263 0.27029 0.54091 0.0
C2420 C 0.1146 0.28143 0.53848 0.0
C2421 C 0.08084 0.2489 0.54637 0.0
C2422 C 0.08649 0.25744 0.55812 0.0
C2423 C 0.0973 0.26801 0.55527 0.0
C2424 C 0.08159 0.25526 0.57354 0.0
C2425 C 0.06956 0.23706 0.54894 0.0
C2426 C 0.06728 0.25865 0.57769 0.0
C2427 C 0.06273 0.25659 0.59229 0.0
C2428 C 0.07244 0.2511 0.603 0.0
C2429 C 0.08679 0.24775 0.59876 0.0
C2430 C 0.09133 0.24987 0.58418 0.0
H2431 H 0.06855 0.2295 0.53932 0.0
H2432 H 0.07229 0.23042 0.55889 0.0
H2433 H 0.05883 0.24235 0.55085 0.0
H2434 H 0.05965 0.26298 0.56965 0.0
H2435 H 0.05161 0.25932 0.59516 0.0
H2436 H 0.74628 0.09787 0.55077 0.0
H2437 H 0.74942 0.10289 0.5244 0.0
H2438 H 0.71565 0.07146 0.51415 0.0
H2439 H 0.71229 0.06647 0.54042 0.0
H2440 H 0.75755 0.08255 0.50325 0.0
H2441 H 0.70413 0.10695 0.48901 0.0
H2442 H 0.71043 0.10525 0.50784 0.0
H2443 H 0.7025 0.08962 0.49854 0.0
C2444 C 0.73938 0.09213 0.54293 0.0
C2445 C 0.72902 0.08174 0.54774 0.0
C2446 C 0.74121 0.09505 0.52787 0.0
C2447 C 0.73263 0.08772 0.51734 0.0
C2448 C 0.72216 0.0775 0.52211 0.0
H2449 H 0.72971 0.06858 0.42578 0.0
H2450 H 0.72624 0.07188 0.45229 0.0
C2451 C 0.72031 0.07457 0.53715 0.0
C2452 C 0.73534 0.08985 0.50134 0.0
H2453 H 0.71841 0.0978 0.46872 0.0
C2454 C 0.74909 0.08613 0.49571 0.0
C2455 C 0.72427 0.09455 0.49156 0.0
C2456 C 0.70955 0.09947 0.49705 0.0
C2457 C 0.75184 0.08623 0.48045 0.0
C2458 C 0.74058 0.09035 0.47063 0.0
C2459 C 0.727 0.0946 0.4763 0.0
C2460 C 0.74234 0.08917 0.45441 0.0
C2461 C 0.76652 0.08122 0.47491 0.0
C2462 C 0.75239 0.098 0.44678 0.0
C2463 C 0.75444 0.09614 0.43156 0.0
C2464 C 0.74645 0.08542 0.42374 0.0
C2465 C 0.73612 0.07688 0.43142 0.0
C2466 C 0.73408 0.07877 0.44658 0.0
H2467 H 0.77311 0.07594 0.48375 0.0
H2468 H 0.76527 0.07325 0.46566 0.0
H2469 H 0.77263 0.09092 0.47069 0.0
H2470 H 0.75872 0.10624 0.45261 0.0
H2471 H 0.76242 0.10296 0.42599 0.0
H2472 H 0.88497 0.70371 0.46933 0.0
H2473 H 0.89334 0.7059 0.49496 0.0
H2474 H 0.86721 0.74511 0.50056 0.0
H2475 H 0.85879 0.74304 0.47499 0.0
H2476 H 0.90788 0.73344 0.50613 0.0
H2477 H 0.85805 0.71751 0.53725 0.0
H2478 H 0.86126 0.71173 0.51841 0.0
H2479 H 0.85585 0.7304 0.52225 0.0
C2480 C 0.88085 0.71267 0.47608 0.0
C2481 C 0.87128 0.72325 0.47014 0.0
C2482 C 0.88566 0.71392 0.49068 0.0
C2483 C 0.8808 0.72561 0.49961 0.0
C2484 C 0.87095 0.73593 0.49385 0.0
H2485 H 0.90024 0.75338 0.58954 0.0
H2486 H 0.88992 0.75058 0.56475 0.0
C2487 C 0.86623 0.73478 0.47923 0.0
C2488 C 0.88679 0.7276 0.51462 0.0
H2489 H 0.87793 0.72638 0.55122 0.0
C2490 C 0.90138 0.73184 0.51602 0.0
C2491 C 0.87817 0.7257 0.5274 0.0
C2492 C 0.86247 0.72099 0.52637 0.0
C2493 C 0.90761 0.73436 0.52993 0.0
C2494 C 0.8991 0.73216 0.54279 0.0
C2495 C 0.88444 0.72802 0.54136 0.0
C2496 C 0.90529 0.73383 0.55781 0.0
C2497 C 0.92315 0.73968 0.5307 0.0
C2498 C 0.91721 0.72518 0.56218 0.0
C2499 C 0.9232 0.72684 0.57625 0.0
C2500 C 0.91726 0.73703 0.58634 0.0
C2501 C 0.90511 0.74546 0.58204 0.0
C2502 C 0.89919 0.74387 0.56789 0.0
H2503 H 0.92656 0.74505 0.52021 0.0
H2504 H 0.92469 0.74767 0.53989 0.0
H2505 H 0.93044 0.73008 0.53261 0.0
H2506 H 0.92185 0.71709 0.55472 0.0
H2507 H 0.93244 0.72002 0.57924 0.0
H2508 H 0.26496 0.92268 0.42801 0.0
H2509 H 0.26573 0.91987 0.45473 0.0
H2510 H 0.22565 0.89515 0.45357 0.0
H2511 H 0.22468 0.89805 0.42663 0.0
H2512 H 0.22511 0.91866 0.47312 0.0
H2513 H 0.27481 0.88549 0.48219 0.0
H2514 H 0.27811 0.90086 0.47011 0.0
H2515 H 0.2658 0.88645 0.46447 0.0
C2516 C 0.2564 0.91643 0.43335 0.0
C2517 C 0.24471 0.91065 0.42515 0.0
C2518 C 0.25694 0.91472 0.44866 0.0
C2519 C 0.24587 0.90712 0.45613 0.0
C2520 C 0.23438 0.90094 0.44798 0.0
H2521 H 0.23261 0.91325 0.5526 0.0
H2522 H 0.23022 0.90442 0.52714 0.0
C2523 C 0.23386 0.90259 0.43259 0.0
C2524 C 0.24563 0.90718 0.47251 0.0
H2525 H 0.26707 0.90084 0.50266 0.0
C2526 C 0.23411 0.91446 0.47965 0.0
C2527 C 0.25738 0.9017 0.48098 0.0
C2528 C 0.26965 0.89306 0.47405 0.0
C2529 C 0.2345 0.9173 0.4949 0.0
C2530 C 0.24665 0.91253 0.50322 0.0
C2531 C 0.25781 0.90456 0.49622 0.0
C2532 C 0.24859 0.91687 0.51888 0.0
C2533 C 0.22235 0.92614 0.50182 0.0
C2534 C 0.25996 0.92644 0.52274 0.0
C2535 C 0.2614 0.93149 0.53725 0.0
C2536 C 0.2515 0.92701 0.54824 0.0
C2537 C 0.24037 0.91702 0.54441 0.0
C2538 C 0.23894 0.91199 0.52986 0.0
H2539 H 0.21505 0.93113 0.49339 0.0
H2540 H 0.21572 0.91879 0.50896 0.0
H2541 H 0.22681 0.93512 0.50886 0.0
H2542 H 0.26753 0.93031 0.51442 0.0
H2543 H 0.27014 0.93909 0.53978 0.0
H2544 H 0.10119 0.71602 0.54942 0.0
H2545 H 0.1029 0.71514 0.52262 0.0
H2546 H 0.12772 0.7556 0.5227 0.0
H2547 H 0.12588 0.75671 0.54969 0.0
H2548 H 0.10348 0.75729 0.50563 0.0
H2549 H 0.13318 0.70613 0.49153 0.0
H2550 H 0.11909 0.70257 0.50476 0.0
H2551 H 0.13407 0.71443 0.50968 0.0
C2552 C 0.10733 0.72456 0.54381 0.0
C2553 C 0.11326 0.73653 0.55171 0.0
C2554 C 0.10842 0.72396 0.52845 0.0
C2555 C 0.11556 0.73522 0.52065 0.0
C2556 C 0.12225 0.74673 0.52853 0.0
H2557 H 0.09916 0.75239 0.42612 0.0
H2558 H 0.11106 0.75343 0.45029 0.0
C2559 C 0.12121 0.74733 0.54396 0.0
C2560 C 0.11398 0.73603 0.50437 0.0
H2561 H 0.11601 0.715 0.4731 0.0
C2562 C 0.10655 0.74823 0.49842 0.0
C2563 C 0.11795 0.72417 0.495 0.0
C2564 C 0.12665 0.71116 0.50056 0.0
C2565 C 0.10208 0.74842 0.4836 0.0
C2566 C 0.10533 0.73617 0.47445 0.0
C2567 C 0.11346 0.72433 0.48017 0.0
C2568 C 0.09922 0.73488 0.45938 0.0
C2569 C 0.09311 0.76129 0.47811 0.0
C2570 C 0.08894 0.72383 0.45637 0.0
C2571 C 0.08214 0.72316 0.44259 0.0
C2572 C 0.08552 0.73352 0.43152 0.0
C2573 C 0.09619 0.74431 0.43443 0.0
C2574 C 0.103 0.74495 0.44823 0.0
H2575 H 0.08942 0.76858 0.48727 0.0
H2576 H 0.09973 0.76803 0.47039 0.0
H2577 H 0.08339 0.7573 0.47201 0.0
H2578 H 0.08588 0.71595 0.46485 0.0
H2579 H 0.07405 0.71466 0.44074 0.0
H2580 H 0.24607 0.12595 0.45355 0.0
H2581 H 0.25448 0.12648 0.47906 0.0
H2582 H 0.29568 0.10804 0.46568 0.0
H2583 H 0.28727 0.10726 0.43994 0.0
H2584 H 0.26716 0.10152 0.49741 0.0
H2585 H 0.30368 0.14964 0.48684 0.0
H2586 H 0.28871 0.14535 0.47466 0.0
H2587 H 0.30454 0.13378 0.4748 0.0
C2588 C 0.25682 0.12175 0.45598 0.0
C2589 C 0.26598 0.11653 0.44469 0.0
C2590 C 0.26162 0.12209 0.47059 0.0
C2591 C 0.27569 0.11735 0.47417 0.0
C2592 C 0.28479 0.11178 0.46305 0.0
H2593 H 0.29744 0.12141 0.56926 0.0
H2594 H 0.29961 0.11347 0.54339 0.0
C2595 C 0.27995 0.11134 0.44839 0.0
C2596 C 0.28084 0.11911 0.4895 0.0
H2597 H 0.29938 0.14317 0.51159 0.0
C2598 C 0.2745 0.11036 0.50055 0.0
C2599 C 0.29034 0.13074 0.49344 0.0
C2600 C 0.29723 0.14051 0.48189 0.0
C2601 C 0.27683 0.11344 0.51556 0.0
C2602 C 0.28573 0.12555 0.5195 0.0
C2603 C 0.29266 0.13383 0.50845 0.0
C2604 C 0.28611 0.13108 0.53482 0.0
C2605 C 0.26902 0.10438 0.52711 0.0
C2606 C 0.27815 0.14381 0.53838 0.0
C2607 C 0.27683 0.14832 0.55305 0.0
C2608 C 0.28356 0.14021 0.56439 0.0
C2609 C 0.29217 0.12788 0.56073 0.0
C2610 C 0.29338 0.1233 0.546 0.0
H2611 H 0.26174 0.09594 0.52214 0.0
H2612 H 0.2771 0.09866 0.5342 0.0
H2613 H 0.26244 0.11172 0.53434 0.0
H2614 H 0.27248 0.14995 0.52985 0.0
H2615 H 0.27024 0.15793 0.55554 0.0
H2616 H 0.91351 0.27812 0.55418 0.0
H2617 H 0.91248 0.28002 0.52732 0.0
H2618 H 0.87989 0.24579 0.52599 0.0
H2619 H 0.88085 0.24371 0.55295 0.0
H2620 H 0.90436 0.2407 0.50779 0.0
H2621 H 0.88177 0.29682 0.4988 0.0
H2622 H 0.89653 0.29636 0.51178 0.0
H2623 H 0.87981 0.287 0.51608 0.0
C2624 C 0.90594 0.27113 0.54823 0.0
C2625 C 0.89732 0.26071 0.55573 0.0
C2626 C 0.9053 0.27232 0.53287 0.0
C2627 C 0.896 0.26316 0.52471 0.0
C2628 C 0.88706 0.25303 0.53214 0.0
H2629 H 0.898 0.24816 0.42879 0.0
H2630 H 0.89085 0.24712 0.45481 0.0
C2631 C 0.88763 0.25187 0.54754 0.0
C2632 C 0.89675 0.26321 0.50839 0.0
H2633 H 0.8942 0.28579 0.47829 0.0
C2634 C 0.90191 0.25046 0.50127 0.0
C2635 C 0.8936 0.27599 0.49999 0.0
C2636 C 0.88748 0.28979 0.50703 0.0
C2637 C 0.90471 0.25037 0.48603 0.0
C2638 C 0.90196 0.26331 0.47769 0.0
C2639 C 0.89632 0.2759 0.48474 0.0
C2640 C 0.90571 0.26428 0.46182 0.0
C2641 C 0.91125 0.23669 0.47914 0.0
C2642 C 0.91613 0.27456 0.4571 0.0
C2643 C 0.92017 0.27528 0.44225 0.0
C2644 C 0.91384 0.26572 0.43181 0.0
C2645 C 0.9032 0.25559 0.43655 0.0
C2646 C 0.89912 0.25494 0.45142 0.0
H2647 H 0.91566 0.22898 0.4876 0.0
H2648 H 0.90273 0.23074 0.47282 0.0
H2649 H 0.92014 0.23966 0.47137 0.0
H2650 H 0.92132 0.28189 0.46496 0.0
H2651 H 0.92837 0.28324 0.439 0.0
H2652 H 0.76115 0.87388 0.44283 0.0
H2653 H 0.75555 0.87591 0.46906 0.0
H2654 H 0.71602 0.89946 0.4588 0.0
H2655 H 0.72157 0.89753 0.43232 0.0
H2656 H 0.75015 0.90263 0.48621 0.0
H2657 H 0.70328 0.86347 0.48501 0.0
H2658 H 0.71652 0.86411 0.47028 0.0
H2659 H 0.70342 0.87869 0.47217 0.0
C2660 C 0.75134 0.87964 0.44609 0.0
C2661 C 0.74183 0.88559 0.43549 0.0
C2662 C 0.74814 0.88076 0.4611 0.0
C2663 C 0.73535 0.88775 0.46581 0.0
C2664 C 0.72589 0.8939 0.45532 0.0
H2665 H 0.71392 0.88475 0.56131 0.0
H2666 H 0.71148 0.89183 0.53517 0.0
C2667 C 0.7291 0.89282 0.44024 0.0
C2668 C 0.73205 0.8882 0.48177 0.0
H2669 H 0.71192 0.87082 0.5083 0.0
C2670 C 0.74159 0.89594 0.49105 0.0
C2671 C 0.72083 0.8795 0.488 0.0
C2672 C 0.71041 0.87088 0.47843 0.0
C2673 C 0.74074 0.89453 0.50644 0.0
C2674 C 0.73019 0.88502 0.51262 0.0
C2675 C 0.71999 0.87809 0.50343 0.0
C2676 C 0.73105 0.8805 0.52825 0.0
C2677 C 0.75157 0.90264 0.51598 0.0
C2678 C 0.74261 0.8715 0.53278 0.0
C2679 C 0.74397 0.86736 0.54753 0.0
C2680 C 0.73381 0.87221 0.55807 0.0
C2681 C 0.72195 0.88089 0.55343 0.0
C2682 C 0.72055 0.88498 0.53856 0.0
H2683 H 0.75635 0.91226 0.51009 0.0
H2684 H 0.74639 0.90657 0.52636 0.0
H2685 H 0.76054 0.895 0.51899 0.0
H2686 H 0.75067 0.86774 0.52487 0.0
H2687 H 0.75306 0.86042 0.55066 0.0
H2688 H 0.43752 0.08295 0.27202 0.0
H2689 H 0.46381 0.08614 0.27527 0.0
H2690 H 0.46835 0.09516 0.22868 0.0
H2691 H 0.44229 0.09175 0.22529 0.0
H2692 H 0.49046 0.07749 0.23962 0.0
H2693 H 0.48198 0.12732 0.27477 0.0
H2694 H 0.47366 0.11057 0.28127 0.0
H2695 H 0.46741 0.11892 0.2644 0.0
C2696 C 0.44416 0.0854 0.26244 0.0
C2697 C 0.43781 0.0872 0.24842 0.0
C2698 C 0.45915 0.08731 0.26434 0.0
C2699 C 0.46795 0.09118 0.25226 0.0
C2700 C 0.46173 0.09224 0.23815 0.0
H2701 H 0.54981 0.1263 0.2279 0.0
H2702 H 0.52536 0.11606 0.23014 0.0
C2703 C 0.44681 0.09027 0.23624 0.0
C2704 C 0.48351 0.09493 0.25422 0.0
H2705 H 0.50611 0.121 0.26901 0.0
C2706 C 0.49391 0.0869 0.24617 0.0
C2707 C 0.48796 0.10724 0.26278 0.0
C2708 C 0.4772 0.11661 0.27122 0.0
C2709 C 0.50859 0.09109 0.24613 0.0
C2710 C 0.51291 0.10369 0.25425 0.0
C2711 C 0.50268 0.11134 0.26281 0.0
C2712 C 0.52778 0.10974 0.25307 0.0
C2713 C 0.51933 0.08219 0.2372 0.0
C2714 C 0.53707 0.10989 0.26535 0.0
C2715 C 0.55113 0.11566 0.26408 0.0
C2716 C 0.55603 0.12148 0.25054 0.0
C2717 C 0.54651 0.12165 0.2384 0.0
C2718 C 0.53253 0.1158 0.23965 0.0
H2719 H 0.51513 0.07096 0.23466 0.0
H2720 H 0.52145 0.08795 0.22658 0.0
H2721 H 0.52984 0.08111 0.24316 0.0
H2722 H 0.5335 0.10539 0.27584 0.0
H2723 H 0.55819 0.11541 0.27366 0.0
H2724 H 0.90275 0.56569 0.24345 0.0
H2725 H 0.8927 0.54062 0.24392 0.0
H2726 H 0.9176 0.53093 0.28312 0.0
H2727 H 0.92765 0.5559 0.28283 0.0
H2728 H 0.90882 0.51394 0.24268 0.0
H2729 H 0.87612 0.51743 0.294 0.0
H2730 H 0.88242 0.53361 0.28419 0.0
H2731 H 0.89452 0.52369 0.29627 0.0
C2732 C 0.90602 0.55827 0.25224 0.0
C2733 C 0.91601 0.56284 0.26312 0.0
C2734 C 0.90025 0.54396 0.25249 0.0
C2735 C 0.90423 0.53403 0.26369 0.0
C2736 C 0.91416 0.53854 0.27456 0.0
H2737 H 0.90299 0.44466 0.28847 0.0
H2738 H 0.90354 0.47145 0.28602 0.0
C2739 C 0.91998 0.5528 0.2743 0.0
C2740 C 0.89873 0.51864 0.26362 0.0
H2741 H 0.88169 0.49303 0.28523 0.0
C2742 C 0.90265 0.50938 0.25183 0.0
C2743 C 0.89065 0.51281 0.27556 0.0
C2744 C 0.88555 0.52243 0.28816 0.0
C2745 C 0.89949 0.4942 0.25211 0.0
C2746 C 0.89197 0.48822 0.26438 0.0
C2747 C 0.88745 0.49764 0.27584 0.0
C2748 C 0.8902 0.47206 0.26634 0.0
C2749 C 0.90497 0.48453 0.23969 0.0
C2750 C 0.88214 0.46351 0.2563 0.0
C2751 C 0.88184 0.44807 0.25763 0.0
C2752 C 0.88956 0.44098 0.26905 0.0
C2753 C 0.89702 0.4497 0.27946 0.0
C2754 C 0.89731 0.46505 0.27812 0.0
H2755 H 0.91277 0.49046 0.23241 0.0
H2756 H 0.9104 0.4745 0.24414 0.0
H2757 H 0.89564 0.48089 0.23282 0.0
H2758 H 0.87636 0.46874 0.24728 0.0
H2759 H 0.87592 0.4417 0.24947 0.0
H2760 H 0.55177 0.90451 0.22565 0.0
H2761 H 0.52577 0.90073 0.22891 0.0
H2762 H 0.53016 0.90852 0.27573 0.0
H2763 H 0.55639 0.91212 0.27259 0.0
H2764 H 0.51613 0.88276 0.26968 0.0
H2765 H 0.49164 0.92774 0.23659 0.0
H2766 H 0.50493 0.91761 0.22618 0.0
H2767 H 0.51048 0.92796 0.24223 0.0
C2768 C 0.5472 0.90579 0.2366 0.0
C2769 C 0.55616 0.90863 0.24886 0.0
C2770 C 0.53228 0.90369 0.23844 0.0
C2771 C 0.52598 0.90453 0.25254 0.0
C2772 C 0.5348 0.90791 0.26474 0.0
H2773 H 0.43693 0.87824 0.27654 0.0
H2774 H 0.46166 0.88823 0.278 0.0
C2775 C 0.54977 0.91 0.26292 0.0
C2776 C 0.51054 0.90032 0.2546 0.0
H2777 H 0.47639 0.90648 0.24114 0.0
C2778 C 0.50738 0.88813 0.26368 0.0
C2779 C 0.49916 0.90733 0.24674 0.0
C2780 C 0.5017 0.92098 0.23751 0.0
C2781 C 0.49327 0.88229 0.2645 0.0
C2782 C 0.48206 0.88889 0.2561 0.0
C2783 C 0.48508 0.9014 0.24747 0.0
C2784 C 0.46729 0.8825 0.25551 0.0
C2785 C 0.49054 0.86871 0.27379 0.0
C2786 C 0.46236 0.87595 0.2424 0.0
C2787 C 0.44831 0.87017 0.24154 0.0
C2788 C 0.43888 0.871 0.25374 0.0
C2789 C 0.44394 0.87739 0.26696 0.0
C2790 C 0.45804 0.88312 0.26782 0.0
H2791 H 0.50079 0.86374 0.27799 0.0
H2792 H 0.48366 0.87174 0.2834 0.0
H2793 H 0.48457 0.86025 0.26728 0.0
H2794 H 0.4694 0.87532 0.23281 0.0
H2795 H 0.44485 0.86515 0.23128 0.0
H2796 H 0.13814 0.53117 0.242 0.0
H2797 H 0.13029 0.5055 0.24502 0.0
H2798 H 0.11029 0.5166 0.28669 0.0
H2799 H 0.11801 0.54236 0.28373 0.0
H2800 H 0.13602 0.48533 0.27002 0.0
H2801 H 0.07733 0.49745 0.26081 0.0
H2802 H 0.09156 0.51003 0.25522 0.0
H2803 H 0.08657 0.5086 0.27434 0.0
C2804 C 0.13207 0.52817 0.25181 0.0
C2805 C 0.12856 0.53881 0.26256 0.0
C2806 C 0.12765 0.5135 0.25353 0.0
C2807 C 0.11957 0.50927 0.26597 0.0
C2808 C 0.11637 0.51975 0.27692 0.0
H2809 H 0.07699 0.42626 0.28818 0.0
H2810 H 0.0859 0.45173 0.28806 0.0
C2811 C 0.12085 0.53442 0.27524 0.0
C2812 C 0.11434 0.49389 0.26734 0.0
H2813 H 0.0836 0.47279 0.2664 0.0
C2814 C 0.12457 0.48255 0.26925 0.0
C2815 C 0.09939 0.49039 0.26639 0.0
C2816 C 0.08803 0.5022 0.26398 0.0
C2817 C 0.12023 0.46772 0.27031 0.0
C2818 C 0.10529 0.46417 0.26906 0.0
C2819 C 0.09505 0.47556 0.26733 0.0
C2820 C 0.10006 0.44868 0.2692 0.0
C2821 C 0.13165 0.45602 0.27298 0.0
C2822 C 0.10491 0.4386 0.25849 0.0
C2823 C 0.09991 0.42403 0.25855 0.0
C2824 C 0.08981 0.41929 0.26924 0.0
C2825 C 0.08478 0.42951 0.2798 0.0
C2826 C 0.08986 0.44407 0.27977 0.0
H2827 H 0.14164 0.4608 0.27796 0.0
H2828 H 0.1275 0.44717 0.28036 0.0
H2829 H 0.13473 0.45093 0.26226 0.0
H2830 H 0.1125 0.44204 0.25 0.0
H2831 H 0.10392 0.41651 0.25017 0.0
H2832 H 0.42979 0.91443 0.76108 0.0
H2833 H 0.45616 0.91828 0.76078 0.0
H2834 H 0.45975 0.8886 0.72351 0.0
H2835 H 0.43335 0.88586 0.72309 0.0
H2836 H 0.47556 0.90087 0.76679 0.0
H2837 H 0.48794 0.91757 0.70987 0.0
H2838 H 0.46951 0.91714 0.71667 0.0
H2839 H 0.47779 0.90073 0.70894 0.0
C2840 C 0.43627 0.90903 0.75266 0.0
C2841 C 0.42969 0.89988 0.74209 0.0
C2842 C 0.45131 0.91122 0.75246 0.0
C2843 C 0.46005 0.90394 0.74195 0.0
C2844 C 0.45333 0.89485 0.73135 0.0
H2845 H 0.54198 0.86644 0.76056 0.0
H2846 H 0.51678 0.87445 0.75832 0.0
C2847 C 0.43825 0.89311 0.73122 0.0
C2848 C 0.47618 0.90436 0.74317 0.0
H2849 H 0.50728 0.90369 0.72256 0.0
C2850 C 0.48246 0.90186 0.75711 0.0
C2851 C 0.48541 0.90607 0.73074 0.0
C2852 C 0.47976 0.91072 0.71578 0.0
C2853 C 0.49748 0.90002 0.75878 0.0
C2854 C 0.50645 0.89978 0.74606 0.0
C2855 C 0.50038 0.90338 0.73228 0.0
C2856 C 0.52182 0.8948 0.74674 0.0
C2857 C 0.50351 0.89826 0.77421 0.0
C2858 C 0.53302 0.90306 0.74011 0.0
C2859 C 0.54745 0.89816 0.7409 0.0
C2860 C 0.55086 0.88507 0.74851 0.0
C2861 C 0.53964 0.8767 0.75484 0.0
C2862 C 0.52525 0.88137 0.7537 0.0
H2863 H 0.49689 0.90458 0.78232 0.0
H2864 H 0.503 0.88643 0.77746 0.0
H2865 H 0.51495 0.9021 0.77496 0.0
H2866 H 0.53063 0.91337 0.73452 0.0
H2867 H 0.55597 0.90479 0.73594 0.0
H2868 H 0.09178 0.48392 0.70458 0.0
H2869 H 0.0821 0.5089 0.70879 0.0
H2870 H 0.11013 0.51378 0.74668 0.0
H2871 H 0.11996 0.4891 0.74249 0.0
H2872 H 0.06834 0.52035 0.73524 0.0
H2873 H 0.11907 0.55045 0.72094 0.0
H2874 H 0.11598 0.53142 0.71575 0.0
H2875 H 0.12134 0.53593 0.73431 0.0
C2876 C 0.09589 0.49034 0.71378 0.0
C2877 C 0.10662 0.48453 0.72321 0.0
C2878 C 0.09034 0.50457 0.71618 0.0
C2879 C 0.09556 0.5132 0.72793 0.0
C2880 C 0.10613 0.50736 0.73742 0.0
H2881 H 0.07941 0.60159 0.76156 0.0
H2882 H 0.08781 0.57617 0.7577 0.0
C2883 C 0.11164 0.49319 0.73506 0.0
C2884 C 0.08989 0.5283 0.73046 0.0
H2885 H 0.10019 0.56453 0.73198 0.0
C2886 C 0.07525 0.53004 0.73444 0.0
C2887 C 0.099 0.54086 0.72948 0.0
C2888 C 0.1147 0.53965 0.72477 0.0
C2889 C 0.06951 0.54404 0.73777 0.0
C2890 C 0.07862 0.55661 0.73681 0.0
C2891 C 0.09326 0.55485 0.73278 0.0
C2892 C 0.07312 0.57175 0.73955 0.0
C2893 C 0.05384 0.54521 0.74261 0.0
C2894 C 0.06216 0.57768 0.73056 0.0
C2895 C 0.05733 0.59215 0.73273 0.0
C2896 C 0.06345 0.60105 0.74388 0.0
C2897 C 0.07444 0.59505 0.7529 0.0
C2898 C 0.07926 0.58054 0.75071 0.0
H2899 H 0.04961 0.53445 0.74669 0.0
H2900 H 0.05254 0.55361 0.75147 0.0
H2901 H 0.04708 0.54864 0.73305 0.0
H2902 H 0.0575 0.57119 0.72168 0.0
H2903 H 0.04889 0.59638 0.72552 0.0
H2904 H 0.46982 0.10823 0.72781 0.0
H2905 H 0.49573 0.102 0.72769 0.0
H2906 H 0.4912 0.08164 0.7706 0.0
H2907 H 0.46551 0.08841 0.77099 0.0
H2908 H 0.51381 0.09867 0.77059 0.0
H2909 H 0.51638 0.06421 0.72014 0.0
H2910 H 0.50927 0.08226 0.71632 0.0
H2911 H 0.49936 0.06988 0.72825 0.0
C2912 C 0.47435 0.10225 0.73711 0.0
C2913 C 0.4657 0.09889 0.74946 0.0
C2914 C 0.48914 0.09862 0.73701 0.0
C2915 C 0.49543 0.09116 0.74906 0.0
C2916 C 0.48664 0.08743 0.76119 0.0
H2917 H 0.58127 0.05143 0.74686 0.0
H2918 H 0.55518 0.05643 0.74742 0.0
C2919 C 0.47195 0.09133 0.76143 0.0
C2920 C 0.51128 0.08798 0.74946 0.0
H2921 H 0.53911 0.07228 0.73001 0.0
C2922 C 0.51932 0.09279 0.76176 0.0
C2923 C 0.51847 0.08015 0.73803 0.0
C2924 C 0.51039 0.07369 0.72503 0.0
C2925 C 0.5343 0.09008 0.76294 0.0
C2926 C 0.54161 0.08286 0.7512 0.0
C2927 C 0.53356 0.07797 0.73894 0.0
C2928 C 0.5575 0.07991 0.75152 0.0
C2929 C 0.54201 0.09464 0.77695 0.0
C2930 C 0.56755 0.09142 0.75368 0.0
C2931 C 0.5825 0.08852 0.75368 0.0
C2932 C 0.58767 0.07413 0.7511 0.0
C2933 C 0.57761 0.06265 0.74882 0.0
C2934 C 0.56269 0.0655 0.74912 0.0
H2935 H 0.53432 0.09555 0.78638 0.0
H2936 H 0.55069 0.08664 0.77995 0.0
H2937 H 0.54705 0.10566 0.7753 0.0
H2938 H 0.56386 0.1027 0.75512 0.0
H2939 H 0.59001 0.09761 0.75528 0.0
H2940 H 0.90733 0.51635 0.70728 0.0
H2941 H 0.91799 0.49153 0.70985 0.0
H2942 H 0.89005 0.48297 0.74716 0.0
H2943 H 0.87929 0.50743 0.74461 0.0
H2944 H 0.93199 0.47877 0.73593 0.0
H2945 H 0.88269 0.44792 0.71863 0.0
H2946 H 0.88526 0.46732 0.71465 0.0
H2947 H 0.87946 0.46152 0.73272 0.0
C2948 C 0.90346 0.50914 0.71599 0.0
C2949 C 0.89249 0.51385 0.72575 0.0
C2950 C 0.90956 0.49502 0.71746 0.0
C2951 C 0.90465 0.48541 0.72858 0.0
C2952 C 0.89383 0.49016 0.73838 0.0
H2953 H 0.921 0.3974 0.76093 0.0
H2954 H 0.9129 0.42285 0.75686 0.0
C2955 C 0.88777 0.50421 0.73696 0.0
C2956 C 0.91083 0.47041 0.73019 0.0
H2957 H 0.9014 0.43392 0.73024 0.0
C2958 C 0.92539 0.46893 0.73454 0.0
C2959 C 0.90211 0.45766 0.72841 0.0
C2960 C 0.88655 0.45862 0.72322 0.0
C2961 C 0.93137 0.45497 0.73765 0.0
C2962 C 0.92257 0.44224 0.73613 0.0
C2963 C 0.90808 0.44373 0.73151 0.0
C2964 C 0.92814 0.4272 0.73916 0.0
C2965 C 0.94689 0.454 0.74297 0.0
C2966 C 0.93939 0.42126 0.73056 0.0
C2967 C 0.94406 0.40674 0.73285 0.0
C2968 C 0.93748 0.39785 0.74373 0.0
C2969 C 0.92631 0.40392 0.75247 0.0
C2970 C 0.92166 0.41845 0.75015 0.0
H2971 H 0.95094 0.46484 0.74704 0.0
H2972 H 0.94797 0.44573 0.75198 0.0
H2973 H 0.95397 0.45046 0.73368 0.0
H2974 H 0.94434 0.42773 0.72183 0.0
H2975 H 0.95266 0.40244 0.72588 0.0
H2976 H 0.22226 0.53825 0.09909 0.0
H2977 H 0.22368 0.51135 0.09756 0.0
H2978 H 0.26905 0.51428 0.08589 0.0
H2979 H 0.26774 0.54134 0.08726 0.0
H2980 H 0.23276 0.49414 0.07204 0.0
H2981 H 0.26708 0.4849 0.12186 0.0
H2982 H 0.25705 0.50183 0.11885 0.0
H2983 H 0.27356 0.49842 0.10883 0.0
C2984 C 0.23253 0.53323 0.09608 0.0
C2985 C 0.24487 0.54196 0.09319 0.0
C2986 C 0.23333 0.51784 0.09528 0.0
C2987 C 0.24649 0.51087 0.09176 0.0
C2988 C 0.25884 0.51949 0.08882 0.0
H2989 H 0.26038 0.42056 0.06403 0.0
H2990 H 0.26069 0.44736 0.06714 0.0
C2991 C 0.25804 0.53493 0.08953 0.0
C2992 C 0.24712 0.49457 0.09082 0.0
H2993 H 0.26152 0.46388 0.10729 0.0
C2994 C 0.23905 0.48751 0.07973 0.0
C2995 C 0.25522 0.48601 0.10099 0.0
C2996 C 0.26366 0.4931 0.1134 0.0
C2997 C 0.23902 0.47206 0.0784 0.0
C2998 C 0.24732 0.46351 0.08839 0.0
C2999 C 0.25524 0.47053 0.09962 0.0
C3000 C 0.24792 0.44723 0.0872 0.0
C3001 C 0.23001 0.46495 0.06641 0.0
C3002 C 0.2409 0.43831 0.09768 0.0
C3003 C 0.24064 0.42294 0.09594 0.0
C3004 C 0.24751 0.41626 0.08373 0.0
C3005 C 0.25494 0.42528 0.07354 0.0
C3006 C 0.25511 0.44062 0.07526 0.0
H3007 H 0.22218 0.47285 0.06139 0.0
H3008 H 0.23732 0.46082 0.05756 0.0
H3009 H 0.22389 0.45535 0.07087 0.0
H3010 H 0.23532 0.44328 0.10699 0.0
H3011 H 0.23487 0.41633 0.10402 0.0
H3012 H 0.27025 0.54009 0.86314 0.0
H3013 H 0.272 0.51306 0.86556 0.0
H3014 H 0.23112 0.51255 0.88899 0.0
H3015 H 0.22922 0.53929 0.88627 0.0
H3016 H 0.27308 0.4946 0.88855 0.0
H3017 H 0.22297 0.48315 0.8569 0.0
H3018 H 0.2312 0.50124 0.85741 0.0
H3019 H 0.21933 0.4953 0.87211 0.0
C3020 C 0.26167 0.53414 0.86879 0.0
C3021 C 0.24939 0.54167 0.87415 0.0
C3022 C 0.26266 0.51874 0.87015 0.0
C3023 C 0.25144 0.51074 0.87703 0.0
C3024 C 0.2396 0.51841 0.8831 0.0
H3025 H 0.2535 0.42414 0.91589 0.0
H3026 H 0.25549 0.45038 0.90996 0.0
C3027 C 0.23851 0.53371 0.88154 0.0
C3028 C 0.25205 0.49438 0.87805 0.0
H3029 H 0.23178 0.46335 0.87218 0.0
C3030 C 0.26414 0.48773 0.88481 0.0
C3031 C 0.24056 0.48538 0.87282 0.0
C3032 C 0.22788 0.49163 0.86426 0.0
C3033 C 0.26472 0.47239 0.88711 0.0
C3034 C 0.25268 0.46354 0.88296 0.0
C3035 C 0.24091 0.47013 0.8756 0.0
C3036 C 0.25182 0.44753 0.88648 0.0
C3037 C 0.27829 0.46585 0.89386 0.0
C3038 C 0.2485 0.43722 0.87538 0.0
C3039 C 0.24696 0.42223 0.87881 0.0
C3040 C 0.24885 0.41726 0.89341 0.0
C3041 C 0.25215 0.4276 0.90451 0.0
C3042 C 0.25344 0.4426 0.90111 0.0
H3043 H 0.28797 0.47281 0.89149 0.0
H3044 H 0.27698 0.46534 0.90604 0.0
H3045 H 0.28039 0.4545 0.88968 0.0
H3046 H 0.24709 0.44077 0.86403 0.0
H3047 H 0.24447 0.41452 0.87001 0.0
H3048 H 0.43612 0.28067 0.9372 0.0
H3049 H 0.4611 0.28387 0.92869 0.0
H3050 H 0.45639 0.24629 0.89975 0.0
H3051 H 0.43125 0.24308 0.90802 0.0
H3052 H 0.48475 0.26457 0.92955 0.0
H3053 H 0.47011 0.27917 0.87185 0.0
H3054 H 0.45694 0.27891 0.88665 0.0
H3055 H 0.4626 0.26192 0.87806 0.0
C3056 C 0.44036 0.27304 0.92904 0.0
C3057 C 0.4316 0.26168 0.9232 0.0
C3058 C 0.45466 0.2749 0.9242 0.0
C3059 C 0.46048 0.2655 0.9134 0.0
C3060 C 0.45197 0.25387 0.90786 0.0
H3061 H 0.54189 0.25306 0.86969 0.0
H3062 H 0.51702 0.25268 0.87902 0.0
C3063 C 0.43764 0.252 0.91268 0.0
C3064 C 0.47548 0.26788 0.90795 0.0
H3065 H 0.49517 0.27488 0.87673 0.0
C3066 C 0.48705 0.26694 0.91803 0.0
C3067 C 0.4784 0.27108 0.89293 0.0
C3068 C 0.46636 0.27298 0.88175 0.0
C3069 C 0.50153 0.2686 0.91339 0.0
C3070 C 0.50444 0.27147 0.89831 0.0
C3071 C 0.49287 0.27269 0.88829 0.0
C3072 C 0.51947 0.27225 0.89252 0.0
C3073 C 0.51362 0.26675 0.92452 0.0
C3074 C 0.52902 0.28357 0.89684 0.0
C3075 C 0.54333 0.28382 0.89152 0.0
C3076 C 0.54825 0.27273 0.88185 0.0
C3077 C 0.5385 0.26165 0.8773 0.0
C3078 C 0.52426 0.26144 0.88256 0.0
H3079 H 0.50966 0.2619 0.93506 0.0
H3080 H 0.52235 0.25956 0.92 0.0
H3081 H 0.51844 0.27772 0.92697 0.0
H3082 H 0.52543 0.29215 0.90436 0.0
H3083 H 0.55059 0.29251 0.89518 0.0
H3084 H 0.75445 0.5827 0.87712 0.0
H3085 H 0.75347 0.55609 0.87223 0.0
H3086 H 0.73744 0.54843 0.91635 0.0
H3087 H 0.73844 0.57492 0.92143 0.0
H3088 H 0.76071 0.52975 0.90776 0.0
H3089 H 0.71635 0.53074 0.86608 0.0
H3090 H 0.73114 0.54322 0.86247 0.0
H3091 H 0.71986 0.54602 0.87844 0.0
C3092 C 0.75071 0.57537 0.8858 0.0
C3093 C 0.74649 0.58098 0.89966 0.0
C3094 C 0.75006 0.56018 0.88294 0.0
C3095 C 0.74517 0.55035 0.89386 0.0
C3096 C 0.74115 0.55586 0.90775 0.0
H3097 H 0.72583 0.45602 0.88392 0.0
H3098 H 0.72408 0.48254 0.88956 0.0
C3099 C 0.74174 0.57102 0.91061 0.0
C3100 C 0.74468 0.53425 0.891 0.0
H3101 H 0.72889 0.50792 0.8692 0.0
C3102 C 0.75371 0.52497 0.89939 0.0
C3103 C 0.73538 0.52805 0.8802 0.0
C3104 C 0.72502 0.53747 0.87135 0.0
C3105 C 0.75399 0.50965 0.89697 0.0
C3106 C 0.74509 0.50352 0.88581 0.0
C3107 C 0.73575 0.51272 0.87769 0.0
C3108 C 0.74584 0.48763 0.88203 0.0
C3109 C 0.76382 0.50012 0.90634 0.0
C3110 C 0.75852 0.48187 0.87567 0.0
C3111 C 0.75953 0.46684 0.87239 0.0
C3112 C 0.74788 0.45725 0.87545 0.0
C3113 C 0.73502 0.46311 0.88151 0.0
C3114 C 0.734 0.47823 0.88474 0.0
H3115 H 0.76735 0.50594 0.91654 0.0
H3116 H 0.75827 0.48968 0.9095 0.0
H3117 H 0.77367 0.4972 0.89988 0.0
H3118 H 0.76767 0.48903 0.87326 0.0
H3119 H 0.76947 0.46277 0.86743 0.0
H3120 H 0.446 0.75933 0.87098 0.0
H3121 H 0.47124 0.75932 0.8795 0.0
H3122 H 0.46383 0.71815 0.90237 0.0
H3123 H 0.43863 0.71798 0.89375 0.0
H3124 H 0.48119 0.75986 0.90806 0.0
H3125 H 0.50083 0.70944 0.87948 0.0
H3126 H 0.4839 0.71838 0.87472 0.0
H3127 H 0.48488 0.70624 0.89046 0.0
C3128 C 0.44976 0.75024 0.87777 0.0
C3129 C 0.44032 0.73866 0.88171 0.0
C3130 C 0.46418 0.75024 0.8826 0.0
C3131 C 0.46946 0.73865 0.89141 0.0
C3132 C 0.46008 0.72704 0.89531 0.0
H3133 H 0.54673 0.71876 0.94057 0.0
H3134 H 0.52245 0.72045 0.92988 0.0
C3135 C 0.44566 0.72699 0.89043 0.0
C3136 C 0.48458 0.73902 0.89705 0.0
H3137 H 0.51613 0.71915 0.89846 0.0
C3138 C 0.48889 0.75104 0.90585 0.0
C3139 C 0.4946 0.72752 0.89409 0.0
C3140 C 0.49089 0.71474 0.88405 0.0
C3141 C 0.50281 0.75162 0.91218 0.0
C3142 C 0.51268 0.73993 0.90952 0.0
C3143 C 0.50847 0.72805 0.90052 0.0
C3144 C 0.52727 0.73954 0.91636 0.0
C3145 C 0.50675 0.76447 0.92203 0.0
C3146 C 0.53801 0.74979 0.9123 0.0
C3147 C 0.55197 0.74886 0.91838 0.0
C3148 C 0.55541 0.73765 0.9286 0.0
C3149 C 0.5445 0.72755 0.93276 0.0
C3150 C 0.5306 0.72846 0.92664 0.0
H3151 H 0.49708 0.77118 0.9251 0.0
H3152 H 0.5121 0.7605 0.93229 0.0
H3153 H 0.51454 0.77176 0.91615 0.0
H3154 H 0.53566 0.75831 0.90424 0.0
H3155 H 0.56011 0.75679 0.9149 0.0
H3156 H 0.7357 0.59455 0.05534 0.0
H3157 H 0.72973 0.56826 0.05562 0.0
H3158 H 0.75264 0.56315 0.09687 0.0
H3159 H 0.75866 0.58949 0.09679 0.0
H3160 H 0.75056 0.5453 0.05584 0.0
H3161 H 0.71338 0.54186 0.10404 0.0
H3162 H 0.7174 0.55908 0.09475 0.0
H3163 H 0.73013 0.5514 0.10774 0.0
C3164 C 0.73935 0.58791 0.06459 0.0
C3165 C 0.7477 0.59416 0.07605 0.0
C3166 C 0.73591 0.57288 0.06471 0.0
C3167 C 0.74059 0.56383 0.07634 0.0
C3168 C 0.7487 0.57003 0.08793 0.0
H3169 H 0.76148 0.47451 0.08769 0.0
H3170 H 0.75973 0.50095 0.08328 0.0
C3171 C 0.75221 0.58507 0.0878 0.0
C3172 C 0.73799 0.54771 0.0758 0.0
H3173 H 0.72333 0.51899 0.09523 0.0
C3174 C 0.74442 0.53956 0.06432 0.0
C3175 C 0.72983 0.54029 0.08678 0.0
C3176 C 0.72216 0.5486 0.09896 0.0
C3177 C 0.74356 0.52409 0.06398 0.0
C3178 C 0.73612 0.51664 0.07543 0.0
C3179 C 0.72904 0.52479 0.08648 0.0
C3180 C 0.73705 0.50044 0.07702 0.0
C3181 C 0.75098 0.51575 0.05167 0.0
C3182 C 0.72482 0.4914 0.07494 0.0
C3183 C 0.72584 0.47611 0.07725 0.0
C3184 C 0.73904 0.46975 0.0819 0.0
C3185 C 0.75122 0.47893 0.0839 0.0
C3186 C 0.75024 0.49409 0.08142 0.0
H3187 H 0.75331 0.523 0.04204 0.0
H3188 H 0.76145 0.51123 0.05578 0.0
H3189 H 0.74418 0.50631 0.04795 0.0
H3190 H 0.71452 0.49619 0.07163 0.0
H3191 H 0.71623 0.46935 0.07573 0.0
H3192 H 0.5356 0.75214 0.1533 0.0
H3193 H 0.51144 0.74989 0.14233 0.0
H3194 H 0.52314 0.70756 0.12392 0.0
H3195 H 0.54755 0.70979 0.13468 0.0
H3196 H 0.50818 0.74371 0.10827 0.0
H3197 H 0.4815 0.704 0.14689 0.0
H3198 H 0.49596 0.71602 0.15307 0.0
H3199 H 0.49999 0.7009 0.14095 0.0
C3200 C 0.53306 0.74231 0.14698 0.0
C3201 C 0.54355 0.73123 0.1447 0.0
C3202 C 0.51924 0.74104 0.14076 0.0
C3203 C 0.51561 0.7286 0.13231 0.0
C3204 C 0.5258 0.71722 0.13047 0.0
H3205 H 0.42805 0.71532 0.09571 0.0
H3206 H 0.45379 0.71078 0.10125 0.0
C3207 C 0.5397 0.71851 0.13665 0.0
C3208 C 0.50137 0.72808 0.12483 0.0
H3209 H 0.46686 0.71481 0.12849 0.0
C3210 C 0.49916 0.73725 0.11254 0.0
C3211 C 0.48977 0.7195 0.13037 0.0
C3212 C 0.49178 0.70952 0.14356 0.0
C3213 C 0.48543 0.73849 0.10593 0.0
C3214 C 0.47358 0.73061 0.11201 0.0
C3215 C 0.47597 0.72086 0.12386 0.0
C3216 C 0.45842 0.73345 0.10726 0.0
C3217 C 0.48371 0.74841 0.09263 0.0
C3218 C 0.45254 0.74769 0.10878 0.0
C3219 C 0.43793 0.75031 0.10563 0.0
C3220 C 0.42884 0.73872 0.10099 0.0
C3221 C 0.4348 0.7245 0.09919 0.0
C3222 C 0.44948 0.72188 0.10237 0.0
H3223 H 0.49411 0.74949 0.08646 0.0
H3224 H 0.47523 0.74418 0.08499 0.0
H3225 H 0.48046 0.75963 0.09636 0.0
H3226 H 0.45915 0.7567 0.11291 0.0
H3227 H 0.43368 0.76134 0.10734 0.0
H3228 H 0.56992 0.28241 0.09144 0.0
H3229 H 0.54384 0.28556 0.09624 0.0
H3230 H 0.54044 0.2393 0.10737 0.0
H3231 H 0.56627 0.23602 0.10245 0.0
H3232 H 0.51761 0.24938 0.08985 0.0
H3233 H 0.52704 0.28626 0.13822 0.0
H3234 H 0.53484 0.29217 0.12098 0.0
H3235 H 0.54147 0.27568 0.12978 0.0
C3236 C 0.56357 0.27289 0.09475 0.0
C3237 C 0.57017 0.25897 0.09661 0.0
C3238 C 0.54871 0.27473 0.09758 0.0
C3239 C 0.54029 0.26271 0.1024 0.0
C3240 C 0.54676 0.24873 0.1037 0.0
H3241 H 0.45999 0.23781 0.14044 0.0
H3242 H 0.48446 0.24066 0.13038 0.0
C3243 C 0.56154 0.24687 0.10085 0.0
C3244 C 0.52485 0.26458 0.10663 0.0
H3245 H 0.50281 0.27977 0.133 0.0
C3246 C 0.51434 0.25616 0.09917 0.0
C3247 C 0.52064 0.27343 0.11882 0.0
C3248 C 0.53156 0.28234 0.12752 0.0
C3249 C 0.49981 0.25602 0.10384 0.0
C3250 C 0.49574 0.26441 0.11634 0.0
C3251 C 0.50606 0.27335 0.12342 0.0
C3252 C 0.48108 0.26311 0.12287 0.0
C3253 C 0.48894 0.24665 0.09558 0.0
C3254 C 0.47127 0.27497 0.12234 0.0
C3255 C 0.4572 0.27335 0.128 0.0
C3256 C 0.45281 0.25985 0.13433 0.0
C3257 C 0.46291 0.24823 0.13536 0.0
C3258 C 0.4769 0.24984 0.12964 0.0
H3259 H 0.49291 0.24368 0.08436 0.0
H3260 H 0.48703 0.23626 0.10181 0.0
H3261 H 0.47837 0.2525 0.09452 0.0
H3262 H 0.4744 0.28534 0.11726 0.0
H3263 H 0.44968 0.28253 0.12709 0.0
H3264 H 0.55901 0.76495 0.09513 0.0
H3265 H 0.56338 0.76404 0.06855 0.0
H3266 H 0.60207 0.73807 0.07579 0.0
H3267 H 0.59786 0.73892 0.10252 0.0
H3268 H 0.60516 0.76333 0.056 0.0
H3269 H 0.55856 0.72695 0.0416 0.0
H3270 H 0.55417 0.74262 0.05299 0.0
H3271 H 0.56573 0.72829 0.06014 0.0
C3272 C 0.56845 0.75899 0.09112 0.0
C3273 C 0.57807 0.75197 0.10099 0.0
C3274 C 0.57087 0.75845 0.07591 0.0
C3275 C 0.58295 0.75087 0.07025 0.0
C3276 C 0.59265 0.74392 0.08 0.0
H3277 H 0.60103 0.72655 0.97985 0.0
H3278 H 0.59658 0.72718 0.00642 0.0
C3279 C 0.5902 0.74439 0.09525 0.0
C3280 C 0.58555 0.75047 0.05414 0.0
H3281 H 0.57127 0.738 0.02165 0.0
C3282 C 0.5978 0.75777 0.04847 0.0
C3283 C 0.57594 0.74312 0.04442 0.0
C3284 C 0.56291 0.73468 0.05005 0.0
C3285 C 0.60058 0.75809 0.03322 0.0
C3286 C 0.59078 0.75103 0.02347 0.0
C3287 C 0.57866 0.74354 0.02918 0.0
C3288 C 0.59319 0.75083 0.00732 0.0
C3289 C 0.61407 0.76579 0.02765 0.0
C3290 C 0.59255 0.76393 -0.00097 0.0
C3291 C 0.59499 0.76361 0.98377 0.0
C3292 C 0.59806 0.75017 0.9766 0.0
C3293 C 0.59854 0.73707 0.98497 0.0
C3294 C 0.59606 0.7374 0.00018 0.0
H3295 H 0.62193 0.76803 0.03669 0.0
H3296 H 0.61955 0.75903 0.01904 0.0
H3297 H 0.61096 0.77651 0.02258 0.0
H3298 H 0.59016 0.77438 0.00435 0.0
H3299 H 0.59454 0.77388 0.97762 0.0
H3300 H 0.24632 0.59481 0.91983 0.0
H3301 H 0.2476 0.59736 0.94679 0.0
H3302 H 0.21212 0.56658 0.95151 0.0
H3303 H 0.21079 0.56384 0.92476 0.0
H3304 H 0.22547 0.60592 0.96784 0.0
H3305 H 0.24513 0.54862 0.97676 0.0
H3306 H 0.24572 0.55757 0.95893 0.0
H3307 H 0.22902 0.54963 0.96559 0.0
C3308 C 0.23876 0.58861 0.9266 0.0
C3309 C 0.22854 0.579 0.92011 0.0
C3310 C 0.23951 0.5901 0.94199 0.0
C3311 C 0.23012 0.58196 0.9511 0.0
C3312 C 0.21965 0.57274 0.94465 0.0
H3313 H 0.20795 0.56708 0.04093 0.0
H3314 H 0.20997 0.56931 0.01415 0.0
C3315 C 0.21888 0.57123 0.92934 0.0
C3316 C 0.23123 0.58284 0.96739 0.0
H3317 H 0.23609 0.56135 0.99799 0.0
C3318 C 0.22799 0.59626 0.97447 0.0
C3319 C 0.23462 0.57022 0.97596 0.0
C3320 C 0.23896 0.55573 0.96894 0.0
C3321 C 0.22732 0.59717 0.98997 0.0
C3322 C 0.23009 0.58436 0.99848 0.0
C3323 C 0.23386 0.57111 0.9914 0.0
C3324 C 0.2284 0.58414 0.01474 0.0
C3325 C 0.22308 0.6116 0.99714 0.0
C3326 C 0.23806 0.59185 0.02392 0.0
C3327 C 0.23697 0.59059 0.03931 0.0
C3328 C 0.22621 0.58155 0.04573 0.0
C3329 C 0.21637 0.57412 0.03641 0.0
C3330 C 0.2175 0.57537 0.02109 0.0
H3331 H 0.21915 0.61983 0.98894 0.0
H3332 H 0.21444 0.60976 0.00552 0.0
H3333 H 0.23266 0.61631 0.00291 0.0
H3334 H 0.24666 0.59853 0.0192 0.0
H3335 H 0.24473 0.59645 0.04613 0.0
H3336 H 0.40003 0.26031 0.09258 0.0
H3337 H 0.39414 0.26189 0.06622 0.0
H3338 H 0.42376 0.226 0.05716 0.0
H3339 H 0.42997 0.22455 0.08326 0.0
H3340 H 0.42689 0.24867 0.03769 0.0
H3341 H 0.3686 0.23336 0.04326 0.0
H3342 H 0.37402 0.24913 0.05399 0.0
H3343 H 0.38144 0.23121 0.05818 0.0
C3344 C 0.4053 0.25276 0.08497 0.0
C3345 C 0.41543 0.24226 0.09006 0.0
C3346 C 0.40185 0.25362 0.06993 0.0
C3347 C 0.40834 0.24389 0.05979 0.0
C3348 C 0.41859 0.23358 0.06481 0.0
H3349 H 0.40175 0.22076 0.96752 0.0
H3350 H 0.40697 0.22208 0.99407 0.0
C3351 C 0.42212 0.23277 0.07977 0.0
C3352 C 0.40465 0.2444 0.04386 0.0
H3353 H 0.37684 0.2397 0.01929 0.0
C3354 C 0.41594 0.24672 0.03367 0.0
C3355 C 0.39036 0.24182 0.03867 0.0
C3356 C 0.37791 0.23861 0.04906 0.0
C3357 C 0.41334 0.24649 0.01841 0.0
C3358 C 0.3991 0.2438 0.01325 0.0
C3359 C 0.38774 0.24174 0.02338 0.0
C3360 C 0.39584 0.24292 0.99731 0.0
C3361 C 0.42578 0.24917 0.00787 0.0
C3362 C 0.38771 0.25411 0.9905 0.0
C3363 C 0.38477 0.25343 0.97538 0.0
C3364 C 0.38981 0.24146 0.96687 0.0
C3365 C 0.39775 0.23013 0.97379 0.0
C3366 C 0.40079 0.23089 0.98891 0.0
H3367 H 0.43551 0.25367 0.0136 0.0
H3368 H 0.42887 0.23856 0.00254 0.0
H3369 H 0.42248 0.25698 -0.00098 0.0
H3370 H 0.38375 0.26343 0.99687 0.0
H3371 H 0.37849 0.26225 0.9704 0.0
H3372 H 0.74438 0.40856 0.04541 0.0
H3373 H 0.74515 0.40189 0.0192 0.0
H3374 H 0.78401 0.42797 0.01365 0.0
H3375 H 0.78348 0.43455 0.03976 0.0
H3376 H 0.74325 0.42175 0.99624 0.0
H3377 H 0.79457 0.39014 0.99188 0.0
H3378 H 0.78571 0.39362 0.00936 0.0
H3379 H 0.79708 0.40754 0.00106 0.0
C3380 C 0.75325 0.41268 0.03868 0.0
C3381 C 0.76386 0.42214 0.04472 0.0
C3382 C 0.75365 0.40885 0.0237 0.0
C3383 C 0.76474 0.41426 0.01452 0.0
C3384 C 0.77554 0.42338 0.02059 0.0
H3385 H 0.78584 0.43141 0.92565 0.0
H3386 H 0.7841 0.42746 0.95223 0.0
C3387 C 0.77514 0.42723 0.03553 0.0
C3388 C 0.76436 0.41165 0.99834 0.0
H3389 H 0.78547 0.4008 0.96924 0.0
C3390 C 0.75234 0.41689 0.99033 0.0
C3391 C 0.77622 0.40527 0.99068 0.0
C3392 C 0.78906 0.39869 -0.00129 0.0
C3393 C 0.75226 0.41679 0.97481 0.0
C3394 C 0.76444 0.4111 0.96714 0.0
C3395 C 0.77617 0.40521 0.97516 0.0
C3396 C 0.76582 0.41248 0.95089 0.0
C3397 C 0.73951 0.42353 0.96674 0.0
C3398 C 0.75627 0.40513 0.94128 0.0
C3399 C 0.7572 0.40739 0.92599 0.0
C3400 C 0.76773 0.41702 0.92008 0.0
C3401 C 0.77754 0.42399 0.92978 0.0
C3402 C 0.7766 0.42171 0.945 0.0
H3403 H 0.73211 0.42963 0.97431 0.0
H3404 H 0.74334 0.43125 0.95802 0.0
H3405 H 0.73316 0.41464 0.9613 0.0
H3406 H 0.748 0.3978 0.94562 0.0
H3407 H 0.74953 0.40178 0.91886 0.0
H3408 H 0.60622 0.26812 0.91873 0.0
H3409 H 0.61332 0.26682 0.9448 0.0
H3410 H 0.58529 0.22909 0.95087 0.0
H3411 H 0.57821 0.23019 0.92494 0.0
H3412 H 0.5944 0.26898 0.96926 0.0
H3413 H 0.62383 0.21551 0.96935 0.0
H3414 H 0.62006 0.22568 0.95259 0.0
H3415 H 0.6062 0.21439 0.96092 0.0
C3416 C 0.60168 0.25945 0.92557 0.0
C3417 C 0.59165 0.24925 0.91971 0.0
C3418 C 0.60575 0.25874 0.94046 0.0
C3419 C 0.6 0.24772 0.94968 0.0
C3420 C 0.59009 0.23749 0.94386 0.0
H3421 H 0.59037 0.22276 0.03904 0.0
H3422 H 0.5916 0.22563 0.01229 0.0
C3423 C 0.58598 0.23821 0.92903 0.0
C3424 C 0.60356 0.24737 0.96563 0.0
H3425 H 0.61581 0.22451 0.99295 0.0
C3426 C 0.59933 0.25939 0.97445 0.0
C3427 C 0.61001 0.23484 0.97231 0.0
C3428 C 0.61542 0.22193 0.96329 0.0
C3429 C 0.60058 0.25885 0.98991 0.0
C3430 C 0.60646 0.24605 0.99663 0.0
C3431 C 0.61127 0.23429 0.98775 0.0
C3432 C 0.60653 0.2441 0.01288 0.0
C3433 C 0.5949 0.27163 -0.00104 0.0
C3434 C 0.61473 0.25339 0.02207 0.0
C3435 C 0.61403 0.25182 0.03745 0.0
C3436 C 0.60515 0.24088 0.04386 0.0
C3437 C 0.59727 0.23135 0.03453 0.0
C3438 C 0.59798 0.23294 0.01921 0.0
H3439 H 0.58833 0.27944 0.99222 0.0
H3440 H 0.58811 0.26758 0.00826 0.0
H3441 H 0.60421 0.27783 0.0037 0.0
H3442 H 0.62158 0.26192 0.01737 0.0
H3443 H 0.62031 0.25929 0.04429 0.0
H3444 H 0.76525 0.6258 0.04238 0.0
H3445 H 0.77143 0.62165 0.01658 0.0
H3446 H 0.8162 0.63261 0.02569 0.0
H3447 H 0.80995 0.63682 0.05187 0.0
H3448 H 0.8021 0.64903 0.00191 0.0
H3449 H 0.79506 0.58865 0.99545 0.0
H3450 H 0.78061 0.59691 0.00595 0.0
H3451 H 0.79889 0.59725 0.01308 0.0
C3452 C 0.77639 0.62737 0.03894 0.0
C3453 C 0.78706 0.63194 0.04901 0.0
C3454 C 0.77998 0.62473 0.02424 0.0
C3455 C 0.7943 0.62664 0.0193 0.0
C3456 C 0.80511 0.63091 0.02938 0.0
H3457 H 0.7958 0.62003 0.92152 0.0
H3458 H 0.80658 0.61824 0.94636 0.0
C3459 C 0.80154 0.63334 0.04424 0.0
C3460 C 0.79722 0.62577 0.00328 0.0
H3461 H 0.78971 0.60369 0.9737 0.0
C3462 C 0.79995 0.63901 0.9957 0.0
C3463 C 0.79449 0.61267 0.99522 0.0
C3464 C 0.79225 0.59803 0.00286 0.0
C3465 C 0.79843 0.63979 0.9803 0.0
C3466 C 0.79412 0.62704 0.97244 0.0
C3467 C 0.79292 0.61347 0.97983 0.0
C3468 C 0.78816 0.62822 0.95738 0.0
C3469 C 0.80029 0.65448 0.97264 0.0
C3470 C 0.77424 0.63424 0.95553 0.0
C3471 C 0.76803 0.63512 0.94153 0.0
C3472 C 0.77567 0.63005 0.92908 0.0
C3473 C 0.78969 0.62405 0.93093 0.0
C3474 C 0.79585 0.62302 0.94505 0.0
H3475 H 0.80688 0.66227 0.97938 0.0
H3476 H 0.80558 0.653 0.9617 0.0
H3477 H 0.78943 0.65952 0.97079 0.0
H3478 H 0.76812 0.63819 0.96499 0.0
H3479 H 0.75727 0.63988 0.94047 0.0
H3480 H 0.3857 0.74166 0.92265 0.0
H3481 H 0.38253 0.74139 0.94953 0.0
H3482 H 0.41181 0.77839 0.95357 0.0
H3483 H 0.41515 0.77874 0.92686 0.0
H3484 H 0.41854 0.75359 0.97179 0.0
H3485 H 0.36063 0.77087 0.97691 0.0
H3486 H 0.36441 0.75596 0.96432 0.0
H3487 H 0.37118 0.77415 0.96039 0.0
C3488 C 0.39134 0.74985 0.92923 0.0
C3489 C 0.40072 0.7602 0.92257 0.0
C3490 C 0.38946 0.74971 0.94459 0.0
C3491 C 0.39685 0.75994 0.95349 0.0
C3492 C 0.40598 0.77043 0.94686 0.0
H3493 H 0.41129 0.77979 0.04501 0.0
H3494 H 0.41047 0.77868 0.01809 0.0
C3495 C 0.40787 0.7706 0.93157 0.0
C3496 C 0.39587 0.75925 0.96979 0.0
H3497 H 0.37295 0.76468 -0.00101 0.0
C3498 C 0.40857 0.75598 0.97774 0.0
C3499 C 0.38281 0.76226 0.97748 0.0
C3500 C 0.36897 0.76611 0.9694 0.0
C3501 C 0.4086 0.75578 0.99323 0.0
C3502 C 0.39566 0.75922 0.00095 0.0
C3503 C 0.38286 0.76212 0.99301 0.0
C3504 C 0.39542 0.76032 0.01726 0.0
C3505 C 0.42249 0.75181 0.00119 0.0
C3506 C 0.38682 0.75069 0.02569 0.0
C3507 C 0.3872 0.75132 0.04113 0.0
C3508 C 0.39614 0.76166 0.04839 0.0
C3509 C 0.40438 0.77159 0.03983 0.0
C3510 C 0.40398 0.77095 0.02443 0.0
H3511 H 0.4301 0.74562 0.99393 0.0
H3512 H 0.42803 0.76211 0.00478 0.0
H3513 H 0.42022 0.74503 0.01116 0.0
H3514 H 0.38007 0.74247 0.02032 0.0
H3515 H 0.38066 0.74355 0.04736 0.0
H3516 H 0.23782 0.36501 0.04031 0.0
H3517 H 0.23195 0.37077 0.01475 0.0
H3518 H 0.19049 0.38852 0.02823 0.0
H3519 H 0.19645 0.38309 0.0542 0.0
H3520 H 0.19209 0.36551 0.00277 0.0
H3521 H 0.22799 0.41432 0.99645 0.0
H3522 H 0.23612 0.39924 0.00643 0.0
H3523 H 0.2206 0.40861 0.01408 0.0
C3524 C 0.22754 0.37034 0.03797 0.0
C3525 C 0.2177 0.37381 0.04933 0.0
C3526 C 0.22419 0.37359 0.02333 0.0
C3527 C 0.21091 0.38026 0.01971 0.0
C3528 C 0.20087 0.3835 0.03091 0.0
H3529 H 0.19827 0.38374 0.92236 0.0
H3530 H 0.19146 0.3889 0.94817 0.0
C3531 C 0.20428 0.38037 0.04568 0.0
C3532 C 0.2077 0.38319 0.00401 0.0
H3533 H 0.22292 0.40037 0.97428 0.0
C3534 C 0.19838 0.37349 0.99651 0.0
C3535 C 0.21592 0.39364 0.99597 0.0
C3536 C 0.22564 0.40466 0.00364 0.0
C3537 C 0.19821 0.37299 0.98099 0.0
C3538 C 0.20754 0.38246 0.97299 0.0
C3539 C 0.2158 0.3931 0.9805 0.0
C3540 C 0.21113 0.37953 0.95737 0.0
C3541 C 0.18913 0.36147 0.97326 0.0
C3542 C 0.22436 0.37257 0.95415 0.0
C3543 C 0.22823 0.36958 0.93959 0.0
C3544 C 0.21898 0.37361 0.92791 0.0
C3545 C 0.20563 0.38053 0.93114 0.0
C3546 C 0.20172 0.38349 0.94583 0.0
H3547 H 0.18215 0.35519 0.98107 0.0
H3548 H 0.18209 0.36685 0.96486 0.0
H3549 H 0.19635 0.35357 0.96738 0.0
H3550 H 0.23169 0.36936 0.96297 0.0
H3551 H 0.23847 0.36404 0.93753 0.0
H3552 H 0.02387 0.6223 0.78798 0.0
H3553 H 0.00117 0.60832 0.7859 0.0
H3554 H 0.99092 0.63139 0.74551 0.0
H3555 H 0.01357 0.64539 0.74747 0.0
H3556 H 0.97164 0.61752 0.78359 0.0
H3557 H 0.99026 0.58739 0.73357 0.0
H3558 H 0.00252 0.59767 0.74528 0.0
H3559 H 0.9913 0.60717 0.73207 0.0
C3560 C 0.01673 0.6245 0.77872 0.0
C3561 C 0.02063 0.63479 0.76775 0.0
C3562 C 0.00377 0.61649 0.77755 0.0
C3563 C 0.99454 0.6186 0.7654 0.0
C3564 C 0.99808 0.62935 0.7548 0.0
H3565 H 0.915 0.58118 0.7324 0.0
H3566 H 0.93696 0.59546 0.73732 0.0
C3567 C 0.01102 0.63735 0.75595 0.0
C3568 C 0.98139 0.60933 0.76356 0.0
H3569 H 0.96549 0.58439 0.74032 0.0
C3570 C 0.9703 0.6102 0.77419 0.0
C3571 C 0.97976 0.59974 0.75133 0.0
C3572 C 0.99164 0.59779 0.73997 0.0
C3573 C 0.95738 0.60205 0.77265 0.0
C3574 C 0.95565 0.59267 0.76026 0.0
C3575 C 0.96684 0.59165 0.74977 0.0
C3576 C 0.94215 0.58411 0.75769 0.0
C3577 C 0.94551 0.60387 0.78403 0.0
C3578 C 0.93785 0.57289 0.76748 0.0
C3579 C 0.92526 0.56465 0.7647 0.0
C3580 C 0.91679 0.56745 0.75204 0.0
C3581 C 0.92121 0.5787 0.74226 0.0
C3582 C 0.93378 0.58689 0.74505 0.0
H3583 H 0.94723 0.61381 0.79102 0.0
H3584 H 0.9347 0.60474 0.77862 0.0
H3585 H 0.94537 0.59403 0.79135 0.0
H3586 H 0.94431 0.57039 0.77717 0.0
H3587 H 0.92221 0.55605 0.77244 0.0
H3588 H 0.39658 0.94584 0.78441 0.0
H3589 H 0.39547 0.97266 0.78334 0.0
H3590 H 0.37795 0.97041 0.73918 0.0
H3591 H 0.37924 0.9433 0.74005 0.0
H3592 H 0.40179 0.98824 0.74108 0.0
H3593 H 0.3635 0.00317 0.78561 0.0
H3594 H 0.37694 0.99038 0.79217 0.0
H3595 H 0.3644 0.98474 0.77794 0.0
C3596 C 0.39223 0.95098 0.77453 0.0
C3597 C 0.38809 0.9424 0.76227 0.0
C3598 C 0.39146 0.96636 0.77401 0.0
C3599 C 0.38643 0.97356 0.76127 0.0
C3600 C 0.38175 0.96506 0.74918 0.0
H3601 H 0.40245 0.06864 0.7457 0.0
H3602 H 0.39165 0.04405 0.74294 0.0
C3603 C 0.38247 0.94958 0.7497 0.0
C3604 C 0.38785 0.98985 0.76014 0.0
H3605 H 0.38183 0.02164 0.77958 0.0
C3606 C 0.39712 0.99563 0.74925 0.0
C3607 C 0.38174 -0.00053 0.77081 0.0
C3608 C 0.37097 0.99412 0.78218 0.0
C3609 C 0.4013 0.01056 0.7494 0.0
C3610 C 0.39594 0.01993 0.76067 0.0
C3611 C 0.38601 0.01437 0.77104 0.0
C3612 C 0.40161 0.0351 0.76267 0.0
C3613 C 0.4121 0.01601 0.73808 0.0
C3614 C 0.41052 0.03826 0.77484 0.0
C3615 C 0.41674 0.05225 0.77645 0.0
C3616 C 0.41408 0.06341 0.76595 0.0
C3617 C 0.4048 0.0603 0.75396 0.0
C3618 C 0.39863 0.04626 0.75233 0.0
H3619 H 0.4166 0.00688 0.73125 0.0
H3620 H 0.40669 0.02404 0.73061 0.0
H3621 H 0.42124 0.02182 0.74361 0.0
H3622 H 0.41293 0.02977 0.78293 0.0
H3623 H 0.42376 0.05424 0.78585 0.0
H3624 H 0.08206 0.4167 0.72692 0.0
H3625 H 0.06038 0.40216 0.73253 0.0
H3626 H 0.05504 0.42589 0.77351 0.0
H3627 H 0.07664 0.44065 0.76796 0.0
H3628 H 0.05533 0.38382 0.7573 0.0
H3629 H 0.01492 0.42944 0.75376 0.0
H3630 H 0.03313 0.43108 0.74646 0.0
H3631 H 0.02996 0.43281 0.76599 0.0
C3632 C 0.07625 0.41893 0.73709 0.0
C3633 C 0.08108 0.42993 0.74695 0.0
C3634 C 0.06387 0.41056 0.74029 0.0
C3635 C 0.05603 0.41306 0.75335 0.0
C3636 C 0.06081 0.42396 0.76325 0.0
H3637 H 0.97589 0.37435 0.78714 0.0
H3638 H -0.00097 0.38753 0.78494 0.0
C3639 C 0.0732 0.43235 0.76007 0.0
C3640 C 0.04297 0.40405 0.75668 0.0
H3641 H 0.00625 0.4062 0.76179 0.0
C3642 C 0.04459 0.38869 0.75829 0.0
C3643 C 0.029 0.41047 0.758 0.0
C3644 C 0.02655 0.42683 0.75585 0.0
C3645 C 0.03259 0.37956 0.76127 0.0
C3646 C 0.01859 0.38596 0.76241 0.0
C3647 C 0.01701 0.40134 0.76097 0.0
C3648 C 0.00532 0.37689 0.76449 0.0
C3649 C 0.03504 0.36319 0.76333 0.0
C3650 C 0.00127 0.36642 0.75382 0.0
C3651 C 0.9881 0.35884 0.75507 0.0
C3652 C 0.97864 0.3617 0.76695 0.0
C3653 C 0.98293 0.37186 0.77787 0.0
C3654 C 0.99612 0.37945 0.77661 0.0
H3655 H 0.04649 0.36073 0.7664 0.0
H3656 H 0.02774 0.35864 0.77199 0.0
H3657 H 0.03267 0.3574 0.75279 0.0
H3658 H 0.00808 0.36445 0.74425 0.0
H3659 H 0.98518 0.35099 0.74654 0.0
H3660 H 0.57479 0.92707 0.79336 0.0
H3661 H 0.58295 0.95271 0.79599 0.0
H3662 H 0.61981 0.94355 0.76798 0.0
H3663 H 0.61186 0.91794 0.76532 0.0
H3664 H 0.62606 0.96067 0.79447 0.0
H3665 H 0.57999 0.98285 0.76112 0.0
H3666 H 0.57538 0.97109 0.77646 0.0
H3667 H 0.58497 0.96353 0.76092 0.0
C3668 C 0.58468 0.93047 0.78783 0.0
C3669 C 0.5926 0.92046 0.77903 0.0
C3670 C 0.5893 0.94513 0.78932 0.0
C3671 C 0.60189 0.95001 0.78206 0.0
C3672 C 0.61005 0.93997 0.77365 0.0
H3673 H 0.6399 0.02978 0.75274 0.0
H3674 H 0.63156 0.00464 0.75781 0.0
C3675 C 0.60544 0.92535 0.77211 0.0
C3676 C 0.60634 0.9657 0.78263 0.0
H3677 H 0.59725 -3e-05 0.76975 0.0
C3678 C 0.61969 0.96931 0.78924 0.0
C3679 C 0.59802 0.97688 0.77569 0.0
C3680 C 0.58383 0.97347 0.76804 0.0
C3681 C 0.62506 0.98384 0.78885 0.0
C3682 C 0.61688 0.99489 0.78165 0.0
C3683 C 0.60339 0.99139 0.77535 0.0
C3684 C 0.62272 0.00988 0.77932 0.0
C3685 C 0.63962 0.98728 0.79567 0.0
C3686 C 0.62061 0.02103 0.78987 0.0
C3687 C 0.62531 0.03547 0.78699 0.0
C3688 C 0.63209 0.0389 0.77348 0.0
C3689 C 0.63453 0.02755 0.76316 0.0
C3690 C 0.62984 0.01317 0.76605 0.0
H3691 H 0.64446 0.97753 0.80131 0.0
H3692 H 0.64723 0.99113 0.78695 0.0
H3693 H 0.63843 0.9964 0.8038 0.0
H3694 H 0.61508 0.01862 0.80017 0.0
H3695 H 0.62328 0.04398 0.79515 0.0
H3696 H 0.92939 0.38394 0.2704 0.0
H3697 H 0.95566 0.38303 0.2669 0.0
H3698 H 0.95061 0.39839 0.22207 0.0
H3699 H 0.92415 0.3995 0.22551 0.0
H3700 H 0.96902 0.36513 0.24319 0.0
H3701 H 0.98358 0.42497 0.24132 0.0
H3702 H 0.96712 0.41851 0.25012 0.0
H3703 H 0.96848 0.41858 0.23036 0.0
C3704 C 0.93383 0.38738 0.25986 0.0
C3705 C 0.92469 0.39185 0.24824 0.0
C3706 C 0.94884 0.3868 0.25787 0.0
C3707 C 0.95501 0.39073 0.24427 0.0
C3708 C 0.94601 0.39548 0.2327 0.0
H3709 H 0.04885 0.38539 0.22512 0.0
H3710 H 0.02269 0.38988 0.22186 0.0
C3711 C 0.93092 0.39604 0.23467 0.0
C3712 C 0.9708 0.38885 0.24211 0.0
H3713 H 0.00285 0.40779 0.24034 0.0
C3714 C 0.97643 0.37444 0.24239 0.0
C3715 C 0.98033 0.40104 0.24094 0.0
C3716 C 0.97468 0.41669 0.24072 0.0
C3717 C 0.99144 0.37189 0.24205 0.0
C3718 C 0.00102 0.38409 0.24168 0.0
C3719 C 0.99541 0.39849 0.24068 0.0
C3720 C 0.01683 0.38205 0.24365 0.0
C3721 C 0.99693 0.35616 0.24241 0.0
C3722 C 0.0221 0.37645 0.25706 0.0
C3723 C 0.03692 0.37389 0.25895 0.0
C3724 C 0.04678 0.37695 0.24748 0.0
C3725 C 0.0415 0.38287 0.23413 0.0
C3726 C 0.02661 0.38548 0.23226 0.0
H3727 H 0.98852 0.34824 0.23856 0.0
H3728 H 0.00679 0.35488 0.23543 0.0
H3729 H -0.00014 0.3532 0.25394 0.0
H3730 H 0.0147 0.37393 0.26603 0.0
H3731 H 0.0406 0.36926 0.26934 0.0
H3732 H 0.58497 0.07338 0.21462 0.0
H3733 H 0.59094 0.04729 0.21683 0.0
H3734 H 0.61763 0.05652 0.2549 0.0
H3735 H 0.61162 0.08294 0.25287 0.0
H3736 H 0.61959 0.03357 0.2169 0.0
H3737 H 0.58784 0.02415 0.26862 0.0
H3738 H 0.58485 0.04021 0.25716 0.0
H3739 H 0.60096 0.03892 0.26824 0.0
C3740 C 0.59212 0.06996 0.2235 0.0
C3741 C 0.59774 0.08028 0.23363 0.0
C3742 C 0.59557 0.05502 0.22469 0.0
C3743 C 0.60464 0.05 0.23606 0.0
C3744 C 0.6105 0.06021 0.24612 0.0
H3745 H 0.61162 0.95402 0.25106 0.0
H3746 H 0.61714 0.9804 0.25358 0.0
C3747 C 0.60708 0.07527 0.24491 0.0
C3748 C 0.6075 0.03396 0.23729 0.0
H3749 H 0.59646 0.00322 0.25607 0.0
C3750 C 0.6148 0.02692 0.22562 0.0
C3751 C 0.60129 0.02537 0.24872 0.0
C3752 C 0.59323 0.03245 0.26141 0.0
C3753 C 0.61538 0.01146 0.22466 0.0
C3754 C 0.60827 0.00287 0.23552 0.0
C3755 C 0.60184 0.00988 0.24773 0.0
C3756 C 0.60594 0.9868 0.23356 0.0
C3757 C 0.62322 0.00446 0.21179 0.0
C3758 C 0.59774 0.98171 0.22152 0.0
C3759 C 0.5945 0.96671 0.22006 0.0
C3760 C 0.59936 0.95647 0.23067 0.0
C3761 C 0.60774 0.96159 0.24266 0.0
C3762 C 0.61092 0.97665 0.24413 0.0
H3763 H 0.63182 0.01189 0.20738 0.0
H3764 H 0.62827 0.99377 0.21499 0.0
H3765 H 0.61533 0.00235 0.20276 0.0
H3766 H 0.59352 0.98941 0.21341 0.0
H3767 H 0.58801 0.96319 0.21072 0.0
H3768 H 0.08572 0.59054 0.25777 0.0
H3769 H 0.0595 0.59508 0.25747 0.0
H3770 H 0.05496 0.56609 0.21991 0.0
H3771 H 0.08105 0.5612 0.2203 0.0
H3772 H 0.04266 0.6071 0.23568 0.0
H3773 H 0.02441 0.54984 0.24775 0.0
H3774 H 0.04304 0.55566 0.25004 0.0
H3775 H 0.03616 0.55121 0.23197 0.0
C3776 C 0.07915 0.58506 0.24948 0.0
C3777 C 0.0855 0.57543 0.23912 0.0
C3778 C 0.06416 0.58768 0.24933 0.0
C3779 C 0.05524 0.58072 0.23883 0.0
C3780 C 0.06157 0.57128 0.22835 0.0
H3781 H 0.9623 0.59055 0.21979 0.0
H3782 H 0.9883 0.58439 0.21813 0.0
C3783 C 0.07653 0.56858 0.22854 0.0
C3784 C 0.03939 0.58369 0.23861 0.0
H3785 H 0.00606 0.56715 0.2412 0.0
C3786 C 0.03467 0.59836 0.23692 0.0
C3787 C 0.02897 0.57226 0.24019 0.0
C3788 C 0.03337 0.55638 0.24273 0.0
C3789 C 0.01982 0.60191 0.23673 0.0
C3790 C 0.00945 0.59051 0.23836 0.0
C3791 C 0.0141 0.57582 0.23986 0.0
C3792 C 0.99374 0.5938 0.23939 0.0
C3793 C 0.01527 0.61783 0.2348 0.0
C3794 C 0.98827 0.60089 0.25199 0.0
C3795 C 0.97352 0.60432 0.25301 0.0
C3796 C 0.96394 0.60074 0.24144 0.0
C3797 C 0.96942 0.59346 0.22887 0.0
C3798 C 0.98423 0.58993 0.22791 0.0
H3799 H 0.02437 0.62484 0.23075 0.0
H3800 H 0.00605 0.61869 0.22691 0.0
H3801 H 0.01157 0.62229 0.24559 0.0
H3802 H 0.99546 0.60384 0.26101 0.0
H3803 H 0.96968 0.61 0.2628 0.0
H3804 H 0.41187 0.0308 0.21488 0.0
H3805 H 0.4085 0.00447 0.21948 0.0
H3806 H 0.37843 0.01433 0.25469 0.0
H3807 H 0.38172 0.04089 0.25023 0.0
H3808 H 0.41352 0.99154 0.25076 0.0
H3809 H 0.35903 0.98149 0.22558 0.0
H3810 H 0.37057 0.99629 0.21906 0.0
H3811 H 0.36211 0.99766 0.23685 0.0
C3812 C 0.40442 0.02746 0.22352 0.0
C3813 C 0.39712 0.03801 0.23223 0.0
C3814 C 0.40251 0.01239 0.22612 0.0
C3815 C 0.39321 0.00754 0.23738 0.0
C3816 C 0.38559 0.01793 0.24588 0.0
H3817 H 0.38284 0.9116 0.25417 0.0
H3818 H 0.37904 0.93837 0.25701 0.0
C3819 C 0.38751 0.03307 0.24332 0.0
C3820 C 0.39234 0.99157 0.24063 0.0
H3821 H 0.37254 0.96059 0.23299 0.0
C3822 C 0.40445 0.98478 0.24714 0.0
C3823 C 0.38043 0.98288 0.23599 0.0
C3824 C 0.36724 0.98984 0.22895 0.0
C3825 C 0.40529 0.96937 0.24847 0.0
C3826 C 0.39383 0.96058 0.24291 0.0
C3827 C 0.38131 0.9674 0.23721 0.0
C3828 C 0.39559 0.94444 0.24115 0.0
C3829 C 0.41869 0.96256 0.25529 0.0
C3830 C 0.40594 0.93911 0.23112 0.0
C3831 C 0.4081 0.92397 0.22942 0.0
C3832 C 0.39993 0.91378 0.23773 0.0
C3833 C 0.38935 0.91915 0.24764 0.0
C3834 C 0.38714 0.9344 0.24928 0.0
H3835 H 0.4244 0.97051 0.26263 0.0
H3836 H 0.41587 0.95253 0.26177 0.0
H3837 H 0.42632 0.95926 0.24638 0.0
H3838 H 0.41241 0.94672 0.22461 0.0
H3839 H 0.41631 0.9203 0.22165 0.0
H3840 H 0.77031 0.04108 0.60466 0.0
H3841 H 0.77381 0.01426 0.60409 0.0
H3842 H 0.73236 0.00919 0.58226 0.0
H3843 H 0.72853 0.03589 0.58357 0.0
H3844 H 0.73427 0.99001 0.60297 0.0
H3845 H 0.78595 0.98769 0.57175 0.0
H3846 H 0.78774 0.99849 0.58825 0.0
H3847 H 0.77569 0.00457 0.57374 0.0
C3848 C 0.76204 0.03421 0.5996 0.0
C3849 C 0.74913 0.04051 0.59419 0.0
C3850 C 0.76408 0.0189 0.59919 0.0
C3851 C 0.75347 0.00966 0.59289 0.0
C3852 C 0.74071 0.01604 0.58719 0.0
H3853 H 0.76589 0.91823 0.5683 0.0
H3854 H 0.76445 0.94512 0.56972 0.0
C3855 C 0.73851 0.03131 0.58794 0.0
C3856 C 0.75526 0.99331 0.5929 0.0
H3857 H 0.77852 0.96537 0.58358 0.0
C3858 C 0.74391 0.98463 0.59863 0.0
C3859 C 0.76777 0.98624 0.5871 0.0
C3860 C 0.77989 0.99473 0.57973 0.0
C3861 C 0.74466 0.96913 0.59866 0.0
C3862 C 0.75743 0.96208 0.59345 0.0
C3863 C 0.76881 0.97076 0.58777 0.0
C3864 C 0.7589 0.94571 0.59298 0.0
C3865 C 0.7315 0.96055 0.60378 0.0
C3866 C 0.75657 0.93702 0.60565 0.0
C3867 C 0.75705 0.92158 0.60478 0.0
C3868 C 0.76036 0.91457 0.59133 0.0
C3869 C 0.76338 0.9233 0.57884 0.0
C3870 C 0.76255 0.93869 0.57964 0.0
H3871 H 0.72142 0.96729 0.60303 0.0
H3872 H 0.72995 0.95035 0.59713 0.0
H3873 H 0.73297 0.95736 0.61553 0.0
H3874 H 0.75422 0.94216 0.61619 0.0
H3875 H 0.75482 0.91512 0.61461 0.0
H3876 H 0.76045 0.04236 0.36887 0.0
H3877 H 0.76476 0.01621 0.37374 0.0
H3878 H 0.80175 0.02731 0.40083 0.0
H3879 H 0.79745 0.05373 0.39608 0.0
H3880 H 0.792 -0.00052 0.36836 0.0
H3881 H 0.77396 0.00094 0.42722 0.0
H3882 H 0.76888 0.01521 0.41424 0.0
H3883 H 0.78715 0.01431 0.42108 0.0
C3884 C 0.76948 0.03929 0.37592 0.0
C3885 C 0.77853 0.0501 0.38222 0.0
C3886 C 0.77196 0.02434 0.37861 0.0
C3887 C 0.78349 0.0199 0.38771 0.0
C3888 C 0.79272 0.0306 0.39387 0.0
H3889 H 0.79296 0.92823 0.41795 0.0
H3890 H 0.79807 0.95448 0.41405 0.0
C3891 C 0.79028 0.04563 0.39112 0.0
C3892 C 0.78549 0.00401 0.39077 0.0
H3893 H 0.77879 0.97766 0.41686 0.0
C3894 C 0.78934 0.99468 0.37902 0.0
C3895 C 0.78207 0.99788 0.4047 0.0
C3896 C 0.77771 0.00752 0.41758 0.0
C3897 C 0.78936 0.97928 0.3807 0.0
C3898 C 0.78509 0.9731 0.39439 0.0
C3899 C 0.78198 0.98246 0.40636 0.0
C3900 C 0.78266 0.95704 0.39619 0.0
C3901 C 0.79371 0.96976 0.36773 0.0
C3902 C 0.7722 0.94984 0.3875 0.0
C3903 C 0.76923 0.93486 0.38966 0.0
C3904 C 0.77658 0.92682 0.40067 0.0
C3905 C 0.78709 0.93408 0.40935 0.0
C3906 C 0.79006 0.94908 0.40716 0.0
H3907 H 0.80102 0.97583 0.36006 0.0
H3908 H 0.79929 0.95951 0.37144 0.0
H3909 H 0.78383 0.96657 0.36146 0.0
H3910 H 0.7661 0.95588 0.37921 0.0
H3911 H 0.76103 0.92968 0.38283 0.0
H3912 H 0.9187 0.75177 0.4522 0.0
H3913 H 0.94463 0.75362 0.44646 0.0
H3914 H 0.93601 0.73967 0.40168 0.0
H3915 H 0.91023 0.73695 0.40765 0.0
H3916 H 0.95879 0.72653 0.4108 0.0
H3917 H 0.96517 0.78558 0.42529 0.0
H3918 H 0.95889 0.77501 0.44077 0.0
H3919 H 0.94763 0.77675 0.42455 0.0
C3920 C 0.92237 0.74911 0.44113 0.0
C3921 C 0.91247 0.74427 0.43035 0.0
C3922 C 0.93717 0.75031 0.43782 0.0
C3923 C 0.94228 0.74718 0.42351 0.0
C3924 C 0.93237 0.74222 0.41277 0.0
H3925 H 0.02696 0.77303 0.38934 0.0
H3926 H 0.00138 0.77189 0.39692 0.0
C3927 C 0.91763 0.74066 0.41619 0.0
C3928 C 0.95797 0.74857 0.4198 0.0
H3929 H 0.9871 0.77194 0.42146 0.0
C3930 C 0.96493 0.73651 0.41305 0.0
C3931 C 0.96599 0.76168 0.42249 0.0
C3932 C 0.95899 0.77553 0.42852 0.0
C3933 C 0.97963 0.73714 0.40895 0.0
C3934 C 0.98785 0.74993 0.41238 0.0
C3935 C 0.98088 0.76204 0.41904 0.0
C3936 C 0.00356 0.75113 0.40871 0.0
C3937 C 0.98598 0.72422 0.40054 0.0
C3938 C 0.01343 0.74016 0.41323 0.0
C3939 C 0.0279 0.74062 0.40858 0.0
C3940 C 0.03288 0.75235 0.39979 0.0
C3941 C 0.02332 0.76387 0.39611 0.0
C3942 C 0.00873 0.7632 0.40043 0.0
H3943 H 0.97739 0.71783 0.39473 0.0
H3944 H 0.99408 0.72794 0.39224 0.0
H3945 H 0.99142 0.71661 0.40842 0.0
H3946 H 0.00988 0.73107 0.42014 0.0
H3947 H 0.03519 0.73181 0.41187 0.0
H3948 H 0.21569 0.07083 0.43251 0.0
H3949 H 0.21022 0.04465 0.42845 0.0
H3950 H 0.23623 0.04507 0.38879 0.0
H3951 H 0.2417 0.0712 0.39263 0.0
H3952 H 0.20801 0.0313 0.38603 0.0
H3953 H 0.2401 0.01042 0.43396 0.0
H3954 H 0.22701 0.02475 0.43765 0.0
H3955 H 0.24263 0.02874 0.42645 0.0
C3956 C 0.22026 0.06537 0.42292 0.0
C3957 C 0.2292 0.07312 0.41293 0.0
C3958 C 0.21715 0.05041 0.42066 0.0
C3959 C 0.22294 0.04296 0.40841 0.0
C3960 C 0.23169 0.05067 0.39833 0.0
H3961 H 0.23861 0.95837 0.37435 0.0
H3962 H 0.23701 0.98421 0.38192 0.0
C3963 C 0.23484 0.06559 0.40058 0.0
C3964 C 0.22004 0.02708 0.40602 0.0
H3965 H 0.22867 0.99268 0.41889 0.0
C3966 C 0.21234 0.02284 0.39331 0.0
C3967 C 0.22576 0.01613 0.41556 0.0
C3968 C 0.23443 0.02014 0.42913 0.0
C3969 C 0.21055 0.00788 0.38968 0.0
C3970 C 0.21666 0.99699 0.39896 0.0
C3971 C 0.22392 0.00116 0.41192 0.0
C3972 C 0.21717 0.98137 0.39441 0.0
C3973 C 0.20265 0.00372 0.37569 0.0
C3974 C 0.20647 0.97133 0.39896 0.0
C3975 C 0.20734 0.95648 0.39466 0.0
C3976 C 0.21899 0.95155 0.38586 0.0
C3977 C 0.2296 0.96176 0.38127 0.0
C3978 C 0.22869 0.97653 0.38553 0.0
H3979 H 0.19733 0.01341 0.37039 0.0
H3980 H 0.21048 -0.00118 0.36773 0.0
H3981 H 0.19427 0.99522 0.37811 0.0
H3982 H 0.19751 0.97497 0.40584 0.0
H3983 H 0.19902 0.94885 0.39835 0.0
H3984 H 0.07705 0.27111 0.42465 0.0
H3985 H 0.05208 0.2718 0.41535 0.0
H3986 H 0.04309 0.23033 0.43704 0.0
H3987 H 0.06788 0.22964 0.4466 0.0
H3988 H 0.03792 0.25191 0.39729 0.0
H3989 H 0.00979 0.25614 0.45134 0.0
H3990 H 0.02909 0.25921 0.44932 0.0
H3991 H 0.022 0.24069 0.45025 0.0
C3992 C 0.06975 0.26217 0.42752 0.0
C3993 C 0.07447 0.25037 0.43647 0.0
C3994 C 0.05548 0.26258 0.42219 0.0
C3995 C 0.04567 0.25125 0.42572 0.0
C3996 C 0.05038 0.23937 0.43448 0.0
H3997 H 0.95793 0.22745 0.40168 0.0
H3998 H 0.98305 0.22835 0.41056 0.0
C3999 C 0.0646 0.23897 0.43987 0.0
C4000 C 0.0306 0.25158 0.41991 0.0
H4001 H 0.99495 0.25061 0.43046 0.0
C4002 C 0.02852 0.25176 0.40453 0.0
C4003 C 0.01836 0.25139 0.42939 0.0
C4004 C 0.01988 0.252 0.44599 0.0
C4005 C 0.01451 0.25135 0.39838 0.0
C4006 C 0.00231 0.25089 0.40788 0.0
C4007 C 0.00437 0.25087 0.42323 0.0
C4008 C 0.98727 0.2503 0.4021 0.0
C4009 C 0.01284 0.25104 0.3818 0.0
C4010 C 0.98135 0.26239 0.39447 0.0
C4011 C 0.96699 0.26194 0.38943 0.0
C4012 C 0.95831 0.24939 0.39195 0.0
C4013 C 0.96433 0.23726 0.39953 0.0
C4014 C 0.97866 0.23776 0.40463 0.0
H4015 H 0.02326 0.24847 0.37614 0.0
H4016 H 0.00459 0.24271 0.37846 0.0
H4017 H 0.00904 0.26203 0.37792 0.0
H4018 H 0.98778 0.27224 0.39258 0.0
H4019 H 0.96269 0.27143 0.38358 0.0
H4020 H 0.24227 0.1006 0.56681 0.0
H4021 H 0.23737 0.07409 0.5669 0.0
H4022 H 0.24451 0.07279 0.61403 0.0
H4023 H 0.25009 0.09923 0.61389 0.0
H4024 H 0.25839 0.05137 0.60166 0.0
H4025 H 0.20266 0.05088 0.57885 0.0
H4026 H 0.21498 0.06014 0.56661 0.0
H4027 H 0.21146 0.06771 0.5847 0.0
C4028 C 0.24262 0.0947 0.57723 0.0
C4029 C 0.24652 0.10202 0.59036 0.0
C4030 C 0.2397 0.07955 0.57728 0.0
C4031 C 0.24023 0.07145 0.59052 0.0
C4032 C 0.24394 0.07879 0.60368 0.0
H4033 H 0.21305 0.97922 0.59941 0.0
H4034 H 0.2136 0.00635 0.59878 0.0
C4035 C 0.24713 0.09391 0.6036 0.0
C4036 C 0.23804 0.05517 0.59046 0.0
H4037 H 0.21548 0.02768 0.57839 0.0
C4038 C 0.24892 0.04623 0.5967 0.0
C4039 C 0.22559 0.04839 0.58419 0.0
C4040 C 0.21295 0.0573 0.57836 0.0
C4041 C 0.24787 0.03077 0.59657 0.0
C4042 C 0.23589 0.02398 0.58944 0.0
C4043 C 0.2248 0.03288 0.58356 0.0
C4044 C 0.2347 0.00766 0.58821 0.0
C4045 C 0.25953 0.02191 0.60432 0.0
C4046 C 0.24601 -0.00059 0.58184 0.0
C4047 C 0.24582 0.98398 0.58241 0.0
C4048 C 0.23411 0.97653 0.589 0.0
C4049 C 0.22221 0.98473 0.59427 0.0
C4050 C 0.22254 0.0002 0.59395 0.0
H4051 H 0.26511 0.02857 0.61295 0.0
H4052 H 0.25495 0.01186 0.60961 0.0
H4053 H 0.26786 0.01844 0.59615 0.0
H4054 H 0.25525 0.0049 0.57683 0.0
H4055 H 0.25496 0.97792 0.57795 0.0
H4056 H 0.92355 0.20197 0.59407 0.0
H4057 H 0.94856 0.19277 0.59698 0.0
H4058 H 0.96259 0.23646 0.60963 0.0
H4059 H 0.93792 0.24563 0.60694 0.0
H4060 H 0.98203 0.21993 0.58936 0.0
H4061 H 0.96547 0.18949 0.64033 0.0
H4062 H 0.95572 0.18646 0.62332 0.0
H4063 H 0.95416 0.20388 0.63264 0.0
C4064 C 0.93204 0.20965 0.59722 0.0
C4065 C 0.92873 0.22454 0.60032 0.0
C4066 C 0.94627 0.20437 0.59889 0.0
C4067 C 0.95734 0.21394 0.60359 0.0
C4068 C 0.95419 0.22892 0.60593 0.0
H4069 H 0.02636 0.23146 0.65422 0.0
H4070 H 0.00377 0.2244 0.64201 0.0
C4071 C 0.94003 0.23415 0.60438 0.0
C4072 C 0.97199 0.2085 0.60754 0.0
H4073 H 0.99028 0.19444 0.63718 0.0
C4074 C 0.98393 0.21388 0.59953 0.0
C4075 C 0.97432 0.20068 0.62086 0.0
C4076 C 0.9618 0.19478 0.62988 0.0
C4077 C 0.99811 0.21273 0.60515 0.0
C4078 C 0.00029 0.20601 0.61908 0.0
C4079 C 0.9885 0.19952 0.62647 0.0
C4080 C 0.01387 0.20846 0.62742 0.0
C4081 C 0.01048 0.21989 0.59686 0.0
C4082 C 0.02696 0.20151 0.62349 0.0
C4083 C 0.03995 0.20549 0.63054 0.0
C4084 C 0.03995 0.21657 0.64146 0.0
C4085 C 0.0267 0.22298 0.64576 0.0
C4086 C 0.01379 0.21892 0.63884 0.0
H4087 H 0.00687 0.22497 0.58629 0.0
H4088 H 0.01556 0.22859 0.60381 0.0
H4089 H 0.01896 0.2115 0.59438 0.0
H4090 H 0.02718 0.19337 0.6147 0.0
H4091 H 0.05003 0.2004 0.62699 0.0
H4092 H 0.06468 0.74664 0.59413 0.0
H4093 H 0.03907 0.75263 0.5924 0.0
H4094 H 0.04966 0.79802 0.58252 0.0
H4095 H 0.07567 0.79203 0.58414 0.0
H4096 H 0.03115 0.79459 0.60657 0.0
H4097 H 0.0103 0.76215 0.55958 0.0
H4098 H 0.02193 0.75097 0.57091 0.0
H4099 H 0.02933 0.76684 0.56148 0.0
C4100 C 0.06169 0.75781 0.59117 0.0
C4101 C 0.07226 0.76884 0.58926 0.0
C4102 C 0.04696 0.76121 0.59008 0.0
C4103 C 0.04245 0.77571 0.58707 0.0
C4104 C 0.05295 0.78671 0.58465 0.0
H4105 H 0.94963 0.78891 0.61117 0.0
H4106 H 0.97244 0.7957 0.59866 0.0
C4107 C 0.06777 0.78327 0.5856 0.0
C4108 C 0.02688 0.77943 0.58872 0.0
H4109 H 0.99353 0.76512 0.58061 0.0
C4110 C 0.02283 0.78864 0.60052 0.0
C4111 C 0.01603 0.77172 0.58077 0.0
C4112 C 0.01963 0.7625 0.56737 0.0
C4113 C 0.00842 0.78898 0.60562 0.0
C4114 C 0.99795 0.77994 0.59869 0.0
C4115 C 0.00167 0.77195 0.58596 0.0
C4116 C 0.98415 0.77635 0.60613 0.0
C4117 C 0.00471 0.79786 0.61921 0.0
C4118 C 0.98337 0.76335 0.61449 0.0
C4119 C 0.97052 0.7595 0.62166 0.0
C4120 C 0.95815 0.76854 0.62051 0.0
C4121 C 0.959 0.78172 0.61224 0.0
C4122 C 0.97195 0.78559 0.60507 0.0
H4123 H 0.01377 0.80523 0.62263 0.0
H4124 H 0.99488 0.8047 0.61713 0.0
H4125 H 0.00217 0.79024 0.62848 0.0
H4126 H 0.99276 0.75617 0.61549 0.0
H4127 H 0.97031 0.74941 0.6281 0.0
loop_
_geom_bond_atom_site_label_1
_geom_bond_atom_site_label_2
_geom_bond_distance
_geom_bond_site_symmetry_2
_ccdc_geom_bond_type
Mg0 O1 2.028 . S
Mg0 O7 1.986 . S
Mg0 O9 2.114 . S
Mg0 O10 2.251 . S
Mg0 O13 2.010 . S
O1 Mg0 2.028 . S
O1 C4 1.250 . S
O2 Mg3 2.028 . S
O2 C4 1.248 . S
Mg3 O2 2.028 . S
Mg3 O8 2.032 . S
Mg3 O10 2.079 . S
C4 O1 1.250 . S
C4 O2 1.248 . S
C5 O6 1.264 . S
C5 O13 1.249 . S
O6 C5 1.264 . S
O7 Mg0 1.986 . S
O7 C11 1.246 . S
O8 Mg3 2.032 . S
O8 C11 1.259 . S
O9 Mg0 2.114 . S
O9 C12 1.252 . S
O10 Mg0 2.251 . S
O10 Mg3 2.079 . S
O10 C12 1.273 . S
C11 O7 1.246 . S
C11 O8 1.259 . S
C12 O9 1.252 . S
C12 O10 1.273 . S
O13 Mg0 2.010 . S
O13 C5 1.249 . S
Mg14 O15 2.028 . S
Mg14 O21 1.986 . S
Mg14 O23 2.114 . S
Mg14 O24 2.251 . S
Mg14 O27 2.010 . S
O15 Mg14 2.028 . S
O15 C18 1.250 . S
O16 Mg17 2.028 . S
O16 C18 1.248 . S
Mg17 O16 2.028 . S
Mg17 O22 2.032 . S
Mg17 O24 2.079 . S
C18 O15 1.250 . S
C18 O16 1.248 . S
C19 O20 1.264 . S
C19 O27 1.249 . S
O20 C19 1.264 . S
O21 Mg14 1.986 . S
O21 C25 1.246 . S
O22 Mg17 2.032 . S
O22 C25 1.259 . S
O23 Mg14 2.114 . S
O23 C26 1.252 . S
O24 Mg14 2.251 . S
O24 Mg17 2.079 . S
O24 C26 1.273 . S
C25 O21 1.246 . S
C25 O22 1.259 . S
C26 O23 1.252 . S
C26 O24 1.273 . S
O27 Mg14 2.010 . S
O27 C19 1.249 . S
Mg28 O29 2.028 . S
Mg28 O35 1.986 . S
Mg28 O37 2.114 . S
Mg28 O38 2.251 . S
Mg28 O41 2.010 . S
O29 Mg28 2.028 . S
O29 C32 1.250 . S
O30 Mg31 2.028 . S
O30 C32 1.248 . S
Mg31 O30 2.028 . S
Mg31 O36 2.032 . S
Mg31 O38 2.079 . S
C32 O29 1.250 . S
C32 O30 1.248 . S
C33 O34 1.264 . S
C33 O41 1.249 . S
O34 C33 1.264 . S
O35 Mg28 1.986 . S
O35 C39 1.246 . S
O36 Mg31 2.032 . S
O36 C39 1.259 . S
O37 Mg28 2.114 . S
O37 C40 1.252 . S
O38 Mg28 2.251 . S
O38 Mg31 2.079 . S
O38 C40 1.273 . S
C39 O35 1.246 . S
C39 O36 1.259 . S
C40 O37 1.252 . S
C40 O38 1.273 . S
O41 Mg28 2.010 . S
O41 C33 1.249 . S
Mg42 O43 2.028 . S
Mg42 O49 1.986 . S
Mg42 O51 2.114 . S
Mg42 O52 2.251 . S
Mg42 O55 2.010 . S
O43 Mg42 2.028 . S
O43 C46 1.250 . S
O44 Mg45 2.028 . S
O44 C46 1.248 . S
Mg45 O44 2.028 . S
Mg45 O50 2.032 . S
Mg45 O52 2.079 . S
C46 O43 1.250 . S
C46 O44 1.248 . S
C47 O48 1.264 . S
C47 O55 1.249 . S
O48 C47 1.264 . S
O49 Mg42 1.986 . S
O49 C53 1.246 . S
O50 Mg45 2.032 . S
O50 C53 1.259 . S
O51 Mg42 2.114 . S
O51 C54 1.252 . S
O52 Mg42 2.251 . S
O52 Mg45 2.079 . S
O52 C54 1.273 . S
C53 O49 1.246 . S
C53 O50 1.259 . S
C54 O51 1.252 . S
C54 O52 1.273 . S
O55 Mg42 2.010 . S
O55 C47 1.249 . S
Mg56 O57 2.028 . S
Mg56 O63 1.986 . S
Mg56 O65 2.114 . S
Mg56 O66 2.251 . S
Mg56 O69 2.010 . S
O57 Mg56 2.028 . S
O57 C60 1.250 . S
O58 Mg59 2.028 . S
O58 C60 1.248 . S
Mg59 O58 2.028 . S
Mg59 O64 2.032 . S
Mg59 O66 2.079 . S
C60 O57 1.250 . S
C60 O58 1.248 . S
C61 O62 1.264 . S
C61 O69 1.249 . S
O62 C61 1.264 . S
O63 Mg56 1.986 . S
O63 C67 1.246 . S
O64 Mg59 2.032 . S
O64 C67 1.259 . S
O65 Mg56 2.114 . S
O65 C68 1.252 . S
O66 Mg56 2.251 . S
O66 Mg59 2.079 . S
O66 C68 1.273 . S
C67 O63 1.246 . S
C67 O64 1.259 . S
C68 O65 1.252 . S
C68 O66 1.273 . S
O69 Mg56 2.010 . S
O69 C61 1.249 . S
Mg70 O71 2.028 . S
Mg70 O77 1.986 . S
Mg70 O79 2.114 . S
Mg70 O80 2.251 . S
Mg70 O83 2.010 . S
O71 Mg70 2.028 . S
O71 C74 1.250 . S
O72 Mg73 2.028 . S
O72 C74 1.248 . S
Mg73 O72 2.028 . S
Mg73 O78 2.032 . S
Mg73 O80 2.079 . S
C74 O71 1.250 . S
C74 O72 1.248 . S
C75 O76 1.264 . S
C75 O83 1.249 . S
O76 C75 1.264 . S
O77 Mg70 1.986 . S
O77 C81 1.246 . S
O78 Mg73 2.032 . S
O78 C81 1.259 . S
O79 Mg70 2.114 . S
O79 C82 1.252 . S
O80 Mg70 2.251 . S
O80 Mg73 2.079 . S
O80 C82 1.273 . S
C81 O77 1.246 . S
C81 O78 1.259 . S
C82 O79 1.252 . S
C82 O80 1.273 . S
O83 Mg70 2.010 . S
O83 C75 1.249 . S
Mg84 O85 2.028 . S
Mg84 O91 1.986 . S
Mg84 O93 2.114 . S
Mg84 O94 2.251 . S
Mg84 O97 2.010 . S
O85 Mg84 2.028 . S
O85 C88 1.250 . S
O86 Mg87 2.028 . S
O86 C88 1.248 . S
Mg87 O86 2.028 . S
Mg87 O92 2.032 . S
Mg87 O94 2.079 . S
C88 O85 1.250 . S
C88 O86 1.248 . S
C89 O90 1.264 . S
C89 O97 1.249 . S
O90 C89 1.264 . S
O91 Mg84 1.986 . S
O91 C95 1.246 . S
O92 Mg87 2.032 . S
O92 C95 1.259 . S
O93 Mg84 2.114 . S
O93 C96 1.252 . S
O94 Mg84 2.251 . S
O94 Mg87 2.079 . S
O94 C96 1.273 . S
C95 O91 1.246 . S
C95 O92 1.259 . S
C96 O93 1.252 . S
C96 O94 1.273 . S
O97 Mg84 2.010 . S
O97 C89 1.249 . S
Mg98 O99 2.028 . S
Mg98 O105 1.986 . S
Mg98 O107 2.114 . S
Mg98 O108 2.251 . S
Mg98 O111 2.010 . S
O99 Mg98 2.028 . S
O99 C102 1.250 . S
O100 Mg101 2.028 . S
O100 C102 1.248 . S
Mg101 O100 2.028 . S
Mg101 O106 2.032 . S
Mg101 O108 2.079 . S
C102 O99 1.250 . S
C102 O100 1.248 . S
C103 O104 1.264 . S
C103 O111 1.249 . S
O104 C103 1.264 . S
O105 Mg98 1.986 . S
O105 C109 1.246 . S
O106 Mg101 2.032 . S
O106 C109 1.259 . S
O107 Mg98 2.114 . S
O107 C110 1.252 . S
O108 Mg98 2.251 . S
O108 Mg101 2.079 . S
O108 C110 1.273 . S
C109 O105 1.246 . S
C109 O106 1.259 . S
C110 O107 1.252 . S
C110 O108 1.273 . S
O111 Mg98 2.010 . S
O111 C103 1.249 . S
Mg112 O113 2.028 . S
Mg112 O119 1.986 . S
Mg112 O121 2.114 . S
Mg112 O122 2.251 . S
Mg112 O125 2.010 . S
O113 Mg112 2.028 . S
O113 C116 1.250 . S
O114 Mg115 2.028 . S
O114 C116 1.248 . S
Mg115 O114 2.028 . S
Mg115 O120 2.032 . S
Mg115 O122 2.079 . S
C116 O113 1.250 . S
C116 O114 1.248 . S
C117 O118 1.264 . S
C117 O125 1.249 . S
O118 C117 1.264 . S
O119 Mg112 1.986 . S
O119 C123 1.246 . S
O120 Mg115 2.032 . S
O120 C123 1.259 . S
O121 Mg112 2.114 . S
O121 C124 1.252 . S
O122 Mg112 2.251 . S
O122 Mg115 2.079 . S
O122 C124 1.273 . S
C123 O119 1.246 . S
C123 O120 1.259 . S
C124 O121 1.252 . S
C124 O122 1.273 . S
O125 Mg112 2.010 . S
O125 C117 1.249 . S
Mg126 O127 2.028 . S
Mg126 O133 1.986 . S
Mg126 O135 2.114 . S
Mg126 O136 2.251 . S
Mg126 O139 2.010 . S
O127 Mg126 2.028 . S
O127 C130 1.250 . S
O128 Mg129 2.028 . S
O128 C130 1.248 . S
Mg129 O128 2.028 . S
Mg129 O134 2.032 . S
Mg129 O136 2.079 . S
C130 O127 1.250 . S
C130 O128 1.248 . S
C131 O132 1.264 . S
C131 O139 1.249 . S
O132 C131 1.264 . S
O133 Mg126 1.986 . S
O133 C137 1.246 . S
O134 Mg129 2.032 . S
O134 C137 1.259 . S
O135 Mg126 2.114 . S
O135 C138 1.252 . S
O136 Mg126 2.251 . S
O136 Mg129 2.079 . S
O136 C138 1.273 . S
C137 O133 1.246 . S
C137 O134 1.259 . S
C138 O135 1.252 . S
C138 O136 1.273 . S
O139 Mg126 2.010 . S
O139 C131 1.249 . S
Mg140 O141 2.028 . S
Mg140 O147 1.986 . S
Mg140 O149 2.114 . S
Mg140 O150 2.251 . S
Mg140 O153 2.010 . S
O141 Mg140 2.028 . S
O141 C144 1.250 . S
O142 Mg143 2.028 . S
O142 C144 1.248 . S
Mg143 O142 2.028 . S
Mg143 O148 2.032 . S
Mg143 O150 2.079 . S
C144 O141 1.250 . S
C144 O142 1.248 . S
C145 O146 1.264 . S
C145 O153 1.249 . S
O146 C145 1.264 . S
O147 Mg140 1.986 . S
O147 C151 1.246 . S
O148 Mg143 2.032 . S
O148 C151 1.259 . S
O149 Mg140 2.114 . S
O149 C152 1.252 . S
O150 Mg140 2.251 . S
O150 Mg143 2.079 . S
O150 C152 1.273 . S
C151 O147 1.246 . S
C151 O148 1.259 . S
C152 O149 1.252 . S
C152 O150 1.273 . S
O153 Mg140 2.010 . S
O153 C145 1.249 . S
Mg154 O155 2.028 . S
Mg154 O161 1.986 . S
Mg154 O163 2.114 . S
Mg154 O164 2.251 . S
Mg154 O167 2.010 . S
O155 Mg154 2.028 . S
O155 C158 1.250 . S
O156 Mg157 2.028 . S
O156 C158 1.248 . S
Mg157 O156 2.028 . S
Mg157 O162 2.032 . S
Mg157 O164 2.079 . S
C158 O155 1.250 . S
C158 O156 1.248 . S
C159 O160 1.264 . S
C159 O167 1.249 . S
O160 C159 1.264 . S
O161 Mg154 1.986 . S
O161 C165 1.246 . S
O162 Mg157 2.032 . S
O162 C165 1.259 . S
O163 Mg154 2.114 . S
O163 C166 1.252 . S
O164 Mg154 2.251 . S
O164 Mg157 2.079 . S
O164 C166 1.273 . S
C165 O161 1.246 . S
C165 O162 1.259 . S
C166 O163 1.252 . S
C166 O164 1.273 . S
O167 Mg154 2.010 . S
O167 C159 1.249 . S
Mg168 O169 2.028 . S
Mg168 O175 1.986 . S
Mg168 O177 2.114 . S
Mg168 O178 2.251 . S
Mg168 O181 2.010 . S
O169 Mg168 2.028 . S
O169 C172 1.250 . S
O170 Mg171 2.028 . S
O170 C172 1.248 . S
Mg171 O170 2.028 . S
Mg171 O176 2.032 . S
Mg171 O178 2.079 . S
C172 O169 1.250 . S
C172 O170 1.248 . S
C173 O174 1.264 . S
C173 O181 1.249 . S
O174 C173 1.264 . S
O175 Mg168 1.986 . S
O175 C179 1.246 . S
O176 Mg171 2.032 . S
O176 C179 1.259 . S
O177 Mg168 2.114 . S
O177 C180 1.252 . S
O178 Mg168 2.251 . S
O178 Mg171 2.079 . S
O178 C180 1.273 . S
C179 O175 1.246 . S
C179 O176 1.259 . S
C180 O177 1.252 . S
C180 O178 1.273 . S
O181 Mg168 2.010 . S
O181 C173 1.249 . S
Mg182 O183 2.028 . S
Mg182 O189 1.986 . S
Mg182 O191 2.114 . S
Mg182 O192 2.251 . S
Mg182 O195 2.010 . S
O183 Mg182 2.028 . S
O183 C186 1.250 . S
O184 Mg185 2.028 . S
O184 C186 1.248 . S
Mg185 O184 2.028 . S
Mg185 O190 2.032 . S
Mg185 O192 2.079 . S
C186 O183 1.250 . S
C186 O184 1.248 . S
C187 O188 1.264 . S
C187 O195 1.249 . S
O188 C187 1.264 . S
O189 Mg182 1.986 . S
O189 C193 1.246 . S
O190 Mg185 2.032 . S
O190 C193 1.259 . S
O191 Mg182 2.114 . S
O191 C194 1.252 . S
O192 Mg182 2.251 . S
O192 Mg185 2.079 . S
O192 C194 1.273 . S
C193 O189 1.246 . S
C193 O190 1.259 . S
C194 O191 1.252 . S
C194 O192 1.273 . S
O195 Mg182 2.010 . S
O195 C187 1.249 . S
Mg196 O197 2.028 . S
Mg196 O203 1.986 . S
Mg196 O205 2.114 . S
Mg196 O206 2.251 . S
Mg196 O209 2.010 . S
O197 Mg196 2.028 . S
O197 C200 1.250 . S
O198 Mg199 2.028 . S
O198 C200 1.248 . S
Mg199 O198 2.028 . S
Mg199 O204 2.032 . S
Mg199 O206 2.079 . S
C200 O197 1.250 . S
C200 O198 1.248 . S
C201 O202 1.264 . S
C201 O209 1.249 . S
O202 C201 1.264 . S
O203 Mg196 1.986 . S
O203 C207 1.246 . S
O204 Mg199 2.032 . S
O204 C207 1.259 . S
O205 Mg196 2.114 . S
O205 C208 1.252 . S
O206 Mg196 2.251 . S
O206 Mg199 2.079 . S
O206 C208 1.273 . S
C207 O203 1.246 . S
C207 O204 1.259 . S
C208 O205 1.252 . S
C208 O206 1.273 . S
O209 Mg196 2.010 . S
O209 C201 1.249 . S
Mg210 O211 2.028 . S
Mg210 O217 1.986 . S
Mg210 O219 2.114 . S
Mg210 O220 2.251 . S
Mg210 O223 2.010 . S
O211 Mg210 2.028 . S
O211 C214 1.250 . S
O212 Mg213 2.028 . S
O212 C214 1.248 . S
Mg213 O212 2.028 . S
Mg213 O218 2.032 . S
Mg213 O220 2.079 . S
C214 O211 1.250 . S
C214 O212 1.248 . S
C215 O216 1.264 . S
C215 O223 1.249 . S
O216 C215 1.264 . S
O217 Mg210 1.986 . S
O217 C221 1.246 . S
O218 Mg213 2.032 . S
O218 C221 1.259 . S
O219 Mg210 2.114 . S
O219 C222 1.252 . S
O220 Mg210 2.251 . S
O220 Mg213 2.079 . S
O220 C222 1.273 . S
C221 O217 1.246 . S
C221 O218 1.259 . S
C222 O219 1.252 . S
C222 O220 1.273 . S
O223 Mg210 2.010 . S
O223 C215 1.249 . S
Mg224 O225 2.028 . S
Mg224 O231 1.986 . S
Mg224 O233 2.114 . S
Mg224 O234 2.251 . S
Mg224 O237 2.010 . S
O225 Mg224 2.028 . S
O225 C228 1.250 . S
O226 Mg227 2.028 . S
O226 C228 1.248 . S
Mg227 O226 2.028 . S
Mg227 O232 2.032 . S
Mg227 O234 2.079 . S
C228 O225 1.250 . S
C228 O226 1.248 . S
C229 O230 1.264 . S
C229 O237 1.249 . S
O230 C229 1.264 . S
O231 Mg224 1.986 . S
O231 C235 1.246 . S
O232 Mg227 2.032 . S
O232 C235 1.259 . S
O233 Mg224 2.114 . S
O233 C236 1.252 . S
O234 Mg224 2.251 . S
O234 Mg227 2.079 . S
O234 C236 1.273 . S
C235 O231 1.246 . S
C235 O232 1.259 . S
C236 O233 1.252 . S
C236 O234 1.273 . S
O237 Mg224 2.010 . S
O237 C229 1.249 . S
Mg238 O239 2.028 . S
Mg238 O245 1.986 . S
Mg238 O247 2.114 . S
Mg238 O248 2.251 . S
Mg238 O251 2.010 . S
O239 Mg238 2.028 . S
O239 C242 1.250 . S
O240 Mg241 2.028 . S
O240 C242 1.248 . S
Mg241 O240 2.028 . S
Mg241 O246 2.032 . S
Mg241 O248 2.079 . S
C242 O239 1.250 . S
C242 O240 1.248 . S
C243 O244 1.264 . S
C243 O251 1.249 . S
O244 C243 1.264 . S
O245 Mg238 1.986 . S
O245 C249 1.246 . S
O246 Mg241 2.032 . S
O246 C249 1.259 . S
O247 Mg238 2.114 . S
O247 C250 1.252 . S
O248 Mg238 2.251 . S
O248 Mg241 2.079 . S
O248 C250 1.273 . S
C249 O245 1.246 . S
C249 O246 1.259 . S
C250 O247 1.252 . S
C250 O248 1.273 . S
O251 Mg238 2.010 . S
O251 C243 1.249 . S
Mg252 O253 2.028 . S
Mg252 O259 1.986 . S
Mg252 O261 2.114 . S
Mg252 O262 2.251 . S
Mg252 O265 2.010 . S
O253 Mg252 2.028 . S
O253 C256 1.250 . S
O254 Mg255 2.028 . S
O254 C256 1.248 . S
Mg255 O254 2.028 . S
Mg255 O260 2.032 . S
Mg255 O262 2.079 . S
C256 O253 1.250 . S
C256 O254 1.248 . S
C257 O258 1.264 . S
C257 O265 1.249 . S
O258 C257 1.264 . S
O259 Mg252 1.986 . S
O259 C263 1.246 . S
O260 Mg255 2.032 . S
O260 C263 1.259 . S
O261 Mg252 2.114 . S
O261 C264 1.252 . S
O262 Mg252 2.251 . S
O262 Mg255 2.079 . S
O262 C264 1.273 . S
C263 O259 1.246 . S
C263 O260 1.259 . S
C264 O261 1.252 . S
C264 O262 1.273 . S
O265 Mg252 2.010 . S
O265 C257 1.249 . S
Mg266 O267 2.028 . S
Mg266 O273 1.986 . S
Mg266 O275 2.114 . S
Mg266 O276 2.251 . S
Mg266 O279 2.010 . S
O267 Mg266 2.028 . S
O267 C270 1.250 . S
O268 Mg269 2.028 . S
O268 C270 1.248 . S
Mg269 O268 2.028 . S
Mg269 O274 2.032 . S
Mg269 O276 2.079 . S
C270 O267 1.250 . S
C270 O268 1.248 . S
C271 O272 1.264 . S
C271 O279 1.249 . S
O272 C271 1.264 . S
O273 Mg266 1.986 . S
O273 C277 1.246 . S
O274 Mg269 2.032 . S
O274 C277 1.259 . S
O275 Mg266 2.114 . S
O275 C278 1.252 . S
O276 Mg266 2.251 . S
O276 Mg269 2.079 . S
O276 C278 1.273 . S
C277 O273 1.246 . S
C277 O274 1.259 . S
C278 O275 1.252 . S
C278 O276 1.273 . S
O279 Mg266 2.010 . S
O279 C271 1.249 . S
Mg280 O281 2.028 . S
Mg280 O287 1.986 . S
Mg280 O289 2.114 . S
Mg280 O290 2.251 . S
Mg280 O293 2.010 . S
O281 Mg280 2.028 . S
O281 C284 1.250 . S
O282 Mg283 2.028 . S
O282 C284 1.248 . S
Mg283 O282 2.028 . S
Mg283 O288 2.032 . S
Mg283 O290 2.079 . S
C284 O281 1.250 . S
C284 O282 1.248 . S
C285 O286 1.264 . S
C285 O293 1.249 . S
O286 C285 1.264 . S
O287 Mg280 1.986 . S
O287 C291 1.246 . S
O288 Mg283 2.032 . S
O288 C291 1.259 . S
O289 Mg280 2.114 . S
O289 C292 1.252 . S
O290 Mg280 2.251 . S
O290 Mg283 2.079 . S
O290 C292 1.273 . S
C291 O287 1.246 . S
C291 O288 1.259 . S
C292 O289 1.252 . S
C292 O290 1.273 . S
O293 Mg280 2.010 . S
O293 C285 1.249 . S
Mg294 O295 2.028 . S
Mg294 O301 1.986 . S
Mg294 O303 2.114 . S
Mg294 O304 2.251 . S
Mg294 O307 2.010 . S
O295 Mg294 2.028 . S
O295 C298 1.250 . S
O296 Mg297 2.028 . S
O296 C298 1.248 . S
Mg297 O296 2.028 . S
Mg297 O302 2.032 . S
Mg297 O304 2.079 . S
C298 O295 1.250 . S
C298 O296 1.248 . S
C299 O300 1.264 . S
C299 O307 1.249 . S
O300 C299 1.264 . S
O301 Mg294 1.986 . S
O301 C305 1.246 . S
O302 Mg297 2.032 . S
O302 C305 1.259 . S
O303 Mg294 2.114 . S
O303 C306 1.252 . S
O304 Mg294 2.251 . S
O304 Mg297 2.079 . S
O304 C306 1.273 . S
C305 O301 1.246 . S
C305 O302 1.259 . S
C306 O303 1.252 . S
C306 O304 1.273 . S
O307 Mg294 2.010 . S
O307 C299 1.249 . S
Mg308 O309 2.028 . S
Mg308 O315 1.986 . S
Mg308 O317 2.114 . S
Mg308 O318 2.251 . S
Mg308 O321 2.010 . S
O309 Mg308 2.028 . S
O309 C312 1.250 . S
O310 Mg311 2.028 . S
O310 C312 1.248 . S
Mg311 O310 2.028 . S
Mg311 O316 2.032 . S
Mg311 O318 2.079 . S
C312 O309 1.250 . S
C312 O310 1.248 . S
C313 O314 1.264 . S
C313 O321 1.249 . S
O314 C313 1.264 . S
O315 Mg308 1.986 . S
O315 C319 1.246 . S
O316 Mg311 2.032 . S
O316 C319 1.259 . S
O317 Mg308 2.114 . S
O317 C320 1.252 . S
O318 Mg308 2.251 . S
O318 Mg311 2.079 . S
O318 C320 1.273 . S
C319 O315 1.246 . S
C319 O316 1.259 . S
C320 O317 1.252 . S
C320 O318 1.273 . S
O321 Mg308 2.010 . S
O321 C313 1.249 . S
Mg322 O323 2.028 . S
Mg322 O329 1.986 . S
Mg322 O331 2.114 . S
Mg322 O332 2.251 . S
Mg322 O335 2.010 . S
O323 Mg322 2.028 . S
O323 C326 1.250 . S
O324 Mg325 2.028 . S
O324 C326 1.248 . S
Mg325 O324 2.028 . S
Mg325 O330 2.032 . S
Mg325 O332 2.079 . S
C326 O323 1.250 . S
C326 O324 1.248 . S
C327 O328 1.264 . S
C327 O335 1.249 . S
O328 C327 1.264 . S
O329 Mg322 1.986 . S
O329 C333 1.246 . S
O330 Mg325 2.032 . S
O330 C333 1.259 . S
O331 Mg322 2.114 . S
O331 C334 1.252 . S
O332 Mg322 2.251 . S
O332 Mg325 2.079 . S
O332 C334 1.273 . S
C333 O329 1.246 . S
C333 O330 1.259 . S
C334 O331 1.252 . S
C334 O332 1.273 . S
O335 Mg322 2.010 . S
O335 C327 1.249 . S
Mg336 O337 2.028 . S
Mg336 O343 1.986 . S
Mg336 O345 2.114 . S
Mg336 O346 2.251 . S
Mg336 O349 2.010 . S
O337 Mg336 2.028 . S
O337 C340 1.250 . S
O338 Mg339 2.028 . S
O338 C340 1.248 . S
Mg339 O338 2.028 . S
Mg339 O344 2.032 . S
Mg339 O346 2.079 . S
C340 O337 1.250 . S
C340 O338 1.248 . S
C341 O342 1.264 . S
C341 O349 1.249 . S
O342 C341 1.264 . S
O343 Mg336 1.986 . S
O343 C347 1.246 . S
O344 Mg339 2.032 . S
O344 C347 1.259 . S
O345 Mg336 2.114 . S
O345 C348 1.252 . S
O346 Mg336 2.251 . S
O346 Mg339 2.079 . S
O346 C348 1.273 . S
C347 O343 1.246 . S
C347 O344 1.259 . S
C348 O345 1.252 . S
C348 O346 1.273 . S
O349 Mg336 2.010 . S
O349 C341 1.249 . S
Mg350 O351 2.028 . S
Mg350 O357 1.986 . S
Mg350 O359 2.114 . S
Mg350 O360 2.251 . S
Mg350 O363 2.010 . S
O351 Mg350 2.028 . S
O351 C354 1.250 . S
O352 Mg353 2.028 . S
O352 C354 1.248 . S
Mg353 O352 2.028 . S
Mg353 O358 2.032 . S
Mg353 O360 2.079 . S
C354 O351 1.250 . S
C354 O352 1.248 . S
C355 O356 1.264 . S
C355 O363 1.249 . S
O356 C355 1.264 . S
O357 Mg350 1.986 . S
O357 C361 1.246 . S
O358 Mg353 2.032 . S
O358 C361 1.259 . S
O359 Mg350 2.114 . S
O359 C362 1.252 . S
O360 Mg350 2.251 . S
O360 Mg353 2.079 . S
O360 C362 1.273 . S
C361 O357 1.246 . S
C361 O358 1.259 . S
C362 O359 1.252 . S
C362 O360 1.273 . S
O363 Mg350 2.010 . S
O363 C355 1.249 . S
Mg364 O365 2.028 . S
Mg364 O371 1.986 . S
Mg364 O373 2.114 . S
Mg364 O374 2.251 . S
Mg364 O377 2.010 . S
O365 Mg364 2.028 . S
O365 C368 1.250 . S
O366 Mg367 2.028 . S
O366 C368 1.248 . S
Mg367 O366 2.028 . S
Mg367 O372 2.032 . S
Mg367 O374 2.079 . S
C368 O365 1.250 . S
C368 O366 1.248 . S
C369 O370 1.264 . S
C369 O377 1.249 . S
O370 C369 1.264 . S
O371 Mg364 1.986 . S
O371 C375 1.246 . S
O372 Mg367 2.032 . S
O372 C375 1.259 . S
O373 Mg364 2.114 . S
O373 C376 1.252 . S
O374 Mg364 2.251 . S
O374 Mg367 2.079 . S
O374 C376 1.273 . S
C375 O371 1.246 . S
C375 O372 1.259 . S
C376 O373 1.252 . S
C376 O374 1.273 . S
O377 Mg364 2.010 . S
O377 C369 1.249 . S
Mg378 O379 2.028 . S
Mg378 O385 1.986 . S
Mg378 O387 2.114 . S
Mg378 O388 2.251 . S
Mg378 O391 2.010 . S
O379 Mg378 2.028 . S
O379 C382 1.250 . S
O380 Mg381 2.028 . S
O380 C382 1.248 . S
Mg381 O380 2.028 . S
Mg381 O386 2.032 . S
Mg381 O388 2.079 . S
C382 O379 1.250 . S
C382 O380 1.248 . S
C383 O384 1.264 . S
C383 O391 1.249 . S
O384 C383 1.264 . S
O385 Mg378 1.986 . S
O385 C389 1.246 . S
O386 Mg381 2.032 . S
O386 C389 1.259 . S
O387 Mg378 2.114 . S
O387 C390 1.252 . S
O388 Mg378 2.251 . S
O388 Mg381 2.079 . S
O388 C390 1.273 . S
C389 O385 1.246 . S
C389 O386 1.259 . S
C390 O387 1.252 . S
C390 O388 1.273 . S
O391 Mg378 2.010 . S
O391 C383 1.249 . S
Mg392 O393 2.028 . S
Mg392 O399 1.986 . S
Mg392 O401 2.114 . S
Mg392 O402 2.251 . S
Mg392 O405 2.010 . S
O393 Mg392 2.028 . S
O393 C396 1.250 . S
O394 Mg395 2.028 . S
O394 C396 1.248 . S
Mg395 O394 2.028 . S
Mg395 O400 2.032 . S
Mg395 O402 2.079 . S
C396 O393 1.250 . S
C396 O394 1.248 . S
C397 O398 1.264 . S
C397 O405 1.249 . S
O398 C397 1.264 . S
O399 Mg392 1.986 . S
O399 C403 1.246 . S
O400 Mg395 2.032 . S
O400 C403 1.259 . S
O401 Mg392 2.114 . S
O401 C404 1.252 . S
O402 Mg392 2.251 . S
O402 Mg395 2.079 . S
O402 C404 1.273 . S
C403 O399 1.246 . S
C403 O400 1.259 . S
C404 O401 1.252 . S
C404 O402 1.273 . S
O405 Mg392 2.010 . S
O405 C397 1.249 . S
Mg406 O407 2.028 . S
Mg406 O413 1.986 . S
Mg406 O415 2.114 . S
Mg406 O416 2.251 . S
Mg406 O419 2.010 . S
O407 Mg406 2.028 . S
O407 C410 1.250 . S
O408 Mg409 2.028 . S
O408 C410 1.248 . S
Mg409 O408 2.028 . S
Mg409 O414 2.032 . S
Mg409 O416 2.079 . S
C410 O407 1.250 . S
C410 O408 1.248 . S
C411 O412 1.264 . S
C411 O419 1.249 . S
O412 C411 1.264 . S
O413 Mg406 1.986 . S
O413 C417 1.246 . S
O414 Mg409 2.032 . S
O414 C417 1.259 . S
O415 Mg406 2.114 . S
O415 C418 1.252 . S
O416 Mg406 2.251 . S
O416 Mg409 2.079 . S
O416 C418 1.273 . S
C417 O413 1.246 . S
C417 O414 1.259 . S
C418 O415 1.252 . S
C418 O416 1.273 . S
O419 Mg406 2.010 . S
O419 C411 1.249 . S
Mg420 O421 2.028 . S
Mg420 O427 1.986 . S
Mg420 O429 2.114 . S
Mg420 O430 2.251 . S
Mg420 O433 2.010 . S
O421 Mg420 2.028 . S
O421 C424 1.250 . S
O422 Mg423 2.028 . S
O422 C424 1.248 . S
Mg423 O422 2.028 . S
Mg423 O428 2.032 . S
Mg423 O430 2.079 . S
C424 O421 1.250 . S
C424 O422 1.248 . S
C425 O426 1.264 . S
C425 O433 1.249 . S
O426 C425 1.264 . S
O427 Mg420 1.986 . S
O427 C431 1.246 . S
O428 Mg423 2.032 . S
O428 C431 1.259 . S
O429 Mg420 2.114 . S
O429 C432 1.252 . S
O430 Mg420 2.251 . S
O430 Mg423 2.079 . S
O430 C432 1.273 . S
C431 O427 1.246 . S
C431 O428 1.259 . S
C432 O429 1.252 . S
C432 O430 1.273 . S
O433 Mg420 2.010 . S
O433 C425 1.249 . S
Mg434 O435 2.028 . S
Mg434 O441 1.986 . S
Mg434 O443 2.114 . S
Mg434 O444 2.251 . S
Mg434 O447 2.010 . S
O435 Mg434 2.028 . S
O435 C438 1.250 . S
O436 Mg437 2.028 . S
O436 C438 1.248 . S
Mg437 O436 2.028 . S
Mg437 O442 2.032 . S
Mg437 O444 2.079 . S
C438 O435 1.250 . S
C438 O436 1.248 . S
C439 O440 1.264 . S
C439 O447 1.249 . S
O440 C439 1.264 . S
O441 Mg434 1.986 . S
O441 C445 1.246 . S
O442 Mg437 2.032 . S
O442 C445 1.259 . S
O443 Mg434 2.114 . S
O443 C446 1.252 . S
O444 Mg434 2.251 . S
O444 Mg437 2.079 . S
O444 C446 1.273 . S
C445 O441 1.246 . S
C445 O442 1.259 . S
C446 O443 1.252 . S
C446 O444 1.273 . S
O447 Mg434 2.010 . S
O447 C439 1.249 . S
Mg448 O449 2.028 . S
Mg448 O455 1.986 . S
Mg448 O457 2.114 . S
Mg448 O458 2.251 . S
Mg448 O461 2.010 . S
O449 Mg448 2.028 . S
O449 C452 1.250 . S
O450 Mg451 2.028 . S
O450 C452 1.248 . S
Mg451 O450 2.028 . S
Mg451 O456 2.032 . S
Mg451 O458 2.079 . S
C452 O449 1.250 . S
C452 O450 1.248 . S
C453 O454 1.264 . S
C453 O461 1.249 . S
O454 C453 1.264 . S
O455 Mg448 1.986 . S
O455 C459 1.246 . S
O456 Mg451 2.032 . S
O456 C459 1.259 . S
O457 Mg448 2.114 . S
O457 C460 1.252 . S
O458 Mg448 2.251 . S
O458 Mg451 2.079 . S
O458 C460 1.273 . S
C459 O455 1.246 . S
C459 O456 1.259 . S
C460 O457 1.252 . S
C460 O458 1.273 . S
O461 Mg448 2.010 . S
O461 C453 1.249 . S
Mg462 O463 2.028 . S
Mg462 O469 1.986 . S
Mg462 O471 2.114 . S
Mg462 O472 2.251 . S
Mg462 O475 2.010 . S
O463 Mg462 2.028 . S
O463 C466 1.250 . S
O464 Mg465 2.028 . S
O464 C466 1.248 . S
Mg465 O464 2.028 . S
Mg465 O470 2.032 . S
Mg465 O472 2.079 . S
C466 O463 1.250 . S
C466 O464 1.248 . S
C467 O468 1.264 . S
C467 O475 1.249 . S
O468 C467 1.264 . S
O469 Mg462 1.986 . S
O469 C473 1.246 . S
O470 Mg465 2.032 . S
O470 C473 1.259 . S
O471 Mg462 2.114 . S
O471 C474 1.252 . S
O472 Mg462 2.251 . S
O472 Mg465 2.079 . S
O472 C474 1.273 . S
C473 O469 1.246 . S
C473 O470 1.259 . S
C474 O471 1.252 . S
C474 O472 1.273 . S
O475 Mg462 2.010 . S
O475 C467 1.249 . S
Mg476 O477 2.028 . S
Mg476 O483 1.986 . S
Mg476 O485 2.114 . S
Mg476 O486 2.251 . S
Mg476 O489 2.010 . S
O477 Mg476 2.028 . S
O477 C480 1.250 . S
O478 Mg479 2.028 . S
O478 C480 1.248 . S
Mg479 O478 2.028 . S
Mg479 O484 2.032 . S
Mg479 O486 2.079 . S
C480 O477 1.250 . S
C480 O478 1.248 . S
C481 O482 1.264 . S
C481 O489 1.249 . S
O482 C481 1.264 . S
O483 Mg476 1.986 . S
O483 C487 1.246 . S
O484 Mg479 2.032 . S
O484 C487 1.259 . S
O485 Mg476 2.114 . S
O485 C488 1.252 . S
O486 Mg476 2.251 . S
O486 Mg479 2.079 . S
O486 C488 1.273 . S
C487 O483 1.246 . S
C487 O484 1.259 . S
C488 O485 1.252 . S
C488 O486 1.273 . S
O489 Mg476 2.010 . S
O489 C481 1.249 . S
Mg490 O491 2.028 . S
Mg490 O497 1.986 . S
Mg490 O499 2.114 . S
Mg490 O500 2.251 . S
Mg490 O503 2.010 . S
O491 Mg490 2.028 . S
O491 C494 1.250 . S
O492 Mg493 2.028 . S
O492 C494 1.248 . S
Mg493 O492 2.028 . S
Mg493 O498 2.032 . S
Mg493 O500 2.079 . S
C494 O491 1.250 . S
C494 O492 1.248 . S
C495 O496 1.264 . S
C495 O503 1.249 . S
O496 C495 1.264 . S
O497 Mg490 1.986 . S
O497 C501 1.246 . S
O498 Mg493 2.032 . S
O498 C501 1.259 . S
O499 Mg490 2.114 . S
O499 C502 1.252 . S
O500 Mg490 2.251 . S
O500 Mg493 2.079 . S
O500 C502 1.273 . S
C501 O497 1.246 . S
C501 O498 1.259 . S
C502 O499 1.252 . S
C502 O500 1.273 . S
O503 Mg490 2.010 . S
O503 C495 1.249 . S
Mg504 O505 2.028 . S
Mg504 O511 1.986 . S
Mg504 O513 2.114 . S
Mg504 O514 2.251 . S
Mg504 O517 2.010 . S
O505 Mg504 2.028 . S
O505 C508 1.250 . S
O506 Mg507 2.028 . S
O506 C508 1.248 . S
Mg507 O506 2.028 . S
Mg507 O512 2.032 . S
Mg507 O514 2.079 . S
C508 O505 1.250 . S
C508 O506 1.248 . S
C509 O510 1.264 . S
C509 O517 1.249 . S
O510 C509 1.264 . S
O511 Mg504 1.986 . S
O511 C515 1.246 . S
O512 Mg507 2.032 . S
O512 C515 1.259 . S
O513 Mg504 2.114 . S
O513 C516 1.252 . S
O514 Mg504 2.251 . S
O514 Mg507 2.079 . S
O514 C516 1.273 . S
C515 O511 1.246 . S
C515 O512 1.259 . S
C516 O513 1.252 . S
C516 O514 1.273 . S
O517 Mg504 2.010 . S
O517 C509 1.249 . S
Mg518 O519 2.028 . S
Mg518 O525 1.986 . S
Mg518 O527 2.114 . S
Mg518 O528 2.251 . S
Mg518 O531 2.010 . S
O519 Mg518 2.028 . S
O519 C522 1.250 . S
O520 Mg521 2.028 . S
O520 C522 1.248 . S
Mg521 O520 2.028 . S
Mg521 O526 2.032 . S
Mg521 O528 2.079 . S
C522 O519 1.250 . S
C522 O520 1.248 . S
C523 O524 1.264 . S
C523 O531 1.249 . S
O524 C523 1.264 . S
O525 Mg518 1.986 . S
O525 C529 1.246 . S
O526 Mg521 2.032 . S
O526 C529 1.259 . S
O527 Mg518 2.114 . S
O527 C530 1.252 . S
O528 Mg518 2.251 . S
O528 Mg521 2.079 . S
O528 C530 1.273 . S
C529 O525 1.246 . S
C529 O526 1.259 . S
C530 O527 1.252 . S
C530 O528 1.273 . S
O531 Mg518 2.010 . S
O531 C523 1.249 . S
Mg532 O533 2.028 . S
Mg532 O539 1.986 . S
Mg532 O541 2.114 . S
Mg532 O542 2.251 . S
Mg532 O545 2.010 . S
O533 Mg532 2.028 . S
O533 C536 1.250 . S
O534 Mg535 2.028 . S
O534 C536 1.248 . S
Mg535 O534 2.028 . S
Mg535 O540 2.032 . S
Mg535 O542 2.079 . S
C536 O533 1.250 . S
C536 O534 1.248 . S
C537 O538 1.264 . S
C537 O545 1.249 . S
O538 C537 1.264 . S
O539 Mg532 1.986 . S
O539 C543 1.246 . S
O540 Mg535 2.032 . S
O540 C543 1.259 . S
O541 Mg532 2.114 . S
O541 C544 1.252 . S
O542 Mg532 2.251 . S
O542 Mg535 2.079 . S
O542 C544 1.273 . S
C543 O539 1.246 . S
C543 O540 1.259 . S
C544 O541 1.252 . S
C544 O542 1.273 . S
O545 Mg532 2.010 . S
O545 C537 1.249 . S
Mg546 O547 2.028 . S
Mg546 O553 1.986 . S
Mg546 O555 2.114 . S
Mg546 O556 2.251 . S
Mg546 O559 2.010 . S
O547 Mg546 2.028 . S
O547 C550 1.250 . S
O548 Mg549 2.028 . S
O548 C550 1.248 . S
Mg549 O548 2.028 . S
Mg549 O554 2.032 . S
Mg549 O556 2.079 . S
C550 O547 1.250 . S
C550 O548 1.248 . S
C551 O552 1.264 . S
C551 O559 1.249 . S
O552 C551 1.264 . S
O553 Mg546 1.986 . S
O553 C557 1.246 . S
O554 Mg549 2.032 . S
O554 C557 1.259 . S
O555 Mg546 2.114 . S
O555 C558 1.252 . S
O556 Mg546 2.251 . S
O556 Mg549 2.079 . S
O556 C558 1.273 . S
C557 O553 1.246 . S
C557 O554 1.259 . S
C558 O555 1.252 . S
C558 O556 1.273 . S
O559 Mg546 2.010 . S
O559 C551 1.249 . S
Mg560 O561 2.028 . S
Mg560 O567 1.986 . S
Mg560 O569 2.114 . S
Mg560 O570 2.251 . S
Mg560 O573 2.010 . S
O561 Mg560 2.028 . S
O561 C564 1.250 . S
O562 Mg563 2.028 . S
O562 C564 1.248 . S
Mg563 O562 2.028 . S
Mg563 O568 2.032 . S
Mg563 O570 2.079 . S
C564 O561 1.250 . S
C564 O562 1.248 . S
C565 O566 1.264 . S
C565 O573 1.249 . S
O566 C565 1.264 . S
O567 Mg560 1.986 . S
O567 C571 1.246 . S
O568 Mg563 2.032 . S
O568 C571 1.259 . S
O569 Mg560 2.114 . S
O569 C572 1.252 . S
O570 Mg560 2.251 . S
O570 Mg563 2.079 . S
O570 C572 1.273 . S
C571 O567 1.246 . S
C571 O568 1.259 . S
C572 O569 1.252 . S
C572 O570 1.273 . S
O573 Mg560 2.010 . S
O573 C565 1.249 . S
Mg574 O575 2.028 . S
Mg574 O581 1.986 . S
Mg574 O583 2.114 . S
Mg574 O584 2.251 . S
Mg574 O587 2.010 . S
O575 Mg574 2.028 . S
O575 C578 1.250 . S
O576 Mg577 2.028 . S
O576 C578 1.248 . S
Mg577 O576 2.028 . S
Mg577 O582 2.032 . S
Mg577 O584 2.079 . S
C578 O575 1.250 . S
C578 O576 1.248 . S
C579 O580 1.264 . S
C579 O587 1.249 . S
O580 C579 1.264 . S
O581 Mg574 1.986 . S
O581 C585 1.246 . S
O582 Mg577 2.032 . S
O582 C585 1.259 . S
O583 Mg574 2.114 . S
O583 C586 1.252 . S
O584 Mg574 2.251 . S
O584 Mg577 2.079 . S
O584 C586 1.273 . S
C585 O581 1.246 . S
C585 O582 1.259 . S
C586 O583 1.252 . S
C586 O584 1.273 . S
O587 Mg574 2.010 . S
O587 C579 1.249 . S
Mg588 O589 2.028 . S
Mg588 O595 1.986 . S
Mg588 O597 2.114 . S
Mg588 O598 2.251 . S
Mg588 O601 2.010 . S
O589 Mg588 2.028 . S
O589 C592 1.250 . S
O590 Mg591 2.028 . S
O590 C592 1.248 . S
Mg591 O590 2.028 . S
Mg591 O596 2.032 . S
Mg591 O598 2.079 . S
C592 O589 1.250 . S
C592 O590 1.248 . S
C593 O594 1.264 . S
C593 O601 1.249 . S
O594 C593 1.264 . S
O595 Mg588 1.986 . S
O595 C599 1.246 . S
O596 Mg591 2.032 . S
O596 C599 1.259 . S
O597 Mg588 2.114 . S
O597 C600 1.252 . S
O598 Mg588 2.251 . S
O598 Mg591 2.079 . S
O598 C600 1.273 . S
C599 O595 1.246 . S
C599 O596 1.259 . S
C600 O597 1.252 . S
C600 O598 1.273 . S
O601 Mg588 2.010 . S
O601 C593 1.249 . S
Mg602 O603 2.028 . S
Mg602 O609 1.986 . S
Mg602 O611 2.114 . S
Mg602 O612 2.251 . S
Mg602 O615 2.010 . S
O603 Mg602 2.028 . S
O603 C606 1.250 . S
O604 Mg605 2.028 . S
O604 C606 1.248 . S
Mg605 O604 2.028 . S
Mg605 O610 2.032 . S
Mg605 O612 2.079 . S
C606 O603 1.250 . S
C606 O604 1.248 . S
C607 O608 1.264 . S
C607 O615 1.249 . S
O608 C607 1.264 . S
O609 Mg602 1.986 . S
O609 C613 1.246 . S
O610 Mg605 2.032 . S
O610 C613 1.259 . S
O611 Mg602 2.114 . S
O611 C614 1.252 . S
O612 Mg602 2.251 . S
O612 Mg605 2.079 . S
O612 C614 1.273 . S
C613 O609 1.246 . S
C613 O610 1.259 . S
C614 O611 1.252 . S
C614 O612 1.273 . S
O615 Mg602 2.010 . S
O615 C607 1.249 . S
Mg616 O617 2.028 . S
Mg616 O623 1.986 . S
Mg616 O625 2.114 . S
Mg616 O626 2.251 . S
Mg616 O629 2.010 . S
O617 Mg616 2.028 . S
O617 C620 1.250 . S
O618 Mg619 2.028 . S
O618 C620 1.248 . S
Mg619 O618 2.028 . S
Mg619 O624 2.032 . S
Mg619 O626 2.079 . S
C620 O617 1.250 . S
C620 O618 1.248 . S
C621 O622 1.264 . S
C621 O629 1.249 . S
O622 C621 1.264 . S
O623 Mg616 1.986 . S
O623 C627 1.246 . S
O624 Mg619 2.032 . S
O624 C627 1.259 . S
O625 Mg616 2.114 . S
O625 C628 1.252 . S
O626 Mg616 2.251 . S
O626 Mg619 2.079 . S
O626 C628 1.273 . S
C627 O623 1.246 . S
C627 O624 1.259 . S
C628 O625 1.252 . S
C628 O626 1.273 . S
O629 Mg616 2.010 . S
O629 C621 1.249 . S
Mg630 O631 2.028 . S
Mg630 O637 1.986 . S
Mg630 O639 2.114 . S
Mg630 O640 2.251 . S
Mg630 O643 2.010 . S
O631 Mg630 2.028 . S
O631 C634 1.250 . S
O632 Mg633 2.028 . S
O632 C634 1.248 . S
Mg633 O632 2.028 . S
Mg633 O638 2.032 . S
Mg633 O640 2.079 . S
C634 O631 1.250 . S
C634 O632 1.248 . S
C635 O636 1.264 . S
C635 O643 1.249 . S
O636 C635 1.264 . S
O637 Mg630 1.986 . S
O637 C641 1.246 . S
O638 Mg633 2.032 . S
O638 C641 1.259 . S
O639 Mg630 2.114 . S
O639 C642 1.252 . S
O640 Mg630 2.251 . S
O640 Mg633 2.079 . S
O640 C642 1.273 . S
C641 O637 1.246 . S
C641 O638 1.259 . S
C642 O639 1.252 . S
C642 O640 1.273 . S
O643 Mg630 2.010 . S
O643 C635 1.249 . S
Mg644 O645 2.028 . S
Mg644 O651 1.986 . S
Mg644 O653 2.114 . S
Mg644 O654 2.251 . S
Mg644 O657 2.010 . S
O645 Mg644 2.028 . S
O645 C648 1.250 . S
O646 Mg647 2.028 . S
O646 C648 1.248 . S
Mg647 O646 2.028 . S
Mg647 O652 2.032 . S
Mg647 O654 2.079 . S
C648 O645 1.250 . S
C648 O646 1.248 . S
C649 O650 1.264 . S
C649 O657 1.249 . S
O650 C649 1.264 . S
O651 Mg644 1.986 . S
O651 C655 1.246 . S
O652 Mg647 2.032 . S
O652 C655 1.259 . S
O653 Mg644 2.114 . S
O653 C656 1.252 . S
O654 Mg644 2.251 . S
O654 Mg647 2.079 . S
O654 C656 1.273 . S
C655 O651 1.246 . S
C655 O652 1.259 . S
C656 O653 1.252 . S
C656 O654 1.273 . S
O657 Mg644 2.010 . S
O657 C649 1.249 . S
Mg658 O659 2.028 . S
Mg658 O665 1.986 . S
Mg658 O667 2.114 . S
Mg658 O668 2.251 . S
Mg658 O671 2.010 . S
O659 Mg658 2.028 . S
O659 C662 1.250 . S
O660 Mg661 2.028 . S
O660 C662 1.248 . S
Mg661 O660 2.028 . S
Mg661 O666 2.032 . S
Mg661 O668 2.079 . S
C662 O659 1.250 . S
C662 O660 1.248 . S
C663 O664 1.264 . S
C663 O671 1.249 . S
O664 C663 1.264 . S
O665 Mg658 1.986 . S
O665 C669 1.246 . S
O666 Mg661 2.032 . S
O666 C669 1.259 . S
O667 Mg658 2.114 . S
O667 C670 1.252 . S
O668 Mg658 2.251 . S
O668 Mg661 2.079 . S
O668 C670 1.273 . S
C669 O665 1.246 . S
C669 O666 1.259 . S
C670 O667 1.252 . S
C670 O668 1.273 . S
O671 Mg658 2.010 . S
O671 C663 1.249 . S
H672 C680 0.929 . S
H673 C682 0.930 . S
H674 C684 0.930 . S
H675 C687 0.929 . S
H676 C690 0.930 . S
H677 C692 0.960 . S
H678 C692 0.960 . S
H679 C692 0.960 . S
C680 H672 0.929 . S
C680 C681 1.377 . S
C680 C682 1.384 . S
C681 C680 1.377 . S
C681 C687 1.390 . S
C682 H673 0.930 . S
C682 C680 1.384 . S
C682 C683 1.372 . S
C683 C682 1.372 . S
C683 C684 1.400 . S
C683 C688 1.490 . S
C684 H674 0.930 . S
C684 C683 1.400 . S
C684 C687 1.386 . S
H685 C701 0.930 . S
H686 C702 0.931 . S
C687 H675 0.929 . S
C687 C681 1.390 . S
C687 C684 1.386 . S
C688 C683 1.490 . S
C688 C690 1.395 . S
C688 C691 1.403 . S
H689 C695 0.930 . S
C690 H676 0.930 . S
C690 C688 1.395 . S
C690 C693 1.403 . S
C691 C688 1.403 . S
C691 C692 1.524 . S
C691 C695 1.400 . S
C692 H677 0.960 . S
C692 H678 0.960 . S
C692 H679 0.960 . S
C692 C691 1.524 . S
C693 C690 1.403 . S
C693 C694 1.392 . S
C693 C697 1.495 . S
C694 C693 1.392 . S
C694 C695 1.385 . S
C694 C696 1.478 . S
C695 H689 0.930 . S
C695 C691 1.400 . S
C695 C694 1.385 . S
C696 C694 1.478 . S
C696 C698 1.381 . S
C696 C702 1.383 . S
C697 C693 1.495 . S
C697 H703 0.959 . S
C697 H704 0.961 . S
C697 H705 0.960 . S
C698 C696 1.381 . S
C698 C699 1.394 . S
C698 H706 0.930 . S
C699 C698 1.394 . S
C699 C700 1.383 . S
C699 H707 0.929 . S
C700 C699 1.383 . S
C700 C701 1.377 . S
C701 H685 0.930 . S
C701 C700 1.377 . S
C701 C702 1.379 . S
C702 H686 0.931 . S
C702 C696 1.383 . S
C702 C701 1.379 . S
H703 C697 0.959 . S
H704 C697 0.961 . S
H705 C697 0.960 . S
H706 C698 0.930 . S
H707 C699 0.929 . S
H708 C716 0.929 . S
H709 C718 0.930 . S
H710 C720 0.930 . S
H711 C723 0.929 . S
H712 C726 0.930 . S
H713 C728 0.960 . S
H714 C728 0.960 . S
H715 C728 0.960 . S
C716 H708 0.929 . S
C716 C717 1.377 . S
C716 C718 1.384 . S
C717 C716 1.377 . S
C717 C723 1.390 . S
C718 H709 0.930 . S
C718 C716 1.384 . S
C718 C719 1.372 . S
C719 C718 1.372 . S
C719 C720 1.400 . S
C719 C724 1.490 . S
C720 H710 0.930 . S
C720 C719 1.400 . S
C720 C723 1.386 . S
H721 C737 0.930 . S
H722 C738 0.931 . S
C723 H711 0.929 . S
C723 C717 1.390 . S
C723 C720 1.386 . S
C724 C719 1.490 . S
C724 C726 1.395 . S
C724 C727 1.403 . S
H725 C731 0.930 . S
C726 H712 0.930 . S
C726 C724 1.395 . S
C726 C729 1.403 . S
C727 C724 1.403 . S
C727 C728 1.524 . S
C727 C731 1.400 . S
C728 H713 0.960 . S
C728 H714 0.960 . S
C728 H715 0.960 . S
C728 C727 1.524 . S
C729 C726 1.403 . S
C729 C730 1.392 . S
C729 C733 1.495 . S
C730 C729 1.392 . S
C730 C731 1.385 . S
C730 C732 1.478 . S
C731 H725 0.930 . S
C731 C727 1.400 . S
C731 C730 1.385 . S
C732 C730 1.478 . S
C732 C734 1.381 . S
C732 C738 1.383 . S
C733 C729 1.495 . S
C733 H739 0.959 . S
C733 H740 0.961 . S
C733 H741 0.960 . S
C734 C732 1.381 . S
C734 C735 1.394 . S
C734 H742 0.930 . S
C735 C734 1.394 . S
C735 C736 1.383 . S
C735 H743 0.929 . S
C736 C735 1.383 . S
C736 C737 1.377 . S
C737 H721 0.930 . S
C737 C736 1.377 . S
C737 C738 1.379 . S
C738 H722 0.931 . S
C738 C732 1.383 . S
C738 C737 1.379 . S
H739 C733 0.959 . S
H740 C733 0.961 . S
H741 C733 0.960 . S
H742 C734 0.930 . S
H743 C735 0.929 . S
H744 C752 0.929 . S
H745 C754 0.930 . S
H746 C756 0.930 . S
H747 C759 0.929 . S
H748 C762 0.930 . S
H749 C764 0.960 . S
H750 C764 0.960 . S
H751 C764 0.960 . S
C752 H744 0.929 . S
C752 C753 1.377 . S
C752 C754 1.384 . S
C753 C752 1.377 . S
C753 C759 1.390 . S
C754 H745 0.930 . S
C754 C752 1.384 . S
C754 C755 1.372 . S
C755 C754 1.372 . S
C755 C756 1.400 . S
C755 C760 1.490 . S
C756 H746 0.930 . S
C756 C755 1.400 . S
C756 C759 1.386 . S
H757 C773 0.930 . S
H758 C774 0.931 . S
C759 H747 0.929 . S
C759 C753 1.390 . S
C759 C756 1.386 . S
C760 C755 1.490 . S
C760 C762 1.395 . S
C760 C763 1.403 . S
H761 C767 0.930 . S
C762 H748 0.930 . S
C762 C760 1.395 . S
C762 C765 1.403 . S
C763 C760 1.403 . S
C763 C764 1.524 . S
C763 C767 1.400 . S
C764 H749 0.960 . S
C764 H750 0.960 . S
C764 H751 0.960 . S
C764 C763 1.524 . S
C765 C762 1.403 . S
C765 C766 1.392 . S
C765 C769 1.495 . S
C766 C765 1.392 . S
C766 C767 1.385 . S
C766 C768 1.478 . S
C767 H761 0.930 . S
C767 C763 1.400 . S
C767 C766 1.385 . S
C768 C766 1.478 . S
C768 C770 1.381 . S
C768 C774 1.383 . S
C769 C765 1.495 . S
C769 H775 0.959 . S
C769 H776 0.961 . S
C769 H777 0.960 . S
C770 C768 1.381 . S
C770 C771 1.394 . S
C770 H778 0.930 . S
C771 C770 1.394 . S
C771 C772 1.383 . S
C771 H779 0.929 . S
C772 C771 1.383 . S
C772 C773 1.377 . S
C773 H757 0.930 . S
C773 C772 1.377 . S
C773 C774 1.379 . S
C774 H758 0.931 . S
C774 C768 1.383 . S
C774 C773 1.379 . S
H775 C769 0.959 . S
H776 C769 0.961 . S
H777 C769 0.960 . S
H778 C770 0.930 . S
H779 C771 0.929 . S
H780 C788 0.929 . S
H781 C790 0.930 . S
H782 C792 0.930 . S
H783 C795 0.929 . S
H784 C798 0.930 . S
H785 C800 0.960 . S
H786 C800 0.960 . S
H787 C800 0.960 . S
C788 H780 0.929 . S
C788 C789 1.377 . S
C788 C790 1.384 . S
C789 C788 1.377 . S
C789 C795 1.390 . S
C790 H781 0.930 . S
C790 C788 1.384 . S
C790 C791 1.372 . S
C791 C790 1.372 . S
C791 C792 1.400 . S
C791 C796 1.490 . S
C792 H782 0.930 . S
C792 C791 1.400 . S
C792 C795 1.386 . S
H793 C809 0.930 . S
H794 C810 0.931 . S
C795 H783 0.929 . S
C795 C789 1.390 . S
C795 C792 1.386 . S
C796 C791 1.490 . S
C796 C798 1.395 . S
C796 C799 1.403 . S
H797 C803 0.930 . S
C798 H784 0.930 . S
C798 C796 1.395 . S
C798 C801 1.403 . S
C799 C796 1.403 . S
C799 C800 1.524 . S
C799 C803 1.400 . S
C800 H785 0.960 . S
C800 H786 0.960 . S
C800 H787 0.960 . S
C800 C799 1.524 . S
C801 C798 1.403 . S
C801 C802 1.392 . S
C801 C805 1.495 . S
C802 C801 1.392 . S
C802 C803 1.385 . S
C802 C804 1.478 . S
C803 H797 0.930 . S
C803 C799 1.400 . S
C803 C802 1.385 . S
C804 C802 1.478 . S
C804 C806 1.381 . S
C804 C810 1.383 . S
C805 C801 1.495 . S
C805 H811 0.959 . S
C805 H812 0.961 . S
C805 H813 0.960 . S
C806 C804 1.381 . S
C806 C807 1.394 . S
C806 H814 0.930 . S
C807 C806 1.394 . S
C807 C808 1.383 . S
C807 H815 0.929 . S
C808 C807 1.383 . S
C808 C809 1.377 . S
C809 H793 0.930 . S
C809 C808 1.377 . S
C809 C810 1.379 . S
C810 H794 0.931 . S
C810 C804 1.383 . S
C810 C809 1.379 . S
H811 C805 0.959 . S
H812 C805 0.961 . S
H813 C805 0.960 . S
H814 C806 0.930 . S
H815 C807 0.929 . S
H816 C824 0.929 . S
H817 C826 0.930 . S
H818 C828 0.930 . S
H819 C831 0.929 . S
H820 C834 0.930 . S
H821 C836 0.960 . S
H822 C836 0.960 . S
H823 C836 0.960 . S
C824 H816 0.929 . S
C824 C825 1.377 . S
C824 C826 1.384 . S
C825 C824 1.377 . S
C825 C831 1.390 . S
C826 H817 0.930 . S
C826 C824 1.384 . S
C826 C827 1.372 . S
C827 C826 1.372 . S
C827 C828 1.400 . S
C827 C832 1.490 . S
C828 H818 0.930 . S
C828 C827 1.400 . S
C828 C831 1.386 . S
H829 C845 0.930 . S
H830 C846 0.931 . S
C831 H819 0.929 . S
C831 C825 1.390 . S
C831 C828 1.386 . S
C832 C827 1.490 . S
C832 C834 1.395 . S
C832 C835 1.403 . S
H833 C839 0.930 . S
C834 H820 0.930 . S
C834 C832 1.395 . S
C834 C837 1.403 . S
C835 C832 1.403 . S
C835 C836 1.524 . S
C835 C839 1.400 . S
C836 H821 0.960 . S
C836 H822 0.960 . S
C836 H823 0.960 . S
C836 C835 1.524 . S
C837 C834 1.403 . S
C837 C838 1.392 . S
C837 C841 1.495 . S
C838 C837 1.392 . S
C838 C839 1.385 . S
C838 C840 1.478 . S
C839 H833 0.930 . S
C839 C835 1.400 . S
C839 C838 1.385 . S
C840 C838 1.478 . S
C840 C842 1.381 . S
C840 C846 1.383 . S
C841 C837 1.495 . S
C841 H847 0.959 . S
C841 H848 0.961 . S
C841 H849 0.960 . S
C842 C840 1.381 . S
C842 C843 1.394 . S
C842 H850 0.930 . S
C843 C842 1.394 . S
C843 C844 1.383 . S
C843 H851 0.929 . S
C844 C843 1.383 . S
C844 C845 1.377 . S
C845 H829 0.930 . S
C845 C844 1.377 . S
C845 C846 1.379 . S
C846 H830 0.931 . S
C846 C840 1.383 . S
C846 C845 1.379 . S
H847 C841 0.959 . S
H848 C841 0.961 . S
H849 C841 0.960 . S
H850 C842 0.930 . S
H851 C843 0.929 . S
H852 C860 0.929 . S
H853 C862 0.930 . S
H854 C864 0.930 . S
H855 C867 0.929 . S
H856 C870 0.930 . S
H857 C872 0.960 . S
H858 C872 0.960 . S
H859 C872 0.960 . S
C860 H852 0.929 . S
C860 C861 1.377 . S
C860 C862 1.384 . S
C861 C860 1.377 . S
C861 C867 1.390 . S
C862 H853 0.930 . S
C862 C860 1.384 . S
C862 C863 1.372 . S
C863 C862 1.372 . S
C863 C864 1.400 . S
C863 C868 1.490 . S
C864 H854 0.930 . S
C864 C863 1.400 . S
C864 C867 1.386 . S
H865 C881 0.930 . S
H866 C882 0.931 . S
C867 H855 0.929 . S
C867 C861 1.390 . S
C867 C864 1.386 . S
C868 C863 1.490 . S
C868 C870 1.395 . S
C868 C871 1.403 . S
H869 C875 0.930 . S
C870 H856 0.930 . S
C870 C868 1.395 . S
C870 C873 1.403 . S
C871 C868 1.403 . S
C871 C872 1.524 . S
C871 C875 1.400 . S
C872 H857 0.960 . S
C872 H858 0.960 . S
C872 H859 0.960 . S
C872 C871 1.524 . S
C873 C870 1.403 . S
C873 C874 1.392 . S
C873 C877 1.495 . S
C874 C873 1.392 . S
C874 C875 1.385 . S
C874 C876 1.478 . S
C875 H869 0.930 . S
C875 C871 1.400 . S
C875 C874 1.385 . S
C876 C874 1.478 . S
C876 C878 1.381 . S
C876 C882 1.383 . S
C877 C873 1.495 . S
C877 H883 0.959 . S
C877 H884 0.961 . S
C877 H885 0.960 . S
C878 C876 1.381 . S
C878 C879 1.394 . S
C878 H886 0.930 . S
C879 C878 1.394 . S
C879 C880 1.383 . S
C879 H887 0.929 . S
C880 C879 1.383 . S
C880 C881 1.377 . S
C881 H865 0.930 . S
C881 C880 1.377 . S
C881 C882 1.379 . S
C882 H866 0.931 . S
C882 C876 1.383 . S
C882 C881 1.379 . S
H883 C877 0.959 . S
H884 C877 0.961 . S
H885 C877 0.960 . S
H886 C878 0.930 . S
H887 C879 0.929 . S
H888 C896 0.929 . S
H889 C898 0.930 . S
H890 C900 0.930 . S
H891 C903 0.929 . S
H892 C906 0.930 . S
H893 C908 0.960 . S
H894 C908 0.960 . S
H895 C908 0.960 . S
C896 H888 0.929 . S
C896 C897 1.377 . S
C896 C898 1.384 . S
C897 C896 1.377 . S
C897 C903 1.390 . S
C898 H889 0.930 . S
C898 C896 1.384 . S
C898 C899 1.372 . S
C899 C898 1.372 . S
C899 C900 1.400 . S
C899 C904 1.490 . S
C900 H890 0.930 . S
C900 C899 1.400 . S
C900 C903 1.386 . S
H901 C917 0.930 . S
H902 C918 0.931 . S
C903 H891 0.929 . S
C903 C897 1.390 . S
C903 C900 1.386 . S
C904 C899 1.490 . S
C904 C906 1.395 . S
C904 C907 1.403 . S
H905 C911 0.930 . S
C906 H892 0.930 . S
C906 C904 1.395 . S
C906 C909 1.403 . S
C907 C904 1.403 . S
C907 C908 1.524 . S
C907 C911 1.400 . S
C908 H893 0.960 . S
C908 H894 0.960 . S
C908 H895 0.960 . S
C908 C907 1.524 . S
C909 C906 1.403 . S
C909 C910 1.392 . S
C909 C913 1.495 . S
C910 C909 1.392 . S
C910 C911 1.385 . S
C910 C912 1.478 . S
C911 H905 0.930 . S
C911 C907 1.400 . S
C911 C910 1.385 . S
C912 C910 1.478 . S
C912 C914 1.381 . S
C912 C918 1.383 . S
C913 C909 1.495 . S
C913 H919 0.959 . S
C913 H920 0.961 . S
C913 H921 0.960 . S
C914 C912 1.381 . S
C914 C915 1.394 . S
C914 H922 0.930 . S
C915 C914 1.394 . S
C915 C916 1.383 . S
C915 H923 0.929 . S
C916 C915 1.383 . S
C916 C917 1.377 . S
C917 H901 0.930 . S
C917 C916 1.377 . S
C917 C918 1.379 . S
C918 H902 0.931 . S
C918 C912 1.383 . S
C918 C917 1.379 . S
H919 C913 0.959 . S
H920 C913 0.961 . S
H921 C913 0.960 . S
H922 C914 0.930 . S
H923 C915 0.929 . S
H924 C932 0.929 . S
H925 C934 0.930 . S
H926 C936 0.930 . S
H927 C939 0.929 . S
H928 C942 0.930 . S
H929 C944 0.960 . S
H930 C944 0.960 . S
H931 C944 0.960 . S
C932 H924 0.929 . S
C932 C933 1.377 . S
C932 C934 1.384 . S
C933 C932 1.377 . S
C933 C939 1.390 . S
C934 H925 0.930 . S
C934 C932 1.384 . S
C934 C935 1.372 . S
C935 C934 1.372 . S
C935 C936 1.400 . S
C935 C940 1.490 . S
C936 H926 0.930 . S
C936 C935 1.400 . S
C936 C939 1.386 . S
H937 C953 0.930 . S
H938 C954 0.931 . S
C939 H927 0.929 . S
C939 C933 1.390 . S
C939 C936 1.386 . S
C940 C935 1.490 . S
C940 C942 1.395 . S
C940 C943 1.403 . S
H941 C947 0.930 . S
C942 H928 0.930 . S
C942 C940 1.395 . S
C942 C945 1.403 . S
C943 C940 1.403 . S
C943 C944 1.524 . S
C943 C947 1.400 . S
C944 H929 0.960 . S
C944 H930 0.960 . S
C944 H931 0.960 . S
C944 C943 1.524 . S
C945 C942 1.403 . S
C945 C946 1.392 . S
C945 C949 1.495 . S
C946 C945 1.392 . S
C946 C947 1.385 . S
C946 C948 1.478 . S
C947 H941 0.930 . S
C947 C943 1.400 . S
C947 C946 1.385 . S
C948 C946 1.478 . S
C948 C950 1.381 . S
C948 C954 1.383 . S
C949 C945 1.495 . S
C949 H955 0.959 . S
C949 H956 0.961 . S
C949 H957 0.960 . S
C950 C948 1.381 . S
C950 C951 1.394 . S
C950 H958 0.930 . S
C951 C950 1.394 . S
C951 C952 1.383 . S
C951 H959 0.929 . S
C952 C951 1.383 . S
C952 C953 1.377 . S
C953 H937 0.930 . S
C953 C952 1.377 . S
C953 C954 1.379 . S
C954 H938 0.931 . S
C954 C948 1.383 . S
C954 C953 1.379 . S
H955 C949 0.959 . S
H956 C949 0.961 . S
H957 C949 0.960 . S
H958 C950 0.930 . S
H959 C951 0.929 . S
H960 C968 0.929 . S
H961 C970 0.930 . S
H962 C972 0.930 . S
H963 C975 0.929 . S
H964 C978 0.930 . S
H965 C980 0.960 . S
H966 C980 0.960 . S
H967 C980 0.960 . S
C968 H960 0.929 . S
C968 C969 1.377 . S
C968 C970 1.384 . S
C969 C968 1.377 . S
C969 C975 1.390 . S
C970 H961 0.930 . S
C970 C968 1.384 . S
C970 C971 1.372 . S
C971 C970 1.372 . S
C971 C972 1.400 . S
C971 C976 1.490 . S
C972 H962 0.930 . S
C972 C971 1.400 . S
C972 C975 1.386 . S
H973 C989 0.930 . S
H974 C990 0.931 . S
C975 H963 0.929 . S
C975 C969 1.390 . S
C975 C972 1.386 . S
C976 C971 1.490 . S
C976 C978 1.395 . S
C976 C979 1.403 . S
H977 C983 0.930 . S
C978 H964 0.930 . S
C978 C976 1.395 . S
C978 C981 1.403 . S
C979 C976 1.403 . S
C979 C980 1.524 . S
C979 C983 1.400 . S
C980 H965 0.960 . S
C980 H966 0.960 . S
C980 H967 0.960 . S
C980 C979 1.524 . S
C981 C978 1.403 . S
C981 C982 1.392 . S
C981 C985 1.495 . S
C982 C981 1.392 . S
C982 C983 1.385 . S
C982 C984 1.478 . S
C983 H977 0.930 . S
C983 C979 1.400 . S
C983 C982 1.385 . S
C984 C982 1.478 . S
C984 C986 1.381 . S
C984 C990 1.383 . S
C985 C981 1.495 . S
C985 H991 0.959 . S
C985 H992 0.961 . S
C985 H993 0.960 . S
C986 C984 1.381 . S
C986 C987 1.394 . S
C986 H994 0.930 . S
C987 C986 1.394 . S
C987 C988 1.383 . S
C987 H995 0.929 . S
C988 C987 1.383 . S
C988 C989 1.377 . S
C989 H973 0.930 . S
C989 C988 1.377 . S
C989 C990 1.379 . S
C990 H974 0.931 . S
C990 C984 1.383 . S
C990 C989 1.379 . S
H991 C985 0.959 . S
H992 C985 0.961 . S
H993 C985 0.960 . S
H994 C986 0.930 . S
H995 C987 0.929 . S
H996 C1004 0.929 . S
H997 C1006 0.930 . S
H998 C1008 0.930 . S
H999 C1011 0.929 . S
H1000 C1014 0.930 . S
H1001 C1016 0.960 . S
H1002 C1016 0.960 . S
H1003 C1016 0.960 . S
C1004 H996 0.929 . S
C1004 C1005 1.377 . S
C1004 C1006 1.384 . S
C1005 C1004 1.377 . S
C1005 C1011 1.390 . S
C1006 H997 0.930 . S
C1006 C1004 1.384 . S
C1006 C1007 1.372 . S
C1007 C1006 1.372 . S
C1007 C1008 1.400 . S
C1007 C1012 1.490 . S
C1008 H998 0.930 . S
C1008 C1007 1.400 . S
C1008 C1011 1.386 . S
H1009 C1025 0.930 . S
H1010 C1026 0.931 . S
C1011 H999 0.929 . S
C1011 C1005 1.390 . S
C1011 C1008 1.386 . S
C1012 C1007 1.490 . S
C1012 C1014 1.395 . S
C1012 C1015 1.403 . S
H1013 C1019 0.930 . S
C1014 H1000 0.930 . S
C1014 C1012 1.395 . S
C1014 C1017 1.403 . S
C1015 C1012 1.403 . S
C1015 C1016 1.524 . S
C1015 C1019 1.400 . S
C1016 H1001 0.960 . S
C1016 H1002 0.960 . S
C1016 H1003 0.960 . S
C1016 C1015 1.524 . S
C1017 C1014 1.403 . S
C1017 C1018 1.392 . S
C1017 C1021 1.495 . S
C1018 C1017 1.392 . S
C1018 C1019 1.385 . S
C1018 C1020 1.478 . S
C1019 H1013 0.930 . S
C1019 C1015 1.400 . S
C1019 C1018 1.385 . S
C1020 C1018 1.478 . S
C1020 C1022 1.381 . S
C1020 C1026 1.383 . S
C1021 C1017 1.495 . S
C1021 H1027 0.959 . S
C1021 H1028 0.961 . S
C1021 H1029 0.960 . S
C1022 C1020 1.381 . S
C1022 C1023 1.394 . S
C1022 H1030 0.930 . S
C1023 C1022 1.394 . S
C1023 C1024 1.383 . S
C1023 H1031 0.929 . S
C1024 C1023 1.383 . S
C1024 C1025 1.377 . S
C1025 H1009 0.930 . S
C1025 C1024 1.377 . S
C1025 C1026 1.379 . S
C1026 H1010 0.931 . S
C1026 C1020 1.383 . S
C1026 C1025 1.379 . S
H1027 C1021 0.959 . S
H1028 C1021 0.961 . S
H1029 C1021 0.960 . S
H1030 C1022 0.930 . S
H1031 C1023 0.929 . S
H1032 C1040 0.929 . S
H1033 C1042 0.930 . S
H1034 C1044 0.930 . S
H1035 C1047 0.929 . S
H1036 C1050 0.930 . S
H1037 C1052 0.960 . S
H1038 C1052 0.960 . S
H1039 C1052 0.960 . S
C1040 H1032 0.929 . S
C1040 C1041 1.377 . S
C1040 C1042 1.384 . S
C1041 C1040 1.377 . S
C1041 C1047 1.390 . S
C1042 H1033 0.930 . S
C1042 C1040 1.384 . S
C1042 C1043 1.372 . S
C1043 C1042 1.372 . S
C1043 C1044 1.400 . S
C1043 C1048 1.490 . S
C1044 H1034 0.930 . S
C1044 C1043 1.400 . S
C1044 C1047 1.386 . S
H1045 C1061 0.930 . S
H1046 C1062 0.931 . S
C1047 H1035 0.929 . S
C1047 C1041 1.390 . S
C1047 C1044 1.386 . S
C1048 C1043 1.490 . S
C1048 C1050 1.395 . S
C1048 C1051 1.403 . S
H1049 C1055 0.930 . S
C1050 H1036 0.930 . S
C1050 C1048 1.395 . S
C1050 C1053 1.403 . S
C1051 C1048 1.403 . S
C1051 C1052 1.524 . S
C1051 C1055 1.400 . S
C1052 H1037 0.960 . S
C1052 H1038 0.960 . S
C1052 H1039 0.960 . S
C1052 C1051 1.524 . S
C1053 C1050 1.403 . S
C1053 C1054 1.392 . S
C1053 C1057 1.495 . S
C1054 C1053 1.392 . S
C1054 C1055 1.385 . S
C1054 C1056 1.478 . S
C1055 H1049 0.930 . S
C1055 C1051 1.400 . S
C1055 C1054 1.385 . S
C1056 C1054 1.478 . S
C1056 C1058 1.381 . S
C1056 C1062 1.383 . S
C1057 C1053 1.495 . S
C1057 H1063 0.959 . S
C1057 H1064 0.961 . S
C1057 H1065 0.960 . S
C1058 C1056 1.381 . S
C1058 C1059 1.394 . S
C1058 H1066 0.930 . S
C1059 C1058 1.394 . S
C1059 C1060 1.383 . S
C1059 H1067 0.929 . S
C1060 C1059 1.383 . S
C1060 C1061 1.377 . S
C1061 H1045 0.930 . S
C1061 C1060 1.377 . S
C1061 C1062 1.379 . S
C1062 H1046 0.931 . S
C1062 C1056 1.383 . S
C1062 C1061 1.379 . S
H1063 C1057 0.959 . S
H1064 C1057 0.961 . S
H1065 C1057 0.960 . S
H1066 C1058 0.930 . S
H1067 C1059 0.929 . S
H1068 C1076 0.929 . S
H1069 C1078 0.930 . S
H1070 C1080 0.930 . S
H1071 C1083 0.929 . S
H1072 C1086 0.930 . S
H1073 C1088 0.960 . S
H1074 C1088 0.960 . S
H1075 C1088 0.960 . S
C1076 H1068 0.929 . S
C1076 C1077 1.377 . S
C1076 C1078 1.384 . S
C1077 C1076 1.377 . S
C1077 C1083 1.390 . S
C1078 H1069 0.930 . S
C1078 C1076 1.384 . S
C1078 C1079 1.372 . S
C1079 C1078 1.372 . S
C1079 C1080 1.400 . S
C1079 C1084 1.490 . S
C1080 H1070 0.930 . S
C1080 C1079 1.400 . S
C1080 C1083 1.386 . S
H1081 C1097 0.930 . S
H1082 C1098 0.931 . S
C1083 H1071 0.929 . S
C1083 C1077 1.390 . S
C1083 C1080 1.386 . S
C1084 C1079 1.490 . S
C1084 C1086 1.395 . S
C1084 C1087 1.403 . S
H1085 C1091 0.930 . S
C1086 H1072 0.930 . S
C1086 C1084 1.395 . S
C1086 C1089 1.403 . S
C1087 C1084 1.403 . S
C1087 C1088 1.524 . S
C1087 C1091 1.400 . S
C1088 H1073 0.960 . S
C1088 H1074 0.960 . S
C1088 H1075 0.960 . S
C1088 C1087 1.524 . S
C1089 C1086 1.403 . S
C1089 C1090 1.392 . S
C1089 C1093 1.495 . S
C1090 C1089 1.392 . S
C1090 C1091 1.385 . S
C1090 C1092 1.478 . S
C1091 H1085 0.930 . S
C1091 C1087 1.400 . S
C1091 C1090 1.385 . S
C1092 C1090 1.478 . S
C1092 C1094 1.381 . S
C1092 C1098 1.383 . S
C1093 C1089 1.495 . S
C1093 H1099 0.959 . S
C1093 H1100 0.961 . S
C1093 H1101 0.960 . S
C1094 C1092 1.381 . S
C1094 C1095 1.394 . S
C1094 H1102 0.930 . S
C1095 C1094 1.394 . S
C1095 C1096 1.383 . S
C1095 H1103 0.929 . S
C1096 C1095 1.383 . S
C1096 C1097 1.377 . S
C1097 H1081 0.930 . S
C1097 C1096 1.377 . S
C1097 C1098 1.379 . S
C1098 H1082 0.931 . S
C1098 C1092 1.383 . S
C1098 C1097 1.379 . S
H1099 C1093 0.959 . S
H1100 C1093 0.961 . S
H1101 C1093 0.960 . S
H1102 C1094 0.930 . S
H1103 C1095 0.929 . S
H1104 C1112 0.929 . S
H1105 C1114 0.930 . S
H1106 C1116 0.930 . S
H1107 C1119 0.929 . S
H1108 C1122 0.930 . S
H1109 C1124 0.960 . S
H1110 C1124 0.960 . S
H1111 C1124 0.960 . S
C1112 H1104 0.929 . S
C1112 C1113 1.377 . S
C1112 C1114 1.384 . S
C1113 C1112 1.377 . S
C1113 C1119 1.390 . S
C1114 H1105 0.930 . S
C1114 C1112 1.384 . S
C1114 C1115 1.372 . S
C1115 C1114 1.372 . S
C1115 C1116 1.400 . S
C1115 C1120 1.490 . S
C1116 H1106 0.930 . S
C1116 C1115 1.400 . S
C1116 C1119 1.386 . S
H1117 C1133 0.930 . S
H1118 C1134 0.931 . S
C1119 H1107 0.929 . S
C1119 C1113 1.390 . S
C1119 C1116 1.386 . S
C1120 C1115 1.490 . S
C1120 C1122 1.395 . S
C1120 C1123 1.403 . S
H1121 C1127 0.930 . S
C1122 H1108 0.930 . S
C1122 C1120 1.395 . S
C1122 C1125 1.403 . S
C1123 C1120 1.403 . S
C1123 C1124 1.524 . S
C1123 C1127 1.400 . S
C1124 H1109 0.960 . S
C1124 H1110 0.960 . S
C1124 H1111 0.960 . S
C1124 C1123 1.524 . S
C1125 C1122 1.403 . S
C1125 C1126 1.392 . S
C1125 C1129 1.495 . S
C1126 C1125 1.392 . S
C1126 C1127 1.385 . S
C1126 C1128 1.478 . S
C1127 H1121 0.930 . S
C1127 C1123 1.400 . S
C1127 C1126 1.385 . S
C1128 C1126 1.478 . S
C1128 C1130 1.381 . S
C1128 C1134 1.383 . S
C1129 C1125 1.495 . S
C1129 H1135 0.959 . S
C1129 H1136 0.961 . S
C1129 H1137 0.960 . S
C1130 C1128 1.381 . S
C1130 C1131 1.394 . S
C1130 H1138 0.930 . S
C1131 C1130 1.394 . S
C1131 C1132 1.383 . S
C1131 H1139 0.929 . S
C1132 C1131 1.383 . S
C1132 C1133 1.377 . S
C1133 H1117 0.930 . S
C1133 C1132 1.377 . S
C1133 C1134 1.379 . S
C1134 H1118 0.931 . S
C1134 C1128 1.383 . S
C1134 C1133 1.379 . S
H1135 C1129 0.959 . S
H1136 C1129 0.961 . S
H1137 C1129 0.960 . S
H1138 C1130 0.930 . S
H1139 C1131 0.929 . S
H1140 C1148 0.929 . S
H1141 C1150 0.930 . S
H1142 C1152 0.930 . S
H1143 C1155 0.929 . S
H1144 C1158 0.930 . S
H1145 C1160 0.960 . S
H1146 C1160 0.960 . S
H1147 C1160 0.960 . S
C1148 H1140 0.929 . S
C1148 C1149 1.377 . S
C1148 C1150 1.384 . S
C1149 C1148 1.377 . S
C1149 C1155 1.390 . S
C1150 H1141 0.930 . S
C1150 C1148 1.384 . S
C1150 C1151 1.372 . S
C1151 C1150 1.372 . S
C1151 C1152 1.400 . S
C1151 C1156 1.490 . S
C1152 H1142 0.930 . S
C1152 C1151 1.400 . S
C1152 C1155 1.386 . S
H1153 C1169 0.930 . S
H1154 C1170 0.931 . S
C1155 H1143 0.929 . S
C1155 C1149 1.390 . S
C1155 C1152 1.386 . S
C1156 C1151 1.490 . S
C1156 C1158 1.395 . S
C1156 C1159 1.403 . S
H1157 C1163 0.930 . S
C1158 H1144 0.930 . S
C1158 C1156 1.395 . S
C1158 C1161 1.403 . S
C1159 C1156 1.403 . S
C1159 C1160 1.524 . S
C1159 C1163 1.400 . S
C1160 H1145 0.960 . S
C1160 H1146 0.960 . S
C1160 H1147 0.960 . S
C1160 C1159 1.524 . S
C1161 C1158 1.403 . S
C1161 C1162 1.392 . S
C1161 C1165 1.495 . S
C1162 C1161 1.392 . S
C1162 C1163 1.385 . S
C1162 C1164 1.478 . S
C1163 H1157 0.930 . S
C1163 C1159 1.400 . S
C1163 C1162 1.385 . S
C1164 C1162 1.478 . S
C1164 C1166 1.381 . S
C1164 C1170 1.383 . S
C1165 C1161 1.495 . S
C1165 H1171 0.959 . S
C1165 H1172 0.961 . S
C1165 H1173 0.960 . S
C1166 C1164 1.381 . S
C1166 C1167 1.394 . S
C1166 H1174 0.930 . S
C1167 C1166 1.394 . S
C1167 C1168 1.383 . S
C1167 H1175 0.929 . S
C1168 C1167 1.383 . S
C1168 C1169 1.377 . S
C1169 H1153 0.930 . S
C1169 C1168 1.377 . S
C1169 C1170 1.379 . S
C1170 H1154 0.931 . S
C1170 C1164 1.383 . S
C1170 C1169 1.379 . S
H1171 C1165 0.959 . S
H1172 C1165 0.961 . S
H1173 C1165 0.960 . S
H1174 C1166 0.930 . S
H1175 C1167 0.929 . S
H1176 C1184 0.929 . S
H1177 C1186 0.930 . S
H1178 C1188 0.930 . S
H1179 C1191 0.929 . S
H1180 C1194 0.930 . S
H1181 C1196 0.960 . S
H1182 C1196 0.960 . S
H1183 C1196 0.960 . S
C1184 H1176 0.929 . S
C1184 C1185 1.377 . S
C1184 C1186 1.384 . S
C1185 C1184 1.377 . S
C1185 C1191 1.390 . S
C1186 H1177 0.930 . S
C1186 C1184 1.384 . S
C1186 C1187 1.372 . S
C1187 C1186 1.372 . S
C1187 C1188 1.400 . S
C1187 C1192 1.490 . S
C1188 H1178 0.930 . S
C1188 C1187 1.400 . S
C1188 C1191 1.386 . S
H1189 C1205 0.930 . S
H1190 C1206 0.931 . S
C1191 H1179 0.929 . S
C1191 C1185 1.390 . S
C1191 C1188 1.386 . S
C1192 C1187 1.490 . S
C1192 C1194 1.395 . S
C1192 C1195 1.403 . S
H1193 C1199 0.930 . S
C1194 H1180 0.930 . S
C1194 C1192 1.395 . S
C1194 C1197 1.403 . S
C1195 C1192 1.403 . S
C1195 C1196 1.524 . S
C1195 C1199 1.400 . S
C1196 H1181 0.960 . S
C1196 H1182 0.960 . S
C1196 H1183 0.960 . S
C1196 C1195 1.524 . S
C1197 C1194 1.403 . S
C1197 C1198 1.392 . S
C1197 C1201 1.495 . S
C1198 C1197 1.392 . S
C1198 C1199 1.385 . S
C1198 C1200 1.478 . S
C1199 H1193 0.930 . S
C1199 C1195 1.400 . S
C1199 C1198 1.385 . S
C1200 C1198 1.478 . S
C1200 C1202 1.381 . S
C1200 C1206 1.383 . S
C1201 C1197 1.495 . S
C1201 H1207 0.959 . S
C1201 H1208 0.961 . S
C1201 H1209 0.960 . S
C1202 C1200 1.381 . S
C1202 C1203 1.394 . S
C1202 H1210 0.930 . S
C1203 C1202 1.394 . S
C1203 C1204 1.383 . S
C1203 H1211 0.929 . S
C1204 C1203 1.383 . S
C1204 C1205 1.377 . S
C1205 H1189 0.930 . S
C1205 C1204 1.377 . S
C1205 C1206 1.379 . S
C1206 H1190 0.931 . S
C1206 C1200 1.383 . S
C1206 C1205 1.379 . S
H1207 C1201 0.959 . S
H1208 C1201 0.961 . S
H1209 C1201 0.960 . S
H1210 C1202 0.930 . S
H1211 C1203 0.929 . S
H1212 C1220 0.929 . S
H1213 C1222 0.930 . S
H1214 C1224 0.930 . S
H1215 C1227 0.929 . S
H1216 C1230 0.930 . S
H1217 C1232 0.960 . S
H1218 C1232 0.960 . S
H1219 C1232 0.960 . S
C1220 H1212 0.929 . S
C1220 C1221 1.377 . S
C1220 C1222 1.384 . S
C1221 C1220 1.377 . S
C1221 C1227 1.390 . S
C1222 H1213 0.930 . S
C1222 C1220 1.384 . S
C1222 C1223 1.372 . S
C1223 C1222 1.372 . S
C1223 C1224 1.400 . S
C1223 C1228 1.490 . S
C1224 H1214 0.930 . S
C1224 C1223 1.400 . S
C1224 C1227 1.386 . S
H1225 C1241 0.930 . S
H1226 C1242 0.931 . S
C1227 H1215 0.929 . S
C1227 C1221 1.390 . S
C1227 C1224 1.386 . S
C1228 C1223 1.490 . S
C1228 C1230 1.395 . S
C1228 C1231 1.403 . S
H1229 C1235 0.930 . S
C1230 H1216 0.930 . S
C1230 C1228 1.395 . S
C1230 C1233 1.403 . S
C1231 C1228 1.403 . S
C1231 C1232 1.524 . S
C1231 C1235 1.400 . S
C1232 H1217 0.960 . S
C1232 H1218 0.960 . S
C1232 H1219 0.960 . S
C1232 C1231 1.524 . S
C1233 C1230 1.403 . S
C1233 C1234 1.392 . S
C1233 C1237 1.495 . S
C1234 C1233 1.392 . S
C1234 C1235 1.385 . S
C1234 C1236 1.478 . S
C1235 H1229 0.930 . S
C1235 C1231 1.400 . S
C1235 C1234 1.385 . S
C1236 C1234 1.478 . S
C1236 C1238 1.381 . S
C1236 C1242 1.383 . S
C1237 C1233 1.495 . S
C1237 H1243 0.959 . S
C1237 H1244 0.961 . S
C1237 H1245 0.960 . S
C1238 C1236 1.381 . S
C1238 C1239 1.394 . S
C1238 H1246 0.930 . S
C1239 C1238 1.394 . S
C1239 C1240 1.383 . S
C1239 H1247 0.929 . S
C1240 C1239 1.383 . S
C1240 C1241 1.377 . S
C1241 H1225 0.930 . S
C1241 C1240 1.377 . S
C1241 C1242 1.379 . S
C1242 H1226 0.931 . S
C1242 C1236 1.383 . S
C1242 C1241 1.379 . S
H1243 C1237 0.959 . S
H1244 C1237 0.961 . S
H1245 C1237 0.960 . S
H1246 C1238 0.930 . S
H1247 C1239 0.929 . S
H1248 C1256 0.929 . S
H1249 C1258 0.930 . S
H1250 C1260 0.930 . S
H1251 C1263 0.929 . S
H1252 C1266 0.930 . S
H1253 C1268 0.960 . S
H1254 C1268 0.960 . S
H1255 C1268 0.960 . S
C1256 H1248 0.929 . S
C1256 C1257 1.377 . S
C1256 C1258 1.384 . S
C1257 C1256 1.377 . S
C1257 C1263 1.390 . S
C1258 H1249 0.930 . S
C1258 C1256 1.384 . S
C1258 C1259 1.372 . S
C1259 C1258 1.372 . S
C1259 C1260 1.400 . S
C1259 C1264 1.490 . S
C1260 H1250 0.930 . S
C1260 C1259 1.400 . S
C1260 C1263 1.386 . S
H1261 C1277 0.930 . S
H1262 C1278 0.931 . S
C1263 H1251 0.929 . S
C1263 C1257 1.390 . S
C1263 C1260 1.386 . S
C1264 C1259 1.490 . S
C1264 C1266 1.395 . S
C1264 C1267 1.403 . S
H1265 C1271 0.930 . S
C1266 H1252 0.930 . S
C1266 C1264 1.395 . S
C1266 C1269 1.403 . S
C1267 C1264 1.403 . S
C1267 C1268 1.524 . S
C1267 C1271 1.400 . S
C1268 H1253 0.960 . S
C1268 H1254 0.960 . S
C1268 H1255 0.960 . S
C1268 C1267 1.524 . S
C1269 C1266 1.403 . S
C1269 C1270 1.392 . S
C1269 C1273 1.495 . S
C1270 C1269 1.392 . S
C1270 C1271 1.385 . S
C1270 C1272 1.478 . S
C1271 H1265 0.930 . S
C1271 C1267 1.400 . S
C1271 C1270 1.385 . S
C1272 C1270 1.478 . S
C1272 C1274 1.381 . S
C1272 C1278 1.383 . S
C1273 C1269 1.495 . S
C1273 H1279 0.959 . S
C1273 H1280 0.961 . S
C1273 H1281 0.960 . S
C1274 C1272 1.381 . S
C1274 C1275 1.394 . S
C1274 H1282 0.930 . S
C1275 C1274 1.394 . S
C1275 C1276 1.383 . S
C1275 H1283 0.929 . S
C1276 C1275 1.383 . S
C1276 C1277 1.377 . S
C1277 H1261 0.930 . S
C1277 C1276 1.377 . S
C1277 C1278 1.379 . S
C1278 H1262 0.931 . S
C1278 C1272 1.383 . S
C1278 C1277 1.379 . S
H1279 C1273 0.959 . S
H1280 C1273 0.961 . S
H1281 C1273 0.960 . S
H1282 C1274 0.930 . S
H1283 C1275 0.929 . S
H1284 C1292 0.929 . S
H1285 C1294 0.930 . S
H1286 C1296 0.930 . S
H1287 C1299 0.929 . S
H1288 C1302 0.930 . S
H1289 C1304 0.960 . S
H1290 C1304 0.960 . S
H1291 C1304 0.960 . S
C1292 H1284 0.929 . S
C1292 C1293 1.377 . S
C1292 C1294 1.384 . S
C1293 C1292 1.377 . S
C1293 C1299 1.390 . S
C1294 H1285 0.930 . S
C1294 C1292 1.384 . S
C1294 C1295 1.372 . S
C1295 C1294 1.372 . S
C1295 C1296 1.400 . S
C1295 C1300 1.490 . S
C1296 H1286 0.930 . S
C1296 C1295 1.400 . S
C1296 C1299 1.386 . S
H1297 C1313 0.930 . S
H1298 C1314 0.931 . S
C1299 H1287 0.929 . S
C1299 C1293 1.390 . S
C1299 C1296 1.386 . S
C1300 C1295 1.490 . S
C1300 C1302 1.395 . S
C1300 C1303 1.403 . S
H1301 C1307 0.930 . S
C1302 H1288 0.930 . S
C1302 C1300 1.395 . S
C1302 C1305 1.403 . S
C1303 C1300 1.403 . S
C1303 C1304 1.524 . S
C1303 C1307 1.400 . S
C1304 H1289 0.960 . S
C1304 H1290 0.960 . S
C1304 H1291 0.960 . S
C1304 C1303 1.524 . S
C1305 C1302 1.403 . S
C1305 C1306 1.392 . S
C1305 C1309 1.495 . S
C1306 C1305 1.392 . S
C1306 C1307 1.385 . S
C1306 C1308 1.478 . S
C1307 H1301 0.930 . S
C1307 C1303 1.400 . S
C1307 C1306 1.385 . S
C1308 C1306 1.478 . S
C1308 C1310 1.381 . S
C1308 C1314 1.383 . S
C1309 C1305 1.495 . S
C1309 H1315 0.959 . S
C1309 H1316 0.961 . S
C1309 H1317 0.960 . S
C1310 C1308 1.381 . S
C1310 C1311 1.394 . S
C1310 H1318 0.930 . S
C1311 C1310 1.394 . S
C1311 C1312 1.383 . S
C1311 H1319 0.929 . S
C1312 C1311 1.383 . S
C1312 C1313 1.377 . S
C1313 H1297 0.930 . S
C1313 C1312 1.377 . S
C1313 C1314 1.379 . S
C1314 H1298 0.931 . S
C1314 C1308 1.383 . S
C1314 C1313 1.379 . S
H1315 C1309 0.959 . S
H1316 C1309 0.961 . S
H1317 C1309 0.960 . S
H1318 C1310 0.930 . S
H1319 C1311 0.929 . S
H1320 C1328 0.929 . S
H1321 C1330 0.930 . S
H1322 C1332 0.930 . S
H1323 C1335 0.929 . S
H1324 C1338 0.930 . S
H1325 C1340 0.960 . S
H1326 C1340 0.960 . S
H1327 C1340 0.960 . S
C1328 H1320 0.929 . S
C1328 C1329 1.377 . S
C1328 C1330 1.384 . S
C1329 C1328 1.377 . S
C1329 C1335 1.390 . S
C1330 H1321 0.930 . S
C1330 C1328 1.384 . S
C1330 C1331 1.372 . S
C1331 C1330 1.372 . S
C1331 C1332 1.400 . S
C1331 C1336 1.490 . S
C1332 H1322 0.930 . S
C1332 C1331 1.400 . S
C1332 C1335 1.386 . S
H1333 C1349 0.930 . S
H1334 C1350 0.931 . S
C1335 H1323 0.929 . S
C1335 C1329 1.390 . S
C1335 C1332 1.386 . S
C1336 C1331 1.490 . S
C1336 C1338 1.395 . S
C1336 C1339 1.403 . S
H1337 C1343 0.930 . S
C1338 H1324 0.930 . S
C1338 C1336 1.395 . S
C1338 C1341 1.403 . S
C1339 C1336 1.403 . S
C1339 C1340 1.524 . S
C1339 C1343 1.400 . S
C1340 H1325 0.960 . S
C1340 H1326 0.960 . S
C1340 H1327 0.960 . S
C1340 C1339 1.524 . S
C1341 C1338 1.403 . S
C1341 C1342 1.392 . S
C1341 C1345 1.495 . S
C1342 C1341 1.392 . S
C1342 C1343 1.385 . S
C1342 C1344 1.478 . S
C1343 H1337 0.930 . S
C1343 C1339 1.400 . S
C1343 C1342 1.385 . S
C1344 C1342 1.478 . S
C1344 C1346 1.381 . S
C1344 C1350 1.383 . S
C1345 C1341 1.495 . S
C1345 H1351 0.959 . S
C1345 H1352 0.961 . S
C1345 H1353 0.960 . S
C1346 C1344 1.381 . S
C1346 C1347 1.394 . S
C1346 H1354 0.930 . S
C1347 C1346 1.394 . S
C1347 C1348 1.383 . S
C1347 H1355 0.929 . S
C1348 C1347 1.383 . S
C1348 C1349 1.377 . S
C1349 H1333 0.930 . S
C1349 C1348 1.377 . S
C1349 C1350 1.379 . S
C1350 H1334 0.931 . S
C1350 C1344 1.383 . S
C1350 C1349 1.379 . S
H1351 C1345 0.959 . S
H1352 C1345 0.961 . S
H1353 C1345 0.960 . S
H1354 C1346 0.930 . S
H1355 C1347 0.929 . S
H1356 C1364 0.929 . S
H1357 C1366 0.930 . S
H1358 C1368 0.930 . S
H1359 C1371 0.929 . S
H1360 C1374 0.930 . S
H1361 C1376 0.960 . S
H1362 C1376 0.960 . S
H1363 C1376 0.960 . S
C1364 H1356 0.929 . S
C1364 C1365 1.377 . S
C1364 C1366 1.384 . S
C1365 C1364 1.377 . S
C1365 C1371 1.390 . S
C1366 H1357 0.930 . S
C1366 C1364 1.384 . S
C1366 C1367 1.372 . S
C1367 C1366 1.372 . S
C1367 C1368 1.400 . S
C1367 C1372 1.490 . S
C1368 H1358 0.930 . S
C1368 C1367 1.400 . S
C1368 C1371 1.386 . S
H1369 C1385 0.930 . S
H1370 C1386 0.931 . S
C1371 H1359 0.929 . S
C1371 C1365 1.390 . S
C1371 C1368 1.386 . S
C1372 C1367 1.490 . S
C1372 C1374 1.395 . S
C1372 C1375 1.403 . S
H1373 C1379 0.930 . S
C1374 H1360 0.930 . S
C1374 C1372 1.395 . S
C1374 C1377 1.403 . S
C1375 C1372 1.403 . S
C1375 C1376 1.524 . S
C1375 C1379 1.400 . S
C1376 H1361 0.960 . S
C1376 H1362 0.960 . S
C1376 H1363 0.960 . S
C1376 C1375 1.524 . S
C1377 C1374 1.403 . S
C1377 C1378 1.392 . S
C1377 C1381 1.495 . S
C1378 C1377 1.392 . S
C1378 C1379 1.385 . S
C1378 C1380 1.478 . S
C1379 H1373 0.930 . S
C1379 C1375 1.400 . S
C1379 C1378 1.385 . S
C1380 C1378 1.478 . S
C1380 C1382 1.381 . S
C1380 C1386 1.383 . S
C1381 C1377 1.495 . S
C1381 H1387 0.959 . S
C1381 H1388 0.961 . S
C1381 H1389 0.960 . S
C1382 C1380 1.381 . S
C1382 C1383 1.394 . S
C1382 H1390 0.930 . S
C1383 C1382 1.394 . S
C1383 C1384 1.383 . S
C1383 H1391 0.929 . S
C1384 C1383 1.383 . S
C1384 C1385 1.377 . S
C1385 H1369 0.930 . S
C1385 C1384 1.377 . S
C1385 C1386 1.379 . S
C1386 H1370 0.931 . S
C1386 C1380 1.383 . S
C1386 C1385 1.379 . S
H1387 C1381 0.959 . S
H1388 C1381 0.961 . S
H1389 C1381 0.960 . S
H1390 C1382 0.930 . S
H1391 C1383 0.929 . S
H1392 C1400 0.929 . S
H1393 C1402 0.930 . S
H1394 C1404 0.930 . S
H1395 C1407 0.929 . S
H1396 C1410 0.930 . S
H1397 C1412 0.960 . S
H1398 C1412 0.960 . S
H1399 C1412 0.960 . S
C1400 H1392 0.929 . S
C1400 C1401 1.377 . S
C1400 C1402 1.384 . S
C1401 C1400 1.377 . S
C1401 C1407 1.390 . S
C1402 H1393 0.930 . S
C1402 C1400 1.384 . S
C1402 C1403 1.372 . S
C1403 C1402 1.372 . S
C1403 C1404 1.400 . S
C1403 C1408 1.490 . S
C1404 H1394 0.930 . S
C1404 C1403 1.400 . S
C1404 C1407 1.386 . S
H1405 C1421 0.930 . S
H1406 C1422 0.931 . S
C1407 H1395 0.929 . S
C1407 C1401 1.390 . S
C1407 C1404 1.386 . S
C1408 C1403 1.490 . S
C1408 C1410 1.395 . S
C1408 C1411 1.403 . S
H1409 C1415 0.930 . S
C1410 H1396 0.930 . S
C1410 C1408 1.395 . S
C1410 C1413 1.403 . S
C1411 C1408 1.403 . S
C1411 C1412 1.524 . S
C1411 C1415 1.400 . S
C1412 H1397 0.960 . S
C1412 H1398 0.960 . S
C1412 H1399 0.960 . S
C1412 C1411 1.524 . S
C1413 C1410 1.403 . S
C1413 C1414 1.392 . S
C1413 C1417 1.495 . S
C1414 C1413 1.392 . S
C1414 C1415 1.385 . S
C1414 C1416 1.478 . S
C1415 H1409 0.930 . S
C1415 C1411 1.400 . S
C1415 C1414 1.385 . S
C1416 C1414 1.478 . S
C1416 C1418 1.381 . S
C1416 C1422 1.383 . S
C1417 C1413 1.495 . S
C1417 H1423 0.959 . S
C1417 H1424 0.961 . S
C1417 H1425 0.960 . S
C1418 C1416 1.381 . S
C1418 C1419 1.394 . S
C1418 H1426 0.930 . S
C1419 C1418 1.394 . S
C1419 C1420 1.383 . S
C1419 H1427 0.929 . S
C1420 C1419 1.383 . S
C1420 C1421 1.377 . S
C1421 H1405 0.930 . S
C1421 C1420 1.377 . S
C1421 C1422 1.379 . S
C1422 H1406 0.931 . S
C1422 C1416 1.383 . S
C1422 C1421 1.379 . S
H1423 C1417 0.959 . S
H1424 C1417 0.961 . S
H1425 C1417 0.960 . S
H1426 C1418 0.930 . S
H1427 C1419 0.929 . S
H1428 C1436 0.929 . S
H1429 C1438 0.930 . S
H1430 C1440 0.930 . S
H1431 C1443 0.929 . S
H1432 C1446 0.930 . S
H1433 C1448 0.960 . S
H1434 C1448 0.960 . S
H1435 C1448 0.960 . S
C1436 H1428 0.929 . S
C1436 C1437 1.377 . S
C1436 C1438 1.384 . S
C1437 C1436 1.377 . S
C1437 C1443 1.390 . S
C1438 H1429 0.930 . S
C1438 C1436 1.384 . S
C1438 C1439 1.372 . S
C1439 C1438 1.372 . S
C1439 C1440 1.400 . S
C1439 C1444 1.490 . S
C1440 H1430 0.930 . S
C1440 C1439 1.400 . S
C1440 C1443 1.386 . S
H1441 C1457 0.930 . S
H1442 C1458 0.931 . S
C1443 H1431 0.929 . S
C1443 C1437 1.390 . S
C1443 C1440 1.386 . S
C1444 C1439 1.490 . S
C1444 C1446 1.395 . S
C1444 C1447 1.403 . S
H1445 C1451 0.930 . S
C1446 H1432 0.930 . S
C1446 C1444 1.395 . S
C1446 C1449 1.403 . S
C1447 C1444 1.403 . S
C1447 C1448 1.524 . S
C1447 C1451 1.400 . S
C1448 H1433 0.960 . S
C1448 H1434 0.960 . S
C1448 H1435 0.960 . S
C1448 C1447 1.524 . S
C1449 C1446 1.403 . S
C1449 C1450 1.392 . S
C1449 C1453 1.495 . S
C1450 C1449 1.392 . S
C1450 C1451 1.385 . S
C1450 C1452 1.478 . S
C1451 H1445 0.930 . S
C1451 C1447 1.400 . S
C1451 C1450 1.385 . S
C1452 C1450 1.478 . S
C1452 C1454 1.381 . S
C1452 C1458 1.383 . S
C1453 C1449 1.495 . S
C1453 H1459 0.959 . S
C1453 H1460 0.961 . S
C1453 H1461 0.960 . S
C1454 C1452 1.381 . S
C1454 C1455 1.394 . S
C1454 H1462 0.930 . S
C1455 C1454 1.394 . S
C1455 C1456 1.383 . S
C1455 H1463 0.929 . S
C1456 C1455 1.383 . S
C1456 C1457 1.377 . S
C1457 H1441 0.930 . S
C1457 C1456 1.377 . S
C1457 C1458 1.379 . S
C1458 H1442 0.931 . S
C1458 C1452 1.383 . S
C1458 C1457 1.379 . S
H1459 C1453 0.959 . S
H1460 C1453 0.961 . S
H1461 C1453 0.960 . S
H1462 C1454 0.930 . S
H1463 C1455 0.929 . S
H1464 C1472 0.929 . S
H1465 C1474 0.930 . S
H1466 C1476 0.930 . S
H1467 C1479 0.929 . S
H1468 C1482 0.930 . S
H1469 C1484 0.960 . S
H1470 C1484 0.960 . S
H1471 C1484 0.960 . S
C1472 H1464 0.929 . S
C1472 C1473 1.377 . S
C1472 C1474 1.384 . S
C1473 C1472 1.377 . S
C1473 C1479 1.390 . S
C1474 H1465 0.930 . S
C1474 C1472 1.384 . S
C1474 C1475 1.372 . S
C1475 C1474 1.372 . S
C1475 C1476 1.400 . S
C1475 C1480 1.490 . S
C1476 H1466 0.930 . S
C1476 C1475 1.400 . S
C1476 C1479 1.386 . S
H1477 C1493 0.930 . S
H1478 C1494 0.931 . S
C1479 H1467 0.929 . S
C1479 C1473 1.390 . S
C1479 C1476 1.386 . S
C1480 C1475 1.490 . S
C1480 C1482 1.395 . S
C1480 C1483 1.403 . S
H1481 C1487 0.930 . S
C1482 H1468 0.930 . S
C1482 C1480 1.395 . S
C1482 C1485 1.403 . S
C1483 C1480 1.403 . S
C1483 C1484 1.524 . S
C1483 C1487 1.400 . S
C1484 H1469 0.960 . S
C1484 H1470 0.960 . S
C1484 H1471 0.960 . S
C1484 C1483 1.524 . S
C1485 C1482 1.403 . S
C1485 C1486 1.392 . S
C1485 C1489 1.495 . S
C1486 C1485 1.392 . S
C1486 C1487 1.385 . S
C1486 C1488 1.478 . S
C1487 H1481 0.930 . S
C1487 C1483 1.400 . S
C1487 C1486 1.385 . S
C1488 C1486 1.478 . S
C1488 C1490 1.381 . S
C1488 C1494 1.383 . S
C1489 C1485 1.495 . S
C1489 H1495 0.959 . S
C1489 H1496 0.961 . S
C1489 H1497 0.960 . S
C1490 C1488 1.381 . S
C1490 C1491 1.394 . S
C1490 H1498 0.930 . S
C1491 C1490 1.394 . S
C1491 C1492 1.383 . S
C1491 H1499 0.929 . S
C1492 C1491 1.383 . S
C1492 C1493 1.377 . S
C1493 H1477 0.930 . S
C1493 C1492 1.377 . S
C1493 C1494 1.379 . S
C1494 H1478 0.931 . S
C1494 C1488 1.383 . S
C1494 C1493 1.379 . S
H1495 C1489 0.959 . S
H1496 C1489 0.961 . S
H1497 C1489 0.960 . S
H1498 C1490 0.930 . S
H1499 C1491 0.929 . S
H1500 C1508 0.929 . S
H1501 C1510 0.930 . S
H1502 C1512 0.930 . S
H1503 C1515 0.929 . S
H1504 C1518 0.930 . S
H1505 C1520 0.960 . S
H1506 C1520 0.960 . S
H1507 C1520 0.960 . S
C1508 H1500 0.929 . S
C1508 C1509 1.377 . S
C1508 C1510 1.384 . S
C1509 C1508 1.377 . S
C1509 C1515 1.390 . S
C1510 H1501 0.930 . S
C1510 C1508 1.384 . S
C1510 C1511 1.372 . S
C1511 C1510 1.372 . S
C1511 C1512 1.400 . S
C1511 C1516 1.490 . S
C1512 H1502 0.930 . S
C1512 C1511 1.400 . S
C1512 C1515 1.386 . S
H1513 C1529 0.930 . S
H1514 C1530 0.931 . S
C1515 H1503 0.929 . S
C1515 C1509 1.390 . S
C1515 C1512 1.386 . S
C1516 C1511 1.490 . S
C1516 C1518 1.395 . S
C1516 C1519 1.403 . S
H1517 C1523 0.930 . S
C1518 H1504 0.930 . S
C1518 C1516 1.395 . S
C1518 C1521 1.403 . S
C1519 C1516 1.403 . S
C1519 C1520 1.524 . S
C1519 C1523 1.400 . S
C1520 H1505 0.960 . S
C1520 H1506 0.960 . S
C1520 H1507 0.960 . S
C1520 C1519 1.524 . S
C1521 C1518 1.403 . S
C1521 C1522 1.392 . S
C1521 C1525 1.495 . S
C1522 C1521 1.392 . S
C1522 C1523 1.385 . S
C1522 C1524 1.478 . S
C1523 H1517 0.930 . S
C1523 C1519 1.400 . S
C1523 C1522 1.385 . S
C1524 C1522 1.478 . S
C1524 C1526 1.381 . S
C1524 C1530 1.383 . S
C1525 C1521 1.495 . S
C1525 H1531 0.959 . S
C1525 H1532 0.961 . S
C1525 H1533 0.960 . S
C1526 C1524 1.381 . S
C1526 C1527 1.394 . S
C1526 H1534 0.930 . S
C1527 C1526 1.394 . S
C1527 C1528 1.383 . S
C1527 H1535 0.929 . S
C1528 C1527 1.383 . S
C1528 C1529 1.377 . S
C1529 H1513 0.930 . S
C1529 C1528 1.377 . S
C1529 C1530 1.379 . S
C1530 H1514 0.931 . S
C1530 C1524 1.383 . S
C1530 C1529 1.379 . S
H1531 C1525 0.959 . S
H1532 C1525 0.961 . S
H1533 C1525 0.960 . S
H1534 C1526 0.930 . S
H1535 C1527 0.929 . S
H1536 C1544 0.929 . S
H1537 C1546 0.930 . S
H1538 C1548 0.930 . S
H1539 C1551 0.929 . S
H1540 C1554 0.930 . S
H1541 C1556 0.960 . S
H1542 C1556 0.960 . S
H1543 C1556 0.960 . S
C1544 H1536 0.929 . S
C1544 C1545 1.377 . S
C1544 C1546 1.384 . S
C1545 C1544 1.377 . S
C1545 C1551 1.390 . S
C1546 H1537 0.930 . S
C1546 C1544 1.384 . S
C1546 C1547 1.372 . S
C1547 C1546 1.372 . S
C1547 C1548 1.400 . S
C1547 C1552 1.490 . S
C1548 H1538 0.930 . S
C1548 C1547 1.400 . S
C1548 C1551 1.386 . S
H1549 C1565 0.930 . S
H1550 C1566 0.931 . S
C1551 H1539 0.929 . S
C1551 C1545 1.390 . S
C1551 C1548 1.386 . S
C1552 C1547 1.490 . S
C1552 C1554 1.395 . S
C1552 C1555 1.403 . S
H1553 C1559 0.930 . S
C1554 H1540 0.930 . S
C1554 C1552 1.395 . S
C1554 C1557 1.403 . S
C1555 C1552 1.403 . S
C1555 C1556 1.524 . S
C1555 C1559 1.400 . S
C1556 H1541 0.960 . S
C1556 H1542 0.960 . S
C1556 H1543 0.960 . S
C1556 C1555 1.524 . S
C1557 C1554 1.403 . S
C1557 C1558 1.392 . S
C1557 C1561 1.495 . S
C1558 C1557 1.392 . S
C1558 C1559 1.385 . S
C1558 C1560 1.478 . S
C1559 H1553 0.930 . S
C1559 C1555 1.400 . S
C1559 C1558 1.385 . S
C1560 C1558 1.478 . S
C1560 C1562 1.381 . S
C1560 C1566 1.383 . S
C1561 C1557 1.495 . S
C1561 H1567 0.959 . S
C1561 H1568 0.961 . S
C1561 H1569 0.960 . S
C1562 C1560 1.381 . S
C1562 C1563 1.394 . S
C1562 H1570 0.930 . S
C1563 C1562 1.394 . S
C1563 C1564 1.383 . S
C1563 H1571 0.929 . S
C1564 C1563 1.383 . S
C1564 C1565 1.377 . S
C1565 H1549 0.930 . S
C1565 C1564 1.377 . S
C1565 C1566 1.379 . S
C1566 H1550 0.931 . S
C1566 C1560 1.383 . S
C1566 C1565 1.379 . S
H1567 C1561 0.959 . S
H1568 C1561 0.961 . S
H1569 C1561 0.960 . S
H1570 C1562 0.930 . S
H1571 C1563 0.929 . S
H1572 C1580 0.929 . S
H1573 C1582 0.930 . S
H1574 C1584 0.930 . S
H1575 C1587 0.929 . S
H1576 C1590 0.930 . S
H1577 C1592 0.960 . S
H1578 C1592 0.960 . S
H1579 C1592 0.960 . S
C1580 H1572 0.929 . S
C1580 C1581 1.377 . S
C1580 C1582 1.384 . S
C1581 C1580 1.377 . S
C1581 C1587 1.390 . S
C1582 H1573 0.930 . S
C1582 C1580 1.384 . S
C1582 C1583 1.372 . S
C1583 C1582 1.372 . S
C1583 C1584 1.400 . S
C1583 C1588 1.490 . S
C1584 H1574 0.930 . S
C1584 C1583 1.400 . S
C1584 C1587 1.386 . S
H1585 C1601 0.930 . S
H1586 C1602 0.931 . S
C1587 H1575 0.929 . S
C1587 C1581 1.390 . S
C1587 C1584 1.386 . S
C1588 C1583 1.490 . S
C1588 C1590 1.395 . S
C1588 C1591 1.403 . S
H1589 C1595 0.930 . S
C1590 H1576 0.930 . S
C1590 C1588 1.395 . S
C1590 C1593 1.403 . S
C1591 C1588 1.403 . S
C1591 C1592 1.524 . S
C1591 C1595 1.400 . S
C1592 H1577 0.960 . S
C1592 H1578 0.960 . S
C1592 H1579 0.960 . S
C1592 C1591 1.524 . S
C1593 C1590 1.403 . S
C1593 C1594 1.392 . S
C1593 C1597 1.495 . S
C1594 C1593 1.392 . S
C1594 C1595 1.385 . S
C1594 C1596 1.478 . S
C1595 H1589 0.930 . S
C1595 C1591 1.400 . S
C1595 C1594 1.385 . S
C1596 C1594 1.478 . S
C1596 C1598 1.381 . S
C1596 C1602 1.383 . S
C1597 C1593 1.495 . S
C1597 H1603 0.959 . S
C1597 H1604 0.961 . S
C1597 H1605 0.960 . S
C1598 C1596 1.381 . S
C1598 C1599 1.394 . S
C1598 H1606 0.930 . S
C1599 C1598 1.394 . S
C1599 C1600 1.383 . S
C1599 H1607 0.929 . S
C1600 C1599 1.383 . S
C1600 C1601 1.377 . S
C1601 H1585 0.930 . S
C1601 C1600 1.377 . S
C1601 C1602 1.379 . S
C1602 H1586 0.931 . S
C1602 C1596 1.383 . S
C1602 C1601 1.379 . S
H1603 C1597 0.959 . S
H1604 C1597 0.961 . S
H1605 C1597 0.960 . S
H1606 C1598 0.930 . S
H1607 C1599 0.929 . S
H1608 C1616 0.929 . S
H1609 C1618 0.930 . S
H1610 C1620 0.930 . S
H1611 C1623 0.929 . S
H1612 C1626 0.930 . S
H1613 C1628 0.960 . S
H1614 C1628 0.960 . S
H1615 C1628 0.960 . S
C1616 H1608 0.929 . S
C1616 C1617 1.377 . S
C1616 C1618 1.384 . S
C1617 C1616 1.377 . S
C1617 C1623 1.390 . S
C1618 H1609 0.930 . S
C1618 C1616 1.384 . S
C1618 C1619 1.372 . S
C1619 C1618 1.372 . S
C1619 C1620 1.400 . S
C1619 C1624 1.490 . S
C1620 H1610 0.930 . S
C1620 C1619 1.400 . S
C1620 C1623 1.386 . S
H1621 C1637 0.930 . S
H1622 C1638 0.931 . S
C1623 H1611 0.929 . S
C1623 C1617 1.390 . S
C1623 C1620 1.386 . S
C1624 C1619 1.490 . S
C1624 C1626 1.395 . S
C1624 C1627 1.403 . S
H1625 C1631 0.930 . S
C1626 H1612 0.930 . S
C1626 C1624 1.395 . S
C1626 C1629 1.403 . S
C1627 C1624 1.403 . S
C1627 C1628 1.524 . S
C1627 C1631 1.400 . S
C1628 H1613 0.960 . S
C1628 H1614 0.960 . S
C1628 H1615 0.960 . S
C1628 C1627 1.524 . S
C1629 C1626 1.403 . S
C1629 C1630 1.392 . S
C1629 C1633 1.495 . S
C1630 C1629 1.392 . S
C1630 C1631 1.385 . S
C1630 C1632 1.478 . S
C1631 H1625 0.930 . S
C1631 C1627 1.400 . S
C1631 C1630 1.385 . S
C1632 C1630 1.478 . S
C1632 C1634 1.381 . S
C1632 C1638 1.383 . S
C1633 C1629 1.495 . S
C1633 H1639 0.959 . S
C1633 H1640 0.961 . S
C1633 H1641 0.960 . S
C1634 C1632 1.381 . S
C1634 C1635 1.394 . S
C1634 H1642 0.930 . S
C1635 C1634 1.394 . S
C1635 C1636 1.383 . S
C1635 H1643 0.929 . S
C1636 C1635 1.383 . S
C1636 C1637 1.377 . S
C1637 H1621 0.930 . S
C1637 C1636 1.377 . S
C1637 C1638 1.379 . S
C1638 H1622 0.931 . S
C1638 C1632 1.383 . S
C1638 C1637 1.379 . S
H1639 C1633 0.959 . S
H1640 C1633 0.961 . S
H1641 C1633 0.960 . S
H1642 C1634 0.930 . S
H1643 C1635 0.929 . S
H1644 C1652 0.929 . S
H1645 C1654 0.930 . S
H1646 C1656 0.930 . S
H1647 C1659 0.929 . S
H1648 C1662 0.930 . S
H1649 C1664 0.960 . S
H1650 C1664 0.960 . S
H1651 C1664 0.960 . S
C1652 H1644 0.929 . S
C1652 C1653 1.377 . S
C1652 C1654 1.384 . S
C1653 C1652 1.377 . S
C1653 C1659 1.390 . S
C1654 H1645 0.930 . S
C1654 C1652 1.384 . S
C1654 C1655 1.372 . S
C1655 C1654 1.372 . S
C1655 C1656 1.400 . S
C1655 C1660 1.490 . S
C1656 H1646 0.930 . S
C1656 C1655 1.400 . S
C1656 C1659 1.386 . S
H1657 C1673 0.930 . S
H1658 C1674 0.931 . S
C1659 H1647 0.929 . S
C1659 C1653 1.390 . S
C1659 C1656 1.386 . S
C1660 C1655 1.490 . S
C1660 C1662 1.395 . S
C1660 C1663 1.403 . S
H1661 C1667 0.930 . S
C1662 H1648 0.930 . S
C1662 C1660 1.395 . S
C1662 C1665 1.403 . S
C1663 C1660 1.403 . S
C1663 C1664 1.524 . S
C1663 C1667 1.400 . S
C1664 H1649 0.960 . S
C1664 H1650 0.960 . S
C1664 H1651 0.960 . S
C1664 C1663 1.524 . S
C1665 C1662 1.403 . S
C1665 C1666 1.392 . S
C1665 C1669 1.495 . S
C1666 C1665 1.392 . S
C1666 C1667 1.385 . S
C1666 C1668 1.478 . S
C1667 H1661 0.930 . S
C1667 C1663 1.400 . S
C1667 C1666 1.385 . S
C1668 C1666 1.478 . S
C1668 C1670 1.381 . S
C1668 C1674 1.383 . S
C1669 C1665 1.495 . S
C1669 H1675 0.959 . S
C1669 H1676 0.961 . S
C1669 H1677 0.960 . S
C1670 C1668 1.381 . S
C1670 C1671 1.394 . S
C1670 H1678 0.930 . S
C1671 C1670 1.394 . S
C1671 C1672 1.383 . S
C1671 H1679 0.929 . S
C1672 C1671 1.383 . S
C1672 C1673 1.377 . S
C1673 H1657 0.930 . S
C1673 C1672 1.377 . S
C1673 C1674 1.379 . S
C1674 H1658 0.931 . S
C1674 C1668 1.383 . S
C1674 C1673 1.379 . S
H1675 C1669 0.959 . S
H1676 C1669 0.961 . S
H1677 C1669 0.960 . S
H1678 C1670 0.930 . S
H1679 C1671 0.929 . S
H1680 C1688 0.929 . S
H1681 C1690 0.930 . S
H1682 C1692 0.930 . S
H1683 C1695 0.929 . S
H1684 C1698 0.930 . S
H1685 C1700 0.960 . S
H1686 C1700 0.960 . S
H1687 C1700 0.960 . S
C1688 H1680 0.929 . S
C1688 C1689 1.377 . S
C1688 C1690 1.384 . S
C1689 C1688 1.377 . S
C1689 C1695 1.390 . S
C1690 H1681 0.930 . S
C1690 C1688 1.384 . S
C1690 C1691 1.372 . S
C1691 C1690 1.372 . S
C1691 C1692 1.400 . S
C1691 C1696 1.490 . S
C1692 H1682 0.930 . S
C1692 C1691 1.400 . S
C1692 C1695 1.386 . S
H1693 C1709 0.930 . S
H1694 C1710 0.931 . S
C1695 H1683 0.929 . S
C1695 C1689 1.390 . S
C1695 C1692 1.386 . S
C1696 C1691 1.490 . S
C1696 C1698 1.395 . S
C1696 C1699 1.403 . S
H1697 C1703 0.930 . S
C1698 H1684 0.930 . S
C1698 C1696 1.395 . S
C1698 C1701 1.403 . S
C1699 C1696 1.403 . S
C1699 C1700 1.524 . S
C1699 C1703 1.400 . S
C1700 H1685 0.960 . S
C1700 H1686 0.960 . S
C1700 H1687 0.960 . S
C1700 C1699 1.524 . S
C1701 C1698 1.403 . S
C1701 C1702 1.392 . S
C1701 C1705 1.495 . S
C1702 C1701 1.392 . S
C1702 C1703 1.385 . S
C1702 C1704 1.478 . S
C1703 H1697 0.930 . S
C1703 C1699 1.400 . S
C1703 C1702 1.385 . S
C1704 C1702 1.478 . S
C1704 C1706 1.381 . S
C1704 C1710 1.383 . S
C1705 C1701 1.495 . S
C1705 H1711 0.959 . S
C1705 H1712 0.961 . S
C1705 H1713 0.960 . S
C1706 C1704 1.381 . S
C1706 C1707 1.394 . S
C1706 H1714 0.930 . S
C1707 C1706 1.394 . S
C1707 C1708 1.383 . S
C1707 H1715 0.929 . S
C1708 C1707 1.383 . S
C1708 C1709 1.377 . S
C1709 H1693 0.930 . S
C1709 C1708 1.377 . S
C1709 C1710 1.379 . S
C1710 H1694 0.931 . S
C1710 C1704 1.383 . S
C1710 C1709 1.379 . S
H1711 C1705 0.959 . S
H1712 C1705 0.961 . S
H1713 C1705 0.960 . S
H1714 C1706 0.930 . S
H1715 C1707 0.929 . S
H1716 C1724 0.929 . S
H1717 C1726 0.930 . S
H1718 C1728 0.930 . S
H1719 C1731 0.929 . S
H1720 C1734 0.930 . S
H1721 C1736 0.960 . S
H1722 C1736 0.960 . S
H1723 C1736 0.960 . S
C1724 H1716 0.929 . S
C1724 C1725 1.377 . S
C1724 C1726 1.384 . S
C1725 C1724 1.377 . S
C1725 C1731 1.390 . S
C1726 H1717 0.930 . S
C1726 C1724 1.384 . S
C1726 C1727 1.372 . S
C1727 C1726 1.372 . S
C1727 C1728 1.400 . S
C1727 C1732 1.490 . S
C1728 H1718 0.930 . S
C1728 C1727 1.400 . S
C1728 C1731 1.386 . S
H1729 C1745 0.930 . S
H1730 C1746 0.931 . S
C1731 H1719 0.929 . S
C1731 C1725 1.390 . S
C1731 C1728 1.386 . S
C1732 C1727 1.490 . S
C1732 C1734 1.395 . S
C1732 C1735 1.403 . S
H1733 C1739 0.930 . S
C1734 H1720 0.930 . S
C1734 C1732 1.395 . S
C1734 C1737 1.403 . S
C1735 C1732 1.403 . S
C1735 C1736 1.524 . S
C1735 C1739 1.400 . S
C1736 H1721 0.960 . S
C1736 H1722 0.960 . S
C1736 H1723 0.960 . S
C1736 C1735 1.524 . S
C1737 C1734 1.403 . S
C1737 C1738 1.392 . S
C1737 C1741 1.495 . S
C1738 C1737 1.392 . S
C1738 C1739 1.385 . S
C1738 C1740 1.478 . S
C1739 H1733 0.930 . S
C1739 C1735 1.400 . S
C1739 C1738 1.385 . S
C1740 C1738 1.478 . S
C1740 C1742 1.381 . S
C1740 C1746 1.383 . S
C1741 C1737 1.495 . S
C1741 H1747 0.959 . S
C1741 H1748 0.961 . S
C1741 H1749 0.960 . S
C1742 C1740 1.381 . S
C1742 C1743 1.394 . S
C1742 H1750 0.930 . S
C1743 C1742 1.394 . S
C1743 C1744 1.383 . S
C1743 H1751 0.929 . S
C1744 C1743 1.383 . S
C1744 C1745 1.377 . S
C1745 H1729 0.930 . S
C1745 C1744 1.377 . S
C1745 C1746 1.379 . S
C1746 H1730 0.931 . S
C1746 C1740 1.383 . S
C1746 C1745 1.379 . S
H1747 C1741 0.959 . S
H1748 C1741 0.961 . S
H1749 C1741 0.960 . S
H1750 C1742 0.930 . S
H1751 C1743 0.929 . S
H1752 C1760 0.929 . S
H1753 C1762 0.930 . S
H1754 C1764 0.930 . S
H1755 C1767 0.929 . S
H1756 C1770 0.930 . S
H1757 C1772 0.960 . S
H1758 C1772 0.960 . S
H1759 C1772 0.960 . S
C1760 H1752 0.929 . S
C1760 C1761 1.377 . S
C1760 C1762 1.384 . S
C1761 C1760 1.377 . S
C1761 C1767 1.390 . S
C1762 H1753 0.930 . S
C1762 C1760 1.384 . S
C1762 C1763 1.372 . S
C1763 C1762 1.372 . S
C1763 C1764 1.400 . S
C1763 C1768 1.490 . S
C1764 H1754 0.930 . S
C1764 C1763 1.400 . S
C1764 C1767 1.386 . S
H1765 C1781 0.930 . S
H1766 C1782 0.931 . S
C1767 H1755 0.929 . S
C1767 C1761 1.390 . S
C1767 C1764 1.386 . S
C1768 C1763 1.490 . S
C1768 C1770 1.395 . S
C1768 C1771 1.403 . S
H1769 C1775 0.930 . S
C1770 H1756 0.930 . S
C1770 C1768 1.395 . S
C1770 C1773 1.403 . S
C1771 C1768 1.403 . S
C1771 C1772 1.524 . S
C1771 C1775 1.400 . S
C1772 H1757 0.960 . S
C1772 H1758 0.960 . S
C1772 H1759 0.960 . S
C1772 C1771 1.524 . S
C1773 C1770 1.403 . S
C1773 C1774 1.392 . S
C1773 C1777 1.495 . S
C1774 C1773 1.392 . S
C1774 C1775 1.385 . S
C1774 C1776 1.478 . S
C1775 H1769 0.930 . S
C1775 C1771 1.400 . S
C1775 C1774 1.385 . S
C1776 C1774 1.478 . S
C1776 C1778 1.381 . S
C1776 C1782 1.383 . S
C1777 C1773 1.495 . S
C1777 H1783 0.959 . S
C1777 H1784 0.961 . S
C1777 H1785 0.960 . S
C1778 C1776 1.381 . S
C1778 C1779 1.394 . S
C1778 H1786 0.930 . S
C1779 C1778 1.394 . S
C1779 C1780 1.383 . S
C1779 H1787 0.929 . S
C1780 C1779 1.383 . S
C1780 C1781 1.377 . S
C1781 H1765 0.930 . S
C1781 C1780 1.377 . S
C1781 C1782 1.379 . S
C1782 H1766 0.931 . S
C1782 C1776 1.383 . S
C1782 C1781 1.379 . S
H1783 C1777 0.959 . S
H1784 C1777 0.961 . S
H1785 C1777 0.960 . S
H1786 C1778 0.930 . S
H1787 C1779 0.929 . S
H1788 C1796 0.929 . S
H1789 C1798 0.930 . S
H1790 C1800 0.930 . S
H1791 C1803 0.929 . S
H1792 C1806 0.930 . S
H1793 C1808 0.960 . S
H1794 C1808 0.960 . S
H1795 C1808 0.960 . S
C1796 H1788 0.929 . S
C1796 C1797 1.377 . S
C1796 C1798 1.384 . S
C1797 C1796 1.377 . S
C1797 C1803 1.390 . S
C1798 H1789 0.930 . S
C1798 C1796 1.384 . S
C1798 C1799 1.372 . S
C1799 C1798 1.372 . S
C1799 C1800 1.400 . S
C1799 C1804 1.490 . S
C1800 H1790 0.930 . S
C1800 C1799 1.400 . S
C1800 C1803 1.386 . S
H1801 C1817 0.930 . S
H1802 C1818 0.931 . S
C1803 H1791 0.929 . S
C1803 C1797 1.390 . S
C1803 C1800 1.386 . S
C1804 C1799 1.490 . S
C1804 C1806 1.395 . S
C1804 C1807 1.403 . S
H1805 C1811 0.930 . S
C1806 H1792 0.930 . S
C1806 C1804 1.395 . S
C1806 C1809 1.403 . S
C1807 C1804 1.403 . S
C1807 C1808 1.524 . S
C1807 C1811 1.400 . S
C1808 H1793 0.960 . S
C1808 H1794 0.960 . S
C1808 H1795 0.960 . S
C1808 C1807 1.524 . S
C1809 C1806 1.403 . S
C1809 C1810 1.392 . S
C1809 C1813 1.495 . S
C1810 C1809 1.392 . S
C1810 C1811 1.385 . S
C1810 C1812 1.478 . S
C1811 H1805 0.930 . S
C1811 C1807 1.400 . S
C1811 C1810 1.385 . S
C1812 C1810 1.478 . S
C1812 C1814 1.381 . S
C1812 C1818 1.383 . S
C1813 C1809 1.495 . S
C1813 H1819 0.959 . S
C1813 H1820 0.961 . S
C1813 H1821 0.960 . S
C1814 C1812 1.381 . S
C1814 C1815 1.394 . S
C1814 H1822 0.930 . S
C1815 C1814 1.394 . S
C1815 C1816 1.383 . S
C1815 H1823 0.929 . S
C1816 C1815 1.383 . S
C1816 C1817 1.377 . S
C1817 H1801 0.930 . S
C1817 C1816 1.377 . S
C1817 C1818 1.379 . S
C1818 H1802 0.931 . S
C1818 C1812 1.383 . S
C1818 C1817 1.379 . S
H1819 C1813 0.959 . S
H1820 C1813 0.961 . S
H1821 C1813 0.960 . S
H1822 C1814 0.930 . S
H1823 C1815 0.929 . S
H1824 C1832 0.929 . S
H1825 C1834 0.930 . S
H1826 C1836 0.930 . S
H1827 C1839 0.929 . S
H1828 C1842 0.930 . S
H1829 C1844 0.960 . S
H1830 C1844 0.960 . S
H1831 C1844 0.960 . S
C1832 H1824 0.929 . S
C1832 C1833 1.377 . S
C1832 C1834 1.384 . S
C1833 C1832 1.377 . S
C1833 C1839 1.390 . S
C1834 H1825 0.930 . S
C1834 C1832 1.384 . S
C1834 C1835 1.372 . S
C1835 C1834 1.372 . S
C1835 C1836 1.400 . S
C1835 C1840 1.490 . S
C1836 H1826 0.930 . S
C1836 C1835 1.400 . S
C1836 C1839 1.386 . S
H1837 C1853 0.930 . S
H1838 C1854 0.931 . S
C1839 H1827 0.929 . S
C1839 C1833 1.390 . S
C1839 C1836 1.386 . S
C1840 C1835 1.490 . S
C1840 C1842 1.395 . S
C1840 C1843 1.403 . S
H1841 C1847 0.930 . S
C1842 H1828 0.930 . S
C1842 C1840 1.395 . S
C1842 C1845 1.403 . S
C1843 C1840 1.403 . S
C1843 C1844 1.524 . S
C1843 C1847 1.400 . S
C1844 H1829 0.960 . S
C1844 H1830 0.960 . S
C1844 H1831 0.960 . S
C1844 C1843 1.524 . S
C1845 C1842 1.403 . S
C1845 C1846 1.392 . S
C1845 C1849 1.495 . S
C1846 C1845 1.392 . S
C1846 C1847 1.385 . S
C1846 C1848 1.478 . S
C1847 H1841 0.930 . S
C1847 C1843 1.400 . S
C1847 C1846 1.385 . S
C1848 C1846 1.478 . S
C1848 C1850 1.381 . S
C1848 C1854 1.383 . S
C1849 C1845 1.495 . S
C1849 H1855 0.959 . S
C1849 H1856 0.961 . S
C1849 H1857 0.960 . S
C1850 C1848 1.381 . S
C1850 C1851 1.394 . S
C1850 H1858 0.930 . S
C1851 C1850 1.394 . S
C1851 C1852 1.383 . S
C1851 H1859 0.929 . S
C1852 C1851 1.383 . S
C1852 C1853 1.377 . S
C1853 H1837 0.930 . S
C1853 C1852 1.377 . S
C1853 C1854 1.379 . S
C1854 H1838 0.931 . S
C1854 C1848 1.383 . S
C1854 C1853 1.379 . S
H1855 C1849 0.959 . S
H1856 C1849 0.961 . S
H1857 C1849 0.960 . S
H1858 C1850 0.930 . S
H1859 C1851 0.929 . S
H1860 C1868 0.929 . S
H1861 C1870 0.930 . S
H1862 C1872 0.930 . S
H1863 C1875 0.929 . S
H1864 C1878 0.930 . S
H1865 C1880 0.960 . S
H1866 C1880 0.960 . S
H1867 C1880 0.960 . S
C1868 H1860 0.929 . S
C1868 C1869 1.377 . S
C1868 C1870 1.384 . S
C1869 C1868 1.377 . S
C1869 C1875 1.390 . S
C1870 H1861 0.930 . S
C1870 C1868 1.384 . S
C1870 C1871 1.372 . S
C1871 C1870 1.372 . S
C1871 C1872 1.400 . S
C1871 C1876 1.490 . S
C1872 H1862 0.930 . S
C1872 C1871 1.400 . S
C1872 C1875 1.386 . S
H1873 C1889 0.930 . S
H1874 C1890 0.931 . S
C1875 H1863 0.929 . S
C1875 C1869 1.390 . S
C1875 C1872 1.386 . S
C1876 C1871 1.490 . S
C1876 C1878 1.395 . S
C1876 C1879 1.403 . S
H1877 C1883 0.930 . S
C1878 H1864 0.930 . S
C1878 C1876 1.395 . S
C1878 C1881 1.403 . S
C1879 C1876 1.403 . S
C1879 C1880 1.524 . S
C1879 C1883 1.400 . S
C1880 H1865 0.960 . S
C1880 H1866 0.960 . S
C1880 H1867 0.960 . S
C1880 C1879 1.524 . S
C1881 C1878 1.403 . S
C1881 C1882 1.392 . S
C1881 C1885 1.495 . S
C1882 C1881 1.392 . S
C1882 C1883 1.385 . S
C1882 C1884 1.478 . S
C1883 H1877 0.930 . S
C1883 C1879 1.400 . S
C1883 C1882 1.385 . S
C1884 C1882 1.478 . S
C1884 C1886 1.381 . S
C1884 C1890 1.383 . S
C1885 C1881 1.495 . S
C1885 H1891 0.959 . S
C1885 H1892 0.961 . S
C1885 H1893 0.960 . S
C1886 C1884 1.381 . S
C1886 C1887 1.394 . S
C1886 H1894 0.930 . S
C1887 C1886 1.394 . S
C1887 C1888 1.383 . S
C1887 H1895 0.929 . S
C1888 C1887 1.383 . S
C1888 C1889 1.377 . S
C1889 H1873 0.930 . S
C1889 C1888 1.377 . S
C1889 C1890 1.379 . S
C1890 H1874 0.931 . S
C1890 C1884 1.383 . S
C1890 C1889 1.379 . S
H1891 C1885 0.959 . S
H1892 C1885 0.961 . S
H1893 C1885 0.960 . S
H1894 C1886 0.930 . S
H1895 C1887 0.929 . S
H1896 C1904 0.929 . S
H1897 C1906 0.930 . S
H1898 C1908 0.930 . S
H1899 C1911 0.929 . S
H1900 C1914 0.930 . S
H1901 C1916 0.960 . S
H1902 C1916 0.960 . S
H1903 C1916 0.960 . S
C1904 H1896 0.929 . S
C1904 C1905 1.377 . S
C1904 C1906 1.384 . S
C1905 C1904 1.377 . S
C1905 C1911 1.390 . S
C1906 H1897 0.930 . S
C1906 C1904 1.384 . S
C1906 C1907 1.372 . S
C1907 C1906 1.372 . S
C1907 C1908 1.400 . S
C1907 C1912 1.490 . S
C1908 H1898 0.930 . S
C1908 C1907 1.400 . S
C1908 C1911 1.386 . S
H1909 C1925 0.930 . S
H1910 C1926 0.931 . S
C1911 H1899 0.929 . S
C1911 C1905 1.390 . S
C1911 C1908 1.386 . S
C1912 C1907 1.490 . S
C1912 C1914 1.395 . S
C1912 C1915 1.403 . S
H1913 C1919 0.930 . S
C1914 H1900 0.930 . S
C1914 C1912 1.395 . S
C1914 C1917 1.403 . S
C1915 C1912 1.403 . S
C1915 C1916 1.524 . S
C1915 C1919 1.400 . S
C1916 H1901 0.960 . S
C1916 H1902 0.960 . S
C1916 H1903 0.960 . S
C1916 C1915 1.524 . S
C1917 C1914 1.403 . S
C1917 C1918 1.392 . S
C1917 C1921 1.495 . S
C1918 C1917 1.392 . S
C1918 C1919 1.385 . S
C1918 C1920 1.478 . S
C1919 H1913 0.930 . S
C1919 C1915 1.400 . S
C1919 C1918 1.385 . S
C1920 C1918 1.478 . S
C1920 C1922 1.381 . S
C1920 C1926 1.383 . S
C1921 C1917 1.495 . S
C1921 H1927 0.959 . S
C1921 H1928 0.961 . S
C1921 H1929 0.960 . S
C1922 C1920 1.381 . S
C1922 C1923 1.394 . S
C1922 H1930 0.930 . S
C1923 C1922 1.394 . S
C1923 C1924 1.383 . S
C1923 H1931 0.929 . S
C1924 C1923 1.383 . S
C1924 C1925 1.377 . S
C1925 H1909 0.930 . S
C1925 C1924 1.377 . S
C1925 C1926 1.379 . S
C1926 H1910 0.931 . S
C1926 C1920 1.383 . S
C1926 C1925 1.379 . S
H1927 C1921 0.959 . S
H1928 C1921 0.961 . S
H1929 C1921 0.960 . S
H1930 C1922 0.930 . S
H1931 C1923 0.929 . S
H1932 C1940 0.929 . S
H1933 C1942 0.930 . S
H1934 C1944 0.930 . S
H1935 C1947 0.929 . S
H1936 C1950 0.930 . S
H1937 C1952 0.960 . S
H1938 C1952 0.960 . S
H1939 C1952 0.960 . S
C1940 H1932 0.929 . S
C1940 C1941 1.377 . S
C1940 C1942 1.384 . S
C1941 C1940 1.377 . S
C1941 C1947 1.390 . S
C1942 H1933 0.930 . S
C1942 C1940 1.384 . S
C1942 C1943 1.372 . S
C1943 C1942 1.372 . S
C1943 C1944 1.400 . S
C1943 C1948 1.490 . S
C1944 H1934 0.930 . S
C1944 C1943 1.400 . S
C1944 C1947 1.386 . S
H1945 C1961 0.930 . S
H1946 C1962 0.931 . S
C1947 H1935 0.929 . S
C1947 C1941 1.390 . S
C1947 C1944 1.386 . S
C1948 C1943 1.490 . S
C1948 C1950 1.395 . S
C1948 C1951 1.403 . S
H1949 C1955 0.930 . S
C1950 H1936 0.930 . S
C1950 C1948 1.395 . S
C1950 C1953 1.403 . S
C1951 C1948 1.403 . S
C1951 C1952 1.524 . S
C1951 C1955 1.400 . S
C1952 H1937 0.960 . S
C1952 H1938 0.960 . S
C1952 H1939 0.960 . S
C1952 C1951 1.524 . S
C1953 C1950 1.403 . S
C1953 C1954 1.392 . S
C1953 C1957 1.495 . S
C1954 C1953 1.392 . S
C1954 C1955 1.385 . S
C1954 C1956 1.478 . S
C1955 H1949 0.930 . S
C1955 C1951 1.400 . S
C1955 C1954 1.385 . S
C1956 C1954 1.478 . S
C1956 C1958 1.381 . S
C1956 C1962 1.383 . S
C1957 C1953 1.495 . S
C1957 H1963 0.959 . S
C1957 H1964 0.961 . S
C1957 H1965 0.960 . S
C1958 C1956 1.381 . S
C1958 C1959 1.394 . S
C1958 H1966 0.930 . S
C1959 C1958 1.394 . S
C1959 C1960 1.383 . S
C1959 H1967 0.929 . S
C1960 C1959 1.383 . S
C1960 C1961 1.377 . S
C1961 H1945 0.930 . S
C1961 C1960 1.377 . S
C1961 C1962 1.379 . S
C1962 H1946 0.931 . S
C1962 C1956 1.383 . S
C1962 C1961 1.379 . S
H1963 C1957 0.959 . S
H1964 C1957 0.961 . S
H1965 C1957 0.960 . S
H1966 C1958 0.930 . S
H1967 C1959 0.929 . S
H1968 C1976 0.929 . S
H1969 C1978 0.930 . S
H1970 C1980 0.930 . S
H1971 C1983 0.929 . S
H1972 C1986 0.930 . S
H1973 C1988 0.960 . S
H1974 C1988 0.960 . S
H1975 C1988 0.960 . S
C1976 H1968 0.929 . S
C1976 C1977 1.377 . S
C1976 C1978 1.384 . S
C1977 C1976 1.377 . S
C1977 C1983 1.390 . S
C1978 H1969 0.930 . S
C1978 C1976 1.384 . S
C1978 C1979 1.372 . S
C1979 C1978 1.372 . S
C1979 C1980 1.400 . S
C1979 C1984 1.490 . S
C1980 H1970 0.930 . S
C1980 C1979 1.400 . S
C1980 C1983 1.386 . S
H1981 C1997 0.930 . S
H1982 C1998 0.931 . S
C1983 H1971 0.929 . S
C1983 C1977 1.390 . S
C1983 C1980 1.386 . S
C1984 C1979 1.490 . S
C1984 C1986 1.395 . S
C1984 C1987 1.403 . S
H1985 C1991 0.930 . S
C1986 H1972 0.930 . S
C1986 C1984 1.395 . S
C1986 C1989 1.403 . S
C1987 C1984 1.403 . S
C1987 C1988 1.524 . S
C1987 C1991 1.400 . S
C1988 H1973 0.960 . S
C1988 H1974 0.960 . S
C1988 H1975 0.960 . S
C1988 C1987 1.524 . S
C1989 C1986 1.403 . S
C1989 C1990 1.392 . S
C1989 C1993 1.495 . S
C1990 C1989 1.392 . S
C1990 C1991 1.385 . S
C1990 C1992 1.478 . S
C1991 H1985 0.930 . S
C1991 C1987 1.400 . S
C1991 C1990 1.385 . S
C1992 C1990 1.478 . S
C1992 C1994 1.381 . S
C1992 C1998 1.383 . S
C1993 C1989 1.495 . S
C1993 H1999 0.959 . S
C1993 H2000 0.961 . S
C1993 H2001 0.960 . S
C1994 C1992 1.381 . S
C1994 C1995 1.394 . S
C1994 H2002 0.930 . S
C1995 C1994 1.394 . S
C1995 C1996 1.383 . S
C1995 H2003 0.929 . S
C1996 C1995 1.383 . S
C1996 C1997 1.377 . S
C1997 H1981 0.930 . S
C1997 C1996 1.377 . S
C1997 C1998 1.379 . S
C1998 H1982 0.931 . S
C1998 C1992 1.383 . S
C1998 C1997 1.379 . S
H1999 C1993 0.959 . S
H2000 C1993 0.961 . S
H2001 C1993 0.960 . S
H2002 C1994 0.930 . S
H2003 C1995 0.929 . S
H2004 C2012 0.929 . S
H2005 C2014 0.930 . S
H2006 C2016 0.930 . S
H2007 C2019 0.929 . S
H2008 C2022 0.930 . S
H2009 C2024 0.960 . S
H2010 C2024 0.960 . S
H2011 C2024 0.960 . S
C2012 H2004 0.929 . S
C2012 C2013 1.377 . S
C2012 C2014 1.384 . S
C2013 C2012 1.377 . S
C2013 C2019 1.390 . S
C2014 H2005 0.930 . S
C2014 C2012 1.384 . S
C2014 C2015 1.372 . S
C2015 C2014 1.372 . S
C2015 C2016 1.400 . S
C2015 C2020 1.490 . S
C2016 H2006 0.930 . S
C2016 C2015 1.400 . S
C2016 C2019 1.386 . S
H2017 C2033 0.930 . S
H2018 C2034 0.931 . S
C2019 H2007 0.929 . S
C2019 C2013 1.390 . S
C2019 C2016 1.386 . S
C2020 C2015 1.490 . S
C2020 C2022 1.395 . S
C2020 C2023 1.403 . S
H2021 C2027 0.930 . S
C2022 H2008 0.930 . S
C2022 C2020 1.395 . S
C2022 C2025 1.403 . S
C2023 C2020 1.403 . S
C2023 C2024 1.524 . S
C2023 C2027 1.400 . S
C2024 H2009 0.960 . S
C2024 H2010 0.960 . S
C2024 H2011 0.960 . S
C2024 C2023 1.524 . S
C2025 C2022 1.403 . S
C2025 C2026 1.392 . S
C2025 C2029 1.495 . S
C2026 C2025 1.392 . S
C2026 C2027 1.385 . S
C2026 C2028 1.478 . S
C2027 H2021 0.930 . S
C2027 C2023 1.400 . S
C2027 C2026 1.385 . S
C2028 C2026 1.478 . S
C2028 C2030 1.381 . S
C2028 C2034 1.383 . S
C2029 C2025 1.495 . S
C2029 H2035 0.959 . S
C2029 H2036 0.961 . S
C2029 H2037 0.960 . S
C2030 C2028 1.381 . S
C2030 C2031 1.394 . S
C2030 H2038 0.930 . S
C2031 C2030 1.394 . S
C2031 C2032 1.383 . S
C2031 H2039 0.929 . S
C2032 C2031 1.383 . S
C2032 C2033 1.377 . S
C2033 H2017 0.930 . S
C2033 C2032 1.377 . S
C2033 C2034 1.379 . S
C2034 H2018 0.931 . S
C2034 C2028 1.383 . S
C2034 C2033 1.379 . S
H2035 C2029 0.959 . S
H2036 C2029 0.961 . S
H2037 C2029 0.960 . S
H2038 C2030 0.930 . S
H2039 C2031 0.929 . S
H2040 C2048 0.929 . S
H2041 C2050 0.930 . S
H2042 C2052 0.930 . S
H2043 C2055 0.929 . S
H2044 C2058 0.930 . S
H2045 C2060 0.960 . S
H2046 C2060 0.960 . S
H2047 C2060 0.960 . S
C2048 H2040 0.929 . S
C2048 C2049 1.377 . S
C2048 C2050 1.384 . S
C2049 C2048 1.377 . S
C2049 C2055 1.390 . S
C2050 H2041 0.930 . S
C2050 C2048 1.384 . S
C2050 C2051 1.372 . S
C2051 C2050 1.372 . S
C2051 C2052 1.400 . S
C2051 C2056 1.490 . S
C2052 H2042 0.930 . S
C2052 C2051 1.400 . S
C2052 C2055 1.386 . S
H2053 C2069 0.930 . S
H2054 C2070 0.931 . S
C2055 H2043 0.929 . S
C2055 C2049 1.390 . S
C2055 C2052 1.386 . S
C2056 C2051 1.490 . S
C2056 C2058 1.395 . S
C2056 C2059 1.403 . S
H2057 C2063 0.930 . S
C2058 H2044 0.930 . S
C2058 C2056 1.395 . S
C2058 C2061 1.403 . S
C2059 C2056 1.403 . S
C2059 C2060 1.524 . S
C2059 C2063 1.400 . S
C2060 H2045 0.960 . S
C2060 H2046 0.960 . S
C2060 H2047 0.960 . S
C2060 C2059 1.524 . S
C2061 C2058 1.403 . S
C2061 C2062 1.392 . S
C2061 C2065 1.495 . S
C2062 C2061 1.392 . S
C2062 C2063 1.385 . S
C2062 C2064 1.478 . S
C2063 H2057 0.930 . S
C2063 C2059 1.400 . S
C2063 C2062 1.385 . S
C2064 C2062 1.478 . S
C2064 C2066 1.381 . S
C2064 C2070 1.383 . S
C2065 C2061 1.495 . S
C2065 H2071 0.959 . S
C2065 H2072 0.961 . S
C2065 H2073 0.960 . S
C2066 C2064 1.381 . S
C2066 C2067 1.394 . S
C2066 H2074 0.930 . S
C2067 C2066 1.394 . S
C2067 C2068 1.383 . S
C2067 H2075 0.929 . S
C2068 C2067 1.383 . S
C2068 C2069 1.377 . S
C2069 H2053 0.930 . S
C2069 C2068 1.377 . S
C2069 C2070 1.379 . S
C2070 H2054 0.931 . S
C2070 C2064 1.383 . S
C2070 C2069 1.379 . S
H2071 C2065 0.959 . S
H2072 C2065 0.961 . S
H2073 C2065 0.960 . S
H2074 C2066 0.930 . S
H2075 C2067 0.929 . S
H2076 C2084 0.929 . S
H2077 C2086 0.930 . S
H2078 C2088 0.930 . S
H2079 C2091 0.929 . S
H2080 C2094 0.930 . S
H2081 C2096 0.960 . S
H2082 C2096 0.960 . S
H2083 C2096 0.960 . S
C2084 H2076 0.929 . S
C2084 C2085 1.377 . S
C2084 C2086 1.384 . S
C2085 C2084 1.377 . S
C2085 C2091 1.390 . S
C2086 H2077 0.930 . S
C2086 C2084 1.384 . S
C2086 C2087 1.372 . S
C2087 C2086 1.372 . S
C2087 C2088 1.400 . S
C2087 C2092 1.490 . S
C2088 H2078 0.930 . S
C2088 C2087 1.400 . S
C2088 C2091 1.386 . S
H2089 C2105 0.930 . S
H2090 C2106 0.931 . S
C2091 H2079 0.929 . S
C2091 C2085 1.390 . S
C2091 C2088 1.386 . S
C2092 C2087 1.490 . S
C2092 C2094 1.395 . S
C2092 C2095 1.403 . S
H2093 C2099 0.930 . S
C2094 H2080 0.930 . S
C2094 C2092 1.395 . S
C2094 C2097 1.403 . S
C2095 C2092 1.403 . S
C2095 C2096 1.524 . S
C2095 C2099 1.400 . S
C2096 H2081 0.960 . S
C2096 H2082 0.960 . S
C2096 H2083 0.960 . S
C2096 C2095 1.524 . S
C2097 C2094 1.403 . S
C2097 C2098 1.392 . S
C2097 C2101 1.495 . S
C2098 C2097 1.392 . S
C2098 C2099 1.385 . S
C2098 C2100 1.478 . S
C2099 H2093 0.930 . S
C2099 C2095 1.400 . S
C2099 C2098 1.385 . S
C2100 C2098 1.478 . S
C2100 C2102 1.381 . S
C2100 C2106 1.383 . S
C2101 C2097 1.495 . S
C2101 H2107 0.959 . S
C2101 H2108 0.961 . S
C2101 H2109 0.960 . S
C2102 C2100 1.381 . S
C2102 C2103 1.394 . S
C2102 H2110 0.930 . S
C2103 C2102 1.394 . S
C2103 C2104 1.383 . S
C2103 H2111 0.929 . S
C2104 C2103 1.383 . S
C2104 C2105 1.377 . S
C2105 H2089 0.930 . S
C2105 C2104 1.377 . S
C2105 C2106 1.379 . S
C2106 H2090 0.931 . S
C2106 C2100 1.383 . S
C2106 C2105 1.379 . S
H2107 C2101 0.959 . S
H2108 C2101 0.961 . S
H2109 C2101 0.960 . S
H2110 C2102 0.930 . S
H2111 C2103 0.929 . S
H2112 C2120 0.929 . S
H2113 C2122 0.930 . S
H2114 C2124 0.930 . S
H2115 C2127 0.929 . S
H2116 C2130 0.930 . S
H2117 C2132 0.960 . S
H2118 C2132 0.960 . S
H2119 C2132 0.960 . S
C2120 H2112 0.929 . S
C2120 C2121 1.377 . S
C2120 C2122 1.384 . S
C2121 C2120 1.377 . S
C2121 C2127 1.390 . S
C2122 H2113 0.930 . S
C2122 C2120 1.384 . S
C2122 C2123 1.372 . S
C2123 C2122 1.372 . S
C2123 C2124 1.400 . S
C2123 C2128 1.490 . S
C2124 H2114 0.930 . S
C2124 C2123 1.400 . S
C2124 C2127 1.386 . S
H2125 C2141 0.930 . S
H2126 C2142 0.931 . S
C2127 H2115 0.929 . S
C2127 C2121 1.390 . S
C2127 C2124 1.386 . S
C2128 C2123 1.490 . S
C2128 C2130 1.395 . S
C2128 C2131 1.403 . S
H2129 C2135 0.930 . S
C2130 H2116 0.930 . S
C2130 C2128 1.395 . S
C2130 C2133 1.403 . S
C2131 C2128 1.403 . S
C2131 C2132 1.524 . S
C2131 C2135 1.400 . S
C2132 H2117 0.960 . S
C2132 H2118 0.960 . S
C2132 H2119 0.960 . S
C2132 C2131 1.524 . S
C2133 C2130 1.403 . S
C2133 C2134 1.392 . S
C2133 C2137 1.495 . S
C2134 C2133 1.392 . S
C2134 C2135 1.385 . S
C2134 C2136 1.478 . S
C2135 H2129 0.930 . S
C2135 C2131 1.400 . S
C2135 C2134 1.385 . S
C2136 C2134 1.478 . S
C2136 C2138 1.381 . S
C2136 C2142 1.383 . S
C2137 C2133 1.495 . S
C2137 H2143 0.959 . S
C2137 H2144 0.961 . S
C2137 H2145 0.960 . S
C2138 C2136 1.381 . S
C2138 C2139 1.394 . S
C2138 H2146 0.930 . S
C2139 C2138 1.394 . S
C2139 C2140 1.383 . S
C2139 H2147 0.929 . S
C2140 C2139 1.383 . S
C2140 C2141 1.377 . S
C2141 H2125 0.930 . S
C2141 C2140 1.377 . S
C2141 C2142 1.379 . S
C2142 H2126 0.931 . S
C2142 C2136 1.383 . S
C2142 C2141 1.379 . S
H2143 C2137 0.959 . S
H2144 C2137 0.961 . S
H2145 C2137 0.960 . S
H2146 C2138 0.930 . S
H2147 C2139 0.929 . S
H2148 C2156 0.929 . S
H2149 C2158 0.930 . S
H2150 C2160 0.930 . S
H2151 C2163 0.929 . S
H2152 C2166 0.930 . S
H2153 C2168 0.960 . S
H2154 C2168 0.960 . S
H2155 C2168 0.960 . S
C2156 H2148 0.929 . S
C2156 C2157 1.377 . S
C2156 C2158 1.384 . S
C2157 C2156 1.377 . S
C2157 C2163 1.390 . S
C2158 H2149 0.930 . S
C2158 C2156 1.384 . S
C2158 C2159 1.372 . S
C2159 C2158 1.372 . S
C2159 C2160 1.400 . S
C2159 C2164 1.490 . S
C2160 H2150 0.930 . S
C2160 C2159 1.400 . S
C2160 C2163 1.386 . S
H2161 C2177 0.930 . S
H2162 C2178 0.931 . S
C2163 H2151 0.929 . S
C2163 C2157 1.390 . S
C2163 C2160 1.386 . S
C2164 C2159 1.490 . S
C2164 C2166 1.395 . S
C2164 C2167 1.403 . S
H2165 C2171 0.930 . S
C2166 H2152 0.930 . S
C2166 C2164 1.395 . S
C2166 C2169 1.403 . S
C2167 C2164 1.403 . S
C2167 C2168 1.524 . S
C2167 C2171 1.400 . S
C2168 H2153 0.960 . S
C2168 H2154 0.960 . S
C2168 H2155 0.960 . S
C2168 C2167 1.524 . S
C2169 C2166 1.403 . S
C2169 C2170 1.392 . S
C2169 C2173 1.495 . S
C2170 C2169 1.392 . S
C2170 C2171 1.385 . S
C2170 C2172 1.478 . S
C2171 H2165 0.930 . S
C2171 C2167 1.400 . S
C2171 C2170 1.385 . S
C2172 C2170 1.478 . S
C2172 C2174 1.381 . S
C2172 C2178 1.383 . S
C2173 C2169 1.495 . S
C2173 H2179 0.959 . S
C2173 H2180 0.961 . S
C2173 H2181 0.960 . S
C2174 C2172 1.381 . S
C2174 C2175 1.394 . S
C2174 H2182 0.930 . S
C2175 C2174 1.394 . S
C2175 C2176 1.383 . S
C2175 H2183 0.929 . S
C2176 C2175 1.383 . S
C2176 C2177 1.377 . S
C2177 H2161 0.930 . S
C2177 C2176 1.377 . S
C2177 C2178 1.379 . S
C2178 H2162 0.931 . S
C2178 C2172 1.383 . S
C2178 C2177 1.379 . S
H2179 C2173 0.959 . S
H2180 C2173 0.961 . S
H2181 C2173 0.960 . S
H2182 C2174 0.930 . S
H2183 C2175 0.929 . S
H2184 C2192 0.929 . S
H2185 C2194 0.930 . S
H2186 C2196 0.930 . S
H2187 C2199 0.929 . S
H2188 C2202 0.930 . S
H2189 C2204 0.960 . S
H2190 C2204 0.960 . S
H2191 C2204 0.960 . S
C2192 H2184 0.929 . S
C2192 C2193 1.377 . S
C2192 C2194 1.384 . S
C2193 C2192 1.377 . S
C2193 C2199 1.390 . S
C2194 H2185 0.930 . S
C2194 C2192 1.384 . S
C2194 C2195 1.372 . S
C2195 C2194 1.372 . S
C2195 C2196 1.400 . S
C2195 C2200 1.490 . S
C2196 H2186 0.930 . S
C2196 C2195 1.400 . S
C2196 C2199 1.386 . S
H2197 C2213 0.930 . S
H2198 C2214 0.931 . S
C2199 H2187 0.929 . S
C2199 C2193 1.390 . S
C2199 C2196 1.386 . S
C2200 C2195 1.490 . S
C2200 C2202 1.395 . S
C2200 C2203 1.403 . S
H2201 C2207 0.930 . S
C2202 H2188 0.930 . S
C2202 C2200 1.395 . S
C2202 C2205 1.403 . S
C2203 C2200 1.403 . S
C2203 C2204 1.524 . S
C2203 C2207 1.400 . S
C2204 H2189 0.960 . S
C2204 H2190 0.960 . S
C2204 H2191 0.960 . S
C2204 C2203 1.524 . S
C2205 C2202 1.403 . S
C2205 C2206 1.392 . S
C2205 C2209 1.495 . S
C2206 C2205 1.392 . S
C2206 C2207 1.385 . S
C2206 C2208 1.478 . S
C2207 H2201 0.930 . S
C2207 C2203 1.400 . S
C2207 C2206 1.385 . S
C2208 C2206 1.478 . S
C2208 C2210 1.381 . S
C2208 C2214 1.383 . S
C2209 C2205 1.495 . S
C2209 H2215 0.959 . S
C2209 H2216 0.961 . S
C2209 H2217 0.960 . S
C2210 C2208 1.381 . S
C2210 C2211 1.394 . S
C2210 H2218 0.930 . S
C2211 C2210 1.394 . S
C2211 C2212 1.383 . S
C2211 H2219 0.929 . S
C2212 C2211 1.383 . S
C2212 C2213 1.377 . S
C2213 H2197 0.930 . S
C2213 C2212 1.377 . S
C2213 C2214 1.379 . S
C2214 H2198 0.931 . S
C2214 C2208 1.383 . S
C2214 C2213 1.379 . S
H2215 C2209 0.959 . S
H2216 C2209 0.961 . S
H2217 C2209 0.960 . S
H2218 C2210 0.930 . S
H2219 C2211 0.929 . S
H2220 C2228 0.929 . S
H2221 C2230 0.930 . S
H2222 C2232 0.930 . S
H2223 C2235 0.929 . S
H2224 C2238 0.930 . S
H2225 C2240 0.960 . S
H2226 C2240 0.960 . S
H2227 C2240 0.960 . S
C2228 H2220 0.929 . S
C2228 C2229 1.377 . S
C2228 C2230 1.384 . S
C2229 C2228 1.377 . S
C2229 C2235 1.390 . S
C2230 H2221 0.930 . S
C2230 C2228 1.384 . S
C2230 C2231 1.372 . S
C2231 C2230 1.372 . S
C2231 C2232 1.400 . S
C2231 C2236 1.490 . S
C2232 H2222 0.930 . S
C2232 C2231 1.400 . S
C2232 C2235 1.386 . S
H2233 C2249 0.930 . S
H2234 C2250 0.931 . S
C2235 H2223 0.929 . S
C2235 C2229 1.390 . S
C2235 C2232 1.386 . S
C2236 C2231 1.490 . S
C2236 C2238 1.395 . S
C2236 C2239 1.403 . S
H2237 C2243 0.930 . S
C2238 H2224 0.930 . S
C2238 C2236 1.395 . S
C2238 C2241 1.403 . S
C2239 C2236 1.403 . S
C2239 C2240 1.524 . S
C2239 C2243 1.400 . S
C2240 H2225 0.960 . S
C2240 H2226 0.960 . S
C2240 H2227 0.960 . S
C2240 C2239 1.524 . S
C2241 C2238 1.403 . S
C2241 C2242 1.392 . S
C2241 C2245 1.495 . S
C2242 C2241 1.392 . S
C2242 C2243 1.385 . S
C2242 C2244 1.478 . S
C2243 H2237 0.930 . S
C2243 C2239 1.400 . S
C2243 C2242 1.385 . S
C2244 C2242 1.478 . S
C2244 C2246 1.381 . S
C2244 C2250 1.383 . S
C2245 C2241 1.495 . S
C2245 H2251 0.959 . S
C2245 H2252 0.961 . S
C2245 H2253 0.960 . S
C2246 C2244 1.381 . S
C2246 C2247 1.394 . S
C2246 H2254 0.930 . S
C2247 C2246 1.394 . S
C2247 C2248 1.383 . S
C2247 H2255 0.929 . S
C2248 C2247 1.383 . S
C2248 C2249 1.377 . S
C2249 H2233 0.930 . S
C2249 C2248 1.377 . S
C2249 C2250 1.379 . S
C2250 H2234 0.931 . S
C2250 C2244 1.383 . S
C2250 C2249 1.379 . S
H2251 C2245 0.959 . S
H2252 C2245 0.961 . S
H2253 C2245 0.960 . S
H2254 C2246 0.930 . S
H2255 C2247 0.929 . S
H2256 C2264 0.929 . S
H2257 C2266 0.930 . S
H2258 C2268 0.930 . S
H2259 C2271 0.929 . S
H2260 C2274 0.930 . S
H2261 C2276 0.960 . S
H2262 C2276 0.960 . S
H2263 C2276 0.960 . S
C2264 H2256 0.929 . S
C2264 C2265 1.377 . S
C2264 C2266 1.384 . S
C2265 C2264 1.377 . S
C2265 C2271 1.390 . S
C2266 H2257 0.930 . S
C2266 C2264 1.384 . S
C2266 C2267 1.372 . S
C2267 C2266 1.372 . S
C2267 C2268 1.400 . S
C2267 C2272 1.490 . S
C2268 H2258 0.930 . S
C2268 C2267 1.400 . S
C2268 C2271 1.386 . S
H2269 C2285 0.930 . S
H2270 C2286 0.931 . S
C2271 H2259 0.929 . S
C2271 C2265 1.390 . S
C2271 C2268 1.386 . S
C2272 C2267 1.490 . S
C2272 C2274 1.395 . S
C2272 C2275 1.403 . S
H2273 C2279 0.930 . S
C2274 H2260 0.930 . S
C2274 C2272 1.395 . S
C2274 C2277 1.403 . S
C2275 C2272 1.403 . S
C2275 C2276 1.524 . S
C2275 C2279 1.400 . S
C2276 H2261 0.960 . S
C2276 H2262 0.960 . S
C2276 H2263 0.960 . S
C2276 C2275 1.524 . S
C2277 C2274 1.403 . S
C2277 C2278 1.392 . S
C2277 C2281 1.495 . S
C2278 C2277 1.392 . S
C2278 C2279 1.385 . S
C2278 C2280 1.478 . S
C2279 H2273 0.930 . S
C2279 C2275 1.400 . S
C2279 C2278 1.385 . S
C2280 C2278 1.478 . S
C2280 C2282 1.381 . S
C2280 C2286 1.383 . S
C2281 C2277 1.495 . S
C2281 H2287 0.959 . S
C2281 H2288 0.961 . S
C2281 H2289 0.960 . S
C2282 C2280 1.381 . S
C2282 C2283 1.394 . S
C2282 H2290 0.930 . S
C2283 C2282 1.394 . S
C2283 C2284 1.383 . S
C2283 H2291 0.929 . S
C2284 C2283 1.383 . S
C2284 C2285 1.377 . S
C2285 H2269 0.930 . S
C2285 C2284 1.377 . S
C2285 C2286 1.379 . S
C2286 H2270 0.931 . S
C2286 C2280 1.383 . S
C2286 C2285 1.379 . S
H2287 C2281 0.959 . S
H2288 C2281 0.961 . S
H2289 C2281 0.960 . S
H2290 C2282 0.930 . S
H2291 C2283 0.929 . S
H2292 C2300 0.929 . S
H2293 C2302 0.930 . S
H2294 C2304 0.930 . S
H2295 C2307 0.929 . S
H2296 C2310 0.930 . S
H2297 C2312 0.960 . S
H2298 C2312 0.960 . S
H2299 C2312 0.960 . S
C2300 H2292 0.929 . S
C2300 C2301 1.377 . S
C2300 C2302 1.384 . S
C2301 C2300 1.377 . S
C2301 C2307 1.390 . S
C2302 H2293 0.930 . S
C2302 C2300 1.384 . S
C2302 C2303 1.372 . S
C2303 C2302 1.372 . S
C2303 C2304 1.400 . S
C2303 C2308 1.490 . S
C2304 H2294 0.930 . S
C2304 C2303 1.400 . S
C2304 C2307 1.386 . S
H2305 C2321 0.930 . S
H2306 C2322 0.931 . S
C2307 H2295 0.929 . S
C2307 C2301 1.390 . S
C2307 C2304 1.386 . S
C2308 C2303 1.490 . S
C2308 C2310 1.395 . S
C2308 C2311 1.403 . S
H2309 C2315 0.930 . S
C2310 H2296 0.930 . S
C2310 C2308 1.395 . S
C2310 C2313 1.403 . S
C2311 C2308 1.403 . S
C2311 C2312 1.524 . S
C2311 C2315 1.400 . S
C2312 H2297 0.960 . S
C2312 H2298 0.960 . S
C2312 H2299 0.960 . S
C2312 C2311 1.524 . S
C2313 C2310 1.403 . S
C2313 C2314 1.392 . S
C2313 C2317 1.495 . S
C2314 C2313 1.392 . S
C2314 C2315 1.385 . S
C2314 C2316 1.478 . S
C2315 H2309 0.930 . S
C2315 C2311 1.400 . S
C2315 C2314 1.385 . S
C2316 C2314 1.478 . S
C2316 C2318 1.381 . S
C2316 C2322 1.383 . S
C2317 C2313 1.495 . S
C2317 H2323 0.959 . S
C2317 H2324 0.961 . S
C2317 H2325 0.960 . S
C2318 C2316 1.381 . S
C2318 C2319 1.394 . S
C2318 H2326 0.930 . S
C2319 C2318 1.394 . S
C2319 C2320 1.383 . S
C2319 H2327 0.929 . S
C2320 C2319 1.383 . S
C2320 C2321 1.377 . S
C2321 H2305 0.930 . S
C2321 C2320 1.377 . S
C2321 C2322 1.379 . S
C2322 H2306 0.931 . S
C2322 C2316 1.383 . S
C2322 C2321 1.379 . S
H2323 C2317 0.959 . S
H2324 C2317 0.961 . S
H2325 C2317 0.960 . S
H2326 C2318 0.930 . S
H2327 C2319 0.929 . S
H2328 C2336 0.929 . S
H2329 C2338 0.930 . S
H2330 C2340 0.930 . S
H2331 C2343 0.929 . S
H2332 C2346 0.930 . S
H2333 C2348 0.960 . S
H2334 C2348 0.960 . S
H2335 C2348 0.960 . S
C2336 H2328 0.929 . S
C2336 C2337 1.377 . S
C2336 C2338 1.384 . S
C2337 C2336 1.377 . S
C2337 C2343 1.390 . S
C2338 H2329 0.930 . S
C2338 C2336 1.384 . S
C2338 C2339 1.372 . S
C2339 C2338 1.372 . S
C2339 C2340 1.400 . S
C2339 C2344 1.490 . S
C2340 H2330 0.930 . S
C2340 C2339 1.400 . S
C2340 C2343 1.386 . S
H2341 C2357 0.930 . S
H2342 C2358 0.931 . S
C2343 H2331 0.929 . S
C2343 C2337 1.390 . S
C2343 C2340 1.386 . S
C2344 C2339 1.490 . S
C2344 C2346 1.395 . S
C2344 C2347 1.403 . S
H2345 C2351 0.930 . S
C2346 H2332 0.930 . S
C2346 C2344 1.395 . S
C2346 C2349 1.403 . S
C2347 C2344 1.403 . S
C2347 C2348 1.524 . S
C2347 C2351 1.400 . S
C2348 H2333 0.960 . S
C2348 H2334 0.960 . S
C2348 H2335 0.960 . S
C2348 C2347 1.524 . S
C2349 C2346 1.403 . S
C2349 C2350 1.392 . S
C2349 C2353 1.495 . S
C2350 C2349 1.392 . S
C2350 C2351 1.385 . S
C2350 C2352 1.478 . S
C2351 H2345 0.930 . S
C2351 C2347 1.400 . S
C2351 C2350 1.385 . S
C2352 C2350 1.478 . S
C2352 C2354 1.381 . S
C2352 C2358 1.383 . S
C2353 C2349 1.495 . S
C2353 H2359 0.959 . S
C2353 H2360 0.961 . S
C2353 H2361 0.960 . S
C2354 C2352 1.381 . S
C2354 C2355 1.394 . S
C2354 H2362 0.930 . S
C2355 C2354 1.394 . S
C2355 C2356 1.383 . S
C2355 H2363 0.929 . S
C2356 C2355 1.383 . S
C2356 C2357 1.377 . S
C2357 H2341 0.930 . S
C2357 C2356 1.377 . S
C2357 C2358 1.379 . S
C2358 H2342 0.931 . S
C2358 C2352 1.383 . S
C2358 C2357 1.379 . S
H2359 C2353 0.959 . S
H2360 C2353 0.961 . S
H2361 C2353 0.960 . S
H2362 C2354 0.930 . S
H2363 C2355 0.929 . S
H2364 C2372 0.929 . S
H2365 C2374 0.930 . S
H2366 C2376 0.930 . S
H2367 C2379 0.929 . S
H2368 C2382 0.930 . S
H2369 C2384 0.960 . S
H2370 C2384 0.960 . S
H2371 C2384 0.960 . S
C2372 H2364 0.929 . S
C2372 C2373 1.377 . S
C2372 C2374 1.384 . S
C2373 C2372 1.377 . S
C2373 C2379 1.390 . S
C2374 H2365 0.930 . S
C2374 C2372 1.384 . S
C2374 C2375 1.372 . S
C2375 C2374 1.372 . S
C2375 C2376 1.400 . S
C2375 C2380 1.490 . S
C2376 H2366 0.930 . S
C2376 C2375 1.400 . S
C2376 C2379 1.386 . S
H2377 C2393 0.930 . S
H2378 C2394 0.931 . S
C2379 H2367 0.929 . S
C2379 C2373 1.390 . S
C2379 C2376 1.386 . S
C2380 C2375 1.490 . S
C2380 C2382 1.395 . S
C2380 C2383 1.403 . S
H2381 C2387 0.930 . S
C2382 H2368 0.930 . S
C2382 C2380 1.395 . S
C2382 C2385 1.403 . S
C2383 C2380 1.403 . S
C2383 C2384 1.524 . S
C2383 C2387 1.400 . S
C2384 H2369 0.960 . S
C2384 H2370 0.960 . S
C2384 H2371 0.960 . S
C2384 C2383 1.524 . S
C2385 C2382 1.403 . S
C2385 C2386 1.392 . S
C2385 C2389 1.495 . S
C2386 C2385 1.392 . S
C2386 C2387 1.385 . S
C2386 C2388 1.478 . S
C2387 H2381 0.930 . S
C2387 C2383 1.400 . S
C2387 C2386 1.385 . S
C2388 C2386 1.478 . S
C2388 C2390 1.381 . S
C2388 C2394 1.383 . S
C2389 C2385 1.495 . S
C2389 H2395 0.959 . S
C2389 H2396 0.961 . S
C2389 H2397 0.960 . S
C2390 C2388 1.381 . S
C2390 C2391 1.394 . S
C2390 H2398 0.930 . S
C2391 C2390 1.394 . S
C2391 C2392 1.383 . S
C2391 H2399 0.929 . S
C2392 C2391 1.383 . S
C2392 C2393 1.377 . S
C2393 H2377 0.930 . S
C2393 C2392 1.377 . S
C2393 C2394 1.379 . S
C2394 H2378 0.931 . S
C2394 C2388 1.383 . S
C2394 C2393 1.379 . S
H2395 C2389 0.959 . S
H2396 C2389 0.961 . S
H2397 C2389 0.960 . S
H2398 C2390 0.930 . S
H2399 C2391 0.929 . S
H2400 C2408 0.929 . S
H2401 C2410 0.930 . S
H2402 C2412 0.930 . S
H2403 C2415 0.929 . S
H2404 C2418 0.930 . S
H2405 C2420 0.960 . S
H2406 C2420 0.960 . S
H2407 C2420 0.960 . S
C2408 H2400 0.929 . S
C2408 C2409 1.377 . S
C2408 C2410 1.384 . S
C2409 C2408 1.377 . S
C2409 C2415 1.390 . S
C2410 H2401 0.930 . S
C2410 C2408 1.384 . S
C2410 C2411 1.372 . S
C2411 C2410 1.372 . S
C2411 C2412 1.400 . S
C2411 C2416 1.490 . S
C2412 H2402 0.930 . S
C2412 C2411 1.400 . S
C2412 C2415 1.386 . S
H2413 C2429 0.930 . S
H2414 C2430 0.931 . S
C2415 H2403 0.929 . S
C2415 C2409 1.390 . S
C2415 C2412 1.386 . S
C2416 C2411 1.490 . S
C2416 C2418 1.395 . S
C2416 C2419 1.403 . S
H2417 C2423 0.930 . S
C2418 H2404 0.930 . S
C2418 C2416 1.395 . S
C2418 C2421 1.403 . S
C2419 C2416 1.403 . S
C2419 C2420 1.524 . S
C2419 C2423 1.400 . S
C2420 H2405 0.960 . S
C2420 H2406 0.960 . S
C2420 H2407 0.960 . S
C2420 C2419 1.524 . S
C2421 C2418 1.403 . S
C2421 C2422 1.392 . S
C2421 C2425 1.495 . S
C2422 C2421 1.392 . S
C2422 C2423 1.385 . S
C2422 C2424 1.478 . S
C2423 H2417 0.930 . S
C2423 C2419 1.400 . S
C2423 C2422 1.385 . S
C2424 C2422 1.478 . S
C2424 C2426 1.381 . S
C2424 C2430 1.383 . S
C2425 C2421 1.495 . S
C2425 H2431 0.959 . S
C2425 H2432 0.961 . S
C2425 H2433 0.960 . S
C2426 C2424 1.381 . S
C2426 C2427 1.394 . S
C2426 H2434 0.930 . S
C2427 C2426 1.394 . S
C2427 C2428 1.383 . S
C2427 H2435 0.929 . S
C2428 C2427 1.383 . S
C2428 C2429 1.377 . S
C2429 H2413 0.930 . S
C2429 C2428 1.377 . S
C2429 C2430 1.379 . S
C2430 H2414 0.931 . S
C2430 C2424 1.383 . S
C2430 C2429 1.379 . S
H2431 C2425 0.959 . S
H2432 C2425 0.961 . S
H2433 C2425 0.960 . S
H2434 C2426 0.930 . S
H2435 C2427 0.929 . S
H2436 C2444 0.929 . S
H2437 C2446 0.930 . S
H2438 C2448 0.930 . S
H2439 C2451 0.929 . S
H2440 C2454 0.930 . S
H2441 C2456 0.960 . S
H2442 C2456 0.960 . S
H2443 C2456 0.960 . S
C2444 H2436 0.929 . S
C2444 C2445 1.377 . S
C2444 C2446 1.384 . S
C2445 C2444 1.377 . S
C2445 C2451 1.390 . S
C2446 H2437 0.930 . S
C2446 C2444 1.384 . S
C2446 C2447 1.372 . S
C2447 C2446 1.372 . S
C2447 C2448 1.400 . S
C2447 C2452 1.490 . S
C2448 H2438 0.930 . S
C2448 C2447 1.400 . S
C2448 C2451 1.386 . S
H2449 C2465 0.930 . S
H2450 C2466 0.931 . S
C2451 H2439 0.929 . S
C2451 C2445 1.390 . S
C2451 C2448 1.386 . S
C2452 C2447 1.490 . S
C2452 C2454 1.395 . S
C2452 C2455 1.403 . S
H2453 C2459 0.930 . S
C2454 H2440 0.930 . S
C2454 C2452 1.395 . S
C2454 C2457 1.403 . S
C2455 C2452 1.403 . S
C2455 C2456 1.524 . S
C2455 C2459 1.400 . S
C2456 H2441 0.960 . S
C2456 H2442 0.960 . S
C2456 H2443 0.960 . S
C2456 C2455 1.524 . S
C2457 C2454 1.403 . S
C2457 C2458 1.392 . S
C2457 C2461 1.495 . S
C2458 C2457 1.392 . S
C2458 C2459 1.385 . S
C2458 C2460 1.478 . S
C2459 H2453 0.930 . S
C2459 C2455 1.400 . S
C2459 C2458 1.385 . S
C2460 C2458 1.478 . S
C2460 C2462 1.381 . S
C2460 C2466 1.383 . S
C2461 C2457 1.495 . S
C2461 H2467 0.959 . S
C2461 H2468 0.961 . S
C2461 H2469 0.960 . S
C2462 C2460 1.381 . S
C2462 C2463 1.394 . S
C2462 H2470 0.930 . S
C2463 C2462 1.394 . S
C2463 C2464 1.383 . S
C2463 H2471 0.929 . S
C2464 C2463 1.383 . S
C2464 C2465 1.377 . S
C2465 H2449 0.930 . S
C2465 C2464 1.377 . S
C2465 C2466 1.379 . S
C2466 H2450 0.931 . S
C2466 C2460 1.383 . S
C2466 C2465 1.379 . S
H2467 C2461 0.959 . S
H2468 C2461 0.961 . S
H2469 C2461 0.960 . S
H2470 C2462 0.930 . S
H2471 C2463 0.929 . S
H2472 C2480 0.929 . S
H2473 C2482 0.930 . S
H2474 C2484 0.930 . S
H2475 C2487 0.929 . S
H2476 C2490 0.930 . S
H2477 C2492 0.960 . S
H2478 C2492 0.960 . S
H2479 C2492 0.960 . S
C2480 H2472 0.929 . S
C2480 C2481 1.377 . S
C2480 C2482 1.384 . S
C2481 C2480 1.377 . S
C2481 C2487 1.390 . S
C2482 H2473 0.930 . S
C2482 C2480 1.384 . S
C2482 C2483 1.372 . S
C2483 C2482 1.372 . S
C2483 C2484 1.400 . S
C2483 C2488 1.490 . S
C2484 H2474 0.930 . S
C2484 C2483 1.400 . S
C2484 C2487 1.386 . S
H2485 C2501 0.930 . S
H2486 C2502 0.931 . S
C2487 H2475 0.929 . S
C2487 C2481 1.390 . S
C2487 C2484 1.386 . S
C2488 C2483 1.490 . S
C2488 C2490 1.395 . S
C2488 C2491 1.403 . S
H2489 C2495 0.930 . S
C2490 H2476 0.930 . S
C2490 C2488 1.395 . S
C2490 C2493 1.403 . S
C2491 C2488 1.403 . S
C2491 C2492 1.524 . S
C2491 C2495 1.400 . S
C2492 H2477 0.960 . S
C2492 H2478 0.960 . S
C2492 H2479 0.960 . S
C2492 C2491 1.524 . S
C2493 C2490 1.403 . S
C2493 C2494 1.392 . S
C2493 C2497 1.495 . S
C2494 C2493 1.392 . S
C2494 C2495 1.385 . S
C2494 C2496 1.478 . S
C2495 H2489 0.930 . S
C2495 C2491 1.400 . S
C2495 C2494 1.385 . S
C2496 C2494 1.478 . S
C2496 C2498 1.381 . S
C2496 C2502 1.383 . S
C2497 C2493 1.495 . S
C2497 H2503 0.959 . S
C2497 H2504 0.961 . S
C2497 H2505 0.960 . S
C2498 C2496 1.381 . S
C2498 C2499 1.394 . S
C2498 H2506 0.930 . S
C2499 C2498 1.394 . S
C2499 C2500 1.383 . S
C2499 H2507 0.929 . S
C2500 C2499 1.383 . S
C2500 C2501 1.377 . S
C2501 H2485 0.930 . S
C2501 C2500 1.377 . S
C2501 C2502 1.379 . S
C2502 H2486 0.931 . S
C2502 C2496 1.383 . S
C2502 C2501 1.379 . S
H2503 C2497 0.959 . S
H2504 C2497 0.961 . S
H2505 C2497 0.960 . S
H2506 C2498 0.930 . S
H2507 C2499 0.929 . S
H2508 C2516 0.929 . S
H2509 C2518 0.930 . S
H2510 C2520 0.930 . S
H2511 C2523 0.929 . S
H2512 C2526 0.930 . S
H2513 C2528 0.960 . S
H2514 C2528 0.960 . S
H2515 C2528 0.960 . S
C2516 H2508 0.929 . S
C2516 C2517 1.377 . S
C2516 C2518 1.384 . S
C2517 C2516 1.377 . S
C2517 C2523 1.390 . S
C2518 H2509 0.930 . S
C2518 C2516 1.384 . S
C2518 C2519 1.372 . S
C2519 C2518 1.372 . S
C2519 C2520 1.400 . S
C2519 C2524 1.490 . S
C2520 H2510 0.930 . S
C2520 C2519 1.400 . S
C2520 C2523 1.386 . S
H2521 C2537 0.930 . S
H2522 C2538 0.931 . S
C2523 H2511 0.929 . S
C2523 C2517 1.390 . S
C2523 C2520 1.386 . S
C2524 C2519 1.490 . S
C2524 C2526 1.395 . S
C2524 C2527 1.403 . S
H2525 C2531 0.930 . S
C2526 H2512 0.930 . S
C2526 C2524 1.395 . S
C2526 C2529 1.403 . S
C2527 C2524 1.403 . S
C2527 C2528 1.524 . S
C2527 C2531 1.400 . S
C2528 H2513 0.960 . S
C2528 H2514 0.960 . S
C2528 H2515 0.960 . S
C2528 C2527 1.524 . S
C2529 C2526 1.403 . S
C2529 C2530 1.392 . S
C2529 C2533 1.495 . S
C2530 C2529 1.392 . S
C2530 C2531 1.385 . S
C2530 C2532 1.478 . S
C2531 H2525 0.930 . S
C2531 C2527 1.400 . S
C2531 C2530 1.385 . S
C2532 C2530 1.478 . S
C2532 C2534 1.381 . S
C2532 C2538 1.383 . S
C2533 C2529 1.495 . S
C2533 H2539 0.959 . S
C2533 H2540 0.961 . S
C2533 H2541 0.960 . S
C2534 C2532 1.381 . S
C2534 C2535 1.394 . S
C2534 H2542 0.930 . S
C2535 C2534 1.394 . S
C2535 C2536 1.383 . S
C2535 H2543 0.929 . S
C2536 C2535 1.383 . S
C2536 C2537 1.377 . S
C2537 H2521 0.930 . S
C2537 C2536 1.377 . S
C2537 C2538 1.379 . S
C2538 H2522 0.931 . S
C2538 C2532 1.383 . S
C2538 C2537 1.379 . S
H2539 C2533 0.959 . S
H2540 C2533 0.961 . S
H2541 C2533 0.960 . S
H2542 C2534 0.930 . S
H2543 C2535 0.929 . S
H2544 C2552 0.929 . S
H2545 C2554 0.930 . S
H2546 C2556 0.930 . S
H2547 C2559 0.929 . S
H2548 C2562 0.930 . S
H2549 C2564 0.960 . S
H2550 C2564 0.960 . S
H2551 C2564 0.960 . S
C2552 H2544 0.929 . S
C2552 C2553 1.377 . S
C2552 C2554 1.384 . S
C2553 C2552 1.377 . S
C2553 C2559 1.390 . S
C2554 H2545 0.930 . S
C2554 C2552 1.384 . S
C2554 C2555 1.372 . S
C2555 C2554 1.372 . S
C2555 C2556 1.400 . S
C2555 C2560 1.490 . S
C2556 H2546 0.930 . S
C2556 C2555 1.400 . S
C2556 C2559 1.386 . S
H2557 C2573 0.930 . S
H2558 C2574 0.931 . S
C2559 H2547 0.929 . S
C2559 C2553 1.390 . S
C2559 C2556 1.386 . S
C2560 C2555 1.490 . S
C2560 C2562 1.395 . S
C2560 C2563 1.403 . S
H2561 C2567 0.930 . S
C2562 H2548 0.930 . S
C2562 C2560 1.395 . S
C2562 C2565 1.403 . S
C2563 C2560 1.403 . S
C2563 C2564 1.524 . S
C2563 C2567 1.400 . S
C2564 H2549 0.960 . S
C2564 H2550 0.960 . S
C2564 H2551 0.960 . S
C2564 C2563 1.524 . S
C2565 C2562 1.403 . S
C2565 C2566 1.392 . S
C2565 C2569 1.495 . S
C2566 C2565 1.392 . S
C2566 C2567 1.385 . S
C2566 C2568 1.478 . S
C2567 H2561 0.930 . S
C2567 C2563 1.400 . S
C2567 C2566 1.385 . S
C2568 C2566 1.478 . S
C2568 C2570 1.381 . S
C2568 C2574 1.383 . S
C2569 C2565 1.495 . S
C2569 H2575 0.959 . S
C2569 H2576 0.961 . S
C2569 H2577 0.960 . S
C2570 C2568 1.381 . S
C2570 C2571 1.394 . S
C2570 H2578 0.930 . S
C2571 C2570 1.394 . S
C2571 C2572 1.383 . S
C2571 H2579 0.929 . S
C2572 C2571 1.383 . S
C2572 C2573 1.377 . S
C2573 H2557 0.930 . S
C2573 C2572 1.377 . S
C2573 C2574 1.379 . S
C2574 H2558 0.931 . S
C2574 C2568 1.383 . S
C2574 C2573 1.379 . S
H2575 C2569 0.959 . S
H2576 C2569 0.961 . S
H2577 C2569 0.960 . S
H2578 C2570 0.930 . S
H2579 C2571 0.929 . S
H2580 C2588 0.929 . S
H2581 C2590 0.930 . S
H2582 C2592 0.930 . S
H2583 C2595 0.929 . S
H2584 C2598 0.930 . S
H2585 C2600 0.960 . S
H2586 C2600 0.960 . S
H2587 C2600 0.960 . S
C2588 H2580 0.929 . S
C2588 C2589 1.377 . S
C2588 C2590 1.384 . S
C2589 C2588 1.377 . S
C2589 C2595 1.390 . S
C2590 H2581 0.930 . S
C2590 C2588 1.384 . S
C2590 C2591 1.372 . S
C2591 C2590 1.372 . S
C2591 C2592 1.400 . S
C2591 C2596 1.490 . S
C2592 H2582 0.930 . S
C2592 C2591 1.400 . S
C2592 C2595 1.386 . S
H2593 C2609 0.930 . S
H2594 C2610 0.931 . S
C2595 H2583 0.929 . S
C2595 C2589 1.390 . S
C2595 C2592 1.386 . S
C2596 C2591 1.490 . S
C2596 C2598 1.395 . S
C2596 C2599 1.403 . S
H2597 C2603 0.930 . S
C2598 H2584 0.930 . S
C2598 C2596 1.395 . S
C2598 C2601 1.403 . S
C2599 C2596 1.403 . S
C2599 C2600 1.524 . S
C2599 C2603 1.400 . S
C2600 H2585 0.960 . S
C2600 H2586 0.960 . S
C2600 H2587 0.960 . S
C2600 C2599 1.524 . S
C2601 C2598 1.403 . S
C2601 C2602 1.392 . S
C2601 C2605 1.495 . S
C2602 C2601 1.392 . S
C2602 C2603 1.385 . S
C2602 C2604 1.478 . S
C2603 H2597 0.930 . S
C2603 C2599 1.400 . S
C2603 C2602 1.385 . S
C2604 C2602 1.478 . S
C2604 C2606 1.381 . S
C2604 C2610 1.383 . S
C2605 C2601 1.495 . S
C2605 H2611 0.959 . S
C2605 H2612 0.961 . S
C2605 H2613 0.960 . S
C2606 C2604 1.381 . S
C2606 C2607 1.394 . S
C2606 H2614 0.930 . S
C2607 C2606 1.394 . S
C2607 C2608 1.383 . S
C2607 H2615 0.929 . S
C2608 C2607 1.383 . S
C2608 C2609 1.377 . S
C2609 H2593 0.930 . S
C2609 C2608 1.377 . S
C2609 C2610 1.379 . S
C2610 H2594 0.931 . S
C2610 C2604 1.383 . S
C2610 C2609 1.379 . S
H2611 C2605 0.959 . S
H2612 C2605 0.961 . S
H2613 C2605 0.960 . S
H2614 C2606 0.930 . S
H2615 C2607 0.929 . S
H2616 C2624 0.929 . S
H2617 C2626 0.930 . S
H2618 C2628 0.930 . S
H2619 C2631 0.929 . S
H2620 C2634 0.930 . S
H2621 C2636 0.960 . S
H2622 C2636 0.960 . S
H2623 C2636 0.960 . S
C2624 H2616 0.929 . S
C2624 C2625 1.377 . S
C2624 C2626 1.384 . S
C2625 C2624 1.377 . S
C2625 C2631 1.390 . S
C2626 H2617 0.930 . S
C2626 C2624 1.384 . S
C2626 C2627 1.372 . S
C2627 C2626 1.372 . S
C2627 C2628 1.400 . S
C2627 C2632 1.490 . S
C2628 H2618 0.930 . S
C2628 C2627 1.400 . S
C2628 C2631 1.386 . S
H2629 C2645 0.930 . S
H2630 C2646 0.931 . S
C2631 H2619 0.929 . S
C2631 C2625 1.390 . S
C2631 C2628 1.386 . S
C2632 C2627 1.490 . S
C2632 C2634 1.395 . S
C2632 C2635 1.403 . S
H2633 C2639 0.930 . S
C2634 H2620 0.930 . S
C2634 C2632 1.395 . S
C2634 C2637 1.403 . S
C2635 C2632 1.403 . S
C2635 C2636 1.524 . S
C2635 C2639 1.400 . S
C2636 H2621 0.960 . S
C2636 H2622 0.960 . S
C2636 H2623 0.960 . S
C2636 C2635 1.524 . S
C2637 C2634 1.403 . S
C2637 C2638 1.392 . S
C2637 C2641 1.495 . S
C2638 C2637 1.392 . S
C2638 C2639 1.385 . S
C2638 C2640 1.478 . S
C2639 H2633 0.930 . S
C2639 C2635 1.400 . S
C2639 C2638 1.385 . S
C2640 C2638 1.478 . S
C2640 C2642 1.381 . S
C2640 C2646 1.383 . S
C2641 C2637 1.495 . S
C2641 H2647 0.959 . S
C2641 H2648 0.961 . S
C2641 H2649 0.960 . S
C2642 C2640 1.381 . S
C2642 C2643 1.394 . S
C2642 H2650 0.930 . S
C2643 C2642 1.394 . S
C2643 C2644 1.383 . S
C2643 H2651 0.929 . S
C2644 C2643 1.383 . S
C2644 C2645 1.377 . S
C2645 H2629 0.930 . S
C2645 C2644 1.377 . S
C2645 C2646 1.379 . S
C2646 H2630 0.931 . S
C2646 C2640 1.383 . S
C2646 C2645 1.379 . S
H2647 C2641 0.959 . S
H2648 C2641 0.961 . S
H2649 C2641 0.960 . S
H2650 C2642 0.930 . S
H2651 C2643 0.929 . S
H2652 C2660 0.929 . S
H2653 C2662 0.930 . S
H2654 C2664 0.930 . S
H2655 C2667 0.929 . S
H2656 C2670 0.930 . S
H2657 C2672 0.960 . S
H2658 C2672 0.960 . S
H2659 C2672 0.960 . S
C2660 H2652 0.929 . S
C2660 C2661 1.377 . S
C2660 C2662 1.384 . S
C2661 C2660 1.377 . S
C2661 C2667 1.390 . S
C2662 H2653 0.930 . S
C2662 C2660 1.384 . S
C2662 C2663 1.372 . S
C2663 C2662 1.372 . S
C2663 C2664 1.400 . S
C2663 C2668 1.490 . S
C2664 H2654 0.930 . S
C2664 C2663 1.400 . S
C2664 C2667 1.386 . S
H2665 C2681 0.930 . S
H2666 C2682 0.931 . S
C2667 H2655 0.929 . S
C2667 C2661 1.390 . S
C2667 C2664 1.386 . S
C2668 C2663 1.490 . S
C2668 C2670 1.395 . S
C2668 C2671 1.403 . S
H2669 C2675 0.930 . S
C2670 H2656 0.930 . S
C2670 C2668 1.395 . S
C2670 C2673 1.403 . S
C2671 C2668 1.403 . S
C2671 C2672 1.524 . S
C2671 C2675 1.400 . S
C2672 H2657 0.960 . S
C2672 H2658 0.960 . S
C2672 H2659 0.960 . S
C2672 C2671 1.524 . S
C2673 C2670 1.403 . S
C2673 C2674 1.392 . S
C2673 C2677 1.495 . S
C2674 C2673 1.392 . S
C2674 C2675 1.385 . S
C2674 C2676 1.478 . S
C2675 H2669 0.930 . S
C2675 C2671 1.400 . S
C2675 C2674 1.385 . S
C2676 C2674 1.478 . S
C2676 C2678 1.381 . S
C2676 C2682 1.383 . S
C2677 C2673 1.495 . S
C2677 H2683 0.959 . S
C2677 H2684 0.961 . S
C2677 H2685 0.960 . S
C2678 C2676 1.381 . S
C2678 C2679 1.394 . S
C2678 H2686 0.930 . S
C2679 C2678 1.394 . S
C2679 C2680 1.383 . S
C2679 H2687 0.929 . S
C2680 C2679 1.383 . S
C2680 C2681 1.377 . S
C2681 H2665 0.930 . S
C2681 C2680 1.377 . S
C2681 C2682 1.379 . S
C2682 H2666 0.931 . S
C2682 C2676 1.383 . S
C2682 C2681 1.379 . S
H2683 C2677 0.959 . S
H2684 C2677 0.961 . S
H2685 C2677 0.960 . S
H2686 C2678 0.930 . S
H2687 C2679 0.929 . S
H2688 C2696 0.929 . S
H2689 C2698 0.930 . S
H2690 C2700 0.930 . S
H2691 C2703 0.929 . S
H2692 C2706 0.930 . S
H2693 C2708 0.960 . S
H2694 C2708 0.960 . S
H2695 C2708 0.960 . S
C2696 H2688 0.929 . S
C2696 C2697 1.377 . S
C2696 C2698 1.384 . S
C2697 C2696 1.377 . S
C2697 C2703 1.390 . S
C2698 H2689 0.930 . S
C2698 C2696 1.384 . S
C2698 C2699 1.372 . S
C2699 C2698 1.372 . S
C2699 C2700 1.400 . S
C2699 C2704 1.490 . S
C2700 H2690 0.930 . S
C2700 C2699 1.400 . S
C2700 C2703 1.386 . S
H2701 C2717 0.930 . S
H2702 C2718 0.931 . S
C2703 H2691 0.929 . S
C2703 C2697 1.390 . S
C2703 C2700 1.386 . S
C2704 C2699 1.490 . S
C2704 C2706 1.395 . S
C2704 C2707 1.403 . S
H2705 C2711 0.930 . S
C2706 H2692 0.930 . S
C2706 C2704 1.395 . S
C2706 C2709 1.403 . S
C2707 C2704 1.403 . S
C2707 C2708 1.524 . S
C2707 C2711 1.400 . S
C2708 H2693 0.960 . S
C2708 H2694 0.960 . S
C2708 H2695 0.960 . S
C2708 C2707 1.524 . S
C2709 C2706 1.403 . S
C2709 C2710 1.392 . S
C2709 C2713 1.495 . S
C2710 C2709 1.392 . S
C2710 C2711 1.385 . S
C2710 C2712 1.478 . S
C2711 H2705 0.930 . S
C2711 C2707 1.400 . S
C2711 C2710 1.385 . S
C2712 C2710 1.478 . S
C2712 C2714 1.381 . S
C2712 C2718 1.383 . S
C2713 C2709 1.495 . S
C2713 H2719 0.959 . S
C2713 H2720 0.961 . S
C2713 H2721 0.960 . S
C2714 C2712 1.381 . S
C2714 C2715 1.394 . S
C2714 H2722 0.930 . S
C2715 C2714 1.394 . S
C2715 C2716 1.383 . S
C2715 H2723 0.929 . S
C2716 C2715 1.383 . S
C2716 C2717 1.377 . S
C2717 H2701 0.930 . S
C2717 C2716 1.377 . S
C2717 C2718 1.379 . S
C2718 H2702 0.931 . S
C2718 C2712 1.383 . S
C2718 C2717 1.379 . S
H2719 C2713 0.959 . S
H2720 C2713 0.961 . S
H2721 C2713 0.960 . S
H2722 C2714 0.930 . S
H2723 C2715 0.929 . S
H2724 C2732 0.929 . S
H2725 C2734 0.930 . S
H2726 C2736 0.930 . S
H2727 C2739 0.929 . S
H2728 C2742 0.930 . S
H2729 C2744 0.960 . S
H2730 C2744 0.960 . S
H2731 C2744 0.960 . S
C2732 H2724 0.929 . S
C2732 C2733 1.377 . S
C2732 C2734 1.384 . S
C2733 C2732 1.377 . S
C2733 C2739 1.390 . S
C2734 H2725 0.930 . S
C2734 C2732 1.384 . S
C2734 C2735 1.372 . S
C2735 C2734 1.372 . S
C2735 C2736 1.400 . S
C2735 C2740 1.490 . S
C2736 H2726 0.930 . S
C2736 C2735 1.400 . S
C2736 C2739 1.386 . S
H2737 C2753 0.930 . S
H2738 C2754 0.931 . S
C2739 H2727 0.929 . S
C2739 C2733 1.390 . S
C2739 C2736 1.386 . S
C2740 C2735 1.490 . S
C2740 C2742 1.395 . S
C2740 C2743 1.403 . S
H2741 C2747 0.930 . S
C2742 H2728 0.930 . S
C2742 C2740 1.395 . S
C2742 C2745 1.403 . S
C2743 C2740 1.403 . S
C2743 C2744 1.524 . S
C2743 C2747 1.400 . S
C2744 H2729 0.960 . S
C2744 H2730 0.960 . S
C2744 H2731 0.960 . S
C2744 C2743 1.524 . S
C2745 C2742 1.403 . S
C2745 C2746 1.392 . S
C2745 C2749 1.495 . S
C2746 C2745 1.392 . S
C2746 C2747 1.385 . S
C2746 C2748 1.478 . S
C2747 H2741 0.930 . S
C2747 C2743 1.400 . S
C2747 C2746 1.385 . S
C2748 C2746 1.478 . S
C2748 C2750 1.381 . S
C2748 C2754 1.383 . S
C2749 C2745 1.495 . S
C2749 H2755 0.959 . S
C2749 H2756 0.961 . S
C2749 H2757 0.960 . S
C2750 C2748 1.381 . S
C2750 C2751 1.394 . S
C2750 H2758 0.930 . S
C2751 C2750 1.394 . S
C2751 C2752 1.383 . S
C2751 H2759 0.929 . S
C2752 C2751 1.383 . S
C2752 C2753 1.377 . S
C2753 H2737 0.930 . S
C2753 C2752 1.377 . S
C2753 C2754 1.379 . S
C2754 H2738 0.931 . S
C2754 C2748 1.383 . S
C2754 C2753 1.379 . S
H2755 C2749 0.959 . S
H2756 C2749 0.961 . S
H2757 C2749 0.960 . S
H2758 C2750 0.930 . S
H2759 C2751 0.929 . S
H2760 C2768 0.929 . S
H2761 C2770 0.930 . S
H2762 C2772 0.930 . S
H2763 C2775 0.929 . S
H2764 C2778 0.930 . S
H2765 C2780 0.960 . S
H2766 C2780 0.960 . S
H2767 C2780 0.960 . S
C2768 H2760 0.929 . S
C2768 C2769 1.377 . S
C2768 C2770 1.384 . S
C2769 C2768 1.377 . S
C2769 C2775 1.390 . S
C2770 H2761 0.930 . S
C2770 C2768 1.384 . S
C2770 C2771 1.372 . S
C2771 C2770 1.372 . S
C2771 C2772 1.400 . S
C2771 C2776 1.490 . S
C2772 H2762 0.930 . S
C2772 C2771 1.400 . S
C2772 C2775 1.386 . S
H2773 C2789 0.930 . S
H2774 C2790 0.931 . S
C2775 H2763 0.929 . S
C2775 C2769 1.390 . S
C2775 C2772 1.386 . S
C2776 C2771 1.490 . S
C2776 C2778 1.395 . S
C2776 C2779 1.403 . S
H2777 C2783 0.930 . S
C2778 H2764 0.930 . S
C2778 C2776 1.395 . S
C2778 C2781 1.403 . S
C2779 C2776 1.403 . S
C2779 C2780 1.524 . S
C2779 C2783 1.400 . S
C2780 H2765 0.960 . S
C2780 H2766 0.960 . S
C2780 H2767 0.960 . S
C2780 C2779 1.524 . S
C2781 C2778 1.403 . S
C2781 C2782 1.392 . S
C2781 C2785 1.495 . S
C2782 C2781 1.392 . S
C2782 C2783 1.385 . S
C2782 C2784 1.478 . S
C2783 H2777 0.930 . S
C2783 C2779 1.400 . S
C2783 C2782 1.385 . S
C2784 C2782 1.478 . S
C2784 C2786 1.381 . S
C2784 C2790 1.383 . S
C2785 C2781 1.495 . S
C2785 H2791 0.959 . S
C2785 H2792 0.961 . S
C2785 H2793 0.960 . S
C2786 C2784 1.381 . S
C2786 C2787 1.394 . S
C2786 H2794 0.930 . S
C2787 C2786 1.394 . S
C2787 C2788 1.383 . S
C2787 H2795 0.929 . S
C2788 C2787 1.383 . S
C2788 C2789 1.377 . S
C2789 H2773 0.930 . S
C2789 C2788 1.377 . S
C2789 C2790 1.379 . S
C2790 H2774 0.931 . S
C2790 C2784 1.383 . S
C2790 C2789 1.379 . S
H2791 C2785 0.959 . S
H2792 C2785 0.961 . S
H2793 C2785 0.960 . S
H2794 C2786 0.930 . S
H2795 C2787 0.929 . S
H2796 C2804 0.929 . S
H2797 C2806 0.930 . S
H2798 C2808 0.930 . S
H2799 C2811 0.929 . S
H2800 C2814 0.930 . S
H2801 C2816 0.960 . S
H2802 C2816 0.960 . S
H2803 C2816 0.960 . S
C2804 H2796 0.929 . S
C2804 C2805 1.377 . S
C2804 C2806 1.384 . S
C2805 C2804 1.377 . S
C2805 C2811 1.390 . S
C2806 H2797 0.930 . S
C2806 C2804 1.384 . S
C2806 C2807 1.372 . S
C2807 C2806 1.372 . S
C2807 C2808 1.400 . S
C2807 C2812 1.490 . S
C2808 H2798 0.930 . S
C2808 C2807 1.400 . S
C2808 C2811 1.386 . S
H2809 C2825 0.930 . S
H2810 C2826 0.931 . S
C2811 H2799 0.929 . S
C2811 C2805 1.390 . S
C2811 C2808 1.386 . S
C2812 C2807 1.490 . S
C2812 C2814 1.395 . S
C2812 C2815 1.403 . S
H2813 C2819 0.930 . S
C2814 H2800 0.930 . S
C2814 C2812 1.395 . S
C2814 C2817 1.403 . S
C2815 C2812 1.403 . S
C2815 C2816 1.524 . S
C2815 C2819 1.400 . S
C2816 H2801 0.960 . S
C2816 H2802 0.960 . S
C2816 H2803 0.960 . S
C2816 C2815 1.524 . S
C2817 C2814 1.403 . S
C2817 C2818 1.392 . S
C2817 C2821 1.495 . S
C2818 C2817 1.392 . S
C2818 C2819 1.385 . S
C2818 C2820 1.478 . S
C2819 H2813 0.930 . S
C2819 C2815 1.400 . S
C2819 C2818 1.385 . S
C2820 C2818 1.478 . S
C2820 C2822 1.381 . S
C2820 C2826 1.383 . S
C2821 C2817 1.495 . S
C2821 H2827 0.959 . S
C2821 H2828 0.961 . S
C2821 H2829 0.960 . S
C2822 C2820 1.381 . S
C2822 C2823 1.394 . S
C2822 H2830 0.930 . S
C2823 C2822 1.394 . S
C2823 C2824 1.383 . S
C2823 H2831 0.929 . S
C2824 C2823 1.383 . S
C2824 C2825 1.377 . S
C2825 H2809 0.930 . S
C2825 C2824 1.377 . S
C2825 C2826 1.379 . S
C2826 H2810 0.931 . S
C2826 C2820 1.383 . S
C2826 C2825 1.379 . S
H2827 C2821 0.959 . S
H2828 C2821 0.961 . S
H2829 C2821 0.960 . S
H2830 C2822 0.930 . S
H2831 C2823 0.929 . S
H2832 C2840 0.929 . S
H2833 C2842 0.930 . S
H2834 C2844 0.930 . S
H2835 C2847 0.929 . S
H2836 C2850 0.930 . S
H2837 C2852 0.960 . S
H2838 C2852 0.960 . S
H2839 C2852 0.960 . S
C2840 H2832 0.929 . S
C2840 C2841 1.377 . S
C2840 C2842 1.384 . S
C2841 C2840 1.377 . S
C2841 C2847 1.390 . S
C2842 H2833 0.930 . S
C2842 C2840 1.384 . S
C2842 C2843 1.372 . S
C2843 C2842 1.372 . S
C2843 C2844 1.400 . S
C2843 C2848 1.490 . S
C2844 H2834 0.930 . S
C2844 C2843 1.400 . S
C2844 C2847 1.386 . S
H2845 C2861 0.930 . S
H2846 C2862 0.931 . S
C2847 H2835 0.929 . S
C2847 C2841 1.390 . S
C2847 C2844 1.386 . S
C2848 C2843 1.490 . S
C2848 C2850 1.395 . S
C2848 C2851 1.403 . S
H2849 C2855 0.930 . S
C2850 H2836 0.930 . S
C2850 C2848 1.395 . S
C2850 C2853 1.403 . S
C2851 C2848 1.403 . S
C2851 C2852 1.524 . S
C2851 C2855 1.400 . S
C2852 H2837 0.960 . S
C2852 H2838 0.960 . S
C2852 H2839 0.960 . S
C2852 C2851 1.524 . S
C2853 C2850 1.403 . S
C2853 C2854 1.392 . S
C2853 C2857 1.495 . S
C2854 C2853 1.392 . S
C2854 C2855 1.385 . S
C2854 C2856 1.478 . S
C2855 H2849 0.930 . S
C2855 C2851 1.400 . S
C2855 C2854 1.385 . S
C2856 C2854 1.478 . S
C2856 C2858 1.381 . S
C2856 C2862 1.383 . S
C2857 C2853 1.495 . S
C2857 H2863 0.959 . S
C2857 H2864 0.961 . S
C2857 H2865 0.960 . S
C2858 C2856 1.381 . S
C2858 C2859 1.394 . S
C2858 H2866 0.930 . S
C2859 C2858 1.394 . S
C2859 C2860 1.383 . S
C2859 H2867 0.929 . S
C2860 C2859 1.383 . S
C2860 C2861 1.377 . S
C2861 H2845 0.930 . S
C2861 C2860 1.377 . S
C2861 C2862 1.379 . S
C2862 H2846 0.931 . S
C2862 C2856 1.383 . S
C2862 C2861 1.379 . S
H2863 C2857 0.959 . S
H2864 C2857 0.961 . S
H2865 C2857 0.960 . S
H2866 C2858 0.930 . S
H2867 C2859 0.929 . S
H2868 C2876 0.929 . S
H2869 C2878 0.930 . S
H2870 C2880 0.930 . S
H2871 C2883 0.929 . S
H2872 C2886 0.930 . S
H2873 C2888 0.960 . S
H2874 C2888 0.960 . S
H2875 C2888 0.960 . S
C2876 H2868 0.929 . S
C2876 C2877 1.377 . S
C2876 C2878 1.384 . S
C2877 C2876 1.377 . S
C2877 C2883 1.390 . S
C2878 H2869 0.930 . S
C2878 C2876 1.384 . S
C2878 C2879 1.372 . S
C2879 C2878 1.372 . S
C2879 C2880 1.400 . S
C2879 C2884 1.490 . S
C2880 H2870 0.930 . S
C2880 C2879 1.400 . S
C2880 C2883 1.386 . S
H2881 C2897 0.930 . S
H2882 C2898 0.931 . S
C2883 H2871 0.929 . S
C2883 C2877 1.390 . S
C2883 C2880 1.386 . S
C2884 C2879 1.490 . S
C2884 C2886 1.395 . S
C2884 C2887 1.403 . S
H2885 C2891 0.930 . S
C2886 H2872 0.930 . S
C2886 C2884 1.395 . S
C2886 C2889 1.403 . S
C2887 C2884 1.403 . S
C2887 C2888 1.524 . S
C2887 C2891 1.400 . S
C2888 H2873 0.960 . S
C2888 H2874 0.960 . S
C2888 H2875 0.960 . S
C2888 C2887 1.524 . S
C2889 C2886 1.403 . S
C2889 C2890 1.392 . S
C2889 C2893 1.495 . S
C2890 C2889 1.392 . S
C2890 C2891 1.385 . S
C2890 C2892 1.478 . S
C2891 H2885 0.930 . S
C2891 C2887 1.400 . S
C2891 C2890 1.385 . S
C2892 C2890 1.478 . S
C2892 C2894 1.381 . S
C2892 C2898 1.383 . S
C2893 C2889 1.495 . S
C2893 H2899 0.959 . S
C2893 H2900 0.961 . S
C2893 H2901 0.960 . S
C2894 C2892 1.381 . S
C2894 C2895 1.394 . S
C2894 H2902 0.930 . S
C2895 C2894 1.394 . S
C2895 C2896 1.383 . S
C2895 H2903 0.929 . S
C2896 C2895 1.383 . S
C2896 C2897 1.377 . S
C2897 H2881 0.930 . S
C2897 C2896 1.377 . S
C2897 C2898 1.379 . S
C2898 H2882 0.931 . S
C2898 C2892 1.383 . S
C2898 C2897 1.379 . S
H2899 C2893 0.959 . S
H2900 C2893 0.961 . S
H2901 C2893 0.960 . S
H2902 C2894 0.930 . S
H2903 C2895 0.929 . S
H2904 C2912 0.929 . S
H2905 C2914 0.930 . S
H2906 C2916 0.930 . S
H2907 C2919 0.929 . S
H2908 C2922 0.930 . S
H2909 C2924 0.960 . S
H2910 C2924 0.960 . S
H2911 C2924 0.960 . S
C2912 H2904 0.929 . S
C2912 C2913 1.377 . S
C2912 C2914 1.384 . S
C2913 C2912 1.377 . S
C2913 C2919 1.390 . S
C2914 H2905 0.930 . S
C2914 C2912 1.384 . S
C2914 C2915 1.372 . S
C2915 C2914 1.372 . S
C2915 C2916 1.400 . S
C2915 C2920 1.490 . S
C2916 H2906 0.930 . S
C2916 C2915 1.400 . S
C2916 C2919 1.386 . S
H2917 C2933 0.930 . S
H2918 C2934 0.931 . S
C2919 H2907 0.929 . S
C2919 C2913 1.390 . S
C2919 C2916 1.386 . S
C2920 C2915 1.490 . S
C2920 C2922 1.395 . S
C2920 C2923 1.403 . S
H2921 C2927 0.930 . S
C2922 H2908 0.930 . S
C2922 C2920 1.395 . S
C2922 C2925 1.403 . S
C2923 C2920 1.403 . S
C2923 C2924 1.524 . S
C2923 C2927 1.400 . S
C2924 H2909 0.960 . S
C2924 H2910 0.960 . S
C2924 H2911 0.960 . S
C2924 C2923 1.524 . S
C2925 C2922 1.403 . S
C2925 C2926 1.392 . S
C2925 C2929 1.495 . S
C2926 C2925 1.392 . S
C2926 C2927 1.385 . S
C2926 C2928 1.478 . S
C2927 H2921 0.930 . S
C2927 C2923 1.400 . S
C2927 C2926 1.385 . S
C2928 C2926 1.478 . S
C2928 C2930 1.381 . S
C2928 C2934 1.383 . S
C2929 C2925 1.495 . S
C2929 H2935 0.959 . S
C2929 H2936 0.961 . S
C2929 H2937 0.960 . S
C2930 C2928 1.381 . S
C2930 C2931 1.394 . S
C2930 H2938 0.930 . S
C2931 C2930 1.394 . S
C2931 C2932 1.383 . S
C2931 H2939 0.929 . S
C2932 C2931 1.383 . S
C2932 C2933 1.377 . S
C2933 H2917 0.930 . S
C2933 C2932 1.377 . S
C2933 C2934 1.379 . S
C2934 H2918 0.931 . S
C2934 C2928 1.383 . S
C2934 C2933 1.379 . S
H2935 C2929 0.959 . S
H2936 C2929 0.961 . S
H2937 C2929 0.960 . S
H2938 C2930 0.930 . S
H2939 C2931 0.929 . S
H2940 C2948 0.929 . S
H2941 C2950 0.930 . S
H2942 C2952 0.930 . S
H2943 C2955 0.929 . S
H2944 C2958 0.930 . S
H2945 C2960 0.960 . S
H2946 C2960 0.960 . S
H2947 C2960 0.960 . S
C2948 H2940 0.929 . S
C2948 C2949 1.377 . S
C2948 C2950 1.384 . S
C2949 C2948 1.377 . S
C2949 C2955 1.390 . S
C2950 H2941 0.930 . S
C2950 C2948 1.384 . S
C2950 C2951 1.372 . S
C2951 C2950 1.372 . S
C2951 C2952 1.400 . S
C2951 C2956 1.490 . S
C2952 H2942 0.930 . S
C2952 C2951 1.400 . S
C2952 C2955 1.386 . S
H2953 C2969 0.930 . S
H2954 C2970 0.931 . S
C2955 H2943 0.929 . S
C2955 C2949 1.390 . S
C2955 C2952 1.386 . S
C2956 C2951 1.490 . S
C2956 C2958 1.395 . S
C2956 C2959 1.403 . S
H2957 C2963 0.930 . S
C2958 H2944 0.930 . S
C2958 C2956 1.395 . S
C2958 C2961 1.403 . S
C2959 C2956 1.403 . S
C2959 C2960 1.524 . S
C2959 C2963 1.400 . S
C2960 H2945 0.960 . S
C2960 H2946 0.960 . S
C2960 H2947 0.960 . S
C2960 C2959 1.524 . S
C2961 C2958 1.403 . S
C2961 C2962 1.392 . S
C2961 C2965 1.495 . S
C2962 C2961 1.392 . S
C2962 C2963 1.385 . S
C2962 C2964 1.478 . S
C2963 H2957 0.930 . S
C2963 C2959 1.400 . S
C2963 C2962 1.385 . S
C2964 C2962 1.478 . S
C2964 C2966 1.381 . S
C2964 C2970 1.383 . S
C2965 C2961 1.495 . S
C2965 H2971 0.959 . S
C2965 H2972 0.961 . S
C2965 H2973 0.960 . S
C2966 C2964 1.381 . S
C2966 C2967 1.394 . S
C2966 H2974 0.930 . S
C2967 C2966 1.394 . S
C2967 C2968 1.383 . S
C2967 H2975 0.929 . S
C2968 C2967 1.383 . S
C2968 C2969 1.377 . S
C2969 H2953 0.930 . S
C2969 C2968 1.377 . S
C2969 C2970 1.379 . S
C2970 H2954 0.931 . S
C2970 C2964 1.383 . S
C2970 C2969 1.379 . S
H2971 C2965 0.959 . S
H2972 C2965 0.961 . S
H2973 C2965 0.960 . S
H2974 C2966 0.930 . S
H2975 C2967 0.929 . S
H2976 C2984 0.929 . S
H2977 C2986 0.930 . S
H2978 C2988 0.930 . S
H2979 C2991 0.929 . S
H2980 C2994 0.930 . S
H2981 C2996 0.960 . S
H2982 C2996 0.960 . S
H2983 C2996 0.960 . S
C2984 H2976 0.929 . S
C2984 C2985 1.377 . S
C2984 C2986 1.384 . S
C2985 C2984 1.377 . S
C2985 C2991 1.390 . S
C2986 H2977 0.930 . S
C2986 C2984 1.384 . S
C2986 C2987 1.372 . S
C2987 C2986 1.372 . S
C2987 C2988 1.400 . S
C2987 C2992 1.490 . S
C2988 H2978 0.930 . S
C2988 C2987 1.400 . S
C2988 C2991 1.386 . S
H2989 C3005 0.930 . S
H2990 C3006 0.931 . S
C2991 H2979 0.929 . S
C2991 C2985 1.390 . S
C2991 C2988 1.386 . S
C2992 C2987 1.490 . S
C2992 C2994 1.395 . S
C2992 C2995 1.403 . S
H2993 C2999 0.930 . S
C2994 H2980 0.930 . S
C2994 C2992 1.395 . S
C2994 C2997 1.403 . S
C2995 C2992 1.403 . S
C2995 C2996 1.524 . S
C2995 C2999 1.400 . S
C2996 H2981 0.960 . S
C2996 H2982 0.960 . S
C2996 H2983 0.960 . S
C2996 C2995 1.524 . S
C2997 C2994 1.403 . S
C2997 C2998 1.392 . S
C2997 C3001 1.495 . S
C2998 C2997 1.392 . S
C2998 C2999 1.385 . S
C2998 C3000 1.478 . S
C2999 H2993 0.930 . S
C2999 C2995 1.400 . S
C2999 C2998 1.385 . S
C3000 C2998 1.478 . S
C3000 C3002 1.381 . S
C3000 C3006 1.383 . S
C3001 C2997 1.495 . S
C3001 H3007 0.959 . S
C3001 H3008 0.961 . S
C3001 H3009 0.960 . S
C3002 C3000 1.381 . S
C3002 C3003 1.394 . S
C3002 H3010 0.930 . S
C3003 C3002 1.394 . S
C3003 C3004 1.383 . S
C3003 H3011 0.929 . S
C3004 C3003 1.383 . S
C3004 C3005 1.377 . S
C3005 H2989 0.930 . S
C3005 C3004 1.377 . S
C3005 C3006 1.379 . S
C3006 H2990 0.931 . S
C3006 C3000 1.383 . S
C3006 C3005 1.379 . S
H3007 C3001 0.959 . S
H3008 C3001 0.961 . S
H3009 C3001 0.960 . S
H3010 C3002 0.930 . S
H3011 C3003 0.929 . S
H3012 C3020 0.929 . S
H3013 C3022 0.930 . S
H3014 C3024 0.930 . S
H3015 C3027 0.929 . S
H3016 C3030 0.930 . S
H3017 C3032 0.960 . S
H3018 C3032 0.960 . S
H3019 C3032 0.960 . S
C3020 H3012 0.929 . S
C3020 C3021 1.377 . S
C3020 C3022 1.384 . S
C3021 C3020 1.377 . S
C3021 C3027 1.390 . S
C3022 H3013 0.930 . S
C3022 C3020 1.384 . S
C3022 C3023 1.372 . S
C3023 C3022 1.372 . S
C3023 C3024 1.400 . S
C3023 C3028 1.490 . S
C3024 H3014 0.930 . S
C3024 C3023 1.400 . S
C3024 C3027 1.386 . S
H3025 C3041 0.930 . S
H3026 C3042 0.931 . S
C3027 H3015 0.929 . S
C3027 C3021 1.390 . S
C3027 C3024 1.386 . S
C3028 C3023 1.490 . S
C3028 C3030 1.395 . S
C3028 C3031 1.403 . S
H3029 C3035 0.930 . S
C3030 H3016 0.930 . S
C3030 C3028 1.395 . S
C3030 C3033 1.403 . S
C3031 C3028 1.403 . S
C3031 C3032 1.524 . S
C3031 C3035 1.400 . S
C3032 H3017 0.960 . S
C3032 H3018 0.960 . S
C3032 H3019 0.960 . S
C3032 C3031 1.524 . S
C3033 C3030 1.403 . S
C3033 C3034 1.392 . S
C3033 C3037 1.495 . S
C3034 C3033 1.392 . S
C3034 C3035 1.385 . S
C3034 C3036 1.478 . S
C3035 H3029 0.930 . S
C3035 C3031 1.400 . S
C3035 C3034 1.385 . S
C3036 C3034 1.478 . S
C3036 C3038 1.381 . S
C3036 C3042 1.383 . S
C3037 C3033 1.495 . S
C3037 H3043 0.959 . S
C3037 H3044 0.961 . S
C3037 H3045 0.960 . S
C3038 C3036 1.381 . S
C3038 C3039 1.394 . S
C3038 H3046 0.930 . S
C3039 C3038 1.394 . S
C3039 C3040 1.383 . S
C3039 H3047 0.929 . S
C3040 C3039 1.383 . S
C3040 C3041 1.377 . S
C3041 H3025 0.930 . S
C3041 C3040 1.377 . S
C3041 C3042 1.379 . S
C3042 H3026 0.931 . S
C3042 C3036 1.383 . S
C3042 C3041 1.379 . S
H3043 C3037 0.959 . S
H3044 C3037 0.961 . S
H3045 C3037 0.960 . S
H3046 C3038 0.930 . S
H3047 C3039 0.929 . S
H3048 C3056 0.929 . S
H3049 C3058 0.930 . S
H3050 C3060 0.930 . S
H3051 C3063 0.929 . S
H3052 C3066 0.930 . S
H3053 C3068 0.960 . S
H3054 C3068 0.960 . S
H3055 C3068 0.960 . S
C3056 H3048 0.929 . S
C3056 C3057 1.377 . S
C3056 C3058 1.384 . S
C3057 C3056 1.377 . S
C3057 C3063 1.390 . S
C3058 H3049 0.930 . S
C3058 C3056 1.384 . S
C3058 C3059 1.372 . S
C3059 C3058 1.372 . S
C3059 C3060 1.400 . S
C3059 C3064 1.490 . S
C3060 H3050 0.930 . S
C3060 C3059 1.400 . S
C3060 C3063 1.386 . S
H3061 C3077 0.930 . S
H3062 C3078 0.931 . S
C3063 H3051 0.929 . S
C3063 C3057 1.390 . S
C3063 C3060 1.386 . S
C3064 C3059 1.490 . S
C3064 C3066 1.395 . S
C3064 C3067 1.403 . S
H3065 C3071 0.930 . S
C3066 H3052 0.930 . S
C3066 C3064 1.395 . S
C3066 C3069 1.403 . S
C3067 C3064 1.403 . S
C3067 C3068 1.524 . S
C3067 C3071 1.400 . S
C3068 H3053 0.960 . S
C3068 H3054 0.960 . S
C3068 H3055 0.960 . S
C3068 C3067 1.524 . S
C3069 C3066 1.403 . S
C3069 C3070 1.392 . S
C3069 C3073 1.495 . S
C3070 C3069 1.392 . S
C3070 C3071 1.385 . S
C3070 C3072 1.478 . S
C3071 H3065 0.930 . S
C3071 C3067 1.400 . S
C3071 C3070 1.385 . S
C3072 C3070 1.478 . S
C3072 C3074 1.381 . S
C3072 C3078 1.383 . S
C3073 C3069 1.495 . S
C3073 H3079 0.959 . S
C3073 H3080 0.961 . S
C3073 H3081 0.960 . S
C3074 C3072 1.381 . S
C3074 C3075 1.394 . S
C3074 H3082 0.930 . S
C3075 C3074 1.394 . S
C3075 C3076 1.383 . S
C3075 H3083 0.929 . S
C3076 C3075 1.383 . S
C3076 C3077 1.377 . S
C3077 H3061 0.930 . S
C3077 C3076 1.377 . S
C3077 C3078 1.379 . S
C3078 H3062 0.931 . S
C3078 C3072 1.383 . S
C3078 C3077 1.379 . S
H3079 C3073 0.959 . S
H3080 C3073 0.961 . S
H3081 C3073 0.960 . S
H3082 C3074 0.930 . S
H3083 C3075 0.929 . S
H3084 C3092 0.929 . S
H3085 C3094 0.930 . S
H3086 C3096 0.930 . S
H3087 C3099 0.929 . S
H3088 C3102 0.930 . S
H3089 C3104 0.960 . S
H3090 C3104 0.960 . S
H3091 C3104 0.960 . S
C3092 H3084 0.929 . S
C3092 C3093 1.377 . S
C3092 C3094 1.384 . S
C3093 C3092 1.377 . S
C3093 C3099 1.390 . S
C3094 H3085 0.930 . S
C3094 C3092 1.384 . S
C3094 C3095 1.372 . S
C3095 C3094 1.372 . S
C3095 C3096 1.400 . S
C3095 C3100 1.490 . S
C3096 H3086 0.930 . S
C3096 C3095 1.400 . S
C3096 C3099 1.386 . S
H3097 C3113 0.930 . S
H3098 C3114 0.931 . S
C3099 H3087 0.929 . S
C3099 C3093 1.390 . S
C3099 C3096 1.386 . S
C3100 C3095 1.490 . S
C3100 C3102 1.395 . S
C3100 C3103 1.403 . S
H3101 C3107 0.930 . S
C3102 H3088 0.930 . S
C3102 C3100 1.395 . S
C3102 C3105 1.403 . S
C3103 C3100 1.403 . S
C3103 C3104 1.524 . S
C3103 C3107 1.400 . S
C3104 H3089 0.960 . S
C3104 H3090 0.960 . S
C3104 H3091 0.960 . S
C3104 C3103 1.524 . S
C3105 C3102 1.403 . S
C3105 C3106 1.392 . S
C3105 C3109 1.495 . S
C3106 C3105 1.392 . S
C3106 C3107 1.385 . S
C3106 C3108 1.478 . S
C3107 H3101 0.930 . S
C3107 C3103 1.400 . S
C3107 C3106 1.385 . S
C3108 C3106 1.478 . S
C3108 C3110 1.381 . S
C3108 C3114 1.383 . S
C3109 C3105 1.495 . S
C3109 H3115 0.959 . S
C3109 H3116 0.961 . S
C3109 H3117 0.960 . S
C3110 C3108 1.381 . S
C3110 C3111 1.394 . S
C3110 H3118 0.930 . S
C3111 C3110 1.394 . S
C3111 C3112 1.383 . S
C3111 H3119 0.929 . S
C3112 C3111 1.383 . S
C3112 C3113 1.377 . S
C3113 H3097 0.930 . S
C3113 C3112 1.377 . S
C3113 C3114 1.379 . S
C3114 H3098 0.931 . S
C3114 C3108 1.383 . S
C3114 C3113 1.379 . S
H3115 C3109 0.959 . S
H3116 C3109 0.961 . S
H3117 C3109 0.960 . S
H3118 C3110 0.930 . S
H3119 C3111 0.929 . S
H3120 C3128 0.929 . S
H3121 C3130 0.930 . S
H3122 C3132 0.930 . S
H3123 C3135 0.929 . S
H3124 C3138 0.930 . S
H3125 C3140 0.960 . S
H3126 C3140 0.960 . S
H3127 C3140 0.960 . S
C3128 H3120 0.929 . S
C3128 C3129 1.377 . S
C3128 C3130 1.384 . S
C3129 C3128 1.377 . S
C3129 C3135 1.390 . S
C3130 H3121 0.930 . S
C3130 C3128 1.384 . S
C3130 C3131 1.372 . S
C3131 C3130 1.372 . S
C3131 C3132 1.400 . S
C3131 C3136 1.490 . S
C3132 H3122 0.930 . S
C3132 C3131 1.400 . S
C3132 C3135 1.386 . S
H3133 C3149 0.930 . S
H3134 C3150 0.931 . S
C3135 H3123 0.929 . S
C3135 C3129 1.390 . S
C3135 C3132 1.386 . S
C3136 C3131 1.490 . S
C3136 C3138 1.395 . S
C3136 C3139 1.403 . S
H3137 C3143 0.930 . S
C3138 H3124 0.930 . S
C3138 C3136 1.395 . S
C3138 C3141 1.403 . S
C3139 C3136 1.403 . S
C3139 C3140 1.524 . S
C3139 C3143 1.400 . S
C3140 H3125 0.960 . S
C3140 H3126 0.960 . S
C3140 H3127 0.960 . S
C3140 C3139 1.524 . S
C3141 C3138 1.403 . S
C3141 C3142 1.392 . S
C3141 C3145 1.495 . S
C3142 C3141 1.392 . S
C3142 C3143 1.385 . S
C3142 C3144 1.478 . S
C3143 H3137 0.930 . S
C3143 C3139 1.400 . S
C3143 C3142 1.385 . S
C3144 C3142 1.478 . S
C3144 C3146 1.381 . S
C3144 C3150 1.383 . S
C3145 C3141 1.495 . S
C3145 H3151 0.959 . S
C3145 H3152 0.961 . S
C3145 H3153 0.960 . S
C3146 C3144 1.381 . S
C3146 C3147 1.394 . S
C3146 H3154 0.930 . S
C3147 C3146 1.394 . S
C3147 C3148 1.383 . S
C3147 H3155 0.929 . S
C3148 C3147 1.383 . S
C3148 C3149 1.377 . S
C3149 H3133 0.930 . S
C3149 C3148 1.377 . S
C3149 C3150 1.379 . S
C3150 H3134 0.931 . S
C3150 C3144 1.383 . S
C3150 C3149 1.379 . S
H3151 C3145 0.959 . S
H3152 C3145 0.961 . S
H3153 C3145 0.960 . S
H3154 C3146 0.930 . S
H3155 C3147 0.929 . S
H3156 C3164 0.929 . S
H3157 C3166 0.930 . S
H3158 C3168 0.930 . S
H3159 C3171 0.929 . S
H3160 C3174 0.930 . S
H3161 C3176 0.960 . S
H3162 C3176 0.960 . S
H3163 C3176 0.960 . S
C3164 H3156 0.929 . S
C3164 C3165 1.377 . S
C3164 C3166 1.384 . S
C3165 C3164 1.377 . S
C3165 C3171 1.390 . S
C3166 H3157 0.930 . S
C3166 C3164 1.384 . S
C3166 C3167 1.372 . S
C3167 C3166 1.372 . S
C3167 C3168 1.400 . S
C3167 C3172 1.490 . S
C3168 H3158 0.930 . S
C3168 C3167 1.400 . S
C3168 C3171 1.386 . S
H3169 C3185 0.930 . S
H3170 C3186 0.931 . S
C3171 H3159 0.929 . S
C3171 C3165 1.390 . S
C3171 C3168 1.386 . S
C3172 C3167 1.490 . S
C3172 C3174 1.395 . S
C3172 C3175 1.403 . S
H3173 C3179 0.930 . S
C3174 H3160 0.930 . S
C3174 C3172 1.395 . S
C3174 C3177 1.403 . S
C3175 C3172 1.403 . S
C3175 C3176 1.524 . S
C3175 C3179 1.400 . S
C3176 H3161 0.960 . S
C3176 H3162 0.960 . S
C3176 H3163 0.960 . S
C3176 C3175 1.524 . S
C3177 C3174 1.403 . S
C3177 C3178 1.392 . S
C3177 C3181 1.495 . S
C3178 C3177 1.392 . S
C3178 C3179 1.385 . S
C3178 C3180 1.478 . S
C3179 H3173 0.930 . S
C3179 C3175 1.400 . S
C3179 C3178 1.385 . S
C3180 C3178 1.478 . S
C3180 C3182 1.381 . S
C3180 C3186 1.383 . S
C3181 C3177 1.495 . S
C3181 H3187 0.959 . S
C3181 H3188 0.961 . S
C3181 H3189 0.960 . S
C3182 C3180 1.381 . S
C3182 C3183 1.394 . S
C3182 H3190 0.930 . S
C3183 C3182 1.394 . S
C3183 C3184 1.383 . S
C3183 H3191 0.929 . S
C3184 C3183 1.383 . S
C3184 C3185 1.377 . S
C3185 H3169 0.930 . S
C3185 C3184 1.377 . S
C3185 C3186 1.379 . S
C3186 H3170 0.931 . S
C3186 C3180 1.383 . S
C3186 C3185 1.379 . S
H3187 C3181 0.959 . S
H3188 C3181 0.961 . S
H3189 C3181 0.960 . S
H3190 C3182 0.930 . S
H3191 C3183 0.929 . S
H3192 C3200 0.929 . S
H3193 C3202 0.930 . S
H3194 C3204 0.930 . S
H3195 C3207 0.929 . S
H3196 C3210 0.930 . S
H3197 C3212 0.960 . S
H3198 C3212 0.960 . S
H3199 C3212 0.960 . S
C3200 H3192 0.929 . S
C3200 C3201 1.377 . S
C3200 C3202 1.384 . S
C3201 C3200 1.377 . S
C3201 C3207 1.390 . S
C3202 H3193 0.930 . S
C3202 C3200 1.384 . S
C3202 C3203 1.372 . S
C3203 C3202 1.372 . S
C3203 C3204 1.400 . S
C3203 C3208 1.490 . S
C3204 H3194 0.930 . S
C3204 C3203 1.400 . S
C3204 C3207 1.386 . S
H3205 C3221 0.930 . S
H3206 C3222 0.931 . S
C3207 H3195 0.929 . S
C3207 C3201 1.390 . S
C3207 C3204 1.386 . S
C3208 C3203 1.490 . S
C3208 C3210 1.395 . S
C3208 C3211 1.403 . S
H3209 C3215 0.930 . S
C3210 H3196 0.930 . S
C3210 C3208 1.395 . S
C3210 C3213 1.403 . S
C3211 C3208 1.403 . S
C3211 C3212 1.524 . S
C3211 C3215 1.400 . S
C3212 H3197 0.960 . S
C3212 H3198 0.960 . S
C3212 H3199 0.960 . S
C3212 C3211 1.524 . S
C3213 C3210 1.403 . S
C3213 C3214 1.392 . S
C3213 C3217 1.495 . S
C3214 C3213 1.392 . S
C3214 C3215 1.385 . S
C3214 C3216 1.478 . S
C3215 H3209 0.930 . S
C3215 C3211 1.400 . S
C3215 C3214 1.385 . S
C3216 C3214 1.478 . S
C3216 C3218 1.381 . S
C3216 C3222 1.383 . S
C3217 C3213 1.495 . S
C3217 H3223 0.959 . S
C3217 H3224 0.961 . S
C3217 H3225 0.960 . S
C3218 C3216 1.381 . S
C3218 C3219 1.394 . S
C3218 H3226 0.930 . S
C3219 C3218 1.394 . S
C3219 C3220 1.383 . S
C3219 H3227 0.929 . S
C3220 C3219 1.383 . S
C3220 C3221 1.377 . S
C3221 H3205 0.930 . S
C3221 C3220 1.377 . S
C3221 C3222 1.379 . S
C3222 H3206 0.931 . S
C3222 C3216 1.383 . S
C3222 C3221 1.379 . S
H3223 C3217 0.959 . S
H3224 C3217 0.961 . S
H3225 C3217 0.960 . S
H3226 C3218 0.930 . S
H3227 C3219 0.929 . S
H3228 C3236 0.929 . S
H3229 C3238 0.930 . S
H3230 C3240 0.930 . S
H3231 C3243 0.929 . S
H3232 C3246 0.930 . S
H3233 C3248 0.960 . S
H3234 C3248 0.960 . S
H3235 C3248 0.960 . S
C3236 H3228 0.929 . S
C3236 C3237 1.377 . S
C3236 C3238 1.384 . S
C3237 C3236 1.377 . S
C3237 C3243 1.390 . S
C3238 H3229 0.930 . S
C3238 C3236 1.384 . S
C3238 C3239 1.372 . S
C3239 C3238 1.372 . S
C3239 C3240 1.400 . S
C3239 C3244 1.490 . S
C3240 H3230 0.930 . S
C3240 C3239 1.400 . S
C3240 C3243 1.386 . S
H3241 C3257 0.930 . S
H3242 C3258 0.931 . S
C3243 H3231 0.929 . S
C3243 C3237 1.390 . S
C3243 C3240 1.386 . S
C3244 C3239 1.490 . S
C3244 C3246 1.395 . S
C3244 C3247 1.403 . S
H3245 C3251 0.930 . S
C3246 H3232 0.930 . S
C3246 C3244 1.395 . S
C3246 C3249 1.403 . S
C3247 C3244 1.403 . S
C3247 C3248 1.524 . S
C3247 C3251 1.400 . S
C3248 H3233 0.960 . S
C3248 H3234 0.960 . S
C3248 H3235 0.960 . S
C3248 C3247 1.524 . S
C3249 C3246 1.403 . S
C3249 C3250 1.392 . S
C3249 C3253 1.495 . S
C3250 C3249 1.392 . S
C3250 C3251 1.385 . S
C3250 C3252 1.478 . S
C3251 H3245 0.930 . S
C3251 C3247 1.400 . S
C3251 C3250 1.385 . S
C3252 C3250 1.478 . S
C3252 C3254 1.381 . S
C3252 C3258 1.383 . S
C3253 C3249 1.495 . S
C3253 H3259 0.959 . S
C3253 H3260 0.961 . S
C3253 H3261 0.960 . S
C3254 C3252 1.381 . S
C3254 C3255 1.394 . S
C3254 H3262 0.930 . S
C3255 C3254 1.394 . S
C3255 C3256 1.383 . S
C3255 H3263 0.929 . S
C3256 C3255 1.383 . S
C3256 C3257 1.377 . S
C3257 H3241 0.930 . S
C3257 C3256 1.377 . S
C3257 C3258 1.379 . S
C3258 H3242 0.931 . S
C3258 C3252 1.383 . S
C3258 C3257 1.379 . S
H3259 C3253 0.959 . S
H3260 C3253 0.961 . S
H3261 C3253 0.960 . S
H3262 C3254 0.930 . S
H3263 C3255 0.929 . S
H3264 C3272 0.929 . S
H3265 C3274 0.930 . S
H3266 C3276 0.930 . S
H3267 C3279 0.929 . S
H3268 C3282 0.930 . S
H3269 C3284 0.960 . S
H3270 C3284 0.960 . S
H3271 C3284 0.960 . S
C3272 H3264 0.929 . S
C3272 C3273 1.377 . S
C3272 C3274 1.384 . S
C3273 C3272 1.377 . S
C3273 C3279 1.390 . S
C3274 H3265 0.930 . S
C3274 C3272 1.384 . S
C3274 C3275 1.372 . S
C3275 C3274 1.372 . S
C3275 C3276 1.400 . S
C3275 C3280 1.490 . S
C3276 H3266 0.930 . S
C3276 C3275 1.400 . S
C3276 C3279 1.386 . S
H3277 C3293 0.930 . S
H3278 C3294 0.931 . S
C3279 H3267 0.929 . S
C3279 C3273 1.390 . S
C3279 C3276 1.386 . S
C3280 C3275 1.490 . S
C3280 C3282 1.395 . S
C3280 C3283 1.403 . S
H3281 C3287 0.930 . S
C3282 H3268 0.930 . S
C3282 C3280 1.395 . S
C3282 C3285 1.403 . S
C3283 C3280 1.403 . S
C3283 C3284 1.524 . S
C3283 C3287 1.400 1_554 S
C3284 H3269 0.960 . S
C3284 H3270 0.960 . S
C3284 H3271 0.960 . S
C3284 C3283 1.524 . S
C3285 C3282 1.403 . S
C3285 C3286 1.392 1_554 S
C3285 C3289 1.495 1_554 S
C3286 C3285 1.392 1_556 S
C3286 C3287 1.385 . S
C3286 C3288 1.478 . S
C3287 H3281 0.930 . S
C3287 C3283 1.400 1_556 S
C3287 C3286 1.385 . S
C3288 C3286 1.478 . S
C3288 C3290 1.381 . S
C3288 C3294 1.383 . S
C3289 C3285 1.495 1_556 S
C3289 H3295 0.959 1_556 S
C3289 H3296 0.961 . S
C3289 H3297 0.960 . S
C3290 C3288 1.381 . S
C3290 C3291 1.394 . S
C3290 H3298 0.930 . S
C3291 C3290 1.394 . S
C3291 C3292 1.383 . S
C3291 H3299 0.929 . S
C3292 C3291 1.383 . S
C3292 C3293 1.377 . S
C3293 H3277 0.930 . S
C3293 C3292 1.377 . S
C3293 C3294 1.379 . S
C3294 H3278 0.931 . S
C3294 C3288 1.383 . S
C3294 C3293 1.379 . S
H3295 C3289 0.959 1_554 S
H3296 C3289 0.961 . S
H3297 C3289 0.960 . S
H3298 C3290 0.930 . S
H3299 C3291 0.929 . S
H3300 C3308 0.929 . S
H3301 C3310 0.930 . S
H3302 C3312 0.930 . S
H3303 C3315 0.929 . S
H3304 C3318 0.930 . S
H3305 C3320 0.960 . S
H3306 C3320 0.960 . S
H3307 C3320 0.960 . S
C3308 H3300 0.929 . S
C3308 C3309 1.377 . S
C3308 C3310 1.384 . S
C3309 C3308 1.377 . S
C3309 C3315 1.390 . S
C3310 H3301 0.930 . S
C3310 C3308 1.384 . S
C3310 C3311 1.372 . S
C3311 C3310 1.372 . S
C3311 C3312 1.400 . S
C3311 C3316 1.490 . S
C3312 H3302 0.930 . S
C3312 C3311 1.400 . S
C3312 C3315 1.386 . S
H3313 C3329 0.930 . S
H3314 C3330 0.931 . S
C3315 H3303 0.929 . S
C3315 C3309 1.390 . S
C3315 C3312 1.386 . S
C3316 C3311 1.490 . S
C3316 C3318 1.395 . S
C3316 C3319 1.403 . S
H3317 C3323 0.930 . S
C3318 H3304 0.930 . S
C3318 C3316 1.395 . S
C3318 C3321 1.403 1_556 S
C3319 C3316 1.403 . S
C3319 C3320 1.524 . S
C3319 C3323 1.400 1_556 S
C3320 H3305 0.960 . S
C3320 H3306 0.960 . S
C3320 H3307 0.960 . S
C3320 C3319 1.524 . S
C3321 C3318 1.403 1_554 S
C3321 C3322 1.392 . S
C3321 C3325 1.495 . S
C3322 C3321 1.392 . S
C3322 C3323 1.385 . S
C3322 C3324 1.478 . S
C3323 H3317 0.930 . S
C3323 C3319 1.400 1_554 S
C3323 C3322 1.385 . S
C3324 C3322 1.478 . S
C3324 C3326 1.381 . S
C3324 C3330 1.383 . S
C3325 C3321 1.495 . S
C3325 H3331 0.959 . S
C3325 H3332 0.961 . S
C3325 H3333 0.960 . S
C3326 C3324 1.381 . S
C3326 C3327 1.394 . S
C3326 H3334 0.930 . S
C3327 C3326 1.394 . S
C3327 C3328 1.383 . S
C3327 H3335 0.929 . S
C3328 C3327 1.383 . S
C3328 C3329 1.377 . S
C3329 H3313 0.930 . S
C3329 C3328 1.377 . S
C3329 C3330 1.379 . S
C3330 H3314 0.931 . S
C3330 C3324 1.383 . S
C3330 C3329 1.379 . S
H3331 C3325 0.959 . S
H3332 C3325 0.961 . S
H3333 C3325 0.960 . S
H3334 C3326 0.930 . S
H3335 C3327 0.929 . S
H3336 C3344 0.929 . S
H3337 C3346 0.930 . S
H3338 C3348 0.930 . S
H3339 C3351 0.929 . S
H3340 C3354 0.930 . S
H3341 C3356 0.960 . S
H3342 C3356 0.960 . S
H3343 C3356 0.960 . S
C3344 H3336 0.929 . S
C3344 C3345 1.377 . S
C3344 C3346 1.384 . S
C3345 C3344 1.377 . S
C3345 C3351 1.390 . S
C3346 H3337 0.930 . S
C3346 C3344 1.384 . S
C3346 C3347 1.372 . S
C3347 C3346 1.372 . S
C3347 C3348 1.400 . S
C3347 C3352 1.490 . S
C3348 H3338 0.930 . S
C3348 C3347 1.400 . S
C3348 C3351 1.386 . S
H3349 C3365 0.930 . S
H3350 C3366 0.931 . S
C3351 H3339 0.929 . S
C3351 C3345 1.390 . S
C3351 C3348 1.386 . S
C3352 C3347 1.490 . S
C3352 C3354 1.395 . S
C3352 C3355 1.403 . S
H3353 C3359 0.930 . S
C3354 H3340 0.930 . S
C3354 C3352 1.395 . S
C3354 C3357 1.323 1_554 S
C3355 C3352 1.403 . S
C3355 C3356 1.524 . S
C3355 C3359 1.400 1_554 S
C3356 H3341 0.960 . S
C3356 H3342 0.960 . S
C3356 H3343 0.960 . S
C3356 C3355 1.524 . S
C3357 C3354 1.323 1_556 S
C3357 C3358 1.437 . S
C3357 C3361 1.531 . S
C3358 C3357 1.437 . S
C3358 C3359 1.385 . S
C3358 C3360 1.478 . S
C3359 H3353 0.930 . S
C3359 C3355 1.400 1_556 S
C3359 C3358 1.385 . S
C3360 C3358 1.478 . S
C3360 C3362 1.381 . S
C3360 C3366 1.383 . S
C3361 C3357 1.531 . S
C3361 H3367 0.989 . S
C3361 H3368 0.961 . S
C3361 H3369 0.960 . S
C3362 C3360 1.381 . S
C3362 C3363 1.394 . S
C3362 H3370 0.930 . S
C3363 C3362 1.394 . S
C3363 C3364 1.383 . S
C3363 H3371 0.929 . S
C3364 C3363 1.383 . S
C3364 C3365 1.377 . S
C3365 H3349 0.930 . S
C3365 C3364 1.377 . S
C3365 C3366 1.379 . S
C3366 H3350 0.931 . S
C3366 C3360 1.383 . S
C3366 C3365 1.379 . S
H3367 C3361 0.989 . S
H3368 C3361 0.961 . S
H3369 C3361 0.960 . S
H3370 C3362 0.930 . S
H3371 C3363 0.929 . S
H3372 C3380 0.929 . S
H3373 C3382 0.930 . S
H3374 C3384 0.930 . S
H3375 C3387 0.929 . S
H3376 C3390 0.930 . S
H3377 C3392 0.960 . S
H3378 C3392 0.960 . S
H3379 C3392 0.960 . S
C3380 H3372 0.929 . S
C3380 C3381 1.377 . S
C3380 C3382 1.384 . S
C3381 C3380 1.377 . S
C3381 C3387 1.390 . S
C3382 H3373 0.930 . S
C3382 C3380 1.384 . S
C3382 C3383 1.372 . S
C3383 C3382 1.372 . S
C3383 C3384 1.400 . S
C3383 C3388 1.490 . S
C3384 H3374 0.930 . S
C3384 C3383 1.400 . S
C3384 C3387 1.386 . S
H3385 C3401 0.930 . S
H3386 C3402 0.931 . S
C3387 H3375 0.929 . S
C3387 C3381 1.390 . S
C3387 C3384 1.386 . S
C3388 C3383 1.490 . S
C3388 C3390 1.395 . S
C3388 C3391 1.403 . S
H3389 C3395 0.930 . S
C3390 H3376 0.930 . S
C3390 C3388 1.395 . S
C3390 C3393 1.403 1_554 S
C3391 C3388 1.403 . S
C3391 C3392 1.524 . S
C3391 C3395 1.400 1_554 S
C3392 H3377 0.960 . S
C3392 H3378 0.960 . S
C3392 H3379 0.960 . S
C3392 C3391 1.524 . S
C3393 C3390 1.403 1_556 S
C3393 C3394 1.392 . S
C3393 C3397 1.495 . S
C3394 C3393 1.392 . S
C3394 C3395 1.385 . S
C3394 C3396 1.478 . S
C3395 H3389 0.930 . S
C3395 C3391 1.400 1_556 S
C3395 C3394 1.385 . S
C3396 C3394 1.478 . S
C3396 C3398 1.381 . S
C3396 C3402 1.383 . S
C3397 C3393 1.495 . S
C3397 H3403 0.959 . S
C3397 H3404 0.961 . S
C3397 H3405 0.960 . S
C3398 C3396 1.381 . S
C3398 C3399 1.394 . S
C3398 H3406 0.930 . S
C3399 C3398 1.394 . S
C3399 C3400 1.383 . S
C3399 H3407 0.929 . S
C3400 C3399 1.383 . S
C3400 C3401 1.377 . S
C3401 H3385 0.930 . S
C3401 C3400 1.377 . S
C3401 C3402 1.379 . S
C3402 H3386 0.931 . S
C3402 C3396 1.383 . S
C3402 C3401 1.379 . S
H3403 C3397 0.959 . S
H3404 C3397 0.961 . S
H3405 C3397 0.960 . S
H3406 C3398 0.930 . S
H3407 C3399 0.929 . S
H3408 C3416 0.929 . S
H3409 C3418 0.930 . S
H3410 C3420 0.930 . S
H3411 C3423 0.929 . S
H3412 C3426 0.930 . S
H3413 C3428 0.960 . S
H3414 C3428 0.960 . S
H3415 C3428 0.960 . S
C3416 H3408 0.929 . S
C3416 C3417 1.377 . S
C3416 C3418 1.384 . S
C3417 C3416 1.377 . S
C3417 C3423 1.390 . S
C3418 H3409 0.930 . S
C3418 C3416 1.384 . S
C3418 C3419 1.372 . S
C3419 C3418 1.372 . S
C3419 C3420 1.400 . S
C3419 C3424 1.490 . S
C3420 H3410 0.930 . S
C3420 C3419 1.400 . S
C3420 C3423 1.386 . S
H3421 C3437 0.930 . S
H3422 C3438 0.931 . S
C3423 H3411 0.929 . S
C3423 C3417 1.390 . S
C3423 C3420 1.386 . S
C3424 C3419 1.490 . S
C3424 C3426 1.395 . S
C3424 C3427 1.403 . S
H3425 C3431 0.930 . S
C3426 H3412 0.930 . S
C3426 C3424 1.395 . S
C3426 C3429 1.403 1_556 S
C3427 C3424 1.403 . S
C3427 C3428 1.524 . S
C3427 C3431 1.400 1_556 S
C3428 H3413 0.960 . S
C3428 H3414 0.960 . S
C3428 H3415 0.960 . S
C3428 C3427 1.524 . S
C3429 C3426 1.403 1_554 S
C3429 C3430 1.392 . S
C3429 C3433 1.495 . S
C3430 C3429 1.392 . S
C3430 C3431 1.385 . S
C3430 C3432 1.478 . S
C3431 H3425 0.930 . S
C3431 C3427 1.400 1_554 S
C3431 C3430 1.385 . S
C3432 C3430 1.478 . S
C3432 C3434 1.381 . S
C3432 C3438 1.383 . S
C3433 C3429 1.495 . S
C3433 H3439 0.959 . S
C3433 H3440 0.961 . S
C3433 H3441 0.960 . S
C3434 C3432 1.381 . S
C3434 C3435 1.394 . S
C3434 H3442 0.930 . S
C3435 C3434 1.394 . S
C3435 C3436 1.383 . S
C3435 H3443 0.929 . S
C3436 C3435 1.383 . S
C3436 C3437 1.377 . S
C3437 H3421 0.930 . S
C3437 C3436 1.377 . S
C3437 C3438 1.379 . S
C3438 H3422 0.931 . S
C3438 C3432 1.383 . S
C3438 C3437 1.379 . S
H3439 C3433 0.959 . S
H3440 C3433 0.961 . S
H3441 C3433 0.960 . S
H3442 C3434 0.930 . S
H3443 C3435 0.929 . S
H3444 C3452 0.929 . S
H3445 C3454 0.930 . S
H3446 C3456 0.930 . S
H3447 C3459 0.929 . S
H3448 C3462 0.930 . S
H3449 C3464 0.960 . S
H3450 C3464 0.960 . S
H3451 C3464 0.960 . S
C3452 H3444 0.929 . S
C3452 C3453 1.377 . S
C3452 C3454 1.384 . S
C3453 C3452 1.377 . S
C3453 C3459 1.390 . S
C3454 H3445 0.930 . S
C3454 C3452 1.384 . S
C3454 C3455 1.372 . S
C3455 C3454 1.372 . S
C3455 C3456 1.400 . S
C3455 C3460 1.490 . S
C3456 H3446 0.930 . S
C3456 C3455 1.400 . S
C3456 C3459 1.386 . S
H3457 C3473 0.930 . S
H3458 C3474 0.931 . S
C3459 H3447 0.929 . S
C3459 C3453 1.390 . S
C3459 C3456 1.386 . S
C3460 C3455 1.490 . S
C3460 C3462 1.395 . S
C3460 C3463 1.403 . S
H3461 C3467 0.930 . S
C3462 H3448 0.930 . S
C3462 C3460 1.395 . S
C3462 C3465 1.403 1_554 S
C3463 C3460 1.403 . S
C3463 C3464 1.524 . S
C3463 C3467 1.400 1_554 S
C3464 H3449 0.960 . S
C3464 H3450 0.960 . S
C3464 H3451 0.960 . S
C3464 C3463 1.524 . S
C3465 C3462 1.403 1_556 S
C3465 C3466 1.392 . S
C3465 C3469 1.495 . S
C3466 C3465 1.392 . S
C3466 C3467 1.385 . S
C3466 C3468 1.478 . S
C3467 H3461 0.930 . S
C3467 C3463 1.400 1_556 S
C3467 C3466 1.385 . S
C3468 C3466 1.478 . S
C3468 C3470 1.381 . S
C3468 C3474 1.383 . S
C3469 C3465 1.495 . S
C3469 H3475 0.959 . S
C3469 H3476 0.961 . S
C3469 H3477 0.960 . S
C3470 C3468 1.381 . S
C3470 C3471 1.394 . S
C3470 H3478 0.930 . S
C3471 C3470 1.394 . S
C3471 C3472 1.383 . S
C3471 H3479 0.929 . S
C3472 C3471 1.383 . S
C3472 C3473 1.377 . S
C3473 H3457 0.930 . S
C3473 C3472 1.377 . S
C3473 C3474 1.379 . S
C3474 H3458 0.931 . S
C3474 C3468 1.383 . S
C3474 C3473 1.379 . S
H3475 C3469 0.959 . S
H3476 C3469 0.961 . S
H3477 C3469 0.960 . S
H3478 C3470 0.930 . S
H3479 C3471 0.929 . S
H3480 C3488 0.929 . S
H3481 C3490 0.930 . S
H3482 C3492 0.930 . S
H3483 C3495 0.929 . S
H3484 C3498 0.930 . S
H3485 C3500 0.960 . S
H3486 C3500 0.960 . S
H3487 C3500 0.960 . S
C3488 H3480 0.929 . S
C3488 C3489 1.377 . S
C3488 C3490 1.384 . S
C3489 C3488 1.377 . S
C3489 C3495 1.390 . S
C3490 H3481 0.930 . S
C3490 C3488 1.384 . S
C3490 C3491 1.372 . S
C3491 C3490 1.372 . S
C3491 C3492 1.400 . S
C3491 C3496 1.490 . S
C3492 H3482 0.930 . S
C3492 C3491 1.400 . S
C3492 C3495 1.386 . S
H3493 C3509 0.930 . S
H3494 C3510 0.931 . S
C3495 H3483 0.929 . S
C3495 C3489 1.390 . S
C3495 C3492 1.386 . S
C3496 C3491 1.490 . S
C3496 C3498 1.395 . S
C3496 C3499 1.403 . S
H3497 C3503 0.930 . S
C3498 H3484 0.930 . S
C3498 C3496 1.395 . S
C3498 C3501 1.403 1_556 S
C3499 C3496 1.403 . S
C3499 C3500 1.524 . S
C3499 C3503 1.400 1_556 S
C3500 H3485 0.960 . S
C3500 H3486 0.960 . S
C3500 H3487 0.960 . S
C3500 C3499 1.524 . S
C3501 C3498 1.403 1_554 S
C3501 C3502 1.392 . S
C3501 C3505 1.495 . S
C3502 C3501 1.392 . S
C3502 C3503 1.385 . S
C3502 C3504 1.478 . S
C3503 H3497 0.930 . S
C3503 C3499 1.400 1_554 S
C3503 C3502 1.385 . S
C3504 C3502 1.478 . S
C3504 C3506 1.381 . S
C3504 C3510 1.383 . S
C3505 C3501 1.495 . S
C3505 H3511 0.959 . S
C3505 H3512 0.961 . S
C3505 H3513 0.960 . S
C3506 C3504 1.381 . S
C3506 C3507 1.394 . S
C3506 H3514 0.930 . S
C3507 C3506 1.394 . S
C3507 C3508 1.383 . S
C3507 H3515 0.929 . S
C3508 C3507 1.383 . S
C3508 C3509 1.377 . S
C3509 H3493 0.930 . S
C3509 C3508 1.377 . S
C3509 C3510 1.379 . S
C3510 H3494 0.931 . S
C3510 C3504 1.383 . S
C3510 C3509 1.379 . S
H3511 C3505 0.959 . S
H3512 C3505 0.961 . S
H3513 C3505 0.960 . S
H3514 C3506 0.930 . S
H3515 C3507 0.929 . S
H3516 C3524 0.929 . S
H3517 C3526 0.930 . S
H3518 C3528 0.930 . S
H3519 C3531 0.929 . S
H3520 C3534 0.930 . S
H3521 C3536 0.960 . S
H3522 C3536 0.960 . S
H3523 C3536 0.960 . S
C3524 H3516 0.929 . S
C3524 C3525 1.377 . S
C3524 C3526 1.384 . S
C3525 C3524 1.377 . S
C3525 C3531 1.390 . S
C3526 H3517 0.930 . S
C3526 C3524 1.384 . S
C3526 C3527 1.372 . S
C3527 C3526 1.372 . S
C3527 C3528 1.400 . S
C3527 C3532 1.490 . S
C3528 H3518 0.930 . S
C3528 C3527 1.400 . S
C3528 C3531 1.386 . S
H3529 C3545 0.930 . S
H3530 C3546 0.931 . S
C3531 H3519 0.929 . S
C3531 C3525 1.390 . S
C3531 C3528 1.386 . S
C3532 C3527 1.490 . S
C3532 C3534 1.395 . S
C3532 C3535 1.403 . S
H3533 C3539 0.930 . S
C3534 H3520 0.930 . S
C3534 C3532 1.395 . S
C3534 C3537 1.403 1_554 S
C3535 C3532 1.403 . S
C3535 C3536 1.524 . S
C3535 C3539 1.400 1_554 S
C3536 H3521 0.960 . S
C3536 H3522 0.960 . S
C3536 H3523 0.960 . S
C3536 C3535 1.524 . S
C3537 C3534 1.403 1_556 S
C3537 C3538 1.392 . S
C3537 C3541 1.495 . S
C3538 C3537 1.392 . S
C3538 C3539 1.385 . S
C3538 C3540 1.478 . S
C3539 H3533 0.930 . S
C3539 C3535 1.400 1_556 S
C3539 C3538 1.385 . S
C3540 C3538 1.478 . S
C3540 C3542 1.381 . S
C3540 C3546 1.383 . S
C3541 C3537 1.495 . S
C3541 H3547 0.959 . S
C3541 H3548 0.961 . S
C3541 H3549 0.960 . S
C3542 C3540 1.381 . S
C3542 C3543 1.394 . S
C3542 H3550 0.930 . S
C3543 C3542 1.394 . S
C3543 C3544 1.383 . S
C3543 H3551 0.929 . S
C3544 C3543 1.383 . S
C3544 C3545 1.377 . S
C3545 H3529 0.930 . S
C3545 C3544 1.377 . S
C3545 C3546 1.379 . S
C3546 H3530 0.931 . S
C3546 C3540 1.383 . S
C3546 C3545 1.379 . S
H3547 C3541 0.959 . S
H3548 C3541 0.961 . S
H3549 C3541 0.960 . S
H3550 C3542 0.930 . S
H3551 C3543 0.929 . S
H3552 C3560 0.929 . S
H3553 C3562 0.930 . S
H3554 C3564 0.930 . S
H3555 C3567 0.929 . S
H3556 C3570 0.930 1_455 S
H3557 C3572 0.960 . S
H3558 C3572 0.960 . S
H3559 C3572 0.960 . S
C3560 H3552 0.929 . S
C3560 C3561 1.377 . S
C3560 C3562 1.384 . S
C3561 C3560 1.377 . S
C3561 C3567 1.390 . S
C3562 H3553 0.930 . S
C3562 C3560 1.384 . S
C3562 C3563 1.372 . S
C3563 C3562 1.372 . S
C3563 C3564 1.400 . S
C3563 C3568 1.490 . S
C3564 H3554 0.930 . S
C3564 C3563 1.400 . S
C3564 C3567 1.386 . S
H3565 C3581 0.930 . S
H3566 C3582 0.931 . S
C3567 H3555 0.929 . S
C3567 C3561 1.390 . S
C3567 C3564 1.386 . S
C3568 C3563 1.490 . S
C3568 C3570 1.395 1_455 S
C3568 C3571 1.390 1_455 S
H3569 C3575 0.930 . S
C3570 H3556 0.930 1_655 S
C3570 C3568 1.395 1_655 S
C3570 C3573 1.403 . S
C3571 C3568 1.390 1_655 S
C3571 C3572 1.509 1_655 S
C3571 C3575 1.429 . S
C3572 H3557 0.960 . S
C3572 H3558 0.960 . S
C3572 H3559 0.960 . S
C3572 C3571 1.509 1_455 S
C3573 C3570 1.403 . S
C3573 C3574 1.392 . S
C3573 C3577 1.495 . S
C3574 C3573 1.392 . S
C3574 C3575 1.385 . S
C3574 C3576 1.478 . S
C3575 H3569 0.930 . S
C3575 C3571 1.429 . S
C3575 C3574 1.385 . S
C3576 C3574 1.478 . S
C3576 C3578 1.381 . S
C3576 C3582 1.383 . S
C3577 C3573 1.495 . S
C3577 H3583 0.959 . S
C3577 H3584 0.961 . S
C3577 H3585 0.960 . S
C3578 C3576 1.381 . S
C3578 C3579 1.394 . S
C3578 H3586 0.930 . S
C3579 C3578 1.394 . S
C3579 C3580 1.383 . S
C3579 H3587 0.929 . S
C3580 C3579 1.383 . S
C3580 C3581 1.377 . S
C3581 H3565 0.930 . S
C3581 C3580 1.377 . S
C3581 C3582 1.379 . S
C3582 H3566 0.931 . S
C3582 C3576 1.383 . S
C3582 C3581 1.379 . S
H3583 C3577 0.959 . S
H3584 C3577 0.961 . S
H3585 C3577 0.960 . S
H3586 C3578 0.930 . S
H3587 C3579 0.929 . S
H3588 C3596 0.929 . S
H3589 C3598 0.930 . S
H3590 C3600 0.930 . S
H3591 C3603 0.929 . S
H3592 C3606 0.930 . S
H3593 C3608 0.960 . S
H3594 C3608 0.960 . S
H3595 C3608 0.960 . S
C3596 H3588 0.929 . S
C3596 C3597 1.377 . S
C3596 C3598 1.384 . S
C3597 C3596 1.377 . S
C3597 C3603 1.390 . S
C3598 H3589 0.930 . S
C3598 C3596 1.384 . S
C3598 C3599 1.372 . S
C3599 C3598 1.372 . S
C3599 C3600 1.400 . S
C3599 C3604 1.490 . S
C3600 H3590 0.930 . S
C3600 C3599 1.400 . S
C3600 C3603 1.386 . S
H3601 C3617 0.930 . S
H3602 C3618 0.931 . S
C3603 H3591 0.929 . S
C3603 C3597 1.390 . S
C3603 C3600 1.386 . S
C3604 C3599 1.490 . S
C3604 C3606 1.395 . S
C3604 C3607 1.403 . S
H3605 C3611 0.930 . S
C3606 H3592 0.930 . S
C3606 C3604 1.395 . S
C3606 C3609 1.403 1_565 S
C3607 C3604 1.403 . S
C3607 C3608 1.524 . S
C3607 C3611 1.400 1_565 S
C3608 H3593 0.960 . S
C3608 H3594 0.960 . S
C3608 H3595 0.960 . S
C3608 C3607 1.524 . S
C3609 C3606 1.403 1_545 S
C3609 C3610 1.392 . S
C3609 C3613 1.495 . S
C3610 C3609 1.392 . S
C3610 C3611 1.385 . S
C3610 C3612 1.478 . S
C3611 H3605 0.930 . S
C3611 C3607 1.400 1_545 S
C3611 C3610 1.385 . S
C3612 C3610 1.478 . S
C3612 C3614 1.381 . S
C3612 C3618 1.383 . S
C3613 C3609 1.495 . S
C3613 H3619 0.959 . S
C3613 H3620 0.961 . S
C3613 H3621 0.960 . S
C3614 C3612 1.381 . S
C3614 C3615 1.394 . S
C3614 H3622 0.930 . S
C3615 C3614 1.394 . S
C3615 C3616 1.383 . S
C3615 H3623 0.929 . S
C3616 C3615 1.383 . S
C3616 C3617 1.377 . S
C3617 H3601 0.930 . S
C3617 C3616 1.377 . S
C3617 C3618 1.379 . S
C3618 H3602 0.931 . S
C3618 C3612 1.383 . S
C3618 C3617 1.379 . S
H3619 C3613 0.959 . S
H3620 C3613 0.961 . S
H3621 C3613 0.960 . S
H3622 C3614 0.930 . S
H3623 C3615 0.929 . S
H3624 C3632 0.929 . S
H3625 C3634 0.930 . S
H3626 C3636 0.930 . S
H3627 C3639 0.929 . S
H3628 C3642 0.930 . S
H3629 C3644 0.960 . S
H3630 C3644 0.960 . S
H3631 C3644 0.960 . S
C3632 H3624 0.929 . S
C3632 C3633 1.377 . S
C3632 C3634 1.384 . S
C3633 C3632 1.377 . S
C3633 C3639 1.390 . S
C3634 H3625 0.930 . S
C3634 C3632 1.384 . S
C3634 C3635 1.372 . S
C3635 C3634 1.372 . S
C3635 C3636 1.400 . S
C3635 C3640 1.490 . S
C3636 H3626 0.930 . S
C3636 C3635 1.400 . S
C3636 C3639 1.386 . S
H3637 C3653 0.930 . S
H3638 C3654 0.931 . S
C3639 H3627 0.929 . S
C3639 C3633 1.390 . S
C3639 C3636 1.386 . S
C3640 C3635 1.490 . S
C3640 C3642 1.395 . S
C3640 C3643 1.403 . S
H3641 C3647 0.939 . S
C3642 H3628 0.930 . S
C3642 C3640 1.395 . S
C3642 C3645 1.437 . S
C3643 C3640 1.403 . S
C3643 C3644 1.524 . S
C3643 C3647 1.383 1_455 S
C3644 H3629 0.960 . S
C3644 H3630 0.960 . S
C3644 H3631 0.960 . S
C3644 C3643 1.524 . S
C3645 C3642 1.437 . S
C3645 C3646 1.375 1_455 S
C3645 C3649 1.481 1_455 S
C3646 C3645 1.375 1_655 S
C3646 C3647 1.393 . S
C3646 C3648 1.478 . S
C3647 H3641 0.939 . S
C3647 C3643 1.383 1_655 S
C3647 C3646 1.393 . S
C3648 C3646 1.478 . S
C3648 C3650 1.381 . S
C3648 C3654 1.383 . S
C3649 C3645 1.481 1_655 S
C3649 H3655 0.921 1_655 S
C3649 H3656 0.961 . S
C3649 H3657 0.960 . S
C3650 C3648 1.381 . S
C3650 C3651 1.394 . S
C3650 H3658 0.930 . S
C3651 C3650 1.394 . S
C3651 C3652 1.383 . S
C3651 H3659 0.929 . S
C3652 C3651 1.383 . S
C3652 C3653 1.377 . S
C3653 H3637 0.930 . S
C3653 C3652 1.377 . S
C3653 C3654 1.379 . S
C3654 H3638 0.931 . S
C3654 C3648 1.383 . S
C3654 C3653 1.379 . S
H3655 C3649 0.921 1_455 S
H3656 C3649 0.961 . S
H3657 C3649 0.960 . S
H3658 C3650 0.930 . S
H3659 C3651 0.929 . S
H3660 C3668 0.929 . S
H3661 C3670 0.930 . S
H3662 C3672 0.930 . S
H3663 C3675 0.929 . S
H3664 C3678 0.930 . S
H3665 C3680 0.960 . S
H3666 C3680 0.960 . S
H3667 C3680 0.960 . S
C3668 H3660 0.929 . S
C3668 C3669 1.377 . S
C3668 C3670 1.384 . S
C3669 C3668 1.377 . S
C3669 C3675 1.390 . S
C3670 H3661 0.930 . S
C3670 C3668 1.384 . S
C3670 C3671 1.372 . S
C3671 C3670 1.372 . S
C3671 C3672 1.400 . S
C3671 C3676 1.490 . S
C3672 H3662 0.930 . S
C3672 C3671 1.400 . S
C3672 C3675 1.386 . S
H3673 C3689 0.930 . S
H3674 C3690 0.931 . S
C3675 H3663 0.929 . S
C3675 C3669 1.390 . S
C3675 C3672 1.386 . S
C3676 C3671 1.490 . S
C3676 C3678 1.395 . S
C3676 C3679 1.403 . S
H3677 C3683 0.930 . S
C3678 H3664 0.930 . S
C3678 C3676 1.395 . S
C3678 C3681 1.412 1_565 S
C3679 C3676 1.403 . S
C3679 C3680 1.524 . S
C3679 C3683 1.400 1_565 S
C3680 H3665 0.960 . S
C3680 H3666 0.960 . S
C3680 H3667 0.960 . S
C3680 C3679 1.524 . S
C3681 C3678 1.412 1_545 S
C3681 C3682 1.387 . S
C3681 C3685 1.492 . S
C3682 C3681 1.387 . S
C3682 C3683 1.385 . S
C3682 C3684 1.478 . S
C3683 H3677 0.930 . S
C3683 C3679 1.400 1_545 S
C3683 C3682 1.385 . S
C3684 C3682 1.478 . S
C3684 C3686 1.381 . S
C3684 C3690 1.383 . S
C3685 C3681 1.492 . S
C3685 H3691 0.959 1_545 S
C3685 H3692 0.961 . S
C3685 H3693 0.960 . S
C3686 C3684 1.381 . S
C3686 C3687 1.394 . S
C3686 H3694 0.930 . S
C3687 C3686 1.394 . S
C3687 C3688 1.383 . S
C3687 H3695 0.929 . S
C3688 C3687 1.383 . S
C3688 C3689 1.377 . S
C3689 H3673 0.930 . S
C3689 C3688 1.377 . S
C3689 C3690 1.379 . S
C3690 H3674 0.931 . S
C3690 C3684 1.383 . S
C3690 C3689 1.379 . S
H3691 C3685 0.959 1_565 S
H3692 C3685 0.961 . S
H3693 C3685 0.960 . S
H3694 C3686 0.930 . S
H3695 C3687 0.929 . S
H3696 C3704 0.929 . S
H3697 C3706 0.930 . S
H3698 C3708 0.930 . S
H3699 C3711 0.929 . S
H3700 C3714 0.930 . S
H3701 C3716 0.960 . S
H3702 C3716 0.960 . S
H3703 C3716 0.960 . S
C3704 H3696 0.929 . S
C3704 C3705 1.377 . S
C3704 C3706 1.384 . S
C3705 C3704 1.377 . S
C3705 C3711 1.390 . S
C3706 H3697 0.930 . S
C3706 C3704 1.384 . S
C3706 C3707 1.372 . S
C3707 C3706 1.372 . S
C3707 C3708 1.400 . S
C3707 C3712 1.490 . S
C3708 H3698 0.930 . S
C3708 C3707 1.400 . S
C3708 C3711 1.386 . S
H3709 C3725 0.930 . S
H3710 C3726 0.931 . S
C3711 H3699 0.929 . S
C3711 C3705 1.390 . S
C3711 C3708 1.386 . S
C3712 C3707 1.490 . S
C3712 C3714 1.395 . S
C3712 C3715 1.403 . S
H3713 C3719 0.930 . S
C3714 H3700 0.930 . S
C3714 C3712 1.395 . S
C3714 C3717 1.403 1_655 S
C3715 C3712 1.403 . S
C3715 C3716 1.524 . S
C3715 C3719 1.400 1_655 S
C3716 H3701 0.960 . S
C3716 H3702 0.960 . S
C3716 H3703 0.960 . S
C3716 C3715 1.524 . S
C3717 C3714 1.403 1_455 S
C3717 C3718 1.392 . S
C3717 C3721 1.495 . S
C3718 C3717 1.392 . S
C3718 C3719 1.385 . S
C3718 C3720 1.478 . S
C3719 H3713 0.930 . S
C3719 C3715 1.400 1_455 S
C3719 C3718 1.385 . S
C3720 C3718 1.478 . S
C3720 C3722 1.381 . S
C3720 C3726 1.383 . S
C3721 C3717 1.495 . S
C3721 H3727 0.959 . S
C3721 H3728 0.961 . S
C3721 H3729 0.960 . S
C3722 C3720 1.381 . S
C3722 C3723 1.394 . S
C3722 H3730 0.930 . S
C3723 C3722 1.394 . S
C3723 C3724 1.383 . S
C3723 H3731 0.929 . S
C3724 C3723 1.383 . S
C3724 C3725 1.377 . S
C3725 H3709 0.930 . S
C3725 C3724 1.377 . S
C3725 C3726 1.379 . S
C3726 H3710 0.931 . S
C3726 C3720 1.383 . S
C3726 C3725 1.379 . S
H3727 C3721 0.959 . S
H3728 C3721 0.961 . S
H3729 C3721 0.960 . S
H3730 C3722 0.930 . S
H3731 C3723 0.929 . S
H3732 C3740 0.929 . S
H3733 C3742 0.930 . S
H3734 C3744 0.930 . S
H3735 C3747 0.929 . S
H3736 C3750 0.930 . S
H3737 C3752 0.960 . S
H3738 C3752 0.960 . S
H3739 C3752 0.960 . S
C3740 H3732 0.929 . S
C3740 C3741 1.377 . S
C3740 C3742 1.384 . S
C3741 C3740 1.377 . S
C3741 C3747 1.390 . S
C3742 H3733 0.930 . S
C3742 C3740 1.384 . S
C3742 C3743 1.372 . S
C3743 C3742 1.372 . S
C3743 C3744 1.400 . S
C3743 C3748 1.490 . S
C3744 H3734 0.930 . S
C3744 C3743 1.400 . S
C3744 C3747 1.386 . S
H3745 C3761 0.930 . S
H3746 C3762 0.931 . S
C3747 H3735 0.929 . S
C3747 C3741 1.390 . S
C3747 C3744 1.386 . S
C3748 C3743 1.490 . S
C3748 C3750 1.395 . S
C3748 C3751 1.403 . S
H3749 C3755 0.930 . S
C3750 H3736 0.930 . S
C3750 C3748 1.395 . S
C3750 C3753 1.403 1_545 S
C3751 C3748 1.403 . S
C3751 C3752 1.524 . S
C3751 C3755 1.400 1_545 S
C3752 H3737 0.960 . S
C3752 H3738 0.960 . S
C3752 H3739 0.960 . S
C3752 C3751 1.524 . S
C3753 C3750 1.403 1_565 S
C3753 C3754 1.392 . S
C3753 C3757 1.495 . S
C3754 C3753 1.392 . S
C3754 C3755 1.385 . S
C3754 C3756 1.478 . S
C3755 H3749 0.930 . S
C3755 C3751 1.400 1_565 S
C3755 C3754 1.385 . S
C3756 C3754 1.478 . S
C3756 C3758 1.381 . S
C3756 C3762 1.383 . S
C3757 C3753 1.495 . S
C3757 H3763 0.959 . S
C3757 H3764 0.961 . S
C3757 H3765 0.960 . S
C3758 C3756 1.381 . S
C3758 C3759 1.394 . S
C3758 H3766 0.930 . S
C3759 C3758 1.394 . S
C3759 C3760 1.383 . S
C3759 H3767 0.929 . S
C3760 C3759 1.383 . S
C3760 C3761 1.377 . S
C3761 H3745 0.930 . S
C3761 C3760 1.377 . S
C3761 C3762 1.379 . S
C3762 H3746 0.931 . S
C3762 C3756 1.383 . S
C3762 C3761 1.379 . S
H3763 C3757 0.959 . S
H3764 C3757 0.961 . S
H3765 C3757 0.960 . S
H3766 C3758 0.930 . S
H3767 C3759 0.929 . S
H3768 C3776 0.929 . S
H3769 C3778 0.930 . S
H3770 C3780 0.930 . S
H3771 C3783 0.929 . S
H3772 C3786 0.930 . S
H3773 C3788 0.960 . S
H3774 C3788 0.960 . S
H3775 C3788 0.960 . S
C3776 H3768 0.929 . S
C3776 C3777 1.377 . S
C3776 C3778 1.384 . S
C3777 C3776 1.377 . S
C3777 C3783 1.390 . S
C3778 H3769 0.930 . S
C3778 C3776 1.384 . S
C3778 C3779 1.372 . S
C3779 C3778 1.372 . S
C3779 C3780 1.400 . S
C3779 C3784 1.490 . S
C3780 H3770 0.930 . S
C3780 C3779 1.400 . S
C3780 C3783 1.386 . S
H3781 C3797 0.930 . S
H3782 C3798 0.931 . S
C3783 H3771 0.929 . S
C3783 C3777 1.390 . S
C3783 C3780 1.386 . S
C3784 C3779 1.490 . S
C3784 C3786 1.395 . S
C3784 C3787 1.403 . S
H3785 C3791 0.914 1_655 S
C3786 H3772 0.930 . S
C3786 C3784 1.395 . S
C3786 C3789 1.403 . S
C3787 C3784 1.403 . S
C3787 C3788 1.524 . S
C3787 C3791 1.428 . S
C3788 H3773 0.960 . S
C3788 H3774 0.960 . S
C3788 H3775 0.960 . S
C3788 C3787 1.524 . S
C3789 C3786 1.403 . S
C3789 C3790 1.392 1_455 S
C3789 C3793 1.495 1_455 S
C3790 C3789 1.392 1_655 S
C3790 C3791 1.373 1_655 S
C3790 C3792 1.478 . S
C3791 H3785 0.914 1_455 S
C3791 C3787 1.428 . S
C3791 C3790 1.373 1_455 S
C3792 C3790 1.478 . S
C3792 C3794 1.381 . S
C3792 C3798 1.383 . S
C3793 C3789 1.495 1_655 S
C3793 H3799 0.959 1_655 S
C3793 H3800 0.961 . S
C3793 H3801 0.960 . S
C3794 C3792 1.381 . S
C3794 C3795 1.394 . S
C3794 H3802 0.930 . S
C3795 C3794 1.394 . S
C3795 C3796 1.383 . S
C3795 H3803 0.929 . S
C3796 C3795 1.383 . S
C3796 C3797 1.377 . S
C3797 H3781 0.930 . S
C3797 C3796 1.377 . S
C3797 C3798 1.379 . S
C3798 H3782 0.931 . S
C3798 C3792 1.383 . S
C3798 C3797 1.379 . S
H3799 C3793 0.959 1_455 S
H3800 C3793 0.961 . S
H3801 C3793 0.960 . S
H3802 C3794 0.930 . S
H3803 C3795 0.929 . S
H3804 C3812 0.929 . S
H3805 C3814 0.930 . S
H3806 C3816 0.930 . S
H3807 C3819 0.929 . S
H3808 C3822 0.930 . S
H3809 C3824 0.960 . S
H3810 C3824 0.960 . S
H3811 C3824 0.960 . S
C3812 H3804 0.929 . S
C3812 C3813 1.377 . S
C3812 C3814 1.384 . S
C3813 C3812 1.377 . S
C3813 C3819 1.390 . S
C3814 H3805 0.930 . S
C3814 C3812 1.384 . S
C3814 C3815 1.372 . S
C3815 C3814 1.372 . S
C3815 C3816 1.400 . S
C3815 C3820 1.490 . S
C3816 H3806 0.930 . S
C3816 C3815 1.400 . S
C3816 C3819 1.386 . S
H3817 C3833 0.930 . S
H3818 C3834 0.931 . S
C3819 H3807 0.929 . S
C3819 C3813 1.390 . S
C3819 C3816 1.386 . S
C3820 C3815 1.490 . S
C3820 C3822 1.395 . S
C3820 C3823 1.403 . S
H3821 C3827 0.930 . S
C3822 H3808 0.930 . S
C3822 C3820 1.395 . S
C3822 C3825 1.403 1_545 S
C3823 C3820 1.403 . S
C3823 C3824 1.524 . S
C3823 C3827 1.400 1_545 S
C3824 H3809 0.960 . S
C3824 H3810 0.960 . S
C3824 H3811 0.960 . S
C3824 C3823 1.524 . S
C3825 C3822 1.403 1_565 S
C3825 C3826 1.392 . S
C3825 C3829 1.495 . S
C3826 C3825 1.392 . S
C3826 C3827 1.385 . S
C3826 C3828 1.478 . S
C3827 H3821 0.930 . S
C3827 C3823 1.400 1_565 S
C3827 C3826 1.385 . S
C3828 C3826 1.478 . S
C3828 C3830 1.381 . S
C3828 C3834 1.383 . S
C3829 C3825 1.495 . S
C3829 H3835 0.959 . S
C3829 H3836 0.961 . S
C3829 H3837 0.960 . S
C3830 C3828 1.381 . S
C3830 C3831 1.394 . S
C3830 H3838 0.930 . S
C3831 C3830 1.394 . S
C3831 C3832 1.383 . S
C3831 H3839 0.929 . S
C3832 C3831 1.383 . S
C3832 C3833 1.377 . S
C3833 H3817 0.930 . S
C3833 C3832 1.377 . S
C3833 C3834 1.379 . S
C3834 H3818 0.931 . S
C3834 C3828 1.383 . S
C3834 C3833 1.379 . S
H3835 C3829 0.959 . S
H3836 C3829 0.961 . S
H3837 C3829 0.960 . S
H3838 C3830 0.930 . S
H3839 C3831 0.929 . S
H3840 C3848 0.929 . S
H3841 C3850 0.930 . S
H3842 C3852 0.930 . S
H3843 C3855 0.929 . S
H3844 C3858 0.930 . S
H3845 C3860 0.960 . S
H3846 C3860 0.960 . S
H3847 C3860 0.960 . S
C3848 H3840 0.929 . S
C3848 C3849 1.377 . S
C3848 C3850 1.384 . S
C3849 C3848 1.377 . S
C3849 C3855 1.390 . S
C3850 H3841 0.930 . S
C3850 C3848 1.384 . S
C3850 C3851 1.372 . S
C3851 C3850 1.372 . S
C3851 C3852 1.400 . S
C3851 C3856 1.490 . S
C3852 H3842 0.930 . S
C3852 C3851 1.400 . S
C3852 C3855 1.386 . S
H3853 C3869 0.930 . S
H3854 C3870 0.931 . S
C3855 H3843 0.929 . S
C3855 C3849 1.390 . S
C3855 C3852 1.386 . S
C3856 C3851 1.490 . S
C3856 C3858 1.395 . S
C3856 C3859 1.403 . S
H3857 C3863 0.930 . S
C3858 H3844 0.930 . S
C3858 C3856 1.395 . S
C3858 C3861 1.403 1_545 S
C3859 C3856 1.403 . S
C3859 C3860 1.524 . S
C3859 C3863 1.400 1_545 S
C3860 H3845 0.960 . S
C3860 H3846 0.960 . S
C3860 H3847 0.960 . S
C3860 C3859 1.524 . S
C3861 C3858 1.403 1_565 S
C3861 C3862 1.392 . S
C3861 C3865 1.495 . S
C3862 C3861 1.392 . S
C3862 C3863 1.385 . S
C3862 C3864 1.478 . S
C3863 H3857 0.930 . S
C3863 C3859 1.400 1_565 S
C3863 C3862 1.385 . S
C3864 C3862 1.478 . S
C3864 C3866 1.381 . S
C3864 C3870 1.383 . S
C3865 C3861 1.495 . S
C3865 H3871 0.959 . S
C3865 H3872 0.961 . S
C3865 H3873 0.960 . S
C3866 C3864 1.381 . S
C3866 C3867 1.394 . S
C3866 H3874 0.930 . S
C3867 C3866 1.394 . S
C3867 C3868 1.383 . S
C3867 H3875 0.929 . S
C3868 C3867 1.383 . S
C3868 C3869 1.377 . S
C3869 H3853 0.930 . S
C3869 C3868 1.377 . S
C3869 C3870 1.379 . S
C3870 H3854 0.931 . S
C3870 C3864 1.383 . S
C3870 C3869 1.379 . S
H3871 C3865 0.959 . S
H3872 C3865 0.961 . S
H3873 C3865 0.960 . S
H3874 C3866 0.930 . S
H3875 C3867 0.929 . S
H3876 C3884 0.929 . S
H3877 C3886 0.930 . S
H3878 C3888 0.930 . S
H3879 C3891 0.929 . S
H3880 C3894 0.930 . S
H3881 C3896 0.960 1_565 S
H3882 C3896 0.960 . S
H3883 C3896 0.960 . S
C3884 H3876 0.929 . S
C3884 C3885 1.377 . S
C3884 C3886 1.384 . S
C3885 C3884 1.377 . S
C3885 C3891 1.390 . S
C3886 H3877 0.930 . S
C3886 C3884 1.384 . S
C3886 C3887 1.372 . S
C3887 C3886 1.372 . S
C3887 C3888 1.400 . S
C3887 C3892 1.490 . S
C3888 H3878 0.930 . S
C3888 C3887 1.400 . S
C3888 C3891 1.386 . S
H3889 C3905 0.930 . S
H3890 C3906 0.931 . S
C3891 H3879 0.929 . S
C3891 C3885 1.390 . S
C3891 C3888 1.386 . S
C3892 C3887 1.490 . S
C3892 C3894 1.395 . S
C3892 C3895 1.393 1_545 S
H3893 C3899 0.930 . S
C3894 H3880 0.930 . S
C3894 C3892 1.395 . S
C3894 C3897 1.403 1_545 S
C3895 C3892 1.393 1_565 S
C3895 C3896 1.517 1_565 S
C3895 C3899 1.417 . S
C3896 H3881 0.960 1_545 S
C3896 H3882 0.960 . S
C3896 H3883 0.960 . S
C3896 C3895 1.517 1_545 S
C3897 C3894 1.403 1_565 S
C3897 C3898 1.392 . S
C3897 C3901 1.495 . S
C3898 C3897 1.392 . S
C3898 C3899 1.385 . S
C3898 C3900 1.478 . S
C3899 H3893 0.930 . S
C3899 C3895 1.417 . S
C3899 C3898 1.385 . S
C3900 C3898 1.478 . S
C3900 C3902 1.381 . S
C3900 C3906 1.383 . S
C3901 C3897 1.495 . S
C3901 H3907 0.959 . S
C3901 H3908 0.961 . S
C3901 H3909 0.960 . S
C3902 C3900 1.381 . S
C3902 C3903 1.394 . S
C3902 H3910 0.930 . S
C3903 C3902 1.394 . S
C3903 C3904 1.383 . S
C3903 H3911 0.929 . S
C3904 C3903 1.383 . S
C3904 C3905 1.377 . S
C3905 H3889 0.930 . S
C3905 C3904 1.377 . S
C3905 C3906 1.379 . S
C3906 H3890 0.931 . S
C3906 C3900 1.383 . S
C3906 C3905 1.379 . S
H3907 C3901 0.959 . S
H3908 C3901 0.961 . S
H3909 C3901 0.960 . S
H3910 C3902 0.930 . S
H3911 C3903 0.929 . S
H3912 C3920 0.929 . S
H3913 C3922 0.930 . S
H3914 C3924 0.930 . S
H3915 C3927 0.929 . S
H3916 C3930 0.930 . S
H3917 C3932 0.960 . S
H3918 C3932 0.960 . S
H3919 C3932 0.960 . S
C3920 H3912 0.929 . S
C3920 C3921 1.377 . S
C3920 C3922 1.384 . S
C3921 C3920 1.377 . S
C3921 C3927 1.390 . S
C3922 H3913 0.930 . S
C3922 C3920 1.384 . S
C3922 C3923 1.372 . S
C3923 C3922 1.372 . S
C3923 C3924 1.400 . S
C3923 C3928 1.490 . S
C3924 H3914 0.930 . S
C3924 C3923 1.400 . S
C3924 C3927 1.386 . S
H3925 C3941 0.930 . S
H3926 C3942 0.931 . S
C3927 H3915 0.929 . S
C3927 C3921 1.390 . S
C3927 C3924 1.386 . S
C3928 C3923 1.490 . S
C3928 C3930 1.395 . S
C3928 C3931 1.403 . S
H3929 C3935 0.930 . S
C3930 H3916 0.930 . S
C3930 C3928 1.395 . S
C3930 C3933 1.341 1_655 S
C3931 C3928 1.403 . S
C3931 C3932 1.524 . S
C3931 C3935 1.400 1_655 S
C3932 H3917 0.960 . S
C3932 H3918 0.960 . S
C3932 H3919 0.960 . S
C3932 C3931 1.524 . S
C3933 C3930 1.341 1_455 S
C3933 C3934 1.426 . S
C3933 C3937 1.524 . S
C3934 C3933 1.426 . S
C3934 C3935 1.385 . S
C3934 C3936 1.478 . S
C3935 H3929 0.930 . S
C3935 C3931 1.400 1_455 S
C3935 C3934 1.385 . S
C3936 C3934 1.478 . S
C3936 C3938 1.381 . S
C3936 C3942 1.383 . S
C3937 C3933 1.524 . S
C3937 H3943 1.013 . S
C3937 H3944 0.961 . S
C3937 H3945 0.960 . S
C3938 C3936 1.381 . S
C3938 C3939 1.394 . S
C3938 H3946 0.930 . S
C3939 C3938 1.394 . S
C3939 C3940 1.383 . S
C3939 H3947 0.929 . S
C3940 C3939 1.383 . S
C3940 C3941 1.377 . S
C3941 H3925 0.930 . S
C3941 C3940 1.377 . S
C3941 C3942 1.379 . S
C3942 H3926 0.931 . S
C3942 C3936 1.383 . S
C3942 C3941 1.379 . S
H3943 C3937 1.013 . S
H3944 C3937 0.961 . S
H3945 C3937 0.960 . S
H3946 C3938 0.930 . S
H3947 C3939 0.929 . S
H3948 C3956 0.929 . S
H3949 C3958 0.930 . S
H3950 C3960 0.930 . S
H3951 C3963 0.929 . S
H3952 C3966 0.930 . S
H3953 C3968 0.960 . S
H3954 C3968 0.960 . S
H3955 C3968 0.960 . S
C3956 H3948 0.929 . S
C3956 C3957 1.377 . S
C3956 C3958 1.384 . S
C3957 C3956 1.377 . S
C3957 C3963 1.390 . S
C3958 H3949 0.930 . S
C3958 C3956 1.384 . S
C3958 C3959 1.372 . S
C3959 C3958 1.372 . S
C3959 C3960 1.400 . S
C3959 C3964 1.490 . S
C3960 H3950 0.930 . S
C3960 C3959 1.400 . S
C3960 C3963 1.386 . S
H3961 C3977 0.930 . S
H3962 C3978 0.931 . S
C3963 H3951 0.929 . S
C3963 C3957 1.390 . S
C3963 C3960 1.386 . S
C3964 C3959 1.490 . S
C3964 C3966 1.395 . S
C3964 C3967 1.403 . S
H3965 C3971 0.967 . S
C3966 H3952 0.930 . S
C3966 C3964 1.395 . S
C3966 C3969 1.422 . S
C3967 C3964 1.403 . S
C3967 C3968 1.524 . S
C3967 C3971 1.336 1_545 S
C3968 H3953 0.960 . S
C3968 H3954 0.960 . S
C3968 H3955 0.960 . S
C3968 C3967 1.524 . S
C3969 C3966 1.422 . S
C3969 C3970 1.382 1_545 S
C3969 C3973 1.487 1_545 S
C3970 C3969 1.382 1_565 S
C3970 C3971 1.416 . S
C3970 C3972 1.478 . S
C3971 H3965 0.967 . S
C3971 C3967 1.336 1_565 S
C3971 C3970 1.416 . S
C3972 C3970 1.478 . S
C3972 C3974 1.381 . S
C3972 C3978 1.383 . S
C3973 C3969 1.487 1_565 S
C3973 H3979 0.914 1_565 S
C3973 H3980 0.961 . S
C3973 H3981 0.960 . S
C3974 C3972 1.381 . S
C3974 C3975 1.394 . S
C3974 H3982 0.930 . S
C3975 C3974 1.394 . S
C3975 C3976 1.383 . S
C3975 H3983 0.929 . S
C3976 C3975 1.383 . S
C3976 C3977 1.377 . S
C3977 H3961 0.930 . S
C3977 C3976 1.377 . S
C3977 C3978 1.379 . S
C3978 H3962 0.931 . S
C3978 C3972 1.383 . S
C3978 C3977 1.379 . S
H3979 C3973 0.914 1_545 S
H3980 C3973 0.961 . S
H3981 C3973 0.960 . S
H3982 C3974 0.930 . S
H3983 C3975 0.929 . S
H3984 C3992 0.929 . S
H3985 C3994 0.930 . S
H3986 C3996 0.930 . S
H3987 C3999 0.929 . S
H3988 C4002 0.930 . S
H3989 C4004 0.960 . S
H3990 C4004 0.960 . S
H3991 C4004 0.960 . S
C3992 H3984 0.929 . S
C3992 C3993 1.377 . S
C3992 C3994 1.384 . S
C3993 C3992 1.377 . S
C3993 C3999 1.390 . S
C3994 H3985 0.930 . S
C3994 C3992 1.384 . S
C3994 C3995 1.372 . S
C3995 C3994 1.372 . S
C3995 C3996 1.400 . S
C3995 C4000 1.490 . S
C3996 H3986 0.930 . S
C3996 C3995 1.400 . S
C3996 C3999 1.386 . S
H3997 C4013 0.930 . S
H3998 C4014 0.931 . S
C3999 H3987 0.929 . S
C3999 C3993 1.390 . S
C3999 C3996 1.386 . S
C4000 C3995 1.490 . S
C4000 C4002 1.395 . S
C4000 C4003 1.403 . S
H4001 C4007 0.930 . S
C4002 H3988 0.930 . S
C4002 C4000 1.395 . S
C4002 C4005 1.403 1_455 S
C4003 C4000 1.403 . S
C4003 C4004 1.524 . S
C4003 C4007 1.400 1_455 S
C4004 H3989 0.960 . S
C4004 H3990 0.960 . S
C4004 H3991 0.960 . S
C4004 C4003 1.524 . S
C4005 C4002 1.403 1_655 S
C4005 C4006 1.392 . S
C4005 C4009 1.495 . S
C4006 C4005 1.392 . S
C4006 C4007 1.385 . S
C4006 C4008 1.478 . S
C4007 H4001 0.930 . S
C4007 C4003 1.400 1_655 S
C4007 C4006 1.385 . S
C4008 C4006 1.478 . S
C4008 C4010 1.381 . S
C4008 C4014 1.383 . S
C4009 C4005 1.495 . S
C4009 H4015 0.990 . S
C4009 H4016 0.961 . S
C4009 H4017 0.960 . S
C4010 C4008 1.381 . S
C4010 C4011 1.394 . S
C4010 H4018 0.930 . S
C4011 C4010 1.394 . S
C4011 C4012 1.383 . S
C4011 H4019 0.929 . S
C4012 C4011 1.383 . S
C4012 C4013 1.377 . S
C4013 H3997 0.930 . S
C4013 C4012 1.377 . S
C4013 C4014 1.379 . S
C4014 H3998 0.931 . S
C4014 C4008 1.383 . S
C4014 C4013 1.379 . S
H4015 C4009 0.990 . S
H4016 C4009 0.961 . S
H4017 C4009 0.960 . S
H4018 C4010 0.930 . S
H4019 C4011 0.929 . S
H4020 C4028 0.929 . S
H4021 C4030 0.930 . S
H4022 C4032 0.930 . S
H4023 C4035 0.929 . S
H4024 C4038 0.930 . S
H4025 C4040 0.960 . S
H4026 C4040 0.960 . S
H4027 C4040 0.960 . S
C4028 H4020 0.929 . S
C4028 C4029 1.377 . S
C4028 C4030 1.384 . S
C4029 C4028 1.377 . S
C4029 C4035 1.390 . S
C4030 H4021 0.930 . S
C4030 C4028 1.384 . S
C4030 C4031 1.372 . S
C4031 C4030 1.372 . S
C4031 C4032 1.400 . S
C4031 C4036 1.490 . S
C4032 H4022 0.930 . S
C4032 C4031 1.400 . S
C4032 C4035 1.386 . S
H4033 C4049 0.930 . S
H4034 C4050 0.931 . S
C4035 H4023 0.929 . S
C4035 C4029 1.390 . S
C4035 C4032 1.386 . S
C4036 C4031 1.490 . S
C4036 C4038 1.395 . S
C4036 C4039 1.403 . S
H4037 C4043 0.930 . S
C4038 H4024 0.930 . S
C4038 C4036 1.395 . S
C4038 C4041 1.403 1_545 S
C4039 C4036 1.403 . S
C4039 C4040 1.524 . S
C4039 C4043 1.400 1_545 S
C4040 H4025 0.960 . S
C4040 H4026 0.960 . S
C4040 H4027 0.960 . S
C4040 C4039 1.524 . S
C4041 C4038 1.403 1_565 S
C4041 C4042 1.392 . S
C4041 C4045 1.495 . S
C4042 C4041 1.392 . S
C4042 C4043 1.385 . S
C4042 C4044 1.478 . S
C4043 H4037 0.930 . S
C4043 C4039 1.400 1_565 S
C4043 C4042 1.385 . S
C4044 C4042 1.478 . S
C4044 C4046 1.381 . S
C4044 C4050 1.383 . S
C4045 C4041 1.495 . S
C4045 H4051 0.959 . S
C4045 H4052 0.961 . S
C4045 H4053 0.960 . S
C4046 C4044 1.381 . S
C4046 C4047 1.394 . S
C4046 H4054 0.930 . S
C4047 C4046 1.394 . S
C4047 C4048 1.383 . S
C4047 H4055 0.929 . S
C4048 C4047 1.383 . S
C4048 C4049 1.377 . S
C4049 H4033 0.930 . S
C4049 C4048 1.377 . S
C4049 C4050 1.379 . S
C4050 H4034 0.931 . S
C4050 C4044 1.383 . S
C4050 C4049 1.379 . S
H4051 C4045 0.959 . S
H4052 C4045 0.961 . S
H4053 C4045 0.960 . S
H4054 C4046 0.930 . S
H4055 C4047 0.929 . S
H4056 C4064 0.929 . S
H4057 C4066 0.930 . S
H4058 C4068 0.930 . S
H4059 C4071 0.929 . S
H4060 C4074 0.930 . S
H4061 C4076 0.960 . S
H4062 C4076 0.960 . S
H4063 C4076 0.960 . S
C4064 H4056 0.929 . S
C4064 C4065 1.377 . S
C4064 C4066 1.384 . S
C4065 C4064 1.377 . S
C4065 C4071 1.390 . S
C4066 H4057 0.930 . S
C4066 C4064 1.384 . S
C4066 C4067 1.372 . S
C4067 C4066 1.372 . S
C4067 C4068 1.400 . S
C4067 C4072 1.490 . S
C4068 H4058 0.930 . S
C4068 C4067 1.400 . S
C4068 C4071 1.386 . S
H4069 C4085 0.930 . S
H4070 C4086 0.931 . S
C4071 H4059 0.929 . S
C4071 C4065 1.390 . S
C4071 C4068 1.386 . S
C4072 C4067 1.490 . S
C4072 C4074 1.395 . S
C4072 C4075 1.403 . S
H4073 C4079 0.930 . S
C4074 H4060 0.930 . S
C4074 C4072 1.395 . S
C4074 C4077 1.403 1_655 S
C4075 C4072 1.403 . S
C4075 C4076 1.524 . S
C4075 C4079 1.400 1_655 S
C4076 H4061 0.960 . S
C4076 H4062 0.960 . S
C4076 H4063 0.960 . S
C4076 C4075 1.524 . S
C4077 C4074 1.403 1_455 S
C4077 C4078 1.392 . S
C4077 C4081 1.495 . S
C4078 C4077 1.392 . S
C4078 C4079 1.385 . S
C4078 C4080 1.478 . S
C4079 H4073 0.930 . S
C4079 C4075 1.400 1_455 S
C4079 C4078 1.385 . S
C4080 C4078 1.478 . S
C4080 C4082 1.381 . S
C4080 C4086 1.383 . S
C4081 C4077 1.495 . S
C4081 H4087 0.959 . S
C4081 H4088 0.961 . S
C4081 H4089 0.960 . S
C4082 C4080 1.381 . S
C4082 C4083 1.394 . S
C4082 H4090 0.930 . S
C4083 C4082 1.394 . S
C4083 C4084 1.383 . S
C4083 H4091 0.929 . S
C4084 C4083 1.383 . S
C4084 C4085 1.377 . S
C4085 H4069 0.930 . S
C4085 C4084 1.377 . S
C4085 C4086 1.379 . S
C4086 H4070 0.931 . S
C4086 C4080 1.383 . S
C4086 C4085 1.379 . S
H4087 C4081 0.959 . S
H4088 C4081 0.961 . S
H4089 C4081 0.960 . S
H4090 C4082 0.930 . S
H4091 C4083 0.929 . S
H4092 C4100 0.929 . S
H4093 C4102 0.930 . S
H4094 C4104 0.930 . S
H4095 C4107 0.929 . S
H4096 C4110 0.930 . S
H4097 C4112 0.960 . S
H4098 C4112 0.960 . S
H4099 C4112 0.960 . S
C4100 H4092 0.929 . S
C4100 C4101 1.377 . S
C4100 C4102 1.384 . S
C4101 C4100 1.377 . S
C4101 C4107 1.390 . S
C4102 H4093 0.930 . S
C4102 C4100 1.384 . S
C4102 C4103 1.372 . S
C4103 C4102 1.372 . S
C4103 C4104 1.400 . S
C4103 C4108 1.490 . S
C4104 H4094 0.930 . S
C4104 C4103 1.400 . S
C4104 C4107 1.386 . S
H4105 C4121 0.930 . S
H4106 C4122 0.931 . S
C4107 H4095 0.929 . S
C4107 C4101 1.390 . S
C4107 C4104 1.386 . S
C4108 C4103 1.490 . S
C4108 C4110 1.395 . S
C4108 C4111 1.403 . S
H4109 C4115 0.930 . S
C4110 H4096 0.930 . S
C4110 C4108 1.395 . S
C4110 C4113 1.403 1_455 S
C4111 C4108 1.403 . S
C4111 C4112 1.524 . S
C4111 C4115 1.400 1_455 S
C4112 H4097 0.960 . S
C4112 H4098 0.960 . S
C4112 H4099 0.960 . S
C4112 C4111 1.524 . S
C4113 C4110 1.403 1_655 S
C4113 C4114 1.392 . S
C4113 C4117 1.495 . S
C4114 C4113 1.392 . S
C4114 C4115 1.385 . S
C4114 C4116 1.478 . S
C4115 H4109 0.930 . S
C4115 C4111 1.400 1_655 S
C4115 C4114 1.385 . S
C4116 C4114 1.478 . S
C4116 C4118 1.381 . S
C4116 C4122 1.383 . S
C4117 C4113 1.495 . S
C4117 H4123 0.959 . S
C4117 H4124 0.961 . S
C4117 H4125 0.960 . S
C4118 C4116 1.381 . S
C4118 C4119 1.394 . S
C4118 H4126 0.930 . S
C4119 C4118 1.394 . S
C4119 C4120 1.383 . S
C4119 H4127 0.929 . S
C4120 C4119 1.383 . S
C4120 C4121 1.377 . S
C4121 H4105 0.930 . S
C4121 C4120 1.377 . S
C4121 C4122 1.379 . S
C4122 H4106 0.931 . S
C4122 C4116 1.383 . S
C4122 C4121 1.379 . S
H4123 C4117 0.959 . S
H4124 C4117 0.961 . S
H4125 C4117 0.960 . S
H4126 C4118 0.930 . S
H4127 C4119 0.929 . S
C681 C557 0.986 . S
C700 C5 0.943 . S
C717 C25 1.190 . S
C736 C509 1.102 . S
C753 C33 0.988 . S
C772 C529 1.090 . S
C789 C537 1.078 . S
C808 C53 1.157 . S
C825 C473 1.110 . S
C844 C67 1.114 . S
C861 C75 0.997 . S
C880 C481 0.940 . S
C897 C95 1.106 . S
C916 C501 1.089 . S
C933 C103 0.932 . S
C952 C453 0.884 . S
C969 C117 0.965 . S
C988 C439 1.023 . S
C1005 C403 1.135 . S
C1024 C137 1.127 . S
C1041 C411 0.986 . S
C1060 C145 0.938 . S
C1077 C159 1.042 . S
C1096 C431 1.100 . S
C1113 C173 1.014 . S
C1132 C361 1.119 . S
C1149 C187 0.952 . S
C1168 C375 1.032 . S
C1185 C389 1.112 . S
C1204 C207 1.118 . S
C1221 C347 1.021 . S
C1240 C215 0.952 . S
C1257 C235 1.043 . S
C1276 C621 0.989 . S
C1293 C663 1.113 . S
C1312 C243 1.103 . S
C1329 C641 1.068 . S
C1348 C263 1.104 . S
C1365 C649 1.071 . S
C1384 C271 1.017 . S
C1401 C571 1.040 . S
C1420 C291 1.078 . S
C1437 C593 1.007 . S
C1456 C305 1.095 . S
C1473 C313 1.046 . S
C1492 C607 1.024 . S
C1509 C579 1.019 . S
C1528 C327 1.002 . S
C1545 C459 0.998 . S
C1564 C285 0.950 . S
C1581 C249 1.213 . S
C1600 C467 1.152 . S
C1617 C487 1.081 . S
C1636 C257 1.036 . S
C1653 C495 1.111 . S
C1672 C277 1.178 . S
C1689 C333 1.116 . S
C1708 C515 1.082 . S
C1725 C523 0.998 . S
C1744 C299 1.004 . S
C1761 C319 1.109 . S
C1780 C543 1.095 . S
C1797 C229 0.912 . S
C1816 C551 0.933 . S
C1833 C565 0.960 . S
C1852 C221 1.025 . S
C1869 C179 1.147 . S
C1888 C669 1.124 . S
C1905 C635 0.981 . S
C1924 C193 1.053 . S
C1941 C201 1.067 . S
C1960 C655 1.132 . S
C1977 C131 1.000 . S
C1996 C585 1.081 . S
C2013 C151 1.015 . S
C2032 C599 1.005 . S
C2049 C165 1.117 . S
C2068 C613 1.137 . S
C2085 C627 1.003 . S
C2104 C123 1.035 . S
C2121 C341 0.940 . S
C2140 C109 1.007 . S
C2157 C397 1.076 . S
C2176 C19 1.029 . S
C2193 C417 1.039 . S
C2212 C39 1.044 . S
C2229 C425 1.035 . S
C2248 C47 1.039 . S
C2265 C445 1.008 . S
C2284 C11 1.037 . S
C2301 C81 1.037 . S
C2320 C369 0.966 . S
C2337 C383 1.008 . S
C2356 C89 1.066 . S
C2373 C355 0.975 . S
C2392 C61 0.957 . S
C2409 C12 1.035 . S
C2428 C368 1.025 . S
C2445 C382 1.155 . S
C2464 C18 1.132 . S
C2481 C40 1.032 . S
C2500 C340 0.992 . S
C2517 C46 1.156 . S
C2536 C354 1.137 . S
C2553 C60 1.110 . S
C2572 C424 1.124 . S
C2589 C446 0.871 . S
C2608 C82 0.847 . S
C2625 C88 1.100 . S
C2644 C396 1.118 . S
C2661 C418 0.870 . S
C2680 C110 0.860 . S
C2697 C124 1.157 . S
C2716 C516 1.155 . S
C2733 C522 1.145 . S
C2752 C130 1.162 . S
C2769 C152 1.162 . S
C2788 C544 1.173 . S
C2805 C166 1.001 . S
C2824 C550 1.025 . S
C2841 C180 0.983 . S
C2860 C460 0.973 . S
C2877 C194 1.084 . S
C2896 C466 1.062 . S
C2913 C488 1.151 . S
C2932 C200 1.153 . S
C2949 C222 1.079 . S
C2968 C494 1.045 . S
C2985 C614 1.086 . S
C3004 C228 1.047 . S
C3021 C250 1.080 . S
C3040 C634 1.054 . S
C3057 C256 1.156 . S
C3076 C656 1.178 . S
C3093 C564 1.036 . S
C3112 C278 1.031 . S
C3129 C670 1.237 . S
C3148 C284 1.224 . S
C3165 C298 1.000 . S
C3184 C586 0.997 . S
C3201 C600 1.103 . S
C3220 C320 1.092 . S
C3237 C334 1.069 . S
C3256 C628 1.062 . S
C3273 C592 1.031 . S
C3292 C292 1.061 . S
C3309 C242 1.150 . S
C3328 C606 1.172 . S
C3345 C620 1.037 . S
C3364 C264 1.044 . S
C3381 C578 1.160 . S
C3400 C270 1.132 . S
C3417 C648 1.128 . S
C3436 C326 1.102 . S
C3453 C306 0.881 . S
C3472 C572 0.878 . S
C3489 C662 1.114 . S
C3508 C312 1.074 . S
C3525 C236 0.887 . S
C3544 C642 0.904 . S
C3561 C474 1.189 . S
C3580 C214 1.183 . S
C3597 C172 1.137 . S
C3616 C480 1.113 . S
C3633 C186 1.184 . S
C3652 C502 1.189 . S
C3669 C452 0.984 . S
C3688 C208 1.018 . S
C3705 C138 0.976 . S
C3724 C558 0.978 . S
C3741 C508 1.062 . S
C3760 C144 1.040 . S
C3777 C158 1.126 . S
C3796 C530 1.151 . S
C3813 C116 1.062 . S
C3832 C536 1.024 . S
C3849 C390 1.066 . S
C3868 C102 1.063 . S
C3885 C26 0.994 . S
C3904 C410 1.012 . S
C3921 C32 1.114 . S
C3940 C432 1.124 . S
C3957 C438 0.943 . S
C3976 C54 0.973 . S
C3993 C4 1.186 . S
C4012 C404 1.211 . S
C4029 C74 0.971 . S
C4048 C362 0.975 . S
C4065 C96 1.023 . S
C4084 C376 1.018 . S
C4101 C68 0.981 . S
C4120 C348 0.998 . S
