# Generated by pormake.
# Topology uot, (4)-cn, num edge types: 1
# Building blocks:
#     Node 0, Type 0, BuildingBlock: KUFVIS_clean_sbu_0, # of connection points: 4
#     Node 1, Type 0, BuildingBlock: KUFVIS_clean_sbu_0, # of connection points: 4
#     Node 2, Type 0, BuildingBlock: KUFVIS_clean_sbu_0, # of connection points: 4
#     Node 3, Type 0, BuildingBlock: KUFVIS_clean_sbu_0, # of connection points: 4
#     Node 4, Type 0, BuildingBlock: KUFVIS_clean_sbu_0, # of connection points: 4
#     Node 5, Type 0, BuildingBlock: KUFVIS_clean_sbu_0, # of connection points: 4
#     Node 6, Type 0, BuildingBlock: KUFVIS_clean_sbu_0, # of connection points: 4
#     Node 7, Type 0, BuildingBlock: KUFVIS_clean_sbu_0, # of connection points: 4
#     Node 8, Type 0, BuildingBlock: KUFVIS_clean_sbu_0, # of connection points: 4
#     Node 9, Type 0, BuildingBlock: KUFVIS_clean_sbu_0, # of connection points: 4
#     Node 10, Type 0, BuildingBlock: KUFVIS_clean_sbu_0, # of connection points: 4
#     Node 11, Type 0, BuildingBlock: KUFVIS_clean_sbu_0, # of connection points: 4
#     Node 12, Type 0, BuildingBlock: KUFVIS_clean_sbu_0, # of connection points: 4
#     Node 13, Type 0, BuildingBlock: KUFVIS_clean_sbu_0, # of connection points: 4
#     Node 14, Type 0, BuildingBlock: KUFVIS_clean_sbu_0, # of connection points: 4
#     Node 15, Type 0, BuildingBlock: KUFVIS_clean_sbu_0, # of connection points: 4
#     Edge 16, Type (0, 0), None
#     Edge 17, Type (0, 0), None
#     Edge 18, Type (0, 0), None
#     Edge 19, Type (0, 0), None
#     Edge 20, Type (0, 0), None
#     Edge 21, Type (0, 0), None
#     Edge 22, Type (0, 0), None
#     Edge 23, Type (0, 0), None
#     Edge 24, Type (0, 0), None
#     Edge 25, Type (0, 0), None
#     Edge 26, Type (0, 0), None
#     Edge 27, Type (0, 0), None
#     Edge 28, Type (0, 0), None
#     Edge 29, Type (0, 0), None
#     Edge 30, Type (0, 0), None
#     Edge 31, Type (0, 0), None
#     Edge 32, Type (0, 0), None
#     Edge 33, Type (0, 0), None
#     Edge 34, Type (0, 0), None
#     Edge 35, Type (0, 0), None
#     Edge 36, Type (0, 0), None
#     Edge 37, Type (0, 0), None
#     Edge 38, Type (0, 0), None
#     Edge 39, Type (0, 0), None
#     Edge 40, Type (0, 0), None
#     Edge 41, Type (0, 0), None
#     Edge 42, Type (0, 0), None
#     Edge 43, Type (0, 0), None
#     Edge 44, Type (0, 0), None
#     Edge 45, Type (0, 0), None
#     Edge 46, Type (0, 0), None
#     Edge 47, Type (0, 0), None
# Relax obj value: 0.078
# Max RMSD: 0.119
# Mean RMSD: 0.119
data_MOF--net-uot--node1-KUFVIS_clean_sbu_0--edge1-none
_symmetry_space_group_name_H-M    P1
_symmetry_Int_Tables_number       1
_symmetry_cell_setting            triclinic
loop_
_symmetry_equiv_pos_as_xyz
'x, y, z'
_cell_length_a     20.129722
_cell_length_b     20.259266
_cell_length_c     18.418167
_cell_angle_alpha  90.005477
_cell_angle_beta   89.908997
_cell_angle_gamma 89.237465
loop_
_atom_site_label
_atom_site_type_symbol
_atom_site_fract_x
_atom_site_fract_y
_atom_site_fract_z
_atom_type_partial_charge
Mn0 Mn 0.21339 0.48624 0.29887 0.0
Mn1 Mn 0.19277 0.3555 0.39747 0.0
C2 C 0.12601 0.41022 0.26337 0.0
C3 C 0.12947 0.5633 0.24408 0.0
C4 C 0.31442 0.37318 0.31606 0.0
O5 O 0.24915 0.50886 0.40313 0.0
O6 O 0.20058 0.4306 0.47098 0.0
C7 C 0.08998 0.35359 0.51536 0.0
N8 N 0.1133 0.32423 0.43962 0.0
C9 C 0.01287 0.22843 0.39511 0.0
C10 C 0.96201 0.24172 0.46623 0.0
C11 C 0.01718 0.33008 0.5536 0.0
C12 C 0.08509 0.26956 0.38764 0.0
H13 H 0.11877 0.38922 0.54451 0.0
C14 C 0.22555 0.48919 0.46436 0.0
O15 O 0.16111 0.51925 0.20658 0.0
O16 O 0.14095 0.55815 0.3121 0.0
N17 N 0.17974 0.28907 0.31868 0.0
C18 C 0.20193 0.29388 0.24769 0.0
C19 C 0.17014 0.2629 0.18983 0.0
C20 C 0.1192 0.2196 0.20384 0.0
C21 C 0.09725 0.21124 0.2747 0.0
C22 C 0.12407 0.25256 0.32959 0.0
H23 H 0.23855 0.32613 0.22953 0.0
O24 O 0.15985 0.44347 0.21733 0.0
O25 O 0.14601 0.41814 0.32989 0.0
O26 O 0.29201 0.41322 0.26771 0.0
O27 O 0.2846 0.38051 0.37469 0.0
C28 C 0.0426 0.17021 0.28681 0.0
C29 C 0.00044 0.179 0.3458 0.0
H30 H 0.915 0.21526 0.46893 0.0
H31 H 0.00054 0.35288 0.60425 0.0
H32 H 0.18695 0.2705 0.13458 0.0
H33 H 0.09758 0.19237 0.15939 0.0
H34 H 0.02847 0.13467 0.24578 0.0
H35 H 0.95668 0.14908 0.3512 0.0
Mn36 Mn 0.49532 0.78422 0.68153 0.0
Mn37 Mn 0.36301 0.80514 0.58584 0.0
C38 C 0.41704 0.87156 0.71856 0.0
C39 C 0.5714 0.86785 0.73523 0.0
C40 C 0.38378 0.68359 0.66306 0.0
O41 O 0.51907 0.75055 0.57614 0.0
O42 O 0.43687 0.79784 0.51118 0.0
C43 C 0.35961 0.90775 0.47082 0.0
N44 N 0.3303 0.88438 0.54609 0.0
C45 C 0.2279 0.98147 0.58864 0.0
C46 C 0.23884 0.03137 0.51664 0.0
C47 C 0.33235 0.97816 0.43172 0.0
C48 C 0.27353 0.9113 0.59746 0.0
H49 H 0.39806 0.88117 0.44229 0.0
C50 C 0.49691 0.77441 0.51587 0.0
O51 O 0.52872 0.83608 0.77337 0.0
O52 O 0.56559 0.85635 0.66746 0.0
N53 N 0.29722 0.81751 0.66615 0.0
C54 C 0.3031 0.79427 0.73665 0.0
C55 C 0.27285 0.82595 0.79561 0.0
C56 C 0.23022 0.87891 0.78335 0.0
C57 C 0.21955 0.90104 0.71278 0.0
C58 C 0.25928 0.87322 0.65642 0.0
H59 H 0.33435 0.75553 0.75342 0.0
O60 O 0.45118 0.83756 0.76435 0.0
O61 O 0.42544 0.85136 0.65218 0.0
O62 O 0.42361 0.70535 0.71184 0.0
O63 O 0.39079 0.71388 0.60534 0.0
C64 C 0.17601 0.95497 0.70138 0.0
C65 C 0.17936 0.9943 0.6397 0.0
H66 H 0.21087 0.078 0.5136 0.0
H67 H 0.35939 0.99655 0.38525 0.0
H68 H 0.28046 0.80773 0.85032 0.0
H69 H 0.2021 0.8991 0.82829 0.0
H70 H 0.1419 0.9701 0.74406 0.0
H71 H 0.14692 0.03699 0.63419 0.0
Mn72 Mn 0.78595 0.50593 0.2946 0.0
Mn73 Mn 0.80703 0.63647 0.39085 0.0
C74 C 0.87446 0.57981 0.25848 0.0
C75 C 0.87316 0.42692 0.24569 0.0
C76 C 0.68396 0.61949 0.31093 0.0
O77 O 0.7468 0.48641 0.39713 0.0
O78 O 0.79757 0.5625 0.46578 0.0
C79 C 0.9104 0.64012 0.50843 0.0
N80 N 0.8877 0.66695 0.43137 0.0
C81 C 0.98658 0.76424 0.38586 0.0
C82 C 0.03591 0.7547 0.45848 0.0
C83 C 0.98175 0.66709 0.54767 0.0
C84 C 0.91583 0.72079 0.37811 0.0
H85 H 0.88175 0.6045 0.53787 0.0
C86 C 0.76961 0.50526 0.45853 0.0
O87 O 0.84179 0.46928 0.20619 0.0
O88 O 0.85896 0.43392 0.31279 0.0
N89 N 0.82081 0.70078 0.31008 0.0
C90 C 0.79737 0.69568 0.23957 0.0
C91 C 0.82958 0.72405 0.18035 0.0
C92 C 0.88289 0.76482 0.19232 0.0
C93 C 0.9053 0.77471 0.26273 0.0
C94 C 0.87749 0.736 0.31926 0.0
H95 H 0.75757 0.66704 0.22279 0.0
O96 O 0.84102 0.54607 0.21265 0.0
O97 O 0.85351 0.57297 0.3249 0.0
O98 O 0.70731 0.57964 0.2623 0.0
O99 O 0.71434 0.61233 0.36921 0.0
C100 C 0.95926 0.81679 0.27383 0.0
C101 C 0.99917 0.81223 0.33496 0.0
H102 H 0.08195 0.78276 0.46127 0.0
H103 H 0.9979 0.6465 0.59959 0.0
H104 H 0.81101 0.71703 0.12574 0.0
H105 H 0.90332 0.79207 0.14732 0.0
H106 H 0.974 0.85063 0.23132 0.0
H107 H 0.04188 0.8437 0.34046 0.0
Mn108 Mn 0.50827 0.20369 0.67881 0.0
Mn109 Mn 0.63924 0.18689 0.58114 0.0
C110 C 0.58596 0.11745 0.71502 0.0
C111 C 0.4306 0.12037 0.73061 0.0
C112 C 0.61586 0.30696 0.66236 0.0
O113 O 0.48617 0.24037 0.57462 0.0
O114 O 0.5656 0.19165 0.50677 0.0
C115 C 0.65064 0.08501 0.46484 0.0
N116 N 0.67586 0.10809 0.5419 0.0
C117 C 0.77267 0.00843 0.59238 0.0
C118 C 0.76432 0.95785 0.52021 0.0
C119 C 0.67804 0.01303 0.42813 0.0
C120 C 0.72895 0.07991 0.59708 0.0
H121 H 0.61575 0.11384 0.43353 0.0
C122 C 0.50643 0.21681 0.51356 0.0
O123 O 0.47396 0.15047 0.76931 0.0
O124 O 0.43708 0.13254 0.66298 0.0
N125 N 0.70404 0.17785 0.66153 0.0
C126 C 0.69294 0.2055 0.73105 0.0
C127 C 0.72249 0.1739 0.79071 0.0
C128 C 0.76662 0.1206 0.78214 0.0
C129 C 0.77975 0.0941 0.71361 0.0
C130 C 0.74274 0.11901 0.65487 0.0
H131 H 0.68638 0.20545 0.67473 0.0
O132 O 0.55033 0.15015 0.76073 0.0
O133 O 0.57824 0.13733 0.64812 0.0
O134 O 0.58106 0.2798 0.7121 0.0
O135 O 0.6089 0.27827 0.6031 0.0
C136 C 0.82195 0.03847 0.70637 0.0
C137 C 0.81924 0.99657 0.64612 0.0
H138 H 0.79232 0.91118 0.51876 0.0
H139 H 0.65808 0.99696 0.37611 0.0
H140 H 0.71342 0.19363 0.84447 0.0
H141 H 0.79159 0.10116 0.82963 0.0
H142 H 0.85447 0.02455 0.75081 0.0
H143 H 0.85111 0.95328 0.64345 0.0
Mn144 Mn 0.20282 0.54645 0.69152 0.0
Mn145 Mn 0.18019 0.67844 0.58963 0.0
C146 C 0.12535 0.62287 0.72879 0.0
C147 C 0.15381 0.44438 0.72915 0.0
C148 C 0.31337 0.6524 0.67055 0.0
O149 O 0.23153 0.50952 0.59232 0.0
O150 O 0.20623 0.59858 0.52224 0.0
C151 C 0.07693 0.6465 0.47673 0.0
N152 N 0.09517 0.69052 0.54448 0.0
C153 C 0.98193 0.78259 0.56793 0.0
C154 C 0.93533 0.75297 0.49992 0.0
C155 C 0.00315 0.65656 0.43359 0.0
C156 C 0.05832 0.75032 0.58436 0.0
H157 H 0.10955 0.60818 0.45685 0.0
C158 C 0.22371 0.5362 0.52973 0.0
O159 O 0.21161 0.46316 0.74766 0.0
O160 O 0.1236 0.48423 0.68635 0.0
N161 N 0.15319 0.74999 0.65698 0.0
C162 C 0.17123 0.74928 0.73068 0.0
C163 C 0.13211 0.7873 0.77896 0.0
C164 C 0.08411 0.83227 0.7544 0.0
C165 C 0.06157 0.82847 0.68298 0.0
C166 C 0.09312 0.78167 0.63671 0.0
H167 H 0.18247 0.73828 0.67625 0.0
O168 O 0.15963 0.59014 0.77581 0.0
O169 O 0.14417 0.61684 0.66107 0.0
O170 O 0.29595 0.60014 0.70593 0.0
O171 O 0.27208 0.67884 0.62704 0.0
C172 C 1.00027 0.85881 0.6654 0.0
C173 C 0.96094 0.83631 0.60863 0.0
H174 H 0.88517 0.77315 0.49179 0.0
H175 H 0.99004 0.62159 0.39143 0.0
H176 H 0.14198 0.78382 0.83661 0.0
H177 H 0.05857 0.86321 0.79386 0.0
H178 H 0.9793 0.89652 0.70075 0.0
H179 H 0.91292 0.85896 0.59835 0.0
Mn180 Mn 0.5451 0.80679 0.28734 0.0
Mn181 Mn 0.68371 0.81858 0.38548 0.0
C182 C 0.62431 0.88054 0.25077 0.0
C183 C 0.43881 0.85907 0.2504 0.0
C184 C 0.65266 0.69069 0.30305 0.0
O185 O 0.51168 0.77747 0.38744 0.0
O186 O 0.60509 0.79337 0.45477 0.0
C187 C 0.65537 0.9204 0.50053 0.0
N188 N 0.70034 0.89998 0.43383 0.0
C189 C 0.79459 0.00849 0.41019 0.0
C190 C 0.76399 0.05698 0.47673 0.0
C191 C 0.6653 0.99388 0.54235 0.0
C192 C 0.76159 0.93364 0.39433 0.0
H193 H 0.61575 0.88989 0.51963 0.0
C194 C 0.54176 0.77902 0.44892 0.0
O195 O 0.45842 0.80079 0.23421 0.0
O196 O 0.48003 0.88824 0.2922 0.0
N197 N 0.75411 0.84354 0.3162 0.0
C198 C 0.75085 0.82785 0.24175 0.0
C199 C 0.78986 0.86523 0.19385 0.0
C200 C 0.83681 0.90996 0.2188 0.0
C201 C 0.83593 0.93009 0.29133 0.0
C202 C 0.78975 0.89961 0.33848 0.0
H203 H 0.73985 0.81681 0.29588 0.0
O204 O 0.58856 0.8501 0.20378 0.0
O205 O 0.6195 0.86005 0.31799 0.0
O206 O 0.59848 0.71087 0.27101 0.0
O207 O 0.68139 0.72981 0.34544 0.0
C208 C 0.86858 0.98879 0.30998 0.0
C209 C 0.84801 0.02773 0.36837 0.0
H210 H 0.78428 0.10639 0.48413 0.0
H211 H 0.62955 0.00873 0.58378 0.0
H212 H 0.78546 0.85658 0.13607 0.0
H213 H 0.86773 0.93474 0.17931 0.0
H214 H 0.90587 0.00879 0.27389 0.0
H215 H 0.87125 0.07461 0.37846 0.0
Mn216 Mn 0.77837 0.45942 0.68277 0.0
Mn217 Mn 0.81838 0.3249 0.59029 0.0
C218 C 0.87312 0.38952 0.7256 0.0
C219 C 0.84939 0.54882 0.72928 0.0
C220 C 0.68361 0.34272 0.66889 0.0
O221 O 0.74159 0.47906 0.58156 0.0
O222 O 0.79539 0.39984 0.51817 0.0
C223 C 0.92448 0.35185 0.4796 0.0
N224 N 0.90342 0.31073 0.5485 0.0
C225 C 0.01212 0.21542 0.57809 0.0
C226 C 0.06163 0.24136 0.51002 0.0
C227 C 0.99851 0.3379 0.43871 0.0
C228 C 0.93656 0.25088 0.59135 0.0
H229 H 0.89393 0.39084 0.45762 0.0
C230 C 0.76662 0.45767 0.5223 0.0
O231 O 0.81866 0.50859 0.77029 0.0
O232 O 0.84555 0.5332 0.66269 0.0
N233 N 0.84254 0.25747 0.66106 0.0
C234 C 0.8232 0.26072 0.73204 0.0
C235 C 0.85679 0.22423 0.78573 0.0
C236 C 0.9045 0.17723 0.76523 0.0
C237 C 0.92799 0.17698 0.69369 0.0
C238 C 0.89877 0.22318 0.64445 0.0
H239 H 0.78563 0.29587 0.74902 0.0
O240 O 0.8362 0.4233 0.76868 0.0
O241 O 0.85124 0.39269 0.65967 0.0
O242 O 0.69965 0.39119 0.71033 0.0
O243 O 0.72509 0.32296 0.62166 0.0
C244 C 0.98823 0.14347 0.67831 0.0
C245 C 0.02975 0.16227 0.62144 0.0
H246 H 0.1112 0.21924 0.50366 0.0
H247 H 0.01347 0.37072 0.39509 0.0
H248 H 0.84333 0.22997 0.84235 0.0
H249 H 0.92791 0.14697 0.8067 0.0
H250 H 0.00693 0.10626 0.71565 0.0
H251 H 0.07702 0.13729 0.6134 0.0
Mn252 Mn 0.45397 0.19165 0.28752 0.0
Mn253 Mn 0.32057 0.17234 0.38693 0.0
C254 C 0.38287 0.11031 0.25321 0.0
C255 C 0.55941 0.14864 0.25116 0.0
C256 C 0.34606 0.30292 0.30704 0.0
O257 O 0.48743 0.22289 0.38638 0.0
O258 O 0.39788 0.19754 0.45622 0.0
C259 C 0.34721 0.07245 0.50397 0.0
N260 N 0.30562 0.09039 0.43392 0.0
C261 C 0.21701 0.97847 0.40548 0.0
C262 C 0.24499 0.93186 0.47459 0.0
C263 C 0.33743 -0.00095 0.54615 0.0
C264 C 0.24838 0.0541 0.39086 0.0
H265 H 0.38443 0.10458 0.52533 0.0
C266 C 0.45995 0.21535 0.44867 0.0
O267 O 0.53669 0.20539 0.23301 0.0
O268 O 0.52158 0.11597 0.29364 0.0
N269 N 0.25348 0.14632 0.31499 0.0
C270 C 0.25778 0.16489 0.24144 0.0
C271 C 0.22326 0.12637 0.19071 0.0
C272 C 0.17985 0.07697 0.21214 0.0
C273 C 0.17983 0.05494 0.28378 0.0
C274 C 0.22207 0.08682 0.33331 0.0
H275 H 0.26618 0.17508 0.29638 0.0
O276 O 0.41303 0.14495 0.2048 0.0
O277 O 0.38595 0.13244 0.32011 0.0
O278 O 0.3975 0.28392 0.27019 0.0
O279 O 0.32049 0.26272 0.35065 0.0
C280 C 0.1473 0.99596 0.30137 0.0
C281 C 0.16607 0.95766 0.361 0.0
H282 H 0.22621 0.88172 0.481 0.0
H283 H 0.37277 0.98515 0.58795 0.0
H284 H 0.22803 0.13787 0.13357 0.0
H285 H 0.15139 0.05171 0.17095 0.0
H286 H 0.11113 0.97577 0.26419 0.0
H287 H 0.14303 0.91046 0.37039 0.0
Mn288 Mn 0.7134 0.98623 0.79884 0.0
Mn289 Mn 0.69276 0.85549 0.89744 0.0
C290 C 0.62603 0.9102 0.76334 0.0
C291 C 0.62948 0.06329 0.74404 0.0
C292 C 0.81442 0.87317 0.81606 0.0
O293 O 0.74915 0.00884 0.90311 0.0
O294 O 0.70057 0.93059 0.97096 0.0
C295 C 0.58998 0.85358 0.01532 0.0
N296 N 0.6133 0.82422 0.93959 0.0
C297 C 0.51286 0.72843 0.89507 0.0
C298 C 0.462 0.74171 0.96619 0.0
C299 C 0.51718 0.83006 0.05356 0.0
C300 C 0.58509 0.76956 0.8876 0.0
H301 H 0.61877 0.8892 0.04448 0.0
C302 C 0.72555 0.98919 0.96433 0.0
O303 O 0.66112 0.01924 0.70655 0.0
O304 O 0.64095 0.05813 0.81206 0.0
N305 N 0.67974 0.78906 0.81865 0.0
C306 C 0.70194 0.79387 0.74766 0.0
C307 C 0.67015 0.76289 0.68979 0.0
C308 C 0.6192 0.71961 0.7038 0.0
C309 C 0.59724 0.71124 0.77465 0.0
C310 C 0.62407 0.75256 0.82955 0.0
H311 H 0.73858 0.82611 0.72951 0.0
O312 O 0.65986 0.94345 0.7173 0.0
O313 O 0.64601 0.91813 0.82986 0.0
O314 O 0.79202 0.9132 0.7677 0.0
O315 O 0.7846 0.8805 0.87468 0.0
C316 C 0.54259 0.67022 0.78676 0.0
C317 C 0.50043 0.679 0.84576 0.0
H318 H 0.41498 0.71525 0.96889 0.0
H319 H 0.50054 0.85286 0.10422 0.0
H320 H 0.68697 0.77049 0.63455 0.0
H321 H 0.59759 0.69238 0.65934 0.0
H322 H 0.52846 0.63468 0.74573 0.0
H323 H 0.45667 0.64908 0.85115 0.0
Mn324 Mn 0.99532 0.28421 0.18156 0.0
Mn325 Mn 0.86302 0.30514 0.08588 0.0
C326 C 0.91704 0.37155 0.21861 0.0
C327 C 0.0714 0.36783 0.23527 0.0
C328 C 0.88379 0.18358 0.16307 0.0
O329 O 0.01908 0.25055 0.07617 0.0
O330 O 0.93688 0.29785 0.01122 0.0
C331 C 0.85959 0.40773 0.97086 0.0
N332 N 0.83031 0.38437 0.04614 0.0
C333 C 0.72791 0.48146 0.08872 0.0
C334 C 0.73884 0.53137 0.01672 0.0
C335 C 0.83233 0.47815 0.93177 0.0
C336 C 0.77355 0.41129 0.09753 0.0
H337 H 0.89803 0.38116 0.94232 0.0
C338 C 0.99692 0.27442 0.0159 0.0
O339 O 0.02872 0.33607 0.2734 0.0
O340 O 0.06558 0.35635 0.16749 0.0
N341 N 0.79724 0.31749 0.1662 0.0
C342 C 0.80312 0.29423 0.2367 0.0
C343 C 0.77288 0.3259 0.29567 0.0
C344 C 0.73026 0.37888 0.28342 0.0
C345 C 0.71959 0.40103 0.21286 0.0
C346 C 0.75931 0.37321 0.15649 0.0
H347 H 0.83435 0.25547 0.25345 0.0
O348 O 0.95119 0.33754 0.26439 0.0
O349 O 0.92545 0.35136 0.15222 0.0
O350 O 0.92362 0.20533 0.21186 0.0
O351 O 0.89081 0.21388 0.10536 0.0
C352 C 0.67605 0.45496 0.20148 0.0
C353 C 0.67938 0.49429 0.13979 0.0
H354 H 0.71087 0.57799 0.01369 0.0
H355 H 0.85935 0.49653 0.88528 0.0
H356 H 0.78048 0.30766 0.35037 0.0
H357 H 0.70214 0.39906 0.32837 0.0
H358 H 0.64195 0.47009 0.24416 0.0
H359 H 0.64694 0.53698 0.13429 0.0
Mn360 Mn 0.28593 0.00593 0.79457 0.0
Mn361 Mn 0.30703 0.13646 0.89082 0.0
C362 C 0.37444 0.07981 0.75844 0.0
C363 C 0.37313 0.92692 0.74564 0.0
C364 C 0.18394 0.11949 0.81092 0.0
O365 O 0.2468 0.9864 0.8971 0.0
O366 O 0.29758 0.06249 0.96575 0.0
C367 C 0.41041 0.14012 0.00839 0.0
N368 N 0.3877 0.16694 0.93133 0.0
C369 C 0.48659 0.26422 0.88579 0.0
C370 C 0.53592 0.25469 0.95842 0.0
C371 C 0.48176 0.16709 0.04762 0.0
C372 C 0.41583 0.22077 0.87806 0.0
H373 H 0.38177 0.1045 0.03784 0.0
C374 C 0.26961 0.00525 0.9585 0.0
O375 O 0.34176 0.96927 0.70614 0.0
O376 O 0.35895 0.93393 0.81275 0.0
N377 N 0.3208 0.20077 0.81004 0.0
C378 C 0.29735 0.19567 0.73954 0.0
C379 C 0.32954 0.22403 0.68031 0.0
C380 C 0.38287 0.2648 0.69227 0.0
C381 C 0.40529 0.27469 0.76267 0.0
C382 C 0.37748 0.23598 0.81921 0.0
H383 H 0.25753 0.16704 0.72277 0.0
O384 O 0.34099 0.04607 0.71261 0.0
O385 O 0.3535 0.07296 0.82485 0.0
O386 O 0.20729 0.07963 0.76228 0.0
O387 O 0.21434 0.11231 0.86919 0.0
C388 C 0.45925 0.31677 0.77377 0.0
C389 C 0.49917 0.31222 0.83489 0.0
H390 H 0.58196 0.28276 0.9612 0.0
H391 H 0.49792 0.14651 0.09954 0.0
H392 H 0.31096 0.21702 0.62571 0.0
H393 H 0.40329 0.29205 0.64726 0.0
H394 H 0.47399 0.3506 0.73125 0.0
H395 H 0.54187 0.3437 0.84039 0.0
Mn396 Mn 0.00828 0.70371 0.17885 0.0
Mn397 Mn 0.13923 0.68689 0.08116 0.0
C398 C 0.08596 0.61747 0.21506 0.0
C399 C 0.9306 0.6204 0.23065 0.0
C400 C 0.11586 0.80697 0.16236 0.0
O401 O 0.98617 0.74037 0.07465 0.0
O402 O 0.06558 0.69164 0.0068 0.0
C403 C 0.15063 0.58499 0.96487 0.0
N404 N 0.17585 0.60808 0.04193 0.0
C405 C 0.27266 0.50843 0.09241 0.0
C406 C 0.26432 0.45785 0.02024 0.0
C407 C 0.17803 0.51301 0.92816 0.0
C408 C 0.22894 0.5799 0.09711 0.0
H409 H 0.11573 0.61382 0.93356 0.0
C410 C 0.00641 0.7168 0.01359 0.0
O411 O 0.97396 0.6505 0.26935 0.0
O412 O 0.93709 0.63255 0.16302 0.0
N413 N 0.20404 0.67786 0.16155 0.0
C414 C 0.19294 0.70552 0.23107 0.0
C415 C 0.2225 0.67393 0.29073 0.0
C416 C 0.26663 0.62062 0.28216 0.0
C417 C 0.27975 0.59411 0.21364 0.0
C418 C 0.24273 0.61901 0.1549 0.0
H419 H 0.18638 0.70546 0.17474 0.0
O420 O 0.05034 0.65018 0.26077 0.0
O421 O 0.07824 0.63734 0.14816 0.0
O422 O 0.08106 0.77982 0.21211 0.0
O423 O 0.1089 0.77827 0.10311 0.0
C424 C 0.32195 0.53848 0.20639 0.0
C425 C 0.31924 0.49658 0.14615 0.0
H426 H 0.29233 0.41118 0.01879 0.0
H427 H 0.15808 0.49694 0.87614 0.0
H428 H 0.21343 0.69366 0.34448 0.0
H429 H 0.2916 0.60118 0.32965 0.0
H430 H 0.35448 0.52457 0.25084 0.0
H431 H 0.35112 0.45329 0.14348 0.0
Mn432 Mn 0.70281 0.04646 0.1915 0.0
Mn433 Mn 0.68021 0.17844 0.08958 0.0
C434 C 0.62535 0.12287 0.22875 0.0
C435 C 0.65381 0.94439 0.22911 0.0
C436 C 0.81337 0.1524 0.17053 0.0
O437 O 0.73151 0.00952 0.0923 0.0
O438 O 0.70625 0.09858 0.0222 0.0
C439 C 0.57694 0.1465 0.97668 0.0
N440 N 0.59519 0.19052 0.04442 0.0
C441 C 0.48194 0.2826 0.06786 0.0
C442 C 0.43534 0.25296 -0.00014 0.0
C443 C 0.50316 0.15655 0.93354 0.0
C444 C 0.55833 0.25033 0.08429 0.0
H445 H 0.60957 0.10817 0.9568 0.0
C446 C 0.72371 0.0362 0.0297 0.0
O447 O 0.71161 0.96317 0.24762 0.0
O448 O 0.62359 0.98424 0.18633 0.0
N449 N 0.6532 0.25 0.15692 0.0
C450 C 0.67123 0.24929 0.23063 0.0
C451 C 0.63212 0.28732 0.27889 0.0
C452 C 0.58412 0.33229 0.25433 0.0
C453 C 0.56158 0.32849 0.18291 0.0
C454 C 0.59313 0.28168 0.13664 0.0
H455 H 0.68248 0.23829 0.1762 0.0
O456 O 0.65963 0.09015 0.27578 0.0
O457 O 0.64417 0.11685 0.16102 0.0
O458 O 0.79594 0.10014 0.2059 0.0
O459 O 0.77209 0.17884 0.127 0.0
C460 C 0.50028 0.35883 0.16532 0.0
C461 C 0.46096 0.33632 0.10855 0.0
H462 H 0.38518 0.27315 -0.00827 0.0
H463 H 0.49005 0.12157 0.89138 0.0
H464 H 0.64197 0.28383 0.33654 0.0
H465 H 0.55858 0.36324 0.29378 0.0
H466 H 0.47931 0.39655 0.20066 0.0
H467 H 0.41293 0.35897 0.09827 0.0
Mn468 Mn 0.0451 0.3068 0.78737 0.0
Mn469 Mn 0.18371 0.31857 0.88551 0.0
C470 C 0.12429 0.38055 0.75081 0.0
C471 C 0.9388 0.35906 0.75044 0.0
C472 C 0.15265 0.19069 0.80306 0.0
O473 O 0.01169 0.27748 0.88748 0.0
O474 O 0.1051 0.29336 0.9548 0.0
C475 C 0.15538 0.42039 0.00057 0.0
N476 N 0.20035 0.39997 0.93386 0.0
C477 C 0.29459 0.50849 0.91022 0.0
C478 C 0.26398 0.55697 0.97676 0.0
C479 C 0.1653 0.49387 0.04239 0.0
C480 C 0.26159 0.43364 0.89436 0.0
H481 H 0.11575 0.38988 0.01967 0.0
C482 C 0.04176 0.27902 0.94895 0.0
O483 O 0.95842 0.30079 0.73426 0.0
O484 O 0.98002 0.38825 0.79223 0.0
N485 N 0.25411 0.34353 0.81623 0.0
C486 C 0.25084 0.32785 0.74178 0.0
C487 C 0.28986 0.36523 0.69388 0.0
C488 C 0.33681 0.40996 0.71884 0.0
C489 C 0.33593 0.43008 0.79136 0.0
C490 C 0.28975 0.3996 0.83851 0.0
H491 H 0.23985 0.3168 0.79591 0.0
O492 O 0.08856 0.35011 0.7038 0.0
O493 O 0.1195 0.36005 0.81803 0.0
O494 O 0.09847 0.21088 0.77103 0.0
O495 O 0.18139 0.2298 0.84546 0.0
C496 C 0.36858 0.48879 0.81002 0.0
C497 C 0.34801 0.52772 0.8684 0.0
H498 H 0.28427 0.60639 0.98416 0.0
H499 H 0.12955 0.50872 0.08381 0.0
H500 H 0.28546 0.35658 0.6361 0.0
H501 H 0.36773 0.43474 0.67934 0.0
H502 H 0.40587 0.50879 0.77393 0.0
H503 H 0.37124 0.57461 0.8785 0.0
Mn504 Mn 0.27838 0.95943 0.18274 0.0
Mn505 Mn 0.31838 0.8249 0.09026 0.0
C506 C 0.37315 0.88956 0.22554 0.0
C507 C 0.3494 0.04883 0.22924 0.0
C508 C 0.18361 0.84273 0.16888 0.0
O509 O 0.24158 0.97905 0.08153 0.0
O510 O 0.29539 0.89983 0.01814 0.0
C511 C 0.42447 0.85185 0.97957 0.0
N512 N 0.40341 0.81072 0.04847 0.0
C513 C 0.51211 0.7154 0.07804 0.0
C514 C 0.56162 0.74135 0.00998 0.0
C515 C 0.4985 0.8379 0.93868 0.0
C516 C 0.43655 0.75086 0.09131 0.0
H517 H 0.39393 0.89084 0.95759 0.0
C518 C 0.26662 0.95766 0.02226 0.0
O519 O 0.31871 0.00859 0.27026 0.0
O520 O 0.34555 0.03323 0.16265 0.0
N521 N 0.34255 0.75747 0.16104 0.0
C522 C 0.32321 0.76074 0.23202 0.0
C523 C 0.3568 0.72424 0.28571 0.0
C524 C 0.40451 0.67724 0.26521 0.0
C525 C 0.42798 0.67698 0.19366 0.0
C526 C 0.39876 0.72318 0.14442 0.0
H527 H 0.28566 0.7959 0.249 0.0
O528 O 0.33623 0.92332 0.26864 0.0
O529 O 0.35125 0.8927 0.15963 0.0
O530 O 0.19967 0.8912 0.21031 0.0
O531 O 0.22509 0.82297 0.12163 0.0
C532 C 0.48823 0.64346 0.17828 0.0
C533 C 0.52974 0.66225 0.1214 0.0
H534 H 0.61119 0.71922 0.00362 0.0
H535 H 0.51347 0.87071 0.89506 0.0
H536 H 0.34335 0.73 0.34233 0.0
H537 H 0.42792 0.64698 0.30668 0.0
H538 H 0.50692 0.60626 0.21561 0.0
H539 H 0.577 0.63726 0.11335 0.0
Mn540 Mn 0.95395 0.69162 0.78756 0.0
Mn541 Mn 0.82054 0.67233 0.88697 0.0
C542 C 0.88285 0.6103 0.75325 0.0
C543 C 0.0594 0.64863 0.75121 0.0
C544 C 0.84604 0.8029 0.80706 0.0
O545 O 0.98741 0.72286 0.88641 0.0
O546 O 0.89786 0.69753 0.95625 0.0
C547 C 0.8472 0.57244 0.00401 0.0
N548 N 0.8056 0.59038 0.93397 0.0
C549 C 0.71698 0.47846 0.90556 0.0
C550 C 0.74497 0.43185 0.97467 0.0
C551 C 0.83743 0.49904 0.0462 0.0
C552 C 0.74834 0.55408 0.89093 0.0
H553 H 0.88443 0.60457 0.02535 0.0
C554 C 0.95993 0.71534 0.9487 0.0
O555 O 0.03668 0.70537 0.73306 0.0
O556 O 0.02157 0.61594 0.79368 0.0
N557 N 0.75345 0.6463 0.81504 0.0
C558 C 0.75774 0.66485 0.74149 0.0
C559 C 0.72321 0.62632 0.69077 0.0
C560 C 0.6798 0.57693 0.71222 0.0
C561 C 0.67979 0.55492 0.78386 0.0
C562 C 0.72204 0.5868 0.83338 0.0
H563 H 0.76615 0.67505 0.79643 0.0
O564 O 0.91301 0.64493 0.70484 0.0
O565 O 0.88593 0.63243 0.82015 0.0
O566 O 0.8975 0.78389 0.77022 0.0
O567 O 0.82046 0.76271 0.85067 0.0
C568 C 0.64725 0.49593 0.80146 0.0
C569 C 0.66603 0.45764 0.8611 0.0
H570 H 0.72619 0.38172 0.98108 0.0
H571 H 0.87278 0.48514 0.08798 0.0
H572 H 0.72798 0.63781 0.63363 0.0
H573 H 0.65134 0.55167 0.67103 0.0
H574 H 0.61109 0.47574 0.76429 0.0
H575 H 0.643 0.41044 0.8705 0.0
loop_
_geom_bond_atom_site_label_1
_geom_bond_atom_site_label_2
_geom_bond_distance
_geom_bond_site_symmetry_2
_ccdc_geom_bond_type
Mn0 O5 2.095 . S
Mn0 O15 2.162 . S
Mn0 O16 2.297 . S
Mn0 O24 2.385 . S
Mn0 O25 2.209 . S
Mn0 O26 2.094 . S
Mn1 O6 2.121 . S
Mn1 N8 2.257 . S
Mn1 N17 2.282 . S
Mn1 O25 2.215 . S
Mn1 O27 2.117 . S
C2 O24 1.234 . S
C2 O25 1.283 . S
C3 O15 1.281 . S
C3 O16 1.236 . S
C4 O26 1.240 . S
C4 O27 1.264 . S
O5 Mn0 2.095 . S
O5 C14 1.250 . S
O6 Mn1 2.121 . S
O6 C14 1.258 . S
C7 N8 1.326 . S
C7 C11 1.460 . S
C7 H13 0.929 . S
N8 Mn1 2.257 . S
N8 C7 1.326 . S
N8 C12 1.362 . S
C9 C10 1.258 1_455 S
C9 C12 1.431 . S
C9 C29 1.449 1_455 S
C10 C9 1.258 1_655 S
C10 C11 1.477 1_655 S
C10 H30 0.931 . S
C11 C7 1.460 . S
C11 C10 1.477 1_455 S
C11 H31 0.930 1_455 S
C12 N8 1.362 . S
C12 C9 1.431 . S
C12 C22 1.476 . S
H13 C7 0.929 . S
C14 O5 1.250 . S
C14 O6 1.258 . S
O15 Mn0 2.162 . S
O15 C3 1.281 . S
O16 Mn0 2.297 . S
O16 C3 1.236 . S
N17 Mn1 2.282 . S
N17 C18 1.328 . S
N17 C22 1.318 . S
C18 N17 1.328 . S
C18 C19 1.457 . S
C18 H23 0.929 . S
C19 C18 1.457 . S
C19 C20 1.291 . S
C19 H32 0.931 . S
C20 C19 1.291 . S
C20 C21 1.373 . S
C20 H33 0.929 . S
C21 C20 1.373 . S
C21 C22 1.396 . S
C21 C28 1.403 . S
C22 C12 1.476 . S
C22 N17 1.318 . S
C22 C21 1.396 . S
H23 C18 0.929 . S
O24 Mn0 2.385 . S
O24 C2 1.234 . S
O25 Mn0 2.209 . S
O25 Mn1 2.215 . S
O25 C2 1.283 . S
O26 Mn0 2.094 . S
O26 C4 1.240 . S
O27 Mn1 2.117 . S
O27 C4 1.264 . S
C28 C21 1.403 . S
C28 C29 1.399 1_455 S
C28 H34 0.929 . S
C29 C9 1.449 1_655 S
C29 C28 1.399 1_655 S
C29 H35 0.930 . S
H30 C10 0.931 . S
H31 C11 0.930 1_655 S
H32 C19 0.931 . S
H33 C20 0.929 . S
H34 C28 0.929 . S
H35 C29 0.930 . S
Mn36 O41 2.095 . S
Mn36 O51 2.162 . S
Mn36 O52 2.297 . S
Mn36 O60 2.385 . S
Mn36 O61 2.209 . S
Mn36 O62 2.094 . S
Mn37 O42 2.121 . S
Mn37 N44 2.257 . S
Mn37 N53 2.282 . S
Mn37 O61 2.215 . S
Mn37 O63 2.117 . S
C38 O60 1.234 . S
C38 O61 1.283 . S
C39 O51 1.281 . S
C39 O52 1.236 . S
C40 O62 1.240 . S
C40 O63 1.264 . S
O41 Mn36 2.095 . S
O41 C50 1.250 . S
O42 Mn37 2.121 . S
O42 C50 1.258 . S
C43 N44 1.326 . S
C43 C47 1.460 . S
C43 H49 0.929 . S
N44 Mn37 2.257 . S
N44 C43 1.326 . S
N44 C48 1.362 . S
C45 C46 1.258 1_565 S
C45 C48 1.431 . S
C45 C65 1.449 1_565 S
C46 C45 1.258 1_545 S
C46 C47 1.477 1_545 S
C46 H66 0.931 . S
C47 C43 1.460 . S
C47 C46 1.477 1_565 S
C47 H67 0.930 1_565 S
C48 N44 1.362 . S
C48 C45 1.431 . S
C48 C58 1.476 . S
H49 C43 0.929 . S
C50 O41 1.250 . S
C50 O42 1.258 . S
O51 Mn36 2.162 . S
O51 C39 1.281 . S
O52 Mn36 2.297 . S
O52 C39 1.236 . S
N53 Mn37 2.282 . S
N53 C54 1.328 . S
N53 C58 1.318 . S
C54 N53 1.328 . S
C54 C55 1.457 . S
C54 H59 0.929 . S
C55 C54 1.457 . S
C55 C56 1.291 . S
C55 H68 0.931 . S
C56 C55 1.291 . S
C56 C57 1.373 . S
C56 H69 0.929 . S
C57 C56 1.373 . S
C57 C58 1.396 . S
C57 C64 1.403 . S
C58 C48 1.476 . S
C58 N53 1.318 . S
C58 C57 1.396 . S
H59 C54 0.929 . S
O60 Mn36 2.385 . S
O60 C38 1.234 . S
O61 Mn36 2.209 . S
O61 Mn37 2.215 . S
O61 C38 1.283 . S
O62 Mn36 2.094 . S
O62 C40 1.240 . S
O63 Mn37 2.117 . S
O63 C40 1.264 . S
C64 C57 1.403 . S
C64 C65 1.399 1_565 S
C64 H70 0.929 . S
C65 C45 1.449 1_545 S
C65 C64 1.399 1_545 S
C65 H71 0.930 . S
H66 C46 0.931 . S
H67 C47 0.930 1_545 S
H68 C55 0.931 . S
H69 C56 0.929 . S
H70 C64 0.929 . S
H71 C65 0.930 . S
Mn72 O77 2.095 . S
Mn72 O87 2.162 . S
Mn72 O88 2.297 . S
Mn72 O96 2.385 . S
Mn72 O97 2.209 . S
Mn72 O98 2.094 . S
Mn73 O78 2.121 . S
Mn73 N80 2.257 . S
Mn73 N89 2.282 . S
Mn73 O97 2.215 . S
Mn73 O99 2.117 . S
C74 O96 1.234 . S
C74 O97 1.283 . S
C75 O87 1.281 . S
C75 O88 1.236 . S
C76 O98 1.240 . S
C76 O99 1.264 . S
O77 Mn72 2.095 . S
O77 C86 1.250 . S
O78 Mn73 2.121 . S
O78 C86 1.258 . S
C79 N80 1.326 . S
C79 C83 1.460 . S
C79 H85 0.929 . S
N80 Mn73 2.257 . S
N80 C79 1.326 . S
N80 C84 1.362 . S
C81 C82 1.258 1_655 S
C81 C84 1.431 . S
C81 C101 1.449 1_655 S
C82 C81 1.258 1_455 S
C82 C83 1.477 1_455 S
C82 H102 0.931 . S
C83 C79 1.460 . S
C83 C82 1.477 1_655 S
C83 H103 0.930 1_655 S
C84 N80 1.362 . S
C84 C81 1.431 . S
C84 C94 1.476 . S
H85 C79 0.929 . S
C86 O77 1.250 . S
C86 O78 1.258 . S
O87 Mn72 2.162 . S
O87 C75 1.281 . S
O88 Mn72 2.297 . S
O88 C75 1.236 . S
N89 Mn73 2.282 . S
N89 C90 1.328 . S
N89 C94 1.318 . S
C90 N89 1.328 . S
C90 C91 1.457 . S
C90 H95 0.929 . S
C91 C90 1.457 . S
C91 C92 1.291 . S
C91 H104 0.931 . S
C92 C91 1.291 . S
C92 C93 1.373 . S
C92 H105 0.929 . S
C93 C92 1.373 . S
C93 C94 1.396 . S
C93 C100 1.403 . S
C94 C84 1.476 . S
C94 N89 1.318 . S
C94 C93 1.396 . S
H95 C90 0.929 . S
O96 Mn72 2.385 . S
O96 C74 1.234 . S
O97 Mn72 2.209 . S
O97 Mn73 2.215 . S
O97 C74 1.283 . S
O98 Mn72 2.094 . S
O98 C76 1.240 . S
O99 Mn73 2.117 . S
O99 C76 1.264 . S
C100 C93 1.403 . S
C100 C101 1.399 1_655 S
C100 H106 0.929 . S
C101 C81 1.449 1_455 S
C101 C100 1.399 1_455 S
C101 H107 0.930 . S
H102 C82 0.931 . S
H103 C83 0.930 1_455 S
H104 C91 0.931 . S
H105 C92 0.929 . S
H106 C100 0.929 . S
H107 C101 0.930 . S
Mn108 O113 2.095 . S
Mn108 O123 2.162 . S
Mn108 O124 2.297 . S
Mn108 O132 2.385 . S
Mn108 O133 2.209 . S
Mn108 O134 2.094 . S
Mn109 O114 2.121 . S
Mn109 N116 2.257 . S
Mn109 N125 2.282 . S
Mn109 O133 2.215 . S
Mn109 O135 2.117 . S
C110 O132 1.234 . S
C110 O133 1.283 . S
C111 O123 1.281 . S
C111 O124 1.236 . S
C112 O134 1.240 . S
C112 O135 1.264 . S
O113 Mn108 2.095 . S
O113 C122 1.250 . S
O114 Mn109 2.121 . S
O114 C122 1.258 . S
C115 N116 1.326 . S
C115 C119 1.460 . S
C115 H121 0.929 . S
N116 Mn109 2.257 . S
N116 C115 1.326 . S
N116 C120 1.362 . S
C117 C118 1.258 1_545 S
C117 C120 1.431 . S
C117 C137 1.449 1_545 S
C118 C117 1.258 1_565 S
C118 C119 1.477 1_565 S
C118 H138 0.931 . S
C119 C115 1.460 . S
C119 C118 1.477 1_545 S
C119 H139 0.930 1_545 S
C120 N116 1.362 . S
C120 C117 1.431 . S
C120 C130 1.476 . S
H121 C115 0.929 . S
C122 O113 1.250 . S
C122 O114 1.258 . S
O123 Mn108 2.162 . S
O123 C111 1.281 . S
O124 Mn108 2.297 . S
O124 C111 1.236 . S
N125 Mn109 2.282 . S
N125 C126 1.328 . S
N125 C130 1.318 . S
C126 N125 1.328 . S
C126 C127 1.457 . S
C126 H131 0.929 . S
C127 C126 1.457 . S
C127 C128 1.291 . S
C127 H140 0.931 . S
C128 C127 1.291 . S
C128 C129 1.373 . S
C128 H141 0.929 . S
C129 C128 1.373 . S
C129 C130 1.396 . S
C129 C136 1.403 . S
C130 C120 1.476 . S
C130 N125 1.318 . S
C130 C129 1.396 . S
H131 C126 0.929 . S
O132 Mn108 2.385 . S
O132 C110 1.234 . S
O133 Mn108 2.209 . S
O133 Mn109 2.215 . S
O133 C110 1.283 . S
O134 Mn108 2.094 . S
O134 C112 1.240 . S
O135 Mn109 2.117 . S
O135 C112 1.264 . S
C136 C129 1.403 . S
C136 C137 1.399 1_545 S
C136 H142 0.929 . S
C137 C117 1.449 1_565 S
C137 C136 1.399 1_565 S
C137 H143 0.930 . S
H138 C118 0.931 . S
H139 C119 0.930 1_565 S
H140 C127 0.931 . S
H141 C128 0.929 . S
H142 C136 0.929 . S
H143 C137 0.930 . S
Mn144 O149 2.095 . S
Mn144 O159 2.162 . S
Mn144 O160 2.297 . S
Mn144 O168 2.385 . S
Mn144 O169 2.209 . S
Mn144 O170 2.094 . S
Mn145 O150 2.121 . S
Mn145 N152 2.257 . S
Mn145 N161 2.282 . S
Mn145 O169 2.215 . S
Mn145 O171 2.117 . S
C146 O168 1.234 . S
C146 O169 1.283 . S
C147 O159 1.281 . S
C147 O160 1.236 . S
C148 O170 1.240 . S
C148 O171 1.264 . S
O149 Mn144 2.095 . S
O149 C158 1.250 . S
O150 Mn145 2.121 . S
O150 C158 1.258 . S
C151 N152 1.326 . S
C151 C155 1.460 . S
C151 H157 0.929 . S
N152 Mn145 2.257 . S
N152 C151 1.326 . S
N152 C156 1.362 . S
C153 C154 1.258 1_455 S
C153 C156 1.431 . S
C153 C173 1.449 1_455 S
C154 C153 1.258 1_655 S
C154 C155 1.477 1_655 S
C154 H174 0.931 . S
C155 C151 1.460 . S
C155 C154 1.477 1_455 S
C155 H175 0.930 1_455 S
C156 N152 1.362 . S
C156 C153 1.431 . S
C156 C166 1.476 . S
H157 C151 0.929 . S
C158 O149 1.250 . S
C158 O150 1.258 . S
O159 Mn144 2.162 . S
O159 C147 1.281 . S
O160 Mn144 2.297 . S
O160 C147 1.236 . S
N161 Mn145 2.282 . S
N161 C162 1.328 . S
N161 C166 1.318 . S
C162 N161 1.328 . S
C162 C163 1.457 . S
C162 H167 0.929 . S
C163 C162 1.457 . S
C163 C164 1.291 . S
C163 H176 0.931 . S
C164 C163 1.291 . S
C164 C165 1.373 . S
C164 H177 0.929 . S
C165 C164 1.373 . S
C165 C166 1.396 . S
C165 C172 1.403 . S
C166 C156 1.476 . S
C166 N161 1.318 . S
C166 C165 1.396 . S
H167 C162 0.929 . S
O168 Mn144 2.385 . S
O168 C146 1.234 . S
O169 Mn144 2.209 . S
O169 Mn145 2.215 . S
O169 C146 1.283 . S
O170 Mn144 2.094 . S
O170 C148 1.240 . S
O171 Mn145 2.117 . S
O171 C148 1.264 . S
C172 C165 1.403 . S
C172 C173 1.399 1_455 S
C172 H178 0.929 . S
C173 C153 1.449 1_655 S
C173 C172 1.399 1_655 S
C173 H179 0.930 . S
H174 C154 0.931 . S
H175 C155 0.930 1_655 S
H176 C163 0.931 . S
H177 C164 0.929 . S
H178 C172 0.929 . S
H179 C173 0.930 . S
Mn180 O185 2.095 . S
Mn180 O195 2.162 . S
Mn180 O196 2.297 . S
Mn180 O204 2.385 . S
Mn180 O205 2.209 . S
Mn180 O206 2.094 . S
Mn181 O186 2.121 . S
Mn181 N188 2.257 . S
Mn181 N197 2.282 . S
Mn181 O205 2.215 . S
Mn181 O207 2.117 . S
C182 O204 1.234 . S
C182 O205 1.283 . S
C183 O195 1.281 . S
C183 O196 1.236 . S
C184 O206 1.240 . S
C184 O207 1.264 . S
O185 Mn180 2.095 . S
O185 C194 1.250 . S
O186 Mn181 2.121 . S
O186 C194 1.258 . S
C187 N188 1.326 . S
C187 C191 1.460 . S
C187 H193 0.929 . S
N188 Mn181 2.257 . S
N188 C187 1.326 . S
N188 C192 1.362 . S
C189 C190 1.258 1_565 S
C189 C192 1.431 . S
C189 C209 1.449 1_565 S
C190 C189 1.258 1_545 S
C190 C191 1.477 1_545 S
C190 H210 0.931 . S
C191 C187 1.460 . S
C191 C190 1.477 1_565 S
C191 H211 0.930 1_565 S
C192 N188 1.362 . S
C192 C189 1.431 . S
C192 C202 1.476 . S
H193 C187 0.929 . S
C194 O185 1.250 . S
C194 O186 1.258 . S
O195 Mn180 2.162 . S
O195 C183 1.281 . S
O196 Mn180 2.297 . S
O196 C183 1.236 . S
N197 Mn181 2.282 . S
N197 C198 1.328 . S
N197 C202 1.318 . S
C198 N197 1.328 . S
C198 C199 1.457 . S
C198 H203 0.929 . S
C199 C198 1.457 . S
C199 C200 1.291 . S
C199 H212 0.931 . S
C200 C199 1.291 . S
C200 C201 1.373 . S
C200 H213 0.929 . S
C201 C200 1.373 . S
C201 C202 1.396 . S
C201 C208 1.403 . S
C202 C192 1.476 . S
C202 N197 1.318 . S
C202 C201 1.396 . S
H203 C198 0.929 . S
O204 Mn180 2.385 . S
O204 C182 1.234 . S
O205 Mn180 2.209 . S
O205 Mn181 2.215 . S
O205 C182 1.283 . S
O206 Mn180 2.094 . S
O206 C184 1.240 . S
O207 Mn181 2.117 . S
O207 C184 1.264 . S
C208 C201 1.403 . S
C208 C209 1.399 1_565 S
C208 H214 0.929 . S
C209 C189 1.449 1_545 S
C209 C208 1.399 1_545 S
C209 H215 0.930 . S
H210 C190 0.931 . S
H211 C191 0.930 1_545 S
H212 C199 0.931 . S
H213 C200 0.929 . S
H214 C208 0.929 . S
H215 C209 0.930 . S
Mn216 O221 2.095 . S
Mn216 O231 2.162 . S
Mn216 O232 2.297 . S
Mn216 O240 2.385 . S
Mn216 O241 2.209 . S
Mn216 O242 2.094 . S
Mn217 O222 2.121 . S
Mn217 N224 2.257 . S
Mn217 N233 2.282 . S
Mn217 O241 2.215 . S
Mn217 O243 2.117 . S
C218 O240 1.234 . S
C218 O241 1.283 . S
C219 O231 1.281 . S
C219 O232 1.236 . S
C220 O242 1.240 . S
C220 O243 1.264 . S
O221 Mn216 2.095 . S
O221 C230 1.250 . S
O222 Mn217 2.121 . S
O222 C230 1.258 . S
C223 N224 1.326 . S
C223 C227 1.460 . S
C223 H229 0.929 . S
N224 Mn217 2.257 . S
N224 C223 1.326 . S
N224 C228 1.362 . S
C225 C226 1.258 1_655 S
C225 C228 1.431 . S
C225 C245 1.449 1_655 S
C226 C225 1.258 1_455 S
C226 C227 1.477 1_455 S
C226 H246 0.931 . S
C227 C223 1.460 . S
C227 C226 1.477 1_655 S
C227 H247 0.930 1_655 S
C228 N224 1.362 . S
C228 C225 1.431 . S
C228 C238 1.476 . S
H229 C223 0.929 . S
C230 O221 1.250 . S
C230 O222 1.258 . S
O231 Mn216 2.162 . S
O231 C219 1.281 . S
O232 Mn216 2.297 . S
O232 C219 1.236 . S
N233 Mn217 2.282 . S
N233 C234 1.328 . S
N233 C238 1.318 . S
C234 N233 1.328 . S
C234 C235 1.457 . S
C234 H239 0.929 . S
C235 C234 1.457 . S
C235 C236 1.291 . S
C235 H248 0.931 . S
C236 C235 1.291 . S
C236 C237 1.373 . S
C236 H249 0.929 . S
C237 C236 1.373 . S
C237 C238 1.396 . S
C237 C244 1.403 . S
C238 C228 1.476 . S
C238 N233 1.318 . S
C238 C237 1.396 . S
H239 C234 0.929 . S
O240 Mn216 2.385 . S
O240 C218 1.234 . S
O241 Mn216 2.209 . S
O241 Mn217 2.215 . S
O241 C218 1.283 . S
O242 Mn216 2.094 . S
O242 C220 1.240 . S
O243 Mn217 2.117 . S
O243 C220 1.264 . S
C244 C237 1.403 . S
C244 C245 1.399 1_655 S
C244 H250 0.929 . S
C245 C225 1.449 1_455 S
C245 C244 1.399 1_455 S
C245 H251 0.930 . S
H246 C226 0.931 . S
H247 C227 0.930 1_455 S
H248 C235 0.931 . S
H249 C236 0.929 . S
H250 C244 0.929 . S
H251 C245 0.930 . S
Mn252 O257 2.095 . S
Mn252 O267 2.162 . S
Mn252 O268 2.297 . S
Mn252 O276 2.385 . S
Mn252 O277 2.209 . S
Mn252 O278 2.094 . S
Mn253 O258 2.121 . S
Mn253 N260 2.257 . S
Mn253 N269 2.282 . S
Mn253 O277 2.215 . S
Mn253 O279 2.117 . S
C254 O276 1.234 . S
C254 O277 1.283 . S
C255 O267 1.281 . S
C255 O268 1.236 . S
C256 O278 1.240 . S
C256 O279 1.264 . S
O257 Mn252 2.095 . S
O257 C266 1.250 . S
O258 Mn253 2.121 . S
O258 C266 1.258 . S
C259 N260 1.326 . S
C259 C263 1.460 . S
C259 H265 0.929 . S
N260 Mn253 2.257 . S
N260 C259 1.326 . S
N260 C264 1.362 . S
C261 C262 1.258 1_545 S
C261 C264 1.431 . S
C261 C281 1.449 1_545 S
C262 C261 1.258 1_565 S
C262 C263 1.477 1_565 S
C262 H282 0.931 . S
C263 C259 1.460 . S
C263 C262 1.477 1_545 S
C263 H283 0.930 1_545 S
C264 N260 1.362 . S
C264 C261 1.431 . S
C264 C274 1.476 . S
H265 C259 0.929 . S
C266 O257 1.250 . S
C266 O258 1.258 . S
O267 Mn252 2.162 . S
O267 C255 1.281 . S
O268 Mn252 2.297 . S
O268 C255 1.236 . S
N269 Mn253 2.282 . S
N269 C270 1.328 . S
N269 C274 1.318 . S
C270 N269 1.328 . S
C270 C271 1.457 . S
C270 H275 0.929 . S
C271 C270 1.457 . S
C271 C272 1.291 . S
C271 H284 0.931 . S
C272 C271 1.291 . S
C272 C273 1.373 . S
C272 H285 0.929 . S
C273 C272 1.373 . S
C273 C274 1.396 . S
C273 C280 1.403 . S
C274 C264 1.476 . S
C274 N269 1.318 . S
C274 C273 1.396 . S
H275 C270 0.929 . S
O276 Mn252 2.385 . S
O276 C254 1.234 . S
O277 Mn252 2.209 . S
O277 Mn253 2.215 . S
O277 C254 1.283 . S
O278 Mn252 2.094 . S
O278 C256 1.240 . S
O279 Mn253 2.117 . S
O279 C256 1.264 . S
C280 C273 1.403 . S
C280 C281 1.399 1_545 S
C280 H286 0.929 . S
C281 C261 1.449 1_565 S
C281 C280 1.399 1_565 S
C281 H287 0.930 . S
H282 C262 0.931 . S
H283 C263 0.930 1_565 S
H284 C271 0.931 . S
H285 C272 0.929 . S
H286 C280 0.929 . S
H287 C281 0.930 . S
Mn288 O293 2.095 . S
Mn288 O303 2.162 1_565 S
Mn288 O304 2.297 1_565 S
Mn288 O312 2.385 . S
Mn288 O313 2.209 . S
Mn288 O314 2.094 . S
Mn289 O294 2.121 . S
Mn289 N296 2.257 . S
Mn289 N305 2.282 . S
Mn289 O313 2.215 . S
Mn289 O315 2.117 . S
C290 O312 1.234 . S
C290 O313 1.283 . S
C291 O303 1.281 . S
C291 O304 1.236 . S
C292 O314 1.240 . S
C292 O315 1.264 . S
O293 Mn288 2.095 . S
O293 C302 1.250 . S
O294 Mn289 2.121 . S
O294 C302 1.258 . S
C295 N296 1.326 1_554 S
C295 C299 1.460 . S
C295 H301 0.929 . S
N296 Mn289 2.257 . S
N296 C295 1.326 1_556 S
N296 C300 1.362 . S
C297 C298 1.258 1_556 S
C297 C300 1.431 . S
C297 C317 1.449 . S
C298 C297 1.258 1_554 S
C298 C299 1.477 . S
C298 H318 0.931 . S
C299 C295 1.460 . S
C299 C298 1.477 . S
C299 H319 0.930 . S
C300 N296 1.362 . S
C300 C297 1.431 . S
C300 C310 1.476 . S
H301 C295 0.929 . S
C302 O293 1.250 . S
C302 O294 1.258 . S
O303 Mn288 2.162 1_545 S
O303 C291 1.281 . S
O304 Mn288 2.297 1_545 S
O304 C291 1.236 . S
N305 Mn289 2.282 . S
N305 C306 1.328 . S
N305 C310 1.318 . S
C306 N305 1.328 . S
C306 C307 1.457 . S
C306 H311 0.929 . S
C307 C306 1.457 . S
C307 C308 1.291 . S
C307 H320 0.931 . S
C308 C307 1.291 . S
C308 C309 1.373 . S
C308 H321 0.929 . S
C309 C308 1.373 . S
C309 C310 1.396 . S
C309 C316 1.403 . S
C310 C300 1.476 . S
C310 N305 1.318 . S
C310 C309 1.396 . S
H311 C306 0.929 . S
O312 Mn288 2.385 . S
O312 C290 1.234 . S
O313 Mn288 2.209 . S
O313 Mn289 2.215 . S
O313 C290 1.283 . S
O314 Mn288 2.094 . S
O314 C292 1.240 . S
O315 Mn289 2.117 . S
O315 C292 1.264 . S
C316 C309 1.403 . S
C316 C317 1.399 . S
C316 H322 0.929 . S
C317 C297 1.449 . S
C317 C316 1.399 . S
C317 H323 0.930 . S
H318 C298 0.931 . S
H319 C299 0.930 . S
H320 C307 0.931 . S
H321 C308 0.929 . S
H322 C316 0.929 . S
H323 C317 0.930 . S
Mn324 O329 2.095 . S
Mn324 O339 2.162 1_655 S
Mn324 O340 2.297 1_655 S
Mn324 O348 2.385 . S
Mn324 O349 2.209 . S
Mn324 O350 2.094 . S
Mn325 O330 2.121 . S
Mn325 N332 2.257 . S
Mn325 N341 2.282 . S
Mn325 O349 2.215 . S
Mn325 O351 2.117 . S
C326 O348 1.234 . S
C326 O349 1.283 . S
C327 O339 1.281 . S
C327 O340 1.236 . S
C328 O350 1.240 . S
C328 O351 1.264 . S
O329 Mn324 2.095 . S
O329 C338 1.250 . S
O330 Mn325 2.121 . S
O330 C338 1.258 . S
C331 N332 1.326 1_556 S
C331 C335 1.460 . S
C331 H337 0.929 . S
N332 Mn325 2.257 . S
N332 C331 1.326 1_554 S
N332 C336 1.362 . S
C333 C334 1.258 1_554 S
C333 C336 1.431 . S
C333 C353 1.449 . S
C334 C333 1.258 1_556 S
C334 C335 1.477 . S
C334 H354 0.931 . S
C335 C331 1.460 . S
C335 C334 1.477 . S
C335 H355 0.930 . S
C336 N332 1.362 . S
C336 C333 1.431 . S
C336 C346 1.476 . S
H337 C331 0.929 . S
C338 O329 1.250 . S
C338 O330 1.258 . S
O339 Mn324 2.162 1_455 S
O339 C327 1.281 . S
O340 Mn324 2.297 1_455 S
O340 C327 1.236 . S
N341 Mn325 2.282 . S
N341 C342 1.328 . S
N341 C346 1.318 . S
C342 N341 1.328 . S
C342 C343 1.457 . S
C342 H347 0.929 . S
C343 C342 1.457 . S
C343 C344 1.291 . S
C343 H356 0.931 . S
C344 C343 1.291 . S
C344 C345 1.373 . S
C344 H357 0.929 . S
C345 C344 1.373 . S
C345 C346 1.396 . S
C345 C352 1.403 . S
C346 C336 1.476 . S
C346 N341 1.318 . S
C346 C345 1.396 . S
H347 C342 0.929 . S
O348 Mn324 2.385 . S
O348 C326 1.234 . S
O349 Mn324 2.209 . S
O349 Mn325 2.215 . S
O349 C326 1.283 . S
O350 Mn324 2.094 . S
O350 C328 1.240 . S
O351 Mn325 2.117 . S
O351 C328 1.264 . S
C352 C345 1.403 . S
C352 C353 1.399 . S
C352 H358 0.929 . S
C353 C333 1.449 . S
C353 C352 1.399 . S
C353 H359 0.930 . S
H354 C334 0.931 . S
H355 C335 0.930 . S
H356 C343 0.931 . S
H357 C344 0.929 . S
H358 C352 0.929 . S
H359 C353 0.930 . S
Mn360 O365 2.095 . S
Mn360 O375 2.162 1_545 S
Mn360 O376 2.297 1_545 S
Mn360 O384 2.385 . S
Mn360 O385 2.209 . S
Mn360 O386 2.094 . S
Mn361 O366 2.121 . S
Mn361 N368 2.257 . S
Mn361 N377 2.282 . S
Mn361 O385 2.215 . S
Mn361 O387 2.117 . S
C362 O384 1.234 . S
C362 O385 1.283 . S
C363 O375 1.281 . S
C363 O376 1.236 . S
C364 O386 1.240 . S
C364 O387 1.264 . S
O365 Mn360 2.095 . S
O365 C374 1.250 . S
O366 Mn361 2.121 . S
O366 C374 1.258 . S
C367 N368 1.326 1_554 S
C367 C371 1.460 . S
C367 H373 0.929 . S
N368 Mn361 2.257 . S
N368 C367 1.326 1_556 S
N368 C372 1.362 . S
C369 C370 1.258 1_556 S
C369 C372 1.431 . S
C369 C389 1.449 . S
C370 C369 1.258 1_554 S
C370 C371 1.477 . S
C370 H390 0.931 . S
C371 C367 1.460 . S
C371 C370 1.477 . S
C371 H391 0.930 . S
C372 N368 1.362 . S
C372 C369 1.431 . S
C372 C382 1.476 . S
H373 C367 0.929 . S
C374 O365 1.250 . S
C374 O366 1.258 . S
O375 Mn360 2.162 1_565 S
O375 C363 1.281 . S
O376 Mn360 2.297 1_565 S
O376 C363 1.236 . S
N377 Mn361 2.282 . S
N377 C378 1.328 . S
N377 C382 1.318 . S
C378 N377 1.328 . S
C378 C379 1.457 . S
C378 H383 0.929 . S
C379 C378 1.457 . S
C379 C380 1.291 . S
C379 H392 0.931 . S
C380 C379 1.291 . S
C380 C381 1.373 . S
C380 H393 0.929 . S
C381 C380 1.373 . S
C381 C382 1.396 . S
C381 C388 1.403 . S
C382 C372 1.476 . S
C382 N377 1.318 . S
C382 C381 1.396 . S
H383 C378 0.929 . S
O384 Mn360 2.385 . S
O384 C362 1.234 . S
O385 Mn360 2.209 . S
O385 Mn361 2.215 . S
O385 C362 1.283 . S
O386 Mn360 2.094 . S
O386 C364 1.240 . S
O387 Mn361 2.117 . S
O387 C364 1.264 . S
C388 C381 1.403 . S
C388 C389 1.399 . S
C388 H394 0.929 . S
C389 C369 1.449 . S
C389 C388 1.399 . S
C389 H395 0.930 . S
H390 C370 0.931 . S
H391 C371 0.930 . S
H392 C379 0.931 . S
H393 C380 0.929 . S
H394 C388 0.929 . S
H395 C389 0.930 . S
Mn396 O401 2.095 . S
Mn396 O411 2.162 1_455 S
Mn396 O412 2.297 1_455 S
Mn396 O420 2.385 . S
Mn396 O421 2.209 . S
Mn396 O422 2.094 . S
Mn397 O402 2.121 . S
Mn397 N404 2.257 . S
Mn397 N413 2.282 . S
Mn397 O421 2.215 . S
Mn397 O423 2.117 . S
C398 O420 1.234 . S
C398 O421 1.283 . S
C399 O411 1.281 . S
C399 O412 1.236 . S
C400 O422 1.240 . S
C400 O423 1.264 . S
O401 Mn396 2.095 . S
O401 C410 1.250 . S
O402 Mn397 2.121 . S
O402 C410 1.258 . S
C403 N404 1.326 1_556 S
C403 C407 1.460 . S
C403 H409 0.929 . S
N404 Mn397 2.257 . S
N404 C403 1.326 1_554 S
N404 C408 1.362 . S
C405 C406 1.258 1_554 S
C405 C408 1.431 . S
C405 C425 1.449 . S
C406 C405 1.258 1_556 S
C406 C407 1.477 . S
C406 H426 0.931 . S
C407 C403 1.460 . S
C407 C406 1.477 . S
C407 H427 0.930 . S
C408 N404 1.362 . S
C408 C405 1.431 . S
C408 C418 1.476 . S
H409 C403 0.929 . S
C410 O401 1.250 . S
C410 O402 1.258 . S
O411 Mn396 2.162 1_655 S
O411 C399 1.281 . S
O412 Mn396 2.297 1_655 S
O412 C399 1.236 . S
N413 Mn397 2.282 . S
N413 C414 1.328 . S
N413 C418 1.318 . S
C414 N413 1.328 . S
C414 C415 1.457 . S
C414 H419 0.929 . S
C415 C414 1.457 . S
C415 C416 1.291 . S
C415 H428 0.931 . S
C416 C415 1.291 . S
C416 C417 1.373 . S
C416 H429 0.929 . S
C417 C416 1.373 . S
C417 C418 1.396 . S
C417 C424 1.403 . S
C418 C408 1.476 . S
C418 N413 1.318 . S
C418 C417 1.396 . S
H419 C414 0.929 . S
O420 Mn396 2.385 . S
O420 C398 1.234 . S
O421 Mn396 2.209 . S
O421 Mn397 2.215 . S
O421 C398 1.283 . S
O422 Mn396 2.094 . S
O422 C400 1.240 . S
O423 Mn397 2.117 . S
O423 C400 1.264 . S
C424 C417 1.403 . S
C424 C425 1.399 . S
C424 H430 0.929 . S
C425 C405 1.449 . S
C425 C424 1.399 . S
C425 H431 0.930 . S
H426 C406 0.931 . S
H427 C407 0.930 . S
H428 C415 0.931 . S
H429 C416 0.929 . S
H430 C424 0.929 . S
H431 C425 0.930 . S
Mn432 O437 2.095 . S
Mn432 O447 2.162 1_545 S
Mn432 O448 2.297 1_545 S
Mn432 O456 2.385 . S
Mn432 O457 2.209 . S
Mn432 O458 2.094 . S
Mn433 O438 2.121 . S
Mn433 N440 2.257 . S
Mn433 N449 2.282 . S
Mn433 O457 2.215 . S
Mn433 O459 2.117 . S
C434 O456 1.234 . S
C434 O457 1.283 . S
C435 O447 1.281 . S
C435 O448 1.236 . S
C436 O458 1.240 . S
C436 O459 1.264 . S
O437 Mn432 2.095 . S
O437 C446 1.250 . S
O438 Mn433 2.121 . S
O438 C446 1.258 . S
C439 N440 1.326 1_556 S
C439 C443 1.460 . S
C439 H445 0.929 . S
N440 Mn433 2.257 . S
N440 C439 1.326 1_554 S
N440 C444 1.362 . S
C441 C442 1.258 1_554 S
C441 C444 1.431 . S
C441 C461 1.449 . S
C442 C441 1.258 1_556 S
C442 C443 1.477 . S
C442 H462 0.931 . S
C443 C439 1.460 . S
C443 C442 1.477 . S
C443 H463 0.930 . S
C444 N440 1.362 . S
C444 C441 1.431 . S
C444 C454 1.476 . S
H445 C439 0.929 . S
C446 O437 1.250 . S
C446 O438 1.258 . S
O447 Mn432 2.162 1_565 S
O447 C435 1.281 . S
O448 Mn432 2.297 1_565 S
O448 C435 1.236 . S
N449 Mn433 2.282 . S
N449 C450 1.328 . S
N449 C454 1.318 . S
C450 N449 1.328 . S
C450 C451 1.457 . S
C450 H455 0.929 . S
C451 C450 1.457 . S
C451 C452 1.291 . S
C451 H464 0.931 . S
C452 C451 1.291 . S
C452 C453 1.373 . S
C452 H465 0.929 . S
C453 C452 1.373 . S
C453 C454 1.396 . S
C453 C460 1.403 . S
C454 C444 1.476 . S
C454 N449 1.318 . S
C454 C453 1.396 . S
H455 C450 0.929 . S
O456 Mn432 2.385 . S
O456 C434 1.234 . S
O457 Mn432 2.209 . S
O457 Mn433 2.215 . S
O457 C434 1.283 . S
O458 Mn432 2.094 . S
O458 C436 1.240 . S
O459 Mn433 2.117 . S
O459 C436 1.264 . S
C460 C453 1.403 . S
C460 C461 1.399 . S
C460 H466 0.929 . S
C461 C441 1.449 . S
C461 C460 1.399 . S
C461 H467 0.930 . S
H462 C442 0.931 . S
H463 C443 0.930 . S
H464 C451 0.931 . S
H465 C452 0.929 . S
H466 C460 0.929 . S
H467 C461 0.930 . S
Mn468 O473 2.095 . S
Mn468 O483 2.162 1_455 S
Mn468 O484 2.297 1_455 S
Mn468 O492 2.385 . S
Mn468 O493 2.209 . S
Mn468 O494 2.094 . S
Mn469 O474 2.121 . S
Mn469 N476 2.257 . S
Mn469 N485 2.282 . S
Mn469 O493 2.215 . S
Mn469 O495 2.117 . S
C470 O492 1.234 . S
C470 O493 1.283 . S
C471 O483 1.281 . S
C471 O484 1.236 . S
C472 O494 1.240 . S
C472 O495 1.264 . S
O473 Mn468 2.095 . S
O473 C482 1.250 . S
O474 Mn469 2.121 . S
O474 C482 1.258 . S
C475 N476 1.326 1_554 S
C475 C479 1.460 . S
C475 H481 0.929 . S
N476 Mn469 2.257 . S
N476 C475 1.326 1_556 S
N476 C480 1.362 . S
C477 C478 1.258 1_556 S
C477 C480 1.431 . S
C477 C497 1.449 . S
C478 C477 1.258 1_554 S
C478 C479 1.477 . S
C478 H498 0.931 . S
C479 C475 1.460 . S
C479 C478 1.477 . S
C479 H499 0.930 . S
C480 N476 1.362 . S
C480 C477 1.431 . S
C480 C490 1.476 . S
H481 C475 0.929 . S
C482 O473 1.250 . S
C482 O474 1.258 . S
O483 Mn468 2.162 1_655 S
O483 C471 1.281 . S
O484 Mn468 2.297 1_655 S
O484 C471 1.236 . S
N485 Mn469 2.282 . S
N485 C486 1.328 . S
N485 C490 1.318 . S
C486 N485 1.328 . S
C486 C487 1.457 . S
C486 H491 0.929 . S
C487 C486 1.457 . S
C487 C488 1.291 . S
C487 H500 0.931 . S
C488 C487 1.291 . S
C488 C489 1.373 . S
C488 H501 0.929 . S
C489 C488 1.373 . S
C489 C490 1.396 . S
C489 C496 1.403 . S
C490 C480 1.476 . S
C490 N485 1.318 . S
C490 C489 1.396 . S
H491 C486 0.929 . S
O492 Mn468 2.385 . S
O492 C470 1.234 . S
O493 Mn468 2.209 . S
O493 Mn469 2.215 . S
O493 C470 1.283 . S
O494 Mn468 2.094 . S
O494 C472 1.240 . S
O495 Mn469 2.117 . S
O495 C472 1.264 . S
C496 C489 1.403 . S
C496 C497 1.399 . S
C496 H502 0.929 . S
C497 C477 1.449 . S
C497 C496 1.399 . S
C497 H503 0.930 . S
H498 C478 0.931 . S
H499 C479 0.930 . S
H500 C487 0.931 . S
H501 C488 0.929 . S
H502 C496 0.929 . S
H503 C497 0.930 . S
Mn504 O509 2.095 . S
Mn504 O519 2.162 1_565 S
Mn504 O520 2.297 1_565 S
Mn504 O528 2.385 . S
Mn504 O529 2.209 . S
Mn504 O530 2.094 . S
Mn505 O510 2.121 . S
Mn505 N512 2.257 . S
Mn505 N521 2.282 . S
Mn505 O529 2.215 . S
Mn505 O531 2.117 . S
C506 O528 1.234 . S
C506 O529 1.283 . S
C507 O519 1.281 . S
C507 O520 1.236 . S
C508 O530 1.240 . S
C508 O531 1.264 . S
O509 Mn504 2.095 . S
O509 C518 1.250 . S
O510 Mn505 2.121 . S
O510 C518 1.258 . S
C511 N512 1.326 1_556 S
C511 C515 1.460 . S
C511 H517 0.929 . S
N512 Mn505 2.257 . S
N512 C511 1.326 1_554 S
N512 C516 1.362 . S
C513 C514 1.258 1_554 S
C513 C516 1.431 . S
C513 C533 1.449 . S
C514 C513 1.258 1_556 S
C514 C515 1.477 . S
C514 H534 0.931 . S
C515 C511 1.460 . S
C515 C514 1.477 . S
C515 H535 0.930 . S
C516 N512 1.362 . S
C516 C513 1.431 . S
C516 C526 1.476 . S
H517 C511 0.929 . S
C518 O509 1.250 . S
C518 O510 1.258 . S
O519 Mn504 2.162 1_545 S
O519 C507 1.281 . S
O520 Mn504 2.297 1_545 S
O520 C507 1.236 . S
N521 Mn505 2.282 . S
N521 C522 1.328 . S
N521 C526 1.318 . S
C522 N521 1.328 . S
C522 C523 1.457 . S
C522 H527 0.929 . S
C523 C522 1.457 . S
C523 C524 1.291 . S
C523 H536 0.931 . S
C524 C523 1.291 . S
C524 C525 1.373 . S
C524 H537 0.929 . S
C525 C524 1.373 . S
C525 C526 1.396 . S
C525 C532 1.403 . S
C526 C516 1.476 . S
C526 N521 1.318 . S
C526 C525 1.396 . S
H527 C522 0.929 . S
O528 Mn504 2.385 . S
O528 C506 1.234 . S
O529 Mn504 2.209 . S
O529 Mn505 2.215 . S
O529 C506 1.283 . S
O530 Mn504 2.094 . S
O530 C508 1.240 . S
O531 Mn505 2.117 . S
O531 C508 1.264 . S
C532 C525 1.403 . S
C532 C533 1.399 . S
C532 H538 0.929 . S
C533 C513 1.449 . S
C533 C532 1.399 . S
C533 H539 0.930 . S
H534 C514 0.931 . S
H535 C515 0.930 . S
H536 C523 0.931 . S
H537 C524 0.929 . S
H538 C532 0.929 . S
H539 C533 0.930 . S
Mn540 O545 2.095 . S
Mn540 O555 2.162 1_655 S
Mn540 O556 2.297 1_655 S
Mn540 O564 2.385 . S
Mn540 O565 2.209 . S
Mn540 O566 2.094 . S
Mn541 O546 2.121 . S
Mn541 N548 2.257 . S
Mn541 N557 2.282 . S
Mn541 O565 2.215 . S
Mn541 O567 2.117 . S
C542 O564 1.234 . S
C542 O565 1.283 . S
C543 O555 1.281 . S
C543 O556 1.236 . S
C544 O566 1.240 . S
C544 O567 1.264 . S
O545 Mn540 2.095 . S
O545 C554 1.250 . S
O546 Mn541 2.121 . S
O546 C554 1.258 . S
C547 N548 1.326 1_554 S
C547 C551 1.460 . S
C547 H553 0.929 . S
N548 Mn541 2.257 . S
N548 C547 1.326 1_556 S
N548 C552 1.362 . S
C549 C550 1.258 1_556 S
C549 C552 1.431 . S
C549 C569 1.449 . S
C550 C549 1.258 1_554 S
C550 C551 1.477 . S
C550 H570 0.931 . S
C551 C547 1.460 . S
C551 C550 1.477 . S
C551 H571 0.930 . S
C552 N548 1.362 . S
C552 C549 1.431 . S
C552 C562 1.476 . S
H553 C547 0.929 . S
C554 O545 1.250 . S
C554 O546 1.258 . S
O555 Mn540 2.162 1_455 S
O555 C543 1.281 . S
O556 Mn540 2.297 1_455 S
O556 C543 1.236 . S
N557 Mn541 2.282 . S
N557 C558 1.328 . S
N557 C562 1.318 . S
C558 N557 1.328 . S
C558 C559 1.457 . S
C558 H563 0.929 . S
C559 C558 1.457 . S
C559 C560 1.291 . S
C559 H572 0.931 . S
C560 C559 1.291 . S
C560 C561 1.373 . S
C560 H573 0.929 . S
C561 C560 1.373 . S
C561 C562 1.396 . S
C561 C568 1.403 . S
C562 C552 1.476 . S
C562 N557 1.318 . S
C562 C561 1.396 . S
H563 C558 0.929 . S
O564 Mn540 2.385 . S
O564 C542 1.234 . S
O565 Mn540 2.209 . S
O565 Mn541 2.215 . S
O565 C542 1.283 . S
O566 Mn540 2.094 . S
O566 C544 1.240 . S
O567 Mn541 2.117 . S
O567 C544 1.264 . S
C568 C561 1.403 . S
C568 C569 1.399 . S
C568 H574 0.929 . S
C569 C549 1.449 . S
C569 C568 1.399 . S
C569 H575 0.930 . S
H570 C550 0.931 . S
H571 C551 0.930 . S
H572 C559 0.931 . S
H573 C560 0.929 . S
H574 C568 0.929 . S
H575 C569 0.930 . S
C4 C256 1.240 . S
C40 C148 1.240 . S
C184 C76 1.240 . S
C112 C220 1.240 . S
C292 C544 1.240 . S
C436 C328 1.240 . S
C472 C364 1.240 . S
C508 C400 1.240 . S
C3 C398 1.554 . S
C39 C290 1.554 . S
C326 C75 1.554 . S
C111 C362 1.554 . S
C147 C470 1.554 . S
C506 C183 1.554 . S
C219 C542 1.554 . S
C434 C255 1.554 . S
C291 C110 1.554 . S
C2 C327 1.554 . S
C363 C38 1.554 . S
C74 C399 1.554 . S
C435 C182 1.554 . S
C218 C471 1.554 . S
C254 C507 1.554 . S
C146 C543 1.554 . S
C158 C14 1.623 . S
C194 C50 1.623 . S
C86 C230 1.623 . S
C266 C122 1.623 . S
C446 C302 1.623 1_544 S
C482 C338 1.623 1_456 S
C374 C518 1.623 1_546 S
C554 C410 1.623 1_656 S
