# Generated by pormake.
# Topology som, (6)-cn, num edge types: 1
# Building blocks:
#     Node 0, Type 0, BuildingBlock: JUFBIX_clean_sbu_0, # of connection points: 6
#     Node 1, Type 0, BuildingBlock: JUFBIX_clean_sbu_0, # of connection points: 6
#     Node 2, Type 0, BuildingBlock: JUFBIX_clean_sbu_0, # of connection points: 6
#     Node 3, Type 0, BuildingBlock: JUFBIX_clean_sbu_0, # of connection points: 6
#     Node 4, Type 0, BuildingBlock: JUFBIX_clean_sbu_0, # of connection points: 6
#     Node 5, Type 0, BuildingBlock: JUFBIX_clean_sbu_0, # of connection points: 6
#     Node 6, Type 0, BuildingBlock: JUFBIX_clean_sbu_0, # of connection points: 6
#     Node 7, Type 0, BuildingBlock: JUFBIX_clean_sbu_0, # of connection points: 6
#     Node 8, Type 0, BuildingBlock: JUFBIX_clean_sbu_0, # of connection points: 6
#     Node 9, Type 0, BuildingBlock: JUFBIX_clean_sbu_0, # of connection points: 6
#     Node 10, Type 0, BuildingBlock: JUFBIX_clean_sbu_0, # of connection points: 6
#     Node 11, Type 0, BuildingBlock: JUFBIX_clean_sbu_0, # of connection points: 6
#     Node 12, Type 0, BuildingBlock: JUFBIX_clean_sbu_0, # of connection points: 6
#     Node 13, Type 0, BuildingBlock: JUFBIX_clean_sbu_0, # of connection points: 6
#     Node 14, Type 0, BuildingBlock: JUFBIX_clean_sbu_0, # of connection points: 6
#     Node 15, Type 0, BuildingBlock: JUFBIX_clean_sbu_0, # of connection points: 6
#     Node 16, Type 0, BuildingBlock: JUFBIX_clean_sbu_0, # of connection points: 6
#     Node 17, Type 0, BuildingBlock: JUFBIX_clean_sbu_0, # of connection points: 6
#     Node 18, Type 0, BuildingBlock: JUFBIX_clean_sbu_0, # of connection points: 6
#     Node 19, Type 0, BuildingBlock: JUFBIX_clean_sbu_0, # of connection points: 6
#     Node 20, Type 0, BuildingBlock: JUFBIX_clean_sbu_0, # of connection points: 6
#     Node 21, Type 0, BuildingBlock: JUFBIX_clean_sbu_0, # of connection points: 6
#     Node 22, Type 0, BuildingBlock: JUFBIX_clean_sbu_0, # of connection points: 6
#     Node 23, Type 0, BuildingBlock: JUFBIX_clean_sbu_0, # of connection points: 6
#     Node 24, Type 0, BuildingBlock: JUFBIX_clean_sbu_0, # of connection points: 6
#     Node 25, Type 0, BuildingBlock: JUFBIX_clean_sbu_0, # of connection points: 6
#     Node 26, Type 0, BuildingBlock: JUFBIX_clean_sbu_0, # of connection points: 6
#     Node 27, Type 0, BuildingBlock: JUFBIX_clean_sbu_0, # of connection points: 6
#     Node 28, Type 0, BuildingBlock: JUFBIX_clean_sbu_0, # of connection points: 6
#     Node 29, Type 0, BuildingBlock: JUFBIX_clean_sbu_0, # of connection points: 6
#     Node 30, Type 0, BuildingBlock: JUFBIX_clean_sbu_0, # of connection points: 6
#     Node 31, Type 0, BuildingBlock: JUFBIX_clean_sbu_0, # of connection points: 6
#     Edge 32, Type (0, 0), BuildingBlock: OJICUG_clean_linker_0, # of connection points: 2
#     Edge 33, Type (0, 0), BuildingBlock: OJICUG_clean_linker_0, # of connection points: 2
#     Edge 34, Type (0, 0), BuildingBlock: OJICUG_clean_linker_0, # of connection points: 2
#     Edge 35, Type (0, 0), BuildingBlock: OJICUG_clean_linker_0, # of connection points: 2
#     Edge 36, Type (0, 0), BuildingBlock: OJICUG_clean_linker_0, # of connection points: 2
#     Edge 37, Type (0, 0), BuildingBlock: OJICUG_clean_linker_0, # of connection points: 2
#     Edge 38, Type (0, 0), BuildingBlock: OJICUG_clean_linker_0, # of connection points: 2
#     Edge 39, Type (0, 0), BuildingBlock: OJICUG_clean_linker_0, # of connection points: 2
#     Edge 40, Type (0, 0), BuildingBlock: OJICUG_clean_linker_0, # of connection points: 2
#     Edge 41, Type (0, 0), BuildingBlock: OJICUG_clean_linker_0, # of connection points: 2
#     Edge 42, Type (0, 0), BuildingBlock: OJICUG_clean_linker_0, # of connection points: 2
#     Edge 43, Type (0, 0), BuildingBlock: OJICUG_clean_linker_0, # of connection points: 2
#     Edge 44, Type (0, 0), BuildingBlock: OJICUG_clean_linker_0, # of connection points: 2
#     Edge 45, Type (0, 0), BuildingBlock: OJICUG_clean_linker_0, # of connection points: 2
#     Edge 46, Type (0, 0), BuildingBlock: OJICUG_clean_linker_0, # of connection points: 2
#     Edge 47, Type (0, 0), BuildingBlock: OJICUG_clean_linker_0, # of connection points: 2
#     Edge 48, Type (0, 0), BuildingBlock: OJICUG_clean_linker_0, # of connection points: 2
#     Edge 49, Type (0, 0), BuildingBlock: OJICUG_clean_linker_0, # of connection points: 2
#     Edge 50, Type (0, 0), BuildingBlock: OJICUG_clean_linker_0, # of connection points: 2
#     Edge 51, Type (0, 0), BuildingBlock: OJICUG_clean_linker_0, # of connection points: 2
#     Edge 52, Type (0, 0), BuildingBlock: OJICUG_clean_linker_0, # of connection points: 2
#     Edge 53, Type (0, 0), BuildingBlock: OJICUG_clean_linker_0, # of connection points: 2
#     Edge 54, Type (0, 0), BuildingBlock: OJICUG_clean_linker_0, # of connection points: 2
#     Edge 55, Type (0, 0), BuildingBlock: OJICUG_clean_linker_0, # of connection points: 2
#     Edge 56, Type (0, 0), BuildingBlock: OJICUG_clean_linker_0, # of connection points: 2
#     Edge 57, Type (0, 0), BuildingBlock: OJICUG_clean_linker_0, # of connection points: 2
#     Edge 58, Type (0, 0), BuildingBlock: OJICUG_clean_linker_0, # of connection points: 2
#     Edge 59, Type (0, 0), BuildingBlock: OJICUG_clean_linker_0, # of connection points: 2
#     Edge 60, Type (0, 0), BuildingBlock: OJICUG_clean_linker_0, # of connection points: 2
#     Edge 61, Type (0, 0), BuildingBlock: OJICUG_clean_linker_0, # of connection points: 2
#     Edge 62, Type (0, 0), BuildingBlock: OJICUG_clean_linker_0, # of connection points: 2
#     Edge 63, Type (0, 0), BuildingBlock: OJICUG_clean_linker_0, # of connection points: 2
#     Edge 64, Type (0, 0), BuildingBlock: OJICUG_clean_linker_0, # of connection points: 2
#     Edge 65, Type (0, 0), BuildingBlock: OJICUG_clean_linker_0, # of connection points: 2
#     Edge 66, Type (0, 0), BuildingBlock: OJICUG_clean_linker_0, # of connection points: 2
#     Edge 67, Type (0, 0), BuildingBlock: OJICUG_clean_linker_0, # of connection points: 2
#     Edge 68, Type (0, 0), BuildingBlock: OJICUG_clean_linker_0, # of connection points: 2
#     Edge 69, Type (0, 0), BuildingBlock: OJICUG_clean_linker_0, # of connection points: 2
#     Edge 70, Type (0, 0), BuildingBlock: OJICUG_clean_linker_0, # of connection points: 2
#     Edge 71, Type (0, 0), BuildingBlock: OJICUG_clean_linker_0, # of connection points: 2
#     Edge 72, Type (0, 0), BuildingBlock: OJICUG_clean_linker_0, # of connection points: 2
#     Edge 73, Type (0, 0), BuildingBlock: OJICUG_clean_linker_0, # of connection points: 2
#     Edge 74, Type (0, 0), BuildingBlock: OJICUG_clean_linker_0, # of connection points: 2
#     Edge 75, Type (0, 0), BuildingBlock: OJICUG_clean_linker_0, # of connection points: 2
#     Edge 76, Type (0, 0), BuildingBlock: OJICUG_clean_linker_0, # of connection points: 2
#     Edge 77, Type (0, 0), BuildingBlock: OJICUG_clean_linker_0, # of connection points: 2
#     Edge 78, Type (0, 0), BuildingBlock: OJICUG_clean_linker_0, # of connection points: 2
#     Edge 79, Type (0, 0), BuildingBlock: OJICUG_clean_linker_0, # of connection points: 2
#     Edge 80, Type (0, 0), BuildingBlock: OJICUG_clean_linker_0, # of connection points: 2
#     Edge 81, Type (0, 0), BuildingBlock: OJICUG_clean_linker_0, # of connection points: 2
#     Edge 82, Type (0, 0), BuildingBlock: OJICUG_clean_linker_0, # of connection points: 2
#     Edge 83, Type (0, 0), BuildingBlock: OJICUG_clean_linker_0, # of connection points: 2
#     Edge 84, Type (0, 0), BuildingBlock: OJICUG_clean_linker_0, # of connection points: 2
#     Edge 85, Type (0, 0), BuildingBlock: OJICUG_clean_linker_0, # of connection points: 2
#     Edge 86, Type (0, 0), BuildingBlock: OJICUG_clean_linker_0, # of connection points: 2
#     Edge 87, Type (0, 0), BuildingBlock: OJICUG_clean_linker_0, # of connection points: 2
#     Edge 88, Type (0, 0), BuildingBlock: OJICUG_clean_linker_0, # of connection points: 2
#     Edge 89, Type (0, 0), BuildingBlock: OJICUG_clean_linker_0, # of connection points: 2
#     Edge 90, Type (0, 0), BuildingBlock: OJICUG_clean_linker_0, # of connection points: 2
#     Edge 91, Type (0, 0), BuildingBlock: OJICUG_clean_linker_0, # of connection points: 2
#     Edge 92, Type (0, 0), BuildingBlock: OJICUG_clean_linker_0, # of connection points: 2
#     Edge 93, Type (0, 0), BuildingBlock: OJICUG_clean_linker_0, # of connection points: 2
#     Edge 94, Type (0, 0), BuildingBlock: OJICUG_clean_linker_0, # of connection points: 2
#     Edge 95, Type (0, 0), BuildingBlock: OJICUG_clean_linker_0, # of connection points: 2
#     Edge 96, Type (0, 0), BuildingBlock: OJICUG_clean_linker_0, # of connection points: 2
#     Edge 97, Type (0, 0), BuildingBlock: OJICUG_clean_linker_0, # of connection points: 2
#     Edge 98, Type (0, 0), BuildingBlock: OJICUG_clean_linker_0, # of connection points: 2
#     Edge 99, Type (0, 0), BuildingBlock: OJICUG_clean_linker_0, # of connection points: 2
#     Edge 100, Type (0, 0), BuildingBlock: OJICUG_clean_linker_0, # of connection points: 2
#     Edge 101, Type (0, 0), BuildingBlock: OJICUG_clean_linker_0, # of connection points: 2
#     Edge 102, Type (0, 0), BuildingBlock: OJICUG_clean_linker_0, # of connection points: 2
#     Edge 103, Type (0, 0), BuildingBlock: OJICUG_clean_linker_0, # of connection points: 2
#     Edge 104, Type (0, 0), BuildingBlock: OJICUG_clean_linker_0, # of connection points: 2
#     Edge 105, Type (0, 0), BuildingBlock: OJICUG_clean_linker_0, # of connection points: 2
#     Edge 106, Type (0, 0), BuildingBlock: OJICUG_clean_linker_0, # of connection points: 2
#     Edge 107, Type (0, 0), BuildingBlock: OJICUG_clean_linker_0, # of connection points: 2
#     Edge 108, Type (0, 0), BuildingBlock: OJICUG_clean_linker_0, # of connection points: 2
#     Edge 109, Type (0, 0), BuildingBlock: OJICUG_clean_linker_0, # of connection points: 2
#     Edge 110, Type (0, 0), BuildingBlock: OJICUG_clean_linker_0, # of connection points: 2
#     Edge 111, Type (0, 0), BuildingBlock: OJICUG_clean_linker_0, # of connection points: 2
#     Edge 112, Type (0, 0), BuildingBlock: OJICUG_clean_linker_0, # of connection points: 2
#     Edge 113, Type (0, 0), BuildingBlock: OJICUG_clean_linker_0, # of connection points: 2
#     Edge 114, Type (0, 0), BuildingBlock: OJICUG_clean_linker_0, # of connection points: 2
#     Edge 115, Type (0, 0), BuildingBlock: OJICUG_clean_linker_0, # of connection points: 2
#     Edge 116, Type (0, 0), BuildingBlock: OJICUG_clean_linker_0, # of connection points: 2
#     Edge 117, Type (0, 0), BuildingBlock: OJICUG_clean_linker_0, # of connection points: 2
#     Edge 118, Type (0, 0), BuildingBlock: OJICUG_clean_linker_0, # of connection points: 2
#     Edge 119, Type (0, 0), BuildingBlock: OJICUG_clean_linker_0, # of connection points: 2
#     Edge 120, Type (0, 0), BuildingBlock: OJICUG_clean_linker_0, # of connection points: 2
#     Edge 121, Type (0, 0), BuildingBlock: OJICUG_clean_linker_0, # of connection points: 2
#     Edge 122, Type (0, 0), BuildingBlock: OJICUG_clean_linker_0, # of connection points: 2
#     Edge 123, Type (0, 0), BuildingBlock: OJICUG_clean_linker_0, # of connection points: 2
#     Edge 124, Type (0, 0), BuildingBlock: OJICUG_clean_linker_0, # of connection points: 2
#     Edge 125, Type (0, 0), BuildingBlock: OJICUG_clean_linker_0, # of connection points: 2
#     Edge 126, Type (0, 0), BuildingBlock: OJICUG_clean_linker_0, # of connection points: 2
#     Edge 127, Type (0, 0), BuildingBlock: OJICUG_clean_linker_0, # of connection points: 2
# Relax obj value: 0.011
# Max RMSD: 0.054
# Mean RMSD: 0.054
data_MOF--net-som--node1-JUFBIX_clean_sbu_0--edge1-OJICUG_clean_linker_0
_symmetry_space_group_name_H-M    P1
_symmetry_Int_Tables_number       1
_symmetry_cell_setting            triclinic
loop_
_symmetry_equiv_pos_as_xyz
'x, y, z'
_cell_length_a     10.852466
_cell_length_b     61.884837
_cell_length_c     85.918928
_cell_angle_alpha  89.999392
_cell_angle_beta   89.995282
_cell_angle_gamma 89.999585
loop_
_atom_site_label
_atom_site_type_symbol
_atom_site_fract_x
_atom_site_fract_y
_atom_site_fract_z
_atom_type_partial_charge
Co0 Co 0.03016 0.55396 0.06975 0.0
C1 C 0.01396 0.53549 0.04006 0.0
Co2 Co 0.02938 0.51815 0.0694 0.0
C3 C 0.07812 0.60018 0.07545 0.0
C4 C 0.9229 0.59369 0.06082 0.0
N5 N 0.0139 0.58385 0.06885 0.0
N6 N 0.02901 0.61972 0.07195 0.0
C7 C 0.93162 0.61558 0.06274 0.0
H8 H 0.1589 0.5978 0.08264 0.0
H9 H 0.85462 0.58546 0.05383 0.0
C10 C 0.05215 0.53699 0.09901 0.0
N11 N 0.04105 0.48808 0.07018 0.0
C12 C 0.96149 0.4727 0.06523 0.0
C13 C 0.1333 0.47699 0.07703 0.0
N14 N 0.0009 0.45249 0.06872 0.0
C15 C 0.10926 0.45525 0.07611 0.0
C16 C 0.26351 0.5377 0.06786 0.0
O17 O 0.04362 0.55475 0.09165 0.0
O18 O 0.04374 0.51926 0.09156 0.0
O19 O 0.20343 0.52008 0.06783 0.0
O20 O 0.20511 0.55555 0.06832 0.0
O21 O 0.01695 0.51751 0.04727 0.0
H22 H 0.21155 0.48425 0.08281 0.0
H23 H 0.87551 0.4763 0.05941 0.0
O24 O 0.01883 0.55295 0.04779 0.0
O25 O 0.85609 0.55198 0.07129 0.0
O26 O 0.85431 0.51666 0.07091 0.0
C27 C 0.79585 0.53444 0.07133 0.0
H28 H 0.87346 0.62759 0.05726 0.0
H29 H 0.16474 0.44252 0.08116 0.0
Co30 Co 0.21511 0.77046 0.06982 0.0
C31 C 0.23122 0.78926 0.04023 0.0
Co32 Co 0.21587 0.80627 0.06968 0.0
C33 C 0.16755 0.72421 0.07541 0.0
C34 C 0.32151 0.73078 0.06058 0.0
N35 N 0.23115 0.74058 0.06876 0.0
N36 N 0.21638 0.70469 0.07179 0.0
C37 C 0.31296 0.70888 0.06245 0.0
H38 H 0.08751 0.72657 0.08273 0.0
H39 H 0.38931 0.73907 0.05354 0.0
C40 C 0.19319 0.7871 0.09917 0.0
N41 N 0.20447 0.83633 0.07062 0.0
C42 C 0.28395 0.85172 0.06567 0.0
C43 C 0.11257 0.84739 0.07757 0.0
N44 N 0.24485 0.87191 0.06925 0.0
C45 C 0.13677 0.86913 0.07671 0.0
C46 C 0.98176 0.78677 0.06803 0.0
O47 O 0.20175 0.76942 0.09172 0.0
O48 O 0.20155 0.80491 0.09182 0.0
O49 O 0.04181 0.80439 0.0681 0.0
O50 O 0.04017 0.76891 0.0684 0.0
O51 O 0.22827 0.80716 0.04755 0.0
H52 H 0.03444 0.8401 0.08335 0.0
H53 H 0.36961 0.84813 0.05976 0.0
O54 O 0.22633 0.77172 0.04786 0.0
O55 O 0.3892 0.77238 0.07135 0.0
O56 O 0.39094 0.80771 0.07118 0.0
C57 C 0.44941 0.78992 0.07149 0.0
H58 H 0.37076 0.69691 0.05688 0.0
H59 H 0.08156 0.88184 0.08183 0.0
Co60 Co 0.02947 0.76997 0.19342 0.0
C61 C 0.01333 0.7886 0.22306 0.0
Co62 Co 0.02868 0.80578 0.19367 0.0
C63 C 0.07744 0.72375 0.18777 0.0
C64 C 0.92269 0.73024 0.20247 0.0
N65 N 0.01338 0.74009 0.19438 0.0
N66 N 0.02857 0.70421 0.19131 0.0
C67 C 0.93148 0.70835 0.20058 0.0
H68 H 0.15791 0.72613 0.18052 0.0
H69 H 0.85455 0.73849 0.20949 0.0
C70 C 0.05138 0.78682 0.16411 0.0
N71 N 0.04021 0.83584 0.19283 0.0
C72 C 0.9609 0.85122 0.19783 0.0
C73 C 0.13208 0.84692 0.18589 0.0
N74 N 9e-05 0.87142 0.1943 0.0
C75 C 0.10805 0.86866 0.18682 0.0
C76 C 0.26281 0.78626 0.19526 0.0
O77 O 0.04294 0.76908 0.17151 0.0
O78 O 0.04292 0.80457 0.17154 0.0
O79 O 0.20274 0.80388 0.19524 0.0
O80 O 0.2044 0.7684 0.19484 0.0
O81 O 0.01634 0.80653 0.2158 0.0
H82 H 0.21008 0.83965 0.18006 0.0
H83 H 0.87529 0.84762 0.20375 0.0
O84 O 0.01815 0.77109 0.21539 0.0
O85 O 0.85539 0.77192 0.19188 0.0
O86 O 0.85361 0.80725 0.19218 0.0
C87 C 0.79516 0.78946 0.1918 0.0
H88 H 0.87353 0.69635 0.2061 0.0
H89 H 0.16327 0.88139 0.18171 0.0
Co90 Co 0.21578 0.55351 0.19327 0.0
C91 C 0.23182 0.53486 0.22289 0.0
Co92 Co 0.21654 0.51769 0.1935 0.0
C93 C 0.16779 0.59974 0.18767 0.0
C94 C 0.32261 0.59321 0.20236 0.0
N95 N 0.23189 0.58339 0.19426 0.0
N96 N 0.21667 0.61927 0.19124 0.0
C97 C 0.3138 0.6151 0.20049 0.0
H98 H 0.08729 0.59737 0.18043 0.0
H99 H 0.39076 0.58495 0.20936 0.0
C100 C 0.1939 0.53673 0.16395 0.0
N101 N 0.205 0.48762 0.19262 0.0
C102 C 0.28455 0.47223 0.19753 0.0
C103 C 0.11287 0.47657 0.18571 0.0
N104 N 0.24526 0.45204 0.19397 0.0
C105 C 0.13698 0.45482 0.18657 0.0
C106 C 0.98242 0.53722 0.19509 0.0
O107 O 0.20246 0.55444 0.17137 0.0
O108 O 0.20223 0.51895 0.17134 0.0
O109 O 0.04249 0.5196 0.19507 0.0
O110 O 0.04083 0.55507 0.19468 0.0
O111 O 0.22891 0.51692 0.21564 0.0
H112 H 0.03466 0.48386 0.17995 0.0
H113 H 0.37043 0.4758 0.20339 0.0
O114 O 0.22697 0.55235 0.21521 0.0
O115 O 0.38986 0.55155 0.19173 0.0
O116 O 0.39161 0.51623 0.19199 0.0
C117 C 0.45007 0.53401 0.19163 0.0
H118 H 0.37176 0.62709 0.20602 0.0
H119 H 0.0816 0.44212 0.18147 0.0
Co120 Co 0.96666 0.5569 0.94352 0.0
C121 C 0.94402 0.53797 0.91394 0.0
Co122 Co 0.96591 0.52109 0.94323 0.0
C123 C 0.03456 0.60236 0.94765 0.0
C124 C 0.8629 0.59806 0.93582 0.0
N125 N 0.95506 0.58697 0.9427 0.0
N126 N 0.9952 0.62256 0.94415 0.0
C127 C 0.88694 0.6198 0.93673 0.0
H128 H 0.12045 0.59876 0.9535 0.0
H129 H 0.78471 0.59078 0.93004 0.0
C130 C 0.98202 0.53963 0.97289 0.0
N131 N 0.98207 0.49121 0.94416 0.0
C132 C 0.918 0.47488 0.93754 0.0
C133 C 0.07281 0.48136 0.95224 0.0
N134 N 0.96693 0.45534 0.94106 0.0
C135 C 0.06406 0.45947 0.95032 0.0
C136 C 0.2002 0.5406 0.94163 0.0
O137 O 0.97908 0.5576 0.96567 0.0
O138 O 0.97713 0.52216 0.96518 0.0
O139 O 0.13999 0.52306 0.9417 0.0
O140 O 0.14174 0.55838 0.94201 0.0
O141 O 0.95259 0.52024 0.92134 0.0
H142 H 0.14095 0.4896 0.95925 0.0
H143 H 0.83749 0.47728 0.9303 0.0
O144 O 0.95232 0.55573 0.92136 0.0
O145 O 0.79262 0.55499 0.9451 0.0
O146 O 0.79096 0.51952 0.94464 0.0
C147 C 0.73255 0.53737 0.94509 0.0
H148 H 0.83152 0.63252 0.93166 0.0
H149 H 0.12204 0.44746 0.95583 0.0
Co150 Co 0.77921 0.26882 0.94316 0.0
C151 C 0.80192 0.28789 0.91364 0.0
Co152 Co 0.78 0.30463 0.94298 0.0
C153 C 0.71171 0.22339 0.94737 0.0
C154 C 0.882 0.22768 0.93523 0.0
N155 N 0.79064 0.23876 0.94227 0.0
N156 N 0.75061 0.20318 0.9438 0.0
C157 C 0.85801 0.20594 0.93618 0.0
H158 H 0.62659 0.227 0.9534 0.0
H159 H 0.95962 0.23496 0.92932 0.0
C160 C 0.76391 0.28589 0.97258 0.0
N161 N 0.76394 0.33451 0.944 0.0
C162 C 0.82792 0.35087 0.9374 0.0
C163 C 0.6733 0.34432 0.95212 0.0
N164 N 0.77904 0.3704 0.94099 0.0
C165 C 0.68204 0.36621 0.95026 0.0
C166 C 0.54569 0.28515 0.94132 0.0
O167 O 0.76693 0.26799 0.96529 0.0
O168 O 0.76868 0.30342 0.96494 0.0
O169 O 0.60591 0.30269 0.94143 0.0
O170 O 0.60415 0.26736 0.94167 0.0
O171 O 0.79347 0.3056 0.92106 0.0
H172 H 0.60521 0.33604 0.95912 0.0
H173 H 0.90832 0.34851 0.93014 0.0
O174 O 0.79341 0.27011 0.92103 0.0
O175 O 0.95328 0.2707 0.94472 0.0
O176 O 0.95493 0.30617 0.9444 0.0
C177 C 0.01334 0.28832 0.94478 0.0
H178 H 0.91288 0.19321 0.93102 0.0
H179 H 0.62411 0.37819 0.95581 0.0
Co180 Co 0.96694 0.26862 0.81922 0.0
C181 C 0.94426 0.28779 0.84872 0.0
Co182 Co 0.96616 0.30443 0.81936 0.0
C183 C 0.03477 0.22314 0.81526 0.0
C184 C 0.86349 0.22754 0.82716 0.0
N185 N 0.95543 0.23856 0.82019 0.0
N186 N 0.99553 0.20297 0.81888 0.0
C187 C 0.88751 0.2058 0.82634 0.0
H188 H 0.12045 0.22669 0.80934 0.0
H189 H 0.78547 0.23487 0.83295 0.0
C190 C 0.98223 0.2856 0.78978 0.0
N191 N 0.98222 0.3343 0.81829 0.0
C192 C 0.91885 0.35066 0.82498 0.0
C193 C 0.07234 0.34411 0.81008 0.0
N194 N 0.96757 0.37019 0.82136 0.0
C195 C 0.06385 0.36601 0.81196 0.0
C196 C 0.20046 0.28496 0.82103 0.0
O197 O 0.9793 0.26771 0.7971 0.0
O198 O 0.97736 0.30315 0.79739 0.0
O199 O 0.14024 0.30251 0.82089 0.0
O200 O 0.14201 0.26717 0.82073 0.0
O201 O 0.95279 0.30548 0.84127 0.0
H202 H 0.13996 0.33583 0.803 0.0
H203 H 0.83907 0.3483 0.83235 0.0
O204 O 0.95266 0.26999 0.84135 0.0
O205 O 0.79288 0.27051 0.81765 0.0
O206 O 0.79123 0.30599 0.81794 0.0
C207 C 0.73281 0.28813 0.81758 0.0
H208 H 0.83225 0.19312 0.83149 0.0
H209 H 0.12151 0.37799 0.80637 0.0
Co210 Co 0.77982 0.55673 0.81939 0.0
C211 C 0.8026 0.53786 0.84899 0.0
Co212 Co 0.7806 0.52092 0.81972 0.0
C213 C 0.71162 0.60219 0.81531 0.0
C214 C 0.88394 0.59789 0.82699 0.0
N215 N 0.79147 0.58681 0.82018 0.0
N216 N 0.75108 0.62239 0.81881 0.0
C217 C 0.85975 0.61963 0.82612 0.0
H218 H 0.6254 0.59859 0.80954 0.0
H219 H 0.96242 0.59062 0.83271 0.0
C220 C 0.76438 0.5394 0.79004 0.0
N221 N 0.76436 0.49103 0.81882 0.0
C222 C 0.82899 0.47468 0.82533 0.0
C223 C 0.67309 0.48119 0.81083 0.0
N224 N 0.77986 0.45515 0.82183 0.0
C225 C 0.68204 0.4593 0.81269 0.0
C226 C 0.54629 0.54044 0.82132 0.0
O227 O 0.76736 0.55738 0.79724 0.0
O228 O 0.76925 0.52194 0.79777 0.0
O229 O 0.60652 0.5229 0.82128 0.0
O230 O 0.60474 0.55822 0.8209 0.0
O231 O 0.79407 0.52011 0.84162 0.0
H232 H 0.60451 0.48944 0.80388 0.0
H233 H 0.91011 0.47705 0.83246 0.0
O234 O 0.7942 0.5556 0.84154 0.0
O235 O 0.95386 0.5548 0.81781 0.0
O236 O 0.95555 0.51933 0.8183 0.0
C237 C 0.01395 0.53718 0.81783 0.0
H238 H 0.91536 0.63235 0.83116 0.0
H239 H 0.62376 0.4473 0.80723 0.0
Co240 Co 0.03094 0.05343 0.57016 0.0
C241 C 0.01481 1.03487 0.54051 0.0
Co242 Co 0.03016 1.01762 0.56988 0.0
C243 C 0.07935 0.09969 0.57569 0.0
C244 C 0.92338 0.09313 0.56121 0.0
N245 N 0.01469 0.08332 0.56921 0.0
N246 N 0.0302 0.11921 0.57216 0.0
C247 C 0.93233 0.11503 0.56303 0.0
H248 H 0.16052 0.09734 0.58281 0.0
H249 H 0.85478 0.08486 0.55428 0.0
C250 C 0.05281 1.03657 0.59945 0.0
N251 N 0.04182 0.98755 0.57071 0.0
C252 C 0.96243 0.97217 0.56574 0.0
C253 C 0.13389 0.97648 0.57761 0.0
N254 N 0.00177 0.95196 0.56926 0.0
C255 C 0.1099 0.95474 0.5767 0.0
C256 C 0.26429 0.03716 0.56831 0.0
O257 O 0.04436 0.05431 0.59206 0.0
O258 O 0.04442 1.01881 0.59203 0.0
O259 O 0.20421 1.01954 0.56831 0.0
O260 O 0.20589 0.05502 0.56873 0.0
O261 O 0.01781 1.01691 0.54774 0.0
H262 H 0.21198 0.98376 0.58341 0.0
H263 H 0.87664 0.97575 0.55986 0.0
O264 O 0.01963 0.05235 0.54821 0.0
O265 O 0.85686 0.05145 0.57171 0.0
O266 O 0.85509 1.01613 0.57138 0.0
C267 C 0.79663 1.03391 0.57177 0.0
H268 H 0.87403 0.127 0.55755 0.0
H269 H 0.16526 0.94202 0.58179 0.0
Co270 Co 0.21645 0.26992 0.5694 0.0
C271 C 0.2325 0.28867 0.53979 0.0
Co272 Co 0.21723 0.30573 0.56921 0.0
C273 C 0.16914 0.22371 0.5751 0.0
C274 C 0.32251 0.23022 0.56016 0.0
N275 N 0.23246 0.24005 0.56837 0.0
N276 N 0.21783 0.20417 0.5715 0.0
C277 C 0.31404 0.20833 0.56209 0.0
H278 H 0.08942 0.22609 0.58247 0.0
H279 H 0.3901 0.23848 0.55307 0.0
C280 C 0.19455 0.28665 0.59873 0.0
N281 N 0.20581 0.33579 0.57013 0.0
C282 C 0.28521 0.35118 0.56516 0.0
C283 C 0.11399 0.34685 0.57709 0.0
N284 N 0.24614 0.37138 0.56876 0.0
C285 C 0.13816 0.36859 0.57623 0.0
C286 C 0.9831 0.28623 0.56759 0.0
O287 O 0.2031 0.26894 0.59131 0.0
O288 O 0.20295 0.30442 0.59134 0.0
O289 O 0.04316 0.30385 0.56764 0.0
O290 O 0.04152 0.26838 0.56798 0.0
O291 O 0.22958 0.30658 0.54708 0.0
H292 H 0.03597 0.33956 0.5829 0.0
H293 H 0.37082 0.3476 0.55924 0.0
O294 O 0.22764 0.27114 0.54743 0.0
O295 O 0.39054 0.27185 0.57093 0.0
O296 O 0.39229 0.30717 0.57071 0.0
C297 C 0.45075 0.28939 0.57104 0.0
H298 H 0.37165 0.19633 0.55651 0.0
H299 H 0.08302 0.3813 0.58138 0.0
Co300 Co 0.03005 0.27004 0.693 0.0
C301 C 0.0139 0.28886 0.72259 0.0
Co302 Co 0.02926 0.30585 0.69315 0.0
C303 C 0.07794 0.22377 0.68752 0.0
C304 C 0.92317 0.23039 0.7022 0.0
N305 N 0.01392 0.24016 0.69407 0.0
N306 N 0.02898 0.20426 0.69114 0.0
C307 C 0.93188 0.20849 0.70038 0.0
H308 H 0.15845 0.22609 0.68027 0.0
H309 H 0.85505 0.2387 0.70918 0.0
C310 C 0.05202 0.2867 0.66365 0.0
N311 N 0.04076 0.3359 0.6922 0.0
C312 C 0.96181 0.3513 0.69726 0.0
C313 C 0.13223 0.34695 0.68516 0.0
N314 N 0.00082 0.37149 0.69366 0.0
C315 C 0.1083 0.3687 0.68607 0.0
C316 C 0.26338 0.28635 0.69479 0.0
O317 O 0.04356 0.269 0.67109 0.0
O318 O 0.04349 0.30449 0.67102 0.0
O319 O 0.20332 0.30397 0.69471 0.0
O320 O 0.20498 0.26849 0.69444 0.0
O321 O 0.01694 0.30675 0.71527 0.0
H322 H 0.20989 0.33964 0.67928 0.0
H323 H 0.8766 0.34773 0.70328 0.0
O324 O 0.01869 0.27131 0.71496 0.0
O325 O 0.85596 0.27198 0.69145 0.0
O326 O 0.85419 0.30731 0.69165 0.0
C327 C 0.79574 0.28952 0.69132 0.0
H328 H 0.87388 0.19653 0.70595 0.0
H329 H 0.16327 0.3814 0.68089 0.0
Co330 Co 0.21543 0.05355 0.6937 0.0
C331 C 0.23149 1.03506 0.72338 0.0
Co332 Co 0.2162 1.01774 0.69402 0.0
C333 C 0.16765 0.09975 0.68794 0.0
C334 C 0.32218 0.0933 0.70269 0.0
N335 N 0.23157 0.08343 0.69461 0.0
N336 N 0.21656 0.1193 0.69145 0.0
C337 C 0.3135 0.11518 0.70074 0.0
H338 H 0.08729 0.09734 0.68068 0.0
H339 H 0.39021 0.08508 0.70973 0.0
C340 C 0.19361 1.03662 0.66443 0.0
N341 N 0.20462 0.98766 0.69322 0.0
C342 C 0.28446 0.97228 0.69809 0.0
C343 C 0.1122 0.97658 0.6864 0.0
N344 N 0.24506 0.95208 0.69459 0.0
C345 C 0.13642 0.95484 0.68727 0.0
C346 C 0.98207 0.03728 0.69557 0.0
O347 O 0.20216 0.05437 0.6718 0.0
O348 O 0.20187 1.01888 0.67187 0.0
O349 O 0.04214 1.01966 0.6956 0.0
O350 O 0.04048 0.05513 0.6951 0.0
O351 O 0.2286 1.01708 0.71617 0.0
H352 H 0.03373 0.98385 0.68068 0.0
H353 H 0.37065 0.97588 0.70387 0.0
O354 O 0.22658 0.05251 0.71565 0.0
O355 O 0.38951 0.05159 0.69217 0.0
O356 O 0.39127 1.01626 0.69252 0.0
C357 C 0.44973 1.03405 0.69212 0.0
H358 H 0.37143 0.1272 0.70624 0.0
H359 H 0.08086 0.94212 0.68222 0.0
Co360 Co 0.96735 0.05613 0.44396 0.0
C361 C 0.94441 0.03717 0.41439 0.0
Co362 Co 0.96659 1.02032 0.44368 0.0
C363 C 0.03544 0.10161 0.44796 0.0
C364 C 0.86314 0.09726 0.43629 0.0
N365 N 0.95567 0.08621 0.44311 0.0
N366 N 0.99589 0.1218 0.44443 0.0
C367 C 0.88723 0.119 0.43712 0.0
H368 H 0.12169 0.09805 0.45373 0.0
H369 H 0.78469 0.08996 0.43058 0.0
C370 C 0.98289 0.0389 0.47333 0.0
N371 N 0.98282 0.99044 0.44463 0.0
C372 C 0.91878 0.9741 0.43802 0.0
C373 C 0.07364 0.98061 0.45271 0.0
N374 N 0.96781 0.95456 0.44155 0.0
C375 C 0.06496 0.95872 0.4508 0.0
C376 C 0.20088 0.03983 0.44205 0.0
O377 O 0.97992 0.05686 0.4661 0.0
O378 O 0.97794 1.02142 0.46563 0.0
O379 O 0.14066 1.02229 0.44213 0.0
O380 O 0.14242 0.05762 0.44243 0.0
O381 O 0.95309 1.01944 0.42179 0.0
H382 H 0.14179 0.98886 0.45971 0.0
H383 H 0.83822 0.97647 0.43079 0.0
O384 O 0.95283 0.05493 0.42181 0.0
O385 O 0.79331 0.05421 0.44556 0.0
O386 O 0.79164 1.01873 0.44511 0.0
C387 C 0.73323 1.03659 0.44555 0.0
H388 H 0.83156 0.13169 0.43206 0.0
H389 H 0.12303 0.94672 0.45631 0.0
Co390 Co 0.78082 0.76801 0.4437 0.0
C391 C 0.80338 0.78709 0.41417 0.0
Co392 Co 0.78162 0.80382 0.44351 0.0
C393 C 0.713 0.72255 0.44774 0.0
C394 C 0.88424 0.7269 0.43582 0.0
N395 N 0.79236 0.73795 0.44278 0.0
N396 N 0.75218 0.70236 0.44415 0.0
C397 C 0.86017 0.70515 0.43668 0.0
H398 H 0.62736 0.72612 0.45365 0.0
H399 H 0.96226 0.73421 0.43001 0.0
C400 C 0.76559 0.78507 0.47312 0.0
N401 N 0.76549 0.83369 0.44454 0.0
C402 C 0.82931 0.85007 0.43793 0.0
C403 C 0.67492 0.84349 0.45268 0.0
N404 N 0.7804 0.86959 0.44153 0.0
C405 C 0.68355 0.86539 0.45083 0.0
C406 C 0.54731 0.78433 0.44186 0.0
O407 O 0.76855 0.76716 0.46583 0.0
O408 O 0.77041 0.8026 0.46547 0.0
O409 O 0.60753 0.80187 0.44197 0.0
O410 O 0.60576 0.76654 0.44221 0.0
O411 O 0.79496 0.80481 0.4216 0.0
H412 H 0.60696 0.8352 0.4597 0.0
H413 H 0.90962 0.84772 0.43065 0.0
O414 O 0.79499 0.76932 0.42156 0.0
O415 O 0.95489 0.7699 0.44526 0.0
O416 O 0.95655 0.80538 0.44492 0.0
C417 C 0.01496 0.78752 0.44531 0.0
H418 H 0.91538 0.69246 0.43153 0.0
H419 H 0.62564 0.87736 0.45639 0.0
Co420 Co 0.96655 0.76796 0.31967 0.0
C421 C 0.94411 0.78705 0.34919 0.0
Co422 Co 0.96578 0.80376 0.31986 0.0
C423 C 0.0342 0.7225 0.31556 0.0
C424 C 0.86346 0.72684 0.32759 0.0
N425 N 0.95509 0.7379 0.32058 0.0
N426 N 0.99512 0.70231 0.31915 0.0
C427 C 0.88745 0.7051 0.32669 0.0
H428 H 0.11958 0.72608 0.30958 0.0
H429 H 0.78566 0.73414 0.33345 0.0
C430 C 0.9817 0.78502 0.29025 0.0
N431 N 0.98179 0.83364 0.31883 0.0
C432 C 0.9182 0.84998 0.32551 0.0
C433 C 0.07199 0.84347 0.31064 0.0
N434 N 0.96686 0.86952 0.32191 0.0
C435 C 0.06334 0.86536 0.31254 0.0
C436 C 0.20008 0.78429 0.32149 0.0
O437 O 0.97879 0.76711 0.29753 0.0
O438 O 0.97688 0.80255 0.29789 0.0
O439 O 0.13987 0.80184 0.32138 0.0
O440 O 0.14162 0.76651 0.32115 0.0
O441 O 0.95255 0.80476 0.34176 0.0
H442 H 0.13975 0.83521 0.30358 0.0
H443 H 0.83827 0.8476 0.33285 0.0
O444 O 0.95242 0.76927 0.34181 0.0
O445 O 0.79249 0.76984 0.31811 0.0
O446 O 0.79084 0.80531 0.31845 0.0
C447 C 0.73243 0.78746 0.31807 0.0
H448 H 0.83239 0.6924 0.33185 0.0
H449 H 0.121 0.87736 0.30696 0.0
Co450 Co 0.77833 0.05602 0.31993 0.0
C451 C 0.80123 1.03712 0.3495 0.0
Co452 Co 0.7791 1.02021 0.32022 0.0
C453 C 0.71051 0.10145 0.31569 0.0
C454 C 0.88171 0.0972 0.32764 0.0
N455 N 0.78985 0.08609 0.32073 0.0
N456 N 0.74967 0.12167 0.31919 0.0
C457 C 0.85764 0.11894 0.32667 0.0
H458 H 0.62491 0.09782 0.30979 0.0
H459 H 0.95973 0.08995 0.33347 0.0
C460 C 0.76283 0.03874 0.29056 0.0
N461 N 0.76296 0.99032 0.31929 0.0
C462 C 0.82761 0.97398 0.32582 0.0
C463 C 0.67177 0.98048 0.3113 0.0
N464 N 0.77858 0.95444 0.32231 0.0
C465 C 0.6808 0.95859 0.31317 0.0
C466 C 0.54479 0.03972 0.32184 0.0
O467 O 0.76588 0.0567 0.29779 0.0
O468 O 0.76767 1.02127 0.29826 0.0
O469 O 0.60501 1.02218 0.32178 0.0
O470 O 0.60326 0.0575 0.32144 0.0
O471 O 0.79267 1.01937 0.34212 0.0
H472 H 0.60319 0.98872 0.30435 0.0
H473 H 0.90866 0.97637 0.33296 0.0
O474 O 0.79272 0.05486 0.34208 0.0
O475 O 0.95238 0.05412 0.31835 0.0
O476 O 0.95404 1.01864 0.31878 0.0
C477 C 0.01245 1.0365 0.31835 0.0
H478 H 0.91285 0.13168 0.33175 0.0
H479 H 0.62258 0.94658 0.30769 0.0
Co480 Co 0.53146 0.5534 0.56967 0.0
C481 C 0.5154 0.53485 0.54001 0.0
Co482 Co 0.53071 0.51759 0.56939 0.0
C483 C 0.57947 0.59961 0.57536 0.0
C484 C 0.42464 0.59314 0.56066 0.0
N485 N 0.51537 0.58329 0.56873 0.0
N486 N 0.53058 0.61916 0.57184 0.0
C487 C 0.43344 0.61503 0.56258 0.0
H488 H 0.65998 0.59722 0.58259 0.0
H489 H 0.35648 0.58491 0.55364 0.0
C490 C 0.55332 0.53653 0.59896 0.0
N491 N 0.54221 0.48752 0.57021 0.0
C492 C 0.46261 0.47216 0.56526 0.0
C493 C 0.63431 0.47642 0.57708 0.0
N494 N 0.50183 0.45195 0.56876 0.0
C495 C 0.61012 0.45468 0.57617 0.0
C496 C 0.76482 0.53712 0.56782 0.0
O497 O 0.54477 0.55426 0.59156 0.0
O498 O 0.54501 0.51877 0.59155 0.0
O499 O 0.70476 0.5195 0.56782 0.0
O500 O 0.70641 0.55497 0.56826 0.0
O501 O 0.51833 0.5169 0.54725 0.0
H502 H 0.71256 0.48368 0.58286 0.0
H503 H 0.37675 0.47577 0.5594 0.0
O504 O 0.52027 0.55233 0.54772 0.0
O505 O 0.35738 0.55145 0.5712 0.0
O506 O 0.35563 0.51613 0.5709 0.0
C507 C 0.29717 0.53391 0.57127 0.0
H508 H 0.37547 0.62704 0.55707 0.0
H509 H 0.66547 0.44195 0.58124 0.0
Co510 Co 0.71748 0.76987 0.56992 0.0
C511 C 0.73374 0.78859 0.5403 0.0
Co512 Co 0.71827 0.80568 0.56971 0.0
C513 C 0.66964 0.72362 0.57549 0.0
C514 C 0.82429 0.73018 0.56078 0.0
N515 N 0.73362 0.73999 0.5689 0.0
N516 N 0.71854 0.7041 0.57191 0.0
C517 C 0.81557 0.70828 0.56264 0.0
H518 H 0.58921 0.72598 0.58275 0.0
H519 H 0.89237 0.73846 0.55378 0.0
C520 C 0.69538 0.78662 0.59924 0.0
N521 N 0.70671 0.83574 0.57061 0.0
C522 C 0.78605 0.85114 0.56565 0.0
C523 C 0.61476 0.84679 0.57756 0.0
N524 N 0.7468 0.87133 0.56923 0.0
C525 C 0.63878 0.86853 0.57669 0.0
C526 C 0.48414 0.78616 0.56809 0.0
O527 O 0.70393 0.7689 0.59183 0.0
O528 O 0.7039 0.80439 0.59184 0.0
O529 O 0.54421 0.80378 0.56813 0.0
O530 O 0.54255 0.7683 0.56848 0.0
O531 O 0.73071 0.8065 0.54758 0.0
H532 H 0.53674 0.83948 0.58337 0.0
H533 H 0.87173 0.84757 0.55975 0.0
O534 O 0.72887 0.77107 0.54795 0.0
O535 O 0.89156 0.77182 0.57147 0.0
O536 O 0.89334 0.80714 0.57122 0.0
C537 C 0.95179 0.78936 0.57157 0.0
H538 H 0.87351 0.6963 0.5571 0.0
H539 H 0.5835 0.88123 0.58182 0.0
Co540 Co 0.53028 0.77006 0.69349 0.0
C541 C 0.51414 0.78886 0.72307 0.0
Co542 Co 0.52952 0.80587 0.69364 0.0
C543 C 0.57789 0.72384 0.68786 0.0
C544 C 0.42409 0.73036 0.70272 0.0
N545 N 0.51432 0.74019 0.69453 0.0
N546 N 0.5292 0.7043 0.69146 0.0
C547 C 0.43271 0.70847 0.70082 0.0
H548 H 0.65782 0.72621 0.68051 0.0
H549 H 0.35632 0.73863 0.70978 0.0
C550 C 0.55229 0.78674 0.66413 0.0
N551 N 0.54087 0.83592 0.69271 0.0
C552 C 0.46174 0.8513 0.69776 0.0
C553 C 0.63239 0.847 0.68569 0.0
N554 N 0.50067 0.8715 0.69417 0.0
C555 C 0.60829 0.86874 0.6866 0.0
C556 C 0.76363 0.78638 0.69528 0.0
O557 O 0.54373 0.76904 0.67158 0.0
O558 O 0.54383 0.80453 0.6715 0.0
O559 O 0.70358 0.804 0.69521 0.0
O560 O 0.70521 0.76852 0.69491 0.0
O561 O 0.51712 0.80674 0.71576 0.0
H562 H 0.71019 0.83971 0.67983 0.0
H563 H 0.37646 0.8477 0.70375 0.0
O564 O 0.519 0.77131 0.71545 0.0
O565 O 0.35619 0.77198 0.69195 0.0
O566 O 0.35445 0.80731 0.69213 0.0
C567 C 0.29598 0.78952 0.69181 0.0
H568 H 0.37503 0.69648 0.7064 0.0
H569 H 0.66325 0.88146 0.68145 0.0
Co570 Co 0.71649 0.5536 0.69319 0.0
C571 C 0.73268 0.53512 0.72287 0.0
Co572 Co 0.71727 0.51779 0.69353 0.0
C573 C 0.66818 0.59983 0.68756 0.0
C574 C 0.82392 0.59333 0.7021 0.0
N575 N 0.73274 0.58349 0.69409 0.0
N576 N 0.71725 0.61937 0.69106 0.0
C577 C 0.81497 0.61522 0.70022 0.0
H578 H 0.58715 0.59745 0.68042 0.0
H579 H 0.89243 0.58509 0.70905 0.0
C580 C 0.69454 0.53666 0.66392 0.0
N581 N 0.70558 0.48771 0.69273 0.0
C582 C 0.78538 0.47232 0.6976 0.0
C583 C 0.61306 0.47664 0.68592 0.0
N584 N 0.74583 0.45212 0.6941 0.0
C585 C 0.63716 0.4549 0.68679 0.0
C586 C 0.48314 0.53734 0.69508 0.0
O587 O 0.70306 0.55441 0.67129 0.0
O588 O 0.70292 0.51892 0.67137 0.0
O589 O 0.54323 0.51972 0.6951 0.0
O590 O 0.54154 0.55519 0.69461 0.0
O591 O 0.72971 0.51714 0.71567 0.0
H592 H 0.5346 0.48392 0.6802 0.0
H593 H 0.87162 0.4759 0.70336 0.0
O594 O 0.72781 0.55258 0.71514 0.0
O595 O 0.89057 0.55162 0.69164 0.0
O596 O 0.89235 0.51629 0.69202 0.0
C597 C 0.9508 0.53408 0.6916 0.0
H598 H 0.87319 0.62722 0.7057 0.0
H599 H 0.5815 0.44219 0.68175 0.0
Co600 Co 0.46804 0.55611 0.44347 0.0
C601 C 0.44513 0.53717 0.4139 0.0
Co602 Co 0.46729 0.5203 0.44319 0.0
C603 C 0.53606 0.60155 0.44761 0.0
C604 C 0.36446 0.59727 0.43576 0.0
N605 N 0.45653 0.58618 0.44265 0.0
N606 N 0.49681 0.62176 0.4441 0.0
C607 C 0.3886 0.61901 0.43667 0.0
H608 H 0.62188 0.59794 0.45347 0.0
H609 H 0.28627 0.59001 0.42997 0.0
C610 C 0.48356 0.53886 0.47284 0.0
N611 N 0.48335 0.49042 0.44412 0.0
C612 C 0.41912 0.4741 0.43751 0.0
C613 C 0.57412 0.48055 0.45219 0.0
N614 N 0.46795 0.45455 0.44104 0.0
C615 C 0.5652 0.45867 0.45028 0.0
C616 C 0.70158 0.53979 0.44156 0.0
O617 O 0.48056 0.55681 0.46561 0.0
O618 O 0.47864 0.52138 0.46514 0.0
O619 O 0.64137 0.52225 0.44164 0.0
O620 O 0.64311 0.55758 0.44195 0.0
O621 O 0.45379 0.51944 0.42129 0.0
H622 H 0.64238 0.48878 0.45919 0.0
H623 H 0.33855 0.4765 0.43029 0.0
O624 O 0.45356 0.55493 0.42132 0.0
O625 O 0.29399 0.55421 0.44506 0.0
O626 O 0.29234 0.51874 0.44462 0.0
C627 C 0.23392 0.53659 0.44506 0.0
H628 H 0.33326 0.63174 0.4316 0.0
H629 H 0.62316 0.44665 0.45578 0.0
Co630 Co 0.27917 0.26808 0.44319 0.0
C631 C 0.30172 0.28711 0.41365 0.0
Co632 Co 0.27995 0.30388 0.44298 0.0
C633 C 0.21174 0.22264 0.44741 0.0
C634 C 0.38214 0.22694 0.43528 0.0
N635 N 0.29067 0.23802 0.44231 0.0
N636 N 0.25078 0.20243 0.44384 0.0
C637 C 0.35824 0.2052 0.43624 0.0
H638 H 0.12654 0.22624 0.45341 0.0
H639 H 0.45978 0.23423 0.42939 0.0
C640 C 0.26395 0.28519 0.4726 0.0
N641 N 0.2639 0.33376 0.44398 0.0
C642 C 0.32806 0.35011 0.43739 0.0
C643 C 0.17323 0.34359 0.45209 0.0
N644 N 0.27926 0.36965 0.44097 0.0
C645 C 0.18213 0.36549 0.45023 0.0
C646 C 0.04565 0.2844 0.44135 0.0
O647 O 0.26695 0.26727 0.46532 0.0
O648 O 0.26871 0.30271 0.46495 0.0
O649 O 0.10587 0.30194 0.44144 0.0
O650 O 0.10411 0.26661 0.4417 0.0
O651 O 0.29333 0.30483 0.42107 0.0
H652 H 0.10505 0.33533 0.45908 0.0
H653 H 0.40854 0.34774 0.43015 0.0
O654 O 0.2933 0.26934 0.42105 0.0
O655 O 0.45324 0.26996 0.44474 0.0
O656 O 0.45489 0.30544 0.4444 0.0
C657 C 0.5133 0.28758 0.44478 0.0
H658 H 0.41321 0.19248 0.43109 0.0
H659 H 0.12423 0.37748 0.45576 0.0
Co660 Co 0.46556 0.26792 0.31917 0.0
C661 C 0.44293 0.28703 0.34869 0.0
Co662 Co 0.46478 0.30373 0.31935 0.0
C663 C 0.53359 0.22244 0.31521 0.0
C664 C 0.36192 0.22682 0.32703 0.0
N665 N 0.45404 0.23786 0.3201 0.0
N666 N 0.49431 0.20226 0.31881 0.0
C667 C 0.38605 0.20508 0.32621 0.0
H668 H 0.61946 0.226 0.30934 0.0
H669 H 0.28372 0.23414 0.33278 0.0
C670 C 0.4809 0.28498 0.28975 0.0
N671 N 0.48086 0.3336 0.31832 0.0
C672 C 0.41738 0.34996 0.325 0.0
C673 C 0.57109 0.34342 0.31013 0.0
N674 N 0.46615 0.36948 0.3214 0.0
C675 C 0.56257 0.36531 0.31203 0.0
C676 C 0.69908 0.28425 0.321 0.0
O677 O 0.47797 0.26707 0.29703 0.0
O678 O 0.47597 0.3025 0.2974 0.0
O679 O 0.63886 0.3018 0.32088 0.0
O680 O 0.64063 0.26647 0.32067 0.0
O681 O 0.45146 0.30473 0.34126 0.0
H682 H 0.63879 0.33515 0.30306 0.0
H683 H 0.33747 0.34759 0.33235 0.0
O684 O 0.45126 0.26924 0.34131 0.0
O685 O 0.2915 0.26982 0.31759 0.0
O686 O 0.28985 0.30529 0.31794 0.0
C687 C 0.23143 0.28744 0.31755 0.0
H688 H 0.33069 0.1924 0.33134 0.0
H689 H 0.62028 0.3773 0.30645 0.0
Co690 Co 0.27878 0.55603 0.31944 0.0
C691 C 0.30176 0.5371 0.34902 0.0
Co692 Co 0.27956 0.52022 0.31973 0.0
C693 C 0.21078 0.60149 0.31537 0.0
C694 C 0.38277 0.59718 0.32712 0.0
N695 N 0.29043 0.5861 0.32027 0.0
N696 N 0.25021 0.62169 0.31888 0.0
C697 C 0.35868 0.61892 0.32624 0.0
H698 H 0.12472 0.59791 0.30955 0.0
H699 H 0.4611 0.58989 0.33286 0.0
C700 C 0.26325 0.53878 0.29007 0.0
N701 N 0.26331 0.49034 0.31879 0.0
C702 C 0.32775 0.47398 0.32532 0.0
C703 C 0.17214 0.48051 0.31077 0.0
N704 N 0.27861 0.45445 0.3218 0.0
C705 C 0.18098 0.45862 0.31264 0.0
C706 C 0.04525 0.53974 0.32136 0.0
O707 O 0.26627 0.55674 0.29731 0.0
O708 O 0.26813 0.5213 0.29777 0.0
O709 O 0.10549 0.5222 0.32129 0.0
O710 O 0.10371 0.55752 0.32096 0.0
O711 O 0.29315 0.51936 0.34163 0.0
H712 H 0.10369 0.48877 0.30382 0.0
H713 H 0.40872 0.47634 0.33248 0.0
O714 O 0.29325 0.55485 0.34159 0.0
O715 O 0.45283 0.55411 0.31785 0.0
O716 O 0.4545 0.51863 0.31829 0.0
C717 C 0.51291 0.53649 0.31785 0.0
H718 H 0.41421 0.63163 0.3313 0.0
H719 H 0.12273 0.44663 0.30715 0.0
Co720 Co 0.53016 0.05394 0.07023 0.0
C721 C 0.51389 1.03546 0.04054 0.0
Co722 Co 0.52936 1.01813 0.06989 0.0
C723 C 0.57893 0.1002 0.07575 0.0
C724 C 0.42242 0.09366 0.06136 0.0
N725 N 0.51394 0.08383 0.06931 0.0
N726 N 0.52977 0.11973 0.07224 0.0
C727 C 0.43156 0.11555 0.06317 0.0
H728 H 0.66037 0.09784 0.08282 0.0
H729 H 0.35359 0.0854 0.05446 0.0
C730 C 0.55219 1.03699 0.09949 0.0
N731 N 0.54096 0.98806 0.07068 0.0
C732 C 0.46139 0.97269 0.06573 0.0
C733 C 0.63303 0.97696 0.07757 0.0
N734 N 0.5006 0.95248 0.06925 0.0
C735 C 0.60885 0.95523 0.07666 0.0
C736 C 0.7635 0.03767 0.06833 0.0
O737 O 0.54374 0.05476 0.09212 0.0
O738 O 0.54368 1.01927 0.09204 0.0
O739 O 0.70342 1.02005 0.06832 0.0
O740 O 0.7051 0.05552 0.06878 0.0
O741 O 0.51696 1.01748 0.04774 0.0
H742 H 0.71121 0.98423 0.08336 0.0
H743 H 0.37554 0.9763 0.05987 0.0
O744 O 0.51871 0.05291 0.04827 0.0
O745 O 0.35608 0.05196 0.07179 0.0
O746 O 0.3543 1.01664 0.07139 0.0
C747 C 0.29584 1.03442 0.07182 0.0
H748 H 0.37317 0.12754 0.05771 0.0
H749 H 0.66416 0.9425 0.08175 0.0
Co750 Co 0.71646 0.27041 0.06935 0.0
C751 C 0.73244 0.28923 0.03977 0.0
Co752 Co 0.71721 0.30622 0.06922 0.0
C753 C 0.66923 0.2242 0.07504 0.0
C754 C 0.82229 0.23071 0.06005 0.0
N755 N 0.73242 0.24054 0.06829 0.0
N756 N 0.7178 0.20467 0.07142 0.0
C757 C 0.81382 0.20882 0.06198 0.0
H758 H 0.58972 0.22659 0.08245 0.0
H759 H 0.88977 0.23897 0.05295 0.0
C760 C 0.69461 0.28705 0.09872 0.0
N761 N 0.70578 0.33628 0.07017 0.0
C762 C 0.78498 0.35168 0.06519 0.0
C763 C 0.61405 0.34732 0.07718 0.0
N764 N 0.74586 0.37187 0.0688 0.0
C765 C 0.63807 0.36906 0.07631 0.0
C766 C 0.4831 0.28672 0.06758 0.0
O767 O 0.70319 0.26937 0.09126 0.0
O768 O 0.70295 0.30485 0.09136 0.0
O769 O 0.54315 0.30435 0.06765 0.0
O770 O 0.54152 0.26887 0.06795 0.0
O771 O 0.72955 0.30712 0.04709 0.0
H772 H 0.53617 0.34 0.083 0.0
H773 H 0.87045 0.34812 0.05923 0.0
O774 O 0.72757 0.27168 0.04739 0.0
O775 O 0.89054 0.27232 0.07087 0.0
O776 O 0.89228 0.30766 0.07072 0.0
C777 C 0.95075 0.28987 0.07102 0.0
H778 H 0.87131 0.19682 0.05638 0.0
H779 H 0.58295 0.38175 0.08147 0.0
Co780 Co 0.52987 0.26997 0.19293 0.0
C781 C 0.51347 0.28861 0.22257 0.0
Co782 Co 0.52907 0.30578 0.19318 0.0
C783 C 0.57823 0.22371 0.18742 0.0
C784 C 0.42248 0.23028 0.20194 0.0
N785 N 0.51368 0.24008 0.19392 0.0
N786 N 0.52913 0.20419 0.19098 0.0
C787 C 0.4314 0.20838 0.20012 0.0
H788 H 0.65927 0.22605 0.18027 0.0
H789 H 0.35396 0.23856 0.20888 0.0
C790 C 0.55205 0.28679 0.16363 0.0
N791 N 0.54063 0.33584 0.19232 0.0
C792 C 0.46133 0.35122 0.19732 0.0
C793 C 0.6325 0.34691 0.18538 0.0
N794 N 0.50051 0.37142 0.19377 0.0
C795 C 0.60846 0.36866 0.18629 0.0
C796 C 0.76321 0.28625 0.19479 0.0
O797 O 0.54356 0.26905 0.17102 0.0
O798 O 0.54346 0.30454 0.17105 0.0
O799 O 0.70313 0.30387 0.19476 0.0
O800 O 0.7048 0.2684 0.19438 0.0
O801 O 0.51659 0.30654 0.21531 0.0
H802 H 0.71049 0.33963 0.17955 0.0
H803 H 0.37572 0.34763 0.20324 0.0
O804 O 0.51833 0.27111 0.2149 0.0
O805 O 0.35579 0.27193 0.19136 0.0
O806 O 0.354 0.30726 0.19167 0.0
C807 C 0.29556 0.28947 0.19128 0.0
H808 H 0.37316 0.19641 0.20563 0.0
H809 H 0.66368 0.38137 0.18117 0.0
Co810 Co 0.71549 0.05349 0.19375 0.0
C811 C 0.73141 1.03484 0.22338 0.0
Co812 Co 0.71623 1.01769 0.19398 0.0
C813 C 0.66812 0.09969 0.18801 0.0
C814 C 0.82174 0.09322 0.20291 0.0
N815 N 0.73156 0.08337 0.19474 0.0
N816 N 0.71685 0.11924 0.19158 0.0
C817 C 0.81322 0.1151 0.20097 0.0
H818 H 0.58826 0.09729 0.18067 0.0
H819 H 0.88941 0.08497 0.21 0.0
C820 C 0.69373 1.03672 0.16443 0.0
N821 N 0.7047 0.98762 0.1931 0.0
C822 C 0.78417 0.97222 0.19804 0.0
C823 C 0.61263 0.97656 0.18619 0.0
N824 N 0.74489 0.95203 0.19448 0.0
C825 C 0.63671 0.95482 0.18706 0.0
C826 C 0.48212 0.0372 0.19557 0.0
O827 O 0.70232 0.05443 0.17186 0.0
O828 O 0.70196 1.01894 0.17183 0.0
O829 O 0.54218 1.01958 0.19555 0.0
O830 O 0.54054 0.05506 0.19515 0.0
O831 O 0.72857 1.01691 0.21612 0.0
H832 H 0.53449 0.98385 0.18041 0.0
H833 H 0.86999 0.9758 0.20391 0.0
O834 O 0.72653 0.05234 0.2157 0.0
O835 O 0.88957 0.05155 0.19224 0.0
O836 O 0.89131 1.01622 0.19248 0.0
C837 C 0.94977 1.03401 0.19214 0.0
H838 H 0.8709 0.12711 0.20652 0.0
H839 H 0.58137 0.94211 0.18195 0.0
Co840 Co 0.46643 0.05692 0.94401 0.0
C841 C 0.44364 0.03799 0.91443 0.0
Co842 Co 0.46567 1.02111 0.94371 0.0
C843 C 0.53478 0.10239 0.94799 0.0
C844 C 0.36221 0.09807 0.93638 0.0
N845 N 0.45482 0.087 0.94318 0.0
N846 N 0.49526 0.12259 0.94448 0.0
C847 C 0.38642 0.11981 0.93721 0.0
H848 H 0.62114 0.09882 0.95374 0.0
H849 H 0.28361 0.09078 0.9307 0.0
C850 C 0.4819 0.03965 0.97337 0.0
N851 N 0.48182 0.99123 0.94465 0.0
C852 C 0.41765 0.9749 0.93803 0.0
C853 C 0.57262 0.98137 0.95271 0.0
N854 N 0.46657 0.95535 0.94156 0.0
C855 C 0.56379 0.95949 0.9508 0.0
C856 C 0.69997 0.04061 0.9421 0.0
O857 O 0.47896 0.05762 0.96615 0.0
O858 O 0.47695 1.02218 0.96566 0.0
O859 O 0.63975 1.02307 0.94217 0.0
O860 O 0.64151 0.0584 0.94249 0.0
O861 O 0.45228 1.02025 0.92182 0.0
H862 H 0.64084 0.98961 0.95972 0.0
H863 H 0.33707 0.97729 0.93081 0.0
O864 O 0.45197 0.05574 0.92185 0.0
O865 O 0.29239 0.055 0.9456 0.0
O866 O 0.29072 1.01953 0.94513 0.0
C867 C 0.23231 0.03738 0.94558 0.0
H868 H 0.33072 0.13251 0.93216 0.0
H869 H 0.6218 0.94747 0.9563 0.0
Co870 Co 0.27871 0.76884 0.94363 0.0
C871 C 0.30154 0.78792 0.91411 0.0
Co872 Co 0.2795 0.80465 0.94344 0.0
C873 C 0.21102 0.72337 0.94769 0.0
C874 C 0.38208 0.72774 0.93573 0.0
N875 N 0.29025 0.73878 0.94271 0.0
N876 N 0.25021 0.70319 0.9441 0.0
C877 C 0.35808 0.70599 0.9366 0.0
H878 H 0.12546 0.72694 0.95363 0.0
H879 H 0.46 0.73505 0.92991 0.0
C880 C 0.26328 0.78589 0.97305 0.0
N881 N 0.26339 0.83452 0.94448 0.0
C882 C 0.32737 0.85089 0.93789 0.0
C883 C 0.17275 0.84432 0.9526 0.0
N884 N 0.2785 0.87041 0.94149 0.0
C885 C 0.18149 0.86622 0.95076 0.0
C886 C 0.04519 0.78516 0.94178 0.0
O887 O 0.26631 0.76799 0.96575 0.0
O888 O 0.26813 0.80342 0.96541 0.0
O889 O 0.10542 0.8027 0.94189 0.0
O890 O 0.10364 0.76737 0.94212 0.0
O891 O 0.29304 0.80564 0.92153 0.0
H892 H 0.10467 0.83604 0.9596 0.0
H893 H 0.40778 0.84854 0.93063 0.0
O894 O 0.29301 0.77015 0.9215 0.0
O895 O 0.45277 0.77073 0.94521 0.0
O896 O 0.45443 0.80621 0.94488 0.0
C897 C 0.51284 0.78835 0.94526 0.0
H898 H 0.41327 0.6933 0.93145 0.0
H899 H 0.12358 0.8782 0.95631 0.0
Co900 Co 0.46687 0.76862 0.8197 0.0
C901 C 0.44419 0.78778 0.8492 0.0
Co902 Co 0.4661 0.80443 0.81984 0.0
C903 C 0.53458 0.72318 0.81561 0.0
C904 C 0.36403 0.72751 0.82769 0.0
N905 N 0.4555 0.73857 0.82065 0.0
N906 N 0.49565 0.70298 0.81921 0.0
C907 C 0.38809 0.70576 0.82679 0.0
H908 H 0.61982 0.72677 0.8096 0.0
H909 H 0.28629 0.7348 0.83356 0.0
C910 C 0.48217 0.78561 0.79026 0.0
N911 N 0.48205 0.8343 0.81878 0.0
C912 C 0.41864 0.85065 0.82548 0.0
C913 C 0.5721 0.84412 0.81056 0.0
N914 N 0.46726 0.87018 0.82186 0.0
C915 C 0.56353 0.86602 0.81246 0.0
C916 C 0.7004 0.78497 0.82151 0.0
O917 O 0.47921 0.76772 0.79758 0.0
O918 O 0.47731 0.80316 0.79788 0.0
O919 O 0.64019 0.80252 0.82137 0.0
O920 O 0.64193 0.76719 0.82121 0.0
O921 O 0.45273 0.80547 0.84175 0.0
H922 H 0.63974 0.83585 0.80349 0.0
H923 H 0.3389 0.84827 0.83285 0.0
O924 O 0.4526 0.76998 0.84184 0.0
O925 O 0.2928 0.77049 0.81814 0.0
O926 O 0.29117 0.80596 0.81842 0.0
C927 C 0.23275 0.78811 0.81807 0.0
H928 H 0.33316 0.69306 0.83196 0.0
H929 H 0.62112 0.87801 0.80687 0.0
Co930 Co 0.27891 0.05669 0.81988 0.0
C931 C 0.30173 0.03786 0.84949 0.0
Co932 Co 0.27968 1.02088 0.82023 0.0
C933 C 0.21117 0.10212 0.81563 0.0
C934 C 0.38262 0.09786 0.82752 0.0
N935 N 0.29056 0.08676 0.82064 0.0
N936 N 0.25051 0.12234 0.8191 0.0
C937 C 0.35863 0.1196 0.82655 0.0
H938 H 0.1254 0.0985 0.80976 0.0
H939 H 0.46071 0.09061 0.83334 0.0
C940 C 0.26342 0.03931 0.79054 0.0
N941 N 0.26346 0.99099 0.81935 0.0
C942 C 0.32823 0.97465 0.82586 0.0
C943 C 0.17211 0.98113 0.81138 0.0
N944 N 0.27911 0.95511 0.82238 0.0
C945 C 0.18115 0.95925 0.81326 0.0
C946 C 0.04538 0.0404 0.82182 0.0
O947 O 0.26646 0.0573 0.79774 0.0
O948 O 0.26828 1.02187 0.79828 0.0
O949 O 0.10561 1.02286 0.82179 0.0
O950 O 0.10384 0.05818 0.82139 0.0
O951 O 0.2932 1.0201 0.84213 0.0
H952 H 0.10343 0.98937 0.80445 0.0
H953 H 0.40945 0.97704 0.83297 0.0
O954 O 0.29329 0.05559 0.84204 0.0
O955 O 0.45296 0.05476 0.81831 0.0
O956 O 0.45463 1.01929 0.8188 0.0
C957 C 0.51304 0.03714 0.81834 0.0
H958 H 0.414 0.13234 0.83161 0.0
H959 H 0.12284 0.94724 0.80781 0.0
C960 C 0.00178 0.4126 0.06627 0.0
C961 C 0.93635 0.43225 0.06676 0.0
H962 H 0.99309 0.37805 0.06655 0.0
C963 C 0.80697 0.43158 0.06644 0.0
H964 H 0.10148 0.41251 0.06622 0.0
C965 C 0.74475 0.41177 0.06648 0.0
C966 C 0.81022 0.39213 0.0668 0.0
H967 H 0.75347 0.44632 0.06684 0.0
H968 H 0.64504 0.41187 0.06659 0.0
C969 C 0.93956 0.3928 0.06628 0.0
C970 C 0.30656 0.9316 0.06689 0.0
C971 C 0.43594 0.93224 0.06728 0.0
H972 H 0.14447 0.91193 0.06695 0.0
C973 C 0.50122 0.91258 0.06686 0.0
H974 H 0.25317 0.94636 0.06723 0.0
C975 C 0.43883 0.89279 0.06686 0.0
C976 C 0.30946 0.89215 0.06729 0.0
H977 H 0.60092 0.91246 0.06688 0.0
H978 H 0.49222 0.87803 0.06718 0.0
C979 C 0.24417 0.91181 0.06691 0.0
C980 C 0.74403 0.91213 0.19682 0.0
C981 C 0.80943 0.93178 0.19642 0.0
H982 H 0.75279 0.87758 0.19645 0.0
C983 C 0.9388 0.93112 0.1968 0.0
H984 H 0.64432 0.91203 0.19682 0.0
C985 C 0.00106 0.91131 0.19674 0.0
C986 C 0.93564 0.89167 0.19632 0.0
H987 H 0.99228 0.94587 0.19646 0.0
H988 H 0.10077 0.91141 0.19667 0.0
C989 C 0.80629 0.89233 0.19679 0.0
C990 C 0.24444 0.41213 0.19631 0.0
C991 C 0.30983 0.43178 0.19589 0.0
H992 H 0.25322 0.37759 0.19595 0.0
C993 C 0.43921 0.43112 0.19625 0.0
H994 H 0.14474 0.41203 0.19633 0.0
C995 C 0.50148 0.41132 0.19618 0.0
C996 C 0.43607 0.39167 0.19579 0.0
H997 H 0.49267 0.44587 0.19591 0.0
H998 H 0.60118 0.41142 0.1961 0.0
C999 C 0.30671 0.39233 0.19627 0.0
C1000 C 0.18909 0.64348 0.94646 0.0
C1001 C 0.05972 0.64281 0.94611 0.0
H1002 H 0.35101 0.66319 0.94634 0.0
C1003 C 0.99427 0.66245 0.94658 0.0
H1004 H 0.2426 0.62873 0.94608 0.0
C1005 C 0.05649 0.68226 0.94658 0.0
C1006 C 0.18583 0.68293 0.94608 0.0
H1007 H 0.89457 0.66254 0.9466 0.0
H1008 H 0.00295 0.697 0.94629 0.0
C1009 C 0.25131 0.66328 0.94643 0.0
C1010 C 0.55706 0.18229 0.94662 0.0
C1011 C 0.68635 0.18294 0.94593 0.0
H1012 H 0.39507 0.1626 0.94696 0.0
C1013 C 0.75177 0.16329 0.94625 0.0
H1014 H 0.50355 0.19703 0.94637 0.0
C1015 C 0.68947 0.14349 0.94644 0.0
C1016 C 0.56007 0.14284 0.94629 0.0
H1017 H 0.85146 0.16318 0.94601 0.0
H1018 H 0.74286 0.12873 0.94603 0.0
C1019 C 0.49477 0.16249 0.94679 0.0
C1020 C 0.18931 0.18203 0.81652 0.0
C1021 C 0.05995 0.1827 0.81696 0.0
H1022 H 0.35123 0.16231 0.8166 0.0
C1023 C 0.99449 0.16306 0.81662 0.0
H1024 H 0.24284 0.19677 0.81679 0.0
C1025 C 0.05669 0.14325 0.81667 0.0
C1026 C 0.18606 0.14258 0.81707 0.0
H1027 H 0.89478 0.16297 0.81667 0.0
H1028 H 0.00317 0.12851 0.81706 0.0
C1029 C 0.25152 0.16222 0.81659 0.0
C1030 C 0.4946 0.66308 0.81684 0.0
C1031 C 0.55999 0.68273 0.81715 0.0
H1032 H 0.50352 0.62853 0.81714 0.0
C1033 C 0.68931 0.68208 0.81652 0.0
H1034 H 0.39491 0.66297 0.81703 0.0
C1035 C 0.75162 0.66229 0.81643 0.0
C1036 C 0.68632 0.64263 0.81693 0.0
H1037 H 0.7428 0.69683 0.81677 0.0
H1038 H 0.85132 0.6624 0.8163 0.0
C1039 C 0.55692 0.64328 0.81672 0.0
C1040 C 0.80795 0.93104 0.56688 0.0
C1041 C 0.93731 0.93171 0.56728 0.0
H1042 H 0.64604 0.91132 0.56693 0.0
C1043 C 0.00278 0.91207 0.56684 0.0
H1044 H 0.75442 0.94578 0.56723 0.0
C1045 C 0.94058 0.89226 0.56682 0.0
C1046 C 0.81122 0.89159 0.56726 0.0
H1047 H 0.10249 0.91198 0.56686 0.0
H1048 H 0.99411 0.87752 0.56713 0.0
C1049 C 0.74575 0.91123 0.56689 0.0
C1050 C 0.2454 0.41128 0.56645 0.0
C1051 C 0.31071 0.39162 0.56679 0.0
H1052 H 0.25439 0.44583 0.56681 0.0
C1053 C 0.44007 0.39226 0.56631 0.0
H1054 H 0.1457 0.4114 0.56652 0.0
C1055 C 0.50245 0.41205 0.56632 0.0
C1056 C 0.43716 0.43171 0.56679 0.0
H1057 H 0.49348 0.37751 0.56659 0.0
H1058 H 0.60215 0.41194 0.56631 0.0
C1059 C 0.30778 0.43108 0.56643 0.0
C1060 C 0.8073 0.39242 0.69638 0.0
C1061 C 0.93661 0.39175 0.69573 0.0
H1062 H 0.6454 0.41214 0.69662 0.0
C1063 C 0.00211 0.41139 0.69603 0.0
H1064 H 0.75374 0.37768 0.69613 0.0
C1065 C 0.9399 0.4312 0.69616 0.0
C1066 C 0.8105 0.43187 0.69597 0.0
H1067 H 0.1018 0.41149 0.69583 0.0
H1068 H 0.99337 0.44595 0.69574 0.0
C1069 C 0.7451 0.41223 0.69648 0.0
C1070 C 0.30694 0.89239 0.69685 0.0
C1071 C 0.43627 0.89175 0.69624 0.0
H1072 H 0.14489 0.91206 0.69706 0.0
C1073 C 0.50161 0.9114 0.69656 0.0
H1074 H 0.25349 0.87763 0.69658 0.0
C1075 C 0.43925 0.9312 0.69669 0.0
C1076 C 0.30985 0.93184 0.69646 0.0
H1077 H 0.60131 0.91152 0.69639 0.0
H1078 H 0.49262 0.94595 0.69629 0.0
C1079 C 0.24459 0.91218 0.69694 0.0
C1080 C 0.18993 0.14273 0.44647 0.0
C1081 C 0.06053 0.14206 0.44627 0.0
H1082 H 0.3518 0.16245 0.4461 0.0
C1083 C 0.9951 0.1617 0.44674 0.0
H1084 H 0.24341 0.12799 0.44607 0.0
C1085 C 0.05728 0.18151 0.44661 0.0
C1086 C 0.18659 0.18218 0.44596 0.0
H1087 H 0.8954 0.16179 0.44688 0.0
H1088 H 0.0037 0.19625 0.44633 0.0
C1089 C 0.25211 0.16254 0.4463 0.0
C1090 C 0.55832 0.68145 0.44656 0.0
C1091 C 0.68768 0.6821 0.4461 0.0
H1092 H 0.39632 0.66176 0.44654 0.0
C1093 C 0.75307 0.66245 0.44645 0.0
H1094 H 0.50486 0.6962 0.44627 0.0
C1095 C 0.69077 0.64265 0.44646 0.0
C1096 C 0.56139 0.642 0.44608 0.0
H1097 H 0.85277 0.66234 0.44639 0.0
H1098 H 0.74422 0.6279 0.44608 0.0
C1099 C 0.49603 0.66165 0.44654 0.0
C1100 C 0.25101 0.66158 0.31649 0.0
C1101 C 0.1856 0.64194 0.31697 0.0
H1102 H 0.24231 0.69613 0.31681 0.0
C1103 C 0.05621 0.6426 0.31669 0.0
H1104 H 0.35071 0.66168 0.31641 0.0
C1105 C 0.99398 0.66241 0.31678 0.0
C1106 C 0.05944 0.68205 0.31711 0.0
H1107 H 0.00274 0.62786 0.31709 0.0
H1108 H 0.89428 0.66231 0.31692 0.0
C1109 C 0.18878 0.68139 0.31654 0.0
C1110 C 0.55584 0.14255 0.31665 0.0
C1111 C 0.6852 0.1419 0.31712 0.0
H1112 H 0.39384 0.16224 0.31656 0.0
C1113 C 0.75058 0.16155 0.31667 0.0
H1114 H 0.50237 0.12781 0.31701 0.0
C1115 C 0.68829 0.18135 0.31656 0.0
C1116 C 0.55891 0.182 0.31693 0.0
H1117 H 0.85029 0.16166 0.31674 0.0
H1118 H 0.74173 0.1961 0.31686 0.0
C1119 C 0.49355 0.16235 0.31657 0.0
C1120 C 0.10368 0.51732 0.12368 0.0
C1121 C 0.08399 0.53692 0.11577 0.0
H1122 H 0.15548 0.50187 0.14498 0.0
C1123 C 0.10384 0.55645 0.12375 0.0
H1124 H 0.09029 0.50198 0.11784 0.0
C1125 C 0.14244 0.55638 0.13928 0.0
C1126 C 0.1621 0.53679 0.14718 0.0
H1127 H 0.09056 0.57183 0.11798 0.0
H1128 H 0.15585 0.57172 0.14511 0.0
C1129 C 0.14224 0.51726 0.13921 0.0
C1130 C 0.14138 0.80653 0.12392 0.0
C1131 C 0.16135 0.78701 0.11594 0.0
H1132 H 0.08932 0.8218 0.14528 0.0
C1133 C 0.14176 0.76741 0.12384 0.0
H1134 H 0.15455 0.82193 0.11815 0.0
C1135 C 0.10316 0.76734 0.13937 0.0
C1136 C 0.0832 0.78687 0.14735 0.0
H1137 H 0.15526 0.75208 0.11801 0.0
H1138 H 0.08996 0.75195 0.14515 0.0
C1139 C 0.10279 0.80646 0.13944 0.0
C1140 C 0.85403 0.55749 0.87368 0.0
C1141 C 0.83436 0.53791 0.86576 0.0
H1142 H 0.90571 0.57288 0.89501 0.0
C1143 C 0.85414 0.51836 0.87372 0.0
H1144 H 0.84069 0.57284 0.86786 0.0
C1145 C 0.89265 0.51839 0.88924 0.0
C1146 C 0.91228 0.53796 0.89717 0.0
H1147 H 0.84088 0.50299 0.86793 0.0
H1148 H 0.90601 0.50304 0.89506 0.0
C1149 C 0.89249 0.55751 0.88922 0.0
C1150 C 0.89249 0.30743 0.8734 0.0
C1151 C 0.91232 0.28785 0.86548 0.0
H1152 H 0.84036 0.32282 0.89472 0.0
C1153 C 0.89243 0.2683 0.87344 0.0
H1154 H 0.90592 0.32278 0.86759 0.0
C1155 C 0.85369 0.26833 0.88895 0.0
C1156 C 0.83386 0.2879 0.89688 0.0
H1157 H 0.90579 0.25293 0.86765 0.0
H1158 H 0.84029 0.25297 0.89476 0.0
C1159 C 0.85374 0.30745 0.88893 0.0
C1160 C 0.104 1.01701 0.62418 0.0
C1161 C 0.08442 1.03657 0.61622 0.0
H1162 H 0.15546 1.00166 0.64554 0.0
C1163 C 0.10411 0.05613 0.62416 0.0
H1164 H 0.09071 1.00165 0.61838 0.0
C1165 C 0.14245 0.05615 0.6397 0.0
C1166 C 0.162 1.03659 0.64765 0.0
H1167 H 0.09091 0.0715 0.61835 0.0
H1168 H 0.15576 0.07151 0.64549 0.0
C1169 C 0.14229 1.01702 0.63972 0.0
C1170 C 0.14275 0.26707 0.62344 0.0
C1171 C 0.16257 0.28663 0.61549 0.0
H1172 H 0.09057 0.25172 0.64477 0.0
C1173 C 0.14263 0.30619 0.62342 0.0
H1174 H 0.15621 0.2517 0.61764 0.0
C1175 C 0.10384 0.3062 0.63894 0.0
C1176 C 0.08401 0.28665 0.64689 0.0
H1177 H 0.15598 0.32155 0.61762 0.0
H1178 H 0.0904 0.32157 0.64473 0.0
C1179 C 0.10394 0.26708 0.63896 0.0
C1180 C 0.89221 0.05672 0.3897 0.0
C1181 C 0.91227 0.03717 0.39764 0.0
H1182 H 0.83976 0.07206 0.36838 0.0
C1183 C 0.89238 1.0176 0.38971 0.0
H1184 H 0.9056 0.07209 0.39549 0.0
C1185 C 0.8534 1.01758 0.3742 0.0
C1186 C 0.83337 0.03714 0.36626 0.0
H1187 H 0.90592 1.00224 0.39551 0.0
H1188 H 0.83998 1.00221 0.36841 0.0
C1189 C 0.85327 0.05671 0.37419 0.0
C1190 C 0.89283 0.76753 0.37392 0.0
C1191 C 0.91255 0.78708 0.36597 0.0
H1192 H 0.84125 0.75218 0.39526 0.0
C1193 C 0.893 0.80665 0.37391 0.0
H1194 H 0.90599 0.75216 0.36812 0.0
C1195 C 0.85469 0.80667 0.38945 0.0
C1196 C 0.83497 0.78711 0.3974 0.0
H1197 H 0.90631 0.82201 0.3681 0.0
H1198 H 0.8415 0.82203 0.39525 0.0
C1199 C 0.85453 0.76754 0.38945 0.0
C1200 C 0.60477 0.517 0.62369 0.0
C1201 C 0.58501 0.53655 0.61573 0.0
H1202 H 0.65649 0.50168 0.64505 0.0
C1203 C 0.60463 0.55612 0.62366 0.0
H1204 H 0.59155 0.50163 0.6179 0.0
C1205 C 0.64309 0.55615 0.63919 0.0
C1206 C 0.66283 0.53661 0.64715 0.0
H1207 H 0.5913 0.57147 0.61785 0.0
H1208 H 0.65634 0.57153 0.64498 0.0
C1209 C 0.64317 0.51703 0.63923 0.0
C1210 C 0.64325 0.76707 0.62395 0.0
C1211 C 0.66326 0.78662 0.616 0.0
H1212 H 0.5908 0.75175 0.64528 0.0
C1213 C 0.64333 0.80619 0.62392 0.0
H1214 H 0.6567 0.7517 0.61816 0.0
C1215 C 0.60439 0.80622 0.63942 0.0
C1216 C 0.58439 0.78668 0.64738 0.0
H1217 H 0.65682 0.82155 0.61811 0.0
H1218 H 0.59098 0.8216 0.64521 0.0
C1219 C 0.6043 0.7671 0.63946 0.0
C1220 C 0.35404 0.51757 0.37371 0.0
C1221 C 0.33394 0.53713 0.36577 0.0
H1222 H 0.40666 0.50223 0.39502 0.0
C1223 C 0.35384 0.5567 0.3737 0.0
H1224 H 0.34062 0.5022 0.36792 0.0
C1225 C 0.39284 0.55671 0.3892 0.0
C1226 C 0.41295 0.53716 0.39714 0.0
H1227 H 0.34028 0.57205 0.36789 0.0
H1228 H 0.40622 0.57208 0.395 0.0
C1229 C 0.39307 0.51759 0.38922 0.0
C1230 C 0.35318 0.30667 0.38893 0.0
C1231 C 0.33339 0.28711 0.39688 0.0
H1232 H 0.405 0.322 0.36758 0.0
C1233 C 0.35298 0.26754 0.38894 0.0
H1234 H 0.33997 0.32203 0.39473 0.0
C1235 C 0.3914 0.26752 0.37342 0.0
C1236 C 0.41121 0.28707 0.36546 0.0
H1237 H 0.33963 0.25219 0.39476 0.0
H1238 H 0.40459 0.25215 0.36762 0.0
C1239 C 0.39162 0.30664 0.37339 0.0
C1240 C 0.64249 0.05638 0.13976 0.0
C1241 C 0.66201 1.03678 0.14767 0.0
H1242 H 0.59078 0.07183 0.11846 0.0
C1243 C 0.64206 1.01725 0.13969 0.0
H1244 H 0.65597 0.07171 0.14559 0.0
C1245 C 0.60356 1.01732 0.12416 0.0
C1246 C 0.584 1.03692 0.11625 0.0
H1247 H 0.65519 1.00187 0.14547 0.0
H1248 H 0.59009 1.00198 0.11833 0.0
C1249 C 0.60394 0.05644 0.12423 0.0
C1250 C 0.64266 0.30649 0.12345 0.0
C1251 C 0.66267 0.28696 0.11548 0.0
H1252 H 0.59036 0.32176 0.14479 0.0
C1253 C 0.64293 0.26736 0.12338 0.0
H1254 H 0.65594 0.32187 0.11768 0.0
C1255 C 0.60412 0.2673 0.1389 0.0
C1256 C 0.5841 0.28683 0.14687 0.0
H1257 H 0.65645 0.25203 0.11755 0.0
H1258 H 0.5908 0.25191 0.14467 0.0
C1259 C 0.60386 0.30642 0.13897 0.0
C1260 C 0.35343 1.01837 0.87422 0.0
C1261 C 0.33359 0.03791 0.86626 0.0
H1262 H 0.40548 1.00305 0.89555 0.0
C1263 C 0.35332 0.05749 0.87418 0.0
H1264 H 0.34013 1.00299 0.86843 0.0
C1265 C 0.39191 0.05752 0.88971 0.0
C1266 C 0.41178 0.03797 0.89766 0.0
H1267 H 0.33994 0.07284 0.86836 0.0
H1268 H 0.40518 0.07289 0.8955 0.0
C1269 C 0.39207 1.0184 0.88974 0.0
C1270 C 0.3924 0.80743 0.87388 0.0
C1271 C 0.4122 0.78785 0.86596 0.0
H1272 H 0.34021 0.82284 0.89519 0.0
C1273 C 0.39219 0.76831 0.87392 0.0
H1274 H 0.40591 0.82278 0.86806 0.0
C1275 C 0.35336 0.76835 0.88943 0.0
C1276 C 0.33356 0.78792 0.89735 0.0
H1277 H 0.40552 0.75293 0.86814 0.0
H1278 H 0.33988 0.75299 0.89524 0.0
C1279 C 0.35356 0.80747 0.8894 0.0
C1280 C 0.04201 0.67983 0.0761 0.0
C1281 C 0.16934 0.68348 0.07524 0.0
H1282 H 0.89725 0.65636 0.07598 0.0
C1283 C 0.2499 0.66566 0.07585 0.0
H1284 H 0.97779 0.6932 0.07569 0.0
C1285 C 0.20395 0.64457 0.07593 0.0
C1286 C 0.07652 0.64092 0.07534 0.0
H1287 H 0.34868 0.66804 0.0755 0.0
H1288 H 0.26809 0.6312 0.07537 0.0
C1289 C 0.99606 0.65874 0.07612 0.0
C1290 C 0.99565 0.66517 0.1872 0.0
C1291 C 0.07602 0.68301 0.18789 0.0
H1292 H 0.9777 0.63071 0.18762 0.0
C1293 C 0.20343 0.67939 0.18716 0.0
H1294 H 0.89683 0.66752 0.18744 0.0
C1295 C 0.24955 0.65832 0.18718 0.0
C1296 C 0.1692 0.64048 0.18785 0.0
H1297 H 0.26751 0.69278 0.18765 0.0
H1298 H 0.34838 0.65596 0.1874 0.0
C1299 C 0.04178 0.6441 0.18715 0.0
C1300 C 0.95381 0.39523 0.93686 0.0
C1301 C 0.82641 0.39161 0.9376 0.0
H1302 H 0.09871 0.41867 0.93713 0.0
C1303 C 0.746 0.40944 0.93694 0.0
H1304 H 0.01792 0.38185 0.93731 0.0
C1305 C 0.79208 0.43052 0.93693 0.0
C1306 C 0.91949 0.43415 0.93763 0.0
H1307 H 0.64719 0.40708 0.93719 0.0
H1308 H 0.72798 0.4439 0.93744 0.0
C1309 C -0.00011 0.41632 0.93691 0.0
C1310 C 0.95517 0.43031 0.82557 0.0
C1311 C 0.82769 0.43394 0.82513 0.0
H1312 H 0.09996 0.40686 0.82496 0.0
C1313 C 0.74736 0.41611 0.82596 0.0
H1314 H 0.0192 0.44369 0.82497 0.0
C1315 C 0.79338 0.39503 0.82586 0.0
C1316 C 0.92067 0.3914 0.82486 0.0
H1317 H 0.64853 0.41848 0.82593 0.0
H1318 H 0.72917 0.38166 0.82549 0.0
C1319 C 0.00119 0.40922 0.82541 0.0
C1320 C 0.20552 0.14407 0.57583 0.0
C1321 C 0.07804 0.14043 0.57541 0.0
H1322 H 0.35029 0.16751 0.57515 0.0
C1323 C 0.9977 0.15826 0.57622 0.0
H1324 H 0.26956 0.13068 0.57524 0.0
C1325 C 0.04371 0.17934 0.57607 0.0
C1326 C 0.17098 0.18298 0.57505 0.0
H1327 H 0.89887 0.15589 0.57621 0.0
H1328 H 0.97948 0.19271 0.57569 0.0
C1329 C 0.25152 0.16515 0.57561 0.0
C1330 C 0.99589 0.16521 0.68717 0.0
C1331 C 0.07635 0.18303 0.68781 0.0
H1332 H 0.97772 0.13075 0.68773 0.0
C1333 C 0.20375 0.17939 0.68712 0.0
H1334 H 0.89707 0.16758 0.68738 0.0
C1335 C 0.24974 0.1583 0.68723 0.0
C1336 C 0.16927 0.14048 0.68796 0.0
H1337 H 0.2679 0.19277 0.68757 0.0
H1338 H 0.34855 0.15593 0.68749 0.0
C1339 C 0.04188 0.14412 0.68721 0.0
C1340 C 0.95498 0.89445 0.43737 0.0
C1341 C 0.82761 0.8908 0.43813 0.0
H1342 H 0.09974 0.91792 0.4376 0.0
C1343 C 0.74709 0.90862 0.4375 0.0
H1344 H 0.01917 0.88108 0.43781 0.0
C1345 C 0.79304 0.92971 0.43746 0.0
C1346 C 0.92045 0.93336 0.43814 0.0
H1347 H 0.64829 0.90625 0.43777 0.0
H1348 H 0.72887 0.94308 0.43798 0.0
C1349 C 0.00093 0.91554 0.4374 0.0
C1350 C 0.79241 0.89433 0.32634 0.0
C1351 C 0.91974 0.89072 0.32539 0.0
H1352 H 0.64739 0.91775 0.32636 0.0
C1353 C 0.00013 0.90856 0.32596 0.0
H1354 H 0.7283 0.88094 0.32596 0.0
C1355 C 0.95396 0.92964 0.32611 0.0
C1356 C 0.82647 0.93324 0.32562 0.0
H1357 H 0.09892 0.90622 0.32556 0.0
H1358 H 0.01793 0.94303 0.32553 0.0
C1359 C 0.74624 0.9154 0.32643 0.0
C1360 C 0.49768 0.65818 0.57599 0.0
C1361 C 0.57805 0.64035 0.57526 0.0
H1362 H 0.47965 0.69265 0.57559 0.0
C1363 C 0.70547 0.64397 0.57596 0.0
H1364 H 0.39885 0.65583 0.57578 0.0
C1365 C 0.75157 0.66505 0.57594 0.0
C1366 C 0.67117 0.68289 0.5753 0.0
H1367 H 0.76956 0.63059 0.57544 0.0
H1368 H 0.85038 0.66741 0.57569 0.0
C1369 C 0.54377 0.67926 0.57604 0.0
C1370 C 0.54196 0.64419 0.68725 0.0
C1371 C 0.66944 0.64057 0.68775 0.0
H1372 H 0.39705 0.66762 0.68779 0.0
C1373 C 0.74972 0.65841 0.68695 0.0
H1374 H 0.47795 0.6308 0.68782 0.0
C1375 C 0.70361 0.67949 0.68703 0.0
C1376 C 0.57628 0.6831 0.68797 0.0
H1377 H 0.84856 0.65605 0.68702 0.0
H1378 H 0.76775 0.69287 0.68742 0.0
C1379 C 0.49584 0.66527 0.68739 0.0
C1380 C 0.29286 0.42977 0.43692 0.0
C1381 C 0.42031 0.43336 0.43762 0.0
H1382 H 0.14776 0.40638 0.43718 0.0
C1383 C 0.50054 0.41551 0.43691 0.0
H1384 H 0.22889 0.44317 0.43743 0.0
C1385 C 0.45427 0.39444 0.43686 0.0
C1386 C 0.32684 0.39085 0.43759 0.0
H1387 H 0.59939 0.41784 0.43713 0.0
H1388 H 0.51827 0.38104 0.43731 0.0
C1389 C 0.2466 0.4087 0.43694 0.0
C1390 C 0.29188 0.39433 0.32583 0.0
C1391 C 0.41919 0.39069 0.3249 0.0
H1392 H 0.14707 0.41779 0.32584 0.0
C1393 C 0.49973 0.40851 0.32548 0.0
H1394 H 0.22767 0.38096 0.32543 0.0
C1395 C 0.45374 0.4296 0.32563 0.0
C1396 C 0.32629 0.43324 0.32512 0.0
H1397 H 0.59851 0.40615 0.32508 0.0
H1398 H 0.51783 0.44298 0.32506 0.0
C1399 C 0.24589 0.41542 0.32591 0.0
C1400 C 0.70539 0.14456 0.07577 0.0
C1401 C 0.57788 0.14094 0.07545 0.0
H1402 H 0.85025 0.16798 0.07498 0.0
C1403 C 0.49766 0.15878 0.0763 0.0
H1404 H 0.76933 0.13116 0.07515 0.0
C1405 C 0.54377 0.17986 0.07611 0.0
C1406 C 0.67101 0.18347 0.075 0.0
H1407 H 0.39883 0.15642 0.07636 0.0
H1408 H 0.47958 0.19324 0.07577 0.0
C1409 C 0.75149 0.16564 0.07551 0.0
C1410 C 0.70436 0.17933 0.18723 0.0
C1411 C 0.57689 0.18297 0.18771 0.0
H1412 H 0.84917 0.15589 0.18784 0.0
C1413 C 0.49654 0.16514 0.18695 0.0
H1414 H 0.7684 0.19272 0.18778 0.0
C1415 C 0.54258 0.14405 0.18707 0.0
C1416 C 0.66989 0.14043 0.18804 0.0
H1417 H 0.39771 0.1675 0.187 0.0
H1418 H 0.47838 0.13068 0.18749 0.0
C1419 C 0.75039 0.15825 0.18743 0.0
C1420 C 0.2455 0.90947 0.93748 0.0
C1421 C 0.32589 0.89163 0.93811 0.0
H1422 H 0.22754 0.94393 0.93798 0.0
C1423 C 0.45329 0.89525 0.93735 0.0
H1424 H 0.14668 0.90711 0.93774 0.0
C1425 C 0.4994 0.91633 0.9374 0.0
C1426 C 0.41905 0.93416 0.93814 0.0
H1427 H 0.51738 0.88186 0.93779 0.0
H1428 H 0.59823 0.91868 0.93761 0.0
C1429 C 0.29162 0.93055 0.93746 0.0
C1430 C 0.50073 0.90922 0.82591 0.0
C1431 C 0.42029 0.89138 0.82538 0.0
H1432 H 0.51856 0.94369 0.82548 0.0
C1433 C 0.293 0.89499 0.8264 0.0
H1434 H 0.5995 0.90688 0.82545 0.0
C1435 C 0.24686 0.91607 0.82651 0.0
C1436 C 0.32709 0.93391 0.82567 0.0
H1437 H 0.22885 0.88161 0.82604 0.0
H1438 H 0.14802 0.91842 0.8265 0.0
C1439 C 0.45459 0.9303 0.82609 0.0
C1440 C 0.59749 0.55514 0.0709 0.0
C1441 C 0.65951 0.53514 0.07084 0.0
H1442 H 0.4243 0.5717 0.06987 0.0
C1443 C 0.59025 0.51608 0.06953 0.0
H1444 H 0.64811 0.57017 0.07182 0.0
C1445 C 0.46191 0.517 0.06831 0.0
C1446 C 0.39987 0.537 0.06837 0.0
H1447 H 0.6351 0.50044 0.06934 0.0
H1448 H 0.41133 0.50197 0.06738 0.0
C1449 C 0.46914 0.55606 0.06968 0.0
C1450 C 0.64783 0.76925 0.07093 0.0
C1451 C 0.58574 0.78924 0.071 0.0
H1452 H 0.82109 0.75272 0.0698 0.0
C1453 C 0.65495 0.80833 0.06983 0.0
H1454 H 0.59726 0.7542 0.07174 0.0
C1455 C 0.7833 0.80744 0.06861 0.0
C1456 C 0.8454 0.78744 0.06854 0.0
H1457 H 0.61003 0.82396 0.06974 0.0
H1458 H 0.83382 0.82249 0.06779 0.0
C1459 C 0.77619 0.76836 0.06972 0.0
C1460 C 0.59677 0.76877 0.1923 0.0
C1461 C 0.65882 0.78877 0.1923 0.0
H1462 H 0.42353 0.75223 0.19337 0.0
C1463 C 0.58959 0.80784 0.19353 0.0
H1464 H 0.64736 0.75373 0.19144 0.0
C1465 C 0.46124 0.80694 0.19474 0.0
C1466 C 0.39917 0.78694 0.19475 0.0
H1467 H 0.63447 0.82348 0.19366 0.0
H1468 H 0.41069 0.82198 0.19561 0.0
C1469 C 0.46841 0.76787 0.19351 0.0
C1470 C 0.77682 0.5556 0.19335 0.0
C1471 C 0.84606 0.53653 0.19458 0.0
H1472 H 0.59787 0.56974 0.19129 0.0
C1473 C 0.784 0.51653 0.19457 0.0
H1474 H 0.82169 0.57124 0.19322 0.0
C1475 C 0.65565 0.51563 0.19336 0.0
C1476 C 0.58641 0.5347 0.19213 0.0
H1477 H 0.83455 0.50149 0.19543 0.0
H1478 H 0.61076 0.49999 0.19348 0.0
C1479 C 0.64846 0.5547 0.19214 0.0
C1480 C 0.52694 0.519 0.9433 0.0
C1481 C 0.59619 0.53806 0.94458 0.0
H1482 H 0.34798 0.50487 0.9412 0.0
C1483 C 0.53413 0.55806 0.94461 0.0
H1484 H 0.5718 0.50336 0.94314 0.0
C1485 C 0.40579 0.55897 0.94339 0.0
C1486 C 0.33655 0.53991 0.94212 0.0
H1487 H 0.58469 0.5731 0.94551 0.0
H1488 H 0.36091 0.57461 0.94355 0.0
C1489 C 0.39858 0.51991 0.94209 0.0
C1490 C 0.34728 0.30583 0.94187 0.0
C1491 C 0.40935 0.28583 0.94182 0.0
H1492 H 0.17403 0.32236 0.94299 0.0
C1493 C 0.34013 0.26675 0.943 0.0
H1494 H 0.39786 0.32088 0.94105 0.0
C1495 C 0.21178 0.26765 0.94421 0.0
C1496 C 0.14969 0.28764 0.94426 0.0
H1497 H 0.38504 0.25112 0.94309 0.0
H1498 H 0.16124 0.2526 0.94503 0.0
C1499 C 0.21892 0.30672 0.94308 0.0
C1500 C 0.53437 0.26746 0.81817 0.0
C1501 C 0.59646 0.28745 0.81809 0.0
H1502 H 0.36113 0.25093 0.81931 0.0
C1503 C 0.52722 0.30654 0.81925 0.0
H1504 H 0.58492 0.25241 0.81736 0.0
C1505 C 0.39886 0.30564 0.82045 0.0
C1506 C 0.3368 0.28565 0.82054 0.0
H1507 H 0.57211 0.32217 0.81932 0.0
H1508 H 0.34827 0.32069 0.82125 0.0
C1509 C 0.40602 0.26656 0.81938 0.0
C1510 C 0.21958 0.51882 0.81967 0.0
C1511 C 0.15031 0.53788 0.81835 0.0
H1512 H 0.39854 0.50471 0.82181 0.0
C1513 C 0.21235 0.55788 0.81828 0.0
H1514 H 0.17473 0.50318 0.81986 0.0
C1515 C 0.34068 0.5588 0.8195 0.0
C1516 C 0.40995 0.53974 0.82082 0.0
H1517 H 0.16178 0.57291 0.81734 0.0
H1518 H 0.38554 0.57444 0.81931 0.0
C1519 C 0.34793 0.51974 0.82089 0.0
C1520 C 0.46268 1.01646 0.56879 0.0
C1521 C 0.40065 1.03647 0.56882 0.0
H1522 H 0.63588 0.99991 0.56984 0.0
C1523 C 0.46993 0.05553 0.5701 0.0
H1524 H 0.4121 1.00143 0.56789 0.0
C1525 C 0.59828 0.05461 0.57131 0.0
C1526 C 0.66029 1.03461 0.57128 0.0
H1527 H 0.42508 0.07117 0.57026 0.0
H1528 H 0.64889 0.06965 0.5722 0.0
C1529 C 0.59102 1.01554 0.57001 0.0
C1530 C 0.64917 0.26871 0.57048 0.0
C1531 C 0.58709 0.28871 0.57055 0.0
H1532 H 0.82244 0.25219 0.56937 0.0
C1533 C 0.65629 0.30779 0.56937 0.0
H1534 H 0.5986 0.25366 0.57129 0.0
C1535 C 0.78464 0.3069 0.56816 0.0
C1536 C 0.84675 0.28691 0.5681 0.0
H1537 H 0.61138 0.32343 0.56929 0.0
H1538 H 0.83517 0.32195 0.56734 0.0
C1539 C 0.77753 0.26782 0.56928 0.0
C1540 C 0.59016 0.30792 0.69298 0.0
C1541 C 0.65939 0.28884 0.69182 0.0
H1542 H 0.41126 0.32207 0.69501 0.0
C1543 C 0.59734 0.26884 0.69189 0.0
H1544 H 0.63505 0.32356 0.69305 0.0
C1545 C 0.46898 0.26794 0.69311 0.0
C1546 C 0.39974 0.28702 0.69428 0.0
H1547 H 0.64793 0.25379 0.69109 0.0
H1548 H 0.42411 0.25231 0.69303 0.0
C1549 C 0.46181 0.30702 0.6942 0.0
C1550 C 0.77646 0.05565 0.69377 0.0
C1551 C 0.84571 1.03659 0.69506 0.0
H1552 H 0.5975 0.06977 0.69167 0.0
C1553 C 0.78365 1.01659 0.69511 0.0
H1554 H 0.82133 0.07129 0.6936 0.0
C1555 C 0.65531 1.01567 0.6939 0.0
C1556 C 0.58606 1.03474 0.69261 0.0
H1557 H 0.83421 1.00155 0.69602 0.0
H1558 H 0.61043 1.00004 0.69408 0.0
C1559 C 0.6481 0.05474 0.69257 0.0
C1560 C 0.53482 0.05728 0.44507 0.0
C1561 C 0.59687 0.03728 0.44504 0.0
H1562 H 0.36162 0.07384 0.444 0.0
C1563 C 0.5276 1.01822 0.44375 0.0
H1564 H 0.58538 0.07232 0.44598 0.0
C1565 C 0.39925 1.01913 0.44253 0.0
C1566 C 0.33723 0.03914 0.44255 0.0
H1567 H 0.57245 1.00258 0.44359 0.0
H1568 H 0.34865 1.0041 0.44163 0.0
C1569 C 0.40648 0.0582 0.44384 0.0
C1570 C 0.34173 0.76594 0.44354 0.0
C1571 C 0.41097 0.78502 0.44236 0.0
H1572 H 0.16283 0.7518 0.44558 0.0
C1573 C 0.34892 0.80502 0.4424 0.0
H1574 H 0.38662 0.75031 0.44364 0.0
C1575 C 0.22056 0.80592 0.44361 0.0
C1576 C 0.15131 0.78684 0.4448 0.0
H1577 H 0.39952 0.82006 0.44158 0.0
H1578 H 0.17569 0.82156 0.44351 0.0
C1579 C 0.21338 0.76684 0.44475 0.0
C1580 C 0.40563 0.76589 0.31983 0.0
C1581 C 0.33641 0.78497 0.321 0.0
H1582 H 0.58453 0.75173 0.31782 0.0
C1583 C 0.39848 0.80497 0.32094 0.0
H1584 H 0.36073 0.75026 0.31974 0.0
C1585 C 0.52685 0.80586 0.31974 0.0
C1586 C 0.59608 0.78678 0.31857 0.0
H1587 H 0.3479 0.82002 0.32174 0.0
H1588 H 0.57174 0.8215 0.31983 0.0
C1589 C 0.53399 0.76679 0.31863 0.0
C1590 C 0.21087 0.05718 0.31884 0.0
C1591 C 0.14881 0.03718 0.31886 0.0
H1592 H 0.3841 0.07373 0.3199 0.0
C1593 C 0.21805 1.01812 0.32015 0.0
H1594 H 0.16033 0.07222 0.31793 0.0
C1595 C 0.3464 1.01903 0.32137 0.0
C1596 C 0.40845 0.03903 0.32134 0.0
H1597 H 0.17318 1.00248 0.32031 0.0
H1598 H 0.39699 1.00399 0.32227 0.0
C1599 C 0.33921 0.05809 0.32006 0.0
C1600 C 0.09877 0.55459 0.5708 0.0
C1601 C 0.16083 0.5346 0.57078 0.0
H1602 H 0.92554 0.57114 0.56975 0.0
C1603 C 0.0916 0.51553 0.56952 0.0
H1604 H 0.14936 0.56963 0.57169 0.0
C1605 C 0.96326 0.51643 0.56831 0.0
C1606 C 0.90118 0.53643 0.56833 0.0
H1607 H 0.1365 0.49989 0.56936 0.0
H1608 H 0.91272 0.50139 0.56742 0.0
C1609 C 0.97042 0.5555 0.5696 0.0
C1610 C 0.27854 0.76777 0.56982 0.0
C1611 C 0.34778 0.78684 0.5686 0.0
H1612 H 0.09959 0.75362 0.57188 0.0
C1613 C 0.28571 0.80684 0.56864 0.0
H1614 H 0.32341 0.75213 0.56993 0.0
C1615 C 0.15737 0.80774 0.56986 0.0
C1616 C 0.08813 0.78867 0.57107 0.0
H1617 H 0.33626 0.82189 0.56779 0.0
H1618 H 0.11248 0.82338 0.56975 0.0
C1619 C 0.15018 0.76867 0.57104 0.0
C1620 C 0.9621 0.80704 0.69468 0.0
C1621 C 0.89999 0.78705 0.69476 0.0
H1622 H 0.13538 0.82356 0.69354 0.0
C1623 C 0.96919 0.76796 0.6936 0.0
H1624 H 0.91158 0.8221 0.69549 0.0
C1625 C 0.09755 0.76885 0.69239 0.0
C1626 C 0.15964 0.78884 0.69231 0.0
H1627 H 0.92428 0.75233 0.69353 0.0
H1628 H 0.14811 0.7538 0.69159 0.0
C1629 C 0.09045 0.80793 0.69347 0.0
C1630 C 0.14915 0.55478 0.69203 0.0
C1631 C 0.08714 0.53477 0.6921 0.0
H1632 H 0.32234 0.57134 0.69305 0.0
C1633 C 0.15641 0.51572 0.69341 0.0
H1634 H 0.09854 0.56981 0.6911 0.0
C1635 C 0.28475 0.51664 0.69463 0.0
C1636 C 0.34678 0.53665 0.69456 0.0
H1637 H 0.11156 0.50008 0.6936 0.0
H1638 H 0.33533 0.50161 0.69557 0.0
C1639 C 0.2775 0.5557 0.69324 0.0
C1640 C 0.89999 0.51911 0.44205 0.0
C1641 C 0.83792 0.53911 0.44206 0.0
H1642 H 0.07322 0.50257 0.44312 0.0
C1643 C 0.90714 0.55818 0.44333 0.0
H1644 H 0.84941 0.50407 0.44116 0.0
C1645 C 0.03548 0.55727 0.44455 0.0
C1646 C 0.09756 0.53727 0.44454 0.0
H1647 H 0.86224 0.57381 0.44348 0.0
H1648 H 0.08602 0.57231 0.44545 0.0
C1649 C 0.02834 0.5182 0.44327 0.0
C1650 C 0.84009 0.26601 0.44303 0.0
C1651 C 0.90931 0.28508 0.44184 0.0
H1652 H 0.66118 0.25186 0.44507 0.0
C1653 C 0.84725 0.30508 0.44188 0.0
H1654 H 0.88498 0.25037 0.44314 0.0
C1655 C 0.71889 0.30598 0.44308 0.0
C1656 C 0.64965 0.2869 0.44427 0.0
H1657 H 0.89784 0.32013 0.44105 0.0
H1658 H 0.674 0.32161 0.44297 0.0
C1659 C 0.71173 0.2669 0.44424 0.0
C1660 C 0.02584 0.30583 0.31925 0.0
C1661 C 0.09508 0.28676 0.31806 0.0
H1662 H 0.84689 0.31998 0.32127 0.0
C1663 C 0.033 0.26676 0.31811 0.0
H1664 H 0.07072 0.32147 0.31934 0.0
C1665 C 0.90465 0.26586 0.31932 0.0
C1666 C 0.83542 0.28494 0.32051 0.0
H1667 H 0.08354 0.25171 0.31728 0.0
H1668 H 0.85976 0.25022 0.31923 0.0
C1669 C 0.89748 0.30494 0.32045 0.0
C1670 C 0.84689 0.51904 0.32089 0.0
C1671 C 0.90891 0.53904 0.32086 0.0
H1672 H 0.67369 0.50248 0.31984 0.0
C1673 C 0.83965 0.5581 0.31957 0.0
H1674 H 0.8975 0.504 0.3218 0.0
C1675 C 0.71131 0.55718 0.31833 0.0
C1676 C 0.64927 0.53718 0.31837 0.0
H1677 H 0.88451 0.57374 0.3194 0.0
H1678 H 0.66074 0.57222 0.31742 0.0
C1679 C 0.71854 0.51812 0.31967 0.0
C1680 C 0.96191 1.01698 0.0688 0.0
C1681 C 0.89986 1.03698 0.06885 0.0
H1682 H 0.13511 1.00042 0.06984 0.0
C1683 C 0.96913 0.05604 0.07016 0.0
H1684 H 0.91134 1.00194 0.06787 0.0
C1685 C 0.09747 0.05512 0.07138 0.0
C1686 C 0.1595 1.03512 0.07133 0.0
H1687 H 0.92427 0.07167 0.07034 0.0
H1688 H 0.14808 0.07015 0.07229 0.0
C1689 C 0.09025 1.01606 0.07002 0.0
C1690 C 0.15628 0.30828 0.06939 0.0
C1691 C 0.08708 0.28919 0.07053 0.0
H1692 H 0.33516 0.32245 0.06739 0.0
C1693 C 0.14917 0.2692 0.07043 0.0
H1694 H 0.11137 0.32391 0.06932 0.0
C1695 C 0.27754 0.26831 0.06923 0.0
C1696 C 0.34675 0.2874 0.06809 0.0
H1697 H 0.0986 0.25414 0.07122 0.0
H1698 H 0.32244 0.25268 0.0693 0.0
C1699 C 0.28464 0.30739 0.06818 0.0
C1700 C 0.96882 0.26787 0.19302 0.0
C1701 C 0.89957 0.28694 0.19427 0.0
H1702 H 0.14777 0.25374 0.19092 0.0
C1703 C 0.96162 0.30694 0.19426 0.0
H1704 H 0.92396 0.25223 0.19288 0.0
C1705 C 0.08996 0.30785 0.19303 0.0
C1706 C 0.15921 0.28878 0.19178 0.0
H1707 H 0.91107 0.32198 0.19515 0.0
H1708 H 0.13484 0.32348 0.19317 0.0
C1709 C 0.09717 0.26878 0.19179 0.0
C1710 C 0.27652 0.05559 0.19385 0.0
C1711 C 0.34577 1.03652 0.19506 0.0
H1712 H 0.09757 0.06974 0.19181 0.0
C1713 C 0.28369 1.01652 0.19504 0.0
H1714 H 0.3214 0.07123 0.19373 0.0
C1715 C 0.15534 1.01562 0.19384 0.0
C1716 C 0.08611 1.03469 0.19263 0.0
H1717 H 0.33424 1.00148 0.19589 0.0
H1718 H 0.11045 0.99998 0.19396 0.0
C1719 C 0.14816 0.05469 0.19265 0.0
C1720 C 0.90555 0.05899 0.94389 0.0
C1721 C 0.83631 0.03992 0.9426 0.0
H1722 H 0.08444 0.07311 0.94603 0.0
C1723 C 0.89835 1.01992 0.94256 0.0
H1724 H 0.86067 0.07462 0.94406 0.0
C1725 C 0.0267 1.01901 0.94378 0.0
C1726 C 0.09595 0.03807 0.94507 0.0
H1727 H 0.84776 1.00489 0.94166 0.0
H1728 H 0.07157 1.00337 0.94361 0.0
C1729 C 0.03389 0.05807 0.94511 0.0
C1730 C 0.83962 0.76677 0.94347 0.0
C1731 C 0.90885 0.78585 0.94228 0.0
H1732 H 0.66072 0.75262 0.94552 0.0
C1733 C 0.8468 0.80585 0.94233 0.0
H1734 H 0.8845 0.75113 0.94356 0.0
C1735 C 0.71844 0.80675 0.94355 0.0
C1736 C 0.6492 0.78767 0.94474 0.0
H1737 H 0.89739 0.82089 0.9415 0.0
H1738 H 0.67357 0.82238 0.94345 0.0
C1739 C 0.71127 0.76767 0.94469 0.0
C1740 C 0.03428 0.76744 0.81867 0.0
C1741 C 0.09639 0.78744 0.81858 0.0
H1742 H 0.861 0.75093 0.81982 0.0
C1743 C 0.02719 0.80653 0.81972 0.0
H1744 H 0.0848 0.75239 0.81788 0.0
C1745 C 0.89883 0.80564 0.82092 0.0
C1746 C 0.83673 0.78565 0.82102 0.0
H1747 H 0.0721 0.82216 0.81978 0.0
H1748 H 0.84827 0.8207 0.82171 0.0
C1749 C 0.90593 0.76656 0.81988 0.0
C1750 C 0.71867 1.01878 0.82018 0.0
C1751 C 0.6494 0.03784 0.81885 0.0
H1752 H 0.89762 1.00467 0.82233 0.0
C1753 C 0.71143 0.05784 0.81878 0.0
H1754 H 0.67382 1.00314 0.82037 0.0
C1755 C 0.83977 0.05876 0.82001 0.0
C1756 C 0.90904 0.03971 0.82133 0.0
H1757 H 0.66086 0.07287 0.81784 0.0
H1758 H 0.88463 0.0744 0.81981 0.0
C1759 C 0.84701 1.0197 0.8214 0.0
C1760 C 0.00139 0.55656 0.01522 0.0
C1761 C 0.0055 0.53645 0.02288 0.0
H1762 H 0.99093 0.5734 0.99347 0.0
C1763 C 0.00196 0.51747 0.01395 0.0
H1764 H 0.00389 0.57153 0.02175 0.0
C1765 C 0.99457 0.51858 0.99774 0.0
C1766 C 0.99046 0.53869 0.99007 0.0
H1767 H 0.00503 0.50175 0.01948 0.0
H1768 H 0.99207 0.50361 0.99121 0.0
C1769 C 0.99399 0.55767 0.999 0.0
C1770 C 0.2512 0.76757 0.99904 0.0
C1771 C 0.25479 0.78665 0.99023 0.0
H1772 H 0.24123 0.75345 0.02171 0.0
C1773 C 0.25069 0.80668 0.99801 0.0
H1774 H 0.25425 0.75191 0.99342 0.0
C1775 C 0.24325 0.8076 0.01424 0.0
C1776 C 0.23967 0.78851 0.02305 0.0
H1777 H 0.25323 0.82172 0.99157 0.0
H1778 H 0.2402 0.82326 0.01986 0.0
C1779 C 0.24376 0.76849 0.01527 0.0
C1780 C 0.99354 0.76676 0.26422 0.0
C1781 C 0.99003 0.78582 0.27306 0.0
H1782 H 0.00335 0.75271 0.24153 0.0
C1783 C 0.99409 0.80587 0.26531 0.0
H1784 H 0.99051 0.75109 0.26982 0.0
C1785 C 0.00141 0.80683 0.24909 0.0
C1786 C 0.00493 0.78778 0.24025 0.0
H1787 H 0.99161 0.82089 0.27177 0.0
H1788 H 0.00444 0.82251 0.24349 0.0
C1789 C 0.00087 0.76773 0.24799 0.0
C1790 C 0.24352 0.51673 0.24897 0.0
C1791 C 0.24013 0.53574 0.24008 0.0
H1792 H 0.25318 0.5028 0.2717 0.0
C1793 C 0.2442 0.55583 0.24778 0.0
H1794 H 0.24047 0.50103 0.24342 0.0
C1795 C 0.25145 0.55688 0.264 0.0
C1796 C 0.25486 0.53788 0.27289 0.0
H1797 H 0.2418 0.57082 0.24127 0.0
H1798 H 0.25451 0.57259 0.26955 0.0
C1799 C 0.25077 0.51779 0.2652 0.0
C1800 C 0.75152 0.30667 0.99755 0.0
C1801 C 0.75557 0.28665 0.98977 0.0
H1802 H 0.74122 0.32324 0.01941 0.0
C1803 C 0.75209 0.26757 0.99857 0.0
H1804 H 0.75398 0.32172 0.99111 0.0
C1805 C 0.74481 0.26848 0.0148 0.0
C1806 C 0.74076 0.28849 0.02259 0.0
H1807 H 0.75511 0.25191 0.99295 0.0
H1808 H 0.74236 0.25343 0.02124 0.0
C1809 C 0.74424 0.30758 0.01378 0.0
C1810 C 0.99409 0.26723 0.7638 0.0
C1811 C 0.9906 0.28632 0.77259 0.0
H1812 H 0.00388 0.25306 0.74114 0.0
C1813 C 0.99468 0.30633 0.76479 0.0
H1814 H 0.99104 0.25158 0.76943 0.0
C1815 C 0.00201 0.30722 0.74857 0.0
C1816 C 0.00551 0.28813 0.73977 0.0
H1817 H 0.99222 0.32139 0.77122 0.0
H1818 H 0.00506 0.32287 0.74293 0.0
C1819 C 0.00142 0.26812 0.74757 0.0
C1820 C 0.75185 0.51829 0.76522 0.0
C1821 C 0.75597 0.53842 0.77286 0.0
H1822 H 0.74146 0.50141 0.74349 0.0
C1823 C 0.75251 0.55737 0.76391 0.0
H1824 H 0.75429 0.50333 0.77176 0.0
C1825 C 0.74519 0.55623 0.7477 0.0
C1826 C 0.74108 0.5361 0.74005 0.0
H1827 H 0.75559 0.57311 0.76943 0.0
H1828 H 0.74275 0.57119 0.74115 0.0
C1829 C 0.74453 0.51714 0.749 0.0
C1830 C 0.00226 0.05589 0.51564 0.0
C1831 C 0.00639 1.03579 0.52332 0.0
H1832 H 0.99178 0.07269 0.49388 0.0
C1833 C 0.00291 1.0168 0.51442 0.0
H1834 H 0.00472 0.07087 0.52216 0.0
C1835 C 0.99553 1.01788 0.49819 0.0
C1836 C 0.99138 0.03798 0.49052 0.0
H1837 H 0.006 1.00108 0.51996 0.0
H1838 H 0.99306 1.0029 0.49168 0.0
C1839 C 0.99488 0.05697 0.49942 0.0
C1840 C 0.25217 0.26691 0.49861 0.0
C1841 C 0.25563 0.28598 0.48979 0.0
H1842 H 0.24244 0.25282 0.52129 0.0
C1843 C 0.25158 0.30601 0.49755 0.0
H1844 H 0.25519 0.25124 0.49301 0.0
C1845 C 0.2443 0.30696 0.51377 0.0
C1846 C 0.24084 0.28789 0.5226 0.0
H1847 H 0.25403 0.32104 0.49109 0.0
H1848 H 0.24128 0.32263 0.51938 0.0
C1849 C 0.24489 0.26785 0.51484 0.0
C1850 C 0.2514 0.05729 0.76442 0.0
C1851 C 0.25494 0.03833 0.77336 0.0
H1852 H 0.24152 0.07111 0.74166 0.0
C1853 C 0.25082 1.01821 0.76572 0.0
H1854 H 0.25447 0.07303 0.76993 0.0
C1855 C 0.24342 1.01707 0.7495 0.0
C1856 C 0.2399 1.03603 0.74056 0.0
H1857 H 0.25331 1.00325 0.77226 0.0
H1858 H 0.24036 1.00133 0.74399 0.0
C1859 C 0.24401 0.05616 0.7482 0.0
C1860 C 0.75312 0.8059 0.49806 0.0
C1861 C 0.75721 0.78586 0.4903 0.0
H1862 H 0.74268 0.82253 0.51989 0.0
C1863 C 0.7537 0.7668 0.49913 0.0
H1864 H 0.7556 0.82093 0.4916 0.0
C1865 C 0.74632 0.76775 0.51536 0.0
C1866 C 0.74221 0.78779 0.52312 0.0
H1867 H 0.75675 0.75113 0.49353 0.0
H1868 H 0.74383 0.75272 0.52182 0.0
C1869 C 0.74574 0.80686 0.51428 0.0
C1870 C 0.74312 1.01671 0.24946 0.0
C1871 C 0.73969 1.03572 0.24057 0.0
H1872 H 0.75281 1.00277 0.27218 0.0
C1873 C 0.74374 0.0558 0.24827 0.0
H1874 H 0.74009 1.00101 0.2439 0.0
C1875 C 0.75099 0.05685 0.26449 0.0
C1876 C 0.75445 0.03784 0.27338 0.0
H1877 H 0.74132 0.0708 0.24177 0.0
H1878 H 0.75403 0.07256 0.27004 0.0
C1879 C 0.75038 1.01776 0.26568 0.0
C1880 C 0.50349 0.51677 0.51393 0.0
C1881 C 0.50701 0.53577 0.52283 0.0
H1882 H 0.49363 0.50286 0.49119 0.0
C1883 C 0.50293 0.55586 0.51515 0.0
H1884 H 0.50654 0.50106 0.51947 0.0
C1885 C 0.49556 0.55694 0.49893 0.0
C1886 C 0.49203 0.53794 0.49002 0.0
H1887 H 0.50541 0.57085 0.52166 0.0
H1888 H 0.4925 0.57265 0.49338 0.0
C1889 C 0.49613 0.51785 0.49771 0.0
C1890 C 0.49419 0.76723 0.76428 0.0
C1891 C 0.4906 0.78633 0.77307 0.0
H1892 H 0.50414 0.75306 0.74163 0.0
C1893 C 0.49467 0.80634 0.76528 0.0
H1894 H 0.49116 0.75158 0.76992 0.0
C1895 C 0.50208 0.80722 0.74905 0.0
C1896 C 0.50568 0.78813 0.74026 0.0
H1897 H 0.49213 0.82139 0.7717 0.0
H1898 H 0.50512 0.82287 0.74341 0.0
C1899 C 0.5016 0.76812 0.74806 0.0
C1900 C 0.49309 0.26674 0.26372 0.0
C1901 C 0.48944 0.28579 0.27256 0.0
H1902 H 0.50325 0.25271 0.24102 0.0
C1903 C 0.49359 0.30584 0.26482 0.0
H1904 H 0.49 0.25106 0.26931 0.0
C1905 C 0.50117 0.30683 0.2486 0.0
C1906 C 0.50484 0.28778 0.23975 0.0
H1907 H 0.49102 0.32086 0.27129 0.0
H1908 H 0.50427 0.32251 0.24301 0.0
C1909 C 0.50066 0.26772 0.24749 0.0
C1910 C 0.50193 1.01746 0.01443 0.0
C1911 C 0.50542 1.03643 0.02336 0.0
H1912 H 0.49206 1.00361 0.99168 0.0
C1913 C 0.50127 0.05655 0.01571 0.0
H1914 H 0.50503 1.00173 0.01995 0.0
C1915 C 0.49387 0.05767 0.99949 0.0
C1916 C 0.49037 0.0387 0.99056 0.0
H1917 H 0.50374 0.07151 0.02224 0.0
H1918 H 0.49077 0.07339 0.99396 0.0
C1919 C 0.49452 1.01858 0.99821 0.0
loop_
_geom_bond_atom_site_label_1
_geom_bond_atom_site_label_2
_geom_bond_distance
_geom_bond_site_symmetry_2
_ccdc_geom_bond_type
Co0 N5 2.057 . S
Co0 O17 2.021 . S
Co0 O20 2.062 . S
Co0 O24 2.117 . S
Co0 O25 2.020 1_455 S
C1 O21 1.259 . S
C1 O24 1.258 . S
Co2 N11 2.057 . S
Co2 O18 2.117 . S
Co2 O19 2.020 . S
Co2 O21 2.021 . S
Co2 O26 2.062 1_455 S
C3 N5 1.316 . S
C3 N6 1.347 . S
C3 H8 0.931 . S
C4 N5 1.375 . S
C4 C7 1.350 . S
C4 H9 0.930 . S
N5 Co0 2.057 . S
N5 C3 1.316 . S
N5 C4 1.375 . S
N6 C3 1.347 . S
N6 C7 1.373 . S
C7 C4 1.350 . S
C7 N6 1.373 . S
C7 H28 0.931 . S
H8 C3 0.931 . S
H9 C4 0.930 . S
C10 O17 1.259 . S
C10 O18 1.258 . S
N11 Co2 2.057 . S
N11 C12 1.316 1_455 S
N11 C13 1.375 . S
C12 N11 1.316 1_655 S
C12 N14 1.347 . S
C12 H23 0.931 . S
C13 N11 1.375 . S
C13 C15 1.350 1_455 S
C13 H22 0.930 . S
N14 C12 1.347 . S
N14 C15 1.373 . S
C15 C13 1.350 1_655 S
C15 N14 1.373 . S
C15 H29 0.931 . S
C16 O19 1.256 . S
C16 O20 1.255 . S
O17 Co0 2.021 . S
O17 C10 1.259 . S
O18 Co2 2.117 . S
O18 C10 1.258 . S
O19 Co2 2.020 . S
O19 C16 1.256 . S
O20 Co0 2.062 . S
O20 C16 1.255 . S
O21 C1 1.259 . S
O21 Co2 2.021 . S
H22 C13 0.930 . S
H23 C12 0.931 . S
O24 Co0 2.117 . S
O24 C1 1.258 . S
O25 Co0 2.020 1_655 S
O25 C27 1.256 . S
O26 Co2 2.062 1_655 S
O26 C27 1.255 . S
C27 O25 1.256 . S
C27 O26 1.255 . S
H28 C7 0.931 . S
H29 C15 0.931 . S
Co30 N35 2.057 . S
Co30 O47 2.021 . S
Co30 O50 2.062 . S
Co30 O54 2.117 . S
Co30 O55 2.020 . S
C31 O51 1.259 . S
C31 O54 1.258 . S
Co32 N41 2.057 . S
Co32 O48 2.117 . S
Co32 O49 2.020 . S
Co32 O51 2.021 . S
Co32 O56 2.062 . S
C33 N35 1.316 . S
C33 N36 1.347 . S
C33 H38 0.931 . S
C34 N35 1.375 . S
C34 C37 1.350 . S
C34 H39 0.930 . S
N35 Co30 2.057 . S
N35 C33 1.316 . S
N35 C34 1.375 . S
N36 C33 1.347 . S
N36 C37 1.373 . S
C37 C34 1.350 . S
C37 N36 1.373 . S
C37 H58 0.931 . S
H38 C33 0.931 . S
H39 C34 0.930 . S
C40 O47 1.259 . S
C40 O48 1.258 . S
N41 Co32 2.057 . S
N41 C42 1.316 . S
N41 C43 1.375 . S
C42 N41 1.316 . S
C42 N44 1.347 . S
C42 H53 0.931 . S
C43 N41 1.375 . S
C43 C45 1.350 . S
C43 H52 0.930 . S
N44 C42 1.347 . S
N44 C45 1.373 . S
C45 C43 1.350 . S
C45 N44 1.373 . S
C45 H59 0.931 . S
C46 O49 1.256 1_655 S
C46 O50 1.255 1_655 S
O47 Co30 2.021 . S
O47 C40 1.259 . S
O48 Co32 2.117 . S
O48 C40 1.258 . S
O49 Co32 2.020 . S
O49 C46 1.256 1_455 S
O50 Co30 2.062 . S
O50 C46 1.255 1_455 S
O51 C31 1.259 . S
O51 Co32 2.021 . S
H52 C43 0.930 . S
H53 C42 0.931 . S
O54 Co30 2.117 . S
O54 C31 1.258 . S
O55 Co30 2.020 . S
O55 C57 1.256 . S
O56 Co32 2.062 . S
O56 C57 1.255 . S
C57 O55 1.256 . S
C57 O56 1.255 . S
H58 C37 0.931 . S
H59 C45 0.931 . S
Co60 N65 2.057 . S
Co60 O77 2.021 . S
Co60 O80 2.062 . S
Co60 O84 2.117 . S
Co60 O85 2.020 1_455 S
C61 O81 1.259 . S
C61 O84 1.258 . S
Co62 N71 2.057 . S
Co62 O78 2.117 . S
Co62 O79 2.020 . S
Co62 O81 2.021 . S
Co62 O86 2.062 1_455 S
C63 N65 1.316 . S
C63 N66 1.347 . S
C63 H68 0.931 . S
C64 N65 1.375 . S
C64 C67 1.350 . S
C64 H69 0.930 . S
N65 Co60 2.057 . S
N65 C63 1.316 . S
N65 C64 1.375 . S
N66 C63 1.347 . S
N66 C67 1.373 . S
C67 C64 1.350 . S
C67 N66 1.373 . S
C67 H88 0.931 . S
H68 C63 0.931 . S
H69 C64 0.930 . S
C70 O77 1.259 . S
C70 O78 1.258 . S
N71 Co62 2.057 . S
N71 C72 1.316 1_455 S
N71 C73 1.375 . S
C72 N71 1.316 1_655 S
C72 N74 1.347 . S
C72 H83 0.931 . S
C73 N71 1.375 . S
C73 C75 1.350 1_455 S
C73 H82 0.930 . S
N74 C72 1.347 . S
N74 C75 1.373 . S
C75 C73 1.350 1_655 S
C75 N74 1.373 . S
C75 H89 0.931 . S
C76 O79 1.256 . S
C76 O80 1.255 . S
O77 Co60 2.021 . S
O77 C70 1.259 . S
O78 Co62 2.117 . S
O78 C70 1.258 . S
O79 Co62 2.020 . S
O79 C76 1.256 . S
O80 Co60 2.062 . S
O80 C76 1.255 . S
O81 C61 1.259 . S
O81 Co62 2.021 . S
H82 C73 0.930 . S
H83 C72 0.931 . S
O84 Co60 2.117 . S
O84 C61 1.258 . S
O85 Co60 2.020 1_655 S
O85 C87 1.256 . S
O86 Co62 2.062 1_655 S
O86 C87 1.255 . S
C87 O85 1.256 . S
C87 O86 1.255 . S
H88 C67 0.931 . S
H89 C75 0.931 . S
Co90 N95 2.057 . S
Co90 O107 2.021 . S
Co90 O110 2.062 . S
Co90 O114 2.117 . S
Co90 O115 2.020 . S
C91 O111 1.259 . S
C91 O114 1.258 . S
Co92 N101 2.057 . S
Co92 O108 2.117 . S
Co92 O109 2.020 . S
Co92 O111 2.021 . S
Co92 O116 2.062 . S
C93 N95 1.316 . S
C93 N96 1.347 . S
C93 H98 0.931 . S
C94 N95 1.375 . S
C94 C97 1.350 . S
C94 H99 0.930 . S
N95 Co90 2.057 . S
N95 C93 1.316 . S
N95 C94 1.375 . S
N96 C93 1.347 . S
N96 C97 1.373 . S
C97 C94 1.350 . S
C97 N96 1.373 . S
C97 H118 0.931 . S
H98 C93 0.931 . S
H99 C94 0.930 . S
C100 O107 1.259 . S
C100 O108 1.258 . S
N101 Co92 2.057 . S
N101 C102 1.316 . S
N101 C103 1.375 . S
C102 N101 1.316 . S
C102 N104 1.347 . S
C102 H113 0.931 . S
C103 N101 1.375 . S
C103 C105 1.350 . S
C103 H112 0.930 . S
N104 C102 1.347 . S
N104 C105 1.373 . S
C105 C103 1.350 . S
C105 N104 1.373 . S
C105 H119 0.931 . S
C106 O109 1.256 1_655 S
C106 O110 1.255 1_655 S
O107 Co90 2.021 . S
O107 C100 1.259 . S
O108 Co92 2.117 . S
O108 C100 1.258 . S
O109 Co92 2.020 . S
O109 C106 1.256 1_455 S
O110 Co90 2.062 . S
O110 C106 1.255 1_455 S
O111 C91 1.259 . S
O111 Co92 2.021 . S
H112 C103 0.930 . S
H113 C102 0.931 . S
O114 Co90 2.117 . S
O114 C91 1.258 . S
O115 Co90 2.020 . S
O115 C117 1.256 . S
O116 Co92 2.062 . S
O116 C117 1.255 . S
C117 O115 1.256 . S
C117 O116 1.255 . S
H118 C97 0.931 . S
H119 C105 0.931 . S
Co120 N125 2.057 . S
Co120 O137 2.021 . S
Co120 O140 2.062 1_655 S
Co120 O144 2.117 . S
Co120 O145 2.020 . S
C121 O141 1.259 . S
C121 O144 1.258 . S
Co122 N131 2.057 . S
Co122 O138 2.117 . S
Co122 O139 2.020 1_655 S
Co122 O141 2.021 . S
Co122 O146 2.062 . S
C123 N125 1.316 1_455 S
C123 N126 1.347 . S
C123 H128 0.931 . S
C124 N125 1.375 . S
C124 C127 1.350 1_655 S
C124 H129 0.930 . S
N125 Co120 2.057 . S
N125 C123 1.316 1_655 S
N125 C124 1.375 . S
N126 C123 1.347 . S
N126 C127 1.373 . S
C127 C124 1.350 1_455 S
C127 N126 1.373 . S
C127 H148 0.931 . S
H128 C123 0.931 . S
H129 C124 0.930 . S
C130 O137 1.259 . S
C130 O138 1.258 . S
N131 Co122 2.057 . S
N131 C132 1.316 . S
N131 C133 1.375 . S
C132 N131 1.316 . S
C132 N134 1.347 . S
C132 H143 0.931 . S
C133 N131 1.375 . S
C133 C135 1.350 . S
C133 H142 0.930 . S
N134 C132 1.347 . S
N134 C135 1.373 . S
C135 C133 1.350 . S
C135 N134 1.373 . S
C135 H149 0.931 . S
C136 O139 1.256 . S
C136 O140 1.255 . S
O137 Co120 2.021 . S
O137 C130 1.259 . S
O138 Co122 2.117 . S
O138 C130 1.258 . S
O139 Co122 2.020 1_455 S
O139 C136 1.256 . S
O140 Co120 2.062 1_455 S
O140 C136 1.255 . S
O141 C121 1.259 . S
O141 Co122 2.021 . S
H142 C133 0.930 . S
H143 C132 0.931 . S
O144 Co120 2.117 . S
O144 C121 1.258 . S
O145 Co120 2.020 . S
O145 C147 1.256 . S
O146 Co122 2.062 . S
O146 C147 1.255 . S
C147 O145 1.256 . S
C147 O146 1.255 . S
H148 C127 0.931 . S
H149 C135 0.931 . S
Co150 N155 2.057 . S
Co150 O167 2.021 . S
Co150 O170 2.062 . S
Co150 O174 2.117 . S
Co150 O175 2.020 . S
C151 O171 1.259 . S
C151 O174 1.258 . S
Co152 N161 2.057 . S
Co152 O168 2.117 . S
Co152 O169 2.020 . S
Co152 O171 2.021 . S
Co152 O176 2.062 . S
C153 N155 1.316 . S
C153 N156 1.347 . S
C153 H158 0.931 . S
C154 N155 1.375 . S
C154 C157 1.350 . S
C154 H159 0.930 . S
N155 Co150 2.057 . S
N155 C153 1.316 . S
N155 C154 1.375 . S
N156 C153 1.347 . S
N156 C157 1.373 . S
C157 C154 1.350 . S
C157 N156 1.373 . S
C157 H178 0.931 . S
H158 C153 0.931 . S
H159 C154 0.930 . S
C160 O167 1.259 . S
C160 O168 1.258 . S
N161 Co152 2.057 . S
N161 C162 1.316 . S
N161 C163 1.375 . S
C162 N161 1.316 . S
C162 N164 1.347 . S
C162 H173 0.931 . S
C163 N161 1.375 . S
C163 C165 1.350 . S
C163 H172 0.930 . S
N164 C162 1.347 . S
N164 C165 1.373 . S
C165 C163 1.350 . S
C165 N164 1.373 . S
C165 H179 0.931 . S
C166 O169 1.256 . S
C166 O170 1.255 . S
O167 Co150 2.021 . S
O167 C160 1.259 . S
O168 Co152 2.117 . S
O168 C160 1.258 . S
O169 Co152 2.020 . S
O169 C166 1.256 . S
O170 Co150 2.062 . S
O170 C166 1.255 . S
O171 C151 1.259 . S
O171 Co152 2.021 . S
H172 C163 0.930 . S
H173 C162 0.931 . S
O174 Co150 2.117 . S
O174 C151 1.258 . S
O175 Co150 2.020 . S
O175 C177 1.256 1_655 S
O176 Co152 2.062 . S
O176 C177 1.255 1_655 S
C177 O175 1.256 1_455 S
C177 O176 1.255 1_455 S
H178 C157 0.931 . S
H179 C165 0.931 . S
Co180 N185 2.057 . S
Co180 O197 2.021 . S
Co180 O200 2.062 1_655 S
Co180 O204 2.117 . S
Co180 O205 2.020 . S
C181 O201 1.259 . S
C181 O204 1.258 . S
Co182 N191 2.057 . S
Co182 O198 2.117 . S
Co182 O199 2.020 1_655 S
Co182 O201 2.021 . S
Co182 O206 2.062 . S
C183 N185 1.316 1_455 S
C183 N186 1.347 . S
C183 H188 0.931 . S
C184 N185 1.375 . S
C184 C187 1.350 1_655 S
C184 H189 0.930 . S
N185 Co180 2.057 . S
N185 C183 1.316 1_655 S
N185 C184 1.375 . S
N186 C183 1.347 . S
N186 C187 1.373 . S
C187 C184 1.350 1_455 S
C187 N186 1.373 . S
C187 H208 0.931 . S
H188 C183 0.931 . S
H189 C184 0.930 . S
C190 O197 1.259 . S
C190 O198 1.258 . S
N191 Co182 2.057 . S
N191 C192 1.316 . S
N191 C193 1.375 . S
C192 N191 1.316 . S
C192 N194 1.347 . S
C192 H203 0.931 . S
C193 N191 1.375 . S
C193 C195 1.350 . S
C193 H202 0.930 . S
N194 C192 1.347 . S
N194 C195 1.373 . S
C195 C193 1.350 . S
C195 N194 1.373 . S
C195 H209 0.931 . S
C196 O199 1.256 . S
C196 O200 1.255 . S
O197 Co180 2.021 . S
O197 C190 1.259 . S
O198 Co182 2.117 . S
O198 C190 1.258 . S
O199 Co182 2.020 1_455 S
O199 C196 1.256 . S
O200 Co180 2.062 1_455 S
O200 C196 1.255 . S
O201 C181 1.259 . S
O201 Co182 2.021 . S
H202 C193 0.930 . S
H203 C192 0.931 . S
O204 Co180 2.117 . S
O204 C181 1.258 . S
O205 Co180 2.020 . S
O205 C207 1.256 . S
O206 Co182 2.062 . S
O206 C207 1.255 . S
C207 O205 1.256 . S
C207 O206 1.255 . S
H208 C187 0.931 . S
H209 C195 0.931 . S
Co210 N215 2.057 . S
Co210 O227 2.021 . S
Co210 O230 2.062 . S
Co210 O234 2.117 . S
Co210 O235 2.020 . S
C211 O231 1.259 . S
C211 O234 1.258 . S
Co212 N221 2.057 . S
Co212 O228 2.117 . S
Co212 O229 2.020 . S
Co212 O231 2.021 . S
Co212 O236 2.062 . S
C213 N215 1.316 . S
C213 N216 1.347 . S
C213 H218 0.931 . S
C214 N215 1.375 . S
C214 C217 1.350 . S
C214 H219 0.930 . S
N215 Co210 2.057 . S
N215 C213 1.316 . S
N215 C214 1.375 . S
N216 C213 1.347 . S
N216 C217 1.373 . S
C217 C214 1.350 . S
C217 N216 1.373 . S
C217 H238 0.931 . S
H218 C213 0.931 . S
H219 C214 0.930 . S
C220 O227 1.259 . S
C220 O228 1.258 . S
N221 Co212 2.057 . S
N221 C222 1.316 . S
N221 C223 1.375 . S
C222 N221 1.316 . S
C222 N224 1.347 . S
C222 H233 0.931 . S
C223 N221 1.375 . S
C223 C225 1.350 . S
C223 H232 0.930 . S
N224 C222 1.347 . S
N224 C225 1.373 . S
C225 C223 1.350 . S
C225 N224 1.373 . S
C225 H239 0.931 . S
C226 O229 1.256 . S
C226 O230 1.255 . S
O227 Co210 2.021 . S
O227 C220 1.259 . S
O228 Co212 2.117 . S
O228 C220 1.258 . S
O229 Co212 2.020 . S
O229 C226 1.256 . S
O230 Co210 2.062 . S
O230 C226 1.255 . S
O231 C211 1.259 . S
O231 Co212 2.021 . S
H232 C223 0.930 . S
H233 C222 0.931 . S
O234 Co210 2.117 . S
O234 C211 1.258 . S
O235 Co210 2.020 . S
O235 C237 1.256 1_655 S
O236 Co212 2.062 . S
O236 C237 1.255 1_655 S
C237 O235 1.256 1_455 S
C237 O236 1.255 1_455 S
H238 C217 0.931 . S
H239 C225 0.931 . S
Co240 N245 2.057 . S
Co240 O257 2.021 . S
Co240 O260 2.062 . S
Co240 O264 2.117 . S
Co240 O265 2.020 1_455 S
C241 O261 1.259 . S
C241 O264 1.258 1_565 S
Co242 N251 2.057 . S
Co242 O258 2.117 . S
Co242 O259 2.020 . S
Co242 O261 2.021 . S
Co242 O266 2.062 1_455 S
C243 N245 1.316 . S
C243 N246 1.347 . S
C243 H248 0.931 . S
C244 N245 1.375 . S
C244 C247 1.350 . S
C244 H249 0.930 . S
N245 Co240 2.057 . S
N245 C243 1.316 . S
N245 C244 1.375 . S
N246 C243 1.347 . S
N246 C247 1.373 . S
C247 C244 1.350 . S
C247 N246 1.373 . S
C247 H268 0.931 . S
H248 C243 0.931 . S
H249 C244 0.930 . S
C250 O257 1.259 . S
C250 O258 1.258 1_545 S
N251 Co242 2.057 . S
N251 C252 1.316 1_455 S
N251 C253 1.375 . S
C252 N251 1.316 1_655 S
C252 N254 1.347 . S
C252 H263 0.931 . S
C253 N251 1.375 . S
C253 C255 1.350 1_455 S
C253 H262 0.930 . S
N254 C252 1.347 . S
N254 C255 1.373 . S
C255 C253 1.350 1_655 S
C255 N254 1.373 . S
C255 H269 0.931 . S
C256 O259 1.274 . S
C256 O260 1.236 1_565 S
O257 Co240 2.021 . S
O257 C250 1.259 . S
O258 Co242 2.117 . S
O258 C250 1.258 1_565 S
O259 Co242 2.020 . S
O259 C256 1.274 . S
O260 Co240 2.062 . S
O260 C256 1.236 1_545 S
O261 C241 1.259 . S
O261 Co242 2.021 . S
H262 C253 0.930 . S
H263 C252 0.931 . S
O264 Co240 2.117 . S
O264 C241 1.258 1_545 S
O265 Co240 2.020 1_655 S
O265 C267 1.263 . S
O266 Co242 2.062 1_655 S
O266 C267 1.248 1_565 S
C267 O265 1.263 . S
C267 O266 1.248 1_545 S
H268 C247 0.931 . S
H269 C255 0.931 . S
Co270 N275 2.057 . S
Co270 O287 2.021 . S
Co270 O290 2.062 . S
Co270 O294 2.117 . S
Co270 O295 2.020 . S
C271 O291 1.259 . S
C271 O294 1.258 . S
Co272 N281 2.057 . S
Co272 O288 2.117 . S
Co272 O289 2.020 . S
Co272 O291 2.021 . S
Co272 O296 2.062 . S
C273 N275 1.316 . S
C273 N276 1.347 . S
C273 H278 0.931 . S
C274 N275 1.375 . S
C274 C277 1.350 . S
C274 H279 0.930 . S
N275 Co270 2.057 . S
N275 C273 1.316 . S
N275 C274 1.375 . S
N276 C273 1.347 . S
N276 C277 1.373 . S
C277 C274 1.350 . S
C277 N276 1.373 . S
C277 H298 0.931 . S
H278 C273 0.931 . S
H279 C274 0.930 . S
C280 O287 1.259 . S
C280 O288 1.258 . S
N281 Co272 2.057 . S
N281 C282 1.316 . S
N281 C283 1.375 . S
C282 N281 1.316 . S
C282 N284 1.347 . S
C282 H293 0.931 . S
C283 N281 1.375 . S
C283 C285 1.350 . S
C283 H292 0.930 . S
N284 C282 1.347 . S
N284 C285 1.373 . S
C285 C283 1.350 . S
C285 N284 1.373 . S
C285 H299 0.931 . S
C286 O289 1.256 1_655 S
C286 O290 1.255 1_655 S
O287 Co270 2.021 . S
O287 C280 1.259 . S
O288 Co272 2.117 . S
O288 C280 1.258 . S
O289 Co272 2.020 . S
O289 C286 1.256 1_455 S
O290 Co270 2.062 . S
O290 C286 1.255 1_455 S
O291 C271 1.259 . S
O291 Co272 2.021 . S
H292 C283 0.930 . S
H293 C282 0.931 . S
O294 Co270 2.117 . S
O294 C271 1.258 . S
O295 Co270 2.020 . S
O295 C297 1.256 . S
O296 Co272 2.062 . S
O296 C297 1.255 . S
C297 O295 1.256 . S
C297 O296 1.255 . S
H298 C277 0.931 . S
H299 C285 0.931 . S
Co300 N305 2.057 . S
Co300 O317 2.021 . S
Co300 O320 2.062 . S
Co300 O324 2.117 . S
Co300 O325 2.020 1_455 S
C301 O321 1.259 . S
C301 O324 1.258 . S
Co302 N311 2.057 . S
Co302 O318 2.117 . S
Co302 O319 2.020 . S
Co302 O321 2.021 . S
Co302 O326 2.062 1_455 S
C303 N305 1.316 . S
C303 N306 1.347 . S
C303 H308 0.931 . S
C304 N305 1.375 . S
C304 C307 1.350 . S
C304 H309 0.930 . S
N305 Co300 2.057 . S
N305 C303 1.316 . S
N305 C304 1.375 . S
N306 C303 1.347 . S
N306 C307 1.373 . S
C307 C304 1.350 . S
C307 N306 1.373 . S
C307 H328 0.931 . S
H308 C303 0.931 . S
H309 C304 0.930 . S
C310 O317 1.259 . S
C310 O318 1.258 . S
N311 Co302 2.057 . S
N311 C312 1.316 1_455 S
N311 C313 1.375 . S
C312 N311 1.316 1_655 S
C312 N314 1.347 . S
C312 H323 0.931 . S
C313 N311 1.375 . S
C313 C315 1.350 1_455 S
C313 H322 0.930 . S
N314 C312 1.347 . S
N314 C315 1.373 . S
C315 C313 1.350 1_655 S
C315 N314 1.373 . S
C315 H329 0.931 . S
C316 O319 1.256 . S
C316 O320 1.255 . S
O317 Co300 2.021 . S
O317 C310 1.259 . S
O318 Co302 2.117 . S
O318 C310 1.258 . S
O319 Co302 2.020 . S
O319 C316 1.256 . S
O320 Co300 2.062 . S
O320 C316 1.255 . S
O321 C301 1.259 . S
O321 Co302 2.021 . S
H322 C313 0.930 . S
H323 C312 0.931 . S
O324 Co300 2.117 . S
O324 C301 1.258 . S
O325 Co300 2.020 1_655 S
O325 C327 1.256 . S
O326 Co302 2.062 1_655 S
O326 C327 1.255 . S
C327 O325 1.256 . S
C327 O326 1.255 . S
H328 C307 0.931 . S
H329 C315 0.931 . S
Co330 N335 2.057 . S
Co330 O347 2.021 . S
Co330 O350 2.062 . S
Co330 O354 2.117 . S
Co330 O355 2.020 . S
C331 O351 1.259 . S
C331 O354 1.258 1_565 S
Co332 N341 2.057 . S
Co332 O348 2.117 . S
Co332 O349 2.020 . S
Co332 O351 2.021 . S
Co332 O356 2.062 . S
C333 N335 1.316 . S
C333 N336 1.347 . S
C333 H338 0.931 . S
C334 N335 1.375 . S
C334 C337 1.350 . S
C334 H339 0.930 . S
N335 Co330 2.057 . S
N335 C333 1.316 . S
N335 C334 1.375 . S
N336 C333 1.347 . S
N336 C337 1.373 . S
C337 C334 1.350 . S
C337 N336 1.373 . S
C337 H358 0.931 . S
H338 C333 0.931 . S
H339 C334 0.930 . S
C340 O347 1.259 . S
C340 O348 1.258 1_545 S
N341 Co332 2.057 . S
N341 C342 1.316 . S
N341 C343 1.375 . S
C342 N341 1.316 . S
C342 N344 1.347 . S
C342 H353 0.931 . S
C343 N341 1.375 . S
C343 C345 1.350 . S
C343 H352 0.930 . S
N344 C342 1.347 . S
N344 C345 1.373 . S
C345 C343 1.350 . S
C345 N344 1.373 . S
C345 H359 0.931 . S
C346 O349 1.274 1_655 S
C346 O350 1.236 1_665 S
O347 Co330 2.021 . S
O347 C340 1.259 . S
O348 Co332 2.117 . S
O348 C340 1.258 1_565 S
O349 Co332 2.020 . S
O349 C346 1.274 1_455 S
O350 Co330 2.062 . S
O350 C346 1.236 1_445 S
O351 C331 1.259 . S
O351 Co332 2.021 . S
H352 C343 0.930 . S
H353 C342 0.931 . S
O354 Co330 2.117 . S
O354 C331 1.258 1_545 S
O355 Co330 2.020 . S
O355 C357 1.262 . S
O356 Co332 2.062 . S
O356 C357 1.248 1_565 S
C357 O355 1.262 . S
C357 O356 1.248 1_545 S
H358 C337 0.931 . S
H359 C345 0.931 . S
Co360 N365 2.057 . S
Co360 O377 2.021 . S
Co360 O380 2.062 1_655 S
Co360 O384 2.117 . S
Co360 O385 2.020 . S
C361 O381 1.259 . S
C361 O384 1.258 1_565 S
Co362 N371 2.057 . S
Co362 O378 2.117 . S
Co362 O379 2.020 1_655 S
Co362 O381 2.021 . S
Co362 O386 2.062 . S
C363 N365 1.316 1_455 S
C363 N366 1.347 . S
C363 H368 0.931 . S
C364 N365 1.375 . S
C364 C367 1.350 1_655 S
C364 H369 0.930 . S
N365 Co360 2.057 . S
N365 C363 1.316 1_655 S
N365 C364 1.375 . S
N366 C363 1.347 . S
N366 C367 1.373 . S
C367 C364 1.350 1_455 S
C367 N366 1.373 . S
C367 H388 0.931 . S
H368 C363 0.931 . S
H369 C364 0.930 . S
C370 O377 1.259 . S
C370 O378 1.258 1_545 S
N371 Co362 2.057 . S
N371 C372 1.316 . S
N371 C373 1.375 . S
C372 N371 1.316 . S
C372 N374 1.347 . S
C372 H383 0.931 . S
C373 N371 1.375 . S
C373 C375 1.350 . S
C373 H382 0.930 . S
N374 C372 1.347 . S
N374 C375 1.373 . S
C375 C373 1.350 . S
C375 N374 1.373 . S
C375 H389 0.931 . S
C376 O379 1.263 . S
C376 O380 1.248 1_565 S
O377 Co360 2.021 . S
O377 C370 1.259 . S
O378 Co362 2.117 . S
O378 C370 1.258 1_565 S
O379 Co362 2.020 1_455 S
O379 C376 1.263 . S
O380 Co360 2.062 1_455 S
O380 C376 1.248 1_545 S
O381 C361 1.259 . S
O381 Co362 2.021 . S
H382 C373 0.930 . S
H383 C372 0.931 . S
O384 Co360 2.117 . S
O384 C361 1.258 1_545 S
O385 Co360 2.020 . S
O385 C387 1.274 . S
O386 Co362 2.062 . S
O386 C387 1.236 1_565 S
C387 O385 1.274 . S
C387 O386 1.236 1_545 S
H388 C367 0.931 . S
H389 C375 0.931 . S
Co390 N395 2.057 . S
Co390 O407 2.021 . S
Co390 O410 2.062 . S
Co390 O414 2.117 . S
Co390 O415 2.020 . S
C391 O411 1.259 . S
C391 O414 1.258 . S
Co392 N401 2.057 . S
Co392 O408 2.117 . S
Co392 O409 2.020 . S
Co392 O411 2.021 . S
Co392 O416 2.062 . S
C393 N395 1.316 . S
C393 N396 1.347 . S
C393 H398 0.931 . S
C394 N395 1.375 . S
C394 C397 1.350 . S
C394 H399 0.930 . S
N395 Co390 2.057 . S
N395 C393 1.316 . S
N395 C394 1.375 . S
N396 C393 1.347 . S
N396 C397 1.373 . S
C397 C394 1.350 . S
C397 N396 1.373 . S
C397 H418 0.931 . S
H398 C393 0.931 . S
H399 C394 0.930 . S
C400 O407 1.259 . S
C400 O408 1.258 . S
N401 Co392 2.057 . S
N401 C402 1.316 . S
N401 C403 1.375 . S
C402 N401 1.316 . S
C402 N404 1.347 . S
C402 H413 0.931 . S
C403 N401 1.375 . S
C403 C405 1.350 . S
C403 H412 0.930 . S
N404 C402 1.347 . S
N404 C405 1.373 . S
C405 C403 1.350 . S
C405 N404 1.373 . S
C405 H419 0.931 . S
C406 O409 1.256 . S
C406 O410 1.255 . S
O407 Co390 2.021 . S
O407 C400 1.259 . S
O408 Co392 2.117 . S
O408 C400 1.258 . S
O409 Co392 2.020 . S
O409 C406 1.256 . S
O410 Co390 2.062 . S
O410 C406 1.255 . S
O411 C391 1.259 . S
O411 Co392 2.021 . S
H412 C403 0.930 . S
H413 C402 0.931 . S
O414 Co390 2.117 . S
O414 C391 1.258 . S
O415 Co390 2.020 . S
O415 C417 1.256 1_655 S
O416 Co392 2.062 . S
O416 C417 1.255 1_655 S
C417 O415 1.256 1_455 S
C417 O416 1.255 1_455 S
H418 C397 0.931 . S
H419 C405 0.931 . S
Co420 N425 2.057 . S
Co420 O437 2.021 . S
Co420 O440 2.062 1_655 S
Co420 O444 2.117 . S
Co420 O445 2.020 . S
C421 O441 1.259 . S
C421 O444 1.258 . S
Co422 N431 2.057 . S
Co422 O438 2.117 . S
Co422 O439 2.020 1_655 S
Co422 O441 2.021 . S
Co422 O446 2.062 . S
C423 N425 1.316 1_455 S
C423 N426 1.347 . S
C423 H428 0.931 . S
C424 N425 1.375 . S
C424 C427 1.350 1_655 S
C424 H429 0.930 . S
N425 Co420 2.057 . S
N425 C423 1.316 1_655 S
N425 C424 1.375 . S
N426 C423 1.347 . S
N426 C427 1.373 . S
C427 C424 1.350 1_455 S
C427 N426 1.373 . S
C427 H448 0.931 . S
H428 C423 0.931 . S
H429 C424 0.930 . S
C430 O437 1.259 . S
C430 O438 1.258 . S
N431 Co422 2.057 . S
N431 C432 1.316 . S
N431 C433 1.375 . S
C432 N431 1.316 . S
C432 N434 1.347 . S
C432 H443 0.931 . S
C433 N431 1.375 . S
C433 C435 1.350 . S
C433 H442 0.930 . S
N434 C432 1.347 . S
N434 C435 1.373 . S
C435 C433 1.350 . S
C435 N434 1.373 . S
C435 H449 0.931 . S
C436 O439 1.256 . S
C436 O440 1.255 . S
O437 Co420 2.021 . S
O437 C430 1.259 . S
O438 Co422 2.117 . S
O438 C430 1.258 . S
O439 Co422 2.020 1_455 S
O439 C436 1.256 . S
O440 Co420 2.062 1_455 S
O440 C436 1.255 . S
O441 C421 1.259 . S
O441 Co422 2.021 . S
H442 C433 0.930 . S
H443 C432 0.931 . S
O444 Co420 2.117 . S
O444 C421 1.258 . S
O445 Co420 2.020 . S
O445 C447 1.256 . S
O446 Co422 2.062 . S
O446 C447 1.255 . S
C447 O445 1.256 . S
C447 O446 1.255 . S
H448 C427 0.931 . S
H449 C435 0.931 . S
Co450 N455 2.057 . S
Co450 O467 2.021 . S
Co450 O470 2.062 . S
Co450 O474 2.117 . S
Co450 O475 2.020 . S
C451 O471 1.259 . S
C451 O474 1.258 1_565 S
Co452 N461 2.057 . S
Co452 O468 2.117 . S
Co452 O469 2.020 . S
Co452 O471 2.021 . S
Co452 O476 2.062 . S
C453 N455 1.316 . S
C453 N456 1.347 . S
C453 H458 0.931 . S
C454 N455 1.375 . S
C454 C457 1.350 . S
C454 H459 0.930 . S
N455 Co450 2.057 . S
N455 C453 1.316 . S
N455 C454 1.375 . S
N456 C453 1.347 . S
N456 C457 1.373 . S
C457 C454 1.350 . S
C457 N456 1.373 . S
C457 H478 0.931 . S
H458 C453 0.931 . S
H459 C454 0.930 . S
C460 O467 1.259 . S
C460 O468 1.258 1_545 S
N461 Co452 2.057 . S
N461 C462 1.316 . S
N461 C463 1.375 . S
C462 N461 1.316 . S
C462 N464 1.347 . S
C462 H473 0.931 . S
C463 N461 1.375 . S
C463 C465 1.350 . S
C463 H472 0.930 . S
N464 C462 1.347 . S
N464 C465 1.373 . S
C465 C463 1.350 . S
C465 N464 1.373 . S
C465 H479 0.931 . S
C466 O469 1.262 . S
C466 O470 1.248 1_565 S
O467 Co450 2.021 . S
O467 C460 1.259 . S
O468 Co452 2.117 . S
O468 C460 1.258 1_565 S
O469 Co452 2.020 . S
O469 C466 1.262 . S
O470 Co450 2.062 . S
O470 C466 1.248 1_545 S
O471 C451 1.259 . S
O471 Co452 2.021 . S
H472 C463 0.930 . S
H473 C462 0.931 . S
O474 Co450 2.117 . S
O474 C451 1.258 1_545 S
O475 Co450 2.020 . S
O475 C477 1.274 1_655 S
O476 Co452 2.062 . S
O476 C477 1.236 1_665 S
C477 O475 1.274 1_455 S
C477 O476 1.236 1_445 S
H478 C457 0.931 . S
H479 C465 0.931 . S
Co480 N485 2.057 . S
Co480 O497 2.021 . S
Co480 O500 2.062 . S
Co480 O504 2.117 . S
Co480 O505 2.020 . S
C481 O501 1.259 . S
C481 O504 1.258 . S
Co482 N491 2.057 . S
Co482 O498 2.117 . S
Co482 O499 2.020 . S
Co482 O501 2.021 . S
Co482 O506 2.062 . S
C483 N485 1.316 . S
C483 N486 1.347 . S
C483 H488 0.931 . S
C484 N485 1.375 . S
C484 C487 1.350 . S
C484 H489 0.930 . S
N485 Co480 2.057 . S
N485 C483 1.316 . S
N485 C484 1.375 . S
N486 C483 1.347 . S
N486 C487 1.373 . S
C487 C484 1.350 . S
C487 N486 1.373 . S
C487 H508 0.931 . S
H488 C483 0.931 . S
H489 C484 0.930 . S
C490 O497 1.259 . S
C490 O498 1.258 . S
N491 Co482 2.057 . S
N491 C492 1.316 . S
N491 C493 1.375 . S
C492 N491 1.316 . S
C492 N494 1.347 . S
C492 H503 0.931 . S
C493 N491 1.375 . S
C493 C495 1.350 . S
C493 H502 0.930 . S
N494 C492 1.347 . S
N494 C495 1.373 . S
C495 C493 1.350 . S
C495 N494 1.373 . S
C495 H509 0.931 . S
C496 O499 1.256 . S
C496 O500 1.255 . S
O497 Co480 2.021 . S
O497 C490 1.259 . S
O498 Co482 2.117 . S
O498 C490 1.258 . S
O499 Co482 2.020 . S
O499 C496 1.256 . S
O500 Co480 2.062 . S
O500 C496 1.255 . S
O501 C481 1.259 . S
O501 Co482 2.021 . S
H502 C493 0.930 . S
H503 C492 0.931 . S
O504 Co480 2.117 . S
O504 C481 1.258 . S
O505 Co480 2.020 . S
O505 C507 1.256 . S
O506 Co482 2.062 . S
O506 C507 1.255 . S
C507 O505 1.256 . S
C507 O506 1.255 . S
H508 C487 0.931 . S
H509 C495 0.931 . S
Co510 N515 2.057 . S
Co510 O527 2.021 . S
Co510 O530 2.062 . S
Co510 O534 2.117 . S
Co510 O535 2.020 . S
C511 O531 1.259 . S
C511 O534 1.258 . S
Co512 N521 2.057 . S
Co512 O528 2.117 . S
Co512 O529 2.020 . S
Co512 O531 2.021 . S
Co512 O536 2.062 . S
C513 N515 1.316 . S
C513 N516 1.347 . S
C513 H518 0.931 . S
C514 N515 1.375 . S
C514 C517 1.350 . S
C514 H519 0.930 . S
N515 Co510 2.057 . S
N515 C513 1.316 . S
N515 C514 1.375 . S
N516 C513 1.347 . S
N516 C517 1.373 . S
C517 C514 1.350 . S
C517 N516 1.373 . S
C517 H538 0.931 . S
H518 C513 0.931 . S
H519 C514 0.930 . S
C520 O527 1.259 . S
C520 O528 1.258 . S
N521 Co512 2.057 . S
N521 C522 1.316 . S
N521 C523 1.375 . S
C522 N521 1.316 . S
C522 N524 1.347 . S
C522 H533 0.931 . S
C523 N521 1.375 . S
C523 C525 1.350 . S
C523 H532 0.930 . S
N524 C522 1.347 . S
N524 C525 1.373 . S
C525 C523 1.350 . S
C525 N524 1.373 . S
C525 H539 0.931 . S
C526 O529 1.256 . S
C526 O530 1.255 . S
O527 Co510 2.021 . S
O527 C520 1.259 . S
O528 Co512 2.117 . S
O528 C520 1.258 . S
O529 Co512 2.020 . S
O529 C526 1.256 . S
O530 Co510 2.062 . S
O530 C526 1.255 . S
O531 C511 1.259 . S
O531 Co512 2.021 . S
H532 C523 0.930 . S
H533 C522 0.931 . S
O534 Co510 2.117 . S
O534 C511 1.258 . S
O535 Co510 2.020 . S
O535 C537 1.256 . S
O536 Co512 2.062 . S
O536 C537 1.255 . S
C537 O535 1.256 . S
C537 O536 1.255 . S
H538 C517 0.931 . S
H539 C525 0.931 . S
Co540 N545 2.057 . S
Co540 O557 2.021 . S
Co540 O560 2.062 . S
Co540 O564 2.117 . S
Co540 O565 2.020 . S
C541 O561 1.259 . S
C541 O564 1.258 . S
Co542 N551 2.057 . S
Co542 O558 2.117 . S
Co542 O559 2.020 . S
Co542 O561 2.021 . S
Co542 O566 2.062 . S
C543 N545 1.316 . S
C543 N546 1.347 . S
C543 H548 0.931 . S
C544 N545 1.375 . S
C544 C547 1.350 . S
C544 H549 0.930 . S
N545 Co540 2.057 . S
N545 C543 1.316 . S
N545 C544 1.375 . S
N546 C543 1.347 . S
N546 C547 1.373 . S
C547 C544 1.350 . S
C547 N546 1.373 . S
C547 H568 0.931 . S
H548 C543 0.931 . S
H549 C544 0.930 . S
C550 O557 1.259 . S
C550 O558 1.258 . S
N551 Co542 2.057 . S
N551 C552 1.316 . S
N551 C553 1.375 . S
C552 N551 1.316 . S
C552 N554 1.347 . S
C552 H563 0.931 . S
C553 N551 1.375 . S
C553 C555 1.350 . S
C553 H562 0.930 . S
N554 C552 1.347 . S
N554 C555 1.373 . S
C555 C553 1.350 . S
C555 N554 1.373 . S
C555 H569 0.931 . S
C556 O559 1.256 . S
C556 O560 1.255 . S
O557 Co540 2.021 . S
O557 C550 1.259 . S
O558 Co542 2.117 . S
O558 C550 1.258 . S
O559 Co542 2.020 . S
O559 C556 1.256 . S
O560 Co540 2.062 . S
O560 C556 1.255 . S
O561 C541 1.259 . S
O561 Co542 2.021 . S
H562 C553 0.930 . S
H563 C552 0.931 . S
O564 Co540 2.117 . S
O564 C541 1.258 . S
O565 Co540 2.020 . S
O565 C567 1.256 . S
O566 Co542 2.062 . S
O566 C567 1.255 . S
C567 O565 1.256 . S
C567 O566 1.255 . S
H568 C547 0.931 . S
H569 C555 0.931 . S
Co570 N575 2.057 . S
Co570 O587 2.021 . S
Co570 O590 2.062 . S
Co570 O594 2.117 . S
Co570 O595 2.020 . S
C571 O591 1.259 . S
C571 O594 1.258 . S
Co572 N581 2.057 . S
Co572 O588 2.117 . S
Co572 O589 2.020 . S
Co572 O591 2.021 . S
Co572 O596 2.062 . S
C573 N575 1.316 . S
C573 N576 1.347 . S
C573 H578 0.931 . S
C574 N575 1.375 . S
C574 C577 1.350 . S
C574 H579 0.930 . S
N575 Co570 2.057 . S
N575 C573 1.316 . S
N575 C574 1.375 . S
N576 C573 1.347 . S
N576 C577 1.373 . S
C577 C574 1.350 . S
C577 N576 1.373 . S
C577 H598 0.931 . S
H578 C573 0.931 . S
H579 C574 0.930 . S
C580 O587 1.259 . S
C580 O588 1.258 . S
N581 Co572 2.057 . S
N581 C582 1.316 . S
N581 C583 1.375 . S
C582 N581 1.316 . S
C582 N584 1.347 . S
C582 H593 0.931 . S
C583 N581 1.375 . S
C583 C585 1.350 . S
C583 H592 0.930 . S
N584 C582 1.347 . S
N584 C585 1.373 . S
C585 C583 1.350 . S
C585 N584 1.373 . S
C585 H599 0.931 . S
C586 O589 1.256 . S
C586 O590 1.255 . S
O587 Co570 2.021 . S
O587 C580 1.259 . S
O588 Co572 2.117 . S
O588 C580 1.258 . S
O589 Co572 2.020 . S
O589 C586 1.256 . S
O590 Co570 2.062 . S
O590 C586 1.255 . S
O591 C571 1.259 . S
O591 Co572 2.021 . S
H592 C583 0.930 . S
H593 C582 0.931 . S
O594 Co570 2.117 . S
O594 C571 1.258 . S
O595 Co570 2.020 . S
O595 C597 1.256 . S
O596 Co572 2.062 . S
O596 C597 1.255 . S
C597 O595 1.256 . S
C597 O596 1.255 . S
H598 C577 0.931 . S
H599 C585 0.931 . S
Co600 N605 2.057 . S
Co600 O617 2.021 . S
Co600 O620 2.062 . S
Co600 O624 2.117 . S
Co600 O625 2.020 . S
C601 O621 1.259 . S
C601 O624 1.258 . S
Co602 N611 2.057 . S
Co602 O618 2.117 . S
Co602 O619 2.020 . S
Co602 O621 2.021 . S
Co602 O626 2.062 . S
C603 N605 1.316 . S
C603 N606 1.347 . S
C603 H608 0.931 . S
C604 N605 1.375 . S
C604 C607 1.350 . S
C604 H609 0.930 . S
N605 Co600 2.057 . S
N605 C603 1.316 . S
N605 C604 1.375 . S
N606 C603 1.347 . S
N606 C607 1.373 . S
C607 C604 1.350 . S
C607 N606 1.373 . S
C607 H628 0.931 . S
H608 C603 0.931 . S
H609 C604 0.930 . S
C610 O617 1.259 . S
C610 O618 1.258 . S
N611 Co602 2.057 . S
N611 C612 1.316 . S
N611 C613 1.375 . S
C612 N611 1.316 . S
C612 N614 1.347 . S
C612 H623 0.931 . S
C613 N611 1.375 . S
C613 C615 1.350 . S
C613 H622 0.930 . S
N614 C612 1.347 . S
N614 C615 1.373 . S
C615 C613 1.350 . S
C615 N614 1.373 . S
C615 H629 0.931 . S
C616 O619 1.256 . S
C616 O620 1.255 . S
O617 Co600 2.021 . S
O617 C610 1.259 . S
O618 Co602 2.117 . S
O618 C610 1.258 . S
O619 Co602 2.020 . S
O619 C616 1.256 . S
O620 Co600 2.062 . S
O620 C616 1.255 . S
O621 C601 1.259 . S
O621 Co602 2.021 . S
H622 C613 0.930 . S
H623 C612 0.931 . S
O624 Co600 2.117 . S
O624 C601 1.258 . S
O625 Co600 2.020 . S
O625 C627 1.256 . S
O626 Co602 2.062 . S
O626 C627 1.255 . S
C627 O625 1.256 . S
C627 O626 1.255 . S
H628 C607 0.931 . S
H629 C615 0.931 . S
Co630 N635 2.057 . S
Co630 O647 2.021 . S
Co630 O650 2.062 . S
Co630 O654 2.117 . S
Co630 O655 2.020 . S
C631 O651 1.259 . S
C631 O654 1.258 . S
Co632 N641 2.057 . S
Co632 O648 2.117 . S
Co632 O649 2.020 . S
Co632 O651 2.021 . S
Co632 O656 2.062 . S
C633 N635 1.316 . S
C633 N636 1.347 . S
C633 H638 0.931 . S
C634 N635 1.375 . S
C634 C637 1.350 . S
C634 H639 0.930 . S
N635 Co630 2.057 . S
N635 C633 1.316 . S
N635 C634 1.375 . S
N636 C633 1.347 . S
N636 C637 1.373 . S
C637 C634 1.350 . S
C637 N636 1.373 . S
C637 H658 0.931 . S
H638 C633 0.931 . S
H639 C634 0.930 . S
C640 O647 1.259 . S
C640 O648 1.258 . S
N641 Co632 2.057 . S
N641 C642 1.316 . S
N641 C643 1.375 . S
C642 N641 1.316 . S
C642 N644 1.347 . S
C642 H653 0.931 . S
C643 N641 1.375 . S
C643 C645 1.350 . S
C643 H652 0.930 . S
N644 C642 1.347 . S
N644 C645 1.373 . S
C645 C643 1.350 . S
C645 N644 1.373 . S
C645 H659 0.931 . S
C646 O649 1.256 . S
C646 O650 1.255 . S
O647 Co630 2.021 . S
O647 C640 1.259 . S
O648 Co632 2.117 . S
O648 C640 1.258 . S
O649 Co632 2.020 . S
O649 C646 1.256 . S
O650 Co630 2.062 . S
O650 C646 1.255 . S
O651 C631 1.259 . S
O651 Co632 2.021 . S
H652 C643 0.930 . S
H653 C642 0.931 . S
O654 Co630 2.117 . S
O654 C631 1.258 . S
O655 Co630 2.020 . S
O655 C657 1.256 . S
O656 Co632 2.062 . S
O656 C657 1.255 . S
C657 O655 1.256 . S
C657 O656 1.255 . S
H658 C637 0.931 . S
H659 C645 0.931 . S
Co660 N665 2.057 . S
Co660 O677 2.021 . S
Co660 O680 2.062 . S
Co660 O684 2.117 . S
Co660 O685 2.020 . S
C661 O681 1.259 . S
C661 O684 1.258 . S
Co662 N671 2.057 . S
Co662 O678 2.117 . S
Co662 O679 2.020 . S
Co662 O681 2.021 . S
Co662 O686 2.062 . S
C663 N665 1.316 . S
C663 N666 1.347 . S
C663 H668 0.931 . S
C664 N665 1.375 . S
C664 C667 1.350 . S
C664 H669 0.930 . S
N665 Co660 2.057 . S
N665 C663 1.316 . S
N665 C664 1.375 . S
N666 C663 1.347 . S
N666 C667 1.373 . S
C667 C664 1.350 . S
C667 N666 1.373 . S
C667 H688 0.931 . S
H668 C663 0.931 . S
H669 C664 0.930 . S
C670 O677 1.259 . S
C670 O678 1.258 . S
N671 Co662 2.057 . S
N671 C672 1.316 . S
N671 C673 1.375 . S
C672 N671 1.316 . S
C672 N674 1.347 . S
C672 H683 0.931 . S
C673 N671 1.375 . S
C673 C675 1.350 . S
C673 H682 0.930 . S
N674 C672 1.347 . S
N674 C675 1.373 . S
C675 C673 1.350 . S
C675 N674 1.373 . S
C675 H689 0.931 . S
C676 O679 1.256 . S
C676 O680 1.255 . S
O677 Co660 2.021 . S
O677 C670 1.259 . S
O678 Co662 2.117 . S
O678 C670 1.258 . S
O679 Co662 2.020 . S
O679 C676 1.256 . S
O680 Co660 2.062 . S
O680 C676 1.255 . S
O681 C661 1.259 . S
O681 Co662 2.021 . S
H682 C673 0.930 . S
H683 C672 0.931 . S
O684 Co660 2.117 . S
O684 C661 1.258 . S
O685 Co660 2.020 . S
O685 C687 1.256 . S
O686 Co662 2.062 . S
O686 C687 1.255 . S
C687 O685 1.256 . S
C687 O686 1.255 . S
H688 C667 0.931 . S
H689 C675 0.931 . S
Co690 N695 2.057 . S
Co690 O707 2.021 . S
Co690 O710 2.062 . S
Co690 O714 2.117 . S
Co690 O715 2.020 . S
C691 O711 1.259 . S
C691 O714 1.258 . S
Co692 N701 2.057 . S
Co692 O708 2.117 . S
Co692 O709 2.020 . S
Co692 O711 2.021 . S
Co692 O716 2.062 . S
C693 N695 1.316 . S
C693 N696 1.347 . S
C693 H698 0.931 . S
C694 N695 1.375 . S
C694 C697 1.350 . S
C694 H699 0.930 . S
N695 Co690 2.057 . S
N695 C693 1.316 . S
N695 C694 1.375 . S
N696 C693 1.347 . S
N696 C697 1.373 . S
C697 C694 1.350 . S
C697 N696 1.373 . S
C697 H718 0.931 . S
H698 C693 0.931 . S
H699 C694 0.930 . S
C700 O707 1.259 . S
C700 O708 1.258 . S
N701 Co692 2.057 . S
N701 C702 1.316 . S
N701 C703 1.375 . S
C702 N701 1.316 . S
C702 N704 1.347 . S
C702 H713 0.931 . S
C703 N701 1.375 . S
C703 C705 1.350 . S
C703 H712 0.930 . S
N704 C702 1.347 . S
N704 C705 1.373 . S
C705 C703 1.350 . S
C705 N704 1.373 . S
C705 H719 0.931 . S
C706 O709 1.256 . S
C706 O710 1.255 . S
O707 Co690 2.021 . S
O707 C700 1.259 . S
O708 Co692 2.117 . S
O708 C700 1.258 . S
O709 Co692 2.020 . S
O709 C706 1.256 . S
O710 Co690 2.062 . S
O710 C706 1.255 . S
O711 C691 1.259 . S
O711 Co692 2.021 . S
H712 C703 0.930 . S
H713 C702 0.931 . S
O714 Co690 2.117 . S
O714 C691 1.258 . S
O715 Co690 2.020 . S
O715 C717 1.256 . S
O716 Co692 2.062 . S
O716 C717 1.255 . S
C717 O715 1.256 . S
C717 O716 1.255 . S
H718 C697 0.931 . S
H719 C705 0.931 . S
Co720 N725 2.057 . S
Co720 O737 2.021 . S
Co720 O740 2.062 . S
Co720 O744 2.117 . S
Co720 O745 2.020 . S
C721 O741 1.259 . S
C721 O744 1.258 1_565 S
Co722 N731 2.057 . S
Co722 O738 2.117 . S
Co722 O739 2.020 . S
Co722 O741 2.021 . S
Co722 O746 2.062 . S
C723 N725 1.316 . S
C723 N726 1.347 . S
C723 H728 0.931 . S
C724 N725 1.375 . S
C724 C727 1.350 . S
C724 H729 0.930 . S
N725 Co720 2.057 . S
N725 C723 1.316 . S
N725 C724 1.375 . S
N726 C723 1.347 . S
N726 C727 1.373 . S
C727 C724 1.350 . S
C727 N726 1.373 . S
C727 H748 0.931 . S
H728 C723 0.931 . S
H729 C724 0.930 . S
C730 O737 1.259 . S
C730 O738 1.258 1_545 S
N731 Co722 2.057 . S
N731 C732 1.316 . S
N731 C733 1.375 . S
C732 N731 1.316 . S
C732 N734 1.347 . S
C732 H743 0.931 . S
C733 N731 1.375 . S
C733 C735 1.350 . S
C733 H742 0.930 . S
N734 C732 1.347 . S
N734 C735 1.373 . S
C735 C733 1.350 . S
C735 N734 1.373 . S
C735 H749 0.931 . S
C736 O739 1.274 . S
C736 O740 1.236 1_565 S
O737 Co720 2.021 . S
O737 C730 1.259 . S
O738 Co722 2.117 . S
O738 C730 1.258 1_565 S
O739 Co722 2.020 . S
O739 C736 1.274 . S
O740 Co720 2.062 . S
O740 C736 1.236 1_545 S
O741 C721 1.259 . S
O741 Co722 2.021 . S
H742 C733 0.930 . S
H743 C732 0.931 . S
O744 Co720 2.117 . S
O744 C721 1.258 1_545 S
O745 Co720 2.020 . S
O745 C747 1.263 . S
O746 Co722 2.062 . S
O746 C747 1.248 1_565 S
C747 O745 1.263 . S
C747 O746 1.248 1_545 S
H748 C727 0.931 . S
H749 C735 0.931 . S
Co750 N755 2.057 . S
Co750 O767 2.021 . S
Co750 O770 2.062 . S
Co750 O774 2.117 . S
Co750 O775 2.020 . S
C751 O771 1.259 . S
C751 O774 1.258 . S
Co752 N761 2.057 . S
Co752 O768 2.117 . S
Co752 O769 2.020 . S
Co752 O771 2.021 . S
Co752 O776 2.062 . S
C753 N755 1.316 . S
C753 N756 1.347 . S
C753 H758 0.931 . S
C754 N755 1.375 . S
C754 C757 1.350 . S
C754 H759 0.930 . S
N755 Co750 2.057 . S
N755 C753 1.316 . S
N755 C754 1.375 . S
N756 C753 1.347 . S
N756 C757 1.373 . S
C757 C754 1.350 . S
C757 N756 1.373 . S
C757 H778 0.931 . S
H758 C753 0.931 . S
H759 C754 0.930 . S
C760 O767 1.259 . S
C760 O768 1.258 . S
N761 Co752 2.057 . S
N761 C762 1.316 . S
N761 C763 1.375 . S
C762 N761 1.316 . S
C762 N764 1.347 . S
C762 H773 0.931 . S
C763 N761 1.375 . S
C763 C765 1.350 . S
C763 H772 0.930 . S
N764 C762 1.347 . S
N764 C765 1.373 . S
C765 C763 1.350 . S
C765 N764 1.373 . S
C765 H779 0.931 . S
C766 O769 1.256 . S
C766 O770 1.255 . S
O767 Co750 2.021 . S
O767 C760 1.259 . S
O768 Co752 2.117 . S
O768 C760 1.258 . S
O769 Co752 2.020 . S
O769 C766 1.256 . S
O770 Co750 2.062 . S
O770 C766 1.255 . S
O771 C751 1.259 . S
O771 Co752 2.021 . S
H772 C763 0.930 . S
H773 C762 0.931 . S
O774 Co750 2.117 . S
O774 C751 1.258 . S
O775 Co750 2.020 . S
O775 C777 1.256 . S
O776 Co752 2.062 . S
O776 C777 1.255 . S
C777 O775 1.256 . S
C777 O776 1.255 . S
H778 C757 0.931 . S
H779 C765 0.931 . S
Co780 N785 2.057 . S
Co780 O797 2.021 . S
Co780 O800 2.062 . S
Co780 O804 2.117 . S
Co780 O805 2.020 . S
C781 O801 1.259 . S
C781 O804 1.258 . S
Co782 N791 2.057 . S
Co782 O798 2.117 . S
Co782 O799 2.020 . S
Co782 O801 2.021 . S
Co782 O806 2.062 . S
C783 N785 1.316 . S
C783 N786 1.347 . S
C783 H788 0.931 . S
C784 N785 1.375 . S
C784 C787 1.350 . S
C784 H789 0.930 . S
N785 Co780 2.057 . S
N785 C783 1.316 . S
N785 C784 1.375 . S
N786 C783 1.347 . S
N786 C787 1.373 . S
C787 C784 1.350 . S
C787 N786 1.373 . S
C787 H808 0.931 . S
H788 C783 0.931 . S
H789 C784 0.930 . S
C790 O797 1.259 . S
C790 O798 1.258 . S
N791 Co782 2.057 . S
N791 C792 1.316 . S
N791 C793 1.375 . S
C792 N791 1.316 . S
C792 N794 1.347 . S
C792 H803 0.931 . S
C793 N791 1.375 . S
C793 C795 1.350 . S
C793 H802 0.930 . S
N794 C792 1.347 . S
N794 C795 1.373 . S
C795 C793 1.350 . S
C795 N794 1.373 . S
C795 H809 0.931 . S
C796 O799 1.256 . S
C796 O800 1.255 . S
O797 Co780 2.021 . S
O797 C790 1.259 . S
O798 Co782 2.117 . S
O798 C790 1.258 . S
O799 Co782 2.020 . S
O799 C796 1.256 . S
O800 Co780 2.062 . S
O800 C796 1.255 . S
O801 C781 1.259 . S
O801 Co782 2.021 . S
H802 C793 0.930 . S
H803 C792 0.931 . S
O804 Co780 2.117 . S
O804 C781 1.258 . S
O805 Co780 2.020 . S
O805 C807 1.256 . S
O806 Co782 2.062 . S
O806 C807 1.255 . S
C807 O805 1.256 . S
C807 O806 1.255 . S
H808 C787 0.931 . S
H809 C795 0.931 . S
Co810 N815 2.057 . S
Co810 O827 2.021 . S
Co810 O830 2.062 . S
Co810 O834 2.117 . S
Co810 O835 2.020 . S
C811 O831 1.259 . S
C811 O834 1.258 1_565 S
Co812 N821 2.057 . S
Co812 O828 2.117 . S
Co812 O829 2.020 . S
Co812 O831 2.021 . S
Co812 O836 2.062 . S
C813 N815 1.316 . S
C813 N816 1.347 . S
C813 H818 0.931 . S
C814 N815 1.375 . S
C814 C817 1.350 . S
C814 H819 0.930 . S
N815 Co810 2.057 . S
N815 C813 1.316 . S
N815 C814 1.375 . S
N816 C813 1.347 . S
N816 C817 1.373 . S
C817 C814 1.350 . S
C817 N816 1.373 . S
C817 H838 0.931 . S
H818 C813 0.931 . S
H819 C814 0.930 . S
C820 O827 1.259 . S
C820 O828 1.258 1_545 S
N821 Co812 2.057 . S
N821 C822 1.316 . S
N821 C823 1.375 . S
C822 N821 1.316 . S
C822 N824 1.347 . S
C822 H833 0.931 . S
C823 N821 1.375 . S
C823 C825 1.350 . S
C823 H832 0.930 . S
N824 C822 1.347 . S
N824 C825 1.373 . S
C825 C823 1.350 . S
C825 N824 1.373 . S
C825 H839 0.931 . S
C826 O829 1.274 . S
C826 O830 1.236 1_565 S
O827 Co810 2.021 . S
O827 C820 1.259 . S
O828 Co812 2.117 . S
O828 C820 1.258 1_565 S
O829 Co812 2.020 . S
O829 C826 1.274 . S
O830 Co810 2.062 . S
O830 C826 1.236 1_545 S
O831 C811 1.259 . S
O831 Co812 2.021 . S
H832 C823 0.930 . S
H833 C822 0.931 . S
O834 Co810 2.117 . S
O834 C811 1.258 1_545 S
O835 Co810 2.020 . S
O835 C837 1.263 . S
O836 Co812 2.062 . S
O836 C837 1.248 1_565 S
C837 O835 1.263 . S
C837 O836 1.248 1_545 S
H838 C817 0.931 . S
H839 C825 0.931 . S
Co840 N845 2.057 . S
Co840 O857 2.021 . S
Co840 O860 2.062 . S
Co840 O864 2.117 . S
Co840 O865 2.020 . S
C841 O861 1.259 . S
C841 O864 1.258 1_565 S
Co842 N851 2.057 . S
Co842 O858 2.117 . S
Co842 O859 2.020 . S
Co842 O861 2.021 . S
Co842 O866 2.062 . S
C843 N845 1.316 . S
C843 N846 1.347 . S
C843 H848 0.931 . S
C844 N845 1.375 . S
C844 C847 1.350 . S
C844 H849 0.930 . S
N845 Co840 2.057 . S
N845 C843 1.316 . S
N845 C844 1.375 . S
N846 C843 1.347 . S
N846 C847 1.373 . S
C847 C844 1.350 . S
C847 N846 1.373 . S
C847 H868 0.931 . S
H848 C843 0.931 . S
H849 C844 0.930 . S
C850 O857 1.259 . S
C850 O858 1.258 1_545 S
N851 Co842 2.057 . S
N851 C852 1.316 . S
N851 C853 1.375 . S
C852 N851 1.316 . S
C852 N854 1.347 . S
C852 H863 0.931 . S
C853 N851 1.375 . S
C853 C855 1.350 . S
C853 H862 0.930 . S
N854 C852 1.347 . S
N854 C855 1.373 . S
C855 C853 1.350 . S
C855 N854 1.373 . S
C855 H869 0.931 . S
C856 O859 1.263 . S
C856 O860 1.248 1_565 S
O857 Co840 2.021 . S
O857 C850 1.259 . S
O858 Co842 2.117 . S
O858 C850 1.258 1_565 S
O859 Co842 2.020 . S
O859 C856 1.263 . S
O860 Co840 2.062 . S
O860 C856 1.248 1_545 S
O861 C841 1.259 . S
O861 Co842 2.021 . S
H862 C853 0.930 . S
H863 C852 0.931 . S
O864 Co840 2.117 . S
O864 C841 1.258 1_545 S
O865 Co840 2.020 . S
O865 C867 1.274 . S
O866 Co842 2.062 . S
O866 C867 1.236 1_565 S
C867 O865 1.274 . S
C867 O866 1.236 1_545 S
H868 C847 0.931 . S
H869 C855 0.931 . S
Co870 N875 2.057 . S
Co870 O887 2.021 . S
Co870 O890 2.062 . S
Co870 O894 2.117 . S
Co870 O895 2.020 . S
C871 O891 1.259 . S
C871 O894 1.258 . S
Co872 N881 2.057 . S
Co872 O888 2.117 . S
Co872 O889 2.020 . S
Co872 O891 2.021 . S
Co872 O896 2.062 . S
C873 N875 1.316 . S
C873 N876 1.347 . S
C873 H878 0.931 . S
C874 N875 1.375 . S
C874 C877 1.350 . S
C874 H879 0.930 . S
N875 Co870 2.057 . S
N875 C873 1.316 . S
N875 C874 1.375 . S
N876 C873 1.347 . S
N876 C877 1.373 . S
C877 C874 1.350 . S
C877 N876 1.373 . S
C877 H898 0.931 . S
H878 C873 0.931 . S
H879 C874 0.930 . S
C880 O887 1.259 . S
C880 O888 1.258 . S
N881 Co872 2.057 . S
N881 C882 1.316 . S
N881 C883 1.375 . S
C882 N881 1.316 . S
C882 N884 1.347 . S
C882 H893 0.931 . S
C883 N881 1.375 . S
C883 C885 1.350 . S
C883 H892 0.930 . S
N884 C882 1.347 . S
N884 C885 1.373 . S
C885 C883 1.350 . S
C885 N884 1.373 . S
C885 H899 0.931 . S
C886 O889 1.256 . S
C886 O890 1.255 . S
O887 Co870 2.021 . S
O887 C880 1.259 . S
O888 Co872 2.117 . S
O888 C880 1.258 . S
O889 Co872 2.020 . S
O889 C886 1.256 . S
O890 Co870 2.062 . S
O890 C886 1.255 . S
O891 C871 1.259 . S
O891 Co872 2.021 . S
H892 C883 0.930 . S
H893 C882 0.931 . S
O894 Co870 2.117 . S
O894 C871 1.258 . S
O895 Co870 2.020 . S
O895 C897 1.256 . S
O896 Co872 2.062 . S
O896 C897 1.255 . S
C897 O895 1.256 . S
C897 O896 1.255 . S
H898 C877 0.931 . S
H899 C885 0.931 . S
Co900 N905 2.057 . S
Co900 O917 2.021 . S
Co900 O920 2.062 . S
Co900 O924 2.117 . S
Co900 O925 2.020 . S
C901 O921 1.259 . S
C901 O924 1.258 . S
Co902 N911 2.057 . S
Co902 O918 2.117 . S
Co902 O919 2.020 . S
Co902 O921 2.021 . S
Co902 O926 2.062 . S
C903 N905 1.316 . S
C903 N906 1.347 . S
C903 H908 0.931 . S
C904 N905 1.375 . S
C904 C907 1.350 . S
C904 H909 0.930 . S
N905 Co900 2.057 . S
N905 C903 1.316 . S
N905 C904 1.375 . S
N906 C903 1.347 . S
N906 C907 1.373 . S
C907 C904 1.350 . S
C907 N906 1.373 . S
C907 H928 0.931 . S
H908 C903 0.931 . S
H909 C904 0.930 . S
C910 O917 1.259 . S
C910 O918 1.258 . S
N911 Co902 2.057 . S
N911 C912 1.316 . S
N911 C913 1.375 . S
C912 N911 1.316 . S
C912 N914 1.347 . S
C912 H923 0.931 . S
C913 N911 1.375 . S
C913 C915 1.350 . S
C913 H922 0.930 . S
N914 C912 1.347 . S
N914 C915 1.373 . S
C915 C913 1.350 . S
C915 N914 1.373 . S
C915 H929 0.931 . S
C916 O919 1.256 . S
C916 O920 1.255 . S
O917 Co900 2.021 . S
O917 C910 1.259 . S
O918 Co902 2.117 . S
O918 C910 1.258 . S
O919 Co902 2.020 . S
O919 C916 1.256 . S
O920 Co900 2.062 . S
O920 C916 1.255 . S
O921 C901 1.259 . S
O921 Co902 2.021 . S
H922 C913 0.930 . S
H923 C912 0.931 . S
O924 Co900 2.117 . S
O924 C901 1.258 . S
O925 Co900 2.020 . S
O925 C927 1.256 . S
O926 Co902 2.062 . S
O926 C927 1.255 . S
C927 O925 1.256 . S
C927 O926 1.255 . S
H928 C907 0.931 . S
H929 C915 0.931 . S
Co930 N935 2.057 . S
Co930 O947 2.021 . S
Co930 O950 2.062 . S
Co930 O954 2.117 . S
Co930 O955 2.020 . S
C931 O951 1.259 . S
C931 O954 1.258 1_565 S
Co932 N941 2.057 . S
Co932 O948 2.117 . S
Co932 O949 2.020 . S
Co932 O951 2.021 . S
Co932 O956 2.062 . S
C933 N935 1.316 . S
C933 N936 1.347 . S
C933 H938 0.931 . S
C934 N935 1.375 . S
C934 C937 1.350 . S
C934 H939 0.930 . S
N935 Co930 2.057 . S
N935 C933 1.316 . S
N935 C934 1.375 . S
N936 C933 1.347 . S
N936 C937 1.373 . S
C937 C934 1.350 . S
C937 N936 1.373 . S
C937 H958 0.931 . S
H938 C933 0.931 . S
H939 C934 0.930 . S
C940 O947 1.259 . S
C940 O948 1.258 1_545 S
N941 Co932 2.057 . S
N941 C942 1.316 . S
N941 C943 1.375 . S
C942 N941 1.316 . S
C942 N944 1.347 . S
C942 H953 0.931 . S
C943 N941 1.375 . S
C943 C945 1.350 . S
C943 H952 0.930 . S
N944 C942 1.347 . S
N944 C945 1.373 . S
C945 C943 1.350 . S
C945 N944 1.373 . S
C945 H959 0.931 . S
C946 O949 1.263 . S
C946 O950 1.248 1_565 S
O947 Co930 2.021 . S
O947 C940 1.259 . S
O948 Co932 2.117 . S
O948 C940 1.258 1_565 S
O949 Co932 2.020 . S
O949 C946 1.263 . S
O950 Co930 2.062 . S
O950 C946 1.248 1_545 S
O951 C931 1.259 . S
O951 Co932 2.021 . S
H952 C943 0.930 . S
H953 C942 0.931 . S
O954 Co930 2.117 . S
O954 C931 1.258 1_545 S
O955 Co930 2.020 . S
O955 C957 1.274 . S
O956 Co932 2.062 . S
O956 C957 1.236 1_565 S
C957 O955 1.274 . S
C957 O956 1.236 1_545 S
H958 C937 0.931 . S
H959 C945 0.931 . S
C960 C961 1.387 . S
C960 H964 0.950 . S
C960 C969 1.390 . S
C961 C960 1.387 . S
C961 C963 1.387 . S
H962 C969 0.950 . S
C963 C961 1.387 . S
C963 C965 1.390 . S
C963 H967 0.950 . S
H964 C960 0.950 . S
C965 C963 1.390 . S
C965 C966 1.387 . S
C965 H968 0.950 . S
C966 C965 1.387 . S
C966 C969 1.387 . S
H967 C963 0.950 . S
H968 C965 0.950 . S
C969 C960 1.390 . S
C969 H962 0.950 . S
C969 C966 1.387 . S
C970 C971 1.387 . S
C970 H974 0.950 . S
C970 C979 1.390 . S
C971 C970 1.387 . S
C971 C973 1.387 . S
H972 C979 0.950 . S
C973 C971 1.387 . S
C973 C975 1.390 . S
C973 H977 0.950 . S
H974 C970 0.950 . S
C975 C973 1.390 . S
C975 C976 1.387 . S
C975 H978 0.950 . S
C976 C975 1.387 . S
C976 C979 1.387 . S
H977 C973 0.950 . S
H978 C975 0.950 . S
C979 C970 1.390 . S
C979 H972 0.950 . S
C979 C976 1.387 . S
C980 C981 1.387 . S
C980 H984 0.950 . S
C980 C989 1.390 . S
C981 C980 1.387 . S
C981 C983 1.387 . S
H982 C989 0.950 . S
C983 C981 1.387 . S
C983 C985 1.390 . S
C983 H987 0.950 . S
H984 C980 0.950 . S
C985 C983 1.390 . S
C985 C986 1.387 . S
C985 H988 0.950 . S
C986 C985 1.387 . S
C986 C989 1.387 . S
H987 C983 0.950 . S
H988 C985 0.950 . S
C989 C980 1.390 . S
C989 H982 0.950 . S
C989 C986 1.387 . S
C990 C991 1.387 . S
C990 H994 0.950 . S
C990 C999 1.390 . S
C991 C990 1.387 . S
C991 C993 1.387 . S
H992 C999 0.950 . S
C993 C991 1.387 . S
C993 C995 1.390 . S
C993 H997 0.950 . S
H994 C990 0.950 . S
C995 C993 1.390 . S
C995 C996 1.387 . S
C995 H998 0.950 . S
C996 C995 1.387 . S
C996 C999 1.387 . S
H997 C993 0.950 . S
H998 C995 0.950 . S
C999 C990 1.390 . S
C999 H992 0.950 . S
C999 C996 1.387 . S
C1000 C1001 1.387 . S
C1000 H1004 0.950 . S
C1000 C1009 1.390 . S
C1001 C1000 1.387 . S
C1001 C1003 1.387 . S
H1002 C1009 0.950 . S
C1003 C1001 1.387 . S
C1003 C1005 1.390 . S
C1003 H1007 0.950 . S
H1004 C1000 0.950 . S
C1005 C1003 1.390 . S
C1005 C1006 1.387 . S
C1005 H1008 0.950 . S
C1006 C1005 1.387 . S
C1006 C1009 1.387 . S
H1007 C1003 0.950 . S
H1008 C1005 0.950 . S
C1009 C1000 1.390 . S
C1009 H1002 0.950 . S
C1009 C1006 1.387 . S
C1010 C1011 1.387 . S
C1010 H1014 0.950 . S
C1010 C1019 1.390 . S
C1011 C1010 1.387 . S
C1011 C1013 1.387 . S
H1012 C1019 0.950 . S
C1013 C1011 1.387 . S
C1013 C1015 1.390 . S
C1013 H1017 0.950 . S
H1014 C1010 0.950 . S
C1015 C1013 1.390 . S
C1015 C1016 1.387 . S
C1015 H1018 0.950 . S
C1016 C1015 1.387 . S
C1016 C1019 1.387 . S
H1017 C1013 0.950 . S
H1018 C1015 0.950 . S
C1019 C1010 1.390 . S
C1019 H1012 0.950 . S
C1019 C1016 1.387 . S
C1020 C1021 1.387 . S
C1020 H1024 0.950 . S
C1020 C1029 1.390 . S
C1021 C1020 1.387 . S
C1021 C1023 1.387 . S
H1022 C1029 0.950 . S
C1023 C1021 1.387 . S
C1023 C1025 1.390 . S
C1023 H1027 0.950 . S
H1024 C1020 0.950 . S
C1025 C1023 1.390 . S
C1025 C1026 1.387 . S
C1025 H1028 0.950 . S
C1026 C1025 1.387 . S
C1026 C1029 1.387 . S
H1027 C1023 0.950 . S
H1028 C1025 0.950 . S
C1029 C1020 1.390 . S
C1029 H1022 0.950 . S
C1029 C1026 1.387 . S
C1030 C1031 1.387 . S
C1030 H1034 0.950 . S
C1030 C1039 1.390 . S
C1031 C1030 1.387 . S
C1031 C1033 1.387 . S
H1032 C1039 0.950 . S
C1033 C1031 1.387 . S
C1033 C1035 1.390 . S
C1033 H1037 0.950 . S
H1034 C1030 0.950 . S
C1035 C1033 1.390 . S
C1035 C1036 1.387 . S
C1035 H1038 0.950 . S
C1036 C1035 1.387 . S
C1036 C1039 1.387 . S
H1037 C1033 0.950 . S
H1038 C1035 0.950 . S
C1039 C1030 1.390 . S
C1039 H1032 0.950 . S
C1039 C1036 1.387 . S
C1040 C1041 1.387 . S
C1040 H1044 0.950 . S
C1040 C1049 1.390 . S
C1041 C1040 1.387 . S
C1041 C1043 1.387 . S
H1042 C1049 0.950 . S
C1043 C1041 1.387 . S
C1043 C1045 1.390 . S
C1043 H1047 0.950 . S
H1044 C1040 0.950 . S
C1045 C1043 1.390 . S
C1045 C1046 1.387 . S
C1045 H1048 0.950 . S
C1046 C1045 1.387 . S
C1046 C1049 1.387 . S
H1047 C1043 0.950 . S
H1048 C1045 0.950 . S
C1049 C1040 1.390 . S
C1049 H1042 0.950 . S
C1049 C1046 1.387 . S
C1050 C1051 1.387 . S
C1050 H1054 0.950 . S
C1050 C1059 1.390 . S
C1051 C1050 1.387 . S
C1051 C1053 1.387 . S
H1052 C1059 0.950 . S
C1053 C1051 1.387 . S
C1053 C1055 1.390 . S
C1053 H1057 0.950 . S
H1054 C1050 0.950 . S
C1055 C1053 1.390 . S
C1055 C1056 1.387 . S
C1055 H1058 0.950 . S
C1056 C1055 1.387 . S
C1056 C1059 1.387 . S
H1057 C1053 0.950 . S
H1058 C1055 0.950 . S
C1059 C1050 1.390 . S
C1059 H1052 0.950 . S
C1059 C1056 1.387 . S
C1060 C1061 1.387 . S
C1060 H1064 0.950 . S
C1060 C1069 1.390 . S
C1061 C1060 1.387 . S
C1061 C1063 1.387 . S
H1062 C1069 0.950 . S
C1063 C1061 1.387 . S
C1063 C1065 1.390 . S
C1063 H1067 0.950 . S
H1064 C1060 0.950 . S
C1065 C1063 1.390 . S
C1065 C1066 1.387 . S
C1065 H1068 0.950 . S
C1066 C1065 1.387 . S
C1066 C1069 1.387 . S
H1067 C1063 0.950 . S
H1068 C1065 0.950 . S
C1069 C1060 1.390 . S
C1069 H1062 0.950 . S
C1069 C1066 1.387 . S
C1070 C1071 1.387 . S
C1070 H1074 0.950 . S
C1070 C1079 1.390 . S
C1071 C1070 1.387 . S
C1071 C1073 1.387 . S
H1072 C1079 0.950 . S
C1073 C1071 1.387 . S
C1073 C1075 1.390 . S
C1073 H1077 0.950 . S
H1074 C1070 0.950 . S
C1075 C1073 1.390 . S
C1075 C1076 1.387 . S
C1075 H1078 0.950 . S
C1076 C1075 1.387 . S
C1076 C1079 1.387 . S
H1077 C1073 0.950 . S
H1078 C1075 0.950 . S
C1079 C1070 1.390 . S
C1079 H1072 0.950 . S
C1079 C1076 1.387 . S
C1080 C1081 1.387 . S
C1080 H1084 0.950 . S
C1080 C1089 1.390 . S
C1081 C1080 1.387 . S
C1081 C1083 1.387 . S
H1082 C1089 0.950 . S
C1083 C1081 1.387 . S
C1083 C1085 1.390 . S
C1083 H1087 0.950 . S
H1084 C1080 0.950 . S
C1085 C1083 1.390 . S
C1085 C1086 1.387 . S
C1085 H1088 0.950 . S
C1086 C1085 1.387 . S
C1086 C1089 1.387 . S
H1087 C1083 0.950 . S
H1088 C1085 0.950 . S
C1089 C1080 1.390 . S
C1089 H1082 0.950 . S
C1089 C1086 1.387 . S
C1090 C1091 1.387 . S
C1090 H1094 0.950 . S
C1090 C1099 1.390 . S
C1091 C1090 1.387 . S
C1091 C1093 1.387 . S
H1092 C1099 0.950 . S
C1093 C1091 1.387 . S
C1093 C1095 1.390 . S
C1093 H1097 0.950 . S
H1094 C1090 0.950 . S
C1095 C1093 1.390 . S
C1095 C1096 1.387 . S
C1095 H1098 0.950 . S
C1096 C1095 1.387 . S
C1096 C1099 1.387 . S
H1097 C1093 0.950 . S
H1098 C1095 0.950 . S
C1099 C1090 1.390 . S
C1099 H1092 0.950 . S
C1099 C1096 1.387 . S
C1100 C1101 1.387 . S
C1100 H1104 0.950 . S
C1100 C1109 1.390 . S
C1101 C1100 1.387 . S
C1101 C1103 1.387 . S
H1102 C1109 0.950 . S
C1103 C1101 1.387 . S
C1103 C1105 1.390 . S
C1103 H1107 0.950 . S
H1104 C1100 0.950 . S
C1105 C1103 1.390 . S
C1105 C1106 1.387 . S
C1105 H1108 0.950 . S
C1106 C1105 1.387 . S
C1106 C1109 1.387 . S
H1107 C1103 0.950 . S
H1108 C1105 0.950 . S
C1109 C1100 1.390 . S
C1109 H1102 0.950 . S
C1109 C1106 1.387 . S
C1110 C1111 1.387 . S
C1110 H1114 0.950 . S
C1110 C1119 1.390 . S
C1111 C1110 1.387 . S
C1111 C1113 1.387 . S
H1112 C1119 0.950 . S
C1113 C1111 1.387 . S
C1113 C1115 1.390 . S
C1113 H1117 0.950 . S
H1114 C1110 0.950 . S
C1115 C1113 1.390 . S
C1115 C1116 1.387 . S
C1115 H1118 0.950 . S
C1116 C1115 1.387 . S
C1116 C1119 1.387 . S
H1117 C1113 0.950 . S
H1118 C1115 0.950 . S
C1119 C1110 1.390 . S
C1119 H1112 0.950 . S
C1119 C1116 1.387 . S
C1120 C1121 1.387 . S
C1120 H1124 0.950 . S
C1120 C1129 1.390 . S
C1121 C1120 1.387 . S
C1121 C1123 1.387 . S
H1122 C1129 0.950 . S
C1123 C1121 1.387 . S
C1123 C1125 1.390 . S
C1123 H1127 0.950 . S
H1124 C1120 0.950 . S
C1125 C1123 1.390 . S
C1125 C1126 1.387 . S
C1125 H1128 0.950 . S
C1126 C1125 1.387 . S
C1126 C1129 1.387 . S
H1127 C1123 0.950 . S
H1128 C1125 0.950 . S
C1129 C1120 1.390 . S
C1129 H1122 0.950 . S
C1129 C1126 1.387 . S
C1130 C1131 1.387 . S
C1130 H1134 0.950 . S
C1130 C1139 1.390 . S
C1131 C1130 1.387 . S
C1131 C1133 1.387 . S
H1132 C1139 0.950 . S
C1133 C1131 1.387 . S
C1133 C1135 1.390 . S
C1133 H1137 0.950 . S
H1134 C1130 0.950 . S
C1135 C1133 1.390 . S
C1135 C1136 1.387 . S
C1135 H1138 0.950 . S
C1136 C1135 1.387 . S
C1136 C1139 1.387 . S
H1137 C1133 0.950 . S
H1138 C1135 0.950 . S
C1139 C1130 1.390 . S
C1139 H1132 0.950 . S
C1139 C1136 1.387 . S
C1140 C1141 1.387 . S
C1140 H1144 0.950 . S
C1140 C1149 1.390 . S
C1141 C1140 1.387 . S
C1141 C1143 1.387 . S
H1142 C1149 0.950 . S
C1143 C1141 1.387 . S
C1143 C1145 1.390 . S
C1143 H1147 0.950 . S
H1144 C1140 0.950 . S
C1145 C1143 1.390 . S
C1145 C1146 1.387 . S
C1145 H1148 0.950 . S
C1146 C1145 1.387 . S
C1146 C1149 1.387 . S
H1147 C1143 0.950 . S
H1148 C1145 0.950 . S
C1149 C1140 1.390 . S
C1149 H1142 0.950 . S
C1149 C1146 1.387 . S
C1150 C1151 1.387 . S
C1150 H1154 0.950 . S
C1150 C1159 1.390 . S
C1151 C1150 1.387 . S
C1151 C1153 1.387 . S
H1152 C1159 0.950 . S
C1153 C1151 1.387 . S
C1153 C1155 1.390 . S
C1153 H1157 0.950 . S
H1154 C1150 0.950 . S
C1155 C1153 1.390 . S
C1155 C1156 1.387 . S
C1155 H1158 0.950 . S
C1156 C1155 1.387 . S
C1156 C1159 1.387 . S
H1157 C1153 0.950 . S
H1158 C1155 0.950 . S
C1159 C1150 1.390 . S
C1159 H1152 0.950 . S
C1159 C1156 1.387 . S
C1160 C1161 1.348 1_565 S
C1160 H1164 0.950 . S
C1160 C1169 1.390 . S
C1161 C1160 1.348 1_545 S
C1161 C1163 1.427 . S
H1162 C1169 0.950 . S
C1163 C1161 1.427 . S
C1163 C1165 1.390 . S
C1163 H1167 0.950 . S
H1164 C1160 0.950 . S
C1165 C1163 1.390 . S
C1165 C1166 1.427 . S
C1165 H1168 0.950 . S
C1166 C1165 1.427 . S
C1166 C1169 1.348 1_545 S
H1167 C1163 0.950 . S
H1168 C1165 0.950 . S
C1169 C1160 1.390 . S
C1169 H1162 0.950 . S
C1169 C1166 1.348 1_565 S
C1170 C1171 1.387 . S
C1170 H1174 0.950 . S
C1170 C1179 1.390 . S
C1171 C1170 1.387 . S
C1171 C1173 1.387 . S
H1172 C1179 0.950 . S
C1173 C1171 1.387 . S
C1173 C1175 1.390 . S
C1173 H1177 0.950 . S
H1174 C1170 0.950 . S
C1175 C1173 1.390 . S
C1175 C1176 1.387 . S
C1175 H1178 0.950 . S
C1176 C1175 1.387 . S
C1176 C1179 1.387 . S
H1177 C1173 0.950 . S
H1178 C1175 0.950 . S
C1179 C1170 1.390 . S
C1179 H1172 0.950 . S
C1179 C1176 1.387 . S
C1180 C1181 1.348 1_545 S
C1180 H1184 0.950 . S
C1180 C1189 1.390 . S
C1181 C1180 1.348 1_565 S
C1181 C1183 1.427 . S
H1182 C1189 0.950 . S
C1183 C1181 1.427 . S
C1183 C1185 1.390 . S
C1183 H1187 0.950 . S
H1184 C1180 0.950 . S
C1185 C1183 1.390 . S
C1185 C1186 1.427 . S
C1185 H1188 0.950 . S
C1186 C1185 1.427 . S
C1186 C1189 1.348 1_565 S
H1187 C1183 0.950 . S
H1188 C1185 0.950 . S
C1189 C1180 1.390 . S
C1189 H1182 0.950 . S
C1189 C1186 1.348 1_545 S
C1190 C1191 1.387 . S
C1190 H1194 0.950 . S
C1190 C1199 1.390 . S
C1191 C1190 1.387 . S
C1191 C1193 1.387 . S
H1192 C1199 0.950 . S
C1193 C1191 1.387 . S
C1193 C1195 1.390 . S
C1193 H1197 0.950 . S
H1194 C1190 0.950 . S
C1195 C1193 1.390 . S
C1195 C1196 1.387 . S
C1195 H1198 0.950 . S
C1196 C1195 1.387 . S
C1196 C1199 1.387 . S
H1197 C1193 0.950 . S
H1198 C1195 0.950 . S
C1199 C1190 1.390 . S
C1199 H1192 0.950 . S
C1199 C1196 1.387 . S
C1200 C1201 1.387 . S
C1200 H1204 0.950 . S
C1200 C1209 1.390 . S
C1201 C1200 1.387 . S
C1201 C1203 1.387 . S
H1202 C1209 0.950 . S
C1203 C1201 1.387 . S
C1203 C1205 1.390 . S
C1203 H1207 0.950 . S
H1204 C1200 0.950 . S
C1205 C1203 1.390 . S
C1205 C1206 1.387 . S
C1205 H1208 0.950 . S
C1206 C1205 1.387 . S
C1206 C1209 1.387 . S
H1207 C1203 0.950 . S
H1208 C1205 0.950 . S
C1209 C1200 1.390 . S
C1209 H1202 0.950 . S
C1209 C1206 1.387 . S
C1210 C1211 1.387 . S
C1210 H1214 0.950 . S
C1210 C1219 1.390 . S
C1211 C1210 1.387 . S
C1211 C1213 1.387 . S
H1212 C1219 0.950 . S
C1213 C1211 1.387 . S
C1213 C1215 1.390 . S
C1213 H1217 0.950 . S
H1214 C1210 0.950 . S
C1215 C1213 1.390 . S
C1215 C1216 1.387 . S
C1215 H1218 0.950 . S
C1216 C1215 1.387 . S
C1216 C1219 1.387 . S
H1217 C1213 0.950 . S
H1218 C1215 0.950 . S
C1219 C1210 1.390 . S
C1219 H1212 0.950 . S
C1219 C1216 1.387 . S
C1220 C1221 1.387 . S
C1220 H1224 0.950 . S
C1220 C1229 1.390 . S
C1221 C1220 1.387 . S
C1221 C1223 1.387 . S
H1222 C1229 0.950 . S
C1223 C1221 1.387 . S
C1223 C1225 1.390 . S
C1223 H1227 0.950 . S
H1224 C1220 0.950 . S
C1225 C1223 1.390 . S
C1225 C1226 1.387 . S
C1225 H1228 0.950 . S
C1226 C1225 1.387 . S
C1226 C1229 1.387 . S
H1227 C1223 0.950 . S
H1228 C1225 0.950 . S
C1229 C1220 1.390 . S
C1229 H1222 0.950 . S
C1229 C1226 1.387 . S
C1230 C1231 1.387 . S
C1230 H1234 0.950 . S
C1230 C1239 1.390 . S
C1231 C1230 1.387 . S
C1231 C1233 1.387 . S
H1232 C1239 0.950 . S
C1233 C1231 1.387 . S
C1233 C1235 1.390 . S
C1233 H1237 0.950 . S
H1234 C1230 0.950 . S
C1235 C1233 1.390 . S
C1235 C1236 1.387 . S
C1235 H1238 0.950 . S
C1236 C1235 1.387 . S
C1236 C1239 1.387 . S
H1237 C1233 0.950 . S
H1238 C1235 0.950 . S
C1239 C1230 1.390 . S
C1239 H1232 0.950 . S
C1239 C1236 1.387 . S
C1240 C1241 1.427 . S
C1240 H1244 0.950 . S
C1240 C1249 1.390 . S
C1241 C1240 1.427 . S
C1241 C1243 1.348 1_545 S
H1242 C1249 0.950 . S
C1243 C1241 1.348 1_565 S
C1243 C1245 1.390 . S
C1243 H1247 0.950 . S
H1244 C1240 0.950 . S
C1245 C1243 1.390 . S
C1245 C1246 1.348 1_565 S
C1245 H1248 0.950 . S
C1246 C1245 1.348 1_545 S
C1246 C1249 1.427 . S
H1247 C1243 0.950 . S
H1248 C1245 0.950 . S
C1249 C1240 1.390 . S
C1249 H1242 0.950 . S
C1249 C1246 1.427 . S
C1250 C1251 1.387 . S
C1250 H1254 0.950 . S
C1250 C1259 1.390 . S
C1251 C1250 1.387 . S
C1251 C1253 1.387 . S
H1252 C1259 0.950 . S
C1253 C1251 1.387 . S
C1253 C1255 1.390 . S
C1253 H1257 0.950 . S
H1254 C1250 0.950 . S
C1255 C1253 1.390 . S
C1255 C1256 1.387 . S
C1255 H1258 0.950 . S
C1256 C1255 1.387 . S
C1256 C1259 1.387 . S
H1257 C1253 0.950 . S
H1258 C1255 0.950 . S
C1259 C1250 1.390 . S
C1259 H1252 0.950 . S
C1259 C1256 1.387 . S
C1260 C1261 1.427 . S
C1260 H1264 0.950 . S
C1260 C1269 1.390 . S
C1261 C1260 1.427 . S
C1261 C1263 1.348 1_565 S
H1262 C1269 0.950 . S
C1263 C1261 1.348 1_545 S
C1263 C1265 1.390 . S
C1263 H1267 0.950 . S
H1264 C1260 0.950 . S
C1265 C1263 1.390 . S
C1265 C1266 1.348 1_545 S
C1265 H1268 0.950 . S
C1266 C1265 1.348 1_565 S
C1266 C1269 1.427 . S
H1267 C1263 0.950 . S
H1268 C1265 0.950 . S
C1269 C1260 1.390 . S
C1269 H1262 0.950 . S
C1269 C1266 1.427 . S
C1270 C1271 1.387 . S
C1270 H1274 0.950 . S
C1270 C1279 1.390 . S
C1271 C1270 1.387 . S
C1271 C1273 1.387 . S
H1272 C1279 0.950 . S
C1273 C1271 1.387 . S
C1273 C1275 1.390 . S
C1273 H1277 0.950 . S
H1274 C1270 0.950 . S
C1275 C1273 1.390 . S
C1275 C1276 1.387 . S
C1275 H1278 0.950 . S
C1276 C1275 1.387 . S
C1276 C1279 1.387 . S
H1277 C1273 0.950 . S
H1278 C1275 0.950 . S
C1279 C1270 1.390 . S
C1279 H1272 0.950 . S
C1279 C1276 1.387 . S
C1280 C1281 1.387 . S
C1280 H1284 0.950 . S
C1280 C1289 1.390 . S
C1281 C1280 1.387 . S
C1281 C1283 1.387 . S
H1282 C1289 0.950 . S
C1283 C1281 1.387 . S
C1283 C1285 1.390 . S
C1283 H1287 0.950 . S
H1284 C1280 0.950 . S
C1285 C1283 1.390 . S
C1285 C1286 1.387 . S
C1285 H1288 0.950 . S
C1286 C1285 1.387 . S
C1286 C1289 1.387 . S
H1287 C1283 0.950 . S
H1288 C1285 0.950 . S
C1289 C1280 1.390 . S
C1289 H1282 0.950 . S
C1289 C1286 1.387 . S
C1290 C1291 1.387 . S
C1290 H1294 0.950 . S
C1290 C1299 1.390 . S
C1291 C1290 1.387 . S
C1291 C1293 1.387 . S
H1292 C1299 0.950 . S
C1293 C1291 1.387 . S
C1293 C1295 1.390 . S
C1293 H1297 0.950 . S
H1294 C1290 0.950 . S
C1295 C1293 1.390 . S
C1295 C1296 1.387 . S
C1295 H1298 0.950 . S
C1296 C1295 1.387 . S
C1296 C1299 1.387 . S
H1297 C1293 0.950 . S
H1298 C1295 0.950 . S
C1299 C1290 1.390 . S
C1299 H1292 0.950 . S
C1299 C1296 1.387 . S
C1300 C1301 1.387 . S
C1300 H1304 0.950 . S
C1300 C1309 1.390 . S
C1301 C1300 1.387 . S
C1301 C1303 1.387 . S
H1302 C1309 0.950 . S
C1303 C1301 1.387 . S
C1303 C1305 1.390 . S
C1303 H1307 0.950 . S
H1304 C1300 0.950 . S
C1305 C1303 1.390 . S
C1305 C1306 1.387 . S
C1305 H1308 0.950 . S
C1306 C1305 1.387 . S
C1306 C1309 1.387 . S
H1307 C1303 0.950 . S
H1308 C1305 0.950 . S
C1309 C1300 1.390 . S
C1309 H1302 0.950 . S
C1309 C1306 1.387 . S
C1310 C1311 1.387 . S
C1310 H1314 0.950 . S
C1310 C1319 1.390 . S
C1311 C1310 1.387 . S
C1311 C1313 1.387 . S
H1312 C1319 0.950 . S
C1313 C1311 1.387 . S
C1313 C1315 1.390 . S
C1313 H1317 0.950 . S
H1314 C1310 0.950 . S
C1315 C1313 1.390 . S
C1315 C1316 1.387 . S
C1315 H1318 0.950 . S
C1316 C1315 1.387 . S
C1316 C1319 1.387 . S
H1317 C1313 0.950 . S
H1318 C1315 0.950 . S
C1319 C1310 1.390 . S
C1319 H1312 0.950 . S
C1319 C1316 1.387 . S
C1320 C1321 1.387 . S
C1320 H1324 0.950 . S
C1320 C1329 1.390 . S
C1321 C1320 1.387 . S
C1321 C1323 1.387 . S
H1322 C1329 0.950 . S
C1323 C1321 1.387 . S
C1323 C1325 1.390 . S
C1323 H1327 0.950 . S
H1324 C1320 0.950 . S
C1325 C1323 1.390 . S
C1325 C1326 1.387 . S
C1325 H1328 0.950 . S
C1326 C1325 1.387 . S
C1326 C1329 1.387 . S
H1327 C1323 0.950 . S
H1328 C1325 0.950 . S
C1329 C1320 1.390 . S
C1329 H1322 0.950 . S
C1329 C1326 1.387 . S
C1330 C1331 1.387 . S
C1330 H1334 0.950 . S
C1330 C1339 1.390 . S
C1331 C1330 1.387 . S
C1331 C1333 1.387 . S
H1332 C1339 0.950 . S
C1333 C1331 1.387 . S
C1333 C1335 1.390 . S
C1333 H1337 0.950 . S
H1334 C1330 0.950 . S
C1335 C1333 1.390 . S
C1335 C1336 1.387 . S
C1335 H1338 0.950 . S
C1336 C1335 1.387 . S
C1336 C1339 1.387 . S
H1337 C1333 0.950 . S
H1338 C1335 0.950 . S
C1339 C1330 1.390 . S
C1339 H1332 0.950 . S
C1339 C1336 1.387 . S
C1340 C1341 1.387 . S
C1340 H1344 0.950 . S
C1340 C1349 1.390 . S
C1341 C1340 1.387 . S
C1341 C1343 1.387 . S
H1342 C1349 0.950 . S
C1343 C1341 1.387 . S
C1343 C1345 1.390 . S
C1343 H1347 0.950 . S
H1344 C1340 0.950 . S
C1345 C1343 1.390 . S
C1345 C1346 1.387 . S
C1345 H1348 0.950 . S
C1346 C1345 1.387 . S
C1346 C1349 1.387 . S
H1347 C1343 0.950 . S
H1348 C1345 0.950 . S
C1349 C1340 1.390 . S
C1349 H1342 0.950 . S
C1349 C1346 1.387 . S
C1350 C1351 1.387 . S
C1350 H1354 0.950 . S
C1350 C1359 1.390 . S
C1351 C1350 1.387 . S
C1351 C1353 1.387 . S
H1352 C1359 0.950 . S
C1353 C1351 1.387 . S
C1353 C1355 1.390 . S
C1353 H1357 0.950 . S
H1354 C1350 0.950 . S
C1355 C1353 1.390 . S
C1355 C1356 1.387 . S
C1355 H1358 0.950 . S
C1356 C1355 1.387 . S
C1356 C1359 1.387 . S
H1357 C1353 0.950 . S
H1358 C1355 0.950 . S
C1359 C1350 1.390 . S
C1359 H1352 0.950 . S
C1359 C1356 1.387 . S
C1360 C1361 1.387 . S
C1360 H1364 0.950 . S
C1360 C1369 1.390 . S
C1361 C1360 1.387 . S
C1361 C1363 1.387 . S
H1362 C1369 0.950 . S
C1363 C1361 1.387 . S
C1363 C1365 1.390 . S
C1363 H1367 0.950 . S
H1364 C1360 0.950 . S
C1365 C1363 1.390 . S
C1365 C1366 1.387 . S
C1365 H1368 0.950 . S
C1366 C1365 1.387 . S
C1366 C1369 1.387 . S
H1367 C1363 0.950 . S
H1368 C1365 0.950 . S
C1369 C1360 1.390 . S
C1369 H1362 0.950 . S
C1369 C1366 1.387 . S
C1370 C1371 1.387 . S
C1370 H1374 0.950 . S
C1370 C1379 1.390 . S
C1371 C1370 1.387 . S
C1371 C1373 1.387 . S
H1372 C1379 0.950 . S
C1373 C1371 1.387 . S
C1373 C1375 1.390 . S
C1373 H1377 0.950 . S
H1374 C1370 0.950 . S
C1375 C1373 1.390 . S
C1375 C1376 1.387 . S
C1375 H1378 0.950 . S
C1376 C1375 1.387 . S
C1376 C1379 1.387 . S
H1377 C1373 0.950 . S
H1378 C1375 0.950 . S
C1379 C1370 1.390 . S
C1379 H1372 0.950 . S
C1379 C1376 1.387 . S
C1380 C1381 1.387 . S
C1380 H1384 0.950 . S
C1380 C1389 1.390 . S
C1381 C1380 1.387 . S
C1381 C1383 1.387 . S
H1382 C1389 0.950 . S
C1383 C1381 1.387 . S
C1383 C1385 1.390 . S
C1383 H1387 0.950 . S
H1384 C1380 0.950 . S
C1385 C1383 1.390 . S
C1385 C1386 1.387 . S
C1385 H1388 0.950 . S
C1386 C1385 1.387 . S
C1386 C1389 1.387 . S
H1387 C1383 0.950 . S
H1388 C1385 0.950 . S
C1389 C1380 1.390 . S
C1389 H1382 0.950 . S
C1389 C1386 1.387 . S
C1390 C1391 1.387 . S
C1390 H1394 0.950 . S
C1390 C1399 1.390 . S
C1391 C1390 1.387 . S
C1391 C1393 1.387 . S
H1392 C1399 0.950 . S
C1393 C1391 1.387 . S
C1393 C1395 1.390 . S
C1393 H1397 0.950 . S
H1394 C1390 0.950 . S
C1395 C1393 1.390 . S
C1395 C1396 1.387 . S
C1395 H1398 0.950 . S
C1396 C1395 1.387 . S
C1396 C1399 1.387 . S
H1397 C1393 0.950 . S
H1398 C1395 0.950 . S
C1399 C1390 1.390 . S
C1399 H1392 0.950 . S
C1399 C1396 1.387 . S
C1400 C1401 1.387 . S
C1400 H1404 0.950 . S
C1400 C1409 1.390 . S
C1401 C1400 1.387 . S
C1401 C1403 1.387 . S
H1402 C1409 0.950 . S
C1403 C1401 1.387 . S
C1403 C1405 1.390 . S
C1403 H1407 0.950 . S
H1404 C1400 0.950 . S
C1405 C1403 1.390 . S
C1405 C1406 1.387 . S
C1405 H1408 0.950 . S
C1406 C1405 1.387 . S
C1406 C1409 1.387 . S
H1407 C1403 0.950 . S
H1408 C1405 0.950 . S
C1409 C1400 1.390 . S
C1409 H1402 0.950 . S
C1409 C1406 1.387 . S
C1410 C1411 1.387 . S
C1410 H1414 0.950 . S
C1410 C1419 1.390 . S
C1411 C1410 1.387 . S
C1411 C1413 1.387 . S
H1412 C1419 0.950 . S
C1413 C1411 1.387 . S
C1413 C1415 1.390 . S
C1413 H1417 0.950 . S
H1414 C1410 0.950 . S
C1415 C1413 1.390 . S
C1415 C1416 1.387 . S
C1415 H1418 0.950 . S
C1416 C1415 1.387 . S
C1416 C1419 1.387 . S
H1417 C1413 0.950 . S
H1418 C1415 0.950 . S
C1419 C1410 1.390 . S
C1419 H1412 0.950 . S
C1419 C1416 1.387 . S
C1420 C1421 1.387 . S
C1420 H1424 0.950 . S
C1420 C1429 1.390 . S
C1421 C1420 1.387 . S
C1421 C1423 1.387 . S
H1422 C1429 0.950 . S
C1423 C1421 1.387 . S
C1423 C1425 1.390 . S
C1423 H1427 0.950 . S
H1424 C1420 0.950 . S
C1425 C1423 1.390 . S
C1425 C1426 1.387 . S
C1425 H1428 0.950 . S
C1426 C1425 1.387 . S
C1426 C1429 1.387 . S
H1427 C1423 0.950 . S
H1428 C1425 0.950 . S
C1429 C1420 1.390 . S
C1429 H1422 0.950 . S
C1429 C1426 1.387 . S
C1430 C1431 1.387 . S
C1430 H1434 0.950 . S
C1430 C1439 1.390 . S
C1431 C1430 1.387 . S
C1431 C1433 1.387 . S
H1432 C1439 0.950 . S
C1433 C1431 1.387 . S
C1433 C1435 1.390 . S
C1433 H1437 0.950 . S
H1434 C1430 0.950 . S
C1435 C1433 1.390 . S
C1435 C1436 1.387 . S
C1435 H1438 0.950 . S
C1436 C1435 1.387 . S
C1436 C1439 1.387 . S
H1437 C1433 0.950 . S
H1438 C1435 0.950 . S
C1439 C1430 1.390 . S
C1439 H1432 0.950 . S
C1439 C1436 1.387 . S
C1440 C1441 1.387 . S
C1440 H1444 0.950 . S
C1440 C1449 1.390 . S
C1441 C1440 1.387 . S
C1441 C1443 1.387 . S
H1442 C1449 0.950 . S
C1443 C1441 1.387 . S
C1443 C1445 1.390 . S
C1443 H1447 0.950 . S
H1444 C1440 0.950 . S
C1445 C1443 1.390 . S
C1445 C1446 1.387 . S
C1445 H1448 0.950 . S
C1446 C1445 1.387 . S
C1446 C1449 1.387 . S
H1447 C1443 0.950 . S
H1448 C1445 0.950 . S
C1449 C1440 1.390 . S
C1449 H1442 0.950 . S
C1449 C1446 1.387 . S
C1450 C1451 1.387 . S
C1450 H1454 0.950 . S
C1450 C1459 1.390 . S
C1451 C1450 1.387 . S
C1451 C1453 1.387 . S
H1452 C1459 0.950 . S
C1453 C1451 1.387 . S
C1453 C1455 1.390 . S
C1453 H1457 0.950 . S
H1454 C1450 0.950 . S
C1455 C1453 1.390 . S
C1455 C1456 1.387 . S
C1455 H1458 0.950 . S
C1456 C1455 1.387 . S
C1456 C1459 1.387 . S
H1457 C1453 0.950 . S
H1458 C1455 0.950 . S
C1459 C1450 1.390 . S
C1459 H1452 0.950 . S
C1459 C1456 1.387 . S
C1460 C1461 1.387 . S
C1460 H1464 0.950 . S
C1460 C1469 1.390 . S
C1461 C1460 1.387 . S
C1461 C1463 1.387 . S
H1462 C1469 0.950 . S
C1463 C1461 1.387 . S
C1463 C1465 1.390 . S
C1463 H1467 0.950 . S
H1464 C1460 0.950 . S
C1465 C1463 1.390 . S
C1465 C1466 1.387 . S
C1465 H1468 0.950 . S
C1466 C1465 1.387 . S
C1466 C1469 1.387 . S
H1467 C1463 0.950 . S
H1468 C1465 0.950 . S
C1469 C1460 1.390 . S
C1469 H1462 0.950 . S
C1469 C1466 1.387 . S
C1470 C1471 1.387 . S
C1470 H1474 0.950 . S
C1470 C1479 1.390 . S
C1471 C1470 1.387 . S
C1471 C1473 1.387 . S
H1472 C1479 0.950 . S
C1473 C1471 1.387 . S
C1473 C1475 1.390 . S
C1473 H1477 0.950 . S
H1474 C1470 0.950 . S
C1475 C1473 1.390 . S
C1475 C1476 1.387 . S
C1475 H1478 0.950 . S
C1476 C1475 1.387 . S
C1476 C1479 1.387 . S
H1477 C1473 0.950 . S
H1478 C1475 0.950 . S
C1479 C1470 1.390 . S
C1479 H1472 0.950 . S
C1479 C1476 1.387 . S
C1480 C1481 1.387 . S
C1480 H1484 0.950 . S
C1480 C1489 1.390 . S
C1481 C1480 1.387 . S
C1481 C1483 1.387 . S
H1482 C1489 0.950 . S
C1483 C1481 1.387 . S
C1483 C1485 1.390 . S
C1483 H1487 0.950 . S
H1484 C1480 0.950 . S
C1485 C1483 1.390 . S
C1485 C1486 1.387 . S
C1485 H1488 0.950 . S
C1486 C1485 1.387 . S
C1486 C1489 1.387 . S
H1487 C1483 0.950 . S
H1488 C1485 0.950 . S
C1489 C1480 1.390 . S
C1489 H1482 0.950 . S
C1489 C1486 1.387 . S
C1490 C1491 1.387 . S
C1490 H1494 0.950 . S
C1490 C1499 1.390 . S
C1491 C1490 1.387 . S
C1491 C1493 1.387 . S
H1492 C1499 0.950 . S
C1493 C1491 1.387 . S
C1493 C1495 1.390 . S
C1493 H1497 0.950 . S
H1494 C1490 0.950 . S
C1495 C1493 1.390 . S
C1495 C1496 1.387 . S
C1495 H1498 0.950 . S
C1496 C1495 1.387 . S
C1496 C1499 1.387 . S
H1497 C1493 0.950 . S
H1498 C1495 0.950 . S
C1499 C1490 1.390 . S
C1499 H1492 0.950 . S
C1499 C1496 1.387 . S
C1500 C1501 1.387 . S
C1500 H1504 0.950 . S
C1500 C1509 1.390 . S
C1501 C1500 1.387 . S
C1501 C1503 1.387 . S
H1502 C1509 0.950 . S
C1503 C1501 1.387 . S
C1503 C1505 1.390 . S
C1503 H1507 0.950 . S
H1504 C1500 0.950 . S
C1505 C1503 1.390 . S
C1505 C1506 1.387 . S
C1505 H1508 0.950 . S
C1506 C1505 1.387 . S
C1506 C1509 1.387 . S
H1507 C1503 0.950 . S
H1508 C1505 0.950 . S
C1509 C1500 1.390 . S
C1509 H1502 0.950 . S
C1509 C1506 1.387 . S
C1510 C1511 1.387 . S
C1510 H1514 0.950 . S
C1510 C1519 1.390 . S
C1511 C1510 1.387 . S
C1511 C1513 1.387 . S
H1512 C1519 0.950 . S
C1513 C1511 1.387 . S
C1513 C1515 1.390 . S
C1513 H1517 0.950 . S
H1514 C1510 0.950 . S
C1515 C1513 1.390 . S
C1515 C1516 1.387 . S
C1515 H1518 0.950 . S
C1516 C1515 1.387 . S
C1516 C1519 1.387 . S
H1517 C1513 0.950 . S
H1518 C1515 0.950 . S
C1519 C1510 1.390 . S
C1519 H1512 0.950 . S
C1519 C1516 1.387 . S
C1520 C1521 1.397 . S
C1520 H1524 0.950 . S
C1520 C1529 1.390 . S
C1521 C1520 1.397 . S
C1521 C1523 1.378 1_565 S
H1522 C1529 0.950 . S
C1523 C1521 1.378 1_545 S
C1523 C1525 1.390 . S
C1523 H1527 0.950 . S
H1524 C1520 0.950 . S
C1525 C1523 1.390 . S
C1525 C1526 1.385 . S
C1525 H1528 0.950 . S
C1526 C1525 1.385 . S
C1526 C1529 1.390 1_545 S
H1527 C1523 0.950 . S
H1528 C1525 0.950 . S
C1529 C1520 1.390 . S
C1529 H1522 0.950 . S
C1529 C1526 1.390 1_565 S
C1530 C1531 1.387 . S
C1530 H1534 0.950 . S
C1530 C1539 1.390 . S
C1531 C1530 1.387 . S
C1531 C1533 1.387 . S
H1532 C1539 0.950 . S
C1533 C1531 1.387 . S
C1533 C1535 1.390 . S
C1533 H1537 0.950 . S
H1534 C1530 0.950 . S
C1535 C1533 1.390 . S
C1535 C1536 1.387 . S
C1535 H1538 0.950 . S
C1536 C1535 1.387 . S
C1536 C1539 1.387 . S
H1537 C1533 0.950 . S
H1538 C1535 0.950 . S
C1539 C1530 1.390 . S
C1539 H1532 0.950 . S
C1539 C1536 1.387 . S
C1540 C1541 1.387 . S
C1540 H1544 0.950 . S
C1540 C1549 1.390 . S
C1541 C1540 1.387 . S
C1541 C1543 1.387 . S
H1542 C1549 0.950 . S
C1543 C1541 1.387 . S
C1543 C1545 1.390 . S
C1543 H1547 0.950 . S
H1544 C1540 0.950 . S
C1545 C1543 1.390 . S
C1545 C1546 1.387 . S
C1545 H1548 0.950 . S
C1546 C1545 1.387 . S
C1546 C1549 1.387 . S
H1547 C1543 0.950 . S
H1548 C1545 0.950 . S
C1549 C1540 1.390 . S
C1549 H1542 0.950 . S
C1549 C1546 1.387 . S
C1550 C1551 1.377 1_545 S
C1550 H1554 0.950 . S
C1550 C1559 1.390 . S
C1551 C1550 1.377 1_565 S
C1551 C1553 1.398 . S
H1552 C1559 0.950 . S
C1553 C1551 1.398 . S
C1553 C1555 1.390 . S
C1553 H1557 0.950 . S
H1554 C1550 0.950 . S
C1555 C1553 1.390 . S
C1555 C1556 1.389 1_565 S
C1555 H1558 0.950 . S
C1556 C1555 1.389 1_545 S
C1556 C1559 1.386 . S
H1557 C1553 0.950 . S
H1558 C1555 0.950 . S
C1559 C1550 1.390 . S
C1559 H1552 0.950 . S
C1559 C1556 1.386 . S
C1560 C1561 1.398 . S
C1560 H1564 0.950 . S
C1560 C1569 1.390 . S
C1561 C1560 1.398 . S
C1561 C1563 1.377 1_545 S
H1562 C1569 0.950 . S
C1563 C1561 1.377 1_565 S
C1563 C1565 1.390 . S
C1563 H1567 0.950 . S
H1564 C1560 0.950 . S
C1565 C1563 1.390 . S
C1565 C1566 1.386 . S
C1565 H1568 0.950 . S
C1566 C1565 1.386 . S
C1566 C1569 1.389 1_565 S
H1567 C1563 0.950 . S
H1568 C1565 0.950 . S
C1569 C1560 1.390 . S
C1569 H1562 0.950 . S
C1569 C1566 1.389 1_545 S
C1570 C1571 1.387 . S
C1570 H1574 0.950 . S
C1570 C1579 1.390 . S
C1571 C1570 1.387 . S
C1571 C1573 1.387 . S
H1572 C1579 0.950 . S
C1573 C1571 1.387 . S
C1573 C1575 1.390 . S
C1573 H1577 0.950 . S
H1574 C1570 0.950 . S
C1575 C1573 1.390 . S
C1575 C1576 1.387 . S
C1575 H1578 0.950 . S
C1576 C1575 1.387 . S
C1576 C1579 1.387 . S
H1577 C1573 0.950 . S
H1578 C1575 0.950 . S
C1579 C1570 1.390 . S
C1579 H1572 0.950 . S
C1579 C1576 1.387 . S
C1580 C1581 1.387 . S
C1580 H1584 0.950 . S
C1580 C1589 1.390 . S
C1581 C1580 1.387 . S
C1581 C1583 1.387 . S
H1582 C1589 0.950 . S
C1583 C1581 1.387 . S
C1583 C1585 1.390 . S
C1583 H1587 0.950 . S
H1584 C1580 0.950 . S
C1585 C1583 1.390 . S
C1585 C1586 1.387 . S
C1585 H1588 0.950 . S
C1586 C1585 1.387 . S
C1586 C1589 1.387 . S
H1587 C1583 0.950 . S
H1588 C1585 0.950 . S
C1589 C1580 1.390 . S
C1589 H1582 0.950 . S
C1589 C1586 1.387 . S
C1590 C1591 1.397 . S
C1590 H1594 0.950 . S
C1590 C1599 1.390 . S
C1591 C1590 1.397 . S
C1591 C1593 1.377 1_545 S
H1592 C1599 0.950 . S
C1593 C1591 1.377 1_565 S
C1593 C1595 1.390 . S
C1593 H1597 0.950 . S
H1594 C1590 0.950 . S
C1595 C1593 1.390 . S
C1595 C1596 1.386 . S
C1595 H1598 0.950 . S
C1596 C1595 1.386 . S
C1596 C1599 1.389 1_565 S
H1597 C1593 0.950 . S
H1598 C1595 0.950 . S
C1599 C1590 1.390 . S
C1599 H1592 0.950 . S
C1599 C1596 1.389 1_545 S
C1600 C1601 1.387 . S
C1600 H1604 0.950 . S
C1600 C1609 1.390 1_455 S
C1601 C1600 1.387 . S
C1601 C1603 1.387 . S
H1602 C1609 0.950 . S
C1603 C1601 1.387 . S
C1603 C1605 1.390 1_455 S
C1603 H1607 0.950 . S
H1604 C1600 0.950 . S
C1605 C1603 1.390 1_655 S
C1605 C1606 1.387 . S
C1605 H1608 0.950 . S
C1606 C1605 1.387 . S
C1606 C1609 1.387 . S
H1607 C1603 0.950 . S
H1608 C1605 0.950 . S
C1609 C1600 1.390 1_655 S
C1609 H1602 0.950 . S
C1609 C1606 1.387 . S
C1610 C1611 1.387 . S
C1610 H1614 0.950 . S
C1610 C1619 1.390 . S
C1611 C1610 1.387 . S
C1611 C1613 1.387 . S
H1612 C1619 0.950 . S
C1613 C1611 1.387 . S
C1613 C1615 1.390 . S
C1613 H1617 0.950 . S
H1614 C1610 0.950 . S
C1615 C1613 1.390 . S
C1615 C1616 1.387 . S
C1615 H1618 0.950 . S
C1616 C1615 1.387 . S
C1616 C1619 1.387 . S
H1617 C1613 0.950 . S
H1618 C1615 0.950 . S
C1619 C1610 1.390 . S
C1619 H1612 0.950 . S
C1619 C1616 1.387 . S
C1620 C1621 1.387 . S
C1620 H1624 0.950 . S
C1620 C1629 1.390 1_655 S
C1621 C1620 1.387 . S
C1621 C1623 1.387 . S
H1622 C1629 0.950 . S
C1623 C1621 1.387 . S
C1623 C1625 1.390 1_655 S
C1623 H1627 0.950 . S
H1624 C1620 0.950 . S
C1625 C1623 1.390 1_455 S
C1625 C1626 1.387 . S
C1625 H1628 0.950 . S
C1626 C1625 1.387 . S
C1626 C1629 1.387 . S
H1627 C1623 0.950 . S
H1628 C1625 0.950 . S
C1629 C1620 1.390 1_455 S
C1629 H1622 0.950 . S
C1629 C1626 1.387 . S
C1630 C1631 1.387 . S
C1630 H1634 0.950 . S
C1630 C1639 1.390 . S
C1631 C1630 1.387 . S
C1631 C1633 1.387 . S
H1632 C1639 0.950 . S
C1633 C1631 1.387 . S
C1633 C1635 1.390 . S
C1633 H1637 0.950 . S
H1634 C1630 0.950 . S
C1635 C1633 1.390 . S
C1635 C1636 1.387 . S
C1635 H1638 0.950 . S
C1636 C1635 1.387 . S
C1636 C1639 1.387 . S
H1637 C1633 0.950 . S
H1638 C1635 0.950 . S
C1639 C1630 1.390 . S
C1639 H1632 0.950 . S
C1639 C1636 1.387 . S
C1640 C1641 1.387 . S
C1640 H1644 0.950 . S
C1640 C1649 1.390 1_655 S
C1641 C1640 1.387 . S
C1641 C1643 1.387 . S
H1642 C1649 0.950 . S
C1643 C1641 1.387 . S
C1643 C1645 1.390 1_655 S
C1643 H1647 0.950 . S
H1644 C1640 0.950 . S
C1645 C1643 1.390 1_455 S
C1645 C1646 1.387 . S
C1645 H1648 0.950 . S
C1646 C1645 1.387 . S
C1646 C1649 1.387 . S
H1647 C1643 0.950 . S
H1648 C1645 0.950 . S
C1649 C1640 1.390 1_455 S
C1649 H1642 0.950 . S
C1649 C1646 1.387 . S
C1650 C1651 1.387 . S
C1650 H1654 0.950 . S
C1650 C1659 1.390 . S
C1651 C1650 1.387 . S
C1651 C1653 1.387 . S
H1652 C1659 0.950 . S
C1653 C1651 1.387 . S
C1653 C1655 1.390 . S
C1653 H1657 0.950 . S
H1654 C1650 0.950 . S
C1655 C1653 1.390 . S
C1655 C1656 1.387 . S
C1655 H1658 0.950 . S
C1656 C1655 1.387 . S
C1656 C1659 1.387 . S
H1657 C1653 0.950 . S
H1658 C1655 0.950 . S
C1659 C1650 1.390 . S
C1659 H1652 0.950 . S
C1659 C1656 1.387 . S
C1660 C1661 1.387 . S
C1660 H1664 0.950 . S
C1660 C1669 1.390 1_455 S
C1661 C1660 1.387 . S
C1661 C1663 1.387 . S
H1662 C1669 0.950 . S
C1663 C1661 1.387 . S
C1663 C1665 1.390 1_455 S
C1663 H1667 0.950 . S
H1664 C1660 0.950 . S
C1665 C1663 1.390 1_655 S
C1665 C1666 1.387 . S
C1665 H1668 0.950 . S
C1666 C1665 1.387 . S
C1666 C1669 1.387 . S
H1667 C1663 0.950 . S
H1668 C1665 0.950 . S
C1669 C1660 1.390 1_655 S
C1669 H1662 0.950 . S
C1669 C1666 1.387 . S
C1670 C1671 1.387 . S
C1670 H1674 0.950 . S
C1670 C1679 1.390 . S
C1671 C1670 1.387 . S
C1671 C1673 1.387 . S
H1672 C1679 0.950 . S
C1673 C1671 1.387 . S
C1673 C1675 1.390 . S
C1673 H1677 0.950 . S
H1674 C1670 0.950 . S
C1675 C1673 1.390 . S
C1675 C1676 1.387 . S
C1675 H1678 0.950 . S
C1676 C1675 1.387 . S
C1676 C1679 1.387 . S
H1677 C1673 0.950 . S
H1678 C1675 0.950 . S
C1679 C1670 1.390 . S
C1679 H1672 0.950 . S
C1679 C1676 1.387 . S
C1680 C1681 1.396 . S
C1680 H1684 0.950 . S
C1680 C1689 1.390 1_655 S
C1681 C1680 1.396 . S
C1681 C1683 1.379 1_565 S
H1682 C1689 0.950 . S
C1683 C1681 1.379 1_545 S
C1683 C1685 1.390 1_655 S
C1683 H1687 0.950 . S
H1684 C1680 0.950 . S
C1685 C1683 1.390 1_455 S
C1685 C1686 1.385 . S
C1685 H1688 0.950 . S
C1686 C1685 1.385 . S
C1686 C1689 1.390 1_545 S
H1687 C1683 0.950 . S
H1688 C1685 0.950 . S
C1689 C1680 1.390 1_455 S
C1689 H1682 0.950 . S
C1689 C1686 1.390 1_565 S
C1690 C1691 1.387 . S
C1690 H1694 0.950 . S
C1690 C1699 1.390 . S
C1691 C1690 1.387 . S
C1691 C1693 1.387 . S
H1692 C1699 0.950 . S
C1693 C1691 1.387 . S
C1693 C1695 1.390 . S
C1693 H1697 0.950 . S
H1694 C1690 0.950 . S
C1695 C1693 1.390 . S
C1695 C1696 1.387 . S
C1695 H1698 0.950 . S
C1696 C1695 1.387 . S
C1696 C1699 1.387 . S
H1697 C1693 0.950 . S
H1698 C1695 0.950 . S
C1699 C1690 1.390 . S
C1699 H1692 0.950 . S
C1699 C1696 1.387 . S
C1700 C1701 1.387 . S
C1700 H1704 0.950 . S
C1700 C1709 1.390 1_655 S
C1701 C1700 1.387 . S
C1701 C1703 1.387 . S
H1702 C1709 0.950 . S
C1703 C1701 1.387 . S
C1703 C1705 1.390 1_655 S
C1703 H1707 0.950 . S
H1704 C1700 0.950 . S
C1705 C1703 1.390 1_455 S
C1705 C1706 1.387 . S
C1705 H1708 0.950 . S
C1706 C1705 1.387 . S
C1706 C1709 1.387 . S
H1707 C1703 0.950 . S
H1708 C1705 0.950 . S
C1709 C1700 1.390 1_455 S
C1709 H1702 0.950 . S
C1709 C1706 1.387 . S
C1710 C1711 1.377 1_545 S
C1710 H1714 0.950 . S
C1710 C1719 1.390 . S
C1711 C1710 1.377 1_565 S
C1711 C1713 1.398 . S
H1712 C1719 0.950 . S
C1713 C1711 1.398 . S
C1713 C1715 1.390 . S
C1713 H1717 0.950 . S
H1714 C1710 0.950 . S
C1715 C1713 1.390 . S
C1715 C1716 1.389 1_565 S
C1715 H1718 0.950 . S
C1716 C1715 1.389 1_545 S
C1716 C1719 1.386 . S
H1717 C1713 0.950 . S
H1718 C1715 0.950 . S
C1719 C1710 1.390 . S
C1719 H1712 0.950 . S
C1719 C1716 1.386 . S
C1720 C1721 1.388 1_545 S
C1720 H1724 0.950 . S
C1720 C1729 1.390 1_655 S
C1721 C1720 1.388 1_565 S
C1721 C1723 1.387 . S
H1722 C1729 0.950 . S
C1723 C1721 1.387 . S
C1723 C1725 1.390 1_655 S
C1723 H1727 0.950 . S
H1724 C1720 0.950 . S
C1725 C1723 1.390 1_455 S
C1725 C1726 1.377 1_565 S
C1725 H1728 0.950 . S
C1726 C1725 1.377 1_545 S
C1726 C1729 1.398 . S
H1727 C1723 0.950 . S
H1728 C1725 0.950 . S
C1729 C1720 1.390 1_455 S
C1729 H1722 0.950 . S
C1729 C1726 1.398 . S
C1730 C1731 1.387 . S
C1730 H1734 0.950 . S
C1730 C1739 1.390 . S
C1731 C1730 1.387 . S
C1731 C1733 1.387 . S
H1732 C1739 0.950 . S
C1733 C1731 1.387 . S
C1733 C1735 1.390 . S
C1733 H1737 0.950 . S
H1734 C1730 0.950 . S
C1735 C1733 1.390 . S
C1735 C1736 1.387 . S
C1735 H1738 0.950 . S
C1736 C1735 1.387 . S
C1736 C1739 1.387 . S
H1737 C1733 0.950 . S
H1738 C1735 0.950 . S
C1739 C1730 1.390 . S
C1739 H1732 0.950 . S
C1739 C1736 1.387 . S
C1740 C1741 1.387 . S
C1740 H1744 0.950 . S
C1740 C1749 1.390 1_455 S
C1741 C1740 1.387 . S
C1741 C1743 1.387 . S
H1742 C1749 0.950 . S
C1743 C1741 1.387 . S
C1743 C1745 1.390 1_455 S
C1743 H1747 0.950 . S
H1744 C1740 0.950 . S
C1745 C1743 1.390 1_655 S
C1745 C1746 1.387 . S
C1745 H1748 0.950 . S
C1746 C1745 1.387 . S
C1746 C1749 1.387 . S
H1747 C1743 0.950 . S
H1748 C1745 0.950 . S
C1749 C1740 1.390 1_655 S
C1749 H1742 0.950 . S
C1749 C1746 1.387 . S
C1750 C1751 1.378 1_565 S
C1750 H1754 0.950 . S
C1750 C1759 1.390 . S
C1751 C1750 1.378 1_545 S
C1751 C1753 1.397 . S
H1752 C1759 0.950 . S
C1753 C1751 1.397 . S
C1753 C1755 1.390 . S
C1753 H1757 0.950 . S
H1754 C1750 0.950 . S
C1755 C1753 1.390 . S
C1755 C1756 1.390 1_545 S
C1755 H1758 0.950 . S
C1756 C1755 1.390 1_565 S
C1756 C1759 1.385 . S
H1757 C1753 0.950 . S
H1758 C1755 0.950 . S
C1759 C1750 1.390 . S
C1759 H1752 0.950 . S
C1759 C1756 1.385 . S
C1760 C1761 1.387 1_655 S
C1760 H1764 0.950 . S
C1760 C1769 1.390 1_554 S
C1761 C1760 1.387 1_455 S
C1761 C1763 1.387 . S
H1762 C1769 0.950 . S
C1763 C1761 1.387 . S
C1763 C1765 1.390 1_554 S
C1763 H1767 0.950 . S
H1764 C1760 0.950 . S
C1765 C1763 1.390 1_556 S
C1765 C1766 1.387 1_455 S
C1765 H1768 0.950 . S
C1766 C1765 1.387 1_655 S
C1766 C1769 1.387 . S
H1767 C1763 0.950 . S
H1768 C1765 0.950 . S
C1769 C1760 1.390 1_556 S
C1769 H1762 0.950 . S
C1769 C1766 1.387 . S
C1770 C1771 1.387 . S
C1770 H1774 0.950 . S
C1770 C1779 1.390 1_556 S
C1771 C1770 1.387 . S
C1771 C1773 1.387 . S
H1772 C1779 0.950 . S
C1773 C1771 1.387 . S
C1773 C1775 1.390 1_556 S
C1773 H1777 0.950 . S
H1774 C1770 0.950 . S
C1775 C1773 1.390 1_554 S
C1775 C1776 1.387 . S
C1775 H1778 0.950 . S
C1776 C1775 1.387 . S
C1776 C1779 1.387 . S
H1777 C1773 0.950 . S
H1778 C1775 0.950 . S
C1779 C1770 1.390 1_554 S
C1779 H1772 0.950 . S
C1779 C1776 1.387 . S
C1780 C1781 1.387 . S
C1780 H1784 0.950 . S
C1780 C1789 1.390 . S
C1781 C1780 1.387 . S
C1781 C1783 1.387 1_655 S
H1782 C1789 0.950 . S
C1783 C1781 1.387 1_455 S
C1783 C1785 1.390 . S
C1783 H1787 0.950 . S
H1784 C1780 0.950 . S
C1785 C1783 1.390 . S
C1785 C1786 1.387 . S
C1785 H1788 0.950 . S
C1786 C1785 1.387 . S
C1786 C1789 1.387 1_455 S
H1787 C1783 0.950 . S
H1788 C1785 0.950 . S
C1789 C1780 1.390 . S
C1789 H1782 0.950 . S
C1789 C1786 1.387 1_655 S
C1790 C1791 1.387 . S
C1790 H1794 0.950 . S
C1790 C1799 1.390 . S
C1791 C1790 1.387 . S
C1791 C1793 1.387 . S
H1792 C1799 0.950 . S
C1793 C1791 1.387 . S
C1793 C1795 1.390 . S
C1793 H1797 0.950 . S
H1794 C1790 0.950 . S
C1795 C1793 1.390 . S
C1795 C1796 1.387 . S
C1795 H1798 0.950 . S
C1796 C1795 1.387 . S
C1796 C1799 1.387 . S
H1797 C1793 0.950 . S
H1798 C1795 0.950 . S
C1799 C1790 1.390 . S
C1799 H1792 0.950 . S
C1799 C1796 1.387 . S
C1800 C1801 1.387 . S
C1800 H1804 0.950 . S
C1800 C1809 1.390 1_556 S
C1801 C1800 1.387 . S
C1801 C1803 1.387 . S
H1802 C1809 0.950 . S
C1803 C1801 1.387 . S
C1803 C1805 1.390 1_556 S
C1803 H1807 0.950 . S
H1804 C1800 0.950 . S
C1805 C1803 1.390 1_554 S
C1805 C1806 1.387 . S
C1805 H1808 0.950 . S
C1806 C1805 1.387 . S
C1806 C1809 1.387 . S
H1807 C1803 0.950 . S
H1808 C1805 0.950 . S
C1809 C1800 1.390 1_554 S
C1809 H1802 0.950 . S
C1809 C1806 1.387 . S
C1810 C1811 1.387 1_455 S
C1810 H1814 0.950 . S
C1810 C1819 1.390 . S
C1811 C1810 1.387 1_655 S
C1811 C1813 1.387 . S
H1812 C1819 0.950 . S
C1813 C1811 1.387 . S
C1813 C1815 1.390 . S
C1813 H1817 0.950 . S
H1814 C1810 0.950 . S
C1815 C1813 1.390 . S
C1815 C1816 1.387 1_655 S
C1815 H1818 0.950 . S
C1816 C1815 1.387 1_455 S
C1816 C1819 1.387 . S
H1817 C1813 0.950 . S
H1818 C1815 0.950 . S
C1819 C1810 1.390 . S
C1819 H1812 0.950 . S
C1819 C1816 1.387 . S
C1820 C1821 1.387 . S
C1820 H1824 0.950 . S
C1820 C1829 1.390 . S
C1821 C1820 1.387 . S
C1821 C1823 1.387 . S
H1822 C1829 0.950 . S
C1823 C1821 1.387 . S
C1823 C1825 1.390 . S
C1823 H1827 0.950 . S
H1824 C1820 0.950 . S
C1825 C1823 1.390 . S
C1825 C1826 1.387 . S
C1825 H1828 0.950 . S
C1826 C1825 1.387 . S
C1826 C1829 1.387 . S
H1827 C1823 0.950 . S
H1828 C1825 0.950 . S
C1829 C1820 1.390 . S
C1829 H1822 0.950 . S
C1829 C1826 1.387 . S
C1830 C1831 1.358 1_545 S
C1830 H1834 0.950 . S
C1830 C1839 1.390 . S
C1831 C1830 1.358 1_565 S
C1831 C1833 1.416 1_455 S
H1832 C1839 0.950 . S
C1833 C1831 1.416 1_655 S
C1833 C1835 1.390 . S
C1833 H1837 0.950 . S
H1834 C1830 0.950 . S
C1835 C1833 1.390 . S
C1835 C1836 1.369 1_565 S
C1835 H1838 0.950 . S
C1836 C1835 1.369 1_545 S
C1836 C1839 1.406 1_655 S
H1837 C1833 0.950 . S
H1838 C1835 0.950 . S
C1839 C1830 1.390 . S
C1839 H1832 0.950 . S
C1839 C1836 1.406 1_455 S
C1840 C1841 1.387 . S
C1840 H1844 0.950 . S
C1840 C1849 1.390 . S
C1841 C1840 1.387 . S
C1841 C1843 1.387 . S
H1842 C1849 0.950 . S
C1843 C1841 1.387 . S
C1843 C1845 1.390 . S
C1843 H1847 0.950 . S
H1844 C1840 0.950 . S
C1845 C1843 1.390 . S
C1845 C1846 1.387 . S
C1845 H1848 0.950 . S
C1846 C1845 1.387 . S
C1846 C1849 1.387 . S
H1847 C1843 0.950 . S
H1848 C1845 0.950 . S
C1849 C1840 1.390 . S
C1849 H1842 0.950 . S
C1849 C1846 1.387 . S
C1850 C1851 1.396 . S
C1850 H1854 0.950 . S
C1850 C1859 1.390 . S
C1851 C1850 1.396 . S
C1851 C1853 1.379 1_545 S
H1852 C1859 0.950 . S
C1853 C1851 1.379 1_565 S
C1853 C1855 1.390 . S
C1853 H1857 0.950 . S
H1854 C1850 0.950 . S
C1855 C1853 1.390 . S
C1855 C1856 1.392 . S
C1855 H1858 0.950 . S
C1856 C1855 1.392 . S
C1856 C1859 1.382 1_565 S
H1857 C1853 0.950 . S
H1858 C1855 0.950 . S
C1859 C1850 1.390 . S
C1859 H1852 0.950 . S
C1859 C1856 1.382 1_545 S
C1860 C1861 1.387 . S
C1860 H1864 0.950 . S
C1860 C1869 1.390 . S
C1861 C1860 1.387 . S
C1861 C1863 1.387 . S
H1862 C1869 0.950 . S
C1863 C1861 1.387 . S
C1863 C1865 1.390 . S
C1863 H1867 0.950 . S
H1864 C1860 0.950 . S
C1865 C1863 1.390 . S
C1865 C1866 1.387 . S
C1865 H1868 0.950 . S
C1866 C1865 1.387 . S
C1866 C1869 1.387 . S
H1867 C1863 0.950 . S
H1868 C1865 0.950 . S
C1869 C1860 1.390 . S
C1869 H1862 0.950 . S
C1869 C1866 1.387 . S
C1870 C1871 1.420 . S
C1870 H1874 0.950 . S
C1870 C1879 1.390 . S
C1871 C1870 1.420 . S
C1871 C1873 1.354 1_565 S
H1872 C1879 0.950 . S
C1873 C1871 1.354 1_545 S
C1873 C1875 1.390 . S
C1873 H1877 0.950 . S
H1874 C1870 0.950 . S
C1875 C1873 1.390 . S
C1875 C1876 1.408 . S
C1875 H1878 0.950 . S
C1876 C1875 1.408 . S
C1876 C1879 1.366 1_545 S
H1877 C1873 0.950 . S
H1878 C1875 0.950 . S
C1879 C1870 1.390 . S
C1879 H1872 0.950 . S
C1879 C1876 1.366 1_565 S
C1880 C1881 1.387 . S
C1880 H1884 0.950 . S
C1880 C1889 1.390 . S
C1881 C1880 1.387 . S
C1881 C1883 1.387 . S
H1882 C1889 0.950 . S
C1883 C1881 1.387 . S
C1883 C1885 1.390 . S
C1883 H1887 0.950 . S
H1884 C1880 0.950 . S
C1885 C1883 1.390 . S
C1885 C1886 1.387 . S
C1885 H1888 0.950 . S
C1886 C1885 1.387 . S
C1886 C1889 1.387 . S
H1887 C1883 0.950 . S
H1888 C1885 0.950 . S
C1889 C1880 1.390 . S
C1889 H1882 0.950 . S
C1889 C1886 1.387 . S
C1890 C1891 1.387 . S
C1890 H1894 0.950 . S
C1890 C1899 1.390 . S
C1891 C1890 1.387 . S
C1891 C1893 1.387 . S
H1892 C1899 0.950 . S
C1893 C1891 1.387 . S
C1893 C1895 1.390 . S
C1893 H1897 0.950 . S
H1894 C1890 0.950 . S
C1895 C1893 1.390 . S
C1895 C1896 1.387 . S
C1895 H1898 0.950 . S
C1896 C1895 1.387 . S
C1896 C1899 1.387 . S
H1897 C1893 0.950 . S
H1898 C1895 0.950 . S
C1899 C1890 1.390 . S
C1899 H1892 0.950 . S
C1899 C1896 1.387 . S
C1900 C1901 1.387 . S
C1900 H1904 0.950 . S
C1900 C1909 1.390 . S
C1901 C1900 1.387 . S
C1901 C1903 1.387 . S
H1902 C1909 0.950 . S
C1903 C1901 1.387 . S
C1903 C1905 1.390 . S
C1903 H1907 0.950 . S
H1904 C1900 0.950 . S
C1905 C1903 1.390 . S
C1905 C1906 1.387 . S
C1905 H1908 0.950 . S
C1906 C1905 1.387 . S
C1906 C1909 1.387 . S
H1907 C1903 0.950 . S
H1908 C1905 0.950 . S
C1909 C1900 1.390 . S
C1909 H1902 0.950 . S
C1909 C1906 1.387 . S
C1910 C1911 1.417 . S
C1910 H1914 0.950 . S
C1910 C1919 1.390 1_554 S
C1911 C1910 1.417 . S
C1911 C1913 1.357 1_565 S
H1912 C1919 0.950 . S
C1913 C1911 1.357 1_545 S
C1913 C1915 1.390 1_554 S
C1913 H1917 0.950 . S
H1914 C1910 0.950 . S
C1915 C1913 1.390 1_556 S
C1915 C1916 1.406 . S
C1915 H1918 0.950 . S
C1916 C1915 1.406 . S
C1916 C1919 1.368 1_545 S
H1917 C1913 0.950 . S
H1918 C1915 0.950 . S
C1919 C1910 1.390 1_556 S
C1919 H1912 0.950 . S
C1919 C1916 1.368 1_565 S
C961 N14 1.550 . S
C966 N764 1.550 . S
C971 N734 1.550 . S
C976 N44 1.544 . S
C981 N824 1.549 . S
C986 N74 1.543 . S
C991 N104 1.550 . S
C996 N794 1.550 . S
C1001 N126 1.550 . S
C1006 N876 1.550 . S
C1011 N156 1.550 . S
C1016 N846 1.543 . S
C1021 N186 1.549 . S
C1026 N936 1.543 . S
C1031 N906 1.550 . S
C1036 N216 1.550 . S
C1041 N254 1.550 . S
C1046 N524 1.544 . S
C1051 N284 1.550 . S
C1056 N494 1.550 . S
C1061 N314 1.550 . S
C1066 N584 1.550 . S
C1071 N554 1.550 . S
C1076 N344 1.543 . S
C1081 N366 1.550 . S
C1086 N636 1.544 . S
C1091 N396 1.550 . S
C1096 N606 1.550 . S
C1101 N696 1.550 . S
C1106 N426 1.550 . S
C1111 N456 1.550 . S
C1116 N666 1.544 . S
C1121 C10 1.540 . S
C1126 C100 1.540 . S
C1131 C40 1.540 . S
C1136 C70 1.540 . S
C1141 C211 1.539 . S
C1146 C121 1.539 . S
C1151 C181 1.540 . S
C1156 C151 1.540 . S
C1161 C250 1.543 . S
C1166 C340 1.543 . S
C1171 C280 1.539 . S
C1176 C310 1.539 . S
C1181 C361 1.542 . S
C1186 C451 1.542 . S
C1191 C421 1.539 . S
C1196 C391 1.539 . S
C1201 C490 1.540 . S
C1206 C580 1.540 . S
C1211 C520 1.539 . S
C1216 C550 1.539 . S
C1221 C691 1.540 . S
C1226 C601 1.540 . S
C1231 C631 1.540 . S
C1236 C661 1.540 . S
C1241 C820 1.542 . S
C1246 C730 1.542 . S
C1251 C760 1.540 . S
C1256 C790 1.540 . S
C1261 C931 1.544 . S
C1266 C841 1.544 . S
C1271 C901 1.540 . S
C1276 C871 1.540 . S
C1281 N36 1.414 . S
C1286 N6 1.413 . S
C1291 N66 1.413 . S
C1296 N96 1.413 . S
C1301 N164 1.416 . S
C1306 N134 1.416 . S
C1311 N224 1.413 . S
C1316 N194 1.413 . S
C1321 N246 1.416 . S
C1326 N276 1.422 . S
C1331 N306 1.414 . S
C1336 N336 1.420 . S
C1341 N404 1.416 . S
C1346 N374 1.422 . S
C1351 N434 1.416 . S
C1356 N464 1.422 . S
C1361 N486 1.416 . S
C1366 N516 1.416 . S
C1371 N576 1.416 . S
C1376 N546 1.416 . S
C1381 N614 1.413 . S
C1386 N644 1.413 . S
C1391 N674 1.416 . S
C1396 N704 1.416 . S
C1401 N726 1.416 . S
C1406 N756 1.423 . S
C1411 N786 1.416 . S
C1416 N816 1.422 . S
C1421 N884 1.414 . S
C1426 N854 1.420 . S
C1431 N914 1.414 . S
C1436 N944 1.420 . S
C1441 C27 1.436 . S
C1446 C16 1.436 . S
C1451 C57 1.436 . S
C1456 C46 1.436 . S
C1461 C87 1.436 . S
C1466 C76 1.436 . S
C1471 C106 1.436 . S
C1476 C117 1.436 . S
C1481 C147 1.435 . S
C1486 C136 1.435 . S
C1491 C166 1.435 . S
C1496 C177 1.435 . S
C1501 C207 1.436 . S
C1506 C196 1.436 . S
C1511 C237 1.435 . S
C1516 C226 1.435 . S
C1521 C256 1.435 . S
C1526 C267 1.435 . S
C1531 C297 1.436 . S
C1536 C286 1.436 . S
C1541 C327 1.435 . S
C1546 C316 1.435 . S
C1551 C346 1.436 . S
C1556 C357 1.436 . S
C1561 C387 1.436 . S
C1566 C376 1.436 . S
C1571 C406 1.436 . S
C1576 C417 1.436 . S
C1581 C436 1.436 . S
C1586 C447 1.436 . S
C1591 C477 1.436 . S
C1596 C466 1.436 . S
C1601 C507 1.436 . S
C1606 C496 1.436 . S
C1611 C526 1.436 . S
C1616 C537 1.436 1_455 S
C1621 C556 1.435 . S
C1626 C567 1.435 . S
C1631 C597 1.436 1_455 S
C1636 C586 1.436 . S
C1641 C616 1.435 . S
C1646 C627 1.435 . S
C1651 C646 1.436 1_655 S
C1656 C657 1.436 . S
C1661 C687 1.435 . S
C1666 C676 1.435 . S
C1671 C706 1.435 1_655 S
C1676 C717 1.435 . S
C1681 C736 1.435 . S
C1686 C747 1.435 . S
C1691 C777 1.435 1_455 S
C1696 C766 1.435 . S
C1701 C796 1.436 . S
C1706 C807 1.436 . S
C1711 C826 1.436 . S
C1716 C837 1.436 1_455 S
C1721 C856 1.436 . S
C1726 C867 1.436 . S
C1731 C886 1.436 1_655 S
C1736 C897 1.436 . S
C1741 C927 1.436 . S
C1746 C916 1.436 . S
C1751 C957 1.435 . S
C1756 C946 1.435 1_655 S
C1761 C1 1.508 . S
C1766 C130 1.508 . S
C1771 C880 1.508 . S
C1776 C31 1.508 . S
C1781 C430 1.508 . S
C1786 C61 1.508 . S
C1791 C91 1.508 . S
C1796 C700 1.508 . S
C1801 C160 1.508 . S
C1806 C751 1.508 . S
C1811 C190 1.508 . S
C1816 C301 1.508 . S
C1821 C220 1.508 . S
C1826 C571 1.508 . S
C1831 C241 1.512 . S
C1836 C370 1.512 . S
C1841 C640 1.508 . S
C1846 C271 1.508 . S
C1851 C940 1.511 . S
C1856 C331 1.511 . S
C1861 C400 1.508 . S
C1866 C511 1.508 . S
C1871 C811 1.511 . S
C1876 C460 1.511 . S
C1881 C481 1.508 . S
C1886 C610 1.508 . S
C1891 C910 1.508 . S
C1896 C541 1.508 . S
C1901 C670 1.508 . S
C1906 C781 1.508 . S
C1911 C721 1.511 . S
C1916 C850 1.511 . S
