# Generated by pormake.
# Topology ubt, (5)-cn, num edge types: 1
# Building blocks:
#     Node 0, Type 0, BuildingBlock: XOMCOT_clean_sbu_0, # of connection points: 5
#     Node 1, Type 0, BuildingBlock: XOMCOT_clean_sbu_0, # of connection points: 5
#     Node 2, Type 0, BuildingBlock: XOMCOT_clean_sbu_0, # of connection points: 5
#     Node 3, Type 0, BuildingBlock: XOMCOT_clean_sbu_0, # of connection points: 5
#     Node 4, Type 0, BuildingBlock: XOMCOT_clean_sbu_0, # of connection points: 5
#     Node 5, Type 0, BuildingBlock: XOMCOT_clean_sbu_0, # of connection points: 5
#     Node 6, Type 0, BuildingBlock: XOMCOT_clean_sbu_0, # of connection points: 5
#     Node 7, Type 0, BuildingBlock: XOMCOT_clean_sbu_0, # of connection points: 5
#     Node 8, Type 0, BuildingBlock: XOMCOT_clean_sbu_0, # of connection points: 5
#     Node 9, Type 0, BuildingBlock: XOMCOT_clean_sbu_0, # of connection points: 5
#     Node 10, Type 0, BuildingBlock: XOMCOT_clean_sbu_0, # of connection points: 5
#     Node 11, Type 0, BuildingBlock: XOMCOT_clean_sbu_0, # of connection points: 5
#     Node 12, Type 0, BuildingBlock: XOMCOT_clean_sbu_0, # of connection points: 5
#     Node 13, Type 0, BuildingBlock: XOMCOT_clean_sbu_0, # of connection points: 5
#     Node 14, Type 0, BuildingBlock: XOMCOT_clean_sbu_0, # of connection points: 5
#     Node 15, Type 0, BuildingBlock: XOMCOT_clean_sbu_0, # of connection points: 5
#     Node 16, Type 0, BuildingBlock: XOMCOT_clean_sbu_0, # of connection points: 5
#     Node 17, Type 0, BuildingBlock: XOMCOT_clean_sbu_0, # of connection points: 5
#     Node 18, Type 0, BuildingBlock: XOMCOT_clean_sbu_0, # of connection points: 5
#     Node 19, Type 0, BuildingBlock: XOMCOT_clean_sbu_0, # of connection points: 5
#     Node 20, Type 0, BuildingBlock: XOMCOT_clean_sbu_0, # of connection points: 5
#     Node 21, Type 0, BuildingBlock: XOMCOT_clean_sbu_0, # of connection points: 5
#     Node 22, Type 0, BuildingBlock: XOMCOT_clean_sbu_0, # of connection points: 5
#     Node 23, Type 0, BuildingBlock: XOMCOT_clean_sbu_0, # of connection points: 5
#     Node 24, Type 0, BuildingBlock: XOMCOT_clean_sbu_0, # of connection points: 5
#     Node 25, Type 0, BuildingBlock: XOMCOT_clean_sbu_0, # of connection points: 5
#     Node 26, Type 0, BuildingBlock: XOMCOT_clean_sbu_0, # of connection points: 5
#     Node 27, Type 0, BuildingBlock: XOMCOT_clean_sbu_0, # of connection points: 5
#     Node 28, Type 0, BuildingBlock: XOMCOT_clean_sbu_0, # of connection points: 5
#     Node 29, Type 0, BuildingBlock: XOMCOT_clean_sbu_0, # of connection points: 5
#     Node 30, Type 0, BuildingBlock: XOMCOT_clean_sbu_0, # of connection points: 5
#     Node 31, Type 0, BuildingBlock: XOMCOT_clean_sbu_0, # of connection points: 5
#     Node 32, Type 0, BuildingBlock: XOMCOT_clean_sbu_0, # of connection points: 5
#     Node 33, Type 0, BuildingBlock: XOMCOT_clean_sbu_0, # of connection points: 5
#     Node 34, Type 0, BuildingBlock: XOMCOT_clean_sbu_0, # of connection points: 5
#     Node 35, Type 0, BuildingBlock: XOMCOT_clean_sbu_0, # of connection points: 5
#     Node 36, Type 0, BuildingBlock: XOMCOT_clean_sbu_0, # of connection points: 5
#     Node 37, Type 0, BuildingBlock: XOMCOT_clean_sbu_0, # of connection points: 5
#     Node 38, Type 0, BuildingBlock: XOMCOT_clean_sbu_0, # of connection points: 5
#     Node 39, Type 0, BuildingBlock: XOMCOT_clean_sbu_0, # of connection points: 5
#     Node 40, Type 0, BuildingBlock: XOMCOT_clean_sbu_0, # of connection points: 5
#     Node 41, Type 0, BuildingBlock: XOMCOT_clean_sbu_0, # of connection points: 5
#     Node 42, Type 0, BuildingBlock: XOMCOT_clean_sbu_0, # of connection points: 5
#     Node 43, Type 0, BuildingBlock: XOMCOT_clean_sbu_0, # of connection points: 5
#     Node 44, Type 0, BuildingBlock: XOMCOT_clean_sbu_0, # of connection points: 5
#     Node 45, Type 0, BuildingBlock: XOMCOT_clean_sbu_0, # of connection points: 5
#     Node 46, Type 0, BuildingBlock: XOMCOT_clean_sbu_0, # of connection points: 5
#     Node 47, Type 0, BuildingBlock: XOMCOT_clean_sbu_0, # of connection points: 5
#     Edge 48, Type (0, 0), BuildingBlock: EZIPEK_clean_linker_0, # of connection points: 2
#     Edge 49, Type (0, 0), BuildingBlock: EZIPEK_clean_linker_0, # of connection points: 2
#     Edge 50, Type (0, 0), BuildingBlock: EZIPEK_clean_linker_0, # of connection points: 2
#     Edge 51, Type (0, 0), BuildingBlock: EZIPEK_clean_linker_0, # of connection points: 2
#     Edge 52, Type (0, 0), BuildingBlock: EZIPEK_clean_linker_0, # of connection points: 2
#     Edge 53, Type (0, 0), BuildingBlock: EZIPEK_clean_linker_0, # of connection points: 2
#     Edge 54, Type (0, 0), BuildingBlock: EZIPEK_clean_linker_0, # of connection points: 2
#     Edge 55, Type (0, 0), BuildingBlock: EZIPEK_clean_linker_0, # of connection points: 2
#     Edge 56, Type (0, 0), BuildingBlock: EZIPEK_clean_linker_0, # of connection points: 2
#     Edge 57, Type (0, 0), BuildingBlock: EZIPEK_clean_linker_0, # of connection points: 2
#     Edge 58, Type (0, 0), BuildingBlock: EZIPEK_clean_linker_0, # of connection points: 2
#     Edge 59, Type (0, 0), BuildingBlock: EZIPEK_clean_linker_0, # of connection points: 2
#     Edge 60, Type (0, 0), BuildingBlock: EZIPEK_clean_linker_0, # of connection points: 2
#     Edge 61, Type (0, 0), BuildingBlock: EZIPEK_clean_linker_0, # of connection points: 2
#     Edge 62, Type (0, 0), BuildingBlock: EZIPEK_clean_linker_0, # of connection points: 2
#     Edge 63, Type (0, 0), BuildingBlock: EZIPEK_clean_linker_0, # of connection points: 2
#     Edge 64, Type (0, 0), BuildingBlock: EZIPEK_clean_linker_0, # of connection points: 2
#     Edge 65, Type (0, 0), BuildingBlock: EZIPEK_clean_linker_0, # of connection points: 2
#     Edge 66, Type (0, 0), BuildingBlock: EZIPEK_clean_linker_0, # of connection points: 2
#     Edge 67, Type (0, 0), BuildingBlock: EZIPEK_clean_linker_0, # of connection points: 2
#     Edge 68, Type (0, 0), BuildingBlock: EZIPEK_clean_linker_0, # of connection points: 2
#     Edge 69, Type (0, 0), BuildingBlock: EZIPEK_clean_linker_0, # of connection points: 2
#     Edge 70, Type (0, 0), BuildingBlock: EZIPEK_clean_linker_0, # of connection points: 2
#     Edge 71, Type (0, 0), BuildingBlock: EZIPEK_clean_linker_0, # of connection points: 2
#     Edge 72, Type (0, 0), BuildingBlock: EZIPEK_clean_linker_0, # of connection points: 2
#     Edge 73, Type (0, 0), BuildingBlock: EZIPEK_clean_linker_0, # of connection points: 2
#     Edge 74, Type (0, 0), BuildingBlock: EZIPEK_clean_linker_0, # of connection points: 2
#     Edge 75, Type (0, 0), BuildingBlock: EZIPEK_clean_linker_0, # of connection points: 2
#     Edge 76, Type (0, 0), BuildingBlock: EZIPEK_clean_linker_0, # of connection points: 2
#     Edge 77, Type (0, 0), BuildingBlock: EZIPEK_clean_linker_0, # of connection points: 2
#     Edge 78, Type (0, 0), BuildingBlock: EZIPEK_clean_linker_0, # of connection points: 2
#     Edge 79, Type (0, 0), BuildingBlock: EZIPEK_clean_linker_0, # of connection points: 2
#     Edge 80, Type (0, 0), BuildingBlock: EZIPEK_clean_linker_0, # of connection points: 2
#     Edge 81, Type (0, 0), BuildingBlock: EZIPEK_clean_linker_0, # of connection points: 2
#     Edge 82, Type (0, 0), BuildingBlock: EZIPEK_clean_linker_0, # of connection points: 2
#     Edge 83, Type (0, 0), BuildingBlock: EZIPEK_clean_linker_0, # of connection points: 2
#     Edge 84, Type (0, 0), BuildingBlock: EZIPEK_clean_linker_0, # of connection points: 2
#     Edge 85, Type (0, 0), BuildingBlock: EZIPEK_clean_linker_0, # of connection points: 2
#     Edge 86, Type (0, 0), BuildingBlock: EZIPEK_clean_linker_0, # of connection points: 2
#     Edge 87, Type (0, 0), BuildingBlock: EZIPEK_clean_linker_0, # of connection points: 2
#     Edge 88, Type (0, 0), BuildingBlock: EZIPEK_clean_linker_0, # of connection points: 2
#     Edge 89, Type (0, 0), BuildingBlock: EZIPEK_clean_linker_0, # of connection points: 2
#     Edge 90, Type (0, 0), BuildingBlock: EZIPEK_clean_linker_0, # of connection points: 2
#     Edge 91, Type (0, 0), BuildingBlock: EZIPEK_clean_linker_0, # of connection points: 2
#     Edge 92, Type (0, 0), BuildingBlock: EZIPEK_clean_linker_0, # of connection points: 2
#     Edge 93, Type (0, 0), BuildingBlock: EZIPEK_clean_linker_0, # of connection points: 2
#     Edge 94, Type (0, 0), BuildingBlock: EZIPEK_clean_linker_0, # of connection points: 2
#     Edge 95, Type (0, 0), BuildingBlock: EZIPEK_clean_linker_0, # of connection points: 2
#     Edge 96, Type (0, 0), BuildingBlock: EZIPEK_clean_linker_0, # of connection points: 2
#     Edge 97, Type (0, 0), BuildingBlock: EZIPEK_clean_linker_0, # of connection points: 2
#     Edge 98, Type (0, 0), BuildingBlock: EZIPEK_clean_linker_0, # of connection points: 2
#     Edge 99, Type (0, 0), BuildingBlock: EZIPEK_clean_linker_0, # of connection points: 2
#     Edge 100, Type (0, 0), BuildingBlock: EZIPEK_clean_linker_0, # of connection points: 2
#     Edge 101, Type (0, 0), BuildingBlock: EZIPEK_clean_linker_0, # of connection points: 2
#     Edge 102, Type (0, 0), BuildingBlock: EZIPEK_clean_linker_0, # of connection points: 2
#     Edge 103, Type (0, 0), BuildingBlock: EZIPEK_clean_linker_0, # of connection points: 2
#     Edge 104, Type (0, 0), BuildingBlock: EZIPEK_clean_linker_0, # of connection points: 2
#     Edge 105, Type (0, 0), BuildingBlock: EZIPEK_clean_linker_0, # of connection points: 2
#     Edge 106, Type (0, 0), BuildingBlock: EZIPEK_clean_linker_0, # of connection points: 2
#     Edge 107, Type (0, 0), BuildingBlock: EZIPEK_clean_linker_0, # of connection points: 2
#     Edge 108, Type (0, 0), BuildingBlock: EZIPEK_clean_linker_0, # of connection points: 2
#     Edge 109, Type (0, 0), BuildingBlock: EZIPEK_clean_linker_0, # of connection points: 2
#     Edge 110, Type (0, 0), BuildingBlock: EZIPEK_clean_linker_0, # of connection points: 2
#     Edge 111, Type (0, 0), BuildingBlock: EZIPEK_clean_linker_0, # of connection points: 2
#     Edge 112, Type (0, 0), BuildingBlock: EZIPEK_clean_linker_0, # of connection points: 2
#     Edge 113, Type (0, 0), BuildingBlock: EZIPEK_clean_linker_0, # of connection points: 2
#     Edge 114, Type (0, 0), BuildingBlock: EZIPEK_clean_linker_0, # of connection points: 2
#     Edge 115, Type (0, 0), BuildingBlock: EZIPEK_clean_linker_0, # of connection points: 2
#     Edge 116, Type (0, 0), BuildingBlock: EZIPEK_clean_linker_0, # of connection points: 2
#     Edge 117, Type (0, 0), BuildingBlock: EZIPEK_clean_linker_0, # of connection points: 2
#     Edge 118, Type (0, 0), BuildingBlock: EZIPEK_clean_linker_0, # of connection points: 2
#     Edge 119, Type (0, 0), BuildingBlock: EZIPEK_clean_linker_0, # of connection points: 2
#     Edge 120, Type (0, 0), BuildingBlock: EZIPEK_clean_linker_0, # of connection points: 2
#     Edge 121, Type (0, 0), BuildingBlock: EZIPEK_clean_linker_0, # of connection points: 2
#     Edge 122, Type (0, 0), BuildingBlock: EZIPEK_clean_linker_0, # of connection points: 2
#     Edge 123, Type (0, 0), BuildingBlock: EZIPEK_clean_linker_0, # of connection points: 2
#     Edge 124, Type (0, 0), BuildingBlock: EZIPEK_clean_linker_0, # of connection points: 2
#     Edge 125, Type (0, 0), BuildingBlock: EZIPEK_clean_linker_0, # of connection points: 2
#     Edge 126, Type (0, 0), BuildingBlock: EZIPEK_clean_linker_0, # of connection points: 2
#     Edge 127, Type (0, 0), BuildingBlock: EZIPEK_clean_linker_0, # of connection points: 2
#     Edge 128, Type (0, 0), BuildingBlock: EZIPEK_clean_linker_0, # of connection points: 2
#     Edge 129, Type (0, 0), BuildingBlock: EZIPEK_clean_linker_0, # of connection points: 2
#     Edge 130, Type (0, 0), BuildingBlock: EZIPEK_clean_linker_0, # of connection points: 2
#     Edge 131, Type (0, 0), BuildingBlock: EZIPEK_clean_linker_0, # of connection points: 2
#     Edge 132, Type (0, 0), BuildingBlock: EZIPEK_clean_linker_0, # of connection points: 2
#     Edge 133, Type (0, 0), BuildingBlock: EZIPEK_clean_linker_0, # of connection points: 2
#     Edge 134, Type (0, 0), BuildingBlock: EZIPEK_clean_linker_0, # of connection points: 2
#     Edge 135, Type (0, 0), BuildingBlock: EZIPEK_clean_linker_0, # of connection points: 2
#     Edge 136, Type (0, 0), BuildingBlock: EZIPEK_clean_linker_0, # of connection points: 2
#     Edge 137, Type (0, 0), BuildingBlock: EZIPEK_clean_linker_0, # of connection points: 2
#     Edge 138, Type (0, 0), BuildingBlock: EZIPEK_clean_linker_0, # of connection points: 2
#     Edge 139, Type (0, 0), BuildingBlock: EZIPEK_clean_linker_0, # of connection points: 2
#     Edge 140, Type (0, 0), BuildingBlock: EZIPEK_clean_linker_0, # of connection points: 2
#     Edge 141, Type (0, 0), BuildingBlock: EZIPEK_clean_linker_0, # of connection points: 2
#     Edge 142, Type (0, 0), BuildingBlock: EZIPEK_clean_linker_0, # of connection points: 2
#     Edge 143, Type (0, 0), BuildingBlock: EZIPEK_clean_linker_0, # of connection points: 2
#     Edge 144, Type (0, 0), BuildingBlock: EZIPEK_clean_linker_0, # of connection points: 2
#     Edge 145, Type (0, 0), BuildingBlock: EZIPEK_clean_linker_0, # of connection points: 2
#     Edge 146, Type (0, 0), BuildingBlock: EZIPEK_clean_linker_0, # of connection points: 2
#     Edge 147, Type (0, 0), BuildingBlock: EZIPEK_clean_linker_0, # of connection points: 2
#     Edge 148, Type (0, 0), BuildingBlock: EZIPEK_clean_linker_0, # of connection points: 2
#     Edge 149, Type (0, 0), BuildingBlock: EZIPEK_clean_linker_0, # of connection points: 2
#     Edge 150, Type (0, 0), BuildingBlock: EZIPEK_clean_linker_0, # of connection points: 2
#     Edge 151, Type (0, 0), BuildingBlock: EZIPEK_clean_linker_0, # of connection points: 2
#     Edge 152, Type (0, 0), BuildingBlock: EZIPEK_clean_linker_0, # of connection points: 2
#     Edge 153, Type (0, 0), BuildingBlock: EZIPEK_clean_linker_0, # of connection points: 2
#     Edge 154, Type (0, 0), BuildingBlock: EZIPEK_clean_linker_0, # of connection points: 2
#     Edge 155, Type (0, 0), BuildingBlock: EZIPEK_clean_linker_0, # of connection points: 2
#     Edge 156, Type (0, 0), BuildingBlock: EZIPEK_clean_linker_0, # of connection points: 2
#     Edge 157, Type (0, 0), BuildingBlock: EZIPEK_clean_linker_0, # of connection points: 2
#     Edge 158, Type (0, 0), BuildingBlock: EZIPEK_clean_linker_0, # of connection points: 2
#     Edge 159, Type (0, 0), BuildingBlock: EZIPEK_clean_linker_0, # of connection points: 2
#     Edge 160, Type (0, 0), BuildingBlock: EZIPEK_clean_linker_0, # of connection points: 2
#     Edge 161, Type (0, 0), BuildingBlock: EZIPEK_clean_linker_0, # of connection points: 2
#     Edge 162, Type (0, 0), BuildingBlock: EZIPEK_clean_linker_0, # of connection points: 2
#     Edge 163, Type (0, 0), BuildingBlock: EZIPEK_clean_linker_0, # of connection points: 2
#     Edge 164, Type (0, 0), BuildingBlock: EZIPEK_clean_linker_0, # of connection points: 2
#     Edge 165, Type (0, 0), BuildingBlock: EZIPEK_clean_linker_0, # of connection points: 2
#     Edge 166, Type (0, 0), BuildingBlock: EZIPEK_clean_linker_0, # of connection points: 2
#     Edge 167, Type (0, 0), BuildingBlock: EZIPEK_clean_linker_0, # of connection points: 2
# Relax obj value: 0.236
# Max RMSD: 0.207
# Mean RMSD: 0.204
data_MOF--net-ubt--node1-XOMCOT_clean_sbu_0--edge1-EZIPEK_clean_linker_0
_symmetry_space_group_name_H-M    P1
_symmetry_Int_Tables_number       1
_symmetry_cell_setting            triclinic
loop_
_symmetry_equiv_pos_as_xyz
'x, y, z'
_cell_length_a     54.962246
_cell_length_b     54.757551
_cell_length_c     55.464548
_cell_angle_alpha  89.934246
_cell_angle_beta   89.851374
_cell_angle_gamma 89.944377
loop_
_atom_site_label
_atom_site_type_symbol
_atom_site_fract_x
_atom_site_fract_y
_atom_site_fract_z
_atom_type_partial_charge
Co0 Co 1.00007 0.14767 0.16007 0.0
C1 C 0.96059 0.16995 0.12784 0.0
C2 C 0.98953 0.15048 0.11038 0.0
C3 C 0.97381 0.15804 0.0931 0.0
N4 N 0.98175 0.15806 0.13219 0.0
N5 N 0.95545 0.17009 0.10379 0.0
H6 H 0.94885 0.17718 0.1418 0.0
H7 H 0.00531 0.13908 0.10731 0.0
C8 C 0.04893 0.16926 0.14589 0.0
O9 O 0.05196 0.17681 0.16817 0.0
N10 N 0.0211 0.13502 0.18525 0.0
C11 C 0.02153 0.13636 0.2096 0.0
C12 C 0.03993 0.12126 0.21805 0.0
C13 C 0.03904 0.1192 0.17948 0.0
N14 N 0.05074 0.11059 0.19893 0.0
C15 C 0.98469 0.1807 0.1968 0.0
C16 C 0.00487 0.2234 0.17974 0.0
C17 C 0.9935 0.22345 0.20242 0.0
C18 C 0.9826 0.20194 0.21042 0.0
C19 C 0.00601 0.20163 0.16628 0.0
N20 N 0.99747 0.18008 0.17558 0.0
H21 H 0.97637 0.16452 0.20408 0.0
H22 H 0.01432 0.20232 0.14885 0.0
H23 H 0.00917 0.14665 0.22076 0.0
H24 H 0.04306 0.11352 0.16121 0.0
O25 O 0.97146 0.13422 0.17537 0.0
O26 O 0.9942 0.1134 0.15002 0.0
O27 O 0.03025 0.15652 0.14051 0.0
C28 C 0.97531 0.11392 0.16439 0.0
H29 H 0.97468 0.1533 0.07415 0.0
H30 H 0.0446 0.1179 0.23671 0.0
H31 H 0.01308 0.23991 0.17268 0.0
H32 H 0.97322 0.20133 0.22762 0.0
Co33 Co 0.84699 0.9974 0.15468 0.0
C34 C 0.87841 0.03917 0.17182 0.0
C35 C 0.8874 0.0053 0.1885 0.0
C36 C 0.90527 0.02185 0.19367 0.0
N37 N 0.87027 0.01586 0.17461 0.0
N38 N 0.89978 0.04366 0.18368 0.0
H39 H 0.86958 0.05176 0.15991 0.0
H40 H 0.88867 0.98611 0.19264 0.0
C41 C 0.86115 0.94516 0.16304 0.0
O42 O 0.83794 0.93975 0.16456 0.0
N43 N 0.82622 0.97812 0.13348 0.0
C44 C 0.80337 0.96908 0.13528 0.0
C45 C 0.79924 0.95364 0.11592 0.0
C46 C 0.83528 0.9682 0.11305 0.0
N47 N 0.81949 0.95315 0.10217 0.0
C48 C 0.8046 1.00055 0.18438 0.0
C49 C 0.81996 0.97198 0.22243 0.0
C50 C 0.79655 0.98213 0.22316 0.0
C51 C 0.78912 0.99685 0.20396 0.0
C52 C 0.83526 0.97684 0.2027 0.0
N53 N 0.82715 0.99001 0.18333 0.0
H54 H 0.79789 0.01149 0.16965 0.0
H55 H 0.85345 0.9697 0.20317 0.0
H56 H 0.79087 0.97208 0.14997 0.0
H57 H 0.85379 0.97082 0.1069 0.0
O58 O 0.82975 0.0267 0.14553 0.0
O59 O 0.8611 0.01182 0.12537 0.0
O60 O 0.86802 0.96713 0.15872 0.0
C61 C 0.84351 0.02785 0.12668 0.0
H62 H 0.9223 0.01723 0.20231 0.0
H63 H 0.78325 0.94252 0.11299 0.0
H64 H 0.82649 0.96075 0.23715 0.0
H65 H 0.77125 0.00523 0.20397 0.0
Co66 Co 0.9994 0.84531 0.15328 0.0
C67 C 0.95539 0.8668 0.17669 0.0
C68 C 0.98494 0.89198 0.17413 0.0
C69 C 0.96447 0.9048 0.18003 0.0
N70 N 0.97943 0.86808 0.1717 0.0
N71 N 0.94567 0.88919 0.18063 0.0
H72 H 0.94493 0.8502 0.17548 0.0
H73 H 1.00168 0.90044 0.16866 0.0
C74 C 0.03886 0.87333 0.18078 0.0
O75 O 0.02788 0.87122 0.20163 0.0
N76 N 0.02121 0.82488 0.13398 0.0
C77 C 0.04283 0.81673 0.14251 0.0
C78 C 0.05906 0.81423 0.12382 0.0
C79 C 0.02487 0.82675 0.10988 0.0
N80 N 0.04784 0.82102 0.10342 0.0
C81 C 0.00336 0.79791 0.17573 0.0
C82 C 0.99954 0.8125 0.22312 0.0
C83 C 0.00433 0.7879 0.21818 0.0
C84 C 0.00598 0.78062 0.19408 0.0
C85 C 0.99786 0.82934 0.20416 0.0
N86 N 1.00147 0.82235 0.1807 0.0
H87 H 0.00293 0.7914 0.15737 0.0
H88 H 0.99292 0.84776 0.20872 0.0
H89 H 0.04774 0.81624 0.16138 0.0
H90 H 0.01241 0.83532 0.09759 0.0
O91 O 0.97075 0.83136 0.13815 0.0
O92 O 0.99024 0.86362 0.12455 0.0
O93 O 0.02992 0.86386 0.16182 0.0
C94 C 0.97234 0.8483 0.12174 0.0
H95 H 0.96282 0.92452 0.17994 0.0
H96 H 0.07842 0.81096 0.12551 0.0
H97 H 0.99693 0.81863 0.24151 0.0
H98 H 0.00861 0.76158 0.18946 0.0
Co99 Co 0.15572 1.0016 0.16156 0.0
C100 C 0.12288 0.95966 0.17147 0.0
C101 C 0.13215 0.97766 0.20433 0.0
C102 C 0.11637 0.9589 0.20966 0.0
N103 N 0.13619 0.97835 0.18022 0.0
N104 N 0.11073 0.9477 0.18891 0.0
H105 H 0.12136 0.95494 0.15274 0.0
H106 H 0.14041 0.98938 0.21754 0.0
C107 C 0.12671 0.03881 0.19079 0.0
O108 O 0.13729 0.03207 0.21085 0.0
N109 N 0.17438 0.02467 0.1429 0.0
C110 C 0.19873 0.02568 0.13994 0.0
C111 C 0.20417 0.0453 0.12524 0.0
C112 C 0.1653 0.04332 0.1299 0.0
N113 N 0.18309 0.0562 0.11909 0.0
C114 C 0.18673 0.98647 0.19911 0.0
C115 C 0.20199 0.03214 0.21392 0.0
C116 C 0.21097 0.01121 0.22536 0.0
C117 C 0.20337 0.98822 0.21776 0.0
C118 C 0.18512 0.02954 0.19529 0.0
N119 N 0.17698 0.0069 0.18882 0.0
H120 H 0.18153 0.96854 0.19285 0.0
H121 H 0.1787 0.04559 0.18595 0.0
H122 H 0.21156 0.01312 0.148 0.0
H123 H 0.1461 0.04742 0.12835 0.0
O124 O 0.17403 0.97524 0.14761 0.0
O125 O 0.14061 0.99057 0.13162 0.0
O126 O 0.1321 0.02882 0.17057 0.0
C127 C 0.15842 0.97483 0.13011 0.0
H128 H 0.10953 0.95388 0.2273 0.0
H129 H 0.22208 0.05111 0.11947 0.0
H130 H 0.20816 0.05014 0.21915 0.0
H131 H 0.21057 0.97176 0.22595 0.0
Co132 Co 0.01091 0.85586 0.84593 0.0
C133 C 0.05382 0.88951 0.84134 0.0
C134 C 0.03769 0.88224 0.80711 0.0
C135 C 0.05546 0.89964 0.804 0.0
N136 N 0.03624 0.87599 0.83067 0.0
N137 N 0.06557 0.90419 0.82557 0.0
H138 H 0.05797 0.88903 0.86017 0.0
H139 H 0.02681 0.87468 0.79285 0.0
C140 C 0.97665 0.88715 0.81508 0.0
O141 O 0.98343 0.87713 0.7947 0.0
N142 N 0.9853 0.83705 0.86108 0.0
C143 C 0.98375 0.81279 0.86393 0.0
C144 C 0.96257 0.80764 0.87627 0.0
C145 C 0.96517 0.84623 0.87163 0.0
N146 N 0.94996 0.82865 0.88015 0.0
C147 C 0.03007 0.8253 0.80891 0.0
C148 C 0.98644 0.81019 0.78925 0.0
C149 C 0.00821 0.80016 0.78044 0.0
C150 C 0.03019 0.80796 0.79043 0.0
C151 C 0.98712 0.82748 0.80792 0.0
N152 N 0.00882 0.83524 0.8172 0.0
H153 H 0.04717 0.83043 0.81703 0.0
H154 H 0.97021 0.83419 0.81534 0.0
H155 H 0.99751 0.79985 0.85828 0.0
H156 H 0.96233 0.86564 0.87376 0.0
O157 O 0.03505 0.83678 0.86301 0.0
O158 O 0.01777 0.87034 0.87718 0.0
O159 O 0.98553 0.88034 0.83524 0.0
C160 C 0.0327 0.8522 0.8807 0.0
H161 H 0.06069 0.90825 0.78719 0.0
H162 H 0.95812 0.78966 0.88278 0.0
H163 H 0.96908 0.80418 0.78223 0.0
H164 H 0.04731 0.80028 0.78434 0.0
Co165 Co 0.16993 0.01765 0.85705 0.0
C166 C 0.13169 0.05402 0.8474 0.0
C167 C 0.15745 0.05401 0.81833 0.0
C168 C 0.13978 0.0713 0.81361 0.0
N169 N 0.15217 0.04285 0.83942 0.0
N170 N 0.12394 0.0717 0.83224 0.0
H171 H 0.12297 0.04994 0.86444 0.0
H172 H 0.17347 0.05075 0.80747 0.0
C173 C 0.14462 0.97109 0.8444 0.0
O174 O 0.16628 0.96104 0.84353 0.0
N175 N 0.18621 0.99228 0.87624 0.0
C176 C 0.20589 0.97802 0.87173 0.0
C177 C 0.20718 0.95985 0.88881 0.0
C178 C 0.17631 0.98255 0.89647 0.0
N179 N 0.18852 0.96264 0.90427 0.0
C180 C 0.21254 0.01345 0.82846 0.0
C181 C 0.19136 0.99912 0.78572 0.0
C182 C 0.21671 0.00246 0.78657 0.0
C183 C 0.2272 0.00896 0.80858 0.0
C184 C 0.1774 1.00202 0.80681 0.0
N185 N 0.18813 0.00895 0.82797 0.0
H186 H 0.22115 0.01983 0.84474 0.0
H187 H 0.15786 1.00023 0.80573 0.0
H188 H 0.21762 0.9787 0.85625 0.0
H189 H 0.15942 0.98884 0.9044 0.0
O190 O 0.1924 0.04205 0.86879 0.0
O191 O 0.15804 0.03195 0.88708 0.0
O192 O 0.14255 0.99387 0.84936 0.0
C193 C 0.17753 0.04552 0.88653 0.0
H194 H 0.13944 0.08373 0.79842 0.0
H195 H 0.22002 0.94485 0.88906 0.0
H196 H 0.18243 0.9948 0.76887 0.0
H197 H 0.24664 0.01184 0.8101 0.0
Co198 Co 1.00115 0.16713 0.86434 0.0
C199 C 0.96095 0.13387 0.85004 0.0
C200 C 0.98822 0.13699 0.82258 0.0
C201 C 0.97271 0.11822 0.81644 0.0
N202 N 0.98097 0.14673 0.8438 0.0
N203 N 0.95578 0.11631 0.83389 0.0
H204 H 0.95098 0.13615 0.86656 0.0
H205 H 0.00475 0.14191 0.81313 0.0
C206 C 0.05216 0.14366 0.85992 0.0
O207 O 0.06226 0.16161 0.87181 0.0
N208 N 0.02127 0.18636 0.88571 0.0
C209 C 0.02585 0.21057 0.88604 0.0
C210 C 0.03949 0.2158 0.90636 0.0
C211 C 0.03113 0.17753 0.90618 0.0
N212 N 0.04278 0.19485 0.91877 0.0
C213 C 0.98912 0.19693 0.82406 0.0
C214 C 0.03564 0.2107 0.81081 0.0
C215 C 0.01582 0.2197 0.79765 0.0
C216 C 0.99235 0.21266 0.80447 0.0
C217 C 0.03155 0.19506 0.83046 0.0
N218 N 0.00854 0.18806 0.83669 0.0
H219 H 0.97083 0.19188 0.82924 0.0
H220 H 0.04676 0.18951 0.84117 0.0
H221 H 0.01976 0.22349 0.87257 0.0
H222 H 0.03096 0.15838 0.91111 0.0
O223 O 0.97342 0.18535 0.87584 0.0
O224 O 0.98712 0.15176 0.89323 0.0
O225 O 0.02913 0.14359 0.85601 0.0
C226 C 0.97164 0.16992 0.89349 0.0
H227 H 0.97455 0.10599 0.80123 0.0
H228 H 0.04732 0.23328 0.91108 0.0
H229 H 0.05403 0.21616 0.80624 0.0
H230 H 0.97662 0.21942 0.7948 0.0
Co231 Co 0.85513 0.01058 0.84439 0.0
C232 C 0.84174 0.04908 0.88008 0.0
C233 C 0.81064 0.02922 0.86761 0.0
C234 C 0.80306 0.04524 0.88511 0.0
N235 N 0.83485 0.03193 0.86398 0.0
N236 N 0.82264 0.05761 0.89277 0.0
H237 H 0.8603 0.05465 0.88333 0.0
H238 H 0.79932 0.01563 0.85907 0.0
C239 C 0.84773 0.96084 0.86977 0.0
O240 O 0.86004 0.94855 0.85358 0.0
N241 N 0.87538 0.98911 0.82499 0.0
C242 C 0.87384 0.9858 0.80092 0.0
C243 C 0.89158 0.96955 0.79379 0.0
C244 C 0.89485 0.97577 0.83196 0.0
N245 N 0.90454 0.96316 0.81336 0.0
C246 C 0.81808 0.02471 0.81198 0.0
C247 C 0.79842 0.979 0.80382 0.0
C248 C 0.78828 0.99946 0.79253 0.0
C249 C 0.79828 0.02248 0.7966 0.0
C250 C 0.81833 0.98206 0.81915 0.0
N251 N 0.82766 0.00476 0.82329 0.0
H252 H 0.8255 0.04267 0.81524 0.0
H253 H 0.82657 0.96621 0.82704 0.0
H254 H 0.86062 0.99443 0.78929 0.0
H255 H 0.90113 0.97446 0.8504 0.0
O256 O 0.86874 0.0378 0.82695 0.0
O257 O 0.88414 0.02273 0.86065 0.0
O258 O 0.8445 0.98387 0.86763 0.0
C259 C 0.88538 0.039 0.84341 0.0
H260 H 0.78487 0.04695 0.89247 0.0
H261 H 0.8944 0.96244 0.77579 0.0
H262 H 0.79123 0.96089 0.80054 0.0
H263 H 0.79087 0.03856 0.78791 0.0
Co264 Co 0.14771 0.16186 0.01258 0.0
C265 C 0.17275 0.13406 0.97163 0.0
C266 C 0.14556 0.11472 0.99196 0.0
C267 C 0.15398 0.09952 0.97451 0.0
N268 N 0.15678 0.13652 0.99013 0.0
N269 N 0.17095 0.11146 0.96162 0.0
H270 H 0.18497 0.14828 0.96553 0.0
H271 H 0.13191 0.11017 0.00529 0.0
C272 C 0.1682 0.14016 0.05834 0.0
O273 O 0.17624 0.1617 0.06504 0.0
N274 N 0.1368 0.18468 0.03712 0.0
C275 C 0.13932 0.209 0.04046 0.0
C276 C 0.1266 0.21563 0.0611 0.0
C277 C 0.1225 0.17713 0.05546 0.0
N278 N 0.11634 0.19537 0.07044 0.0
C279 C 0.18083 0.19956 0.99969 0.0
C280 C 0.22355 0.18026 0.01729 0.0
C281 C 0.22374 0.20387 0.00731 0.0
C282 C 0.20215 0.21304 0.99784 0.0
C283 C 0.20158 0.16694 0.01829 0.0
N284 N 0.18016 0.1772 0.01074 0.0
H285 H 0.16463 0.20795 0.99268 0.0
H286 H 0.202 0.14869 0.02537 0.0
H287 H 0.14898 0.22138 0.02875 0.0
H288 H 0.1162 0.15851 0.05753 0.0
O289 O 0.1332 0.18095 0.98723 0.0
O290 O 0.11339 0.15265 0.00744 0.0
O291 O 0.15667 0.13774 0.0386 0.0
C292 C 0.11325 0.16899 0.99032 0.0
H293 H 0.14801 0.08096 0.9713 0.0
H294 H 0.12447 0.23388 0.06827 0.0
H295 H 0.24009 0.17236 0.02448 0.0
H296 H 0.20157 0.23105 0.98974 0.0
Co297 Co 0.14937 0.8527 0.00875 0.0
C298 C 0.15609 0.88044 0.05461 0.0
C299 C 0.18963 0.87283 0.03664 0.0
C300 C 0.19411 0.88802 0.05572 0.0
N301 N 0.16574 0.8678 0.03595 0.0
N302 N 0.17313 0.89234 0.06792 0.0
H303 H 0.13682 0.8828 0.05682 0.0
H304 H 0.20267 0.86776 0.02291 0.0
C305 C 0.16415 0.88318 0.96562 0.0
O306 O 0.15905 0.86517 0.95097 0.0
N307 N 0.13274 0.83812 0.98138 0.0
C308 C 0.13693 0.8165 0.97044 0.0
C309 C 0.12044 0.8137 0.95188 0.0
C310 C 0.11336 0.84775 0.96977 0.0
N311 N 0.10566 0.83336 0.95163 0.0
C312 C 0.18091 0.81363 0.02148 0.0
C313 C 0.21217 0.81503 0.98246 0.0
C314 C 0.21486 0.79647 0.99961 0.0
C315 C 0.19921 0.79607 0.01945 0.0
C316 C 0.19355 0.83236 0.98518 0.0
N317 N 0.17768 0.83119 0.00422 0.0
H318 H 0.16927 0.813 0.03715 0.0
H319 H 0.19223 0.84636 0.97183 0.0
H320 H 0.15085 0.80354 0.97552 0.0
H321 H 0.10511 0.86509 0.9743 0.0
O322 O 0.13081 0.83161 0.02978 0.0
O323 O 0.1188 0.86812 0.01793 0.0
O324 O 0.16288 0.88042 0.98844 0.0
C325 C 0.11411 0.84837 0.03019 0.0
H326 H 0.21135 0.89698 0.05848 0.0
H327 H 0.11924 0.79837 0.93962 0.0
H328 H 0.22426 0.81602 0.96704 0.0
H329 H 0.20104 0.78217 0.03324 0.0
Co330 Co 0.85127 0.15445 0.00771 0.0
C331 C 0.83007 0.12331 0.04946 0.0
C332 C 0.84542 0.10434 0.01942 0.0
C333 C 0.83905 0.08746 0.03621 0.0
N334 N 0.83917 0.12697 0.02688 0.0
N335 N 0.82937 0.09909 0.05519 0.0
H336 H 0.82551 0.13769 0.06191 0.0
H337 H 0.85577 0.10029 0.00332 0.0
C338 C 0.82362 0.12472 0.97205 0.0
O339 O 0.80429 0.12808 0.98562 0.0
N340 N 0.86587 0.17848 0.9868 0.0
C341 C 0.86619 0.20295 0.98635 0.0
C342 C 0.88178 0.21018 0.96796 0.0
C343 C 0.88119 0.1714 0.96924 0.0
N344 N 0.89069 0.1901 0.9564 0.0
C345 C 0.8088 0.17749 0.02732 0.0
C346 C 0.79224 0.19753 0.98467 0.0
C347 C 0.78109 0.20432 0.00636 0.0
C348 C 0.7892 0.19375 0.02781 0.0
C349 C 0.8117 0.18102 0.98498 0.0
N350 N 0.81983 0.17113 0.00614 0.0
H351 H 0.81626 0.17164 0.04423 0.0
H352 H 0.82124 0.17744 0.9684 0.0
H353 H 0.85675 0.21462 0.99903 0.0
H354 H 0.88618 0.15245 0.96679 0.0
O355 O 0.86276 0.17142 0.03577 0.0
O356 O 0.88422 0.14368 0.01583 0.0
O357 O 0.84399 0.13448 0.97774 0.0
C358 C 0.88291 0.15946 0.03347 0.0
H359 H 0.8431 0.06811 0.03542 0.0
H360 H 0.88656 0.22894 0.96482 0.0
H361 H 0.78673 0.20584 0.96781 0.0
H362 H 0.78141 0.19917 0.04495 0.0
Co363 Co 0.8512 0.85705 0.99708 0.0
C364 C 0.8896 0.85059 0.03429 0.0
C365 C 0.88432 0.81796 0.01371 0.0
C366 C 0.90363 0.81428 0.02913 0.0
N367 N 0.87517 0.84062 0.01722 0.0
N368 N 0.90678 0.83488 0.04189 0.0
H369 H 0.8881 0.86905 0.04098 0.0
H370 H 0.87774 0.80506 1.00052 0.0
C371 C 0.87218 0.85135 0.9459 0.0
O372 O 0.85132 0.85679 0.9359 0.0
N373 N 0.82863 0.87452 0.97668 0.0
C374 C 0.80465 0.87123 0.97272 0.0
C375 C 0.79714 0.88812 0.95565 0.0
C376 C 0.83496 0.89397 0.9632 0.0
N377 N 0.81652 0.90191 0.94939 0.0
C378 C 0.82677 0.8152 0.01401 0.0
C379 C 0.81077 0.79617 0.97084 0.0
C380 C 0.80278 0.78565 0.99249 0.0
C381 C 0.81137 0.79503 0.0142 0.0
C382 C 0.82641 0.81642 0.97143 0.0
N383 N 0.83388 0.82606 0.99291 0.0
H384 H 0.83252 0.82261 0.03111 0.0
H385 H 0.83126 0.82472 0.95467 0.0
H386 H 0.79363 0.85715 0.98098 0.0
H387 H 0.85335 0.90095 0.96208 0.0
O388 O 0.83237 0.86747 0.02449 0.0
O389 O 0.86271 0.88875 0.00906 0.0
O390 O 0.87466 0.85081 0.96892 0.0
C391 C 0.84555 0.88695 0.02541 0.0
H392 H 0.91445 0.79785 0.03093 0.0
H393 H 0.77932 0.88926 0.94745 0.0
H394 H 0.80423 0.78938 0.9537 0.0
H395 H 0.80548 0.78736 0.03126 0.0
Co396 Co 0.00382 0.65388 0.65672 0.0
C397 C 0.96533 0.67856 0.62664 0.0
C398 C 0.99755 0.66934 0.60716 0.0
C399 C 0.98007 0.67543 0.59084 0.0
N400 N 0.98869 0.67135 0.62986 0.0
N401 N 0.95951 0.68024 0.60296 0.0
H402 H 0.95219 0.68027 0.64099 0.0
H403 H 0.01421 0.6603 0.60217 0.0
C404 C 0.04662 0.67713 0.6318 0.0
O405 O 0.03519 0.6982 0.63303 0.0
N406 N 0.0205 0.63472 0.6809 0.0
C407 C 0.02477 0.63809 0.70461 0.0
C408 C 0.04388 0.62291 0.71136 0.0
C409 C 0.03625 0.61723 0.67396 0.0
N410 N 0.05097 0.60994 0.69186 0.0
C411 C 0.98702 0.69602 0.68223 0.0
C412 C 0.03115 0.71089 0.70092 0.0
C413 C 0.00991 0.72326 0.70788 0.0
C414 C 0.98772 0.71575 0.69818 0.0
C415 C 0.02964 0.69104 0.68496 0.0
N416 N 0.00771 0.68387 0.67566 0.0
H417 H 0.96954 0.68985 0.67605 0.0
H418 H 0.04598 0.68083 0.68093 0.0
H419 H 0.01616 0.65186 0.7157 0.0
H420 H 0.03853 0.6116 0.65538 0.0
O421 O 0.97243 0.64394 0.66962 0.0
O422 O 0.9928 0.62317 0.64217 0.0
O423 O 0.03669 0.65805 0.64066 0.0
C424 C 0.97369 0.62464 0.65615 0.0
H425 H 0.98121 0.6725 0.57155 0.0
H426 H 0.05289 0.62264 0.72869 0.0
H427 H 0.04859 0.71598 0.70842 0.0
H428 H 0.97092 0.72466 0.70344 0.0
Co429 Co 0.84716 0.50397 0.64817 0.0
C430 C 0.88642 0.53961 0.65629 0.0
C431 C 0.86858 0.53234 0.68985 0.0
C432 C 0.88774 0.54806 0.69401 0.0
N433 N 0.86754 0.52709 0.66601 0.0
N434 N 0.89882 0.55247 0.67282 0.0
H435 H 0.89145 0.53931 0.63751 0.0
H436 H 0.85691 0.52491 0.70369 0.0
C437 C 0.88058 0.47029 0.67513 0.0
O438 O 0.87367 0.48073 0.69528 0.0
N439 N 0.82916 0.48059 0.629 0.0
C440 C 0.80669 0.47097 0.63114 0.0
C441 C 0.80384 0.45335 0.61342 0.0
C442 C 0.83919 0.46935 0.60975 0.0
N443 N 0.82436 0.45254 0.59995 0.0
C444 C 0.81408 0.51581 0.68606 0.0
C445 C 0.80632 0.46934 0.70392 0.0
C446 C 0.79318 0.48891 0.71373 0.0
C447 C 0.79725 0.51233 0.70463 0.0
C448 C 0.82303 0.47363 0.6852 0.0
N449 N 0.8272 0.49675 0.67676 0.0
H450 H 0.81668 0.53408 0.67918 0.0
H451 H 0.83191 0.45825 0.67701 0.0
H452 H 0.79341 0.47605 0.64466 0.0
H453 H 0.85744 0.47298 0.60332 0.0
O454 O 0.82727 0.53035 0.63643 0.0
O455 O 0.85978 0.5169 0.61765 0.0
O456 O 0.87181 0.47723 0.6549 0.0
C457 C 0.8414 0.53197 0.61781 0.0
H458 H 0.89293 0.55593 0.71114 0.0
H459 H 0.78795 0.44206 0.61061 0.0
H460 H 0.80322 0.45089 0.71027 0.0
H461 H 0.78724 0.52784 0.71166 0.0
Co462 Co 0.99718 0.34252 0.65367 0.0
C463 C 0.96073 0.38043 0.66626 0.0
C464 C 0.97301 0.36249 0.6983 0.0
C465 C 0.95686 0.38061 0.70483 0.0
N466 N 0.97533 0.36208 0.67397 0.0
N467 N 0.94931 0.39174 0.68461 0.0
H468 H 0.95852 0.38586 0.64766 0.0
H469 H 0.98275 0.35107 0.71087 0.0
C470 C 0.03366 0.37398 0.68044 0.0
O471 O 0.02596 0.36597 0.7014 0.0
N472 N 0.01913 0.32449 0.63308 0.0
C473 C 0.01818 0.3011 0.62601 0.0
C474 C 0.03734 0.29688 0.6104 0.0
C475 C 0.03837 0.33411 0.62148 0.0
N476 N 0.05106 0.31744 0.60846 0.0
C477 C 0.98626 0.30817 0.69091 0.0
C478 C 0.03353 0.29852 0.70504 0.0
C479 C 0.01427 0.28693 0.7171 0.0
C480 C 0.99046 0.2916 0.7096 0.0
C481 C 0.02847 0.31494 0.68624 0.0
N482 N 0.00502 0.32057 0.6803 0.0
H483 H 0.96775 0.31157 0.6853 0.0
H484 H 0.04332 0.32296 0.67627 0.0
H485 H 0.00408 0.28831 0.63109 0.0
H486 H 0.04223 0.35344 0.62172 0.0
O487 O 0.96996 0.32427 0.64115 0.0
O488 O 0.98445 0.35841 0.62508 0.0
O489 O 0.02444 0.36621 0.6608 0.0
C490 C 0.96867 0.34066 0.62426 0.0
H491 H 0.9513 0.38545 0.72294 0.0
H492 H 0.03957 0.28012 0.6005 0.0
H493 H 0.05221 0.29476 0.70997 0.0
H494 H 0.97521 0.28259 0.71823 0.0
Co495 Co 0.15579 0.49995 0.65514 0.0
C496 C 0.12019 0.45934 0.66344 0.0
C497 C 0.13098 0.47674 0.69632 0.0
C498 C 0.11352 0.45961 0.7017 0.0
N499 N 0.13551 0.47646 0.67234 0.0
N500 N 0.10687 0.44875 0.68104 0.0
H501 H 0.11819 0.45498 0.64455 0.0
H502 H 0.13918 0.48905 0.70912 0.0
C503 C 0.13353 0.54948 0.6677 0.0
O504 O 0.15441 0.56031 0.66356 0.0
N505 N 0.17539 0.52366 0.63774 0.0
C506 C 0.19932 0.52842 0.64029 0.0
C507 C 0.20591 0.54618 0.62379 0.0
C508 C 0.16789 0.53811 0.6194 0.0
N509 N 0.18609 0.55219 0.61081 0.0
C510 C 0.19045 0.48193 0.68862 0.0
C511 C 0.19398 0.52149 0.71909 0.0
C512 C 0.20858 0.50098 0.72333 0.0
C513 C 0.20651 0.48098 0.708 0.0
C514 C 0.17803 0.52173 0.69936 0.0
N515 N 0.17673 0.50229 0.68389 0.0
H516 H 0.18883 0.46579 0.67766 0.0
H517 H 0.16668 0.53739 0.69732 0.0
H518 H 0.2112 0.51966 0.65318 0.0
H519 H 0.14937 0.53873 0.61284 0.0
O520 O 0.17401 0.47439 0.63923 0.0
O521 O 0.14048 0.49052 0.62454 0.0
O522 O 0.13172 0.52618 0.6661 0.0
C523 C 0.15816 0.47475 0.62207 0.0
H524 H 0.10603 0.4556 0.71933 0.0
H525 H 0.22377 0.5542 0.62158 0.0
H526 H 0.1949 0.53716 0.73095 0.0
H527 H 0.21725 0.46466 0.71101 0.0
Co528 Co 1.00023 0.35759 0.33796 0.0
C529 C 0.0397 0.39415 0.32902 0.0
C530 C 0.0218 0.38442 0.29621 0.0
C531 C 0.03854 0.40233 0.29113 0.0
N532 N 0.02234 0.37915 0.32007 0.0
N533 N 0.04967 0.4084 0.31178 0.0
H534 H 0.04474 0.39525 0.34772 0.0
H535 H 0.01018 0.37593 0.28305 0.0
C536 C 0.9614 0.38782 0.3122 0.0
O537 O 0.96707 0.37882 0.29105 0.0
N538 N 0.97786 0.33745 0.35612 0.0
C539 C 0.97543 0.31295 0.35653 0.0
C540 C 0.95671 0.30704 0.37219 0.0
C541 C 0.9611 0.34604 0.37175 0.0
N542 N 0.94788 0.32792 0.3817 0.0
C543 C 0.0158 0.32889 0.29828 0.0
C544 C 0.97105 0.3115 0.28365 0.0
C545 C 0.99218 0.30297 0.27207 0.0
C546 C 0.01467 0.31223 0.27936 0.0
C547 C 0.97297 0.32879 0.30228 0.0
N548 N 0.9952 0.33751 0.30921 0.0
H549 H 0.0335 0.33469 0.3045 0.0
H550 H 0.95671 0.33451 0.31171 0.0
H551 H 0.98637 0.30033 0.34613 0.0
H552 H 0.9585 0.36523 0.37567 0.0
O553 O 0.02731 0.33923 0.35067 0.0
O554 O 0.0111 0.37137 0.36853 0.0
O555 O 0.97245 0.38107 0.33132 0.0
C556 C 0.02721 0.35387 0.36909 0.0
H557 H 0.04218 0.41045 0.27368 0.0
H558 H 0.95011 0.28889 0.37634 0.0
H559 H 0.95337 0.30432 0.27882 0.0
H560 H 0.03139 0.30575 0.27117 0.0
Co561 Co 0.15771 0.51372 0.34578 0.0
C562 C 0.11788 0.54644 0.33306 0.0
C563 C 0.14663 0.55141 0.30739 0.0
C564 C 0.12872 0.56853 0.30292 0.0
N565 N 0.13993 0.53766 0.32658 0.0
N566 N 0.11084 0.56531 0.3192 0.0
H567 H 0.10762 0.54 0.34843 0.0
H568 H 0.16344 0.5501 0.29753 0.0
C569 C 0.1212 0.48469 0.31813 0.0
O570 O 0.12559 0.4984 0.29919 0.0
N571 N 0.17384 0.49021 0.3659 0.0
C572 C 0.19772 0.48503 0.36812 0.0
C573 C 0.2004 0.46799 0.38636 0.0
C574 C 0.16239 0.47662 0.38265 0.0
N575 N 0.17814 0.46305 0.3954 0.0
C576 C 0.19649 0.52077 0.31193 0.0
C577 C 0.1975 0.47404 0.29324 0.0
C578 C 0.21485 0.49106 0.28537 0.0
C579 C 0.21423 0.5146 0.29497 0.0
C580 C 0.17997 0.48102 0.31041 0.0
N581 N 0.179 0.50446 0.3189 0.0
H582 H 0.19706 0.53883 0.31968 0.0
H583 H 0.16798 0.46724 0.31764 0.0
H584 H 0.2121 0.49324 0.35753 0.0
H585 H 0.1429 0.47672 0.38553 0.0
O586 O 0.17756 0.53936 0.35884 0.0
O587 O 0.14277 0.52717 0.37482 0.0
O588 O 0.13268 0.48807 0.33783 0.0
C589 C 0.16142 0.54177 0.37579 0.0
H590 H 0.12931 0.58295 0.28958 0.0
H591 H 0.21723 0.45982 0.39248 0.0
H592 H 0.19795 0.45542 0.28669 0.0
H593 H 0.22769 0.52804 0.28968 0.0
Co594 Co 0.99881 0.66516 0.36445 0.0
C595 C 0.96144 0.62678 0.3567 0.0
C596 C 0.96903 0.64526 0.32348 0.0
C597 C 0.95224 0.62719 0.31907 0.0
N598 N 0.97486 0.64522 0.3472 0.0
N599 N 0.94748 0.61577 0.34 0.0
H600 H 0.9616 0.6214 0.37545 0.0
H601 H 0.97669 0.65702 0.30982 0.0
C602 C 0.03116 0.63158 0.33538 0.0
O603 O 0.01948 0.63788 0.31575 0.0
N604 N 0.02272 0.68366 0.38209 0.0
C605 C 0.0258 0.70806 0.38319 0.0
C606 C 0.04444 0.71299 0.39918 0.0
C607 C 0.03914 0.6741 0.39746 0.0
N608 N 0.05257 0.69157 0.40807 0.0
C609 C 0.98468 0.69963 0.32893 0.0
C610 C 0.02884 0.70525 0.30573 0.0
C611 C 0.00867 0.71872 0.2977 0.0
C612 C 0.98656 0.71605 0.30987 0.0
C613 C 0.02632 0.68942 0.32554 0.0
N614 N 0.00413 0.68588 0.33617 0.0
H615 H 0.96716 0.69747 0.33751 0.0
H616 H 0.04218 0.68015 0.33225 0.0
H617 H 0.01514 0.72129 0.37328 0.0
H618 H 0.04108 0.65475 0.40099 0.0
O619 O 0.9733 0.68472 0.37848 0.0
O620 O 0.98789 0.65106 0.39506 0.0
O621 O 0.02526 0.64074 0.35579 0.0
C622 C 0.97267 0.66936 0.39619 0.0
H623 H 0.9439 0.62291 0.30193 0.0
H624 H 0.05134 0.7308 0.40408 0.0
H625 H 0.04637 0.70718 0.29698 0.0
H626 H 0.97065 0.72631 0.30436 0.0
Co627 Co 0.84437 0.51255 0.34987 0.0
C628 C 0.83578 0.54827 0.38942 0.0
C629 C 0.80176 0.53583 0.37544 0.0
C630 C 0.79716 0.5529 0.39312 0.0
N631 N 0.82612 0.53308 0.37271 0.0
N632 N 0.81863 0.5608 0.40159 0.0
H633 H 0.85501 0.55104 0.39227 0.0
H634 H 0.78792 0.5267 0.36506 0.0
C635 C 0.8181 0.47394 0.37889 0.0
O636 O 0.79702 0.48303 0.37251 0.0
N637 N 0.86302 0.49209 0.32824 0.0
C638 C 0.86393 0.49312 0.30395 0.0
C639 C 0.88002 0.47554 0.29585 0.0
C640 C 0.87874 0.47429 0.33463 0.0
N641 N 0.88925 0.4639 0.31519 0.0
C642 C 0.80476 0.52805 0.32056 0.0
C643 C 0.79037 0.48247 0.30467 0.0
C644 C 0.77861 0.5033 0.29569 0.0
C645 C 0.78589 0.52626 0.30387 0.0
C646 C 0.80909 0.48509 0.32161 0.0
N647 N 0.81566 0.50766 0.32981 0.0
H648 H 0.81081 0.54599 0.32602 0.0
H649 H 0.819 0.46912 0.32742 0.0
H650 H 0.8537 0.50579 0.29296 0.0
H651 H 0.88261 0.46922 0.3531 0.0
O652 O 0.85649 0.5412 0.33342 0.0
O653 O 0.87473 0.52322 0.3643 0.0
O654 O 0.83802 0.48305 0.37104 0.0
C655 C 0.87465 0.54076 0.34833 0.0
H656 H 0.77952 0.55971 0.39866 0.0
H657 H 0.88488 0.47182 0.27729 0.0
H658 H 0.7856 0.46448 0.29814 0.0
H659 H 0.77754 0.54272 0.29685 0.0
Co660 Co 0.15974 0.66132 0.5021 0.0
C661 C 0.16554 0.6301 0.45812 0.0
C662 C 0.19858 0.6326 0.47801 0.0
C663 C 0.20218 0.61734 0.45881 0.0
N664 N 0.17561 0.64106 0.47757 0.0
N665 N 0.18173 0.61651 0.44528 0.0
H666 H 0.14635 0.63079 0.45445 0.0
H667 H 0.21198 0.63676 0.49151 0.0
C668 C 0.18473 0.62704 0.53797 0.0
O669 O 0.20595 0.63733 0.53451 0.0
N670 N 0.14335 0.68 0.52694 0.0
C671 C 0.13662 0.70369 0.52651 0.0
C672 C 0.12131 0.70804 0.54586 0.0
C673 C 0.13245 0.67044 0.54662 0.0
N674 N 0.11871 0.68703 0.55833 0.0
C675 C 0.20176 0.68732 0.48791 0.0
C676 C 0.21672 0.7032 0.53269 0.0
C677 C 0.22924 0.71107 0.51203 0.0
C678 C 0.22166 0.70285 0.48952 0.0
C679 C 0.19684 0.68729 0.53027 0.0
N680 N 0.19 0.67895 0.50805 0.0
H681 H 0.19524 0.68258 0.47016 0.0
H682 H 0.18668 0.68213 0.54614 0.0
H683 H 0.14147 0.71658 0.51252 0.0
H684 H 0.13309 0.65134 0.55154 0.0
O685 O 0.14807 0.68379 0.47794 0.0
O686 O 0.1279 0.65114 0.49025 0.0
O687 O 0.16579 0.6343 0.52665 0.0
C688 C 0.1288 0.67036 0.47621 0.0
H689 H 0.21847 0.60662 0.45629 0.0
H690 H 0.11206 0.725 0.54995 0.0
H691 H 0.22182 0.70983 0.55036 0.0
H692 H 0.23049 0.7092 0.47319 0.0
Co693 Co 0.14938 0.35932 0.49342 0.0
C694 C 0.11672 0.35259 0.45081 0.0
C695 C 0.12293 0.31901 0.46932 0.0
C696 C 0.10696 0.315 0.45067 0.0
N697 N 0.12959 0.3426 0.46917 0.0
N698 N 0.10384 0.33593 0.43794 0.0
H699 H 0.11551 0.37197 0.44807 0.0
H700 H 0.1284 0.30575 0.4827 0.0
C701 C 0.12481 0.34829 0.54154 0.0
O702 O 0.14463 0.35469 0.55288 0.0
N703 N 0.16789 0.37727 0.51736 0.0
C704 C 0.19149 0.37527 0.52372 0.0
C705 C 0.19637 0.39253 0.5413 0.0
C706 C 0.15914 0.3963 0.53027 0.0
N707 N 0.17588 0.40548 0.54545 0.0
C708 C 0.17973 0.3212 0.47671 0.0
C709 C 0.19133 0.29897 0.5198 0.0
C710 C 0.20278 0.29097 0.49864 0.0
C711 C 0.19634 0.30194 0.47684 0.0
C712 C 0.1744 0.31817 0.51883 0.0
N713 N 0.16909 0.32954 0.49749 0.0
H714 H 0.17564 0.32977 0.45965 0.0
H715 H 0.16661 0.32401 0.53544 0.0
H716 H 0.20416 0.3621 0.51637 0.0
H717 H 0.14046 0.40251 0.52946 0.0
O718 O 0.17006 0.37341 0.46923 0.0
O719 O 0.13614 0.39056 0.4823 0.0
O720 O 0.12373 0.3491 0.51841 0.0
C721 C 0.15497 0.39142 0.46779 0.0
H722 H 0.09729 0.29806 0.44804 0.0
H723 H 0.21336 0.39489 0.55085 0.0
H724 H 0.19593 0.29086 0.53703 0.0
H725 H 0.20476 0.2962 0.46009 0.0
Co726 Co 0.84717 0.66561 0.51269 0.0
C727 C 0.83193 0.63169 0.55165 0.0
C728 C 0.80572 0.63416 0.52334 0.0
C729 C 0.80095 0.61343 0.53661 0.0
N730 N 0.8257 0.64528 0.53225 0.0
N731 N 0.81768 0.61178 0.55421 0.0
H732 H 0.8477 0.63492 0.5626 0.0
H733 H 0.79695 0.63908 0.50658 0.0
C734 C 0.84243 0.64232 0.46219 0.0
O735 O 0.85258 0.6607 0.45087 0.0
N736 N 0.86938 0.68442 0.49285 0.0
C737 C 0.87101 0.70872 0.48913 0.0
C738 C 0.89078 0.71318 0.47424 0.0
C739 C 0.88859 0.67466 0.48114 0.0
N740 N 0.90146 0.6916 0.46911 0.0
C741 C 0.80698 0.69618 0.52456 0.0
C742 C 0.79836 0.71499 0.4791 0.0
C743 C 0.78516 0.7243 0.4987 0.0
C744 C 0.78932 0.71432 0.52159 0.0
C745 C 0.81548 0.69637 0.48279 0.0
N746 N 0.81997 0.68745 0.50538 0.0
H747 H 0.81079 0.68959 0.54254 0.0
H748 H 0.826 0.69035 0.46763 0.0
H749 H 0.85872 0.7222 0.49657 0.0
H750 H 0.89237 0.65526 0.48043 0.0
O751 O 0.85907 0.68263 0.54079 0.0
O752 O 0.87572 0.64924 0.52569 0.0
O753 O 0.83914 0.64262 0.48504 0.0
C754 C 0.87668 0.66679 0.54159 0.0
H755 H 0.78767 0.5995 0.53235 0.0
H756 H 0.89628 0.73067 0.46693 0.0
H757 H 0.79579 0.72241 0.46118 0.0
H758 H 0.77954 0.7211 0.53719 0.0
Co759 Co 0.84793 0.35133 0.49873 0.0
C760 C 0.8805 0.34356 0.54116 0.0
C761 C 0.87864 0.3118 0.51887 0.0
C762 C 0.89575 0.30774 0.53648 0.0
N763 N 0.8691 0.33442 0.52155 0.0
N764 N 0.89687 0.32779 0.55032 0.0
H765 H 0.87761 0.36148 0.54841 0.0
H766 H 0.87445 0.29924 0.50461 0.0
C767 C 0.86844 0.33979 0.44924 0.0
O768 O 0.84619 0.33888 0.44065 0.0
N769 N 0.82739 0.36848 0.47592 0.0
C770 C 0.80337 0.36586 0.47162 0.0
C771 C 0.79641 0.38292 0.45464 0.0
C772 C 0.8346 0.38722 0.46178 0.0
N773 N 0.81612 0.39617 0.44853 0.0
C774 C 0.80867 0.31902 0.51043 0.0
C775 C 0.81989 0.28098 0.47975 0.0
C776 C 0.79957 0.27896 0.49482 0.0
C777 C 0.794 0.29825 0.51025 0.0
C778 C 0.83406 0.30227 0.48031 0.0
N779 N 0.82839 0.32126 0.49544 0.0
H780 H 0.80371 0.33338 0.52271 0.0
H781 H 0.85006 0.30255 0.46928 0.0
H782 H 0.79152 0.35282 0.48028 0.0
H783 H 0.85303 0.39413 0.46111 0.0
O784 O 0.82989 0.36642 0.5249 0.0
O785 O 0.86207 0.38287 0.50766 0.0
O786 O 0.87191 0.34281 0.4719 0.0
C787 C 0.8446 0.38485 0.52343 0.0
H788 H 0.90722 0.29177 0.53841 0.0
H789 H 0.77834 0.38545 0.44732 0.0
H790 H 0.82489 0.26614 0.46782 0.0
H791 H 0.77844 0.29719 0.52225 0.0
Co792 Co 0.49844 0.1566 0.66131 0.0
C793 C 0.46221 0.16559 0.62253 0.0
C794 C 0.47968 0.19875 0.63302 0.0
C795 C 0.46629 0.20327 0.61271 0.0
N796 N 0.47764 0.17491 0.63912 0.0
N797 N 0.45497 0.1825 0.60634 0.0
H798 H 0.45677 0.14666 0.62168 0.0
H799 H 0.49017 0.21228 0.64244 0.0
C800 C 0.53817 0.18315 0.63326 0.0
O801 O 0.53213 0.20411 0.6429 0.0
N802 N 0.51977 0.13783 0.68177 0.0
C803 C 0.52237 0.13777 0.70593 0.0
C804 C 0.54203 0.12307 0.71166 0.0
C805 C 0.537 0.12265 0.67328 0.0
N806 N 0.55104 0.1136 0.69102 0.0
C807 C 0.48249 0.19685 0.68852 0.0
C808 C 0.52688 0.21164 0.70662 0.0
C809 C 0.50557 0.22375 0.71372 0.0
C810 C 0.48325 0.21622 0.70457 0.0
C811 C 0.52527 0.19208 0.69046 0.0
N812 N 0.50329 0.18545 0.68104 0.0
H813 H 0.46495 0.19076 0.68214 0.0
H814 H 0.54153 0.18208 0.68572 0.0
H815 H 0.51148 0.1484 0.71836 0.0
H816 H 0.53986 0.11901 0.65429 0.0
O817 O 0.47075 0.14482 0.67911 0.0
O818 O 0.48694 0.12591 0.64762 0.0
O819 O 0.52715 0.16333 0.63896 0.0
C820 C 0.47039 0.12633 0.6646 0.0
H821 H 0.46484 0.22058 0.60336 0.0
H822 H 0.5495 0.12003 0.72945 0.0
H823 H 0.54436 0.21683 0.71396 0.0
H824 H 0.46648 0.22498 0.71017 0.0
Co825 Co 0.34761 0.00669 0.64699 0.0
C826 C 0.38394 0.04405 0.66008 0.0
C827 C 0.36726 0.02921 0.69179 0.0
C828 C 0.38551 0.04508 0.69874 0.0
N829 N 0.36589 0.02899 0.66744 0.0
N830 N 0.39578 0.05422 0.67863 0.0
H831 H 0.38883 0.04762 0.64154 0.0
H832 H 0.35643 0.01802 0.70377 0.0
C833 C 0.37062 0.95678 0.65872 0.0
O834 O 0.35258 0.94466 0.649 0.0
N835 N 0.33091 0.98447 0.62579 0.0
C836 C 0.30683 0.98116 0.62255 0.0
C837 C 0.30355 0.96599 0.60286 0.0
C838 C 0.34183 0.9721 0.60777 0.0
N839 N 0.32566 0.96049 0.59375 0.0
C840 C 0.31036 0.0218 0.6788 0.0
C841 C 0.30084 0.97818 0.7018 0.0
C842 C 0.28698 0.99884 0.70791 0.0
C843 C 0.29149 0.0206 0.69546 0.0
C844 C 0.31843 0.97977 0.68345 0.0
N845 N 0.32368 1.00161 0.67273 0.0
H846 H 0.31436 0.03936 0.6709 0.0
H847 H 0.32725 0.96341 0.67787 0.0
H848 H 0.2927 0.98934 0.63349 0.0
H849 H 0.36135 0.97122 0.60523 0.0
O850 O 0.33025 0.03303 0.63208 0.0
O851 O 0.36549 0.01913 0.61879 0.0
O852 O 0.3708 0.9802 0.65909 0.0
C853 C 0.34772 0.03492 0.61668 0.0
H854 H 0.39099 0.04936 0.71697 0.0
H855 H 0.28644 0.95905 0.59613 0.0
H856 H 0.29784 0.9609 0.71084 0.0
H857 H 0.28114 0.03698 0.69938 0.0
Co858 Co 0.49573 0.84398 0.66303 0.0
C859 C 0.45211 0.87276 0.67712 0.0
C860 C 0.48094 0.87638 0.70271 0.0
C861 C 0.46375 0.89419 0.70734 0.0
N862 N 0.47397 0.86332 0.68327 0.0
N863 N 0.44589 0.89196 0.69096 0.0
H864 H 0.44148 0.86699 0.66187 0.0
H865 H 0.49838 0.87467 0.71154 0.0
C866 C 0.54584 0.86711 0.66956 0.0
O867 O 0.55732 0.84826 0.66051 0.0
N868 N 0.5174 0.82578 0.64198 0.0
C869 C 0.52293 0.80177 0.64142 0.0
C870 C 0.53817 0.79754 0.6219 0.0
C871 C 0.52854 0.83553 0.6225 0.0
N872 N 0.54167 0.81893 0.61029 0.0
C873 C 0.48145 0.81096 0.69993 0.0
C874 C 0.52714 0.79882 0.71687 0.0
C875 C 0.50675 0.78725 0.72674 0.0
C876 C 0.48366 0.79356 0.71824 0.0
C877 C 0.52411 0.81606 0.69849 0.0
N878 N 0.50148 0.8219 0.69009 0.0
H879 H 0.46351 0.81548 0.69334 0.0
H880 H 0.54008 0.82386 0.6907 0.0
H881 H 0.51641 0.78832 0.65417 0.0
H882 H 0.52801 0.85475 0.61794 0.0
O883 O 0.46867 0.82688 0.64889 0.0
O884 O 0.48456 0.86121 0.63466 0.0
O885 O 0.52277 0.86715 0.67262 0.0
C886 C 0.46889 0.84354 0.63215 0.0
H887 H 0.4653 0.90891 0.72026 0.0
H888 H 0.54662 0.78037 0.61706 0.0
H889 H 0.54526 0.7942 0.72302 0.0
H890 H 0.46752 0.78492 0.72555 0.0
Co891 Co 0.65455 0.00209 0.65921 0.0
C892 C 0.6216 0.95947 0.6678 0.0
C893 C 0.62493 0.98269 0.69866 0.0
C894 C 0.6087 0.96444 0.70419 0.0
N895 N 0.63286 0.97977 0.67577 0.0
N896 N 0.60674 0.95003 0.68473 0.0
H897 H 0.6239 0.95163 0.65016 0.0
H898 H 0.63059 0.99711 0.71062 0.0
C899 C 0.63456 0.05283 0.67191 0.0
O900 O 0.65576 0.06314 0.66841 0.0
N901 N 0.67625 0.02464 0.64295 0.0
C902 C 0.70039 0.02759 0.64634 0.0
C903 C 0.70839 0.0465 0.63186 0.0
C904 C 0.67009 0.04109 0.6259 0.0
N905 N 0.6892 0.055 0.61934 0.0
C906 C 0.68624 0.98064 0.69309 0.0
C907 C 0.69572 0.02105 0.72119 0.0
C908 C 0.70862 0.99944 0.72524 0.0
C909 C 0.70331 0.97887 0.71148 0.0
C910 C 0.67863 0.02201 0.7026 0.0
N911 N 0.67481 0.00224 0.68807 0.0
H912 H 0.68246 0.96451 0.6826 0.0
H913 H 0.66902 0.03872 0.70012 0.0
H914 H 0.71134 0.01715 0.65881 0.0
H915 H 0.65173 0.04369 0.61936 0.0
O916 O 0.67071 0.97552 0.64269 0.0
O917 O 0.63891 0.99528 0.62831 0.0
O918 O 0.63212 0.0296 0.67042 0.0
C919 C 0.65519 0.97821 0.62532 0.0
H920 H 0.59892 0.96201 0.72098 0.0
H921 H 0.72658 0.05403 0.63121 0.0
H922 H 0.69926 0.03717 0.73193 0.0
H923 H 0.71278 0.96178 0.71449 0.0
Co924 Co 0.50196 0.85531 0.34641 0.0
C925 C 0.54519 0.88775 0.33779 0.0
C926 C 0.51724 0.89204 0.31122 0.0
C927 C 0.53525 0.90873 0.30645 0.0
N928 N 0.52313 0.87918 0.33115 0.0
N929 N 0.55266 0.90602 0.32319 0.0
H930 H 0.55539 0.8814 0.35316 0.0
H931 H 0.50071 0.88981 0.30104 0.0
C932 C 0.45022 0.87205 0.33533 0.0
O933 O 0.4417 0.85018 0.33956 0.0
N934 N 0.48052 0.83167 0.36176 0.0
C935 C 0.47651 0.80802 0.35605 0.0
C936 C 0.45877 0.79881 0.37127 0.0
C937 C 0.46593 0.83615 0.3809 0.0
N938 N 0.45215 0.81667 0.38663 0.0
C939 C 0.52538 0.8284 0.30967 0.0
C940 C 0.48495 0.81359 0.28417 0.0
C941 C 0.50772 0.80383 0.27824 0.0
C942 C 0.52824 0.81216 0.29054 0.0
C943 C 0.48297 0.83033 0.3031 0.0
N944 N 0.50289 0.83662 0.31643 0.0
H945 H 0.54135 0.83391 0.31957 0.0
H946 H 0.46528 0.83707 0.3073 0.0
H947 H 0.48571 0.79808 0.34189 0.0
H948 H 0.46492 0.85354 0.39008 0.0
O949 O 0.52916 0.83955 0.36215 0.0
O950 O 0.50785 0.86986 0.37801 0.0
O951 O 0.4731 0.87646 0.33613 0.0
C952 C 0.52537 0.85396 0.38035 0.0
H953 H 0.53531 0.9223 0.29223 0.0
H954 H 0.45136 0.7805 0.37116 0.0
H955 H 0.46873 0.80775 0.27473 0.0
H956 H 0.54618 0.80523 0.28615 0.0
Co957 Co 0.66425 0.00904 0.35488 0.0
C958 C 0.62347 0.03897 0.33892 0.0
C959 C 0.65239 0.04344 0.31346 0.0
C960 C 0.6339 0.05946 0.30764 0.0
N961 N 0.64604 0.03085 0.33355 0.0
N962 N 0.61595 0.05671 0.32392 0.0
H963 H 0.6132 0.03311 0.35446 0.0
H964 H 0.66931 0.04223 0.30381 0.0
C965 C 0.6295 0.9767 0.32862 0.0
O966 O 0.63512 0.98812 0.30853 0.0
N967 N 0.68067 0.98714 0.37676 0.0
C968 C 0.70459 0.98488 0.38153 0.0
C969 C 0.70754 0.96679 0.39871 0.0
C970 C 0.66949 0.97035 0.39069 0.0
N971 N 0.68541 0.95762 0.4042 0.0
C972 C 0.70246 0.01519 0.32066 0.0
C973 C 0.70687 0.96701 0.3067 0.0
C974 C 0.72255 0.9845 0.29659 0.0
C975 C 0.72015 0.0088 0.30385 0.0
C976 C 0.68877 0.97441 0.32308 0.0
N977 N 0.68614 0.99847 0.32917 0.0
H978 H 0.702 0.03384 0.3269 0.0
H979 H 0.67761 0.96067 0.33162 0.0
H980 H 0.71882 0.99558 0.37312 0.0
H981 H 0.65002 0.96741 0.39097 0.0
O982 O 0.68326 0.03641 0.36629 0.0
O983 O 0.64863 0.02441 0.38266 0.0
O984 O 0.63993 0.98231 0.34837 0.0
C985 C 0.66674 0.03978 0.38268 0.0
H986 H 0.63427 0.07315 0.29354 0.0
H987 H 0.72459 0.9605 0.40624 0.0
H988 H 0.70881 0.94786 0.30218 0.0
H989 H 0.73236 0.02272 0.297 0.0
Co990 Co 0.50163 0.15808 0.36169 0.0
C991 C 0.46204 0.12233 0.35308 0.0
C992 C 0.47902 0.13236 0.31982 0.0
C993 C 0.46398 0.11279 0.31568 0.0
N994 N 0.47828 0.13828 0.34348 0.0
N995 N 0.45313 0.1066 0.33659 0.0
H996 H 0.45732 0.12139 0.37198 0.0
H997 H 0.49012 0.14102 0.30625 0.0
C998 C 0.53763 0.12453 0.33667 0.0
O999 O 0.53182 0.13389 0.31574 0.0
N1000 N 0.52511 0.17557 0.38082 0.0
C1001 C 0.52809 0.19956 0.38441 0.0
C1002 C 0.54661 0.20254 0.40091 0.0
C1003 C 0.54112 0.16451 0.39556 0.0
N1004 N 0.55599 0.18039 0.40712 0.0
C1005 C 0.49165 0.18768 0.3209 0.0
C1006 C 0.53892 0.20029 0.30925 0.0
C1007 C 0.51967 0.21073 0.29633 0.0
C1008 C 0.49585 0.20424 0.30227 0.0
C1009 C 0.53387 0.1838 0.32797 0.0
N1010 N 0.51046 0.17708 0.33315 0.0
H1011 H 0.47306 0.1836 0.32584 0.0
H1012 H 0.5487 0.17692 0.33861 0.0
H1013 H 0.51705 0.21374 0.37636 0.0
H1014 H 0.54026 0.14512 0.39875 0.0
O1015 O 0.47641 0.18006 0.37196 0.0
O1016 O 0.48715 0.1467 0.39192 0.0
O1017 O 0.52734 0.13179 0.35614 0.0
C1018 C 0.47324 0.16606 0.39048 0.0
H1019 H 0.46141 0.10358 0.29861 0.0
H1020 H 0.55157 0.21995 0.40857 0.0
H1021 H 0.55756 0.20538 0.30537 0.0
H1022 H 0.48057 0.21234 0.29288 0.0
Co1023 Co 0.34778 0.00597 0.35452 0.0
C1024 C 0.34223 0.04791 0.38833 0.0
C1025 C 0.30877 0.02833 0.3847 0.0
C1026 C 0.30487 0.04761 0.40004 0.0
N1027 N 0.33226 0.02837 0.37726 0.0
N1028 N 0.32591 0.05982 0.40209 0.0
H1029 H 0.36086 0.05379 0.38635 0.0
H1030 H 0.29481 0.01613 0.37855 0.0
C1031 C 0.31854 0.96699 0.3815 0.0
O1032 O 0.29815 0.97386 0.3714 0.0
N1033 N 0.36348 0.98348 0.33264 0.0
C1034 C 0.36666 0.9855 0.30873 0.0
C1035 C 0.37902 0.96516 0.30072 0.0
C1036 C 0.374 0.96222 0.3388 0.0
N1037 N 0.38269 0.94967 0.31952 0.0
C1038 C 0.30808 0.02625 0.32929 0.0
C1039 C 0.29219 0.98386 0.30742 0.0
C1040 C 0.28153 0.00624 0.30136 0.0
C1041 C 0.28936 0.02754 0.3126 0.0
C1042 C 0.31083 0.98334 0.32448 0.0
N1043 N 0.31827 0.00437 0.33551 0.0
H1044 H 0.31509 0.0431 0.33662 0.0
H1045 H 0.31967 0.96617 0.32843 0.0
H1046 H 0.3606 1.00075 0.2979 0.0
H1047 H 0.37589 0.95652 0.35736 0.0
O1048 O 0.36178 0.03308 0.33744 0.0
O1049 O 0.37994 0.0138 0.36722 0.0
O1050 O 0.33881 0.9775 0.37657 0.0
C1051 C 0.38101 0.03087 0.35076 0.0
H1052 H 0.28784 0.05276 0.40847 0.0
H1053 H 0.38545 0.9631 0.28249 0.0
H1054 H 0.28667 0.96716 0.29854 0.0
H1055 H 0.28176 0.04513 0.30774 0.0
Co1056 Co 0.65454 0.15753 0.51186 0.0
C1057 C 0.66974 0.13091 0.46673 0.0
C1058 C 0.66468 0.10766 0.49746 0.0
C1059 C 0.66877 0.09323 0.47788 0.0
N1060 N 0.66579 0.1314 0.49087 0.0
N1061 N 0.67185 0.1077 0.45858 0.0
H1062 H 0.67041 0.14701 0.45541 0.0
H1063 H 0.65931 0.10082 0.51492 0.0
C1064 C 0.67468 0.13869 0.55894 0.0
O1065 O 0.68379 0.16018 0.56394 0.0
N1066 N 0.64 0.18092 0.53374 0.0
C1067 C 0.63488 0.20487 0.53062 0.0
C1068 C 0.61838 0.21204 0.54809 0.0
C1069 C 0.62602 0.17382 0.55248 0.0
N1070 N 0.61291 0.19233 0.56159 0.0
C1071 C 0.70639 0.16486 0.49937 0.0
C1072 C 0.71177 0.20848 0.5235 0.0
C1073 C 0.72952 0.20161 0.50691 0.0
C1074 C 0.72721 0.17911 0.49539 0.0
C1075 C 0.6912 0.19391 0.52676 0.0
N1076 N 0.68754 0.17291 0.51369 0.0
H1077 H 0.70588 0.1476 0.49032 0.0
H1078 H 0.67868 0.19998 0.5403 0.0
H1079 H 0.64195 0.21607 0.51614 0.0
H1080 H 0.62388 0.15503 0.55814 0.0
O1081 O 0.64266 0.17566 0.48447 0.0
O1082 O 0.62144 0.14749 0.50376 0.0
O1083 O 0.66191 0.13533 0.54005 0.0
C1084 C 0.62263 0.16318 0.48603 0.0
H1085 H 0.66814 0.07346 0.47749 0.0
H1086 H 0.61 0.22984 0.54989 0.0
H1087 H 0.71345 0.22541 0.53344 0.0
H1088 H 0.74111 0.17285 0.48297 0.0
Co1089 Co 0.64206 0.85086 0.50948 0.0
C1090 C 0.65479 0.89099 0.54099 0.0
C1091 C 0.67654 0.85972 0.55016 0.0
C1092 C 0.68076 0.87801 0.56688 0.0
N1093 N 0.65995 0.86791 0.5342 0.0
N1094 N 0.66688 0.89748 0.56106 0.0
H1095 H 0.64125 0.90232 0.53229 0.0
H1096 H 0.68383 0.84137 0.55058 0.0
C1097 C 0.65734 0.87571 0.46373 0.0
O1098 O 0.65639 0.85431 0.45313 0.0
N1099 N 0.62273 0.83567 0.48416 0.0
C1100 C 0.62567 0.81466 0.47168 0.0
C1101 C 0.60882 0.81396 0.45331 0.0
C1102 C 0.60391 0.84714 0.47327 0.0
N1103 N 0.59526 0.83443 0.45434 0.0
C1104 C 0.6696 0.80672 0.50869 0.0
C1105 C 0.7129 0.82517 0.49116 0.0
C1106 C 0.71148 0.80026 0.49716 0.0
C1107 C 0.68953 0.79124 0.50617 0.0
C1108 C 0.69244 0.8403 0.49445 0.0
N1109 N 0.67075 0.8308 0.50219 0.0
H1110 H 0.65297 0.79899 0.51564 0.0
H1111 H 0.69434 0.85966 0.4914 0.0
H1112 H 0.63953 0.80109 0.47453 0.0
H1113 H 0.59731 0.86502 0.47843 0.0
O1114 O 0.628 0.82928 0.53323 0.0
O1115 O 0.61192 0.86468 0.52305 0.0
O1116 O 0.65219 0.87762 0.48619 0.0
C1117 C 0.61081 0.84505 0.5364 0.0
H1118 H 0.69219 0.87673 0.58269 0.0
H1119 H 0.60693 0.79973 0.43991 0.0
H1120 H 0.72979 0.83291 0.48462 0.0
H1121 H 0.6878 0.77221 0.51129 0.0
Co1122 Co 0.35109 0.16792 0.50634 0.0
C1123 C 0.34326 0.13279 0.54586 0.0
C1124 C 0.31178 0.13584 0.52341 0.0
C1125 C 0.30895 0.11573 0.53812 0.0
N1126 N 0.33341 0.14657 0.52814 0.0
N1127 N 0.32891 0.11391 0.55191 0.0
H1128 H 0.36127 0.13508 0.55317 0.0
H1129 H 0.29983 0.14069 0.50877 0.0
C1130 C 0.34166 0.14697 0.45688 0.0
O1131 O 0.34444 0.16838 0.44659 0.0
N1132 N 0.36978 0.18778 0.48419 0.0
C1133 C 0.36935 0.2119 0.47912 0.0
C1134 C 0.3878 0.21685 0.46267 0.0
C1135 C 0.38854 0.17867 0.47136 0.0
N1136 N 0.39961 0.19576 0.45799 0.0
C1137 C 0.31982 0.20819 0.51759 0.0
C1138 C 0.28351 0.19962 0.48439 0.0
C1139 C 0.28147 0.2198 0.49977 0.0
C1140 C 0.29986 0.22388 0.51658 0.0
C1141 C 0.30379 0.1841 0.48614 0.0
N1142 N 0.32197 0.18857 0.50242 0.0
H1143 H 0.33362 0.21227 0.53068 0.0
H1144 H 0.30419 0.16829 0.47475 0.0
H1145 H 0.35671 0.22494 0.4867 0.0
H1146 H 0.3938 0.15966 0.47139 0.0
O1147 O 0.36545 0.18487 0.53299 0.0
O1148 O 0.3818 0.15276 0.51559 0.0
O1149 O 0.34212 0.14472 0.47976 0.0
C1150 C 0.38371 0.16997 0.53164 0.0
H1151 H 0.29422 0.10263 0.5377 0.0
H1152 H 0.39194 0.23432 0.45451 0.0
H1153 H 0.26946 0.19582 0.47126 0.0
H1154 H 0.2989 0.23931 0.52875 0.0
Co1155 Co 0.35562 0.85304 0.50021 0.0
C1156 C 0.38721 0.83438 0.54127 0.0
C1157 C 0.40618 0.84738 0.51015 0.0
C1158 C 0.42292 0.84323 0.52772 0.0
N1159 N 0.38369 0.8414 0.51813 0.0
N1160 N 0.41096 0.83564 0.54741 0.0
H1161 H 0.37299 0.83079 0.55418 0.0
H1162 H 0.41007 0.85658 0.49333 0.0
C1163 C 0.38405 0.82348 0.46516 0.0
O1164 O 0.38063 0.80505 0.47996 0.0
N1165 N 0.33002 0.8667 0.48076 0.0
C1166 C 0.30562 0.86606 0.48323 0.0
C1167 C 0.29553 0.8813 0.46594 0.0
C1168 C 0.33446 0.88228 0.4625 0.0
N1169 N 0.31387 0.89144 0.45317 0.0
C1170 C 0.33294 0.81205 0.52285 0.0
C1171 C 0.31249 0.79226 0.48186 0.0
C1172 C 0.30632 0.78258 0.50444 0.0
C1173 C 0.31708 0.79233 0.52503 0.0
C1174 C 0.32876 0.81191 0.48045 0.0
N1175 N 0.3389 0.82157 0.50084 0.0
H1176 H 0.33879 0.8208 0.5391 0.0
H1177 H 0.33217 0.82021 0.46312 0.0
H1178 H 0.29596 0.85591 0.49699 0.0
H1179 H 0.35254 0.88761 0.45678 0.0
O1180 O 0.34046 0.86597 0.52881 0.0
O1181 O 0.36698 0.88641 0.50679 0.0
O1182 O 0.37418 0.84429 0.46958 0.0
C1183 C 0.35238 0.88604 0.52546 0.0
H1184 H 0.44196 0.84832 0.52714 0.0
H1185 H 0.27642 0.8854 0.46356 0.0
H1186 H 0.30399 0.78541 0.46562 0.0
H1187 H 0.31208 0.78572 0.54278 0.0
Co1188 Co 0.5055 0.6528 0.16055 0.0
C1189 C 0.46301 0.66141 0.12851 0.0
C1190 C 0.48477 0.69354 0.13191 0.0
C1191 C 0.46794 0.6975 0.11416 0.0
N1192 N 0.48224 0.67063 0.14068 0.0
N1193 N 0.45428 0.67729 0.11205 0.0
H1194 H 0.45619 0.64304 0.13041 0.0
H1195 H 0.49844 0.7065 0.13691 0.0
C1196 C 0.55476 0.66652 0.14055 0.0
O1197 O 0.56268 0.66802 0.16285 0.0
N1198 N 0.52879 0.63439 0.17933 0.0
C1199 C 0.53132 0.63217 0.20343 0.0
C1200 C 0.54857 0.61437 0.20803 0.0
C1201 C 0.5442 0.61784 0.16973 0.0
N1202 N 0.55658 0.60555 0.18675 0.0
C1203 C 0.4969 0.68285 0.20182 0.0
C1204 C 0.5256 0.72232 0.18969 0.0
C1205 C 0.512 0.7231 0.21098 0.0
C1206 C 0.49752 0.7031 0.21698 0.0
C1207 C 0.5241 0.70183 0.17471 0.0
N1208 N 0.51006 0.68206 0.18084 0.0
H1209 H 0.4856 0.66782 0.20734 0.0
H1210 H 0.53346 0.70289 0.15777 0.0
H1211 H 0.52088 0.64198 0.21678 0.0
H1212 H 0.54588 0.61439 0.15058 0.0
O1213 O 0.47906 0.63832 0.17847 0.0
O1214 O 0.49536 0.62159 0.14641 0.0
O1215 O 0.5323 0.66166 0.13662 0.0
C1216 C 0.47967 0.61982 0.164 0.0
H1217 H 0.46634 0.7137 0.10305 0.0
H1218 H 0.55442 0.60802 0.22557 0.0
H1219 H 0.53682 0.73768 0.18439 0.0
H1220 H 0.48676 0.7031 0.23338 0.0
Co1221 Co 0.35107 0.50137 0.15565 0.0
C1222 C 0.38758 0.5402 0.16511 0.0
C1223 C 0.38009 0.51994 0.19721 0.0
C1224 C 0.40019 0.53439 0.20115 0.0
N1225 N 0.37224 0.52314 0.17436 0.0
N1226 N 0.4048 0.54727 0.18094 0.0
H1227 H 0.38715 0.5467 0.14673 0.0
H1228 H 0.37243 0.50742 0.21015 0.0
C1229 C 0.38229 0.46189 0.17841 0.0
O1230 O 0.3716 0.46502 0.19931 0.0
N1231 N 0.33204 0.47954 0.13587 0.0
C1232 C 0.30771 0.47794 0.1331 0.0
C1233 C 0.3029 0.46053 0.11566 0.0
C1234 C 0.34165 0.46369 0.11989 0.0
N1235 N 0.32433 0.45187 0.1074 0.0
C1236 C 0.32295 0.51151 0.19751 0.0
C1237 C 0.30441 0.46515 0.20482 0.0
C1238 C 0.29501 0.48466 0.21829 0.0
C1239 C 0.30477 0.50794 0.21477 0.0
C1240 C 0.32264 0.46954 0.18755 0.0
N1241 N 0.33183 0.49253 0.18412 0.0
H1242 H 0.32907 0.52993 0.19399 0.0
H1243 H 0.32866 0.45464 0.1763 0.0
H1244 H 0.29449 0.48868 0.14296 0.0
H1245 H 0.36098 0.461 0.11721 0.0
O1246 O 0.33059 0.5282 0.14628 0.0
O1247 O 0.36321 0.51601 0.12597 0.0
O1248 O 0.37612 0.47438 0.15989 0.0
C1249 C 0.34476 0.53101 0.1278 0.0
H1250 H 0.41094 0.535 0.21746 0.0
H1251 H 0.28517 0.45482 0.10938 0.0
H1252 H 0.29701 0.44695 0.2069 0.0
H1253 H 0.29769 0.52346 0.22466 0.0
Co1254 Co 0.50813 0.34099 0.1582 0.0
C1255 C 0.46955 0.37769 0.16768 0.0
C1256 C 0.48213 0.36258 0.201 0.0
C1257 C 0.46472 0.38001 0.20605 0.0
N1258 N 0.48519 0.36096 0.17681 0.0
N1259 N 0.45698 0.38935 0.18503 0.0
H1260 H 0.46724 0.38162 0.14878 0.0
H1261 H 0.49171 0.35201 0.21438 0.0
C1262 C 0.54385 0.3704 0.18771 0.0
O1263 O 0.5354 0.36089 0.20775 0.0
N1264 N 0.53095 0.32255 0.13901 0.0
C1265 C 0.53186 0.29829 0.13501 0.0
C1266 C 0.54937 0.2938 0.11762 0.0
C1267 C 0.54762 0.33249 0.12408 0.0
N1268 N 0.55905 0.31537 0.11085 0.0
C1269 C 0.49411 0.30747 0.19526 0.0
C1270 C 0.54042 0.29468 0.21009 0.0
C1271 C 0.52032 0.28356 0.22102 0.0
C1272 C 0.49695 0.28995 0.21335 0.0
C1273 C 0.53674 0.31203 0.19191 0.0
N1274 N 0.51379 0.31902 0.18539 0.0
H1275 H 0.47597 0.31191 0.18915 0.0
H1276 H 0.55235 0.31962 0.18289 0.0
H1277 H 0.52017 0.28496 0.14357 0.0
H1278 H 0.55068 0.35193 0.12225 0.0
O1279 O 0.48133 0.32343 0.14428 0.0
O1280 O 0.49755 0.35636 0.12828 0.0
O1281 O 0.53538 0.36407 0.16718 0.0
C1282 C 0.48147 0.33895 0.12657 0.0
H1283 H 0.45817 0.38535 0.22369 0.0
H1284 H 0.55417 0.27623 0.11004 0.0
H1285 H 0.55875 0.28969 0.21528 0.0
H1286 H 0.48106 0.28133 0.2212 0.0
Co1287 Co 0.66175 0.49587 0.14735 0.0
C1288 C 0.63143 0.45719 0.17465 0.0
C1289 C 0.61559 0.47247 0.14275 0.0
C1290 C 0.59991 0.45546 0.15161 0.0
N1291 N 0.63562 0.47368 0.15677 0.0
N1292 N 0.6098 0.44578 0.17149 0.0
H1293 H 0.64346 0.45326 0.18946 0.0
H1294 H 0.61262 0.48312 0.12662 0.0
C1295 C 0.62523 0.5272 0.17247 0.0
O1296 O 0.62607 0.51126 0.19014 0.0
N1297 N 0.68545 0.51892 0.13557 0.0
C1298 C 0.70931 0.52232 0.14011 0.0
C1299 C 0.717 0.54276 0.12733 0.0
C1300 C 0.67925 0.53651 0.11983 0.0
N1301 N 0.69794 0.5514 0.11457 0.0
C1302 C 0.685 0.47697 0.18945 0.0
C1303 C 0.69607 0.52153 0.21001 0.0
C1304 C 0.70564 0.50017 0.2202 0.0
C1305 C 0.69962 0.47768 0.20998 0.0
C1306 C 0.68122 0.51994 0.18956 0.0
N1307 N 0.67555 0.49783 0.17967 0.0
H1308 H 0.68256 0.45964 0.18054 0.0
H1309 H 0.67594 0.53655 0.18047 0.0
H1310 H 0.72008 0.51131 0.15228 0.0
H1311 H 0.66101 0.53888 0.11289 0.0
O1312 O 0.68153 0.46894 0.13651 0.0
O1313 O 0.65461 0.48803 0.11364 0.0
O1314 O 0.63845 0.52422 0.15359 0.0
C1315 C 0.67081 0.47075 0.11587 0.0
H1316 H 0.58264 0.45017 0.14384 0.0
H1317 H 0.7349 0.55097 0.12783 0.0
H1318 H 0.70108 0.53927 0.21701 0.0
H1319 H 0.70736 0.46091 0.21697 0.0
Co1320 Co 0.50369 0.35442 0.85038 0.0
C1321 C 0.54285 0.39095 0.83975 0.0
C1322 C 0.52296 0.38074 0.80816 0.0
C1323 C 0.54001 0.39788 0.80163 0.0
N1324 N 0.52512 0.3758 0.83196 0.0
N1325 N 0.5524 0.40415 0.82152 0.0
H1326 H 0.54858 0.39272 0.8583 0.0
H1327 H 0.50953 0.37282 0.7963 0.0
C1328 C 0.45333 0.37696 0.84191 0.0
O1329 O 0.44193 0.35743 0.84955 0.0
N1330 N 0.482 0.33366 0.86892 0.0
C1331 C 0.47874 0.30932 0.86681 0.0
C1332 C 0.46192 0.30185 0.8838 0.0
C1333 C 0.46796 0.34046 0.88779 0.0
N1334 N 0.45512 0.32153 0.89672 0.0
C1335 C 0.52141 0.32406 0.81361 0.0
C1336 C 0.4779 0.31096 0.79254 0.0
C1337 C 0.49965 0.30045 0.78439 0.0
C1338 C 0.52157 0.30736 0.79485 0.0
C1339 C 0.47855 0.32771 0.81159 0.0
N1340 N 0.50016 0.33388 0.82203 0.0
H1341 H 0.53861 0.3291 0.82155 0.0
H1342 H 0.4617 0.33474 0.81836 0.0
H1343 H 0.48785 0.29778 0.8538 0.0
H1344 H 0.46642 0.35906 0.89422 0.0
O1345 O 0.5305 0.33662 0.86391 0.0
O1346 O 0.51447 0.36969 0.8804 0.0
O1347 O 0.47657 0.37763 0.84063 0.0
C1348 C 0.53071 0.35222 0.88138 0.0
H1349 H 0.54287 0.40549 0.78383 0.0
H1350 H 0.4549 0.28355 0.88626 0.0
H1351 H 0.46062 0.30567 0.78479 0.0
H1352 H 0.53865 0.29952 0.78884 0.0
Co1353 Co 0.66327 0.50752 0.85114 0.0
C1354 C 0.62608 0.54511 0.84129 0.0
C1355 C 0.64195 0.53345 0.808 0.0
C1356 C 0.62331 0.54958 0.80299 0.0
N1357 N 0.64378 0.53056 0.83218 0.0
N1358 N 0.6136 0.55694 0.82405 0.0
H1359 H 0.62184 0.54707 0.86021 0.0
H1360 H 0.65278 0.52414 0.7946 0.0
C1361 C 0.63075 0.47305 0.82394 0.0
O1362 O 0.63919 0.4811 0.80329 0.0
N1363 N 0.68089 0.48447 0.87075 0.0
C1364 C 0.70504 0.4822 0.87436 0.0
C1365 C 0.70878 0.4642 0.89152 0.0
C1366 C 0.67031 0.46823 0.88569 0.0
N1367 N 0.68686 0.45567 0.89849 0.0
C1368 C 0.69683 0.51868 0.81344 0.0
C1369 C 0.70682 0.47133 0.79917 0.0
C1370 C 0.71927 0.49068 0.78811 0.0
C1371 C 0.71416 0.51455 0.79544 0.0
C1372 C 0.6896 0.47629 0.81724 0.0
N1373 N 0.68426 0.4998 0.82369 0.0
H1374 H 0.69346 0.53721 0.81927 0.0
H1375 H 0.68096 0.46124 0.82641 0.0
H1376 H 0.71883 0.49308 0.86549 0.0
H1377 H 0.65083 0.46605 0.88764 0.0
O1378 O 0.68253 0.53394 0.86395 0.0
O1379 O 0.64846 0.52001 0.88038 0.0
O1380 O 0.63881 0.48116 0.84392 0.0
C1381 C 0.66646 0.53549 0.88109 0.0
H1382 H 0.61737 0.55552 0.78533 0.0
H1383 H 0.72609 0.45816 0.89863 0.0
H1384 H 0.71074 0.45261 0.79423 0.0
H1385 H 0.72371 0.52987 0.78749 0.0
Co1386 Co 0.49935 0.65703 0.86597 0.0
C1387 C 0.45633 0.62555 0.8555 0.0
C1388 C 0.4794 0.63028 0.82473 0.0
C1389 C 0.46328 0.61162 0.82003 0.0
N1390 N 0.4752 0.63913 0.84708 0.0
N1391 N 0.44878 0.60868 0.83943 0.0
H1392 H 0.44932 0.62636 0.87368 0.0
H1393 H 0.49463 0.63546 0.81343 0.0
C1394 C 0.54688 0.63084 0.85399 0.0
O1395 O 0.55965 0.64918 0.86221 0.0
N1396 N 0.52385 0.67253 0.88613 0.0
C1397 C 0.534 0.69492 0.8853 0.0
C1398 C 0.55154 0.69635 0.90313 0.0
C1399 C 0.53447 0.66128 0.90517 0.0
N1400 N 0.55181 0.67512 0.9156 0.0
C1401 C 0.48534 0.6888 0.82827 0.0
C1402 C 0.53047 0.70194 0.81069 0.0
C1403 C 0.50967 0.71255 0.80067 0.0
C1404 C 0.4869 0.70575 0.80954 0.0
C1405 C 0.52809 0.68508 0.82959 0.0
N1406 N 0.50569 0.67844 0.83817 0.0
H1407 H 0.46752 0.68424 0.83518 0.0
H1408 H 0.54437 0.67885 0.8379 0.0
H1409 H 0.52922 0.70918 0.87268 0.0
H1410 H 0.53011 0.64287 0.91082 0.0
O1411 O 0.47527 0.67805 0.88001 0.0
O1412 O 0.48578 0.6423 0.89531 0.0
O1413 O 0.52356 0.63115 0.8547 0.0
C1414 C 0.47217 0.66192 0.89671 0.0
H1415 H 0.46312 0.60015 0.80415 0.0
H1416 H 0.56311 0.71189 0.90679 0.0
H1417 H 0.54841 0.70723 0.80448 0.0
H1418 H 0.47045 0.71378 0.8023 0.0
Co1419 Co 0.34359 0.50635 0.85654 0.0
C1420 C 0.3338 0.54282 0.89521 0.0
C1421 C 0.30047 0.52922 0.88058 0.0
C1422 C 0.29489 0.54621 0.89794 0.0
N1423 N 0.32496 0.52712 0.87858 0.0
N1424 N 0.31586 0.55468 0.90698 0.0
H1425 H 0.35284 0.54591 0.89863 0.0
H1426 H 0.28717 0.51936 0.87015 0.0
C1427 C 0.31788 0.46747 0.88664 0.0
O1428 O 0.29652 0.47623 0.88069 0.0
N1429 N 0.36222 0.48558 0.83542 0.0
C1430 C 0.36455 0.4866 0.81124 0.0
C1431 C 0.38123 0.46908 0.80415 0.0
C1432 C 0.37727 0.46768 0.84274 0.0
N1433 N 0.38901 0.4573 0.82406 0.0
C1434 C 0.3054 0.52197 0.82599 0.0
C1435 C 0.28912 0.47662 0.81139 0.0
C1436 C 0.27894 0.49771 0.80111 0.0
C1437 C 0.28716 0.52052 0.8087 0.0
C1438 C 0.30746 0.4789 0.82885 0.0
N1439 N 0.31506 0.50144 0.83627 0.0
H1440 H 0.31196 0.53981 0.83113 0.0
H1441 H 0.31614 0.46264 0.83574 0.0
H1442 H 0.35506 0.49932 0.79966 0.0
H1443 H 0.38 0.46263 0.86141 0.0
O1444 O 0.35589 0.53502 0.84018 0.0
O1445 O 0.3744 0.51715 0.87046 0.0
O1446 O 0.33741 0.47695 0.87825 0.0
C1447 C 0.37476 0.53436 0.85418 0.0
H1448 H 0.27689 0.55203 0.90346 0.0
H1449 H 0.3873 0.46535 0.78594 0.0
H1450 H 0.28349 0.45868 0.80543 0.0
H1451 H 0.27993 0.53713 0.80084 0.0
Co1452 Co 0.66112 0.65667 0.00704 0.0
C1453 C 0.66568 0.62489 0.96349 0.0
C1454 C 0.69915 0.62826 0.98293 0.0
C1455 C 0.70243 0.61137 0.96486 0.0
N1456 N 0.67603 0.63661 0.98226 0.0
N1457 N 0.68135 0.60935 0.95282 0.0
H1458 H 0.64699 0.62674 0.95813 0.0
H1459 H 0.71246 0.63326 0.99632 0.0
C1460 C 0.67847 0.63509 0.05477 0.0
O1461 O 0.67558 0.65623 0.0655 0.0
N1462 N 0.64617 0.67638 0.03201 0.0
C1463 C 0.65011 0.69999 0.0378 0.0
C1464 C 0.63537 0.70601 0.05717 0.0
C1465 C 0.62876 0.66862 0.0474 0.0
N1466 N 0.62222 0.68613 0.06311 0.0
C1467 C 0.69181 0.69248 0.98582 0.0
C1468 C 0.72726 0.6952 0.02084 0.0
C1469 C 0.72859 0.71083 1.00091 0.0
C1470 C 0.71081 0.70911 0.98311 0.0
C1471 C 0.70786 0.6787 0.02287 0.0
N1472 N 0.6899 0.67792 0.00582 0.0
H1473 H 0.67863 0.69135 0.97153 0.0
H1474 H 0.70786 0.66667 0.03803 0.0
H1475 H 0.66288 0.71196 0.02881 0.0
H1476 H 0.62139 0.6503 0.04746 0.0
O1477 O 0.64149 0.67388 0.98349 0.0
O1478 O 0.62978 0.64042 0.00229 0.0
O1479 O 0.67522 0.63302 0.03196 0.0
C1480 C 0.6246 0.65777 0.98705 0.0
H1481 H 0.71862 0.60063 0.96145 0.0
H1482 H 0.63459 0.7234 0.0664 0.0
H1483 H 0.74101 0.69588 0.03478 0.0
H1484 H 0.71151 0.72072 0.96729 0.0
Co1485 Co 0.65956 0.35226 0.99723 0.0
C1486 C 0.61794 0.34708 0.96411 0.0
C1487 C 0.63148 0.31161 0.97318 0.0
C1488 C 0.61152 0.30886 0.95841 0.0
N1489 N 0.63579 0.33572 0.97663 0.0
N1490 N 0.60324 0.33124 0.95281 0.0
H1491 H 0.61562 0.36661 0.96275 0.0
H1492 H 0.6418 0.29671 0.98075 0.0
C1493 C 0.62891 0.32611 0.03433 0.0
O1494 O 0.63486 0.30521 0.02447 0.0
N1495 N 0.68142 0.36984 0.01798 0.0
C1496 C 0.70591 0.37143 0.01778 0.0
C1497 C 0.7128 0.38887 0.03452 0.0
C1498 C 0.67378 0.3863 0.03429 0.0
N1499 N 0.69242 0.39827 0.04448 0.0
C1500 C 0.68704 0.31093 0.98199 0.0
C1501 C 0.70235 0.2957 0.02701 0.0
C1502 C 0.71054 0.28321 0.00648 0.0
C1503 C 0.70272 0.29099 0.9838 0.0
C1504 C 0.68644 0.31555 0.02438 0.0
N1505 N 0.67834 0.32244 0.0021 0.0
H1506 H 0.68185 0.31729 0.96427 0.0
H1507 H 0.68121 0.32594 0.0401 0.0
H1508 H 0.71779 0.36105 0.00606 0.0
H1509 H 0.65481 0.38998 0.03817 0.0
O1510 O 0.67743 0.36353 0.96939 0.0
O1511 O 0.64714 0.38385 0.9865 0.0
O1512 O 0.63744 0.34624 0.02611 0.0
C1513 C 0.66384 0.38287 0.96972 0.0
H1514 H 0.60409 0.29188 0.95174 0.0
H1515 H 0.73117 0.39448 0.03879 0.0
H1516 H 0.70869 0.29054 0.04477 0.0
H1517 H 0.70922 0.28209 0.96757 0.0
Co1518 Co 0.34813 0.66012 0.01412 0.0
C1519 C 0.33924 0.62178 0.05028 0.0
C1520 C 0.30522 0.6373 0.03957 0.0
C1521 C 0.30068 0.61827 0.05534 0.0
N1522 N 0.32956 0.63955 0.03635 0.0
N1523 N 0.32221 0.60874 0.06188 0.0
H1524 H 0.35834 0.61778 0.05177 0.0
H1525 H 0.29143 0.64818 0.03084 0.0
C1526 C 0.32008 0.62961 0.97883 0.0
O1527 O 0.29944 0.63816 0.98721 0.0
N1528 N 0.36752 0.67882 0.99193 0.0
C1529 C 0.37164 0.70306 0.99064 0.0
C1530 C 0.39015 0.70704 0.9741 0.0
C1531 C 0.38345 0.66845 0.97663 0.0
N1532 N 0.39745 0.68514 0.96565 0.0
C1533 C 0.31022 0.69304 0.0274 0.0
C1534 C 0.29669 0.70667 0.9813 0.0
C1535 C 0.28591 0.71834 0.00109 0.0
C1536 C 0.29275 0.71129 0.02434 0.0
C1537 C 0.31413 0.6884 0.98517 0.0
N1538 N 0.32034 0.68141 0.00803 0.0
H1539 H 0.31598 0.68842 0.04546 0.0
H1540 H 0.3232 0.68041 0.96981 0.0
H1541 H 0.36243 0.71669 0.00144 0.0
H1542 H 0.38539 0.64893 0.97418 0.0
O1543 O 0.36134 0.67786 0.0409 0.0
O1544 O 0.37835 0.64536 0.02468 0.0
O1545 O 0.34041 0.63688 0.98716 0.0
C1546 C 0.37956 0.66272 0.04065 0.0
H1547 H 0.28308 0.61188 0.06144 0.0
H1548 H 0.39799 0.72445 0.96908 0.0
H1549 H 0.29213 0.71208 0.96307 0.0
H1550 H 0.28502 0.72024 0.04 0.0
Co1551 Co 0.3506 0.34739 0.00894 0.0
C1552 C 0.3888 0.34129 0.047 0.0
C1553 C 0.38281 0.3081 0.02765 0.0
C1554 C 0.4026 0.30493 0.04233 0.0
N1555 N 0.37405 0.33103 0.03023 0.0
N1556 N 0.40627 0.32571 0.05469 0.0
H1557 H 0.38755 0.36001 0.05302 0.0
H1558 H 0.37563 0.29435 0.0158 0.0
C1559 C 0.38077 0.32334 0.96948 0.0
O1560 O 0.37119 0.3019 0.97382 0.0
N1561 N 0.32904 0.36457 0.98706 0.0
C1562 C 0.30454 0.36432 0.98586 0.0
C1563 C 0.29728 0.38036 0.96795 0.0
C1564 C 0.33629 0.38107 0.9704 0.0
N1565 N 0.31731 0.39092 0.95843 0.0
C1566 C 0.32696 0.30425 0.02488 0.0
C1567 C 0.30607 0.29002 0.98193 0.0
C1568 C 0.3005 0.27694 0.00305 0.0
C1569 C 0.31163 0.28401 0.02455 0.0
C1570 C 0.32219 0.30997 0.98293 0.0
N1571 N 0.33265 0.31677 0.00428 0.0
H1572 H 0.33377 0.31039 0.0421 0.0
H1573 H 0.32571 0.32036 0.96671 0.0
H1574 H 0.2928 0.35348 0.99732 0.0
H1575 H 0.35508 0.38619 0.96742 0.0
O1576 O 0.33137 0.3584 0.03595 0.0
O1577 O 0.36219 0.37901 0.02018 0.0
O1578 O 0.37414 0.34235 0.98116 0.0
C1579 C 0.34479 0.37787 0.03625 0.0
H1580 H 0.41358 0.28857 0.04379 0.0
H1581 H 0.27875 0.38454 0.96282 0.0
H1582 H 0.29743 0.28536 0.96502 0.0
H1583 H 0.30742 0.27472 0.04131 0.0
C1584 C 0.00285 0.26016 0.25968 0.0
C1585 C 0.9915 0.28273 0.25398 0.0
C1586 C 0.98063 0.26648 0.21406 0.0
C1587 C 0.99423 0.24497 0.219 0.0
N1588 N 0.02309 0.22407 0.24446 0.0
N1589 N 0.97308 0.30896 0.22419 0.0
C1590 C 0.0068 0.24267 0.24121 0.0
C1591 C 0.98133 0.28636 0.2307 0.0
N1592 N 0.00908 0.25499 0.28299 0.0
N1593 N 0.96635 0.26762 0.19397 0.0
H1594 H 0.97332 0.3239 0.23584 0.0
H1595 H 0.96787 0.31337 0.20668 0.0
H1596 H 0.9654 0.2535 0.18141 0.0
H1597 H 0.95402 0.2817 0.19076 0.0
H1598 H 0.01518 0.23787 0.28853 0.0
H1599 H 0.00573 0.26695 0.29725 0.0
H1600 H 0.03452 0.22291 0.25938 0.0
H1601 H 0.02704 0.21125 0.2311 0.0
C1602 C 0.75635 0.96695 0.23876 0.0
C1603 C 0.77935 0.97767 0.24361 0.0
C1604 C 0.76681 0.98363 0.28562 0.0
C1605 C 0.74243 0.97802 0.27932 0.0
N1606 N 0.71349 0.96622 0.24874 0.0
N1607 N 0.80557 0.99891 0.27157 0.0
C1608 C 0.73705 0.96981 0.25566 0.0
C1609 C 0.78454 0.98643 0.26714 0.0
N1610 N 0.75302 0.95397 0.21801 0.0
N1611 N 0.77293 0.98636 0.30932 0.0
H1612 H 0.81877 0.00221 0.25846 0.0
H1613 H 0.8089 0.00794 0.28776 0.0
H1614 H 0.76037 0.98396 0.32326 0.0
H1615 H 0.79083 0.98838 0.31513 0.0
H1616 H 0.73732 0.94395 0.2145 0.0
H1617 H 0.76698 0.95114 0.20553 0.0
H1618 H 0.70847 0.96297 0.23093 0.0
H1619 H 0.69871 0.96845 0.26034 0.0
C1620 C 0.9942 0.73081 0.25649 0.0
C1621 C 0.00989 0.73527 0.27629 0.0
C1622 C 0.02493 0.77208 0.25584 0.0
C1623 C 0.00647 0.76961 0.2381 0.0
N1624 N 0.97002 0.74894 0.22487 0.0
N1625 N 0.03738 0.76274 0.29667 0.0
C1626 C 0.99015 0.74955 0.23928 0.0
C1627 C 0.02461 0.75658 0.27647 0.0
N1628 N 0.98346 0.70847 0.25387 0.0
N1629 N 0.04319 0.7887 0.25271 0.0
H1630 H 0.03722 0.75227 0.31237 0.0
H1631 H 0.0463 0.77941 0.29857 0.0
H1632 H 0.04448 0.79991 0.23754 0.0
H1633 H 0.05834 0.78959 0.26393 0.0
H1634 H 0.97362 0.70358 0.23858 0.0
H1635 H 0.98661 0.694 0.26572 0.0
H1636 H 0.95637 0.73587 0.22675 0.0
H1637 H 0.96559 0.7629 0.21287 0.0
C1638 C 0.27156 0.01113 0.25776 0.0
C1639 C 0.26344 0.00794 0.28186 0.0
C1640 C 0.22106 0.01192 0.26911 0.0
C1641 C 0.2291 0.01276 0.24482 0.0
N1642 N 0.26132 0.01114 0.21528 0.0
N1643 N 0.23104 0.00309 0.31082 0.0
C1644 C 0.25419 0.01195 0.23892 0.0
C1645 C 0.23831 0.00781 0.28767 0.0
N1646 N 0.29585 0.01387 0.25301 0.0
N1647 N 0.19696 0.01536 0.27431 0.0
H1648 H 0.24326 1.00039 0.32493 0.0
H1649 H 0.21302 1.00016 0.31584 0.0
H1650 H 0.18383 0.01817 0.26103 0.0
H1651 H 0.19015 0.01736 0.29172 0.0
H1652 H 0.30273 0.01908 0.23628 0.0
H1653 H 0.30924 0.01255 0.26625 0.0
H1654 H 0.27906 0.00747 0.20975 0.0
H1655 H 0.24916 0.01276 0.20095 0.0
C1656 C 0.00632 0.75571 0.76885 0.0
C1657 C 0.0082 0.78056 0.76169 0.0
C1658 C 0.01089 0.76794 0.71914 0.0
C1659 C 0.01038 0.74306 0.72643 0.0
N1660 N 0.0103 0.71286 0.75807 0.0
N1661 N 0.01488 0.81061 0.73064 0.0
C1662 C 0.00887 0.73685 0.75127 0.0
C1663 C 0.01121 0.78674 0.73697 0.0
N1664 N 1.00157 0.75018 0.79246 0.0
N1665 N 0.01054 0.77356 0.69511 0.0
H1666 H 0.01426 0.8249 0.74305 0.0
H1667 H 0.01997 0.81623 0.71343 0.0
H1668 H 0.01137 0.76033 0.68162 0.0
H1669 H 0.00804 0.79114 0.68842 0.0
H1670 H 0.9972 0.73276 0.79858 0.0
H1671 H 1.00037 0.76339 0.80595 0.0
H1672 H 0.01213 0.70709 0.77585 0.0
H1673 H 0.01131 0.69852 0.74575 0.0
C1674 C 0.26925 0.01754 0.74542 0.0
C1675 C 0.26863 0.99866 0.72792 0.0
C1676 C 0.23394 0.98061 0.74956 0.0
C1677 C 0.23261 1.00156 0.76464 0.0
N1678 N 0.24447 0.04373 0.77016 0.0
N1679 N 0.24565 0.96553 0.7102 0.0
C1680 C 0.24879 0.02127 0.76036 0.0
C1681 C 0.24958 0.98107 0.72901 0.0
N1682 N 0.28969 0.03131 0.74862 0.0
N1683 N 0.22127 0.95995 0.75521 0.0
H1684 H 0.25567 0.96622 0.69424 0.0
H1685 H 0.23069 0.95386 0.70949 0.0
H1686 H 0.21048 0.9584 0.77061 0.0
H1687 H 0.22351 0.9436 0.74584 0.0
H1688 H 0.29123 0.0441 0.76246 0.0
H1689 H 0.30596 0.02784 0.73951 0.0
H1690 H 0.25509 0.05895 0.76603 0.0
H1691 H 0.22871 0.04767 0.77997 0.0
C1692 C 0.02079 0.24447 0.73331 0.0
C1693 C 0.01859 0.26992 0.73769 0.0
C1694 C 0.01991 0.26244 0.78141 0.0
C1695 C 0.0192 0.23691 0.77703 0.0
N1696 N 0.01821 0.20317 0.74924 0.0
N1697 N 0.01512 0.30353 0.76547 0.0
C1698 C 0.01966 0.22779 0.75306 0.0
C1699 C 0.01815 0.27903 0.76165 0.0
N1700 N 0.02415 0.23636 0.71023 0.0
N1701 N 0.02238 0.27077 0.80451 0.0
H1702 H 0.01478 0.31629 0.75149 0.0
H1703 H 0.01164 0.3112 0.78228 0.0
H1704 H 0.02303 0.25918 0.81943 0.0
H1705 H 0.02557 0.28896 0.8089 0.0
H1706 H 0.02827 0.21836 0.70583 0.0
H1707 H 0.02463 0.24808 0.6954 0.0
H1708 H 0.01551 0.1953 0.73239 0.0
H1709 H 0.01847 0.19042 0.76323 0.0
C1710 C 0.7435 0.99711 0.78435 0.0
C1711 C 0.76776 0.99707 0.77554 0.0
C1712 C 0.75315 0.99999 0.73403 0.0
C1713 C 0.72887 0.99864 0.74271 0.0
N1714 N 0.70061 0.99204 0.77535 0.0
N1715 N 0.796 0.99393 0.74237 0.0
C1716 C 0.72393 0.99605 0.76768 0.0
C1717 C 0.77267 0.99708 0.75045 0.0
N1718 N 0.73923 0.99895 0.80858 0.0
N1719 N 0.75752 0.00495 0.71022 0.0
H1720 H 0.8108 0.99194 0.75395 0.0
H1721 H 0.80047 0.99115 0.72433 0.0
H1722 H 0.74369 0.00717 0.69755 0.0
H1723 H 0.77471 0.00887 0.70333 0.0
H1724 H 0.72206 1.00192 0.81598 0.0
H1725 H 0.75314 0.99906 0.82134 0.0
H1726 H 0.69609 0.98742 0.79301 0.0
H1727 H 0.68581 0.99152 0.76362 0.0
C1728 C 0.24367 0.24203 0.02216 0.0
C1729 C 0.24537 0.22045 0.00811 0.0
C1730 C 0.2847 0.23471 0.99207 0.0
C1731 C 0.28123 0.25759 0.00372 0.0
N1732 N 0.25448 0.28465 0.02568 0.0
N1733 N 0.26608 0.19741 0.97726 0.0
C1734 C 0.25989 0.26168 0.01764 0.0
C1735 C 0.26558 0.21702 0.99244 0.0
N1736 N 0.22667 0.24362 0.04012 0.0
N1737 N 0.30648 0.22959 0.98127 0.0
H1738 H 0.25263 0.18399 0.97728 0.0
H1739 H 0.27889 0.19536 0.96354 0.0
H1740 H 0.32082 0.24204 0.98067 0.0
H1741 H 0.31101 0.21237 0.97468 0.0
H1742 H 0.2261 0.25794 0.05246 0.0
H1743 H 0.21477 0.22936 0.04427 0.0
H1744 H 0.23796 0.28912 0.03382 0.0
H1745 H 0.26532 0.29982 0.02193 0.0
C1746 C 0.25826 0.78209 0.0035 0.0
C1747 C 0.2338 0.77715 0.99701 0.0
C1748 C 0.24364 0.73367 0.99202 0.0
C1749 C 0.26826 0.73874 0.99777 0.0
N1750 N 0.30021 0.76817 0.00393 0.0
N1751 N 0.20416 0.74962 0.98029 0.0
C1752 C 0.27594 0.76313 0.00192 0.0
C1753 C 0.22681 0.75332 0.98974 0.0
N1754 N 0.26439 0.80463 0.01215 0.0
N1755 N 0.23612 0.70999 0.98972 0.0
H1756 H 0.1914 0.76361 0.97841 0.0
H1757 H 0.19874 0.73328 0.97238 0.0
H1758 H 0.24797 0.69514 0.9909 0.0
H1759 H 0.21793 0.7049 0.98835 0.0
H1760 H 0.28119 0.80856 0.01986 0.0
H1761 H 0.25207 0.81909 0.01322 0.0
H1762 H 0.30721 0.78582 0.0045 0.0
H1763 H 0.31363 0.75472 0.00287 0.0
C1764 C 0.73764 0.21904 0.00674 0.0
C1765 C 0.76288 0.22446 0.00703 0.0
C1766 C 0.75381 0.26841 0.00742 0.0
C1767 C 0.72857 0.26298 0.00825 0.0
N1768 N 0.69618 0.23365 0.01211 0.0
N1769 N 0.79531 0.25378 0.01133 0.0
C1770 C 0.72041 0.2384 0.00894 0.0
C1771 C 0.77105 0.24903 0.00845 0.0
N1772 N 0.73021 0.19542 0.00371 0.0
N1773 N 0.76126 0.29211 0.00491 0.0
H1774 H 0.80859 0.24017 0.01148 0.0
H1775 H 0.80221 0.271 0.0153 0.0
H1776 H 0.74927 0.30689 0.00502 0.0
H1777 H 0.77914 0.29715 0.00118 0.0
H1778 H 0.71223 0.19036 1.00073 0.0
H1779 H 0.74235 0.1808 0.00254 0.0
H1780 H 0.68917 0.21629 0.01524 0.0
H1781 H 0.6831 0.24741 0.01339 0.0
C1782 C 0.74209 0.75445 0.00388 0.0
C1783 C 0.74794 0.72973 0.99884 0.0
C1784 C 0.79009 0.74148 0.98957 0.0
C1785 C 0.78372 0.76636 0.99297 0.0
N1786 N 0.7529 0.79711 0.99912 0.0
N1787 N 0.77622 0.69982 0.98355 0.0
C1788 C 0.75946 0.773 0.99887 0.0
C1789 C 0.77161 0.72325 0.99074 0.0
N1790 N 0.72016 0.76011 0.01419 0.0
N1791 N 0.81391 0.73523 0.98595 0.0
H1792 H 0.76325 0.68596 0.98453 0.0
H1793 H 0.79224 0.69448 0.97501 0.0
H1794 H 0.82777 0.74815 0.98441 0.0
H1795 H 0.8202 0.7173 0.98607 0.0
H1796 H 0.71585 0.77738 0.02078 0.0
H1797 H 0.70693 0.74704 0.01812 0.0
H1798 H 0.73497 0.80306 1.00073 0.0
H1799 H 0.76512 0.81124 0.99557 0.0
C1800 C 0.73133 0.48498 0.7446 0.0
C1801 C 0.73817 0.4863 0.76923 0.0
C1802 C 0.78137 0.48667 0.75761 0.0
C1803 C 0.77453 0.48526 0.73299 0.0
N1804 N 0.74372 0.47826 0.70302 0.0
N1805 N 0.7692 0.48357 0.79968 0.0
C1806 C 0.74968 0.48282 0.7265 0.0
C1807 C 0.76309 0.48556 0.77587 0.0
N1808 N 0.7073 0.48677 0.73848 0.0
N1809 N 0.80529 0.49002 0.76346 0.0
H1810 H 0.75625 0.48304 0.81346 0.0
H1811 H 0.78684 0.4805 0.80573 0.0
H1812 H 0.81922 0.49001 0.75065 0.0
H1813 H 0.8113 0.49415 0.78076 0.0
H1814 H 0.70117 0.48891 0.72087 0.0
H1815 H 0.69335 0.48756 0.75125 0.0
H1816 H 0.72623 0.47387 0.69733 0.0
H1817 H 0.7567 0.47691 0.68932 0.0
C1818 C 0.25146 0.50403 0.73856 0.0
C1819 C 0.2264 0.50023 0.74353 0.0
C1820 C 0.23569 0.49416 0.78645 0.0
C1821 C 0.26087 0.49646 0.78118 0.0
N1822 N 0.29323 0.49948 0.75194 0.0
N1823 N 0.19475 0.48808 0.77119 0.0
C1824 C 0.26889 0.50016 0.7571 0.0
C1825 C 0.21852 0.49427 0.76722 0.0
N1826 N 0.2585 0.51208 0.71625 0.0
N1827 N 0.22816 0.49261 0.80992 0.0
H1828 H 0.18161 0.48844 0.75766 0.0
H1829 H 0.18836 0.48093 0.78741 0.0
H1830 H 0.24024 0.49174 0.82437 0.0
H1831 H 0.21001 0.49376 0.81522 0.0
H1832 H 0.2761 0.51779 0.71219 0.0
H1833 H 0.24628 0.51501 0.70218 0.0
H1834 H 0.30021 0.49946 0.73447 0.0
H1835 H 0.30651 0.4968 0.76508 0.0
C1836 C 0.2499 0.48485 0.2261 0.0
C1837 C 0.27389 0.48152 0.235 0.0
C1838 C 0.25777 0.47795 0.27626 0.0
C1839 C 0.23434 0.48456 0.2677 0.0
N1840 N 0.20772 0.49498 0.23485 0.0
N1841 N 0.30122 0.47529 0.26829 0.0
C1842 C 0.23023 0.48787 0.24265 0.0
C1843 C 0.27794 0.47789 0.26002 0.0
N1844 N 0.24599 0.48508 0.20175 0.0
N1845 N 0.26059 0.4716 0.29994 0.0
H1846 H 0.31624 0.47411 0.2568 0.0
H1847 H 0.3059 0.47549 0.28645 0.0
H1848 H 0.24621 0.47171 0.31226 0.0
H1849 H 0.27658 0.46441 0.30704 0.0
H1850 H 0.2288 0.48497 0.19395 0.0
H1851 H 0.26003 0.48349 0.18916 0.0
H1852 H 0.20407 0.50066 0.21732 0.0
H1853 H 0.19273 0.49644 0.24633 0.0
C1854 C 0.73494 0.49927 0.28263 0.0
C1855 C 0.75991 0.50149 0.27637 0.0
C1856 C 0.74931 0.50196 0.23335 0.0
C1857 C 0.72424 0.5013 0.23966 0.0
N1858 N 0.6927 0.50185 0.26984 0.0
N1859 N 0.79112 0.50744 0.24632 0.0
C1860 C 0.71691 0.50064 0.26421 0.0
C1861 C 0.76716 0.50347 0.25186 0.0
N1862 N 0.72857 0.49542 0.30618 0.0
N1863 N 0.75605 0.50058 0.20962 0.0
H1864 H 0.80488 0.50753 0.25923 0.0
H1865 H 0.79732 0.51208 0.22918 0.0
H1866 H 0.74358 0.50059 0.19547 0.0
H1867 H 0.77388 0.49794 0.20384 0.0
H1868 H 0.71102 0.49113 0.31184 0.0
H1869 H 0.74126 0.49488 0.32013 0.0
H1870 H 0.68605 0.50403 0.28728 0.0
H1871 H 0.67908 0.5023 0.25678 0.0
C1872 C 0.24314 0.75467 0.51108 0.0
C1873 C 0.24904 0.72951 0.51311 0.0
C1874 C 0.29246 0.73896 0.50824 0.0
C1875 C 0.28661 0.76417 0.50706 0.0
N1876 N 0.25719 0.79666 0.51107 0.0
N1877 N 0.27892 0.69767 0.5173 0.0
C1878 C 0.26216 0.77221 0.5096 0.0
C1879 C 0.27364 0.72165 0.51284 0.0
N1880 N 0.21928 0.7617 0.50967 0.0
N1881 N 0.31591 0.73158 0.50431 0.0
H1882 H 0.2655 0.6846 0.52054 0.0
H1883 H 0.29648 0.69098 0.51966 0.0
H1884 H 0.33014 0.74382 0.50133 0.0
H1885 H 0.32112 0.71341 0.5024 0.0
H1886 H 0.21373 0.77927 0.50506 0.0
H1887 H 0.20481 0.74956 0.51175 0.0
H1888 H 0.24023 0.80368 0.51579 0.0
H1889 H 0.27046 0.81013 0.50917 0.0
C1890 C 0.23707 0.23046 0.50619 0.0
C1891 C 0.26068 0.23731 0.49817 0.0
C1892 C 0.24684 0.27964 0.4934 0.0
C1893 C 0.22271 0.2724 0.49918 0.0
N1894 N 0.19397 0.24011 0.50708 0.0
N1895 N 0.28671 0.26722 0.47931 0.0
C1896 C 0.21755 0.24755 0.50445 0.0
C1897 C 0.26515 0.26157 0.49032 0.0
N1898 N 0.23347 0.20798 0.51631 0.0
N1899 N 0.25252 0.3039 0.49177 0.0
H1900 H 0.30043 0.25437 0.47637 0.0
H1901 H 0.29002 0.28396 0.47099 0.0
H1902 H 0.2398 0.31778 0.49448 0.0
H1903 H 0.27029 0.3103 0.4901 0.0
H1904 H 0.21736 0.20296 0.5249 0.0
H1905 H 0.24725 0.19498 0.5179 0.0
H1906 H 0.18889 0.22183 0.50837 0.0
H1907 H 0.17923 0.25207 0.50592 0.0
C1908 C 0.7533 0.78526 0.5096 0.0
C1909 C 0.73254 0.78312 0.49455 0.0
C1910 C 0.74637 0.74245 0.48168 0.0
C1911 C 0.76777 0.74515 0.49572 0.0
N1912 N 0.79462 0.77208 0.51746 0.0
N1913 N 0.71286 0.76267 0.46147 0.0
C1914 C 0.77219 0.76753 0.50791 0.0
C1915 C 0.73029 0.76266 0.47899 0.0
N1916 N 0.75448 0.80338 0.52647 0.0
N1917 N 0.74062 0.72026 0.47198 0.0
H1918 H 0.70109 0.77739 0.45876 0.0
H1919 H 0.71176 0.74931 0.44816 0.0
H1920 H 0.75149 0.7048 0.47404 0.0
H1921 H 0.72397 0.71664 0.46381 0.0
H1922 H 0.7679 0.80408 0.53969 0.0
H1923 H 0.74095 0.81655 0.52867 0.0
H1924 H 0.79957 0.78898 0.52451 0.0
H1925 H 0.80909 0.7598 0.51603 0.0
C1926 C 0.76369 0.25547 0.47934 0.0
C1927 C 0.78401 0.25671 0.49499 0.0
C1928 C 0.77144 0.21834 0.51444 0.0
C1929 C 0.74958 0.21887 0.50092 0.0
N1930 N 0.72413 0.23777 0.47087 0.0
N1931 N 0.80763 0.24 0.52761 0.0
C1932 C 0.74563 0.23724 0.48324 0.0
C1933 C 0.78815 0.23815 0.51243 0.0
N1934 N 0.76178 0.27173 0.4607 0.0
N1935 N 0.77617 0.19882 0.52909 0.0
H1936 H 0.82079 0.25362 0.52591 0.0
H1937 H 0.81029 0.22883 0.54257 0.0
H1938 H 0.76407 0.1843 0.53119 0.0
H1939 H 0.79269 0.19599 0.53776 0.0
H1940 H 0.74882 0.27046 0.44712 0.0
H1941 H 0.77439 0.28563 0.45769 0.0
H1942 H 0.71866 0.25224 0.45997 0.0
H1943 H 0.71096 0.22415 0.47242 0.0
C1944 C 0.50619 0.26821 0.72406 0.0
C1945 C 0.50587 0.24352 0.73182 0.0
C1946 C 0.49822 0.25632 0.77344 0.0
C1947 C 0.49993 0.28103 0.76592 0.0
N1948 N 0.50808 0.31104 0.73514 0.0
N1949 N 0.50473 0.21361 0.76372 0.0
C1950 C 0.50462 0.28715 0.74149 0.0
C1951 C 0.50281 0.23744 0.7565 0.0
N1952 N 0.5074 0.27345 0.69996 0.0
N1953 N 0.49179 0.25098 0.79671 0.0
H1954 H 0.50759 0.19923 0.75172 0.0
H1955 H 0.50531 0.20811 0.78167 0.0
H1956 H 0.48885 0.26433 0.80979 0.0
H1957 H 0.48761 0.23349 0.80277 0.0
H1958 H 0.50483 0.29084 0.69283 0.0
H1959 H 0.50972 0.26006 0.68678 0.0
H1960 H 0.51437 0.31659 0.71829 0.0
H1961 H 0.50594 0.32546 0.74724 0.0
C1962 C 0.51067 0.74319 0.7388 0.0
C1963 C 0.50949 0.76814 0.74563 0.0
C1964 C 0.51273 0.75657 0.78829 0.0
C1965 C 0.51143 0.73159 0.78158 0.0
N1966 N 0.50747 0.70067 0.75098 0.0
N1967 N 0.50752 0.79899 0.77651 0.0
C1968 C 0.51007 0.72476 0.75694 0.0
C1969 C 0.51016 0.77496 0.77029 0.0
N1970 N 0.51279 0.73718 0.71496 0.0
N1971 N 0.51671 0.76264 0.81186 0.0
H1972 H 0.50631 0.81301 0.76381 0.0
H1973 H 0.50499 0.80501 0.79412 0.0
H1974 H 0.51808 0.74968 0.82559 0.0
H1975 H 0.52046 0.7803 0.81767 0.0
H1976 H 0.51633 0.71957 0.70882 0.0
H1977 H 0.51279 0.75016 0.70118 0.0
H1978 H 0.50345 0.69459 0.73367 0.0
H1979 H 0.50795 0.68664 0.76371 0.0
C1980 C 0.50397 0.78764 0.23589 0.0
C1981 C 0.50989 0.78364 0.26046 0.0
C1982 C 0.52188 0.74164 0.25101 0.0
C1983 C 0.51277 0.7446 0.2273 0.0
N1984 N 0.49133 0.76941 0.19821 0.0
N1985 N 0.51968 0.75517 0.29238 0.0
C1986 C 0.50284 0.76738 0.21993 0.0
C1987 C 0.5176 0.76018 0.26832 0.0
N1988 N 0.50001 0.81084 0.22767 0.0
N1989 N 0.53506 0.72132 0.25688 0.0
H1990 H 0.5158 0.7679 0.30583 0.0
H1991 H 0.52281 0.73766 0.29906 0.0
H1992 H 0.53903 0.70754 0.24449 0.0
H1993 H 0.54413 0.71937 0.27325 0.0
H1994 H 0.49802 0.81507 0.20946 0.0
H1995 H 0.501 0.82615 0.23879 0.0
H1996 H 0.48151 0.78485 0.1931 0.0
H1997 H 0.48968 0.75493 0.18614 0.0
C1998 C 0.52459 0.2219 0.25262 0.0
C1999 C 0.52388 0.22927 0.27714 0.0
C2000 C 0.52283 0.27237 0.26489 0.0
C2001 C 0.52351 0.265 0.24037 0.0
N2002 N 0.52932 0.23355 0.21057 0.0
N2003 N 0.5267 0.26097 0.30707 0.0
C2004 C 0.52581 0.23996 0.23415 0.0
C2005 C 0.52446 0.25439 0.2834 0.0
N2006 N 0.52322 0.19761 0.24706 0.0
N2007 N 0.51975 0.29653 0.27042 0.0
H2008 H 0.52738 0.24828 0.32109 0.0
H2009 H 0.5297 0.27879 0.31282 0.0
H2010 H 0.51948 0.31028 0.25739 0.0
H2011 H 0.51616 0.30296 0.28771 0.0
H2012 H 0.52066 0.19097 0.22968 0.0
H2013 H 0.52344 0.18389 0.26012 0.0
H2014 H 0.53362 0.21594 0.20495 0.0
H2015 H 0.52965 0.24626 0.19655 0.0
C2016 C 0.11333 0.08229 0.1972 0.0
C2017 C 0.10724 0.05757 0.19216 0.0
C2018 C 0.06381 0.06762 0.19504 0.0
C2019 C 0.06984 0.0925 0.1986 0.0
N2020 N 0.09954 0.12436 0.20127 0.0
N2021 N 0.07702 0.02669 0.18434 0.0
C2022 C 0.09443 0.10004 0.1993 0.0
C2023 C 0.08254 0.05025 0.19043 0.0
N2024 N 0.13717 0.08872 0.20012 0.0
N2025 N 0.04006 0.06064 0.19691 0.0
H2026 H 0.09017 0.01316 0.18198 0.0
H2027 H 0.05957 0.02069 0.18022 0.0
H2028 H 0.02626 0.0731 0.20059 0.0
H2029 H 0.03415 0.0426 0.1968 0.0
H2030 H 0.14286 0.1057 0.20628 0.0
H2031 H 0.1515 0.07657 0.19737 0.0
H2032 H 0.11684 0.13178 0.19927 0.0
H2033 H 0.08598 0.1375 0.20366 0.0
C2034 C 0.93669 0.06688 0.19806 0.0
C2035 C 0.91691 0.06424 0.18171 0.0
C2036 C 0.93719 0.09202 0.15361 0.0
C2037 C 0.95788 0.09338 0.16853 0.0
N2038 N 0.97697 0.08356 0.20628 0.0
N2039 N 0.89382 0.09149 0.15718 0.0
C2040 C 0.9575 0.08119 0.19125 0.0
C2041 C 0.91558 0.08115 0.1626 0.0
N2042 N 0.93397 0.05847 0.22109 0.0
N2043 N 0.93765 0.10201 0.13113 0.0
H2044 H 0.87841 0.08855 0.1678 0.0
H2045 H 0.89261 0.10641 0.14567 0.0
H2046 H 0.95311 0.11033 0.12391 0.0
H2047 H 0.92327 0.09977 0.11918 0.0
H2048 H 0.94681 0.06044 0.23467 0.0
H2049 H 0.91734 0.05175 0.22734 0.0
H2050 H 0.97932 0.07367 0.22211 0.0
H2051 H 0.99161 0.09486 0.20214 0.0
C2052 C 0.89488 0.91924 0.14692 0.0
C2053 C 0.8797 0.92574 0.16654 0.0
C2054 C 0.90452 0.90064 0.19385 0.0
C2055 C 0.92132 0.89692 0.17492 0.0
N2056 N 0.93306 0.90203 0.13334 0.0
N2057 N 0.8657 0.91721 0.20702 0.0
C2058 C 0.91632 0.90554 0.15126 0.0
C2059 C 0.88305 0.91461 0.18952 0.0
N2060 N 0.88829 0.92557 0.12401 0.0
N2061 N 0.91011 0.89193 0.21625 0.0
H2062 H 0.84959 0.92679 0.20437 0.0
H2063 H 0.86614 0.90835 0.2236 0.0
H2064 H 0.92542 0.88107 0.21931 0.0
H2065 H 0.90033 0.89592 0.23183 0.0
H2066 H 0.89694 0.91924 0.10852 0.0
H2067 H 0.87252 0.93535 0.12033 0.0
H2068 H 0.93238 0.91048 0.11655 0.0
H2069 H 0.94855 0.89138 0.13562 0.0
C2070 C 0.09836 0.90491 0.19596 0.0
C2071 C 0.09381 0.92805 0.18551 0.0
C2072 C 0.05828 0.91168 0.16484 0.0
C2073 C 0.06 0.89001 0.17892 0.0
N2074 N 0.08215 0.8654 0.20755 0.0
N2075 N 0.06704 0.95485 0.16365 0.0
C2076 C 0.08025 0.88644 0.1944 0.0
C2077 C 0.07318 0.93178 0.17082 0.0
N2078 N 0.12031 0.90043 0.20656 0.0
N2079 N 0.04285 0.91326 0.14562 0.0
H2080 H 0.07685 0.97026 0.16879 0.0
H2081 H 0.05074 0.95893 0.15496 0.0
H2082 H 0.03218 0.89892 0.13952 0.0
H2083 H 0.0429 0.92804 0.13377 0.0
H2084 H 0.12568 0.88326 0.21263 0.0
H2085 H 0.13407 0.91351 0.2073 0.0
H2086 H 0.0948 0.86295 0.22129 0.0
H2087 H 0.07041 0.85063 0.20523 0.0
C2088 C 0.08145 0.94082 0.84694 0.0
C2089 C 0.08498 0.9213 0.8305 0.0
C2090 C 0.12476 0.93816 0.8197 0.0
C2091 C 0.12297 0.95552 0.83872 0.0
N2092 N 0.10047 0.97011 0.87351 0.0
N2093 N 0.11239 0.8984 0.80532 0.0
C2094 C 0.10149 0.95608 0.85318 0.0
C2095 C 0.10735 0.91913 0.81806 0.0
N2096 N 0.05876 0.94535 0.85596 0.0
N2097 N 0.14245 0.94034 0.80248 0.0
H2098 H 0.1005 0.88359 0.80471 0.0
H2099 H 0.1294 0.89489 0.79773 0.0
H2100 H 0.15462 0.9549 0.8019 0.0
H2101 H 0.14311 0.92936 0.78715 0.0
H2102 H 0.05461 0.96075 0.86619 0.0
H2103 H 0.04358 0.93508 0.85111 0.0
H2104 H 0.08622 0.96904 0.8859 0.0
H2105 H 0.11483 0.98091 0.87944 0.0
C2106 C 0.06385 0.09907 0.85224 0.0
C2107 C 0.06863 0.12448 0.84954 0.0
C2108 C 0.11019 0.11485 0.83625 0.0
C2109 C 0.10494 0.08951 0.83698 0.0
N2110 N 0.0747 0.0579 0.83989 0.0
N2111 N 0.09387 0.15528 0.83073 0.0
C2112 C 0.08107 0.08174 0.84319 0.0
C2113 C 0.09102 0.13195 0.83897 0.0
N2114 N 0.04368 0.09131 0.86446 0.0
N2115 N 0.13362 0.12286 0.83434 0.0
H2116 H 0.07981 0.168 0.83086 0.0
H2117 H 0.10911 0.16094 0.82099 0.0
H2118 H 0.14853 0.11118 0.8336 0.0
H2119 H 0.13843 0.14116 0.8363 0.0
H2120 H 0.04073 0.07309 0.86901 0.0
H2121 H 0.03093 0.10317 0.87197 0.0
H2122 H 0.05696 0.05154 0.84202 0.0
H2123 H 0.08665 0.04509 0.83255 0.0
C2124 C 0.94598 0.07364 0.84483 0.0
C2125 C 0.93829 0.097 0.83698 0.0
C2126 C 0.89591 0.08347 0.8379 0.0
C2127 C 0.90373 0.05909 0.84283 0.0
N2128 N 0.93696 0.03048 0.84755 0.0
N2129 N 0.90679 0.12383 0.82329 0.0
C2130 C 0.92898 0.05403 0.84558 0.0
C2131 C 0.91346 0.1018 0.83279 0.0
N2132 N 0.96949 0.0704 0.85209 0.0
N2133 N 0.87178 0.08946 0.83911 0.0
H2134 H 0.91934 0.13766 0.8197 0.0
H2135 H 0.8893 0.12765 0.81716 0.0
H2136 H 0.85814 0.07697 0.84317 0.0
H2137 H 0.86541 0.10736 0.8384 0.0
H2138 H 0.97571 0.05454 0.86043 0.0
H2139 H 0.9823 0.08444 0.85168 0.0
H2140 H 0.95526 0.02559 0.84686 0.0
H2141 H 0.92534 0.01549 0.84773 0.0
C2142 C 0.94749 0.95034 0.81667 0.0
C2143 C 0.92262 0.94414 0.81455 0.0
C2144 C 0.93322 0.90073 0.81138 0.0
C2145 C 0.95807 0.90677 0.81489 0.0
N2146 N 0.98895 0.93674 0.82373 0.0
N2147 N 0.89108 0.91383 0.81369 0.0
C2148 C 0.96523 0.93144 0.8185 0.0
C2149 C 0.91529 0.91941 0.81294 0.0
N2150 N 0.95408 0.97437 0.8159 0.0
N2151 N 0.92678 0.8772 0.80624 0.0
H2152 H 0.87754 0.92716 0.81446 0.0
H2153 H 0.88438 0.89614 0.81541 0.0
H2154 H 0.93922 0.86284 0.80592 0.0
H2155 H 0.90941 0.87206 0.80082 0.0
H2156 H 0.97202 0.98037 0.81504 0.0
H2157 H 0.94134 0.98841 0.8143 0.0
H2158 H 0.99489 0.95393 0.8291 0.0
H2159 H 0.00264 0.92355 0.82412 0.0
C2160 C 0.18353 0.07513 0.07876 0.0
C2161 C 0.17996 0.07724 0.1039 0.0
C2162 C 0.16586 0.11927 0.09877 0.0
C2163 C 0.17217 0.1183 0.07391 0.0
N2164 N 0.19018 0.09564 0.04075 0.0
N2165 N 0.17127 0.10188 0.13863 0.0
C2166 C 0.18183 0.09629 0.06398 0.0
C2167 C 0.17222 0.09954 0.11413 0.0
N2168 N 0.18765 0.05262 0.06895 0.0
N2169 N 0.15232 0.13826 0.10741 0.0
H2170 H 0.17588 0.08764 0.15029 0.0
H2171 H 0.16804 0.11844 0.14731 0.0
H2172 H 0.14586 0.15219 0.09636 0.0
H2173 H 0.14515 0.13872 0.12479 0.0
H2174 H 0.18767 0.04929 0.05047 0.0
H2175 H 0.18888 0.03681 0.07939 0.0
H2176 H 0.19992 0.081 0.03363 0.0
H2177 H 0.18919 0.11036 0.02897 0.0
C2178 C 0.90296 0.14801 0.07184 0.0
C2179 C 0.90244 0.1633 0.05142 0.0
C2180 C 0.93361 0.18917 0.07021 0.0
C2181 C 0.93303 0.17414 0.09101 0.0
N2182 N 0.9097 0.14623 0.11467 0.0
N2183 N 0.91503 0.20072 0.03215 0.0
C2184 C 0.9152 0.15591 0.09281 0.0
C2185 C 0.91691 0.18482 0.051 0.0
N2186 N 0.89286 0.12534 0.07098 0.0
N2187 N 0.95112 0.20673 0.06854 0.0
H2188 H 0.90451 0.19692 0.01704 0.0
H2189 H 0.92317 0.21788 0.03191 0.0
H2190 H 0.96272 0.21053 0.08296 0.0
H2191 H 0.95466 0.21669 0.05292 0.0
H2192 H 0.8962 0.11241 0.08434 0.0
H2193 H 0.88393 0.11863 0.05581 0.0
H2194 H 0.89496 0.13469 0.11691 0.0
H2195 H 0.91759 0.1522 0.13063 0.0
C2196 C 0.83908 0.89602 0.06951 0.0
C2197 C 0.84141 0.90491 0.04537 0.0
C2198 C 0.82734 0.94545 0.05895 0.0
C2199 C 0.82557 0.93654 0.08286 0.0
N2200 N 0.83317 0.905 0.11193 0.0
N2201 N 0.84012 0.93883 0.01748 0.0
C2202 C 0.83229 0.91225 0.08836 0.0
C2203 C 0.83643 0.92993 0.04023 0.0
N2204 N 0.84307 0.87187 0.07454 0.0
N2205 N 0.81946 0.96864 0.05422 0.0
H2206 H 0.84546 0.928 0.00302 0.0
H2207 H 0.83922 0.95725 0.01297 0.0
H2208 H 0.81278 0.98014 0.0677 0.0
H2209 H 0.81794 0.97607 0.03702 0.0
H2210 H 0.83795 0.86351 0.09063 0.0
H2211 H 0.85068 0.85961 0.06238 0.0
H2212 H 0.84121 0.88884 0.11778 0.0
H2213 H 0.82747 0.91608 0.12608 0.0
C2214 C 0.08087 0.82055 0.04402 0.0
C2215 C 0.0913 0.84429 0.0443 0.0
C2216 C 0.06815 0.85424 0.08081 0.0
C2217 C 0.06023 0.82959 0.08213 0.0
N2218 N 0.05751 0.78947 0.06534 0.0
N2219 N 0.08683 0.88632 0.05704 0.0
C2220 C 0.06583 0.8129 0.06354 0.0
C2221 C 0.08239 0.86206 0.06077 0.0
N2222 N 0.0847 0.80584 0.02447 0.0
N2223 N 0.06324 0.86976 0.09949 0.0
H2224 H 0.09588 0.89305 0.04198 0.0
H2225 H 0.07907 0.9002 0.06729 0.0
H2226 H 0.05294 0.86472 0.11447 0.0
H2227 H 0.07061 0.88716 0.10112 0.0
H2228 H 0.07661 0.78886 0.02209 0.0
H2229 H 0.09435 0.81177 0.00932 0.0
H2230 H 0.06271 0.77537 0.05387 0.0
H2231 H 0.04589 0.7839 0.0792 0.0
C2232 C 0.15117 0.91914 0.94187 0.0
C2233 C 0.16968 0.90734 0.95503 0.0
C2234 C 0.19877 0.93766 0.94018 0.0
C2235 C 0.18144 0.94547 0.92283 0.0
N2236 N 0.14203 0.93917 0.90448 0.0
N2237 N 0.21166 0.90521 0.96721 0.0
C2238 C 0.15769 0.93533 0.92312 0.0
C2239 C 0.19369 0.9167 0.95459 0.0
N2240 N 0.12734 0.91493 0.94737 0.0
N2241 N 0.21975 0.9506 0.94315 0.0
H2242 H 0.20825 0.89036 0.97852 0.0
H2243 H 0.23001 0.90963 0.96545 0.0
H2244 H 0.22331 0.96658 0.93351 0.0
H2245 H 0.23226 0.94694 0.95676 0.0
H2246 H 0.11313 0.92472 0.9395 0.0
H2247 H 0.12218 0.90355 0.96158 0.0
H2248 H 0.12517 0.93058 0.90327 0.0
H2249 H 0.14711 0.94826 0.88882 0.0
C2250 C 0.09954 0.17243 0.94783 0.0
C2251 C 0.09317 0.17245 0.97262 0.0
C2252 C 0.05222 0.18672 0.96168 0.0
C2253 C 0.06013 0.18984 0.93752 0.0
N2254 N 0.09258 0.18954 0.90834 0.0
N2255 N 0.06347 0.18051 0.00364 0.0
C2256 C 0.08422 0.18398 0.93089 0.0
C2257 C 0.06939 0.17967 0.97975 0.0
N2258 N 0.11968 0.16005 0.94023 0.0
N2259 N 0.02825 0.19027 0.96712 0.0
H2260 H 0.07529 0.17455 0.01707 0.0
H2261 H 0.04738 0.18807 0.01016 0.0
H2262 H 0.01574 0.19631 0.95429 0.0
H2263 H 0.02057 0.186 0.98377 0.0
H2264 H 0.12382 0.1573 0.9221 0.0
H2265 H 0.13029 0.1498 0.95198 0.0
H2266 H 0.11079 0.18788 0.90333 0.0
H2267 H 0.08184 0.19801 0.89534 0.0
C2268 C 0.82183 0.06553 0.93629 0.0
C2269 C 0.82331 0.07449 0.91248 0.0
C2270 C 0.82532 0.11648 0.92738 0.0
C2271 C 0.8224 0.1076 0.95135 0.0
N2272 N 0.8123 0.07392 0.97796 0.0
N2273 N 0.82345 0.10773 0.88439 0.0
C2274 C 0.81897 0.08219 0.95564 0.0
C2275 C 0.82427 0.09981 0.90775 0.0
N2276 N 0.82387 0.04099 0.94034 0.0
N2277 N 0.82881 0.14084 0.9234 0.0
H2278 H 0.82285 0.09571 0.86982 0.0
H2279 H 0.82177 0.12594 0.87932 0.0
H2280 H 0.8286 0.15368 0.93717 0.0
H2281 H 0.83323 0.14832 0.90671 0.0
H2282 H 0.82567 0.03334 0.95744 0.0
H2283 H 0.82599 0.02838 0.9264 0.0
H2284 H 0.80721 0.05594 0.98141 0.0
H2285 H 0.80945 0.08531 0.99266 0.0
C2286 C 0.9156 0.85596 0.89285 0.0
C2287 C 0.92701 0.83269 0.89319 0.0
C2288 C 0.90082 0.8208 0.92721 0.0
C2289 C 0.89272 0.84533 0.92944 0.0
N2290 N 0.89355 0.88694 0.91501 0.0
N2291 N 0.91553 0.79075 0.89904 0.0
C2292 C 0.90037 0.86308 0.91235 0.0
C2293 C 0.91588 0.81416 0.90734 0.0
N2294 N 0.91662 0.86978 0.87237 0.0
N2295 N 0.89353 0.80358 0.94351 0.0
H2296 H 0.91983 0.78681 0.88114 0.0
H2297 H 0.90648 0.77654 0.90776 0.0
H2298 H 0.88121 0.80722 0.95735 0.0
H2299 H 0.90107 0.78612 0.94416 0.0
H2300 H 0.90692 0.88597 0.87008 0.0
H2301 H 0.92425 0.86305 0.85646 0.0
H2302 H 0.90056 0.901 0.90441 0.0
H2303 H 0.88267 0.89297 0.92924 0.0
C2304 C 0.09182 0.17698 0.13072 0.0
C2305 C 0.06625 0.17745 0.12645 0.0
C2306 C 0.07421 0.19279 0.08532 0.0
C2307 C 0.09936 0.19319 0.09019 0.0
N2308 N 0.13173 0.19201 0.1189 0.0
N2309 N 0.03329 0.1917 0.1008 0.0
C2310 C 0.10798 0.18746 0.11345 0.0
C2311 C 0.05745 0.18695 0.10403 0.0
N2312 N 0.10087 0.16503 0.15039 0.0
N2313 N 0.06638 0.19781 0.06251 0.0
H2314 H 0.02009 0.18819 0.11362 0.0
H2315 H 0.02641 0.20128 0.08608 0.0
H2316 H 0.07807 0.20424 0.04908 0.0
H2317 H 0.04873 0.19446 0.0566 0.0
H2318 H 0.11938 0.16247 0.15343 0.0
H2319 H 0.08991 0.15531 0.16235 0.0
H2320 H 0.1388 0.19043 0.13624 0.0
H2321 H 0.14382 0.19931 0.10626 0.0
C2322 C 0.06418 0.8675 0.90978 0.0
C2323 C 0.04731 0.84924 0.90317 0.0
C2324 C 0.06596 0.82207 0.93336 0.0
C2325 C 0.08583 0.8384 0.93529 0.0
N2326 N 0.10617 0.87387 0.91951 0.0
N2327 N 0.03127 0.8088 0.90994 0.0
C2328 C 0.08552 0.86045 0.92203 0.0
C2329 C 0.04799 0.82632 0.91533 0.0
N2330 N 0.05988 0.89155 0.90504 0.0
N2331 N 0.06374 0.80321 0.94933 0.0
H2332 H 0.01635 0.81236 0.899 0.0
H2333 H 0.0326 0.79079 0.91587 0.0
H2334 H 0.07605 0.8004 0.96333 0.0
H2335 H 0.04852 0.79192 0.95017 0.0
H2336 H 0.07151 0.90537 0.9109 0.0
H2337 H 0.04343 0.8978 0.89809 0.0
H2338 H 0.10724 0.88886 0.90794 0.0
H2339 H 0.12272 0.86796 0.92639 0.0
C2340 C 0.17587 0.10717 0.91764 0.0
C2341 C 0.18282 0.10031 0.94122 0.0
C2342 C 0.1922 0.05886 0.92734 0.0
C2343 C 0.18224 0.0649 0.90455 0.0
N2344 N 0.17356 0.09636 0.87536 0.0
N2345 N 0.20511 0.07338 0.96682 0.0
C2346 C 0.17707 0.08962 0.89879 0.0
C2347 C 0.19394 0.07737 0.94522 0.0
N2348 N 0.16662 0.12991 0.91365 0.0
N2349 N 0.19935 0.03543 0.93197 0.0
H2350 H 0.2061 0.0871 0.97986 0.0
H2351 H 0.21481 0.05764 0.97106 0.0
H2352 H 0.19955 0.02193 0.91873 0.0
H2353 H 0.20453 0.02914 0.9489 0.0
H2354 H 0.1578 0.13501 0.89783 0.0
H2355 H 0.16744 0.14365 0.92657 0.0
H2356 H 0.17248 0.1145 0.86982 0.0
H2357 H 0.17419 0.08399 0.86113 0.0
C2358 C 0.93408 0.15627 0.91621 0.0
C2359 C 0.95252 0.17386 0.91239 0.0
C2360 C 0.92651 0.20502 0.93165 0.0
C2361 C 0.9089 0.18697 0.93716 0.0
N2362 N 0.89096 0.1503 0.92147 0.0
N2363 N 0.9685 0.21366 0.92177 0.0
C2364 C 0.91128 0.16386 0.92568 0.0
C2365 C 0.94935 0.19784 0.92176 0.0
N2366 N 0.93836 0.13216 0.91172 0.0
N2367 N 0.92013 0.22905 0.93174 0.0
H2368 H 0.98571 0.20854 0.91574 0.0
H2369 H 0.96801 0.23056 0.93039 0.0
H2370 H 0.90193 0.23425 0.93111 0.0
H2371 H 0.93196 0.24308 0.92686 0.0
H2372 H 0.92591 0.11848 0.91608 0.0
H2373 H 0.95532 0.12554 0.90649 0.0
H2374 H 0.89101 0.13433 0.91125 0.0
H2375 H 0.8737 0.15711 0.92544 0.0
C2376 C 0.82744 0.94234 0.93341 0.0
C2377 C 0.81945 0.91821 0.92914 0.0
C2378 C 0.82395 0.925 0.88572 0.0
C2379 C 0.83625 0.94735 0.89025 0.0
N2380 N 0.85247 0.97584 0.91952 0.0
N2381 N 0.81372 0.88504 0.90106 0.0
C2382 C 0.83849 0.95588 0.9144 0.0
C2383 C 0.81846 0.90914 0.90523 0.0
N2384 N 0.82456 0.95213 0.95585 0.0
N2385 N 0.8168 0.91913 0.86288 0.0
H2386 H 0.8099 0.87255 0.91469 0.0
H2387 H 0.81574 0.87699 0.88415 0.0
H2388 H 0.8194 0.93067 0.84818 0.0
H2389 H 0.80578 0.90415 0.85906 0.0
H2390 H 0.82805 0.97038 0.95981 0.0
H2391 H 0.81623 0.94244 0.96983 0.0
H2392 H 0.85651 0.98131 0.93704 0.0
H2393 H 0.86211 0.9856 0.90652 0.0
C2394 C 0.93073 0.8399 0.10461 0.0
C2395 C 0.95474 0.84901 0.1008 0.0
C2396 C 0.94542 0.85169 0.05729 0.0
C2397 C 0.92346 0.83891 0.06138 0.0
N2398 N 0.89575 0.81889 0.08832 0.0
N2399 N 0.98441 0.86519 0.07218 0.0
C2400 C 0.91644 0.83226 0.08485 0.0
C2401 C 0.96192 0.85565 0.07679 0.0
N2402 N 0.9206 0.8407 0.127 0.0
N2403 N 0.95013 0.86051 0.0347 0.0
H2404 H 0.99599 0.87203 0.08524 0.0
H2405 H 0.99197 0.86611 0.05498 0.0
H2406 H 0.93885 0.85687 0.02003 0.0
H2407 H 0.96417 0.87262 0.03074 0.0
H2408 H 0.90254 0.83627 0.1307 0.0
H2409 H 0.92909 0.84972 0.14095 0.0
H2410 H 0.89116 0.81101 0.10482 0.0
H2411 H 0.88413 0.81409 0.07427 0.0
C2412 C 0.18892 0.9242 0.0962 0.0
C2413 C 0.16922 0.91053 0.08694 0.0
C2414 C 0.1409 0.94057 0.10432 0.0
C2415 C 0.16086 0.95562 0.11104 0.0
N2416 N 0.20374 0.96408 0.10687 0.0
N2417 N 0.12859 0.89881 0.09806 0.0
C2418 C 0.18481 0.94809 0.10494 0.0
C2419 C 0.14553 0.91673 0.09514 0.0
N2420 N 0.21076 0.9131 0.10015 0.0
N2421 N 0.11753 0.94884 0.10598 0.0
H2422 H 0.13308 0.88039 0.09611 0.0
H2423 H 0.11181 0.90181 0.10633 0.0
H2424 H 0.11307 0.96655 0.1111 0.0
H2425 H 0.10277 0.93893 0.09943 0.0
H2426 H 0.22523 0.92177 0.10874 0.0
H2427 H 0.21284 0.89423 0.09841 0.0
H2428 H 0.22127 0.9599 0.1009 0.0
H2429 H 0.20117 0.98233 0.11159 0.0
C2430 C 0.85328 0.06721 0.10623 0.0
C2431 C 0.8383 0.04648 0.10785 0.0
C2432 C 0.81096 0.06544 0.07811 0.0
C2433 C 0.82584 0.08656 0.07784 0.0
N2434 N 0.852 0.11084 0.10235 0.0
N2435 N 0.79965 0.02775 0.09823 0.0
C2436 C 0.84415 0.08856 0.09523 0.0
C2437 C 0.8159 0.04626 0.0949 0.0
N2438 N 0.8767 0.06645 0.11394 0.0
N2439 N 0.79287 0.06347 0.06146 0.0
H2440 H 0.80326 0.01285 0.10929 0.0
H2441 H 0.78217 0.02788 0.09104 0.0
H2442 H 0.78855 0.07792 0.04991 0.0
H2443 H 0.78304 0.0475 0.05853 0.0
H2444 H 0.88851 0.08086 0.11053 0.0
H2445 H 0.88483 0.05066 0.12067 0.0
H2446 H 0.86252 0.11259 0.1178 0.0
H2447 H 0.84505 0.12702 0.09529 0.0
C2448 C 0.10749 0.58684 0.66182 0.0
C2449 C 0.11217 0.56488 0.67473 0.0
C2450 C 0.07593 0.57285 0.69976 0.0
C2451 C 0.07294 0.5958 0.68836 0.0
N2452 N 0.09004 0.62739 0.66338 0.0
N2453 N 0.10381 0.54018 0.71001 0.0
C2454 C 0.09012 0.60365 0.67094 0.0
C2455 C 0.09721 0.5587 0.69486 0.0
N2456 N 0.11854 0.59113 0.64012 0.0
N2457 N 0.05809 0.56421 0.71462 0.0
H2458 H 0.11988 0.53031 0.70794 0.0
H2459 H 0.09468 0.53638 0.72606 0.0
H2460 H 0.04239 0.57418 0.7185 0.0
H2461 H 0.05802 0.54647 0.72146 0.0
H2462 H 0.11405 0.60588 0.62909 0.0
H2463 H 0.13001 0.57853 0.63177 0.0
H2464 H 0.10336 0.63467 0.65207 0.0
H2465 H 0.07825 0.64041 0.67065 0.0
C2466 C 0.92942 0.61185 0.6579 0.0
C2467 C 0.9545 0.6051 0.65792 0.0
C2468 C 0.94209 0.56241 0.66486 0.0
C2469 C 0.91769 0.57006 0.66794 0.0
N2470 N 0.888 0.60215 0.66948 0.0
N2471 N 0.98466 0.57364 0.66505 0.0
C2472 C 0.9114 0.59485 0.66523 0.0
C2473 C 0.96087 0.5802 0.66215 0.0
N2474 N 0.92254 0.63405 0.64924 0.0
N2475 N 0.94725 0.53804 0.66436 0.0
H2476 H 0.99901 0.58587 0.66363 0.0
H2477 H 0.99009 0.5564 0.67091 0.0
H2478 H 0.93384 0.52481 0.66668 0.0
H2479 H 0.96422 0.53101 0.65965 0.0
H2480 H 0.90455 0.63928 0.64642 0.0
H2481 H 0.935 0.64587 0.64173 0.0
H2482 H 0.88284 0.62041 0.67088 0.0
H2483 H 0.87395 0.58993 0.67325 0.0
C2484 C 0.90785 0.40624 0.67627 0.0
C2485 C 0.93213 0.41145 0.68267 0.0
C2486 C 0.92266 0.45514 0.6847 0.0
C2487 C 0.89872 0.45016 0.6763 0.0
N2488 N 0.86937 0.42114 0.66115 0.0
N2489 N 0.96389 0.44023 0.69075 0.0
C2490 C 0.89159 0.42575 0.6711 0.0
C2491 C 0.93987 0.43577 0.68629 0.0
N2492 N 0.90022 0.38251 0.67607 0.0
N2493 N 0.92882 0.47832 0.69146 0.0
H2494 H 0.97656 0.42622 0.69288 0.0
H2495 H 0.97155 0.4576 0.69088 0.0
H2496 H 0.91713 0.49319 0.6896 0.0
H2497 H 0.94498 0.4827 0.70019 0.0
H2498 H 0.88217 0.37724 0.67391 0.0
H2499 H 0.91179 0.36802 0.6803 0.0
H2500 H 0.86406 0.40407 0.65486 0.0
H2501 H 0.85696 0.4348 0.65698 0.0
C2502 C 0.09524 0.40565 0.68615 0.0
C2503 C 0.08908 0.4296 0.67874 0.0
C2504 C 0.04677 0.41708 0.67194 0.0
C2505 C 0.05289 0.393 0.67946 0.0
N2506 N 0.08308 0.36335 0.69126 0.0
N2507 N 0.06048 0.45833 0.6626 0.0
C2508 C 0.07719 0.38701 0.68594 0.0
C2509 C 0.06526 0.43531 0.67088 0.0
N2510 N 0.11844 0.40105 0.69376 0.0
N2511 N 0.02306 0.42268 0.66685 0.0
H2512 H 0.07338 0.47227 0.66287 0.0
H2513 H 0.04428 0.46355 0.65443 0.0
H2514 H 0.00911 0.4098 0.66724 0.0
H2515 H 0.01669 0.44022 0.6634 0.0
H2516 H 0.12398 0.38491 0.70197 0.0
H2517 H 0.13231 0.41399 0.69251 0.0
H2518 H 0.10074 0.35701 0.69368 0.0
H2519 H 0.07023 0.34945 0.6922 0.0
C2520 C 0.0625 0.44871 0.32736 0.0
C2521 C 0.06798 0.42699 0.31461 0.0
C2522 C 0.10738 0.44392 0.30235 0.0
C2523 C 0.10279 0.46492 0.31671 0.0
N2524 N 0.07725 0.48612 0.3454 0.0
N2525 N 0.09699 0.40169 0.29405 0.0
C2526 C 0.08078 0.46687 0.33012 0.0
C2527 C 0.09084 0.42399 0.30325 0.0
N2528 N 0.03941 0.4525 0.33571 0.0
N2529 N 0.12732 0.44308 0.2876 0.0
H2530 H 0.08535 0.38667 0.295 0.0
H2531 H 0.1143 0.39741 0.28765 0.0
H2532 H 0.14008 0.45707 0.28657 0.0
H2533 H 0.13019 0.4294 0.27488 0.0
H2534 H 0.03338 0.46904 0.34277 0.0
H2535 H 0.02557 0.43968 0.33372 0.0
H2536 H 0.06296 0.48704 0.35773 0.0
H2537 H 0.08944 0.50057 0.34689 0.0
C2538 C 0.06718 0.57527 0.31631 0.0
C2539 C 0.09081 0.58155 0.32408 0.0
C2540 C 0.07553 0.62019 0.34064 0.0
C2541 C 0.05154 0.61368 0.33341 0.0
N2542 N 0.02377 0.58304 0.3187 0.0
N2543 N 0.1174 0.60736 0.34691 0.0
C2544 C 0.04716 0.59062 0.32243 0.0
C2545 C 0.09492 0.60327 0.33723 0.0
N2546 N 0.06414 0.55481 0.30258 0.0
N2547 N 0.08007 0.64289 0.34977 0.0
H2548 H 0.13195 0.59534 0.34458 0.0
H2549 H 0.12129 0.62159 0.35868 0.0
H2550 H 0.0665 0.65547 0.35375 0.0
H2551 H 0.09748 0.64993 0.35212 0.0
H2552 H 0.04791 0.55029 0.29406 0.0
H2553 H 0.07853 0.54312 0.29834 0.0
H2554 H 0.01918 0.56555 0.31297 0.0
H2555 H 0.00867 0.59357 0.32337 0.0
C2556 C 0.90456 0.60359 0.34445 0.0
C2557 C 0.92946 0.59709 0.34393 0.0
C2558 C 0.91872 0.55366 0.34624 0.0
C2559 C 0.89367 0.56013 0.34768 0.0
N2560 N 0.86297 0.59157 0.35231 0.0
N2561 N 0.96087 0.56696 0.34801 0.0
C2562 C 0.88663 0.5852 0.34787 0.0
C2563 C 0.9367 0.5724 0.34612 0.0
N2564 N 0.89811 0.62749 0.34128 0.0
N2565 N 0.9253 0.52973 0.3435 0.0
H2566 H 0.97436 0.58029 0.34711 0.0
H2567 H 0.96749 0.54967 0.35225 0.0
H2568 H 0.91279 0.51549 0.34294 0.0
H2569 H 0.94297 0.52404 0.33975 0.0
H2570 H 0.88034 0.6333 0.33825 0.0
H2571 H 0.91083 0.64157 0.34034 0.0
H2572 H 0.85731 0.60936 0.3558 0.0
H2573 H 0.84899 0.57898 0.35438 0.0
C2574 C 0.91769 0.40121 0.31483 0.0
C2575 C 0.94276 0.40739 0.3137 0.0
C2576 C 0.93226 0.451 0.31274 0.0
C2577 C 0.90735 0.44483 0.31508 0.0
N2578 N 0.87604 0.41495 0.32114 0.0
N2579 N 0.97445 0.43778 0.31422 0.0
C2580 C 0.9 0.42014 0.317 0.0
C2581 C 0.95021 0.43222 0.31347 0.0
N2582 N 0.91081 0.37729 0.31315 0.0
N2583 N 0.93858 0.47488 0.3093 0.0
H2584 H 0.98806 0.42451 0.31389 0.0
H2585 H 0.98119 0.45536 0.31663 0.0
H2586 H 0.92581 0.48896 0.30928 0.0
H2587 H 0.95608 0.4807 0.30502 0.0
H2588 H 0.89286 0.37159 0.31139 0.0
H2589 H 0.92329 0.36299 0.31209 0.0
H2590 H 0.86957 0.39761 0.32538 0.0
H2591 H 0.86266 0.42846 0.3218 0.0
C2592 C 0.18338 0.58266 0.5497 0.0
C2593 C 0.1826 0.60761 0.55662 0.0
C2594 C 0.18175 0.59561 0.59936 0.0
C2595 C 0.18445 0.57085 0.59247 0.0
N2596 N 0.18987 0.5404 0.56193 0.0
N2597 N 0.18128 0.63837 0.58763 0.0
C2598 C 0.18562 0.56425 0.56782 0.0
C2599 C 0.18171 0.61422 0.58138 0.0
N2600 N 0.18184 0.57665 0.52583 0.0
N2601 N 0.17888 0.60112 0.62321 0.0
H2602 H 0.17962 0.65235 0.57501 0.0
H2603 H 0.18337 0.64478 0.60515 0.0
H2604 H 0.18006 0.58795 0.6367 0.0
H2605 H 0.17412 0.61829 0.62968 0.0
H2606 H 0.1801 0.55886 0.51952 0.0
H2607 H 0.18066 0.58972 0.51218 0.0
H2608 H 0.19312 0.53425 0.54448 0.0
H2609 H 0.19169 0.52677 0.57496 0.0
C2610 C 0.90639 0.6937 0.5641 0.0
C2611 C 0.89737 0.66977 0.55896 0.0
C2612 C 0.92849 0.65269 0.586 0.0
C2613 C 0.93598 0.67665 0.5922 0.0
N2614 N 0.92928 0.71968 0.59134 0.0
N2615 N 0.89822 0.62644 0.56853 0.0
C2616 C 0.92369 0.69702 0.58281 0.0
C2617 C 0.90789 0.64925 0.57096 0.0
N2618 N 0.90032 0.71304 0.54972 0.0
N2619 N 0.94198 0.63311 0.59345 0.0
H2620 H 0.88475 0.62208 0.5563 0.0
H2621 H 0.90269 0.61189 0.5798 0.0
H2622 H 0.95652 0.63466 0.60534 0.0
H2623 H 0.93971 0.61549 0.58677 0.0
H2624 H 0.90812 0.73028 0.55135 0.0
H2625 H 0.88997 0.71134 0.53418 0.0
H2626 H 0.9194 0.73531 0.58697 0.0
H2627 H 0.9424 0.7223 0.60468 0.0
C2628 C 0.85252 0.42443 0.57821 0.0
C2629 C 0.82993 0.43703 0.57943 0.0
C2630 C 0.81812 0.41801 0.54112 0.0
C2631 C 0.84125 0.4064 0.53961 0.0
N2632 N 0.88336 0.40761 0.55203 0.0
N2633 N 0.79482 0.45163 0.55785 0.0
C2634 C 0.85946 0.41259 0.55654 0.0
C2635 C 0.81368 0.4355 0.55965 0.0
N2636 N 0.8668 0.4224 0.59817 0.0
N2637 N 0.80048 0.41261 0.5247 0.0
H2638 H 0.7921 0.46573 0.57017 0.0
H2639 H 0.78362 0.4528 0.54276 0.0
H2640 H 0.80375 0.40178 0.5096 0.0
H2641 H 0.78243 0.41815 0.52662 0.0
H2642 H 0.88237 0.41151 0.59871 0.0
H2643 H 0.86146 0.42909 0.61488 0.0
H2644 H 0.89734 0.41349 0.5633 0.0
H2645 H 0.88943 0.40031 0.53577 0.0
C2646 C 0.09513 0.31599 0.55583 0.0
C2647 C 0.104 0.34036 0.55688 0.0
C2648 C 0.08511 0.34513 0.5966 0.0
C2649 C 0.07267 0.32266 0.59374 0.0
N2650 N 0.08047 0.28198 0.57948 0.0
N2651 N 0.10408 0.37948 0.57697 0.0
C2652 C 0.08123 0.30654 0.57553 0.0
C2653 C 0.09792 0.35531 0.57688 0.0
N2654 N 0.10052 0.30155 0.53649 0.0
N2655 N 0.08749 0.35506 0.61904 0.0
H2656 H 0.11272 0.38792 0.56241 0.0
H2657 H 0.09828 0.39152 0.59036 0.0
H2658 H 0.08169 0.34581 0.63449 0.0
H2659 H 0.09818 0.37035 0.62255 0.0
H2660 H 0.09223 0.28472 0.53352 0.0
H2661 H 0.11185 0.30712 0.52249 0.0
H2662 H 0.08757 0.26908 0.56761 0.0
H2663 H 0.07744 0.27498 0.59671 0.0
C2664 C 0.1644 0.40291 0.42475 0.0
C2665 C 0.15864 0.41042 0.44881 0.0
C2666 C 0.16717 0.45305 0.43742 0.0
C2667 C 0.17184 0.44539 0.41352 0.0
N2668 N 0.17034 0.4146 0.38296 0.0
N2669 N 0.1522 0.44313 0.47745 0.0
C2670 C 0.1692 0.42076 0.40682 0.0
C2671 C 0.1591 0.4357 0.45493 0.0
N2672 N 0.16572 0.3787 0.41885 0.0
N2673 N 0.17133 0.47689 0.44339 0.0
H2674 H 0.14776 0.43113 0.49131 0.0
H2675 H 0.14962 0.46132 0.48223 0.0
H2676 H 0.177 0.48982 0.43073 0.0
H2677 H 0.17079 0.48361 0.46092 0.0
H2678 H 0.1738 0.37234 0.40305 0.0
H2679 H 0.15939 0.36464 0.42977 0.0
H2680 H 0.16543 0.39752 0.37632 0.0
H2681 H 0.17428 0.42725 0.36943 0.0
C2682 C 0.06626 0.68657 0.45015 0.0
C2683 C 0.0718 0.68781 0.42528 0.0
C2684 C 0.11495 0.68075 0.43387 0.0
C2685 C 0.10916 0.67671 0.45867 0.0
N2686 N 0.07965 0.6777 0.49091 0.0
N2687 N 0.10033 0.68456 0.39276 0.0
C2688 C 0.08481 0.68002 0.46691 0.0
C2689 C 0.09589 0.68463 0.417 0.0
N2690 N 0.04332 0.69261 0.45761 0.0
N2691 N 0.13865 0.68142 0.42633 0.0
H2692 H 0.08688 0.68847 0.38009 0.0
H2693 H 0.11678 0.6791 0.38512 0.0
H2694 H 0.15335 0.67643 0.43701 0.0
H2695 H 0.14397 0.68787 0.40946 0.0
H2696 H 0.03794 0.69393 0.47554 0.0
H2697 H 0.02981 0.69798 0.44555 0.0
H2698 H 0.06215 0.6769 0.49803 0.0
H2699 H 0.09317 0.67638 0.50392 0.0
C2700 C 0.82017 0.62454 0.42693 0.0
C2701 C 0.83447 0.62083 0.4479 0.0
C2702 C 0.83415 0.57667 0.44023 0.0
C2703 C 0.82288 0.58093 0.41772 0.0
N2704 N 0.80939 0.60938 0.38744 0.0
N2705 N 0.85845 0.59341 0.47258 0.0
C2706 C 0.81696 0.605 0.41047 0.0
C2707 C 0.84225 0.59686 0.45421 0.0
N2708 N 0.80892 0.64647 0.42311 0.0
N2709 N 0.83681 0.55326 0.44829 0.0
H2710 H 0.8657 0.60766 0.48269 0.0
H2711 H 0.86651 0.57661 0.47634 0.0
H2712 H 0.83088 0.53825 0.43833 0.0
H2713 H 0.84275 0.5489 0.46559 0.0
H2714 H 0.79648 0.64937 0.40925 0.0
H2715 H 0.80989 0.66092 0.4353 0.0
H2716 H 0.80729 0.6269 0.3804 0.0
H2717 H 0.80757 0.5956 0.37462 0.0
C2718 C 0.88959 0.35006 0.41006 0.0
C2719 C 0.8895 0.33697 0.43226 0.0
C2720 C 0.92981 0.32032 0.42201 0.0
C2721 C 0.92809 0.33063 0.39868 0.0
N2722 N 0.90395 0.35114 0.36876 0.0
N2723 N 0.90793 0.30539 0.4568 0.0
C2724 C 0.90725 0.34429 0.3922 0.0
C2725 C 0.90923 0.32097 0.43762 0.0
N2726 N 0.87369 0.36888 0.4064 0.0
N2727 N 0.95136 0.31059 0.42955 0.0
H2728 H 0.8927 0.30414 0.46782 0.0
H2729 H 0.92081 0.29183 0.46009 0.0
H2730 H 0.96692 0.31045 0.41876 0.0
H2731 H 0.95441 0.30498 0.44725 0.0
H2732 H 0.87449 0.38033 0.3914 0.0
H2733 H 0.86161 0.37492 0.41959 0.0
H2734 H 0.88799 0.35925 0.36254 0.0
H2735 H 0.91611 0.34632 0.35512 0.0
C2736 C 0.10523 0.69593 0.60009 0.0
C2737 C 0.10258 0.68248 0.57845 0.0
C2738 C 0.07032 0.65829 0.59742 0.0
C2739 C 0.06908 0.67534 0.61669 0.0
N2740 N 0.08712 0.70921 0.63784 0.0
N2741 N 0.07965 0.65316 0.55531 0.0
C2742 C 0.08717 0.69381 0.61848 0.0
C2743 C 0.08446 0.66414 0.57684 0.0
N2744 N 0.12545 0.71 0.60331 0.0
N2745 N 0.05859 0.63633 0.59858 0.0
H2746 H 0.08887 0.65742 0.5395 0.0
H2747 H 0.06474 0.64174 0.55264 0.0
H2748 H 0.04953 0.62996 0.61377 0.0
H2749 H 0.06084 0.62279 0.58557 0.0
H2750 H 0.12965 0.71867 0.61946 0.0
H2751 H 0.13927 0.71112 0.59043 0.0
H2752 H 0.09773 0.72492 0.6388 0.0
H2753 H 0.07588 0.70648 0.65279 0.0
C2754 C 0.05992 0.36964 0.3976 0.0
C2755 C 0.04521 0.35016 0.38905 0.0
C2756 C 0.07388 0.32091 0.40711 0.0
C2757 C 0.0871 0.34032 0.41772 0.0
N2758 N 0.10119 0.38044 0.40682 0.0
N2759 N 0.03536 0.30727 0.39138 0.0
C2760 C 0.08252 0.36421 0.40879 0.0
C2761 C 0.05142 0.32581 0.39548 0.0
N2762 N 0.0526 0.39336 0.3955 0.0
N2763 N 0.08448 0.29852 0.4047 0.0
H2764 H 0.01801 0.31035 0.38447 0.0
H2765 H 0.03818 0.28953 0.39763 0.0
H2766 H 0.10288 0.29579 0.40843 0.0
H2767 H 0.07644 0.28417 0.39532 0.0
H2768 H 0.06224 0.40774 0.40326 0.0
H2769 H 0.03572 0.39854 0.38885 0.0
H2770 H 0.09941 0.3975 0.39863 0.0
H2771 H 0.11915 0.37488 0.40915 0.0
C2772 C 0.19568 0.58569 0.41498 0.0
C2773 C 0.17717 0.60097 0.42428 0.0
C2774 C 0.14701 0.57786 0.40088 0.0
C2775 C 0.16521 0.56029 0.39505 0.0
N2776 N 0.20599 0.5452 0.40187 0.0
N2777 N 0.14002 0.61997 0.41157 0.0
C2778 C 0.18927 0.56356 0.40369 0.0
C2779 C 0.15383 0.5994 0.41351 0.0
N2780 N 0.21901 0.59397 0.4135 0.0
N2781 N 0.12332 0.57433 0.39448 0.0
H2782 H 0.14749 0.63702 0.41523 0.0
H2783 H 0.12338 0.62079 0.40268 0.0
H2784 H 0.11725 0.55926 0.38491 0.0
H2785 H 0.10919 0.58542 0.40063 0.0
H2786 H 0.23289 0.58414 0.40507 0.0
H2787 H 0.22333 0.61217 0.41706 0.0
H2788 H 0.22323 0.54634 0.40961 0.0
H2789 H 0.20157 0.52793 0.39533 0.0
C2790 C 0.94342 0.67962 0.45821 0.0
C2791 C 0.91964 0.6864 0.45106 0.0
C2792 C 0.92962 0.67681 0.40906 0.0
C2793 C 0.95425 0.67255 0.41571 0.0
N2794 N 0.98525 0.67167 0.44646 0.0
N2795 N 0.89022 0.69348 0.41979 0.0
C2796 C 0.96133 0.67415 0.44031 0.0
C2797 C 0.91283 0.68563 0.42649 0.0
N2798 N 0.94873 0.67838 0.48223 0.0
N2799 N 0.92195 0.67128 0.38627 0.0
H2800 H 0.87694 0.69883 0.43212 0.0
H2801 H 0.88512 0.69634 0.40195 0.0
H2802 H 0.93347 0.66437 0.37301 0.0
H2803 H 0.90377 0.67122 0.38106 0.0
H2804 H 0.96473 0.67093 0.48905 0.0
H2805 H 0.93633 0.68363 0.49554 0.0
H2806 H 0.99197 0.67517 0.46363 0.0
H2807 H 0.99886 0.66755 0.43402 0.0
C2808 C 0.81477 0.41009 0.40622 0.0
C2809 C 0.81733 0.41557 0.43101 0.0
C2810 C 0.82348 0.45886 0.42126 0.0
C2811 C 0.81871 0.45367 0.39663 0.0
N2812 N 0.80685 0.42498 0.36584 0.0
N2813 N 0.82089 0.44501 0.46284 0.0
C2814 C 0.81349 0.42944 0.38914 0.0
C2815 C 0.82097 0.43993 0.43873 0.0
N2816 N 0.8144 0.38624 0.39901 0.0
N2817 N 0.83041 0.48186 0.42792 0.0
H2818 H 0.81877 0.43152 0.47595 0.0
H2819 H 0.82096 0.46263 0.46986 0.0
H2820 H 0.83151 0.4964 0.41581 0.0
H2821 H 0.83663 0.48623 0.44509 0.0
H2822 H 0.81525 0.38081 0.38104 0.0
H2823 H 0.81545 0.37172 0.41115 0.0
H2824 H 0.80025 0.40823 0.35989 0.0
H2825 H 0.80624 0.43856 0.35271 0.0
C2826 C 0.93873 0.33824 0.56229 0.0
C2827 C 0.91447 0.33266 0.56883 0.0
C2828 C 0.92498 0.33615 0.61154 0.0
C2829 C 0.94991 0.339 0.60508 0.0
N2830 N 0.98106 0.33878 0.5742 0.0
N2831 N 0.88447 0.32386 0.59901 0.0
C2832 C 0.95696 0.33919 0.5804 0.0
C2833 C 0.90757 0.33104 0.5933 0.0
N2834 N 0.94416 0.34298 0.53871 0.0
N2835 N 0.9178 0.33915 0.63495 0.0
H2836 H 0.87132 0.32043 0.5859 0.0
H2837 H 0.87883 0.31962 0.61645 0.0
H2838 H 0.92989 0.34304 0.64884 0.0
H2839 H 0.89967 0.33986 0.64036 0.0
H2840 H 0.96094 0.34965 0.53297 0.0
H2841 H 0.9311 0.34231 0.5251 0.0
H2842 H 0.9872 0.33625 0.5566 0.0
H2843 H 0.99508 0.3387 0.5868 0.0
C2844 C 0.16377 0.43148 0.60736 0.0
C2845 C 0.16009 0.45671 0.60183 0.0
C2846 C 0.16849 0.44792 0.55898 0.0
C2847 C 0.17132 0.42286 0.56455 0.0
N2848 N 0.16831 0.38992 0.59297 0.0
N2849 N 0.15586 0.4884 0.57173 0.0
C2850 C 0.16805 0.41445 0.58846 0.0
C2851 C 0.16131 0.46474 0.57739 0.0
N2852 N 0.1636 0.42367 0.63081 0.0
N2853 N 0.17383 0.45568 0.53615 0.0
H2854 H 0.1518 0.50162 0.58457 0.0
H2855 H 0.15385 0.49477 0.55416 0.0
H2856 H 0.1795 0.44368 0.52266 0.0
H2857 H 0.17458 0.47394 0.53099 0.0
H2858 H 0.16984 0.40659 0.63626 0.0
H2859 H 0.15822 0.43449 0.64525 0.0
H2860 H 0.16239 0.3821 0.60906 0.0
H2861 H 0.17309 0.37707 0.58 0.0
C2862 C 0.84598 0.57833 0.56541 0.0
C2863 C 0.82325 0.59021 0.5682 0.0
C2864 C 0.81086 0.55772 0.59566 0.0
C2865 C 0.8355 0.54982 0.59802 0.0
N2866 N 0.87757 0.55519 0.58484 0.0
N2867 N 0.78439 0.59218 0.58811 0.0
C2868 C 0.85344 0.56067 0.58273 0.0
C2869 C 0.80574 0.58018 0.58395 0.0
N2870 N 0.8599 0.5829 0.54551 0.0
N2871 N 0.79216 0.54314 0.60318 0.0
H2872 H 0.78034 0.60896 0.58014 0.0
H2873 H 0.77191 0.58652 0.60115 0.0
H2874 H 0.79484 0.5252 0.60892 0.0
H2875 H 0.77394 0.54758 0.60032 0.0
H2876 H 0.87564 0.57306 0.54148 0.0
H2877 H 0.85421 0.59454 0.53173 0.0
H2878 H 0.89103 0.56499 0.57574 0.0
H2879 H 0.88461 0.54238 0.59667 0.0
C2880 C 0.57515 0.07615 0.69954 0.0
C2881 C 0.57266 0.09897 0.68774 0.0
C2882 C 0.60901 0.09015 0.66376 0.0
C2883 C 0.61321 0.06866 0.67755 0.0
N2884 N 0.60352 0.04547 0.71337 0.0
N2885 N 0.59136 0.13057 0.66379 0.0
C2886 C 0.59718 0.06279 0.69684 0.0
C2887 C 0.5909 0.10687 0.67143 0.0
N2888 N 0.55625 0.06675 0.71254 0.0
N2889 N 0.62127 0.09412 0.64267 0.0
H2890 H 0.57923 0.14367 0.6703 0.0
H2891 H 0.60546 0.13773 0.65335 0.0
H2892 H 0.63343 0.08154 0.63534 0.0
H2893 H 0.61715 0.10851 0.63106 0.0
H2894 H 0.55645 0.04913 0.71967 0.0
H2895 H 0.5395 0.07557 0.71405 0.0
H2896 H 0.59322 0.04185 0.72877 0.0
H2897 H 0.62055 0.03713 0.71328 0.0
C2898 C 0.43916 0.06453 0.67332 0.0
C2899 C 0.41477 0.07213 0.67654 0.0
C2900 C 0.42639 0.11458 0.6689 0.0
C2901 C 0.45127 0.10731 0.66737 0.0
N2902 N 0.48177 0.07589 0.67226 0.0
N2903 N 0.38502 0.1039 0.68026 0.0
C2904 C 0.45781 0.08237 0.67055 0.0
C2905 C 0.4084 0.09706 0.67522 0.0
N2906 N 0.44432 0.04015 0.67257 0.0
N2907 N 0.41975 0.13799 0.66332 0.0
H2908 H 0.37134 0.0913 0.68419 0.0
H2909 H 0.37949 0.12197 0.68233 0.0
H2910 H 0.43213 0.15159 0.65878 0.0
H2911 H 0.40179 0.14362 0.66126 0.0
H2912 H 0.4612 0.03314 0.66754 0.0
H2913 H 0.43109 0.02681 0.67553 0.0
H2914 H 0.4876 0.05848 0.67713 0.0
H2915 H 0.49599 0.08837 0.67079 0.0
C2916 C 0.40523 0.91024 0.69647 0.0
C2917 C 0.42803 0.91018 0.68474 0.0
C2918 C 0.41402 0.9421 0.65688 0.0
C2919 C 0.39128 0.94268 0.66908 0.0
N2920 N 0.36749 0.93175 0.70405 0.0
N2921 N 0.4563 0.92921 0.65746 0.0
C2922 C 0.38753 0.92802 0.68995 0.0
C2923 C 0.4331 0.92718 0.66609 0.0
N2924 N 0.40039 0.89281 0.71343 0.0
N2925 N 0.41703 0.95487 0.63589 0.0
H2926 H 0.47055 0.91833 0.6637 0.0
H2927 H 0.46185 0.94286 0.64558 0.0
H2928 H 0.40366 0.9663 0.62876 0.0
H2929 H 0.4321 0.95287 0.62465 0.0
H2930 H 0.38321 0.88999 0.72088 0.0
H2931 H 0.41337 0.88002 0.71885 0.0
H2932 H 0.36469 0.92315 0.72057 0.0
H2933 H 0.35494 0.94548 0.70048 0.0
C2934 C 0.57953 0.88763 0.69181 0.0
C2935 C 0.56004 0.88919 0.67514 0.0
C2936 C 0.5697 0.93213 0.66751 0.0
C2937 C 0.59069 0.92964 0.68196 0.0
N2938 N 0.61771 0.90485 0.70553 0.0
N2939 N 0.53853 0.91178 0.64431 0.0
C2940 C 0.59616 0.90734 0.69356 0.0
C2941 C 0.55548 0.9112 0.66231 0.0
N2942 N 0.58168 0.86764 0.70644 0.0
N2943 N 0.56317 0.95469 0.65919 0.0
H2944 H 0.52785 0.89682 0.63963 0.0
H2945 H 0.53641 0.92652 0.63261 0.0
H2946 H 0.57333 0.97034 0.66281 0.0
H2947 H 0.54672 0.95823 0.6506 0.0
H2948 H 0.59414 0.86646 0.7205 0.0
H2949 H 0.56946 0.8531 0.70599 0.0
H2950 H 0.62404 0.88829 0.7123 0.0
H2951 H 0.63022 0.91909 0.70699 0.0
C2952 C 0.57123 0.94156 0.34306 0.0
C2953 C 0.57306 0.92209 0.32644 0.0
C2954 C 0.61321 0.93659 0.31338 0.0
C2955 C 0.61047 0.95739 0.32851 0.0
N2956 N 0.58571 0.98111 0.35596 0.0
N2957 N 0.59427 0.90118 0.29481 0.0
C2958 C 0.58932 0.96009 0.34315 0.0
C2959 C 0.5937 0.91962 0.31137 0.0
N2960 N 0.55187 0.94245 0.35855 0.0
N2961 N 0.63475 0.93263 0.30163 0.0
H2962 H 0.58076 0.88782 0.29394 0.0
H2963 H 0.60727 0.89975 0.28121 0.0
H2964 H 0.64942 0.9446 0.3026 0.0
H2965 H 0.63887 0.91666 0.29233 0.0
H2966 H 0.55086 0.95416 0.37328 0.0
H2967 H 0.53729 0.93034 0.3576 0.0
H2968 H 0.56945 0.98561 0.36452 0.0
H2969 H 0.59838 0.99513 0.35668 0.0
C2970 C 0.60088 0.09634 0.339 0.0
C2971 C 0.59609 0.07327 0.32849 0.0
C2972 C 0.55226 0.08191 0.32911 0.0
C2973 C 0.55729 0.10594 0.33725 0.0
N2974 N 0.5861 0.13663 0.34947 0.0
N2975 N 0.56814 0.0438 0.31276 0.0
C2976 C 0.58153 0.11325 0.34227 0.0
C2977 C 0.57195 0.06589 0.32352 0.0
N2978 N 0.62392 0.10168 0.34656 0.0
N2979 N 0.52861 0.07444 0.32712 0.0
H2980 H 0.58236 0.03182 0.30872 0.0
H2981 H 0.55132 0.03785 0.30656 0.0
H2982 H 0.51393 0.08578 0.33135 0.0
H2983 H 0.52342 0.05665 0.32309 0.0
H2984 H 0.62835 0.11701 0.35671 0.0
H2985 H 0.63849 0.08965 0.34454 0.0
H2986 H 0.60339 0.14433 0.35011 0.0
H2987 H 0.57233 0.14869 0.35437 0.0
C2988 C 0.4383 0.0707 0.36036 0.0
C2989 C 0.436 0.08686 0.34044 0.0
C2990 C 0.40386 0.06083 0.32487 0.0
C2991 C 0.40201 0.04816 0.34727 0.0
N2992 N 0.4163 0.04582 0.38885 0.0
N2993 N 0.41089 0.10038 0.30733 0.0
C2994 C 0.4189 0.05431 0.36584 0.0
C2995 C 0.41705 0.08289 0.32376 0.0
N2996 N 0.45929 0.07007 0.37342 0.0
N2997 N 0.39421 0.05139 0.30426 0.0
H2998 H 0.41855 0.11779 0.3074 0.0
H2999 H 0.39601 0.09846 0.29585 0.0
H3000 H 0.38749 0.03366 0.30334 0.0
H3001 H 0.39645 0.05977 0.28749 0.0
H3002 H 0.46236 0.0572 0.38696 0.0
H3003 H 0.47464 0.08014 0.36864 0.0
H3004 H 0.42727 0.05191 0.40293 0.0
H3005 H 0.40189 0.0351 0.39472 0.0
C3006 C 0.43039 0.90187 0.30681 0.0
C3007 C 0.43235 0.89164 0.33028 0.0
C3008 C 0.39446 0.91197 0.3418 0.0
C3009 C 0.3955 0.92623 0.32053 0.0
N3010 N 0.40308 0.92067 0.27822 0.0
N3011 N 0.41666 0.88816 0.37093 0.0
C3012 C 0.41051 0.9177 0.30146 0.0
C3013 C 0.41438 0.89688 0.34795 0.0
N3014 N 0.44698 0.8959 0.28942 0.0
N3015 N 0.37325 0.91072 0.35455 0.0
H3016 H 0.43135 0.87754 0.37648 0.0
H3017 H 0.40514 0.89342 0.38495 0.0
H3018 H 0.35741 0.919 0.3482 0.0
H3019 H 0.37057 0.89893 0.36908 0.0
H3020 H 0.44821 0.90507 0.27299 0.0
H3021 H 0.46028 0.88258 0.29191 0.0
H3022 H 0.41248 0.91383 0.26337 0.0
H3023 H 0.38518 0.92553 0.27429 0.0
C3024 C 0.68144 0.09915 0.61503 0.0
C3025 C 0.68824 0.0766 0.60459 0.0
C3026 C 0.69116 0.09634 0.56518 0.0
C3027 C 0.68008 0.11765 0.57492 0.0
N3028 N 0.66153 0.13807 0.60894 0.0
N3029 N 0.698 0.05277 0.56961 0.0
C3030 C 0.67444 0.11881 0.59987 0.0
C3031 C 0.69263 0.07491 0.57957 0.0
N3032 N 0.68237 0.10193 0.63943 0.0
N3033 N 0.70151 0.09699 0.54277 0.0
H3034 H 0.69988 0.03697 0.58 0.0
H3035 H 0.69893 0.04987 0.55107 0.0
H3036 H 0.70225 0.11289 0.53242 0.0
H3037 H 0.71156 0.08259 0.53559 0.0
H3038 H 0.67936 0.11856 0.64806 0.0
H3039 H 0.68896 0.08821 0.6507 0.0
H3040 H 0.65496 0.13859 0.62657 0.0
H3041 H 0.6554 0.15249 0.59828 0.0
C3042 C 0.4399 0.15834 0.5714 0.0
C3043 C 0.43841 0.17924 0.58644 0.0
C3044 C 0.40811 0.19604 0.55933 0.0
C3045 C 0.40484 0.1729 0.54825 0.0
N3046 N 0.4167 0.12986 0.5478 0.0
N3047 N 0.41501 0.21494 0.59769 0.0
C3048 C 0.42049 0.1533 0.55525 0.0
C3049 C 0.42076 0.19729 0.58131 0.0
N3050 N 0.46012 0.14389 0.57166 0.0
N3051 N 0.40008 0.21701 0.54864 0.0
H3052 H 0.42176 0.2149 0.61524 0.0
H3053 H 0.40107 0.22754 0.59472 0.0
H3054 H 0.39352 0.21742 0.531 0.0
H3055 H 0.40336 0.23422 0.55602 0.0
H3056 H 0.46263 0.1295 0.5596 0.0
H3057 H 0.47556 0.14825 0.58165 0.0
H3058 H 0.42674 0.11523 0.5546 0.0
H3059 H 0.40228 0.12431 0.53711 0.0
C3060 C 0.34631 0.90117 0.56773 0.0
C3061 C 0.34863 0.9068 0.54273 0.0
C3062 C 0.33673 0.94923 0.55191 0.0
C3063 C 0.33169 0.94231 0.576 0.0
N3064 N 0.32813 0.91115 0.60623 0.0
N3065 N 0.34421 0.93648 0.51065 0.0
C3066 C 0.33532 0.91808 0.58364 0.0
C3067 C 0.34362 0.93104 0.53467 0.0
N3068 N 0.35596 0.88011 0.57667 0.0
N3069 N 0.33475 0.97326 0.54565 0.0
H3070 H 0.34867 0.92386 0.49736 0.0
H3071 H 0.33881 0.95322 0.50358 0.0
H3072 H 0.32812 0.98637 0.55763 0.0
H3073 H 0.34075 0.98039 0.52929 0.0
H3074 H 0.35714 0.87608 0.59499 0.0
H3075 H 0.36573 0.86822 0.56592 0.0
H3076 H 0.32772 0.89303 0.61194 0.0
H3077 H 0.32047 0.92327 0.61859 0.0
C3078 C 0.60054 0.83521 0.57947 0.0
C3079 C 0.59226 0.84079 0.55574 0.0
C3080 C 0.55044 0.82997 0.56793 0.0
C3081 C 0.55893 0.82453 0.59144 0.0
N3082 N 0.59089 0.82434 0.62081 0.0
N3083 N 0.55936 0.84441 0.52726 0.0
C3084 C 0.5837 0.82764 0.59745 0.0
C3085 C 0.56711 0.83866 0.54998 0.0
N3086 N 0.62474 0.83689 0.58479 0.0
N3087 N 0.52637 0.82627 0.56295 0.0
H3088 H 0.57109 0.85008 0.51362 0.0
H3089 H 0.54133 0.84425 0.52173 0.0
H3090 H 0.5142 0.8195 0.5758 0.0
H3091 H 0.51834 0.82898 0.54623 0.0
H3092 H 0.63275 0.82953 0.60015 0.0
H3093 H 0.6372 0.84533 0.57344 0.0
H3094 H 0.60773 0.82959 0.62755 0.0
H3095 H 0.57946 0.8173 0.63409 0.0
C3096 C 0.68541 0.89523 0.43316 0.0
C3097 C 0.66554 0.89744 0.44956 0.0
C3098 C 0.66246 0.9409 0.43902 0.0
C3099 C 0.6796 0.93756 0.42017 0.0
N3100 N 0.70306 0.9097 0.39584 0.0
N3101 N 0.6317 0.92185 0.46391 0.0
C3102 C 0.68993 0.91421 0.41628 0.0
C3103 C 0.65313 0.92018 0.45147 0.0
N3104 N 0.70065 0.87553 0.43419 0.0
N3105 N 0.65551 0.96395 0.44537 0.0
H3106 H 0.62327 0.90693 0.47206 0.0
H3107 H 0.62092 0.93752 0.46383 0.0
H3108 H 0.66274 0.97949 0.43715 0.0
H3109 H 0.6447 0.9676 0.46041 0.0
H3110 H 0.71658 0.87434 0.42402 0.0
H3111 H 0.69904 0.8618 0.44709 0.0
H3112 H 0.709 0.89227 0.39106 0.0
H3113 H 0.70563 0.92273 0.38237 0.0
C3114 C 0.59888 0.19055 0.45863 0.0
C3115 C 0.60326 0.16654 0.46726 0.0
C3116 C 0.58111 0.15065 0.43198 0.0
C3117 C 0.57533 0.17498 0.42468 0.0
N3118 N 0.59437 0.21448 0.42269 0.0
N3119 N 0.59634 0.12309 0.46271 0.0
C3120 C 0.58851 0.19413 0.43563 0.0
C3121 C 0.59341 0.14638 0.45433 0.0
N3122 N 0.60389 0.21024 0.47275 0.0
N3123 N 0.57917 0.13216 0.41567 0.0
H3124 H 0.60693 0.11851 0.47753 0.0
H3125 H 0.58682 0.10822 0.45585 0.0
H3126 H 0.57796 0.13582 0.39728 0.0
H3127 H 0.58318 0.11395 0.41926 0.0
H3128 H 0.59941 0.22806 0.46775 0.0
H3129 H 0.60929 0.2083 0.49058 0.0
H3130 H 0.60559 0.22822 0.42941 0.0
H3131 H 0.59153 0.21542 0.40411 0.0
C3132 C 0.35179 0.10342 0.44716 0.0
C3133 C 0.33797 0.12482 0.44206 0.0
C3134 C 0.31853 0.10372 0.40835 0.0
C3135 C 0.33001 0.08178 0.4155 0.0
N3136 N 0.35399 0.05937 0.44412 0.0
N3137 N 0.3045 0.14365 0.4206 0.0
C3138 C 0.34562 0.08123 0.43562 0.0
C3139 C 0.32035 0.12461 0.42334 0.0
N3140 N 0.37149 0.10442 0.46211 0.0
N3141 N 0.30646 0.10473 0.38689 0.0
H3142 H 0.30439 0.15892 0.43176 0.0
H3143 H 0.28981 0.14316 0.40877 0.0
H3144 H 0.30525 0.08977 0.37533 0.0
H3145 H 0.29976 0.12091 0.37956 0.0
H3146 H 0.38346 0.08985 0.46447 0.0
H3147 H 0.3775 0.12045 0.47019 0.0
H3148 H 0.3634 0.05758 0.46031 0.0
H3149 H 0.34945 0.04274 0.43615 0.0
C3150 C 0.42537 0.81179 0.44866 0.0
C3151 C 0.40118 0.82043 0.44449 0.0
C3152 C 0.41018 0.82377 0.40115 0.0
C3153 C 0.4342 0.8156 0.40557 0.0
N3154 N 0.46355 0.79726 0.4317 0.0
N3155 N 0.36944 0.83157 0.41652 0.0
C3156 C 0.4414 0.80824 0.42883 0.0
C3157 C 0.3933 0.82575 0.42063 0.0
N3158 N 0.43354 0.80805 0.47164 0.0
N3159 N 0.40362 0.82931 0.37807 0.0
H3160 H 0.35646 0.83267 0.43017 0.0
H3161 H 0.36189 0.83408 0.39954 0.0
H3162 H 0.41457 0.82469 0.36344 0.0
H3163 H 0.3877 0.83834 0.37329 0.0
H3164 H 0.45174 0.80537 0.47601 0.0
H3165 H 0.42256 0.80899 0.48685 0.0
H3166 H 0.46921 0.78884 0.44755 0.0
H3167 H 0.47561 0.79468 0.4174 0.0
C3168 C 0.57005 0.18447 0.5723 0.0
C3169 C 0.59413 0.18998 0.57953 0.0
C3170 C 0.58199 0.18891 0.62203 0.0
C3171 C 0.55783 0.18311 0.61493 0.0
N3172 N 0.52877 0.17337 0.58387 0.0
N3173 N 0.62431 0.19441 0.61027 0.0
C3174 C 0.55186 0.18015 0.59018 0.0
C3175 C 0.60044 0.19132 0.60416 0.0
N3176 N 0.56475 0.18376 0.54824 0.0
N3177 N 0.58713 0.19254 0.64587 0.0
H3178 H 0.63793 0.19722 0.59742 0.0
H3179 H 0.63096 0.19287 0.62775 0.0
H3180 H 0.57452 0.18943 0.65958 0.0
H3181 H 0.60353 0.19949 0.65217 0.0
H3182 H 0.54733 0.18186 0.54123 0.0
H3183 H 0.57794 0.18616 0.5349 0.0
H3184 H 0.52344 0.16896 0.56644 0.0
H3185 H 0.51479 0.171 0.59637 0.0
C3186 C 0.55714 0.86954 0.40925 0.0
C3187 C 0.54009 0.85127 0.40273 0.0
C3188 C 0.55586 0.82517 0.43517 0.0
C3189 C 0.57578 0.8412 0.43817 0.0
N3190 N 0.59726 0.87737 0.42534 0.0
N3191 N 0.52386 0.81076 0.40905 0.0
C3192 C 0.57683 0.86324 0.4247 0.0
C3193 C 0.5396 0.82882 0.41563 0.0
N3194 N 0.55465 0.8928 0.40075 0.0
N3195 N 0.5521 0.8069 0.45154 0.0
H3196 H 0.5107 0.81312 0.39581 0.0
H3197 H 0.52478 0.79303 0.41585 0.0
H3198 H 0.56319 0.80452 0.46659 0.0
H3199 H 0.53662 0.79594 0.45164 0.0
H3200 H 0.56551 0.90724 0.40649 0.0
H3201 H 0.54007 0.89817 0.39002 0.0
H3202 H 0.59995 0.89238 0.41409 0.0
H3203 H 0.61259 0.87263 0.43528 0.0
C3204 C 0.65372 0.09753 0.41959 0.0
C3205 C 0.67426 0.09809 0.43459 0.0
C3206 C 0.69146 0.06271 0.4136 0.0
C3207 C 0.66921 0.06 0.40061 0.0
N3208 N 0.6279 0.07395 0.39367 0.0
N3209 N 0.71537 0.08685 0.44194 0.0
C3210 C 0.6501 0.07733 0.40404 0.0
C3211 C 0.69412 0.08253 0.42998 0.0
N3212 N 0.63795 0.11673 0.41971 0.0
N3213 N 0.70908 0.04513 0.41203 0.0
H3214 H 0.71706 0.10146 0.45392 0.0
H3215 H 0.73162 0.07766 0.43872 0.0
H3216 H 0.70714 0.02936 0.40186 0.0
H3217 H 0.72489 0.04492 0.42226 0.0
H3218 H 0.62495 0.11929 0.40634 0.0
H3219 H 0.64009 0.13172 0.43101 0.0
H3220 H 0.61255 0.08417 0.39815 0.0
H3221 H 0.62418 0.05991 0.38186 0.0
C3222 C 0.42983 0.17635 0.40029 0.0
C3223 C 0.4541 0.17233 0.40846 0.0
C3224 C 0.44251 0.18651 0.44896 0.0
C3225 C 0.41853 0.19078 0.44068 0.0
N3226 N 0.3882 0.18813 0.40986 0.0
N3227 N 0.48457 0.17697 0.43939 0.0
C3228 C 0.41198 0.18551 0.4166 0.0
C3229 C 0.4607 0.1781 0.43257 0.0
N3230 N 0.42398 0.17174 0.37676 0.0
N3231 N 0.44752 0.18989 0.47284 0.0
H3232 H 0.49842 0.17081 0.42808 0.0
H3233 H 0.49108 0.18356 0.45573 0.0
H3234 H 0.43484 0.19728 0.48485 0.0
H3235 H 0.46361 0.18437 0.48107 0.0
H3236 H 0.40775 0.17694 0.36865 0.0
H3237 H 0.43573 0.16315 0.36472 0.0
H3238 H 0.381 0.18199 0.39365 0.0
H3239 H 0.37508 0.19586 0.42109 0.0
C3240 C 0.31465 0.90388 0.41043 0.0
C3241 C 0.3127 0.91026 0.43506 0.0
C3242 C 0.31693 0.95362 0.42473 0.0
C3243 C 0.31749 0.94735 0.3999 0.0
N3244 N 0.31253 0.91707 0.36873 0.0
N3245 N 0.30759 0.94078 0.46563 0.0
C3246 C 0.31502 0.92261 0.39261 0.0
C3247 C 0.31249 0.93506 0.44218 0.0
N3248 N 0.3167 0.87984 0.40423 0.0
N3249 N 0.32101 0.97722 0.43165 0.0
H3250 H 0.30459 0.92749 0.47878 0.0
H3251 H 0.30455 0.95852 0.47169 0.0
H3252 H 0.32381 0.99139 0.41939 0.0
H3253 H 0.32342 0.9825 0.44951 0.0
H3254 H 0.32106 0.87391 0.38692 0.0
H3255 H 0.31548 0.86579 0.41692 0.0
H3256 H 0.30811 0.89971 0.36248 0.0
H3257 H 0.31341 0.9302 0.35513 0.0
C3258 C 0.43142 0.81622 0.58129 0.0
C3259 C 0.42104 0.83728 0.57112 0.0
C3260 C 0.43959 0.86268 0.6024 0.0
C3261 C 0.45248 0.8418 0.61097 0.0
N3262 N 0.46458 0.79969 0.60447 0.0
N3263 N 0.41659 0.88095 0.56985 0.0
C3264 C 0.44924 0.81871 0.59952 0.0
C3265 C 0.42528 0.8606 0.58126 0.0
N3266 N 0.42463 0.79384 0.57284 0.0
N3267 N 0.44053 0.88442 0.61445 0.0
H3268 H 0.40531 0.88011 0.55481 0.0
H3269 H 0.42173 0.89868 0.5743 0.0
H3270 H 0.45204 0.88785 0.62882 0.0
H3271 H 0.42868 0.89887 0.61107 0.0
H3272 H 0.42975 0.77747 0.58099 0.0
H3273 H 0.41197 0.79186 0.55899 0.0
H3274 H 0.46448 0.7833 0.59497 0.0
H3275 H 0.47939 0.80113 0.61601 0.0
C3276 C 0.68199 0.93689 0.57687 0.0
C3277 C 0.66312 0.91944 0.57502 0.0
C3278 C 0.6361 0.94629 0.59838 0.0
C3279 C 0.65622 0.96148 0.60404 0.0
N3280 N 0.698 0.97283 0.59694 0.0
N3281 N 0.62304 0.90589 0.58635 0.0
C3282 C 0.67908 0.95726 0.59263 0.0
C3283 C 0.64029 0.92382 0.58619 0.0
N3284 N 0.70236 0.93418 0.56297 0.0
N3285 N 0.61298 0.95324 0.6043 0.0
H3286 H 0.62572 0.88896 0.57821 0.0
H3287 H 0.60711 0.90687 0.59652 0.0
H3288 H 0.60891 0.96977 0.61259 0.0
H3289 H 0.59757 0.9438 0.59866 0.0
H3290 H 0.71605 0.94722 0.56163 0.0
H3291 H 0.70467 0.9195 0.55121 0.0
H3292 H 0.7159 0.96932 0.59185 0.0
H3293 H 0.69576 0.98928 0.60618 0.0
C3294 C 0.34572 0.07258 0.55857 0.0
C3295 C 0.33536 0.09432 0.56786 0.0
C3296 C 0.34041 0.07924 0.60886 0.0
C3297 C 0.34743 0.05593 0.59965 0.0
N3298 N 0.35554 0.02994 0.56538 0.0
N3299 N 0.32079 0.11811 0.60107 0.0
C3300 C 0.35012 0.05251 0.57438 0.0
C3301 C 0.33228 0.09761 0.59281 0.0
N3302 N 0.35155 0.07137 0.53465 0.0
N3303 N 0.34211 0.08413 0.63296 0.0
H3304 H 0.315 0.13207 0.58961 0.0
H3305 H 0.31527 0.12043 0.6189 0.0
H3306 H 0.34793 0.07141 0.64558 0.0
H3307 H 0.33997 0.10152 0.64025 0.0
H3308 H 0.36142 0.05709 0.527 0.0
H3309 H 0.34805 0.08569 0.52272 0.0
H3310 H 0.35502 0.02572 0.54709 0.0
H3311 H 0.35915 0.01486 0.57624 0.0
C3312 C 0.56682 0.56468 0.17059 0.0
C3313 C 0.57397 0.58622 0.18275 0.0
C3314 C 0.61444 0.56876 0.18924 0.0
C3315 C 0.60823 0.54834 0.17468 0.0
N3316 N 0.57944 0.52908 0.14801 0.0
N3317 N 0.60609 0.61116 0.19864 0.0
C3318 C 0.58472 0.54706 0.16416 0.0
C3319 C 0.59826 0.58898 0.19059 0.0
N3320 N 0.54272 0.56051 0.16626 0.0
N3321 N 0.63526 0.56859 0.20257 0.0
H3322 H 0.59479 0.62647 0.1992 0.0
H3323 H 0.62428 0.61492 0.20234 0.0
H3324 H 0.64699 0.55373 0.20301 0.0
H3325 H 0.63946 0.58206 0.21514 0.0
H3326 H 0.53609 0.54406 0.15955 0.0
H3327 H 0.52908 0.57255 0.17175 0.0
H3328 H 0.56341 0.5286 0.13804 0.0
H3329 H 0.59211 0.51597 0.1429 0.0
C3330 C 0.4385 0.56329 0.15496 0.0
C3331 C 0.42473 0.56416 0.17668 0.0
C3332 C 0.45287 0.59505 0.19152 0.0
C3333 C 0.46271 0.5986 0.16798 0.0
N3334 N 0.46045 0.58714 0.12556 0.0
N3335 N 0.4159 0.58644 0.21324 0.0
C3336 C 0.45441 0.583 0.1491 0.0
C3337 C 0.43105 0.58165 0.19432 0.0
N3338 N 0.43737 0.54324 0.14042 0.0
N3339 N 0.46476 0.60337 0.21147 0.0
H3340 H 0.39861 0.57879 0.21477 0.0
H3341 H 0.41938 0.60037 0.22559 0.0
H3342 H 0.48235 0.61043 0.21071 0.0
H3343 H 0.45859 0.59981 0.22892 0.0
H3344 H 0.44853 0.54108 0.12534 0.0
H3345 H 0.42776 0.52756 0.14522 0.0
H3346 H 0.45269 0.5773 0.11146 0.0
H3347 H 0.47094 0.60173 0.11967 0.0
C3348 C 0.44508 0.43239 0.1792 0.0
C3349 C 0.43842 0.40754 0.18158 0.0
C3350 C 0.3954 0.41818 0.17667 0.0
C3351 C 0.40181 0.44329 0.17666 0.0
N3352 N 0.43223 0.4749 0.17821 0.0
N3353 N 0.40809 0.37615 0.18337 0.0
C3354 C 0.42657 0.45059 0.17772 0.0
C3355 C 0.41377 0.40026 0.18041 0.0
N3356 N 0.4692 0.43837 0.17826 0.0
N3357 N 0.3718 0.41159 0.17252 0.0
H3358 H 0.42134 0.36263 0.18522 0.0
H3359 H 0.39044 0.36957 0.18524 0.0
H3360 H 0.35809 0.42435 0.16939 0.0
H3361 H 0.36601 0.39366 0.17029 0.0
H3362 H 0.4757 0.45576 0.17433 0.0
H3363 H 0.48297 0.42538 0.18019 0.0
H3364 H 0.44957 0.48169 0.18151 0.0
H3365 H 0.41921 0.4886 0.17617 0.0
C3366 C 0.60485 0.40201 0.17789 0.0
C3367 C 0.59863 0.42605 0.18451 0.0
C3368 C 0.55911 0.41193 0.19967 0.0
C3369 C 0.56363 0.38878 0.18886 0.0
N3370 N 0.59094 0.36135 0.16792 0.0
N3371 N 0.5719 0.45435 0.20374 0.0
C3372 C 0.5867 0.38357 0.17833 0.0
C3373 C 0.57657 0.43091 0.1967 0.0
N3374 N 0.62813 0.39716 0.17075 0.0
N3375 N 0.53781 0.41604 0.21183 0.0
H3376 H 0.58508 0.46802 0.20233 0.0
H3377 H 0.55526 0.46046 0.21035 0.0
H3378 H 0.5237 0.40338 0.21273 0.0
H3379 H 0.53431 0.43165 0.22192 0.0
H3380 H 0.63473 0.3797 0.16721 0.0
H3381 H 0.64158 0.41056 0.17074 0.0
H3382 H 0.60613 0.35742 0.15737 0.0
H3383 H 0.57859 0.34702 0.16872 0.0
C3384 C 0.56699 0.44664 0.81946 0.0
C3385 C 0.57191 0.42153 0.82288 0.0
C3386 C 0.61482 0.4306 0.83023 0.0
C3387 C 0.61045 0.45539 0.8241 0.0
N3388 N 0.58293 0.48685 0.81034 0.0
N3389 N 0.60077 0.38883 0.82674 0.0
C3390 C 0.58667 0.46337 0.81789 0.0
C3391 C 0.59591 0.41328 0.82708 0.0
N3392 N 0.54341 0.45447 0.81856 0.0
N3393 N 0.63689 0.4236 0.83916 0.0
H3394 H 0.58737 0.37585 0.82326 0.0
H3395 H 0.61829 0.38162 0.82745 0.0
H3396 H 0.65131 0.43568 0.84143 0.0
H3397 H 0.6402 0.40629 0.84624 0.0
H3398 H 0.53841 0.47282 0.81849 0.0
H3399 H 0.5287 0.44254 0.82007 0.0
H3400 H 0.56655 0.49298 0.80312 0.0
H3401 H 0.5967 0.49992 0.80981 0.0
C3402 C 0.57363 0.56761 0.8418 0.0
C3403 C 0.59443 0.57446 0.82817 0.0
C3404 C 0.57846 0.61594 0.82516 0.0
C3405 C 0.56036 0.61032 0.8426 0.0
N3406 N 0.54193 0.58072 0.86934 0.0
N3407 N 0.61873 0.60646 0.81045 0.0
C3408 C 0.55798 0.58603 0.85122 0.0
C3409 C 0.59733 0.59895 0.82057 0.0
N3410 N 0.56884 0.54346 0.84554 0.0
N3411 N 0.57738 0.63739 0.81265 0.0
H3412 H 0.63359 0.5949 0.80799 0.0
H3413 H 0.62258 0.62474 0.80687 0.0
H3414 H 0.56296 0.64957 0.81459 0.0
H3415 H 0.58904 0.64151 0.79837 0.0
H3416 H 0.55281 0.53715 0.85345 0.0
H3417 H 0.57988 0.52969 0.83854 0.0
H3418 H 0.54147 0.56389 0.8781 0.0
H3419 H 0.53031 0.59365 0.87694 0.0
C3420 C 0.43186 0.57452 0.86416 0.0
C3421 C 0.43101 0.58949 0.84327 0.0
C3422 C 0.39857 0.56355 0.82769 0.0
C3423 C 0.39554 0.55207 0.85065 0.0
N3424 N 0.40853 0.551 0.89269 0.0
N3425 N 0.40915 0.60113 0.80747 0.0
C3426 C 0.41196 0.5587 0.86952 0.0
C3427 C 0.41298 0.58492 0.82576 0.0
N3428 N 0.45214 0.57439 0.87831 0.0
N3429 N 0.38927 0.55332 0.80727 0.0
H3430 H 0.41846 0.61767 0.80621 0.0
H3431 H 0.39481 0.5993 0.79532 0.0
H3432 H 0.38184 0.53585 0.80694 0.0
H3433 H 0.39249 0.56052 0.79014 0.0
H3434 H 0.45445 0.5622 0.89258 0.0
H3435 H 0.4678 0.58417 0.87392 0.0
H3436 H 0.41885 0.55766 0.907 0.0
H3437 H 0.39417 0.54015 0.89836 0.0
C3438 C 0.42868 0.4421 0.8382 0.0
C3439 C 0.40667 0.43796 0.8257 0.0
C3440 C 0.41859 0.39548 0.81894 0.0
C3441 C 0.43866 0.39859 0.83475 0.0
N3442 N 0.46065 0.42452 0.86254 0.0
N3443 N 0.37874 0.41002 0.80708 0.0
C3444 C 0.44335 0.42189 0.84506 0.0
C3445 C 0.40114 0.41448 0.8167 0.0
N3446 N 0.43554 0.46548 0.84331 0.0
N3447 N 0.41654 0.37468 0.80551 0.0
H3448 H 0.36537 0.42346 0.8056 0.0
H3449 H 0.3727 0.39258 0.8026 0.0
H3450 H 0.4295 0.36079 0.80589 0.0
H3451 H 0.40348 0.37243 0.79212 0.0
H3452 H 0.4525 0.46994 0.8504 0.0
H3453 H 0.42516 0.48058 0.83817 0.0
H3454 H 0.46296 0.44058 0.87232 0.0
H3455 H 0.47115 0.41011 0.86903 0.0
C3456 C 0.70866 0.57662 0.07869 0.0
C3457 C 0.69586 0.57364 0.10072 0.0
C3458 C 0.67004 0.60845 0.09063 0.0
C3459 C 0.68444 0.61336 0.0699 0.0
N3460 N 0.72075 0.60455 0.04686 0.0
N3461 N 0.66887 0.59064 0.13048 0.0
C3462 C 0.70475 0.59813 0.06462 0.0
C3463 C 0.67805 0.59092 0.10758 0.0
N3464 N 0.72371 0.55851 0.0707 0.0
N3465 N 0.64782 0.61923 0.0934 0.0
H3466 H 0.67512 0.57851 0.14361 0.0
H3467 H 0.65716 0.6041 0.13701 0.0
H3468 H 0.64042 0.63093 0.08057 0.0
H3469 H 0.63558 0.61413 0.10687 0.0
H3470 H 0.73158 0.55853 0.0536 0.0
H3471 H 0.72668 0.54251 0.08046 0.0
H3472 H 0.737 0.59526 0.04372 0.0
H3473 H 0.71894 0.62056 0.03687 0.0
C3474 C 0.41794 0.69083 0.08974 0.0
C3475 C 0.43594 0.67299 0.09403 0.0
C3476 C 0.41677 0.64657 0.06403 0.0
C3477 C 0.40053 0.66595 0.05755 0.0
N3478 N 0.39517 0.71008 0.05823 0.0
N3479 N 0.45713 0.63757 0.07879 0.0
C3480 C 0.40383 0.68919 0.06862 0.0
C3481 C 0.43678 0.65188 0.07931 0.0
N3482 N 0.41401 0.7092 0.10587 0.0
N3483 N 0.41326 0.62305 0.05666 0.0
H3484 H 0.47298 0.64201 0.08806 0.0
H3485 H 0.45927 0.62313 0.06672 0.0
H3486 H 0.39908 0.61719 0.04587 0.0
H3487 H 0.42353 0.60857 0.06343 0.0
H3488 H 0.39979 0.72169 0.10395 0.0
H3489 H 0.42303 0.7101 0.12237 0.0
H3490 H 0.39857 0.72734 0.0654 0.0
H3491 H 0.38824 0.71055 0.04077 0.0
C3492 C 0.33442 0.40931 0.09708 0.0
C3493 C 0.32844 0.43321 0.08951 0.0
C3494 C 0.33522 0.4217 0.04718 0.0
C3495 C 0.3404 0.39732 0.05463 0.0
N3496 N 0.34321 0.36728 0.08663 0.0
N3497 N 0.32044 0.46218 0.05814 0.0
C3498 C 0.33949 0.39095 0.07959 0.0
C3499 C 0.32814 0.4394 0.06474 0.0
N3500 N 0.33562 0.40442 0.12122 0.0
N3501 N 0.33688 0.4279 0.02334 0.0
H3502 H 0.31542 0.47538 0.07072 0.0
H3503 H 0.31745 0.46767 0.04044 0.0
H3504 H 0.34007 0.41529 0.00969 0.0
H3505 H 0.3361 0.44573 0.01692 0.0
H3506 H 0.34282 0.38847 0.1285 0.0
H3507 H 0.33028 0.41704 0.13428 0.0
H3508 H 0.33968 0.36077 0.10391 0.0
H3509 H 0.34897 0.35353 0.07502 0.0
C3510 C 0.56943 0.32899 0.06957 0.0
C3511 C 0.57683 0.31952 0.09216 0.0
C3512 C 0.61869 0.31551 0.07741 0.0
C3513 C 0.61158 0.32596 0.05499 0.0
N3514 N 0.58111 0.34622 0.0309 0.0
N3515 N 0.60859 0.3083 0.11952 0.0
C3516 C 0.58724 0.33398 0.05151 0.0
C3517 C 0.60154 0.31412 0.09662 0.0
N3518 N 0.54519 0.33212 0.06512 0.0
N3519 N 0.64169 0.30648 0.08021 0.0
H3520 H 0.59627 0.30717 0.13383 0.0
H3521 H 0.62669 0.30661 0.12478 0.0
H3522 H 0.6551 0.30809 0.06704 0.0
H3523 H 0.64711 0.29612 0.095 0.0
H3524 H 0.53814 0.33652 0.04826 0.0
H3525 H 0.53181 0.32842 0.07799 0.0
H3526 H 0.56437 0.35472 0.02832 0.0
H3527 H 0.59339 0.34947 0.01692 0.0
C3528 C 0.67372 0.42661 0.95882 0.0
C3529 C 0.66764 0.40248 0.95145 0.0
C3530 C 0.67619 0.41343 0.90923 0.0
C3531 C 0.68155 0.43751 0.91654 0.0
N3532 N 0.68405 0.46821 0.94711 0.0
N3533 N 0.65898 0.37401 0.91936 0.0
C3534 C 0.67983 0.44443 0.94104 0.0
C3535 C 0.66778 0.39618 0.92654 0.0
N3536 N 0.67477 0.43218 0.9828 0.0
N3537 N 0.67983 0.40703 0.88569 0.0
H3538 H 0.6526 0.3609 0.93141 0.0
H3539 H 0.65608 0.36924 0.90145 0.0
H3540 H 0.68577 0.4195 0.8727 0.0
H3541 H 0.67876 0.38921 0.8793 0.0
H3542 H 0.68087 0.44877 0.98953 0.0
H3543 H 0.67055 0.41979 0.99639 0.0
H3544 H 0.68048 0.47567 0.96399 0.0
H3545 H 0.69039 0.48099 0.93466 0.0
C3546 C 0.58828 0.68191 0.97284 0.0
C3547 C 0.60121 0.65942 0.97344 0.0
C3548 C 0.5802 0.64632 0.93689 0.0
C3549 C 0.56713 0.66882 0.93606 0.0
N3550 N 0.55262 0.70355 0.95842 0.0
N3551 N 0.60098 0.61687 0.96199 0.0
C3552 C 0.56933 0.68532 0.95565 0.0
C3553 C 0.59428 0.64046 0.95756 0.0
N3554 N 0.59404 0.70002 0.98873 0.0
N3555 N 0.58081 0.63121 0.91739 0.0
H3556 H 0.61049 0.61163 0.97735 0.0
H3557 H 0.59458 0.6022 0.95186 0.0
H3558 H 0.57219 0.63526 0.90132 0.0
H3559 H 0.59216 0.61598 0.91631 0.0
H3560 H 0.5874 0.71778 0.98729 0.0
H3561 H 0.60621 0.69741 0.0029 0.0
H3562 H 0.55203 0.71498 0.97342 0.0
H3563 H 0.53759 0.70536 0.94711 0.0
C3564 C 0.32631 0.59679 0.91869 0.0
C3565 C 0.31833 0.57313 0.92519 0.0
C3566 C 0.31077 0.58666 0.9666 0.0
C3567 C 0.31984 0.61014 0.96041 0.0
N3568 N 0.33984 0.63673 0.93175 0.0
N3569 N 0.30712 0.54397 0.95549 0.0
C3570 C 0.32886 0.61492 0.93683 0.0
C3571 C 0.31169 0.56765 0.94923 0.0
N3572 N 0.33026 0.60217 0.89494 0.0
N3573 N 0.30126 0.58254 0.98905 0.0
H3574 H 0.30795 0.52979 0.94302 0.0
H3575 H 0.30458 0.53803 0.97315 0.0
H3576 H 0.30164 0.59545 0.00284 0.0
H3577 H 0.29182 0.56677 0.99377 0.0
H3578 H 0.33359 0.61973 0.88852 0.0
H3579 H 0.3283 0.58928 0.88125 0.0
H3580 H 0.34926 0.64016 0.9158 0.0
H3581 H 0.34101 0.65096 0.94411 0.0
C3582 C 0.44302 0.32385 0.93949 0.0
C3583 C 0.4364 0.32261 0.9149 0.0
C3584 C 0.39312 0.32314 0.92597 0.0
C3585 C 0.39978 0.32523 0.95059 0.0
N3586 N 0.43062 0.33121 0.9809 0.0
N3587 N 0.40592 0.32359 0.88399 0.0
C3588 C 0.42464 0.32683 0.95738 0.0
C3589 C 0.41161 0.32296 0.90794 0.0
N3590 N 0.46691 0.32103 0.94562 0.0
N3591 N 0.3691 0.32098 0.91993 0.0
H3592 H 0.41906 0.32234 0.87048 0.0
H3593 H 0.38848 0.32661 0.87737 0.0
H3594 H 0.35505 0.32261 0.93249 0.0
H3595 H 0.36297 0.31666 0.90273 0.0
H3596 H 0.47307 0.31942 0.96327 0.0
H3597 H 0.48051 0.31832 0.93275 0.0
H3598 H 0.44821 0.33494 0.9867 0.0
H3599 H 0.41767 0.33291 0.99456 0.0
C3600 C 0.59666 0.66425 0.12185 0.0
C3601 C 0.57194 0.67193 0.12018 0.0
C3602 C 0.58064 0.68845 0.07977 0.0
C3603 C 0.60555 0.68323 0.08294 0.0
N3604 N 0.63817 0.6723 0.10949 0.0
N3605 N 0.54264 0.69759 0.09946 0.0
C3606 C 0.61384 0.67315 0.10486 0.0
C3607 C 0.56442 0.68566 0.09958 0.0
N3608 N 0.60358 0.64738 0.13868 0.0
N3609 N 0.57253 0.69615 0.0578 0.0
H3610 H 0.53136 0.6983 0.11442 0.0
H3611 H 0.5373 0.70941 0.08572 0.0
H3612 H 0.58426 0.69923 0.04331 0.0
H3613 H 0.55412 0.69771 0.05359 0.0
H3614 H 0.62112 0.64024 0.13961 0.0
H3615 H 0.59125 0.63825 0.14978 0.0
H3616 H 0.64526 0.66698 0.1261 0.0
H3617 H 0.651 0.67929 0.09746 0.0
C3618 C 0.56162 0.34485 0.94286 0.0
C3619 C 0.58508 0.33749 0.93525 0.0
C3620 C 0.57416 0.34512 0.89323 0.0
C3621 C 0.54968 0.35002 0.90043 0.0
N3622 N 0.51958 0.35264 0.93222 0.0
N3623 N 0.61388 0.32908 0.90376 0.0
C3624 C 0.5433 0.34974 0.92534 0.0
C3625 C 0.59138 0.33724 0.91059 0.0
N3626 N 0.55699 0.34704 0.96696 0.0
N3627 N 0.58129 0.34886 0.86988 0.0
H3628 H 0.62748 0.32464 0.91608 0.0
H3629 H 0.6187 0.3252 0.88601 0.0
H3630 H 0.56949 0.35424 0.85631 0.0
H3631 H 0.59935 0.34866 0.86419 0.0
H3632 H 0.54131 0.35498 0.97403 0.0
H3633 H 0.56971 0.34211 0.98 0.0
H3634 H 0.51336 0.34996 0.94976 0.0
H3635 H 0.50555 0.35619 0.92019 0.0
C3636 C 0.66613 0.54896 0.92466 0.0
C3637 C 0.66811 0.55492 0.89974 0.0
C3638 C 0.67848 0.59722 0.91026 0.0
C3639 C 0.67569 0.59137 0.93487 0.0
N3640 N 0.66261 0.56369 0.96583 0.0
N3641 N 0.6702 0.58616 0.86889 0.0
C3642 C 0.66807 0.56784 0.94213 0.0
C3643 C 0.67262 0.57948 0.89252 0.0
N3644 N 0.66381 0.52517 0.93176 0.0
N3645 N 0.68722 0.61968 0.90396 0.0
H3646 H 0.66519 0.57404 0.85535 0.0
H3647 H 0.6708 0.60421 0.86298 0.0
H3648 H 0.69089 0.63321 0.91668 0.0
H3649 H 0.6924 0.6243 0.88646 0.0
H3650 H 0.66491 0.5195 0.94964 0.0
H3651 H 0.66275 0.51064 0.91974 0.0
H3652 H 0.65433 0.5478 0.97208 0.0
H3653 H 0.66464 0.57703 0.97908 0.0
C3654 C 0.44002 0.67416 0.95674 0.0
C3655 C 0.41634 0.67984 0.94851 0.0
C3656 C 0.42866 0.67222 0.90682 0.0
C3657 C 0.4525 0.66567 0.91491 0.0
N3658 N 0.48037 0.65841 0.94781 0.0
N3659 N 0.38654 0.68077 0.91716 0.0
C3660 C 0.45799 0.66587 0.94001 0.0
C3661 C 0.41027 0.6779 0.92394 0.0
N3662 N 0.44524 0.67729 0.98062 0.0
N3663 N 0.42354 0.67352 0.88272 0.0
H3664 H 0.37289 0.68597 0.92922 0.0
H3665 H 0.37995 0.67642 0.90012 0.0
H3666 H 0.43523 0.66756 0.86922 0.0
H3667 H 0.40792 0.68168 0.87581 0.0
H3668 H 0.46255 0.67575 0.98798 0.0
H3669 H 0.43217 0.68294 0.99312 0.0
H3670 H 0.48488 0.65586 0.96583 0.0
H3671 H 0.4944 0.65345 0.93622 0.0
C3672 C 0.32667 0.4238 0.89895 0.0
C3673 C 0.31926 0.44785 0.90532 0.0
C3674 C 0.3108 0.43415 0.94683 0.0
C3675 C 0.31824 0.41018 0.94054 0.0
N3676 N 0.33519 0.38208 0.91186 0.0
N3677 N 0.30825 0.47707 0.93587 0.0
C3678 C 0.32688 0.40505 0.91694 0.0
C3679 C 0.31233 0.4533 0.92943 0.0
N3680 N 0.33263 0.4188 0.87552 0.0
N3681 N 0.30223 0.43849 0.96958 0.0
H3682 H 0.30948 0.4915 0.92366 0.0
H3683 H 0.30543 0.4829 0.95349 0.0
H3684 H 0.30259 0.42536 0.98319 0.0
H3685 H 0.29381 0.45464 0.97488 0.0
H3686 H 0.33606 0.40138 0.86888 0.0
H3687 H 0.3332 0.43216 0.86213 0.0
H3688 H 0.34408 0.37728 0.89599 0.0
H3689 H 0.33401 0.36772 0.92417 0.0
C3690 C 0.45673 0.35586 0.09039 0.0
C3691 C 0.46385 0.33622 0.10596 0.0
C3692 C 0.43023 0.31198 0.08988 0.0
C3693 C 0.42523 0.32995 0.07228 0.0
N3694 N 0.4397 0.36575 0.05133 0.0
N3695 N 0.46291 0.29206 0.1106 0.0
C3696 C 0.4402 0.35101 0.07118 0.0
C3697 C 0.45228 0.31317 0.10279 0.0
N3698 N 0.46468 0.3792 0.09387 0.0
N3699 N 0.4138 0.29398 0.09476 0.0
H3700 H 0.48081 0.29135 0.11669 0.0
H3701 H 0.4553 0.27493 0.10733 0.0
H3702 H 0.39652 0.29362 0.08705 0.0
H3703 H 0.41638 0.28138 0.10866 0.0
H3704 H 0.45764 0.39395 0.08421 0.0
H3705 H 0.47628 0.38462 0.10755 0.0
H3706 H 0.45188 0.38012 0.04883 0.0
H3707 H 0.42931 0.36176 0.03615 0.0
C3708 C 0.68003 0.40947 0.0854 0.0
C3709 C 0.68996 0.41654 0.06298 0.0
C3710 C 0.68843 0.45961 0.07533 0.0
C3711 C 0.67607 0.45257 0.09674 0.0
N3712 N 0.65679 0.42108 0.12054 0.0
N3713 N 0.70245 0.44798 0.03537 0.0
C3714 C 0.67105 0.42755 0.10138 0.0
C3715 C 0.69398 0.44154 0.05763 0.0
N3716 N 0.67972 0.38529 0.0915 0.0
N3717 N 0.69557 0.48333 0.07231 0.0
H3718 H 0.70759 0.4351 0.02251 0.0
H3719 H 0.70318 0.46591 0.02916 0.0
H3720 H 0.69149 0.49703 0.08472 0.0
H3721 H 0.7069 0.48918 0.0584 0.0
H3722 H 0.67492 0.37889 0.10855 0.0
H3723 H 0.68661 0.37175 0.08014 0.0
H3724 H 0.65018 0.40347 0.12325 0.0
H3725 H 0.6496 0.43377 0.13252 0.0
C3726 C 0.33603 0.57521 0.11923 0.0
C3727 C 0.34009 0.55111 0.11037 0.0
C3728 C 0.3329 0.56558 0.06908 0.0
C3729 C 0.3269 0.58894 0.07825 0.0
N3730 N 0.32034 0.61595 0.11163 0.0
N3731 N 0.33881 0.52252 0.07723 0.0
C3732 C 0.32767 0.59366 0.10325 0.0
C3733 C 0.33775 0.54606 0.08534 0.0
N3734 N 0.3413 0.5808 0.14268 0.0
N3735 N 0.33414 0.56225 0.04471 0.0
H3736 H 0.34193 0.50763 0.0885 0.0
H3737 H 0.33468 0.51744 0.05964 0.0
H3738 H 0.32957 0.57596 0.03246 0.0
H3739 H 0.34114 0.54659 0.03663 0.0
H3740 H 0.34144 0.59851 0.14945 0.0
H3741 H 0.34766 0.56808 0.1551 0.0
H3742 H 0.31759 0.61984 0.1298 0.0
H3743 H 0.31533 0.63023 0.1002 0.0
loop_
_geom_bond_atom_site_label_1
_geom_bond_atom_site_label_2
_geom_bond_distance
_geom_bond_site_symmetry_2
_ccdc_geom_bond_type
Co0 N4 2.130 1_455 S
Co0 N10 2.147 . S
Co0 N20 2.192 1_455 S
Co0 O25 2.329 1_455 S
Co0 O26 2.142 1_455 S
Co0 O27 2.113 . S
C1 N4 1.301 . S
C1 N5 1.328 . S
C1 H6 0.930 . S
C2 C3 1.333 . S
C2 N4 1.317 . S
C2 H7 0.930 . S
C3 C2 1.333 . S
C3 N5 1.350 . S
C3 H29 0.931 . S
N4 Co0 2.130 1_655 S
N4 C1 1.301 . S
N4 C2 1.317 . S
N5 C1 1.328 . S
N5 C3 1.350 . S
H6 C1 0.930 . S
H7 C2 0.930 . S
C8 O9 1.224 . S
C8 O27 1.247 . S
O9 C8 1.224 . S
N10 Co0 2.147 . S
N10 C11 1.355 . S
N10 C13 1.311 . S
C11 N10 1.355 . S
C11 C12 1.363 . S
C11 H23 0.929 . S
C12 C11 1.363 . S
C12 N14 1.375 . S
C12 H30 0.931 . S
C13 N10 1.311 . S
C13 N14 1.347 . S
C13 H24 0.929 . S
N14 C12 1.375 . S
N14 C13 1.347 . S
C15 C18 1.365 . S
C15 N20 1.328 . S
C15 H21 0.929 . S
C16 C17 1.362 . S
C16 C19 1.378 . S
C16 H31 0.929 . S
C17 C16 1.362 . S
C17 C18 1.366 1_455 S
C18 C15 1.365 . S
C18 C17 1.366 1_655 S
C18 H32 0.930 . S
C19 C16 1.378 . S
C19 N20 1.315 1_455 S
C19 H22 0.930 . S
N20 Co0 2.192 1_655 S
N20 C15 1.328 . S
N20 C19 1.315 1_655 S
H21 C15 0.929 . S
H22 C19 0.930 . S
H23 C11 0.929 . S
H24 C13 0.929 . S
O25 Co0 2.329 1_655 S
O25 C28 1.244 . S
O26 Co0 2.142 1_655 S
O26 C28 1.240 . S
O27 Co0 2.113 . S
O27 C8 1.247 . S
C28 O25 1.244 . S
C28 O26 1.240 . S
H29 C3 0.931 . S
H30 C12 0.931 . S
H31 C16 0.929 . S
H32 C18 0.930 . S
Co33 N37 2.148 . S
Co33 N43 2.128 1_545 S
Co33 N53 2.194 . S
Co33 O58 2.351 . S
Co33 O59 2.155 . S
Co33 O60 2.096 1_545 S
C34 N37 1.301 . S
C34 N38 1.328 . S
C34 H39 0.930 . S
C35 C36 1.333 . S
C35 N37 1.317 . S
C35 H40 0.930 . S
C36 C35 1.333 . S
C36 N38 1.350 . S
C36 H62 0.931 . S
N37 Co33 2.148 . S
N37 C34 1.301 . S
N37 C35 1.317 . S
N38 C34 1.328 . S
N38 C36 1.350 . S
H39 C34 0.930 . S
H40 C35 0.930 . S
C41 O42 1.224 . S
C41 O60 1.247 . S
O42 C41 1.224 . S
N43 Co33 2.128 1_565 S
N43 C44 1.355 . S
N43 C46 1.311 . S
C44 N43 1.355 . S
C44 C45 1.363 . S
C44 H56 0.929 . S
C45 C44 1.363 . S
C45 N47 1.375 . S
C45 H63 0.931 . S
C46 N43 1.311 . S
C46 N47 1.347 . S
C46 H57 0.929 . S
N47 C45 1.375 . S
N47 C46 1.347 . S
C48 C51 1.365 . S
C48 N53 1.328 . S
C48 H54 0.929 . S
C49 C50 1.362 1_565 S
C49 C52 1.378 . S
C49 H64 0.929 . S
C50 C49 1.362 1_545 S
C50 C51 1.366 . S
C51 C48 1.365 . S
C51 C50 1.366 . S
C51 H65 0.930 . S
C52 C49 1.378 . S
C52 N53 1.315 1_565 S
C52 H55 0.930 . S
N53 Co33 2.194 . S
N53 C48 1.328 . S
N53 C52 1.315 1_545 S
H54 C48 0.929 . S
H55 C52 0.930 . S
H56 C44 0.929 . S
H57 C46 0.929 . S
O58 Co33 2.351 . S
O58 C61 1.244 . S
O59 Co33 2.155 . S
O59 C61 1.240 . S
O60 Co33 2.096 1_565 S
O60 C41 1.247 . S
C61 O58 1.244 . S
C61 O59 1.240 . S
H62 C36 0.931 . S
H63 C45 0.931 . S
H64 C49 0.929 . S
H65 C51 0.930 . S
Co66 N70 2.148 . S
Co66 N76 2.128 1_655 S
Co66 N86 2.194 . S
Co66 O91 2.351 . S
Co66 O92 2.155 . S
Co66 O93 2.096 1_655 S
C67 N70 1.301 . S
C67 N71 1.328 . S
C67 H72 0.930 . S
C68 C69 1.333 . S
C68 N70 1.317 . S
C68 H73 0.930 . S
C69 C68 1.333 . S
C69 N71 1.350 . S
C69 H95 0.931 . S
N70 Co66 2.148 . S
N70 C67 1.301 . S
N70 C68 1.317 . S
N71 C67 1.328 . S
N71 C69 1.350 . S
H72 C67 0.930 . S
H73 C68 0.930 . S
C74 O75 1.224 . S
C74 O93 1.247 . S
O75 C74 1.224 . S
N76 Co66 2.128 1_455 S
N76 C77 1.355 . S
N76 C79 1.311 . S
C77 N76 1.355 . S
C77 C78 1.363 . S
C77 H89 0.929 . S
C78 C77 1.363 . S
C78 N80 1.375 . S
C78 H96 0.931 . S
C79 N76 1.311 . S
C79 N80 1.347 . S
C79 H90 0.929 . S
N80 C78 1.375 . S
N80 C79 1.347 . S
C81 C84 1.365 . S
C81 N86 1.328 . S
C81 H87 0.929 . S
C82 C83 1.362 1_455 S
C82 C85 1.378 . S
C82 H97 0.929 . S
C83 C82 1.362 1_655 S
C83 C84 1.366 . S
C84 C81 1.365 . S
C84 C83 1.366 . S
C84 H98 0.930 . S
C85 C82 1.378 . S
C85 N86 1.315 1_455 S
C85 H88 0.930 . S
N86 Co66 2.194 . S
N86 C81 1.328 . S
N86 C85 1.315 1_655 S
H87 C81 0.929 . S
H88 C85 0.930 . S
H89 C77 0.929 . S
H90 C79 0.929 . S
O91 Co66 2.351 . S
O91 C94 1.244 . S
O92 Co66 2.155 . S
O92 C94 1.240 . S
O93 Co66 2.096 1_455 S
O93 C74 1.247 . S
C94 O91 1.244 . S
C94 O92 1.240 . S
H95 C69 0.931 . S
H96 C78 0.931 . S
H97 C82 0.929 . S
H98 C84 0.930 . S
Co99 N103 2.165 . S
Co99 N109 2.110 1_565 S
Co99 N119 2.195 . S
Co99 O124 2.372 . S
Co99 O125 2.167 . S
Co99 O126 2.079 1_565 S
C100 N103 1.301 . S
C100 N104 1.328 . S
C100 H105 0.930 . S
C101 C102 1.333 . S
C101 N103 1.317 . S
C101 H106 0.930 . S
C102 C101 1.333 . S
C102 N104 1.350 . S
C102 H128 0.931 . S
N103 Co99 2.165 . S
N103 C100 1.301 . S
N103 C101 1.317 . S
N104 C100 1.328 . S
N104 C102 1.350 . S
H105 C100 0.930 . S
H106 C101 0.930 . S
C107 O108 1.224 . S
C107 O126 1.247 . S
O108 C107 1.224 . S
N109 Co99 2.110 1_545 S
N109 C110 1.355 . S
N109 C112 1.311 . S
C110 N109 1.355 . S
C110 C111 1.363 . S
C110 H122 0.929 . S
C111 C110 1.363 . S
C111 N113 1.375 . S
C111 H129 0.931 . S
C112 N109 1.311 . S
C112 N113 1.347 . S
C112 H123 0.929 . S
N113 C111 1.375 . S
N113 C112 1.347 . S
C114 C117 1.365 . S
C114 N119 1.328 . S
C114 H120 0.929 . S
C115 C116 1.342 1_545 S
C115 C118 1.378 . S
C115 H130 0.929 . S
C116 C115 1.342 1_565 S
C116 C117 1.389 . S
C117 C114 1.365 . S
C117 C116 1.389 . S
C117 H131 0.930 . S
C118 C115 1.378 . S
C118 N119 1.315 1_545 S
C118 H121 0.930 . S
N119 Co99 2.195 . S
N119 C114 1.328 . S
N119 C118 1.315 1_565 S
H120 C114 0.929 . S
H121 C118 0.930 . S
H122 C110 0.929 . S
H123 C112 0.929 . S
O124 Co99 2.372 . S
O124 C127 1.244 . S
O125 Co99 2.167 . S
O125 C127 1.240 . S
O126 Co99 2.079 1_545 S
O126 C107 1.247 . S
C127 O124 1.244 . S
C127 O125 1.240 . S
H128 C102 0.931 . S
H129 C111 0.931 . S
H130 C115 0.929 . S
H131 C117 0.930 . S
Co132 N136 2.148 . S
Co132 N142 2.128 1_455 S
Co132 N152 2.194 . S
Co132 O157 2.351 . S
Co132 O158 2.155 . S
Co132 O159 2.096 1_455 S
C133 N136 1.301 . S
C133 N137 1.328 . S
C133 H138 0.930 . S
C134 C135 1.333 . S
C134 N136 1.317 . S
C134 H139 0.930 . S
C135 C134 1.333 . S
C135 N137 1.350 . S
C135 H161 0.931 . S
N136 Co132 2.148 . S
N136 C133 1.301 . S
N136 C134 1.317 . S
N137 C133 1.328 . S
N137 C135 1.350 . S
H138 C133 0.930 . S
H139 C134 0.930 . S
C140 O141 1.224 . S
C140 O159 1.247 . S
O141 C140 1.224 . S
N142 Co132 2.128 1_655 S
N142 C143 1.355 . S
N142 C145 1.311 . S
C143 N142 1.355 . S
C143 C144 1.363 . S
C143 H155 0.929 . S
C144 C143 1.363 . S
C144 N146 1.375 . S
C144 H162 0.931 . S
C145 N142 1.311 . S
C145 N146 1.347 . S
C145 H156 0.929 . S
N146 C144 1.375 . S
N146 C145 1.347 . S
C147 C150 1.365 . S
C147 N152 1.328 . S
C147 H153 0.929 . S
C148 C149 1.362 1_655 S
C148 C151 1.378 . S
C148 H163 0.929 . S
C149 C148 1.362 1_455 S
C149 C150 1.366 . S
C150 C147 1.365 . S
C150 C149 1.366 . S
C150 H164 0.930 . S
C151 C148 1.378 . S
C151 N152 1.315 1_655 S
C151 H154 0.930 . S
N152 Co132 2.194 . S
N152 C147 1.328 . S
N152 C151 1.315 1_455 S
H153 C147 0.929 . S
H154 C151 0.930 . S
H155 C143 0.929 . S
H156 C145 0.929 . S
O157 Co132 2.351 . S
O157 C160 1.244 . S
O158 Co132 2.155 . S
O158 C160 1.240 . S
O159 Co132 2.096 1_655 S
O159 C140 1.247 . S
C160 O157 1.244 . S
C160 O158 1.240 . S
H161 C135 0.931 . S
H162 C144 0.931 . S
H163 C148 0.929 . S
H164 C150 0.930 . S
Co165 N169 2.148 . S
Co165 N175 2.128 1_545 S
Co165 N185 2.194 . S
Co165 O190 2.351 . S
Co165 O191 2.155 . S
Co165 O192 2.096 1_545 S
C166 N169 1.301 . S
C166 N170 1.328 . S
C166 H171 0.930 . S
C167 C168 1.333 . S
C167 N169 1.317 . S
C167 H172 0.930 . S
C168 C167 1.333 . S
C168 N170 1.350 . S
C168 H194 0.931 . S
N169 Co165 2.148 . S
N169 C166 1.301 . S
N169 C167 1.317 . S
N170 C166 1.328 . S
N170 C168 1.350 . S
H171 C166 0.930 . S
H172 C167 0.930 . S
C173 O174 1.224 . S
C173 O192 1.247 . S
O174 C173 1.224 . S
N175 Co165 2.128 1_565 S
N175 C176 1.355 . S
N175 C178 1.311 . S
C176 N175 1.355 . S
C176 C177 1.363 . S
C176 H188 0.929 . S
C177 C176 1.363 . S
C177 N179 1.375 . S
C177 H195 0.931 . S
C178 N175 1.311 . S
C178 N179 1.347 . S
C178 H189 0.929 . S
N179 C177 1.375 . S
N179 C178 1.347 . S
C180 C183 1.365 . S
C180 N185 1.328 . S
C180 H186 0.929 . S
C181 C182 1.362 1_565 S
C181 C184 1.378 . S
C181 H196 0.929 . S
C182 C181 1.362 1_545 S
C182 C183 1.366 . S
C183 C180 1.365 . S
C183 C182 1.366 . S
C183 H197 0.930 . S
C184 C181 1.378 . S
C184 N185 1.315 1_565 S
C184 H187 0.930 . S
N185 Co165 2.194 . S
N185 C180 1.328 . S
N185 C184 1.315 1_545 S
H186 C180 0.929 . S
H187 C184 0.930 . S
H188 C176 0.929 . S
H189 C178 0.929 . S
O190 Co165 2.351 . S
O190 C193 1.244 . S
O191 Co165 2.155 . S
O191 C193 1.240 . S
O192 Co165 2.096 1_565 S
O192 C173 1.247 . S
C193 O190 1.244 . S
C193 O191 1.240 . S
H194 C168 0.931 . S
H195 C177 0.931 . S
H196 C181 0.929 . S
H197 C183 0.930 . S
Co198 N202 2.130 1_455 S
Co198 N208 2.147 . S
Co198 N218 2.192 1_455 S
Co198 O223 2.329 1_455 S
Co198 O224 2.142 1_455 S
Co198 O225 2.113 . S
C199 N202 1.301 . S
C199 N203 1.328 . S
C199 H204 0.930 . S
C200 C201 1.333 . S
C200 N202 1.317 . S
C200 H205 0.930 . S
C201 C200 1.333 . S
C201 N203 1.350 . S
C201 H227 0.931 . S
N202 Co198 2.130 1_655 S
N202 C199 1.301 . S
N202 C200 1.317 . S
N203 C199 1.328 . S
N203 C201 1.350 . S
H204 C199 0.930 . S
H205 C200 0.930 . S
C206 O207 1.224 . S
C206 O225 1.247 . S
O207 C206 1.224 . S
N208 Co198 2.147 . S
N208 C209 1.355 . S
N208 C211 1.311 . S
C209 N208 1.355 . S
C209 C210 1.363 . S
C209 H221 0.929 . S
C210 C209 1.363 . S
C210 N212 1.375 . S
C210 H228 0.931 . S
C211 N208 1.311 . S
C211 N212 1.347 . S
C211 H222 0.929 . S
N212 C210 1.375 . S
N212 C211 1.347 . S
C213 C216 1.365 . S
C213 N218 1.328 . S
C213 H219 0.929 . S
C214 C215 1.387 . S
C214 C217 1.378 . S
C214 H229 0.929 . S
C215 C214 1.387 . S
C215 C216 1.339 1_455 S
C216 C213 1.365 . S
C216 C215 1.339 1_655 S
C216 H230 0.930 . S
C217 C214 1.378 . S
C217 N218 1.315 1_455 S
C217 H220 0.930 . S
N218 Co198 2.192 1_655 S
N218 C213 1.328 . S
N218 C217 1.315 1_655 S
H219 C213 0.929 . S
H220 C217 0.930 . S
H221 C209 0.929 . S
H222 C211 0.929 . S
O223 Co198 2.329 1_655 S
O223 C226 1.244 . S
O224 Co198 2.142 1_655 S
O224 C226 1.240 . S
O225 Co198 2.113 . S
O225 C206 1.247 . S
C226 O223 1.244 . S
C226 O224 1.240 . S
H227 C201 0.931 . S
H228 C210 0.931 . S
H229 C214 0.929 . S
H230 C216 0.930 . S
Co231 N235 2.148 . S
Co231 N241 2.128 1_545 S
Co231 N251 2.194 . S
Co231 O256 2.351 . S
Co231 O257 2.155 . S
Co231 O258 2.096 1_545 S
C232 N235 1.301 . S
C232 N236 1.328 . S
C232 H237 0.930 . S
C233 C234 1.333 . S
C233 N235 1.317 . S
C233 H238 0.930 . S
C234 C233 1.333 . S
C234 N236 1.350 . S
C234 H260 0.931 . S
N235 Co231 2.148 . S
N235 C232 1.301 . S
N235 C233 1.317 . S
N236 C232 1.328 . S
N236 C234 1.350 . S
H237 C232 0.930 . S
H238 C233 0.930 . S
C239 O240 1.224 . S
C239 O258 1.247 . S
O240 C239 1.224 . S
N241 Co231 2.128 1_565 S
N241 C242 1.355 . S
N241 C244 1.311 . S
C242 N241 1.355 . S
C242 C243 1.363 . S
C242 H254 0.929 . S
C243 C242 1.363 . S
C243 N245 1.375 . S
C243 H261 0.931 . S
C244 N241 1.311 . S
C244 N245 1.347 . S
C244 H255 0.929 . S
N245 C243 1.375 . S
N245 C244 1.347 . S
C246 C249 1.365 . S
C246 N251 1.328 . S
C246 H252 0.929 . S
C247 C248 1.362 1_565 S
C247 C250 1.378 . S
C247 H262 0.929 . S
C248 C247 1.362 1_545 S
C248 C249 1.366 . S
C249 C246 1.365 . S
C249 C248 1.366 . S
C249 H263 0.930 . S
C250 C247 1.378 . S
C250 N251 1.315 1_565 S
C250 H253 0.930 . S
N251 Co231 2.194 . S
N251 C246 1.328 . S
N251 C250 1.315 1_545 S
H252 C246 0.929 . S
H253 C250 0.930 . S
H254 C242 0.929 . S
H255 C244 0.929 . S
O256 Co231 2.351 . S
O256 C259 1.244 . S
O257 Co231 2.155 . S
O257 C259 1.240 . S
O258 Co231 2.096 1_565 S
O258 C239 1.247 . S
C259 O256 1.244 . S
C259 O257 1.240 . S
H260 C234 0.931 . S
H261 C243 0.931 . S
H262 C247 0.929 . S
H263 C249 0.930 . S
Co264 N268 2.148 1_554 S
Co264 N274 2.128 . S
Co264 N284 2.194 . S
Co264 O289 2.351 1_554 S
Co264 O290 2.155 1_554 S
Co264 O291 2.096 . S
C265 N268 1.301 . S
C265 N269 1.328 . S
C265 H270 0.930 . S
C266 C267 1.333 . S
C266 N268 1.317 . S
C266 H271 0.930 . S
C267 C266 1.333 . S
C267 N269 1.350 . S
C267 H293 0.931 . S
N268 Co264 2.148 1_556 S
N268 C265 1.301 . S
N268 C266 1.317 . S
N269 C265 1.328 . S
N269 C267 1.350 . S
H270 C265 0.930 . S
H271 C266 0.930 . S
C272 O273 1.224 . S
C272 O291 1.247 . S
O273 C272 1.224 . S
N274 Co264 2.128 . S
N274 C275 1.355 . S
N274 C277 1.311 . S
C275 N274 1.355 . S
C275 C276 1.363 . S
C275 H287 0.929 . S
C276 C275 1.363 . S
C276 N278 1.375 . S
C276 H294 0.931 . S
C277 N274 1.311 . S
C277 N278 1.347 . S
C277 H288 0.929 . S
N278 C276 1.375 . S
N278 C277 1.347 . S
C279 C282 1.365 . S
C279 N284 1.328 1_556 S
C279 H285 0.929 . S
C280 C281 1.362 . S
C280 C283 1.378 . S
C280 H295 0.929 . S
C281 C280 1.362 . S
C281 C282 1.366 1_554 S
C282 C279 1.365 . S
C282 C281 1.366 1_556 S
C282 H296 0.930 . S
C283 C280 1.378 . S
C283 N284 1.315 . S
C283 H286 0.930 . S
N284 Co264 2.194 . S
N284 C279 1.328 1_554 S
N284 C283 1.315 . S
H285 C279 0.929 . S
H286 C283 0.930 . S
H287 C275 0.929 . S
H288 C277 0.929 . S
O289 Co264 2.351 1_556 S
O289 C292 1.244 . S
O290 Co264 2.155 1_556 S
O290 C292 1.240 . S
O291 Co264 2.096 . S
O291 C272 1.247 . S
C292 O289 1.244 . S
C292 O290 1.240 . S
H293 C267 0.931 . S
H294 C276 0.931 . S
H295 C280 0.929 . S
H296 C282 0.930 . S
Co297 N301 2.148 . S
Co297 N307 2.128 1_554 S
Co297 N317 2.194 . S
Co297 O322 2.351 . S
Co297 O323 2.155 . S
Co297 O324 2.096 1_554 S
C298 N301 1.301 . S
C298 N302 1.328 . S
C298 H303 0.930 . S
C299 C300 1.333 . S
C299 N301 1.317 . S
C299 H304 0.930 . S
C300 C299 1.333 . S
C300 N302 1.350 . S
C300 H326 0.931 . S
N301 Co297 2.148 . S
N301 C298 1.301 . S
N301 C299 1.317 . S
N302 C298 1.328 . S
N302 C300 1.350 . S
H303 C298 0.930 . S
H304 C299 0.930 . S
C305 O306 1.224 . S
C305 O324 1.247 . S
O306 C305 1.224 . S
N307 Co297 2.128 1_556 S
N307 C308 1.355 . S
N307 C310 1.311 . S
C308 N307 1.355 . S
C308 C309 1.363 . S
C308 H320 0.929 . S
C309 C308 1.363 . S
C309 N311 1.375 . S
C309 H327 0.931 . S
C310 N307 1.311 . S
C310 N311 1.347 . S
C310 H321 0.929 . S
N311 C309 1.375 . S
N311 C310 1.347 . S
C312 C315 1.365 . S
C312 N317 1.328 . S
C312 H318 0.929 . S
C313 C314 1.362 1_556 S
C313 C316 1.378 . S
C313 H328 0.929 . S
C314 C313 1.362 1_554 S
C314 C315 1.366 . S
C315 C312 1.365 . S
C315 C314 1.366 . S
C315 H329 0.930 . S
C316 C313 1.378 . S
C316 N317 1.315 1_556 S
C316 H319 0.930 . S
N317 Co297 2.194 . S
N317 C312 1.328 . S
N317 C316 1.315 1_554 S
H318 C312 0.929 . S
H319 C316 0.930 . S
H320 C308 0.929 . S
H321 C310 0.929 . S
O322 Co297 2.351 . S
O322 C325 1.244 . S
O323 Co297 2.155 . S
O323 C325 1.240 . S
O324 Co297 2.096 1_556 S
O324 C305 1.247 . S
C325 O322 1.244 . S
C325 O323 1.240 . S
H326 C300 0.931 . S
H327 C309 0.931 . S
H328 C313 0.929 . S
H329 C315 0.930 . S
Co330 N334 2.148 . S
Co330 N340 2.128 1_554 S
Co330 N350 2.194 . S
Co330 O355 2.351 . S
Co330 O356 2.155 . S
Co330 O357 2.096 1_554 S
C331 N334 1.301 . S
C331 N335 1.328 . S
C331 H336 0.930 . S
C332 C333 1.333 . S
C332 N334 1.317 . S
C332 H337 0.930 . S
C333 C332 1.333 . S
C333 N335 1.350 . S
C333 H359 0.931 . S
N334 Co330 2.148 . S
N334 C331 1.301 . S
N334 C332 1.317 . S
N335 C331 1.328 . S
N335 C333 1.350 . S
H336 C331 0.930 . S
H337 C332 0.930 . S
C338 O339 1.224 . S
C338 O357 1.247 . S
O339 C338 1.224 . S
N340 Co330 2.128 1_556 S
N340 C341 1.355 . S
N340 C343 1.311 . S
C341 N340 1.355 . S
C341 C342 1.363 . S
C341 H353 0.929 . S
C342 C341 1.363 . S
C342 N344 1.375 . S
C342 H360 0.931 . S
C343 N340 1.311 . S
C343 N344 1.347 . S
C343 H354 0.929 . S
N344 C342 1.375 . S
N344 C343 1.347 . S
C345 C348 1.365 . S
C345 N350 1.328 . S
C345 H351 0.929 . S
C346 C347 1.362 1_556 S
C346 C349 1.378 . S
C346 H361 0.929 . S
C347 C346 1.362 1_554 S
C347 C348 1.366 . S
C348 C345 1.365 . S
C348 C347 1.366 . S
C348 H362 0.930 . S
C349 C346 1.378 . S
C349 N350 1.315 1_556 S
C349 H352 0.930 . S
N350 Co330 2.194 . S
N350 C345 1.328 . S
N350 C349 1.315 1_554 S
H351 C345 0.929 . S
H352 C349 0.930 . S
H353 C341 0.929 . S
H354 C343 0.929 . S
O355 Co330 2.351 . S
O355 C358 1.244 . S
O356 Co330 2.155 . S
O356 C358 1.240 . S
O357 Co330 2.096 1_556 S
O357 C338 1.247 . S
C358 O355 1.244 . S
C358 O356 1.240 . S
H359 C333 0.931 . S
H360 C342 0.931 . S
H361 C346 0.929 . S
H362 C348 0.930 . S
Co363 N367 2.148 . S
Co363 N373 2.128 1_554 S
Co363 N383 2.194 . S
Co363 O388 2.351 . S
Co363 O389 2.155 . S
Co363 O390 2.096 1_554 S
C364 N367 1.301 . S
C364 N368 1.328 . S
C364 H369 0.930 . S
C365 C366 1.333 . S
C365 N367 1.317 . S
C365 H370 0.930 . S
C366 C365 1.333 . S
C366 N368 1.350 . S
C366 H392 0.931 . S
N367 Co363 2.148 . S
N367 C364 1.301 . S
N367 C365 1.317 . S
N368 C364 1.328 . S
N368 C366 1.350 . S
H369 C364 0.930 . S
H370 C365 0.930 . S
C371 O372 1.224 . S
C371 O390 1.247 . S
O372 C371 1.224 . S
N373 Co363 2.128 1_556 S
N373 C374 1.355 . S
N373 C376 1.311 . S
C374 N373 1.355 . S
C374 C375 1.363 . S
C374 H386 0.929 . S
C375 C374 1.363 . S
C375 N377 1.375 . S
C375 H393 0.931 . S
C376 N373 1.311 . S
C376 N377 1.347 . S
C376 H387 0.929 . S
N377 C375 1.375 . S
N377 C376 1.347 . S
C378 C381 1.365 . S
C378 N383 1.328 . S
C378 H384 0.929 . S
C379 C380 1.362 1_556 S
C379 C382 1.378 . S
C379 H394 0.929 . S
C380 C379 1.362 1_554 S
C380 C381 1.366 . S
C381 C378 1.365 . S
C381 C380 1.366 . S
C381 H395 0.930 . S
C382 C379 1.378 . S
C382 N383 1.315 1_556 S
C382 H385 0.930 . S
N383 Co363 2.194 . S
N383 C378 1.328 . S
N383 C382 1.315 1_554 S
H384 C378 0.929 . S
H385 C382 0.930 . S
H386 C374 0.929 . S
H387 C376 0.929 . S
O388 Co363 2.351 . S
O388 C391 1.244 . S
O389 Co363 2.155 . S
O389 C391 1.240 . S
O390 Co363 2.096 1_556 S
O390 C371 1.247 . S
C391 O388 1.244 . S
C391 O389 1.240 . S
H392 C366 0.931 . S
H393 C375 0.931 . S
H394 C379 0.929 . S
H395 C381 0.930 . S
Co396 N400 2.135 1_455 S
Co396 N406 2.142 . S
Co396 N416 2.193 1_455 S
Co396 O421 2.335 1_455 S
Co396 O422 2.146 1_455 S
Co396 O423 2.108 . S
C397 N400 1.301 . S
C397 N401 1.328 . S
C397 H402 0.930 . S
C398 C399 1.333 . S
C398 N400 1.317 . S
C398 H403 0.930 . S
C399 C398 1.333 . S
C399 N401 1.350 . S
C399 H425 0.931 . S
N400 Co396 2.135 1_655 S
N400 C397 1.301 . S
N400 C398 1.317 . S
N401 C397 1.328 . S
N401 C399 1.350 . S
H402 C397 0.930 . S
H403 C398 0.930 . S
C404 O405 1.224 . S
C404 O423 1.247 . S
O405 C404 1.224 . S
N406 Co396 2.142 . S
N406 C407 1.355 . S
N406 C409 1.311 . S
C407 N406 1.355 . S
C407 C408 1.363 . S
C407 H419 0.929 . S
C408 C407 1.363 . S
C408 N410 1.375 . S
C408 H426 0.931 . S
C409 N406 1.311 . S
C409 N410 1.347 . S
C409 H420 0.929 . S
N410 C408 1.375 . S
N410 C409 1.347 . S
C411 C414 1.365 . S
C411 N416 1.328 . S
C411 H417 0.929 . S
C412 C413 1.384 . S
C412 C415 1.378 . S
C412 H427 0.929 . S
C413 C412 1.384 . S
C413 C414 1.343 1_455 S
C414 C411 1.365 . S
C414 C413 1.343 1_655 S
C414 H428 0.930 . S
C415 C412 1.378 . S
C415 N416 1.315 1_455 S
C415 H418 0.930 . S
N416 Co396 2.193 1_655 S
N416 C411 1.328 . S
N416 C415 1.315 1_655 S
H417 C411 0.929 . S
H418 C415 0.930 . S
H419 C407 0.929 . S
H420 C409 0.929 . S
O421 Co396 2.335 1_655 S
O421 C424 1.244 . S
O422 Co396 2.146 1_655 S
O422 C424 1.240 . S
O423 Co396 2.108 . S
O423 C404 1.247 . S
C424 O421 1.244 . S
C424 O422 1.240 . S
H425 C399 0.931 . S
H426 C408 0.931 . S
H427 C412 0.929 . S
H428 C414 0.930 . S
Co429 N433 2.148 . S
Co429 N439 2.128 . S
Co429 N449 2.194 . S
Co429 O454 2.351 . S
Co429 O455 2.155 . S
Co429 O456 2.096 . S
C430 N433 1.301 . S
C430 N434 1.328 . S
C430 H435 0.930 . S
C431 C432 1.333 . S
C431 N433 1.317 . S
C431 H436 0.930 . S
C432 C431 1.333 . S
C432 N434 1.350 . S
C432 H458 0.931 . S
N433 Co429 2.148 . S
N433 C430 1.301 . S
N433 C431 1.317 . S
N434 C430 1.328 . S
N434 C432 1.350 . S
H435 C430 0.930 . S
H436 C431 0.930 . S
C437 O438 1.224 . S
C437 O456 1.247 . S
O438 C437 1.224 . S
N439 Co429 2.128 . S
N439 C440 1.355 . S
N439 C442 1.311 . S
C440 N439 1.355 . S
C440 C441 1.363 . S
C440 H452 0.929 . S
C441 C440 1.363 . S
C441 N443 1.375 . S
C441 H459 0.931 . S
C442 N439 1.311 . S
C442 N443 1.347 . S
C442 H453 0.929 . S
N443 C441 1.375 . S
N443 C442 1.347 . S
C444 C447 1.365 . S
C444 N449 1.328 . S
C444 H450 0.929 . S
C445 C446 1.362 . S
C445 C448 1.378 . S
C445 H460 0.929 . S
C446 C445 1.362 . S
C446 C447 1.366 . S
C447 C444 1.365 . S
C447 C446 1.366 . S
C447 H461 0.930 . S
C448 C445 1.378 . S
C448 N449 1.315 . S
C448 H451 0.930 . S
N449 Co429 2.194 . S
N449 C444 1.328 . S
N449 C448 1.315 . S
H450 C444 0.929 . S
H451 C448 0.930 . S
H452 C440 0.929 . S
H453 C442 0.929 . S
O454 Co429 2.351 . S
O454 C457 1.244 . S
O455 Co429 2.155 . S
O455 C457 1.240 . S
O456 Co429 2.096 . S
O456 C437 1.247 . S
C457 O454 1.244 . S
C457 O455 1.240 . S
H458 C432 0.931 . S
H459 C441 0.931 . S
H460 C445 0.929 . S
H461 C447 0.930 . S
Co462 N466 2.161 . S
Co462 N472 2.115 1_655 S
Co462 N482 2.195 . S
Co462 O487 2.367 . S
Co462 O488 2.164 . S
Co462 O489 2.083 1_655 S
C463 N466 1.301 . S
C463 N467 1.328 . S
C463 H468 0.930 . S
C464 C465 1.333 . S
C464 N466 1.317 . S
C464 H469 0.930 . S
C465 C464 1.333 . S
C465 N467 1.350 . S
C465 H491 0.931 . S
N466 Co462 2.161 . S
N466 C463 1.301 . S
N466 C464 1.317 . S
N467 C463 1.328 . S
N467 C465 1.350 . S
H468 C463 0.930 . S
H469 C464 0.930 . S
C470 O471 1.224 . S
C470 O489 1.247 . S
O471 C470 1.224 . S
N472 Co462 2.115 1_455 S
N472 C473 1.355 . S
N472 C475 1.311 . S
C473 N472 1.355 . S
C473 C474 1.363 . S
C473 H485 0.929 . S
C474 C473 1.363 . S
C474 N476 1.375 . S
C474 H492 0.931 . S
C475 N472 1.311 . S
C475 N476 1.347 . S
C475 H486 0.929 . S
N476 C474 1.375 . S
N476 C475 1.347 . S
C477 C480 1.365 . S
C477 N482 1.328 . S
C477 H483 0.929 . S
C478 C479 1.347 1_455 S
C478 C481 1.378 . S
C478 H493 0.929 . S
C479 C478 1.347 1_655 S
C479 C480 1.382 . S
C480 C477 1.365 . S
C480 C479 1.382 . S
C480 H494 0.930 . S
C481 C478 1.378 . S
C481 N482 1.315 1_455 S
C481 H484 0.930 . S
N482 Co462 2.195 . S
N482 C477 1.328 . S
N482 C481 1.315 1_655 S
H483 C477 0.929 . S
H484 C481 0.930 . S
H485 C473 0.929 . S
H486 C475 0.929 . S
O487 Co462 2.367 . S
O487 C490 1.244 . S
O488 Co462 2.164 . S
O488 C490 1.240 . S
O489 Co462 2.083 1_455 S
O489 C470 1.247 . S
C490 O487 1.244 . S
C490 O488 1.240 . S
H491 C465 0.931 . S
H492 C474 0.931 . S
H493 C478 0.929 . S
H494 C480 0.930 . S
Co495 N499 2.148 . S
Co495 N505 2.128 . S
Co495 N515 2.194 . S
Co495 O520 2.351 . S
Co495 O521 2.155 . S
Co495 O522 2.096 . S
C496 N499 1.301 . S
C496 N500 1.328 . S
C496 H501 0.930 . S
C497 C498 1.333 . S
C497 N499 1.317 . S
C497 H502 0.930 . S
C498 C497 1.333 . S
C498 N500 1.350 . S
C498 H524 0.931 . S
N499 Co495 2.148 . S
N499 C496 1.301 . S
N499 C497 1.317 . S
N500 C496 1.328 . S
N500 C498 1.350 . S
H501 C496 0.930 . S
H502 C497 0.930 . S
C503 O504 1.224 . S
C503 O522 1.247 . S
O504 C503 1.224 . S
N505 Co495 2.128 . S
N505 C506 1.355 . S
N505 C508 1.311 . S
C506 N505 1.355 . S
C506 C507 1.363 . S
C506 H518 0.929 . S
C507 C506 1.363 . S
C507 N509 1.375 . S
C507 H525 0.931 . S
C508 N505 1.311 . S
C508 N509 1.347 . S
C508 H519 0.929 . S
N509 C507 1.375 . S
N509 C508 1.347 . S
C510 C513 1.365 . S
C510 N515 1.328 . S
C510 H516 0.929 . S
C511 C512 1.362 . S
C511 C514 1.378 . S
C511 H526 0.929 . S
C512 C511 1.362 . S
C512 C513 1.366 . S
C513 C510 1.365 . S
C513 C512 1.366 . S
C513 H527 0.930 . S
C514 C511 1.378 . S
C514 N515 1.315 . S
C514 H517 0.930 . S
N515 Co495 2.194 . S
N515 C510 1.328 . S
N515 C514 1.315 . S
H516 C510 0.929 . S
H517 C514 0.930 . S
H518 C506 0.929 . S
H519 C508 0.929 . S
O520 Co495 2.351 . S
O520 C523 1.244 . S
O521 Co495 2.155 . S
O521 C523 1.240 . S
O522 Co495 2.096 . S
O522 C503 1.247 . S
C523 O520 1.244 . S
C523 O521 1.240 . S
H524 C498 0.931 . S
H525 C507 0.931 . S
H526 C511 0.929 . S
H527 C513 0.930 . S
Co528 N532 2.148 . S
Co528 N538 2.128 1_455 S
Co528 N548 2.194 . S
Co528 O553 2.351 . S
Co528 O554 2.155 . S
Co528 O555 2.096 1_455 S
C529 N532 1.301 . S
C529 N533 1.328 . S
C529 H534 0.930 . S
C530 C531 1.333 . S
C530 N532 1.317 . S
C530 H535 0.930 . S
C531 C530 1.333 . S
C531 N533 1.350 . S
C531 H557 0.931 . S
N532 Co528 2.148 . S
N532 C529 1.301 . S
N532 C530 1.317 . S
N533 C529 1.328 . S
N533 C531 1.350 . S
H534 C529 0.930 . S
H535 C530 0.930 . S
C536 O537 1.224 . S
C536 O555 1.247 . S
O537 C536 1.224 . S
N538 Co528 2.128 1_655 S
N538 C539 1.355 . S
N538 C541 1.311 . S
C539 N538 1.355 . S
C539 C540 1.363 . S
C539 H551 0.929 . S
C540 C539 1.363 . S
C540 N542 1.375 . S
C540 H558 0.931 . S
C541 N538 1.311 . S
C541 N542 1.347 . S
C541 H552 0.929 . S
N542 C540 1.375 . S
N542 C541 1.347 . S
C543 C546 1.365 . S
C543 N548 1.328 . S
C543 H549 0.929 . S
C544 C545 1.362 1_655 S
C544 C547 1.378 . S
C544 H559 0.929 . S
C545 C544 1.362 1_455 S
C545 C546 1.366 . S
C546 C543 1.365 . S
C546 C545 1.366 . S
C546 H560 0.930 . S
C547 C544 1.378 . S
C547 N548 1.315 1_655 S
C547 H550 0.930 . S
N548 Co528 2.194 . S
N548 C543 1.328 . S
N548 C547 1.315 1_455 S
H549 C543 0.929 . S
H550 C547 0.930 . S
H551 C539 0.929 . S
H552 C541 0.929 . S
O553 Co528 2.351 . S
O553 C556 1.244 . S
O554 Co528 2.155 . S
O554 C556 1.240 . S
O555 Co528 2.096 1_655 S
O555 C536 1.247 . S
C556 O553 1.244 . S
C556 O554 1.240 . S
H557 C531 0.931 . S
H558 C540 0.931 . S
H559 C544 0.929 . S
H560 C546 0.930 . S
Co561 N565 2.148 . S
Co561 N571 2.128 . S
Co561 N581 2.194 . S
Co561 O586 2.351 . S
Co561 O587 2.155 . S
Co561 O588 2.096 . S
C562 N565 1.301 . S
C562 N566 1.328 . S
C562 H567 0.930 . S
C563 C564 1.333 . S
C563 N565 1.317 . S
C563 H568 0.930 . S
C564 C563 1.333 . S
C564 N566 1.350 . S
C564 H590 0.931 . S
N565 Co561 2.148 . S
N565 C562 1.301 . S
N565 C563 1.317 . S
N566 C562 1.328 . S
N566 C564 1.350 . S
H567 C562 0.930 . S
H568 C563 0.930 . S
C569 O570 1.224 . S
C569 O588 1.247 . S
O570 C569 1.224 . S
N571 Co561 2.128 . S
N571 C572 1.355 . S
N571 C574 1.311 . S
C572 N571 1.355 . S
C572 C573 1.363 . S
C572 H584 0.929 . S
C573 C572 1.363 . S
C573 N575 1.375 . S
C573 H591 0.931 . S
C574 N571 1.311 . S
C574 N575 1.347 . S
C574 H585 0.929 . S
N575 C573 1.375 . S
N575 C574 1.347 . S
C576 C579 1.365 . S
C576 N581 1.328 . S
C576 H582 0.929 . S
C577 C578 1.362 . S
C577 C580 1.378 . S
C577 H592 0.929 . S
C578 C577 1.362 . S
C578 C579 1.366 . S
C579 C576 1.365 . S
C579 C578 1.366 . S
C579 H593 0.930 . S
C580 C577 1.378 . S
C580 N581 1.315 . S
C580 H583 0.930 . S
N581 Co561 2.194 . S
N581 C576 1.328 . S
N581 C580 1.315 . S
H582 C576 0.929 . S
H583 C580 0.930 . S
H584 C572 0.929 . S
H585 C574 0.929 . S
O586 Co561 2.351 . S
O586 C589 1.244 . S
O587 Co561 2.155 . S
O587 C589 1.240 . S
O588 Co561 2.096 . S
O588 C569 1.247 . S
C589 O586 1.244 . S
C589 O587 1.240 . S
H590 C564 0.931 . S
H591 C573 0.931 . S
H592 C577 0.929 . S
H593 C579 0.930 . S
Co594 N598 2.126 1_455 S
Co594 N604 2.152 . S
Co594 N614 2.192 1_455 S
Co594 O619 2.324 1_455 S
Co594 O620 2.139 1_455 S
Co594 O621 2.117 . S
C595 N598 1.301 . S
C595 N599 1.328 . S
C595 H600 0.930 . S
C596 C597 1.333 . S
C596 N598 1.317 . S
C596 H601 0.930 . S
C597 C596 1.333 . S
C597 N599 1.350 . S
C597 H623 0.931 . S
N598 Co594 2.126 1_655 S
N598 C595 1.301 . S
N598 C596 1.317 . S
N599 C595 1.328 . S
N599 C597 1.350 . S
H600 C595 0.930 . S
H601 C596 0.930 . S
C602 O603 1.224 . S
C602 O621 1.247 . S
O603 C602 1.224 . S
N604 Co594 2.152 . S
N604 C605 1.355 . S
N604 C607 1.311 . S
C605 N604 1.355 . S
C605 C606 1.363 . S
C605 H617 0.929 . S
C606 C605 1.363 . S
C606 N608 1.375 . S
C606 H624 0.931 . S
C607 N604 1.311 . S
C607 N608 1.347 . S
C607 H618 0.929 . S
N608 C606 1.375 . S
N608 C607 1.347 . S
C609 C612 1.365 . S
C609 N614 1.328 . S
C609 H615 0.929 . S
C610 C611 1.386 . S
C610 C613 1.378 . S
C610 H625 0.929 . S
C611 C610 1.386 . S
C611 C612 1.341 1_455 S
C612 C609 1.365 . S
C612 C611 1.341 1_655 S
C612 H626 0.930 . S
C613 C610 1.378 . S
C613 N614 1.315 1_455 S
C613 H616 0.930 . S
N614 Co594 2.192 1_655 S
N614 C609 1.328 . S
N614 C613 1.315 1_655 S
H615 C609 0.929 . S
H616 C613 0.930 . S
H617 C605 0.929 . S
H618 C607 0.929 . S
O619 Co594 2.324 1_655 S
O619 C622 1.244 . S
O620 Co594 2.139 1_655 S
O620 C622 1.240 . S
O621 Co594 2.117 . S
O621 C602 1.247 . S
C622 O619 1.244 . S
C622 O620 1.240 . S
H623 C597 0.931 . S
H624 C606 0.931 . S
H625 C610 0.929 . S
H626 C612 0.930 . S
Co627 N631 2.148 . S
Co627 N637 2.128 . S
Co627 N647 2.194 . S
Co627 O652 2.351 . S
Co627 O653 2.155 . S
Co627 O654 2.096 . S
C628 N631 1.301 . S
C628 N632 1.328 . S
C628 H633 0.930 . S
C629 C630 1.333 . S
C629 N631 1.317 . S
C629 H634 0.930 . S
C630 C629 1.333 . S
C630 N632 1.350 . S
C630 H656 0.931 . S
N631 Co627 2.148 . S
N631 C628 1.301 . S
N631 C629 1.317 . S
N632 C628 1.328 . S
N632 C630 1.350 . S
H633 C628 0.930 . S
H634 C629 0.930 . S
C635 O636 1.224 . S
C635 O654 1.247 . S
O636 C635 1.224 . S
N637 Co627 2.128 . S
N637 C638 1.355 . S
N637 C640 1.311 . S
C638 N637 1.355 . S
C638 C639 1.363 . S
C638 H650 0.929 . S
C639 C638 1.363 . S
C639 N641 1.375 . S
C639 H657 0.931 . S
C640 N637 1.311 . S
C640 N641 1.347 . S
C640 H651 0.929 . S
N641 C639 1.375 . S
N641 C640 1.347 . S
C642 C645 1.365 . S
C642 N647 1.328 . S
C642 H648 0.929 . S
C643 C644 1.362 . S
C643 C646 1.378 . S
C643 H658 0.929 . S
C644 C643 1.362 . S
C644 C645 1.366 . S
C645 C642 1.365 . S
C645 C644 1.366 . S
C645 H659 0.930 . S
C646 C643 1.378 . S
C646 N647 1.315 . S
C646 H649 0.930 . S
N647 Co627 2.194 . S
N647 C642 1.328 . S
N647 C646 1.315 . S
H648 C642 0.929 . S
H649 C646 0.930 . S
H650 C638 0.929 . S
H651 C640 0.929 . S
O652 Co627 2.351 . S
O652 C655 1.244 . S
O653 Co627 2.155 . S
O653 C655 1.240 . S
O654 Co627 2.096 . S
O654 C635 1.247 . S
C655 O652 1.244 . S
C655 O653 1.240 . S
H656 C630 0.931 . S
H657 C639 0.931 . S
H658 C643 0.929 . S
H659 C645 0.930 . S
Co660 N664 2.148 . S
Co660 N670 2.128 . S
Co660 N680 2.194 . S
Co660 O685 2.351 . S
Co660 O686 2.155 . S
Co660 O687 2.096 . S
C661 N664 1.301 . S
C661 N665 1.328 . S
C661 H666 0.930 . S
C662 C663 1.333 . S
C662 N664 1.317 . S
C662 H667 0.930 . S
C663 C662 1.333 . S
C663 N665 1.350 . S
C663 H689 0.931 . S
N664 Co660 2.148 . S
N664 C661 1.301 . S
N664 C662 1.317 . S
N665 C661 1.328 . S
N665 C663 1.350 . S
H666 C661 0.930 . S
H667 C662 0.930 . S
C668 O669 1.224 . S
C668 O687 1.247 . S
O669 C668 1.224 . S
N670 Co660 2.128 . S
N670 C671 1.355 . S
N670 C673 1.311 . S
C671 N670 1.355 . S
C671 C672 1.363 . S
C671 H683 0.929 . S
C672 C671 1.363 . S
C672 N674 1.375 . S
C672 H690 0.931 . S
C673 N670 1.311 . S
C673 N674 1.347 . S
C673 H684 0.929 . S
N674 C672 1.375 . S
N674 C673 1.347 . S
C675 C678 1.365 . S
C675 N680 1.328 . S
C675 H681 0.929 . S
C676 C677 1.362 . S
C676 C679 1.378 . S
C676 H691 0.929 . S
C677 C676 1.362 . S
C677 C678 1.366 . S
C678 C675 1.365 . S
C678 C677 1.366 . S
C678 H692 0.930 . S
C679 C676 1.378 . S
C679 N680 1.315 . S
C679 H682 0.930 . S
N680 Co660 2.194 . S
N680 C675 1.328 . S
N680 C679 1.315 . S
H681 C675 0.929 . S
H682 C679 0.930 . S
H683 C671 0.929 . S
H684 C673 0.929 . S
O685 Co660 2.351 . S
O685 C688 1.244 . S
O686 Co660 2.155 . S
O686 C688 1.240 . S
O687 Co660 2.096 . S
O687 C668 1.247 . S
C688 O685 1.244 . S
C688 O686 1.240 . S
H689 C663 0.931 . S
H690 C672 0.931 . S
H691 C676 0.929 . S
H692 C678 0.930 . S
Co693 N697 2.148 . S
Co693 N703 2.128 . S
Co693 N713 2.194 . S
Co693 O718 2.351 . S
Co693 O719 2.155 . S
Co693 O720 2.096 . S
C694 N697 1.301 . S
C694 N698 1.328 . S
C694 H699 0.930 . S
C695 C696 1.333 . S
C695 N697 1.317 . S
C695 H700 0.930 . S
C696 C695 1.333 . S
C696 N698 1.350 . S
C696 H722 0.931 . S
N697 Co693 2.148 . S
N697 C694 1.301 . S
N697 C695 1.317 . S
N698 C694 1.328 . S
N698 C696 1.350 . S
H699 C694 0.930 . S
H700 C695 0.930 . S
C701 O702 1.224 . S
C701 O720 1.247 . S
O702 C701 1.224 . S
N703 Co693 2.128 . S
N703 C704 1.355 . S
N703 C706 1.311 . S
C704 N703 1.355 . S
C704 C705 1.363 . S
C704 H716 0.929 . S
C705 C704 1.363 . S
C705 N707 1.375 . S
C705 H723 0.931 . S
C706 N703 1.311 . S
C706 N707 1.347 . S
C706 H717 0.929 . S
N707 C705 1.375 . S
N707 C706 1.347 . S
C708 C711 1.365 . S
C708 N713 1.328 . S
C708 H714 0.929 . S
C709 C710 1.362 . S
C709 C712 1.378 . S
C709 H724 0.929 . S
C710 C709 1.362 . S
C710 C711 1.366 . S
C711 C708 1.365 . S
C711 C710 1.366 . S
C711 H725 0.930 . S
C712 C709 1.378 . S
C712 N713 1.315 . S
C712 H715 0.930 . S
N713 Co693 2.194 . S
N713 C708 1.328 . S
N713 C712 1.315 . S
H714 C708 0.929 . S
H715 C712 0.930 . S
H716 C704 0.929 . S
H717 C706 0.929 . S
O718 Co693 2.351 . S
O718 C721 1.244 . S
O719 Co693 2.155 . S
O719 C721 1.240 . S
O720 Co693 2.096 . S
O720 C701 1.247 . S
C721 O718 1.244 . S
C721 O719 1.240 . S
H722 C696 0.931 . S
H723 C705 0.931 . S
H724 C709 0.929 . S
H725 C711 0.930 . S
Co726 N730 2.148 . S
Co726 N736 2.128 . S
Co726 N746 2.194 . S
Co726 O751 2.351 . S
Co726 O752 2.155 . S
Co726 O753 2.096 . S
C727 N730 1.301 . S
C727 N731 1.328 . S
C727 H732 0.930 . S
C728 C729 1.333 . S
C728 N730 1.317 . S
C728 H733 0.930 . S
C729 C728 1.333 . S
C729 N731 1.350 . S
C729 H755 0.931 . S
N730 Co726 2.148 . S
N730 C727 1.301 . S
N730 C728 1.317 . S
N731 C727 1.328 . S
N731 C729 1.350 . S
H732 C727 0.930 . S
H733 C728 0.930 . S
C734 O735 1.224 . S
C734 O753 1.247 . S
O735 C734 1.224 . S
N736 Co726 2.128 . S
N736 C737 1.355 . S
N736 C739 1.311 . S
C737 N736 1.355 . S
C737 C738 1.363 . S
C737 H749 0.929 . S
C738 C737 1.363 . S
C738 N740 1.375 . S
C738 H756 0.931 . S
C739 N736 1.311 . S
C739 N740 1.347 . S
C739 H750 0.929 . S
N740 C738 1.375 . S
N740 C739 1.347 . S
C741 C744 1.365 . S
C741 N746 1.328 . S
C741 H747 0.929 . S
C742 C743 1.362 . S
C742 C745 1.378 . S
C742 H757 0.929 . S
C743 C742 1.362 . S
C743 C744 1.366 . S
C744 C741 1.365 . S
C744 C743 1.366 . S
C744 H758 0.930 . S
C745 C742 1.378 . S
C745 N746 1.315 . S
C745 H748 0.930 . S
N746 Co726 2.194 . S
N746 C741 1.328 . S
N746 C745 1.315 . S
H747 C741 0.929 . S
H748 C745 0.930 . S
H749 C737 0.929 . S
H750 C739 0.929 . S
O751 Co726 2.351 . S
O751 C754 1.244 . S
O752 Co726 2.155 . S
O752 C754 1.240 . S
O753 Co726 2.096 . S
O753 C734 1.247 . S
C754 O751 1.244 . S
C754 O752 1.240 . S
H755 C729 0.931 . S
H756 C738 0.931 . S
H757 C742 0.929 . S
H758 C744 0.930 . S
Co759 N763 2.148 . S
Co759 N769 2.128 . S
Co759 N779 2.194 . S
Co759 O784 2.351 . S
Co759 O785 2.155 . S
Co759 O786 2.096 . S
C760 N763 1.301 . S
C760 N764 1.328 . S
C760 H765 0.930 . S
C761 C762 1.333 . S
C761 N763 1.317 . S
C761 H766 0.930 . S
C762 C761 1.333 . S
C762 N764 1.350 . S
C762 H788 0.931 . S
N763 Co759 2.148 . S
N763 C760 1.301 . S
N763 C761 1.317 . S
N764 C760 1.328 . S
N764 C762 1.350 . S
H765 C760 0.930 . S
H766 C761 0.930 . S
C767 O768 1.224 . S
C767 O786 1.247 . S
O768 C767 1.224 . S
N769 Co759 2.128 . S
N769 C770 1.355 . S
N769 C772 1.311 . S
C770 N769 1.355 . S
C770 C771 1.363 . S
C770 H782 0.929 . S
C771 C770 1.363 . S
C771 N773 1.375 . S
C771 H789 0.931 . S
C772 N769 1.311 . S
C772 N773 1.347 . S
C772 H783 0.929 . S
N773 C771 1.375 . S
N773 C772 1.347 . S
C774 C777 1.365 . S
C774 N779 1.328 . S
C774 H780 0.929 . S
C775 C776 1.362 . S
C775 C778 1.378 . S
C775 H790 0.929 . S
C776 C775 1.362 . S
C776 C777 1.366 . S
C777 C774 1.365 . S
C777 C776 1.366 . S
C777 H791 0.930 . S
C778 C775 1.378 . S
C778 N779 1.315 . S
C778 H781 0.930 . S
N779 Co759 2.194 . S
N779 C774 1.328 . S
N779 C778 1.315 . S
H780 C774 0.929 . S
H781 C778 0.930 . S
H782 C770 0.929 . S
H783 C772 0.929 . S
O784 Co759 2.351 . S
O784 C787 1.244 . S
O785 Co759 2.155 . S
O785 C787 1.240 . S
O786 Co759 2.096 . S
O786 C767 1.247 . S
C787 O784 1.244 . S
C787 O785 1.240 . S
H788 C762 0.931 . S
H789 C771 0.931 . S
H790 C775 0.929 . S
H791 C777 0.930 . S
Co792 N796 2.148 . S
Co792 N802 2.128 . S
Co792 N812 2.194 . S
Co792 O817 2.351 . S
Co792 O818 2.155 . S
Co792 O819 2.096 . S
C793 N796 1.301 . S
C793 N797 1.328 . S
C793 H798 0.930 . S
C794 C795 1.333 . S
C794 N796 1.317 . S
C794 H799 0.930 . S
C795 C794 1.333 . S
C795 N797 1.350 . S
C795 H821 0.931 . S
N796 Co792 2.148 . S
N796 C793 1.301 . S
N796 C794 1.317 . S
N797 C793 1.328 . S
N797 C795 1.350 . S
H798 C793 0.930 . S
H799 C794 0.930 . S
C800 O801 1.224 . S
C800 O819 1.247 . S
O801 C800 1.224 . S
N802 Co792 2.128 . S
N802 C803 1.355 . S
N802 C805 1.311 . S
C803 N802 1.355 . S
C803 C804 1.363 . S
C803 H815 0.929 . S
C804 C803 1.363 . S
C804 N806 1.375 . S
C804 H822 0.931 . S
C805 N802 1.311 . S
C805 N806 1.347 . S
C805 H816 0.929 . S
N806 C804 1.375 . S
N806 C805 1.347 . S
C807 C810 1.365 . S
C807 N812 1.328 . S
C807 H813 0.929 . S
C808 C809 1.362 . S
C808 C811 1.378 . S
C808 H823 0.929 . S
C809 C808 1.362 . S
C809 C810 1.366 . S
C810 C807 1.365 . S
C810 C809 1.366 . S
C810 H824 0.930 . S
C811 C808 1.378 . S
C811 N812 1.315 . S
C811 H814 0.930 . S
N812 Co792 2.194 . S
N812 C807 1.328 . S
N812 C811 1.315 . S
H813 C807 0.929 . S
H814 C811 0.930 . S
H815 C803 0.929 . S
H816 C805 0.929 . S
O817 Co792 2.351 . S
O817 C820 1.244 . S
O818 Co792 2.155 . S
O818 C820 1.240 . S
O819 Co792 2.096 . S
O819 C800 1.247 . S
C820 O817 1.244 . S
C820 O818 1.240 . S
H821 C795 0.931 . S
H822 C804 0.931 . S
H823 C808 0.929 . S
H824 C810 0.930 . S
Co825 N829 2.148 . S
Co825 N835 2.128 1_545 S
Co825 N845 2.194 . S
Co825 O850 2.351 . S
Co825 O851 2.155 . S
Co825 O852 2.096 1_545 S
C826 N829 1.301 . S
C826 N830 1.328 . S
C826 H831 0.930 . S
C827 C828 1.333 . S
C827 N829 1.317 . S
C827 H832 0.930 . S
C828 C827 1.333 . S
C828 N830 1.350 . S
C828 H854 0.931 . S
N829 Co825 2.148 . S
N829 C826 1.301 . S
N829 C827 1.317 . S
N830 C826 1.328 . S
N830 C828 1.350 . S
H831 C826 0.930 . S
H832 C827 0.930 . S
C833 O834 1.224 . S
C833 O852 1.247 . S
O834 C833 1.224 . S
N835 Co825 2.128 1_565 S
N835 C836 1.355 . S
N835 C838 1.311 . S
C836 N835 1.355 . S
C836 C837 1.363 . S
C836 H848 0.929 . S
C837 C836 1.363 . S
C837 N839 1.375 . S
C837 H855 0.931 . S
C838 N835 1.311 . S
C838 N839 1.347 . S
C838 H849 0.929 . S
N839 C837 1.375 . S
N839 C838 1.347 . S
C840 C843 1.365 . S
C840 N845 1.328 . S
C840 H846 0.929 . S
C841 C842 1.362 1_565 S
C841 C844 1.378 . S
C841 H856 0.929 . S
C842 C841 1.362 1_545 S
C842 C843 1.366 . S
C843 C840 1.365 . S
C843 C842 1.366 . S
C843 H857 0.930 . S
C844 C841 1.378 . S
C844 N845 1.315 1_565 S
C844 H847 0.930 . S
N845 Co825 2.194 . S
N845 C840 1.328 . S
N845 C844 1.315 1_545 S
H846 C840 0.929 . S
H847 C844 0.930 . S
H848 C836 0.929 . S
H849 C838 0.929 . S
O850 Co825 2.351 . S
O850 C853 1.244 . S
O851 Co825 2.155 . S
O851 C853 1.240 . S
O852 Co825 2.096 1_565 S
O852 C833 1.247 . S
C853 O850 1.244 . S
C853 O851 1.240 . S
H854 C828 0.931 . S
H855 C837 0.931 . S
H856 C841 0.929 . S
H857 C843 0.930 . S
Co858 N862 2.148 . S
Co858 N868 2.128 . S
Co858 N878 2.194 . S
Co858 O883 2.351 . S
Co858 O884 2.155 . S
Co858 O885 2.096 . S
C859 N862 1.301 . S
C859 N863 1.328 . S
C859 H864 0.930 . S
C860 C861 1.333 . S
C860 N862 1.317 . S
C860 H865 0.930 . S
C861 C860 1.333 . S
C861 N863 1.350 . S
C861 H887 0.931 . S
N862 Co858 2.148 . S
N862 C859 1.301 . S
N862 C860 1.317 . S
N863 C859 1.328 . S
N863 C861 1.350 . S
H864 C859 0.930 . S
H865 C860 0.930 . S
C866 O867 1.224 . S
C866 O885 1.247 . S
O867 C866 1.224 . S
N868 Co858 2.128 . S
N868 C869 1.355 . S
N868 C871 1.311 . S
C869 N868 1.355 . S
C869 C870 1.363 . S
C869 H881 0.929 . S
C870 C869 1.363 . S
C870 N872 1.375 . S
C870 H888 0.931 . S
C871 N868 1.311 . S
C871 N872 1.347 . S
C871 H882 0.929 . S
N872 C870 1.375 . S
N872 C871 1.347 . S
C873 C876 1.365 . S
C873 N878 1.328 . S
C873 H879 0.929 . S
C874 C875 1.362 . S
C874 C877 1.378 . S
C874 H889 0.929 . S
C875 C874 1.362 . S
C875 C876 1.366 . S
C876 C873 1.365 . S
C876 C875 1.366 . S
C876 H890 0.930 . S
C877 C874 1.378 . S
C877 N878 1.315 . S
C877 H880 0.930 . S
N878 Co858 2.194 . S
N878 C873 1.328 . S
N878 C877 1.315 . S
H879 C873 0.929 . S
H880 C877 0.930 . S
H881 C869 0.929 . S
H882 C871 0.929 . S
O883 Co858 2.351 . S
O883 C886 1.244 . S
O884 Co858 2.155 . S
O884 C886 1.240 . S
O885 Co858 2.096 . S
O885 C866 1.247 . S
C886 O883 1.244 . S
C886 O884 1.240 . S
H887 C861 0.931 . S
H888 C870 0.931 . S
H889 C874 0.929 . S
H890 C876 0.930 . S
Co891 N895 2.165 . S
Co891 N901 2.110 1_565 S
Co891 N911 2.195 . S
Co891 O916 2.372 . S
Co891 O917 2.167 . S
Co891 O918 2.079 1_565 S
C892 N895 1.301 . S
C892 N896 1.328 . S
C892 H897 0.930 . S
C893 C894 1.333 . S
C893 N895 1.317 . S
C893 H898 0.930 . S
C894 C893 1.333 . S
C894 N896 1.350 . S
C894 H920 0.931 . S
N895 Co891 2.165 . S
N895 C892 1.301 . S
N895 C893 1.317 . S
N896 C892 1.328 . S
N896 C894 1.350 . S
H897 C892 0.930 . S
H898 C893 0.930 . S
C899 O900 1.224 . S
C899 O918 1.247 . S
O900 C899 1.224 . S
N901 Co891 2.110 1_545 S
N901 C902 1.355 . S
N901 C904 1.311 . S
C902 N901 1.355 . S
C902 C903 1.363 . S
C902 H914 0.929 . S
C903 C902 1.363 . S
C903 N905 1.375 . S
C903 H921 0.931 . S
C904 N901 1.311 . S
C904 N905 1.347 . S
C904 H915 0.929 . S
N905 C903 1.375 . S
N905 C904 1.347 . S
C906 C909 1.365 . S
C906 N911 1.328 . S
C906 H912 0.929 . S
C907 C908 1.342 1_545 S
C907 C910 1.378 . S
C907 H922 0.929 . S
C908 C907 1.342 1_565 S
C908 C909 1.388 . S
C909 C906 1.365 . S
C909 C908 1.388 . S
C909 H923 0.930 . S
C910 C907 1.378 . S
C910 N911 1.315 1_545 S
C910 H913 0.930 . S
N911 Co891 2.195 . S
N911 C906 1.328 . S
N911 C910 1.315 1_565 S
H912 C906 0.929 . S
H913 C910 0.930 . S
H914 C902 0.929 . S
H915 C904 0.929 . S
O916 Co891 2.372 . S
O916 C919 1.244 . S
O917 Co891 2.167 . S
O917 C919 1.240 . S
O918 Co891 2.079 1_545 S
O918 C899 1.247 . S
C919 O916 1.244 . S
C919 O917 1.240 . S
H920 C894 0.931 . S
H921 C903 0.931 . S
H922 C907 0.929 . S
H923 C909 0.930 . S
Co924 N928 2.148 . S
Co924 N934 2.128 . S
Co924 N944 2.194 . S
Co924 O949 2.351 . S
Co924 O950 2.155 . S
Co924 O951 2.096 . S
C925 N928 1.301 . S
C925 N929 1.328 . S
C925 H930 0.930 . S
C926 C927 1.333 . S
C926 N928 1.317 . S
C926 H931 0.930 . S
C927 C926 1.333 . S
C927 N929 1.350 . S
C927 H953 0.931 . S
N928 Co924 2.148 . S
N928 C925 1.301 . S
N928 C926 1.317 . S
N929 C925 1.328 . S
N929 C927 1.350 . S
H930 C925 0.930 . S
H931 C926 0.930 . S
C932 O933 1.224 . S
C932 O951 1.247 . S
O933 C932 1.224 . S
N934 Co924 2.128 . S
N934 C935 1.355 . S
N934 C937 1.311 . S
C935 N934 1.355 . S
C935 C936 1.363 . S
C935 H947 0.929 . S
C936 C935 1.363 . S
C936 N938 1.375 . S
C936 H954 0.931 . S
C937 N934 1.311 . S
C937 N938 1.347 . S
C937 H948 0.929 . S
N938 C936 1.375 . S
N938 C937 1.347 . S
C939 C942 1.365 . S
C939 N944 1.328 . S
C939 H945 0.929 . S
C940 C941 1.362 . S
C940 C943 1.378 . S
C940 H955 0.929 . S
C941 C940 1.362 . S
C941 C942 1.366 . S
C942 C939 1.365 . S
C942 C941 1.366 . S
C942 H956 0.930 . S
C943 C940 1.378 . S
C943 N944 1.315 . S
C943 H946 0.930 . S
N944 Co924 2.194 . S
N944 C939 1.328 . S
N944 C943 1.315 . S
H945 C939 0.929 . S
H946 C943 0.930 . S
H947 C935 0.929 . S
H948 C937 0.929 . S
O949 Co924 2.351 . S
O949 C952 1.244 . S
O950 Co924 2.155 . S
O950 C952 1.240 . S
O951 Co924 2.096 . S
O951 C932 1.247 . S
C952 O949 1.244 . S
C952 O950 1.240 . S
H953 C927 0.931 . S
H954 C936 0.931 . S
H955 C940 0.929 . S
H956 C942 0.930 . S
Co957 N961 2.148 . S
Co957 N967 2.128 1_545 S
Co957 N977 2.194 . S
Co957 O982 2.351 . S
Co957 O983 2.155 . S
Co957 O984 2.096 1_545 S
C958 N961 1.301 . S
C958 N962 1.328 . S
C958 H963 0.930 . S
C959 C960 1.333 . S
C959 N961 1.317 . S
C959 H964 0.930 . S
C960 C959 1.333 . S
C960 N962 1.350 . S
C960 H986 0.931 . S
N961 Co957 2.148 . S
N961 C958 1.301 . S
N961 C959 1.317 . S
N962 C958 1.328 . S
N962 C960 1.350 . S
H963 C958 0.930 . S
H964 C959 0.930 . S
C965 O966 1.224 . S
C965 O984 1.247 . S
O966 C965 1.224 . S
N967 Co957 2.128 1_565 S
N967 C968 1.355 . S
N967 C970 1.311 . S
C968 N967 1.355 . S
C968 C969 1.363 . S
C968 H980 0.929 . S
C969 C968 1.363 . S
C969 N971 1.375 . S
C969 H987 0.931 . S
C970 N967 1.311 . S
C970 N971 1.347 . S
C970 H981 0.929 . S
N971 C969 1.375 . S
N971 C970 1.347 . S
C972 C975 1.365 . S
C972 N977 1.328 . S
C972 H978 0.929 . S
C973 C974 1.362 1_565 S
C973 C976 1.378 . S
C973 H988 0.929 . S
C974 C973 1.362 1_545 S
C974 C975 1.366 . S
C975 C972 1.365 . S
C975 C974 1.366 . S
C975 H989 0.930 . S
C976 C973 1.378 . S
C976 N977 1.315 1_565 S
C976 H979 0.930 . S
N977 Co957 2.194 . S
N977 C972 1.328 . S
N977 C976 1.315 1_545 S
H978 C972 0.929 . S
H979 C976 0.930 . S
H980 C968 0.929 . S
H981 C970 0.929 . S
O982 Co957 2.351 . S
O982 C985 1.244 . S
O983 Co957 2.155 . S
O983 C985 1.240 . S
O984 Co957 2.096 1_565 S
O984 C965 1.247 . S
C985 O982 1.244 . S
C985 O983 1.240 . S
H986 C960 0.931 . S
H987 C969 0.931 . S
H988 C973 0.929 . S
H989 C975 0.930 . S
Co990 N994 2.148 . S
Co990 N1000 2.128 . S
Co990 N1010 2.194 . S
Co990 O1015 2.351 . S
Co990 O1016 2.155 . S
Co990 O1017 2.096 . S
C991 N994 1.301 . S
C991 N995 1.328 . S
C991 H996 0.930 . S
C992 C993 1.333 . S
C992 N994 1.317 . S
C992 H997 0.930 . S
C993 C992 1.333 . S
C993 N995 1.350 . S
C993 H1019 0.931 . S
N994 Co990 2.148 . S
N994 C991 1.301 . S
N994 C992 1.317 . S
N995 C991 1.328 . S
N995 C993 1.350 . S
H996 C991 0.930 . S
H997 C992 0.930 . S
C998 O999 1.224 . S
C998 O1017 1.247 . S
O999 C998 1.224 . S
N1000 Co990 2.128 . S
N1000 C1001 1.355 . S
N1000 C1003 1.311 . S
C1001 N1000 1.355 . S
C1001 C1002 1.363 . S
C1001 H1013 0.929 . S
C1002 C1001 1.363 . S
C1002 N1004 1.375 . S
C1002 H1020 0.931 . S
C1003 N1000 1.311 . S
C1003 N1004 1.347 . S
C1003 H1014 0.929 . S
N1004 C1002 1.375 . S
N1004 C1003 1.347 . S
C1005 C1008 1.365 . S
C1005 N1010 1.328 . S
C1005 H1011 0.929 . S
C1006 C1007 1.362 . S
C1006 C1009 1.378 . S
C1006 H1021 0.929 . S
C1007 C1006 1.362 . S
C1007 C1008 1.366 . S
C1008 C1005 1.365 . S
C1008 C1007 1.366 . S
C1008 H1022 0.930 . S
C1009 C1006 1.378 . S
C1009 N1010 1.315 . S
C1009 H1012 0.930 . S
N1010 Co990 2.194 . S
N1010 C1005 1.328 . S
N1010 C1009 1.315 . S
H1011 C1005 0.929 . S
H1012 C1009 0.930 . S
H1013 C1001 0.929 . S
H1014 C1003 0.929 . S
O1015 Co990 2.351 . S
O1015 C1018 1.244 . S
O1016 Co990 2.155 . S
O1016 C1018 1.240 . S
O1017 Co990 2.096 . S
O1017 C998 1.247 . S
C1018 O1015 1.244 . S
C1018 O1016 1.240 . S
H1019 C993 0.931 . S
H1020 C1002 0.931 . S
H1021 C1006 0.929 . S
H1022 C1008 0.930 . S
Co1023 N1027 2.148 . S
Co1023 N1033 2.128 1_545 S
Co1023 N1043 2.194 . S
Co1023 O1048 2.351 . S
Co1023 O1049 2.155 . S
Co1023 O1050 2.096 1_545 S
C1024 N1027 1.301 . S
C1024 N1028 1.328 . S
C1024 H1029 0.930 . S
C1025 C1026 1.333 . S
C1025 N1027 1.317 . S
C1025 H1030 0.930 . S
C1026 C1025 1.333 . S
C1026 N1028 1.350 . S
C1026 H1052 0.931 . S
N1027 Co1023 2.148 . S
N1027 C1024 1.301 . S
N1027 C1025 1.317 . S
N1028 C1024 1.328 . S
N1028 C1026 1.350 . S
H1029 C1024 0.930 . S
H1030 C1025 0.930 . S
C1031 O1032 1.224 . S
C1031 O1050 1.247 . S
O1032 C1031 1.224 . S
N1033 Co1023 2.128 1_565 S
N1033 C1034 1.355 . S
N1033 C1036 1.311 . S
C1034 N1033 1.355 . S
C1034 C1035 1.363 . S
C1034 H1046 0.929 . S
C1035 C1034 1.363 . S
C1035 N1037 1.375 . S
C1035 H1053 0.931 . S
C1036 N1033 1.311 . S
C1036 N1037 1.347 . S
C1036 H1047 0.929 . S
N1037 C1035 1.375 . S
N1037 C1036 1.347 . S
C1038 C1041 1.365 . S
C1038 N1043 1.328 . S
C1038 H1044 0.929 . S
C1039 C1040 1.362 1_565 S
C1039 C1042 1.378 . S
C1039 H1054 0.929 . S
C1040 C1039 1.362 1_545 S
C1040 C1041 1.366 . S
C1041 C1038 1.365 . S
C1041 C1040 1.366 . S
C1041 H1055 0.930 . S
C1042 C1039 1.378 . S
C1042 N1043 1.315 1_565 S
C1042 H1045 0.930 . S
N1043 Co1023 2.194 . S
N1043 C1038 1.328 . S
N1043 C1042 1.315 1_545 S
H1044 C1038 0.929 . S
H1045 C1042 0.930 . S
H1046 C1034 0.929 . S
H1047 C1036 0.929 . S
O1048 Co1023 2.351 . S
O1048 C1051 1.244 . S
O1049 Co1023 2.155 . S
O1049 C1051 1.240 . S
O1050 Co1023 2.096 1_565 S
O1050 C1031 1.247 . S
C1051 O1048 1.244 . S
C1051 O1049 1.240 . S
H1052 C1026 0.931 . S
H1053 C1035 0.931 . S
H1054 C1039 0.929 . S
H1055 C1041 0.930 . S
Co1056 N1060 2.148 . S
Co1056 N1066 2.128 . S
Co1056 N1076 2.194 . S
Co1056 O1081 2.351 . S
Co1056 O1082 2.155 . S
Co1056 O1083 2.096 . S
C1057 N1060 1.301 . S
C1057 N1061 1.328 . S
C1057 H1062 0.930 . S
C1058 C1059 1.333 . S
C1058 N1060 1.317 . S
C1058 H1063 0.930 . S
C1059 C1058 1.333 . S
C1059 N1061 1.350 . S
C1059 H1085 0.931 . S
N1060 Co1056 2.148 . S
N1060 C1057 1.301 . S
N1060 C1058 1.317 . S
N1061 C1057 1.328 . S
N1061 C1059 1.350 . S
H1062 C1057 0.930 . S
H1063 C1058 0.930 . S
C1064 O1065 1.224 . S
C1064 O1083 1.247 . S
O1065 C1064 1.224 . S
N1066 Co1056 2.128 . S
N1066 C1067 1.355 . S
N1066 C1069 1.311 . S
C1067 N1066 1.355 . S
C1067 C1068 1.363 . S
C1067 H1079 0.929 . S
C1068 C1067 1.363 . S
C1068 N1070 1.375 . S
C1068 H1086 0.931 . S
C1069 N1066 1.311 . S
C1069 N1070 1.347 . S
C1069 H1080 0.929 . S
N1070 C1068 1.375 . S
N1070 C1069 1.347 . S
C1071 C1074 1.365 . S
C1071 N1076 1.328 . S
C1071 H1077 0.929 . S
C1072 C1073 1.362 . S
C1072 C1075 1.378 . S
C1072 H1087 0.929 . S
C1073 C1072 1.362 . S
C1073 C1074 1.366 . S
C1074 C1071 1.365 . S
C1074 C1073 1.366 . S
C1074 H1088 0.930 . S
C1075 C1072 1.378 . S
C1075 N1076 1.315 . S
C1075 H1078 0.930 . S
N1076 Co1056 2.194 . S
N1076 C1071 1.328 . S
N1076 C1075 1.315 . S
H1077 C1071 0.929 . S
H1078 C1075 0.930 . S
H1079 C1067 0.929 . S
H1080 C1069 0.929 . S
O1081 Co1056 2.351 . S
O1081 C1084 1.244 . S
O1082 Co1056 2.155 . S
O1082 C1084 1.240 . S
O1083 Co1056 2.096 . S
O1083 C1064 1.247 . S
C1084 O1081 1.244 . S
C1084 O1082 1.240 . S
H1085 C1059 0.931 . S
H1086 C1068 0.931 . S
H1087 C1072 0.929 . S
H1088 C1074 0.930 . S
Co1089 N1093 2.148 . S
Co1089 N1099 2.128 . S
Co1089 N1109 2.194 . S
Co1089 O1114 2.351 . S
Co1089 O1115 2.155 . S
Co1089 O1116 2.096 . S
C1090 N1093 1.301 . S
C1090 N1094 1.328 . S
C1090 H1095 0.930 . S
C1091 C1092 1.333 . S
C1091 N1093 1.317 . S
C1091 H1096 0.930 . S
C1092 C1091 1.333 . S
C1092 N1094 1.350 . S
C1092 H1118 0.931 . S
N1093 Co1089 2.148 . S
N1093 C1090 1.301 . S
N1093 C1091 1.317 . S
N1094 C1090 1.328 . S
N1094 C1092 1.350 . S
H1095 C1090 0.930 . S
H1096 C1091 0.930 . S
C1097 O1098 1.224 . S
C1097 O1116 1.247 . S
O1098 C1097 1.224 . S
N1099 Co1089 2.128 . S
N1099 C1100 1.355 . S
N1099 C1102 1.311 . S
C1100 N1099 1.355 . S
C1100 C1101 1.363 . S
C1100 H1112 0.929 . S
C1101 C1100 1.363 . S
C1101 N1103 1.375 . S
C1101 H1119 0.931 . S
C1102 N1099 1.311 . S
C1102 N1103 1.347 . S
C1102 H1113 0.929 . S
N1103 C1101 1.375 . S
N1103 C1102 1.347 . S
C1104 C1107 1.365 . S
C1104 N1109 1.328 . S
C1104 H1110 0.929 . S
C1105 C1106 1.362 . S
C1105 C1108 1.378 . S
C1105 H1120 0.929 . S
C1106 C1105 1.362 . S
C1106 C1107 1.366 . S
C1107 C1104 1.365 . S
C1107 C1106 1.366 . S
C1107 H1121 0.930 . S
C1108 C1105 1.378 . S
C1108 N1109 1.315 . S
C1108 H1111 0.930 . S
N1109 Co1089 2.194 . S
N1109 C1104 1.328 . S
N1109 C1108 1.315 . S
H1110 C1104 0.929 . S
H1111 C1108 0.930 . S
H1112 C1100 0.929 . S
H1113 C1102 0.929 . S
O1114 Co1089 2.351 . S
O1114 C1117 1.244 . S
O1115 Co1089 2.155 . S
O1115 C1117 1.240 . S
O1116 Co1089 2.096 . S
O1116 C1097 1.247 . S
C1117 O1114 1.244 . S
C1117 O1115 1.240 . S
H1118 C1092 0.931 . S
H1119 C1101 0.931 . S
H1120 C1105 0.929 . S
H1121 C1107 0.930 . S
Co1122 N1126 2.148 . S
Co1122 N1132 2.128 . S
Co1122 N1142 2.194 . S
Co1122 O1147 2.351 . S
Co1122 O1148 2.155 . S
Co1122 O1149 2.096 . S
C1123 N1126 1.301 . S
C1123 N1127 1.328 . S
C1123 H1128 0.930 . S
C1124 C1125 1.333 . S
C1124 N1126 1.317 . S
C1124 H1129 0.930 . S
C1125 C1124 1.333 . S
C1125 N1127 1.350 . S
C1125 H1151 0.931 . S
N1126 Co1122 2.148 . S
N1126 C1123 1.301 . S
N1126 C1124 1.317 . S
N1127 C1123 1.328 . S
N1127 C1125 1.350 . S
H1128 C1123 0.930 . S
H1129 C1124 0.930 . S
C1130 O1131 1.224 . S
C1130 O1149 1.247 . S
O1131 C1130 1.224 . S
N1132 Co1122 2.128 . S
N1132 C1133 1.355 . S
N1132 C1135 1.311 . S
C1133 N1132 1.355 . S
C1133 C1134 1.363 . S
C1133 H1145 0.929 . S
C1134 C1133 1.363 . S
C1134 N1136 1.375 . S
C1134 H1152 0.931 . S
C1135 N1132 1.311 . S
C1135 N1136 1.347 . S
C1135 H1146 0.929 . S
N1136 C1134 1.375 . S
N1136 C1135 1.347 . S
C1137 C1140 1.365 . S
C1137 N1142 1.328 . S
C1137 H1143 0.929 . S
C1138 C1139 1.362 . S
C1138 C1141 1.378 . S
C1138 H1153 0.929 . S
C1139 C1138 1.362 . S
C1139 C1140 1.366 . S
C1140 C1137 1.365 . S
C1140 C1139 1.366 . S
C1140 H1154 0.930 . S
C1141 C1138 1.378 . S
C1141 N1142 1.315 . S
C1141 H1144 0.930 . S
N1142 Co1122 2.194 . S
N1142 C1137 1.328 . S
N1142 C1141 1.315 . S
H1143 C1137 0.929 . S
H1144 C1141 0.930 . S
H1145 C1133 0.929 . S
H1146 C1135 0.929 . S
O1147 Co1122 2.351 . S
O1147 C1150 1.244 . S
O1148 Co1122 2.155 . S
O1148 C1150 1.240 . S
O1149 Co1122 2.096 . S
O1149 C1130 1.247 . S
C1150 O1147 1.244 . S
C1150 O1148 1.240 . S
H1151 C1125 0.931 . S
H1152 C1134 0.931 . S
H1153 C1138 0.929 . S
H1154 C1140 0.930 . S
Co1155 N1159 2.148 . S
Co1155 N1165 2.128 . S
Co1155 N1175 2.194 . S
Co1155 O1180 2.351 . S
Co1155 O1181 2.155 . S
Co1155 O1182 2.096 . S
C1156 N1159 1.301 . S
C1156 N1160 1.328 . S
C1156 H1161 0.930 . S
C1157 C1158 1.333 . S
C1157 N1159 1.317 . S
C1157 H1162 0.930 . S
C1158 C1157 1.333 . S
C1158 N1160 1.350 . S
C1158 H1184 0.931 . S
N1159 Co1155 2.148 . S
N1159 C1156 1.301 . S
N1159 C1157 1.317 . S
N1160 C1156 1.328 . S
N1160 C1158 1.350 . S
H1161 C1156 0.930 . S
H1162 C1157 0.930 . S
C1163 O1164 1.224 . S
C1163 O1182 1.247 . S
O1164 C1163 1.224 . S
N1165 Co1155 2.128 . S
N1165 C1166 1.355 . S
N1165 C1168 1.311 . S
C1166 N1165 1.355 . S
C1166 C1167 1.363 . S
C1166 H1178 0.929 . S
C1167 C1166 1.363 . S
C1167 N1169 1.375 . S
C1167 H1185 0.931 . S
C1168 N1165 1.311 . S
C1168 N1169 1.347 . S
C1168 H1179 0.929 . S
N1169 C1167 1.375 . S
N1169 C1168 1.347 . S
C1170 C1173 1.365 . S
C1170 N1175 1.328 . S
C1170 H1176 0.929 . S
C1171 C1172 1.362 . S
C1171 C1174 1.378 . S
C1171 H1186 0.929 . S
C1172 C1171 1.362 . S
C1172 C1173 1.366 . S
C1173 C1170 1.365 . S
C1173 C1172 1.366 . S
C1173 H1187 0.930 . S
C1174 C1171 1.378 . S
C1174 N1175 1.315 . S
C1174 H1177 0.930 . S
N1175 Co1155 2.194 . S
N1175 C1170 1.328 . S
N1175 C1174 1.315 . S
H1176 C1170 0.929 . S
H1177 C1174 0.930 . S
H1178 C1166 0.929 . S
H1179 C1168 0.929 . S
O1180 Co1155 2.351 . S
O1180 C1183 1.244 . S
O1181 Co1155 2.155 . S
O1181 C1183 1.240 . S
O1182 Co1155 2.096 . S
O1182 C1163 1.247 . S
C1183 O1180 1.244 . S
C1183 O1181 1.240 . S
H1184 C1158 0.931 . S
H1185 C1167 0.931 . S
H1186 C1171 0.929 . S
H1187 C1173 0.930 . S
Co1188 N1192 2.148 . S
Co1188 N1198 2.128 . S
Co1188 N1208 2.194 . S
Co1188 O1213 2.351 . S
Co1188 O1214 2.155 . S
Co1188 O1215 2.096 . S
C1189 N1192 1.301 . S
C1189 N1193 1.328 . S
C1189 H1194 0.930 . S
C1190 C1191 1.333 . S
C1190 N1192 1.317 . S
C1190 H1195 0.930 . S
C1191 C1190 1.333 . S
C1191 N1193 1.350 . S
C1191 H1217 0.931 . S
N1192 Co1188 2.148 . S
N1192 C1189 1.301 . S
N1192 C1190 1.317 . S
N1193 C1189 1.328 . S
N1193 C1191 1.350 . S
H1194 C1189 0.930 . S
H1195 C1190 0.930 . S
C1196 O1197 1.224 . S
C1196 O1215 1.247 . S
O1197 C1196 1.224 . S
N1198 Co1188 2.128 . S
N1198 C1199 1.355 . S
N1198 C1201 1.311 . S
C1199 N1198 1.355 . S
C1199 C1200 1.363 . S
C1199 H1211 0.929 . S
C1200 C1199 1.363 . S
C1200 N1202 1.375 . S
C1200 H1218 0.931 . S
C1201 N1198 1.311 . S
C1201 N1202 1.347 . S
C1201 H1212 0.929 . S
N1202 C1200 1.375 . S
N1202 C1201 1.347 . S
C1203 C1206 1.365 . S
C1203 N1208 1.328 . S
C1203 H1209 0.929 . S
C1204 C1205 1.362 . S
C1204 C1207 1.378 . S
C1204 H1219 0.929 . S
C1205 C1204 1.362 . S
C1205 C1206 1.366 . S
C1206 C1203 1.365 . S
C1206 C1205 1.366 . S
C1206 H1220 0.930 . S
C1207 C1204 1.378 . S
C1207 N1208 1.315 . S
C1207 H1210 0.930 . S
N1208 Co1188 2.194 . S
N1208 C1203 1.328 . S
N1208 C1207 1.315 . S
H1209 C1203 0.929 . S
H1210 C1207 0.930 . S
H1211 C1199 0.929 . S
H1212 C1201 0.929 . S
O1213 Co1188 2.351 . S
O1213 C1216 1.244 . S
O1214 Co1188 2.155 . S
O1214 C1216 1.240 . S
O1215 Co1188 2.096 . S
O1215 C1196 1.247 . S
C1216 O1213 1.244 . S
C1216 O1214 1.240 . S
H1217 C1191 0.931 . S
H1218 C1200 0.931 . S
H1219 C1204 0.929 . S
H1220 C1206 0.930 . S
Co1221 N1225 2.148 . S
Co1221 N1231 2.128 . S
Co1221 N1241 2.194 . S
Co1221 O1246 2.351 . S
Co1221 O1247 2.155 . S
Co1221 O1248 2.096 . S
C1222 N1225 1.301 . S
C1222 N1226 1.328 . S
C1222 H1227 0.930 . S
C1223 C1224 1.333 . S
C1223 N1225 1.317 . S
C1223 H1228 0.930 . S
C1224 C1223 1.333 . S
C1224 N1226 1.350 . S
C1224 H1250 0.931 . S
N1225 Co1221 2.148 . S
N1225 C1222 1.301 . S
N1225 C1223 1.317 . S
N1226 C1222 1.328 . S
N1226 C1224 1.350 . S
H1227 C1222 0.930 . S
H1228 C1223 0.930 . S
C1229 O1230 1.224 . S
C1229 O1248 1.247 . S
O1230 C1229 1.224 . S
N1231 Co1221 2.128 . S
N1231 C1232 1.355 . S
N1231 C1234 1.311 . S
C1232 N1231 1.355 . S
C1232 C1233 1.363 . S
C1232 H1244 0.929 . S
C1233 C1232 1.363 . S
C1233 N1235 1.375 . S
C1233 H1251 0.931 . S
C1234 N1231 1.311 . S
C1234 N1235 1.347 . S
C1234 H1245 0.929 . S
N1235 C1233 1.375 . S
N1235 C1234 1.347 . S
C1236 C1239 1.365 . S
C1236 N1241 1.328 . S
C1236 H1242 0.929 . S
C1237 C1238 1.362 . S
C1237 C1240 1.378 . S
C1237 H1252 0.929 . S
C1238 C1237 1.362 . S
C1238 C1239 1.366 . S
C1239 C1236 1.365 . S
C1239 C1238 1.366 . S
C1239 H1253 0.930 . S
C1240 C1237 1.378 . S
C1240 N1241 1.315 . S
C1240 H1243 0.930 . S
N1241 Co1221 2.194 . S
N1241 C1236 1.328 . S
N1241 C1240 1.315 . S
H1242 C1236 0.929 . S
H1243 C1240 0.930 . S
H1244 C1232 0.929 . S
H1245 C1234 0.929 . S
O1246 Co1221 2.351 . S
O1246 C1249 1.244 . S
O1247 Co1221 2.155 . S
O1247 C1249 1.240 . S
O1248 Co1221 2.096 . S
O1248 C1229 1.247 . S
C1249 O1246 1.244 . S
C1249 O1247 1.240 . S
H1250 C1224 0.931 . S
H1251 C1233 0.931 . S
H1252 C1237 0.929 . S
H1253 C1239 0.930 . S
Co1254 N1258 2.148 . S
Co1254 N1264 2.128 . S
Co1254 N1274 2.194 . S
Co1254 O1279 2.351 . S
Co1254 O1280 2.155 . S
Co1254 O1281 2.096 . S
C1255 N1258 1.301 . S
C1255 N1259 1.328 . S
C1255 H1260 0.930 . S
C1256 C1257 1.333 . S
C1256 N1258 1.317 . S
C1256 H1261 0.930 . S
C1257 C1256 1.333 . S
C1257 N1259 1.350 . S
C1257 H1283 0.931 . S
N1258 Co1254 2.148 . S
N1258 C1255 1.301 . S
N1258 C1256 1.317 . S
N1259 C1255 1.328 . S
N1259 C1257 1.350 . S
H1260 C1255 0.930 . S
H1261 C1256 0.930 . S
C1262 O1263 1.224 . S
C1262 O1281 1.247 . S
O1263 C1262 1.224 . S
N1264 Co1254 2.128 . S
N1264 C1265 1.355 . S
N1264 C1267 1.311 . S
C1265 N1264 1.355 . S
C1265 C1266 1.363 . S
C1265 H1277 0.929 . S
C1266 C1265 1.363 . S
C1266 N1268 1.375 . S
C1266 H1284 0.931 . S
C1267 N1264 1.311 . S
C1267 N1268 1.347 . S
C1267 H1278 0.929 . S
N1268 C1266 1.375 . S
N1268 C1267 1.347 . S
C1269 C1272 1.365 . S
C1269 N1274 1.328 . S
C1269 H1275 0.929 . S
C1270 C1271 1.362 . S
C1270 C1273 1.378 . S
C1270 H1285 0.929 . S
C1271 C1270 1.362 . S
C1271 C1272 1.366 . S
C1272 C1269 1.365 . S
C1272 C1271 1.366 . S
C1272 H1286 0.930 . S
C1273 C1270 1.378 . S
C1273 N1274 1.315 . S
C1273 H1276 0.930 . S
N1274 Co1254 2.194 . S
N1274 C1269 1.328 . S
N1274 C1273 1.315 . S
H1275 C1269 0.929 . S
H1276 C1273 0.930 . S
H1277 C1265 0.929 . S
H1278 C1267 0.929 . S
O1279 Co1254 2.351 . S
O1279 C1282 1.244 . S
O1280 Co1254 2.155 . S
O1280 C1282 1.240 . S
O1281 Co1254 2.096 . S
O1281 C1262 1.247 . S
C1282 O1279 1.244 . S
C1282 O1280 1.240 . S
H1283 C1257 0.931 . S
H1284 C1266 0.931 . S
H1285 C1270 0.929 . S
H1286 C1272 0.930 . S
Co1287 N1291 2.148 . S
Co1287 N1297 2.128 . S
Co1287 N1307 2.194 . S
Co1287 O1312 2.351 . S
Co1287 O1313 2.155 . S
Co1287 O1314 2.096 . S
C1288 N1291 1.301 . S
C1288 N1292 1.328 . S
C1288 H1293 0.930 . S
C1289 C1290 1.333 . S
C1289 N1291 1.317 . S
C1289 H1294 0.930 . S
C1290 C1289 1.333 . S
C1290 N1292 1.350 . S
C1290 H1316 0.931 . S
N1291 Co1287 2.148 . S
N1291 C1288 1.301 . S
N1291 C1289 1.317 . S
N1292 C1288 1.328 . S
N1292 C1290 1.350 . S
H1293 C1288 0.930 . S
H1294 C1289 0.930 . S
C1295 O1296 1.224 . S
C1295 O1314 1.247 . S
O1296 C1295 1.224 . S
N1297 Co1287 2.128 . S
N1297 C1298 1.355 . S
N1297 C1300 1.311 . S
C1298 N1297 1.355 . S
C1298 C1299 1.363 . S
C1298 H1310 0.929 . S
C1299 C1298 1.363 . S
C1299 N1301 1.375 . S
C1299 H1317 0.931 . S
C1300 N1297 1.311 . S
C1300 N1301 1.347 . S
C1300 H1311 0.929 . S
N1301 C1299 1.375 . S
N1301 C1300 1.347 . S
C1302 C1305 1.365 . S
C1302 N1307 1.328 . S
C1302 H1308 0.929 . S
C1303 C1304 1.362 . S
C1303 C1306 1.378 . S
C1303 H1318 0.929 . S
C1304 C1303 1.362 . S
C1304 C1305 1.366 . S
C1305 C1302 1.365 . S
C1305 C1304 1.366 . S
C1305 H1319 0.930 . S
C1306 C1303 1.378 . S
C1306 N1307 1.315 . S
C1306 H1309 0.930 . S
N1307 Co1287 2.194 . S
N1307 C1302 1.328 . S
N1307 C1306 1.315 . S
H1308 C1302 0.929 . S
H1309 C1306 0.930 . S
H1310 C1298 0.929 . S
H1311 C1300 0.929 . S
O1312 Co1287 2.351 . S
O1312 C1315 1.244 . S
O1313 Co1287 2.155 . S
O1313 C1315 1.240 . S
O1314 Co1287 2.096 . S
O1314 C1295 1.247 . S
C1315 O1312 1.244 . S
C1315 O1313 1.240 . S
H1316 C1290 0.931 . S
H1317 C1299 0.931 . S
H1318 C1303 0.929 . S
H1319 C1305 0.930 . S
Co1320 N1324 2.148 . S
Co1320 N1330 2.128 . S
Co1320 N1340 2.194 . S
Co1320 O1345 2.351 . S
Co1320 O1346 2.155 . S
Co1320 O1347 2.096 . S
C1321 N1324 1.301 . S
C1321 N1325 1.328 . S
C1321 H1326 0.930 . S
C1322 C1323 1.333 . S
C1322 N1324 1.317 . S
C1322 H1327 0.930 . S
C1323 C1322 1.333 . S
C1323 N1325 1.350 . S
C1323 H1349 0.931 . S
N1324 Co1320 2.148 . S
N1324 C1321 1.301 . S
N1324 C1322 1.317 . S
N1325 C1321 1.328 . S
N1325 C1323 1.350 . S
H1326 C1321 0.930 . S
H1327 C1322 0.930 . S
C1328 O1329 1.224 . S
C1328 O1347 1.247 . S
O1329 C1328 1.224 . S
N1330 Co1320 2.128 . S
N1330 C1331 1.355 . S
N1330 C1333 1.311 . S
C1331 N1330 1.355 . S
C1331 C1332 1.363 . S
C1331 H1343 0.929 . S
C1332 C1331 1.363 . S
C1332 N1334 1.375 . S
C1332 H1350 0.931 . S
C1333 N1330 1.311 . S
C1333 N1334 1.347 . S
C1333 H1344 0.929 . S
N1334 C1332 1.375 . S
N1334 C1333 1.347 . S
C1335 C1338 1.365 . S
C1335 N1340 1.328 . S
C1335 H1341 0.929 . S
C1336 C1337 1.362 . S
C1336 C1339 1.378 . S
C1336 H1351 0.929 . S
C1337 C1336 1.362 . S
C1337 C1338 1.366 . S
C1338 C1335 1.365 . S
C1338 C1337 1.366 . S
C1338 H1352 0.930 . S
C1339 C1336 1.378 . S
C1339 N1340 1.315 . S
C1339 H1342 0.930 . S
N1340 Co1320 2.194 . S
N1340 C1335 1.328 . S
N1340 C1339 1.315 . S
H1341 C1335 0.929 . S
H1342 C1339 0.930 . S
H1343 C1331 0.929 . S
H1344 C1333 0.929 . S
O1345 Co1320 2.351 . S
O1345 C1348 1.244 . S
O1346 Co1320 2.155 . S
O1346 C1348 1.240 . S
O1347 Co1320 2.096 . S
O1347 C1328 1.247 . S
C1348 O1345 1.244 . S
C1348 O1346 1.240 . S
H1349 C1323 0.931 . S
H1350 C1332 0.931 . S
H1351 C1336 0.929 . S
H1352 C1338 0.930 . S
Co1353 N1357 2.148 . S
Co1353 N1363 2.128 . S
Co1353 N1373 2.194 . S
Co1353 O1378 2.351 . S
Co1353 O1379 2.155 . S
Co1353 O1380 2.096 . S
C1354 N1357 1.301 . S
C1354 N1358 1.328 . S
C1354 H1359 0.930 . S
C1355 C1356 1.333 . S
C1355 N1357 1.317 . S
C1355 H1360 0.930 . S
C1356 C1355 1.333 . S
C1356 N1358 1.350 . S
C1356 H1382 0.931 . S
N1357 Co1353 2.148 . S
N1357 C1354 1.301 . S
N1357 C1355 1.317 . S
N1358 C1354 1.328 . S
N1358 C1356 1.350 . S
H1359 C1354 0.930 . S
H1360 C1355 0.930 . S
C1361 O1362 1.224 . S
C1361 O1380 1.247 . S
O1362 C1361 1.224 . S
N1363 Co1353 2.128 . S
N1363 C1364 1.355 . S
N1363 C1366 1.311 . S
C1364 N1363 1.355 . S
C1364 C1365 1.363 . S
C1364 H1376 0.929 . S
C1365 C1364 1.363 . S
C1365 N1367 1.375 . S
C1365 H1383 0.931 . S
C1366 N1363 1.311 . S
C1366 N1367 1.347 . S
C1366 H1377 0.929 . S
N1367 C1365 1.375 . S
N1367 C1366 1.347 . S
C1368 C1371 1.365 . S
C1368 N1373 1.328 . S
C1368 H1374 0.929 . S
C1369 C1370 1.362 . S
C1369 C1372 1.378 . S
C1369 H1384 0.929 . S
C1370 C1369 1.362 . S
C1370 C1371 1.366 . S
C1371 C1368 1.365 . S
C1371 C1370 1.366 . S
C1371 H1385 0.930 . S
C1372 C1369 1.378 . S
C1372 N1373 1.315 . S
C1372 H1375 0.930 . S
N1373 Co1353 2.194 . S
N1373 C1368 1.328 . S
N1373 C1372 1.315 . S
H1374 C1368 0.929 . S
H1375 C1372 0.930 . S
H1376 C1364 0.929 . S
H1377 C1366 0.929 . S
O1378 Co1353 2.351 . S
O1378 C1381 1.244 . S
O1379 Co1353 2.155 . S
O1379 C1381 1.240 . S
O1380 Co1353 2.096 . S
O1380 C1361 1.247 . S
C1381 O1378 1.244 . S
C1381 O1379 1.240 . S
H1382 C1356 0.931 . S
H1383 C1365 0.931 . S
H1384 C1369 0.929 . S
H1385 C1371 0.930 . S
Co1386 N1390 2.148 . S
Co1386 N1396 2.128 . S
Co1386 N1406 2.194 . S
Co1386 O1411 2.351 . S
Co1386 O1412 2.155 . S
Co1386 O1413 2.096 . S
C1387 N1390 1.301 . S
C1387 N1391 1.328 . S
C1387 H1392 0.930 . S
C1388 C1389 1.333 . S
C1388 N1390 1.317 . S
C1388 H1393 0.930 . S
C1389 C1388 1.333 . S
C1389 N1391 1.350 . S
C1389 H1415 0.931 . S
N1390 Co1386 2.148 . S
N1390 C1387 1.301 . S
N1390 C1388 1.317 . S
N1391 C1387 1.328 . S
N1391 C1389 1.350 . S
H1392 C1387 0.930 . S
H1393 C1388 0.930 . S
C1394 O1395 1.224 . S
C1394 O1413 1.247 . S
O1395 C1394 1.224 . S
N1396 Co1386 2.128 . S
N1396 C1397 1.355 . S
N1396 C1399 1.311 . S
C1397 N1396 1.355 . S
C1397 C1398 1.363 . S
C1397 H1409 0.929 . S
C1398 C1397 1.363 . S
C1398 N1400 1.375 . S
C1398 H1416 0.931 . S
C1399 N1396 1.311 . S
C1399 N1400 1.347 . S
C1399 H1410 0.929 . S
N1400 C1398 1.375 . S
N1400 C1399 1.347 . S
C1401 C1404 1.365 . S
C1401 N1406 1.328 . S
C1401 H1407 0.929 . S
C1402 C1403 1.362 . S
C1402 C1405 1.378 . S
C1402 H1417 0.929 . S
C1403 C1402 1.362 . S
C1403 C1404 1.366 . S
C1404 C1401 1.365 . S
C1404 C1403 1.366 . S
C1404 H1418 0.930 . S
C1405 C1402 1.378 . S
C1405 N1406 1.315 . S
C1405 H1408 0.930 . S
N1406 Co1386 2.194 . S
N1406 C1401 1.328 . S
N1406 C1405 1.315 . S
H1407 C1401 0.929 . S
H1408 C1405 0.930 . S
H1409 C1397 0.929 . S
H1410 C1399 0.929 . S
O1411 Co1386 2.351 . S
O1411 C1414 1.244 . S
O1412 Co1386 2.155 . S
O1412 C1414 1.240 . S
O1413 Co1386 2.096 . S
O1413 C1394 1.247 . S
C1414 O1411 1.244 . S
C1414 O1412 1.240 . S
H1415 C1389 0.931 . S
H1416 C1398 0.931 . S
H1417 C1402 0.929 . S
H1418 C1404 0.930 . S
Co1419 N1423 2.148 . S
Co1419 N1429 2.128 . S
Co1419 N1439 2.194 . S
Co1419 O1444 2.351 . S
Co1419 O1445 2.155 . S
Co1419 O1446 2.096 . S
C1420 N1423 1.301 . S
C1420 N1424 1.328 . S
C1420 H1425 0.930 . S
C1421 C1422 1.333 . S
C1421 N1423 1.317 . S
C1421 H1426 0.930 . S
C1422 C1421 1.333 . S
C1422 N1424 1.350 . S
C1422 H1448 0.931 . S
N1423 Co1419 2.148 . S
N1423 C1420 1.301 . S
N1423 C1421 1.317 . S
N1424 C1420 1.328 . S
N1424 C1422 1.350 . S
H1425 C1420 0.930 . S
H1426 C1421 0.930 . S
C1427 O1428 1.224 . S
C1427 O1446 1.247 . S
O1428 C1427 1.224 . S
N1429 Co1419 2.128 . S
N1429 C1430 1.355 . S
N1429 C1432 1.311 . S
C1430 N1429 1.355 . S
C1430 C1431 1.363 . S
C1430 H1442 0.929 . S
C1431 C1430 1.363 . S
C1431 N1433 1.375 . S
C1431 H1449 0.931 . S
C1432 N1429 1.311 . S
C1432 N1433 1.347 . S
C1432 H1443 0.929 . S
N1433 C1431 1.375 . S
N1433 C1432 1.347 . S
C1434 C1437 1.365 . S
C1434 N1439 1.328 . S
C1434 H1440 0.929 . S
C1435 C1436 1.362 . S
C1435 C1438 1.378 . S
C1435 H1450 0.929 . S
C1436 C1435 1.362 . S
C1436 C1437 1.366 . S
C1437 C1434 1.365 . S
C1437 C1436 1.366 . S
C1437 H1451 0.930 . S
C1438 C1435 1.378 . S
C1438 N1439 1.315 . S
C1438 H1441 0.930 . S
N1439 Co1419 2.194 . S
N1439 C1434 1.328 . S
N1439 C1438 1.315 . S
H1440 C1434 0.929 . S
H1441 C1438 0.930 . S
H1442 C1430 0.929 . S
H1443 C1432 0.929 . S
O1444 Co1419 2.351 . S
O1444 C1447 1.244 . S
O1445 Co1419 2.155 . S
O1445 C1447 1.240 . S
O1446 Co1419 2.096 . S
O1446 C1427 1.247 . S
C1447 O1444 1.244 . S
C1447 O1445 1.240 . S
H1448 C1422 0.931 . S
H1449 C1431 0.931 . S
H1450 C1435 0.929 . S
H1451 C1437 0.930 . S
Co1452 N1456 2.148 1_554 S
Co1452 N1462 2.128 . S
Co1452 N1472 2.194 . S
Co1452 O1477 2.351 1_554 S
Co1452 O1478 2.155 1_554 S
Co1452 O1479 2.096 . S
C1453 N1456 1.301 . S
C1453 N1457 1.328 . S
C1453 H1458 0.930 . S
C1454 C1455 1.333 . S
C1454 N1456 1.317 . S
C1454 H1459 0.930 . S
C1455 C1454 1.333 . S
C1455 N1457 1.350 . S
C1455 H1481 0.931 . S
N1456 Co1452 2.148 1_556 S
N1456 C1453 1.301 . S
N1456 C1454 1.317 . S
N1457 C1453 1.328 . S
N1457 C1455 1.350 . S
H1458 C1453 0.930 . S
H1459 C1454 0.930 . S
C1460 O1461 1.224 . S
C1460 O1479 1.247 . S
O1461 C1460 1.224 . S
N1462 Co1452 2.128 . S
N1462 C1463 1.355 . S
N1462 C1465 1.311 . S
C1463 N1462 1.355 . S
C1463 C1464 1.363 . S
C1463 H1475 0.929 . S
C1464 C1463 1.363 . S
C1464 N1466 1.375 . S
C1464 H1482 0.931 . S
C1465 N1462 1.311 . S
C1465 N1466 1.347 . S
C1465 H1476 0.929 . S
N1466 C1464 1.375 . S
N1466 C1465 1.347 . S
C1467 C1470 1.365 . S
C1467 N1472 1.328 1_556 S
C1467 H1473 0.929 . S
C1468 C1469 1.362 . S
C1468 C1471 1.378 . S
C1468 H1483 0.929 . S
C1469 C1468 1.362 . S
C1469 C1470 1.366 1_554 S
C1470 C1467 1.365 . S
C1470 C1469 1.366 1_556 S
C1470 H1484 0.930 . S
C1471 C1468 1.378 . S
C1471 N1472 1.315 . S
C1471 H1474 0.930 . S
N1472 Co1452 2.194 . S
N1472 C1467 1.328 1_554 S
N1472 C1471 1.315 . S
H1473 C1467 0.929 . S
H1474 C1471 0.930 . S
H1475 C1463 0.929 . S
H1476 C1465 0.929 . S
O1477 Co1452 2.351 1_556 S
O1477 C1480 1.244 . S
O1478 Co1452 2.155 1_556 S
O1478 C1480 1.240 . S
O1479 Co1452 2.096 . S
O1479 C1460 1.247 . S
C1480 O1477 1.244 . S
C1480 O1478 1.240 . S
H1481 C1455 0.931 . S
H1482 C1464 0.931 . S
H1483 C1468 0.929 . S
H1484 C1470 0.930 . S
Co1485 N1489 2.148 1_554 S
Co1485 N1495 2.128 . S
Co1485 N1505 2.194 . S
Co1485 O1510 2.351 1_554 S
Co1485 O1511 2.155 1_554 S
Co1485 O1512 2.096 . S
C1486 N1489 1.301 . S
C1486 N1490 1.328 . S
C1486 H1491 0.930 . S
C1487 C1488 1.333 . S
C1487 N1489 1.317 . S
C1487 H1492 0.930 . S
C1488 C1487 1.333 . S
C1488 N1490 1.350 . S
C1488 H1514 0.931 . S
N1489 Co1485 2.148 1_556 S
N1489 C1486 1.301 . S
N1489 C1487 1.317 . S
N1490 C1486 1.328 . S
N1490 C1488 1.350 . S
H1491 C1486 0.930 . S
H1492 C1487 0.930 . S
C1493 O1494 1.224 . S
C1493 O1512 1.247 . S
O1494 C1493 1.224 . S
N1495 Co1485 2.128 . S
N1495 C1496 1.355 . S
N1495 C1498 1.311 . S
C1496 N1495 1.355 . S
C1496 C1497 1.363 . S
C1496 H1508 0.929 . S
C1497 C1496 1.363 . S
C1497 N1499 1.375 . S
C1497 H1515 0.931 . S
C1498 N1495 1.311 . S
C1498 N1499 1.347 . S
C1498 H1509 0.929 . S
N1499 C1497 1.375 . S
N1499 C1498 1.347 . S
C1500 C1503 1.365 . S
C1500 N1505 1.317 1_556 S
C1500 H1506 0.929 . S
C1501 C1502 1.362 . S
C1501 C1504 1.378 . S
C1501 H1516 0.929 . S
C1502 C1501 1.362 . S
C1502 C1503 1.366 1_554 S
C1503 C1500 1.365 . S
C1503 C1502 1.366 1_556 S
C1503 H1517 0.930 . S
C1504 C1501 1.378 . S
C1504 N1505 1.327 . S
C1504 H1507 0.930 . S
N1505 Co1485 2.194 . S
N1505 C1500 1.317 1_554 S
N1505 C1504 1.327 . S
H1506 C1500 0.929 . S
H1507 C1504 0.930 . S
H1508 C1496 0.929 . S
H1509 C1498 0.929 . S
O1510 Co1485 2.351 1_556 S
O1510 C1513 1.244 . S
O1511 Co1485 2.155 1_556 S
O1511 C1513 1.240 . S
O1512 Co1485 2.096 . S
O1512 C1493 1.247 . S
C1513 O1510 1.244 . S
C1513 O1511 1.240 . S
H1514 C1488 0.931 . S
H1515 C1497 0.931 . S
H1516 C1501 0.929 . S
H1517 C1503 0.930 . S
Co1518 N1522 2.148 . S
Co1518 N1528 2.128 1_554 S
Co1518 N1538 2.194 . S
Co1518 O1543 2.351 . S
Co1518 O1544 2.155 . S
Co1518 O1545 2.096 1_554 S
C1519 N1522 1.301 . S
C1519 N1523 1.328 . S
C1519 H1524 0.930 . S
C1520 C1521 1.333 . S
C1520 N1522 1.317 . S
C1520 H1525 0.930 . S
C1521 C1520 1.333 . S
C1521 N1523 1.350 . S
C1521 H1547 0.931 . S
N1522 Co1518 2.148 . S
N1522 C1519 1.301 . S
N1522 C1520 1.317 . S
N1523 C1519 1.328 . S
N1523 C1521 1.350 . S
H1524 C1519 0.930 . S
H1525 C1520 0.930 . S
C1526 O1527 1.224 . S
C1526 O1545 1.247 . S
O1527 C1526 1.224 . S
N1528 Co1518 2.128 1_556 S
N1528 C1529 1.355 . S
N1528 C1531 1.311 . S
C1529 N1528 1.355 . S
C1529 C1530 1.363 . S
C1529 H1541 0.929 . S
C1530 C1529 1.363 . S
C1530 N1532 1.375 . S
C1530 H1548 0.931 . S
C1531 N1528 1.311 . S
C1531 N1532 1.347 . S
C1531 H1542 0.929 . S
N1532 C1530 1.375 . S
N1532 C1531 1.347 . S
C1533 C1536 1.365 . S
C1533 N1538 1.328 . S
C1533 H1539 0.929 . S
C1534 C1535 1.362 1_556 S
C1534 C1537 1.378 . S
C1534 H1549 0.929 . S
C1535 C1534 1.362 1_554 S
C1535 C1536 1.366 . S
C1536 C1533 1.365 . S
C1536 C1535 1.366 . S
C1536 H1550 0.930 . S
C1537 C1534 1.378 . S
C1537 N1538 1.315 1_556 S
C1537 H1540 0.930 . S
N1538 Co1518 2.194 . S
N1538 C1533 1.328 . S
N1538 C1537 1.315 1_554 S
H1539 C1533 0.929 . S
H1540 C1537 0.930 . S
H1541 C1529 0.929 . S
H1542 C1531 0.929 . S
O1543 Co1518 2.351 . S
O1543 C1546 1.244 . S
O1544 Co1518 2.155 . S
O1544 C1546 1.240 . S
O1545 Co1518 2.096 1_556 S
O1545 C1526 1.247 . S
C1546 O1543 1.244 . S
C1546 O1544 1.240 . S
H1547 C1521 0.931 . S
H1548 C1530 0.931 . S
H1549 C1534 0.929 . S
H1550 C1536 0.930 . S
Co1551 N1555 2.148 . S
Co1551 N1561 2.128 1_554 S
Co1551 N1571 2.194 . S
Co1551 O1576 2.351 . S
Co1551 O1577 2.155 . S
Co1551 O1578 2.096 1_554 S
C1552 N1555 1.301 . S
C1552 N1556 1.328 . S
C1552 H1557 0.930 . S
C1553 C1554 1.333 . S
C1553 N1555 1.317 . S
C1553 H1558 0.930 . S
C1554 C1553 1.333 . S
C1554 N1556 1.350 . S
C1554 H1580 0.931 . S
N1555 Co1551 2.148 . S
N1555 C1552 1.301 . S
N1555 C1553 1.317 . S
N1556 C1552 1.328 . S
N1556 C1554 1.350 . S
H1557 C1552 0.930 . S
H1558 C1553 0.930 . S
C1559 O1560 1.224 . S
C1559 O1578 1.247 . S
O1560 C1559 1.224 . S
N1561 Co1551 2.128 1_556 S
N1561 C1562 1.355 . S
N1561 C1564 1.311 . S
C1562 N1561 1.355 . S
C1562 C1563 1.363 . S
C1562 H1574 0.929 . S
C1563 C1562 1.363 . S
C1563 N1565 1.375 . S
C1563 H1581 0.931 . S
C1564 N1561 1.311 . S
C1564 N1565 1.347 . S
C1564 H1575 0.929 . S
N1565 C1563 1.375 . S
N1565 C1564 1.347 . S
C1566 C1569 1.365 . S
C1566 N1571 1.328 . S
C1566 H1572 0.929 . S
C1567 C1568 1.362 1_556 S
C1567 C1570 1.378 . S
C1567 H1582 0.929 . S
C1568 C1567 1.362 1_554 S
C1568 C1569 1.366 . S
C1569 C1566 1.365 . S
C1569 C1568 1.366 . S
C1569 H1583 0.930 . S
C1570 C1567 1.378 . S
C1570 N1571 1.315 1_556 S
C1570 H1573 0.930 . S
N1571 Co1551 2.194 . S
N1571 C1566 1.328 . S
N1571 C1570 1.315 1_554 S
H1572 C1566 0.929 . S
H1573 C1570 0.930 . S
H1574 C1562 0.929 . S
H1575 C1564 0.929 . S
O1576 Co1551 2.351 . S
O1576 C1579 1.244 . S
O1577 Co1551 2.155 . S
O1577 C1579 1.240 . S
O1578 Co1551 2.096 1_556 S
O1578 C1559 1.247 . S
C1579 O1576 1.244 . S
C1579 O1577 1.240 . S
H1580 C1554 0.931 . S
H1581 C1563 0.931 . S
H1582 C1567 0.929 . S
H1583 C1569 0.930 . S
C1584 C1585 1.363 . S
C1584 C1590 1.379 . S
C1584 N1592 1.356 . S
C1585 C1584 1.363 . S
C1585 C1591 1.363 1_455 S
C1586 C1587 1.363 1_655 S
C1586 C1591 1.379 . S
C1586 N1593 1.356 . S
C1587 C1586 1.363 1_455 S
C1587 C1590 1.363 . S
N1588 C1590 1.356 . S
N1588 H1600 0.984 . S
N1588 H1601 0.985 . S
N1589 C1591 1.356 . S
N1589 H1594 0.984 . S
N1589 H1595 0.985 . S
C1590 C1584 1.379 . S
C1590 C1587 1.363 . S
C1590 N1588 1.356 . S
C1591 C1585 1.363 1_655 S
C1591 C1586 1.379 . S
C1591 N1589 1.356 . S
N1592 C1584 1.356 . S
N1592 H1598 0.984 . S
N1592 H1599 0.984 . S
N1593 C1586 1.356 . S
N1593 H1596 0.984 . S
N1593 H1597 0.985 . S
H1594 N1589 0.984 . S
H1595 N1589 0.985 . S
H1596 N1593 0.984 . S
H1597 N1593 0.985 . S
H1598 N1592 0.984 . S
H1599 N1592 0.984 . S
H1600 N1588 0.984 . S
H1601 N1588 0.985 . S
C1602 C1603 1.363 1_565 S
C1602 C1608 1.379 . S
C1602 N1610 1.356 . S
C1603 C1602 1.363 1_545 S
C1603 C1609 1.363 . S
C1604 C1605 1.363 . S
C1604 C1609 1.379 . S
C1604 N1611 1.356 . S
C1605 C1604 1.363 . S
C1605 C1608 1.363 1_545 S
N1606 C1608 1.356 . S
N1606 H1618 0.984 . S
N1606 H1619 0.985 . S
N1607 C1609 1.356 . S
N1607 H1612 0.984 . S
N1607 H1613 0.985 . S
C1608 C1602 1.379 . S
C1608 C1605 1.363 1_565 S
C1608 N1606 1.356 . S
C1609 C1603 1.363 . S
C1609 C1604 1.379 . S
C1609 N1607 1.356 . S
N1610 C1602 1.356 . S
N1610 H1616 0.984 . S
N1610 H1617 0.984 . S
N1611 C1604 1.356 . S
N1611 H1614 0.984 . S
N1611 H1615 0.985 . S
H1612 N1607 0.984 . S
H1613 N1607 0.985 . S
H1614 N1611 0.984 . S
H1615 N1611 0.985 . S
H1616 N1610 0.984 . S
H1617 N1610 0.984 . S
H1618 N1606 0.984 . S
H1619 N1606 0.985 . S
C1620 C1621 1.363 1_655 S
C1620 C1626 1.379 . S
C1620 N1628 1.356 . S
C1621 C1620 1.363 1_455 S
C1621 C1627 1.363 . S
C1622 C1623 1.358 1_455 S
C1622 C1627 1.379 . S
C1622 N1629 1.356 . S
C1623 C1622 1.358 1_655 S
C1623 C1626 1.368 . S
N1624 C1626 1.356 . S
N1624 H1636 0.984 . S
N1624 H1637 0.985 . S
N1625 C1627 1.356 . S
N1625 H1630 0.984 . S
N1625 H1631 0.985 . S
C1626 C1620 1.379 . S
C1626 C1623 1.368 . S
C1626 N1624 1.356 . S
C1627 C1621 1.363 . S
C1627 C1622 1.379 . S
C1627 N1625 1.356 . S
N1628 C1620 1.356 . S
N1628 H1634 0.984 . S
N1628 H1635 0.984 . S
N1629 C1622 1.356 . S
N1629 H1632 0.984 . S
N1629 H1633 0.985 . S
H1630 N1625 0.984 . S
H1631 N1625 0.985 . S
H1632 N1629 0.984 . S
H1633 N1629 0.985 . S
H1634 N1628 0.984 . S
H1635 N1628 0.984 . S
H1636 N1624 0.984 . S
H1637 N1624 0.985 . S
C1638 C1639 1.363 1_565 S
C1638 C1644 1.379 . S
C1638 N1646 1.356 . S
C1639 C1638 1.363 1_545 S
C1639 C1645 1.363 . S
C1640 C1641 1.386 . S
C1640 C1645 1.379 . S
C1640 N1647 1.356 . S
C1641 C1640 1.386 . S
C1641 C1644 1.342 1_545 S
N1642 C1644 1.356 . S
N1642 H1654 0.984 . S
N1642 H1655 0.985 . S
N1643 C1645 1.356 . S
N1643 H1648 0.984 . S
N1643 H1649 0.985 . S
C1644 C1638 1.379 . S
C1644 C1641 1.342 1_565 S
C1644 N1642 1.356 . S
C1645 C1639 1.363 . S
C1645 C1640 1.379 . S
C1645 N1643 1.356 . S
N1646 C1638 1.356 . S
N1646 H1652 0.984 . S
N1646 H1653 0.984 . S
N1647 C1640 1.356 . S
N1647 H1650 0.984 . S
N1647 H1651 0.985 . S
H1648 N1643 0.984 . S
H1649 N1643 0.985 . S
H1650 N1647 0.984 . S
H1651 N1647 0.985 . S
H1652 N1646 0.984 . S
H1653 N1646 0.984 . S
H1654 N1642 0.984 . S
H1655 N1642 0.985 . S
C1656 C1657 1.363 . S
C1656 C1662 1.379 . S
C1656 N1664 1.356 . S
C1657 C1656 1.363 . S
C1657 C1663 1.363 1_455 S
C1658 C1659 1.363 1_655 S
C1658 C1663 1.379 . S
C1658 N1665 1.356 . S
C1659 C1658 1.363 1_455 S
C1659 C1662 1.363 . S
N1660 C1662 1.356 . S
N1660 H1672 0.984 . S
N1660 H1673 0.985 . S
N1661 C1663 1.356 . S
N1661 H1666 0.984 . S
N1661 H1667 0.985 . S
C1662 C1656 1.379 . S
C1662 C1659 1.363 . S
C1662 N1660 1.356 . S
C1663 C1657 1.363 1_655 S
C1663 C1658 1.379 . S
C1663 N1661 1.356 . S
N1664 C1656 1.356 . S
N1664 H1670 0.984 . S
N1664 H1671 0.984 . S
N1665 C1658 1.356 . S
N1665 H1668 0.984 . S
N1665 H1669 0.985 . S
H1666 N1661 0.984 . S
H1667 N1661 0.985 . S
H1668 N1665 0.984 . S
H1669 N1665 0.985 . S
H1670 N1664 0.984 . S
H1671 N1664 0.984 . S
H1672 N1660 0.984 . S
H1673 N1660 0.985 . S
C1674 C1675 1.363 . S
C1674 C1680 1.379 . S
C1674 N1682 1.356 . S
C1675 C1674 1.363 . S
C1675 C1681 1.363 1_545 S
C1676 C1677 1.363 1_565 S
C1676 C1681 1.379 . S
C1676 N1683 1.356 . S
C1677 C1676 1.363 1_545 S
C1677 C1680 1.363 . S
N1678 C1680 1.356 . S
N1678 H1690 0.984 . S
N1678 H1691 0.985 . S
N1679 C1681 1.356 . S
N1679 H1684 0.984 . S
N1679 H1685 0.985 . S
C1680 C1674 1.379 . S
C1680 C1677 1.363 . S
C1680 N1678 1.356 . S
C1681 C1675 1.363 1_565 S
C1681 C1676 1.379 . S
C1681 N1679 1.356 . S
N1682 C1674 1.356 . S
N1682 H1688 0.984 . S
N1682 H1689 0.984 . S
N1683 C1676 1.356 . S
N1683 H1686 0.984 . S
N1683 H1687 0.985 . S
H1684 N1679 0.984 . S
H1685 N1679 0.985 . S
H1686 N1683 0.984 . S
H1687 N1683 0.985 . S
H1688 N1682 0.984 . S
H1689 N1682 0.984 . S
H1690 N1678 0.984 . S
H1691 N1678 0.985 . S
C1692 C1693 1.352 1_655 S
C1692 C1698 1.379 . S
C1692 N1700 1.356 . S
C1693 C1692 1.352 1_455 S
C1693 C1699 1.375 . S
C1694 C1695 1.363 . S
C1694 C1699 1.379 . S
C1694 N1701 1.356 . S
C1695 C1694 1.363 . S
C1695 C1698 1.363 1_455 S
N1696 C1698 1.356 . S
N1696 H1708 0.984 . S
N1696 H1709 0.985 . S
N1697 C1699 1.356 . S
N1697 H1702 0.984 . S
N1697 H1703 0.985 . S
C1698 C1692 1.379 . S
C1698 C1695 1.363 1_655 S
C1698 N1696 1.356 . S
C1699 C1693 1.375 . S
C1699 C1694 1.379 . S
C1699 N1697 1.356 . S
N1700 C1692 1.356 . S
N1700 H1706 0.984 . S
N1700 H1707 0.984 . S
N1701 C1694 1.356 . S
N1701 H1704 0.984 . S
N1701 H1705 0.985 . S
H1702 N1697 0.984 . S
H1703 N1697 0.985 . S
H1704 N1701 0.984 . S
H1705 N1701 0.985 . S
H1706 N1700 0.984 . S
H1707 N1700 0.984 . S
H1708 N1696 0.984 . S
H1709 N1696 0.985 . S
C1710 C1711 1.363 . S
C1710 C1716 1.379 . S
C1710 N1718 1.356 . S
C1711 C1710 1.363 . S
C1711 C1717 1.363 1_545 S
C1712 C1713 1.348 1_565 S
C1712 C1717 1.379 . S
C1712 N1719 1.356 . S
C1713 C1712 1.348 1_545 S
C1713 C1716 1.379 . S
N1714 C1716 1.356 . S
N1714 H1726 0.984 . S
N1714 H1727 0.985 . S
N1715 C1717 1.356 . S
N1715 H1720 0.984 . S
N1715 H1721 0.985 . S
C1716 C1710 1.379 . S
C1716 C1713 1.379 . S
C1716 N1714 1.356 . S
C1717 C1711 1.363 1_565 S
C1717 C1712 1.379 . S
C1717 N1715 1.356 . S
N1718 C1710 1.356 . S
N1718 H1724 0.984 . S
N1718 H1725 0.984 . S
N1719 C1712 1.356 . S
N1719 H1722 0.984 . S
N1719 H1723 0.985 . S
H1720 N1715 0.984 . S
H1721 N1715 0.985 . S
H1722 N1719 0.984 . S
H1723 N1719 0.985 . S
H1724 N1718 0.984 . S
H1725 N1718 0.984 . S
H1726 N1714 0.984 . S
H1727 N1714 0.985 . S
C1728 C1729 1.363 . S
C1728 C1734 1.379 . S
C1728 N1736 1.356 . S
C1729 C1728 1.363 . S
C1729 C1735 1.363 1_554 S
C1730 C1731 1.363 1_556 S
C1730 C1735 1.379 . S
C1730 N1737 1.356 . S
C1731 C1730 1.363 1_554 S
C1731 C1734 1.363 . S
N1732 C1734 1.356 . S
N1732 H1744 0.984 . S
N1732 H1745 0.985 . S
N1733 C1735 1.356 . S
N1733 H1738 0.984 . S
N1733 H1739 0.985 . S
C1734 C1728 1.379 . S
C1734 C1731 1.363 . S
C1734 N1732 1.356 . S
C1735 C1729 1.363 1_556 S
C1735 C1730 1.379 . S
C1735 N1733 1.356 . S
N1736 C1728 1.356 . S
N1736 H1742 0.984 . S
N1736 H1743 0.984 . S
N1737 C1730 1.356 . S
N1737 H1740 0.984 . S
N1737 H1741 0.985 . S
H1738 N1733 0.984 . S
H1739 N1733 0.985 . S
H1740 N1737 0.984 . S
H1741 N1737 0.985 . S
H1742 N1736 0.984 . S
H1743 N1736 0.984 . S
H1744 N1732 0.984 . S
H1745 N1732 0.985 . S
C1746 C1747 1.363 . S
C1746 C1752 1.379 . S
C1746 N1754 1.356 . S
C1747 C1746 1.363 . S
C1747 C1753 1.363 1_554 S
C1748 C1749 1.363 1_556 S
C1748 C1753 1.379 . S
C1748 N1755 1.356 . S
C1749 C1748 1.363 1_554 S
C1749 C1752 1.363 . S
N1750 C1752 1.356 . S
N1750 H1762 0.984 . S
N1750 H1763 0.985 . S
N1751 C1753 1.356 . S
N1751 H1756 0.984 . S
N1751 H1757 0.985 . S
C1752 C1746 1.379 . S
C1752 C1749 1.363 . S
C1752 N1750 1.356 . S
C1753 C1747 1.363 1_556 S
C1753 C1748 1.379 . S
C1753 N1751 1.356 . S
N1754 C1746 1.356 . S
N1754 H1760 0.984 . S
N1754 H1761 0.984 . S
N1755 C1748 1.356 . S
N1755 H1758 0.984 . S
N1755 H1759 0.985 . S
H1756 N1751 0.984 . S
H1757 N1751 0.985 . S
H1758 N1755 0.984 . S
H1759 N1755 0.985 . S
H1760 N1754 0.984 . S
H1761 N1754 0.984 . S
H1762 N1750 0.984 . S
H1763 N1750 0.985 . S
C1764 C1765 1.363 . S
C1764 C1770 1.379 . S
C1764 N1772 1.356 . S
C1765 C1764 1.363 . S
C1765 C1771 1.363 1_554 S
C1766 C1767 1.363 1_556 S
C1766 C1771 1.379 . S
C1766 N1773 1.356 . S
C1767 C1766 1.363 1_554 S
C1767 C1770 1.363 . S
N1768 C1770 1.356 . S
N1768 H1780 0.984 . S
N1768 H1781 0.985 . S
N1769 C1771 1.356 . S
N1769 H1774 0.984 . S
N1769 H1775 0.985 . S
C1770 C1764 1.379 . S
C1770 C1767 1.363 . S
C1770 N1768 1.356 . S
C1771 C1765 1.363 1_556 S
C1771 C1766 1.379 . S
C1771 N1769 1.356 . S
N1772 C1764 1.356 . S
N1772 H1778 0.984 . S
N1772 H1779 0.984 . S
N1773 C1766 1.356 . S
N1773 H1776 0.984 . S
N1773 H1777 0.985 . S
H1774 N1769 0.984 . S
H1775 N1769 0.985 . S
H1776 N1773 0.984 . S
H1777 N1773 0.985 . S
H1778 N1772 0.984 . S
H1779 N1772 0.984 . S
H1780 N1768 0.984 . S
H1781 N1768 0.985 . S
C1782 C1783 1.363 . S
C1782 C1788 1.379 . S
C1782 N1790 1.356 . S
C1783 C1782 1.363 . S
C1783 C1789 1.363 1_554 S
C1784 C1785 1.363 1_556 S
C1784 C1789 1.379 . S
C1784 N1791 1.356 . S
C1785 C1784 1.363 1_554 S
C1785 C1788 1.363 . S
N1786 C1788 1.356 . S
N1786 H1798 0.984 . S
N1786 H1799 0.985 . S
N1787 C1789 1.356 . S
N1787 H1792 0.984 . S
N1787 H1793 0.985 . S
C1788 C1782 1.379 . S
C1788 C1785 1.363 . S
C1788 N1786 1.356 . S
C1789 C1783 1.363 1_556 S
C1789 C1784 1.379 . S
C1789 N1787 1.356 . S
N1790 C1782 1.356 . S
N1790 H1796 0.984 . S
N1790 H1797 0.984 . S
N1791 C1784 1.356 . S
N1791 H1794 0.984 . S
N1791 H1795 0.985 . S
H1792 N1787 0.984 . S
H1793 N1787 0.985 . S
H1794 N1791 0.984 . S
H1795 N1791 0.985 . S
H1796 N1790 0.984 . S
H1797 N1790 0.984 . S
H1798 N1786 0.984 . S
H1799 N1786 0.985 . S
C1800 C1801 1.363 . S
C1800 C1806 1.379 . S
C1800 N1808 1.356 . S
C1801 C1800 1.363 . S
C1801 C1807 1.363 . S
C1802 C1803 1.363 . S
C1802 C1807 1.379 . S
C1802 N1809 1.356 . S
C1803 C1802 1.363 . S
C1803 C1806 1.363 . S
N1804 C1806 1.356 . S
N1804 H1816 0.984 . S
N1804 H1817 0.985 . S
N1805 C1807 1.356 . S
N1805 H1810 0.984 . S
N1805 H1811 0.985 . S
C1806 C1800 1.379 . S
C1806 C1803 1.363 . S
C1806 N1804 1.356 . S
C1807 C1801 1.363 . S
C1807 C1802 1.379 . S
C1807 N1805 1.356 . S
N1808 C1800 1.356 . S
N1808 H1814 0.984 . S
N1808 H1815 0.984 . S
N1809 C1802 1.356 . S
N1809 H1812 0.984 . S
N1809 H1813 0.985 . S
H1810 N1805 0.984 . S
H1811 N1805 0.985 . S
H1812 N1809 0.984 . S
H1813 N1809 0.985 . S
H1814 N1808 0.984 . S
H1815 N1808 0.984 . S
H1816 N1804 0.984 . S
H1817 N1804 0.985 . S
C1818 C1819 1.363 . S
C1818 C1824 1.379 . S
C1818 N1826 1.356 . S
C1819 C1818 1.363 . S
C1819 C1825 1.363 . S
C1820 C1821 1.363 . S
C1820 C1825 1.379 . S
C1820 N1827 1.356 . S
C1821 C1820 1.363 . S
C1821 C1824 1.363 . S
N1822 C1824 1.356 . S
N1822 H1834 0.984 . S
N1822 H1835 0.985 . S
N1823 C1825 1.356 . S
N1823 H1828 0.984 . S
N1823 H1829 0.985 . S
C1824 C1818 1.379 . S
C1824 C1821 1.363 . S
C1824 N1822 1.356 . S
C1825 C1819 1.363 . S
C1825 C1820 1.379 . S
C1825 N1823 1.356 . S
N1826 C1818 1.356 . S
N1826 H1832 0.984 . S
N1826 H1833 0.984 . S
N1827 C1820 1.356 . S
N1827 H1830 0.984 . S
N1827 H1831 0.985 . S
H1828 N1823 0.984 . S
H1829 N1823 0.985 . S
H1830 N1827 0.984 . S
H1831 N1827 0.985 . S
H1832 N1826 0.984 . S
H1833 N1826 0.984 . S
H1834 N1822 0.984 . S
H1835 N1822 0.985 . S
C1836 C1837 1.363 . S
C1836 C1842 1.379 . S
C1836 N1844 1.356 . S
C1837 C1836 1.363 . S
C1837 C1843 1.363 . S
C1838 C1839 1.363 . S
C1838 C1843 1.379 . S
C1838 N1845 1.356 . S
C1839 C1838 1.363 . S
C1839 C1842 1.363 . S
N1840 C1842 1.356 . S
N1840 H1852 0.984 . S
N1840 H1853 0.985 . S
N1841 C1843 1.356 . S
N1841 H1846 0.984 . S
N1841 H1847 0.985 . S
C1842 C1836 1.379 . S
C1842 C1839 1.363 . S
C1842 N1840 1.356 . S
C1843 C1837 1.363 . S
C1843 C1838 1.379 . S
C1843 N1841 1.356 . S
N1844 C1836 1.356 . S
N1844 H1850 0.984 . S
N1844 H1851 0.984 . S
N1845 C1838 1.356 . S
N1845 H1848 0.984 . S
N1845 H1849 0.985 . S
H1846 N1841 0.984 . S
H1847 N1841 0.985 . S
H1848 N1845 0.984 . S
H1849 N1845 0.985 . S
H1850 N1844 0.984 . S
H1851 N1844 0.984 . S
H1852 N1840 0.984 . S
H1853 N1840 0.985 . S
C1854 C1855 1.363 . S
C1854 C1860 1.379 . S
C1854 N1862 1.356 . S
C1855 C1854 1.363 . S
C1855 C1861 1.363 . S
C1856 C1857 1.363 . S
C1856 C1861 1.379 . S
C1856 N1863 1.356 . S
C1857 C1856 1.363 . S
C1857 C1860 1.363 . S
N1858 C1860 1.356 . S
N1858 H1870 0.984 . S
N1858 H1871 0.985 . S
N1859 C1861 1.356 . S
N1859 H1864 0.984 . S
N1859 H1865 0.985 . S
C1860 C1854 1.379 . S
C1860 C1857 1.363 . S
C1860 N1858 1.356 . S
C1861 C1855 1.363 . S
C1861 C1856 1.379 . S
C1861 N1859 1.356 . S
N1862 C1854 1.356 . S
N1862 H1868 0.984 . S
N1862 H1869 0.984 . S
N1863 C1856 1.356 . S
N1863 H1866 0.984 . S
N1863 H1867 0.985 . S
H1864 N1859 0.984 . S
H1865 N1859 0.985 . S
H1866 N1863 0.984 . S
H1867 N1863 0.985 . S
H1868 N1862 0.984 . S
H1869 N1862 0.984 . S
H1870 N1858 0.984 . S
H1871 N1858 0.985 . S
C1872 C1873 1.363 . S
C1872 C1878 1.379 . S
C1872 N1880 1.356 . S
C1873 C1872 1.363 . S
C1873 C1879 1.363 . S
C1874 C1875 1.363 . S
C1874 C1879 1.379 . S
C1874 N1881 1.356 . S
C1875 C1874 1.363 . S
C1875 C1878 1.363 . S
N1876 C1878 1.356 . S
N1876 H1888 0.984 . S
N1876 H1889 0.985 . S
N1877 C1879 1.356 . S
N1877 H1882 0.984 . S
N1877 H1883 0.985 . S
C1878 C1872 1.379 . S
C1878 C1875 1.363 . S
C1878 N1876 1.356 . S
C1879 C1873 1.363 . S
C1879 C1874 1.379 . S
C1879 N1877 1.356 . S
N1880 C1872 1.356 . S
N1880 H1886 0.984 . S
N1880 H1887 0.984 . S
N1881 C1874 1.356 . S
N1881 H1884 0.984 . S
N1881 H1885 0.985 . S
H1882 N1877 0.984 . S
H1883 N1877 0.985 . S
H1884 N1881 0.984 . S
H1885 N1881 0.985 . S
H1886 N1880 0.984 . S
H1887 N1880 0.984 . S
H1888 N1876 0.984 . S
H1889 N1876 0.985 . S
C1890 C1891 1.363 . S
C1890 C1896 1.379 . S
C1890 N1898 1.356 . S
C1891 C1890 1.363 . S
C1891 C1897 1.363 . S
C1892 C1893 1.363 . S
C1892 C1897 1.379 . S
C1892 N1899 1.356 . S
C1893 C1892 1.363 . S
C1893 C1896 1.363 . S
N1894 C1896 1.356 . S
N1894 H1906 0.984 . S
N1894 H1907 0.985 . S
N1895 C1897 1.356 . S
N1895 H1900 0.984 . S
N1895 H1901 0.985 . S
C1896 C1890 1.379 . S
C1896 C1893 1.363 . S
C1896 N1894 1.356 . S
C1897 C1891 1.363 . S
C1897 C1892 1.379 . S
C1897 N1895 1.356 . S
N1898 C1890 1.356 . S
N1898 H1904 0.984 . S
N1898 H1905 0.984 . S
N1899 C1892 1.356 . S
N1899 H1902 0.984 . S
N1899 H1903 0.985 . S
H1900 N1895 0.984 . S
H1901 N1895 0.985 . S
H1902 N1899 0.984 . S
H1903 N1899 0.985 . S
H1904 N1898 0.984 . S
H1905 N1898 0.984 . S
H1906 N1894 0.984 . S
H1907 N1894 0.985 . S
C1908 C1909 1.363 . S
C1908 C1914 1.379 . S
C1908 N1916 1.356 . S
C1909 C1908 1.363 . S
C1909 C1915 1.363 . S
C1910 C1911 1.363 . S
C1910 C1915 1.379 . S
C1910 N1917 1.356 . S
C1911 C1910 1.363 . S
C1911 C1914 1.363 . S
N1912 C1914 1.356 . S
N1912 H1924 0.984 . S
N1912 H1925 0.985 . S
N1913 C1915 1.356 . S
N1913 H1918 0.984 . S
N1913 H1919 0.985 . S
C1914 C1908 1.379 . S
C1914 C1911 1.363 . S
C1914 N1912 1.356 . S
C1915 C1909 1.363 . S
C1915 C1910 1.379 . S
C1915 N1913 1.356 . S
N1916 C1908 1.356 . S
N1916 H1922 0.984 . S
N1916 H1923 0.984 . S
N1917 C1910 1.356 . S
N1917 H1920 0.984 . S
N1917 H1921 0.985 . S
H1918 N1913 0.984 . S
H1919 N1913 0.985 . S
H1920 N1917 0.984 . S
H1921 N1917 0.985 . S
H1922 N1916 0.984 . S
H1923 N1916 0.984 . S
H1924 N1912 0.984 . S
H1925 N1912 0.985 . S
C1926 C1927 1.363 . S
C1926 C1932 1.379 . S
C1926 N1934 1.356 . S
C1927 C1926 1.363 . S
C1927 C1933 1.363 . S
C1928 C1929 1.363 . S
C1928 C1933 1.379 . S
C1928 N1935 1.356 . S
C1929 C1928 1.363 . S
C1929 C1932 1.363 . S
N1930 C1932 1.356 . S
N1930 H1942 0.984 . S
N1930 H1943 0.985 . S
N1931 C1933 1.356 . S
N1931 H1936 0.984 . S
N1931 H1937 0.985 . S
C1932 C1926 1.379 . S
C1932 C1929 1.363 . S
C1932 N1930 1.356 . S
C1933 C1927 1.363 . S
C1933 C1928 1.379 . S
C1933 N1931 1.356 . S
N1934 C1926 1.356 . S
N1934 H1940 0.984 . S
N1934 H1941 0.984 . S
N1935 C1928 1.356 . S
N1935 H1938 0.984 . S
N1935 H1939 0.985 . S
H1936 N1931 0.984 . S
H1937 N1931 0.985 . S
H1938 N1935 0.984 . S
H1939 N1935 0.985 . S
H1940 N1934 0.984 . S
H1941 N1934 0.984 . S
H1942 N1930 0.984 . S
H1943 N1930 0.985 . S
C1944 C1945 1.363 . S
C1944 C1950 1.379 . S
C1944 N1952 1.356 . S
C1945 C1944 1.363 . S
C1945 C1951 1.363 . S
C1946 C1947 1.363 . S
C1946 C1951 1.379 . S
C1946 N1953 1.356 . S
C1947 C1946 1.363 . S
C1947 C1950 1.363 . S
N1948 C1950 1.356 . S
N1948 H1960 0.984 . S
N1948 H1961 0.985 . S
N1949 C1951 1.356 . S
N1949 H1954 0.984 . S
N1949 H1955 0.985 . S
C1950 C1944 1.379 . S
C1950 C1947 1.363 . S
C1950 N1948 1.356 . S
C1951 C1945 1.363 . S
C1951 C1946 1.379 . S
C1951 N1949 1.356 . S
N1952 C1944 1.356 . S
N1952 H1958 0.984 . S
N1952 H1959 0.984 . S
N1953 C1946 1.356 . S
N1953 H1956 0.984 . S
N1953 H1957 0.985 . S
H1954 N1949 0.984 . S
H1955 N1949 0.985 . S
H1956 N1953 0.984 . S
H1957 N1953 0.985 . S
H1958 N1952 0.984 . S
H1959 N1952 0.984 . S
H1960 N1948 0.984 . S
H1961 N1948 0.985 . S
C1962 C1963 1.363 . S
C1962 C1968 1.379 . S
C1962 N1970 1.356 . S
C1963 C1962 1.363 . S
C1963 C1969 1.363 . S
C1964 C1965 1.363 . S
C1964 C1969 1.379 . S
C1964 N1971 1.356 . S
C1965 C1964 1.363 . S
C1965 C1968 1.363 . S
N1966 C1968 1.356 . S
N1966 H1978 0.984 . S
N1966 H1979 0.985 . S
N1967 C1969 1.356 . S
N1967 H1972 0.984 . S
N1967 H1973 0.985 . S
C1968 C1962 1.379 . S
C1968 C1965 1.363 . S
C1968 N1966 1.356 . S
C1969 C1963 1.363 . S
C1969 C1964 1.379 . S
C1969 N1967 1.356 . S
N1970 C1962 1.356 . S
N1970 H1976 0.984 . S
N1970 H1977 0.984 . S
N1971 C1964 1.356 . S
N1971 H1974 0.984 . S
N1971 H1975 0.985 . S
H1972 N1967 0.984 . S
H1973 N1967 0.985 . S
H1974 N1971 0.984 . S
H1975 N1971 0.985 . S
H1976 N1970 0.984 . S
H1977 N1970 0.984 . S
H1978 N1966 0.984 . S
H1979 N1966 0.985 . S
C1980 C1981 1.363 . S
C1980 C1986 1.379 . S
C1980 N1988 1.356 . S
C1981 C1980 1.363 . S
C1981 C1987 1.363 . S
C1982 C1983 1.363 . S
C1982 C1987 1.379 . S
C1982 N1989 1.356 . S
C1983 C1982 1.363 . S
C1983 C1986 1.363 . S
N1984 C1986 1.356 . S
N1984 H1996 0.984 . S
N1984 H1997 0.985 . S
N1985 C1987 1.356 . S
N1985 H1990 0.984 . S
N1985 H1991 0.985 . S
C1986 C1980 1.379 . S
C1986 C1983 1.363 . S
C1986 N1984 1.356 . S
C1987 C1981 1.363 . S
C1987 C1982 1.379 . S
C1987 N1985 1.356 . S
N1988 C1980 1.356 . S
N1988 H1994 0.984 . S
N1988 H1995 0.984 . S
N1989 C1982 1.356 . S
N1989 H1992 0.984 . S
N1989 H1993 0.985 . S
H1990 N1985 0.984 . S
H1991 N1985 0.985 . S
H1992 N1989 0.984 . S
H1993 N1989 0.985 . S
H1994 N1988 0.984 . S
H1995 N1988 0.984 . S
H1996 N1984 0.984 . S
H1997 N1984 0.985 . S
C1998 C1999 1.363 . S
C1998 C2004 1.379 . S
C1998 N2006 1.356 . S
C1999 C1998 1.363 . S
C1999 C2005 1.363 . S
C2000 C2001 1.363 . S
C2000 C2005 1.379 . S
C2000 N2007 1.356 . S
C2001 C2000 1.363 . S
C2001 C2004 1.363 . S
N2002 C2004 1.356 . S
N2002 H2014 0.984 . S
N2002 H2015 0.985 . S
N2003 C2005 1.356 . S
N2003 H2008 0.984 . S
N2003 H2009 0.985 . S
C2004 C1998 1.379 . S
C2004 C2001 1.363 . S
C2004 N2002 1.356 . S
C2005 C1999 1.363 . S
C2005 C2000 1.379 . S
C2005 N2003 1.356 . S
N2006 C1998 1.356 . S
N2006 H2012 0.984 . S
N2006 H2013 0.984 . S
N2007 C2000 1.356 . S
N2007 H2010 0.984 . S
N2007 H2011 0.985 . S
H2008 N2003 0.984 . S
H2009 N2003 0.985 . S
H2010 N2007 0.984 . S
H2011 N2007 0.985 . S
H2012 N2006 0.984 . S
H2013 N2006 0.984 . S
H2014 N2002 0.984 . S
H2015 N2002 0.985 . S
C2016 C2017 1.363 . S
C2016 C2022 1.379 . S
C2016 N2024 1.356 . S
C2017 C2016 1.363 . S
C2017 C2023 1.363 . S
C2018 C2019 1.363 . S
C2018 C2023 1.379 . S
C2018 N2025 1.356 . S
C2019 C2018 1.363 . S
C2019 C2022 1.363 . S
N2020 C2022 1.356 . S
N2020 H2032 0.984 . S
N2020 H2033 0.985 . S
N2021 C2023 1.356 . S
N2021 H2026 0.984 . S
N2021 H2027 0.985 . S
C2022 C2016 1.379 . S
C2022 C2019 1.363 . S
C2022 N2020 1.356 . S
C2023 C2017 1.363 . S
C2023 C2018 1.379 . S
C2023 N2021 1.356 . S
N2024 C2016 1.356 . S
N2024 H2030 0.984 . S
N2024 H2031 0.984 . S
N2025 C2018 1.356 . S
N2025 H2028 0.984 . S
N2025 H2029 0.985 . S
H2026 N2021 0.984 . S
H2027 N2021 0.985 . S
H2028 N2025 0.984 . S
H2029 N2025 0.985 . S
H2030 N2024 0.984 . S
H2031 N2024 0.984 . S
H2032 N2020 0.984 . S
H2033 N2020 0.985 . S
C2034 C2035 1.363 . S
C2034 C2040 1.379 . S
C2034 N2042 1.356 . S
C2035 C2034 1.363 . S
C2035 C2041 1.363 . S
C2036 C2037 1.363 . S
C2036 C2041 1.379 . S
C2036 N2043 1.356 . S
C2037 C2036 1.363 . S
C2037 C2040 1.363 . S
N2038 C2040 1.356 . S
N2038 H2050 0.984 . S
N2038 H2051 0.985 . S
N2039 C2041 1.356 . S
N2039 H2044 0.984 . S
N2039 H2045 0.985 . S
C2040 C2034 1.379 . S
C2040 C2037 1.363 . S
C2040 N2038 1.356 . S
C2041 C2035 1.363 . S
C2041 C2036 1.379 . S
C2041 N2039 1.356 . S
N2042 C2034 1.356 . S
N2042 H2048 0.984 . S
N2042 H2049 0.984 . S
N2043 C2036 1.356 . S
N2043 H2046 0.984 . S
N2043 H2047 0.985 . S
H2044 N2039 0.984 . S
H2045 N2039 0.985 . S
H2046 N2043 0.984 . S
H2047 N2043 0.985 . S
H2048 N2042 0.984 . S
H2049 N2042 0.984 . S
H2050 N2038 0.984 . S
H2051 N2038 0.985 . S
C2052 C2053 1.363 . S
C2052 C2058 1.379 . S
C2052 N2060 1.356 . S
C2053 C2052 1.363 . S
C2053 C2059 1.363 . S
C2054 C2055 1.363 . S
C2054 C2059 1.379 . S
C2054 N2061 1.356 . S
C2055 C2054 1.363 . S
C2055 C2058 1.363 . S
N2056 C2058 1.356 . S
N2056 H2068 0.984 . S
N2056 H2069 0.985 . S
N2057 C2059 1.356 . S
N2057 H2062 0.984 . S
N2057 H2063 0.985 . S
C2058 C2052 1.379 . S
C2058 C2055 1.363 . S
C2058 N2056 1.356 . S
C2059 C2053 1.363 . S
C2059 C2054 1.379 . S
C2059 N2057 1.356 . S
N2060 C2052 1.356 . S
N2060 H2066 0.984 . S
N2060 H2067 0.984 . S
N2061 C2054 1.356 . S
N2061 H2064 0.984 . S
N2061 H2065 0.985 . S
H2062 N2057 0.984 . S
H2063 N2057 0.985 . S
H2064 N2061 0.984 . S
H2065 N2061 0.985 . S
H2066 N2060 0.984 . S
H2067 N2060 0.984 . S
H2068 N2056 0.984 . S
H2069 N2056 0.985 . S
C2070 C2071 1.363 . S
C2070 C2076 1.379 . S
C2070 N2078 1.356 . S
C2071 C2070 1.363 . S
C2071 C2077 1.363 . S
C2072 C2073 1.363 . S
C2072 C2077 1.379 . S
C2072 N2079 1.356 . S
C2073 C2072 1.363 . S
C2073 C2076 1.363 . S
N2074 C2076 1.356 . S
N2074 H2086 0.984 . S
N2074 H2087 0.985 . S
N2075 C2077 1.356 . S
N2075 H2080 0.984 . S
N2075 H2081 0.985 . S
C2076 C2070 1.379 . S
C2076 C2073 1.363 . S
C2076 N2074 1.356 . S
C2077 C2071 1.363 . S
C2077 C2072 1.379 . S
C2077 N2075 1.356 . S
N2078 C2070 1.356 . S
N2078 H2084 0.984 . S
N2078 H2085 0.984 . S
N2079 C2072 1.356 . S
N2079 H2082 0.984 . S
N2079 H2083 0.985 . S
H2080 N2075 0.984 . S
H2081 N2075 0.985 . S
H2082 N2079 0.984 . S
H2083 N2079 0.985 . S
H2084 N2078 0.984 . S
H2085 N2078 0.984 . S
H2086 N2074 0.984 . S
H2087 N2074 0.985 . S
C2088 C2089 1.363 . S
C2088 C2094 1.379 . S
C2088 N2096 1.356 . S
C2089 C2088 1.363 . S
C2089 C2095 1.363 . S
C2090 C2091 1.363 . S
C2090 C2095 1.379 . S
C2090 N2097 1.356 . S
C2091 C2090 1.363 . S
C2091 C2094 1.363 . S
N2092 C2094 1.356 . S
N2092 H2104 0.984 . S
N2092 H2105 0.985 . S
N2093 C2095 1.356 . S
N2093 H2098 0.984 . S
N2093 H2099 0.985 . S
C2094 C2088 1.379 . S
C2094 C2091 1.363 . S
C2094 N2092 1.356 . S
C2095 C2089 1.363 . S
C2095 C2090 1.379 . S
C2095 N2093 1.356 . S
N2096 C2088 1.356 . S
N2096 H2102 0.984 . S
N2096 H2103 0.984 . S
N2097 C2090 1.356 . S
N2097 H2100 0.984 . S
N2097 H2101 0.985 . S
H2098 N2093 0.984 . S
H2099 N2093 0.985 . S
H2100 N2097 0.984 . S
H2101 N2097 0.985 . S
H2102 N2096 0.984 . S
H2103 N2096 0.984 . S
H2104 N2092 0.984 . S
H2105 N2092 0.985 . S
C2106 C2107 1.363 . S
C2106 C2112 1.379 . S
C2106 N2114 1.356 . S
C2107 C2106 1.363 . S
C2107 C2113 1.363 . S
C2108 C2109 1.363 . S
C2108 C2113 1.379 . S
C2108 N2115 1.356 . S
C2109 C2108 1.363 . S
C2109 C2112 1.363 . S
N2110 C2112 1.356 . S
N2110 H2122 0.984 . S
N2110 H2123 0.985 . S
N2111 C2113 1.356 . S
N2111 H2116 0.984 . S
N2111 H2117 0.985 . S
C2112 C2106 1.379 . S
C2112 C2109 1.363 . S
C2112 N2110 1.356 . S
C2113 C2107 1.363 . S
C2113 C2108 1.379 . S
C2113 N2111 1.356 . S
N2114 C2106 1.356 . S
N2114 H2120 0.984 . S
N2114 H2121 0.984 . S
N2115 C2108 1.356 . S
N2115 H2118 0.984 . S
N2115 H2119 0.985 . S
H2116 N2111 0.984 . S
H2117 N2111 0.985 . S
H2118 N2115 0.984 . S
H2119 N2115 0.985 . S
H2120 N2114 0.984 . S
H2121 N2114 0.984 . S
H2122 N2110 0.984 . S
H2123 N2110 0.985 . S
C2124 C2125 1.363 . S
C2124 C2130 1.379 . S
C2124 N2132 1.356 . S
C2125 C2124 1.363 . S
C2125 C2131 1.363 . S
C2126 C2127 1.363 . S
C2126 C2131 1.379 . S
C2126 N2133 1.356 . S
C2127 C2126 1.363 . S
C2127 C2130 1.363 . S
N2128 C2130 1.356 . S
N2128 H2140 0.984 . S
N2128 H2141 0.985 . S
N2129 C2131 1.356 . S
N2129 H2134 0.984 . S
N2129 H2135 0.985 . S
C2130 C2124 1.379 . S
C2130 C2127 1.363 . S
C2130 N2128 1.356 . S
C2131 C2125 1.363 . S
C2131 C2126 1.379 . S
C2131 N2129 1.356 . S
N2132 C2124 1.356 . S
N2132 H2138 0.984 . S
N2132 H2139 0.984 . S
N2133 C2126 1.356 . S
N2133 H2136 0.984 . S
N2133 H2137 0.985 . S
H2134 N2129 0.984 . S
H2135 N2129 0.985 . S
H2136 N2133 0.984 . S
H2137 N2133 0.985 . S
H2138 N2132 0.984 . S
H2139 N2132 0.984 . S
H2140 N2128 0.984 . S
H2141 N2128 0.985 . S
C2142 C2143 1.363 . S
C2142 C2148 1.379 . S
C2142 N2150 1.356 . S
C2143 C2142 1.363 . S
C2143 C2149 1.363 . S
C2144 C2145 1.363 . S
C2144 C2149 1.379 . S
C2144 N2151 1.356 . S
C2145 C2144 1.363 . S
C2145 C2148 1.363 . S
N2146 C2148 1.356 . S
N2146 H2158 0.984 . S
N2146 H2159 0.985 . S
N2147 C2149 1.356 . S
N2147 H2152 0.984 . S
N2147 H2153 0.985 . S
C2148 C2142 1.379 . S
C2148 C2145 1.363 . S
C2148 N2146 1.356 . S
C2149 C2143 1.363 . S
C2149 C2144 1.379 . S
C2149 N2147 1.356 . S
N2150 C2142 1.356 . S
N2150 H2156 0.984 . S
N2150 H2157 0.984 . S
N2151 C2144 1.356 . S
N2151 H2154 0.984 . S
N2151 H2155 0.985 . S
H2152 N2147 0.984 . S
H2153 N2147 0.985 . S
H2154 N2151 0.984 . S
H2155 N2151 0.985 . S
H2156 N2150 0.984 . S
H2157 N2150 0.984 . S
H2158 N2146 0.984 . S
H2159 N2146 0.985 . S
C2160 C2161 1.363 . S
C2160 C2166 1.379 . S
C2160 N2168 1.356 . S
C2161 C2160 1.363 . S
C2161 C2167 1.363 . S
C2162 C2163 1.363 . S
C2162 C2167 1.379 . S
C2162 N2169 1.356 . S
C2163 C2162 1.363 . S
C2163 C2166 1.363 . S
N2164 C2166 1.356 . S
N2164 H2176 0.984 . S
N2164 H2177 0.985 . S
N2165 C2167 1.356 . S
N2165 H2170 0.984 . S
N2165 H2171 0.985 . S
C2166 C2160 1.379 . S
C2166 C2163 1.363 . S
C2166 N2164 1.356 . S
C2167 C2161 1.363 . S
C2167 C2162 1.379 . S
C2167 N2165 1.356 . S
N2168 C2160 1.356 . S
N2168 H2174 0.984 . S
N2168 H2175 0.984 . S
N2169 C2162 1.356 . S
N2169 H2172 0.984 . S
N2169 H2173 0.985 . S
H2170 N2165 0.984 . S
H2171 N2165 0.985 . S
H2172 N2169 0.984 . S
H2173 N2169 0.985 . S
H2174 N2168 0.984 . S
H2175 N2168 0.984 . S
H2176 N2164 0.984 . S
H2177 N2164 0.985 . S
C2178 C2179 1.363 . S
C2178 C2184 1.379 . S
C2178 N2186 1.356 . S
C2179 C2178 1.363 . S
C2179 C2185 1.363 . S
C2180 C2181 1.363 . S
C2180 C2185 1.379 . S
C2180 N2187 1.356 . S
C2181 C2180 1.363 . S
C2181 C2184 1.363 . S
N2182 C2184 1.356 . S
N2182 H2194 0.984 . S
N2182 H2195 0.985 . S
N2183 C2185 1.356 . S
N2183 H2188 0.984 . S
N2183 H2189 0.985 . S
C2184 C2178 1.379 . S
C2184 C2181 1.363 . S
C2184 N2182 1.356 . S
C2185 C2179 1.363 . S
C2185 C2180 1.379 . S
C2185 N2183 1.356 . S
N2186 C2178 1.356 . S
N2186 H2192 0.984 . S
N2186 H2193 0.984 . S
N2187 C2180 1.356 . S
N2187 H2190 0.984 . S
N2187 H2191 0.985 . S
H2188 N2183 0.984 . S
H2189 N2183 0.985 . S
H2190 N2187 0.984 . S
H2191 N2187 0.985 . S
H2192 N2186 0.984 . S
H2193 N2186 0.984 . S
H2194 N2182 0.984 . S
H2195 N2182 0.985 . S
C2196 C2197 1.363 . S
C2196 C2202 1.379 . S
C2196 N2204 1.356 . S
C2197 C2196 1.363 . S
C2197 C2203 1.363 . S
C2198 C2199 1.363 . S
C2198 C2203 1.379 . S
C2198 N2205 1.356 . S
C2199 C2198 1.363 . S
C2199 C2202 1.363 . S
N2200 C2202 1.356 . S
N2200 H2212 0.984 . S
N2200 H2213 0.985 . S
N2201 C2203 1.356 . S
N2201 H2206 0.984 . S
N2201 H2207 0.985 . S
C2202 C2196 1.379 . S
C2202 C2199 1.363 . S
C2202 N2200 1.356 . S
C2203 C2197 1.363 . S
C2203 C2198 1.379 . S
C2203 N2201 1.356 . S
N2204 C2196 1.356 . S
N2204 H2210 0.984 . S
N2204 H2211 0.984 . S
N2205 C2198 1.356 . S
N2205 H2208 0.984 . S
N2205 H2209 0.985 . S
H2206 N2201 0.984 . S
H2207 N2201 0.985 . S
H2208 N2205 0.984 . S
H2209 N2205 0.985 . S
H2210 N2204 0.984 . S
H2211 N2204 0.984 . S
H2212 N2200 0.984 . S
H2213 N2200 0.985 . S
C2214 C2215 1.363 . S
C2214 C2220 1.379 . S
C2214 N2222 1.356 . S
C2215 C2214 1.363 . S
C2215 C2221 1.363 . S
C2216 C2217 1.363 . S
C2216 C2221 1.379 . S
C2216 N2223 1.356 . S
C2217 C2216 1.363 . S
C2217 C2220 1.363 . S
N2218 C2220 1.356 . S
N2218 H2230 0.984 . S
N2218 H2231 0.985 . S
N2219 C2221 1.356 . S
N2219 H2224 0.984 . S
N2219 H2225 0.985 . S
C2220 C2214 1.379 . S
C2220 C2217 1.363 . S
C2220 N2218 1.356 . S
C2221 C2215 1.363 . S
C2221 C2216 1.379 . S
C2221 N2219 1.356 . S
N2222 C2214 1.356 . S
N2222 H2228 0.984 . S
N2222 H2229 0.984 . S
N2223 C2216 1.356 . S
N2223 H2226 0.984 . S
N2223 H2227 0.985 . S
H2224 N2219 0.984 . S
H2225 N2219 0.985 . S
H2226 N2223 0.984 . S
H2227 N2223 0.985 . S
H2228 N2222 0.984 . S
H2229 N2222 0.984 . S
H2230 N2218 0.984 . S
H2231 N2218 0.985 . S
C2232 C2233 1.363 . S
C2232 C2238 1.379 . S
C2232 N2240 1.356 . S
C2233 C2232 1.363 . S
C2233 C2239 1.363 . S
C2234 C2235 1.363 . S
C2234 C2239 1.379 . S
C2234 N2241 1.356 . S
C2235 C2234 1.363 . S
C2235 C2238 1.363 . S
N2236 C2238 1.356 . S
N2236 H2248 0.984 . S
N2236 H2249 0.985 . S
N2237 C2239 1.356 . S
N2237 H2242 0.984 . S
N2237 H2243 0.985 . S
C2238 C2232 1.379 . S
C2238 C2235 1.363 . S
C2238 N2236 1.356 . S
C2239 C2233 1.363 . S
C2239 C2234 1.379 . S
C2239 N2237 1.356 . S
N2240 C2232 1.356 . S
N2240 H2246 0.984 . S
N2240 H2247 0.984 . S
N2241 C2234 1.356 . S
N2241 H2244 0.984 . S
N2241 H2245 0.985 . S
H2242 N2237 0.984 . S
H2243 N2237 0.985 . S
H2244 N2241 0.984 . S
H2245 N2241 0.985 . S
H2246 N2240 0.984 . S
H2247 N2240 0.984 . S
H2248 N2236 0.984 . S
H2249 N2236 0.985 . S
C2250 C2251 1.363 . S
C2250 C2256 1.379 . S
C2250 N2258 1.356 . S
C2251 C2250 1.363 . S
C2251 C2257 1.363 . S
C2252 C2253 1.363 . S
C2252 C2257 1.379 . S
C2252 N2259 1.356 . S
C2253 C2252 1.363 . S
C2253 C2256 1.363 . S
N2254 C2256 1.356 . S
N2254 H2266 0.984 . S
N2254 H2267 0.985 . S
N2255 C2257 1.356 . S
N2255 H2260 0.984 . S
N2255 H2261 0.985 . S
C2256 C2250 1.379 . S
C2256 C2253 1.363 . S
C2256 N2254 1.356 . S
C2257 C2251 1.363 . S
C2257 C2252 1.379 . S
C2257 N2255 1.356 . S
N2258 C2250 1.356 . S
N2258 H2264 0.984 . S
N2258 H2265 0.984 . S
N2259 C2252 1.356 . S
N2259 H2262 0.984 . S
N2259 H2263 0.985 . S
H2260 N2255 0.984 . S
H2261 N2255 0.985 . S
H2262 N2259 0.984 . S
H2263 N2259 0.985 . S
H2264 N2258 0.984 . S
H2265 N2258 0.984 . S
H2266 N2254 0.984 . S
H2267 N2254 0.985 . S
C2268 C2269 1.363 . S
C2268 C2274 1.379 . S
C2268 N2276 1.356 . S
C2269 C2268 1.363 . S
C2269 C2275 1.363 . S
C2270 C2271 1.363 . S
C2270 C2275 1.379 . S
C2270 N2277 1.356 . S
C2271 C2270 1.363 . S
C2271 C2274 1.363 . S
N2272 C2274 1.356 . S
N2272 H2284 0.984 . S
N2272 H2285 0.985 . S
N2273 C2275 1.356 . S
N2273 H2278 0.984 . S
N2273 H2279 0.985 . S
C2274 C2268 1.379 . S
C2274 C2271 1.363 . S
C2274 N2272 1.356 . S
C2275 C2269 1.363 . S
C2275 C2270 1.379 . S
C2275 N2273 1.356 . S
N2276 C2268 1.356 . S
N2276 H2282 0.984 . S
N2276 H2283 0.984 . S
N2277 C2270 1.356 . S
N2277 H2280 0.984 . S
N2277 H2281 0.985 . S
H2278 N2273 0.984 . S
H2279 N2273 0.985 . S
H2280 N2277 0.984 . S
H2281 N2277 0.985 . S
H2282 N2276 0.984 . S
H2283 N2276 0.984 . S
H2284 N2272 0.984 . S
H2285 N2272 0.985 . S
C2286 C2287 1.363 . S
C2286 C2292 1.379 . S
C2286 N2294 1.356 . S
C2287 C2286 1.363 . S
C2287 C2293 1.363 . S
C2288 C2289 1.363 . S
C2288 C2293 1.379 . S
C2288 N2295 1.356 . S
C2289 C2288 1.363 . S
C2289 C2292 1.363 . S
N2290 C2292 1.356 . S
N2290 H2302 0.984 . S
N2290 H2303 0.985 . S
N2291 C2293 1.356 . S
N2291 H2296 0.984 . S
N2291 H2297 0.985 . S
C2292 C2286 1.379 . S
C2292 C2289 1.363 . S
C2292 N2290 1.356 . S
C2293 C2287 1.363 . S
C2293 C2288 1.379 . S
C2293 N2291 1.356 . S
N2294 C2286 1.356 . S
N2294 H2300 0.984 . S
N2294 H2301 0.984 . S
N2295 C2288 1.356 . S
N2295 H2298 0.984 . S
N2295 H2299 0.985 . S
H2296 N2291 0.984 . S
H2297 N2291 0.985 . S
H2298 N2295 0.984 . S
H2299 N2295 0.985 . S
H2300 N2294 0.984 . S
H2301 N2294 0.984 . S
H2302 N2290 0.984 . S
H2303 N2290 0.985 . S
C2304 C2305 1.363 . S
C2304 C2310 1.379 . S
C2304 N2312 1.356 . S
C2305 C2304 1.363 . S
C2305 C2311 1.363 . S
C2306 C2307 1.363 . S
C2306 C2311 1.379 . S
C2306 N2313 1.356 . S
C2307 C2306 1.363 . S
C2307 C2310 1.363 . S
N2308 C2310 1.356 . S
N2308 H2320 0.984 . S
N2308 H2321 0.985 . S
N2309 C2311 1.356 . S
N2309 H2314 0.984 . S
N2309 H2315 0.985 . S
C2310 C2304 1.379 . S
C2310 C2307 1.363 . S
C2310 N2308 1.356 . S
C2311 C2305 1.363 . S
C2311 C2306 1.379 . S
C2311 N2309 1.356 . S
N2312 C2304 1.356 . S
N2312 H2318 0.984 . S
N2312 H2319 0.984 . S
N2313 C2306 1.356 . S
N2313 H2316 0.984 . S
N2313 H2317 0.985 . S
H2314 N2309 0.984 . S
H2315 N2309 0.985 . S
H2316 N2313 0.984 . S
H2317 N2313 0.985 . S
H2318 N2312 0.984 . S
H2319 N2312 0.984 . S
H2320 N2308 0.984 . S
H2321 N2308 0.985 . S
C2322 C2323 1.363 . S
C2322 C2328 1.379 . S
C2322 N2330 1.356 . S
C2323 C2322 1.363 . S
C2323 C2329 1.363 . S
C2324 C2325 1.363 . S
C2324 C2329 1.379 . S
C2324 N2331 1.356 . S
C2325 C2324 1.363 . S
C2325 C2328 1.363 . S
N2326 C2328 1.356 . S
N2326 H2338 0.984 . S
N2326 H2339 0.985 . S
N2327 C2329 1.356 . S
N2327 H2332 0.984 . S
N2327 H2333 0.985 . S
C2328 C2322 1.379 . S
C2328 C2325 1.363 . S
C2328 N2326 1.356 . S
C2329 C2323 1.363 . S
C2329 C2324 1.379 . S
C2329 N2327 1.356 . S
N2330 C2322 1.356 . S
N2330 H2336 0.984 . S
N2330 H2337 0.984 . S
N2331 C2324 1.356 . S
N2331 H2334 0.984 . S
N2331 H2335 0.985 . S
H2332 N2327 0.984 . S
H2333 N2327 0.985 . S
H2334 N2331 0.984 . S
H2335 N2331 0.985 . S
H2336 N2330 0.984 . S
H2337 N2330 0.984 . S
H2338 N2326 0.984 . S
H2339 N2326 0.985 . S
C2340 C2341 1.363 . S
C2340 C2346 1.379 . S
C2340 N2348 1.356 . S
C2341 C2340 1.363 . S
C2341 C2347 1.363 . S
C2342 C2343 1.363 . S
C2342 C2347 1.379 . S
C2342 N2349 1.356 . S
C2343 C2342 1.363 . S
C2343 C2346 1.363 . S
N2344 C2346 1.356 . S
N2344 H2356 0.984 . S
N2344 H2357 0.985 . S
N2345 C2347 1.356 . S
N2345 H2350 0.984 . S
N2345 H2351 0.985 . S
C2346 C2340 1.379 . S
C2346 C2343 1.363 . S
C2346 N2344 1.356 . S
C2347 C2341 1.363 . S
C2347 C2342 1.379 . S
C2347 N2345 1.356 . S
N2348 C2340 1.356 . S
N2348 H2354 0.984 . S
N2348 H2355 0.984 . S
N2349 C2342 1.356 . S
N2349 H2352 0.984 . S
N2349 H2353 0.985 . S
H2350 N2345 0.984 . S
H2351 N2345 0.985 . S
H2352 N2349 0.984 . S
H2353 N2349 0.985 . S
H2354 N2348 0.984 . S
H2355 N2348 0.984 . S
H2356 N2344 0.984 . S
H2357 N2344 0.985 . S
C2358 C2359 1.363 . S
C2358 C2364 1.379 . S
C2358 N2366 1.356 . S
C2359 C2358 1.363 . S
C2359 C2365 1.363 . S
C2360 C2361 1.363 . S
C2360 C2365 1.379 . S
C2360 N2367 1.356 . S
C2361 C2360 1.363 . S
C2361 C2364 1.363 . S
N2362 C2364 1.356 . S
N2362 H2374 0.984 . S
N2362 H2375 0.985 . S
N2363 C2365 1.356 . S
N2363 H2368 0.984 . S
N2363 H2369 0.985 . S
C2364 C2358 1.379 . S
C2364 C2361 1.363 . S
C2364 N2362 1.356 . S
C2365 C2359 1.363 . S
C2365 C2360 1.379 . S
C2365 N2363 1.356 . S
N2366 C2358 1.356 . S
N2366 H2372 0.984 . S
N2366 H2373 0.984 . S
N2367 C2360 1.356 . S
N2367 H2370 0.984 . S
N2367 H2371 0.985 . S
H2368 N2363 0.984 . S
H2369 N2363 0.985 . S
H2370 N2367 0.984 . S
H2371 N2367 0.985 . S
H2372 N2366 0.984 . S
H2373 N2366 0.984 . S
H2374 N2362 0.984 . S
H2375 N2362 0.985 . S
C2376 C2377 1.363 . S
C2376 C2382 1.379 . S
C2376 N2384 1.356 . S
C2377 C2376 1.363 . S
C2377 C2383 1.363 . S
C2378 C2379 1.363 . S
C2378 C2383 1.379 . S
C2378 N2385 1.356 . S
C2379 C2378 1.363 . S
C2379 C2382 1.363 . S
N2380 C2382 1.356 . S
N2380 H2392 0.984 . S
N2380 H2393 0.985 . S
N2381 C2383 1.356 . S
N2381 H2386 0.984 . S
N2381 H2387 0.985 . S
C2382 C2376 1.379 . S
C2382 C2379 1.363 . S
C2382 N2380 1.356 . S
C2383 C2377 1.363 . S
C2383 C2378 1.379 . S
C2383 N2381 1.356 . S
N2384 C2376 1.356 . S
N2384 H2390 0.984 . S
N2384 H2391 0.984 . S
N2385 C2378 1.356 . S
N2385 H2388 0.984 . S
N2385 H2389 0.985 . S
H2386 N2381 0.984 . S
H2387 N2381 0.985 . S
H2388 N2385 0.984 . S
H2389 N2385 0.985 . S
H2390 N2384 0.984 . S
H2391 N2384 0.984 . S
H2392 N2380 0.984 . S
H2393 N2380 0.985 . S
C2394 C2395 1.363 . S
C2394 C2400 1.379 . S
C2394 N2402 1.356 . S
C2395 C2394 1.363 . S
C2395 C2401 1.363 . S
C2396 C2397 1.363 . S
C2396 C2401 1.379 . S
C2396 N2403 1.356 . S
C2397 C2396 1.363 . S
C2397 C2400 1.363 . S
N2398 C2400 1.356 . S
N2398 H2410 0.984 . S
N2398 H2411 0.985 . S
N2399 C2401 1.356 . S
N2399 H2404 0.984 . S
N2399 H2405 0.985 . S
C2400 C2394 1.379 . S
C2400 C2397 1.363 . S
C2400 N2398 1.356 . S
C2401 C2395 1.363 . S
C2401 C2396 1.379 . S
C2401 N2399 1.356 . S
N2402 C2394 1.356 . S
N2402 H2408 0.984 . S
N2402 H2409 0.984 . S
N2403 C2396 1.356 . S
N2403 H2406 0.984 . S
N2403 H2407 0.985 . S
H2404 N2399 0.984 . S
H2405 N2399 0.985 . S
H2406 N2403 0.984 . S
H2407 N2403 0.985 . S
H2408 N2402 0.984 . S
H2409 N2402 0.984 . S
H2410 N2398 0.984 . S
H2411 N2398 0.985 . S
C2412 C2413 1.363 . S
C2412 C2418 1.379 . S
C2412 N2420 1.356 . S
C2413 C2412 1.363 . S
C2413 C2419 1.363 . S
C2414 C2415 1.363 . S
C2414 C2419 1.379 . S
C2414 N2421 1.356 . S
C2415 C2414 1.363 . S
C2415 C2418 1.363 . S
N2416 C2418 1.356 . S
N2416 H2428 0.984 . S
N2416 H2429 0.985 . S
N2417 C2419 1.356 . S
N2417 H2422 0.984 . S
N2417 H2423 0.985 . S
C2418 C2412 1.379 . S
C2418 C2415 1.363 . S
C2418 N2416 1.356 . S
C2419 C2413 1.363 . S
C2419 C2414 1.379 . S
C2419 N2417 1.356 . S
N2420 C2412 1.356 . S
N2420 H2426 0.984 . S
N2420 H2427 0.984 . S
N2421 C2414 1.356 . S
N2421 H2424 0.984 . S
N2421 H2425 0.985 . S
H2422 N2417 0.984 . S
H2423 N2417 0.985 . S
H2424 N2421 0.984 . S
H2425 N2421 0.985 . S
H2426 N2420 0.984 . S
H2427 N2420 0.984 . S
H2428 N2416 0.984 . S
H2429 N2416 0.985 . S
C2430 C2431 1.363 . S
C2430 C2436 1.379 . S
C2430 N2438 1.356 . S
C2431 C2430 1.363 . S
C2431 C2437 1.363 . S
C2432 C2433 1.363 . S
C2432 C2437 1.379 . S
C2432 N2439 1.356 . S
C2433 C2432 1.363 . S
C2433 C2436 1.363 . S
N2434 C2436 1.356 . S
N2434 H2446 0.984 . S
N2434 H2447 0.985 . S
N2435 C2437 1.356 . S
N2435 H2440 0.984 . S
N2435 H2441 0.985 . S
C2436 C2430 1.379 . S
C2436 C2433 1.363 . S
C2436 N2434 1.356 . S
C2437 C2431 1.363 . S
C2437 C2432 1.379 . S
C2437 N2435 1.356 . S
N2438 C2430 1.356 . S
N2438 H2444 0.984 . S
N2438 H2445 0.984 . S
N2439 C2432 1.356 . S
N2439 H2442 0.984 . S
N2439 H2443 0.985 . S
H2440 N2435 0.984 . S
H2441 N2435 0.985 . S
H2442 N2439 0.984 . S
H2443 N2439 0.985 . S
H2444 N2438 0.984 . S
H2445 N2438 0.984 . S
H2446 N2434 0.984 . S
H2447 N2434 0.985 . S
C2448 C2449 1.363 . S
C2448 C2454 1.379 . S
C2448 N2456 1.356 . S
C2449 C2448 1.363 . S
C2449 C2455 1.363 . S
C2450 C2451 1.363 . S
C2450 C2455 1.379 . S
C2450 N2457 1.356 . S
C2451 C2450 1.363 . S
C2451 C2454 1.363 . S
N2452 C2454 1.356 . S
N2452 H2464 0.984 . S
N2452 H2465 0.985 . S
N2453 C2455 1.356 . S
N2453 H2458 0.984 . S
N2453 H2459 0.985 . S
C2454 C2448 1.379 . S
C2454 C2451 1.363 . S
C2454 N2452 1.356 . S
C2455 C2449 1.363 . S
C2455 C2450 1.379 . S
C2455 N2453 1.356 . S
N2456 C2448 1.356 . S
N2456 H2462 0.984 . S
N2456 H2463 0.984 . S
N2457 C2450 1.356 . S
N2457 H2460 0.984 . S
N2457 H2461 0.985 . S
H2458 N2453 0.984 . S
H2459 N2453 0.985 . S
H2460 N2457 0.984 . S
H2461 N2457 0.985 . S
H2462 N2456 0.984 . S
H2463 N2456 0.984 . S
H2464 N2452 0.984 . S
H2465 N2452 0.985 . S
C2466 C2467 1.363 . S
C2466 C2472 1.379 . S
C2466 N2474 1.356 . S
C2467 C2466 1.363 . S
C2467 C2473 1.363 . S
C2468 C2469 1.363 . S
C2468 C2473 1.379 . S
C2468 N2475 1.356 . S
C2469 C2468 1.363 . S
C2469 C2472 1.363 . S
N2470 C2472 1.356 . S
N2470 H2482 0.984 . S
N2470 H2483 0.985 . S
N2471 C2473 1.356 . S
N2471 H2476 0.984 . S
N2471 H2477 0.985 . S
C2472 C2466 1.379 . S
C2472 C2469 1.363 . S
C2472 N2470 1.356 . S
C2473 C2467 1.363 . S
C2473 C2468 1.379 . S
C2473 N2471 1.356 . S
N2474 C2466 1.356 . S
N2474 H2480 0.984 . S
N2474 H2481 0.984 . S
N2475 C2468 1.356 . S
N2475 H2478 0.984 . S
N2475 H2479 0.985 . S
H2476 N2471 0.984 . S
H2477 N2471 0.985 . S
H2478 N2475 0.984 . S
H2479 N2475 0.985 . S
H2480 N2474 0.984 . S
H2481 N2474 0.984 . S
H2482 N2470 0.984 . S
H2483 N2470 0.985 . S
C2484 C2485 1.363 . S
C2484 C2490 1.379 . S
C2484 N2492 1.356 . S
C2485 C2484 1.363 . S
C2485 C2491 1.363 . S
C2486 C2487 1.363 . S
C2486 C2491 1.379 . S
C2486 N2493 1.356 . S
C2487 C2486 1.363 . S
C2487 C2490 1.363 . S
N2488 C2490 1.356 . S
N2488 H2500 0.984 . S
N2488 H2501 0.985 . S
N2489 C2491 1.356 . S
N2489 H2494 0.984 . S
N2489 H2495 0.985 . S
C2490 C2484 1.379 . S
C2490 C2487 1.363 . S
C2490 N2488 1.356 . S
C2491 C2485 1.363 . S
C2491 C2486 1.379 . S
C2491 N2489 1.356 . S
N2492 C2484 1.356 . S
N2492 H2498 0.984 . S
N2492 H2499 0.984 . S
N2493 C2486 1.356 . S
N2493 H2496 0.984 . S
N2493 H2497 0.985 . S
H2494 N2489 0.984 . S
H2495 N2489 0.985 . S
H2496 N2493 0.984 . S
H2497 N2493 0.985 . S
H2498 N2492 0.984 . S
H2499 N2492 0.984 . S
H2500 N2488 0.984 . S
H2501 N2488 0.985 . S
C2502 C2503 1.363 . S
C2502 C2508 1.379 . S
C2502 N2510 1.356 . S
C2503 C2502 1.363 . S
C2503 C2509 1.363 . S
C2504 C2505 1.363 . S
C2504 C2509 1.379 . S
C2504 N2511 1.356 . S
C2505 C2504 1.363 . S
C2505 C2508 1.363 . S
N2506 C2508 1.356 . S
N2506 H2518 0.984 . S
N2506 H2519 0.985 . S
N2507 C2509 1.356 . S
N2507 H2512 0.984 . S
N2507 H2513 0.985 . S
C2508 C2502 1.379 . S
C2508 C2505 1.363 . S
C2508 N2506 1.356 . S
C2509 C2503 1.363 . S
C2509 C2504 1.379 . S
C2509 N2507 1.356 . S
N2510 C2502 1.356 . S
N2510 H2516 0.984 . S
N2510 H2517 0.984 . S
N2511 C2504 1.356 . S
N2511 H2514 0.984 . S
N2511 H2515 0.985 . S
H2512 N2507 0.984 . S
H2513 N2507 0.985 . S
H2514 N2511 0.984 . S
H2515 N2511 0.985 . S
H2516 N2510 0.984 . S
H2517 N2510 0.984 . S
H2518 N2506 0.984 . S
H2519 N2506 0.985 . S
C2520 C2521 1.363 . S
C2520 C2526 1.379 . S
C2520 N2528 1.356 . S
C2521 C2520 1.363 . S
C2521 C2527 1.363 . S
C2522 C2523 1.363 . S
C2522 C2527 1.379 . S
C2522 N2529 1.356 . S
C2523 C2522 1.363 . S
C2523 C2526 1.363 . S
N2524 C2526 1.356 . S
N2524 H2536 0.984 . S
N2524 H2537 0.985 . S
N2525 C2527 1.356 . S
N2525 H2530 0.984 . S
N2525 H2531 0.985 . S
C2526 C2520 1.379 . S
C2526 C2523 1.363 . S
C2526 N2524 1.356 . S
C2527 C2521 1.363 . S
C2527 C2522 1.379 . S
C2527 N2525 1.356 . S
N2528 C2520 1.356 . S
N2528 H2534 0.984 . S
N2528 H2535 0.984 . S
N2529 C2522 1.356 . S
N2529 H2532 0.984 . S
N2529 H2533 0.985 . S
H2530 N2525 0.984 . S
H2531 N2525 0.985 . S
H2532 N2529 0.984 . S
H2533 N2529 0.985 . S
H2534 N2528 0.984 . S
H2535 N2528 0.984 . S
H2536 N2524 0.984 . S
H2537 N2524 0.985 . S
C2538 C2539 1.363 . S
C2538 C2544 1.379 . S
C2538 N2546 1.356 . S
C2539 C2538 1.363 . S
C2539 C2545 1.363 . S
C2540 C2541 1.363 . S
C2540 C2545 1.379 . S
C2540 N2547 1.356 . S
C2541 C2540 1.363 . S
C2541 C2544 1.363 . S
N2542 C2544 1.356 . S
N2542 H2554 0.984 . S
N2542 H2555 0.985 . S
N2543 C2545 1.356 . S
N2543 H2548 0.984 . S
N2543 H2549 0.985 . S
C2544 C2538 1.379 . S
C2544 C2541 1.363 . S
C2544 N2542 1.356 . S
C2545 C2539 1.363 . S
C2545 C2540 1.379 . S
C2545 N2543 1.356 . S
N2546 C2538 1.356 . S
N2546 H2552 0.984 . S
N2546 H2553 0.984 . S
N2547 C2540 1.356 . S
N2547 H2550 0.984 . S
N2547 H2551 0.985 . S
H2548 N2543 0.984 . S
H2549 N2543 0.985 . S
H2550 N2547 0.984 . S
H2551 N2547 0.985 . S
H2552 N2546 0.984 . S
H2553 N2546 0.984 . S
H2554 N2542 0.984 . S
H2555 N2542 0.985 . S
C2556 C2557 1.363 . S
C2556 C2562 1.379 . S
C2556 N2564 1.356 . S
C2557 C2556 1.363 . S
C2557 C2563 1.363 . S
C2558 C2559 1.363 . S
C2558 C2563 1.379 . S
C2558 N2565 1.356 . S
C2559 C2558 1.363 . S
C2559 C2562 1.363 . S
N2560 C2562 1.356 . S
N2560 H2572 0.984 . S
N2560 H2573 0.985 . S
N2561 C2563 1.356 . S
N2561 H2566 0.984 . S
N2561 H2567 0.985 . S
C2562 C2556 1.379 . S
C2562 C2559 1.363 . S
C2562 N2560 1.356 . S
C2563 C2557 1.363 . S
C2563 C2558 1.379 . S
C2563 N2561 1.356 . S
N2564 C2556 1.356 . S
N2564 H2570 0.984 . S
N2564 H2571 0.984 . S
N2565 C2558 1.356 . S
N2565 H2568 0.984 . S
N2565 H2569 0.985 . S
H2566 N2561 0.984 . S
H2567 N2561 0.985 . S
H2568 N2565 0.984 . S
H2569 N2565 0.985 . S
H2570 N2564 0.984 . S
H2571 N2564 0.984 . S
H2572 N2560 0.984 . S
H2573 N2560 0.985 . S
C2574 C2575 1.363 . S
C2574 C2580 1.379 . S
C2574 N2582 1.356 . S
C2575 C2574 1.363 . S
C2575 C2581 1.363 . S
C2576 C2577 1.363 . S
C2576 C2581 1.379 . S
C2576 N2583 1.356 . S
C2577 C2576 1.363 . S
C2577 C2580 1.363 . S
N2578 C2580 1.356 . S
N2578 H2590 0.984 . S
N2578 H2591 0.985 . S
N2579 C2581 1.356 . S
N2579 H2584 0.984 . S
N2579 H2585 0.985 . S
C2580 C2574 1.379 . S
C2580 C2577 1.363 . S
C2580 N2578 1.356 . S
C2581 C2575 1.363 . S
C2581 C2576 1.379 . S
C2581 N2579 1.356 . S
N2582 C2574 1.356 . S
N2582 H2588 0.984 . S
N2582 H2589 0.984 . S
N2583 C2576 1.356 . S
N2583 H2586 0.984 . S
N2583 H2587 0.985 . S
H2584 N2579 0.984 . S
H2585 N2579 0.985 . S
H2586 N2583 0.984 . S
H2587 N2583 0.985 . S
H2588 N2582 0.984 . S
H2589 N2582 0.984 . S
H2590 N2578 0.984 . S
H2591 N2578 0.985 . S
C2592 C2593 1.363 . S
C2592 C2598 1.379 . S
C2592 N2600 1.356 . S
C2593 C2592 1.363 . S
C2593 C2599 1.363 . S
C2594 C2595 1.363 . S
C2594 C2599 1.379 . S
C2594 N2601 1.356 . S
C2595 C2594 1.363 . S
C2595 C2598 1.363 . S
N2596 C2598 1.356 . S
N2596 H2608 0.984 . S
N2596 H2609 0.985 . S
N2597 C2599 1.356 . S
N2597 H2602 0.984 . S
N2597 H2603 0.985 . S
C2598 C2592 1.379 . S
C2598 C2595 1.363 . S
C2598 N2596 1.356 . S
C2599 C2593 1.363 . S
C2599 C2594 1.379 . S
C2599 N2597 1.356 . S
N2600 C2592 1.356 . S
N2600 H2606 0.984 . S
N2600 H2607 0.984 . S
N2601 C2594 1.356 . S
N2601 H2604 0.984 . S
N2601 H2605 0.985 . S
H2602 N2597 0.984 . S
H2603 N2597 0.985 . S
H2604 N2601 0.984 . S
H2605 N2601 0.985 . S
H2606 N2600 0.984 . S
H2607 N2600 0.984 . S
H2608 N2596 0.984 . S
H2609 N2596 0.985 . S
C2610 C2611 1.363 . S
C2610 C2616 1.379 . S
C2610 N2618 1.356 . S
C2611 C2610 1.363 . S
C2611 C2617 1.363 . S
C2612 C2613 1.363 . S
C2612 C2617 1.379 . S
C2612 N2619 1.356 . S
C2613 C2612 1.363 . S
C2613 C2616 1.363 . S
N2614 C2616 1.356 . S
N2614 H2626 0.984 . S
N2614 H2627 0.985 . S
N2615 C2617 1.356 . S
N2615 H2620 0.984 . S
N2615 H2621 0.985 . S
C2616 C2610 1.379 . S
C2616 C2613 1.363 . S
C2616 N2614 1.356 . S
C2617 C2611 1.363 . S
C2617 C2612 1.379 . S
C2617 N2615 1.356 . S
N2618 C2610 1.356 . S
N2618 H2624 0.984 . S
N2618 H2625 0.984 . S
N2619 C2612 1.356 . S
N2619 H2622 0.984 . S
N2619 H2623 0.985 . S
H2620 N2615 0.984 . S
H2621 N2615 0.985 . S
H2622 N2619 0.984 . S
H2623 N2619 0.985 . S
H2624 N2618 0.984 . S
H2625 N2618 0.984 . S
H2626 N2614 0.984 . S
H2627 N2614 0.985 . S
C2628 C2629 1.363 . S
C2628 C2634 1.379 . S
C2628 N2636 1.356 . S
C2629 C2628 1.363 . S
C2629 C2635 1.363 . S
C2630 C2631 1.363 . S
C2630 C2635 1.379 . S
C2630 N2637 1.356 . S
C2631 C2630 1.363 . S
C2631 C2634 1.363 . S
N2632 C2634 1.356 . S
N2632 H2644 0.984 . S
N2632 H2645 0.985 . S
N2633 C2635 1.356 . S
N2633 H2638 0.984 . S
N2633 H2639 0.985 . S
C2634 C2628 1.379 . S
C2634 C2631 1.363 . S
C2634 N2632 1.356 . S
C2635 C2629 1.363 . S
C2635 C2630 1.379 . S
C2635 N2633 1.356 . S
N2636 C2628 1.356 . S
N2636 H2642 0.984 . S
N2636 H2643 0.984 . S
N2637 C2630 1.356 . S
N2637 H2640 0.984 . S
N2637 H2641 0.985 . S
H2638 N2633 0.984 . S
H2639 N2633 0.985 . S
H2640 N2637 0.984 . S
H2641 N2637 0.985 . S
H2642 N2636 0.984 . S
H2643 N2636 0.984 . S
H2644 N2632 0.984 . S
H2645 N2632 0.985 . S
C2646 C2647 1.363 . S
C2646 C2652 1.379 . S
C2646 N2654 1.356 . S
C2647 C2646 1.363 . S
C2647 C2653 1.363 . S
C2648 C2649 1.363 . S
C2648 C2653 1.379 . S
C2648 N2655 1.356 . S
C2649 C2648 1.363 . S
C2649 C2652 1.363 . S
N2650 C2652 1.356 . S
N2650 H2662 0.984 . S
N2650 H2663 0.985 . S
N2651 C2653 1.356 . S
N2651 H2656 0.984 . S
N2651 H2657 0.985 . S
C2652 C2646 1.379 . S
C2652 C2649 1.363 . S
C2652 N2650 1.356 . S
C2653 C2647 1.363 . S
C2653 C2648 1.379 . S
C2653 N2651 1.356 . S
N2654 C2646 1.356 . S
N2654 H2660 0.984 . S
N2654 H2661 0.984 . S
N2655 C2648 1.356 . S
N2655 H2658 0.984 . S
N2655 H2659 0.985 . S
H2656 N2651 0.984 . S
H2657 N2651 0.985 . S
H2658 N2655 0.984 . S
H2659 N2655 0.985 . S
H2660 N2654 0.984 . S
H2661 N2654 0.984 . S
H2662 N2650 0.984 . S
H2663 N2650 0.985 . S
C2664 C2665 1.363 . S
C2664 C2670 1.379 . S
C2664 N2672 1.356 . S
C2665 C2664 1.363 . S
C2665 C2671 1.363 . S
C2666 C2667 1.363 . S
C2666 C2671 1.379 . S
C2666 N2673 1.356 . S
C2667 C2666 1.363 . S
C2667 C2670 1.363 . S
N2668 C2670 1.356 . S
N2668 H2680 0.984 . S
N2668 H2681 0.985 . S
N2669 C2671 1.356 . S
N2669 H2674 0.984 . S
N2669 H2675 0.985 . S
C2670 C2664 1.379 . S
C2670 C2667 1.363 . S
C2670 N2668 1.356 . S
C2671 C2665 1.363 . S
C2671 C2666 1.379 . S
C2671 N2669 1.356 . S
N2672 C2664 1.356 . S
N2672 H2678 0.984 . S
N2672 H2679 0.984 . S
N2673 C2666 1.356 . S
N2673 H2676 0.984 . S
N2673 H2677 0.985 . S
H2674 N2669 0.984 . S
H2675 N2669 0.985 . S
H2676 N2673 0.984 . S
H2677 N2673 0.985 . S
H2678 N2672 0.984 . S
H2679 N2672 0.984 . S
H2680 N2668 0.984 . S
H2681 N2668 0.985 . S
C2682 C2683 1.363 . S
C2682 C2688 1.379 . S
C2682 N2690 1.356 . S
C2683 C2682 1.363 . S
C2683 C2689 1.363 . S
C2684 C2685 1.363 . S
C2684 C2689 1.379 . S
C2684 N2691 1.356 . S
C2685 C2684 1.363 . S
C2685 C2688 1.363 . S
N2686 C2688 1.356 . S
N2686 H2698 0.984 . S
N2686 H2699 0.985 . S
N2687 C2689 1.356 . S
N2687 H2692 0.984 . S
N2687 H2693 0.985 . S
C2688 C2682 1.379 . S
C2688 C2685 1.363 . S
C2688 N2686 1.356 . S
C2689 C2683 1.363 . S
C2689 C2684 1.379 . S
C2689 N2687 1.356 . S
N2690 C2682 1.356 . S
N2690 H2696 0.984 . S
N2690 H2697 0.984 . S
N2691 C2684 1.356 . S
N2691 H2694 0.984 . S
N2691 H2695 0.985 . S
H2692 N2687 0.984 . S
H2693 N2687 0.985 . S
H2694 N2691 0.984 . S
H2695 N2691 0.985 . S
H2696 N2690 0.984 . S
H2697 N2690 0.984 . S
H2698 N2686 0.984 . S
H2699 N2686 0.985 . S
C2700 C2701 1.363 . S
C2700 C2706 1.379 . S
C2700 N2708 1.356 . S
C2701 C2700 1.363 . S
C2701 C2707 1.363 . S
C2702 C2703 1.363 . S
C2702 C2707 1.379 . S
C2702 N2709 1.356 . S
C2703 C2702 1.363 . S
C2703 C2706 1.363 . S
N2704 C2706 1.356 . S
N2704 H2716 0.984 . S
N2704 H2717 0.985 . S
N2705 C2707 1.356 . S
N2705 H2710 0.984 . S
N2705 H2711 0.985 . S
C2706 C2700 1.379 . S
C2706 C2703 1.363 . S
C2706 N2704 1.356 . S
C2707 C2701 1.363 . S
C2707 C2702 1.379 . S
C2707 N2705 1.356 . S
N2708 C2700 1.356 . S
N2708 H2714 0.984 . S
N2708 H2715 0.984 . S
N2709 C2702 1.356 . S
N2709 H2712 0.984 . S
N2709 H2713 0.985 . S
H2710 N2705 0.984 . S
H2711 N2705 0.985 . S
H2712 N2709 0.984 . S
H2713 N2709 0.985 . S
H2714 N2708 0.984 . S
H2715 N2708 0.984 . S
H2716 N2704 0.984 . S
H2717 N2704 0.985 . S
C2718 C2719 1.363 . S
C2718 C2724 1.379 . S
C2718 N2726 1.356 . S
C2719 C2718 1.363 . S
C2719 C2725 1.363 . S
C2720 C2721 1.363 . S
C2720 C2725 1.379 . S
C2720 N2727 1.356 . S
C2721 C2720 1.363 . S
C2721 C2724 1.363 . S
N2722 C2724 1.356 . S
N2722 H2734 0.984 . S
N2722 H2735 0.985 . S
N2723 C2725 1.356 . S
N2723 H2728 0.984 . S
N2723 H2729 0.985 . S
C2724 C2718 1.379 . S
C2724 C2721 1.363 . S
C2724 N2722 1.356 . S
C2725 C2719 1.363 . S
C2725 C2720 1.379 . S
C2725 N2723 1.356 . S
N2726 C2718 1.356 . S
N2726 H2732 0.984 . S
N2726 H2733 0.984 . S
N2727 C2720 1.356 . S
N2727 H2730 0.984 . S
N2727 H2731 0.985 . S
H2728 N2723 0.984 . S
H2729 N2723 0.985 . S
H2730 N2727 0.984 . S
H2731 N2727 0.985 . S
H2732 N2726 0.984 . S
H2733 N2726 0.984 . S
H2734 N2722 0.984 . S
H2735 N2722 0.985 . S
C2736 C2737 1.363 . S
C2736 C2742 1.379 . S
C2736 N2744 1.356 . S
C2737 C2736 1.363 . S
C2737 C2743 1.363 . S
C2738 C2739 1.363 . S
C2738 C2743 1.379 . S
C2738 N2745 1.356 . S
C2739 C2738 1.363 . S
C2739 C2742 1.363 . S
N2740 C2742 1.356 . S
N2740 H2752 0.984 . S
N2740 H2753 0.985 . S
N2741 C2743 1.356 . S
N2741 H2746 0.984 . S
N2741 H2747 0.985 . S
C2742 C2736 1.379 . S
C2742 C2739 1.363 . S
C2742 N2740 1.356 . S
C2743 C2737 1.363 . S
C2743 C2738 1.379 . S
C2743 N2741 1.356 . S
N2744 C2736 1.356 . S
N2744 H2750 0.984 . S
N2744 H2751 0.984 . S
N2745 C2738 1.356 . S
N2745 H2748 0.984 . S
N2745 H2749 0.985 . S
H2746 N2741 0.984 . S
H2747 N2741 0.985 . S
H2748 N2745 0.984 . S
H2749 N2745 0.985 . S
H2750 N2744 0.984 . S
H2751 N2744 0.984 . S
H2752 N2740 0.984 . S
H2753 N2740 0.985 . S
C2754 C2755 1.363 . S
C2754 C2760 1.379 . S
C2754 N2762 1.356 . S
C2755 C2754 1.363 . S
C2755 C2761 1.363 . S
C2756 C2757 1.363 . S
C2756 C2761 1.379 . S
C2756 N2763 1.356 . S
C2757 C2756 1.363 . S
C2757 C2760 1.363 . S
N2758 C2760 1.356 . S
N2758 H2770 0.984 . S
N2758 H2771 0.985 . S
N2759 C2761 1.356 . S
N2759 H2764 0.984 . S
N2759 H2765 0.985 . S
C2760 C2754 1.379 . S
C2760 C2757 1.363 . S
C2760 N2758 1.356 . S
C2761 C2755 1.363 . S
C2761 C2756 1.379 . S
C2761 N2759 1.356 . S
N2762 C2754 1.356 . S
N2762 H2768 0.984 . S
N2762 H2769 0.984 . S
N2763 C2756 1.356 . S
N2763 H2766 0.984 . S
N2763 H2767 0.985 . S
H2764 N2759 0.984 . S
H2765 N2759 0.985 . S
H2766 N2763 0.984 . S
H2767 N2763 0.985 . S
H2768 N2762 0.984 . S
H2769 N2762 0.984 . S
H2770 N2758 0.984 . S
H2771 N2758 0.985 . S
C2772 C2773 1.363 . S
C2772 C2778 1.379 . S
C2772 N2780 1.356 . S
C2773 C2772 1.363 . S
C2773 C2779 1.363 . S
C2774 C2775 1.363 . S
C2774 C2779 1.379 . S
C2774 N2781 1.356 . S
C2775 C2774 1.363 . S
C2775 C2778 1.363 . S
N2776 C2778 1.356 . S
N2776 H2788 0.984 . S
N2776 H2789 0.985 . S
N2777 C2779 1.356 . S
N2777 H2782 0.984 . S
N2777 H2783 0.985 . S
C2778 C2772 1.379 . S
C2778 C2775 1.363 . S
C2778 N2776 1.356 . S
C2779 C2773 1.363 . S
C2779 C2774 1.379 . S
C2779 N2777 1.356 . S
N2780 C2772 1.356 . S
N2780 H2786 0.984 . S
N2780 H2787 0.984 . S
N2781 C2774 1.356 . S
N2781 H2784 0.984 . S
N2781 H2785 0.985 . S
H2782 N2777 0.984 . S
H2783 N2777 0.985 . S
H2784 N2781 0.984 . S
H2785 N2781 0.985 . S
H2786 N2780 0.984 . S
H2787 N2780 0.984 . S
H2788 N2776 0.984 . S
H2789 N2776 0.985 . S
C2790 C2791 1.363 . S
C2790 C2796 1.379 . S
C2790 N2798 1.356 . S
C2791 C2790 1.363 . S
C2791 C2797 1.363 . S
C2792 C2793 1.363 . S
C2792 C2797 1.379 . S
C2792 N2799 1.356 . S
C2793 C2792 1.363 . S
C2793 C2796 1.363 . S
N2794 C2796 1.356 . S
N2794 H2806 0.984 . S
N2794 H2807 0.985 . S
N2795 C2797 1.356 . S
N2795 H2800 0.984 . S
N2795 H2801 0.985 . S
C2796 C2790 1.379 . S
C2796 C2793 1.363 . S
C2796 N2794 1.356 . S
C2797 C2791 1.363 . S
C2797 C2792 1.379 . S
C2797 N2795 1.356 . S
N2798 C2790 1.356 . S
N2798 H2804 0.984 . S
N2798 H2805 0.984 . S
N2799 C2792 1.356 . S
N2799 H2802 0.984 . S
N2799 H2803 0.985 . S
H2800 N2795 0.984 . S
H2801 N2795 0.985 . S
H2802 N2799 0.984 . S
H2803 N2799 0.985 . S
H2804 N2798 0.984 . S
H2805 N2798 0.984 . S
H2806 N2794 0.984 . S
H2807 N2794 0.985 . S
C2808 C2809 1.363 . S
C2808 C2814 1.379 . S
C2808 N2816 1.356 . S
C2809 C2808 1.363 . S
C2809 C2815 1.363 . S
C2810 C2811 1.363 . S
C2810 C2815 1.379 . S
C2810 N2817 1.356 . S
C2811 C2810 1.363 . S
C2811 C2814 1.363 . S
N2812 C2814 1.356 . S
N2812 H2824 0.984 . S
N2812 H2825 0.985 . S
N2813 C2815 1.356 . S
N2813 H2818 0.984 . S
N2813 H2819 0.985 . S
C2814 C2808 1.379 . S
C2814 C2811 1.363 . S
C2814 N2812 1.356 . S
C2815 C2809 1.363 . S
C2815 C2810 1.379 . S
C2815 N2813 1.356 . S
N2816 C2808 1.356 . S
N2816 H2822 0.984 . S
N2816 H2823 0.984 . S
N2817 C2810 1.356 . S
N2817 H2820 0.984 . S
N2817 H2821 0.985 . S
H2818 N2813 0.984 . S
H2819 N2813 0.985 . S
H2820 N2817 0.984 . S
H2821 N2817 0.985 . S
H2822 N2816 0.984 . S
H2823 N2816 0.984 . S
H2824 N2812 0.984 . S
H2825 N2812 0.985 . S
C2826 C2827 1.363 . S
C2826 C2832 1.379 . S
C2826 N2834 1.356 . S
C2827 C2826 1.363 . S
C2827 C2833 1.363 . S
C2828 C2829 1.363 . S
C2828 C2833 1.379 . S
C2828 N2835 1.356 . S
C2829 C2828 1.363 . S
C2829 C2832 1.363 . S
N2830 C2832 1.356 . S
N2830 H2842 0.984 . S
N2830 H2843 0.985 . S
N2831 C2833 1.356 . S
N2831 H2836 0.984 . S
N2831 H2837 0.985 . S
C2832 C2826 1.379 . S
C2832 C2829 1.363 . S
C2832 N2830 1.356 . S
C2833 C2827 1.363 . S
C2833 C2828 1.379 . S
C2833 N2831 1.356 . S
N2834 C2826 1.356 . S
N2834 H2840 0.984 . S
N2834 H2841 0.984 . S
N2835 C2828 1.356 . S
N2835 H2838 0.984 . S
N2835 H2839 0.985 . S
H2836 N2831 0.984 . S
H2837 N2831 0.985 . S
H2838 N2835 0.984 . S
H2839 N2835 0.985 . S
H2840 N2834 0.984 . S
H2841 N2834 0.984 . S
H2842 N2830 0.984 . S
H2843 N2830 0.985 . S
C2844 C2845 1.363 . S
C2844 C2850 1.379 . S
C2844 N2852 1.356 . S
C2845 C2844 1.363 . S
C2845 C2851 1.363 . S
C2846 C2847 1.363 . S
C2846 C2851 1.379 . S
C2846 N2853 1.356 . S
C2847 C2846 1.363 . S
C2847 C2850 1.363 . S
N2848 C2850 1.356 . S
N2848 H2860 0.984 . S
N2848 H2861 0.985 . S
N2849 C2851 1.356 . S
N2849 H2854 0.984 . S
N2849 H2855 0.985 . S
C2850 C2844 1.379 . S
C2850 C2847 1.363 . S
C2850 N2848 1.356 . S
C2851 C2845 1.363 . S
C2851 C2846 1.379 . S
C2851 N2849 1.356 . S
N2852 C2844 1.356 . S
N2852 H2858 0.984 . S
N2852 H2859 0.984 . S
N2853 C2846 1.356 . S
N2853 H2856 0.984 . S
N2853 H2857 0.985 . S
H2854 N2849 0.984 . S
H2855 N2849 0.985 . S
H2856 N2853 0.984 . S
H2857 N2853 0.985 . S
H2858 N2852 0.984 . S
H2859 N2852 0.984 . S
H2860 N2848 0.984 . S
H2861 N2848 0.985 . S
C2862 C2863 1.363 . S
C2862 C2868 1.379 . S
C2862 N2870 1.356 . S
C2863 C2862 1.363 . S
C2863 C2869 1.363 . S
C2864 C2865 1.363 . S
C2864 C2869 1.379 . S
C2864 N2871 1.356 . S
C2865 C2864 1.363 . S
C2865 C2868 1.363 . S
N2866 C2868 1.356 . S
N2866 H2878 0.984 . S
N2866 H2879 0.985 . S
N2867 C2869 1.356 . S
N2867 H2872 0.984 . S
N2867 H2873 0.985 . S
C2868 C2862 1.379 . S
C2868 C2865 1.363 . S
C2868 N2866 1.356 . S
C2869 C2863 1.363 . S
C2869 C2864 1.379 . S
C2869 N2867 1.356 . S
N2870 C2862 1.356 . S
N2870 H2876 0.984 . S
N2870 H2877 0.984 . S
N2871 C2864 1.356 . S
N2871 H2874 0.984 . S
N2871 H2875 0.985 . S
H2872 N2867 0.984 . S
H2873 N2867 0.985 . S
H2874 N2871 0.984 . S
H2875 N2871 0.985 . S
H2876 N2870 0.984 . S
H2877 N2870 0.984 . S
H2878 N2866 0.984 . S
H2879 N2866 0.985 . S
C2880 C2881 1.363 . S
C2880 C2886 1.379 . S
C2880 N2888 1.356 . S
C2881 C2880 1.363 . S
C2881 C2887 1.363 . S
C2882 C2883 1.363 . S
C2882 C2887 1.379 . S
C2882 N2889 1.356 . S
C2883 C2882 1.363 . S
C2883 C2886 1.363 . S
N2884 C2886 1.356 . S
N2884 H2896 0.984 . S
N2884 H2897 0.985 . S
N2885 C2887 1.356 . S
N2885 H2890 0.984 . S
N2885 H2891 0.985 . S
C2886 C2880 1.379 . S
C2886 C2883 1.363 . S
C2886 N2884 1.356 . S
C2887 C2881 1.363 . S
C2887 C2882 1.379 . S
C2887 N2885 1.356 . S
N2888 C2880 1.356 . S
N2888 H2894 0.984 . S
N2888 H2895 0.984 . S
N2889 C2882 1.356 . S
N2889 H2892 0.984 . S
N2889 H2893 0.985 . S
H2890 N2885 0.984 . S
H2891 N2885 0.985 . S
H2892 N2889 0.984 . S
H2893 N2889 0.985 . S
H2894 N2888 0.984 . S
H2895 N2888 0.984 . S
H2896 N2884 0.984 . S
H2897 N2884 0.985 . S
C2898 C2899 1.363 . S
C2898 C2904 1.379 . S
C2898 N2906 1.356 . S
C2899 C2898 1.363 . S
C2899 C2905 1.363 . S
C2900 C2901 1.363 . S
C2900 C2905 1.379 . S
C2900 N2907 1.356 . S
C2901 C2900 1.363 . S
C2901 C2904 1.363 . S
N2902 C2904 1.356 . S
N2902 H2914 0.984 . S
N2902 H2915 0.985 . S
N2903 C2905 1.356 . S
N2903 H2908 0.984 . S
N2903 H2909 0.985 . S
C2904 C2898 1.379 . S
C2904 C2901 1.363 . S
C2904 N2902 1.356 . S
C2905 C2899 1.363 . S
C2905 C2900 1.379 . S
C2905 N2903 1.356 . S
N2906 C2898 1.356 . S
N2906 H2912 0.984 . S
N2906 H2913 0.984 . S
N2907 C2900 1.356 . S
N2907 H2910 0.984 . S
N2907 H2911 0.985 . S
H2908 N2903 0.984 . S
H2909 N2903 0.985 . S
H2910 N2907 0.984 . S
H2911 N2907 0.985 . S
H2912 N2906 0.984 . S
H2913 N2906 0.984 . S
H2914 N2902 0.984 . S
H2915 N2902 0.985 . S
C2916 C2917 1.363 . S
C2916 C2922 1.379 . S
C2916 N2924 1.356 . S
C2917 C2916 1.363 . S
C2917 C2923 1.363 . S
C2918 C2919 1.363 . S
C2918 C2923 1.379 . S
C2918 N2925 1.356 . S
C2919 C2918 1.363 . S
C2919 C2922 1.363 . S
N2920 C2922 1.356 . S
N2920 H2932 0.984 . S
N2920 H2933 0.985 . S
N2921 C2923 1.356 . S
N2921 H2926 0.984 . S
N2921 H2927 0.985 . S
C2922 C2916 1.379 . S
C2922 C2919 1.363 . S
C2922 N2920 1.356 . S
C2923 C2917 1.363 . S
C2923 C2918 1.379 . S
C2923 N2921 1.356 . S
N2924 C2916 1.356 . S
N2924 H2930 0.984 . S
N2924 H2931 0.984 . S
N2925 C2918 1.356 . S
N2925 H2928 0.984 . S
N2925 H2929 0.985 . S
H2926 N2921 0.984 . S
H2927 N2921 0.985 . S
H2928 N2925 0.984 . S
H2929 N2925 0.985 . S
H2930 N2924 0.984 . S
H2931 N2924 0.984 . S
H2932 N2920 0.984 . S
H2933 N2920 0.985 . S
C2934 C2935 1.363 . S
C2934 C2940 1.379 . S
C2934 N2942 1.356 . S
C2935 C2934 1.363 . S
C2935 C2941 1.363 . S
C2936 C2937 1.363 . S
C2936 C2941 1.379 . S
C2936 N2943 1.356 . S
C2937 C2936 1.363 . S
C2937 C2940 1.363 . S
N2938 C2940 1.356 . S
N2938 H2950 0.984 . S
N2938 H2951 0.985 . S
N2939 C2941 1.356 . S
N2939 H2944 0.984 . S
N2939 H2945 0.985 . S
C2940 C2934 1.379 . S
C2940 C2937 1.363 . S
C2940 N2938 1.356 . S
C2941 C2935 1.363 . S
C2941 C2936 1.379 . S
C2941 N2939 1.356 . S
N2942 C2934 1.356 . S
N2942 H2948 0.984 . S
N2942 H2949 0.984 . S
N2943 C2936 1.356 . S
N2943 H2946 0.984 . S
N2943 H2947 0.985 . S
H2944 N2939 0.984 . S
H2945 N2939 0.985 . S
H2946 N2943 0.984 . S
H2947 N2943 0.985 . S
H2948 N2942 0.984 . S
H2949 N2942 0.984 . S
H2950 N2938 0.984 . S
H2951 N2938 0.985 . S
C2952 C2953 1.363 . S
C2952 C2958 1.379 . S
C2952 N2960 1.356 . S
C2953 C2952 1.363 . S
C2953 C2959 1.363 . S
C2954 C2955 1.363 . S
C2954 C2959 1.379 . S
C2954 N2961 1.356 . S
C2955 C2954 1.363 . S
C2955 C2958 1.363 . S
N2956 C2958 1.356 . S
N2956 H2968 0.984 . S
N2956 H2969 0.985 . S
N2957 C2959 1.356 . S
N2957 H2962 0.984 . S
N2957 H2963 0.985 . S
C2958 C2952 1.379 . S
C2958 C2955 1.363 . S
C2958 N2956 1.356 . S
C2959 C2953 1.363 . S
C2959 C2954 1.379 . S
C2959 N2957 1.356 . S
N2960 C2952 1.356 . S
N2960 H2966 0.984 . S
N2960 H2967 0.984 . S
N2961 C2954 1.356 . S
N2961 H2964 0.984 . S
N2961 H2965 0.985 . S
H2962 N2957 0.984 . S
H2963 N2957 0.985 . S
H2964 N2961 0.984 . S
H2965 N2961 0.985 . S
H2966 N2960 0.984 . S
H2967 N2960 0.984 . S
H2968 N2956 0.984 . S
H2969 N2956 0.985 . S
C2970 C2971 1.363 . S
C2970 C2976 1.379 . S
C2970 N2978 1.356 . S
C2971 C2970 1.363 . S
C2971 C2977 1.363 . S
C2972 C2973 1.363 . S
C2972 C2977 1.379 . S
C2972 N2979 1.356 . S
C2973 C2972 1.363 . S
C2973 C2976 1.363 . S
N2974 C2976 1.356 . S
N2974 H2986 0.984 . S
N2974 H2987 0.985 . S
N2975 C2977 1.356 . S
N2975 H2980 0.984 . S
N2975 H2981 0.985 . S
C2976 C2970 1.379 . S
C2976 C2973 1.363 . S
C2976 N2974 1.356 . S
C2977 C2971 1.363 . S
C2977 C2972 1.379 . S
C2977 N2975 1.356 . S
N2978 C2970 1.356 . S
N2978 H2984 0.984 . S
N2978 H2985 0.984 . S
N2979 C2972 1.356 . S
N2979 H2982 0.984 . S
N2979 H2983 0.985 . S
H2980 N2975 0.984 . S
H2981 N2975 0.985 . S
H2982 N2979 0.984 . S
H2983 N2979 0.985 . S
H2984 N2978 0.984 . S
H2985 N2978 0.984 . S
H2986 N2974 0.984 . S
H2987 N2974 0.985 . S
C2988 C2989 1.363 . S
C2988 C2994 1.379 . S
C2988 N2996 1.356 . S
C2989 C2988 1.363 . S
C2989 C2995 1.363 . S
C2990 C2991 1.363 . S
C2990 C2995 1.379 . S
C2990 N2997 1.356 . S
C2991 C2990 1.363 . S
C2991 C2994 1.363 . S
N2992 C2994 1.356 . S
N2992 H3004 0.984 . S
N2992 H3005 0.985 . S
N2993 C2995 1.356 . S
N2993 H2998 0.984 . S
N2993 H2999 0.985 . S
C2994 C2988 1.379 . S
C2994 C2991 1.363 . S
C2994 N2992 1.356 . S
C2995 C2989 1.363 . S
C2995 C2990 1.379 . S
C2995 N2993 1.356 . S
N2996 C2988 1.356 . S
N2996 H3002 0.984 . S
N2996 H3003 0.984 . S
N2997 C2990 1.356 . S
N2997 H3000 0.984 . S
N2997 H3001 0.985 . S
H2998 N2993 0.984 . S
H2999 N2993 0.985 . S
H3000 N2997 0.984 . S
H3001 N2997 0.985 . S
H3002 N2996 0.984 . S
H3003 N2996 0.984 . S
H3004 N2992 0.984 . S
H3005 N2992 0.985 . S
C3006 C3007 1.363 . S
C3006 C3012 1.379 . S
C3006 N3014 1.356 . S
C3007 C3006 1.363 . S
C3007 C3013 1.363 . S
C3008 C3009 1.363 . S
C3008 C3013 1.379 . S
C3008 N3015 1.356 . S
C3009 C3008 1.363 . S
C3009 C3012 1.363 . S
N3010 C3012 1.356 . S
N3010 H3022 0.984 . S
N3010 H3023 0.985 . S
N3011 C3013 1.356 . S
N3011 H3016 0.984 . S
N3011 H3017 0.985 . S
C3012 C3006 1.379 . S
C3012 C3009 1.363 . S
C3012 N3010 1.356 . S
C3013 C3007 1.363 . S
C3013 C3008 1.379 . S
C3013 N3011 1.356 . S
N3014 C3006 1.356 . S
N3014 H3020 0.984 . S
N3014 H3021 0.984 . S
N3015 C3008 1.356 . S
N3015 H3018 0.984 . S
N3015 H3019 0.985 . S
H3016 N3011 0.984 . S
H3017 N3011 0.985 . S
H3018 N3015 0.984 . S
H3019 N3015 0.985 . S
H3020 N3014 0.984 . S
H3021 N3014 0.984 . S
H3022 N3010 0.984 . S
H3023 N3010 0.985 . S
C3024 C3025 1.363 . S
C3024 C3030 1.379 . S
C3024 N3032 1.356 . S
C3025 C3024 1.363 . S
C3025 C3031 1.363 . S
C3026 C3027 1.363 . S
C3026 C3031 1.379 . S
C3026 N3033 1.356 . S
C3027 C3026 1.363 . S
C3027 C3030 1.363 . S
N3028 C3030 1.356 . S
N3028 H3040 0.984 . S
N3028 H3041 0.985 . S
N3029 C3031 1.356 . S
N3029 H3034 0.984 . S
N3029 H3035 0.985 . S
C3030 C3024 1.379 . S
C3030 C3027 1.363 . S
C3030 N3028 1.356 . S
C3031 C3025 1.363 . S
C3031 C3026 1.379 . S
C3031 N3029 1.356 . S
N3032 C3024 1.356 . S
N3032 H3038 0.984 . S
N3032 H3039 0.984 . S
N3033 C3026 1.356 . S
N3033 H3036 0.984 . S
N3033 H3037 0.985 . S
H3034 N3029 0.984 . S
H3035 N3029 0.985 . S
H3036 N3033 0.984 . S
H3037 N3033 0.985 . S
H3038 N3032 0.984 . S
H3039 N3032 0.984 . S
H3040 N3028 0.984 . S
H3041 N3028 0.985 . S
C3042 C3043 1.363 . S
C3042 C3048 1.379 . S
C3042 N3050 1.356 . S
C3043 C3042 1.363 . S
C3043 C3049 1.363 . S
C3044 C3045 1.363 . S
C3044 C3049 1.379 . S
C3044 N3051 1.356 . S
C3045 C3044 1.363 . S
C3045 C3048 1.363 . S
N3046 C3048 1.356 . S
N3046 H3058 0.984 . S
N3046 H3059 0.985 . S
N3047 C3049 1.356 . S
N3047 H3052 0.984 . S
N3047 H3053 0.985 . S
C3048 C3042 1.379 . S
C3048 C3045 1.363 . S
C3048 N3046 1.356 . S
C3049 C3043 1.363 . S
C3049 C3044 1.379 . S
C3049 N3047 1.356 . S
N3050 C3042 1.356 . S
N3050 H3056 0.984 . S
N3050 H3057 0.984 . S
N3051 C3044 1.356 . S
N3051 H3054 0.984 . S
N3051 H3055 0.985 . S
H3052 N3047 0.984 . S
H3053 N3047 0.985 . S
H3054 N3051 0.984 . S
H3055 N3051 0.985 . S
H3056 N3050 0.984 . S
H3057 N3050 0.984 . S
H3058 N3046 0.984 . S
H3059 N3046 0.985 . S
C3060 C3061 1.363 . S
C3060 C3066 1.379 . S
C3060 N3068 1.356 . S
C3061 C3060 1.363 . S
C3061 C3067 1.363 . S
C3062 C3063 1.363 . S
C3062 C3067 1.379 . S
C3062 N3069 1.356 . S
C3063 C3062 1.363 . S
C3063 C3066 1.363 . S
N3064 C3066 1.356 . S
N3064 H3076 0.984 . S
N3064 H3077 0.985 . S
N3065 C3067 1.356 . S
N3065 H3070 0.984 . S
N3065 H3071 0.985 . S
C3066 C3060 1.379 . S
C3066 C3063 1.363 . S
C3066 N3064 1.356 . S
C3067 C3061 1.363 . S
C3067 C3062 1.379 . S
C3067 N3065 1.356 . S
N3068 C3060 1.356 . S
N3068 H3074 0.984 . S
N3068 H3075 0.984 . S
N3069 C3062 1.356 . S
N3069 H3072 0.984 . S
N3069 H3073 0.985 . S
H3070 N3065 0.984 . S
H3071 N3065 0.985 . S
H3072 N3069 0.984 . S
H3073 N3069 0.985 . S
H3074 N3068 0.984 . S
H3075 N3068 0.984 . S
H3076 N3064 0.984 . S
H3077 N3064 0.985 . S
C3078 C3079 1.363 . S
C3078 C3084 1.379 . S
C3078 N3086 1.356 . S
C3079 C3078 1.363 . S
C3079 C3085 1.363 . S
C3080 C3081 1.363 . S
C3080 C3085 1.379 . S
C3080 N3087 1.356 . S
C3081 C3080 1.363 . S
C3081 C3084 1.363 . S
N3082 C3084 1.356 . S
N3082 H3094 0.984 . S
N3082 H3095 0.985 . S
N3083 C3085 1.356 . S
N3083 H3088 0.984 . S
N3083 H3089 0.985 . S
C3084 C3078 1.379 . S
C3084 C3081 1.363 . S
C3084 N3082 1.356 . S
C3085 C3079 1.363 . S
C3085 C3080 1.379 . S
C3085 N3083 1.356 . S
N3086 C3078 1.356 . S
N3086 H3092 0.984 . S
N3086 H3093 0.984 . S
N3087 C3080 1.356 . S
N3087 H3090 0.984 . S
N3087 H3091 0.985 . S
H3088 N3083 0.984 . S
H3089 N3083 0.985 . S
H3090 N3087 0.984 . S
H3091 N3087 0.985 . S
H3092 N3086 0.984 . S
H3093 N3086 0.984 . S
H3094 N3082 0.984 . S
H3095 N3082 0.985 . S
C3096 C3097 1.363 . S
C3096 C3102 1.379 . S
C3096 N3104 1.356 . S
C3097 C3096 1.363 . S
C3097 C3103 1.363 . S
C3098 C3099 1.363 . S
C3098 C3103 1.379 . S
C3098 N3105 1.356 . S
C3099 C3098 1.363 . S
C3099 C3102 1.363 . S
N3100 C3102 1.356 . S
N3100 H3112 0.984 . S
N3100 H3113 0.985 . S
N3101 C3103 1.356 . S
N3101 H3106 0.984 . S
N3101 H3107 0.985 . S
C3102 C3096 1.379 . S
C3102 C3099 1.363 . S
C3102 N3100 1.356 . S
C3103 C3097 1.363 . S
C3103 C3098 1.379 . S
C3103 N3101 1.356 . S
N3104 C3096 1.356 . S
N3104 H3110 0.984 . S
N3104 H3111 0.984 . S
N3105 C3098 1.356 . S
N3105 H3108 0.984 . S
N3105 H3109 0.985 . S
H3106 N3101 0.984 . S
H3107 N3101 0.985 . S
H3108 N3105 0.984 . S
H3109 N3105 0.985 . S
H3110 N3104 0.984 . S
H3111 N3104 0.984 . S
H3112 N3100 0.984 . S
H3113 N3100 0.985 . S
C3114 C3115 1.363 . S
C3114 C3120 1.379 . S
C3114 N3122 1.356 . S
C3115 C3114 1.363 . S
C3115 C3121 1.363 . S
C3116 C3117 1.363 . S
C3116 C3121 1.379 . S
C3116 N3123 1.356 . S
C3117 C3116 1.363 . S
C3117 C3120 1.363 . S
N3118 C3120 1.356 . S
N3118 H3130 0.984 . S
N3118 H3131 0.985 . S
N3119 C3121 1.356 . S
N3119 H3124 0.984 . S
N3119 H3125 0.985 . S
C3120 C3114 1.379 . S
C3120 C3117 1.363 . S
C3120 N3118 1.356 . S
C3121 C3115 1.363 . S
C3121 C3116 1.379 . S
C3121 N3119 1.356 . S
N3122 C3114 1.356 . S
N3122 H3128 0.984 . S
N3122 H3129 0.984 . S
N3123 C3116 1.356 . S
N3123 H3126 0.984 . S
N3123 H3127 0.985 . S
H3124 N3119 0.984 . S
H3125 N3119 0.985 . S
H3126 N3123 0.984 . S
H3127 N3123 0.985 . S
H3128 N3122 0.984 . S
H3129 N3122 0.984 . S
H3130 N3118 0.984 . S
H3131 N3118 0.985 . S
C3132 C3133 1.363 . S
C3132 C3138 1.379 . S
C3132 N3140 1.356 . S
C3133 C3132 1.363 . S
C3133 C3139 1.363 . S
C3134 C3135 1.363 . S
C3134 C3139 1.379 . S
C3134 N3141 1.356 . S
C3135 C3134 1.363 . S
C3135 C3138 1.363 . S
N3136 C3138 1.356 . S
N3136 H3148 0.984 . S
N3136 H3149 0.985 . S
N3137 C3139 1.356 . S
N3137 H3142 0.984 . S
N3137 H3143 0.985 . S
C3138 C3132 1.379 . S
C3138 C3135 1.363 . S
C3138 N3136 1.356 . S
C3139 C3133 1.363 . S
C3139 C3134 1.379 . S
C3139 N3137 1.356 . S
N3140 C3132 1.356 . S
N3140 H3146 0.984 . S
N3140 H3147 0.984 . S
N3141 C3134 1.356 . S
N3141 H3144 0.984 . S
N3141 H3145 0.985 . S
H3142 N3137 0.984 . S
H3143 N3137 0.985 . S
H3144 N3141 0.984 . S
H3145 N3141 0.985 . S
H3146 N3140 0.984 . S
H3147 N3140 0.984 . S
H3148 N3136 0.984 . S
H3149 N3136 0.985 . S
C3150 C3151 1.363 . S
C3150 C3156 1.379 . S
C3150 N3158 1.356 . S
C3151 C3150 1.363 . S
C3151 C3157 1.363 . S
C3152 C3153 1.363 . S
C3152 C3157 1.379 . S
C3152 N3159 1.356 . S
C3153 C3152 1.363 . S
C3153 C3156 1.363 . S
N3154 C3156 1.356 . S
N3154 H3166 0.984 . S
N3154 H3167 0.985 . S
N3155 C3157 1.356 . S
N3155 H3160 0.984 . S
N3155 H3161 0.985 . S
C3156 C3150 1.379 . S
C3156 C3153 1.363 . S
C3156 N3154 1.356 . S
C3157 C3151 1.363 . S
C3157 C3152 1.379 . S
C3157 N3155 1.356 . S
N3158 C3150 1.356 . S
N3158 H3164 0.984 . S
N3158 H3165 0.984 . S
N3159 C3152 1.356 . S
N3159 H3162 0.984 . S
N3159 H3163 0.985 . S
H3160 N3155 0.984 . S
H3161 N3155 0.985 . S
H3162 N3159 0.984 . S
H3163 N3159 0.985 . S
H3164 N3158 0.984 . S
H3165 N3158 0.984 . S
H3166 N3154 0.984 . S
H3167 N3154 0.985 . S
C3168 C3169 1.363 . S
C3168 C3174 1.379 . S
C3168 N3176 1.356 . S
C3169 C3168 1.363 . S
C3169 C3175 1.363 . S
C3170 C3171 1.363 . S
C3170 C3175 1.379 . S
C3170 N3177 1.356 . S
C3171 C3170 1.363 . S
C3171 C3174 1.363 . S
N3172 C3174 1.356 . S
N3172 H3184 0.984 . S
N3172 H3185 0.985 . S
N3173 C3175 1.356 . S
N3173 H3178 0.984 . S
N3173 H3179 0.985 . S
C3174 C3168 1.379 . S
C3174 C3171 1.363 . S
C3174 N3172 1.356 . S
C3175 C3169 1.363 . S
C3175 C3170 1.379 . S
C3175 N3173 1.356 . S
N3176 C3168 1.356 . S
N3176 H3182 0.984 . S
N3176 H3183 0.984 . S
N3177 C3170 1.356 . S
N3177 H3180 0.984 . S
N3177 H3181 0.985 . S
H3178 N3173 0.984 . S
H3179 N3173 0.985 . S
H3180 N3177 0.984 . S
H3181 N3177 0.985 . S
H3182 N3176 0.984 . S
H3183 N3176 0.984 . S
H3184 N3172 0.984 . S
H3185 N3172 0.985 . S
C3186 C3187 1.363 . S
C3186 C3192 1.379 . S
C3186 N3194 1.356 . S
C3187 C3186 1.363 . S
C3187 C3193 1.363 . S
C3188 C3189 1.363 . S
C3188 C3193 1.379 . S
C3188 N3195 1.356 . S
C3189 C3188 1.363 . S
C3189 C3192 1.363 . S
N3190 C3192 1.356 . S
N3190 H3202 0.984 . S
N3190 H3203 0.985 . S
N3191 C3193 1.356 . S
N3191 H3196 0.984 . S
N3191 H3197 0.985 . S
C3192 C3186 1.379 . S
C3192 C3189 1.363 . S
C3192 N3190 1.356 . S
C3193 C3187 1.363 . S
C3193 C3188 1.379 . S
C3193 N3191 1.356 . S
N3194 C3186 1.356 . S
N3194 H3200 0.984 . S
N3194 H3201 0.984 . S
N3195 C3188 1.356 . S
N3195 H3198 0.984 . S
N3195 H3199 0.985 . S
H3196 N3191 0.984 . S
H3197 N3191 0.985 . S
H3198 N3195 0.984 . S
H3199 N3195 0.985 . S
H3200 N3194 0.984 . S
H3201 N3194 0.984 . S
H3202 N3190 0.984 . S
H3203 N3190 0.985 . S
C3204 C3205 1.363 . S
C3204 C3210 1.379 . S
C3204 N3212 1.356 . S
C3205 C3204 1.363 . S
C3205 C3211 1.363 . S
C3206 C3207 1.363 . S
C3206 C3211 1.379 . S
C3206 N3213 1.356 . S
C3207 C3206 1.363 . S
C3207 C3210 1.363 . S
N3208 C3210 1.356 . S
N3208 H3220 0.984 . S
N3208 H3221 0.985 . S
N3209 C3211 1.356 . S
N3209 H3214 0.984 . S
N3209 H3215 0.985 . S
C3210 C3204 1.379 . S
C3210 C3207 1.363 . S
C3210 N3208 1.356 . S
C3211 C3205 1.363 . S
C3211 C3206 1.379 . S
C3211 N3209 1.356 . S
N3212 C3204 1.356 . S
N3212 H3218 0.984 . S
N3212 H3219 0.984 . S
N3213 C3206 1.356 . S
N3213 H3216 0.984 . S
N3213 H3217 0.985 . S
H3214 N3209 0.984 . S
H3215 N3209 0.985 . S
H3216 N3213 0.984 . S
H3217 N3213 0.985 . S
H3218 N3212 0.984 . S
H3219 N3212 0.984 . S
H3220 N3208 0.984 . S
H3221 N3208 0.985 . S
C3222 C3223 1.363 . S
C3222 C3228 1.379 . S
C3222 N3230 1.356 . S
C3223 C3222 1.363 . S
C3223 C3229 1.363 . S
C3224 C3225 1.363 . S
C3224 C3229 1.379 . S
C3224 N3231 1.356 . S
C3225 C3224 1.363 . S
C3225 C3228 1.363 . S
N3226 C3228 1.356 . S
N3226 H3238 0.984 . S
N3226 H3239 0.985 . S
N3227 C3229 1.356 . S
N3227 H3232 0.984 . S
N3227 H3233 0.985 . S
C3228 C3222 1.379 . S
C3228 C3225 1.363 . S
C3228 N3226 1.356 . S
C3229 C3223 1.363 . S
C3229 C3224 1.379 . S
C3229 N3227 1.356 . S
N3230 C3222 1.356 . S
N3230 H3236 0.984 . S
N3230 H3237 0.984 . S
N3231 C3224 1.356 . S
N3231 H3234 0.984 . S
N3231 H3235 0.985 . S
H3232 N3227 0.984 . S
H3233 N3227 0.985 . S
H3234 N3231 0.984 . S
H3235 N3231 0.985 . S
H3236 N3230 0.984 . S
H3237 N3230 0.984 . S
H3238 N3226 0.984 . S
H3239 N3226 0.985 . S
C3240 C3241 1.363 . S
C3240 C3246 1.379 . S
C3240 N3248 1.356 . S
C3241 C3240 1.363 . S
C3241 C3247 1.363 . S
C3242 C3243 1.363 . S
C3242 C3247 1.379 . S
C3242 N3249 1.356 . S
C3243 C3242 1.363 . S
C3243 C3246 1.363 . S
N3244 C3246 1.356 . S
N3244 H3256 0.984 . S
N3244 H3257 0.985 . S
N3245 C3247 1.356 . S
N3245 H3250 0.984 . S
N3245 H3251 0.985 . S
C3246 C3240 1.379 . S
C3246 C3243 1.363 . S
C3246 N3244 1.356 . S
C3247 C3241 1.363 . S
C3247 C3242 1.379 . S
C3247 N3245 1.356 . S
N3248 C3240 1.356 . S
N3248 H3254 0.984 . S
N3248 H3255 0.984 . S
N3249 C3242 1.356 . S
N3249 H3252 0.984 . S
N3249 H3253 0.985 . S
H3250 N3245 0.984 . S
H3251 N3245 0.985 . S
H3252 N3249 0.984 . S
H3253 N3249 0.985 . S
H3254 N3248 0.984 . S
H3255 N3248 0.984 . S
H3256 N3244 0.984 . S
H3257 N3244 0.985 . S
C3258 C3259 1.363 . S
C3258 C3264 1.379 . S
C3258 N3266 1.356 . S
C3259 C3258 1.363 . S
C3259 C3265 1.363 . S
C3260 C3261 1.363 . S
C3260 C3265 1.379 . S
C3260 N3267 1.356 . S
C3261 C3260 1.363 . S
C3261 C3264 1.363 . S
N3262 C3264 1.356 . S
N3262 H3274 0.984 . S
N3262 H3275 0.985 . S
N3263 C3265 1.356 . S
N3263 H3268 0.984 . S
N3263 H3269 0.985 . S
C3264 C3258 1.379 . S
C3264 C3261 1.363 . S
C3264 N3262 1.356 . S
C3265 C3259 1.363 . S
C3265 C3260 1.379 . S
C3265 N3263 1.356 . S
N3266 C3258 1.356 . S
N3266 H3272 0.984 . S
N3266 H3273 0.984 . S
N3267 C3260 1.356 . S
N3267 H3270 0.984 . S
N3267 H3271 0.985 . S
H3268 N3263 0.984 . S
H3269 N3263 0.985 . S
H3270 N3267 0.984 . S
H3271 N3267 0.985 . S
H3272 N3266 0.984 . S
H3273 N3266 0.984 . S
H3274 N3262 0.984 . S
H3275 N3262 0.985 . S
C3276 C3277 1.363 . S
C3276 C3282 1.379 . S
C3276 N3284 1.356 . S
C3277 C3276 1.363 . S
C3277 C3283 1.363 . S
C3278 C3279 1.363 . S
C3278 C3283 1.379 . S
C3278 N3285 1.356 . S
C3279 C3278 1.363 . S
C3279 C3282 1.363 . S
N3280 C3282 1.356 . S
N3280 H3292 0.984 . S
N3280 H3293 0.985 . S
N3281 C3283 1.356 . S
N3281 H3286 0.984 . S
N3281 H3287 0.985 . S
C3282 C3276 1.379 . S
C3282 C3279 1.363 . S
C3282 N3280 1.356 . S
C3283 C3277 1.363 . S
C3283 C3278 1.379 . S
C3283 N3281 1.356 . S
N3284 C3276 1.356 . S
N3284 H3290 0.984 . S
N3284 H3291 0.984 . S
N3285 C3278 1.356 . S
N3285 H3288 0.984 . S
N3285 H3289 0.985 . S
H3286 N3281 0.984 . S
H3287 N3281 0.985 . S
H3288 N3285 0.984 . S
H3289 N3285 0.985 . S
H3290 N3284 0.984 . S
H3291 N3284 0.984 . S
H3292 N3280 0.984 . S
H3293 N3280 0.985 . S
C3294 C3295 1.363 . S
C3294 C3300 1.379 . S
C3294 N3302 1.356 . S
C3295 C3294 1.363 . S
C3295 C3301 1.363 . S
C3296 C3297 1.363 . S
C3296 C3301 1.379 . S
C3296 N3303 1.356 . S
C3297 C3296 1.363 . S
C3297 C3300 1.363 . S
N3298 C3300 1.356 . S
N3298 H3310 0.984 . S
N3298 H3311 0.985 . S
N3299 C3301 1.356 . S
N3299 H3304 0.984 . S
N3299 H3305 0.985 . S
C3300 C3294 1.379 . S
C3300 C3297 1.363 . S
C3300 N3298 1.356 . S
C3301 C3295 1.363 . S
C3301 C3296 1.379 . S
C3301 N3299 1.356 . S
N3302 C3294 1.356 . S
N3302 H3308 0.984 . S
N3302 H3309 0.984 . S
N3303 C3296 1.356 . S
N3303 H3306 0.984 . S
N3303 H3307 0.985 . S
H3304 N3299 0.984 . S
H3305 N3299 0.985 . S
H3306 N3303 0.984 . S
H3307 N3303 0.985 . S
H3308 N3302 0.984 . S
H3309 N3302 0.984 . S
H3310 N3298 0.984 . S
H3311 N3298 0.985 . S
C3312 C3313 1.363 . S
C3312 C3318 1.379 . S
C3312 N3320 1.356 . S
C3313 C3312 1.363 . S
C3313 C3319 1.363 . S
C3314 C3315 1.363 . S
C3314 C3319 1.379 . S
C3314 N3321 1.356 . S
C3315 C3314 1.363 . S
C3315 C3318 1.363 . S
N3316 C3318 1.356 . S
N3316 H3328 0.984 . S
N3316 H3329 0.985 . S
N3317 C3319 1.356 . S
N3317 H3322 0.984 . S
N3317 H3323 0.985 . S
C3318 C3312 1.379 . S
C3318 C3315 1.363 . S
C3318 N3316 1.356 . S
C3319 C3313 1.363 . S
C3319 C3314 1.379 . S
C3319 N3317 1.356 . S
N3320 C3312 1.356 . S
N3320 H3326 0.984 . S
N3320 H3327 0.984 . S
N3321 C3314 1.356 . S
N3321 H3324 0.984 . S
N3321 H3325 0.985 . S
H3322 N3317 0.984 . S
H3323 N3317 0.985 . S
H3324 N3321 0.984 . S
H3325 N3321 0.985 . S
H3326 N3320 0.984 . S
H3327 N3320 0.984 . S
H3328 N3316 0.984 . S
H3329 N3316 0.985 . S
C3330 C3331 1.363 . S
C3330 C3336 1.379 . S
C3330 N3338 1.356 . S
C3331 C3330 1.363 . S
C3331 C3337 1.363 . S
C3332 C3333 1.363 . S
C3332 C3337 1.379 . S
C3332 N3339 1.356 . S
C3333 C3332 1.363 . S
C3333 C3336 1.363 . S
N3334 C3336 1.356 . S
N3334 H3346 0.984 . S
N3334 H3347 0.985 . S
N3335 C3337 1.356 . S
N3335 H3340 0.984 . S
N3335 H3341 0.985 . S
C3336 C3330 1.379 . S
C3336 C3333 1.363 . S
C3336 N3334 1.356 . S
C3337 C3331 1.363 . S
C3337 C3332 1.379 . S
C3337 N3335 1.356 . S
N3338 C3330 1.356 . S
N3338 H3344 0.984 . S
N3338 H3345 0.984 . S
N3339 C3332 1.356 . S
N3339 H3342 0.984 . S
N3339 H3343 0.985 . S
H3340 N3335 0.984 . S
H3341 N3335 0.985 . S
H3342 N3339 0.984 . S
H3343 N3339 0.985 . S
H3344 N3338 0.984 . S
H3345 N3338 0.984 . S
H3346 N3334 0.984 . S
H3347 N3334 0.985 . S
C3348 C3349 1.363 . S
C3348 C3354 1.379 . S
C3348 N3356 1.356 . S
C3349 C3348 1.363 . S
C3349 C3355 1.363 . S
C3350 C3351 1.363 . S
C3350 C3355 1.379 . S
C3350 N3357 1.356 . S
C3351 C3350 1.363 . S
C3351 C3354 1.363 . S
N3352 C3354 1.356 . S
N3352 H3364 0.984 . S
N3352 H3365 0.985 . S
N3353 C3355 1.356 . S
N3353 H3358 0.984 . S
N3353 H3359 0.985 . S
C3354 C3348 1.379 . S
C3354 C3351 1.363 . S
C3354 N3352 1.356 . S
C3355 C3349 1.363 . S
C3355 C3350 1.379 . S
C3355 N3353 1.356 . S
N3356 C3348 1.356 . S
N3356 H3362 0.984 . S
N3356 H3363 0.984 . S
N3357 C3350 1.356 . S
N3357 H3360 0.984 . S
N3357 H3361 0.985 . S
H3358 N3353 0.984 . S
H3359 N3353 0.985 . S
H3360 N3357 0.984 . S
H3361 N3357 0.985 . S
H3362 N3356 0.984 . S
H3363 N3356 0.984 . S
H3364 N3352 0.984 . S
H3365 N3352 0.985 . S
C3366 C3367 1.363 . S
C3366 C3372 1.379 . S
C3366 N3374 1.356 . S
C3367 C3366 1.363 . S
C3367 C3373 1.363 . S
C3368 C3369 1.363 . S
C3368 C3373 1.379 . S
C3368 N3375 1.356 . S
C3369 C3368 1.363 . S
C3369 C3372 1.363 . S
N3370 C3372 1.356 . S
N3370 H3382 0.984 . S
N3370 H3383 0.985 . S
N3371 C3373 1.356 . S
N3371 H3376 0.984 . S
N3371 H3377 0.985 . S
C3372 C3366 1.379 . S
C3372 C3369 1.363 . S
C3372 N3370 1.356 . S
C3373 C3367 1.363 . S
C3373 C3368 1.379 . S
C3373 N3371 1.356 . S
N3374 C3366 1.356 . S
N3374 H3380 0.984 . S
N3374 H3381 0.984 . S
N3375 C3368 1.356 . S
N3375 H3378 0.984 . S
N3375 H3379 0.985 . S
H3376 N3371 0.984 . S
H3377 N3371 0.985 . S
H3378 N3375 0.984 . S
H3379 N3375 0.985 . S
H3380 N3374 0.984 . S
H3381 N3374 0.984 . S
H3382 N3370 0.984 . S
H3383 N3370 0.985 . S
C3384 C3385 1.363 . S
C3384 C3390 1.379 . S
C3384 N3392 1.356 . S
C3385 C3384 1.363 . S
C3385 C3391 1.363 . S
C3386 C3387 1.363 . S
C3386 C3391 1.379 . S
C3386 N3393 1.356 . S
C3387 C3386 1.363 . S
C3387 C3390 1.363 . S
N3388 C3390 1.356 . S
N3388 H3400 0.984 . S
N3388 H3401 0.985 . S
N3389 C3391 1.356 . S
N3389 H3394 0.984 . S
N3389 H3395 0.985 . S
C3390 C3384 1.379 . S
C3390 C3387 1.363 . S
C3390 N3388 1.356 . S
C3391 C3385 1.363 . S
C3391 C3386 1.379 . S
C3391 N3389 1.356 . S
N3392 C3384 1.356 . S
N3392 H3398 0.984 . S
N3392 H3399 0.984 . S
N3393 C3386 1.356 . S
N3393 H3396 0.984 . S
N3393 H3397 0.985 . S
H3394 N3389 0.984 . S
H3395 N3389 0.985 . S
H3396 N3393 0.984 . S
H3397 N3393 0.985 . S
H3398 N3392 0.984 . S
H3399 N3392 0.984 . S
H3400 N3388 0.984 . S
H3401 N3388 0.985 . S
C3402 C3403 1.363 . S
C3402 C3408 1.379 . S
C3402 N3410 1.356 . S
C3403 C3402 1.363 . S
C3403 C3409 1.363 . S
C3404 C3405 1.363 . S
C3404 C3409 1.379 . S
C3404 N3411 1.356 . S
C3405 C3404 1.363 . S
C3405 C3408 1.363 . S
N3406 C3408 1.356 . S
N3406 H3418 0.984 . S
N3406 H3419 0.985 . S
N3407 C3409 1.356 . S
N3407 H3412 0.984 . S
N3407 H3413 0.985 . S
C3408 C3402 1.379 . S
C3408 C3405 1.363 . S
C3408 N3406 1.356 . S
C3409 C3403 1.363 . S
C3409 C3404 1.379 . S
C3409 N3407 1.356 . S
N3410 C3402 1.356 . S
N3410 H3416 0.984 . S
N3410 H3417 0.984 . S
N3411 C3404 1.356 . S
N3411 H3414 0.984 . S
N3411 H3415 0.985 . S
H3412 N3407 0.984 . S
H3413 N3407 0.985 . S
H3414 N3411 0.984 . S
H3415 N3411 0.985 . S
H3416 N3410 0.984 . S
H3417 N3410 0.984 . S
H3418 N3406 0.984 . S
H3419 N3406 0.985 . S
C3420 C3421 1.363 . S
C3420 C3426 1.379 . S
C3420 N3428 1.356 . S
C3421 C3420 1.363 . S
C3421 C3427 1.363 . S
C3422 C3423 1.363 . S
C3422 C3427 1.379 . S
C3422 N3429 1.356 . S
C3423 C3422 1.363 . S
C3423 C3426 1.363 . S
N3424 C3426 1.356 . S
N3424 H3436 0.984 . S
N3424 H3437 0.985 . S
N3425 C3427 1.356 . S
N3425 H3430 0.984 . S
N3425 H3431 0.985 . S
C3426 C3420 1.379 . S
C3426 C3423 1.363 . S
C3426 N3424 1.356 . S
C3427 C3421 1.363 . S
C3427 C3422 1.379 . S
C3427 N3425 1.356 . S
N3428 C3420 1.356 . S
N3428 H3434 0.984 . S
N3428 H3435 0.984 . S
N3429 C3422 1.356 . S
N3429 H3432 0.984 . S
N3429 H3433 0.985 . S
H3430 N3425 0.984 . S
H3431 N3425 0.985 . S
H3432 N3429 0.984 . S
H3433 N3429 0.985 . S
H3434 N3428 0.984 . S
H3435 N3428 0.984 . S
H3436 N3424 0.984 . S
H3437 N3424 0.985 . S
C3438 C3439 1.363 . S
C3438 C3444 1.379 . S
C3438 N3446 1.356 . S
C3439 C3438 1.363 . S
C3439 C3445 1.363 . S
C3440 C3441 1.363 . S
C3440 C3445 1.379 . S
C3440 N3447 1.356 . S
C3441 C3440 1.363 . S
C3441 C3444 1.363 . S
N3442 C3444 1.356 . S
N3442 H3454 0.984 . S
N3442 H3455 0.985 . S
N3443 C3445 1.356 . S
N3443 H3448 0.984 . S
N3443 H3449 0.985 . S
C3444 C3438 1.379 . S
C3444 C3441 1.363 . S
C3444 N3442 1.356 . S
C3445 C3439 1.363 . S
C3445 C3440 1.379 . S
C3445 N3443 1.356 . S
N3446 C3438 1.356 . S
N3446 H3452 0.984 . S
N3446 H3453 0.984 . S
N3447 C3440 1.356 . S
N3447 H3450 0.984 . S
N3447 H3451 0.985 . S
H3448 N3443 0.984 . S
H3449 N3443 0.985 . S
H3450 N3447 0.984 . S
H3451 N3447 0.985 . S
H3452 N3446 0.984 . S
H3453 N3446 0.984 . S
H3454 N3442 0.984 . S
H3455 N3442 0.985 . S
C3456 C3457 1.363 . S
C3456 C3462 1.379 . S
C3456 N3464 1.356 . S
C3457 C3456 1.363 . S
C3457 C3463 1.363 . S
C3458 C3459 1.363 . S
C3458 C3463 1.379 . S
C3458 N3465 1.356 . S
C3459 C3458 1.363 . S
C3459 C3462 1.363 . S
N3460 C3462 1.356 . S
N3460 H3472 0.984 . S
N3460 H3473 0.985 . S
N3461 C3463 1.356 . S
N3461 H3466 0.984 . S
N3461 H3467 0.985 . S
C3462 C3456 1.379 . S
C3462 C3459 1.363 . S
C3462 N3460 1.356 . S
C3463 C3457 1.363 . S
C3463 C3458 1.379 . S
C3463 N3461 1.356 . S
N3464 C3456 1.356 . S
N3464 H3470 0.984 . S
N3464 H3471 0.984 . S
N3465 C3458 1.356 . S
N3465 H3468 0.984 . S
N3465 H3469 0.985 . S
H3466 N3461 0.984 . S
H3467 N3461 0.985 . S
H3468 N3465 0.984 . S
H3469 N3465 0.985 . S
H3470 N3464 0.984 . S
H3471 N3464 0.984 . S
H3472 N3460 0.984 . S
H3473 N3460 0.985 . S
C3474 C3475 1.363 . S
C3474 C3480 1.379 . S
C3474 N3482 1.356 . S
C3475 C3474 1.363 . S
C3475 C3481 1.363 . S
C3476 C3477 1.363 . S
C3476 C3481 1.379 . S
C3476 N3483 1.356 . S
C3477 C3476 1.363 . S
C3477 C3480 1.363 . S
N3478 C3480 1.356 . S
N3478 H3490 0.984 . S
N3478 H3491 0.985 . S
N3479 C3481 1.356 . S
N3479 H3484 0.984 . S
N3479 H3485 0.985 . S
C3480 C3474 1.379 . S
C3480 C3477 1.363 . S
C3480 N3478 1.356 . S
C3481 C3475 1.363 . S
C3481 C3476 1.379 . S
C3481 N3479 1.356 . S
N3482 C3474 1.356 . S
N3482 H3488 0.984 . S
N3482 H3489 0.984 . S
N3483 C3476 1.356 . S
N3483 H3486 0.984 . S
N3483 H3487 0.985 . S
H3484 N3479 0.984 . S
H3485 N3479 0.985 . S
H3486 N3483 0.984 . S
H3487 N3483 0.985 . S
H3488 N3482 0.984 . S
H3489 N3482 0.984 . S
H3490 N3478 0.984 . S
H3491 N3478 0.985 . S
C3492 C3493 1.363 . S
C3492 C3498 1.379 . S
C3492 N3500 1.356 . S
C3493 C3492 1.363 . S
C3493 C3499 1.363 . S
C3494 C3495 1.363 . S
C3494 C3499 1.379 . S
C3494 N3501 1.356 . S
C3495 C3494 1.363 . S
C3495 C3498 1.363 . S
N3496 C3498 1.356 . S
N3496 H3508 0.984 . S
N3496 H3509 0.985 . S
N3497 C3499 1.356 . S
N3497 H3502 0.984 . S
N3497 H3503 0.985 . S
C3498 C3492 1.379 . S
C3498 C3495 1.363 . S
C3498 N3496 1.356 . S
C3499 C3493 1.363 . S
C3499 C3494 1.379 . S
C3499 N3497 1.356 . S
N3500 C3492 1.356 . S
N3500 H3506 0.984 . S
N3500 H3507 0.984 . S
N3501 C3494 1.356 . S
N3501 H3504 0.984 . S
N3501 H3505 0.985 . S
H3502 N3497 0.984 . S
H3503 N3497 0.985 . S
H3504 N3501 0.984 . S
H3505 N3501 0.985 . S
H3506 N3500 0.984 . S
H3507 N3500 0.984 . S
H3508 N3496 0.984 . S
H3509 N3496 0.985 . S
C3510 C3511 1.363 . S
C3510 C3516 1.379 . S
C3510 N3518 1.356 . S
C3511 C3510 1.363 . S
C3511 C3517 1.363 . S
C3512 C3513 1.363 . S
C3512 C3517 1.379 . S
C3512 N3519 1.356 . S
C3513 C3512 1.363 . S
C3513 C3516 1.363 . S
N3514 C3516 1.356 . S
N3514 H3526 0.984 . S
N3514 H3527 0.985 . S
N3515 C3517 1.356 . S
N3515 H3520 0.984 . S
N3515 H3521 0.985 . S
C3516 C3510 1.379 . S
C3516 C3513 1.363 . S
C3516 N3514 1.356 . S
C3517 C3511 1.363 . S
C3517 C3512 1.379 . S
C3517 N3515 1.356 . S
N3518 C3510 1.356 . S
N3518 H3524 0.984 . S
N3518 H3525 0.984 . S
N3519 C3512 1.356 . S
N3519 H3522 0.984 . S
N3519 H3523 0.985 . S
H3520 N3515 0.984 . S
H3521 N3515 0.985 . S
H3522 N3519 0.984 . S
H3523 N3519 0.985 . S
H3524 N3518 0.984 . S
H3525 N3518 0.984 . S
H3526 N3514 0.984 . S
H3527 N3514 0.985 . S
C3528 C3529 1.363 . S
C3528 C3534 1.379 . S
C3528 N3536 1.356 . S
C3529 C3528 1.363 . S
C3529 C3535 1.363 . S
C3530 C3531 1.363 . S
C3530 C3535 1.379 . S
C3530 N3537 1.356 . S
C3531 C3530 1.363 . S
C3531 C3534 1.363 . S
N3532 C3534 1.356 . S
N3532 H3544 0.984 . S
N3532 H3545 0.985 . S
N3533 C3535 1.356 . S
N3533 H3538 0.984 . S
N3533 H3539 0.985 . S
C3534 C3528 1.379 . S
C3534 C3531 1.363 . S
C3534 N3532 1.356 . S
C3535 C3529 1.363 . S
C3535 C3530 1.379 . S
C3535 N3533 1.356 . S
N3536 C3528 1.356 . S
N3536 H3542 0.984 . S
N3536 H3543 0.984 . S
N3537 C3530 1.356 . S
N3537 H3540 0.984 . S
N3537 H3541 0.985 . S
H3538 N3533 0.984 . S
H3539 N3533 0.985 . S
H3540 N3537 0.984 . S
H3541 N3537 0.985 . S
H3542 N3536 0.984 . S
H3543 N3536 0.984 . S
H3544 N3532 0.984 . S
H3545 N3532 0.985 . S
C3546 C3547 1.363 . S
C3546 C3552 1.379 . S
C3546 N3554 1.356 . S
C3547 C3546 1.363 . S
C3547 C3553 1.363 . S
C3548 C3549 1.363 . S
C3548 C3553 1.379 . S
C3548 N3555 1.356 . S
C3549 C3548 1.363 . S
C3549 C3552 1.363 . S
N3550 C3552 1.356 . S
N3550 H3562 0.984 . S
N3550 H3563 0.985 . S
N3551 C3553 1.356 . S
N3551 H3556 0.984 . S
N3551 H3557 0.985 . S
C3552 C3546 1.379 . S
C3552 C3549 1.363 . S
C3552 N3550 1.356 . S
C3553 C3547 1.363 . S
C3553 C3548 1.379 . S
C3553 N3551 1.356 . S
N3554 C3546 1.356 . S
N3554 H3560 0.984 . S
N3554 H3561 0.984 . S
N3555 C3548 1.356 . S
N3555 H3558 0.984 . S
N3555 H3559 0.985 . S
H3556 N3551 0.984 . S
H3557 N3551 0.985 . S
H3558 N3555 0.984 . S
H3559 N3555 0.985 . S
H3560 N3554 0.984 . S
H3561 N3554 0.984 . S
H3562 N3550 0.984 . S
H3563 N3550 0.985 . S
C3564 C3565 1.363 . S
C3564 C3570 1.379 . S
C3564 N3572 1.356 . S
C3565 C3564 1.363 . S
C3565 C3571 1.363 . S
C3566 C3567 1.363 . S
C3566 C3571 1.379 . S
C3566 N3573 1.356 . S
C3567 C3566 1.363 . S
C3567 C3570 1.363 . S
N3568 C3570 1.356 . S
N3568 H3580 0.984 . S
N3568 H3581 0.985 . S
N3569 C3571 1.356 . S
N3569 H3574 0.984 . S
N3569 H3575 0.985 . S
C3570 C3564 1.379 . S
C3570 C3567 1.363 . S
C3570 N3568 1.356 . S
C3571 C3565 1.363 . S
C3571 C3566 1.379 . S
C3571 N3569 1.356 . S
N3572 C3564 1.356 . S
N3572 H3578 0.984 . S
N3572 H3579 0.984 . S
N3573 C3566 1.356 . S
N3573 H3576 0.984 . S
N3573 H3577 0.985 . S
H3574 N3569 0.984 . S
H3575 N3569 0.985 . S
H3576 N3573 0.984 . S
H3577 N3573 0.985 . S
H3578 N3572 0.984 . S
H3579 N3572 0.984 . S
H3580 N3568 0.984 . S
H3581 N3568 0.985 . S
C3582 C3583 1.363 . S
C3582 C3588 1.379 . S
C3582 N3590 1.356 . S
C3583 C3582 1.363 . S
C3583 C3589 1.363 . S
C3584 C3585 1.363 . S
C3584 C3589 1.379 . S
C3584 N3591 1.356 . S
C3585 C3584 1.363 . S
C3585 C3588 1.363 . S
N3586 C3588 1.356 . S
N3586 H3598 0.984 . S
N3586 H3599 0.985 . S
N3587 C3589 1.356 . S
N3587 H3592 0.984 . S
N3587 H3593 0.985 . S
C3588 C3582 1.379 . S
C3588 C3585 1.363 . S
C3588 N3586 1.356 . S
C3589 C3583 1.363 . S
C3589 C3584 1.379 . S
C3589 N3587 1.356 . S
N3590 C3582 1.356 . S
N3590 H3596 0.984 . S
N3590 H3597 0.984 . S
N3591 C3584 1.356 . S
N3591 H3594 0.984 . S
N3591 H3595 0.985 . S
H3592 N3587 0.984 . S
H3593 N3587 0.985 . S
H3594 N3591 0.984 . S
H3595 N3591 0.985 . S
H3596 N3590 0.984 . S
H3597 N3590 0.984 . S
H3598 N3586 0.984 . S
H3599 N3586 0.985 . S
C3600 C3601 1.363 . S
C3600 C3606 1.379 . S
C3600 N3608 1.356 . S
C3601 C3600 1.363 . S
C3601 C3607 1.363 . S
C3602 C3603 1.363 . S
C3602 C3607 1.379 . S
C3602 N3609 1.356 . S
C3603 C3602 1.363 . S
C3603 C3606 1.363 . S
N3604 C3606 1.356 . S
N3604 H3616 0.984 . S
N3604 H3617 0.985 . S
N3605 C3607 1.356 . S
N3605 H3610 0.984 . S
N3605 H3611 0.985 . S
C3606 C3600 1.379 . S
C3606 C3603 1.363 . S
C3606 N3604 1.356 . S
C3607 C3601 1.363 . S
C3607 C3602 1.379 . S
C3607 N3605 1.356 . S
N3608 C3600 1.356 . S
N3608 H3614 0.984 . S
N3608 H3615 0.984 . S
N3609 C3602 1.356 . S
N3609 H3612 0.984 . S
N3609 H3613 0.985 . S
H3610 N3605 0.984 . S
H3611 N3605 0.985 . S
H3612 N3609 0.984 . S
H3613 N3609 0.985 . S
H3614 N3608 0.984 . S
H3615 N3608 0.984 . S
H3616 N3604 0.984 . S
H3617 N3604 0.985 . S
C3618 C3619 1.363 . S
C3618 C3624 1.379 . S
C3618 N3626 1.356 . S
C3619 C3618 1.363 . S
C3619 C3625 1.363 . S
C3620 C3621 1.363 . S
C3620 C3625 1.379 . S
C3620 N3627 1.356 . S
C3621 C3620 1.363 . S
C3621 C3624 1.363 . S
N3622 C3624 1.356 . S
N3622 H3634 0.984 . S
N3622 H3635 0.985 . S
N3623 C3625 1.356 . S
N3623 H3628 0.984 . S
N3623 H3629 0.985 . S
C3624 C3618 1.379 . S
C3624 C3621 1.363 . S
C3624 N3622 1.356 . S
C3625 C3619 1.363 . S
C3625 C3620 1.379 . S
C3625 N3623 1.356 . S
N3626 C3618 1.356 . S
N3626 H3632 0.984 . S
N3626 H3633 0.984 . S
N3627 C3620 1.356 . S
N3627 H3630 0.984 . S
N3627 H3631 0.985 . S
H3628 N3623 0.984 . S
H3629 N3623 0.985 . S
H3630 N3627 0.984 . S
H3631 N3627 0.985 . S
H3632 N3626 0.984 . S
H3633 N3626 0.984 . S
H3634 N3622 0.984 . S
H3635 N3622 0.985 . S
C3636 C3637 1.363 . S
C3636 C3642 1.379 . S
C3636 N3644 1.356 . S
C3637 C3636 1.363 . S
C3637 C3643 1.363 . S
C3638 C3639 1.363 . S
C3638 C3643 1.379 . S
C3638 N3645 1.356 . S
C3639 C3638 1.363 . S
C3639 C3642 1.363 . S
N3640 C3642 1.356 . S
N3640 H3652 0.984 . S
N3640 H3653 0.985 . S
N3641 C3643 1.356 . S
N3641 H3646 0.984 . S
N3641 H3647 0.985 . S
C3642 C3636 1.379 . S
C3642 C3639 1.363 . S
C3642 N3640 1.356 . S
C3643 C3637 1.363 . S
C3643 C3638 1.379 . S
C3643 N3641 1.356 . S
N3644 C3636 1.356 . S
N3644 H3650 0.984 . S
N3644 H3651 0.984 . S
N3645 C3638 1.356 . S
N3645 H3648 0.984 . S
N3645 H3649 0.985 . S
H3646 N3641 0.984 . S
H3647 N3641 0.985 . S
H3648 N3645 0.984 . S
H3649 N3645 0.985 . S
H3650 N3644 0.984 . S
H3651 N3644 0.984 . S
H3652 N3640 0.984 . S
H3653 N3640 0.985 . S
C3654 C3655 1.363 . S
C3654 C3660 1.379 . S
C3654 N3662 1.356 . S
C3655 C3654 1.363 . S
C3655 C3661 1.363 . S
C3656 C3657 1.363 . S
C3656 C3661 1.379 . S
C3656 N3663 1.356 . S
C3657 C3656 1.363 . S
C3657 C3660 1.363 . S
N3658 C3660 1.356 . S
N3658 H3670 0.984 . S
N3658 H3671 0.985 . S
N3659 C3661 1.356 . S
N3659 H3664 0.984 . S
N3659 H3665 0.985 . S
C3660 C3654 1.379 . S
C3660 C3657 1.363 . S
C3660 N3658 1.356 . S
C3661 C3655 1.363 . S
C3661 C3656 1.379 . S
C3661 N3659 1.356 . S
N3662 C3654 1.356 . S
N3662 H3668 0.984 . S
N3662 H3669 0.984 . S
N3663 C3656 1.356 . S
N3663 H3666 0.984 . S
N3663 H3667 0.985 . S
H3664 N3659 0.984 . S
H3665 N3659 0.985 . S
H3666 N3663 0.984 . S
H3667 N3663 0.985 . S
H3668 N3662 0.984 . S
H3669 N3662 0.984 . S
H3670 N3658 0.984 . S
H3671 N3658 0.985 . S
C3672 C3673 1.363 . S
C3672 C3678 1.379 . S
C3672 N3680 1.356 . S
C3673 C3672 1.363 . S
C3673 C3679 1.363 . S
C3674 C3675 1.363 . S
C3674 C3679 1.379 . S
C3674 N3681 1.356 . S
C3675 C3674 1.363 . S
C3675 C3678 1.363 . S
N3676 C3678 1.356 . S
N3676 H3688 0.984 . S
N3676 H3689 0.985 . S
N3677 C3679 1.356 . S
N3677 H3682 0.984 . S
N3677 H3683 0.985 . S
C3678 C3672 1.379 . S
C3678 C3675 1.363 . S
C3678 N3676 1.356 . S
C3679 C3673 1.363 . S
C3679 C3674 1.379 . S
C3679 N3677 1.356 . S
N3680 C3672 1.356 . S
N3680 H3686 0.984 . S
N3680 H3687 0.984 . S
N3681 C3674 1.356 . S
N3681 H3684 0.984 . S
N3681 H3685 0.985 . S
H3682 N3677 0.984 . S
H3683 N3677 0.985 . S
H3684 N3681 0.984 . S
H3685 N3681 0.985 . S
H3686 N3680 0.984 . S
H3687 N3680 0.984 . S
H3688 N3676 0.984 . S
H3689 N3676 0.985 . S
C3690 C3691 1.363 . S
C3690 C3696 1.379 . S
C3690 N3698 1.356 . S
C3691 C3690 1.363 . S
C3691 C3697 1.363 . S
C3692 C3693 1.363 . S
C3692 C3697 1.379 . S
C3692 N3699 1.356 . S
C3693 C3692 1.363 . S
C3693 C3696 1.363 . S
N3694 C3696 1.356 . S
N3694 H3706 0.984 . S
N3694 H3707 0.985 . S
N3695 C3697 1.356 . S
N3695 H3700 0.984 . S
N3695 H3701 0.985 . S
C3696 C3690 1.379 . S
C3696 C3693 1.363 . S
C3696 N3694 1.356 . S
C3697 C3691 1.363 . S
C3697 C3692 1.379 . S
C3697 N3695 1.356 . S
N3698 C3690 1.356 . S
N3698 H3704 0.984 . S
N3698 H3705 0.984 . S
N3699 C3692 1.356 . S
N3699 H3702 0.984 . S
N3699 H3703 0.985 . S
H3700 N3695 0.984 . S
H3701 N3695 0.985 . S
H3702 N3699 0.984 . S
H3703 N3699 0.985 . S
H3704 N3698 0.984 . S
H3705 N3698 0.984 . S
H3706 N3694 0.984 . S
H3707 N3694 0.985 . S
C3708 C3709 1.363 . S
C3708 C3714 1.379 . S
C3708 N3716 1.356 . S
C3709 C3708 1.363 . S
C3709 C3715 1.363 . S
C3710 C3711 1.363 . S
C3710 C3715 1.379 . S
C3710 N3717 1.356 . S
C3711 C3710 1.363 . S
C3711 C3714 1.363 . S
N3712 C3714 1.356 . S
N3712 H3724 0.984 . S
N3712 H3725 0.985 . S
N3713 C3715 1.356 . S
N3713 H3718 0.984 . S
N3713 H3719 0.985 . S
C3714 C3708 1.379 . S
C3714 C3711 1.363 . S
C3714 N3712 1.356 . S
C3715 C3709 1.363 . S
C3715 C3710 1.379 . S
C3715 N3713 1.356 . S
N3716 C3708 1.356 . S
N3716 H3722 0.984 . S
N3716 H3723 0.984 . S
N3717 C3710 1.356 . S
N3717 H3720 0.984 . S
N3717 H3721 0.985 . S
H3718 N3713 0.984 . S
H3719 N3713 0.985 . S
H3720 N3717 0.984 . S
H3721 N3717 0.985 . S
H3722 N3716 0.984 . S
H3723 N3716 0.984 . S
H3724 N3712 0.984 . S
H3725 N3712 0.985 . S
C3726 C3727 1.363 . S
C3726 C3732 1.379 . S
C3726 N3734 1.356 . S
C3727 C3726 1.363 . S
C3727 C3733 1.363 . S
C3728 C3729 1.363 . S
C3728 C3733 1.379 . S
C3728 N3735 1.356 . S
C3729 C3728 1.363 . S
C3729 C3732 1.363 . S
N3730 C3732 1.356 . S
N3730 H3742 0.984 . S
N3730 H3743 0.985 . S
N3731 C3733 1.356 . S
N3731 H3736 0.984 . S
N3731 H3737 0.985 . S
C3732 C3726 1.379 . S
C3732 C3729 1.363 . S
C3732 N3730 1.356 . S
C3733 C3727 1.363 . S
C3733 C3728 1.379 . S
C3733 N3731 1.356 . S
N3734 C3726 1.356 . S
N3734 H3740 0.984 . S
N3734 H3741 0.984 . S
N3735 C3728 1.356 . S
N3735 H3738 0.984 . S
N3735 H3739 0.985 . S
H3736 N3731 0.984 . S
H3737 N3731 0.985 . S
H3738 N3735 0.984 . S
H3739 N3735 0.985 . S
H3740 N3734 0.984 . S
H3741 N3734 0.984 . S
H3742 N3730 0.984 . S
H3743 N3730 0.985 . S
C1585 C545 1.059 . S
C1587 C17 1.059 . S
C1603 C50 1.071 . S
C1605 C974 1.071 . S
C1621 C611 1.064 . S
C1623 C83 1.064 . S
C1639 C1040 1.054 . S
C1641 C116 1.052 1_545 S
C1657 C149 1.051 . S
C1659 C413 1.053 . S
C1675 C842 1.071 . S
C1677 C182 1.071 . S
C1693 C479 1.061 1_455 S
C1695 C215 1.065 . S
C1711 C248 1.054 . S
C1713 C908 1.052 1_545 S
C1729 C281 1.040 . S
C1731 C1568 1.040 . S
C1747 C314 1.041 . S
C1749 C1535 1.041 . S
C1765 C347 1.042 . S
C1767 C1502 1.042 . S
C1783 C1469 1.021 . S
C1785 C380 1.021 . S
C1801 C1370 1.078 . S
C1803 C446 1.078 . S
C1819 C512 1.069 . S
C1821 C1436 1.069 . S
C1837 C1238 1.078 . S
C1839 C578 1.079 . S
C1855 C644 1.069 . S
C1857 C1304 1.069 . S
C1873 C677 1.021 . S
C1875 C1172 1.021 . S
C1891 C1139 1.042 . S
C1893 C710 1.042 . S
C1909 C1106 1.041 . S
C1911 C743 1.041 . S
C1927 C776 1.040 . S
C1929 C1073 1.040 . S
C1945 C809 1.059 . S
C1947 C1337 1.058 . S
C1963 C875 1.063 . S
C1965 C1403 1.062 . S
C1981 C941 1.051 . S
C1983 C1205 1.051 . S
C1999 C1007 1.063 . S
C2001 C1271 1.063 . S
C2017 C107 1.758 . S
C2019 N14 1.684 . S
C2035 N38 1.548 . S
C2037 C28 1.817 . S
C2053 C41 1.804 . S
C2055 N71 1.565 . S
C2071 N104 1.564 . S
C2073 C74 1.801 . S
C2089 N137 1.536 . S
C2091 C173 1.768 . S
C2107 C206 1.803 . S
C2109 N170 1.558 . S
C2125 N203 1.520 . S
C2127 C259 1.781 . S
C2143 N245 1.673 . S
C2145 C140 1.747 . S
C2161 N113 1.669 . S
C2163 C272 1.744 . S
C2179 C358 1.811 . S
C2181 N5 1.545 . S
C2197 C391 1.810 . S
C2199 N47 1.708 . S
C2215 C325 1.781 . S
C2217 N80 1.678 . S
C2233 C305 1.793 . S
C2235 N179 1.716 . S
C2251 C292 1.798 . S
C2253 N212 1.699 . S
C2269 N236 1.544 . S
C2271 C338 1.785 . S
C2287 N146 1.668 . S
C2289 C371 1.744 . S
C2305 C8 1.744 . S
C2307 N278 1.669 . S
C2323 C160 1.755 . S
C2325 N311 1.660 . S
C2341 N269 1.500 . S
C2343 C193 1.753 . S
C2359 C226 1.786 . S
C2361 N344 1.686 . S
C2377 N377 1.677 . S
C2379 C239 1.751 . S
C2395 C94 1.739 . S
C2397 N368 1.490 . S
C2413 N302 1.511 . S
C2415 C127 1.771 . S
C2431 C61 1.788 . S
C2433 N335 1.524 . S
C2449 C503 1.743 . S
C2451 N410 1.669 . S
C2467 C424 1.811 . S
C2469 N434 1.544 . S
C2485 N467 1.571 . S
C2487 C437 1.814 . S
C2503 N500 1.543 . S
C2505 C470 1.779 . S
C2521 N533 1.559 . S
C2523 C569 1.797 . S
C2539 N566 1.554 . S
C2541 C602 1.798 . S
C2557 N599 1.516 . S
C2559 C655 1.777 . S
C2575 C536 1.769 . S
C2577 N641 1.695 . S
C2593 C668 1.739 . S
C2595 N509 1.664 . S
C2611 C754 1.787 . S
C2613 N401 1.523 . S
C2629 N443 1.716 . S
C2631 C787 1.817 . S
C2647 C701 1.776 . S
C2649 N476 1.699 . S
C2665 C721 1.801 . S
C2667 N575 1.701 . S
C2683 N608 1.698 . S
C2685 C688 1.799 . S
C2701 C734 1.802 . S
C2703 N632 1.563 . S
C2719 C767 1.757 . S
C2721 N542 1.681 . S
C2737 N674 1.667 . S
C2739 C404 1.741 . S
C2755 C556 1.773 . S
C2757 N698 1.513 . S
C2773 N665 1.484 . S
C2775 C589 1.735 . S
C2791 N740 1.681 . S
C2793 C622 1.779 . S
C2809 N773 1.682 . S
C2811 C635 1.756 . S
C2827 N764 1.507 . S
C2829 C490 1.761 . S
C2845 C523 1.759 . S
C2847 N707 1.663 . S
C2863 N731 1.529 . S
C2865 C457 1.794 . S
C2881 N806 1.684 . S
C2883 C899 1.758 . S
C2899 N830 1.548 . S
C2901 C820 1.817 . S
C2917 N863 1.562 . S
C2919 C833 1.804 . S
C2935 C866 1.804 . S
C2937 N896 1.564 . S
C2953 N929 1.536 . S
C2955 C965 1.768 . S
C2971 N962 1.558 . S
C2973 C998 1.803 . S
C2989 N995 1.520 . S
C2991 C1051 1.781 . S
C3007 C932 1.747 . S
C3009 N1037 1.673 . S
C3025 N905 1.669 . S
C3027 C1064 1.744 . S
C3043 N797 1.545 . S
C3045 C1150 1.811 . S
C3061 C1183 1.810 . S
C3063 N839 1.708 . S
C3079 C1117 1.781 . S
C3081 N872 1.681 . S
C3097 C1097 1.793 . S
C3099 N971 1.716 . S
C3115 C1084 1.798 . S
C3117 N1004 1.699 . S
C3133 C1130 1.785 . S
C3135 N1028 1.544 . S
C3151 C1163 1.744 . S
C3153 N938 1.668 . S
C3169 N1070 1.669 . S
C3171 C800 1.744 . S
C3187 C952 1.755 . S
C3189 N1103 1.660 . S
C3205 N1061 1.500 . S
C3207 C985 1.753 . S
C3223 C1018 1.786 . S
C3225 N1136 1.686 . S
C3241 N1169 1.677 . S
C3243 C1031 1.751 . S
C3259 N1160 1.488 . S
C3261 C886 1.740 . S
C3277 N1094 1.511 . S
C3279 C919 1.771 . S
C3295 N1127 1.524 . S
C3297 C853 1.788 . S
C3313 N1202 1.669 . S
C3315 C1295 1.743 . S
C3331 N1226 1.544 . S
C3333 C1216 1.811 . S
C3349 N1259 1.571 . S
C3351 C1229 1.814 . S
C3367 N1292 1.543 . S
C3369 C1262 1.779 . S
C3385 N1325 1.559 . S
C3387 C1361 1.797 . S
C3403 N1358 1.554 . S
C3405 C1394 1.797 . S
C3421 N1391 1.516 . S
C3423 C1447 1.777 . S
C3439 N1433 1.695 . S
C3441 C1328 1.769 . S
C3457 N1301 1.664 . S
C3459 C1460 1.739 . S
C3475 N1193 1.523 . S
C3477 C1546 1.787 . S
C3493 N1235 1.716 . S
C3495 C1579 1.817 . S
C3511 N1268 1.699 . S
C3513 C1493 1.776 . S
C3529 C1513 1.801 . S
C3531 N1367 1.701 . S
C3547 C1480 1.799 . S
C3549 N1400 1.698 . S
C3565 N1424 1.563 . S
C3567 C1526 1.802 . S
C3583 N1334 1.681 . S
C3585 C1559 1.757 . S
C3601 C1196 1.741 . S
C3603 N1466 1.667 . S
C3619 N1490 1.513 . S
C3621 C1348 1.773 . S
C3637 C1381 1.735 . S
C3639 N1457 1.484 . S
C3655 N1532 1.681 . S
C3657 C1414 1.779 . S
C3673 C1427 1.756 . S
C3675 N1565 1.682 . S
C3691 C1282 1.761 . S
C3693 N1556 1.507 . S
C3709 N1499 1.663 . S
C3711 C1315 1.759 . S
C3727 C1249 1.794 . S
C3729 N1523 1.529 . S
