# Generated by pormake.
# Topology umm, (4)-cn, num edge types: 1
# Building blocks:
#     Node 0, Type 0, BuildingBlock: QUQFOY_clean_sbu_3, # of connection points: 4
#     Node 1, Type 0, BuildingBlock: QUQFOY_clean_sbu_3, # of connection points: 4
#     Node 2, Type 0, BuildingBlock: QUQFOY_clean_sbu_3, # of connection points: 4
#     Node 3, Type 0, BuildingBlock: QUQFOY_clean_sbu_3, # of connection points: 4
#     Node 4, Type 0, BuildingBlock: QUQFOY_clean_sbu_3, # of connection points: 4
#     Node 5, Type 0, BuildingBlock: QUQFOY_clean_sbu_3, # of connection points: 4
#     Node 6, Type 0, BuildingBlock: QUQFOY_clean_sbu_3, # of connection points: 4
#     Node 7, Type 0, BuildingBlock: QUQFOY_clean_sbu_3, # of connection points: 4
#     Node 8, Type 0, BuildingBlock: QUQFOY_clean_sbu_3, # of connection points: 4
#     Node 9, Type 0, BuildingBlock: QUQFOY_clean_sbu_3, # of connection points: 4
#     Node 10, Type 0, BuildingBlock: QUQFOY_clean_sbu_3, # of connection points: 4
#     Node 11, Type 0, BuildingBlock: QUQFOY_clean_sbu_3, # of connection points: 4
#     Edge 12, Type (0, 0), BuildingBlock: TEMPAE_clean_linker_10, # of connection points: 2
#     Edge 13, Type (0, 0), BuildingBlock: TEMPAE_clean_linker_10, # of connection points: 2
#     Edge 14, Type (0, 0), BuildingBlock: TEMPAE_clean_linker_10, # of connection points: 2
#     Edge 15, Type (0, 0), BuildingBlock: TEMPAE_clean_linker_10, # of connection points: 2
#     Edge 16, Type (0, 0), BuildingBlock: TEMPAE_clean_linker_10, # of connection points: 2
#     Edge 17, Type (0, 0), BuildingBlock: TEMPAE_clean_linker_10, # of connection points: 2
#     Edge 18, Type (0, 0), BuildingBlock: TEMPAE_clean_linker_10, # of connection points: 2
#     Edge 19, Type (0, 0), BuildingBlock: TEMPAE_clean_linker_10, # of connection points: 2
#     Edge 20, Type (0, 0), BuildingBlock: TEMPAE_clean_linker_10, # of connection points: 2
#     Edge 21, Type (0, 0), BuildingBlock: TEMPAE_clean_linker_10, # of connection points: 2
#     Edge 22, Type (0, 0), BuildingBlock: TEMPAE_clean_linker_10, # of connection points: 2
#     Edge 23, Type (0, 0), BuildingBlock: TEMPAE_clean_linker_10, # of connection points: 2
#     Edge 24, Type (0, 0), BuildingBlock: TEMPAE_clean_linker_10, # of connection points: 2
#     Edge 25, Type (0, 0), BuildingBlock: TEMPAE_clean_linker_10, # of connection points: 2
#     Edge 26, Type (0, 0), BuildingBlock: TEMPAE_clean_linker_10, # of connection points: 2
#     Edge 27, Type (0, 0), BuildingBlock: TEMPAE_clean_linker_10, # of connection points: 2
#     Edge 28, Type (0, 0), BuildingBlock: TEMPAE_clean_linker_10, # of connection points: 2
#     Edge 29, Type (0, 0), BuildingBlock: TEMPAE_clean_linker_10, # of connection points: 2
#     Edge 30, Type (0, 0), BuildingBlock: TEMPAE_clean_linker_10, # of connection points: 2
#     Edge 31, Type (0, 0), BuildingBlock: TEMPAE_clean_linker_10, # of connection points: 2
#     Edge 32, Type (0, 0), BuildingBlock: TEMPAE_clean_linker_10, # of connection points: 2
#     Edge 33, Type (0, 0), BuildingBlock: TEMPAE_clean_linker_10, # of connection points: 2
#     Edge 34, Type (0, 0), BuildingBlock: TEMPAE_clean_linker_10, # of connection points: 2
#     Edge 35, Type (0, 0), BuildingBlock: TEMPAE_clean_linker_10, # of connection points: 2
# Relax obj value: 0.135
# Max RMSD: 0.441
# Mean RMSD: 0.267
data_MOF--net-umm--node1-QUQFOY_clean_sbu_3--edge1-TEMPAE_clean_linker_10
_symmetry_space_group_name_H-M    P1
_symmetry_Int_Tables_number       1
_symmetry_cell_setting            triclinic
loop_
_symmetry_equiv_pos_as_xyz
'x, y, z'
_cell_length_a     56.491629
_cell_length_b     49.435765
_cell_length_c     30.25512
_cell_angle_alpha  90.049421
_cell_angle_beta   89.978234
_cell_angle_gamma 116.06316
loop_
_atom_site_label
_atom_site_type_symbol
_atom_site_fract_x
_atom_site_fract_y
_atom_site_fract_z
_atom_type_partial_charge
C0 C 0.29908 0.42844 0.03164 0.0
O1 O 0.29737 0.40213 0.02704 0.0
Cd2 Cd 0.34355 0.40956 0.02303 0.0
O3 O 0.32038 0.44902 0.04573 0.0
Cd4 Cd 0.36298 0.46089 0.07353 0.0
C5 C 0.36164 0.47798 0.97341 0.0
O6 O 0.38226 0.42479 0.07081 0.0
O7 O 0.40342 0.47055 0.04441 0.0
O8 O 0.34793 0.45662 0.14783 0.0
C9 C 0.40347 0.44582 0.05523 0.0
O10 O 0.35632 0.4502 0.97035 0.0
C11 C 0.36379 0.48341 0.15829 0.0
O12 O 0.36444 0.49084 0.01071 0.0
O13 O 0.38004 0.49989 0.12929 0.0
C14 C 0.82335 0.33576 0.33676 0.0
O15 O 0.84354 0.34861 0.31239 0.0
Cd16 Cd 0.87653 0.40025 0.31862 0.0
O17 O 0.81874 0.3498 0.36835 0.0
Cd18 Cd 0.84186 0.40212 0.39634 0.0
C19 C 0.83567 0.4294 0.30292 0.0
O20 O 0.88728 0.40842 0.3939 0.0
O21 O 0.88177 0.44892 0.39623 0.0
O22 O 0.83127 0.38438 0.47015 0.0
C23 C 0.89741 0.43679 0.39811 0.0
O24 O 0.86036 0.43806 0.30497 0.0
C25 C 0.82435 0.40458 0.48148 0.0
O26 O 0.82147 0.41408 0.33468 0.0
O27 O 0.82393 0.42271 0.45215 0.0
C28 C 0.39778 0.79986 0.67522 0.0
O29 O 0.42096 0.82059 0.66984 0.0
Cd30 Cd 0.42663 0.87036 0.66561 0.0
O31 O 0.37912 0.8054 0.68938 0.0
Cd32 Cd 0.37137 0.84659 0.72206 0.0
C33 C 0.36163 0.84735 0.62121 0.0
O34 O 0.41565 0.88052 0.73496 0.0
O35 O 0.39107 0.90215 0.71834 0.0
O36 O 0.37072 0.8224 0.78923 0.0
C37 C 0.41351 0.90463 0.73008 0.0
O38 O 0.38644 0.85659 0.62439 0.0
C39 C 0.35288 0.82758 0.80726 0.0
O40 O 0.34695 0.84111 0.65518 0.0
O41 O 0.34104 0.83906 0.78337 0.0
C42 C 0.69532 0.57109 0.0338 0.0
O43 O 0.6934 0.59538 0.02646 0.0
Cd44 Cd 0.64797 0.57171 0.05098 0.0
O45 O 0.67616 0.54896 0.05106 0.0
Cd46 Cd 0.63103 0.54204 0.07324 0.0
C47 C 0.62528 0.51551 -0.01753 0.0
O48 O 0.60804 0.57234 0.03873 0.0
O49 O 0.60005 0.5584 0.10593 0.0
O50 O 0.65016 0.54675 0.14447 0.0
C51 C 0.59186 0.56494 0.07053 0.0
O52 O 0.63953 0.54358 -0.01612 0.0
C53 C 0.63271 0.52144 0.15812 0.0
O54 O 0.61494 0.50154 0.01785 0.0
O55 O 0.61425 0.50539 0.13169 0.0
C56 C 0.16232 0.65667 0.33254 0.0
O57 O 0.1421 0.64409 0.30808 0.0
Cd58 Cd 0.10728 0.59345 0.31444 0.0
O59 O 0.16698 0.64254 0.36397 0.0
Cd60 Cd 0.1474 0.59124 0.39471 0.0
C61 C 0.14764 0.56197 0.30582 0.0
O62 O 0.10337 0.58959 0.39152 0.0
O63 O 0.10564 0.54832 0.40819 0.0
O64 O 0.16662 0.61662 0.46196 0.0
C65 C 0.09176 0.56244 0.4039 0.0
O66 O 0.12427 0.55621 0.31677 0.0
C67 C 0.16678 0.59335 0.47929 0.0
O68 O 0.16552 0.57387 0.33458 0.0
O69 O 0.16049 0.57012 0.45538 0.0
C70 C 0.5969 0.20221 0.69081 0.0
O71 O 0.57298 0.18272 0.68867 0.0
Cd72 Cd 0.56259 0.13162 0.67829 0.0
O73 O 0.61542 0.19479 0.6987 0.0
Cd74 Cd 0.62177 0.1509 0.72457 0.0
C75 C 0.62413 0.14892 0.62277 0.0
O76 O 0.57761 0.11687 0.73968 0.0
O77 O 0.60199 0.09588 0.71823 0.0
O78 O 0.62497 0.17516 0.79241 0.0
C79 C 0.57958 0.09298 0.73081 0.0
O80 O 0.60019 0.14183 0.63225 0.0
C81 C 0.64127 0.16713 0.80983 0.0
O82 O 0.64147 0.15465 0.65281 0.0
O83 O 0.65152 0.15425 0.78493 0.0
C84 C 0.39255 0.60249 0.61233 0.0
O85 O 0.41222 0.60337 0.63365 0.0
Cd86 Cd 0.42513 0.56379 0.63697 0.0
O87 O 0.37846 0.58039 0.58781 0.0
Cd88 Cd 0.37586 0.53226 0.56309 0.0
C89 C 0.36169 0.51113 0.6662 0.0
O90 O 0.42191 0.54641 0.56474 0.0
O91 O 0.39687 0.49856 0.55975 0.0
O92 O 0.37317 0.55063 0.49133 0.0
C93 C 0.41987 0.52001 0.56122 0.0
O94 O 0.38625 0.52707 0.67235 0.0
C95 C 0.3562 0.52551 0.47677 0.0
O96 O 0.35064 0.50998 0.62913 0.0
O97 O 0.34657 0.50372 0.50398 0.0
C98 C 0.82361 0.49301 0.94476 0.0
O99 O 0.84664 0.50912 0.95938 0.0
Cd100 Cd 0.88195 0.49525 0.96226 0.0
O101 O 0.81825 0.46849 0.92431 0.0
Cd102 Cd 0.84386 0.44262 0.89492 0.0
C103 C 0.84455 0.4195 -0.00662 0.0
O104 O 0.88852 0.48213 0.89169 0.0
O105 O 0.88398 0.43634 0.89214 0.0
O106 O 0.83211 0.45336 0.82461 0.0
C107 C 0.89913 0.46428 0.89054 0.0
O108 O 0.86178 0.44676 -0.00311 0.0
C109 C 0.82607 0.42752 0.80832 0.0
O110 O 0.8308 0.40986 0.95849 0.0
O111 O 0.82613 0.4072 0.83409 0.0
C112 C 0.29154 0.86747 0.25674 0.0
O113 O 0.29391 0.89288 0.26991 0.0
Cd114 Cd 0.34066 0.93201 0.26553 0.0
O115 O 0.3102 0.86613 0.23565 0.0
Cd116 Cd 0.35255 0.89765 0.21006 0.0
C117 C 0.35898 0.88346 0.3123 0.0
O118 O 0.38064 0.95187 0.21926 0.0
O119 O 0.39473 0.91771 0.23334 0.0
O120 O 0.3462 0.89866 0.13227 0.0
C121 C 0.39956 0.94517 0.22941 0.0
O122 O 0.35708 0.90797 0.31754 0.0
C123 C 0.35417 0.87876 0.12425 0.0
O124 O 0.3551 0.87058 0.2748 0.0
O125 O 0.36118 0.86756 0.15663 0.0
C126 C 0.59798 0.39393 0.60488 0.0
O127 O 0.57445 0.38918 0.61371 0.0
Cd128 Cd 0.56284 0.42921 0.62273 0.0
O129 O 0.61536 0.41934 0.5913 0.0
Cd130 Cd 0.62302 0.47031 0.56582 0.0
C131 C 0.62839 0.4753 0.66486 0.0
O132 O 0.57673 0.45769 0.55899 0.0
O133 O 0.6028 0.50485 0.5682 0.0
O134 O 0.62693 0.4528 0.49323 0.0
C135 C 0.57952 0.48439 0.56305 0.0
O136 O 0.60557 0.45926 0.65012 0.0
C137 C 0.64261 0.4786 0.47881 0.0
O138 O 0.6469 0.48863 0.63723 0.0
O139 O 0.65194 0.50001 0.50676 0.0
C140 C 0.16363 0.49828 0.94269 0.0
O141 O 0.14107 0.48331 0.96015 0.0
Cd142 Cd 0.10588 0.49754 0.96224 0.0
O143 O 0.16898 0.5222 0.92028 0.0
Cd144 Cd 0.14879 0.55506 0.89187 0.0
C145 C 0.15206 0.57423 -0.01619 0.0
O146 O 0.10279 0.51564 0.89235 0.0
O147 O 0.10906 0.56205 0.89118 0.0
O148 O 0.16134 0.54773 0.81941 0.0
C149 C 0.09308 0.53439 0.89152 0.0
O150 O 0.13631 0.54766 0.9737 0.0
C151 C 0.16564 0.57378 0.80592 0.0
O152 O 0.16721 0.59085 0.95396 0.0
O153 O 0.1645 0.59226 0.83399 0.0
C154 C 0.70138 0.12252 0.25096 0.0
O155 O 0.6883 0.10259 0.27905 0.0
Cd156 Cd 0.64829 0.05625 0.26365 0.0
O157 O 0.69256 0.11976 0.21198 0.0
Cd158 Cd 0.64463 0.09662 0.20675 0.0
C159 C 0.63256 0.1029 0.31277 0.0
O160 O 0.61168 0.04329 0.21265 0.0
O161 O 0.60249 0.08051 0.23071 0.0
O162 O 0.63795 0.09433 0.12883 0.0
C163 C 0.59461 0.05252 0.22449 0.0
O164 O 0.62808 0.07536 0.3148 0.0
C165 C 0.6366 0.11927 0.12679 0.0
O166 O 0.64319 0.11882 0.27866 0.0
O167 O 0.63999 0.13445 0.16213 0.0
C168 C 0.38479 0.50557 0.22961 0.0
C169 C 0.36265 0.49482 0.20223 0.0
C170 C 0.38279 0.51285 0.27377 0.0
C171 C 0.35824 0.51002 0.28987 0.0
C172 C 0.33633 0.50104 0.26121 0.0
C173 C 0.33868 0.49291 0.21776 0.0
C174 C 0.40642 0.52165 0.30368 0.0
C175 C 0.31023 0.49905 0.27688 0.0
C176 C 0.3443 0.49216 0.41113 0.0
C177 C 0.35178 0.52089 0.42899 0.0
C178 C 0.34602 0.48831 0.36563 0.0
C179 C 0.35476 0.51373 0.3375 0.0
C180 C 0.36075 0.54252 0.35505 0.0
C181 C 0.35943 0.54581 0.40081 0.0
C182 C 0.33985 0.45732 0.34797 0.0
C183 C 0.36981 0.57002 0.32588 0.0
H184 H 0.40322 0.50672 0.21716 0.0
H185 H 0.32171 0.48477 0.19596 0.0
H186 H 0.40927 0.54142 0.32425 0.0
H187 H 0.40308 0.50273 0.32646 0.0
H188 H 0.4248 0.52699 0.28476 0.0
H189 H 0.29583 0.49401 0.24946 0.0
H190 H 0.30168 0.48112 0.30221 0.0
H191 H 0.31315 0.52056 0.29266 0.0
H192 H 0.33874 0.47294 0.43293 0.0
H193 H 0.36532 0.56807 0.41469 0.0
H194 H 0.35767 0.45755 0.33219 0.0
H195 H 0.32433 0.45075 0.32223 0.0
H196 H 0.33307 0.43989 0.37429 0.0
H197 H 0.39005 0.576 0.31385 0.0
H198 H 0.37 0.58976 0.34375 0.0
H199 H 0.35689 0.5654 0.29645 0.0
C200 C 0.84687 0.42812 0.54987 0.0
C201 C 0.8232 0.41089 0.52798 0.0
C202 C 0.84734 0.43193 0.59561 0.0
C203 C 0.82346 0.41791 0.61947 0.0
C204 C 0.79935 0.40127 0.59706 0.0
C205 C 0.79952 0.39782 0.55116 0.0
C206 C 0.87351 0.44969 0.61824 0.0
C207 C 0.77357 0.38655 0.62178 0.0
C208 C 0.82558 0.39929 0.73998 0.0
C209 C 0.82264 0.42305 0.76041 0.0
C210 C 0.82631 0.39759 0.69385 0.0
C211 C 0.82361 0.41992 0.66803 0.0
C212 C 0.82049 0.44383 0.68849 0.0
C213 C 0.82001 0.44508 0.73454 0.0
C214 C 0.83059 0.37239 0.67273 0.0
C215 C 0.81849 0.46855 0.66179 0.0
H216 H 0.86514 0.43789 0.53123 0.0
H217 H 0.78137 0.38438 0.5336 0.0
H218 H 0.87181 0.46406 0.64502 0.0
H219 H 0.88023 0.43384 0.63341 0.0
H220 H 0.88889 0.46422 0.59458 0.0
H221 H 0.75651 0.37501 0.59929 0.0
H222 H 0.77425 0.3698 0.64552 0.0
H223 H 0.77038 0.40371 0.64123 0.0
H224 H 0.82829 0.38268 0.75998 0.0
H225 H 0.81817 0.46376 0.75033 0.0
H226 H 0.84885 0.38191 0.65254 0.0
H227 H 0.81402 0.35928 0.65012 0.0
H228 H 0.83233 0.35682 0.69757 0.0
H229 H 0.83718 0.48132 0.64357 0.0
H230 H 0.81459 0.48459 0.68282 0.0
H231 H 0.80254 0.45879 0.63688 0.0
C232 C 0.32825 0.82553 0.87654 0.0
C233 C 0.35076 0.82684 0.85555 0.0
C234 C 0.32842 0.83058 0.92214 0.0
C235 C 0.35199 0.83839 0.94631 0.0
C236 C 0.3745 0.8388 0.92546 0.0
C237 C 0.37336 0.83221 0.88045 0.0
C238 C 0.30387 0.82914 0.94399 0.0
C239 C 0.40025 0.84795 0.94989 0.0
C240 C 0.35987 0.88892 0.04406 0.0
C241 C 0.35489 0.86876 0.07912 0.0
C242 C 0.35992 0.87947 0.00056 0.0
C243 C 0.35384 0.84893 -0.00771 0.0
C244 C 0.34919 0.82861 0.02774 0.0
C245 C 0.35013 0.83895 0.07102 0.0
C246 C 0.36647 0.90214 0.96354 0.0
C247 C 0.34225 0.79581 0.01994 0.0
H248 H 0.31085 0.82141 0.85718 0.0
H249 H 0.39093 0.83353 0.86413 0.0
H250 H 0.29986 0.81608 0.9752 0.0
H251 H 0.3068 0.85223 0.95257 0.0
H252 H 0.28634 0.8187 0.92217 0.0
H253 H 0.41663 0.85035 0.92746 0.0
H254 H 0.40586 0.86968 0.9673 0.0
H255 H 0.39803 0.83084 0.97527 0.0
H256 H 0.364 0.91213 0.05072 0.0
H257 H 0.34624 0.82347 0.09846 0.0
H258 H 0.34911 0.89601 0.94169 0.0
H259 H 0.38269 0.90194 0.94302 0.0
H260 H 0.37251 0.92539 0.976 0.0
H261 H 0.32281 0.78483 0.00327 0.0
H262 H 0.34129 0.78361 0.05122 0.0
H263 H 0.35685 0.79344 -0.00223 0.0
C264 C 0.65824 0.51746 0.22203 0.0
C265 C 0.63383 0.51161 0.20338 0.0
C266 C 0.66009 0.51012 0.26612 0.0
C267 C 0.63705 0.49766 0.29241 0.0
C268 C 0.61223 0.49141 0.27349 0.0
C269 C 0.61088 0.49807 0.22876 0.0
C270 C 0.68674 0.51618 0.28479 0.0
C271 C 0.58734 0.47935 0.30085 0.0
C272 C 0.63898 0.46049 0.40104 0.0
C273 C 0.64502 0.48434 0.43088 0.0
C274 C 0.63643 0.46451 0.3557 0.0
C275 C 0.63937 0.49281 0.34021 0.0
C276 C 0.64542 0.51693 0.37021 0.0
C277 C 0.64869 0.51255 0.41511 0.0
C278 C 0.63014 0.43839 0.32447 0.0
C279 C 0.6479 0.54719 0.35512 0.0
H280 H 0.67592 0.5278 0.20203 0.0
H281 H 0.59206 0.494 0.2142 0.0
H282 H 0.69235 0.53367 0.31089 0.0
H283 H 0.68592 0.49546 0.30037 0.0
H284 H 0.70238 0.52394 0.2591 0.0
H285 H 0.56937 0.47137 0.27994 0.0
H286 H 0.58603 0.46056 0.32228 0.0
H287 H 0.58765 0.4975 0.32279 0.0
H288 H 0.63572 0.43853 0.4133 0.0
H289 H 0.65269 0.53083 0.43821 0.0
H290 H 0.64555 0.44474 0.29852 0.0
H291 H 0.61114 0.43277 0.30751 0.0
H292 H 0.62881 0.41795 0.34173 0.0
H293 H 0.66615 0.55875 0.33533 0.0
H294 H 0.64871 0.56197 0.38334 0.0
H295 H 0.63105 0.54435 0.33364 0.0
C296 C 0.18752 0.61313 0.55149 0.0
C297 C 0.1674 0.59107 0.52697 0.0
C298 C 0.18663 0.61223 0.59765 0.0
C299 C 0.16462 0.58939 0.61897 0.0
C300 C 0.1436 0.56795 0.59403 0.0
C301 C 0.14552 0.56872 0.54805 0.0
C302 C 0.20944 0.63517 0.62358 0.0
C303 C 0.11902 0.54459 0.61576 0.0
C304 C 0.17641 0.56407 0.73038 0.0
C305 C 0.16789 0.58036 0.75866 0.0
C306 C 0.1753 0.56684 0.68468 0.0
C307 C 0.16504 0.58601 0.66715 0.0
C308 C 0.15595 0.60218 0.69551 0.0
C309 C 0.15797 0.59959 0.74124 0.0
C310 C 0.18467 0.54883 0.65513 0.0
C311 C 0.14378 0.62176 0.67776 0.0
H312 H 0.204 0.63075 0.53455 0.0
H313 H 0.12946 0.55251 0.52842 0.0
H314 H 0.20233 0.64728 0.64693 0.0
H315 H 0.21872 0.62356 0.64351 0.0
H316 H 0.22469 0.65195 0.60187 0.0
H317 H 0.10494 0.52891 0.59138 0.0
H318 H 0.12415 0.53124 0.64009 0.0
H319 H 0.10895 0.55599 0.63413 0.0
H320 H 0.18362 0.54883 0.74407 0.0
H321 H 0.15068 0.61153 0.76332 0.0
H322 H 0.19992 0.56405 0.63194 0.0
H323 H 0.168 0.53278 0.63498 0.0
H324 H 0.19302 0.53585 0.6742 0.0
H325 H 0.15951 0.64305 0.66482 0.0
H326 H 0.13279 0.62747 0.70371 0.0
H327 H 0.13013 0.61046 0.65004 0.0
C328 C 0.61376 0.1117 0.05503 0.0
C329 C 0.63301 0.13077 0.08432 0.0
C330 C 0.61294 0.12077 0.01153 0.0
C331 C 0.63272 0.14882 -0.00298 0.0
C332 C 0.65112 0.16884 0.02743 0.0
C333 C 0.65073 0.1597 0.07123 0.0
C334 C 0.59206 0.09944 -0.01932 0.0
C335 C 0.67251 0.19884 0.0129 0.0
C336 C 0.65511 0.15081 0.87892 0.0
C337 C 0.64333 0.16713 0.85828 0.0
C338 C 0.65187 0.14488 0.92431 0.0
C339 C 0.6365 0.15556 0.94935 0.0
C340 C 0.62517 0.17274 0.929 0.0
C341 C 0.62897 0.17861 0.88372 0.0
C342 C 0.66407 0.12624 0.94519 0.0
C343 C 0.60774 0.18333 0.95435 0.0
H344 H 0.59985 0.08943 0.06584 0.0
H345 H 0.66553 0.17425 0.09433 0.0
H346 H 0.5857 0.11182 0.95656 0.0
H347 H 0.60019 0.08615 0.96186 0.0
H348 H 0.5745 0.08343 -0.0008 0.0
H349 H 0.68427 0.21248 0.04119 0.0
H350 H 0.68598 0.1951 -0.01037 0.0
H351 H 0.66387 0.21195 -0.00496 0.0
H352 H 0.66581 0.14147 0.85931 0.0
H353 H 0.61948 0.19092 0.86784 0.0
H354 H 0.64833 0.10473 0.95756 0.0
H355 H 0.67634 0.13834 0.97397 0.0
H356 H 0.67651 0.12095 0.92157 0.0
H357 H 0.58919 0.16357 0.9636 0.0
H358 H 0.60265 0.19902 0.93469 0.0
H359 H 0.6174 0.19471 -0.01454 0.0
C360 C 0.28539 0.46854 0.01407 0.0
C361 C 0.27884 0.43757 0.01556 0.0
C362 C 0.26806 0.47909 -0.00304 0.0
C363 C 0.24304 0.45819 -0.01804 0.0
C364 C 0.23634 0.42695 -0.01773 0.0
C365 C 0.25445 0.41695 -0.00119 0.0
C366 C 0.27632 0.51263 -0.00317 0.0
C367 C 0.20985 0.40417 0.96581 0.0
C368 C 0.18719 0.48021 -0.00512 0.0
C369 C 0.18448 0.48889 0.95189 0.0
C370 C 0.20651 0.47071 0.00502 0.0
C371 C 0.22292 0.46886 0.97098 0.0
C372 C 0.22053 0.47801 0.92747 0.0
C373 C 0.20152 0.48845 0.91857 0.0
C374 C 0.20943 0.46281 0.0523 0.0
C375 C 0.23803 0.47688 0.89052 0.0
H376 H 0.30439 0.48495 0.02597 0.0
H377 H 0.24946 0.39313 -0.00105 0.0
H378 H 0.27043 0.5198 0.96569 0.0
H379 H 0.2664 0.51836 0.02443 0.0
H380 H 0.29796 0.52584 0.00102 0.0
H381 H 0.20784 0.38081 0.96708 0.0
H382 H 0.19396 0.40538 -0.01392 0.0
H383 H 0.20685 0.40949 0.93123 0.0
H384 H 0.17439 0.48133 0.02082 0.0
H385 H 0.19952 0.49552 0.88543 0.0
H386 H 0.22973 0.47715 0.06417 0.0
H387 H 0.20628 0.43905 0.05427 0.0
H388 H 0.19532 0.46589 0.07493 0.0
H389 H 0.25872 0.49335 0.897 0.0
H390 H 0.23204 0.48211 0.85789 0.0
H391 H 0.23761 0.45425 0.88889 0.0
C392 C 0.77989 0.29707 0.31046 0.0
C393 C 0.80494 0.30429 0.32768 0.0
C394 C 0.76289 0.26724 0.29868 0.0
C395 C 0.77104 0.24419 0.30542 0.0
C396 C 0.79613 0.25152 0.32409 0.0
C397 C 0.81295 0.2816 0.33433 0.0
C398 C 0.73637 0.26049 0.27878 0.0
C399 C 0.80539 0.22763 0.33258 0.0
C400 C 0.71998 0.16221 0.30915 0.0
C401 C 0.72154 0.15232 0.26614 0.0
C402 C 0.73565 0.19211 0.3222 0.0
C403 C 0.7538 0.21253 0.29188 0.0
C404 C 0.75589 0.20254 0.24876 0.0
C405 C 0.73953 0.17266 0.23625 0.0
C406 C 0.73224 0.20204 0.36803 0.0
C407 C 0.77493 0.22367 0.21542 0.0
H408 H 0.77392 0.31488 0.3051 0.0
H409 H 0.83241 0.28744 0.34768 0.0
H410 H 0.73334 0.2474 0.24775 0.0
H411 H 0.72053 0.24651 0.30204 0.0
H412 H 0.7342 0.28131 0.27147 0.0
H413 H 0.82458 0.2367 0.3502 0.0
H414 H 0.79059 0.2091 0.35256 0.0
H415 H 0.8075 0.2178 0.30069 0.0
H416 H 0.70555 0.14694 0.3321 0.0
H417 H 0.74047 0.16533 0.20279 0.0
H418 H 0.72508 0.21959 0.36567 0.0
H419 H 0.75145 0.21222 0.38551 0.0
H420 H 0.718 0.18312 0.38822 0.0
H421 H 0.76928 0.24198 0.20756 0.0
H422 H 0.77533 0.21201 0.18423 0.0
H423 H 0.79514 0.23437 0.22941 0.0
C424 C 0.36863 0.74926 0.6453 0.0
C425 C 0.39246 0.76886 0.6651 0.0
C426 C 0.3641 0.71996 0.6336 0.0
C427 C 0.38366 0.71028 0.64314 0.0
C428 C 0.40747 0.72991 0.66407 0.0
C429 C 0.41171 0.75919 0.67423 0.0
C430 C 0.33869 0.69956 0.61083 0.0
C431 C 0.42866 0.72019 0.67524 0.0
C432 C 0.37357 0.6305 0.65505 0.0
C433 C 0.38582 0.62747 0.61654 0.0
C434 C 0.37024 0.65652 0.66234 0.0
C435 C 0.38002 0.67992 0.63067 0.0
C436 C 0.3908 0.67591 0.59035 0.0
C437 C 0.39345 0.6494 0.58364 0.0
C438 C 0.35834 0.66001 0.70541 0.0
C439 C 0.4014 0.70049 0.55595 0.0
H440 H 0.3539 0.75711 0.63793 0.0
H441 H 0.43004 0.7745 0.68974 0.0
H442 H 0.3429 0.69089 0.57944 0.0
H443 H 0.32729 0.67977 0.63202 0.0
H444 H 0.32622 0.71122 0.60346 0.0
H445 H 0.44528 0.73775 0.69382 0.0
H446 H 0.42032 0.69935 0.69541 0.0
H447 H 0.43656 0.7151 0.6444 0.0
H448 H 0.36754 0.61303 0.68007 0.0
H449 H 0.4028 0.64652 0.55386 0.0
H450 H 0.34386 0.66914 0.69952 0.0
H451 H 0.37409 0.67627 0.7269 0.0
H452 H 0.3484 0.6383 0.72341 0.0
H453 H 0.38631 0.70827 0.54746 0.0
H454 H 0.40752 0.69293 0.52524 0.0
H455 H 0.41873 0.72014 0.56943 0.0
C456 C 0.7295 0.55419 0.04735 0.0
C457 C 0.71704 0.56536 0.01755 0.0
C458 C 0.74456 0.53988 0.03235 0.0
C459 C 0.74697 0.53644 -0.01363 0.0
C460 C 0.734 0.54721 0.95604 0.0
C461 C 0.71928 0.5618 0.97206 0.0
C462 C 0.75756 0.52804 0.06573 0.0
C463 C 0.73484 0.54223 0.90694 0.0
C464 C 0.81078 0.53437 0.95586 0.0
C465 C 0.80313 0.50349 0.95123 0.0
C466 C 0.79231 0.54525 0.96505 0.0
C467 C 0.76552 0.52474 0.97042 0.0
C468 C 0.75737 0.49347 0.96417 0.0
C469 C 0.77638 0.48318 0.95442 0.0
C470 C 0.80167 0.57876 0.97055 0.0
C471 C 0.72898 0.47073 0.96984 0.0
H472 H 0.72655 0.55564 0.08255 0.0
H473 H 0.7082 0.56874 0.94922 0.0
H474 H 0.75137 0.50369 0.06004 0.0
H475 H 0.77928 0.53978 0.0617 0.0
H476 H 0.75261 0.53118 0.10031 0.0
H477 H 0.72479 0.55327 0.88763 0.0
H478 H 0.75554 0.55094 0.89545 0.0
H479 H 0.72504 0.51771 0.89978 0.0
H480 H 0.83139 0.55014 0.9527 0.0
H481 H 0.77043 0.45922 0.95094 0.0
H482 H 0.79822 0.58378 0.00507 0.0
H483 H 0.79029 0.58667 0.94852 0.0
H484 H 0.82296 0.59178 0.96294 0.0
H485 H 0.7251 0.46499 0.0054 0.0
H486 H 0.72469 0.4496 0.95149 0.0
H487 H 0.71517 0.47975 0.95858 0.0
C488 C 0.18701 0.69872 0.28104 0.0
C489 C 0.18061 0.68827 0.32441 0.0
C490 C 0.20431 0.72887 0.27264 0.0
C491 C 0.21474 0.74911 0.30853 0.0
C492 C 0.20825 0.73856 0.35246 0.0
C493 C 0.19146 0.70807 0.35989 0.0
C494 C 0.21206 0.7388 0.22547 0.0
C495 C 0.21906 0.75943 0.39153 0.0
C496 C 0.27907 0.81597 0.28343 0.0
C497 C 0.27115 0.83859 0.27371 0.0
C498 C 0.2611 0.7873 0.29687 0.0
C499 C 0.23419 0.78064 0.29991 0.0
C500 C 0.22595 0.80349 0.29157 0.0
C501 C 0.2447 0.83254 0.27898 0.0
C502 C 0.27086 0.76383 0.30594 0.0
C503 C 0.19725 0.79678 0.29413 0.0
H504 H 0.17893 0.68311 0.25372 0.0
H505 H 0.18637 0.6998 0.39342 0.0
H506 H 0.20901 0.75901 0.21802 0.0
H507 H 0.23334 0.74512 0.22082 0.0
H508 H 0.20073 0.72083 0.20127 0.0
H509 H 0.21267 0.74743 0.42357 0.0
H510 H 0.24091 0.77063 0.39054 0.0
H511 H 0.21234 0.77739 0.38995 0.0
H512 H 0.29955 0.82056 0.27972 0.0
H513 H 0.23855 0.84995 0.27158 0.0
H514 H 0.26256 0.74547 0.28116 0.0
H515 H 0.26412 0.75355 0.33893 0.0
H516 H 0.29269 0.77332 0.3047 0.0
H517 H 0.18621 0.78075 0.26748 0.0
H518 H 0.19423 0.81741 0.29055 0.0
H519 H 0.18872 0.78582 0.32609 0.0
C520 C 0.58489 0.24444 0.69521 0.0
C521 C 0.60319 0.23387 0.68314 0.0
C522 C 0.58902 0.2736 0.68441 0.0
C523 C 0.61168 0.29222 0.65988 0.0
C524 C 0.63088 0.28216 0.64922 0.0
C525 C 0.6265 0.25298 0.66143 0.0
C526 C 0.56838 0.28383 0.69726 0.0
C527 C 0.65531 0.30169 0.62333 0.0
C528 C 0.59578 0.34416 0.58867 0.0
C529 C 0.60575 0.37018 0.61436 0.0
C530 C 0.59975 0.3193 0.60129 0.0
C531 C 0.61329 0.32051 0.64121 0.0
C532 C 0.6246 0.34747 0.66608 0.0
C533 C 0.62076 0.37225 0.65209 0.0
C534 C 0.58786 0.29106 0.57352 0.0
C535 C 0.63873 0.34944 0.70917 0.0
H536 H 0.56705 0.22967 0.7125 0.0
H537 H 0.64063 0.24464 0.65212 0.0
H538 H 0.57774 0.30639 0.71296 0.0
H539 H 0.55794 0.28571 0.66722 0.0
H540 H 0.55358 0.26793 0.7205 0.0
H541 H 0.66833 0.29049 0.61773 0.0
H542 H 0.6497 0.30748 0.59079 0.0
H543 H 0.66664 0.32317 0.64118 0.0
H544 H 0.58416 0.34297 0.55956 0.0
H545 H 0.62814 0.39258 0.67199 0.0
H546 H 0.57094 0.27347 0.59135 0.0
H547 H 0.60252 0.28214 0.56772 0.0
H548 H 0.58077 0.29504 0.54104 0.0
H549 H 0.62397 0.33874 0.73569 0.0
H550 H 0.65131 0.37318 0.71884 0.0
H551 H 0.65115 0.33725 0.70723 0.0
C552 C 0.44315 0.45063 0.09349 0.0
C553 C 0.42893 0.44497 0.05403 0.0
C554 C 0.47063 0.46751 0.09333 0.0
C555 C 0.4838 0.47871 0.05271 0.0
C556 C 0.46978 0.46971 0.01246 0.0
C557 C 0.44242 0.45252 0.01366 0.0
C558 C 0.48509 0.47605 0.13688 0.0
C559 C 0.4832 0.48079 0.96847 0.0
C560 C 0.54438 0.55413 0.06135 0.0
C561 C 0.56438 0.54484 0.05998 0.0
C562 C 0.51788 0.53279 0.05721 0.0
C563 C 0.51165 0.50174 0.05264 0.0
C564 C 0.53202 0.49266 0.04985 0.0
C565 C 0.55812 0.51437 0.0533 0.0
C566 C 0.49652 0.54328 0.05901 0.0
C567 C 0.52631 0.45989 0.04583 0.0
H568 H 0.43261 0.44525 0.12469 0.0
H569 H 0.4312 0.44835 -0.01678 0.0
H570 H 0.5037 0.47368 0.13526 0.0
H571 H 0.49031 0.5 0.14427 0.0
H572 H 0.47292 0.46206 0.16455 0.0
H573 H 0.46936 0.4718 0.94022 0.0
H574 H 0.49212 0.50576 0.96742 0.0
H575 H 0.49942 0.47413 0.96416 0.0
H576 H 0.54937 0.5777 0.06676 0.0
H577 H 0.5738 0.50735 0.05283 0.0
H578 H 0.48438 0.53425 0.08914 0.0
H579 H 0.48322 0.53452 0.03008 0.0
H580 H 0.50466 0.56823 0.05945 0.0
H581 H 0.51757 0.44812 0.0772 0.0
H582 H 0.54438 0.45701 0.03888 0.0
H583 H 0.51176 0.44868 0.01925 0.0
C584 C 0.93635 0.48649 0.39107 0.0
C585 C 0.92606 0.45515 0.3954 0.0
C586 C 0.96352 0.50436 0.38824 0.0
C587 C 0.98067 0.49048 0.39006 0.0
C588 C 0.97042 0.45879 0.39298 0.0
C589 C 0.94312 0.44144 0.39576 0.0
C590 C 0.97391 0.53811 0.38426 0.0
C591 C 0.98826 0.44332 0.39465 0.0
C592 C 0.0519 0.53708 0.35836 0.0
C593 C 0.06341 0.54566 0.40008 0.0
C594 C 0.02483 0.51874 0.35435 0.0
C595 C 0.00931 0.50937 0.3931 0.0
C596 C 0.02103 0.51837 0.43528 0.0
C597 C 0.04817 0.5363 0.43824 0.0
C598 C 0.013 0.50894 0.30898 0.0
C599 C 0.00492 0.50907 0.4772 0.0
H600 H 0.92319 0.49713 0.39008 0.0
H601 H 0.93518 0.41717 0.3987 0.0
H602 H 0.987 0.54937 0.41262 0.0
H603 H 0.98587 0.54611 0.35375 0.0
H604 H 0.95785 0.54531 0.38325 0.0
H605 H 0.97717 0.41852 0.39065 0.0
H606 H 0.00352 0.45214 0.36846 0.0
H607 H -0.00137 0.44801 0.42692 0.0
H608 H 0.06418 0.54411 0.32906 0.0
H609 H 0.05754 0.54297 0.47031 0.0
H610 H -0.00315 0.51558 0.30356 0.0
H611 H 0.00426 0.48404 0.3064 0.0
H612 H 0.02781 0.51881 0.28223 0.0
H613 H 0.98967 0.5175 0.47674 0.0
H614 H 0.0172 0.51785 0.5073 0.0
H615 H 0.99455 0.48416 0.47938 0.0
C616 C 0.55535 0.04253 0.6957 0.0
C617 C 0.55566 0.06495 0.72439 0.0
C618 C 0.532 0.01632 0.68857 0.0
C619 C 0.50888 0.0126 0.7113 0.0
C620 C 0.50902 0.03564 0.73915 0.0
C621 C 0.53243 0.06163 0.74517 0.0
C622 C 0.53211 0.99255 0.6573 0.0
C623 C 0.48479 0.03224 0.76448 0.0
C624 C 0.43964 0.95313 0.69143 0.0
C625 C 0.43752 0.93258 0.72478 0.0
C626 C 0.46365 0.9784 0.68396 0.0
C627 C 0.48543 0.98334 0.71145 0.0
C628 C 0.48347 0.96209 0.74423 0.0
C629 C 0.45952 0.93679 0.75021 0.0
C630 C 0.46554 0.00013 0.64757 0.0
C631 C 0.50634 0.96668 0.77422 0.0
H632 H 0.57323 0.0456 0.67862 0.0
H633 H 0.53266 0.07918 0.76694 0.0
H634 H 0.52596 0.97082 0.67487 0.0
H635 H 0.51767 0.98876 0.63038 0.0
H636 H 0.55183 -0.00104 0.64236 0.0
H637 H 0.48775 0.05326 0.78198 0.0
H638 H 0.46771 0.0258 0.7419 0.0
H639 H 0.47966 0.014 0.78928 0.0
H640 H 0.42277 0.94912 0.67071 0.0
H641 H 0.45785 0.92038 0.77531 0.0
H642 H 0.4838 0.00626 0.62802 0.0
H643 H 0.46654 0.02119 0.6622 0.0
H644 H 0.44833 0.99064 0.62491 0.0
H645 H 0.52389 0.96998 0.75431 0.0
H646 H 0.50175 0.94734 0.79686 0.0
H647 H 0.51167 0.98729 0.79443 0.0
C648 C 0.44993 0.50037 0.53253 0.0
C649 C 0.44276 0.51424 0.56661 0.0
C650 C 0.47284 0.49638 0.53587 0.0
C651 C 0.48811 0.50552 0.57498 0.0
C652 C 0.48026 0.51849 0.61031 0.0
C653 C 0.45778 0.52326 0.6053 0.0
C654 C 0.48091 0.48284 0.49731 0.0
C655 C 0.49566 0.52753 0.653 0.0
C656 C 0.53293 0.46793 0.58515 0.0
C657 C 0.55673 0.49062 0.56961 0.0
C658 C 0.51083 0.47333 0.59053 0.0
C659 C 0.51242 0.50161 0.57816 0.0
C660 C 0.53662 0.52493 0.56379 0.0
C661 C 0.55869 0.51922 0.56023 0.0
C662 C 0.48558 0.44848 0.608 0.0
C663 C 0.53883 0.5552 0.54946 0.0
H664 H 0.43803 0.49352 0.50277 0.0
H665 H 0.45176 0.53369 0.63174 0.0
H666 H 0.50144 0.49786 0.48731 0.0
H667 H 0.48034 0.46096 0.50717 0.0
H668 H 0.46783 0.47903 0.4682 0.0
H669 H 0.48505 0.53375 0.67901 0.0
H670 H 0.49972 0.50889 0.66551 0.0
H671 H 0.51495 0.5471 0.64708 0.0
H672 H 0.53146 0.44588 0.59293 0.0
H673 H 0.57718 0.53672 0.54832 0.0
H674 H 0.47074 0.43999 0.58114 0.0
H675 H 0.47726 0.45722 0.63457 0.0
H676 H 0.4886 0.42928 0.62127 0.0
H677 H 0.52832 0.5526 0.51759 0.0
H678 H 0.55965 0.57202 0.54498 0.0
H679 H 0.5294 0.5641 0.57389 0.0
C680 C 0.05021 0.50232 0.92733 0.0
C681 C 0.06491 0.52517 0.89747 0.0
C682 C 0.0233 0.49391 0.93346 0.0
C683 C 0.01088 0.50772 0.90743 0.0
C684 C 0.0259 0.53139 0.87816 0.0
C685 C 0.05294 0.54023 0.87419 0.0
C686 C 0.00812 0.46993 0.96702 0.0
C687 C 0.01327 0.54661 0.84983 0.0
C688 C 0.94037 0.46084 0.8732 0.0
C689 C 0.92753 0.47513 0.8959 0.0
C690 C 0.96756 0.47097 0.87744 0.0
C691 C 0.98188 0.49519 0.90643 0.0
C692 C 0.96871 0.5088 0.93112 0.0
C693 C 0.94159 0.49886 0.92495 0.0
C694 C 0.98109 0.45648 0.84964 0.0
C695 C 0.98308 0.53338 0.96441 0.0
H696 H 0.05977 0.49133 0.94624 0.0
H697 H 0.0646 0.55822 0.85163 0.0
H698 H -0.00479 0.47682 -0.01297 0.0
H699 H -0.00475 0.44871 0.94981 0.0
H700 H 0.02141 0.4653 -0.01039 0.0
H701 H 0.02771 0.56409 0.82789 0.0
H702 H -0.00243 0.52964 0.82901 0.0
H703 H 0.00384 0.55738 0.8711 0.0
H704 H 0.92922 0.44229 0.85109 0.0
H705 H 0.93131 0.50924 0.94345 0.0
H706 H 0.99139 0.44693 0.87119 0.0
H707 H -0.00381 0.47371 0.8283 0.0
H708 H 0.96706 0.43819 0.82825 0.0
H709 H 0.98907 0.52366 -0.00711 0.0
H710 H 0.9706 0.54392 0.97694 0.0
H711 H 0.0013 0.55118 0.95 0.0
C712 C 0.44022 0.96143 0.27148 0.0
C713 C 0.42691 0.96708 0.23627 0.0
C714 C 0.46759 0.9727 0.27138 0.0
C715 C 0.4821 0.99143 0.23623 0.0
C716 C 0.46888 -0.00078 0.20226 0.0
C717 C 0.4412 0.98656 0.20237 0.0
C718 C 0.48074 0.96341 0.30793 0.0
C719 C 0.48383 0.01967 0.16469 0.0
C720 C 0.55281 0.04452 0.2594 0.0
C721 C 0.5665 0.03292 0.2326 0.0
C722 C 0.52541 0.03111 0.26089 0.0
C723 C 0.51121 0.00446 0.23668 0.0
C724 C 0.52484 0.9909 0.21275 0.0
C725 C 0.55258 0.00556 0.21057 0.0
C726 C 0.51173 0.04656 0.28631 0.0
C727 C 0.5101 0.96131 0.18904 0.0
H728 H 0.42892 0.94604 0.29749 0.0
H729 H 0.43081 0.99022 0.17463 0.0
H730 H 0.49584 0.95707 0.29428 0.0
H731 H 0.49083 0.98251 0.33094 0.0
H732 H 0.46633 0.94411 0.32731 0.0
H733 H 0.47117 0.02709 0.14496 0.0
H734 H 0.50098 0.03988 0.17734 0.0
H735 H 0.49151 0.00752 0.14241 0.0
H736 H 0.56356 0.06525 0.27767 0.0
H737 H 0.56316 0.99637 0.19037 0.0
H738 H 0.49928 0.03162 0.3128 0.0
H739 H 0.49856 0.05145 0.26386 0.0
H740 H 0.52587 0.06802 0.30168 0.0
H741 H 0.49843 0.94362 0.2133 0.0
H742 H 0.52354 0.95409 0.17115 0.0
H743 H 0.49598 0.96302 0.16505 0.0
C744 C 0.33805 0.51823 0.72859 0.0
C745 C 0.3463 0.49919 0.70593 0.0
C746 C 0.33681 0.51772 0.77477 0.0
C747 C 0.34336 0.49716 0.79793 0.0
C748 C 0.34852 0.47542 0.77469 0.0
C749 C 0.35004 0.47682 0.72863 0.0
C750 C 0.33173 0.54152 0.79854 0.0
C751 C 0.35494 0.45259 0.79851 0.0
C752 C 0.3776 0.51092 0.90792 0.0
C753 C 0.3568 0.49154 0.93417 0.0
C754 C 0.37298 0.51555 0.86372 0.0
C755 C 0.34718 0.4997 0.84615 0.0
C756 C 0.32588 0.48234 0.87401 0.0
C757 C 0.331 0.47872 0.91804 0.0
C758 C 0.39607 0.53484 0.8349 0.0
C759 C 0.29826 0.46488 0.85638 0.0
H760 H 0.33589 0.53603 0.71069 0.0
H761 H 0.35693 0.46261 0.71074 0.0
H762 H 0.31901 0.53207 0.82791 0.0
H763 H 0.35076 0.55945 0.81038 0.0
H764 H 0.32235 0.552 0.77653 0.0
H765 H 0.35731 0.43648 0.77539 0.0
H766 H 0.37352 0.46428 0.81746 0.0
H767 H 0.33912 0.43973 0.8225 0.0
H768 H 0.39755 0.52043 0.92079 0.0
H769 H 0.31513 0.46342 0.93879 0.0
H770 H 0.39076 0.54911 0.8126 0.0
H771 H 0.40167 0.52014 0.81392 0.0
H772 H 0.41352 0.54956 0.85485 0.0
H773 H 0.29212 0.47988 0.83734 0.0
H774 H 0.28372 0.45401 0.88322 0.0
H775 H 0.29774 0.44708 0.83347 0.0
C776 C 0.82009 0.39056 0.24685 0.0
C777 C 0.82466 0.4197 0.25919 0.0
C778 C 0.81931 0.3827 0.20257 0.0
C779 C 0.8214 0.40406 0.17013 0.0
C780 C 0.82291 0.43249 0.18252 0.0
C781 C 0.82541 0.44043 0.22735 0.0
C782 C 0.81949 0.35307 0.19087 0.0
C783 C 0.82413 0.45533 0.14836 0.0
C784 C 0.85829 0.40949 0.06515 0.0
C785 C 0.83795 0.40214 0.03427 0.0
C786 C 0.85305 0.40916 0.11013 0.0
C787 C 0.82662 0.39884 0.12409 0.0
C788 C 0.80573 0.38618 0.09339 0.0
C789 C 0.81167 0.38814 0.04818 0.0
C790 C 0.87598 0.42351 0.14176 0.0
C791 C 0.77736 0.37353 0.10805 0.0
H792 H 0.81994 0.37491 0.27189 0.0
H793 H 0.82931 0.46309 0.23728 0.0
H794 H 0.80604 0.34209 0.16284 0.0
H795 H 0.83965 0.35726 0.18041 0.0
H796 H 0.81379 0.33731 0.21938 0.0
H797 H 0.82337 0.4754 0.16359 0.0
H798 H 0.84262 0.46286 0.12899 0.0
H799 H 0.80746 0.44492 0.12487 0.0
H800 H 0.8786 0.41981 0.05389 0.0
H801 H 0.79596 0.38212 0.02408 0.0
H802 H 0.87323 0.40901 0.17109 0.0
H803 H 0.8771 0.44529 0.15365 0.0
H804 H 0.89511 0.42799 0.12595 0.0
H805 H 0.7735 0.35641 0.13424 0.0
H806 H 0.76344 0.36305 0.0803 0.0
H807 H 0.77337 0.39175 0.12252 0.0
C808 C 0.36055 0.82179 0.55243 0.0
C809 C 0.35076 0.83861 0.57714 0.0
C810 C 0.36088 0.82295 0.50653 0.0
C811 C 0.34972 0.83996 0.48532 0.0
C812 C 0.3363 0.85336 0.51014 0.0
C813 C 0.33735 0.85295 0.55641 0.0
C814 C 0.37652 0.80971 0.48165 0.0
C815 C 0.32323 0.8706 0.48787 0.0
C816 C 0.37983 0.88588 0.38406 0.0
C817 C 0.36194 0.86855 0.35177 0.0
C818 C 0.37726 0.8756 0.42749 0.0
C819 C 0.35569 0.8479 0.43852 0.0
C820 C 0.33893 0.82923 0.40522 0.0
C821 C 0.34273 0.83958 0.36162 0.0
C822 C 0.39626 0.89556 0.46201 0.0
C823 C 0.31583 0.79959 0.41617 0.0
H824 H 0.3708 0.8106 0.56917 0.0
H825 H 0.32985 0.86592 0.5759 0.0
H826 H 0.36671 0.79904 0.45032 0.0
H827 H 0.39611 0.82806 0.47309 0.0
H828 H 0.37969 0.79278 0.50176 0.0
H829 H 0.31103 0.87643 0.51129 0.0
H830 H 0.33848 0.89179 0.47367 0.0
H831 H 0.31059 0.8572 0.46023 0.0
H832 H 0.39476 0.90828 0.37587 0.0
H833 H 0.32909 0.82631 0.33623 0.0
H834 H 0.40263 0.88217 0.48425 0.0
H835 H 0.38633 0.9061 0.48263 0.0
H836 H 0.41402 0.91381 0.44689 0.0
H837 H 0.32297 0.78371 0.42981 0.0
H838 H 0.30343 0.78904 0.38681 0.0
H839 H 0.30333 0.80294 0.44185 0.0
C840 C 0.61136 0.45485 0.73849 0.0
C841 C 0.63202 0.47602 0.71311 0.0
C842 C 0.61114 0.45699 0.7843 0.0
C843 C 0.63238 0.48059 0.80558 0.0
C844 C 0.65452 0.50047 0.78073 0.0
C845 C 0.65408 0.49802 0.73435 0.0
C846 C 0.58692 0.43565 0.80926 0.0
C847 C 0.67788 0.52527 0.80302 0.0
C848 C 0.61352 0.51312 0.90453 0.0
C849 C 0.62175 0.50088 0.93952 0.0
C850 C 0.61691 0.50657 0.86081 0.0
C851 C 0.62903 0.48744 0.85205 0.0
C852 C 0.63655 0.47408 0.88737 0.0
C853 C 0.63274 0.48097 0.93108 0.0
C854 C 0.60833 0.52101 0.82404 0.0
C855 C 0.64924 0.45334 0.87893 0.0
H856 H 0.59447 0.43721 0.72243 0.0
H857 H 0.67024 0.51405 0.71484 0.0
H858 H 0.59245 0.42747 0.83982 0.0
H859 H 0.57521 0.44775 0.81919 0.0
H860 H 0.57412 0.41589 0.78891 0.0
H861 H 0.69367 0.53857 0.77915 0.0
H862 H 0.67157 0.54073 0.82057 0.0
H863 H 0.68616 0.5155 0.82817 0.0
H864 H 0.60555 0.52904 0.91149 0.0
H865 H 0.6398 0.47233 0.95842 0.0
H866 H 0.5939 0.5034 0.8023 0.0
H867 H 0.62556 0.5352 0.80335 0.0
H868 H 0.59918 0.5353 0.83673 0.0
H869 H 0.63523 0.4329 0.86123 0.0
H870 H 0.65541 0.4463 0.91001 0.0
H871 H 0.66676 0.46459 0.85736 0.0
C872 C 0.13233 0.56591 0.05717 0.0
C873 C 0.15415 0.58247 0.03037 0.0
C874 C 0.13486 0.56577 0.10275 0.0
C875 C 0.1596 0.58385 0.12198 0.0
C876 C 0.18118 0.60277 0.09548 0.0
C877 C 0.17828 0.60168 0.0494 0.0
C878 C 0.11133 0.54515 0.12995 0.0
C879 C 0.20753 0.62281 0.1157 0.0
C880 C 0.14978 0.59317 0.24163 0.0
C881 C 0.15509 0.57057 0.2602 0.0
C882 C 0.15372 0.59988 0.19687 0.0
C883 C 0.16234 0.58265 0.17002 0.0
C884 C 0.16892 0.5606 0.18893 0.0
C885 C 0.16547 0.55503 0.23439 0.0
C886 C 0.14666 0.62369 0.17788 0.0
C887 C 0.17714 0.54094 0.16087 0.0
H888 H 0.11353 0.55141 0.04217 0.0
H889 H 0.19511 0.61435 0.02846 0.0
H890 H 0.11658 0.53011 0.15076 0.0
H891 H 0.10522 0.55865 0.15244 0.0
H892 H 0.09415 0.53091 0.10908 0.0
H893 H 0.22131 0.63862 0.09116 0.0
H894 H 0.20502 0.63599 0.1435 0.0
H895 H 0.21657 0.60872 0.1294 0.0
H896 H 0.14157 0.6048 0.26177 0.0
H897 H 0.16935 0.53742 0.24921 0.0
H898 H 0.1278 0.61273 0.1595 0.0
H899 H 0.16198 0.6382 0.15421 0.0
H900 H 0.14434 0.63813 0.20404 0.0
H901 H 0.15939 0.52321 0.14495 0.0
H902 H 0.18674 0.52973 0.18093 0.0
H903 H 0.19082 0.55414 0.13425 0.0
C904 C 0.64638 0.14006 0.55714 0.0
C905 C 0.63064 0.15227 0.57592 0.0
C906 C 0.64623 0.1362 0.51121 0.0
C907 C 0.62996 0.14474 0.48459 0.0
C908 C 0.61542 0.15877 0.50346 0.0
C909 C 0.61636 0.16286 0.54894 0.0
C910 C 0.662 0.12119 0.49141 0.0
C911 C 0.59701 0.16691 0.47641 0.0
C912 C 0.64425 0.14625 0.36326 0.0
C913 C 0.62741 0.11649 0.35206 0.0
C914 C 0.64403 0.15667 0.40613 0.0
C915 C 0.62656 0.13672 0.43756 0.0
C916 C 0.60743 0.10785 0.42474 0.0
C917 C 0.60814 0.09805 0.38184 0.0
C918 C 0.66391 0.18801 0.41874 0.0
C919 C 0.58791 0.08611 0.45702 0.0
H920 H 0.65719 0.13171 0.5783 0.0
H921 H 0.60433 0.17251 0.56387 0.0
H922 H 0.64847 0.09941 0.47615 0.0
H923 H 0.67499 0.13551 0.4648 0.0
H924 H 0.67431 0.11684 0.51641 0.0
H925 H 0.58965 0.18094 0.49538 0.0
H926 H 0.6069 0.17919 0.446 0.0
H927 H 0.57977 0.146 0.466 0.0
H928 H 0.65897 0.16052 0.33984 0.0
H929 H 0.59469 0.07522 0.37246 0.0
H930 H 0.67944 0.18656 0.43968 0.0
H931 H 0.65444 0.19951 0.43844 0.0
H932 H 0.67343 0.20198 0.3893 0.0
H933 H 0.59759 0.07436 0.47557 0.0
H934 H 0.57049 0.06879 0.43969 0.0
H935 H 0.58098 0.09784 0.48133 0.0
loop_
_geom_bond_atom_site_label_1
_geom_bond_atom_site_label_2
_geom_bond_distance
_geom_bond_site_symmetry_2
_ccdc_geom_bond_type
C0 O1 1.306 . S
C0 O3 1.160 . S
O1 C0 1.306 . S
O1 Cd2 2.228 1_554 S
Cd2 O1 2.228 1_556 S
Cd2 O6 2.273 1_556 S
Cd2 O10 2.277 . S
O3 C0 1.160 . S
O3 Cd4 2.203 . S
Cd4 O3 2.203 . S
Cd4 O6 2.411 . S
Cd4 O7 2.333 . S
Cd4 O8 2.352 . S
Cd4 O12 2.277 . S
Cd4 O13 2.356 . S
C5 O10 1.209 . S
C5 O12 1.226 1_556 S
O6 Cd2 2.273 1_554 S
O6 Cd4 2.411 . S
O6 C9 1.320 . S
O7 Cd4 2.333 . S
O7 C9 1.214 . S
O8 Cd4 2.352 . S
O8 C11 1.258 . S
C9 O6 1.320 . S
C9 O7 1.214 . S
O10 Cd2 2.277 . S
O10 C5 1.209 . S
C11 O8 1.258 . S
C11 O13 1.282 . S
O12 Cd4 2.277 . S
O12 C5 1.226 1_554 S
O13 Cd4 2.356 . S
O13 C11 1.282 . S
C14 O15 1.306 . S
C14 O17 1.160 . S
O15 C14 1.306 . S
O15 Cd16 2.228 . S
Cd16 O15 2.228 . S
Cd16 O20 2.273 . S
Cd16 O24 2.277 . S
O17 C14 1.160 . S
O17 Cd18 2.203 . S
Cd18 O17 2.203 . S
Cd18 O20 2.411 . S
Cd18 O21 2.333 . S
Cd18 O22 2.352 . S
Cd18 O26 2.277 . S
Cd18 O27 2.356 . S
C19 O24 1.209 . S
C19 O26 1.226 . S
O20 Cd16 2.273 . S
O20 Cd18 2.411 . S
O20 C23 1.320 . S
O21 Cd18 2.333 . S
O21 C23 1.214 . S
O22 Cd18 2.352 . S
O22 C25 1.258 . S
C23 O20 1.320 . S
C23 O21 1.214 . S
O24 Cd16 2.277 . S
O24 C19 1.209 . S
C25 O22 1.258 . S
C25 O27 1.282 . S
O26 Cd18 2.277 . S
O26 C19 1.226 . S
O27 Cd18 2.356 . S
O27 C25 1.282 . S
C28 O29 1.306 . S
C28 O31 1.160 . S
O29 C28 1.306 . S
O29 Cd30 2.228 . S
Cd30 O29 2.228 . S
Cd30 O34 2.273 . S
Cd30 O38 2.277 . S
O31 C28 1.160 . S
O31 Cd32 2.203 . S
Cd32 O31 2.203 . S
Cd32 O34 2.411 . S
Cd32 O35 2.333 . S
Cd32 O36 2.352 . S
Cd32 O40 2.277 . S
Cd32 O41 2.356 . S
C33 O38 1.209 . S
C33 O40 1.226 . S
O34 Cd30 2.273 . S
O34 Cd32 2.411 . S
O34 C37 1.320 . S
O35 Cd32 2.333 . S
O35 C37 1.214 . S
O36 Cd32 2.352 . S
O36 C39 1.258 . S
C37 O34 1.320 . S
C37 O35 1.214 . S
O38 Cd30 2.277 . S
O38 C33 1.209 . S
C39 O36 1.258 . S
C39 O41 1.282 . S
O40 Cd32 2.277 . S
O40 C33 1.226 . S
O41 Cd32 2.356 . S
O41 C39 1.282 . S
C42 O43 1.306 . S
C42 O45 1.160 . S
O43 C42 1.306 . S
O43 Cd44 2.228 1_554 S
Cd44 O43 2.228 1_556 S
Cd44 O48 2.273 1_556 S
Cd44 O52 2.277 . S
O45 C42 1.160 . S
O45 Cd46 2.203 . S
Cd46 O45 2.203 . S
Cd46 O48 2.411 . S
Cd46 O49 2.333 . S
Cd46 O50 2.352 . S
Cd46 O54 2.277 . S
Cd46 O55 2.356 . S
C47 O52 1.209 . S
C47 O54 1.226 1_556 S
O48 Cd44 2.273 1_554 S
O48 Cd46 2.411 . S
O48 C51 1.320 . S
O49 Cd46 2.333 . S
O49 C51 1.214 . S
O50 Cd46 2.352 . S
O50 C53 1.258 . S
C51 O48 1.320 . S
C51 O49 1.214 . S
O52 Cd44 2.277 . S
O52 C47 1.209 . S
C53 O50 1.258 . S
C53 O55 1.282 . S
O54 Cd46 2.277 . S
O54 C47 1.226 1_554 S
O55 Cd46 2.356 . S
O55 C53 1.282 . S
C56 O57 1.306 . S
C56 O59 1.160 . S
O57 C56 1.306 . S
O57 Cd58 2.228 . S
Cd58 O57 2.228 . S
Cd58 O62 2.273 . S
Cd58 O66 2.277 . S
O59 C56 1.160 . S
O59 Cd60 2.203 . S
Cd60 O59 2.203 . S
Cd60 O62 2.411 . S
Cd60 O63 2.333 . S
Cd60 O64 2.352 . S
Cd60 O68 2.277 . S
Cd60 O69 2.356 . S
C61 O66 1.209 . S
C61 O68 1.226 . S
O62 Cd58 2.273 . S
O62 Cd60 2.411 . S
O62 C65 1.320 . S
O63 Cd60 2.333 . S
O63 C65 1.214 . S
O64 Cd60 2.352 . S
O64 C67 1.258 . S
C65 O62 1.320 . S
C65 O63 1.214 . S
O66 Cd58 2.277 . S
O66 C61 1.209 . S
C67 O64 1.258 . S
C67 O69 1.282 . S
O68 Cd60 2.277 . S
O68 C61 1.226 . S
O69 Cd60 2.356 . S
O69 C67 1.282 . S
C70 O71 1.306 . S
C70 O73 1.160 . S
O71 C70 1.306 . S
O71 Cd72 2.228 . S
Cd72 O71 2.228 . S
Cd72 O76 2.273 . S
Cd72 O80 2.277 . S
O73 C70 1.160 . S
O73 Cd74 2.203 . S
Cd74 O73 2.203 . S
Cd74 O76 2.411 . S
Cd74 O77 2.333 . S
Cd74 O78 2.352 . S
Cd74 O82 2.277 . S
Cd74 O83 2.356 . S
C75 O80 1.209 . S
C75 O82 1.226 . S
O76 Cd72 2.273 . S
O76 Cd74 2.411 . S
O76 C79 1.320 . S
O77 Cd74 2.333 . S
O77 C79 1.214 . S
O78 Cd74 2.352 . S
O78 C81 1.258 . S
C79 O76 1.320 . S
C79 O77 1.214 . S
O80 Cd72 2.277 . S
O80 C75 1.209 . S
C81 O78 1.258 . S
C81 O83 1.282 . S
O82 Cd74 2.277 . S
O82 C75 1.226 . S
O83 Cd74 2.356 . S
O83 C81 1.282 . S
C84 O85 1.306 . S
C84 O87 1.160 . S
O85 C84 1.306 . S
O85 Cd86 2.228 . S
Cd86 O85 2.228 . S
Cd86 O90 2.273 . S
Cd86 O94 2.277 . S
O87 C84 1.160 . S
O87 Cd88 2.203 . S
Cd88 O87 2.203 . S
Cd88 O90 2.411 . S
Cd88 O91 2.333 . S
Cd88 O92 2.352 . S
Cd88 O96 2.277 . S
Cd88 O97 2.356 . S
C89 O94 1.209 . S
C89 O96 1.226 . S
O90 Cd86 2.273 . S
O90 Cd88 2.411 . S
O90 C93 1.320 . S
O91 Cd88 2.333 . S
O91 C93 1.214 . S
O92 Cd88 2.352 . S
O92 C95 1.258 . S
C93 O90 1.320 . S
C93 O91 1.214 . S
O94 Cd86 2.277 . S
O94 C89 1.209 . S
C95 O92 1.258 . S
C95 O97 1.282 . S
O96 Cd88 2.277 . S
O96 C89 1.226 . S
O97 Cd88 2.356 . S
O97 C95 1.282 . S
C98 O99 1.306 . S
C98 O101 1.160 . S
O99 C98 1.306 . S
O99 Cd100 2.228 1_556 S
Cd100 O99 2.228 1_554 S
Cd100 O104 2.273 1_554 S
Cd100 O108 2.277 . S
O101 C98 1.160 . S
O101 Cd102 2.203 . S
Cd102 O101 2.203 . S
Cd102 O104 2.411 . S
Cd102 O105 2.333 . S
Cd102 O106 2.352 . S
Cd102 O110 2.277 . S
Cd102 O111 2.356 . S
C103 O108 1.209 . S
C103 O110 1.226 1_554 S
O104 Cd100 2.273 1_556 S
O104 Cd102 2.411 . S
O104 C107 1.320 . S
O105 Cd102 2.333 . S
O105 C107 1.214 . S
O106 Cd102 2.352 . S
O106 C109 1.258 . S
C107 O104 1.320 . S
C107 O105 1.214 . S
O108 Cd100 2.277 . S
O108 C103 1.209 . S
C109 O106 1.258 . S
C109 O111 1.282 . S
O110 Cd102 2.277 . S
O110 C103 1.226 1_556 S
O111 Cd102 2.356 . S
O111 C109 1.282 . S
C112 O113 1.306 . S
C112 O115 1.160 . S
O113 C112 1.306 . S
O113 Cd114 2.228 . S
Cd114 O113 2.228 . S
Cd114 O118 2.273 . S
Cd114 O122 2.277 . S
O115 C112 1.160 . S
O115 Cd116 2.203 . S
Cd116 O115 2.203 . S
Cd116 O118 2.411 . S
Cd116 O119 2.333 . S
Cd116 O120 2.352 . S
Cd116 O124 2.277 . S
Cd116 O125 2.356 . S
C117 O122 1.209 . S
C117 O124 1.226 . S
O118 Cd114 2.273 . S
O118 Cd116 2.411 . S
O118 C121 1.320 . S
O119 Cd116 2.333 . S
O119 C121 1.214 . S
O120 Cd116 2.352 . S
O120 C123 1.258 . S
C121 O118 1.320 . S
C121 O119 1.214 . S
O122 Cd114 2.277 . S
O122 C117 1.209 . S
C123 O120 1.258 . S
C123 O125 1.282 . S
O124 Cd116 2.277 . S
O124 C117 1.226 . S
O125 Cd116 2.356 . S
O125 C123 1.282 . S
C126 O127 1.306 . S
C126 O129 1.160 . S
O127 C126 1.306 . S
O127 Cd128 2.228 . S
Cd128 O127 2.228 . S
Cd128 O132 2.273 . S
Cd128 O136 2.277 . S
O129 C126 1.160 . S
O129 Cd130 2.203 . S
Cd130 O129 2.203 . S
Cd130 O132 2.411 . S
Cd130 O133 2.333 . S
Cd130 O134 2.352 . S
Cd130 O138 2.277 . S
Cd130 O139 2.356 . S
C131 O136 1.209 . S
C131 O138 1.226 . S
O132 Cd128 2.273 . S
O132 Cd130 2.411 . S
O132 C135 1.320 . S
O133 Cd130 2.333 . S
O133 C135 1.214 . S
O134 Cd130 2.352 . S
O134 C137 1.258 . S
C135 O132 1.320 . S
C135 O133 1.214 . S
O136 Cd128 2.277 . S
O136 C131 1.209 . S
C137 O134 1.258 . S
C137 O139 1.282 . S
O138 Cd130 2.277 . S
O138 C131 1.226 . S
O139 Cd130 2.356 . S
O139 C137 1.282 . S
C140 O141 1.306 . S
C140 O143 1.160 . S
O141 C140 1.306 . S
O141 Cd142 2.228 1_556 S
Cd142 O141 2.228 1_554 S
Cd142 O146 2.273 1_554 S
Cd142 O150 2.277 . S
O143 C140 1.160 . S
O143 Cd144 2.203 . S
Cd144 O143 2.203 . S
Cd144 O146 2.411 . S
Cd144 O147 2.333 . S
Cd144 O148 2.352 . S
Cd144 O152 2.277 . S
Cd144 O153 2.356 . S
C145 O150 1.209 . S
C145 O152 1.226 1_554 S
O146 Cd142 2.273 1_556 S
O146 Cd144 2.411 . S
O146 C149 1.320 . S
O147 Cd144 2.333 . S
O147 C149 1.214 . S
O148 Cd144 2.352 . S
O148 C151 1.258 . S
C149 O146 1.320 . S
C149 O147 1.214 . S
O150 Cd142 2.277 . S
O150 C145 1.209 . S
C151 O148 1.258 . S
C151 O153 1.282 . S
O152 Cd144 2.277 . S
O152 C145 1.226 1_556 S
O153 Cd144 2.356 . S
O153 C151 1.282 . S
C154 O155 1.306 . S
C154 O157 1.160 . S
O155 C154 1.306 . S
O155 Cd156 2.228 . S
Cd156 O155 2.228 . S
Cd156 O160 2.273 . S
Cd156 O164 2.277 . S
O157 C154 1.160 . S
O157 Cd158 2.203 . S
Cd158 O157 2.203 . S
Cd158 O160 2.411 . S
Cd158 O161 2.333 . S
Cd158 O162 2.352 . S
Cd158 O166 2.277 . S
Cd158 O167 2.356 . S
C159 O164 1.209 . S
C159 O166 1.226 . S
O160 Cd156 2.273 . S
O160 Cd158 2.411 . S
O160 C163 1.320 . S
O161 Cd158 2.333 . S
O161 C163 1.214 . S
O162 Cd158 2.352 . S
O162 C165 1.258 . S
C163 O160 1.320 . S
C163 O161 1.214 . S
O164 Cd156 2.277 . S
O164 C159 1.209 . S
C165 O162 1.258 . S
C165 O167 1.282 . S
O166 Cd158 2.277 . S
O166 C159 1.226 . S
O167 Cd158 2.356 . S
O167 C165 1.282 . S
C168 C169 1.391 . S
C168 C170 1.394 . S
C168 H184 0.931 . S
C169 C168 1.391 . S
C169 C173 1.376 . S
C170 C168 1.394 . S
C170 C171 1.369 . S
C170 C174 1.531 . S
C171 C170 1.369 . S
C171 C172 1.410 . S
C171 C179 1.503 . S
C172 C171 1.410 . S
C172 C173 1.392 . S
C172 C175 1.511 . S
C173 C169 1.376 . S
C173 C172 1.392 . S
C173 H185 0.929 . S
C174 C170 1.531 . S
C174 H186 0.960 . S
C174 H187 0.962 . S
C174 H188 0.960 . S
C175 C172 1.511 . S
C175 H189 0.961 . S
C175 H190 0.961 . S
C175 H191 0.961 . S
C176 C177 1.370 . S
C176 C178 1.363 . S
C176 H192 0.931 . S
C177 C176 1.370 . S
C177 C181 1.408 . S
C178 C176 1.363 . S
C178 C179 1.370 . S
C178 C182 1.524 . S
C179 C171 1.503 . S
C179 C178 1.370 . S
C179 C180 1.403 . S
C180 C179 1.403 . S
C180 C181 1.404 . S
C180 C183 1.539 . S
C181 C177 1.408 . S
C181 C180 1.404 . S
C181 H193 0.930 . S
C182 C178 1.524 . S
C182 H194 0.956 . S
C182 H195 0.961 . S
C182 H196 0.961 . S
C183 C180 1.539 . S
C183 H197 0.958 . S
C183 H198 0.961 . S
C183 H199 0.960 . S
H184 C168 0.931 . S
H185 C173 0.929 . S
H186 C174 0.960 . S
H187 C174 0.962 . S
H188 C174 0.960 . S
H189 C175 0.961 . S
H190 C175 0.961 . S
H191 C175 0.961 . S
H192 C176 0.931 . S
H193 C181 0.930 . S
H194 C182 0.956 . S
H195 C182 0.961 . S
H196 C182 0.961 . S
H197 C183 0.958 . S
H198 C183 0.961 . S
H199 C183 0.960 . S
C200 C201 1.391 . S
C200 C202 1.394 . S
C200 H216 0.931 . S
C201 C200 1.391 . S
C201 C205 1.376 . S
C202 C200 1.394 . S
C202 C203 1.369 . S
C202 C206 1.531 . S
C203 C202 1.369 . S
C203 C204 1.410 . S
C203 C211 1.503 . S
C204 C203 1.410 . S
C204 C205 1.392 . S
C204 C207 1.511 . S
C205 C201 1.376 . S
C205 C204 1.392 . S
C205 H217 0.929 . S
C206 C202 1.531 . S
C206 H218 0.960 . S
C206 H219 0.962 . S
C206 H220 0.960 . S
C207 C204 1.511 . S
C207 H221 0.961 . S
C207 H222 0.961 . S
C207 H223 0.961 . S
C208 C209 1.370 . S
C208 C210 1.363 . S
C208 H224 0.931 . S
C209 C208 1.370 . S
C209 C213 1.408 . S
C210 C208 1.363 . S
C210 C211 1.370 . S
C210 C214 1.524 . S
C211 C203 1.503 . S
C211 C210 1.370 . S
C211 C212 1.403 . S
C212 C211 1.403 . S
C212 C213 1.404 . S
C212 C215 1.539 . S
C213 C209 1.408 . S
C213 C212 1.404 . S
C213 H225 0.930 . S
C214 C210 1.524 . S
C214 H226 0.956 . S
C214 H227 0.961 . S
C214 H228 0.961 . S
C215 C212 1.539 . S
C215 H229 0.958 . S
C215 H230 0.961 . S
C215 H231 0.960 . S
H216 C200 0.931 . S
H217 C205 0.929 . S
H218 C206 0.960 . S
H219 C206 0.962 . S
H220 C206 0.960 . S
H221 C207 0.961 . S
H222 C207 0.961 . S
H223 C207 0.961 . S
H224 C208 0.931 . S
H225 C213 0.930 . S
H226 C214 0.956 . S
H227 C214 0.961 . S
H228 C214 0.961 . S
H229 C215 0.958 . S
H230 C215 0.961 . S
H231 C215 0.960 . S
C232 C233 1.391 . S
C232 C234 1.394 . S
C232 H248 0.931 . S
C233 C232 1.391 . S
C233 C237 1.376 . S
C234 C232 1.394 . S
C234 C235 1.369 . S
C234 C238 1.531 . S
C235 C234 1.369 . S
C235 C236 1.410 . S
C235 C243 1.503 1_556 S
C236 C235 1.410 . S
C236 C237 1.392 . S
C236 C239 1.511 . S
C237 C233 1.376 . S
C237 C236 1.392 . S
C237 H249 0.929 . S
C238 C234 1.531 . S
C238 H250 0.960 . S
C238 H251 0.962 . S
C238 H252 0.960 . S
C239 C236 1.511 . S
C239 H253 0.961 . S
C239 H254 0.961 . S
C239 H255 0.961 . S
C240 C241 1.370 . S
C240 C242 1.363 . S
C240 H256 0.931 . S
C241 C240 1.370 . S
C241 C245 1.408 . S
C242 C240 1.363 . S
C242 C243 1.370 . S
C242 C246 1.536 . S
C243 C235 1.503 1_554 S
C243 C242 1.370 . S
C243 C244 1.403 . S
C244 C243 1.403 . S
C244 C245 1.404 . S
C244 C247 1.539 . S
C245 C241 1.408 . S
C245 C244 1.404 . S
C245 H257 0.930 . S
C246 C242 1.536 . S
C246 H258 0.946 1_554 S
C246 H259 0.950 1_554 S
C246 H260 0.970 . S
C247 C244 1.539 . S
C247 H261 0.958 . S
C247 H262 0.961 . S
C247 H263 0.960 . S
H248 C232 0.931 . S
H249 C237 0.929 . S
H250 C238 0.960 . S
H251 C238 0.962 . S
H252 C238 0.960 . S
H253 C239 0.961 . S
H254 C239 0.961 . S
H255 C239 0.961 . S
H256 C240 0.931 . S
H257 C245 0.930 . S
H258 C246 0.946 1_556 S
H259 C246 0.950 1_556 S
H260 C246 0.970 . S
H261 C247 0.958 . S
H262 C247 0.961 . S
H263 C247 0.960 . S
C264 C265 1.391 . S
C264 C266 1.394 . S
C264 H280 0.931 . S
C265 C264 1.391 . S
C265 C269 1.376 . S
C266 C264 1.394 . S
C266 C267 1.369 . S
C266 C270 1.531 . S
C267 C266 1.369 . S
C267 C268 1.410 . S
C267 C275 1.503 . S
C268 C267 1.410 . S
C268 C269 1.392 . S
C268 C271 1.511 . S
C269 C265 1.376 . S
C269 C268 1.392 . S
C269 H281 0.929 . S
C270 C266 1.531 . S
C270 H282 0.960 . S
C270 H283 0.962 . S
C270 H284 0.960 . S
C271 C268 1.511 . S
C271 H285 0.961 . S
C271 H286 0.961 . S
C271 H287 0.961 . S
C272 C273 1.370 . S
C272 C274 1.363 . S
C272 H288 0.931 . S
C273 C272 1.370 . S
C273 C277 1.408 . S
C274 C272 1.363 . S
C274 C275 1.370 . S
C274 C278 1.524 . S
C275 C267 1.503 . S
C275 C274 1.370 . S
C275 C276 1.403 . S
C276 C275 1.403 . S
C276 C277 1.404 . S
C276 C279 1.539 . S
C277 C273 1.408 . S
C277 C276 1.404 . S
C277 H289 0.930 . S
C278 C274 1.524 . S
C278 H290 0.956 . S
C278 H291 0.961 . S
C278 H292 0.961 . S
C279 C276 1.539 . S
C279 H293 0.958 . S
C279 H294 0.961 . S
C279 H295 0.960 . S
H280 C264 0.931 . S
H281 C269 0.929 . S
H282 C270 0.960 . S
H283 C270 0.962 . S
H284 C270 0.960 . S
H285 C271 0.961 . S
H286 C271 0.961 . S
H287 C271 0.961 . S
H288 C272 0.931 . S
H289 C277 0.930 . S
H290 C278 0.956 . S
H291 C278 0.961 . S
H292 C278 0.961 . S
H293 C279 0.958 . S
H294 C279 0.961 . S
H295 C279 0.960 . S
C296 C297 1.391 . S
C296 C298 1.394 . S
C296 H312 0.931 . S
C297 C296 1.391 . S
C297 C301 1.376 . S
C298 C296 1.394 . S
C298 C299 1.369 . S
C298 C302 1.531 . S
C299 C298 1.369 . S
C299 C300 1.410 . S
C299 C307 1.503 . S
C300 C299 1.410 . S
C300 C301 1.392 . S
C300 C303 1.511 . S
C301 C297 1.376 . S
C301 C300 1.392 . S
C301 H313 0.929 . S
C302 C298 1.531 . S
C302 H314 0.960 . S
C302 H315 0.962 . S
C302 H316 0.960 . S
C303 C300 1.511 . S
C303 H317 0.961 . S
C303 H318 0.961 . S
C303 H319 0.961 . S
C304 C305 1.370 . S
C304 C306 1.363 . S
C304 H320 0.931 . S
C305 C304 1.370 . S
C305 C309 1.408 . S
C306 C304 1.363 . S
C306 C307 1.370 . S
C306 C310 1.524 . S
C307 C299 1.503 . S
C307 C306 1.370 . S
C307 C308 1.403 . S
C308 C307 1.403 . S
C308 C309 1.404 . S
C308 C311 1.539 . S
C309 C305 1.408 . S
C309 C308 1.404 . S
C309 H321 0.930 . S
C310 C306 1.524 . S
C310 H322 0.956 . S
C310 H323 0.961 . S
C310 H324 0.961 . S
C311 C308 1.539 . S
C311 H325 0.958 . S
C311 H326 0.961 . S
C311 H327 0.960 . S
H312 C296 0.931 . S
H313 C301 0.929 . S
H314 C302 0.960 . S
H315 C302 0.962 . S
H316 C302 0.960 . S
H317 C303 0.961 . S
H318 C303 0.961 . S
H319 C303 0.961 . S
H320 C304 0.931 . S
H321 C309 0.930 . S
H322 C310 0.956 . S
H323 C310 0.961 . S
H324 C310 0.961 . S
H325 C311 0.958 . S
H326 C311 0.961 . S
H327 C311 0.960 . S
C328 C329 1.391 . S
C328 C330 1.394 . S
C328 H344 0.931 . S
C329 C328 1.391 . S
C329 C333 1.376 . S
C330 C328 1.394 . S
C330 C331 1.369 . S
C330 C334 1.531 . S
C331 C330 1.369 . S
C331 C332 1.410 . S
C331 C339 1.503 1_554 S
C332 C331 1.410 . S
C332 C333 1.392 . S
C332 C335 1.511 . S
C333 C329 1.376 . S
C333 C332 1.392 . S
C333 H345 0.929 . S
C334 C330 1.531 . S
C334 H346 0.960 1_554 S
C334 H347 0.955 1_554 S
C334 H348 0.960 . S
C335 C332 1.511 . S
C335 H349 0.961 . S
C335 H350 0.961 1_554 S
C335 H351 0.961 . S
C336 C337 1.370 . S
C336 C338 1.363 . S
C336 H352 0.931 . S
C337 C336 1.370 . S
C337 C341 1.408 . S
C338 C336 1.363 . S
C338 C339 1.370 . S
C338 C342 1.524 . S
C339 C331 1.503 1_556 S
C339 C338 1.370 . S
C339 C340 1.403 . S
C340 C339 1.403 . S
C340 C341 1.404 . S
C340 C343 1.539 . S
C341 C337 1.408 . S
C341 C340 1.404 . S
C341 H353 0.930 . S
C342 C338 1.524 . S
C342 H354 0.956 . S
C342 H355 0.961 . S
C342 H356 0.961 . S
C343 C340 1.539 . S
C343 H357 0.958 . S
C343 H358 0.961 . S
C343 H359 0.960 1_556 S
H344 C328 0.931 . S
H345 C333 0.929 . S
H346 C334 0.960 1_556 S
H347 C334 0.955 1_556 S
H348 C334 0.960 . S
H349 C335 0.961 . S
H350 C335 0.961 1_556 S
H351 C335 0.961 . S
H352 C336 0.931 . S
H353 C341 0.930 . S
H354 C342 0.956 . S
H355 C342 0.961 . S
H356 C342 0.961 . S
H357 C343 0.958 . S
H358 C343 0.961 . S
H359 C343 0.960 1_554 S
C360 C361 1.391 . S
C360 C362 1.394 . S
C360 H376 0.931 . S
C361 C360 1.391 . S
C361 C365 1.376 . S
C362 C360 1.394 . S
C362 C363 1.369 . S
C362 C366 1.531 . S
C363 C362 1.369 . S
C363 C364 1.410 . S
C363 C371 1.503 1_554 S
C364 C363 1.410 . S
C364 C365 1.392 . S
C364 C367 1.511 1_554 S
C365 C361 1.376 . S
C365 C364 1.392 . S
C365 H377 0.929 . S
C366 C362 1.531 . S
C366 H378 0.960 1_554 S
C366 H379 0.962 . S
C366 H380 0.960 . S
C367 C364 1.511 1_556 S
C367 H381 0.966 . S
C367 H382 0.961 . S
C367 H383 0.961 . S
C368 C369 1.370 1_554 S
C368 C370 1.363 . S
C368 H384 0.931 . S
C369 C368 1.370 1_556 S
C369 C373 1.408 . S
C370 C368 1.363 . S
C370 C371 1.370 1_554 S
C370 C374 1.524 . S
C371 C363 1.503 1_556 S
C371 C370 1.370 1_556 S
C371 C372 1.403 . S
C372 C371 1.403 . S
C372 C373 1.404 . S
C372 C375 1.539 . S
C373 C369 1.408 . S
C373 C372 1.404 . S
C373 H385 0.930 . S
C374 C370 1.524 . S
C374 H386 0.956 . S
C374 H387 0.961 . S
C374 H388 0.961 . S
C375 C372 1.539 . S
C375 H389 0.958 . S
C375 H390 0.961 . S
C375 H391 0.960 . S
H376 C360 0.931 . S
H377 C365 0.929 . S
H378 C366 0.960 1_556 S
H379 C366 0.962 . S
H380 C366 0.960 . S
H381 C367 0.966 . S
H382 C367 0.961 . S
H383 C367 0.961 . S
H384 C368 0.931 . S
H385 C373 0.930 . S
H386 C374 0.956 . S
H387 C374 0.961 . S
H388 C374 0.961 . S
H389 C375 0.958 . S
H390 C375 0.961 . S
H391 C375 0.960 . S
C392 C393 1.391 . S
C392 C394 1.394 . S
C392 H408 0.931 . S
C393 C392 1.391 . S
C393 C397 1.376 . S
C394 C392 1.394 . S
C394 C395 1.369 . S
C394 C398 1.531 . S
C395 C394 1.369 . S
C395 C396 1.410 . S
C395 C403 1.503 . S
C396 C395 1.410 . S
C396 C397 1.392 . S
C396 C399 1.511 . S
C397 C393 1.376 . S
C397 C396 1.392 . S
C397 H409 0.929 . S
C398 C394 1.531 . S
C398 H410 0.960 . S
C398 H411 0.962 . S
C398 H412 0.960 . S
C399 C396 1.511 . S
C399 H413 0.961 . S
C399 H414 0.961 . S
C399 H415 0.961 . S
C400 C401 1.370 . S
C400 C402 1.363 . S
C400 H416 0.931 . S
C401 C400 1.370 . S
C401 C405 1.408 . S
C402 C400 1.363 . S
C402 C403 1.370 . S
C402 C406 1.524 . S
C403 C395 1.503 . S
C403 C402 1.370 . S
C403 C404 1.403 . S
C404 C403 1.403 . S
C404 C405 1.404 . S
C404 C407 1.539 . S
C405 C401 1.408 . S
C405 C404 1.404 . S
C405 H417 0.930 . S
C406 C402 1.524 . S
C406 H418 0.956 . S
C406 H419 0.961 . S
C406 H420 0.961 . S
C407 C404 1.539 . S
C407 H421 0.958 . S
C407 H422 0.961 . S
C407 H423 0.960 . S
H408 C392 0.931 . S
H409 C397 0.929 . S
H410 C398 0.960 . S
H411 C398 0.962 . S
H412 C398 0.960 . S
H413 C399 0.961 . S
H414 C399 0.961 . S
H415 C399 0.961 . S
H416 C400 0.931 . S
H417 C405 0.930 . S
H418 C406 0.956 . S
H419 C406 0.961 . S
H420 C406 0.961 . S
H421 C407 0.958 . S
H422 C407 0.961 . S
H423 C407 0.960 . S
C424 C425 1.391 . S
C424 C426 1.394 . S
C424 H440 0.931 . S
C425 C424 1.391 . S
C425 C429 1.376 . S
C426 C424 1.394 . S
C426 C427 1.369 . S
C426 C430 1.531 . S
C427 C426 1.369 . S
C427 C428 1.410 . S
C427 C435 1.503 . S
C428 C427 1.410 . S
C428 C429 1.392 . S
C428 C431 1.511 . S
C429 C425 1.376 . S
C429 C428 1.392 . S
C429 H441 0.929 . S
C430 C426 1.531 . S
C430 H442 0.960 . S
C430 H443 0.962 . S
C430 H444 0.960 . S
C431 C428 1.511 . S
C431 H445 0.961 . S
C431 H446 0.961 . S
C431 H447 0.961 . S
C432 C433 1.370 . S
C432 C434 1.363 . S
C432 H448 0.931 . S
C433 C432 1.370 . S
C433 C437 1.408 . S
C434 C432 1.363 . S
C434 C435 1.370 . S
C434 C438 1.524 . S
C435 C427 1.503 . S
C435 C434 1.370 . S
C435 C436 1.403 . S
C436 C435 1.403 . S
C436 C437 1.404 . S
C436 C439 1.539 . S
C437 C433 1.408 . S
C437 C436 1.404 . S
C437 H449 0.930 . S
C438 C434 1.524 . S
C438 H450 0.956 . S
C438 H451 0.961 . S
C438 H452 0.961 . S
C439 C436 1.539 . S
C439 H453 0.958 . S
C439 H454 0.961 . S
C439 H455 0.960 . S
H440 C424 0.931 . S
H441 C429 0.929 . S
H442 C430 0.960 . S
H443 C430 0.962 . S
H444 C430 0.960 . S
H445 C431 0.961 . S
H446 C431 0.961 . S
H447 C431 0.961 . S
H448 C432 0.931 . S
H449 C437 0.930 . S
H450 C438 0.956 . S
H451 C438 0.961 . S
H452 C438 0.961 . S
H453 C439 0.958 . S
H454 C439 0.961 . S
H455 C439 0.960 . S
C456 C457 1.391 . S
C456 C458 1.394 . S
C456 H472 0.931 . S
C457 C456 1.391 . S
C457 C461 1.366 1_554 S
C458 C456 1.394 . S
C458 C459 1.369 . S
C458 C462 1.531 . S
C459 C458 1.369 . S
C459 C460 1.410 1_554 S
C459 C467 1.503 1_554 S
C460 C459 1.410 1_556 S
C460 C461 1.396 . S
C460 C463 1.511 . S
C461 C457 1.366 1_556 S
C461 C460 1.396 . S
C461 H473 0.935 . S
C462 C458 1.531 . S
C462 H474 0.960 . S
C462 H475 0.962 . S
C462 H476 0.960 . S
C463 C460 1.511 . S
C463 H477 0.961 . S
C463 H478 0.961 . S
C463 H479 0.961 . S
C464 C465 1.370 . S
C464 C466 1.363 . S
C464 H480 0.931 . S
C465 C464 1.370 . S
C465 C469 1.408 . S
C466 C464 1.363 . S
C466 C467 1.370 . S
C466 C470 1.524 . S
C467 C459 1.503 1_556 S
C467 C466 1.370 . S
C467 C468 1.403 . S
C468 C467 1.403 . S
C468 C469 1.404 . S
C468 C471 1.539 . S
C469 C465 1.408 . S
C469 C468 1.404 . S
C469 H481 0.930 . S
C470 C466 1.524 . S
C470 H482 0.956 1_556 S
C470 H483 0.961 . S
C470 H484 0.961 . S
C471 C468 1.539 . S
C471 H485 0.958 1_556 S
C471 H486 0.961 . S
C471 H487 0.960 . S
H472 C456 0.931 . S
H473 C461 0.935 . S
H474 C462 0.960 . S
H475 C462 0.962 . S
H476 C462 0.960 . S
H477 C463 0.961 . S
H478 C463 0.961 . S
H479 C463 0.961 . S
H480 C464 0.931 . S
H481 C469 0.930 . S
H482 C470 0.956 1_554 S
H483 C470 0.961 . S
H484 C470 0.961 . S
H485 C471 0.958 1_554 S
H486 C471 0.961 . S
H487 C471 0.960 . S
C488 C489 1.391 . S
C488 C490 1.394 . S
C488 H504 0.931 . S
C489 C488 1.391 . S
C489 C493 1.376 . S
C490 C488 1.394 . S
C490 C491 1.369 . S
C490 C494 1.531 . S
C491 C490 1.369 . S
C491 C492 1.410 . S
C491 C499 1.503 . S
C492 C491 1.410 . S
C492 C493 1.392 . S
C492 C495 1.511 . S
C493 C489 1.376 . S
C493 C492 1.392 . S
C493 H505 0.929 . S
C494 C490 1.531 . S
C494 H506 0.960 . S
C494 H507 0.962 . S
C494 H508 0.960 . S
C495 C492 1.511 . S
C495 H509 0.961 . S
C495 H510 0.961 . S
C495 H511 0.961 . S
C496 C497 1.370 . S
C496 C498 1.363 . S
C496 H512 0.931 . S
C497 C496 1.370 . S
C497 C501 1.408 . S
C498 C496 1.363 . S
C498 C499 1.370 . S
C498 C502 1.524 . S
C499 C491 1.503 . S
C499 C498 1.370 . S
C499 C500 1.403 . S
C500 C499 1.403 . S
C500 C501 1.404 . S
C500 C503 1.539 . S
C501 C497 1.408 . S
C501 C500 1.404 . S
C501 H513 0.930 . S
C502 C498 1.524 . S
C502 H514 0.956 . S
C502 H515 0.961 . S
C502 H516 0.961 . S
C503 C500 1.539 . S
C503 H517 0.958 . S
C503 H518 0.961 . S
C503 H519 0.960 . S
H504 C488 0.931 . S
H505 C493 0.929 . S
H506 C494 0.960 . S
H507 C494 0.962 . S
H508 C494 0.960 . S
H509 C495 0.961 . S
H510 C495 0.961 . S
H511 C495 0.961 . S
H512 C496 0.931 . S
H513 C501 0.930 . S
H514 C502 0.956 . S
H515 C502 0.961 . S
H516 C502 0.961 . S
H517 C503 0.958 . S
H518 C503 0.961 . S
H519 C503 0.960 . S
C520 C521 1.391 . S
C520 C522 1.394 . S
C520 H536 0.931 . S
C521 C520 1.391 . S
C521 C525 1.376 . S
C522 C520 1.394 . S
C522 C523 1.369 . S
C522 C526 1.531 . S
C523 C522 1.369 . S
C523 C524 1.410 . S
C523 C531 1.503 . S
C524 C523 1.410 . S
C524 C525 1.392 . S
C524 C527 1.511 . S
C525 C521 1.376 . S
C525 C524 1.392 . S
C525 H537 0.929 . S
C526 C522 1.531 . S
C526 H538 0.960 . S
C526 H539 0.962 . S
C526 H540 0.960 . S
C527 C524 1.511 . S
C527 H541 0.961 . S
C527 H542 0.961 . S
C527 H543 0.961 . S
C528 C529 1.370 . S
C528 C530 1.363 . S
C528 H544 0.931 . S
C529 C528 1.370 . S
C529 C533 1.408 . S
C530 C528 1.363 . S
C530 C531 1.370 . S
C530 C534 1.524 . S
C531 C523 1.503 . S
C531 C530 1.370 . S
C531 C532 1.403 . S
C532 C531 1.403 . S
C532 C533 1.404 . S
C532 C535 1.539 . S
C533 C529 1.408 . S
C533 C532 1.404 . S
C533 H545 0.930 . S
C534 C530 1.524 . S
C534 H546 0.956 . S
C534 H547 0.961 . S
C534 H548 0.961 . S
C535 C532 1.539 . S
C535 H549 0.958 . S
C535 H550 0.961 . S
C535 H551 0.960 . S
H536 C520 0.931 . S
H537 C525 0.929 . S
H538 C526 0.960 . S
H539 C526 0.962 . S
H540 C526 0.960 . S
H541 C527 0.961 . S
H542 C527 0.961 . S
H543 C527 0.961 . S
H544 C528 0.931 . S
H545 C533 0.930 . S
H546 C534 0.956 . S
H547 C534 0.961 . S
H548 C534 0.961 . S
H549 C535 0.958 . S
H550 C535 0.961 . S
H551 C535 0.960 . S
C552 C553 1.391 . S
C552 C554 1.394 . S
C552 H568 0.931 . S
C553 C552 1.391 . S
C553 C557 1.376 . S
C554 C552 1.394 . S
C554 C555 1.369 . S
C554 C558 1.531 . S
C555 C554 1.369 . S
C555 C556 1.410 . S
C555 C563 1.503 . S
C556 C555 1.410 . S
C556 C557 1.392 . S
C556 C559 1.511 1_554 S
C557 C553 1.376 . S
C557 C556 1.392 . S
C557 H569 0.929 . S
C558 C554 1.531 . S
C558 H570 0.960 . S
C558 H571 0.962 . S
C558 H572 0.960 . S
C559 C556 1.511 1_556 S
C559 H573 0.961 . S
C559 H574 0.961 . S
C559 H575 0.961 . S
C560 C561 1.370 . S
C560 C562 1.363 . S
C560 H576 0.931 . S
C561 C560 1.370 . S
C561 C565 1.408 . S
C562 C560 1.363 . S
C562 C563 1.370 . S
C562 C566 1.524 . S
C563 C555 1.503 . S
C563 C562 1.370 . S
C563 C564 1.403 . S
C564 C563 1.403 . S
C564 C565 1.404 . S
C564 C567 1.539 . S
C565 C561 1.408 . S
C565 C564 1.404 . S
C565 H577 0.930 . S
C566 C562 1.524 . S
C566 H578 0.956 . S
C566 H579 0.961 . S
C566 H580 0.961 . S
C567 C564 1.539 . S
C567 H581 0.958 . S
C567 H582 0.961 . S
C567 H583 0.960 . S
H568 C552 0.931 . S
H569 C557 0.929 . S
H570 C558 0.960 . S
H571 C558 0.962 . S
H572 C558 0.960 . S
H573 C559 0.961 . S
H574 C559 0.961 . S
H575 C559 0.961 . S
H576 C560 0.931 . S
H577 C565 0.930 . S
H578 C566 0.956 . S
H579 C566 0.961 . S
H580 C566 0.961 . S
H581 C567 0.958 . S
H582 C567 0.961 . S
H583 C567 0.960 . S
C584 C585 1.391 . S
C584 C586 1.394 . S
C584 H600 0.931 . S
C585 C584 1.391 . S
C585 C589 1.376 . S
C586 C584 1.394 . S
C586 C587 1.369 . S
C586 C590 1.531 . S
C587 C586 1.369 . S
C587 C588 1.410 . S
C587 C595 1.503 1_655 S
C588 C587 1.410 . S
C588 C589 1.392 . S
C588 C591 1.498 1_655 S
C589 C585 1.376 . S
C589 C588 1.392 . S
C589 H601 0.929 . S
C590 C586 1.531 . S
C590 H602 0.960 . S
C590 H603 0.962 . S
C590 H604 0.960 . S
C591 C588 1.498 1_455 S
C591 H605 0.962 1_455 S
C591 H606 0.970 . S
C591 H607 0.964 . S
C592 C593 1.370 . S
C592 C594 1.363 . S
C592 H608 0.931 . S
C593 C592 1.370 . S
C593 C597 1.408 . S
C594 C592 1.363 . S
C594 C595 1.370 . S
C594 C598 1.524 . S
C595 C587 1.503 1_455 S
C595 C594 1.370 . S
C595 C596 1.403 . S
C596 C595 1.403 . S
C596 C597 1.404 . S
C596 C599 1.539 . S
C597 C593 1.408 . S
C597 C596 1.404 . S
C597 H609 0.930 . S
C598 C594 1.524 . S
C598 H610 0.956 1_455 S
C598 H611 0.961 . S
C598 H612 0.961 . S
C599 C596 1.539 . S
C599 H613 0.958 . S
C599 H614 0.961 . S
C599 H615 0.960 . S
H600 C584 0.931 . S
H601 C589 0.929 . S
H602 C590 0.960 . S
H603 C590 0.962 . S
H604 C590 0.960 . S
H605 C591 0.962 1_655 S
H606 C591 0.970 . S
H607 C591 0.964 . S
H608 C592 0.931 . S
H609 C597 0.930 . S
H610 C598 0.956 1_655 S
H611 C598 0.961 . S
H612 C598 0.961 . S
H613 C599 0.958 . S
H614 C599 0.961 . S
H615 C599 0.960 . S
C616 C617 1.391 . S
C616 C618 1.394 . S
C616 H632 0.931 . S
C617 C616 1.391 . S
C617 C621 1.376 . S
C618 C616 1.394 . S
C618 C619 1.369 . S
C618 C622 1.531 1_545 S
C619 C618 1.369 . S
C619 C620 1.410 . S
C619 C627 1.503 1_545 S
C620 C619 1.410 . S
C620 C621 1.392 . S
C620 C623 1.511 . S
C621 C617 1.376 . S
C621 C620 1.392 . S
C621 H633 0.929 . S
C622 C618 1.531 1_565 S
C622 H634 0.960 . S
C622 H635 0.962 . S
C622 H636 0.960 1_565 S
C623 C620 1.511 . S
C623 H637 0.961 . S
C623 H638 0.961 . S
C623 H639 0.961 . S
C624 C625 1.370 . S
C624 C626 1.363 . S
C624 H640 0.931 . S
C625 C624 1.370 . S
C625 C629 1.408 . S
C626 C624 1.363 . S
C626 C627 1.370 . S
C626 C630 1.524 1_565 S
C627 C619 1.503 1_565 S
C627 C626 1.370 . S
C627 C628 1.403 . S
C628 C627 1.403 . S
C628 C629 1.404 . S
C628 C631 1.539 . S
C629 C625 1.408 . S
C629 C628 1.404 . S
C629 H641 0.930 . S
C630 C626 1.524 1_545 S
C630 H642 0.956 . S
C630 H643 0.961 . S
C630 H644 0.961 1_545 S
C631 C628 1.539 . S
C631 H645 0.958 . S
C631 H646 0.961 . S
C631 H647 0.960 . S
H632 C616 0.931 . S
H633 C621 0.929 . S
H634 C622 0.960 . S
H635 C622 0.962 . S
H636 C622 0.960 1_545 S
H637 C623 0.961 . S
H638 C623 0.961 . S
H639 C623 0.961 . S
H640 C624 0.931 . S
H641 C629 0.930 . S
H642 C630 0.956 . S
H643 C630 0.961 . S
H644 C630 0.961 1_565 S
H645 C631 0.958 . S
H646 C631 0.961 . S
H647 C631 0.960 . S
C648 C649 1.391 . S
C648 C650 1.394 . S
C648 H664 0.931 . S
C649 C648 1.391 . S
C649 C653 1.376 . S
C650 C648 1.394 . S
C650 C651 1.369 . S
C650 C654 1.531 . S
C651 C650 1.369 . S
C651 C652 1.410 . S
C651 C659 1.503 . S
C652 C651 1.410 . S
C652 C653 1.392 . S
C652 C655 1.511 . S
C653 C649 1.376 . S
C653 C652 1.392 . S
C653 H665 0.929 . S
C654 C650 1.531 . S
C654 H666 0.960 . S
C654 H667 0.962 . S
C654 H668 0.960 . S
C655 C652 1.511 . S
C655 H669 0.961 . S
C655 H670 0.961 . S
C655 H671 0.961 . S
C656 C657 1.370 . S
C656 C658 1.363 . S
C656 H672 0.931 . S
C657 C656 1.370 . S
C657 C661 1.408 . S
C658 C656 1.363 . S
C658 C659 1.370 . S
C658 C662 1.524 . S
C659 C651 1.503 . S
C659 C658 1.370 . S
C659 C660 1.403 . S
C660 C659 1.403 . S
C660 C661 1.404 . S
C660 C663 1.539 . S
C661 C657 1.408 . S
C661 C660 1.404 . S
C661 H673 0.930 . S
C662 C658 1.524 . S
C662 H674 0.956 . S
C662 H675 0.961 . S
C662 H676 0.961 . S
C663 C660 1.539 . S
C663 H677 0.958 . S
C663 H678 0.961 . S
C663 H679 0.960 . S
H664 C648 0.931 . S
H665 C653 0.929 . S
H666 C654 0.960 . S
H667 C654 0.962 . S
H668 C654 0.960 . S
H669 C655 0.961 . S
H670 C655 0.961 . S
H671 C655 0.961 . S
H672 C656 0.931 . S
H673 C661 0.930 . S
H674 C662 0.956 . S
H675 C662 0.961 . S
H676 C662 0.961 . S
H677 C663 0.958 . S
H678 C663 0.961 . S
H679 C663 0.960 . S
C680 C681 1.391 . S
C680 C682 1.394 . S
C680 H696 0.931 . S
C681 C680 1.391 . S
C681 C685 1.376 . S
C682 C680 1.394 . S
C682 C683 1.369 . S
C682 C686 1.531 1_556 S
C683 C682 1.369 . S
C683 C684 1.410 . S
C683 C691 1.503 1_455 S
C684 C683 1.410 . S
C684 C685 1.392 . S
C684 C687 1.511 . S
C685 C681 1.376 . S
C685 C684 1.392 . S
C685 H697 0.929 . S
C686 C682 1.531 1_554 S
C686 H698 0.960 1_455 S
C686 H699 0.962 1_454 S
C686 H700 0.960 . S
C687 C684 1.511 . S
C687 H701 0.961 . S
C687 H702 0.961 . S
C687 H703 0.961 . S
C688 C689 1.370 . S
C688 C690 1.363 . S
C688 H704 0.931 . S
C689 C688 1.370 . S
C689 C693 1.408 . S
C690 C688 1.363 . S
C690 C691 1.370 . S
C690 C694 1.524 . S
C691 C683 1.503 1_655 S
C691 C690 1.370 . S
C691 C692 1.403 . S
C692 C691 1.403 . S
C692 C693 1.404 . S
C692 C695 1.539 1_556 S
C693 C689 1.408 . S
C693 C692 1.404 . S
C693 H705 0.930 . S
C694 C690 1.524 . S
C694 H706 0.956 . S
C694 H707 0.961 . S
C694 H708 0.961 . S
C695 C692 1.539 1_554 S
C695 H709 0.958 . S
C695 H710 0.961 . S
C695 H711 0.960 1_654 S
H696 C680 0.931 . S
H697 C685 0.929 . S
H698 C686 0.960 1_655 S
H699 C686 0.962 1_656 S
H700 C686 0.960 . S
H701 C687 0.961 . S
H702 C687 0.961 . S
H703 C687 0.961 . S
H704 C688 0.931 . S
H705 C693 0.930 . S
H706 C694 0.956 . S
H707 C694 0.961 . S
H708 C694 0.961 . S
H709 C695 0.958 . S
H710 C695 0.961 . S
H711 C695 0.960 1_456 S
C712 C713 1.391 . S
C712 C714 1.394 . S
C712 H728 0.931 . S
C713 C712 1.391 . S
C713 C717 1.376 . S
C714 C712 1.394 . S
C714 C715 1.369 . S
C714 C718 1.531 . S
C715 C714 1.369 . S
C715 C716 1.410 . S
C715 C723 1.507 1_565 S
C716 C715 1.410 . S
C716 C717 1.392 . S
C716 C719 1.511 1_565 S
C717 C713 1.376 . S
C717 C716 1.392 . S
C717 H729 0.929 . S
C718 C714 1.531 . S
C718 H730 0.960 . S
C718 H731 0.962 . S
C718 H732 0.960 . S
C719 C716 1.511 1_545 S
C719 H733 0.961 . S
C719 H734 0.961 . S
C719 H735 0.961 . S
C720 C721 1.370 . S
C720 C722 1.363 . S
C720 H736 0.931 . S
C721 C720 1.370 . S
C721 C725 1.408 1_545 S
C722 C720 1.363 . S
C722 C723 1.391 . S
C722 C726 1.524 . S
C723 C715 1.507 1_545 S
C723 C722 1.391 . S
C723 C724 1.379 1_545 S
C724 C723 1.379 1_565 S
C724 C725 1.404 . S
C724 C727 1.539 . S
C725 C721 1.408 1_565 S
C725 C724 1.404 . S
C725 H737 0.930 . S
C726 C722 1.524 . S
C726 H738 0.956 . S
C726 H739 0.961 . S
C726 H740 0.961 . S
C727 C724 1.539 . S
C727 H741 0.958 . S
C727 H742 0.961 . S
C727 H743 0.960 . S
H728 C712 0.931 . S
H729 C717 0.929 . S
H730 C718 0.960 . S
H731 C718 0.962 . S
H732 C718 0.960 . S
H733 C719 0.961 . S
H734 C719 0.961 . S
H735 C719 0.961 . S
H736 C720 0.931 . S
H737 C725 0.930 . S
H738 C726 0.956 . S
H739 C726 0.961 . S
H740 C726 0.961 . S
H741 C727 0.958 . S
H742 C727 0.961 . S
H743 C727 0.960 . S
C744 C745 1.391 . S
C744 C746 1.394 . S
C744 H760 0.931 . S
C745 C744 1.391 . S
C745 C749 1.376 . S
C746 C744 1.394 . S
C746 C747 1.369 . S
C746 C750 1.531 . S
C747 C746 1.369 . S
C747 C748 1.410 . S
C747 C755 1.503 . S
C748 C747 1.410 . S
C748 C749 1.392 . S
C748 C751 1.511 . S
C749 C745 1.376 . S
C749 C748 1.392 . S
C749 H761 0.929 . S
C750 C746 1.531 . S
C750 H762 0.960 . S
C750 H763 0.962 . S
C750 H764 0.960 . S
C751 C748 1.511 . S
C751 H765 0.961 . S
C751 H766 0.961 . S
C751 H767 0.961 . S
C752 C753 1.370 . S
C752 C754 1.363 . S
C752 H768 0.931 . S
C753 C752 1.370 . S
C753 C757 1.408 . S
C754 C752 1.363 . S
C754 C755 1.370 . S
C754 C758 1.524 . S
C755 C747 1.503 . S
C755 C754 1.370 . S
C755 C756 1.403 . S
C756 C755 1.403 . S
C756 C757 1.404 . S
C756 C759 1.539 . S
C757 C753 1.408 . S
C757 C756 1.404 . S
C757 H769 0.930 . S
C758 C754 1.524 . S
C758 H770 0.956 . S
C758 H771 0.961 . S
C758 H772 0.961 . S
C759 C756 1.539 . S
C759 H773 0.958 . S
C759 H774 0.961 . S
C759 H775 0.960 . S
H760 C744 0.931 . S
H761 C749 0.929 . S
H762 C750 0.960 . S
H763 C750 0.962 . S
H764 C750 0.960 . S
H765 C751 0.961 . S
H766 C751 0.961 . S
H767 C751 0.961 . S
H768 C752 0.931 . S
H769 C757 0.930 . S
H770 C758 0.956 . S
H771 C758 0.961 . S
H772 C758 0.961 . S
H773 C759 0.958 . S
H774 C759 0.961 . S
H775 C759 0.960 . S
C776 C777 1.391 . S
C776 C778 1.394 . S
C776 H792 0.931 . S
C777 C776 1.391 . S
C777 C781 1.376 . S
C778 C776 1.394 . S
C778 C779 1.369 . S
C778 C782 1.531 . S
C779 C778 1.369 . S
C779 C780 1.410 . S
C779 C787 1.503 . S
C780 C779 1.410 . S
C780 C781 1.392 . S
C780 C783 1.511 . S
C781 C777 1.376 . S
C781 C780 1.392 . S
C781 H793 0.929 . S
C782 C778 1.531 . S
C782 H794 0.960 . S
C782 H795 0.962 . S
C782 H796 0.960 . S
C783 C780 1.511 . S
C783 H797 0.961 . S
C783 H798 0.961 . S
C783 H799 0.961 . S
C784 C785 1.370 . S
C784 C786 1.363 . S
C784 H800 0.931 . S
C785 C784 1.370 . S
C785 C789 1.408 . S
C786 C784 1.363 . S
C786 C787 1.370 . S
C786 C790 1.524 . S
C787 C779 1.503 . S
C787 C786 1.370 . S
C787 C788 1.403 . S
C788 C787 1.403 . S
C788 C789 1.404 . S
C788 C791 1.539 . S
C789 C785 1.408 . S
C789 C788 1.404 . S
C789 H801 0.930 . S
C790 C786 1.524 . S
C790 H802 0.956 . S
C790 H803 0.961 . S
C790 H804 0.961 . S
C791 C788 1.539 . S
C791 H805 0.958 . S
C791 H806 0.961 . S
C791 H807 0.960 . S
H792 C776 0.931 . S
H793 C781 0.929 . S
H794 C782 0.960 . S
H795 C782 0.962 . S
H796 C782 0.960 . S
H797 C783 0.961 . S
H798 C783 0.961 . S
H799 C783 0.961 . S
H800 C784 0.931 . S
H801 C789 0.930 . S
H802 C790 0.956 . S
H803 C790 0.961 . S
H804 C790 0.961 . S
H805 C791 0.958 . S
H806 C791 0.961 . S
H807 C791 0.960 . S
C808 C809 1.391 . S
C808 C810 1.394 . S
C808 H824 0.931 . S
C809 C808 1.391 . S
C809 C813 1.376 . S
C810 C808 1.394 . S
C810 C811 1.369 . S
C810 C814 1.531 . S
C811 C810 1.369 . S
C811 C812 1.410 . S
C811 C819 1.503 . S
C812 C811 1.410 . S
C812 C813 1.392 . S
C812 C815 1.511 . S
C813 C809 1.376 . S
C813 C812 1.392 . S
C813 H825 0.929 . S
C814 C810 1.531 . S
C814 H826 0.960 . S
C814 H827 0.962 . S
C814 H828 0.960 . S
C815 C812 1.511 . S
C815 H829 0.961 . S
C815 H830 0.961 . S
C815 H831 0.961 . S
C816 C817 1.370 . S
C816 C818 1.363 . S
C816 H832 0.931 . S
C817 C816 1.370 . S
C817 C821 1.408 . S
C818 C816 1.363 . S
C818 C819 1.370 . S
C818 C822 1.524 . S
C819 C811 1.503 . S
C819 C818 1.370 . S
C819 C820 1.403 . S
C820 C819 1.403 . S
C820 C821 1.404 . S
C820 C823 1.539 . S
C821 C817 1.408 . S
C821 C820 1.404 . S
C821 H833 0.930 . S
C822 C818 1.524 . S
C822 H834 0.956 . S
C822 H835 0.961 . S
C822 H836 0.961 . S
C823 C820 1.539 . S
C823 H837 0.958 . S
C823 H838 0.961 . S
C823 H839 0.960 . S
H824 C808 0.931 . S
H825 C813 0.929 . S
H826 C814 0.960 . S
H827 C814 0.962 . S
H828 C814 0.960 . S
H829 C815 0.961 . S
H830 C815 0.961 . S
H831 C815 0.961 . S
H832 C816 0.931 . S
H833 C821 0.930 . S
H834 C822 0.956 . S
H835 C822 0.961 . S
H836 C822 0.961 . S
H837 C823 0.958 . S
H838 C823 0.961 . S
H839 C823 0.960 . S
C840 C841 1.391 . S
C840 C842 1.394 . S
C840 H856 0.931 . S
C841 C840 1.391 . S
C841 C845 1.376 . S
C842 C840 1.394 . S
C842 C843 1.369 . S
C842 C846 1.531 . S
C843 C842 1.369 . S
C843 C844 1.410 . S
C843 C851 1.503 . S
C844 C843 1.410 . S
C844 C845 1.392 . S
C844 C847 1.511 . S
C845 C841 1.376 . S
C845 C844 1.392 . S
C845 H857 0.929 . S
C846 C842 1.531 . S
C846 H858 0.960 . S
C846 H859 0.962 . S
C846 H860 0.960 . S
C847 C844 1.511 . S
C847 H861 0.961 . S
C847 H862 0.961 . S
C847 H863 0.961 . S
C848 C849 1.370 . S
C848 C850 1.363 . S
C848 H864 0.931 . S
C849 C848 1.370 . S
C849 C853 1.408 . S
C850 C848 1.363 . S
C850 C851 1.370 . S
C850 C854 1.524 . S
C851 C843 1.503 . S
C851 C850 1.370 . S
C851 C852 1.403 . S
C852 C851 1.403 . S
C852 C853 1.404 . S
C852 C855 1.539 . S
C853 C849 1.408 . S
C853 C852 1.404 . S
C853 H865 0.930 . S
C854 C850 1.524 . S
C854 H866 0.956 . S
C854 H867 0.961 . S
C854 H868 0.961 . S
C855 C852 1.539 . S
C855 H869 0.958 . S
C855 H870 0.961 . S
C855 H871 0.960 . S
H856 C840 0.931 . S
H857 C845 0.929 . S
H858 C846 0.960 . S
H859 C846 0.962 . S
H860 C846 0.960 . S
H861 C847 0.961 . S
H862 C847 0.961 . S
H863 C847 0.961 . S
H864 C848 0.931 . S
H865 C853 0.930 . S
H866 C854 0.956 . S
H867 C854 0.961 . S
H868 C854 0.961 . S
H869 C855 0.958 . S
H870 C855 0.961 . S
H871 C855 0.960 . S
C872 C873 1.391 . S
C872 C874 1.394 . S
C872 H888 0.931 . S
C873 C872 1.391 . S
C873 C877 1.376 . S
C874 C872 1.394 . S
C874 C875 1.369 . S
C874 C878 1.531 . S
C875 C874 1.369 . S
C875 C876 1.410 . S
C875 C883 1.503 . S
C876 C875 1.410 . S
C876 C877 1.392 . S
C876 C879 1.511 . S
C877 C873 1.376 . S
C877 C876 1.392 . S
C877 H889 0.929 . S
C878 C874 1.531 . S
C878 H890 0.960 . S
C878 H891 0.962 . S
C878 H892 0.960 . S
C879 C876 1.511 . S
C879 H893 0.961 . S
C879 H894 0.961 . S
C879 H895 0.961 . S
C880 C881 1.370 . S
C880 C882 1.363 . S
C880 H896 0.931 . S
C881 C880 1.370 . S
C881 C885 1.408 . S
C882 C880 1.363 . S
C882 C883 1.370 . S
C882 C886 1.524 . S
C883 C875 1.503 . S
C883 C882 1.370 . S
C883 C884 1.403 . S
C884 C883 1.403 . S
C884 C885 1.404 . S
C884 C887 1.539 . S
C885 C881 1.408 . S
C885 C884 1.404 . S
C885 H897 0.930 . S
C886 C882 1.524 . S
C886 H898 0.956 . S
C886 H899 0.961 . S
C886 H900 0.961 . S
C887 C884 1.539 . S
C887 H901 0.958 . S
C887 H902 0.961 . S
C887 H903 0.960 . S
H888 C872 0.931 . S
H889 C877 0.929 . S
H890 C878 0.960 . S
H891 C878 0.962 . S
H892 C878 0.960 . S
H893 C879 0.961 . S
H894 C879 0.961 . S
H895 C879 0.961 . S
H896 C880 0.931 . S
H897 C885 0.930 . S
H898 C886 0.956 . S
H899 C886 0.961 . S
H900 C886 0.961 . S
H901 C887 0.958 . S
H902 C887 0.961 . S
H903 C887 0.960 . S
C904 C905 1.391 . S
C904 C906 1.394 . S
C904 H920 0.931 . S
C905 C904 1.391 . S
C905 C909 1.376 . S
C906 C904 1.394 . S
C906 C907 1.369 . S
C906 C910 1.531 . S
C907 C906 1.369 . S
C907 C908 1.410 . S
C907 C915 1.503 . S
C908 C907 1.410 . S
C908 C909 1.392 . S
C908 C911 1.511 . S
C909 C905 1.376 . S
C909 C908 1.392 . S
C909 H921 0.929 . S
C910 C906 1.531 . S
C910 H922 0.960 . S
C910 H923 0.962 . S
C910 H924 0.960 . S
C911 C908 1.511 . S
C911 H925 0.961 . S
C911 H926 0.961 . S
C911 H927 0.961 . S
C912 C913 1.370 . S
C912 C914 1.363 . S
C912 H928 0.931 . S
C913 C912 1.370 . S
C913 C917 1.408 . S
C914 C912 1.363 . S
C914 C915 1.370 . S
C914 C918 1.524 . S
C915 C907 1.503 . S
C915 C914 1.370 . S
C915 C916 1.403 . S
C916 C915 1.403 . S
C916 C917 1.404 . S
C916 C919 1.539 . S
C917 C913 1.408 . S
C917 C916 1.404 . S
C917 H929 0.930 . S
C918 C914 1.524 . S
C918 H930 0.956 . S
C918 H931 0.961 . S
C918 H932 0.961 . S
C919 C916 1.539 . S
C919 H933 0.958 . S
C919 H934 0.961 . S
C919 H935 0.960 . S
H920 C904 0.931 . S
H921 C909 0.929 . S
H922 C910 0.960 . S
H923 C910 0.962 . S
H924 C910 0.960 . S
H925 C911 0.961 . S
H926 C911 0.961 . S
H927 C911 0.961 . S
H928 C912 0.931 . S
H929 C917 0.930 . S
H930 C918 0.956 . S
H931 C918 0.961 . S
H932 C918 0.961 . S
H933 C919 0.958 . S
H934 C919 0.961 . S
H935 C919 0.960 . S
C169 C11 1.568 . S
C177 C95 1.551 . S
C201 C25 1.524 . S
C209 C109 1.511 . S
C233 C39 1.555 . S
C241 C123 1.567 . S
C265 C53 1.549 . S
C273 C137 1.548 . S
C297 C67 1.495 . S
C305 C151 1.516 . S
C329 C165 1.568 . S
C337 C81 1.549 . S
C361 C0 1.495 . S
C369 C140 1.662 . S
C393 C14 1.628 . S
C401 C154 1.537 . S
C425 C28 1.585 . S
C433 C84 1.612 . S
C457 C42 1.475 . S
C465 C98 1.658 . S
C489 C56 1.640 . S
C497 C112 1.540 . S
C521 C70 1.622 . S
C529 C126 1.604 . S
C553 C9 2.252 . S
C561 C51 2.205 . S
C585 C23 1.363 . S
C593 C65 1.370 . S
C617 C79 1.197 . S
C625 C37 1.216 . S
C649 C93 1.223 . S
C657 C135 1.208 . S
C681 C149 1.355 . S
C689 C107 1.384 . S
C713 C121 2.181 . S
C721 C163 2.231 . S
C745 C89 0.864 . S
C753 C5 0.791 . S
C777 C19 0.818 . S
C785 C103 0.822 . S
C809 C33 0.840 . S
C817 C117 0.805 . S
C841 C131 0.809 . S
C849 C47 0.817 . S
C873 C145 0.760 . S
C881 C61 0.840 . S
C905 C75 0.786 . S
C913 C159 0.815 . S
