# Generated by pormake.
# Topology lcy, (6)-cn, num edge types: 1
# Building blocks:
#     Node 0, Type 0, BuildingBlock: UKALOJ_clean_sbu_0, # of connection points: 6
#     Node 1, Type 0, BuildingBlock: UKALOJ_clean_sbu_0, # of connection points: 6
#     Node 2, Type 0, BuildingBlock: UKALOJ_clean_sbu_0, # of connection points: 6
#     Node 3, Type 0, BuildingBlock: UKALOJ_clean_sbu_0, # of connection points: 6
#     Edge 4, Type (0, 0), BuildingBlock: MIFKUJ_clean_linker_0, # of connection points: 2
#     Edge 5, Type (0, 0), BuildingBlock: MIFKUJ_clean_linker_0, # of connection points: 2
#     Edge 6, Type (0, 0), BuildingBlock: MIFKUJ_clean_linker_0, # of connection points: 2
#     Edge 7, Type (0, 0), BuildingBlock: MIFKUJ_clean_linker_0, # of connection points: 2
#     Edge 8, Type (0, 0), BuildingBlock: MIFKUJ_clean_linker_0, # of connection points: 2
#     Edge 9, Type (0, 0), BuildingBlock: MIFKUJ_clean_linker_0, # of connection points: 2
#     Edge 10, Type (0, 0), BuildingBlock: MIFKUJ_clean_linker_0, # of connection points: 2
#     Edge 11, Type (0, 0), BuildingBlock: MIFKUJ_clean_linker_0, # of connection points: 2
#     Edge 12, Type (0, 0), BuildingBlock: MIFKUJ_clean_linker_0, # of connection points: 2
#     Edge 13, Type (0, 0), BuildingBlock: MIFKUJ_clean_linker_0, # of connection points: 2
#     Edge 14, Type (0, 0), BuildingBlock: MIFKUJ_clean_linker_0, # of connection points: 2
#     Edge 15, Type (0, 0), BuildingBlock: MIFKUJ_clean_linker_0, # of connection points: 2
# Relax obj value: 0.326
# Max RMSD: 0.286
# Mean RMSD: 0.261
data_MOF--net-lcy--node1-UKALOJ_clean_sbu_0--edge1-MIFKUJ_clean_linker_0
_symmetry_space_group_name_H-M    P1
_symmetry_Int_Tables_number       1
_symmetry_cell_setting            triclinic
loop_
_symmetry_equiv_pos_as_xyz
'x, y, z'
_cell_length_a     33.02914
_cell_length_b     35.040261
_cell_length_c     33.682614
_cell_angle_alpha  89.812816
_cell_angle_beta   97.589932
_cell_angle_gamma 97.430393
loop_
_atom_site_label
_atom_site_type_symbol
_atom_site_fract_x
_atom_site_fract_y
_atom_site_fract_z
_atom_type_partial_charge
Zn0 Zn 0.38071 0.42545 0.34899 0.0
O1 O 0.35657 0.46163 0.38835 0.0
C2 C 0.44775 0.489 0.34654 0.0
Zn3 Zn 0.43225 0.41997 0.39754 0.0
C4 C 0.37344 0.46709 0.4245 0.0
O5 O 0.40578 0.45207 0.43667 0.0
C6 C 0.4395 0.37729 0.32303 0.0
O7 O 0.39819 0.36853 0.41824 0.0
O8 O 0.34766 0.37796 0.37155 0.0
N9 N 0.48214 0.41579 0.43994 0.0
C10 C 0.50525 0.38694 0.44824 0.0
C11 C 0.53764 0.43718 0.4789 0.0
N12 N 0.50217 0.44685 0.45938 0.0
N13 N 0.54028 0.39971 0.4725 0.0
C14 C 0.33113 0.43672 0.26592 0.0
C15 C 0.26884 0.42538 0.2777 0.0
N16 N 0.33206 0.42917 0.3053 0.0
N17 N 0.29335 0.422 0.31253 0.0
N18 N 0.29183 0.43422 0.24797 0.0
H19 H 0.37432 0.4828 0.24981 0.0
H20 H 0.36387 0.44427 0.21386 0.0
H21 H 0.39595 0.43883 0.26038 0.0
C22 C 0.36839 0.45103 0.2463 0.0
C23 C 0.49583 0.34752 0.4293 0.0
H24 H 0.49788 0.32525 0.4526 0.0
H25 H 0.51899 0.3437 0.40908 0.0
H26 H 0.46457 0.34263 0.41239 0.0
O27 O 0.45848 0.38799 0.35715 0.0
O28 O 0.40489 0.38848 0.31146 0.0
C29 C 0.36149 0.35885 0.40118 0.0
O30 O 0.41383 0.47393 0.32746 0.0
O31 O 0.4634 0.47251 0.37747 0.0
Zn32 Zn 0.92197 0.12475 0.62202 0.0
O33 O 0.89101 0.16929 0.59148 0.0
C34 C 0.9403 0.17535 0.69304 0.0
Zn35 Zn 0.87299 0.11149 0.66114 0.0
C36 C 0.85585 0.17327 0.60145 0.0
O37 O 0.84232 0.15258 0.62904 0.0
C38 C 0.93648 0.06046 0.68081 0.0
O39 O 0.83955 0.06802 0.61976 0.0
O40 O 0.88754 0.0846 0.58142 0.0
N41 N 0.82818 0.10545 0.69813 0.0
C42 C 0.81287 0.07573 0.71959 0.0
C43 C 0.78698 0.12509 0.73591 0.0
N44 N 0.81179 0.136 0.70814 0.0
N45 N 0.78722 0.08741 0.7439 0.0
C46 C 0.99417 0.15998 0.57582 0.0
C47 C 0.01298 0.10853 0.55481 0.0
N48 N 0.96761 0.13023 0.58619 0.0
N49 N 0.97922 0.0984 0.57277 0.0
N50 N 0.0229 0.14699 0.55626 0.0
H51 H 0.9656 0.20546 0.59993 0.0
H52 H 0.99726 0.21983 0.56127 0.0
H53 H 0.02125 0.21003 0.61033 0.0
C54 C 0.99417 0.20115 0.58762 0.0
C55 C 0.82136 0.03512 0.71501 0.0
H56 H 0.82825 0.02974 0.68436 0.0
H57 H 0.79462 0.0145 0.72137 0.0
H58 H 0.84848 0.03016 0.73652 0.0
O59 O 0.9041 0.06951 0.69282 0.0
O60 O 0.95092 0.07918 0.65225 0.0
C61 C 0.85401 0.06445 0.58689 0.0
O62 O 0.95586 0.16587 0.66261 0.0
O63 O 0.90642 0.15671 0.70038 0.0
Zn64 Zn 0.06754 0.63201 0.86238 0.0
O65 O 0.10771 0.67462 0.89913 0.0
C66 C 0.0487 0.68996 0.80106 0.0
Zn67 Zn 0.11221 0.6353 0.81844 0.0
C68 C 0.14074 0.68964 0.88656 0.0
O69 O 0.14921 0.67928 0.85293 0.0
C70 C 0.04212 0.57369 0.79632 0.0
O71 O 0.14651 0.59465 0.85107 0.0
O72 O 0.09911 0.5899 0.89141 0.0
N73 N 0.15163 0.64248 0.77671 0.0
C74 C 0.16861 0.61799 0.75513 0.0
C75 C 0.1843 0.67446 0.73326 0.0
N76 N 0.1617 0.67754 0.76325 0.0
N77 N 0.1892 0.63743 0.72776 0.0
C78 C 0.00518 0.64896 0.91971 0.0
C79 C 0.98957 0.59337 0.94359 0.0
N80 N 0.0274 0.62481 0.9037 0.0
N81 N 0.01776 0.59033 0.91871 0.0
N82 N 0.98103 0.62985 0.94458 0.0
H83 H 0.00301 0.70695 0.93957 0.0
H84 H 0.98512 0.69705 0.88746 0.0
H85 H 0.03952 0.70252 0.90475 0.0
C86 C 0.00868 0.6914 0.9126 0.0
C87 C 0.16249 0.57502 0.75858 0.0
H88 H 0.14199 0.56534 0.78105 0.0
H89 H 0.19271 0.56473 0.76746 0.0
H90 H 0.14949 0.56182 0.72896 0.0
O91 O 0.07515 0.58967 0.78457 0.0
O92 O 0.02979 0.58761 0.82673 0.0
C93 C 0.13189 0.57971 0.8815 0.0
O94 O 0.03609 0.67534 0.83251 0.0
O95 O 0.07859 0.6771 0.78765 0.0
Zn96 Zn 0.59959 0.8707 0.14365 0.0
O97 O 0.55573 0.85065 0.09369 0.0
C98 C 0.6293 0.93568 0.09561 0.0
Zn99 Zn 0.56645 0.92047 0.1528 0.0
C100 C 0.52449 0.86838 0.08538 0.0
O101 O 0.52165 0.89824 0.10552 0.0
C102 C 0.63957 0.92113 0.21343 0.0
O103 O 0.53107 0.8897 0.19447 0.0
O104 O 0.56174 0.84018 0.18037 0.0
N105 N 0.53608 0.9673 0.15496 0.0
C106 C 0.53382 0.99332 0.18371 0.0
C107 C 0.5064 0.01429 0.12843 0.0
N108 N 0.51854 0.98021 0.12078 0.0
N109 N 0.51549 0.02312 0.16771 0.0
C110 C 0.64992 0.81148 0.11138 0.0
C111 C 0.6588 0.7745 0.16129 0.0
N112 N 0.62982 0.82387 0.14013 0.0
N113 N 0.63515 0.80071 0.17102 0.0
N114 N 0.66859 0.78077 0.12406 0.0
H115 H 0.6206 0.84045 0.06103 0.0
H116 H 0.65319 0.80594 0.04817 0.0
H117 H 0.67576 0.85154 0.07063 0.0
C118 C 0.64962 0.82822 0.07035 0.0
C119 C 0.55275 0.9912 0.22646 0.0
H120 H 0.55393 0.96084 0.23538 0.0
H121 H 0.53506 0.0051 0.24675 0.0
H122 H 0.58444 0.00682 0.22983 0.0
O123 O 0.61176 0.94167 0.20051 0.0
O124 O 0.6418 0.89003 0.19499 0.0
C125 C 0.53582 0.85437 0.19856 0.0
O126 O 0.63715 0.90232 0.10606 0.0
O127 O 0.60121 0.95011 0.11053 0.0
H128 H 0.21496 0.57618 0.89574 0.0
H129 H 0.25077 0.54186 0.95071 0.0
H130 H 0.13356 0.49136 0.98291 0.0
H131 H 0.09801 0.5252 0.92849 0.0
H132 H 0.24404 0.55447 0.02932 0.0
H133 H 0.14144 0.40573 0.02621 0.0
H134 H 0.10362 0.35857 0.97599 0.0
H135 H 0.18468 0.39955 0.89101 0.0
H136 H 0.22352 0.44646 0.94091 0.0
H137 H 0.23907 0.4839 0.22229 0.0
H138 H 0.21675 0.49989 0.15251 0.0
H139 H 0.28835 0.41665 0.11195 0.0
H140 H 0.30914 0.3996 0.18188 0.0
H141 H 0.2149 0.41665 0.06385 0.0
H142 H 0.32945 0.51094 0.11446 0.0
H143 H 0.36633 0.55618 0.16712 0.0
H144 H 0.26432 0.62176 0.15575 0.0
H145 H 0.22703 0.57715 0.10267 0.0
C146 C 0.19701 0.55678 0.91382 0.0
C147 C 0.15379 0.55337 0.90803 0.0
C148 C 0.21742 0.53745 0.94532 0.0
C149 C 0.1948 0.514 0.97081 0.0
C150 C 0.15166 0.50888 0.96337 0.0
C151 C 0.13138 0.52839 0.93234 0.0
C152 C 0.2154 0.49818 0.00784 0.0
C153 C 0.23822 0.52422 0.03654 0.0
C154 C 0.2079 0.45869 0.01729 0.0
C155 C 0.18535 0.42977 0.98737 0.0
C156 C 0.15149 0.40445 0.99696 0.0
C157 C 0.12985 0.37775 0.96853 0.0
C158 C 0.14179 0.37602 0.93037 0.0
C159 C 0.17547 0.40091 0.92059 0.0
C160 C 0.1973 0.42759 0.94894 0.0
C161 C 0.24959 0.46889 0.19833 0.0
C162 C 0.27679 0.44155 0.2071 0.0
C163 C 0.2371 0.47807 0.15862 0.0
C164 C 0.25182 0.46016 0.12711 0.0
C165 C 0.27709 0.43117 0.13581 0.0
C166 C 0.28931 0.42179 0.17559 0.0
C167 C 0.24224 0.47315 0.08539 0.0
C168 C 0.22147 0.44667 0.05608 0.0
C169 C 0.25193 0.51213 0.07511 0.0
C170 C 0.27551 0.54074 0.10463 0.0
C171 C 0.31507 0.53522 0.12297 0.0
C172 C 0.33603 0.56074 0.15286 0.0
C173 C 0.31771 0.59187 0.16468 0.0
C174 C 0.27855 0.59775 0.14638 0.0
C175 C 0.25761 0.57252 0.11619 0.0
H176 H 0.33378 0.61132 0.18814 0.0
H177 H 0.12483 0.35549 0.90833 0.0
H178 H 0.68502 0.87416 0.2605 0.0
H179 H 0.71913 0.88706 0.32895 0.0
H180 H 0.68671 0.00254 0.32276 0.0
H181 H 0.65195 0.98959 0.25469 0.0
H182 H 0.78029 0.93312 0.36371 0.0
H183 H 0.66205 0.03062 0.41145 0.0
H184 H 0.58751 0.03439 0.39687 0.0
H185 H 0.56583 0.91586 0.35908 0.0
H186 H 0.63995 0.91089 0.3746 0.0
H187 H 0.87281 0.06205 0.51118 0.0
H188 H 0.83473 0.02642 0.45393 0.0
H189 H 0.74604 0.9743 0.52784 0.0
H190 H 0.7837 0.01184 0.586 0.0
H191 H 0.70692 0.99373 0.46116 0.0
H192 H 0.8163 0.92096 0.49017 0.0
H193 H 0.88765 0.90717 0.50849 0.0
H194 H 0.92111 0.95832 0.39947 0.0
H195 H 0.85013 0.97297 0.38074 0.0
C196 C 0.68561 0.90248 0.27353 0.0
C197 C 0.66542 0.93078 0.25229 0.0
C198 C 0.705 0.90975 0.31274 0.0
C199 C 0.70465 0.94546 0.3314 0.0
C200 C 0.68638 0.97439 0.30944 0.0
C201 C 0.66673 0.96705 0.2704 0.0
C202 C 0.72331 0.95272 0.37376 0.0
C203 C 0.76421 0.94618 0.38508 0.0
C204 C 0.70162 0.96786 0.4024 0.0
C205 C 0.65676 0.97053 0.39384 0.0
C206 C 0.64139 0.00527 0.40029 0.0
C207 C 0.59919 0.00764 0.39181 0.0
C208 C 0.57202 0.97551 0.37679 0.0
C209 C 0.58692 0.94079 0.37055 0.0
C210 C 0.62903 0.93817 0.37923 0.0
C211 C 0.84547 0.04276 0.5157 0.0
C212 C 0.83146 0.03969 0.5534 0.0
C213 C 0.82378 0.02207 0.48275 0.0
C214 C 0.78797 0.99686 0.48655 0.0
C215 C 0.77381 0.99335 0.5242 0.0
C216 C 0.79538 0.01468 0.55742 0.0
C217 C 0.76475 0.97634 0.45025 0.0
C218 C 0.72287 0.98016 0.44004 0.0
C219 C 0.78499 0.95711 0.42322 0.0
C220 C 0.82782 0.94817 0.43411 0.0
C221 C 0.83891 0.92946 0.47019 0.0
C222 C 0.8793 0.92148 0.48064 0.0
C223 C 0.9089 0.93189 0.45517 0.0
C224 C 0.89814 0.95025 0.41916 0.0
C225 C 0.85779 0.95833 0.40857 0.0
H226 H 0.94016 0.9257 0.46333 0.0
H227 H 0.53939 0.97748 0.37014 0.0
H228 H 0.25011 0.59265 0.73405 0.0
H229 H 0.28144 0.56818 0.6786 0.0
H230 H 0.20051 0.6254 0.594 0.0
H231 H 0.16937 0.64989 0.64955 0.0
H232 H 0.20554 0.54698 0.57406 0.0
H233 H 0.29347 0.66492 0.6115 0.0
H234 H 0.33784 0.71135 0.6584 0.0
H235 H 0.42047 0.62757 0.68899 0.0
H236 H 0.37624 0.58042 0.64268 0.0
H237 H 0.30847 0.50877 0.40864 0.0
H238 H 0.2769 0.54329 0.45708 0.0
H239 H 0.36477 0.50936 0.55281 0.0
H240 H 0.39703 0.47592 0.50477 0.0
H241 H 0.35426 0.58122 0.56348 0.0
H242 H 0.26559 0.46174 0.53269 0.0
H243 H 0.22157 0.41279 0.48837 0.0
H244 H 0.14093 0.49597 0.44834 0.0
H245 H 0.18481 0.54557 0.49208 0.0
C246 C 0.23891 0.59953 0.70355 0.0
C247 C 0.20726 0.62265 0.69566 0.0
C248 C 0.2569 0.58592 0.67205 0.0
C249 C 0.24325 0.59516 0.63235 0.0
C250 C 0.21136 0.61801 0.62447 0.0
C251 C 0.19378 0.63201 0.656 0.0
C252 C 0.26224 0.58079 0.59905 0.0
C253 C 0.2379 0.55489 0.57125 0.0
C254 C 0.30458 0.59068 0.59611 0.0
C255 C 0.33132 0.61902 0.62389 0.0
C256 C 0.3209 0.65628 0.62848 0.0
C257 C 0.34607 0.68275 0.65491 0.0
C258 C 0.3819 0.67238 0.67674 0.0
C259 C 0.39268 0.63554 0.6721 0.0
C260 C 0.36759 0.60895 0.64573 0.0
C261 C 0.32117 0.5089 0.43998 0.0
C262 C 0.35508 0.48945 0.45291 0.0
C263 C 0.30304 0.52851 0.46762 0.0
C264 C 0.31818 0.52845 0.50861 0.0
C265 C 0.35261 0.50982 0.52134 0.0
C266 C 0.37093 0.49058 0.49379 0.0
C267 C 0.29775 0.54679 0.5387 0.0
C268 C 0.3218 0.57351 0.56595 0.0
C269 C 0.25524 0.53726 0.54145 0.0
C270 C 0.22873 0.50745 0.51529 0.0
C271 C 0.23864 0.46965 0.51421 0.0
C272 C 0.21369 0.44178 0.48923 0.0
C273 C 0.17855 0.45129 0.46546 0.0
C274 C 0.16821 0.48867 0.46671 0.0
C275 C 0.19309 0.51666 0.4916 0.0
H276 H 0.15927 0.42968 0.44614 0.0
H277 H 0.40135 0.69292 0.69718 0.0
H278 H 0.60314 0.99402 0.04926 0.0
H279 H 0.63056 0.02012 0.98934 0.0
H280 H 0.7274 0.94784 0.00799 0.0
H281 H 0.70013 0.92146 0.06794 0.0
H282 H 0.75361 0.02446 0.98506 0.0
H283 H 0.64846 0.91826 0.94419 0.0
H284 H 0.57886 0.88212 0.94088 0.0
H285 H 0.52671 0.97722 0.88293 0.0
H286 H 0.596 0.01422 0.88653 0.0
H287 H 0.82109 0.0377 0.79648 0.0
H288 H 0.79304 0.01038 0.85522 0.0
H289 H 0.68617 0.06923 0.82649 0.0
H290 H 0.71334 0.09499 0.76612 0.0
H291 H 0.66417 0.99963 0.85488 0.0
H292 H 0.767 0.10639 0.89555 0.0
H293 H 0.83549 0.1449 0.90032 0.0
H294 H 0.89063 0.05205 0.95976 0.0
H295 H 0.8225 0.01275 0.95484 0.0
C296 C 0.63068 0.98414 0.04102 0.0
C297 C 0.64931 0.95545 0.06311 0.0
C298 C 0.64613 0.99891 0.00666 0.0
C299 C 0.68061 0.98548 0.99403 0.0
C300 C 0.70061 0.95839 0.0172 0.0
C301 C 0.68492 0.94329 0.05133 0.0
C302 C 0.69476 0.99841 0.95572 0.0
C303 C 0.73432 0.01866 0.95652 0.0
C304 C 0.66904 0.99158 0.9187 0.0
C305 C 0.6274 0.96917 0.91602 0.0
C306 C 0.62213 0.9316 0.93104 0.0
C307 C 0.58274 0.91094 0.92907 0.0
C308 C 0.54838 0.9274 0.91181 0.0
C309 C 0.55336 0.96452 0.89635 0.0
C310 C 0.59269 0.98535 0.89834 0.0
C311 C 0.79088 0.04356 0.80162 0.0
C312 C 0.7689 0.06774 0.77605 0.0
C313 C 0.77521 0.02854 0.83576 0.0
C314 C 0.73777 0.03821 0.84562 0.0
C315 C 0.71512 0.06138 0.81952 0.0
C316 C 0.73066 0.07614 0.78514 0.0
C317 C 0.72325 0.02565 0.88407 0.0
C318 C 0.68356 0.00548 0.88335 0.0
C319 C 0.74871 0.03287 0.92127 0.0
C320 C 0.7897 0.0565 0.92447 0.0
C321 C 0.79377 0.09408 0.90938 0.0
C322 C 0.83252 0.11607 0.91215 0.0
C323 C 0.86741 0.1009 0.93024 0.0
C324 C 0.86359 0.06374 0.9457 0.0
C325 C 0.82491 0.04161 0.94296 0.0
H326 H 0.89738 0.11797 0.93236 0.0
H327 H 0.51791 0.91137 0.91034 0.0
H328 H 0.10019 0.13703 0.58548 0.0
H329 H 0.1639 0.16835 0.56258 0.0
H330 H 0.09196 0.23272 0.47679 0.0
H331 H 0.02833 0.2017 0.50028 0.0
H332 H 0.15299 0.19068 0.44602 0.0
H333 H 0.13964 0.27902 0.55305 0.0
H334 H 0.13279 0.29506 0.62287 0.0
H335 H 0.24698 0.25217 0.66339 0.0
H336 H 0.25417 0.23531 0.59381 0.0
H337 H 0.2814 0.33707 0.37211 0.0
H338 H 0.23064 0.29472 0.40203 0.0
H339 H 0.3241 0.2685 0.49656 0.0
H340 H 0.37569 0.31305 0.46729 0.0
H341 H 0.25881 0.28211 0.52741 0.0
H342 H 0.27798 0.20016 0.42207 0.0
H343 H 0.28631 0.18139 0.35343 0.0
H344 H 0.16434 0.20652 0.31103 0.0
H345 H 0.15545 0.22599 0.37929 0.0
C346 C 0.09832 0.15826 0.56209 0.0
C347 C 0.05984 0.16749 0.54476 0.0
C348 C 0.13448 0.17604 0.54909 0.0
C349 C 0.13251 0.20282 0.5181 0.0
C350 C 0.094 0.21214 0.50082 0.0
C351 C 0.05786 0.19478 0.51432 0.0
C352 C 0.1705 0.22022 0.50274 0.0
C353 C 0.17606 0.21092 0.46358 0.0
C354 C 0.20137 0.24504 0.52653 0.0
C355 C 0.19719 0.25549 0.56829 0.0
C356 C 0.16309 0.27268 0.57688 0.0
C357 C 0.15918 0.28199 0.61641 0.0
C358 C 0.18936 0.27453 0.64756 0.0
C359 C 0.22358 0.25786 0.63924 0.0
C360 C 0.2276 0.24845 0.59976 0.0
C361 C 0.29163 0.32202 0.39897 0.0
C362 C 0.3328 0.32849 0.41726 0.0
C363 C 0.26239 0.29743 0.41596 0.0
C364 C 0.27352 0.27771 0.45117 0.0
C365 C 0.31482 0.28324 0.4692 0.0
C366 C 0.34431 0.30848 0.45236 0.0
C367 C 0.24093 0.25361 0.46991 0.0
C368 C 0.23628 0.26142 0.50984 0.0
C369 C 0.21116 0.22679 0.447 0.0
C370 C 0.21613 0.21469 0.40586 0.0
C371 C 0.253 0.20188 0.39809 0.0
C372 C 0.25781 0.1911 0.35924 0.0
C373 C 0.22589 0.19279 0.32789 0.0
C374 C 0.18903 0.20519 0.33535 0.0
C375 C 0.18406 0.21603 0.37414 0.0
H376 H 0.22969 0.18446 0.29782 0.0
H377 H 0.18629 0.28176 0.67814 0.0
H378 H 0.98891 0.72842 0.82542 0.0
H379 H 0.97044 0.79086 0.80303 0.0
H380 H 0.05335 0.79332 0.71399 0.0
H381 H 0.07289 0.73121 0.73708 0.0
H382 H 0.06545 0.85954 0.75311 0.0
H383 H 0.94674 0.77986 0.68867 0.0
H384 H 0.88684 0.72939 0.68379 0.0
H385 H 0.83257 0.79161 0.76815 0.0
H386 H 0.89242 0.84224 0.77395 0.0
H387 H 0.99364 0.02284 0.65038 0.0
H388 H 0.01372 0.95993 0.66989 0.0
H389 H 0.93803 0.95534 0.76522 0.0
H390 H 0.91801 0.01823 0.74605 0.0
H391 H 0.92239 0.8899 0.72035 0.0
H392 H 0.04249 0.969 0.78525 0.0
H393 H 0.10241 0.01938 0.78917 0.0
H394 H 0.15388 0.9579 0.70209 0.0
H395 H 0.09395 0.90738 0.69724 0.0
C396 C 0.00285 0.74191 0.80075 0.0
C397 C 0.03253 0.72473 0.78324 0.0
C398 C 0.99212 0.77768 0.78781 0.0
C399 C 0.01035 0.79689 0.75665 0.0
C400 C 0.03894 0.77919 0.73816 0.0
C401 C 0.04986 0.74349 0.75124 0.0
C402 C 0.0012 0.83623 0.74484 0.0
C403 C 0.03417 0.866 0.74528 0.0
C404 C 0.96038 0.84502 0.73551 0.0
C405 C 0.92426 0.81468 0.73201 0.0
C406 C 0.92218 0.78265 0.70641 0.0
C407 C 0.88821 0.75403 0.70344 0.0
C408 C 0.85597 0.75724 0.72572 0.0
C409 C 0.85759 0.78914 0.75094 0.0
C410 C 0.89151 0.81783 0.75405 0.0
C411 C 0.98188 0.00882 0.676 0.0
C412 C 0.95386 0.02549 0.69642 0.0
C413 C 0.99334 0.97276 0.68707 0.0
C414 C 0.97726 0.95277 0.71895 0.0
C415 C 0.95056 0.97004 0.74032 0.0
C416 C 0.93916 0.00606 0.72932 0.0
C417 C 0.98661 0.91313 0.72887 0.0
C418 C 0.95366 0.88334 0.72804 0.0
C419 C 0.02743 0.90431 0.73764 0.0
C420 C 0.06352 0.93461 0.74058 0.0
C421 C 0.06641 0.96638 0.76668 0.0
C422 C 0.10042 0.99493 0.76913 0.0
C423 C 0.13188 0.9919 0.74582 0.0
C424 C 0.12945 0.96024 0.72009 0.0
C425 C 0.0955 0.93163 0.7175 0.0
H426 H 0.15818 0.01403 0.74776 0.0
H427 H 0.8297 0.73506 0.72338 0.0
H428 H 0.19548 0.66044 0.93964 0.0
H429 H 0.26029 0.69385 0.97302 0.0
H430 H 0.22624 0.80192 0.92636 0.0
H431 H 0.16212 0.76757 0.89072 0.0
H432 H 0.29964 0.79831 0.91451 0.0
H433 H 0.23226 0.77444 0.03126 0.0
H434 H 0.19439 0.73725 0.08017 0.0
H435 H 0.29212 0.6672 0.10398 0.0
H436 H 0.33004 0.70328 0.0548 0.0
H437 H 0.46469 0.90651 0.04624 0.0
H438 H 0.39905 0.87798 0.00927 0.0
H439 H 0.43727 0.76511 0.02409 0.0
H440 H 0.50334 0.7935 0.0607 0.0
H441 H 0.36163 0.7746 0.05318 0.0
H442 H 0.42773 0.79889 0.93506 0.0
H443 H 0.46729 0.83958 0.88995 0.0
H444 H 0.37208 0.91292 0.87237 0.0
H445 H 0.33223 0.87304 0.91796 0.0
C446 C 0.20139 0.69151 0.93764 0.0
C447 C 0.17371 0.71176 0.91362 0.0
C448 C 0.23843 0.71066 0.95674 0.0
C449 C 0.2481 0.75066 0.95296 0.0
C450 C 0.2195 0.77111 0.92995 0.0
C451 C 0.18272 0.7517 0.91003 0.0
C452 C 0.28937 0.77028 0.97018 0.0
C453 C 0.31275 0.79362 0.94512 0.0
C454 C 0.3072 0.76362 0.00984 0.0
C455 C 0.28387 0.74143 0.03904 0.0
C456 C 0.24546 0.75084 0.04665 0.0
C457 C 0.22397 0.72994 0.07449 0.0
C458 C 0.24073 0.69976 0.09514 0.0
C459 C 0.279 0.69043 0.08798 0.0
C460 C 0.30052 0.71111 0.06012 0.0
C461 C 0.45951 0.8757 0.04075 0.0
C462 C 0.48902 0.85217 0.05643 0.0
C463 C 0.42204 0.85949 0.01963 0.0
C464 C 0.41335 0.81949 0.01417 0.0
C465 C 0.44352 0.79608 0.02808 0.0
C466 C 0.4813 0.81234 0.04871 0.0
C467 C 0.37146 0.80193 0.99742 0.0
C468 C 0.34811 0.77921 0.02266 0.0
C469 C 0.35357 0.80953 0.95824 0.0
C470 C 0.37717 0.83317 0.93027 0.0
C471 C 0.41536 0.82387 0.92184 0.0
C472 C 0.43782 0.84676 0.89614 0.0
C473 C 0.42226 0.87887 0.87839 0.0
C474 C 0.38412 0.88806 0.88618 0.0
C475 C 0.36156 0.86531 0.91193 0.0
H476 H 0.43973 0.89659 0.85854 0.0
H477 H 0.22412 0.68366 0.11675 0.0
H478 H 0.51709 0.35692 0.33201 0.0
H479 H 0.53965 0.30164 0.30132 0.0
H480 H 0.41906 0.27519 0.2331 0.0
H481 H 0.3969 0.33117 0.2625 0.0
H482 H 0.51387 0.23088 0.31063 0.0
H483 H 0.4211 0.22387 0.15063 0.0
H484 H 0.39882 0.26853 0.09786 0.0
H485 H 0.49892 0.3542 0.14365 0.0
H486 H 0.52214 0.3099 0.19635 0.0
H487 H 0.47629 0.04082 0.22925 0.0
H488 H 0.47309 0.10578 0.25506 0.0
H489 H 0.55093 0.15409 0.16918 0.0
H490 H 0.55362 0.08927 0.14343 0.0
H491 H 0.4878 0.1913 0.16737 0.0
H492 H 0.58812 0.15432 0.26967 0.0
H493 H 0.62049 0.11598 0.32354 0.0
H494 H 0.52096 0.12506 0.3916 0.0
H495 H 0.48766 0.16298 0.33789 0.0
C496 C 0.49572 0.33982 0.30975 0.0
C497 C 0.4552 0.34826 0.2997 0.0
C498 C 0.50859 0.30816 0.29237 0.0
C499 C 0.48112 0.28426 0.26485 0.0
C500 C 0.44112 0.29358 0.25364 0.0
C501 C 0.42842 0.32556 0.27056 0.0
C502 C 0.49295 0.24782 0.2506 0.0
C503 C 0.50842 0.22234 0.27926 0.0
C504 C 0.48657 0.23694 0.20961 0.0
C505 C 0.47316 0.26362 0.17764 0.0
C506 C 0.43849 0.25216 0.14931 0.0
C507 C 0.42567 0.27744 0.11944 0.0
C508 C 0.44738 0.31421 0.11747 0.0
C509 C 0.48204 0.32575 0.14529 0.0
C510 C 0.49502 0.30059 0.17521 0.0
C511 C 0.4932 0.06542 0.21661 0.0
C512 C 0.51546 0.06047 0.18477 0.0
C513 C 0.49144 0.10239 0.23124 0.0
C514 C 0.51209 0.13476 0.21423 0.0
C515 C 0.53477 0.12957 0.18272 0.0
C516 C 0.53633 0.09273 0.16806 0.0
C517 C 0.50798 0.17415 0.22752 0.0
C518 C 0.49368 0.20004 0.19869 0.0
C519 C 0.51655 0.18584 0.26821 0.0
C520 C 0.53527 0.16128 0.29962 0.0
C521 C 0.57285 0.1477 0.29588 0.0
C522 C 0.59143 0.12615 0.32644 0.0
C523 C 0.57281 0.11815 0.36097 0.0
C524 C 0.53532 0.13126 0.36482 0.0
C525 C 0.51658 0.15278 0.33432 0.0
H526 H 0.58756 0.10202 0.38486 0.0
H527 H 0.43737 0.33375 0.09434 0.0
H528 H 0.87592 0.23236 0.54992 0.0
H529 H 0.82997 0.27748 0.51866 0.0
H530 H 0.73001 0.21909 0.57511 0.0
H531 H 0.77513 0.17528 0.60686 0.0
H532 H 0.71191 0.23243 0.48898 0.0
H533 H 0.76928 0.29888 0.61777 0.0
H534 H 0.82569 0.33114 0.66644 0.0
H535 H 0.86629 0.40638 0.57463 0.0
H536 H 0.80983 0.37473 0.52554 0.0
H537 H 0.54569 0.33161 0.50938 0.0
H538 H 0.60659 0.29781 0.52069 0.0
H539 H 0.67835 0.3929 0.47005 0.0
H540 H 0.61696 0.42636 0.458 0.0
H541 H 0.72014 0.36703 0.53778 0.0
H542 H 0.64974 0.31357 0.41574 0.0
H543 H 0.59059 0.28491 0.36812 0.0
H544 H 0.57623 0.18518 0.44182 0.0
H545 H 0.63472 0.21359 0.49045 0.0
C546 C 0.84416 0.22932 0.55558 0.0
C547 C 0.82932 0.20042 0.58108 0.0
C548 C 0.81803 0.25503 0.53779 0.0
C549 C 0.77662 0.25142 0.54458 0.0
C550 C 0.76181 0.22226 0.56941 0.0
C551 C 0.78782 0.19729 0.58765 0.0
C552 C 0.74779 0.2776 0.52642 0.0
C553 C 0.7137 0.26195 0.49938 0.0
C554 C 0.75092 0.31638 0.53905 0.0
C555 C 0.7857 0.33428 0.56802 0.0
C556 C 0.79045 0.32213 0.60796 0.0
C557 C 0.82219 0.3405 0.63566 0.0
C558 C 0.84946 0.37089 0.62366 0.0
C559 C 0.84508 0.38292 0.5839 0.0
C560 C 0.81316 0.36487 0.55617 0.0
C561 C 0.5743 0.3449 0.5001 0.0
C562 C 0.57655 0.38101 0.4819 0.0
C563 C 0.6091 0.32576 0.50673 0.0
C564 C 0.64682 0.3425 0.49541 0.0
C565 C 0.64951 0.37933 0.47869 0.0
C566 C 0.61459 0.39841 0.47194 0.0
C567 C 0.68326 0.32137 0.50155 0.0
C568 C 0.71872 0.33793 0.52627 0.0
C569 C 0.68156 0.28349 0.48634 0.0
C570 C 0.64654 0.26591 0.45698 0.0
C571 C 0.6338 0.28566 0.42202 0.0
C572 C 0.60039 0.26945 0.39481 0.0
C573 C 0.57963 0.23331 0.402 0.0
C574 C 0.59234 0.21321 0.43633 0.0
C575 C 0.62564 0.22936 0.46374 0.0
H576 H 0.5537 0.22093 0.38099 0.0
H577 H 0.8741 0.385 0.64512 0.0
H578 H 0.98131 0.52466 0.82461 0.0
H579 H 0.96304 0.45605 0.80899 0.0
H580 H 0.04386 0.46548 0.71786 0.0
H581 H 0.06235 0.53419 0.73321 0.0
H582 H 0.97363 0.4158 0.69489 0.0
H583 H 0.0787 0.43539 0.80722 0.0
H584 H 0.11144 0.46092 0.87349 0.0
H585 H 0.0127 0.39967 0.92849 0.0
H586 H 0.97908 0.37409 0.86239 0.0
H587 H 0.00887 0.22395 0.68048 0.0
H588 H 0.02615 0.29108 0.7021 0.0
H589 H 0.92791 0.27808 0.77546 0.0
H590 H 0.90964 0.21076 0.75328 0.0
H591 H 0.00579 0.32896 0.80833 0.0
H592 H 0.90488 0.30531 0.69071 0.0
H593 H 0.88008 0.27798 0.62346 0.0
H594 H 0.97868 0.34778 0.576 0.0
H595 H 0.00521 0.3744 0.64351 0.0
C596 C 0.99442 0.51246 0.8005 0.0
C597 C 0.02353 0.535 0.78034 0.0
C598 C 0.98419 0.47309 0.79186 0.0
C599 C 0.00274 0.45546 0.76284 0.0
C600 C 0.02936 0.47841 0.74055 0.0
C601 C 0.0398 0.51776 0.74931 0.0
C602 C 0.99649 0.41286 0.75758 0.0
C603 C 0.98094 0.39686 0.71962 0.0
C604 C 0.00593 0.38807 0.78991 0.0
C605 C 0.02606 0.40325 0.82977 0.0
C606 C 0.06374 0.42767 0.83339 0.0
C607 C 0.08247 0.44214 0.87092 0.0
C608 C 0.06396 0.4322 0.90513 0.0
C609 C 0.02686 0.40752 0.90191 0.0
C610 C 0.00797 0.39299 0.86443 0.0
C611 C 0.99145 0.23494 0.70196 0.0
C612 C 0.95735 0.21205 0.71456 0.0
C613 C 0.00146 0.2734 0.71431 0.0
C614 C 0.97789 0.28967 0.73985 0.0
C615 C 0.94639 0.26603 0.75563 0.0
C616 C 0.93601 0.22754 0.7429 0.0
C617 C 0.98281 0.33206 0.74576 0.0
C618 C 0.99819 0.34796 0.78375 0.0
C619 C 0.97395 0.3568 0.71326 0.0
C620 C 0.95743 0.34147 0.67241 0.0
C621 C 0.92177 0.31437 0.66613 0.0
C622 C 0.90741 0.29893 0.6279 0.0
C623 C 0.92785 0.31103 0.59543 0.0
C624 C 0.96287 0.33842 0.60119 0.0
C625 C 0.97768 0.3536 0.63949 0.0
H626 H 0.91647 0.29935 0.56577 0.0
H627 H 0.07852 0.44337 0.93417 0.0
H628 H 0.96893 0.61572 0.02088 0.0
H629 H 0.91379 0.63582 0.05528 0.0
H630 H 0.86748 0.69268 0.94812 0.0
H631 H 0.92199 0.67212 0.91378 0.0
H632 H 0.8957 0.70872 0.07054 0.0
H633 H 0.76243 0.67928 0.93952 0.0
H634 H 0.74154 0.63472 0.88175 0.0
H635 H 0.80953 0.55029 0.9424 0.0
H636 H 0.83033 0.59409 0.00073 0.0
H637 H 0.73325 0.81525 0.09056 0.0
H638 H 0.7854 0.78378 0.06283 0.0
H639 H 0.72397 0.6728 0.09142 0.0
H640 H 0.67115 0.70454 0.11877 0.0
H641 H 0.74853 0.67509 0.01492 0.0
H642 H 0.80657 0.70709 0.15009 0.0
H643 H 0.82717 0.74943 0.20959 0.0
H644 H 0.90925 0.82306 0.14509 0.0
H645 H 0.88868 0.78146 0.08498 0.0
C646 C 0.94698 0.63269 0.00497 0.0
C647 C 0.95002 0.64315 0.96512 0.0
C648 C 0.91569 0.64415 0.02451 0.0
C649 C 0.88655 0.66555 0.00413 0.0
C650 C 0.88957 0.67599 0.96427 0.0
C651 C 0.92098 0.66475 0.94487 0.0
C652 C 0.85303 0.67732 0.02446 0.0
C653 C 0.86352 0.70125 0.05852 0.0
C654 C 0.81107 0.66693 0.00909 0.0
C655 C 0.79821 0.64013 0.97436 0.0
C656 C 0.77276 0.65114 0.9406 0.0
C657 C 0.76096 0.62602 0.90774 0.0
C658 C 0.77429 0.58974 0.90836 0.0
C659 C 0.79934 0.57845 0.94189 0.0
C660 C 0.8112 0.60343 0.97484 0.0
C661 C 0.73038 0.78415 0.09002 0.0
C662 C 0.69783 0.76214 0.10587 0.0
C663 C 0.76041 0.76623 0.07472 0.0
C664 C 0.75857 0.72602 0.07531 0.0
C665 C 0.72581 0.70388 0.09068 0.0
C666 C 0.69584 0.72189 0.10627 0.0
C667 C 0.79132 0.70741 0.06022 0.0
C668 C 0.78069 0.68226 0.02714 0.0
C669 C 0.83314 0.71632 0.07675 0.0
C670 C 0.84584 0.74128 0.11293 0.0
C671 C 0.82879 0.73246 0.14849 0.0
C672 C 0.8405 0.75631 0.18235 0.0
C673 C 0.86944 0.78896 0.1811 0.0
C674 C 0.88682 0.79777 0.14601 0.0
C675 C 0.87518 0.77404 0.11205 0.0
H676 H 0.87847 0.80739 0.20734 0.0
H677 H 0.76515 0.57036 0.88288 0.0
H678 H 0.48383 0.79338 0.16944 0.0
H679 H 0.46072 0.73736 0.20706 0.0
H680 H 0.51022 0.79802 0.31785 0.0
H681 H 0.53444 0.85439 0.27946 0.0
H682 H 0.54184 0.73359 0.31327 0.0
H683 H 0.40363 0.76237 0.29588 0.0
H684 H 0.34026 0.7824 0.25935 0.0
H685 H 0.32861 0.68555 0.17905 0.0
H686 H 0.39215 0.66512 0.2148 0.0
H687 H 0.48826 0.54601 0.39737 0.0
H688 H 0.49866 0.61484 0.38265 0.0
H689 H 0.45336 0.5895 0.25814 0.0
H690 H 0.44204 0.52104 0.27296 0.0
H691 H 0.41358 0.64201 0.28569 0.0
H692 H 0.55677 0.62145 0.2929 0.0
H693 H 0.62209 0.60173 0.32534 0.0
H694 H 0.62537 0.68338 0.42087 0.0
H695 H 0.55977 0.70326 0.38921 0.0
C696 C 0.48802 0.79533 0.20189 0.0
C697 C 0.51036 0.82804 0.22174 0.0
C698 C 0.47473 0.7633 0.22347 0.0
C699 C 0.48336 0.76345 0.26541 0.0
C700 C 0.50298 0.79737 0.28552 0.0
C701 C 0.5164 0.82964 0.26372 0.0
C702 C 0.47819 0.72633 0.28666 0.0
C703 C 0.51339 0.71394 0.30829 0.0
C704 C 0.4414 0.70034 0.27937 0.0
C705 C 0.40271 0.71219 0.25812 0.0
C706 C 0.38763 0.74538 0.27038 0.0
C707 C 0.35166 0.7568 0.2498 0.0
C708 C 0.33041 0.73523 0.21692 0.0
C709 C 0.34503 0.70214 0.2046 0.0
C710 C 0.38095 0.69056 0.2251 0.0
C711 C 0.48176 0.55512 0.36668 0.0
C712 C 0.46423 0.52832 0.33627 0.0
C713 C 0.48746 0.59446 0.35834 0.0
C714 C 0.4764 0.60737 0.31935 0.0
C715 C 0.46157 0.58026 0.28855 0.0
C716 C 0.45541 0.54114 0.29695 0.0
C717 C 0.47769 0.64899 0.3106 0.0
C718 C 0.44167 0.66206 0.29155 0.0
C719 C 0.51378 0.67549 0.31992 0.0
C720 C 0.55312 0.66347 0.33898 0.0
C721 C 0.57124 0.63494 0.32101 0.0
C722 C 0.60835 0.62379 0.33921 0.0
C723 C 0.62779 0.64119 0.37522 0.0
C724 C 0.61023 0.66986 0.39303 0.0
C725 C 0.5731 0.68109 0.37497 0.0
H726 H 0.65653 0.63253 0.38926 0.0
H727 H 0.30263 0.74417 0.20097 0.0
loop_
_geom_bond_atom_site_label_1
_geom_bond_atom_site_label_2
_geom_bond_distance
_geom_bond_site_symmetry_2
_ccdc_geom_bond_type
Zn0 O1 2.055 . S
Zn0 O8 2.046 . S
Zn0 N16 2.036 . S
Zn0 O28 2.053 . S
Zn0 O30 2.066 . S
O1 Zn0 2.055 . S
O1 C4 1.259 . S
C2 O30 1.256 . S
C2 O31 1.244 . S
Zn3 O5 2.046 . S
Zn3 O7 2.055 . S
Zn3 N9 2.036 . S
Zn3 O27 2.066 . S
Zn3 O31 2.053 . S
C4 O1 1.259 . S
C4 O5 1.254 . S
O5 Zn3 2.046 . S
O5 C4 1.254 . S
C6 O27 1.256 . S
C6 O28 1.244 . S
O7 Zn3 2.055 . S
O7 C29 1.259 . S
O8 Zn0 2.046 . S
O8 C29 1.254 . S
N9 Zn3 2.036 . S
N9 C10 1.298 . S
N9 N12 1.398 . S
C10 N9 1.298 . S
C10 N13 1.367 . S
C10 C23 1.481 . S
C11 N12 1.299 . S
C11 N13 1.379 . S
N12 N9 1.398 . S
N12 C11 1.299 . S
N13 C10 1.367 . S
N13 C11 1.379 . S
C14 N16 1.298 . S
C14 N18 1.367 . S
C14 C22 1.481 . S
C15 N17 1.299 . S
C15 N18 1.379 . S
N16 Zn0 2.036 . S
N16 C14 1.298 . S
N16 N17 1.398 . S
N17 C15 1.299 . S
N17 N16 1.398 . S
N18 C14 1.367 . S
N18 C15 1.379 . S
H19 C22 0.980 . S
H20 C22 0.981 . S
H21 C22 0.981 . S
C22 C14 1.481 . S
C22 H19 0.980 . S
C22 H20 0.981 . S
C22 H21 0.981 . S
C23 C10 1.481 . S
C23 H24 0.980 . S
C23 H25 0.981 . S
C23 H26 0.981 . S
H24 C23 0.980 . S
H25 C23 0.981 . S
H26 C23 0.981 . S
O27 Zn3 2.066 . S
O27 C6 1.256 . S
O28 Zn0 2.053 . S
O28 C6 1.244 . S
C29 O7 1.259 . S
C29 O8 1.254 . S
O30 Zn0 2.066 . S
O30 C2 1.256 . S
O31 C2 1.244 . S
O31 Zn3 2.053 . S
Zn32 O33 2.055 . S
Zn32 O40 2.046 . S
Zn32 N48 2.036 . S
Zn32 O60 2.053 . S
Zn32 O62 2.066 . S
O33 Zn32 2.055 . S
O33 C36 1.259 . S
C34 O62 1.256 . S
C34 O63 1.244 . S
Zn35 O37 2.046 . S
Zn35 O39 2.055 . S
Zn35 N41 2.036 . S
Zn35 O59 2.066 . S
Zn35 O63 2.053 . S
C36 O33 1.259 . S
C36 O37 1.254 . S
O37 Zn35 2.046 . S
O37 C36 1.254 . S
C38 O59 1.256 . S
C38 O60 1.244 . S
O39 Zn35 2.055 . S
O39 C61 1.259 . S
O40 Zn32 2.046 . S
O40 C61 1.254 . S
N41 Zn35 2.036 . S
N41 C42 1.298 . S
N41 N44 1.398 . S
C42 N41 1.298 . S
C42 N45 1.367 . S
C42 C55 1.481 . S
C43 N44 1.299 . S
C43 N45 1.379 . S
N44 N41 1.398 . S
N44 C43 1.299 . S
N45 C42 1.367 . S
N45 C43 1.379 . S
C46 N48 1.298 . S
C46 N50 1.367 1_655 S
C46 C54 1.481 . S
C47 N49 1.299 1_455 S
C47 N50 1.379 . S
N48 Zn32 2.036 . S
N48 C46 1.298 . S
N48 N49 1.398 . S
N49 C47 1.299 1_655 S
N49 N48 1.398 . S
N50 C46 1.367 1_455 S
N50 C47 1.379 . S
H51 C54 0.980 . S
H52 C54 0.981 . S
H53 C54 0.981 . S
C54 C46 1.481 . S
C54 H51 0.980 . S
C54 H52 0.981 . S
C54 H53 0.981 . S
C55 C42 1.481 . S
C55 H56 0.980 . S
C55 H57 0.981 . S
C55 H58 0.981 . S
H56 C55 0.980 . S
H57 C55 0.981 . S
H58 C55 0.981 . S
O59 Zn35 2.066 . S
O59 C38 1.256 . S
O60 Zn32 2.053 . S
O60 C38 1.244 . S
C61 O39 1.259 . S
C61 O40 1.254 . S
O62 Zn32 2.066 . S
O62 C34 1.256 . S
O63 C34 1.244 . S
O63 Zn35 2.053 . S
Zn64 O65 2.055 . S
Zn64 O72 2.046 . S
Zn64 N80 2.036 . S
Zn64 O92 2.053 . S
Zn64 O94 2.066 . S
O65 Zn64 2.055 . S
O65 C68 1.259 . S
C66 O94 1.256 . S
C66 O95 1.244 . S
Zn67 O69 2.046 . S
Zn67 O71 2.055 . S
Zn67 N73 2.036 . S
Zn67 O91 2.066 . S
Zn67 O95 2.053 . S
C68 O65 1.259 . S
C68 O69 1.254 . S
O69 Zn67 2.046 . S
O69 C68 1.254 . S
C70 O91 1.256 . S
C70 O92 1.244 . S
O71 Zn67 2.055 . S
O71 C93 1.259 . S
O72 Zn64 2.046 . S
O72 C93 1.254 . S
N73 Zn67 2.036 . S
N73 C74 1.298 . S
N73 N76 1.398 . S
C74 N73 1.298 . S
C74 N77 1.367 . S
C74 C87 1.481 . S
C75 N76 1.299 . S
C75 N77 1.379 . S
N76 N73 1.398 . S
N76 C75 1.299 . S
N77 C74 1.367 . S
N77 C75 1.379 . S
C78 N80 1.298 . S
C78 N82 1.367 . S
C78 C86 1.481 . S
C79 N81 1.299 1_655 S
C79 N82 1.379 1_655 S
N80 Zn64 2.036 . S
N80 C78 1.298 . S
N80 N81 1.398 . S
N81 C79 1.299 1_455 S
N81 N80 1.398 . S
N82 C78 1.367 . S
N82 C79 1.379 1_455 S
H83 C86 0.980 . S
H84 C86 0.981 . S
H85 C86 0.981 . S
C86 C78 1.481 . S
C86 H83 0.980 . S
C86 H84 0.981 . S
C86 H85 0.981 . S
C87 C74 1.481 . S
C87 H88 0.980 . S
C87 H89 0.981 . S
C87 H90 0.981 . S
H88 C87 0.980 . S
H89 C87 0.981 . S
H90 C87 0.981 . S
O91 Zn67 2.066 . S
O91 C70 1.256 . S
O92 Zn64 2.053 . S
O92 C70 1.244 . S
C93 O71 1.259 . S
C93 O72 1.254 . S
O94 Zn64 2.066 . S
O94 C66 1.256 . S
O95 C66 1.244 . S
O95 Zn67 2.053 . S
Zn96 O97 2.055 . S
Zn96 O104 2.046 . S
Zn96 N112 2.036 . S
Zn96 O124 2.053 . S
Zn96 O126 2.066 . S
O97 Zn96 2.055 . S
O97 C100 1.259 . S
C98 O126 1.256 . S
C98 O127 1.244 . S
Zn99 O101 2.046 . S
Zn99 O103 2.055 . S
Zn99 N105 2.036 . S
Zn99 O123 2.066 . S
Zn99 O127 2.053 . S
C100 O97 1.259 . S
C100 O101 1.254 . S
O101 Zn99 2.046 . S
O101 C100 1.254 . S
C102 O123 1.256 . S
C102 O124 1.244 . S
O103 Zn99 2.055 . S
O103 C125 1.259 . S
O104 Zn96 2.046 . S
O104 C125 1.254 . S
N105 Zn99 2.036 . S
N105 C106 1.298 . S
N105 N108 1.398 . S
C106 N105 1.298 . S
C106 N109 1.367 . S
C106 C119 1.481 . S
C107 N108 1.299 1_545 S
C107 N109 1.379 1_545 S
N108 N105 1.398 . S
N108 C107 1.299 1_565 S
N109 C106 1.367 . S
N109 C107 1.379 1_565 S
C110 N112 1.298 . S
C110 N114 1.367 . S
C110 C118 1.481 . S
C111 N113 1.299 . S
C111 N114 1.379 . S
N112 Zn96 2.036 . S
N112 C110 1.298 . S
N112 N113 1.398 . S
N113 C111 1.299 . S
N113 N112 1.398 . S
N114 C110 1.367 . S
N114 C111 1.379 . S
H115 C118 0.980 . S
H116 C118 0.981 . S
H117 C118 0.981 . S
C118 C110 1.481 . S
C118 H115 0.980 . S
C118 H116 0.981 . S
C118 H117 0.981 . S
C119 C106 1.481 . S
C119 H120 0.980 . S
C119 H121 0.981 . S
C119 H122 0.981 . S
H120 C119 0.980 . S
H121 C119 0.981 . S
H122 C119 0.981 . S
O123 Zn99 2.066 . S
O123 C102 1.256 . S
O124 Zn96 2.053 . S
O124 C102 1.244 . S
C125 O103 1.259 . S
C125 O104 1.254 . S
O126 Zn96 2.066 . S
O126 C98 1.256 . S
O127 C98 1.244 . S
O127 Zn99 2.053 . S
H128 C146 0.951 . S
H129 C148 0.951 . S
H130 C150 0.950 1_554 S
H131 C151 0.950 . S
H132 C153 0.950 . S
H133 C156 0.950 1_554 S
H134 C157 0.950 . S
H135 C159 0.950 . S
H136 C160 0.950 . S
H137 C161 0.951 . S
H138 C163 0.951 . S
H139 C165 0.950 . S
H140 C166 0.950 . S
H141 C168 0.950 . S
H142 C171 0.950 . S
H143 C172 0.950 . S
H144 C174 0.950 . S
H145 C175 0.950 . S
C146 H128 0.951 . S
C146 C147 1.366 . S
C146 C148 1.388 . S
C147 C146 1.366 . S
C147 C151 1.385 . S
C148 H129 0.951 . S
C148 C146 1.388 . S
C148 C149 1.366 . S
C149 C148 1.366 . S
C149 C150 1.414 . S
C149 C152 1.499 1_556 S
C150 H130 0.950 1_556 S
C150 C149 1.414 . S
C150 C151 1.374 . S
C151 H131 0.950 . S
C151 C147 1.385 . S
C151 C150 1.374 . S
C152 C149 1.499 1_554 S
C152 C153 1.373 . S
C152 C154 1.389 . S
C153 H132 0.950 . S
C153 C152 1.373 . S
C153 C169 1.377 . S
C154 C152 1.389 . S
C154 C155 1.524 . S
C154 C168 1.377 . S
C155 C154 1.524 . S
C155 C156 1.397 1_554 S
C155 C160 1.363 . S
C156 H133 0.950 1_556 S
C156 C155 1.397 1_556 S
C156 C157 1.334 . S
C157 H134 0.950 . S
C157 C156 1.334 . S
C157 C158 1.287 . S
C158 C157 1.287 . S
C158 C159 1.524 . S
C158 H177 0.913 . S
C159 H135 0.950 . S
C159 C158 1.524 . S
C159 C160 1.415 1_556 S
C160 H136 0.950 . S
C160 C155 1.363 . S
C160 C159 1.415 1_554 S
C161 H137 0.951 . S
C161 C162 1.366 . S
C161 C163 1.388 . S
C162 C161 1.366 . S
C162 C166 1.385 . S
C163 H138 0.951 . S
C163 C161 1.388 . S
C163 C164 1.366 . S
C164 C163 1.366 . S
C164 C165 1.414 . S
C164 C167 1.499 . S
C165 H139 0.950 . S
C165 C164 1.414 . S
C165 C166 1.374 . S
C166 H140 0.950 . S
C166 C162 1.385 . S
C166 C165 1.374 . S
C167 C164 1.499 . S
C167 C168 1.373 . S
C167 C169 1.389 . S
C168 H141 0.950 . S
C168 C154 1.377 . S
C168 C167 1.373 . S
C169 C153 1.377 . S
C169 C167 1.389 . S
C169 C170 1.524 . S
C170 C169 1.524 . S
C170 C171 1.397 . S
C170 C175 1.363 . S
C171 H142 0.950 . S
C171 C170 1.397 . S
C171 C172 1.334 . S
C172 H143 0.950 . S
C172 C171 1.334 . S
C172 C173 1.287 . S
C173 C172 1.287 . S
C173 C174 1.524 . S
C173 H176 0.999 . S
C174 H144 0.950 . S
C174 C173 1.524 . S
C174 C175 1.415 . S
C175 H145 0.950 . S
C175 C170 1.363 . S
C175 C174 1.415 . S
H176 C173 0.999 . S
H177 C158 0.913 . S
H178 C196 0.951 . S
H179 C198 0.951 . S
H180 C200 0.950 . S
H181 C201 0.950 . S
H182 C203 0.950 . S
H183 C206 0.950 1_545 S
H184 C207 0.950 . S
H185 C209 0.950 . S
H186 C210 0.950 . S
H187 C211 0.951 . S
H188 C213 0.951 . S
H189 C215 0.950 . S
H190 C216 0.938 1_565 S
H191 C218 0.950 . S
H192 C221 0.950 . S
H193 C222 0.950 . S
H194 C224 0.950 . S
H195 C225 0.950 . S
C196 H178 0.951 . S
C196 C197 1.366 . S
C196 C198 1.388 . S
C197 C196 1.366 . S
C197 C201 1.385 . S
C198 H179 0.951 . S
C198 C196 1.388 . S
C198 C199 1.366 . S
C199 C198 1.366 . S
C199 C200 1.414 . S
C199 C202 1.499 . S
C200 H180 0.950 . S
C200 C199 1.414 . S
C200 C201 1.374 . S
C201 H181 0.950 . S
C201 C197 1.385 . S
C201 C200 1.374 . S
C202 C199 1.499 . S
C202 C203 1.373 . S
C202 C204 1.389 . S
C203 H182 0.950 . S
C203 C202 1.373 . S
C203 C219 1.377 . S
C204 C202 1.389 . S
C204 C205 1.524 . S
C204 C218 1.377 . S
C205 C204 1.524 . S
C205 C206 1.397 . S
C205 C210 1.363 . S
C206 H183 0.950 1_565 S
C206 C205 1.397 . S
C206 C207 1.334 . S
C207 H184 0.950 . S
C207 C206 1.334 . S
C207 C208 1.287 . S
C208 C207 1.287 . S
C208 C209 1.524 . S
C208 H227 0.913 . S
C209 H185 0.950 . S
C209 C208 1.524 . S
C209 C210 1.415 . S
C210 H186 0.950 . S
C210 C205 1.363 . S
C210 C209 1.415 . S
C211 H187 0.951 . S
C211 C212 1.366 . S
C211 C213 1.388 . S
C212 C211 1.366 . S
C212 C216 1.404 . S
C213 H188 0.951 . S
C213 C211 1.388 . S
C213 C214 1.366 . S
C214 C213 1.366 . S
C214 C215 1.414 1_545 S
C214 C217 1.499 1_545 S
C215 H189 0.950 . S
C215 C214 1.414 1_565 S
C215 C216 1.367 1_565 S
C216 H190 0.938 1_545 S
C216 C212 1.404 . S
C216 C215 1.367 1_545 S
C217 C214 1.499 1_565 S
C217 C218 1.373 . S
C217 C219 1.389 . S
C218 H191 0.950 . S
C218 C204 1.377 . S
C218 C217 1.373 . S
C219 C203 1.377 . S
C219 C217 1.389 . S
C219 C220 1.524 . S
C220 C219 1.524 . S
C220 C221 1.397 . S
C220 C225 1.363 1_565 S
C221 H192 0.950 . S
C221 C220 1.397 . S
C221 C222 1.334 . S
C222 H193 0.950 . S
C222 C221 1.334 . S
C222 C223 1.287 . S
C223 C222 1.287 . S
C223 C224 1.524 1_565 S
C223 H226 0.999 1_565 S
C224 H194 0.950 . S
C224 C223 1.524 1_545 S
C224 C225 1.415 . S
C225 H195 0.950 . S
C225 C220 1.363 1_545 S
C225 C224 1.415 . S
H226 C223 0.999 1_545 S
H227 C208 0.913 . S
H228 C246 0.951 . S
H229 C248 0.951 . S
H230 C250 0.950 . S
H231 C251 0.950 . S
H232 C253 0.950 . S
H233 C256 0.950 . S
H234 C257 0.950 . S
H235 C259 0.950 . S
H236 C260 0.950 . S
H237 C261 0.951 . S
H238 C263 0.951 . S
H239 C265 0.950 . S
H240 C266 0.950 . S
H241 C268 0.950 . S
H242 C271 0.950 . S
H243 C272 0.950 . S
H244 C274 0.950 . S
H245 C275 0.950 . S
C246 H228 0.951 . S
C246 C247 1.366 . S
C246 C248 1.388 . S
C247 C246 1.366 . S
C247 C251 1.385 . S
C248 H229 0.951 . S
C248 C246 1.388 . S
C248 C249 1.366 . S
C249 C248 1.366 . S
C249 C250 1.414 . S
C249 C252 1.499 . S
C250 H230 0.950 . S
C250 C249 1.414 . S
C250 C251 1.374 . S
C251 H231 0.950 . S
C251 C247 1.385 . S
C251 C250 1.374 . S
C252 C249 1.499 . S
C252 C253 1.373 . S
C252 C254 1.389 . S
C253 H232 0.950 . S
C253 C252 1.373 . S
C253 C269 1.377 . S
C254 C252 1.389 . S
C254 C255 1.524 . S
C254 C268 1.377 . S
C255 C254 1.524 . S
C255 C256 1.397 . S
C255 C260 1.363 . S
C256 H233 0.950 . S
C256 C255 1.397 . S
C256 C257 1.334 . S
C257 H234 0.950 . S
C257 C256 1.334 . S
C257 C258 1.287 . S
C258 C257 1.287 . S
C258 C259 1.524 . S
C258 H277 0.913 . S
C259 H235 0.950 . S
C259 C258 1.524 . S
C259 C260 1.415 . S
C260 H236 0.950 . S
C260 C255 1.363 . S
C260 C259 1.415 . S
C261 H237 0.951 . S
C261 C262 1.366 . S
C261 C263 1.388 . S
C262 C261 1.366 . S
C262 C266 1.385 . S
C263 H238 0.951 . S
C263 C261 1.388 . S
C263 C264 1.366 . S
C264 C263 1.366 . S
C264 C265 1.414 . S
C264 C267 1.499 . S
C265 H239 0.950 . S
C265 C264 1.414 . S
C265 C266 1.374 . S
C266 H240 0.950 . S
C266 C262 1.385 . S
C266 C265 1.374 . S
C267 C264 1.499 . S
C267 C268 1.373 . S
C267 C269 1.389 . S
C268 H241 0.950 . S
C268 C254 1.377 . S
C268 C267 1.373 . S
C269 C253 1.377 . S
C269 C267 1.389 . S
C269 C270 1.524 . S
C270 C269 1.524 . S
C270 C271 1.397 . S
C270 C275 1.363 . S
C271 H242 0.950 . S
C271 C270 1.397 . S
C271 C272 1.334 . S
C272 H243 0.950 . S
C272 C271 1.334 . S
C272 C273 1.287 . S
C273 C272 1.287 . S
C273 C274 1.524 . S
C273 H276 0.999 . S
C274 H244 0.950 . S
C274 C273 1.524 . S
C274 C275 1.415 . S
C275 H245 0.950 . S
C275 C270 1.363 . S
C275 C274 1.415 . S
H276 C273 0.999 . S
H277 C258 0.913 . S
H278 C296 0.951 . S
H279 C298 0.951 . S
H280 C300 0.950 . S
H281 C301 0.950 . S
H282 C303 0.950 . S
H283 C306 0.950 . S
H284 C307 0.950 . S
H285 C309 0.950 . S
H286 C310 0.950 . S
H287 C311 0.951 . S
H288 C313 0.951 . S
H289 C315 0.950 . S
H290 C316 0.950 . S
H291 C318 0.950 . S
H292 C321 0.950 . S
H293 C322 0.950 . S
H294 C324 0.950 . S
H295 C325 0.950 . S
C296 H278 0.951 . S
C296 C297 1.366 . S
C296 C298 1.388 1_554 S
C297 C296 1.366 . S
C297 C301 1.385 . S
C298 H279 0.951 . S
C298 C296 1.388 1_556 S
C298 C299 1.366 . S
C299 C298 1.366 . S
C299 C300 1.414 1_556 S
C299 C302 1.499 . S
C300 H280 0.950 . S
C300 C299 1.414 1_554 S
C300 C301 1.374 . S
C301 H281 0.950 . S
C301 C297 1.385 . S
C301 C300 1.374 . S
C302 C299 1.499 . S
C302 C303 1.373 1_565 S
C302 C304 1.389 . S
C303 H282 0.950 . S
C303 C302 1.373 1_545 S
C303 C319 1.377 . S
C304 C302 1.389 . S
C304 C305 1.524 . S
C304 C318 1.377 . S
C305 C304 1.524 . S
C305 C306 1.397 . S
C305 C310 1.363 . S
C306 H283 0.950 . S
C306 C305 1.397 . S
C306 C307 1.334 . S
C307 H284 0.950 . S
C307 C306 1.334 . S
C307 C308 1.287 . S
C308 C307 1.287 . S
C308 C309 1.524 . S
C308 H327 0.913 . S
C309 H285 0.950 . S
C309 C308 1.524 . S
C309 C310 1.415 . S
C310 H286 0.950 . S
C310 C305 1.363 . S
C310 C309 1.415 . S
C311 H287 0.951 . S
C311 C312 1.366 . S
C311 C313 1.388 . S
C312 C311 1.366 . S
C312 C316 1.385 . S
C313 H288 0.951 . S
C313 C311 1.388 . S
C313 C314 1.366 . S
C314 C313 1.366 . S
C314 C315 1.414 . S
C314 C317 1.505 . S
C315 H289 0.950 . S
C315 C314 1.414 . S
C315 C316 1.374 . S
C316 H290 0.950 . S
C316 C312 1.385 . S
C316 C315 1.374 . S
C317 C314 1.505 . S
C317 C318 1.356 1_545 S
C317 C319 1.399 . S
C318 H291 0.950 . S
C318 C304 1.377 . S
C318 C317 1.356 1_565 S
C319 C303 1.377 . S
C319 C317 1.399 . S
C319 C320 1.524 . S
C320 C319 1.524 . S
C320 C321 1.397 . S
C320 C325 1.363 . S
C321 H292 0.950 . S
C321 C320 1.397 . S
C321 C322 1.334 . S
C322 H293 0.950 . S
C322 C321 1.334 . S
C322 C323 1.287 . S
C323 C322 1.287 . S
C323 C324 1.524 . S
C323 H326 0.999 . S
C324 H294 0.950 . S
C324 C323 1.524 . S
C324 C325 1.415 . S
C325 H295 0.950 . S
C325 C320 1.363 . S
C325 C324 1.415 . S
H326 C323 0.999 . S
H327 C308 0.913 . S
H328 C346 0.951 . S
H329 C348 0.951 . S
H330 C350 0.950 . S
H331 C351 0.950 . S
H332 C353 0.950 . S
H333 C356 0.950 . S
H334 C357 0.950 . S
H335 C359 0.950 . S
H336 C360 0.950 . S
H337 C361 0.951 . S
H338 C363 0.951 . S
H339 C365 0.950 . S
H340 C366 0.950 . S
H341 C368 0.950 . S
H342 C371 0.950 . S
H343 C372 0.950 . S
H344 C374 0.950 . S
H345 C375 0.950 . S
C346 H328 0.951 . S
C346 C347 1.366 . S
C346 C348 1.388 . S
C347 C346 1.366 . S
C347 C351 1.385 . S
C348 H329 0.951 . S
C348 C346 1.388 . S
C348 C349 1.366 . S
C349 C348 1.366 . S
C349 C350 1.414 . S
C349 C352 1.499 . S
C350 H330 0.950 . S
C350 C349 1.414 . S
C350 C351 1.374 . S
C351 H331 0.950 . S
C351 C347 1.385 . S
C351 C350 1.374 . S
C352 C349 1.499 . S
C352 C353 1.373 . S
C352 C354 1.389 . S
C353 H332 0.950 . S
C353 C352 1.373 . S
C353 C369 1.377 . S
C354 C352 1.389 . S
C354 C355 1.524 . S
C354 C368 1.377 . S
C355 C354 1.524 . S
C355 C356 1.397 . S
C355 C360 1.363 . S
C356 H333 0.950 . S
C356 C355 1.397 . S
C356 C357 1.334 . S
C357 H334 0.950 . S
C357 C356 1.334 . S
C357 C358 1.287 . S
C358 C357 1.287 . S
C358 C359 1.524 . S
C358 H377 0.913 . S
C359 H335 0.950 . S
C359 C358 1.524 . S
C359 C360 1.415 . S
C360 H336 0.950 . S
C360 C355 1.363 . S
C360 C359 1.415 . S
C361 H337 0.951 . S
C361 C362 1.366 . S
C361 C363 1.388 . S
C362 C361 1.366 . S
C362 C366 1.385 . S
C363 H338 0.951 . S
C363 C361 1.388 . S
C363 C364 1.366 . S
C364 C363 1.366 . S
C364 C365 1.414 . S
C364 C367 1.499 . S
C365 H339 0.950 . S
C365 C364 1.414 . S
C365 C366 1.374 . S
C366 H340 0.950 . S
C366 C362 1.385 . S
C366 C365 1.374 . S
C367 C364 1.499 . S
C367 C368 1.373 . S
C367 C369 1.389 . S
C368 H341 0.950 . S
C368 C354 1.377 . S
C368 C367 1.373 . S
C369 C353 1.377 . S
C369 C367 1.389 . S
C369 C370 1.524 . S
C370 C369 1.524 . S
C370 C371 1.397 . S
C370 C375 1.363 . S
C371 H342 0.950 . S
C371 C370 1.397 . S
C371 C372 1.334 . S
C372 H343 0.950 . S
C372 C371 1.334 . S
C372 C373 1.287 . S
C373 C372 1.287 . S
C373 C374 1.524 . S
C373 H376 0.999 . S
C374 H344 0.950 . S
C374 C373 1.524 . S
C374 C375 1.415 . S
C375 H345 0.950 . S
C375 C370 1.363 . S
C375 C374 1.415 . S
H376 C373 0.999 . S
H377 C358 0.913 . S
H378 C396 0.951 . S
H379 C398 0.951 . S
H380 C400 0.950 . S
H381 C401 0.950 . S
H382 C403 0.950 . S
H383 C406 0.950 . S
H384 C407 0.950 . S
H385 C409 0.950 . S
H386 C410 0.950 . S
H387 C411 0.951 . S
H388 C413 0.951 1_455 S
H389 C415 0.950 . S
H390 C416 0.950 . S
H391 C418 0.950 . S
H392 C421 0.950 . S
H393 C422 0.950 . S
H394 C424 0.950 . S
H395 C425 0.950 . S
C396 H378 0.951 . S
C396 C397 1.366 . S
C396 C398 1.388 . S
C397 C396 1.366 . S
C397 C401 1.385 . S
C398 H379 0.951 . S
C398 C396 1.388 . S
C398 C399 1.366 . S
C399 C398 1.366 . S
C399 C400 1.414 . S
C399 C402 1.499 . S
C400 H380 0.950 . S
C400 C399 1.414 . S
C400 C401 1.374 . S
C401 H381 0.950 . S
C401 C397 1.385 . S
C401 C400 1.374 . S
C402 C399 1.499 . S
C402 C403 1.373 . S
C402 C404 1.389 1_455 S
C403 H382 0.950 . S
C403 C402 1.373 . S
C403 C419 1.377 . S
C404 C402 1.389 1_655 S
C404 C405 1.524 . S
C404 C418 1.377 . S
C405 C404 1.524 . S
C405 C406 1.397 . S
C405 C410 1.363 . S
C406 H383 0.950 . S
C406 C405 1.397 . S
C406 C407 1.334 . S
C407 H384 0.950 . S
C407 C406 1.334 . S
C407 C408 1.287 . S
C408 C407 1.287 . S
C408 C409 1.524 . S
C408 H427 0.913 . S
C409 H385 0.950 . S
C409 C408 1.524 . S
C409 C410 1.415 . S
C410 H386 0.950 . S
C410 C405 1.363 . S
C410 C409 1.415 . S
C411 H387 0.951 . S
C411 C412 1.366 . S
C411 C413 1.388 1_545 S
C412 C411 1.366 . S
C412 C416 1.385 . S
C413 H388 0.951 1_655 S
C413 C411 1.388 1_565 S
C413 C414 1.366 . S
C414 C413 1.366 . S
C414 C415 1.414 . S
C414 C417 1.486 1_655 S
C415 H389 0.950 . S
C415 C414 1.414 . S
C415 C416 1.374 1_565 S
C416 H390 0.950 . S
C416 C412 1.385 . S
C416 C415 1.374 1_545 S
C417 C414 1.486 1_455 S
C417 C418 1.358 1_455 S
C417 C419 1.418 . S
C418 H391 0.950 . S
C418 C404 1.377 . S
C418 C417 1.358 1_655 S
C419 C403 1.377 . S
C419 C417 1.418 . S
C419 C420 1.524 . S
C420 C419 1.524 . S
C420 C421 1.397 . S
C420 C425 1.363 . S
C421 H392 0.950 . S
C421 C420 1.397 . S
C421 C422 1.334 1_565 S
C422 H393 0.950 . S
C422 C421 1.334 1_545 S
C422 C423 1.287 . S
C423 C422 1.287 . S
C423 C424 1.524 1_545 S
C423 H426 0.999 . S
C424 H394 0.950 . S
C424 C423 1.524 1_565 S
C424 C425 1.415 . S
C425 H395 0.950 . S
C425 C420 1.363 . S
C425 C424 1.415 . S
H426 C423 0.999 . S
H427 C408 0.913 . S
H428 C446 0.951 . S
H429 C448 0.951 . S
H430 C450 0.950 . S
H431 C451 0.950 . S
H432 C453 0.950 . S
H433 C456 0.950 1_556 S
H434 C457 0.950 . S
H435 C459 0.950 . S
H436 C460 0.950 . S
H437 C461 0.951 . S
H438 C463 0.936 1_556 S
H439 C465 0.950 . S
H440 C466 0.950 . S
H441 C468 0.950 . S
H442 C471 0.950 . S
H443 C472 0.950 . S
H444 C474 0.950 . S
H445 C475 0.950 . S
C446 H428 0.951 . S
C446 C447 1.366 . S
C446 C448 1.388 . S
C447 C446 1.366 . S
C447 C451 1.385 . S
C448 H429 0.951 . S
C448 C446 1.388 . S
C448 C449 1.366 . S
C449 C448 1.366 . S
C449 C450 1.414 . S
C449 C452 1.499 . S
C450 H430 0.950 . S
C450 C449 1.414 . S
C450 C451 1.374 . S
C451 H431 0.950 . S
C451 C447 1.385 . S
C451 C450 1.374 . S
C452 C449 1.499 . S
C452 C453 1.373 . S
C452 C454 1.389 . S
C453 H432 0.950 . S
C453 C452 1.373 . S
C453 C469 1.377 . S
C454 C452 1.389 . S
C454 C455 1.524 1_556 S
C454 C468 1.377 1_556 S
C455 C454 1.524 1_554 S
C455 C456 1.397 . S
C455 C460 1.363 . S
C456 H433 0.950 1_554 S
C456 C455 1.397 . S
C456 C457 1.334 . S
C457 H434 0.950 . S
C457 C456 1.334 . S
C457 C458 1.287 . S
C458 C457 1.287 . S
C458 C459 1.524 . S
C458 H477 0.913 . S
C459 H435 0.950 . S
C459 C458 1.524 . S
C459 C460 1.415 . S
C460 H436 0.950 . S
C460 C455 1.363 . S
C460 C459 1.415 . S
C461 H437 0.951 . S
C461 C462 1.366 . S
C461 C463 1.388 . S
C462 C461 1.366 . S
C462 C466 1.385 . S
C463 H438 0.936 1_554 S
C463 C461 1.388 . S
C463 C464 1.366 . S
C464 C463 1.366 . S
C464 C465 1.414 . S
C464 C467 1.499 1_554 S
C465 H439 0.950 . S
C465 C464 1.414 . S
C465 C466 1.374 . S
C466 H440 0.950 . S
C466 C462 1.385 . S
C466 C465 1.374 . S
C467 C464 1.499 1_556 S
C467 C468 1.373 1_556 S
C467 C469 1.389 . S
C468 H441 0.950 . S
C468 C454 1.377 1_554 S
C468 C467 1.373 1_554 S
C469 C453 1.377 . S
C469 C467 1.389 . S
C469 C470 1.524 . S
C470 C469 1.524 . S
C470 C471 1.397 . S
C470 C475 1.363 . S
C471 H442 0.950 . S
C471 C470 1.397 . S
C471 C472 1.334 . S
C472 H443 0.950 . S
C472 C471 1.334 . S
C472 C473 1.287 . S
C473 C472 1.287 . S
C473 C474 1.524 . S
C473 H476 0.999 . S
C474 H444 0.950 . S
C474 C473 1.524 . S
C474 C475 1.415 . S
C475 H445 0.950 . S
C475 C470 1.363 . S
C475 C474 1.415 . S
H476 C473 0.999 . S
H477 C458 0.913 . S
H478 C496 0.951 . S
H479 C498 0.951 . S
H480 C500 0.950 . S
H481 C501 0.950 . S
H482 C503 0.950 . S
H483 C506 0.950 . S
H484 C507 0.950 . S
H485 C509 0.950 . S
H486 C510 0.950 . S
H487 C511 0.951 . S
H488 C513 0.951 . S
H489 C515 0.950 . S
H490 C516 0.950 . S
H491 C518 0.950 . S
H492 C521 0.950 . S
H493 C522 0.950 . S
H494 C524 0.950 . S
H495 C525 0.950 . S
C496 H478 0.951 . S
C496 C497 1.366 . S
C496 C498 1.388 . S
C497 C496 1.366 . S
C497 C501 1.385 . S
C498 H479 0.951 . S
C498 C496 1.388 . S
C498 C499 1.366 . S
C499 C498 1.366 . S
C499 C500 1.414 . S
C499 C502 1.499 . S
C500 H480 0.950 . S
C500 C499 1.414 . S
C500 C501 1.374 . S
C501 H481 0.950 . S
C501 C497 1.385 . S
C501 C500 1.374 . S
C502 C499 1.499 . S
C502 C503 1.373 . S
C502 C504 1.389 . S
C503 H482 0.950 . S
C503 C502 1.373 . S
C503 C519 1.377 . S
C504 C502 1.389 . S
C504 C505 1.524 . S
C504 C518 1.377 . S
C505 C504 1.524 . S
C505 C506 1.397 . S
C505 C510 1.363 . S
C506 H483 0.950 . S
C506 C505 1.397 . S
C506 C507 1.334 . S
C507 H484 0.950 . S
C507 C506 1.334 . S
C507 C508 1.287 . S
C508 C507 1.287 . S
C508 C509 1.524 . S
C508 H527 0.913 . S
C509 H485 0.950 . S
C509 C508 1.524 . S
C509 C510 1.415 . S
C510 H486 0.950 . S
C510 C505 1.363 . S
C510 C509 1.415 . S
C511 H487 0.951 . S
C511 C512 1.366 . S
C511 C513 1.388 . S
C512 C511 1.366 . S
C512 C516 1.385 . S
C513 H488 0.951 . S
C513 C511 1.388 . S
C513 C514 1.366 . S
C514 C513 1.366 . S
C514 C515 1.414 . S
C514 C517 1.499 . S
C515 H489 0.950 . S
C515 C514 1.414 . S
C515 C516 1.374 . S
C516 H490 0.950 . S
C516 C512 1.385 . S
C516 C515 1.374 . S
C517 C514 1.499 . S
C517 C518 1.373 . S
C517 C519 1.389 . S
C518 H491 0.950 . S
C518 C504 1.377 . S
C518 C517 1.373 . S
C519 C503 1.377 . S
C519 C517 1.389 . S
C519 C520 1.524 . S
C520 C519 1.524 . S
C520 C521 1.397 . S
C520 C525 1.363 . S
C521 H492 0.950 . S
C521 C520 1.397 . S
C521 C522 1.334 . S
C522 H493 0.950 . S
C522 C521 1.334 . S
C522 C523 1.287 . S
C523 C522 1.287 . S
C523 C524 1.524 . S
C523 H526 0.999 . S
C524 H494 0.950 . S
C524 C523 1.524 . S
C524 C525 1.415 . S
C525 H495 0.950 . S
C525 C520 1.363 . S
C525 C524 1.415 . S
H526 C523 0.999 . S
H527 C508 0.913 . S
H528 C546 0.951 . S
H529 C548 0.951 . S
H530 C550 0.950 . S
H531 C551 0.950 . S
H532 C553 0.950 . S
H533 C556 0.950 . S
H534 C557 0.950 . S
H535 C559 0.950 . S
H536 C560 0.950 . S
H537 C561 0.951 . S
H538 C563 0.951 . S
H539 C565 0.950 . S
H540 C566 0.950 . S
H541 C568 0.950 . S
H542 C571 0.950 . S
H543 C572 0.950 . S
H544 C574 0.950 . S
H545 C575 0.950 . S
C546 H528 0.951 . S
C546 C547 1.366 . S
C546 C548 1.388 . S
C547 C546 1.366 . S
C547 C551 1.385 . S
C548 H529 0.951 . S
C548 C546 1.388 . S
C548 C549 1.366 . S
C549 C548 1.366 . S
C549 C550 1.414 . S
C549 C552 1.499 . S
C550 H530 0.950 . S
C550 C549 1.414 . S
C550 C551 1.374 . S
C551 H531 0.950 . S
C551 C547 1.385 . S
C551 C550 1.374 . S
C552 C549 1.499 . S
C552 C553 1.373 . S
C552 C554 1.389 . S
C553 H532 0.950 . S
C553 C552 1.373 . S
C553 C569 1.377 . S
C554 C552 1.389 . S
C554 C555 1.524 . S
C554 C568 1.377 . S
C555 C554 1.524 . S
C555 C556 1.397 . S
C555 C560 1.363 . S
C556 H533 0.950 . S
C556 C555 1.397 . S
C556 C557 1.334 . S
C557 H534 0.950 . S
C557 C556 1.334 . S
C557 C558 1.287 . S
C558 C557 1.287 . S
C558 C559 1.524 . S
C558 H577 0.913 . S
C559 H535 0.950 . S
C559 C558 1.524 . S
C559 C560 1.415 . S
C560 H536 0.950 . S
C560 C555 1.363 . S
C560 C559 1.415 . S
C561 H537 0.951 . S
C561 C562 1.366 . S
C561 C563 1.388 . S
C562 C561 1.366 . S
C562 C566 1.385 . S
C563 H538 0.951 . S
C563 C561 1.388 . S
C563 C564 1.366 . S
C564 C563 1.366 . S
C564 C565 1.414 . S
C564 C567 1.499 . S
C565 H539 0.950 . S
C565 C564 1.414 . S
C565 C566 1.374 . S
C566 H540 0.950 . S
C566 C562 1.385 . S
C566 C565 1.374 . S
C567 C564 1.499 . S
C567 C568 1.373 . S
C567 C569 1.389 . S
C568 H541 0.950 . S
C568 C554 1.377 . S
C568 C567 1.373 . S
C569 C553 1.377 . S
C569 C567 1.389 . S
C569 C570 1.524 . S
C570 C569 1.524 . S
C570 C571 1.397 . S
C570 C575 1.363 . S
C571 H542 0.950 . S
C571 C570 1.397 . S
C571 C572 1.334 . S
C572 H543 0.950 . S
C572 C571 1.334 . S
C572 C573 1.287 . S
C573 C572 1.287 . S
C573 C574 1.524 . S
C573 H576 0.999 . S
C574 H544 0.950 . S
C574 C573 1.524 . S
C574 C575 1.415 . S
C575 H545 0.950 . S
C575 C570 1.363 . S
C575 C574 1.415 . S
H576 C573 0.999 . S
H577 C558 0.913 . S
H578 C596 0.951 1_655 S
H579 C598 0.930 1_655 S
H580 C600 0.950 . S
H581 C601 0.950 . S
H582 C603 0.950 . S
H583 C606 0.922 1_455 S
H584 C607 0.950 . S
H585 C609 0.950 . S
H586 C610 0.950 . S
H587 C611 0.951 1_455 S
H588 C613 0.951 1_455 S
H589 C615 0.950 . S
H590 C616 0.950 . S
H591 C618 0.950 . S
H592 C621 0.950 1_655 S
H593 C622 0.950 . S
H594 C624 0.950 . S
H595 C625 0.950 . S
C596 H578 0.951 1_455 S
C596 C597 1.366 . S
C596 C598 1.392 . S
C597 C596 1.366 . S
C597 C601 1.385 . S
C598 H579 0.930 1_455 S
C598 C596 1.392 . S
C598 C599 1.382 . S
C599 C598 1.382 . S
C599 C600 1.414 . S
C599 C602 1.499 . S
C600 H580 0.950 . S
C600 C599 1.414 . S
C600 C601 1.374 . S
C601 H581 0.950 . S
C601 C597 1.385 . S
C601 C600 1.374 . S
C602 C599 1.499 . S
C602 C603 1.373 . S
C602 C604 1.389 1_455 S
C603 H582 0.950 . S
C603 C602 1.373 . S
C603 C619 1.377 . S
C604 C602 1.389 1_655 S
C604 C605 1.524 . S
C604 C618 1.377 . S
C605 C604 1.524 . S
C605 C606 1.397 . S
C605 C610 1.363 . S
C606 H583 0.922 1_655 S
C606 C605 1.397 . S
C606 C607 1.334 . S
C607 H584 0.950 . S
C607 C606 1.334 . S
C607 C608 1.287 . S
C608 C607 1.287 . S
C608 C609 1.524 . S
C608 H627 0.913 . S
C609 H585 0.950 . S
C609 C608 1.524 . S
C609 C610 1.415 . S
C610 H586 0.950 . S
C610 C605 1.363 . S
C610 C609 1.415 . S
C611 H587 0.951 1_655 S
C611 C612 1.366 . S
C611 C613 1.388 . S
C612 C611 1.366 . S
C612 C616 1.385 . S
C613 H588 0.951 1_655 S
C613 C611 1.388 . S
C613 C614 1.366 . S
C614 C613 1.366 . S
C614 C615 1.414 . S
C614 C617 1.499 . S
C615 H589 0.950 . S
C615 C614 1.414 . S
C615 C616 1.374 . S
C616 H590 0.950 . S
C616 C612 1.385 . S
C616 C615 1.374 . S
C617 C614 1.499 . S
C617 C618 1.373 . S
C617 C619 1.389 1_655 S
C618 H591 0.950 . S
C618 C604 1.377 . S
C618 C617 1.373 . S
C619 C603 1.377 . S
C619 C617 1.389 1_455 S
C619 C620 1.524 . S
C620 C619 1.524 . S
C620 C621 1.397 . S
C620 C625 1.363 . S
C621 H592 0.950 1_455 S
C621 C620 1.397 . S
C621 C622 1.334 . S
C622 H593 0.950 . S
C622 C621 1.334 . S
C622 C623 1.287 . S
C623 C622 1.287 . S
C623 C624 1.524 . S
C623 H626 0.999 . S
C624 H594 0.950 . S
C624 C623 1.524 . S
C624 C625 1.415 . S
C625 H595 0.950 . S
C625 C620 1.363 . S
C625 C624 1.415 . S
H626 C623 0.999 . S
H627 C608 0.913 . S
H628 C646 0.951 . S
H629 C648 0.951 . S
H630 C650 0.950 . S
H631 C651 0.950 1_455 S
H632 C653 0.950 . S
H633 C656 0.950 . S
H634 C657 0.950 . S
H635 C659 0.950 . S
H636 C660 0.950 . S
H637 C661 0.951 . S
H638 C663 0.951 . S
H639 C665 0.950 . S
H640 C666 0.950 . S
H641 C668 0.949 1_556 S
H642 C671 0.950 . S
H643 C672 0.950 . S
H644 C674 0.950 . S
H645 C675 0.950 . S
C646 H628 0.951 . S
C646 C647 1.366 . S
C646 C648 1.388 . S
C647 C646 1.366 . S
C647 C651 1.385 . S
C648 H629 0.951 . S
C648 C646 1.388 . S
C648 C649 1.366 . S
C649 C648 1.366 . S
C649 C650 1.414 . S
C649 C652 1.499 . S
C650 H630 0.950 . S
C650 C649 1.414 . S
C650 C651 1.374 . S
C651 H631 0.950 1_655 S
C651 C647 1.385 . S
C651 C650 1.374 . S
C652 C649 1.499 . S
C652 C653 1.373 1_556 S
C652 C654 1.389 . S
C653 H632 0.950 . S
C653 C652 1.373 1_554 S
C653 C669 1.377 . S
C654 C652 1.389 . S
C654 C655 1.524 . S
C654 C668 1.370 1_556 S
C655 C654 1.524 . S
C655 C656 1.397 . S
C655 C660 1.363 . S
C656 H633 0.950 . S
C656 C655 1.397 . S
C656 C657 1.334 . S
C657 H634 0.950 . S
C657 C656 1.334 . S
C657 C658 1.287 . S
C658 C657 1.287 . S
C658 C659 1.524 . S
C658 H677 0.913 . S
C659 H635 0.950 . S
C659 C658 1.524 . S
C659 C660 1.415 . S
C660 H636 0.950 . S
C660 C655 1.363 . S
C660 C659 1.415 . S
C661 H637 0.951 . S
C661 C662 1.366 . S
C661 C663 1.388 . S
C662 C661 1.366 . S
C662 C666 1.385 . S
C663 H638 0.951 . S
C663 C661 1.388 . S
C663 C664 1.366 . S
C664 C663 1.366 . S
C664 C665 1.414 . S
C664 C667 1.499 . S
C665 H639 0.950 . S
C665 C664 1.414 . S
C665 C666 1.374 . S
C666 H640 0.950 . S
C666 C662 1.385 . S
C666 C665 1.374 . S
C667 C664 1.499 . S
C667 C668 1.382 . S
C667 C669 1.389 . S
C668 H641 0.949 1_554 S
C668 C654 1.370 1_554 S
C668 C667 1.382 . S
C669 C653 1.377 . S
C669 C667 1.389 . S
C669 C670 1.524 . S
C670 C669 1.524 . S
C670 C671 1.397 . S
C670 C675 1.363 . S
C671 H642 0.950 . S
C671 C670 1.397 . S
C671 C672 1.334 . S
C672 H643 0.950 . S
C672 C671 1.334 . S
C672 C673 1.287 . S
C673 C672 1.287 . S
C673 C674 1.524 . S
C673 H676 0.999 . S
C674 H644 0.950 . S
C674 C673 1.524 . S
C674 C675 1.415 . S
C675 H645 0.950 . S
C675 C670 1.363 . S
C675 C674 1.415 . S
H676 C673 0.999 . S
H677 C658 0.913 . S
H678 C696 0.951 . S
H679 C698 0.951 . S
H680 C700 0.950 . S
H681 C701 0.950 . S
H682 C703 0.950 . S
H683 C706 0.950 . S
H684 C707 0.950 . S
H685 C709 0.950 . S
H686 C710 0.950 . S
H687 C711 0.951 . S
H688 C713 0.951 . S
H689 C715 0.950 . S
H690 C716 0.950 . S
H691 C718 0.950 . S
H692 C721 0.950 . S
H693 C722 0.950 . S
H694 C724 0.950 . S
H695 C725 0.950 . S
C696 H678 0.951 . S
C696 C697 1.366 . S
C696 C698 1.388 . S
C697 C696 1.366 . S
C697 C701 1.385 . S
C698 H679 0.951 . S
C698 C696 1.388 . S
C698 C699 1.366 . S
C699 C698 1.366 . S
C699 C700 1.414 . S
C699 C702 1.499 . S
C700 H680 0.950 . S
C700 C699 1.414 . S
C700 C701 1.374 . S
C701 H681 0.950 . S
C701 C697 1.385 . S
C701 C700 1.374 . S
C702 C699 1.499 . S
C702 C703 1.373 . S
C702 C704 1.389 . S
C703 H682 0.950 . S
C703 C702 1.373 . S
C703 C719 1.377 . S
C704 C702 1.389 . S
C704 C705 1.524 . S
C704 C718 1.377 . S
C705 C704 1.524 . S
C705 C706 1.397 . S
C705 C710 1.363 . S
C706 H683 0.950 . S
C706 C705 1.397 . S
C706 C707 1.334 . S
C707 H684 0.950 . S
C707 C706 1.334 . S
C707 C708 1.287 . S
C708 C707 1.287 . S
C708 C709 1.524 . S
C708 H727 0.913 . S
C709 H685 0.950 . S
C709 C708 1.524 . S
C709 C710 1.415 . S
C710 H686 0.950 . S
C710 C705 1.363 . S
C710 C709 1.415 . S
C711 H687 0.951 . S
C711 C712 1.366 . S
C711 C713 1.388 . S
C712 C711 1.366 . S
C712 C716 1.385 . S
C713 H688 0.951 . S
C713 C711 1.388 . S
C713 C714 1.366 . S
C714 C713 1.366 . S
C714 C715 1.414 . S
C714 C717 1.499 . S
C715 H689 0.950 . S
C715 C714 1.414 . S
C715 C716 1.374 . S
C716 H690 0.950 . S
C716 C712 1.385 . S
C716 C715 1.374 . S
C717 C714 1.499 . S
C717 C718 1.373 . S
C717 C719 1.389 . S
C718 H691 0.950 . S
C718 C704 1.377 . S
C718 C717 1.373 . S
C719 C703 1.377 . S
C719 C717 1.389 . S
C719 C720 1.524 . S
C720 C719 1.524 . S
C720 C721 1.397 . S
C720 C725 1.363 . S
C721 H692 0.950 . S
C721 C720 1.397 . S
C721 C722 1.334 . S
C722 H693 0.950 . S
C722 C721 1.334 . S
C722 C723 1.287 . S
C723 C722 1.287 . S
C723 C724 1.524 . S
C723 H726 0.999 . S
C724 H694 0.950 . S
C724 C723 1.524 . S
C724 C725 1.415 . S
C725 H695 0.950 . S
C725 C720 1.363 . S
C725 C724 1.415 . S
H726 C723 0.999 . S
H727 C708 0.913 . S
C147 C93 1.191 . S
C162 N18 1.199 . S
C197 C102 1.506 . S
C212 C61 1.436 . S
C247 N77 0.861 . S
C262 C4 0.854 . S
C297 C98 1.419 . S
C312 N45 1.381 . S
C347 N50 1.013 . S
C362 C29 1.004 . S
C397 C66 1.793 . S
C412 C38 1.817 . S
C447 C68 1.047 . S
C462 C100 1.082 . S
C497 C6 1.498 . S
C512 N109 1.441 1_545 S
C547 C36 1.041 . S
C562 N13 1.042 . S
C597 C70 2.193 . S
C612 C34 2.185 . S
C647 N82 0.930 1_655 S
C662 N114 0.940 . S
C697 C125 1.454 . S
C712 C2 1.491 . S
