# Generated by pormake.
# Topology wjq, (5)-cn, num edge types: 1
# Building blocks:
#     Node 0, Type 0, BuildingBlock: XOMCOT_clean_sbu_1, # of connection points: 5
#     Node 1, Type 0, BuildingBlock: XOMCOT_clean_sbu_1, # of connection points: 5
#     Node 2, Type 0, BuildingBlock: XOMCOT_clean_sbu_1, # of connection points: 5
#     Node 3, Type 0, BuildingBlock: XOMCOT_clean_sbu_1, # of connection points: 5
#     Node 4, Type 0, BuildingBlock: XOMCOT_clean_sbu_1, # of connection points: 5
#     Node 5, Type 0, BuildingBlock: XOMCOT_clean_sbu_1, # of connection points: 5
#     Node 6, Type 0, BuildingBlock: XOMCOT_clean_sbu_1, # of connection points: 5
#     Node 7, Type 0, BuildingBlock: XOMCOT_clean_sbu_1, # of connection points: 5
#     Node 8, Type 0, BuildingBlock: XOMCOT_clean_sbu_1, # of connection points: 5
#     Node 9, Type 0, BuildingBlock: XOMCOT_clean_sbu_1, # of connection points: 5
#     Node 10, Type 0, BuildingBlock: XOMCOT_clean_sbu_1, # of connection points: 5
#     Node 11, Type 0, BuildingBlock: XOMCOT_clean_sbu_1, # of connection points: 5
#     Edge 12, Type (0, 0), BuildingBlock: ZUJKAS_clean_linker_0, # of connection points: 2
#     Edge 13, Type (0, 0), BuildingBlock: ZUJKAS_clean_linker_0, # of connection points: 2
#     Edge 14, Type (0, 0), BuildingBlock: ZUJKAS_clean_linker_0, # of connection points: 2
#     Edge 15, Type (0, 0), BuildingBlock: ZUJKAS_clean_linker_0, # of connection points: 2
#     Edge 16, Type (0, 0), BuildingBlock: ZUJKAS_clean_linker_0, # of connection points: 2
#     Edge 17, Type (0, 0), BuildingBlock: ZUJKAS_clean_linker_0, # of connection points: 2
#     Edge 18, Type (0, 0), BuildingBlock: ZUJKAS_clean_linker_0, # of connection points: 2
#     Edge 19, Type (0, 0), BuildingBlock: ZUJKAS_clean_linker_0, # of connection points: 2
#     Edge 20, Type (0, 0), BuildingBlock: ZUJKAS_clean_linker_0, # of connection points: 2
#     Edge 21, Type (0, 0), BuildingBlock: ZUJKAS_clean_linker_0, # of connection points: 2
#     Edge 22, Type (0, 0), BuildingBlock: ZUJKAS_clean_linker_0, # of connection points: 2
#     Edge 23, Type (0, 0), BuildingBlock: ZUJKAS_clean_linker_0, # of connection points: 2
#     Edge 24, Type (0, 0), BuildingBlock: ZUJKAS_clean_linker_0, # of connection points: 2
#     Edge 25, Type (0, 0), BuildingBlock: ZUJKAS_clean_linker_0, # of connection points: 2
#     Edge 26, Type (0, 0), BuildingBlock: ZUJKAS_clean_linker_0, # of connection points: 2
#     Edge 27, Type (0, 0), BuildingBlock: ZUJKAS_clean_linker_0, # of connection points: 2
#     Edge 28, Type (0, 0), BuildingBlock: ZUJKAS_clean_linker_0, # of connection points: 2
#     Edge 29, Type (0, 0), BuildingBlock: ZUJKAS_clean_linker_0, # of connection points: 2
#     Edge 30, Type (0, 0), BuildingBlock: ZUJKAS_clean_linker_0, # of connection points: 2
#     Edge 31, Type (0, 0), BuildingBlock: ZUJKAS_clean_linker_0, # of connection points: 2
#     Edge 32, Type (0, 0), BuildingBlock: ZUJKAS_clean_linker_0, # of connection points: 2
#     Edge 33, Type (0, 0), BuildingBlock: ZUJKAS_clean_linker_0, # of connection points: 2
#     Edge 34, Type (0, 0), BuildingBlock: ZUJKAS_clean_linker_0, # of connection points: 2
#     Edge 35, Type (0, 0), BuildingBlock: ZUJKAS_clean_linker_0, # of connection points: 2
#     Edge 36, Type (0, 0), BuildingBlock: ZUJKAS_clean_linker_0, # of connection points: 2
#     Edge 37, Type (0, 0), BuildingBlock: ZUJKAS_clean_linker_0, # of connection points: 2
#     Edge 38, Type (0, 0), BuildingBlock: ZUJKAS_clean_linker_0, # of connection points: 2
#     Edge 39, Type (0, 0), BuildingBlock: ZUJKAS_clean_linker_0, # of connection points: 2
#     Edge 40, Type (0, 0), BuildingBlock: ZUJKAS_clean_linker_0, # of connection points: 2
#     Edge 41, Type (0, 0), BuildingBlock: ZUJKAS_clean_linker_0, # of connection points: 2
# Relax obj value: 0.543
# Max RMSD: 0.289
# Mean RMSD: 0.289
data_MOF--net-wjq--node1-XOMCOT_clean_sbu_1--edge1-ZUJKAS_clean_linker_0
_symmetry_space_group_name_H-M    P1
_symmetry_Int_Tables_number       1
_symmetry_cell_setting            triclinic
loop_
_symmetry_equiv_pos_as_xyz
'x, y, z'
_cell_length_a     35.399885
_cell_length_b     35.414336
_cell_length_c     110.8636
_cell_angle_alpha  90.004049
_cell_angle_beta   89.992806
_cell_angle_gamma 120.03878
loop_
_atom_site_label
_atom_site_type_symbol
_atom_site_fract_x
_atom_site_fract_y
_atom_site_fract_z
_atom_type_partial_charge
C0 C 0.34578 0.21648 0.04811 0.0
C1 C 0.33528 0.22699 0.03712 0.0
N2 N 0.29705 0.22633 0.03829 0.0
N3 N 0.31415 0.20892 0.05613 0.0
C4 C 0.2852 0.21569 0.04993 0.0
H5 H 0.37381 0.21297 0.05003 0.0
Co6 Co 0.31018 0.18778 0.07174 0.0
C7 C 0.22259 0.16862 0.07943 0.0
O8 O 0.23928 0.19389 0.08892 0.0
N9 N 0.30568 0.16584 0.08744 0.0
C10 C 0.28161 0.12049 0.10308 0.0
C11 C 0.27666 0.12483 0.09098 0.0
C12 C 0.32797 0.18573 0.09759 0.0
N13 N 0.31381 0.15894 0.10726 0.0
O14 O 0.32289 0.24328 0.07789 0.0
H15 H 0.25282 0.09971 0.08515 0.0
H16 H 0.35318 0.21955 0.09802 0.0
O17 O 0.24776 0.16516 0.07186 0.0
C18 C 0.36439 0.26608 0.07844 0.0
O19 O 0.38732 0.24758 0.07546 0.0
N20 N 0.30235 0.13584 0.0654 0.0
C21 C 0.30401 0.06717 0.0539 0.0
C22 C 0.26994 0.07567 0.05173 0.0
C23 C 0.26979 0.11042 0.05755 0.0
C24 C 0.33514 0.12739 0.06786 0.0
C25 C 0.33632 0.0927 0.0623 0.0
H26 H 0.2449 0.11826 0.05523 0.0
H27 H 0.36133 0.14873 0.07385 0.0
H28 H 0.25491 0.21087 0.05369 0.0
H29 H 0.35397 0.23385 0.02888 0.0
H30 H 0.26271 0.09123 0.10837 0.0
H31 H 0.24453 0.05661 0.04525 0.0
H32 H 0.36345 0.08743 0.06403 0.0
C33 C 0.08018 0.28591 0.3925 0.0
C34 C 0.05466 0.27852 0.38242 0.0
N35 N 0.01629 0.24169 0.38417 0.0
N36 N 0.05833 0.25347 0.40056 0.0
C37 C 0.01898 0.22796 0.39532 0.0
H38 H 0.11261 0.31332 0.39367 0.0
Co39 Co 0.0745 0.24402 0.41608 0.0
C40 C 0.04482 0.15968 0.4033 0.0
O41 O 0.06472 0.18099 0.39344 0.0
N42 N 0.0898 0.2352 0.43146 0.0
C43 C 0.10416 0.20839 0.44783 0.0
C44 C 0.08866 0.19951 0.43619 0.0
C45 C 0.10648 0.26533 0.44031 0.0
N46 N 0.11518 0.24981 0.4504 0.0
O47 O 0.02145 0.23824 0.42221 0.0
H48 H 0.07778 0.16902 0.43153 0.0
H49 H 0.11306 0.29843 0.43933 0.0
O50 O 0.04624 0.18088 0.41282 0.0
C51 C 0.03139 0.27715 0.42485 0.0
O52 O 0.07143 0.30879 0.42284 0.0
N53 N 0.12902 0.25501 0.41061 0.0
C54 C 0.21272 0.28576 0.40168 0.0
C55 C 0.18541 0.24112 0.40405 0.0
C56 C 0.1438 0.22645 0.40883 0.0
C57 C 0.15726 0.29873 0.40992 0.0
C58 C 0.19904 0.31489 0.40527 0.0
H59 H 0.12374 0.19229 0.41092 0.0
H60 H 0.14653 0.32126 0.41255 0.0
H61 H 0.99293 0.19911 0.39956 0.0
H62 H 0.06426 0.29799 0.37427 0.0
H63 H 0.10655 0.1859 0.45397 0.0
H64 H 0.1952 0.21755 0.40173 0.0
H65 H 0.21979 0.34975 0.40406 0.0
C66 C 0.7093 0.05991 0.71382 0.0
C67 C 0.69811 0.0365 0.7032 0.0
N68 N 0.71811 0.0126 0.70288 0.0
N69 N 0.73606 0.05071 0.72021 0.0
C70 C 0.74046 0.02153 0.71336 0.0
H71 H 0.70006 0.08356 0.71647 0.0
Co72 Co 0.76546 0.07852 0.73437 0.0
C73 C 0.79725 0.02097 0.7429 0.0
O74 O 0.77422 0.01361 0.7528 0.0
N75 N 0.79633 0.10675 0.74855 0.0
C76 C 0.85282 0.1418 0.76098 0.0
C77 C 0.8399 0.12377 0.74976 0.0
C78 C 0.78353 0.11477 0.7593 0.0
N79 N 0.81736 0.13613 0.76699 0.0
O80 O 0.71702 0.03613 0.74355 0.0
H81 H 0.86108 0.12259 0.74292 0.0
H82 H 0.75028 0.10534 0.76154 0.0
O83 O 0.79515 0.04494 0.73464 0.0
C84 C 0.69287 0.05284 0.74532 0.0
O85 O 0.7063 0.09257 0.74137 0.0
N86 N 0.80927 0.12203 0.7252 0.0
C87 C 0.86895 0.19334 0.71188 0.0
C88 C 0.86562 0.15243 0.71031 0.0
C89 C 0.83536 0.11691 0.71711 0.0
C90 C 0.81142 0.16126 0.72661 0.0
C91 C 0.84154 0.19761 0.72016 0.0
H92 H 0.83246 0.08539 0.71574 0.0
H93 H 0.7895 0.16421 0.73284 0.0
H94 H 0.76073 0.00794 0.71583 0.0
H95 H 0.67857 0.03866 0.69602 0.0
H96 H 0.88561 0.15672 0.76458 0.0
H97 H 0.8863 0.14805 0.70394 0.0
H98 H 0.84277 0.22854 0.72145 0.0
C99 C 0.65566 0.75596 0.04429 0.0
C100 C 0.67093 0.74593 0.03406 0.0
N101 N 0.7128 0.75661 0.03594 0.0
N102 N 0.68764 0.77289 0.05261 0.0
C103 C 0.72183 0.77241 0.04732 0.0
H104 H 0.62392 0.75295 0.04542 0.0
Co105 Co 0.68524 0.79763 0.06724 0.0
C106 C 0.77268 0.82802 0.0773 0.0
O107 O 0.75504 0.80408 0.08696 0.0
N108 N 0.68353 0.82357 0.08192 0.0
C109 C 0.69905 0.8753 0.0956 0.0
C110 C 0.7084 0.86668 0.08429 0.0
C111 C 0.65961 0.80661 0.09206 0.0
N112 N 0.66841 0.83751 0.10047 0.0
O113 O 0.67715 0.74668 0.07541 0.0
H114 H 0.73234 0.89048 0.0782 0.0
H115 H 0.63617 0.77248 0.09336 0.0
O116 O 0.74827 0.82704 0.06871 0.0
C117 C 0.63598 0.72106 0.07581 0.0
O118 O 0.61044 0.73476 0.07142 0.0
N119 N 0.68821 0.84436 0.0589 0.0
C120 C 0.68202 0.9081 0.04591 0.0
C121 C 0.71931 0.90378 0.04498 0.0
C122 C 0.72171 0.87149 0.05154 0.0
C123 C 0.6516 0.84766 0.05983 0.0
C124 C 0.64798 0.87967 0.05351 0.0
H125 H 0.74971 0.86738 0.05038 0.0
H126 H 0.62492 0.82499 0.06549 0.0
H127 H 0.75315 0.78444 0.05164 0.0
H128 H 0.6531 0.73368 0.0257 0.0
H129 H 0.71458 0.90672 0.10006 0.0
H130 H 0.74574 0.92406 0.0389 0.0
H131 H 0.61866 0.88179 0.05447 0.0
C132 C 0.9229 0.62815 0.36444 0.0
C133 C 0.95221 0.6551 0.35592 0.0
N134 N 0.97855 0.69416 0.36106 0.0
N135 N 0.93058 0.64994 0.37494 0.0
C136 C 0.96476 0.6901 0.37262 0.0
H137 H 0.89695 0.59497 0.363 0.0
Co138 Co 0.89692 0.62672 0.38883 0.0
C139 C 0.89614 0.70116 0.40074 0.0
O140 O 0.85458 0.67508 0.40314 0.0
N141 N 0.86358 0.60257 0.403 0.0
C142 C 0.814 0.5662 0.41723 0.0
C143 C 0.82244 0.5697 0.40504 0.0
C144 C 0.87971 0.61709 0.41416 0.0
N145 N 0.85006 0.59645 0.42295 0.0
O146 O 0.9435 0.62398 0.39655 0.0
H147 H 0.79924 0.54952 0.39828 0.0
H148 H 0.91264 0.64337 0.41576 0.0
O149 O 0.9175 0.68624 0.39508 0.0
C150 C 0.9434 0.58964 0.39311 0.0
O151 O 0.91746 0.56689 0.38421 0.0
N152 N 0.85004 0.62543 0.38067 0.0
C153 C 0.78106 0.61469 0.36618 0.0
C154 C 0.81457 0.65653 0.36941 0.0
C155 C 0.8493 0.66123 0.37642 0.0
C156 C 0.8194 0.5848 0.37692 0.0
C157 C 0.78398 0.5785 0.36994 0.0
H158 H 0.87639 0.69368 0.3779 0.0
H159 H 0.82315 0.55711 0.37913 0.0
H160 H 0.97923 0.71586 0.37926 0.0
H161 H 0.95309 0.6469 0.34656 0.0
H162 H 0.78313 0.54414 0.42148 0.0
H163 H 0.81512 0.68553 0.36606 0.0
H164 H 0.75968 0.54572 0.36732 0.0
C165 C 0.19458 0.86235 0.70821 0.0
C166 C 0.20592 0.8882 0.69806 0.0
N167 N 0.20526 0.92494 0.70082 0.0
N168 N 0.18688 0.88269 0.71735 0.0
C169 C 0.19389 0.92082 0.71259 0.0
H170 H 0.19123 0.83033 0.70883 0.0
Co171 Co 0.16766 0.86024 0.7328 0.0
C172 C 0.14531 0.92361 0.74317 0.0
O173 O 0.16922 0.9292 0.75279 0.0
N174 N 0.14763 0.83773 0.7483 0.0
C175 C 0.10435 0.81183 0.76434 0.0
C176 C 0.10624 0.82123 0.75228 0.0
C177 C 0.17024 0.83788 0.75815 0.0
N178 N 0.14471 0.82255 0.76805 0.0
O179 O 0.22321 0.90242 0.7392 0.0
H180 H 0.07935 0.81814 0.74691 0.0
H181 H 0.20498 0.85012 0.7582 0.0
O182 O 0.14357 0.89818 0.73479 0.0
C183 C 0.24744 0.88571 0.73751 0.0
O184 O 0.22989 0.84697 0.73246 0.0
N185 N 0.11598 0.81665 0.7262 0.0
C186 C 0.04843 0.74761 0.71396 0.0
C187 C 0.04988 0.78782 0.71485 0.0
C188 C 0.08443 0.82233 0.72089 0.0
C189 C 0.11401 0.77725 0.72589 0.0
C190 C 0.08052 0.74217 0.71973 0.0
H191 H 0.0867 0.85382 0.72077 0.0
H192 H 0.13982 0.77377 0.72999 0.0
H193 H 0.19067 0.94515 0.71766 0.0
H194 H 0.21278 0.87991 0.68925 0.0
H195 H 0.07591 0.80038 0.77006 0.0
H196 H 0.02625 0.79345 0.71019 0.0
H197 H 0.08069 0.71174 0.71905 0.0
C198 C 0.75586 0.7167 0.59432 0.0
C199 C 0.73913 0.72654 0.60426 0.0
N200 N 0.75506 0.77 0.60449 0.0
N201 N 0.78214 0.75368 0.58824 0.0
C202 C 0.78088 0.78559 0.59463 0.0
H203 H 0.75035 0.68477 0.59187 0.0
Co204 Co 0.81513 0.75677 0.57475 0.0
C205 C 0.85472 0.84793 0.56697 0.0
O206 O 0.83937 0.83462 0.55605 0.0
N207 N 0.84889 0.75965 0.56126 0.0
C208 C 0.90617 0.77823 0.54933 0.0
C209 C 0.89261 0.78551 0.56026 0.0
C210 C 0.83681 0.7366 0.55087 0.0
N211 N 0.87095 0.74732 0.54345 0.0
O212 O 0.7699 0.7539 0.56468 0.0
H213 H 0.91344 0.80823 0.56708 0.0
H214 H 0.80363 0.71267 0.54862 0.0
O215 O 0.84601 0.82004 0.57533 0.0
C216 C 0.74409 0.71329 0.5629 0.0
O217 O 0.75485 0.68534 0.56718 0.0
N218 N 0.85547 0.75439 0.58481 0.0
C219 C 0.89507 0.73138 0.60265 0.0
C220 C 0.89848 0.77267 0.60276 0.0
C221 C 0.87813 0.78356 0.59373 0.0
C222 C 0.8542 0.71541 0.58414 0.0
C223 C 0.87408 0.7033 0.59294 0.0
H224 H 0.87787 0.81386 0.59444 0.0
H225 H 0.83524 0.69244 0.57713 0.0
H226 H 0.79904 0.81972 0.59221 0.0
H227 H 0.71828 0.7036 0.61105 0.0
H228 H 0.93943 0.79396 0.54606 0.0
H229 H 0.91379 0.79499 0.61022 0.0
H230 H 0.87101 0.67132 0.5925 0.0
C231 C 0.04141 0.71837 0.9384 0.0
C232 C 0.00895 0.7079 0.94675 0.0
N233 N 0.00351 0.7427 0.94825 0.0
N234 N 0.0565 0.75953 0.93458 0.0
C235 C 0.03295 0.77367 0.94075 0.0
H236 H 0.05398 0.69762 0.9355 0.0
Co237 Co 0.10281 0.78745 0.92388 0.0
C238 C 0.1135 0.87454 0.91889 0.0
O239 O 0.15597 0.89084 0.91863 0.0
N240 N 0.15008 0.81474 0.91285 0.0
C241 C 0.21388 0.84219 0.9033 0.0
C242 C 0.19304 0.82851 0.91424 0.0
C243 C 0.14603 0.82091 0.90099 0.0
N244 N 0.18414 0.83714 0.89495 0.0
O245 O 0.0651 0.75311 0.91101 0.0
H246 H 0.20877 0.8281 0.92251 0.0
H247 H 0.11516 0.81196 0.89675 0.0
O248 O 0.08839 0.83389 0.92114 0.0
C249 C 0.07426 0.72331 0.90876 0.0
O250 O 0.10557 0.72251 0.9149 0.0
N251 N 0.13911 0.81549 0.93692 0.0
C252 C 0.19136 0.84 0.95743 0.0
C253 C 0.16996 0.86271 0.95396 0.0
C254 C 0.14322 0.84941 0.94374 0.0
C255 C 0.1578 0.79185 0.94054 0.0
C256 C 0.18474 0.80399 0.9506 0.0
H257 H 0.1249 0.8654 0.94167 0.0
H258 H 0.15207 0.7635 0.93541 0.0
H259 H 0.03763 0.80614 0.93984 0.0
H260 H 0.99175 0.67736 0.95159 0.0
H261 H 0.24816 0.85421 0.90163 0.0
H262 H 0.17269 0.88955 0.95931 0.0
H263 H 0.20027 0.78531 0.95297 0.0
C264 C 0.34386 0.11822 0.28381 0.0
C265 C 0.32835 0.08745 0.29285 0.0
N266 N 0.28557 0.05961 0.29086 0.0
N267 N 0.31112 0.10992 0.27613 0.0
C268 C 0.27608 0.07391 0.28062 0.0
H269 H 0.37672 0.14552 0.28301 0.0
Co270 Co 0.31563 0.1451 0.26307 0.0
C271 C 0.22972 0.09698 0.25164 0.0
O272 O 0.24906 0.09747 0.24148 0.0
N273 N 0.32003 0.18106 0.24994 0.0
C274 C 0.30702 0.22328 0.23778 0.0
C275 C 0.29847 0.2034 0.24887 0.0
C276 C 0.34167 0.18823 0.23938 0.0
N277 N 0.33414 0.21355 0.2318 0.0
O278 O 0.32295 0.1061 0.25267 0.0
H279 H 0.27658 0.20396 0.25558 0.0
H280 H 0.36071 0.17336 0.23692 0.0
O281 O 0.25259 0.11392 0.2611 0.0
C282 C 0.36397 0.12056 0.25236 0.0
O283 O 0.38995 0.15717 0.25804 0.0
N284 N 0.31374 0.1844 0.27366 0.0
C285 C 0.32877 0.24041 0.29286 0.0
C286 C 0.28741 0.20339 0.29116 0.0
C287 C 0.28056 0.17544 0.28148 0.0
C288 C 0.35316 0.2215 0.27474 0.0
C289 C 0.36135 0.2502 0.28425 0.0
H290 H 0.24987 0.14524 0.28082 0.0
H291 H 0.37927 0.22738 0.26859 0.0
H292 H 0.24381 0.05932 0.27672 0.0
H293 H 0.34719 0.08593 0.30033 0.0
H294 H 0.29336 0.24241 0.23428 0.0
H295 H 0.26164 0.19431 0.29773 0.0
H296 H 0.39357 0.27852 0.28523 0.0
C297 C 0.31205 0.36093 0.62319 0.0
C298 C 0.31427 0.33326 0.63145 0.0
N299 N 0.28751 0.29185 0.62784 0.0
N300 N 0.28435 0.33738 0.61429 0.0
C301 C 0.26995 0.2953 0.61733 0.0
H302 H 0.32857 0.39608 0.62385 0.0
Co303 Co 0.26853 0.36257 0.60195 0.0
C304 C 0.18557 0.29155 0.59225 0.0
O305 O 0.17122 0.31937 0.59232 0.0
N306 N 0.25415 0.3891 0.58932 0.0
C307 C 0.24204 0.43161 0.57695 0.0
C308 C 0.25121 0.42571 0.58865 0.0
C309 C 0.24815 0.3745 0.57783 0.0
N310 N 0.23978 0.399 0.57021 0.0
O311 O 0.31277 0.36441 0.59172 0.0
H312 H 0.25592 0.44759 0.59598 0.0
H313 H 0.25013 0.34623 0.57506 0.0
O314 O 0.22459 0.30404 0.59581 0.0
C315 C 0.34697 0.40108 0.59364 0.0
O316 O 0.34587 0.42644 0.60211 0.0
N317 N 0.22858 0.36483 0.61258 0.0
C318 C 0.1769 0.37656 0.6294 0.0
C319 C 0.16717 0.3345 0.62593 0.0
C320 C 0.194 0.32931 0.61772 0.0
C321 C 0.24103 0.40554 0.6168 0.0
C322 C 0.21503 0.41239 0.62494 0.0
H323 H 0.18733 0.29671 0.61575 0.0
H324 H 0.27183 0.43288 0.61398 0.0
H325 H 0.24562 0.26775 0.61226 0.0
H326 H 0.33382 0.3431 0.63958 0.0
H327 H 0.23686 0.45749 0.5737 0.0
H328 H 0.1397 0.30572 0.62977 0.0
H329 H 0.22483 0.44535 0.62772 0.0
C330 C 0.00731 0.31254 0.93853 0.0
C331 C 0.03614 0.31783 0.94756 0.0
N332 N 0.03682 0.28032 0.94874 0.0
N333 N 0.98994 0.27195 0.93396 0.0
C334 C 0.00853 0.25301 0.94038 0.0
H335 H 0.99857 0.33642 0.93578 0.0
Co336 Co 0.94514 0.24799 0.92262 0.0
C337 C 0.94878 0.17219 0.91139 0.0
O338 O 0.90842 0.15459 0.90752 0.0
N339 N 0.89928 0.22501 0.91124 0.0
C340 C 0.83436 0.19663 0.90231 0.0
C341 C 0.85587 0.20653 0.91318 0.0
C342 C 0.90319 0.22675 0.89909 0.0
N343 N 0.86423 0.20939 0.89345 0.0
O344 O 0.98206 0.29112 0.91113 0.0
H345 H 0.8403 0.20078 0.92188 0.0
H346 H 0.93411 0.23944 0.89446 0.0
O347 O 0.96576 0.20803 0.91734 0.0
C348 C 0.97169 0.32077 0.91113 0.0
O349 O 0.94045 0.3167 0.91836 0.0
N350 N 0.90847 0.20977 0.93437 0.0
C351 C 0.84625 0.16326 0.95191 0.0
C352 C 0.8658 0.14359 0.94538 0.0
C353 C 0.89725 0.16757 0.93667 0.0
C354 C 0.89153 0.22998 0.94108 0.0
C355 C 0.86004 0.20725 0.94983 0.0
H356 H 0.91192 0.15181 0.93189 0.0
H357 H 0.90157 0.26374 0.93928 0.0
H358 H 0.99987 0.21924 0.93937 0.0
H359 H 0.05479 0.34692 0.95294 0.0
H360 H 0.79948 0.18185 0.90105 0.0
H361 H 0.85633 0.10974 0.94683 0.0
H362 H 0.84662 0.22396 0.9549 0.0
C363 C 0.65722 0.95331 0.27924 0.0
C364 C 0.67155 0.97785 0.28964 0.0
N365 N 0.71531 0.99649 0.29015 0.0
N366 N 0.69181 0.95678 0.27316 0.0
C367 C 0.72668 0.98334 0.28004 0.0
H368 H 0.62361 0.93333 0.27646 0.0
Co369 Co 0.69019 0.9275 0.25896 0.0
C370 C 0.77799 0.98278 0.24882 0.0
O371 O 0.76061 0.98542 0.23861 0.0
N372 N 0.68912 0.89754 0.24473 0.0
C373 C 0.70643 0.86133 0.2315 0.0
C374 C 0.71476 0.87993 0.24275 0.0
C375 C 0.66537 0.88898 0.2345 0.0
N376 N 0.67538 0.86714 0.2263 0.0
O377 O 0.68222 0.96907 0.24994 0.0
H378 H 0.73892 0.88139 0.24899 0.0
H379 H 0.64134 0.89865 0.23294 0.0
O380 O 0.75331 0.96164 0.25765 0.0
C381 C 0.64109 0.95288 0.24889 0.0
O382 O 0.61515 0.91362 0.25322 0.0
N383 N 0.6928 0.88511 0.26803 0.0
C384 C 0.68336 0.81484 0.28147 0.0
C385 C 0.72309 0.85452 0.28149 0.0
C386 C 0.72719 0.88954 0.27468 0.0
C387 C 0.65397 0.84705 0.26801 0.0
C388 C 0.6486 0.81129 0.27459 0.0
H389 H 0.75767 0.92006 0.27487 0.0
H390 H 0.62693 0.84465 0.26284 0.0
H391 H 0.7599 0.99257 0.27781 0.0
H392 H 0.6512 0.98044 0.2965 0.0
H393 H 0.72325 0.8463 0.2273 0.0
H394 H 0.75069 0.85839 0.28671 0.0
H395 H 0.61723 0.7815 0.27451 0.0
H396 H 0.56028 0.6794 0.08808 0.0
H397 H 0.5173 0.60151 0.09239 0.0
H398 H 0.62111 0.58363 0.0785 0.0
H399 H 0.66473 0.66232 0.07423 0.0
H400 H 0.537 0.53408 0.06689 0.0
H401 H 0.52371 0.51562 0.11669 0.0
H402 H 0.51482 0.5578 0.11078 0.0
H403 H 0.56763 0.56271 0.10933 0.0
C404 C 0.57449 0.65907 0.08628 0.0
C405 C 0.6157 0.67666 0.08081 0.0
C406 C 0.54998 0.61462 0.0888 0.0
C407 C 0.56611 0.58689 0.08583 0.0
C408 C 0.60831 0.60469 0.08095 0.0
H409 H 0.44176 0.30772 0.09 0.0
H410 H 0.48815 0.38617 0.09303 0.0
C411 C 0.63325 0.64952 0.07858 0.0
C412 C 0.53633 0.53913 0.08623 0.0
H413 H 0.47253 0.45447 0.10507 0.0
C414 C 0.52318 0.51657 0.07524 0.0
C415 C 0.51814 0.5166 0.09714 0.0
C416 C 0.53198 0.53925 0.10918 0.0
C417 C 0.49174 0.47211 0.07484 0.0
C418 C 0.47283 0.44977 0.08572 0.0
C419 C 0.48656 0.47203 0.09675 0.0
C420 C 0.44143 0.40239 0.08574 0.0
C421 C 0.47917 0.44911 0.06281 0.0
C422 C 0.39909 0.38553 0.08105 0.0
C423 C 0.37218 0.34045 0.0794 0.0
C424 C 0.38775 0.31207 0.08228 0.0
C425 C 0.42914 0.329 0.08761 0.0
C426 C 0.45563 0.37374 0.08939 0.0
H427 H 0.50105 0.46963 0.05543 0.0
H428 H 0.48005 0.41823 0.06323 0.0
H429 H 0.4453 0.44071 0.06056 0.0
H430 H 0.38763 0.40734 0.07822 0.0
H431 H 0.34049 0.32816 0.07523 0.0
H432 H 0.96652 0.2719 0.41081 0.0
H433 H 0.94322 0.32633 0.41154 0.0
H434 H 0.00482 0.36983 0.44627 0.0
H435 H 0.02886 0.31605 0.44541 0.0
H436 H 0.90425 0.36477 0.42799 0.0
H437 H 0.08412 0.46541 0.42114 0.0
H438 H 0.05533 0.40678 0.41989 0.0
H439 H 0.06574 0.43211 0.43447 0.0
C440 C 0.97249 0.29108 0.41894 0.0
C441 C 0.99924 0.28987 0.42808 0.0
C442 C 0.95958 0.32251 0.41931 0.0
C443 C 0.97321 0.35266 0.42885 0.0
C444 C 0.99437 0.34709 0.4388 0.0
H445 H 0.94638 0.5861 0.41771 0.0
H446 H 0.95718 0.53296 0.42929 0.0
C447 C 0.00763 0.31603 0.43837 0.0
C448 C 0.97407 0.39451 0.42706 0.0
H449 H 0.0434 0.50034 0.41889 0.0
C450 C 0.93465 0.39471 0.42628 0.0
C451 C 0.01394 0.43336 0.42467 0.0
C452 C 0.05726 0.43468 0.42499 0.0
C453 C 0.93397 0.43248 0.42274 0.0
C454 C 0.9737 0.47074 0.41994 0.0
C455 C 0.01317 0.47103 0.42121 0.0
C456 C 0.97424 0.50787 0.41369 0.0
C457 C 0.89071 0.43064 0.42129 0.0
C458 C 0.98244 0.51262 0.40126 0.0
C459 C 0.97627 0.54263 0.39469 0.0
C460 C 0.96244 0.56884 0.40047 0.0
C461 C 0.95774 0.56671 0.41308 0.0
C462 C 0.96335 0.53608 0.41967 0.0
H463 H 0.86264 0.39773 0.42326 0.0
H464 H 0.88923 0.45449 0.42748 0.0
H465 H 0.88739 0.43984 0.41194 0.0
H466 H 0.99102 0.49121 0.39651 0.0
H467 H 0.97975 0.54349 0.38496 0.0
H468 H 0.65984 0.08538 0.76145 0.0
H469 H 0.58282 0.05569 0.76635 0.0
H470 H 0.55082 0.93942 0.74607 0.0
H471 H 0.62834 0.96874 0.74145 0.0
H472 H 0.52825 0.0436 0.74838 0.0
H473 H 0.46465 0.88892 0.77357 0.0
H474 H 0.52229 0.92801 0.77252 0.0
H475 H 0.49484 0.88981 0.76047 0.0
C476 C 0.63648 0.05269 0.75847 0.0
C477 C 0.64976 0.02922 0.75109 0.0
C478 C 0.59251 0.03583 0.76124 0.0
C479 C 0.56096 0.99536 0.75658 0.0
C480 C 0.5746 0.97033 0.74998 0.0
H481 H 0.30647 0.86223 0.73124 0.0
H482 H 0.38095 0.89224 0.73824 0.0
C483 C 0.61887 0.98703 0.74733 0.0
C484 C 0.51426 0.9831 0.75681 0.0
H485 H 0.41166 0.89831 0.76209 0.0
C486 C 0.50275 0.01222 0.75165 0.0
C487 C 0.48107 0.94227 0.76109 0.0
C488 C 0.49136 0.91067 0.76734 0.0
C489 C 0.45896 1.00044 0.74988 0.0
C490 C 0.42579 0.9586 0.75351 0.0
C491 C 0.43722 0.93041 0.75931 0.0
C492 C 0.37985 0.94101 0.74973 0.0
C493 C 0.44858 0.03168 0.74342 0.0
C494 C 0.35441 0.9588 0.7538 0.0
C495 C 0.31134 0.94174 0.7497 0.0
C496 C 0.29333 0.90658 0.74157 0.0
C497 C 0.31916 0.8892 0.73754 0.0
C498 C 0.36181 0.90618 0.74158 0.0
H499 H 0.4783 0.06051 0.7398 0.0
H500 H 0.42569 0.01496 0.73584 0.0
H501 H 0.43251 0.04341 0.74978 0.0
H502 H 0.3677 0.98553 0.76019 0.0
H503 H 0.29203 0.95548 0.75304 0.0
H504 H 0.67672 0.71673 0.57314 0.0
H505 H 0.60067 0.65874 0.571 0.0
H506 H 0.63566 0.60825 0.54021 0.0
H507 H 0.71203 0.66528 0.54267 0.0
H508 H 0.53142 0.61529 0.55434 0.0
H509 H 0.60945 0.51726 0.56637 0.0
H510 H 0.63924 0.576 0.56647 0.0
H511 H 0.62665 0.54684 0.55242 0.0
C512 C 0.66767 0.69482 0.56549 0.0
C513 C 0.69993 0.69541 0.55803 0.0
C514 C 0.62426 0.66138 0.56433 0.0
C515 C 0.6128 0.62845 0.55565 0.0
C516 C 0.644 0.63281 0.54711 0.0
H517 H 0.34866 0.40074 0.56893 0.0
H518 H 0.41171 0.44981 0.55629 0.0
C519 C 0.68748 0.66577 0.54841 0.0
C520 C 0.57153 0.58632 0.55714 0.0
H521 H 0.53363 0.48217 0.56717 0.0
C522 C 0.53165 0.58582 0.55686 0.0
C523 C 0.57208 0.548 0.56057 0.0
C524 C 0.61406 0.54684 0.56159 0.0
C525 C 0.49264 0.54875 0.56052 0.0
C526 C 0.49365 0.51122 0.56444 0.0
C527 C 0.53302 0.51087 0.56402 0.0
C528 C 0.45687 0.47602 0.57126 0.0
C529 C 0.45124 0.55104 0.56103 0.0
C530 C 0.46207 0.47293 0.5837 0.0
C531 C 0.42653 0.44512 0.59083 0.0
C532 C 0.38521 0.41937 0.58565 0.0
C533 C 0.38048 0.41976 0.57307 0.0
C534 C 0.41622 0.44817 0.5659 0.0
H535 H 0.45679 0.58387 0.5586 0.0
H536 H 0.42697 0.52689 0.55467 0.0
H537 H 0.43696 0.54268 0.57023 0.0
H538 H 0.49314 0.49404 0.58801 0.0
H539 H 0.4308 0.44562 0.60052 0.0
H540 H 0.02715 0.40027 0.91971 0.0
H541 H 0.04545 0.46926 0.9101 0.0
H542 H 0.98345 0.401 0.87722 0.0
H543 H 0.96427 0.33129 0.88707 0.0
H544 H 0.0881 0.51621 0.89005 0.0
H545 H 0.90941 0.45446 0.88677 0.0
H546 H 0.93066 0.42497 0.89487 0.0
H547 H 0.93098 0.42546 0.87867 0.0
C548 C 0.01906 0.40023 0.91028 0.0
C549 C 0.99493 0.36086 0.90404 0.0
C550 C 0.02925 0.4396 0.90479 0.0
C551 C 0.01507 0.44026 0.89301 0.0
C552 C 0.99407 0.40117 0.88639 0.0
H553 H 0.09244 0.71502 0.88548 0.0
H554 H 0.07149 0.64467 0.87595 0.0
C555 C 0.98378 0.36153 0.89192 0.0
C556 C 0.01825 0.48131 0.88855 0.0
H557 H 0.95599 0.52954 0.88527 0.0
C558 C 0.05938 0.51921 0.88865 0.0
C559 C 0.98056 0.48495 0.88677 0.0
C560 C 0.93531 0.44546 0.8868 0.0
C561 C 0.06372 0.56082 0.88827 0.0
C562 C 0.02575 0.56458 0.88729 0.0
C563 C 0.98496 0.52659 0.88599 0.0
C564 C 0.02693 0.60617 0.89019 0.0
C565 C 0.10857 0.60001 0.89014 0.0
C566 C 0.00503 0.6079 0.90057 0.0
C567 C 0.01572 0.64798 0.90574 0.0
C568 C 0.0485 0.68679 0.90062 0.0
C569 C 0.06649 0.68538 0.88946 0.0
C570 C 0.05515 0.64519 0.88415 0.0
H571 H 0.13321 0.59065 0.89259 0.0
H572 H 0.11954 0.61934 0.88169 0.0
H573 H 0.10787 0.62124 0.89741 0.0
H574 H 0.98294 0.57831 0.90539 0.0
H575 H 1.00217 0.64835 0.91448 0.0
H576 H 0.66376 0.03832 0.25194 0.0
H577 H 0.61624 0.06899 0.24768 0.0
H578 H 0.52462 0.94971 0.22977 0.0
H579 H 0.57152 0.91901 0.23408 0.0
H580 H 0.53724 0.03576 0.21946 0.0
H581 H 0.49759 0.00359 0.26835 0.0
H582 H 0.55441 0.0355 0.26438 0.0
H583 H 0.52383 0.97918 0.26006 0.0
C584 C 0.63439 0.0195 0.24667 0.0
C585 C 0.62104 0.97636 0.24337 0.0
C586 C 0.60719 0.03685 0.24431 0.0
C587 C 0.56681 0.01133 0.23852 0.0
C588 C 0.55564 0.96986 0.23423 0.0
H589 H 0.3362 0.03326 0.25162 0.0
H590 H 0.38114 1.00116 0.24574 0.0
C591 C 0.58242 0.9524 0.2367 0.0
C592 C 0.53323 0.02451 0.23862 0.0
H593 H 0.46202 0.03364 0.25745 0.0
C594 C 0.52082 0.03549 0.22774 0.0
C595 C 0.51111 0.02282 0.2494 0.0
C596 C 0.522 0.00937 0.26123 0.0
C597 C 0.48754 0.0462 0.22746 0.0
C598 C 0.46633 0.04575 0.23833 0.0
C599 C 0.47811 0.03366 0.24912 0.0
C600 C 0.43496 0.06179 0.23907 0.0
C601 C 0.47523 0.05777 0.21558 0.0
C602 C 0.44976 0.106 0.2369 0.0
C603 C 0.42442 0.1242 0.24031 0.0
C604 C 0.38375 0.0985 0.2459 0.0
C605 C 0.36721 0.05352 0.24718 0.0
C606 C 0.39294 0.03531 0.24389 0.0
H607 H 0.48486 0.04445 0.20785 0.0
H608 H 0.43957 0.04534 0.21511 0.0
H609 H 0.4924 0.0938 0.21465 0.0
H610 H 0.48229 0.12719 0.23341 0.0
H611 H 0.43784 0.15904 0.23926 0.0
H612 H 0.24941 0.92221 0.96512 0.0
H613 H 0.28973 0.94324 0.98403 0.0
H614 H 0.2378 0.80771 0.99323 0.0
H615 H 0.19568 0.78634 0.97451 0.0
H616 H 0.22349 0.84899 0.01054 0.0
H617 H 0.39612 0.94932 -0.00151 0.0
H618 H 0.36595 0.96704 0.98949 0.0
H619 H 0.35602 0.91205 0.98786 0.0
C620 C 0.24683 0.89687 0.97112 0.0
C621 C 0.2191 0.85267 0.96837 0.0
C622 C 0.27067 0.9089 0.98181 0.0
C623 C 0.26769 0.87702 0.98992 0.0
C624 C 0.24119 0.8328 0.98701 0.0
H625 H 0.3184 1.00144 0.06135 0.0
H626 H 0.32131 0.9461 0.04847 0.0
C627 C 0.21715 0.82071 0.97631 0.0
C628 C 0.28593 0.89048 0.00219 0.0
H629 H 0.37126 0.97732 0.01585 0.0
C630 C 0.25649 0.87571 0.01189 0.0
C631 C 0.32924 0.92453 0.00407 0.0
C632 C 0.36365 0.93867 0.99441 0.0
C633 C 0.26709 0.89882 0.02278 0.0
C634 C 0.30792 0.93739 0.02386 0.0
C635 C 0.33965 0.94805 0.01489 0.0
C636 C 0.31236 0.97259 0.03183 0.0
C637 C 0.23258 0.88537 0.03241 0.0
C638 C 0.30688 0.00562 0.02665 0.0
C639 C 0.30469 0.03645 0.03389 0.0
C640 C 0.30812 0.03495 0.04645 0.0
C641 C 0.31543 0.00294 0.05166 0.0
C642 C 0.31723 0.97158 0.04436 0.0
H643 H 0.20373 0.85281 0.03058 0.0
H644 H 0.24634 0.88441 0.04133 0.0
H645 H 0.22162 0.90972 0.03295 0.0
H646 H 0.30281 0.00666 0.01699 0.0
H647 H 0.29992 0.06133 0.02965 0.0
H648 H 0.27605 0.26246 0.40282 0.0
H649 H 0.33094 0.27624 0.38733 0.0
H650 H 0.29015 0.35478 0.36757 0.0
H651 H 0.23692 0.34228 0.38299 0.0
H652 H 0.30582 0.24431 0.36648 0.0
H653 H 0.41422 0.41894 0.35866 0.0
H654 H 0.38364 0.39896 0.37251 0.0
H655 H 0.35998 0.41021 0.35952 0.0
C656 C 0.27999 0.28384 0.39535 0.0
C657 C 0.25207 0.30108 0.39407 0.0
C658 C 0.31151 0.29195 0.38656 0.0
C659 C 0.31518 0.31701 0.37631 0.0
C660 C 0.2893 0.33665 0.37553 0.0
H661 H 0.28019 0.26835 0.30508 0.0
H662 H 0.29177 0.29564 0.32584 0.0
C663 C 0.25837 0.32908 0.38435 0.0
C664 C 0.33753 0.31449 0.36529 0.0
H665 H 0.387 0.373 0.33988 0.0
C666 C 0.32518 0.2727 0.36088 0.0
C667 C 0.36306 0.35137 0.35793 0.0
C668 C 0.38129 0.39733 0.36252 0.0
C669 C 0.33328 0.26653 0.34891 0.0
C670 C 0.35393 0.30298 0.34119 0.0
C671 C 0.3703 0.34509 0.34583 0.0
C672 C 0.35295 0.2966 0.32807 0.0
C673 C 0.31643 0.22075 0.34428 0.0
C674 C 0.38428 0.28952 0.32248 0.0
C675 C 0.37767 0.27382 0.31067 0.0
C676 C 0.33951 0.26482 0.30436 0.0
C677 C 0.30963 0.27467 0.30977 0.0
C678 C 0.31639 0.29056 0.32155 0.0
H679 H 0.30394 0.1962 0.35165 0.0
H680 H 0.28959 0.21236 0.33774 0.0
H681 H 0.34278 0.21865 0.33945 0.0
H682 H 0.41236 0.29356 0.32748 0.0
H683 H 0.40101 0.266 0.30679 0.0
H684 H 0.20104 0.43519 0.64813 0.0
H685 H 0.15373 0.43698 0.66393 0.0
H686 H 0.0418 0.33123 0.64646 0.0
H687 H 0.08817 0.3312 0.63029 0.0
H688 H 0.02137 0.38799 0.65725 0.0
H689 H 0.11469 0.34176 0.68878 0.0
H690 H 0.14383 0.39377 0.68141 0.0
H691 H 0.12356 0.34451 0.67273 0.0
C692 C 0.16619 0.41321 0.64746 0.0
C693 C 0.14841 0.38226 0.63811 0.0
C694 C 0.13928 0.41405 0.65657 0.0
C695 C 0.09449 0.38348 0.65653 0.0
C696 C 0.07637 0.35496 0.64671 0.0
H697 H 0.88098 0.19748 0.68764 0.0
H698 H 0.93587 0.25903 0.67592 0.0
C699 C 0.10301 0.35451 0.63756 0.0
C700 C 0.06679 0.37628 0.66723 0.0
H701 H 0.04554 0.32624 0.69466 0.0
C702 C 0.02716 0.37572 0.6656 0.0
C703 C 0.07461 0.36068 0.67817 0.0
C704 C 0.1163 0.3599 0.68043 0.0
C705 C 0.99339 0.35562 0.67406 0.0
C706 C 0.99973 0.33595 0.68433 0.0
C707 C 0.04097 0.34124 0.68668 0.0
C708 C 0.96262 0.30235 0.69127 0.0
C709 C 0.9502 0.35275 0.67153 0.0
C710 C 0.95989 0.30637 0.70377 0.0
C711 C 0.92858 0.27117 0.71047 0.0
C712 C 0.90037 0.23134 0.70477 0.0
C713 C 0.90268 0.22775 0.69223 0.0
C714 C 0.9335 0.26303 0.68553 0.0
H715 H 0.95447 0.38048 0.66585 0.0
H716 H 0.92892 0.32212 0.66654 0.0
H717 H 0.93342 0.35237 0.68003 0.0
H718 H 0.98269 0.33625 0.70835 0.0
H719 H 0.92742 0.27453 0.72016 0.0
H720 H 0.60923 0.897 0.03396 0.0
H721 H 0.60655 0.94447 0.01838 0.0
H722 H 0.74271 0.03706 0.02449 0.0
H723 H 0.74493 0.99135 0.04053 0.0
H724 H 0.69668 0.07709 0.01743 0.0
H725 H 0.66175 0.93679 0.98728 0.0
H726 H 0.62238 0.92909 -0.00135 0.0
H727 H 0.67458 0.93644 0.00298 0.0
C728 C 0.63818 0.92822 0.03229 0.0
C729 C 0.67771 0.93996 0.03824 0.0
C730 C 0.63662 0.95511 0.02331 0.0
C731 C 0.67471 0.99358 0.02006 0.0
C732 C 0.71295 0.00728 0.0268 0.0
H733 H 0.84545 0.10653 0.96858 0.0
H734 H 0.78951 0.06556 0.98366 0.0
C735 C 0.71439 0.98083 0.03585 0.0
C736 C 0.67803 0.01614 0.00857 0.0
H737 H 0.69505 0.00584 0.97878 0.0
C738 C 0.69485 0.06142 0.00887 0.0
C739 C 0.6753 0.99537 -0.00259 0.0
C740 C 0.6577 0.94681 0.99647 0.0
C741 C 0.71404 0.08713 -0.0014 0.0
C742 C 0.71565 0.06667 0.98785 0.0
C743 C 0.69384 0.0211 0.98715 0.0
C744 C 0.74789 0.09129 0.9784 0.0
C745 C 0.73657 0.13612 -0.00037 0.0
C746 C 0.74269 0.11913 0.97047 0.0
C747 C 0.77466 0.14256 0.9618 0.0
C748 C 0.81204 0.13824 0.96096 0.0
C749 C 0.81678 0.11005 0.9689 0.0
C750 C 0.78497 0.0868 0.97753 0.0
H751 H 0.73204 0.14689 0.00866 0.0
H752 H 0.77207 0.15042 -0.00206 0.0
H753 H 0.72359 0.14922 0.9927 0.0
H754 H 0.71404 0.12263 0.97099 0.0
H755 H 0.76999 0.16371 0.95568 0.0
H756 H 0.70793 0.81681 0.3048 0.0
H757 H 0.69873 0.75546 0.31711 0.0
H758 H 0.63566 0.66755 0.28737 0.0
H759 H 0.64506 0.72902 0.27489 0.0
H760 H 0.60979 0.66425 0.32087 0.0
H761 H 0.7513 0.66317 0.29903 0.0
H762 H 0.74833 0.71258 0.29911 0.0
H763 H 0.71061 0.66703 0.29017 0.0
C764 C 0.69227 0.78447 0.30087 0.0
C765 C 0.67754 0.77765 0.28888 0.0
C766 C 0.68658 0.74949 0.30793 0.0
C767 C 0.66632 0.70725 0.30311 0.0
C768 C 0.65107 0.70003 0.29121 0.0
H769 H 0.74624 0.55905 0.34696 0.0
H770 H 0.69939 0.56155 0.3312 0.0
C771 C 0.65652 0.73507 0.28413 0.0
C772 C 0.66455 0.67188 0.31046 0.0
H773 H 0.72958 0.6305 0.31806 0.0
C774 C 0.63508 0.6556 0.32011 0.0
C775 C 0.69697 0.66012 0.30924 0.0
C776 C 0.72872 0.67641 0.29884 0.0
C777 C 0.63983 0.63091 0.32924 0.0
C778 C 0.67573 0.62382 0.32881 0.0
C779 C 0.7022 0.63615 0.31846 0.0
C780 C 0.69219 0.6126 0.33971 0.0
C781 C 0.6077 0.61467 0.33954 0.0
C782 C 0.70224 0.63919 0.34997 0.0
C783 C 0.7285 0.63746 0.35905 0.0
C784 C 0.74593 0.60969 0.35794 0.0
C785 C 0.73315 0.58067 0.34812 0.0
C786 C 0.70643 0.58211 0.33908 0.0
H787 H 0.57435 0.60462 0.33623 0.0
H788 H 0.60698 0.58663 0.34424 0.0
H789 H 0.6168 0.64151 0.34612 0.0
H790 H 0.6927 0.6638 0.35057 0.0
H791 H 0.73721 0.65968 0.36661 0.0
H792 H 0.95986 0.71051 0.71275 0.0
H793 H 0.91504 0.6755 0.69491 0.0
H794 H 0.0266 0.68122 0.67728 0.0
H795 H 0.07027 0.71374 0.69523 0.0
H796 H 0.93543 0.72473 0.67668 0.0
H797 H 0.9343 0.57734 0.66073 0.0
H798 H 0.94834 0.59621 0.6761 0.0
H799 H 0.98933 0.61723 0.6644 0.0
C800 C 0.97394 0.70214 0.70526 0.0
C801 C 0.0184 0.715 0.70525 0.0
C802 C 0.94842 0.68213 0.69509 0.0
C803 C 0.96739 0.67579 0.6847 0.0
C804 C 0.01071 0.68464 0.68521 0.0
H805 H 0.96933 0.77514 0.61617 0.0
H806 H 0.98307 0.75343 0.63592 0.0
C807 C 0.0359 0.70368 0.69547 0.0
C808 C 0.94683 0.67148 0.67276 0.0
H809 H 0.93744 0.62784 0.64469 0.0
C810 C 0.93466 0.70251 0.66982 0.0
C811 C 0.94557 0.64259 0.66373 0.0
C812 C 0.95468 0.60622 0.66649 0.0
C813 C 0.92454 0.70764 0.65799 0.0
C814 C 0.92773 0.68184 0.64879 0.0
C815 C 0.9364 0.64844 0.65177 0.0
C816 C 0.92352 0.69077 0.63604 0.0
C817 C 0.91203 0.7418 0.65536 0.0
C818 C 0.88659 0.66174 0.62944 0.0
C819 C 0.8787 0.67405 0.61818 0.0
C820 C 0.90772 0.71554 0.6134 0.0
C821 C 0.94621 0.74326 0.61971 0.0
C822 C 0.95412 0.73085 0.63093 0.0
H823 H 0.89992 0.75037 0.66357 0.0
H824 H 0.94113 0.77188 0.65205 0.0
H825 H 0.8864 0.73043 0.64829 0.0
H826 H 0.86266 0.63075 0.63329 0.0
H827 H 0.8485 0.65215 0.61359 0.0
H828 H 0.15948 0.15383 0.09617 0.0
H829 H 0.08247 0.0966 0.09571 0.0
H830 H 0.10074 0.05694 0.06045 0.0
H831 H 0.17738 0.11407 0.06076 0.0
H832 H 0.0136 0.07758 0.07791 0.0
H833 H 0.05444 0.94568 0.08225 0.0
H834 H 0.09283 0.00193 0.08584 0.0
H835 H 0.08234 0.98447 0.07039 0.0
C836 C 0.14701 0.13335 0.08824 0.0
C837 C 0.17485 0.13822 0.07857 0.0
C838 C 0.10303 0.10059 0.08802 0.0
C839 C 0.08621 0.07204 0.07815 0.0
C840 C 0.11333 0.07812 0.06825 0.0
H841 H 0.81907 0.88485 0.05911 0.0
H842 H 0.89501 0.94368 0.05954 0.0
C843 C 0.15716 0.1109 0.06844 0.0
C844 C 0.04067 0.0351 0.07831 0.0
H845 H 0.98027 0.92374 0.07861 0.0
C846 C 0.00624 0.04395 0.07809 0.0
C847 C 0.03126 0.99128 0.07869 0.0
C848 C 0.06707 0.98003 0.07941 0.0
C849 C 0.96255 0.01002 0.07795 0.0
C850 C 0.95317 0.96619 0.07798 0.0
C851 C 0.9876 0.95737 0.07848 0.0
C852 C 0.90773 0.9291 0.07752 0.0
C853 C 0.92669 0.02128 0.0779 0.0
C854 C 0.89012 0.90042 0.08733 0.0
C855 C 0.84657 0.86666 0.08713 0.0
C856 C 0.81995 0.8608 0.07707 0.0
C857 C 0.83836 0.88861 0.06707 0.0
C858 C 0.88177 0.92242 0.0673 0.0
H859 H 0.93889 0.0557 0.08059 0.0
H860 H 0.91294 0.01662 0.06867 0.0
H861 H 0.89988 0.99955 0.08409 0.0
H862 H 0.90977 0.90484 0.09527 0.0
H863 H 0.83355 0.84583 0.09498 0.0
H864 H 0.0349 0.10555 0.38456 0.0
H865 H 0.00956 0.02756 0.38533 0.0
H866 H 0.98758 0.02688 0.42359 0.0
H867 H 0.01274 0.10515 0.42294 0.0
H868 H 0.03796 0.98558 0.41563 0.0
H869 H 0.88172 0.92641 0.39091 0.0
H870 H 0.92901 0.97017 0.38377 0.0
H871 H 0.91037 0.97956 0.39791 0.0
C872 C 0.02437 0.08887 0.39315 0.0
C873 C 0.02607 0.11173 0.40371 0.0
C874 C 0.00982 0.04424 0.39355 0.0
C875 C 0.99661 0.0215 0.40451 0.0
C876 C 0.99771 0.04395 0.41505 0.0
H877 H 0.85962 0.74129 0.4131 0.0
H878 H 0.88643 0.81929 0.41483 0.0
C879 C 0.012 0.08864 0.41465 0.0
C880 C 0.98258 0.97446 0.40492 0.0
H881 H 0.90437 0.87481 0.39461 0.0
C882 C 0.00866 0.96125 0.41109 0.0
C883 C 0.94427 0.94292 0.39903 0.0
C884 C 0.91442 0.95523 0.3926 0.0
C885 C 0.99774 0.91723 0.41135 0.0
C886 C 0.95993 0.88584 0.40523 0.0
C887 C 0.93352 0.89903 0.39923 0.0
C888 C 0.94637 0.83886 0.4051 0.0
C889 C 0.02636 0.90451 0.41827 0.0
C890 C 0.97155 0.82395 0.39919 0.0
C891 C 0.95627 0.77913 0.39816 0.0
C892 C 0.91542 0.74856 0.40297 0.0
C893 C 0.89111 0.76383 0.40923 0.0
C894 C 0.90635 0.80846 0.41023 0.0
H895 H 0.04876 0.93073 0.42452 0.0
H896 H 0.00622 0.87424 0.42354 0.0
H897 H 0.04641 0.89803 0.41181 0.0
H898 H 0.00231 0.84689 0.39503 0.0
H899 H 0.97576 0.76852 0.39327 0.0
H900 H 0.85917 0.04178 0.72537 0.0
H901 H 0.91896 0.02607 0.72523 0.0
H902 H 0.87205 0.95503 0.75858 0.0
H903 H 0.81209 0.97072 0.75886 0.0
H904 H 0.98351 0.05008 0.74479 0.0
H905 H 0.89009 0.87209 0.73506 0.0
H906 H 0.86907 0.90805 0.73167 0.0
H907 H 0.86923 0.89125 0.74693 0.0
C908 C 0.86115 0.02239 0.73262 0.0
C909 C 0.83074 0.00754 0.74214 0.0
C910 C 0.8955 0.0136 0.73254 0.0
C911 C 0.89984 0.98934 0.74187 0.0
C912 C 0.86903 0.97352 0.75124 0.0
H913 H 0.12191 0.95958 0.76159 0.0
H914 H 0.06429 0.97881 0.76127 0.0
C915 C 0.8348 0.98255 0.75138 0.0
C916 C 0.93751 0.98194 0.74202 0.0
H917 H 0.96512 0.90269 0.7395 0.0
C918 C 0.97957 0.01789 0.74364 0.0
C919 C 0.93218 0.93995 0.74044 0.0
C920 C 0.8878 0.90053 0.73834 0.0
C921 C 0.0165 0.01282 0.74384 0.0
C922 C 0.01109 0.97076 0.7424 0.0
C923 C 0.96907 0.93488 0.74067 0.0
C924 C 0.04866 0.96319 0.74241 0.0
C925 C 0.06109 0.05247 0.7454 0.0
C926 C 0.05933 0.94871 0.73187 0.0
C927 C 0.09233 0.93801 0.732 0.0
C928 C 0.11493 0.94098 0.74272 0.0
C929 C 0.10525 0.95704 0.75318 0.0
C930 C 0.0723 0.96798 0.75302 0.0
H931 H 0.06044 0.08331 0.74428 0.0
H932 H 0.07341 0.05216 0.75459 0.0
H933 H 0.08444 0.05196 0.7388 0.0
H934 H 0.0416 0.945 0.72358 0.0
H935 H 0.09943 0.92649 0.72373 0.0
H936 H 0.9063 0.90863 0.55028 0.0
H937 H 0.96645 0.98249 0.55396 0.0
H938 H 0.93822 0.96614 0.59209 0.0
H939 H 0.87939 0.89136 0.58851 0.0
H940 H 0.97131 0.0522 0.56206 0.0
H941 H 0.06524 0.00965 0.59352 0.0
H942 H 0.01892 0.96878 0.58524 0.0
H943 H 0.01118 0.9908 0.59908 0.0
C944 C 0.9128 0.92081 0.55945 0.0
C945 C 0.88818 0.89411 0.56911 0.0
C946 C 0.94737 0.96305 0.56156 0.0
C947 C 0.95781 0.97975 0.57335 0.0
C948 C 0.93204 0.95365 0.58296 0.0
H949 H 0.09731 0.25214 0.59118 0.0
H950 H 0.04518 0.17682 0.58622 0.0
C951 C 0.898 0.91105 0.58089 0.0
C952 C 0.99473 0.02486 0.57549 0.0
H953 H 0.08522 0.08518 0.5929 0.0
C954 C 0.9964 0.05922 0.56873 0.0
C955 C 0.02833 0.03427 0.58397 0.0
C956 C 0.03114 0.99883 0.59075 0.0
C957 C 0.02963 0.10259 0.57048 0.0
C958 C 0.06127 0.11234 0.57959 0.0
C959 C 0.06063 0.07791 0.58605 0.0
C960 C 0.09384 0.15809 0.58291 0.0
C961 C 0.03061 0.13738 0.5624 0.0
C962 C 0.13879 0.17249 0.58333 0.0
C963 C 0.16899 0.21579 0.58645 0.0
C964 C 0.15467 0.24539 0.58914 0.0
C965 C 0.10964 0.23053 0.58894 0.0
C966 C 0.07965 0.18737 0.58601 0.0
H967 H 0.01538 0.12367 0.55351 0.0
H968 H 0.01162 0.15097 0.56666 0.0
H969 H 0.06448 0.16436 0.56084 0.0
H970 H 0.15054 0.15037 0.58111 0.0
H971 H 0.20344 0.22621 0.58661 0.0
H972 H 0.15798 0.95997 0.9122 0.0
H973 H 0.13088 0.01094 0.91069 0.0
H974 H 1.00228 0.90892 0.92088 0.0
H975 H 0.02932 0.85736 0.92254 0.0
H976 H 0.06456 0.0069 0.89605 0.0
H977 H 0.02813 0.00872 0.94474 0.0
H978 H 0.06151 0.9871 0.93924 0.0
H979 H 0.00317 0.9556 0.93789 0.0
C980 C 0.12388 0.94819 0.91414 0.0
C981 C 0.09586 0.90453 0.91755 0.0
C982 C 0.10846 0.97746 0.91325 0.0
C983 C 0.06474 0.96395 0.91582 0.0
C984 C 0.03636 0.92024 0.91905 0.0
H985 H 0.92342 0.09761 0.89857 0.0
H986 H 0.95379 0.04921 0.89936 0.0
C987 C 0.05177 0.89074 0.91991 0.0
C988 C 0.04921 0.99585 0.91497 0.0
H989 H 0.0077 0.04809 0.93156 0.0
C990 C 0.0521 0.01589 0.90381 0.0
C991 C 0.03367 0.0081 0.92515 0.0
C992 C 0.0317 0.98912 0.93747 0.0
C993 C 0.0392 0.0473 0.90251 0.0
C994 C 0.02258 0.0587 0.91261 0.0
C995 C 0.02033 0.0392 0.92382 0.0
C996 C 0.00604 0.08973 0.91164 0.0
C997 C 0.04396 0.06842 0.89036 0.0
C998 C 0.0253 0.12873 0.9183 0.0
C999 C 0.00803 0.15672 0.91785 0.0
C1000 C 0.97074 0.14583 0.91086 0.0
C1001 C 0.95215 0.10711 0.90404 0.0
C1002 C 0.96956 0.07939 0.90444 0.0
H1003 H 0.06741 0.06482 0.88449 0.0
H1004 H 0.01181 0.05259 0.88575 0.0
H1005 H 0.0551 0.10368 0.89135 0.0
H1006 H 0.05345 0.13728 0.92394 0.0
H1007 H 0.02314 0.18618 0.92323 0.0
H1008 H 0.1775 0.08482 0.27123 0.0
H1009 H 0.10027 0.06393 0.27123 0.0
H1010 H 0.09792 0.05538 0.23241 0.0
H1011 H 0.1746 0.07516 0.23235 0.0
H1012 H 0.06193 0.10587 0.26135 0.0
H1013 H 0.9911 0.9417 0.24086 0.0
H1014 H 0.04647 0.97112 0.24635 0.0
H1015 H 0.0332 0.9831 0.2317 0.0
C1016 C 0.1604 0.07799 0.2627 0.0
C1017 C 0.18224 0.08147 0.25179 0.0
C1018 C 0.11625 0.06611 0.26272 0.0
C1019 C 0.093 0.05742 0.25184 0.0
C1020 C 0.11473 0.06077 0.24094 0.0
H1021 H 0.83738 0.01035 0.23038 0.0
H1022 H 0.91426 0.03022 0.23147 0.0
C1023 C 0.15874 0.07231 0.24092 0.0
C1024 C 0.04667 0.04689 0.25181 0.0
H1025 H 0.94465 0.97257 0.24178 0.0
C1026 C 0.03624 0.07652 0.25716 0.0
C1027 C 0.01304 0.00856 0.24636 0.0
C1028 C 0.02138 0.97409 0.2411 0.0
C1029 C 0.99343 0.06937 0.25695 0.0
C1030 C 0.96015 0.03155 0.25129 0.0
C1031 C 0.97038 0.00174 0.24603 0.0
C1032 C 0.91432 0.02205 0.2508 0.0
C1033 C 0.98415 0.10269 0.26256 0.0
C1034 C 0.88897 0.0111 0.26132 0.0
C1035 C 0.84499 0.99954 0.26074 0.0
C1036 C 0.82551 0.99883 0.2496 0.0
C1037 C 0.85134 0.0108 0.23911 0.0
C1038 C 0.89524 0.022 0.2397 0.0
H1039 H 0.01458 0.13376 0.26459 0.0
H1040 H 0.96344 0.10967 0.25649 0.0
H1041 H 0.96603 0.08949 0.27113 0.0
H1042 H 0.90297 0.01052 0.26996 0.0
H1043 H 0.82611 0.99053 0.26899 0.0
H1044 H 0.06976 0.22611 0.94628 0.0
H1045 H 0.1133 0.2129 0.9612 0.0
H1046 H 0.10189 0.30025 0.98605 0.0
H1047 H 0.05857 0.31352 0.97128 0.0
H1048 H 0.19682 0.28938 0.97364 0.0
H1049 H 0.06197 0.17752 0.00414 0.0
H1050 H 0.05345 0.18272 0.98829 0.0
H1051 H 0.06123 0.22499 -0.00138 0.0
C1052 C 0.07625 0.24214 0.95496 0.0
C1053 C 0.06096 0.27104 0.95758 0.0
C1054 C 0.10122 0.23473 0.96344 0.0
C1055 C 0.11059 0.25553 0.97471 0.0
C1056 C 0.09484 0.28381 0.97741 0.0
H1057 H 0.2415 0.25755 0.04067 0.0
H1058 H 0.19725 0.26453 0.02481 0.0
C1059 C 0.07036 0.29158 0.96892 0.0
C1060 C 0.13798 0.24901 0.98361 0.0
H1061 H 0.13397 0.2028 0.01094 0.0
C1062 C 0.1832 0.27015 0.98175 0.0
C1063 C 0.11997 0.22435 0.99421 0.0
C1064 C 0.07146 0.20079 0.99649 0.0
C1065 C 0.21117 0.26816 0.99041 0.0
C1066 C 0.19319 0.24335 0.00105 0.0
C1067 C 0.14778 0.2218 0.0028 0.0
C1068 C 0.22085 0.23982 0.01057 0.0
C1069 C 0.25977 0.29398 0.98825 0.0
C1070 C 0.24865 0.22334 0.00789 0.0
C1071 C 0.2742 0.21966 0.01693 0.0
C1072 C 0.27196 0.2317 0.02888 0.0
C1073 C 0.24378 0.24778 0.03157 0.0
C1074 C 0.21853 0.25184 0.02251 0.0
H1075 H 0.26857 0.32062 0.98161 0.0
H1076 H 0.27775 0.30848 -0.00323 0.0
H1077 H 0.27084 0.272 0.98458 0.0
H1078 H 0.25012 0.21269 -0.00116 0.0
H1079 H 0.29486 0.20631 0.01461 0.0
H1080 H 0.96278 0.15431 0.38223 0.0
H1081 H 0.90903 0.11538 0.36642 0.0
H1082 H 0.93841 0.23798 0.35031 0.0
H1083 H 0.99266 0.27718 0.36609 0.0
H1084 H 0.83528 0.11539 0.35925 0.0
H1085 H 0.95758 0.17582 0.32231 0.0
H1086 H 0.97288 0.1829 0.33802 0.0
H1087 H 0.95672 0.21829 0.33092 0.0
C1088 C 0.95741 0.17305 0.37543 0.0
C1089 C 0.98215 0.2189 0.37539 0.0
C1090 C 0.92679 0.15072 0.36636 0.0
C1091 C 0.92022 0.1737 0.35705 0.0
C1092 C 0.94369 0.21951 0.35723 0.0
H1093 H 0.70389 0.05009 0.30532 0.0
H1094 H 0.75254 0.09433 0.32167 0.0
C1095 C 0.97458 0.24189 0.36626 0.0
C1096 C 0.88941 0.1495 0.34707 0.0
H1097 H 0.88349 0.13366 0.31658 0.0
C1098 C 0.84577 0.11943 0.34991 0.0
C1099 C 0.90329 0.15435 0.33491 0.0
C1100 C 0.95024 0.18425 0.33133 0.0
C1101 C 0.81564 0.09407 0.34093 0.0
C1102 C 0.82931 0.09959 0.32874 0.0
C1103 C 0.87294 0.12972 0.32591 0.0
C1104 C 0.79953 0.07309 0.31882 0.0
C1105 C 0.76984 0.06065 0.34464 0.0
C1106 C 0.81025 0.04731 0.31157 0.0
C1107 C 0.78274 0.02236 0.30217 0.0
C1108 C 0.74384 0.02264 0.2998 0.0
C1109 C 0.73326 0.04868 0.30703 0.0
C1110 C 0.76099 0.0739 0.31639 0.0
H1111 H 0.76786 0.05265 0.35439 0.0
H1112 H 0.74778 0.07387 0.34292 0.0
H1113 H 0.75777 0.03008 0.33937 0.0
H1114 H 0.83979 0.04614 0.31326 0.0
H1115 H 0.79163 0.00226 0.2969 0.0
H1116 H 0.80942 0.85485 0.61064 0.0
H1117 H 0.79984 0.89507 0.62715 0.0
H1118 H 0.6769 0.78175 0.63625 0.0
H1119 H 0.68595 0.74135 0.6197 0.0
H1120 H 0.73239 0.91366 0.63189 0.0
H1121 H 0.74575 0.81257 0.6681 0.0
H1122 H 0.76162 0.81119 0.65271 0.0
H1123 H 0.70497 0.78239 0.65689 0.0
C1124 C 0.78006 0.83853 0.61604 0.0
C1125 C 0.74858 0.79464 0.61385 0.0
C1126 C 0.77475 0.86157 0.62552 0.0
C1127 C 0.73801 0.84121 0.63305 0.0
C1128 C 0.70598 0.79784 0.63072 0.0
H1129 H 0.65701 0.97246 0.68537 0.0
H1130 H 0.66035 0.93051 0.66824 0.0
C1131 C 0.71123 0.77476 0.62124 0.0
C1132 C 0.73346 0.86529 0.64341 0.0
H1133 H 0.72737 0.86544 0.67417 0.0
C1134 C 0.73122 0.90313 0.64114 0.0
C1135 C 0.73245 0.85174 0.65547 0.0
C1136 C 0.7367 0.81249 0.6585 0.0
C1137 C 0.7277 0.92762 0.65061 0.0
C1138 C 0.72585 0.91359 0.66266 0.0
C1139 C 0.72836 0.87591 0.66492 0.0
C1140 C 0.72317 0.93853 0.67309 0.0
C1141 C 0.72708 0.96889 0.64765 0.0
C1142 C 0.75684 0.95614 0.68165 0.0
C1143 C 0.75502 0.98007 0.69144 0.0
C1144 C 0.71928 0.98674 0.69294 0.0
C1145 C 0.68527 0.96852 0.68441 0.0
C1146 C 0.68714 0.94455 0.67461 0.0
H1147 H 0.73881 0.98038 0.63834 0.0
H1148 H 0.69314 0.9626 0.64838 0.0
H1149 H 0.74765 0.99534 0.65408 0.0
H1150 H 0.78495 0.95191 0.68066 0.0
H1151 H 0.78218 0.99408 0.69766 0.0
H1152 H 0.69226 0.70707 0.0156 0.0
H1153 H 0.74278 0.70703 0.00057 0.0
H1154 H 0.85176 0.80249 0.02135 0.0
H1155 H 0.80177 0.80376 0.03627 0.0
H1156 H 0.81057 0.7833 0.9872 0.0
H1157 H 0.87611 0.69926 0.01544 0.0
H1158 H 0.8249 0.69673 0.01872 0.0
H1159 H 0.87548 0.74512 0.02221 0.0
C1160 C 0.7269 0.7283 0.01699 0.0
C1161 C 0.74267 0.75529 0.02725 0.0
C1162 C 0.75575 0.7281 0.00838 0.0
C1163 C 0.80097 0.7545 0.0099 0.0
C1164 C 0.81696 0.78141 0.02009 0.0
H1165 H 0.0092 0.81682 0.9575 0.0
H1166 H 0.95995 0.82148 0.97216 0.0
C1167 C 0.78818 0.78187 0.02867 0.0
C1168 C 0.83142 0.75417 0.00076 0.0
H1169 H 0.90848 0.72444 0.99632 0.0
C1170 C 0.83206 0.77054 0.98917 0.0
C1171 C 0.8592 0.73727 0.00337 0.0
C1172 C 0.8589 0.71826 0.01557 0.0
C1173 C 0.86001 0.77063 0.98014 0.0
C1174 C 0.88799 0.75399 0.98279 0.0
C1175 C 0.88718 0.73745 0.99435 0.0
C1176 C 0.91708 0.75171 0.97353 0.0
C1177 C 0.85885 0.78766 0.96776 0.0
C1178 C 0.90932 0.71099 0.96945 0.0
C1179 C 0.93711 0.70817 0.96101 0.0
C1180 C 0.97373 0.74606 0.95654 0.0
C1181 C 0.98118 0.78695 0.96059 0.0
C1182 C 0.9531 0.78971 0.96901 0.0
H1183 H 0.83039 0.79252 0.9666 0.0
H1184 H 0.88906 0.81947 0.96634 0.0
H1185 H 0.85763 0.76484 0.96069 0.0
H1186 H 0.88161 0.68127 0.97281 0.0
H1187 H 0.92968 0.67614 0.95799 0.0
H1188 H 0.29333 0.04934 0.31487 0.0
H1189 H 0.24291 0.98858 0.3276 0.0
H1190 H 0.15919 0.92751 0.29696 0.0
H1191 H 0.20966 0.98799 0.28411 0.0
H1192 H 0.11438 0.929 0.31774 0.0
H1193 H 0.22564 0.86494 0.3278 0.0
H1194 H 0.24769 0.92183 0.33109 0.0
H1195 H 0.23586 0.90315 0.31575 0.0
C1196 C 0.26455 0.02278 0.31077 0.0
C1197 C 0.25583 0.02357 0.2984 0.0
C1198 C 0.23568 0.98805 0.31809 0.0
C1199 C 0.19758 0.95322 0.3132 0.0
C1200 C 0.18846 0.95404 0.30092 0.0
H1201 H 0.02658 0.6965 0.34176 0.0
H1202 H 0.08001 0.76091 0.33072 0.0
C1203 C 0.21731 0.98876 0.29358 0.0
C1204 C 0.1669 0.91618 0.32093 0.0
H1205 H 0.15843 0.83265 0.33833 0.0
C1206 C 0.12399 0.90795 0.32226 0.0
C1207 C 0.17943 0.88855 0.32673 0.0
C1208 C 0.22453 0.89468 0.32522 0.0
C1209 C 0.09327 0.87289 0.32927 0.0
C1210 C 0.106 0.84567 0.33523 0.0
C1211 C 0.14889 0.85384 0.33387 0.0
C1212 C 0.07461 0.80703 0.34234 0.0
C1213 C 0.04715 0.86456 0.32998 0.0
C1214 C 0.05438 0.81155 0.35271 0.0
C1215 C 0.02355 0.77463 0.35904 0.0
C1216 C 0.01241 0.73251 0.35511 0.0
C1217 C 0.03375 0.72832 0.34492 0.0
C1218 C 0.06455 0.76515 0.33863 0.0
H1219 H 0.04031 0.88232 0.32283 0.0
H1220 H 0.02323 0.82917 0.32914 0.0
H1221 H 0.04207 0.87578 0.33886 0.0
H1222 H 0.0622 0.84361 0.35586 0.0
H1223 H 0.00765 0.77907 0.3668 0.0
H1224 H 0.17233 0.97949 0.70257 0.0
H1225 H 0.18543 0.03891 0.68887 0.0
H1226 H 0.26774 0.00937 0.66686 0.0
H1227 H 0.25572 0.95053 0.6807 0.0
H1228 H 0.30437 0.09794 0.67196 0.0
H1229 H 0.13523 0.02895 0.65488 0.0
H1230 H 0.13928 0.03141 0.67104 0.0
H1231 H 0.15356 0.99654 0.66284 0.0
C1232 C 0.19347 0.98574 0.69487 0.0
C1233 C 0.21297 0.96013 0.69275 0.0
C1234 C 0.20046 0.0194 0.68695 0.0
C1235 C 0.22695 0.0281 0.67673 0.0
C1236 C 0.24683 0.00295 0.67464 0.0
H1237 H 0.25607 0.21002 0.61871 0.0
H1238 H 0.24134 0.14426 0.6299 0.0
C1239 C 0.23976 0.96918 0.68253 0.0
C1240 C 0.23526 0.06451 0.66848 0.0
H1241 H 0.1847 0.1038 0.65031 0.0
C1242 C 0.27825 0.09905 0.66715 0.0
C1243 C 0.20124 0.06566 0.66208 0.0
C1244 C 0.15477 0.02848 0.66266 0.0
C1245 C 0.28793 0.1354 0.65994 0.0
C1246 C 0.25365 0.13748 0.65399 0.0
C1247 C 0.21087 0.10228 0.65496 0.0
C1248 C 0.2615 0.17682 0.64717 0.0
C1249 C 0.3348 0.17136 0.65876 0.0
C1250 C 0.27678 0.21662 0.6532 0.0
C1251 C 0.28492 0.25404 0.64688 0.0
C1252 C 0.27795 0.25263 0.63434 0.0
C1253 C 0.26169 0.21238 0.62835 0.0
C1254 C 0.25341 0.17478 0.63472 0.0
H1255 H 0.35787 0.15984 0.66112 0.0
H1256 H 0.34192 0.18463 0.64944 0.0
H1257 H 0.34083 0.19831 0.665 0.0
H1258 H 0.28225 0.2187 0.66286 0.0
H1259 H 0.29627 0.28399 0.6519 0.0
H1260 H 0.39177 0.22484 0.11537 0.0
H1261 H 0.4136 0.24482 0.13642 0.0
H1262 H 0.2899 0.13823 0.14821 0.0
H1263 H 0.26743 0.11861 0.12736 0.0
H1264 H 0.36968 0.2674 0.15408 0.0
H1265 H 0.38033 0.12282 0.16782 0.0
H1266 H 0.38126 0.13799 0.15222 0.0
H1267 H 0.33024 0.10837 0.16015 0.0
C1268 C 0.36915 0.20567 0.12243 0.0
C1269 C 0.32783 0.16993 0.11962 0.0
C1270 C 0.38183 0.21701 0.13445 0.0
C1271 C 0.35363 0.19252 0.14383 0.0
C1272 C 0.31255 0.15689 0.14108 0.0
H1273 H 0.29069 0.22675 0.21367 0.0
H1274 H 0.30703 0.23134 0.19223 0.0
C1275 C 0.29978 0.14567 0.12912 0.0
C1276 C 0.36551 0.20509 0.15657 0.0
H1277 H 0.369 0.16232 0.1838 0.0
C1278 C 0.3705 0.24492 0.16058 0.0
C1279 C 0.3674 0.17608 0.16497 0.0
C1280 C 0.36498 0.13412 0.16106 0.0
C1281 C 0.37398 0.25497 0.17292 0.0
C1282 C 0.37176 0.22407 0.18139 0.0
C1283 C 0.37019 0.1858 0.1773 0.0
C1284 C 0.36616 0.22822 0.19447 0.0
C1285 C 0.37879 0.298 0.17677 0.0
C1286 C 0.39396 0.22493 0.20288 0.0
C1287 C 0.38456 0.22213 0.2152 0.0
C1288 C 0.34697 0.22219 0.21931 0.0
C1289 C 0.32021 0.22726 0.21087 0.0
C1290 C 0.32961 0.23002 0.19857 0.0
H1291 H 0.3952 0.3232 0.16967 0.0
H1292 H 0.34593 0.29386 0.17827 0.0
H1293 H 0.39772 0.3099 0.18527 0.0
H1294 H 0.42222 0.22325 0.19989 0.0
H1295 H 0.40616 0.21887 0.22148 0.0
H1296 H 0.10249 0.31338 0.45963 0.0
H1297 H 0.12791 0.34974 0.47915 0.0
H1298 H 0.1891 0.27305 0.48635 0.0
H1299 H 0.16446 0.23713 0.46676 0.0
H1300 H 0.10619 0.30626 0.50171 0.0
H1301 H 0.2852 0.39949 0.49436 0.0
H1302 H 0.24642 0.3786 0.48209 0.0
H1303 H 0.26001 0.34299 0.49016 0.0
C1304 C 0.12203 0.30484 0.46527 0.0
C1305 C 0.13156 0.27243 0.46166 0.0
C1306 C 0.13634 0.32549 0.47643 0.0
C1307 C 0.16084 0.31446 0.48409 0.0
C1308 C 0.17085 0.28253 0.48046 0.0
H1309 H 0.19607 0.31985 0.55967 0.0
H1310 H 0.17689 0.30426 0.53838 0.0
C1311 C 0.15635 0.26169 0.46934 0.0
C1312 C 0.1733 0.33392 0.49625 0.0
H1313 H 0.26079 0.39033 0.51487 0.0
C1314 C 0.13998 0.32517 0.50455 0.0
C1315 C 0.2174 0.35895 0.49987 0.0
C1316 C 0.25439 0.37098 0.49113 0.0
C1317 C 0.14962 0.33899 0.51657 0.0
C1318 C 0.19364 0.36183 0.52035 0.0
C1319 C 0.22705 0.3725 0.51192 0.0
C1320 C 0.20536 0.37198 0.53319 0.0
C1321 C 0.11266 0.32835 0.5252 0.0
C1322 C 0.22833 0.4153 0.53724 0.0
C1323 C 0.23947 0.42435 0.54943 0.0
C1324 C 0.22835 0.39016 0.55767 0.0
C1325 C 0.20561 0.34687 0.55351 0.0
C1326 C 0.19424 0.33789 0.54139 0.0
H1327 H 0.08221 0.32087 0.52036 0.0
H1328 H 0.10602 0.29928 0.5306 0.0
H1329 H 0.12132 0.35583 0.53152 0.0
H1330 H 0.23741 0.442 0.53099 0.0
H1331 H 0.25729 0.45797 0.55239 0.0
H1332 H 0.79125 0.14803 0.88212 0.0
H1333 H 0.77904 0.13801 0.86036 0.0
H1334 H 0.90651 0.24928 0.85397 0.0
H1335 H 0.91892 0.25971 0.87569 0.0
H1336 H 0.78162 0.19631 0.84204 0.0
H1337 H 0.90782 0.14871 0.83554 0.0
H1338 H 0.88641 0.15016 0.8502 0.0
H1339 H 0.92688 0.19983 0.84317 0.0
C1340 C 0.8165 0.17069 0.8761 0.0
C1341 C 0.85624 0.20448 0.88065 0.0
C1342 C 0.80949 0.16482 0.86367 0.0
C1343 C 0.84212 0.19253 0.8556 0.0
C1344 C 0.88127 0.22705 0.86008 0.0
H1345 H 0.88099 0.20498 0.77892 0.0
H1346 H 0.88342 0.22005 0.80049 0.0
C1347 C 0.88835 0.23289 0.8725 0.0
C1348 C 0.83576 0.18466 0.84247 0.0
H1349 H 0.87705 0.15985 0.81789 0.0
C1350 C 0.8023 0.18817 0.83673 0.0
C1351 C 0.86268 0.17377 0.83564 0.0
C1352 C 0.89772 0.16747 0.84144 0.0
C1353 C 0.79586 0.18226 0.82422 0.0
C1354 C 0.82327 0.17206 0.81738 0.0
C1355 C 0.85631 0.168 0.82317 0.0
C1356 C 0.81893 0.16577 0.80417 0.0
C1357 C 0.76058 0.18797 0.81836 0.0
C1358 C 0.7815 0.13068 0.79907 0.0
C1359 C 0.78007 0.12195 0.78672 0.0
C1360 C 0.81626 0.14794 0.77934 0.0
C1361 C 0.85293 0.18402 0.78442 0.0
C1362 C 0.85428 0.19278 0.79672 0.0
H1363 H 0.74911 0.20531 0.82437 0.0
H1364 H 0.77237 0.20639 0.80978 0.0
H1365 H 0.73229 0.15541 0.81626 0.0
H1366 H 0.75419 0.10899 0.80472 0.0
H1367 H 0.75159 0.09369 0.78307 0.0
H1368 H 0.67074 0.80145 0.21268 0.0
H1369 H 0.65437 0.78977 0.1911 0.0
H1370 H 0.62787 0.89604 0.1906 0.0
H1371 H 0.64522 0.90871 0.21208 0.0
H1372 H 0.57856 0.77691 0.17619 0.0
H1373 H 0.73419 0.93119 0.16745 0.0
H1374 H 0.72216 0.90339 0.18179 0.0
H1375 H 0.69699 0.93482 0.17779 0.0
C1376 C 0.66118 0.82217 0.208 0.0
C1377 C 0.65996 0.85644 0.21406 0.0
C1378 C 0.65141 0.81515 0.19571 0.0
C1379 C 0.64038 0.84234 0.18929 0.0
C1380 C 0.6366 0.87491 0.19543 0.0
H1381 H 0.65011 0.8919 0.11275 0.0
H1382 H 0.63407 0.88885 0.1343 0.0
C1383 C 0.64632 0.88194 0.20772 0.0
C1384 C 0.63738 0.83957 0.17601 0.0
H1385 H 0.69181 0.89373 0.15064 0.0
C1386 C 0.60308 0.80246 0.17056 0.0
C1387 C 0.66964 0.87293 0.16876 0.0
C1388 C 0.70808 0.91274 0.17419 0.0
C1389 C 0.60001 0.79807 0.15793 0.0
C1390 C 0.63259 0.8313 0.15069 0.0
C1391 C 0.66666 0.86845 0.1562 0.0
C1392 C 0.63352 0.82821 0.13738 0.0
C1393 C 0.56178 0.75824 0.15249 0.0
C1394 C 0.63725 0.79447 0.13189 0.0
C1395 C 0.64604 0.79603 0.11953 0.0
C1396 C 0.65202 0.83177 0.11258 0.0
C1397 C 0.6461 0.86429 0.11798 0.0
C1398 C 0.6368 0.86247 0.13025 0.0
H1399 H 0.53366 0.74314 0.15881 0.0
H1400 H 0.55106 0.76636 0.14395 0.0
H1401 H 0.57159 0.73366 0.15048 0.0
H1402 H 0.63587 0.76825 0.13725 0.0
H1403 H 0.65091 0.77082 0.11559 0.0
H1404 H 0.90555 0.67542 0.43278 0.0
H1405 H 0.91017 0.69658 0.45383 0.0
H1406 H 0.80734 0.56694 0.46284 0.0
H1407 H 0.80372 0.54476 0.44177 0.0
H1408 H 0.84423 0.69632 0.46678 0.0
H1409 H 0.89812 0.59029 0.48879 0.0
H1410 H 0.90145 0.59918 0.4727 0.0
H1411 H 0.85015 0.56173 0.4796 0.0
C1412 C 0.88465 0.65092 0.43923 0.0
C1413 C 0.85443 0.60818 0.43554 0.0
C1414 C 0.88709 0.66327 0.45127 0.0
C1415 C 0.85945 0.63324 0.45992 0.0
C1416 C 0.82955 0.59042 0.45635 0.0
H1417 H 0.81323 0.66636 0.53527 0.0
H1418 H 0.80981 0.63769 0.51495 0.0
C1419 C 0.82717 0.57794 0.44428 0.0
C1420 C 0.86026 0.64786 0.47248 0.0
H1421 H 0.87833 0.63101 0.50173 0.0
C1422 C 0.85182 0.68212 0.47442 0.0
C1423 C 0.86996 0.62911 0.48242 0.0
C1424 C 0.88082 0.59329 0.48081 0.0
C1425 C 0.85274 0.69813 0.48604 0.0
C1426 C 0.86282 0.67968 0.49595 0.0
C1427 C 0.87068 0.64504 0.49407 0.0
C1428 C 0.86584 0.69648 0.50832 0.0
C1429 C 0.84249 0.73438 0.48765 0.0
C1430 C 0.89886 0.73876 0.51131 0.0
C1431 C 0.90083 0.75527 0.52287 0.0
C1432 C 0.86977 0.72977 0.53165 0.0
C1433 C 0.83719 0.68707 0.52866 0.0
C1434 C 0.83537 0.67051 0.5171 0.0
H1435 H 0.82606 0.73825 0.47959 0.0
H1436 H 0.82128 0.72824 0.49565 0.0
H1437 H 0.87332 0.76558 0.48913 0.0
H1438 H 0.92293 0.7591 0.50466 0.0
H1439 H 0.92611 0.78833 0.52486 0.0
H1440 H 0.09562 0.76968 0.78616 0.0
H1441 H 0.11482 0.7767 0.80751 0.0
H1442 H 0.24374 0.88268 0.79926 0.0
H1443 H 0.22422 0.87695 0.77791 0.0
H1444 H 0.18012 0.77228 0.82015 0.0
H1445 H 0.19719 0.93694 0.82347 0.0
H1446 H 0.17306 0.90205 0.81054 0.0
H1447 H 0.23126 0.93128 0.81246 0.0
C1448 C 0.12805 0.7945 0.78888 0.0
C1449 C 0.15812 0.82314 0.78035 0.0
C1450 C 0.13909 0.79826 0.80106 0.0
C1451 C 0.18041 0.83072 0.80497 0.0
C1452 C 0.21139 0.85793 0.79644 0.0
H1453 H 0.24682 0.83415 0.88151 0.0
H1454 H 0.25286 0.83715 0.85954 0.0
C1455 C 0.20032 0.85426 0.78422 0.0
C1456 C 0.1898 0.83694 0.81806 0.0
H1457 H 0.20701 0.90699 0.84131 0.0
C1458 C 0.18651 0.80188 0.82479 0.0
C1459 C 0.19762 0.87549 0.82404 0.0
C1460 C 0.19968 0.91353 0.81731 0.0
C1461 C 0.18965 0.80383 0.83741 0.0
C1462 C 0.19713 0.84225 0.84341 0.0
C1463 C 0.20159 0.87775 0.83665 0.0
C1464 C 0.19658 0.84478 0.85672 0.0
C1465 C 0.18281 0.76401 0.84425 0.0
C1466 C 0.16414 0.85005 0.86241 0.0
C1467 C 0.16097 0.84902 0.87497 0.0
C1468 C 0.19019 0.84264 0.88208 0.0
C1469 C 0.22385 0.83925 0.87634 0.0
C1470 C 0.22709 0.84046 0.86377 0.0
H1471 H 0.16842 0.73441 0.83846 0.0
H1472 H 0.21471 0.76962 0.84763 0.0
H1473 H 0.16107 0.75765 0.85213 0.0
H1474 H 0.14048 0.85379 0.85712 0.0
H1475 H 0.13526 0.85266 0.87908 0.0
loop_
_geom_bond_atom_site_label_1
_geom_bond_atom_site_label_2
_geom_bond_distance
_geom_bond_site_symmetry_2
_ccdc_geom_bond_type
C0 C1 1.351 . S
C0 N3 1.368 . S
C0 H5 0.931 . S
C1 C0 1.351 . S
C1 N2 1.373 . S
C1 H29 0.930 . S
N2 C1 1.373 . S
N2 C4 1.340 . S
N3 C0 1.368 . S
N3 C4 1.321 . S
N3 Co6 2.135 . S
C4 N2 1.340 . S
C4 N3 1.321 . S
C4 H28 0.930 . S
H5 C0 0.931 . S
Co6 N3 2.135 . S
Co6 N9 2.121 . S
Co6 O14 2.055 . S
Co6 O17 2.039 . S
Co6 N20 2.140 . S
C7 O8 1.227 . S
C7 O17 1.265 . S
O8 C7 1.227 . S
N9 Co6 2.121 . S
N9 C11 1.375 . S
N9 C12 1.313 . S
C10 C11 1.338 . S
C10 N13 1.377 . S
C10 H30 0.930 . S
C11 N9 1.375 . S
C11 C10 1.338 . S
C11 H15 0.931 . S
C12 N9 1.313 . S
C12 N13 1.344 . S
C12 H16 0.930 . S
N13 C10 1.377 . S
N13 C12 1.344 . S
O14 Co6 2.055 . S
O14 C18 1.253 . S
H15 C11 0.931 . S
H16 C12 0.930 . S
O17 Co6 2.039 . S
O17 C7 1.265 . S
C18 O14 1.253 . S
C18 O19 1.227 . S
O19 C18 1.227 . S
N20 Co6 2.140 . S
N20 C23 1.346 . S
N20 C24 1.345 . S
C21 C22 1.387 . S
C21 C25 1.391 . S
C22 C21 1.387 . S
C22 C23 1.369 . S
C22 H31 0.929 . S
C23 N20 1.346 . S
C23 C22 1.369 . S
C23 H26 0.928 . S
C24 N20 1.345 . S
C24 C25 1.371 . S
C24 H27 0.931 . S
C25 C21 1.391 . S
C25 C24 1.371 . S
C25 H32 0.930 . S
H26 C23 0.928 . S
H27 C24 0.931 . S
H28 C4 0.930 . S
H29 C1 0.930 . S
H30 C10 0.930 . S
H31 C22 0.929 . S
H32 C25 0.930 . S
C33 C34 1.351 . S
C33 N36 1.368 . S
C33 H38 0.931 . S
C34 C33 1.351 . S
C34 N35 1.373 . S
C34 H62 0.930 . S
N35 C34 1.373 . S
N35 C37 1.340 . S
N36 C33 1.368 . S
N36 C37 1.321 . S
N36 Co39 2.135 . S
C37 N35 1.340 . S
C37 N36 1.321 . S
C37 H61 0.930 . S
H38 C33 0.931 . S
Co39 N36 2.135 . S
Co39 N42 2.121 . S
Co39 O47 2.055 . S
Co39 O50 2.039 . S
Co39 N53 2.140 . S
C40 O41 1.227 . S
C40 O50 1.265 . S
O41 C40 1.227 . S
N42 Co39 2.121 . S
N42 C44 1.375 . S
N42 C45 1.313 . S
C43 C44 1.338 . S
C43 N46 1.377 . S
C43 H63 0.930 . S
C44 N42 1.375 . S
C44 C43 1.338 . S
C44 H48 0.931 . S
C45 N42 1.313 . S
C45 N46 1.344 . S
C45 H49 0.930 . S
N46 C43 1.377 . S
N46 C45 1.344 . S
O47 Co39 2.055 . S
O47 C51 1.253 . S
H48 C44 0.931 . S
H49 C45 0.930 . S
O50 Co39 2.039 . S
O50 C40 1.265 . S
C51 O47 1.253 . S
C51 O52 1.227 . S
O52 C51 1.227 . S
N53 Co39 2.140 . S
N53 C56 1.346 . S
N53 C57 1.345 . S
C54 C55 1.387 . S
C54 C58 1.391 . S
C55 C54 1.387 . S
C55 C56 1.369 . S
C55 H64 0.929 . S
C56 N53 1.346 . S
C56 C55 1.369 . S
C56 H59 0.928 . S
C57 N53 1.345 . S
C57 C58 1.371 . S
C57 H60 0.931 . S
C58 C54 1.391 . S
C58 C57 1.371 . S
C58 H65 0.930 . S
H59 C56 0.928 . S
H60 C57 0.931 . S
H61 C37 0.930 . S
H62 C34 0.930 . S
H63 C43 0.930 . S
H64 C55 0.929 . S
H65 C58 0.930 . S
C66 C67 1.351 . S
C66 N69 1.368 . S
C66 H71 0.931 . S
C67 C66 1.351 . S
C67 N68 1.373 . S
C67 H95 0.930 . S
N68 C67 1.373 . S
N68 C70 1.340 . S
N69 C66 1.368 . S
N69 C70 1.321 . S
N69 Co72 2.135 . S
C70 N68 1.340 . S
C70 N69 1.321 . S
C70 H94 0.930 . S
H71 C66 0.931 . S
Co72 N69 2.135 . S
Co72 N75 2.121 . S
Co72 O80 2.055 . S
Co72 O83 2.039 . S
Co72 N86 2.140 . S
C73 O74 1.227 . S
C73 O83 1.265 . S
O74 C73 1.227 . S
N75 Co72 2.121 . S
N75 C77 1.375 . S
N75 C78 1.313 . S
C76 C77 1.338 . S
C76 N79 1.377 . S
C76 H96 0.930 . S
C77 N75 1.375 . S
C77 C76 1.338 . S
C77 H81 0.931 . S
C78 N75 1.313 . S
C78 N79 1.344 . S
C78 H82 0.930 . S
N79 C76 1.377 . S
N79 C78 1.344 . S
O80 Co72 2.055 . S
O80 C84 1.253 . S
H81 C77 0.931 . S
H82 C78 0.930 . S
O83 Co72 2.039 . S
O83 C73 1.265 . S
C84 O80 1.253 . S
C84 O85 1.227 . S
O85 C84 1.227 . S
N86 Co72 2.140 . S
N86 C89 1.346 . S
N86 C90 1.345 . S
C87 C88 1.387 . S
C87 C91 1.391 . S
C88 C87 1.387 . S
C88 C89 1.369 . S
C88 H97 0.929 . S
C89 N86 1.346 . S
C89 C88 1.369 . S
C89 H92 0.928 . S
C90 N86 1.345 . S
C90 C91 1.371 . S
C90 H93 0.931 . S
C91 C87 1.391 . S
C91 C90 1.371 . S
C91 H98 0.930 . S
H92 C89 0.928 . S
H93 C90 0.931 . S
H94 C70 0.930 . S
H95 C67 0.930 . S
H96 C76 0.930 . S
H97 C88 0.929 . S
H98 C91 0.930 . S
C99 C100 1.351 . S
C99 N102 1.368 . S
C99 H104 0.931 . S
C100 C99 1.351 . S
C100 N101 1.373 . S
C100 H128 0.930 . S
N101 C100 1.373 . S
N101 C103 1.340 . S
N102 C99 1.368 . S
N102 C103 1.321 . S
N102 Co105 2.135 . S
C103 N101 1.340 . S
C103 N102 1.321 . S
C103 H127 0.930 . S
H104 C99 0.931 . S
Co105 N102 2.135 . S
Co105 N108 2.121 . S
Co105 O113 2.055 . S
Co105 O116 2.039 . S
Co105 N119 2.140 . S
C106 O107 1.227 . S
C106 O116 1.265 . S
O107 C106 1.227 . S
N108 Co105 2.121 . S
N108 C110 1.375 . S
N108 C111 1.313 . S
C109 C110 1.338 . S
C109 N112 1.377 . S
C109 H129 0.930 . S
C110 N108 1.375 . S
C110 C109 1.338 . S
C110 H114 0.931 . S
C111 N108 1.313 . S
C111 N112 1.344 . S
C111 H115 0.930 . S
N112 C109 1.377 . S
N112 C111 1.344 . S
O113 Co105 2.055 . S
O113 C117 1.253 . S
H114 C110 0.931 . S
H115 C111 0.930 . S
O116 Co105 2.039 . S
O116 C106 1.265 . S
C117 O113 1.253 . S
C117 O118 1.227 . S
O118 C117 1.227 . S
N119 Co105 2.140 . S
N119 C122 1.346 . S
N119 C123 1.345 . S
C120 C121 1.387 . S
C120 C124 1.391 . S
C121 C120 1.387 . S
C121 C122 1.369 . S
C121 H130 0.929 . S
C122 N119 1.346 . S
C122 C121 1.369 . S
C122 H125 0.928 . S
C123 N119 1.345 . S
C123 C124 1.371 . S
C123 H126 0.931 . S
C124 C120 1.391 . S
C124 C123 1.371 . S
C124 H131 0.930 . S
H125 C122 0.928 . S
H126 C123 0.931 . S
H127 C103 0.930 . S
H128 C100 0.930 . S
H129 C109 0.930 . S
H130 C121 0.929 . S
H131 C124 0.930 . S
C132 C133 1.351 . S
C132 N135 1.368 . S
C132 H137 0.931 . S
C133 C132 1.351 . S
C133 N134 1.373 . S
C133 H161 0.930 . S
N134 C133 1.373 . S
N134 C136 1.340 . S
N135 C132 1.368 . S
N135 C136 1.321 . S
N135 Co138 2.135 . S
C136 N134 1.340 . S
C136 N135 1.321 . S
C136 H160 0.930 . S
H137 C132 0.931 . S
Co138 N135 2.135 . S
Co138 N141 2.121 . S
Co138 O146 2.055 . S
Co138 O149 2.039 . S
Co138 N152 2.140 . S
C139 O140 1.227 . S
C139 O149 1.265 . S
O140 C139 1.227 . S
N141 Co138 2.121 . S
N141 C143 1.375 . S
N141 C144 1.313 . S
C142 C143 1.338 . S
C142 N145 1.377 . S
C142 H162 0.930 . S
C143 N141 1.375 . S
C143 C142 1.338 . S
C143 H147 0.931 . S
C144 N141 1.313 . S
C144 N145 1.344 . S
C144 H148 0.930 . S
N145 C142 1.377 . S
N145 C144 1.344 . S
O146 Co138 2.055 . S
O146 C150 1.253 . S
H147 C143 0.931 . S
H148 C144 0.930 . S
O149 Co138 2.039 . S
O149 C139 1.265 . S
C150 O146 1.253 . S
C150 O151 1.227 . S
O151 C150 1.227 . S
N152 Co138 2.140 . S
N152 C155 1.346 . S
N152 C156 1.345 . S
C153 C154 1.387 . S
C153 C157 1.391 . S
C154 C153 1.387 . S
C154 C155 1.369 . S
C154 H163 0.929 . S
C155 N152 1.346 . S
C155 C154 1.369 . S
C155 H158 0.928 . S
C156 N152 1.345 . S
C156 C157 1.371 . S
C156 H159 0.931 . S
C157 C153 1.391 . S
C157 C156 1.371 . S
C157 H164 0.930 . S
H158 C155 0.928 . S
H159 C156 0.931 . S
H160 C136 0.930 . S
H161 C133 0.930 . S
H162 C142 0.930 . S
H163 C154 0.929 . S
H164 C157 0.930 . S
C165 C166 1.351 . S
C165 N168 1.368 . S
C165 H170 0.931 . S
C166 C165 1.351 . S
C166 N167 1.373 . S
C166 H194 0.930 . S
N167 C166 1.373 . S
N167 C169 1.340 . S
N168 C165 1.368 . S
N168 C169 1.321 . S
N168 Co171 2.135 . S
C169 N167 1.340 . S
C169 N168 1.321 . S
C169 H193 0.930 . S
H170 C165 0.931 . S
Co171 N168 2.135 . S
Co171 N174 2.121 . S
Co171 O179 2.055 . S
Co171 O182 2.039 . S
Co171 N185 2.140 . S
C172 O173 1.227 . S
C172 O182 1.265 . S
O173 C172 1.227 . S
N174 Co171 2.121 . S
N174 C176 1.375 . S
N174 C177 1.313 . S
C175 C176 1.338 . S
C175 N178 1.377 . S
C175 H195 0.930 . S
C176 N174 1.375 . S
C176 C175 1.338 . S
C176 H180 0.931 . S
C177 N174 1.313 . S
C177 N178 1.344 . S
C177 H181 0.930 . S
N178 C175 1.377 . S
N178 C177 1.344 . S
O179 Co171 2.055 . S
O179 C183 1.253 . S
H180 C176 0.931 . S
H181 C177 0.930 . S
O182 Co171 2.039 . S
O182 C172 1.265 . S
C183 O179 1.253 . S
C183 O184 1.227 . S
O184 C183 1.227 . S
N185 Co171 2.140 . S
N185 C188 1.346 . S
N185 C189 1.345 . S
C186 C187 1.387 . S
C186 C190 1.391 . S
C187 C186 1.387 . S
C187 C188 1.369 . S
C187 H196 0.929 . S
C188 N185 1.346 . S
C188 C187 1.369 . S
C188 H191 0.928 . S
C189 N185 1.345 . S
C189 C190 1.371 . S
C189 H192 0.931 . S
C190 C186 1.391 . S
C190 C189 1.371 . S
C190 H197 0.930 . S
H191 C188 0.928 . S
H192 C189 0.931 . S
H193 C169 0.930 . S
H194 C166 0.930 . S
H195 C175 0.930 . S
H196 C187 0.929 . S
H197 C190 0.930 . S
C198 C199 1.351 . S
C198 N201 1.368 . S
C198 H203 0.931 . S
C199 C198 1.351 . S
C199 N200 1.373 . S
C199 H227 0.930 . S
N200 C199 1.373 . S
N200 C202 1.340 . S
N201 C198 1.368 . S
N201 C202 1.321 . S
N201 Co204 2.135 . S
C202 N200 1.340 . S
C202 N201 1.321 . S
C202 H226 0.930 . S
H203 C198 0.931 . S
Co204 N201 2.135 . S
Co204 N207 2.121 . S
Co204 O212 2.055 . S
Co204 O215 2.039 . S
Co204 N218 2.140 . S
C205 O206 1.227 . S
C205 O215 1.265 . S
O206 C205 1.227 . S
N207 Co204 2.121 . S
N207 C209 1.375 . S
N207 C210 1.313 . S
C208 C209 1.338 . S
C208 N211 1.377 . S
C208 H228 0.930 . S
C209 N207 1.375 . S
C209 C208 1.338 . S
C209 H213 0.931 . S
C210 N207 1.313 . S
C210 N211 1.344 . S
C210 H214 0.930 . S
N211 C208 1.377 . S
N211 C210 1.344 . S
O212 Co204 2.055 . S
O212 C216 1.253 . S
H213 C209 0.931 . S
H214 C210 0.930 . S
O215 Co204 2.039 . S
O215 C205 1.265 . S
C216 O212 1.253 . S
C216 O217 1.227 . S
O217 C216 1.227 . S
N218 Co204 2.140 . S
N218 C221 1.346 . S
N218 C222 1.345 . S
C219 C220 1.387 . S
C219 C223 1.391 . S
C220 C219 1.387 . S
C220 C221 1.369 . S
C220 H229 0.929 . S
C221 N218 1.346 . S
C221 C220 1.369 . S
C221 H224 0.928 . S
C222 N218 1.345 . S
C222 C223 1.371 . S
C222 H225 0.931 . S
C223 C219 1.391 . S
C223 C222 1.371 . S
C223 H230 0.930 . S
H224 C221 0.928 . S
H225 C222 0.931 . S
H226 C202 0.930 . S
H227 C199 0.930 . S
H228 C208 0.930 . S
H229 C220 0.929 . S
H230 C223 0.930 . S
C231 C232 1.351 . S
C231 N234 1.368 . S
C231 H236 0.931 . S
C232 C231 1.351 . S
C232 N233 1.373 . S
C232 H260 0.930 . S
N233 C232 1.373 . S
N233 C235 1.340 . S
N234 C231 1.368 . S
N234 C235 1.321 . S
N234 Co237 2.135 . S
C235 N233 1.340 . S
C235 N234 1.321 . S
C235 H259 0.930 . S
H236 C231 0.931 . S
Co237 N234 2.135 . S
Co237 N240 2.121 . S
Co237 O245 2.055 . S
Co237 O248 2.039 . S
Co237 N251 2.140 . S
C238 O239 1.227 . S
C238 O248 1.265 . S
O239 C238 1.227 . S
N240 Co237 2.121 . S
N240 C242 1.375 . S
N240 C243 1.313 . S
C241 C242 1.338 . S
C241 N244 1.377 . S
C241 H261 0.930 . S
C242 N240 1.375 . S
C242 C241 1.338 . S
C242 H246 0.931 . S
C243 N240 1.313 . S
C243 N244 1.344 . S
C243 H247 0.930 . S
N244 C241 1.377 . S
N244 C243 1.344 . S
O245 Co237 2.055 . S
O245 C249 1.253 . S
H246 C242 0.931 . S
H247 C243 0.930 . S
O248 Co237 2.039 . S
O248 C238 1.265 . S
C249 O245 1.253 . S
C249 O250 1.227 . S
O250 C249 1.227 . S
N251 Co237 2.140 . S
N251 C254 1.346 . S
N251 C255 1.345 . S
C252 C253 1.387 . S
C252 C256 1.391 . S
C253 C252 1.387 . S
C253 C254 1.369 . S
C253 H262 0.929 . S
C254 N251 1.346 . S
C254 C253 1.369 . S
C254 H257 0.928 . S
C255 N251 1.345 . S
C255 C256 1.371 . S
C255 H258 0.931 . S
C256 C252 1.391 . S
C256 C255 1.371 . S
C256 H263 0.930 . S
H257 C254 0.928 . S
H258 C255 0.931 . S
H259 C235 0.930 . S
H260 C232 0.930 . S
H261 C241 0.930 . S
H262 C253 0.929 . S
H263 C256 0.930 . S
C264 C265 1.351 . S
C264 N267 1.368 . S
C264 H269 0.931 . S
C265 C264 1.351 . S
C265 N266 1.373 . S
C265 H293 0.930 . S
N266 C265 1.373 . S
N266 C268 1.340 . S
N267 C264 1.368 . S
N267 C268 1.321 . S
N267 Co270 2.135 . S
C268 N266 1.340 . S
C268 N267 1.321 . S
C268 H292 0.930 . S
H269 C264 0.931 . S
Co270 N267 2.135 . S
Co270 N273 2.121 . S
Co270 O278 2.055 . S
Co270 O281 2.039 . S
Co270 N284 2.140 . S
C271 O272 1.227 . S
C271 O281 1.265 . S
O272 C271 1.227 . S
N273 Co270 2.121 . S
N273 C275 1.375 . S
N273 C276 1.313 . S
C274 C275 1.338 . S
C274 N277 1.377 . S
C274 H294 0.930 . S
C275 N273 1.375 . S
C275 C274 1.338 . S
C275 H279 0.931 . S
C276 N273 1.313 . S
C276 N277 1.344 . S
C276 H280 0.930 . S
N277 C274 1.377 . S
N277 C276 1.344 . S
O278 Co270 2.055 . S
O278 C282 1.253 . S
H279 C275 0.931 . S
H280 C276 0.930 . S
O281 Co270 2.039 . S
O281 C271 1.265 . S
C282 O278 1.253 . S
C282 O283 1.227 . S
O283 C282 1.227 . S
N284 Co270 2.140 . S
N284 C287 1.346 . S
N284 C288 1.345 . S
C285 C286 1.387 . S
C285 C289 1.391 . S
C286 C285 1.387 . S
C286 C287 1.369 . S
C286 H295 0.929 . S
C287 N284 1.346 . S
C287 C286 1.369 . S
C287 H290 0.928 . S
C288 N284 1.345 . S
C288 C289 1.371 . S
C288 H291 0.931 . S
C289 C285 1.391 . S
C289 C288 1.371 . S
C289 H296 0.930 . S
H290 C287 0.928 . S
H291 C288 0.931 . S
H292 C268 0.930 . S
H293 C265 0.930 . S
H294 C274 0.930 . S
H295 C286 0.929 . S
H296 C289 0.930 . S
C297 C298 1.351 . S
C297 N300 1.368 . S
C297 H302 0.931 . S
C298 C297 1.351 . S
C298 N299 1.373 . S
C298 H326 0.930 . S
N299 C298 1.373 . S
N299 C301 1.340 . S
N300 C297 1.368 . S
N300 C301 1.321 . S
N300 Co303 2.135 . S
C301 N299 1.340 . S
C301 N300 1.321 . S
C301 H325 0.930 . S
H302 C297 0.931 . S
Co303 N300 2.135 . S
Co303 N306 2.121 . S
Co303 O311 2.055 . S
Co303 O314 2.039 . S
Co303 N317 2.140 . S
C304 O305 1.227 . S
C304 O314 1.265 . S
O305 C304 1.227 . S
N306 Co303 2.121 . S
N306 C308 1.375 . S
N306 C309 1.313 . S
C307 C308 1.338 . S
C307 N310 1.377 . S
C307 H327 0.930 . S
C308 N306 1.375 . S
C308 C307 1.338 . S
C308 H312 0.931 . S
C309 N306 1.313 . S
C309 N310 1.344 . S
C309 H313 0.930 . S
N310 C307 1.377 . S
N310 C309 1.344 . S
O311 Co303 2.055 . S
O311 C315 1.253 . S
H312 C308 0.931 . S
H313 C309 0.930 . S
O314 Co303 2.039 . S
O314 C304 1.265 . S
C315 O311 1.253 . S
C315 O316 1.227 . S
O316 C315 1.227 . S
N317 Co303 2.140 . S
N317 C320 1.346 . S
N317 C321 1.345 . S
C318 C319 1.387 . S
C318 C322 1.391 . S
C319 C318 1.387 . S
C319 C320 1.369 . S
C319 H328 0.929 . S
C320 N317 1.346 . S
C320 C319 1.369 . S
C320 H323 0.928 . S
C321 N317 1.345 . S
C321 C322 1.371 . S
C321 H324 0.931 . S
C322 C318 1.391 . S
C322 C321 1.371 . S
C322 H329 0.930 . S
H323 C320 0.928 . S
H324 C321 0.931 . S
H325 C301 0.930 . S
H326 C298 0.930 . S
H327 C307 0.930 . S
H328 C319 0.929 . S
H329 C322 0.930 . S
C330 C331 1.351 . S
C330 N333 1.368 . S
C330 H335 0.931 . S
C331 C330 1.351 . S
C331 N332 1.373 . S
C331 H359 0.930 . S
N332 C331 1.373 . S
N332 C334 1.340 . S
N333 C330 1.368 . S
N333 C334 1.321 . S
N333 Co336 2.135 . S
C334 N332 1.340 . S
C334 N333 1.321 . S
C334 H358 0.930 . S
H335 C330 0.931 . S
Co336 N333 2.135 . S
Co336 N339 2.121 . S
Co336 O344 2.055 . S
Co336 O347 2.039 . S
Co336 N350 2.140 . S
C337 O338 1.227 . S
C337 O347 1.265 . S
O338 C337 1.227 . S
N339 Co336 2.121 . S
N339 C341 1.375 . S
N339 C342 1.313 . S
C340 C341 1.338 . S
C340 N343 1.377 . S
C340 H360 0.930 . S
C341 N339 1.375 . S
C341 C340 1.338 . S
C341 H345 0.931 . S
C342 N339 1.313 . S
C342 N343 1.344 . S
C342 H346 0.930 . S
N343 C340 1.377 . S
N343 C342 1.344 . S
O344 Co336 2.055 . S
O344 C348 1.253 . S
H345 C341 0.931 . S
H346 C342 0.930 . S
O347 Co336 2.039 . S
O347 C337 1.265 . S
C348 O344 1.253 . S
C348 O349 1.227 . S
O349 C348 1.227 . S
N350 Co336 2.140 . S
N350 C353 1.346 . S
N350 C354 1.345 . S
C351 C352 1.387 . S
C351 C355 1.391 . S
C352 C351 1.387 . S
C352 C353 1.369 . S
C352 H361 0.929 . S
C353 N350 1.346 . S
C353 C352 1.369 . S
C353 H356 0.928 . S
C354 N350 1.345 . S
C354 C355 1.371 . S
C354 H357 0.931 . S
C355 C351 1.391 . S
C355 C354 1.371 . S
C355 H362 0.930 . S
H356 C353 0.928 . S
H357 C354 0.931 . S
H358 C334 0.930 . S
H359 C331 0.930 . S
H360 C340 0.930 . S
H361 C352 0.929 . S
H362 C355 0.930 . S
C363 C364 1.351 . S
C363 N366 1.368 . S
C363 H368 0.931 . S
C364 C363 1.351 . S
C364 N365 1.373 . S
C364 H392 0.930 . S
N365 C364 1.373 . S
N365 C367 1.340 . S
N366 C363 1.368 . S
N366 C367 1.321 . S
N366 Co369 2.135 . S
C367 N365 1.340 . S
C367 N366 1.321 . S
C367 H391 0.930 . S
H368 C363 0.931 . S
Co369 N366 2.135 . S
Co369 N372 2.121 . S
Co369 O377 2.055 . S
Co369 O380 2.039 . S
Co369 N383 2.140 . S
C370 O371 1.227 . S
C370 O380 1.265 . S
O371 C370 1.227 . S
N372 Co369 2.121 . S
N372 C374 1.375 . S
N372 C375 1.313 . S
C373 C374 1.338 . S
C373 N376 1.377 . S
C373 H393 0.930 . S
C374 N372 1.375 . S
C374 C373 1.338 . S
C374 H378 0.931 . S
C375 N372 1.313 . S
C375 N376 1.344 . S
C375 H379 0.930 . S
N376 C373 1.377 . S
N376 C375 1.344 . S
O377 Co369 2.055 . S
O377 C381 1.253 . S
H378 C374 0.931 . S
H379 C375 0.930 . S
O380 Co369 2.039 . S
O380 C370 1.265 . S
C381 O377 1.253 . S
C381 O382 1.227 . S
O382 C381 1.227 . S
N383 Co369 2.140 . S
N383 C386 1.346 . S
N383 C387 1.345 . S
C384 C385 1.387 . S
C384 C388 1.391 . S
C385 C384 1.387 . S
C385 C386 1.369 . S
C385 H394 0.929 . S
C386 N383 1.346 . S
C386 C385 1.369 . S
C386 H389 0.928 . S
C387 N383 1.345 . S
C387 C388 1.371 . S
C387 H390 0.931 . S
C388 C384 1.391 . S
C388 C387 1.371 . S
C388 H395 0.930 . S
H389 C386 0.928 . S
H390 C387 0.931 . S
H391 C367 0.930 . S
H392 C364 0.930 . S
H393 C373 0.930 . S
H394 C385 0.929 . S
H395 C388 0.930 . S
H396 C404 0.929 . S
H397 C406 0.930 . S
H398 C408 0.930 . S
H399 C411 0.929 . S
H400 C414 0.930 . S
H401 C416 0.960 . S
H402 C416 0.960 . S
H403 C416 0.960 . S
C404 H396 0.929 . S
C404 C405 1.377 . S
C404 C406 1.384 . S
C405 C404 1.377 . S
C405 C411 1.390 . S
C406 H397 0.930 . S
C406 C404 1.384 . S
C406 C407 1.372 . S
C407 C406 1.372 . S
C407 C408 1.400 . S
C407 C412 1.490 . S
C408 H398 0.930 . S
C408 C407 1.400 . S
C408 C411 1.386 . S
H409 C425 0.930 . S
H410 C426 0.931 . S
C411 H399 0.929 . S
C411 C405 1.390 . S
C411 C408 1.386 . S
C412 C407 1.490 . S
C412 C414 1.395 . S
C412 C415 1.403 . S
H413 C419 0.930 . S
C414 H400 0.930 . S
C414 C412 1.395 . S
C414 C417 1.403 . S
C415 C412 1.403 . S
C415 C416 1.524 . S
C415 C419 1.400 . S
C416 H401 0.960 . S
C416 H402 0.960 . S
C416 H403 0.960 . S
C416 C415 1.524 . S
C417 C414 1.403 . S
C417 C418 1.392 . S
C417 C421 1.495 . S
C418 C417 1.392 . S
C418 C419 1.385 . S
C418 C420 1.478 . S
C419 H413 0.930 . S
C419 C415 1.400 . S
C419 C418 1.385 . S
C420 C418 1.478 . S
C420 C422 1.381 . S
C420 C426 1.383 . S
C421 C417 1.495 . S
C421 H427 0.959 . S
C421 H428 0.961 . S
C421 H429 0.960 . S
C422 C420 1.381 . S
C422 C423 1.394 . S
C422 H430 0.930 . S
C423 C422 1.394 . S
C423 C424 1.383 . S
C423 H431 0.929 . S
C424 C423 1.383 . S
C424 C425 1.377 . S
C425 H409 0.930 . S
C425 C424 1.377 . S
C425 C426 1.379 . S
C426 H410 0.931 . S
C426 C420 1.383 . S
C426 C425 1.379 . S
H427 C421 0.959 . S
H428 C421 0.961 . S
H429 C421 0.960 . S
H430 C422 0.930 . S
H431 C423 0.929 . S
H432 C440 0.929 . S
H433 C442 0.930 . S
H434 C444 0.930 . S
H435 C447 0.929 . S
H436 C450 0.930 . S
H437 C452 0.960 . S
H438 C452 0.960 . S
H439 C452 0.960 . S
C440 H432 0.929 . S
C440 C441 1.377 . S
C440 C442 1.384 . S
C441 C440 1.377 . S
C441 C447 1.390 . S
C442 H433 0.930 . S
C442 C440 1.384 . S
C442 C443 1.372 . S
C443 C442 1.372 . S
C443 C444 1.400 . S
C443 C448 1.490 . S
C444 H434 0.930 . S
C444 C443 1.400 . S
C444 C447 1.386 . S
H445 C461 0.930 . S
H446 C462 0.931 . S
C447 H435 0.929 . S
C447 C441 1.390 . S
C447 C444 1.386 . S
C448 C443 1.490 . S
C448 C450 1.395 1_455 S
C448 C451 1.403 . S
H449 C455 0.930 . S
C450 H436 0.930 . S
C450 C448 1.395 1_655 S
C450 C453 1.403 . S
C451 C448 1.403 . S
C451 C452 1.524 . S
C451 C455 1.400 . S
C452 H437 0.960 . S
C452 H438 0.960 . S
C452 H439 0.960 . S
C452 C451 1.524 . S
C453 C450 1.403 . S
C453 C454 1.392 . S
C453 C457 1.495 . S
C454 C453 1.392 . S
C454 C455 1.385 1_655 S
C454 C456 1.478 . S
C455 H449 0.930 . S
C455 C451 1.400 . S
C455 C454 1.385 1_455 S
C456 C454 1.478 . S
C456 C458 1.381 . S
C456 C462 1.383 . S
C457 C453 1.495 . S
C457 H463 0.959 . S
C457 H464 0.961 . S
C457 H465 0.960 . S
C458 C456 1.381 . S
C458 C459 1.394 . S
C458 H466 0.930 . S
C459 C458 1.394 . S
C459 C460 1.383 . S
C459 H467 0.929 . S
C460 C459 1.383 . S
C460 C461 1.377 . S
C461 H445 0.930 . S
C461 C460 1.377 . S
C461 C462 1.379 . S
C462 H446 0.931 . S
C462 C456 1.383 . S
C462 C461 1.379 . S
H463 C457 0.959 . S
H464 C457 0.961 . S
H465 C457 0.960 . S
H466 C458 0.930 . S
H467 C459 0.929 . S
H468 C476 0.929 . S
H469 C478 0.930 . S
H470 C480 0.930 . S
H471 C483 0.929 . S
H472 C486 0.930 . S
H473 C488 0.960 . S
H474 C488 0.960 . S
H475 C488 0.960 . S
C476 H468 0.929 . S
C476 C477 1.377 . S
C476 C478 1.384 . S
C477 C476 1.377 . S
C477 C483 1.390 . S
C478 H469 0.930 . S
C478 C476 1.384 . S
C478 C479 1.372 . S
C479 C478 1.372 . S
C479 C480 1.400 . S
C479 C484 1.490 . S
C480 H470 0.930 . S
C480 C479 1.400 . S
C480 C483 1.386 . S
H481 C497 0.930 . S
H482 C498 0.931 . S
C483 H471 0.929 . S
C483 C477 1.390 . S
C483 C480 1.386 . S
C484 C479 1.490 . S
C484 C486 1.395 . S
C484 C487 1.403 1_545 S
H485 C491 0.930 . S
C486 H472 0.930 . S
C486 C484 1.395 . S
C486 C489 1.403 . S
C487 C484 1.403 1_565 S
C487 C488 1.524 . S
C487 C491 1.400 . S
C488 H473 0.960 . S
C488 H474 0.960 . S
C488 H475 0.960 . S
C488 C487 1.524 . S
C489 C486 1.403 . S
C489 C490 1.392 1_545 S
C489 C493 1.495 . S
C490 C489 1.392 1_565 S
C490 C491 1.385 . S
C490 C492 1.478 . S
C491 H485 0.930 . S
C491 C487 1.400 . S
C491 C490 1.385 . S
C492 C490 1.478 . S
C492 C494 1.381 . S
C492 C498 1.383 . S
C493 C489 1.495 . S
C493 H499 0.959 . S
C493 H500 0.961 . S
C493 H501 0.960 . S
C494 C492 1.381 . S
C494 C495 1.394 . S
C494 H502 0.930 . S
C495 C494 1.394 . S
C495 C496 1.383 . S
C495 H503 0.929 . S
C496 C495 1.383 . S
C496 C497 1.377 . S
C497 H481 0.930 . S
C497 C496 1.377 . S
C497 C498 1.379 . S
C498 H482 0.931 . S
C498 C492 1.383 . S
C498 C497 1.379 . S
H499 C493 0.959 . S
H500 C493 0.961 . S
H501 C493 0.960 . S
H502 C494 0.930 . S
H503 C495 0.929 . S
H504 C512 0.929 . S
H505 C514 0.930 . S
H506 C516 0.930 . S
H507 C519 0.929 . S
H508 C522 0.930 . S
H509 C524 0.960 . S
H510 C524 0.960 . S
H511 C524 0.960 . S
C512 H504 0.929 . S
C512 C513 1.377 . S
C512 C514 1.384 . S
C513 C512 1.377 . S
C513 C519 1.390 . S
C514 H505 0.930 . S
C514 C512 1.384 . S
C514 C515 1.372 . S
C515 C514 1.372 . S
C515 C516 1.400 . S
C515 C520 1.490 . S
C516 H506 0.930 . S
C516 C515 1.400 . S
C516 C519 1.386 . S
H517 C533 0.930 . S
H518 C534 0.931 . S
C519 H507 0.929 . S
C519 C513 1.390 . S
C519 C516 1.386 . S
C520 C515 1.490 . S
C520 C522 1.395 . S
C520 C523 1.403 . S
H521 C527 0.930 . S
C522 H508 0.930 . S
C522 C520 1.395 . S
C522 C525 1.403 . S
C523 C520 1.403 . S
C523 C524 1.524 . S
C523 C527 1.400 . S
C524 H509 0.960 . S
C524 H510 0.960 . S
C524 H511 0.960 . S
C524 C523 1.524 . S
C525 C522 1.403 . S
C525 C526 1.392 . S
C525 C529 1.495 . S
C526 C525 1.392 . S
C526 C527 1.385 . S
C526 C528 1.478 . S
C527 H521 0.930 . S
C527 C523 1.400 . S
C527 C526 1.385 . S
C528 C526 1.478 . S
C528 C530 1.381 . S
C528 C534 1.383 . S
C529 C525 1.495 . S
C529 H535 0.959 . S
C529 H536 0.961 . S
C529 H537 0.960 . S
C530 C528 1.381 . S
C530 C531 1.394 . S
C530 H538 0.930 . S
C531 C530 1.394 . S
C531 C532 1.383 . S
C531 H539 0.929 . S
C532 C531 1.383 . S
C532 C533 1.377 . S
C533 H517 0.930 . S
C533 C532 1.377 . S
C533 C534 1.379 . S
C534 H518 0.931 . S
C534 C528 1.383 . S
C534 C533 1.379 . S
H535 C529 0.959 . S
H536 C529 0.961 . S
H537 C529 0.960 . S
H538 C530 0.930 . S
H539 C531 0.929 . S
H540 C548 0.929 . S
H541 C550 0.928 . S
H542 C552 0.930 . S
H543 C555 0.929 . S
H544 C558 0.930 . S
H545 C560 0.960 . S
H546 C560 0.960 . S
H547 C560 0.960 . S
C548 H540 0.929 . S
C548 C549 1.377 . S
C548 C550 1.384 . S
C549 C548 1.377 . S
C549 C555 1.390 . S
C550 H541 0.928 . S
C550 C548 1.384 . S
C550 C551 1.372 . S
C551 C550 1.372 . S
C551 C552 1.400 . S
C551 C556 1.490 . S
C552 H542 0.930 . S
C552 C551 1.400 . S
C552 C555 1.386 . S
H553 C569 0.930 . S
H554 C570 0.931 . S
C555 H543 0.929 . S
C555 C549 1.390 . S
C555 C552 1.386 . S
C556 C551 1.490 . S
C556 C558 1.395 1_655 S
C556 C559 1.403 . S
H557 C563 0.930 . S
C558 H544 0.930 . S
C558 C556 1.395 1_455 S
C558 C561 1.403 . S
C559 C556 1.403 . S
C559 C560 1.524 . S
C559 C563 1.400 . S
C560 H545 0.960 . S
C560 H546 0.960 . S
C560 H547 0.960 . S
C560 C559 1.524 . S
C561 C558 1.403 . S
C561 C562 1.392 . S
C561 C565 1.495 . S
C562 C561 1.392 . S
C562 C563 1.385 1_455 S
C562 C564 1.478 . S
C563 H557 0.930 . S
C563 C559 1.400 . S
C563 C562 1.385 1_655 S
C564 C562 1.478 . S
C564 C566 1.381 . S
C564 C570 1.383 . S
C565 C561 1.495 . S
C565 H571 0.959 . S
C565 H572 0.961 . S
C565 H573 0.960 . S
C566 C564 1.381 . S
C566 C567 1.394 . S
C566 H574 0.930 . S
C567 C566 1.394 . S
C567 C568 1.383 . S
C567 H575 0.929 . S
C568 C567 1.383 . S
C568 C569 1.377 . S
C569 H553 0.930 . S
C569 C568 1.377 . S
C569 C570 1.379 . S
C570 H554 0.931 . S
C570 C564 1.383 . S
C570 C569 1.379 . S
H571 C565 0.959 . S
H572 C565 0.961 . S
H573 C565 0.960 . S
H574 C566 0.930 . S
H575 C567 0.929 . S
H576 C584 0.929 . S
H577 C586 0.930 . S
H578 C588 0.930 . S
H579 C591 0.929 . S
H580 C594 0.930 . S
H581 C596 0.960 . S
H582 C596 0.960 . S
H583 C596 0.960 . S
C584 H576 0.929 . S
C584 C585 1.377 . S
C584 C586 1.384 . S
C585 C584 1.377 . S
C585 C591 1.390 . S
C586 H577 0.930 . S
C586 C584 1.384 . S
C586 C587 1.372 . S
C587 C586 1.372 . S
C587 C588 1.400 . S
C587 C592 1.490 . S
C588 H578 0.930 . S
C588 C587 1.400 . S
C588 C591 1.386 . S
H589 C605 0.930 . S
H590 C606 0.931 . S
C591 H579 0.929 . S
C591 C585 1.390 . S
C591 C588 1.386 . S
C592 C587 1.490 . S
C592 C594 1.395 1_565 S
C592 C595 1.403 . S
H593 C599 0.930 . S
C594 H580 0.930 . S
C594 C592 1.395 1_545 S
C594 C597 1.403 . S
C595 C592 1.403 . S
C595 C596 1.524 . S
C595 C599 1.400 . S
C596 H581 0.960 . S
C596 H582 0.960 . S
C596 H583 0.960 . S
C596 C595 1.524 . S
C597 C594 1.403 . S
C597 C598 1.392 . S
C597 C601 1.495 . S
C598 C597 1.392 . S
C598 C599 1.385 1_545 S
C598 C600 1.478 . S
C599 H593 0.930 . S
C599 C595 1.400 . S
C599 C598 1.385 1_565 S
C600 C598 1.478 . S
C600 C602 1.381 . S
C600 C606 1.383 . S
C601 C597 1.495 . S
C601 H607 0.959 . S
C601 H608 0.961 . S
C601 H609 0.960 . S
C602 C600 1.381 . S
C602 C603 1.394 . S
C602 H610 0.930 . S
C603 C602 1.394 . S
C603 C604 1.383 . S
C603 H611 0.929 . S
C604 C603 1.383 . S
C604 C605 1.377 . S
C605 H589 0.930 . S
C605 C604 1.377 . S
C605 C606 1.379 . S
C606 H590 0.931 . S
C606 C600 1.383 . S
C606 C605 1.379 . S
H607 C601 0.959 . S
H608 C601 0.961 . S
H609 C601 0.960 . S
H610 C602 0.930 . S
H611 C603 0.929 . S
H612 C620 0.929 . S
H613 C622 0.930 . S
H614 C624 0.930 . S
H615 C627 0.929 . S
H616 C630 0.930 . S
H617 C632 0.960 . S
H618 C632 0.960 . S
H619 C632 0.960 . S
C620 H612 0.929 . S
C620 C621 1.377 . S
C620 C622 1.384 . S
C621 C620 1.377 . S
C621 C627 1.390 . S
C622 H613 0.930 . S
C622 C620 1.384 . S
C622 C623 1.372 . S
C623 C622 1.372 . S
C623 C624 1.400 . S
C623 C628 1.490 . S
C624 H614 0.930 . S
C624 C623 1.400 . S
C624 C627 1.386 . S
H625 C641 0.930 . S
H626 C642 0.931 . S
C627 H615 0.929 . S
C627 C621 1.390 . S
C627 C624 1.386 . S
C628 C623 1.490 . S
C628 C630 1.395 . S
C628 C631 1.403 1_565 S
H629 C635 0.930 . S
C630 H616 0.930 . S
C630 C628 1.395 . S
C630 C633 1.403 1_556 S
C631 C628 1.403 1_545 S
C631 C632 1.524 . S
C631 C635 1.400 1_556 S
C632 H617 0.960 . S
C632 H618 0.960 . S
C632 H619 0.960 . S
C632 C631 1.524 . S
C633 C630 1.403 1_554 S
C633 C634 1.392 1_565 S
C633 C637 1.495 . S
C634 C633 1.392 1_545 S
C634 C635 1.385 . S
C634 C636 1.478 . S
C635 H629 0.930 . S
C635 C631 1.400 1_554 S
C635 C634 1.385 . S
C636 C634 1.478 . S
C636 C638 1.381 . S
C636 C642 1.383 . S
C637 C633 1.495 . S
C637 H643 0.959 . S
C637 H644 0.961 . S
C637 H645 0.960 . S
C638 C636 1.381 . S
C638 C639 1.394 . S
C638 H646 0.930 . S
C639 C638 1.394 . S
C639 C640 1.383 . S
C639 H647 0.929 . S
C640 C639 1.383 . S
C640 C641 1.377 . S
C641 H625 0.930 . S
C641 C640 1.377 . S
C641 C642 1.379 . S
C642 H626 0.931 . S
C642 C636 1.383 . S
C642 C641 1.379 . S
H643 C637 0.959 . S
H644 C637 0.961 . S
H645 C637 0.960 . S
H646 C638 0.930 . S
H647 C639 0.929 . S
H648 C656 0.929 . S
H649 C658 0.930 . S
H650 C660 0.930 . S
H651 C663 0.929 . S
H652 C666 0.930 . S
H653 C668 0.960 . S
H654 C668 0.960 . S
H655 C668 0.960 . S
C656 H648 0.929 . S
C656 C657 1.377 . S
C656 C658 1.384 . S
C657 C656 1.377 . S
C657 C663 1.390 . S
C658 H649 0.930 . S
C658 C656 1.384 . S
C658 C659 1.372 . S
C659 C658 1.372 . S
C659 C660 1.400 . S
C659 C664 1.490 . S
C660 H650 0.930 . S
C660 C659 1.400 . S
C660 C663 1.386 . S
H661 C677 0.930 . S
H662 C678 0.931 . S
C663 H651 0.929 . S
C663 C657 1.390 . S
C663 C660 1.386 . S
C664 C659 1.490 . S
C664 C666 1.395 . S
C664 C667 1.403 . S
H665 C671 0.930 . S
C666 H652 0.930 . S
C666 C664 1.395 . S
C666 C669 1.403 . S
C667 C664 1.403 . S
C667 C668 1.524 . S
C667 C671 1.400 . S
C668 H653 0.960 . S
C668 H654 0.960 . S
C668 H655 0.960 . S
C668 C667 1.524 . S
C669 C666 1.403 . S
C669 C670 1.392 . S
C669 C673 1.495 . S
C670 C669 1.392 . S
C670 C671 1.385 . S
C670 C672 1.478 . S
C671 H665 0.930 . S
C671 C667 1.400 . S
C671 C670 1.385 . S
C672 C670 1.478 . S
C672 C674 1.381 . S
C672 C678 1.383 . S
C673 C669 1.495 . S
C673 H679 0.959 . S
C673 H680 0.961 . S
C673 H681 0.960 . S
C674 C672 1.381 . S
C674 C675 1.394 . S
C674 H682 0.930 . S
C675 C674 1.394 . S
C675 C676 1.383 . S
C675 H683 0.929 . S
C676 C675 1.383 . S
C676 C677 1.377 . S
C677 H661 0.930 . S
C677 C676 1.377 . S
C677 C678 1.379 . S
C678 H662 0.931 . S
C678 C672 1.383 . S
C678 C677 1.379 . S
H679 C673 0.959 . S
H680 C673 0.961 . S
H681 C673 0.960 . S
H682 C674 0.930 . S
H683 C675 0.929 . S
H684 C692 0.929 . S
H685 C694 0.930 . S
H686 C696 0.930 . S
H687 C699 0.929 . S
H688 C702 0.930 . S
H689 C704 0.960 . S
H690 C704 0.960 . S
H691 C704 0.960 . S
C692 H684 0.929 . S
C692 C693 1.377 . S
C692 C694 1.384 . S
C693 C692 1.377 . S
C693 C699 1.390 . S
C694 H685 0.930 . S
C694 C692 1.384 . S
C694 C695 1.372 . S
C695 C694 1.372 . S
C695 C696 1.400 . S
C695 C700 1.490 . S
C696 H686 0.930 . S
C696 C695 1.400 . S
C696 C699 1.386 . S
H697 C713 0.930 . S
H698 C714 0.931 . S
C699 H687 0.929 . S
C699 C693 1.390 . S
C699 C696 1.386 . S
C700 C695 1.490 . S
C700 C702 1.395 . S
C700 C703 1.403 . S
H701 C707 0.930 . S
C702 H688 0.930 . S
C702 C700 1.395 . S
C702 C705 1.403 1_455 S
C703 C700 1.403 . S
C703 C704 1.524 . S
C703 C707 1.400 1_455 S
C704 H689 0.960 . S
C704 H690 0.960 . S
C704 H691 0.960 . S
C704 C703 1.524 . S
C705 C702 1.403 1_655 S
C705 C706 1.392 . S
C705 C709 1.495 . S
C706 C705 1.392 . S
C706 C707 1.385 . S
C706 C708 1.478 . S
C707 H701 0.930 . S
C707 C703 1.400 1_655 S
C707 C706 1.385 . S
C708 C706 1.478 . S
C708 C710 1.381 . S
C708 C714 1.383 . S
C709 C705 1.495 . S
C709 H715 0.959 . S
C709 H716 0.961 . S
C709 H717 0.960 . S
C710 C708 1.381 . S
C710 C711 1.394 . S
C710 H718 0.942 . S
C711 C710 1.394 . S
C711 C712 1.383 . S
C711 H719 0.929 . S
C712 C711 1.383 . S
C712 C713 1.377 . S
C713 H697 0.930 . S
C713 C712 1.377 . S
C713 C714 1.379 . S
C714 H698 0.931 . S
C714 C708 1.383 . S
C714 C713 1.379 . S
H715 C709 0.959 . S
H716 C709 0.961 . S
H717 C709 0.960 . S
H718 C710 0.942 . S
H719 C711 0.929 . S
H720 C728 0.929 . S
H721 C730 0.930 . S
H722 C732 0.930 . S
H723 C735 0.929 . S
H724 C738 0.930 . S
H725 C740 0.960 . S
H726 C740 0.960 1_554 S
H727 C740 0.960 1_554 S
C728 H720 0.929 . S
C728 C729 1.377 . S
C728 C730 1.384 . S
C729 C728 1.377 . S
C729 C735 1.390 . S
C730 H721 0.930 . S
C730 C728 1.384 . S
C730 C731 1.372 . S
C731 C730 1.372 . S
C731 C732 1.400 . S
C731 C736 1.490 . S
C732 H722 0.930 . S
C732 C731 1.400 . S
C732 C735 1.386 . S
H733 C749 0.930 . S
H734 C750 0.931 . S
C735 H723 0.929 . S
C735 C729 1.390 . S
C735 C732 1.386 . S
C736 C731 1.490 . S
C736 C738 1.395 1_565 S
C736 C739 1.397 . S
H737 C743 0.930 . S
C738 H724 0.930 . S
C738 C736 1.395 1_545 S
C738 C741 1.474 . S
C739 C736 1.397 . S
C739 C740 1.524 1_554 S
C739 C743 1.406 1_554 S
C740 H725 0.960 . S
C740 H726 0.960 1_556 S
C740 H727 0.960 1_556 S
C740 C739 1.524 1_556 S
C741 C738 1.474 . S
C741 C742 1.319 1_554 S
C741 C745 1.503 . S
C742 C741 1.319 1_556 S
C742 C743 1.385 1_545 S
C742 C744 1.478 . S
C743 H737 0.930 . S
C743 C739 1.406 1_556 S
C743 C742 1.385 1_565 S
C744 C742 1.478 . S
C744 C746 1.381 . S
C744 C750 1.383 . S
C745 C741 1.503 . S
C745 H751 0.959 . S
C745 H752 0.946 1_554 S
C745 H753 0.960 1_554 S
C746 C744 1.381 . S
C746 C747 1.394 . S
C746 H754 0.930 . S
C747 C746 1.394 . S
C747 C748 1.383 . S
C747 H755 0.929 . S
C748 C747 1.383 . S
C748 C749 1.377 . S
C749 H733 0.930 . S
C749 C748 1.377 . S
C749 C750 1.379 . S
C750 H734 0.931 . S
C750 C744 1.383 . S
C750 C749 1.379 . S
H751 C745 0.959 . S
H752 C745 0.946 1_556 S
H753 C745 0.960 1_556 S
H754 C746 0.930 . S
H755 C747 0.929 . S
H756 C764 0.929 . S
H757 C766 0.930 . S
H758 C768 0.930 . S
H759 C771 0.929 . S
H760 C774 0.930 . S
H761 C776 0.960 . S
H762 C776 0.960 . S
H763 C776 0.960 . S
C764 H756 0.929 . S
C764 C765 1.377 . S
C764 C766 1.384 . S
C765 C764 1.377 . S
C765 C771 1.390 . S
C766 H757 0.930 . S
C766 C764 1.384 . S
C766 C767 1.372 . S
C767 C766 1.372 . S
C767 C768 1.400 . S
C767 C772 1.490 . S
C768 H758 0.930 . S
C768 C767 1.400 . S
C768 C771 1.386 . S
H769 C785 0.930 . S
H770 C786 0.931 . S
C771 H759 0.929 . S
C771 C765 1.390 . S
C771 C768 1.386 . S
C772 C767 1.490 . S
C772 C774 1.395 . S
C772 C775 1.403 . S
H773 C779 0.930 . S
C774 H760 0.930 . S
C774 C772 1.395 . S
C774 C777 1.403 . S
C775 C772 1.403 . S
C775 C776 1.524 . S
C775 C779 1.400 . S
C776 H761 0.960 . S
C776 H762 0.960 . S
C776 H763 0.960 . S
C776 C775 1.524 . S
C777 C774 1.403 . S
C777 C778 1.392 . S
C777 C781 1.495 . S
C778 C777 1.392 . S
C778 C779 1.385 . S
C778 C780 1.478 . S
C779 H773 0.930 . S
C779 C775 1.400 . S
C779 C778 1.385 . S
C780 C778 1.478 . S
C780 C782 1.381 . S
C780 C786 1.383 . S
C781 C777 1.495 . S
C781 H787 0.959 . S
C781 H788 0.961 . S
C781 H789 0.960 . S
C782 C780 1.381 . S
C782 C783 1.394 . S
C782 H790 0.930 . S
C783 C782 1.394 . S
C783 C784 1.383 . S
C783 H791 0.929 . S
C784 C783 1.383 . S
C784 C785 1.377 . S
C785 H769 0.930 . S
C785 C784 1.377 . S
C785 C786 1.379 . S
C786 H770 0.931 . S
C786 C780 1.383 . S
C786 C785 1.379 . S
H787 C781 0.959 . S
H788 C781 0.961 . S
H789 C781 0.960 . S
H790 C782 0.930 . S
H791 C783 0.929 . S
H792 C800 0.929 . S
H793 C802 0.941 . S
H794 C804 0.930 . S
H795 C807 0.929 . S
H796 C810 0.930 . S
H797 C812 0.960 . S
H798 C812 0.960 . S
H799 C812 0.960 . S
C800 H792 0.929 . S
C800 C801 1.377 . S
C800 C802 1.384 . S
C801 C800 1.377 . S
C801 C807 1.390 . S
C802 H793 0.941 . S
C802 C800 1.384 . S
C802 C803 1.372 . S
C803 C802 1.372 . S
C803 C804 1.400 . S
C803 C808 1.490 . S
C804 H794 0.930 . S
C804 C803 1.400 . S
C804 C807 1.386 . S
H805 C821 0.930 . S
H806 C822 0.931 1_455 S
C807 H795 0.929 . S
C807 C801 1.390 . S
C807 C804 1.386 . S
C808 C803 1.490 . S
C808 C810 1.395 . S
C808 C811 1.403 . S
H809 C815 0.930 . S
C810 H796 0.930 . S
C810 C808 1.395 . S
C810 C813 1.403 1_455 S
C811 C808 1.403 . S
C811 C812 1.524 . S
C811 C815 1.400 1_455 S
C812 H797 0.960 . S
C812 H798 0.960 . S
C812 H799 0.960 . S
C812 C811 1.524 . S
C813 C810 1.403 1_655 S
C813 C814 1.392 . S
C813 C817 1.495 . S
C814 C813 1.392 . S
C814 C815 1.385 . S
C814 C816 1.478 . S
C815 H809 0.930 . S
C815 C811 1.400 1_655 S
C815 C814 1.385 . S
C816 C814 1.478 . S
C816 C818 1.381 . S
C816 C822 1.383 . S
C817 C813 1.495 . S
C817 H823 0.959 . S
C817 H824 0.961 . S
C817 H825 0.960 . S
C818 C816 1.381 . S
C818 C819 1.394 . S
C818 H826 0.930 . S
C819 C818 1.394 . S
C819 C820 1.383 . S
C819 H827 0.929 . S
C820 C819 1.383 . S
C820 C821 1.377 . S
C821 H805 0.930 . S
C821 C820 1.377 . S
C821 C822 1.379 . S
C822 H806 0.931 1_655 S
C822 C816 1.383 . S
C822 C821 1.379 . S
H823 C817 0.959 . S
H824 C817 0.961 . S
H825 C817 0.960 . S
H826 C818 0.930 . S
H827 C819 0.929 . S
H828 C836 0.929 . S
H829 C838 0.930 . S
H830 C840 0.930 . S
H831 C843 0.929 . S
H832 C846 0.930 . S
H833 C848 0.960 . S
H834 C848 0.960 . S
H835 C848 0.960 . S
C836 H828 0.929 . S
C836 C837 1.377 . S
C836 C838 1.384 . S
C837 C836 1.377 . S
C837 C843 1.390 . S
C838 H829 0.930 . S
C838 C836 1.384 . S
C838 C839 1.372 . S
C839 C838 1.372 . S
C839 C840 1.400 . S
C839 C844 1.490 . S
C840 H830 0.930 . S
C840 C839 1.400 . S
C840 C843 1.386 . S
H841 C857 0.930 . S
H842 C858 0.931 . S
C843 H831 0.929 . S
C843 C837 1.390 . S
C843 C840 1.386 . S
C844 C839 1.490 . S
C844 C846 1.395 . S
C844 C847 1.403 1_545 S
H845 C851 0.930 . S
C846 H832 0.930 . S
C846 C844 1.395 . S
C846 C849 1.403 1_455 S
C847 C844 1.403 1_565 S
C847 C848 1.524 . S
C847 C851 1.400 1_455 S
C848 H833 0.960 . S
C848 H834 0.960 . S
C848 H835 0.960 . S
C848 C847 1.524 . S
C849 C846 1.403 1_655 S
C849 C850 1.392 1_545 S
C849 C853 1.495 . S
C850 C849 1.392 1_565 S
C850 C851 1.385 . S
C850 C852 1.478 . S
C851 H845 0.930 . S
C851 C847 1.400 1_655 S
C851 C850 1.385 . S
C852 C850 1.478 . S
C852 C854 1.381 . S
C852 C858 1.383 . S
C853 C849 1.495 . S
C853 H859 0.959 . S
C853 H860 0.961 . S
C853 H861 0.960 . S
C854 C852 1.381 . S
C854 C855 1.394 . S
C854 H862 0.930 . S
C855 C854 1.394 . S
C855 C856 1.383 . S
C855 H863 0.929 . S
C856 C855 1.383 . S
C856 C857 1.377 . S
C857 H841 0.930 . S
C857 C856 1.377 . S
C857 C858 1.379 . S
C858 H842 0.931 . S
C858 C852 1.383 . S
C858 C857 1.379 . S
H859 C853 0.959 . S
H860 C853 0.961 . S
H861 C853 0.960 . S
H862 C854 0.930 . S
H863 C855 0.929 . S
H864 C872 0.929 . S
H865 C874 0.930 . S
H866 C876 0.930 1_655 S
H867 C879 0.929 . S
H868 C882 0.930 . S
H869 C884 0.960 . S
H870 C884 0.960 . S
H871 C884 0.960 . S
C872 H864 0.929 . S
C872 C873 1.377 . S
C872 C874 1.384 . S
C873 C872 1.377 . S
C873 C879 1.390 . S
C874 H865 0.930 . S
C874 C872 1.384 . S
C874 C875 1.372 . S
C875 C874 1.372 . S
C875 C876 1.400 . S
C875 C880 1.490 . S
C876 H866 0.930 1_455 S
C876 C875 1.400 . S
C876 C879 1.386 . S
H877 C893 0.930 . S
H878 C894 0.931 . S
C879 H867 0.929 . S
C879 C873 1.390 . S
C879 C876 1.386 . S
C880 C875 1.490 . S
C880 C882 1.395 . S
C880 C883 1.403 1_455 S
H881 C887 0.930 . S
C882 H868 0.930 . S
C882 C880 1.395 . S
C882 C885 1.403 1_545 S
C883 C880 1.403 1_655 S
C883 C884 1.524 . S
C883 C887 1.400 1_545 S
C884 H869 0.960 . S
C884 H870 0.960 . S
C884 H871 0.960 . S
C884 C883 1.524 . S
C885 C882 1.403 1_565 S
C885 C886 1.392 1_455 S
C885 C889 1.495 . S
C886 C885 1.392 1_655 S
C886 C887 1.385 . S
C886 C888 1.478 . S
C887 H881 0.930 . S
C887 C883 1.400 1_565 S
C887 C886 1.385 . S
C888 C886 1.478 . S
C888 C890 1.381 . S
C888 C894 1.383 . S
C889 C885 1.495 . S
C889 H895 0.959 . S
C889 H896 0.961 . S
C889 H897 0.960 . S
C890 C888 1.381 . S
C890 C891 1.394 . S
C890 H898 0.930 1_655 S
C891 C890 1.394 . S
C891 C892 1.383 . S
C891 H899 0.929 . S
C892 C891 1.383 . S
C892 C893 1.377 . S
C893 H877 0.930 . S
C893 C892 1.377 . S
C893 C894 1.379 . S
C894 H878 0.931 . S
C894 C888 1.383 . S
C894 C893 1.379 . S
H895 C889 0.959 . S
H896 C889 0.961 . S
H897 C889 0.960 . S
H898 C890 0.930 1_455 S
H899 C891 0.929 . S
H900 C908 0.929 . S
H901 C910 0.930 . S
H902 C912 0.930 . S
H903 C915 0.929 . S
H904 C918 0.930 . S
H905 C920 0.960 . S
H906 C920 0.960 . S
H907 C920 0.960 . S
C908 H900 0.929 . S
C908 C909 1.377 . S
C908 C910 1.384 . S
C909 C908 1.377 . S
C909 C915 1.390 . S
C910 H901 0.930 . S
C910 C908 1.384 . S
C910 C911 1.372 . S
C911 C910 1.372 . S
C911 C912 1.400 . S
C911 C916 1.490 . S
C912 H902 0.930 . S
C912 C911 1.400 . S
C912 C915 1.386 . S
H913 C929 0.930 . S
H914 C930 0.931 . S
C915 H903 0.929 . S
C915 C909 1.390 . S
C915 C912 1.386 . S
C916 C911 1.490 . S
C916 C918 1.395 1_655 S
C916 C919 1.403 1_545 S
H917 C923 0.930 . S
C918 H904 0.930 . S
C918 C916 1.395 1_455 S
C918 C921 1.403 . S
C919 C916 1.403 1_565 S
C919 C920 1.524 . S
C919 C923 1.400 . S
C920 H905 0.960 . S
C920 H906 0.960 . S
C920 H907 0.960 . S
C920 C919 1.524 . S
C921 C918 1.403 . S
C921 C922 1.392 1_545 S
C921 C925 1.495 . S
C922 C921 1.392 1_565 S
C922 C923 1.385 1_455 S
C922 C924 1.478 . S
C923 H917 0.930 . S
C923 C919 1.400 . S
C923 C922 1.385 1_655 S
C924 C922 1.478 . S
C924 C926 1.381 . S
C924 C930 1.383 . S
C925 C921 1.495 . S
C925 H931 0.959 . S
C925 H932 0.961 . S
C925 H933 0.960 . S
C926 C924 1.381 . S
C926 C927 1.394 . S
C926 H934 0.930 . S
C927 C926 1.394 . S
C927 C928 1.383 . S
C927 H935 0.929 . S
C928 C927 1.383 . S
C928 C929 1.377 . S
C929 H913 0.930 . S
C929 C928 1.377 . S
C929 C930 1.379 . S
C930 H914 0.931 . S
C930 C924 1.383 . S
C930 C929 1.379 . S
H931 C925 0.959 . S
H932 C925 0.961 . S
H933 C925 0.960 . S
H934 C926 0.930 . S
H935 C927 0.929 . S
H936 C944 0.929 . S
H937 C946 0.930 . S
H938 C948 0.930 . S
H939 C951 0.929 . S
H940 C954 0.930 . S
H941 C956 0.960 . S
H942 C956 0.960 . S
H943 C956 0.960 1_655 S
C944 H936 0.929 . S
C944 C945 1.377 . S
C944 C946 1.384 . S
C945 C944 1.377 . S
C945 C951 1.390 . S
C946 H937 0.930 . S
C946 C944 1.384 . S
C946 C947 1.372 . S
C947 C946 1.372 . S
C947 C948 1.400 . S
C947 C952 1.490 . S
C948 H938 0.930 . S
C948 C947 1.400 . S
C948 C951 1.386 . S
H949 C965 0.930 . S
H950 C966 0.931 . S
C951 H939 0.929 . S
C951 C945 1.390 . S
C951 C948 1.386 . S
C952 C947 1.490 . S
C952 C954 1.395 . S
C952 C955 1.403 1_655 S
H953 C959 0.930 . S
C954 H940 0.930 . S
C954 C952 1.395 . S
C954 C957 1.403 1_565 S
C955 C952 1.403 1_455 S
C955 C956 1.524 . S
C955 C959 1.400 1_565 S
C956 H941 0.960 . S
C956 H942 0.960 . S
C956 H943 0.960 1_455 S
C956 C955 1.524 . S
C957 C954 1.403 1_545 S
C957 C958 1.392 1_655 S
C957 C961 1.495 . S
C958 C957 1.392 1_455 S
C958 C959 1.385 . S
C958 C960 1.478 . S
C959 H953 0.930 . S
C959 C955 1.400 1_545 S
C959 C958 1.385 . S
C960 C958 1.478 . S
C960 C962 1.381 . S
C960 C966 1.383 . S
C961 C957 1.495 . S
C961 H967 0.959 . S
C961 H968 0.961 . S
C961 H969 0.943 1_655 S
C962 C960 1.381 . S
C962 C963 1.394 . S
C962 H970 0.930 . S
C963 C962 1.394 . S
C963 C964 1.383 . S
C963 H971 0.929 . S
C964 C963 1.383 . S
C964 C965 1.377 . S
C965 H949 0.930 . S
C965 C964 1.377 . S
C965 C966 1.379 . S
C966 H950 0.931 . S
C966 C960 1.383 . S
C966 C965 1.379 . S
H967 C961 0.959 . S
H968 C961 0.961 . S
H969 C961 0.943 1_455 S
H970 C962 0.930 . S
H971 C963 0.929 . S
H972 C980 0.929 . S
H973 C982 0.930 . S
H974 C984 0.930 1_655 S
H975 C987 0.929 . S
H976 C990 0.930 . S
H977 C992 0.960 . S
H978 C992 0.960 . S
H979 C992 0.960 . S
C980 H972 0.929 . S
C980 C981 1.377 . S
C980 C982 1.384 . S
C981 C980 1.377 . S
C981 C987 1.390 . S
C982 H973 0.930 . S
C982 C980 1.384 . S
C982 C983 1.372 . S
C983 C982 1.372 . S
C983 C984 1.400 . S
C983 C988 1.490 . S
C984 H974 0.930 1_455 S
C984 C983 1.400 . S
C984 C987 1.386 . S
H985 C1001 0.930 . S
H986 C1002 0.931 . S
C987 H975 0.929 . S
C987 C981 1.390 . S
C987 C984 1.386 . S
C988 C983 1.490 . S
C988 C990 1.395 1_565 S
C988 C991 1.403 1_455 S
H989 C995 0.930 . S
C990 H976 0.930 . S
C990 C988 1.395 1_545 S
C990 C993 1.403 . S
C991 C988 1.403 1_655 S
C991 C992 1.524 . S
C991 C995 1.400 . S
C992 H977 0.960 . S
C992 H978 0.960 . S
C992 H979 0.960 . S
C992 C991 1.524 . S
C993 C990 1.403 . S
C993 C994 1.392 1_455 S
C993 C997 1.495 . S
C994 C993 1.392 1_655 S
C994 C995 1.385 1_545 S
C994 C996 1.478 . S
C995 H989 0.930 . S
C995 C991 1.400 . S
C995 C994 1.385 1_565 S
C996 C994 1.478 . S
C996 C998 1.381 . S
C996 C1002 1.383 . S
C997 C993 1.495 . S
C997 H1003 0.959 . S
C997 H1004 0.961 . S
C997 H1005 0.960 . S
C998 C996 1.381 . S
C998 C999 1.394 . S
C998 H1006 0.930 1_655 S
C999 C998 1.394 . S
C999 C1000 1.383 . S
C999 H1007 0.929 . S
C1000 C999 1.383 . S
C1000 C1001 1.377 . S
C1001 H985 0.930 . S
C1001 C1000 1.377 . S
C1001 C1002 1.379 . S
C1002 H986 0.931 . S
C1002 C996 1.383 . S
C1002 C1001 1.379 . S
H1003 C997 0.959 . S
H1004 C997 0.961 . S
H1005 C997 0.960 . S
H1006 C998 0.930 1_455 S
H1007 C999 0.929 . S
H1008 C1016 0.929 . S
H1009 C1018 0.930 . S
H1010 C1020 0.930 . S
H1011 C1023 0.929 . S
H1012 C1026 0.930 . S
H1013 C1028 0.960 . S
H1014 C1028 0.960 . S
H1015 C1028 0.960 . S
C1016 H1008 0.929 . S
C1016 C1017 1.377 . S
C1016 C1018 1.384 . S
C1017 C1016 1.377 . S
C1017 C1023 1.390 . S
C1018 H1009 0.930 . S
C1018 C1016 1.384 . S
C1018 C1019 1.372 . S
C1019 C1018 1.372 . S
C1019 C1020 1.400 . S
C1019 C1024 1.490 . S
C1020 H1010 0.930 . S
C1020 C1019 1.400 . S
C1020 C1023 1.386 . S
H1021 C1037 0.930 . S
H1022 C1038 0.931 . S
C1023 H1011 0.929 . S
C1023 C1017 1.390 . S
C1023 C1020 1.386 . S
C1024 C1019 1.490 . S
C1024 C1026 1.395 . S
C1024 C1027 1.403 1_545 S
H1025 C1031 0.930 . S
C1026 H1012 0.930 . S
C1026 C1024 1.395 . S
C1026 C1029 1.403 1_455 S
C1027 C1024 1.403 1_565 S
C1027 C1028 1.524 . S
C1027 C1031 1.400 1_455 S
C1028 H1013 0.960 . S
C1028 H1014 0.960 . S
C1028 H1015 0.960 . S
C1028 C1027 1.524 . S
C1029 C1026 1.403 1_655 S
C1029 C1030 1.392 1_545 S
C1029 C1033 1.495 . S
C1030 C1029 1.392 1_565 S
C1030 C1031 1.385 . S
C1030 C1032 1.478 . S
C1031 H1025 0.930 . S
C1031 C1027 1.400 1_655 S
C1031 C1030 1.385 . S
C1032 C1030 1.478 . S
C1032 C1034 1.381 . S
C1032 C1038 1.383 . S
C1033 C1029 1.495 . S
C1033 H1039 0.959 . S
C1033 H1040 0.961 . S
C1033 H1041 0.960 . S
C1034 C1032 1.381 . S
C1034 C1035 1.394 . S
C1034 H1042 0.930 . S
C1035 C1034 1.394 . S
C1035 C1036 1.383 . S
C1035 H1043 0.929 . S
C1036 C1035 1.383 . S
C1036 C1037 1.377 . S
C1037 H1021 0.930 . S
C1037 C1036 1.377 . S
C1037 C1038 1.379 . S
C1038 H1022 0.931 . S
C1038 C1032 1.383 . S
C1038 C1037 1.379 . S
H1039 C1033 0.959 . S
H1040 C1033 0.961 . S
H1041 C1033 0.960 . S
H1042 C1034 0.930 . S
H1043 C1035 0.929 . S
H1044 C1052 0.929 . S
H1045 C1054 0.930 . S
H1046 C1056 0.930 . S
H1047 C1059 0.929 . S
H1048 C1062 0.930 . S
H1049 C1064 0.960 . S
H1050 C1064 0.970 . S
H1051 C1064 0.960 . S
C1052 H1044 0.929 . S
C1052 C1053 1.377 . S
C1052 C1054 1.384 1_655 S
C1053 C1052 1.377 . S
C1053 C1059 1.390 . S
C1054 H1045 0.930 . S
C1054 C1052 1.384 1_455 S
C1054 C1055 1.372 . S
C1055 C1054 1.372 . S
C1055 C1056 1.400 . S
C1055 C1060 1.490 . S
C1056 H1046 0.930 . S
C1056 C1055 1.400 . S
C1056 C1059 1.386 1_455 S
H1057 C1073 0.930 . S
H1058 C1074 0.931 . S
C1059 H1047 0.929 . S
C1059 C1053 1.390 . S
C1059 C1056 1.386 1_655 S
C1060 C1055 1.490 . S
C1060 C1062 1.395 . S
C1060 C1063 1.403 1_556 S
H1061 C1067 0.930 . S
C1062 H1048 0.930 . S
C1062 C1060 1.395 . S
C1062 C1065 1.403 . S
C1063 C1060 1.403 1_554 S
C1063 C1064 1.524 . S
C1063 C1067 1.400 . S
C1064 H1049 0.960 . S
C1064 H1050 0.970 . S
C1064 H1051 0.960 . S
C1064 C1063 1.524 . S
C1065 C1062 1.403 . S
C1065 C1066 1.392 1_556 S
C1065 C1069 1.495 . S
C1066 C1065 1.392 1_554 S
C1066 C1067 1.385 . S
C1066 C1068 1.478 . S
C1067 H1061 0.930 . S
C1067 C1063 1.400 . S
C1067 C1066 1.385 . S
C1068 C1066 1.478 . S
C1068 C1070 1.381 . S
C1068 C1074 1.383 . S
C1069 C1065 1.495 . S
C1069 H1075 0.959 . S
C1069 H1076 0.961 . S
C1069 H1077 0.960 . S
C1070 C1068 1.381 . S
C1070 C1071 1.394 . S
C1070 H1078 0.930 . S
C1071 C1070 1.394 . S
C1071 C1072 1.383 . S
C1071 H1079 0.929 . S
C1072 C1071 1.383 . S
C1072 C1073 1.377 . S
C1073 H1057 0.930 . S
C1073 C1072 1.377 . S
C1073 C1074 1.379 . S
C1074 H1058 0.931 . S
C1074 C1068 1.383 . S
C1074 C1073 1.379 . S
H1075 C1069 0.959 . S
H1076 C1069 0.961 . S
H1077 C1069 0.960 . S
H1078 C1070 0.930 . S
H1079 C1071 0.929 . S
H1080 C1088 0.929 . S
H1081 C1090 0.930 . S
H1082 C1092 0.930 . S
H1083 C1095 0.929 . S
H1084 C1098 0.930 . S
H1085 C1100 0.960 . S
H1086 C1100 0.960 . S
H1087 C1100 0.960 . S
C1088 H1080 0.929 . S
C1088 C1089 1.377 . S
C1088 C1090 1.384 1_455 S
C1089 C1088 1.377 . S
C1089 C1095 1.390 1_455 S
C1090 H1081 0.930 . S
C1090 C1088 1.384 1_655 S
C1090 C1091 1.372 . S
C1091 C1090 1.372 . S
C1091 C1092 1.400 . S
C1091 C1096 1.490 . S
C1092 H1082 0.930 . S
C1092 C1091 1.400 . S
C1092 C1095 1.386 . S
H1093 C1109 0.930 . S
H1094 C1110 0.931 . S
C1095 H1083 0.929 . S
C1095 C1089 1.390 1_655 S
C1095 C1092 1.386 . S
C1096 C1091 1.490 . S
C1096 C1098 1.395 . S
C1096 C1099 1.403 . S
H1097 C1103 0.930 . S
C1098 H1084 0.930 . S
C1098 C1096 1.395 . S
C1098 C1101 1.403 . S
C1099 C1096 1.403 . S
C1099 C1100 1.524 . S
C1099 C1103 1.400 . S
C1100 H1085 0.960 . S
C1100 H1086 0.960 . S
C1100 H1087 0.960 . S
C1100 C1099 1.524 . S
C1101 C1098 1.403 . S
C1101 C1102 1.392 . S
C1101 C1105 1.495 . S
C1102 C1101 1.392 . S
C1102 C1103 1.385 . S
C1102 C1104 1.478 . S
C1103 H1097 0.930 . S
C1103 C1099 1.400 . S
C1103 C1102 1.385 . S
C1104 C1102 1.478 . S
C1104 C1106 1.381 1_545 S
C1104 C1110 1.383 . S
C1105 C1101 1.495 . S
C1105 H1111 0.959 . S
C1105 H1112 0.961 . S
C1105 H1113 0.960 1_545 S
C1106 C1104 1.381 1_565 S
C1106 C1107 1.394 . S
C1106 H1114 0.930 . S
C1107 C1106 1.394 . S
C1107 C1108 1.383 . S
C1107 H1115 0.929 . S
C1108 C1107 1.383 . S
C1108 C1109 1.377 1_565 S
C1109 H1093 0.930 . S
C1109 C1108 1.377 1_545 S
C1109 C1110 1.379 . S
C1110 H1094 0.931 . S
C1110 C1104 1.383 . S
C1110 C1109 1.379 . S
H1111 C1105 0.959 . S
H1112 C1105 0.961 . S
H1113 C1105 0.960 1_565 S
H1114 C1106 0.930 . S
H1115 C1107 0.929 . S
H1116 C1124 0.929 . S
H1117 C1126 0.930 . S
H1118 C1128 0.930 . S
H1119 C1131 0.929 . S
H1120 C1134 0.930 . S
H1121 C1136 0.960 . S
H1122 C1136 0.960 . S
H1123 C1136 0.960 . S
C1124 H1116 0.929 . S
C1124 C1125 1.377 . S
C1124 C1126 1.384 . S
C1125 C1124 1.377 . S
C1125 C1131 1.390 . S
C1126 H1117 0.930 . S
C1126 C1124 1.384 . S
C1126 C1127 1.372 . S
C1127 C1126 1.372 . S
C1127 C1128 1.400 . S
C1127 C1132 1.490 . S
C1128 H1118 0.930 . S
C1128 C1127 1.400 . S
C1128 C1131 1.386 . S
H1129 C1145 0.930 . S
H1130 C1146 0.931 . S
C1131 H1119 0.929 . S
C1131 C1125 1.390 . S
C1131 C1128 1.386 . S
C1132 C1127 1.490 . S
C1132 C1134 1.395 . S
C1132 C1135 1.403 . S
H1133 C1139 0.930 . S
C1134 H1120 0.930 . S
C1134 C1132 1.395 . S
C1134 C1137 1.403 . S
C1135 C1132 1.403 . S
C1135 C1136 1.524 . S
C1135 C1139 1.400 . S
C1136 H1121 0.960 . S
C1136 H1122 0.960 . S
C1136 H1123 0.960 . S
C1136 C1135 1.524 . S
C1137 C1134 1.403 . S
C1137 C1138 1.392 . S
C1137 C1141 1.495 . S
C1138 C1137 1.392 . S
C1138 C1139 1.385 . S
C1138 C1140 1.478 . S
C1139 H1133 0.930 . S
C1139 C1135 1.400 . S
C1139 C1138 1.385 . S
C1140 C1138 1.478 . S
C1140 C1142 1.381 . S
C1140 C1146 1.383 . S
C1141 C1137 1.495 . S
C1141 H1147 0.959 . S
C1141 H1148 0.961 1_565 S
C1141 H1149 0.960 1_565 S
C1142 C1140 1.381 . S
C1142 C1143 1.394 1_565 S
C1142 H1150 0.930 . S
C1143 C1142 1.394 1_545 S
C1143 C1144 1.383 . S
C1143 H1151 0.929 . S
C1144 C1143 1.383 . S
C1144 C1145 1.377 . S
C1145 H1129 0.930 . S
C1145 C1144 1.377 . S
C1145 C1146 1.379 1_545 S
C1146 H1130 0.931 . S
C1146 C1140 1.383 . S
C1146 C1145 1.379 1_565 S
H1147 C1141 0.959 . S
H1148 C1141 0.961 1_545 S
H1149 C1141 0.960 1_545 S
H1150 C1142 0.930 . S
H1151 C1143 0.929 . S
H1152 C1160 0.929 . S
H1153 C1162 0.930 . S
H1154 C1164 0.930 . S
H1155 C1167 0.929 . S
H1156 C1170 0.930 . S
H1157 C1172 0.960 . S
H1158 C1172 0.960 . S
H1159 C1172 0.960 . S
C1160 H1152 0.929 . S
C1160 C1161 1.377 . S
C1160 C1162 1.384 . S
C1161 C1160 1.377 . S
C1161 C1167 1.390 . S
C1162 H1153 0.930 . S
C1162 C1160 1.384 . S
C1162 C1163 1.372 . S
C1163 C1162 1.372 . S
C1163 C1164 1.400 . S
C1163 C1168 1.490 . S
C1164 H1154 0.930 . S
C1164 C1163 1.400 . S
C1164 C1167 1.386 . S
H1165 C1181 0.930 . S
H1166 C1182 0.931 . S
C1167 H1155 0.929 . S
C1167 C1161 1.390 . S
C1167 C1164 1.386 . S
C1168 C1163 1.490 . S
C1168 C1170 1.395 1_554 S
C1168 C1171 1.403 . S
H1169 C1175 0.930 . S
C1170 H1156 0.930 . S
C1170 C1168 1.395 1_556 S
C1170 C1173 1.403 . S
C1171 C1168 1.403 . S
C1171 C1172 1.524 . S
C1171 C1175 1.400 . S
C1172 H1157 0.960 . S
C1172 H1158 0.960 . S
C1172 H1159 0.960 . S
C1172 C1171 1.524 . S
C1173 C1170 1.403 . S
C1173 C1174 1.392 . S
C1173 C1177 1.495 . S
C1174 C1173 1.392 . S
C1174 C1175 1.385 1_556 S
C1174 C1176 1.478 . S
C1175 H1169 0.930 . S
C1175 C1171 1.400 . S
C1175 C1174 1.385 1_554 S
C1176 C1174 1.478 . S
C1176 C1178 1.381 . S
C1176 C1182 1.383 . S
C1177 C1173 1.495 . S
C1177 H1183 0.959 . S
C1177 H1184 0.961 . S
C1177 H1185 0.960 . S
C1178 C1176 1.381 . S
C1178 C1179 1.394 . S
C1178 H1186 0.930 . S
C1179 C1178 1.394 . S
C1179 C1180 1.383 1_655 S
C1179 H1187 0.929 . S
C1180 C1179 1.383 1_455 S
C1180 C1181 1.377 . S
C1181 H1165 0.930 . S
C1181 C1180 1.377 . S
C1181 C1182 1.379 1_455 S
C1182 H1166 0.931 . S
C1182 C1176 1.383 . S
C1182 C1181 1.379 1_655 S
H1183 C1177 0.959 . S
H1184 C1177 0.961 . S
H1185 C1177 0.960 . S
H1186 C1178 0.930 . S
H1187 C1179 0.929 . S
H1188 C1196 0.929 . S
H1189 C1198 0.930 . S
H1190 C1200 0.930 . S
H1191 C1203 0.929 . S
H1192 C1206 0.930 . S
H1193 C1208 0.960 . S
H1194 C1208 0.960 . S
H1195 C1208 0.960 . S
C1196 H1188 0.929 . S
C1196 C1197 1.377 . S
C1196 C1198 1.384 . S
C1197 C1196 1.377 . S
C1197 C1203 1.390 1_545 S
C1198 H1189 0.930 . S
C1198 C1196 1.384 . S
C1198 C1199 1.372 1_545 S
C1199 C1198 1.372 1_565 S
C1199 C1200 1.400 . S
C1199 C1204 1.490 . S
C1200 H1190 0.930 . S
C1200 C1199 1.400 . S
C1200 C1203 1.386 . S
H1201 C1217 0.930 . S
H1202 C1218 0.931 . S
C1203 H1191 0.929 . S
C1203 C1197 1.390 1_565 S
C1203 C1200 1.386 . S
C1204 C1199 1.490 . S
C1204 C1206 1.395 . S
C1204 C1207 1.403 . S
H1205 C1211 0.930 . S
C1206 H1192 0.930 . S
C1206 C1204 1.395 . S
C1206 C1209 1.403 . S
C1207 C1204 1.403 . S
C1207 C1208 1.524 . S
C1207 C1211 1.400 . S
C1208 H1193 0.960 . S
C1208 H1194 0.960 . S
C1208 H1195 0.960 . S
C1208 C1207 1.524 . S
C1209 C1206 1.403 . S
C1209 C1210 1.392 . S
C1209 C1213 1.495 . S
C1210 C1209 1.392 . S
C1210 C1211 1.385 . S
C1210 C1212 1.478 . S
C1211 H1205 0.930 . S
C1211 C1207 1.400 . S
C1211 C1210 1.385 . S
C1212 C1210 1.478 . S
C1212 C1214 1.381 . S
C1212 C1218 1.383 . S
C1213 C1209 1.495 . S
C1213 H1219 0.959 . S
C1213 H1220 0.961 1_455 S
C1213 H1221 0.969 . S
C1214 C1212 1.381 . S
C1214 C1215 1.394 1_455 S
C1214 H1222 0.930 . S
C1215 C1214 1.394 1_655 S
C1215 C1216 1.383 . S
C1215 H1223 0.929 . S
C1216 C1215 1.383 . S
C1216 C1217 1.377 . S
C1217 H1201 0.930 . S
C1217 C1216 1.377 . S
C1217 C1218 1.379 1_655 S
C1218 H1202 0.931 . S
C1218 C1212 1.383 . S
C1218 C1217 1.379 1_455 S
H1219 C1213 0.959 . S
H1220 C1213 0.961 1_655 S
H1221 C1213 0.969 . S
H1222 C1214 0.930 . S
H1223 C1215 0.929 . S
H1224 C1232 0.929 . S
H1225 C1234 0.930 . S
H1226 C1236 0.930 . S
H1227 C1239 0.929 . S
H1228 C1242 0.930 . S
H1229 C1244 0.960 . S
H1230 C1244 0.961 1_565 S
H1231 C1244 0.960 . S
C1232 H1224 0.929 . S
C1232 C1233 1.377 . S
C1232 C1234 1.384 1_565 S
C1233 C1232 1.377 . S
C1233 C1239 1.390 . S
C1234 H1225 0.930 . S
C1234 C1232 1.384 1_545 S
C1234 C1235 1.372 . S
C1235 C1234 1.372 . S
C1235 C1236 1.400 . S
C1235 C1240 1.490 . S
C1236 H1226 0.930 . S
C1236 C1235 1.400 . S
C1236 C1239 1.386 1_545 S
H1237 C1253 0.930 . S
H1238 C1254 0.931 . S
C1239 H1227 0.929 . S
C1239 C1233 1.390 . S
C1239 C1236 1.386 1_565 S
C1240 C1235 1.490 . S
C1240 C1242 1.395 . S
C1240 C1243 1.403 . S
H1241 C1247 0.930 . S
C1242 H1228 0.930 . S
C1242 C1240 1.395 . S
C1242 C1245 1.403 . S
C1243 C1240 1.403 . S
C1243 C1244 1.524 . S
C1243 C1247 1.400 . S
C1244 H1229 0.960 . S
C1244 H1230 0.961 1_545 S
C1244 H1231 0.960 . S
C1244 C1243 1.524 . S
C1245 C1242 1.403 . S
C1245 C1246 1.392 . S
C1245 C1249 1.495 . S
C1246 C1245 1.392 . S
C1246 C1247 1.385 . S
C1246 C1248 1.478 . S
C1247 H1241 0.930 . S
C1247 C1243 1.400 . S
C1247 C1246 1.385 . S
C1248 C1246 1.478 . S
C1248 C1250 1.381 . S
C1248 C1254 1.383 . S
C1249 C1245 1.495 . S
C1249 H1255 0.959 . S
C1249 H1256 0.961 . S
C1249 H1257 0.960 . S
C1250 C1248 1.381 . S
C1250 C1251 1.394 . S
C1250 H1258 0.930 . S
C1251 C1250 1.394 . S
C1251 C1252 1.383 . S
C1251 H1259 0.929 . S
C1252 C1251 1.383 . S
C1252 C1253 1.377 . S
C1253 H1237 0.930 . S
C1253 C1252 1.377 . S
C1253 C1254 1.379 . S
C1254 H1238 0.931 . S
C1254 C1248 1.383 . S
C1254 C1253 1.379 . S
H1255 C1249 0.959 . S
H1256 C1249 0.961 . S
H1257 C1249 0.960 . S
H1258 C1250 0.930 . S
H1259 C1251 0.929 . S
H1260 C1268 0.929 . S
H1261 C1270 0.930 . S
H1262 C1272 0.930 . S
H1263 C1275 0.929 . S
H1264 C1278 0.930 . S
H1265 C1280 0.960 . S
H1266 C1280 0.960 . S
H1267 C1280 0.960 . S
C1268 H1260 0.929 . S
C1268 C1269 1.377 . S
C1268 C1270 1.384 . S
C1269 C1268 1.377 . S
C1269 C1275 1.390 . S
C1270 H1261 0.930 . S
C1270 C1268 1.384 . S
C1270 C1271 1.372 . S
C1271 C1270 1.372 . S
C1271 C1272 1.400 . S
C1271 C1276 1.490 . S
C1272 H1262 0.930 . S
C1272 C1271 1.400 . S
C1272 C1275 1.386 . S
H1273 C1289 0.930 . S
H1274 C1290 0.931 . S
C1275 H1263 0.929 . S
C1275 C1269 1.390 . S
C1275 C1272 1.386 . S
C1276 C1271 1.490 . S
C1276 C1278 1.395 . S
C1276 C1279 1.403 . S
H1277 C1283 0.930 . S
C1278 H1264 0.930 . S
C1278 C1276 1.395 . S
C1278 C1281 1.403 . S
C1279 C1276 1.403 . S
C1279 C1280 1.524 . S
C1279 C1283 1.400 . S
C1280 H1265 0.960 . S
C1280 H1266 0.960 . S
C1280 H1267 0.960 . S
C1280 C1279 1.524 . S
C1281 C1278 1.403 . S
C1281 C1282 1.392 . S
C1281 C1285 1.495 . S
C1282 C1281 1.392 . S
C1282 C1283 1.385 . S
C1282 C1284 1.478 . S
C1283 H1277 0.930 . S
C1283 C1279 1.400 . S
C1283 C1282 1.385 . S
C1284 C1282 1.478 . S
C1284 C1286 1.381 . S
C1284 C1290 1.383 . S
C1285 C1281 1.495 . S
C1285 H1291 0.959 . S
C1285 H1292 0.961 . S
C1285 H1293 0.960 . S
C1286 C1284 1.381 . S
C1286 C1287 1.394 . S
C1286 H1294 0.930 . S
C1287 C1286 1.394 . S
C1287 C1288 1.383 . S
C1287 H1295 0.929 . S
C1288 C1287 1.383 . S
C1288 C1289 1.377 . S
C1289 H1273 0.930 . S
C1289 C1288 1.377 . S
C1289 C1290 1.379 . S
C1290 H1274 0.931 . S
C1290 C1284 1.383 . S
C1290 C1289 1.379 . S
H1291 C1285 0.959 . S
H1292 C1285 0.961 . S
H1293 C1285 0.960 . S
H1294 C1286 0.930 . S
H1295 C1287 0.929 . S
H1296 C1304 0.929 . S
H1297 C1306 0.930 . S
H1298 C1308 0.930 . S
H1299 C1311 0.929 . S
H1300 C1314 0.930 . S
H1301 C1316 0.960 . S
H1302 C1316 0.960 . S
H1303 C1316 0.960 . S
C1304 H1296 0.929 . S
C1304 C1305 1.377 . S
C1304 C1306 1.384 . S
C1305 C1304 1.377 . S
C1305 C1311 1.390 . S
C1306 H1297 0.930 . S
C1306 C1304 1.384 . S
C1306 C1307 1.372 . S
C1307 C1306 1.372 . S
C1307 C1308 1.400 . S
C1307 C1312 1.490 . S
C1308 H1298 0.930 . S
C1308 C1307 1.400 . S
C1308 C1311 1.386 . S
H1309 C1325 0.930 . S
H1310 C1326 0.931 . S
C1311 H1299 0.929 . S
C1311 C1305 1.390 . S
C1311 C1308 1.386 . S
C1312 C1307 1.490 . S
C1312 C1314 1.395 . S
C1312 C1315 1.403 . S
H1313 C1319 0.930 . S
C1314 H1300 0.930 . S
C1314 C1312 1.395 . S
C1314 C1317 1.403 . S
C1315 C1312 1.403 . S
C1315 C1316 1.524 . S
C1315 C1319 1.400 . S
C1316 H1301 0.960 . S
C1316 H1302 0.960 . S
C1316 H1303 0.960 . S
C1316 C1315 1.524 . S
C1317 C1314 1.403 . S
C1317 C1318 1.392 . S
C1317 C1321 1.495 . S
C1318 C1317 1.392 . S
C1318 C1319 1.385 . S
C1318 C1320 1.478 . S
C1319 H1313 0.930 . S
C1319 C1315 1.400 . S
C1319 C1318 1.385 . S
C1320 C1318 1.478 . S
C1320 C1322 1.381 . S
C1320 C1326 1.383 . S
C1321 C1317 1.495 . S
C1321 H1327 0.959 . S
C1321 H1328 0.961 . S
C1321 H1329 0.960 . S
C1322 C1320 1.381 . S
C1322 C1323 1.394 . S
C1322 H1330 0.930 . S
C1323 C1322 1.394 . S
C1323 C1324 1.383 . S
C1323 H1331 0.929 . S
C1324 C1323 1.383 . S
C1324 C1325 1.377 . S
C1325 H1309 0.930 . S
C1325 C1324 1.377 . S
C1325 C1326 1.379 . S
C1326 H1310 0.931 . S
C1326 C1320 1.383 . S
C1326 C1325 1.379 . S
H1327 C1321 0.959 . S
H1328 C1321 0.961 . S
H1329 C1321 0.960 . S
H1330 C1322 0.930 . S
H1331 C1323 0.929 . S
H1332 C1340 0.929 . S
H1333 C1342 0.930 . S
H1334 C1344 0.930 . S
H1335 C1347 0.929 . S
H1336 C1350 0.930 . S
H1337 C1352 0.960 . S
H1338 C1352 0.960 . S
H1339 C1352 0.960 . S
C1340 H1332 0.929 . S
C1340 C1341 1.377 . S
C1340 C1342 1.384 . S
C1341 C1340 1.377 . S
C1341 C1347 1.390 . S
C1342 H1333 0.930 . S
C1342 C1340 1.384 . S
C1342 C1343 1.372 . S
C1343 C1342 1.372 . S
C1343 C1344 1.400 . S
C1343 C1348 1.490 . S
C1344 H1334 0.930 . S
C1344 C1343 1.400 . S
C1344 C1347 1.386 . S
H1345 C1361 0.930 . S
H1346 C1362 0.931 . S
C1347 H1335 0.929 . S
C1347 C1341 1.390 . S
C1347 C1344 1.386 . S
C1348 C1343 1.490 . S
C1348 C1350 1.395 . S
C1348 C1351 1.403 . S
H1349 C1355 0.930 . S
C1350 H1336 0.930 . S
C1350 C1348 1.395 . S
C1350 C1353 1.403 . S
C1351 C1348 1.403 . S
C1351 C1352 1.524 . S
C1351 C1355 1.400 . S
C1352 H1337 0.960 . S
C1352 H1338 0.960 . S
C1352 H1339 0.960 . S
C1352 C1351 1.524 . S
C1353 C1350 1.403 . S
C1353 C1354 1.392 . S
C1353 C1357 1.495 . S
C1354 C1353 1.392 . S
C1354 C1355 1.385 . S
C1354 C1356 1.478 . S
C1355 H1349 0.930 . S
C1355 C1351 1.400 . S
C1355 C1354 1.385 . S
C1356 C1354 1.478 . S
C1356 C1358 1.381 . S
C1356 C1362 1.383 . S
C1357 C1353 1.495 . S
C1357 H1363 0.959 . S
C1357 H1364 0.961 . S
C1357 H1365 0.960 . S
C1358 C1356 1.381 . S
C1358 C1359 1.394 . S
C1358 H1366 0.930 . S
C1359 C1358 1.394 . S
C1359 C1360 1.383 . S
C1359 H1367 0.929 . S
C1360 C1359 1.383 . S
C1360 C1361 1.377 . S
C1361 H1345 0.930 . S
C1361 C1360 1.377 . S
C1361 C1362 1.379 . S
C1362 H1346 0.931 . S
C1362 C1356 1.383 . S
C1362 C1361 1.379 . S
H1363 C1357 0.959 . S
H1364 C1357 0.961 . S
H1365 C1357 0.960 . S
H1366 C1358 0.930 . S
H1367 C1359 0.929 . S
H1368 C1376 0.929 . S
H1369 C1378 0.930 . S
H1370 C1380 0.930 . S
H1371 C1383 0.929 . S
H1372 C1386 0.930 . S
H1373 C1388 0.960 . S
H1374 C1388 0.960 . S
H1375 C1388 0.960 . S
C1376 H1368 0.929 . S
C1376 C1377 1.377 . S
C1376 C1378 1.384 . S
C1377 C1376 1.377 . S
C1377 C1383 1.390 . S
C1378 H1369 0.930 . S
C1378 C1376 1.384 . S
C1378 C1379 1.372 . S
C1379 C1378 1.372 . S
C1379 C1380 1.400 . S
C1379 C1384 1.490 . S
C1380 H1370 0.930 . S
C1380 C1379 1.400 . S
C1380 C1383 1.386 . S
H1381 C1397 0.930 . S
H1382 C1398 0.931 . S
C1383 H1371 0.929 . S
C1383 C1377 1.390 . S
C1383 C1380 1.386 . S
C1384 C1379 1.490 . S
C1384 C1386 1.395 . S
C1384 C1387 1.403 . S
H1385 C1391 0.930 . S
C1386 H1372 0.930 . S
C1386 C1384 1.395 . S
C1386 C1389 1.403 . S
C1387 C1384 1.403 . S
C1387 C1388 1.524 . S
C1387 C1391 1.400 . S
C1388 H1373 0.960 . S
C1388 H1374 0.960 . S
C1388 H1375 0.960 . S
C1388 C1387 1.524 . S
C1389 C1386 1.403 . S
C1389 C1390 1.392 . S
C1389 C1393 1.495 . S
C1390 C1389 1.392 . S
C1390 C1391 1.385 . S
C1390 C1392 1.478 . S
C1391 H1385 0.930 . S
C1391 C1387 1.400 . S
C1391 C1390 1.385 . S
C1392 C1390 1.478 . S
C1392 C1394 1.381 . S
C1392 C1398 1.383 . S
C1393 C1389 1.495 . S
C1393 H1399 0.959 . S
C1393 H1400 0.961 . S
C1393 H1401 0.960 . S
C1394 C1392 1.381 . S
C1394 C1395 1.394 . S
C1394 H1402 0.930 . S
C1395 C1394 1.394 . S
C1395 C1396 1.383 . S
C1395 H1403 0.929 . S
C1396 C1395 1.383 . S
C1396 C1397 1.377 . S
C1397 H1381 0.930 . S
C1397 C1396 1.377 . S
C1397 C1398 1.379 . S
C1398 H1382 0.931 . S
C1398 C1392 1.383 . S
C1398 C1397 1.379 . S
H1399 C1393 0.959 . S
H1400 C1393 0.961 . S
H1401 C1393 0.960 . S
H1402 C1394 0.930 . S
H1403 C1395 0.929 . S
H1404 C1412 0.929 . S
H1405 C1414 0.930 . S
H1406 C1416 0.930 . S
H1407 C1419 0.929 . S
H1408 C1422 0.930 . S
H1409 C1424 0.960 . S
H1410 C1424 0.960 . S
H1411 C1424 0.960 . S
C1412 H1404 0.929 . S
C1412 C1413 1.377 . S
C1412 C1414 1.384 . S
C1413 C1412 1.377 . S
C1413 C1419 1.390 . S
C1414 H1405 0.930 . S
C1414 C1412 1.384 . S
C1414 C1415 1.372 . S
C1415 C1414 1.372 . S
C1415 C1416 1.400 . S
C1415 C1420 1.490 . S
C1416 H1406 0.930 . S
C1416 C1415 1.400 . S
C1416 C1419 1.386 . S
H1417 C1433 0.930 . S
H1418 C1434 0.931 . S
C1419 H1407 0.929 . S
C1419 C1413 1.390 . S
C1419 C1416 1.386 . S
C1420 C1415 1.490 . S
C1420 C1422 1.395 . S
C1420 C1423 1.403 . S
H1421 C1427 0.930 . S
C1422 H1408 0.930 . S
C1422 C1420 1.395 . S
C1422 C1425 1.403 . S
C1423 C1420 1.403 . S
C1423 C1424 1.524 . S
C1423 C1427 1.400 . S
C1424 H1409 0.960 . S
C1424 H1410 0.960 . S
C1424 H1411 0.960 . S
C1424 C1423 1.524 . S
C1425 C1422 1.403 . S
C1425 C1426 1.392 . S
C1425 C1429 1.495 . S
C1426 C1425 1.392 . S
C1426 C1427 1.385 . S
C1426 C1428 1.478 . S
C1427 H1421 0.930 . S
C1427 C1423 1.400 . S
C1427 C1426 1.385 . S
C1428 C1426 1.478 . S
C1428 C1430 1.381 . S
C1428 C1434 1.383 . S
C1429 C1425 1.495 . S
C1429 H1435 0.959 . S
C1429 H1436 0.961 . S
C1429 H1437 0.960 . S
C1430 C1428 1.381 . S
C1430 C1431 1.394 . S
C1430 H1438 0.930 . S
C1431 C1430 1.394 . S
C1431 C1432 1.383 . S
C1431 H1439 0.929 . S
C1432 C1431 1.383 . S
C1432 C1433 1.377 . S
C1433 H1417 0.930 . S
C1433 C1432 1.377 . S
C1433 C1434 1.379 . S
C1434 H1418 0.931 . S
C1434 C1428 1.383 . S
C1434 C1433 1.379 . S
H1435 C1429 0.959 . S
H1436 C1429 0.961 . S
H1437 C1429 0.960 . S
H1438 C1430 0.930 . S
H1439 C1431 0.929 . S
H1440 C1448 0.929 . S
H1441 C1450 0.930 . S
H1442 C1452 0.930 . S
H1443 C1455 0.929 . S
H1444 C1458 0.930 . S
H1445 C1460 0.960 . S
H1446 C1460 0.960 . S
H1447 C1460 0.960 . S
C1448 H1440 0.929 . S
C1448 C1449 1.377 . S
C1448 C1450 1.384 . S
C1449 C1448 1.377 . S
C1449 C1455 1.390 . S
C1450 H1441 0.930 . S
C1450 C1448 1.384 . S
C1450 C1451 1.372 . S
C1451 C1450 1.372 . S
C1451 C1452 1.400 . S
C1451 C1456 1.490 . S
C1452 H1442 0.930 . S
C1452 C1451 1.400 . S
C1452 C1455 1.386 . S
H1453 C1469 0.930 . S
H1454 C1470 0.931 . S
C1455 H1443 0.929 . S
C1455 C1449 1.390 . S
C1455 C1452 1.386 . S
C1456 C1451 1.490 . S
C1456 C1458 1.395 . S
C1456 C1459 1.403 . S
H1457 C1463 0.930 . S
C1458 H1444 0.930 . S
C1458 C1456 1.395 . S
C1458 C1461 1.403 . S
C1459 C1456 1.403 . S
C1459 C1460 1.524 . S
C1459 C1463 1.400 . S
C1460 H1445 0.960 . S
C1460 H1446 0.960 . S
C1460 H1447 0.960 . S
C1460 C1459 1.524 . S
C1461 C1458 1.403 . S
C1461 C1462 1.392 . S
C1461 C1465 1.495 . S
C1462 C1461 1.392 . S
C1462 C1463 1.385 . S
C1462 C1464 1.478 . S
C1463 H1457 0.930 . S
C1463 C1459 1.400 . S
C1463 C1462 1.385 . S
C1464 C1462 1.478 . S
C1464 C1466 1.381 . S
C1464 C1470 1.383 . S
C1465 C1461 1.495 . S
C1465 H1471 0.959 . S
C1465 H1472 0.961 . S
C1465 H1473 0.960 . S
C1466 C1464 1.381 . S
C1466 C1467 1.394 . S
C1466 H1474 0.930 . S
C1467 C1466 1.394 . S
C1467 C1468 1.383 . S
C1467 H1475 0.929 . S
C1468 C1467 1.383 . S
C1468 C1469 1.377 . S
C1469 H1453 0.930 . S
C1469 C1468 1.377 . S
C1469 C1470 1.379 . S
C1470 H1454 0.931 . S
C1470 C1464 1.383 . S
C1470 C1469 1.379 . S
H1471 C1465 0.959 . S
H1472 C1465 0.961 . S
H1473 C1465 0.960 . S
H1474 C1466 0.930 . S
H1475 C1467 0.929 . S
C405 C117 1.501 . S
C424 C18 1.487 . S
C441 C51 1.499 . S
C460 C150 1.494 . S
C477 C84 1.501 . S
C496 C183 1.491 . S
C513 C216 1.498 . S
C532 C315 1.500 . S
C549 C348 1.497 . S
C568 C249 1.503 . S
C585 C381 1.498 . S
C604 C282 1.501 . S
C621 C252 0.510 . S
C640 C21 0.490 . S
C657 C54 0.529 . S
C676 C285 0.465 . S
C693 C318 0.498 . S
C712 C87 0.604 . S
C729 C120 0.522 . S
C748 C351 0.514 . S
C765 C384 0.494 . S
C784 C153 0.572 . S
C801 C186 0.526 . S
C820 C219 0.420 . S
C837 C7 0.859 . S
C856 C106 0.852 . S
C873 C40 0.846 . S
C892 C139 0.893 . S
C909 C73 0.848 . S
C928 C172 0.870 . S
C945 C205 0.855 . S
C964 C304 0.871 . S
C981 C238 0.846 . S
C1000 C337 0.893 . S
C1017 C271 0.851 . S
C1036 C370 0.855 . S
C1053 N332 0.703 . S
C1072 N2 0.707 . S
C1089 N35 0.703 . S
C1108 N365 0.724 . S
C1125 N200 0.701 . S
C1144 N68 0.732 . S
C1161 N101 0.688 . S
C1180 N233 0.671 . S
C1197 N266 0.701 . S
C1216 N134 0.732 . S
C1233 N167 0.702 . S
C1252 N299 0.703 . S
C1269 N13 1.737 . S
C1288 N277 1.741 . S
C1305 N46 1.735 . S
C1324 N310 1.703 . S
C1341 N343 1.725 . S
C1360 N79 1.735 . S
C1377 N376 1.727 . S
C1396 N112 1.752 . S
C1413 N145 1.729 . S
C1432 N211 1.698 . S
C1449 N178 1.730 . S
C1468 N244 1.758 . S
