# Generated by pormake.
# Topology ecn, (8)-cn, num edge types: 1
# Building blocks:
#     Node 0, Type 0, BuildingBlock: AJUNOK_clean_sbu_0, # of connection points: 8
#     Node 1, Type 0, BuildingBlock: AJUNOK_clean_sbu_0, # of connection points: 8
#     Node 2, Type 0, BuildingBlock: AJUNOK_clean_sbu_0, # of connection points: 8
#     Node 3, Type 0, BuildingBlock: AJUNOK_clean_sbu_0, # of connection points: 8
#     Node 4, Type 0, BuildingBlock: AJUNOK_clean_sbu_0, # of connection points: 8
#     Node 5, Type 0, BuildingBlock: AJUNOK_clean_sbu_0, # of connection points: 8
#     Node 6, Type 0, BuildingBlock: AJUNOK_clean_sbu_0, # of connection points: 8
#     Node 7, Type 0, BuildingBlock: AJUNOK_clean_sbu_0, # of connection points: 8
#     Node 8, Type 0, BuildingBlock: AJUNOK_clean_sbu_0, # of connection points: 8
#     Edge 9, Type (0, 0), None
#     Edge 10, Type (0, 0), None
#     Edge 11, Type (0, 0), None
#     Edge 12, Type (0, 0), None
#     Edge 13, Type (0, 0), None
#     Edge 14, Type (0, 0), None
#     Edge 15, Type (0, 0), None
#     Edge 16, Type (0, 0), None
#     Edge 17, Type (0, 0), None
#     Edge 18, Type (0, 0), None
#     Edge 19, Type (0, 0), None
#     Edge 20, Type (0, 0), None
#     Edge 21, Type (0, 0), None
#     Edge 22, Type (0, 0), None
#     Edge 23, Type (0, 0), None
#     Edge 24, Type (0, 0), None
#     Edge 25, Type (0, 0), None
#     Edge 26, Type (0, 0), None
#     Edge 27, Type (0, 0), None
#     Edge 28, Type (0, 0), None
#     Edge 29, Type (0, 0), None
#     Edge 30, Type (0, 0), None
#     Edge 31, Type (0, 0), None
#     Edge 32, Type (0, 0), None
#     Edge 33, Type (0, 0), None
#     Edge 34, Type (0, 0), None
#     Edge 35, Type (0, 0), None
#     Edge 36, Type (0, 0), None
#     Edge 37, Type (0, 0), None
#     Edge 38, Type (0, 0), None
#     Edge 39, Type (0, 0), None
#     Edge 40, Type (0, 0), None
#     Edge 41, Type (0, 0), None
#     Edge 42, Type (0, 0), None
#     Edge 43, Type (0, 0), None
#     Edge 44, Type (0, 0), None
# Relax obj value: 0.187
# Max RMSD: 0.187
# Mean RMSD: 0.187
data_MOF--net-ecn--node1-AJUNOK_clean_sbu_0--edge1-none
_symmetry_space_group_name_H-M    P1
_symmetry_Int_Tables_number       1
_symmetry_cell_setting            triclinic
loop_
_symmetry_equiv_pos_as_xyz
'x, y, z'
_cell_length_a     36.887866
_cell_length_b     36.888236
_cell_length_c     5.7881794
_cell_angle_alpha  89.598446
_cell_angle_beta   90.27159
_cell_angle_gamma 120.00411
loop_
_atom_site_label
_atom_site_type_symbol
_atom_site_fract_x
_atom_site_fract_y
_atom_site_fract_z
_atom_type_partial_charge
Cd0 Cd 0.07294 0.13539 0.95743 0.0
Cd1 Cd 0.07251 0.25913 0.96378 0.0
C2 C -0.01466 0.07452 0.80074 0.0
N3 N 0.00138 0.09849 -0.00852 0.0
C4 C 0.93497 0.06265 0.18002 0.0
C5 C 0.91835 0.03631 0.98752 0.0
C6 C 0.94379 0.04329 0.79452 0.0
C7 C -0.02274 0.09404 0.17849 0.0
H8 H 0.00561 0.07811 0.65781 0.0
H9 H -0.00894 0.11341 0.32875 0.0
C10 C 0.06915 0.20541 0.36435 0.0
C11 C 0.1678 0.30904 0.12336 0.0
C12 C 0.21048 0.33547 0.08585 0.0
C13 C 0.22762 0.33538 0.87141 0.0
C14 C 0.20335 0.30396 0.71297 0.0
C15 C 0.16085 0.27811 0.75644 0.0
N16 N 0.14366 0.28283 0.95329 0.0
H17 H 0.15325 0.31277 0.27621 0.0
H18 H 0.14126 0.25799 0.62114 0.0
C19 C -0.00894 0.23764 0.22639 0.0
N20 N 0.00087 0.22618 0.02426 0.0
C21 C 0.92883 0.1901 0.91013 0.0
C22 C 0.91825 0.20154 0.11937 0.0
C23 C 0.94981 0.22491 0.27965 0.0
C24 C -0.02912 0.2025 0.8667 0.0
H25 H 0.01551 0.25837 0.34286 0.0
H26 H -0.02023 0.19476 0.70453 0.0
C27 C 0.06799 0.18577 0.5554 0.0
C28 C 0.07483 0.06027 0.98769 0.0
N29 N 0.14435 0.17683 0.01937 0.0
C30 C 0.16534 0.16178 0.89909 0.0
C31 C 0.20657 0.17457 0.95274 0.0
C32 C 0.22757 0.20541 0.11984 0.0
C33 C 0.20615 0.22246 0.23359 0.0
C34 C 0.16391 0.2073 0.18141 0.0
C35 C 0.07687 0.33485 0.83227 0.0
O36 O 0.07022 0.19054 0.17087 0.0
O37 O 0.07156 0.2408 0.36976 0.0
O38 O 0.06795 0.20115 0.74847 0.0
O39 O 0.06978 0.15249 0.55156 0.0
O40 O 0.07485 0.07871 0.17337 0.0
O41 O 0.0752 0.07774 0.79722 0.0
O42 O 0.07183 0.30826 0.67805 0.0
O43 O 0.08207 0.32671 0.03929 0.0
H44 H 0.14908 0.13726 0.77401 0.0
H45 H 0.14667 0.21829 0.27959 0.0
H46 H 0.9159 0.05829 0.33063 0.0
H47 H 0.93245 0.02317 0.64464 0.0
H48 H 0.22861 0.35991 0.20685 0.0
H49 H 0.21569 0.30341 0.54462 0.0
H50 H 0.90513 0.17252 0.78145 0.0
H51 H 0.94303 0.23547 0.43943 0.0
H52 H 0.22079 0.15781 0.87881 0.0
H53 H 0.22105 0.24497 0.3709 0.0
Cd54 Cd 0.80075 0.92286 0.95375 0.0
Cd55 Cd 0.67715 0.79881 0.96618 0.0
C56 C 0.86144 0.89596 0.79686 0.0
N57 N 0.83756 0.88801 0.98823 0.0
C58 C 0.87345 0.85736 0.17822 0.0
C59 C 0.89973 0.86712 0.98505 0.0
C60 C 0.89266 0.88563 0.79101 0.0
C61 C 0.84207 0.86828 0.17629 0.0
H62 H 0.85782 0.91272 0.65308 0.0
H63 H 0.8228 0.86272 0.32707 0.0
C64 C 0.73076 0.84909 0.36446 0.0
C65 C 0.62736 0.84414 0.12414 0.0
C66 C 0.60101 0.86051 0.0864 0.0
C67 C 0.60095 0.87779 0.87109 0.0
C68 C 0.63223 0.8849 0.71164 0.0
C69 C 0.65802 0.86815 0.75533 0.0
N70 N 0.6534 0.84618 0.95338 0.0
H71 H 0.62372 0.82582 0.27801 0.0
H72 H 0.678 0.86864 0.61956 0.0
C73 C 0.6999 0.73938 0.22834 0.0
N74 N 0.71079 0.76075 0.02505 0.0
C75 C 0.74668 0.72501 0.90698 0.0
C76 C 0.73571 0.70278 0.11702 0.0
C77 C 0.7128 0.71087 0.27997 0.0
C78 C 0.73412 0.75465 0.86509 0.0
H79 H 0.67942 0.74295 0.34684 0.0
H80 H 0.74137 0.77135 0.70215 0.0
C81 C 0.75034 0.86776 0.55431 0.0
C82 C 0.87607 -0.00047 0.98655 0.0
N83 N 0.75983 0.95336 0.01664 0.0
C84 C 0.77563 -0.00985 0.90028 0.0
C85 C 0.7631 0.01861 0.95628 0.0
C86 C 0.73187 0.00816 0.12182 0.0
C87 C 0.71413 0.96907 0.23178 0.0
C88 C 0.72895 0.94189 0.17705 0.0
C89 C 0.60178 0.72727 0.83482 0.0
O90 O 0.74563 0.86491 0.16988 0.0
O91 O 0.69541 0.81602 0.37194 0.0
O92 O 0.73499 0.85239 0.74836 0.0
O93 O 0.78355 0.90291 0.54822 0.0
O94 O 0.8572 -0.01935 0.17149 0.0
O95 O 0.85895 -0.017 0.79537 0.0
O96 O 0.62829 0.74947 0.6805 0.0
O97 O 0.60982 0.74002 0.0421 0.0
H98 H 0.80041 -0.00117 0.77621 0.0
H99 H 0.71729 0.91304 0.27195 0.0
H100 H 0.87788 0.84263 0.32974 0.0
H101 H 0.91271 0.89444 0.6405 0.0
H102 H 0.57668 0.85422 0.20821 0.0
H103 H 0.63265 0.89782 0.54258 0.0
H104 H 0.76391 0.71898 0.77639 0.0
H105 H 0.70258 0.69334 0.44049 0.0
H106 H 0.78012 0.04992 0.88423 0.0
H107 H 0.69125 0.96094 0.36774 0.0
Cd108 Cd 0.01348 0.86338 0.95295 0.0
Cd109 Cd 0.13765 0.86385 0.96712 0.0
C110 C 0.04065 0.95143 0.79704 0.0
N111 N 0.04842 0.93493 0.98791 0.0
C112 C 0.07903 0.00093 0.17932 0.0
C113 C 0.06943 0.01802 0.98686 0.0
C114 C 0.05105 -0.00698 0.79226 0.0
C115 C 0.06806 0.95864 0.17632 0.0
H116 H 0.02398 0.93146 0.65296 0.0
H117 H 0.07349 0.9445 0.32665 0.0
C118 C 0.0872 0.86704 0.36451 0.0
C119 C 0.09285 0.76839 0.12676 0.0
C120 C 0.07677 0.72578 0.0887 0.0
C121 C 0.05931 0.70882 0.87409 0.0
C122 C 0.05189 0.73316 0.71564 0.0
C123 C 0.06837 0.77557 0.75958 0.0
N124 N 0.09045 0.79263 0.9568 0.0
H125 H 0.11127 0.78285 0.2799 0.0
H126 H 0.0676 0.79522 0.6243 0.0
C127 C 0.19729 0.94544 0.22922 0.0
N128 N 0.17603 0.93549 0.02602 0.0
C129 C 0.21189 0.00746 0.90911 0.0
C130 C 0.23395 0.01818 0.11926 0.0
C131 C 0.22577 -0.01328 0.2815 0.0
C132 C 0.18227 0.96537 0.8666 0.0
H133 H 0.19362 0.92107 0.34728 0.0
H134 H 0.16567 0.95637 0.7037 0.0
C135 C 0.06873 0.8683 0.55411 0.0
C136 C 0.9366 0.86174 0.98457 0.0
N137 N -0.01667 0.79191 0.01576 0.0
C138 C 0.94706 0.77102 0.89568 0.0
C139 C 0.91861 0.72981 0.95003 0.0
C140 C 0.92857 0.70875 0.11816 0.0
C141 C -0.03277 0.73006 0.23176 0.0
C142 C -0.00562 0.77226 0.17848 0.0
C143 C 0.2092 0.86018 0.83511 0.0
O144 O 0.07128 0.86595 0.16989 0.0
O145 O 0.12019 0.86461 0.37248 0.0
O146 O 0.08417 0.86843 0.7484 0.0
O147 O 0.03367 0.86656 0.54776 0.0
O148 O 0.9553 0.86137 0.16973 0.0
O149 O 0.95338 0.86163 0.79368 0.0
O150 O 0.18698 0.86466 0.68101 0.0
O151 O 0.19649 0.85524 0.0427 0.0
H152 H 0.9387 0.78737 0.77014 0.0
H153 H 0.0228 0.78942 0.2764 0.0
H154 H 0.09369 0.01965 0.33112 0.0
H155 H 0.04238 0.00473 0.64219 0.0
H156 H 0.08342 0.70763 0.20926 0.0
H157 H 0.03891 0.72098 0.54692 0.0
H158 H 0.21799 0.03107 0.77896 0.0
H159 H 0.24314 -0.00639 0.44213 0.0
H160 H 0.88754 0.71561 0.87551 0.0
H161 H -0.02505 0.71511 0.36968 0.0
Cd162 Cd 0.7396 0.46869 0.28981 0.0
Cd163 Cd 0.73916 0.59243 0.29612 0.0
C164 C 0.65198 0.4078 0.13321 0.0
N165 N 0.66804 0.43179 0.3239 0.0
C166 C 0.60165 0.39596 0.51261 0.0
C167 C 0.58501 0.36961 0.32018 0.0
C168 C 0.61044 0.37657 0.12712 0.0
C169 C 0.64393 0.42735 0.51096 0.0
H170 H 0.67225 0.41139 0.99024 0.0
H171 H 0.65775 0.44673 0.66117 0.0
C172 C 0.7358 0.5387 0.69669 0.0
C173 C 0.83444 0.64238 0.45578 0.0
C174 C 0.87712 0.66881 0.4183 0.0
C175 C 0.89426 0.66871 0.20392 0.0
C176 C 0.87 0.63731 0.04539 0.0
C177 C 0.82751 0.61144 0.08885 0.0
N178 N 0.81031 0.61615 0.2857 0.0
H179 H 0.81988 0.6461 0.60859 0.0
H180 H 0.80793 0.59132 0.95354 0.0
C181 C 0.65774 0.57099 0.55898 0.0
N182 N 0.66752 0.5595 0.35684 0.0
C183 C 0.59546 0.52339 0.24311 0.0
C184 C 0.58492 0.53487 0.45238 0.0
C185 C 0.61651 0.55826 0.61246 0.0
C186 C 0.63751 0.53579 0.19946 0.0
H187 H 0.68221 0.59174 0.67529 0.0
H188 H 0.64637 0.52803 0.03728 0.0
C189 C 0.73465 0.51906 0.88775 0.0
C190 C 0.74146 0.39355 0.32048 0.0
N191 N 0.81101 0.51012 0.35199 0.0
C192 C 0.83202 0.49501 0.2322 0.0
C193 C 0.87323 0.50782 0.28611 0.0
C194 C 0.89421 0.5387 0.453 0.0
C195 C 0.87278 0.5558 0.56625 0.0
C196 C 0.83055 0.54063 0.51378 0.0
C197 C 0.74353 0.66815 0.16461 0.0
O198 O 0.73687 0.52383 0.50321 0.0
O199 O 0.73821 0.57409 0.7021 0.0
O200 O 0.73461 0.53445 0.08081 0.0
O201 O 0.73646 0.48579 0.88392 0.0
O202 O 0.74149 0.41203 0.50604 0.0
O203 O 0.74184 0.411 0.1299 0.0
O204 O 0.73848 0.64156 0.01038 0.0
O205 O 0.74874 0.66002 0.37163 0.0
H206 H 0.81577 0.47046 0.10728 0.0
H207 H 0.81331 0.55167 0.61156 0.0
H208 H 0.58259 0.39161 0.66327 0.0
H209 H 0.59908 0.35644 0.97728 0.0
H210 H 0.89523 0.69327 0.53928 0.0
H211 H 0.88236 0.63677 0.87705 0.0
H212 H 0.57174 0.50579 0.11458 0.0
H213 H 0.60975 0.56884 0.77224 0.0
H214 H 0.88748 0.49106 0.21246 0.0
H215 H 0.88767 0.57835 0.70339 0.0
Cd216 Cd 0.46739 0.25616 0.28697 0.0
Cd217 Cd 0.34379 0.1321 0.29941 0.0
C218 C 0.52807 0.22923 0.1304 0.0
N219 N 0.50418 0.2213 0.32174 0.0
C220 C 0.54006 0.19064 0.51188 0.0
C221 C 0.56634 0.20038 0.31876 0.0
C222 C 0.55928 0.21888 0.12465 0.0
C223 C 0.50869 0.20156 0.50985 0.0
H224 H 0.52446 0.24598 0.98657 0.0
H225 H 0.4894 0.19602 0.66059 0.0
C226 C 0.39739 0.18238 0.69768 0.0
C227 C 0.29401 0.17744 0.45764 0.0
C228 C 0.26768 0.19384 0.42 0.0
C229 C 0.26767 0.21116 0.20477 0.0
C230 C 0.29893 0.21827 0.04528 0.0
C231 C 0.3247 0.20149 0.08889 0.0
N232 N 0.32006 0.17949 0.28687 0.0
H233 H 0.29035 0.15909 0.61143 0.0
H234 H 0.34468 0.20198 0.9531 0.0
C235 C 0.36651 0.07268 0.56201 0.0
N236 N 0.37742 0.09404 0.35871 0.0
C237 C 0.41336 0.05833 0.24109 0.0
C238 C 0.40237 0.03611 0.45116 0.0
C239 C 0.37942 0.04418 0.61389 0.0
C240 C 0.40079 0.08795 0.19896 0.0
H241 H 0.34599 0.07623 0.68034 0.0
H242 H 0.40807 0.10465 0.036 0.0
C243 C 0.41698 0.20105 0.88753 0.0
C244 C 0.54274 0.33282 0.31938 0.0
N245 N 0.4265 0.28669 0.35005 0.0
C246 C 0.44232 0.32348 0.23375 0.0
C247 C 0.42979 0.35194 0.28978 0.0
C248 C 0.39855 0.34149 0.4553 0.0
C249 C 0.38081 0.30239 0.56521 0.0
C250 C 0.39562 0.27521 0.51044 0.0
C251 C 0.26843 0.06057 0.1678 0.0
O252 O 0.41226 0.19821 0.50309 0.0
O253 O 0.36204 0.14932 0.70515 0.0
O254 O 0.40163 0.18568 0.08158 0.0
O255 O 0.45019 0.2362 0.88146 0.0
O256 O 0.52388 0.31397 0.50441 0.0
O257 O 0.52559 0.31627 0.12828 0.0
O258 O 0.29495 0.08278 0.01355 0.0
O259 O 0.27645 0.0733 0.37511 0.0
H260 H 0.4671 0.33216 0.10968 0.0
H261 H 0.38395 0.24635 0.60529 0.0
H262 H 0.54447 0.17591 0.66344 0.0
H263 H 0.57934 0.22768 0.97417 0.0
H264 H 0.24334 0.18754 0.54173 0.0
H265 H 0.29937 0.23121 0.87625 0.0
H266 H 0.43063 0.05231 0.11065 0.0
H267 H 0.36919 0.02666 0.77443 0.0
H268 H 0.44681 0.38325 0.21776 0.0
H269 H 0.35792 0.29427 0.70116 0.0
Cd270 Cd 0.68009 0.19665 0.28684 0.0
Cd271 Cd 0.80432 0.19722 0.30103 0.0
C272 C 0.70724 0.28467 0.1305 0.0
N273 N 0.71502 0.26821 0.32148 0.0
C274 C 0.74565 0.33424 0.51251 0.0
C275 C 0.73604 0.3513 0.31992 0.0
C276 C 0.71765 0.32627 0.12546 0.0
C277 C 0.73468 0.29195 0.50976 0.0
H278 H 0.69056 0.26468 0.98652 0.0
H279 H 0.74011 0.27783 0.66019 0.0
C280 C 0.75385 0.20036 0.69842 0.0
C281 C 0.7596 0.10176 0.46077 0.0
C282 C 0.74353 0.05916 0.42268 0.0
C283 C 0.72602 0.0422 0.20816 0.0
C284 C 0.71856 0.06652 0.04979 0.0
C285 C 0.73505 0.10892 0.09376 0.0
N286 N 0.75715 0.12599 0.29091 0.0
H287 H 0.77804 0.11623 0.61381 0.0
H288 H 0.73425 0.12857 0.95853 0.0
C289 C 0.86394 0.2788 0.56332 0.0
N290 N 0.84268 0.26886 0.36012 0.0
C291 C 0.87853 0.34083 0.24335 0.0
C292 C 0.90059 0.35154 0.45351 0.0
C293 C 0.89241 0.32008 0.61569 0.0
C294 C 0.84892 0.29875 0.20076 0.0
H295 H 0.86027 0.25442 0.68133 0.0
H296 H 0.83232 0.28975 0.03785 0.0
C297 C 0.73537 0.20162 0.88802 0.0
C298 C 0.6032 0.19499 0.31837 0.0
N299 N 0.64997 0.12518 0.34976 0.0
C300 C 0.61369 0.10428 0.22985 0.0
C301 C 0.58525 0.06306 0.28432 0.0
C302 C 0.59525 0.04203 0.45239 0.0
C303 C 0.63392 0.06336 0.56582 0.0
C304 C 0.66105 0.10555 0.51243 0.0
C305 C 0.87588 0.19358 0.16881 0.0
O306 O 0.73791 0.19927 0.5038 0.0
O307 O 0.78684 0.19796 0.70638 0.0
O308 O 0.75082 0.20176 0.08231 0.0
O309 O 0.70029 0.19984 0.88166 0.0
O310 O 0.62192 0.19465 0.50357 0.0
O311 O 0.61998 0.19486 0.12751 0.0
O312 O 0.85363 0.19803 0.01475 0.0
O313 O 0.86319 0.18865 0.37644 0.0
H314 H 0.6053 0.12061 0.10433 0.0
H315 H 0.68949 0.12272 0.61022 0.0
H316 H 0.76032 0.35298 0.66421 0.0
H317 H 0.70897 0.33795 0.97531 0.0
H318 H 0.75024 0.04101 0.54306 0.0
H319 H 0.70557 0.05434 0.88108 0.0
H320 H 0.88463 0.36445 0.11325 0.0
H321 H 0.90978 0.32696 0.77632 0.0
H322 H 0.55418 0.04885 0.20991 0.0
H323 H 0.64167 0.04841 0.7037 0.0
Cd324 Cd 0.40621 0.80203 0.62442 0.0
Cd325 Cd 0.40586 0.9258 0.63074 0.0
C326 C 0.3186 0.74115 0.46786 0.0
N327 N 0.33465 0.76514 0.65856 0.0
C328 C 0.26826 0.72929 0.84724 0.0
C329 C 0.25162 0.70294 0.65479 0.0
C330 C 0.27706 0.70992 0.46174 0.0
C331 C 0.31054 0.76069 0.84561 0.0
H332 H 0.33887 0.74474 0.3249 0.0
H333 H 0.32435 0.78006 -0.00416 0.0
C334 C 0.40246 0.87207 0.03134 0.0
C335 C 0.50116 -0.0243 0.79027 0.0
C336 C 0.54384 0.00211 0.75271 0.0
C337 C 0.56096 0.00199 0.5383 0.0
C338 C 0.53668 0.97057 0.37987 0.0
C339 C 0.49419 0.94473 0.4234 0.0
N340 N 0.47701 0.94947 0.62024 0.0
H341 H 0.48661 -0.02055 0.94308 0.0
H342 H 0.47459 0.92461 0.28814 0.0
C343 C 0.32438 0.90427 0.89314 0.0
N344 N 0.33422 0.89283 0.69102 0.0
C345 C 0.26219 0.85673 0.57663 0.0
C346 C 0.25159 0.86816 0.78584 0.0
C347 C 0.28312 0.89151 0.94625 0.0
C348 C 0.30425 0.86915 0.53335 0.0
H349 H 0.34881 0.92499 0.0097 0.0
H350 H 0.31317 0.86143 0.3712 0.0
C351 C 0.40129 0.85242 0.22238 0.0
C352 C 0.40811 0.72691 0.65489 0.0
N353 N 0.47762 0.84348 0.68612 0.0
C354 C 0.49861 0.82843 0.56563 0.0
C355 C 0.53984 0.84123 0.61912 0.0
C356 C 0.56085 0.87205 0.78628 0.0
C357 C 0.53944 0.88909 0.90024 0.0
C358 C 0.4972 0.87393 0.84822 0.0
C359 C 0.41021 0.0015 0.49898 0.0
O360 O 0.40352 0.8572 0.83786 0.0
O361 O 0.4049 0.90747 0.03676 0.0
O362 O 0.40126 0.8678 0.41546 0.0
O363 O 0.40305 0.81912 0.21852 0.0
O364 O 0.40814 0.74538 0.84051 0.0
O365 O 0.40847 0.74436 0.46437 0.0
O366 O 0.40521 0.97491 0.34482 0.0
O367 O 0.41539 -0.00663 0.70607 0.0
H368 H 0.48234 0.80392 0.44052 0.0
H369 H 0.47996 0.88491 0.94657 0.0
H370 H 0.24919 0.72494 -0.00211 0.0
H371 H 0.26571 0.6898 0.31189 0.0
H372 H 0.56197 0.02658 0.87362 0.0
H373 H 0.54903 0.97001 0.21151 0.0
H374 H 0.23851 0.83915 0.44786 0.0
H375 H 0.27631 0.90206 0.10601 0.0
H376 H 0.55406 0.82447 0.54505 0.0
H377 H 0.55435 0.91159 0.0376 0.0
Cd378 Cd 0.13405 0.58946 0.62125 0.0
Cd379 Cd 0.01043 0.46546 0.63372 0.0
C380 C 0.19476 0.56257 0.46438 0.0
N381 N 0.17087 0.55462 0.65574 0.0
C382 C 0.20677 0.52398 0.84574 0.0
C383 C 0.23305 0.53374 0.65259 0.0
C384 C 0.22598 0.55224 0.45854 0.0
C385 C 0.17539 0.53488 0.8438 0.0
H386 H 0.19113 0.57933 0.3206 0.0
H387 H 0.15611 0.52932 -0.00542 0.0
C388 C 0.06405 0.5157 0.03201 0.0
C389 C 0.96063 0.5108 0.79148 0.0
C390 C 0.93429 0.52718 0.75355 0.0
C391 C 0.93431 0.54449 0.53825 0.0
C392 C -0.03439 0.55162 0.37897 0.0
C393 C -0.00862 0.53485 0.42287 0.0
N394 N -0.01329 0.51286 0.6209 0.0
H395 H 0.95695 0.49245 0.94531 0.0
H396 H 0.01139 0.53535 0.28722 0.0
C397 C 0.03318 0.40603 0.89593 0.0
N398 N 0.04406 0.4274 0.69265 0.0
C399 C 0.07999 0.39169 0.57464 0.0
C400 C 0.06903 0.36946 0.78467 0.0
C401 C 0.04609 0.37753 0.94758 0.0
C402 C 0.06742 0.42132 0.53273 0.0
H403 H 0.01268 0.40958 0.0144 0.0
H404 H 0.07467 0.43802 0.3698 0.0
C405 C 0.08364 0.53437 0.22185 0.0
C406 C 0.20935 0.66615 0.65393 0.0
N407 N 0.0931 0.61994 0.68362 0.0
C408 C 0.10885 0.65666 0.5667 0.0
C409 C 0.09632 0.68513 0.62231 0.0
C410 C 0.06512 0.67474 0.78803 0.0
C411 C 0.04743 0.63571 0.89855 0.0
C412 C 0.06226 0.60853 0.84422 0.0
C413 C 0.93507 0.39393 0.50209 0.0
O414 O 0.07892 0.53153 0.83743 0.0
O415 O 0.02868 0.48266 0.03949 0.0
O416 O 0.06829 0.51901 0.41591 0.0
O417 O 0.11687 0.5695 0.21573 0.0
O418 O 0.19049 0.64728 0.83891 0.0
O419 O 0.19223 0.6496 0.46279 0.0
O420 O 0.96158 0.41615 0.34785 0.0
O421 O 0.94309 0.40665 0.70943 0.0
H422 H 0.13361 0.66529 0.44252 0.0
H423 H 0.05065 0.57973 0.9396 0.0
H424 H 0.2112 0.50925 -0.00273 0.0
H425 H 0.24603 0.56105 0.30804 0.0
H426 H 0.90992 0.52086 0.87512 0.0
H427 H -0.03394 0.56454 0.20989 0.0
H428 H 0.09724 0.38569 0.44407 0.0
H429 H 0.03588 0.35999 0.1081 0.0
H430 H 0.11333 0.71642 0.54996 0.0
H431 H 0.02459 0.62764 0.03467 0.0
Cd432 Cd 0.34682 0.53004 0.62047 0.0
Cd433 Cd 0.471 0.53053 0.63459 0.0
C434 C 0.37395 0.61807 0.46447 0.0
N435 N 0.38174 0.60159 0.65537 0.0
C436 C 0.41233 0.6676 0.84666 0.0
C437 C 0.40271 0.68467 0.65416 0.0
C438 C 0.38434 0.65966 0.45961 0.0
C439 C 0.40138 0.62531 0.84374 0.0
H440 H 0.35729 0.59809 0.32042 0.0
H441 H 0.40682 0.61118 -0.0059 0.0
C442 C 0.42056 0.53372 0.03203 0.0
C443 C 0.42628 0.43508 0.79431 0.0
C444 C 0.41021 0.39248 0.75619 0.0
C445 C 0.39271 0.37552 0.54167 0.0
C446 C 0.38524 0.39985 0.38333 0.0
C447 C 0.40172 0.44225 0.42734 0.0
N448 N 0.42383 0.45931 0.62448 0.0
H449 H 0.44473 0.44955 0.94735 0.0
H450 H 0.40092 0.4619 0.29213 0.0
C451 C 0.53064 0.61215 0.89661 0.0
N452 N 0.50938 0.60218 0.69342 0.0
C453 C 0.54523 0.67414 0.5763 0.0
C454 C 0.5673 0.68487 0.78642 0.0
C455 C 0.55912 0.65344 0.94877 0.0
C456 C 0.51562 0.63205 0.53391 0.0
H457 H 0.52697 0.58779 0.01475 0.0
H458 H 0.49901 0.62303 0.37102 0.0
C459 C 0.40209 0.53498 0.22163 0.0
C460 C 0.26993 0.52836 0.65211 0.0
N461 N 0.31669 0.45857 0.68327 0.0
C462 C 0.28043 0.43768 0.56313 0.0
C463 C 0.25198 0.39646 0.61748 0.0
C464 C 0.26194 0.37542 0.78565 0.0
C465 C 0.30059 0.39673 0.89932 0.0
C466 C 0.32774 0.43892 0.84605 0.0
C467 C 0.54255 0.5269 0.50204 0.0
O468 O 0.40463 0.53263 0.83741 0.0
O469 O 0.45355 0.53129 0.03999 0.0
O470 O 0.41753 0.53511 0.41592 0.0
O471 O 0.36702 0.53323 0.21527 0.0
O472 O 0.28864 0.52801 0.83727 0.0
O473 O 0.28671 0.52826 0.46122 0.0
O474 O 0.52027 0.53132 0.34809 0.0
O475 O 0.5299 0.52199 0.70975 0.0
H476 H 0.27208 0.45403 0.43755 0.0
H477 H 0.35615 0.45608 0.94402 0.0
H478 H 0.42699 0.68633 -0.00157 0.0
H479 H 0.37566 0.67135 0.30951 0.0
H480 H 0.41693 0.37433 0.87655 0.0
H481 H 0.37224 0.38767 0.21462 0.0
H482 H 0.55132 0.69773 0.44608 0.0
H483 H 0.5765 0.66034 0.10939 0.0
H484 H 0.22091 0.38227 0.54295 0.0
H485 H 0.30831 0.38177 0.03729 0.0
loop_
_geom_bond_atom_site_label_1
_geom_bond_atom_site_label_2
_geom_bond_distance
_geom_bond_site_symmetry_2
_ccdc_geom_bond_type
Cd0 N3 2.334 . S
Cd0 N29 2.304 . S
Cd0 O36 2.268 1_556 S
Cd0 O39 2.273 . S
Cd0 O40 2.417 1_556 S
Cd0 O41 2.330 . S
Cd1 N16 2.304 1_554 S
Cd1 N20 2.334 . S
Cd1 O37 2.273 . S
Cd1 O38 2.268 1_554 S
Cd1 O42 2.417 1_554 S
Cd1 O43 2.330 . S
C2 N3 1.332 . S
C2 C6 1.381 1_455 S
C2 H8 0.931 . S
N3 Cd0 2.334 . S
N3 C2 1.332 . S
N3 C7 1.328 1_556 S
C4 C5 1.396 1_554 S
C4 C7 1.378 1_655 S
C4 H46 0.931 . S
C5 C4 1.396 1_556 S
C5 C6 1.382 . S
C6 C2 1.381 1_655 S
C6 C5 1.382 . S
C6 H47 0.930 . S
C7 N3 1.328 1_554 S
C7 C4 1.378 1_455 S
C7 H9 0.930 . S
H8 C2 0.931 . S
H9 C7 0.930 . S
C10 O36 1.238 . S
C10 O37 1.253 . S
C11 C12 1.379 . S
C11 N16 1.337 1_554 S
C11 H17 0.929 . S
C12 C11 1.379 . S
C12 C13 1.380 1_554 S
C12 H48 0.929 . S
C13 C12 1.380 1_556 S
C13 C14 1.399 . S
C14 C13 1.399 . S
C14 C15 1.376 . S
C14 H49 0.931 . S
C15 C14 1.376 . S
C15 N16 1.338 . S
C15 H18 0.930 . S
N16 Cd1 2.304 1_556 S
N16 C11 1.337 1_556 S
N16 C15 1.338 . S
H17 C11 0.929 . S
H18 C15 0.930 . S
C19 N20 1.332 . S
C19 C23 1.381 1_455 S
C19 H25 0.931 . S
N20 Cd1 2.334 . S
N20 C19 1.332 . S
N20 C24 1.328 1_554 S
C21 C22 1.396 1_556 S
C21 C24 1.378 1_655 S
C21 H50 0.931 . S
C22 C21 1.396 1_554 S
C22 C23 1.382 . S
C23 C19 1.381 1_655 S
C23 C22 1.382 . S
C23 H51 0.930 . S
C24 N20 1.328 1_556 S
C24 C21 1.378 1_455 S
C24 H26 0.930 . S
H25 C19 0.931 . S
H26 C24 0.930 . S
C27 O38 1.238 . S
C27 O39 1.253 . S
C28 O40 1.239 . S
C28 O41 1.230 1_554 S
N29 Cd0 2.304 . S
N29 C30 1.337 . S
N29 C34 1.338 1_556 S
C30 N29 1.337 . S
C30 C31 1.379 . S
C30 H44 0.929 . S
C31 C30 1.379 . S
C31 C32 1.380 . S
C31 H52 0.929 . S
C32 C31 1.380 . S
C32 C33 1.399 1_556 S
C33 C32 1.399 1_554 S
C33 C34 1.376 . S
C33 H53 0.931 . S
C34 N29 1.338 1_554 S
C34 C33 1.376 . S
C34 H45 0.930 . S
C35 O42 1.239 . S
C35 O43 1.230 1_556 S
O36 Cd0 2.268 1_554 S
O36 C10 1.238 . S
O37 Cd1 2.273 . S
O37 C10 1.253 . S
O38 Cd1 2.268 1_556 S
O38 C27 1.238 . S
O39 Cd0 2.273 . S
O39 C27 1.253 . S
O40 Cd0 2.417 1_554 S
O40 C28 1.239 . S
O41 Cd0 2.330 . S
O41 C28 1.230 1_556 S
O42 Cd1 2.417 1_556 S
O42 C35 1.239 . S
O43 Cd1 2.330 . S
O43 C35 1.230 1_554 S
H44 C30 0.929 . S
H45 C34 0.930 . S
H46 C4 0.931 . S
H47 C6 0.930 . S
H48 C12 0.929 . S
H49 C14 0.931 . S
H50 C21 0.931 . S
H51 C23 0.930 . S
H52 C31 0.929 . S
H53 C33 0.931 . S
Cd54 N57 2.334 . S
Cd54 N83 2.304 . S
Cd54 O90 2.268 1_556 S
Cd54 O93 2.273 . S
Cd54 O94 2.419 1_556 S
Cd54 O95 2.330 1_565 S
Cd55 N70 2.304 1_554 S
Cd55 N74 2.334 . S
Cd55 O91 2.273 . S
Cd55 O92 2.268 1_554 S
Cd55 O96 2.417 1_554 S
Cd55 O97 2.330 . S
C56 N57 1.332 . S
C56 C60 1.381 . S
C56 H62 0.931 . S
N57 Cd54 2.334 . S
N57 C56 1.332 . S
N57 C61 1.328 1_556 S
C58 C59 1.396 1_554 S
C58 C61 1.378 . S
C58 H100 0.931 . S
C59 C58 1.396 1_556 S
C59 C60 1.382 . S
C60 C56 1.381 . S
C60 C59 1.382 . S
C60 H101 0.930 . S
C61 N57 1.328 1_554 S
C61 C58 1.378 . S
C61 H63 0.930 . S
H62 C56 0.931 . S
H63 C61 0.930 . S
C64 O90 1.238 . S
C64 O91 1.253 . S
C65 C66 1.379 . S
C65 N70 1.337 1_554 S
C65 H71 0.929 . S
C66 C65 1.379 . S
C66 C67 1.380 1_554 S
C66 H102 0.929 . S
C67 C66 1.380 1_556 S
C67 C68 1.399 . S
C68 C67 1.399 . S
C68 C69 1.376 . S
C68 H103 0.931 . S
C69 C68 1.376 . S
C69 N70 1.338 . S
C69 H72 0.930 . S
N70 Cd55 2.304 1_556 S
N70 C65 1.337 1_556 S
N70 C69 1.338 . S
H71 C65 0.929 . S
H72 C69 0.930 . S
C73 N74 1.332 . S
C73 C77 1.381 . S
C73 H79 0.931 . S
N74 Cd55 2.334 . S
N74 C73 1.332 . S
N74 C78 1.328 1_554 S
C75 C76 1.396 1_556 S
C75 C78 1.378 . S
C75 H104 0.931 . S
C76 C75 1.396 1_554 S
C76 C77 1.382 . S
C77 C73 1.381 . S
C77 C76 1.382 . S
C77 H105 0.930 . S
C78 N74 1.328 1_556 S
C78 C75 1.378 . S
C78 H80 0.930 . S
H79 C73 0.931 . S
H80 C78 0.930 . S
C81 O92 1.238 . S
C81 O93 1.253 . S
C82 O94 1.236 1_545 S
C82 O95 1.230 1_554 S
N83 Cd54 2.304 . S
N83 C84 1.333 1_565 S
N83 C88 1.338 1_556 S
C84 N83 1.333 1_545 S
C84 C85 1.386 . S
C84 H98 0.926 1_545 S
C85 C84 1.386 . S
C85 C86 1.380 . S
C85 H106 0.929 . S
C86 C85 1.380 . S
C86 C87 1.399 1_556 S
C87 C86 1.399 1_554 S
C87 C88 1.376 1_545 S
C87 H107 0.931 . S
C88 N83 1.338 1_554 S
C88 C87 1.376 1_565 S
C88 H99 0.930 . S
C89 O96 1.239 . S
C89 O97 1.230 1_556 S
O90 Cd54 2.268 1_554 S
O90 C64 1.238 . S
O91 Cd55 2.273 . S
O91 C64 1.253 . S
O92 Cd55 2.268 1_556 S
O92 C81 1.238 . S
O93 Cd54 2.273 . S
O93 C81 1.253 . S
O94 Cd54 2.419 1_554 S
O94 C82 1.236 1_565 S
O95 Cd54 2.330 1_545 S
O95 C82 1.230 1_556 S
O96 Cd55 2.417 1_556 S
O96 C89 1.239 . S
O97 Cd55 2.330 . S
O97 C89 1.230 1_554 S
H98 C84 0.926 1_565 S
H99 C88 0.930 . S
H100 C58 0.931 . S
H101 C60 0.930 . S
H102 C66 0.929 . S
H103 C68 0.931 . S
H104 C75 0.931 . S
H105 C77 0.930 . S
H106 C85 0.929 . S
H107 C87 0.931 . S
Cd108 N111 2.334 . S
Cd108 N137 2.304 . S
Cd108 O144 2.268 1_556 S
Cd108 O147 2.273 . S
Cd108 O148 2.398 1_456 S
Cd108 O149 2.330 1_455 S
Cd109 N124 2.304 1_554 S
Cd109 N128 2.334 . S
Cd109 O145 2.273 . S
Cd109 O146 2.268 1_554 S
Cd109 O150 2.417 1_554 S
Cd109 O151 2.330 . S
C110 N111 1.332 . S
C110 C114 1.381 1_565 S
C110 H116 0.931 . S
N111 Cd108 2.334 . S
N111 C110 1.332 . S
N111 C115 1.328 1_556 S
C112 C113 1.396 1_554 S
C112 C115 1.378 1_545 S
C112 H154 0.931 . S
C113 C112 1.396 1_556 S
C113 C114 1.382 . S
C114 C110 1.381 1_545 S
C114 C113 1.382 . S
C114 H155 0.930 . S
C115 N111 1.328 1_554 S
C115 C112 1.378 1_565 S
C115 H117 0.930 . S
H116 C110 0.931 . S
H117 C115 0.930 . S
C118 O144 1.238 . S
C118 O145 1.253 . S
C119 C120 1.379 . S
C119 N124 1.337 1_554 S
C119 H125 0.929 . S
C120 C119 1.379 . S
C120 C121 1.380 1_554 S
C120 H156 0.929 . S
C121 C120 1.380 1_556 S
C121 C122 1.399 . S
C122 C121 1.399 . S
C122 C123 1.376 . S
C122 H157 0.931 . S
C123 C122 1.376 . S
C123 N124 1.338 . S
C123 H126 0.930 . S
N124 Cd109 2.304 1_556 S
N124 C119 1.337 1_556 S
N124 C123 1.338 . S
H125 C119 0.929 . S
H126 C123 0.930 . S
C127 N128 1.332 . S
C127 C131 1.381 1_565 S
C127 H133 0.931 . S
N128 Cd109 2.334 . S
N128 C127 1.332 . S
N128 C132 1.328 1_554 S
C129 C130 1.396 1_556 S
C129 C132 1.378 1_545 S
C129 H158 0.931 . S
C130 C129 1.396 1_554 S
C130 C131 1.382 . S
C131 C127 1.381 1_545 S
C131 C130 1.382 . S
C131 H159 0.930 . S
C132 N128 1.328 1_556 S
C132 C129 1.378 1_565 S
C132 H134 0.930 . S
H133 C127 0.931 . S
H134 C132 0.930 . S
C135 O146 1.238 . S
C135 O147 1.253 . S
C136 O148 1.253 . S
C136 O149 1.230 1_554 S
N137 Cd108 2.304 . S
N137 C138 1.337 1_455 S
N137 C142 1.338 1_556 S
C138 N137 1.337 1_655 S
C138 C139 1.379 . S
C138 H152 0.930 1_655 S
C139 C138 1.379 . S
C139 C140 1.380 . S
C139 H160 0.929 . S
C140 C139 1.380 . S
C140 C141 1.399 1_556 S
C141 C140 1.399 1_554 S
C141 C142 1.376 1_655 S
C141 H161 0.931 . S
C142 N137 1.338 1_554 S
C142 C141 1.376 1_455 S
C142 H153 0.930 . S
C143 O150 1.239 . S
C143 O151 1.230 1_556 S
O144 Cd108 2.268 1_554 S
O144 C118 1.238 . S
O145 Cd109 2.273 . S
O145 C118 1.253 . S
O146 Cd109 2.268 1_556 S
O146 C135 1.238 . S
O147 Cd108 2.273 . S
O147 C135 1.253 . S
O148 Cd108 2.398 1_654 S
O148 C136 1.253 . S
O149 Cd108 2.330 1_655 S
O149 C136 1.230 1_556 S
O150 Cd109 2.417 1_556 S
O150 C143 1.239 . S
O151 Cd109 2.330 . S
O151 C143 1.230 1_554 S
H152 C138 0.930 1_455 S
H153 C142 0.930 . S
H154 C112 0.931 . S
H155 C114 0.930 . S
H156 C120 0.929 . S
H157 C122 0.931 . S
H158 C129 0.931 . S
H159 C131 0.930 . S
H160 C139 0.929 . S
H161 C141 0.931 . S
Cd162 N165 2.334 . S
Cd162 N191 2.304 . S
Cd162 O198 2.268 . S
Cd162 O201 2.273 1_554 S
Cd162 O202 2.417 . S
Cd162 O203 2.330 . S
Cd163 N178 2.304 . S
Cd163 N182 2.334 . S
Cd163 O199 2.273 . S
Cd163 O200 2.268 . S
Cd163 O204 2.417 . S
Cd163 O205 2.330 . S
C164 N165 1.332 . S
C164 C168 1.381 . S
C164 H170 0.931 1_554 S
N165 Cd162 2.334 . S
N165 C164 1.332 . S
N165 C169 1.328 . S
C166 C167 1.396 . S
C166 C169 1.378 . S
C166 H208 0.931 . S
C167 C166 1.396 . S
C167 C168 1.382 . S
C168 C164 1.381 . S
C168 C167 1.382 . S
C168 H209 0.930 1_554 S
C169 N165 1.328 . S
C169 C166 1.378 . S
C169 H171 0.930 . S
H170 C164 0.931 1_556 S
H171 C169 0.930 . S
C172 O198 1.238 . S
C172 O199 1.253 . S
C173 C174 1.379 . S
C173 N178 1.337 . S
C173 H179 0.929 . S
C174 C173 1.379 . S
C174 C175 1.380 . S
C174 H210 0.929 . S
C175 C174 1.380 . S
C175 C176 1.399 . S
C176 C175 1.399 . S
C176 C177 1.376 . S
C176 H211 0.931 1_554 S
C177 C176 1.376 . S
C177 N178 1.338 . S
C177 H180 0.930 1_554 S
N178 Cd163 2.304 . S
N178 C173 1.337 . S
N178 C177 1.338 . S
H179 C173 0.929 . S
H180 C177 0.930 1_556 S
C181 N182 1.332 . S
C181 C185 1.381 . S
C181 H187 0.931 . S
N182 Cd163 2.334 . S
N182 C181 1.332 . S
N182 C186 1.328 . S
C183 C184 1.396 . S
C183 C186 1.378 . S
C183 H212 0.931 . S
C184 C183 1.396 . S
C184 C185 1.382 . S
C185 C181 1.381 . S
C185 C184 1.382 . S
C185 H213 0.930 . S
C186 N182 1.328 . S
C186 C183 1.378 . S
C186 H188 0.930 . S
H187 C181 0.931 . S
H188 C186 0.930 . S
C189 O200 1.238 1_556 S
C189 O201 1.253 . S
C190 O202 1.239 . S
C190 O203 1.230 . S
N191 Cd162 2.304 . S
N191 C192 1.337 . S
N191 C196 1.338 . S
C192 N191 1.337 . S
C192 C193 1.379 . S
C192 H206 0.929 1_554 S
C193 C192 1.379 . S
C193 C194 1.380 . S
C193 H214 0.929 1_554 S
C194 C193 1.380 . S
C194 C195 1.399 . S
C195 C194 1.399 . S
C195 C196 1.376 . S
C195 H215 0.931 . S
C196 N191 1.338 . S
C196 C195 1.376 . S
C196 H207 0.930 . S
C197 O204 1.239 . S
C197 O205 1.230 . S
O198 Cd162 2.268 . S
O198 C172 1.238 . S
O199 Cd163 2.273 . S
O199 C172 1.253 . S
O200 Cd163 2.268 . S
O200 C189 1.238 1_554 S
O201 Cd162 2.273 1_556 S
O201 C189 1.253 . S
O202 Cd162 2.417 . S
O202 C190 1.239 . S
O203 Cd162 2.330 . S
O203 C190 1.230 . S
O204 Cd163 2.417 . S
O204 C197 1.239 . S
O205 Cd163 2.330 . S
O205 C197 1.230 . S
H206 C192 0.929 1_556 S
H207 C196 0.930 . S
H208 C166 0.931 . S
H209 C168 0.930 1_556 S
H210 C174 0.929 . S
H211 C176 0.931 1_556 S
H212 C183 0.931 . S
H213 C185 0.930 . S
H214 C193 0.929 1_556 S
H215 C195 0.931 . S
Cd216 N219 2.334 . S
Cd216 N245 2.304 . S
Cd216 O252 2.268 . S
Cd216 O255 2.273 1_554 S
Cd216 O256 2.417 . S
Cd216 O257 2.330 . S
Cd217 N232 2.304 . S
Cd217 N236 2.334 . S
Cd217 O253 2.273 . S
Cd217 O254 2.268 . S
Cd217 O258 2.417 . S
Cd217 O259 2.330 . S
C218 N219 1.332 . S
C218 C222 1.381 . S
C218 H224 0.930 . S
N219 Cd216 2.334 . S
N219 C218 1.332 . S
N219 C223 1.328 . S
C220 C221 1.396 . S
C220 C223 1.378 . S
C220 H262 0.931 . S
C221 C220 1.396 . S
C221 C222 1.382 . S
C222 C218 1.381 . S
C222 C221 1.382 . S
C222 H263 0.930 1_554 S
C223 N219 1.328 . S
C223 C220 1.378 . S
C223 H225 0.930 . S
H224 C218 0.930 . S
H225 C223 0.930 . S
C226 O252 1.238 . S
C226 O253 1.253 . S
C227 C228 1.379 . S
C227 N232 1.337 . S
C227 H233 0.929 . S
C228 C227 1.379 . S
C228 C229 1.380 . S
C228 H264 0.929 . S
C229 C228 1.380 . S
C229 C230 1.399 . S
C230 C229 1.399 . S
C230 C231 1.376 . S
C230 H265 0.931 1_554 S
C231 C230 1.376 . S
C231 N232 1.338 . S
C231 H234 0.930 1_554 S
N232 Cd217 2.304 . S
N232 C227 1.337 . S
N232 C231 1.338 . S
H233 C227 0.929 . S
H234 C231 0.930 1_556 S
C235 N236 1.332 . S
C235 C239 1.381 . S
C235 H241 0.931 . S
N236 Cd217 2.334 . S
N236 C235 1.332 . S
N236 C240 1.328 . S
C237 C238 1.396 . S
C237 C240 1.378 . S
C237 H266 0.931 . S
C238 C237 1.396 . S
C238 C239 1.382 . S
C239 C235 1.381 . S
C239 C238 1.382 . S
C239 H267 0.930 . S
C240 N236 1.328 . S
C240 C237 1.378 . S
C240 H242 0.930 . S
H241 C235 0.931 . S
H242 C240 0.930 . S
C243 O254 1.238 1_556 S
C243 O255 1.253 . S
C244 O256 1.239 . S
C244 O257 1.230 . S
N245 Cd216 2.304 . S
N245 C246 1.337 . S
N245 C250 1.338 . S
C246 N245 1.337 . S
C246 C247 1.379 . S
C246 H260 0.929 1_554 S
C247 C246 1.379 . S
C247 C248 1.380 . S
C247 H268 0.929 1_554 S
C248 C247 1.380 . S
C248 C249 1.399 . S
C249 C248 1.399 . S
C249 C250 1.376 . S
C249 H269 0.931 . S
C250 N245 1.338 . S
C250 C249 1.376 . S
C250 H261 0.930 . S
C251 O258 1.239 . S
C251 O259 1.230 . S
O252 Cd216 2.268 . S
O252 C226 1.238 . S
O253 Cd217 2.273 . S
O253 C226 1.253 . S
O254 Cd217 2.268 . S
O254 C243 1.238 1_554 S
O255 Cd216 2.273 1_556 S
O255 C243 1.253 . S
O256 Cd216 2.417 . S
O256 C244 1.239 . S
O257 Cd216 2.330 . S
O257 C244 1.230 . S
O258 Cd217 2.417 . S
O258 C251 1.239 . S
O259 Cd217 2.330 . S
O259 C251 1.230 . S
H260 C246 0.929 1_556 S
H261 C250 0.930 . S
H262 C220 0.931 . S
H263 C222 0.930 1_556 S
H264 C228 0.929 . S
H265 C230 0.931 1_556 S
H266 C237 0.931 . S
H267 C239 0.930 . S
H268 C247 0.929 1_556 S
H269 C249 0.931 . S
Cd270 N273 2.334 . S
Cd270 N299 2.304 . S
Cd270 O306 2.268 . S
Cd270 O309 2.273 1_554 S
Cd270 O310 2.417 . S
Cd270 O311 2.330 . S
Cd271 N286 2.304 . S
Cd271 N290 2.334 . S
Cd271 O307 2.273 . S
Cd271 O308 2.268 . S
Cd271 O312 2.417 . S
Cd271 O313 2.330 . S
C272 N273 1.332 . S
C272 C276 1.381 . S
C272 H278 0.931 . S
N273 Cd270 2.334 . S
N273 C272 1.332 . S
N273 C277 1.328 . S
C274 C275 1.396 . S
C274 C277 1.378 . S
C274 H316 0.931 . S
C275 C274 1.396 . S
C275 C276 1.382 . S
C276 C272 1.381 . S
C276 C275 1.382 . S
C276 H317 0.930 1_554 S
C277 N273 1.328 . S
C277 C274 1.378 . S
C277 H279 0.930 . S
H278 C272 0.931 . S
H279 C277 0.930 . S
C280 O306 1.238 . S
C280 O307 1.253 . S
C281 C282 1.379 . S
C281 N286 1.337 . S
C281 H287 0.929 . S
C282 C281 1.379 . S
C282 C283 1.380 . S
C282 H318 0.929 . S
C283 C282 1.380 . S
C283 C284 1.399 . S
C284 C283 1.399 . S
C284 C285 1.376 . S
C284 H319 0.931 1_554 S
C285 C284 1.376 . S
C285 N286 1.338 . S
C285 H288 0.930 1_554 S
N286 Cd271 2.304 . S
N286 C281 1.337 . S
N286 C285 1.338 . S
H287 C281 0.929 . S
H288 C285 0.930 1_556 S
C289 N290 1.332 . S
C289 C293 1.381 . S
C289 H295 0.931 . S
N290 Cd271 2.334 . S
N290 C289 1.332 . S
N290 C294 1.328 . S
C291 C292 1.396 . S
C291 C294 1.378 . S
C291 H320 0.931 . S
C292 C291 1.396 . S
C292 C293 1.382 . S
C293 C289 1.381 . S
C293 C292 1.382 . S
C293 H321 0.930 . S
C294 N290 1.328 . S
C294 C291 1.378 . S
C294 H296 0.930 . S
H295 C289 0.931 . S
H296 C294 0.930 . S
C297 O308 1.238 1_556 S
C297 O309 1.253 . S
C298 O310 1.239 . S
C298 O311 1.230 . S
N299 Cd270 2.304 . S
N299 C300 1.337 . S
N299 C304 1.338 . S
C300 N299 1.337 . S
C300 C301 1.379 . S
C300 H314 0.929 1_554 S
C301 C300 1.379 . S
C301 C302 1.380 . S
C301 H322 0.929 1_554 S
C302 C301 1.380 . S
C302 C303 1.399 . S
C303 C302 1.399 . S
C303 C304 1.376 . S
C303 H323 0.931 . S
C304 N299 1.338 . S
C304 C303 1.376 . S
C304 H315 0.930 . S
C305 O312 1.239 . S
C305 O313 1.230 . S
O306 Cd270 2.268 . S
O306 C280 1.238 . S
O307 Cd271 2.273 . S
O307 C280 1.253 . S
O308 Cd271 2.268 . S
O308 C297 1.238 1_554 S
O309 Cd270 2.273 1_556 S
O309 C297 1.253 . S
O310 Cd270 2.417 . S
O310 C298 1.239 . S
O311 Cd270 2.330 . S
O311 C298 1.230 . S
O312 Cd271 2.417 . S
O312 C305 1.239 . S
O313 Cd271 2.330 . S
O313 C305 1.230 . S
H314 C300 0.929 1_556 S
H315 C304 0.930 . S
H316 C274 0.931 . S
H317 C276 0.930 1_556 S
H318 C282 0.929 . S
H319 C284 0.931 1_556 S
H320 C291 0.931 . S
H321 C293 0.930 . S
H322 C301 0.929 1_556 S
H323 C303 0.931 . S
Cd324 N327 2.334 . S
Cd324 N353 2.304 . S
Cd324 O360 2.268 . S
Cd324 O363 2.273 . S
Cd324 O364 2.417 . S
Cd324 O365 2.330 . S
Cd325 N340 2.304 . S
Cd325 N344 2.334 . S
Cd325 O361 2.273 1_556 S
Cd325 O362 2.268 . S
Cd325 O366 2.438 . S
Cd325 O367 2.330 1_565 S
C326 N327 1.332 . S
C326 C330 1.381 . S
C326 H332 0.931 . S
N327 Cd324 2.334 . S
N327 C326 1.332 . S
N327 C331 1.328 . S
C328 C329 1.396 . S
C328 C331 1.378 . S
C328 H370 0.931 1_556 S
C329 C328 1.396 . S
C329 C330 1.382 . S
C330 C326 1.381 . S
C330 C329 1.382 . S
C330 H371 0.930 . S
C331 N327 1.328 . S
C331 C328 1.378 . S
C331 H333 0.930 . S
H332 C326 0.931 . S
H333 C331 0.930 . S
C334 O360 1.238 1_554 S
C334 O361 1.253 . S
C335 C336 1.379 . S
C335 N340 1.337 1_545 S
C335 H341 0.929 . S
C336 C335 1.379 . S
C336 C337 1.380 . S
C336 H372 0.929 . S
C337 C336 1.380 . S
C337 C338 1.399 . S
C338 C337 1.399 . S
C338 C339 1.376 1_545 S
C338 H373 0.931 . S
C339 C338 1.376 1_565 S
C339 N340 1.338 . S
C339 H342 0.930 . S
N340 Cd325 2.304 . S
N340 C335 1.337 1_565 S
N340 C339 1.338 . S
H341 C335 0.929 . S
H342 C339 0.930 . S
C343 N344 1.332 . S
C343 C347 1.381 . S
C343 H349 0.931 1_556 S
N344 Cd325 2.334 . S
N344 C343 1.332 . S
N344 C348 1.328 . S
C345 C346 1.396 . S
C345 C348 1.378 . S
C345 H374 0.931 . S
C346 C345 1.396 . S
C346 C347 1.382 . S
C347 C343 1.381 . S
C347 C346 1.382 . S
C347 H375 0.930 1_556 S
C348 N344 1.328 . S
C348 C345 1.378 . S
C348 H350 0.930 . S
H349 C343 0.931 1_554 S
H350 C348 0.930 . S
C351 O362 1.238 . S
C351 O363 1.253 . S
C352 O364 1.239 . S
C352 O365 1.230 . S
N353 Cd324 2.304 . S
N353 C354 1.337 . S
N353 C358 1.338 . S
C354 N353 1.337 . S
C354 C355 1.379 . S
C354 H368 0.929 . S
C355 C354 1.379 . S
C355 C356 1.380 . S
C355 H376 0.929 . S
C356 C355 1.380 . S
C356 C357 1.399 . S
C357 C356 1.399 . S
C357 C358 1.376 . S
C357 H377 0.931 . S
C358 N353 1.338 . S
C358 C357 1.376 . S
C358 H369 0.930 . S
C359 O366 1.223 1_545 S
C359 O367 1.230 . S
O360 Cd324 2.268 . S
O360 C334 1.238 1_556 S
O361 Cd325 2.273 1_554 S
O361 C334 1.253 . S
O362 Cd325 2.268 . S
O362 C351 1.238 . S
O363 Cd324 2.273 . S
O363 C351 1.253 . S
O364 Cd324 2.417 . S
O364 C352 1.239 . S
O365 Cd324 2.330 . S
O365 C352 1.230 . S
O366 Cd325 2.438 . S
O366 C359 1.223 1_565 S
O367 Cd325 2.330 1_545 S
O367 C359 1.230 . S
H368 C354 0.929 . S
H369 C358 0.930 . S
H370 C328 0.931 1_554 S
H371 C330 0.930 . S
H372 C336 0.929 . S
H373 C338 0.931 . S
H374 C345 0.931 . S
H375 C347 0.930 1_554 S
H376 C355 0.929 . S
H377 C357 0.931 . S
Cd378 N381 2.334 . S
Cd378 N407 2.304 . S
Cd378 O414 2.268 . S
Cd378 O417 2.273 . S
Cd378 O418 2.417 . S
Cd378 O419 2.330 . S
Cd379 N394 2.304 . S
Cd379 N398 2.334 . S
Cd379 O415 2.273 1_556 S
Cd379 O416 2.268 . S
Cd379 O420 2.416 1_455 S
Cd379 O421 2.330 1_455 S
C380 N381 1.332 . S
C380 C384 1.381 . S
C380 H386 0.931 . S
N381 Cd378 2.334 . S
N381 C380 1.332 . S
N381 C385 1.328 . S
C382 C383 1.396 . S
C382 C385 1.378 . S
C382 H424 0.931 1_556 S
C383 C382 1.396 . S
C383 C384 1.382 . S
C384 C380 1.381 . S
C384 C383 1.382 . S
C384 H425 0.930 . S
C385 N381 1.328 . S
C385 C382 1.378 . S
C385 H387 0.930 . S
H386 C380 0.931 . S
H387 C385 0.930 . S
C388 O414 1.238 1_554 S
C388 O415 1.253 . S
C389 C390 1.379 . S
C389 N394 1.337 1_655 S
C389 H395 0.929 . S
C390 C389 1.379 . S
C390 C391 1.380 . S
C390 H426 0.929 . S
C391 C390 1.380 . S
C391 C392 1.399 . S
C392 C391 1.399 . S
C392 C393 1.376 1_655 S
C392 H427 0.931 . S
C393 C392 1.376 1_455 S
C393 N394 1.338 . S
C393 H396 0.930 . S
N394 Cd379 2.304 . S
N394 C389 1.337 1_455 S
N394 C393 1.338 . S
H395 C389 0.929 . S
H396 C393 0.930 . S
C397 N398 1.332 . S
C397 C401 1.381 . S
C397 H403 0.931 1_556 S
N398 Cd379 2.334 . S
N398 C397 1.332 . S
N398 C402 1.328 . S
C399 C400 1.396 . S
C399 C402 1.378 . S
C399 H428 0.931 . S
C400 C399 1.396 . S
C400 C401 1.382 . S
C401 C397 1.381 . S
C401 C400 1.382 . S
C401 H429 0.930 1_556 S
C402 N398 1.328 . S
C402 C399 1.378 . S
C402 H404 0.930 . S
H403 C397 0.931 1_554 S
H404 C402 0.930 . S
C405 O416 1.238 . S
C405 O417 1.253 . S
C406 O418 1.239 . S
C406 O419 1.230 . S
N407 Cd378 2.304 . S
N407 C408 1.337 . S
N407 C412 1.338 . S
C408 N407 1.337 . S
C408 C409 1.379 . S
C408 H422 0.929 . S
C409 C408 1.379 . S
C409 C410 1.380 . S
C409 H430 0.929 . S
C410 C409 1.380 . S
C410 C411 1.399 . S
C411 C410 1.399 . S
C411 C412 1.376 . S
C411 H431 0.931 . S
C412 N407 1.338 . S
C412 C411 1.376 . S
C412 H423 0.930 . S
C413 O420 1.240 . S
C413 O421 1.230 . S
O414 Cd378 2.268 . S
O414 C388 1.238 1_556 S
O415 Cd379 2.273 1_554 S
O415 C388 1.253 . S
O416 Cd379 2.268 . S
O416 C405 1.238 . S
O417 Cd378 2.273 . S
O417 C405 1.253 . S
O418 Cd378 2.417 . S
O418 C406 1.239 . S
O419 Cd378 2.330 . S
O419 C406 1.230 . S
O420 Cd379 2.416 1_655 S
O420 C413 1.240 . S
O421 Cd379 2.330 1_655 S
O421 C413 1.230 . S
H422 C408 0.929 . S
H423 C412 0.930 . S
H424 C382 0.931 1_554 S
H425 C384 0.930 . S
H426 C390 0.929 . S
H427 C392 0.931 . S
H428 C399 0.931 . S
H429 C401 0.930 1_554 S
H430 C409 0.929 . S
H431 C411 0.931 . S
Cd432 N435 2.334 . S
Cd432 N461 2.304 . S
Cd432 O468 2.268 . S
Cd432 O471 2.273 . S
Cd432 O472 2.417 . S
Cd432 O473 2.330 . S
Cd433 N448 2.304 . S
Cd433 N452 2.334 . S
Cd433 O469 2.273 1_556 S
Cd433 O470 2.268 . S
Cd433 O474 2.417 . S
Cd433 O475 2.330 . S
C434 N435 1.332 . S
C434 C438 1.381 . S
C434 H440 0.931 . S
N435 Cd432 2.334 . S
N435 C434 1.332 . S
N435 C439 1.328 . S
C436 C437 1.396 . S
C436 C439 1.378 . S
C436 H478 0.931 1_556 S
C437 C436 1.396 . S
C437 C438 1.382 . S
C438 C434 1.381 . S
C438 C437 1.382 . S
C438 H479 0.930 . S
C439 N435 1.328 . S
C439 C436 1.378 . S
C439 H441 0.930 . S
H440 C434 0.931 . S
H441 C439 0.930 . S
C442 O468 1.238 1_554 S
C442 O469 1.253 . S
C443 C444 1.379 . S
C443 N448 1.337 . S
C443 H449 0.929 . S
C444 C443 1.379 . S
C444 C445 1.380 . S
C444 H480 0.929 . S
C445 C444 1.380 . S
C445 C446 1.399 . S
C446 C445 1.399 . S
C446 C447 1.376 . S
C446 H481 0.931 . S
C447 C446 1.376 . S
C447 N448 1.338 . S
C447 H450 0.930 . S
N448 Cd433 2.304 . S
N448 C443 1.337 . S
N448 C447 1.338 . S
H449 C443 0.929 . S
H450 C447 0.930 . S
C451 N452 1.332 . S
C451 C455 1.381 . S
C451 H457 0.931 1_556 S
N452 Cd433 2.334 . S
N452 C451 1.332 . S
N452 C456 1.328 . S
C453 C454 1.396 . S
C453 C456 1.378 . S
C453 H482 0.931 . S
C454 C453 1.396 . S
C454 C455 1.382 . S
C455 C451 1.381 . S
C455 C454 1.382 . S
C455 H483 0.930 1_556 S
C456 N452 1.328 . S
C456 C453 1.378 . S
C456 H458 0.930 . S
H457 C451 0.931 1_554 S
H458 C456 0.930 . S
C459 O470 1.238 . S
C459 O471 1.253 . S
C460 O472 1.239 . S
C460 O473 1.230 . S
N461 Cd432 2.304 . S
N461 C462 1.337 . S
N461 C466 1.338 . S
C462 N461 1.337 . S
C462 C463 1.379 . S
C462 H476 0.929 . S
C463 C462 1.379 . S
C463 C464 1.380 . S
C463 H484 0.929 . S
C464 C463 1.380 . S
C464 C465 1.399 . S
C465 C464 1.399 . S
C465 C466 1.376 . S
C465 H485 0.931 . S
C466 N461 1.338 . S
C466 C465 1.376 . S
C466 H477 0.930 . S
C467 O474 1.239 . S
C467 O475 1.230 . S
O468 Cd432 2.268 . S
O468 C442 1.238 1_556 S
O469 Cd433 2.273 1_554 S
O469 C442 1.253 . S
O470 Cd433 2.268 . S
O470 C459 1.238 . S
O471 Cd432 2.273 . S
O471 C459 1.253 . S
O472 Cd432 2.417 . S
O472 C460 1.239 . S
O473 Cd432 2.330 . S
O473 C460 1.230 . S
O474 Cd433 2.417 . S
O474 C467 1.239 . S
O475 Cd433 2.330 . S
O475 C467 1.230 . S
H476 C462 0.929 . S
H477 C466 0.930 . S
H478 C436 0.931 1_554 S
H479 C438 0.930 . S
H480 C444 0.929 . S
H481 C446 0.931 . S
H482 C453 0.931 . S
H483 C455 0.930 1_554 S
H484 C463 0.929 . S
H485 C465 0.931 . S
C32 C229 2.224 1_556 S
C283 C86 2.225 1_554 S
C140 C175 2.228 1_556 S
C76 C197 2.270 . S
C130 C251 2.273 . S
C22 C305 2.270 . S
C194 C391 2.227 . S
C445 C248 2.228 . S
C337 C302 2.226 . S
C238 C359 2.272 . S
C413 C292 2.271 . S
C467 C184 2.272 . S
C356 C67 2.230 . S
C410 C121 2.226 . S
C13 C464 2.230 . S
C35 C400 2.274 . S
C89 C454 2.273 . S
C346 C143 2.271 . S
C113 C28 2.042 1_556 S
C5 C82 2.041 1_556 S
C59 C136 2.040 1_556 S
C275 C190 2.040 . S
C167 C244 2.041 . S
C221 C298 2.041 . S
C352 C437 2.041 . S
C406 C329 2.041 . S
C460 C383 2.041 . S
C27 C10 0.857 . S
C64 C81 0.858 . S
C135 C118 0.858 . S
C172 C189 0.857 . S
C243 C226 0.857 . S
C280 C297 0.857 . S
C351 C334 0.857 . S
C405 C388 0.857 . S
C459 C442 0.857 . S
