# Generated by pormake.
# Topology wnj, (7)-cn, num edge types: 1
# Building blocks:
#     Node 0, Type 0, BuildingBlock: OLANEW_clean_sbu_3, # of connection points: 7
#     Node 1, Type 0, BuildingBlock: OLANEW_clean_sbu_3, # of connection points: 7
#     Node 2, Type 0, BuildingBlock: OLANEW_clean_sbu_3, # of connection points: 7
#     Node 3, Type 0, BuildingBlock: OLANEW_clean_sbu_3, # of connection points: 7
#     Node 4, Type 0, BuildingBlock: OLANEW_clean_sbu_3, # of connection points: 7
#     Node 5, Type 0, BuildingBlock: OLANEW_clean_sbu_3, # of connection points: 7
#     Edge 6, Type (0, 0), BuildingBlock: TEMPAE_clean_linker_10, # of connection points: 2
#     Edge 7, Type (0, 0), BuildingBlock: TEMPAE_clean_linker_10, # of connection points: 2
#     Edge 8, Type (0, 0), BuildingBlock: TEMPAE_clean_linker_10, # of connection points: 2
#     Edge 9, Type (0, 0), BuildingBlock: TEMPAE_clean_linker_10, # of connection points: 2
#     Edge 10, Type (0, 0), BuildingBlock: TEMPAE_clean_linker_10, # of connection points: 2
#     Edge 11, Type (0, 0), BuildingBlock: TEMPAE_clean_linker_10, # of connection points: 2
#     Edge 12, Type (0, 0), BuildingBlock: TEMPAE_clean_linker_10, # of connection points: 2
#     Edge 13, Type (0, 0), BuildingBlock: TEMPAE_clean_linker_10, # of connection points: 2
#     Edge 14, Type (0, 0), BuildingBlock: TEMPAE_clean_linker_10, # of connection points: 2
#     Edge 15, Type (0, 0), BuildingBlock: TEMPAE_clean_linker_10, # of connection points: 2
#     Edge 16, Type (0, 0), BuildingBlock: TEMPAE_clean_linker_10, # of connection points: 2
#     Edge 17, Type (0, 0), BuildingBlock: TEMPAE_clean_linker_10, # of connection points: 2
#     Edge 18, Type (0, 0), BuildingBlock: TEMPAE_clean_linker_10, # of connection points: 2
#     Edge 19, Type (0, 0), BuildingBlock: TEMPAE_clean_linker_10, # of connection points: 2
#     Edge 20, Type (0, 0), BuildingBlock: TEMPAE_clean_linker_10, # of connection points: 2
#     Edge 21, Type (0, 0), BuildingBlock: TEMPAE_clean_linker_10, # of connection points: 2
#     Edge 22, Type (0, 0), BuildingBlock: TEMPAE_clean_linker_10, # of connection points: 2
#     Edge 23, Type (0, 0), BuildingBlock: TEMPAE_clean_linker_10, # of connection points: 2
#     Edge 24, Type (0, 0), BuildingBlock: TEMPAE_clean_linker_10, # of connection points: 2
#     Edge 25, Type (0, 0), BuildingBlock: TEMPAE_clean_linker_10, # of connection points: 2
#     Edge 26, Type (0, 0), BuildingBlock: TEMPAE_clean_linker_10, # of connection points: 2
# Relax obj value: 0.273
# Max RMSD: 0.269
# Mean RMSD: 0.269
data_MOF--net-wnj--node1-OLANEW_clean_sbu_3--edge1-TEMPAE_clean_linker_10
_symmetry_space_group_name_H-M    P1
_symmetry_Int_Tables_number       1
_symmetry_cell_setting            triclinic
loop_
_symmetry_equiv_pos_as_xyz
'x, y, z'
_cell_length_a     38.399969
_cell_length_b     38.570394
_cell_length_c     45.994718
_cell_angle_alpha  90.107
_cell_angle_beta   89.662622
_cell_angle_gamma 120.00275
loop_
_atom_site_label
_atom_site_type_symbol
_atom_site_fract_x
_atom_site_fract_y
_atom_site_fract_z
_atom_type_partial_charge
C0 C 0.04799 0.54492 0.03411 0.0
C1 C 0.05802 0.58342 0.04318 0.0
C2 C 0.09533 0.60677 0.05731 0.0
C3 C 0.1216 0.59152 0.06196 0.0
C4 C 0.10979 0.55287 0.0523 0.0
N5 N 0.07439 0.53266 0.0389 0.0
C6 C 0.12987 0.52874 0.05613 0.0
C7 C 0.12209 0.46218 0.04632 0.0
C8 C 0.15465 0.46889 0.02847 0.0
C9 C 0.16852 0.44159 0.02834 0.0
C10 C 0.15009 0.40763 0.04608 0.0
C11 C 0.11784 0.40097 0.06403 0.0
C12 C 0.10386 0.42818 0.06418 0.0
Cd13 Cd 0.20592 0.5722 0.11262 0.0
Cd14 Cd 0.16762 0.65342 0.13536 0.0
C15 C 0.99373 0.46016 0.98217 0.0
C16 C 0.9324 0.40738 0.96058 0.0
C17 C 0.95161 0.4159 0.9334 0.0
C18 C 0.99058 0.44784 0.92987 0.0
C19 C 1.01122 0.47077 0.95417 0.0
C20 C 0.95391 0.42862 0.98523 0.0
Co21 Co 0.06006 0.48259 0.02591 0.0
N22 N 0.09263 0.50134 -0.00982 0.0
N23 N 0.04504 0.43202 0.01325 0.0
C24 C 0.0609 0.42926 0.98812 0.0
C25 C 0.04878 0.39108 0.97706 0.0
C26 C 0.02026 0.35754 -0.00674 0.0
C27 C 1.00428 0.36263 0.01971 0.0
C28 C 1.0176 0.40171 0.02928 0.0
N29 N 0.02482 0.45579 0.05942 0.0
N30 N 0.10757 0.48988 0.04642 0.0
N31 N 1.01527 0.48335 0.00713 0.0
O32 O 0.2071 0.66012 0.17663 0.0
O33 O 0.22277 0.61857 0.15486 0.0
C34 C 0.25913 0.54096 0.12809 0.0
O35 O 0.22443 0.52636 0.13979 0.0
O36 O 0.26672 0.56624 0.10801 0.0
C37 C 0.23366 0.65166 0.07991 0.0
O38 O 0.24325 0.62503 0.07668 0.0
O39 O 0.20994 0.64705 0.10057 0.0
C40 C 0.08857 0.46865 0.97517 0.0
O41 O 0.10515 0.47191 0.94947 0.0
O42 O 0.13243 0.54801 0.12318 0.0
O43 O 0.10869 0.58789 0.13666 0.0
C44 C 1.00591 0.41521 0.05573 0.0
O45 O 0.9819 0.3901 0.07565 0.0
C46 C 0.02274 0.47447 0.08599 0.0
C47 C 0.05671 0.49284 0.10326 0.0
C48 C 0.06143 0.52168 0.12358 0.0
C49 C 0.02774 0.52548 0.13102 0.0
C50 C 0.98986 0.50133 0.11762 0.0
C51 C 0.98849 0.47699 0.09385 0.0
C52 C 0.22785 0.64287 0.1754 0.0
O53 O 0.16863 0.54465 0.06512 0.0
C54 C 0.10308 0.55325 0.13067 0.0
C55 C 0.11826 0.5421 0.98016 0.0
C56 C 0.10307 0.56822 0.97706 0.0
C57 C 0.12744 0.60722 0.96713 0.0
C58 C 0.16689 0.62034 0.95852 0.0
C59 C 0.18203 0.59384 0.95848 0.0
C60 C 0.15781 0.55508 0.9704 0.0
C61 C 1.01357 0.51632 0.01624 0.0
O62 O 0.9876 0.5255 0.0054 0.0
H63 H 0.03827 0.59532 0.03912 0.0
H64 H 0.10392 0.63667 0.06461 0.0
H65 H 0.14953 0.60905 0.07305 0.0
H66 H 0.16911 0.49506 0.01462 0.0
H67 H 0.16086 0.38654 0.04598 0.0
H68 H 0.07912 0.42287 0.07838 0.0
H69 H 0.93509 0.39905 0.91442 0.0
H70 H 0.04055 0.4968 0.95113 0.0
H71 H 0.93939 0.422 0.00638 0.0
H72 H 0.06059 0.38721 0.95666 0.0
H73 H 1.01037 0.32765 0.98526 0.0
H74 H 0.98233 0.33702 0.03203 0.0
H75 H 0.08128 0.48769 0.09852 0.0
H76 H 0.03162 0.5483 0.14649 0.0
H77 H 0.96138 0.46001 0.08133 0.0
H78 H 0.07194 0.55837 0.98075 0.0
H79 H 0.18485 0.65082 0.95085 0.0
H80 H 0.16874 0.53413 0.97086 0.0
C81 C 0.4935 0.50635 0.70541 0.0
C82 C 0.45642 0.47564 0.71558 0.0
C83 C 0.43195 0.48646 0.73197 0.0
C84 C 0.44466 0.52717 0.7377 0.0
C85 C 0.48191 0.55628 0.72664 0.0
N86 N 0.50342 0.54408 0.71127 0.0
C87 C 0.5034 0.60016 0.73116 0.0
C88 C 0.56748 0.66243 0.72059 0.0
C89 C 0.55726 0.68666 0.70421 0.0
C90 C 0.58247 0.72821 0.70407 0.0
C91 C 0.61784 0.74572 0.72034 0.0
C92 C 0.62799 0.7217 0.73682 0.0
C93 C 0.60288 0.68015 0.73698 0.0
Cd94 Cd 0.4538 0.61806 0.79072 0.0
Cd95 Cd 0.38832 0.5057 0.82378 0.0
C96 C 0.58136 0.54448 0.65404 0.0
C97 C 0.6422 0.54665 0.63645 0.0
C98 C 0.63216 0.55124 0.608 0.0
C99 C 0.59683 0.55189 0.60212 0.0
C100 C 0.57147 0.54878 0.62531 0.0
C101 C 0.61647 0.54295 0.65948 0.0
Co102 Co 0.55267 0.58285 0.69795 0.0
N103 N 0.53155 0.59552 0.6633 0.0
N104 N 0.60243 0.6215 0.68491 0.0
C105 C 0.60341 0.63933 0.65991 0.0
C106 C 0.6409 0.66638 0.64787 0.0
C107 C 0.67579 0.67308 0.6629 0.0
C108 C 0.67267 0.65256 0.68913 0.0
C109 C 0.63416 0.6258 0.69973 0.0
N110 N 0.58219 0.57592 0.72986 0.0
N111 N 0.54223 0.61981 0.72039 0.0
N112 N 0.55485 0.53998 0.67765 0.0
O113 O 0.37853 0.53772 0.86524 0.0
O114 O 0.41436 0.58186 0.83274 0.0
C115 C 0.47283 0.69983 0.80532 0.0
O116 O 0.49763 0.68795 0.81095 0.0
O117 O 0.441 0.67475 0.79237 0.0
C118 C 0.36008 0.54596 0.76428 0.0
O119 O 0.39096 0.58086 0.76349 0.0
O120 O 0.35607 0.51964 0.7828 0.0
C121 C 0.56313 0.62515 0.64782 0.0
O122 O 0.55818 0.63786 0.6225 0.0
O123 O 0.4915 0.58215 0.79975 0.0
O124 O 0.45578 0.51913 0.81508 0.0
C125 C 0.62265 0.59987 0.7256 0.0
O126 O 0.64918 0.60148 0.7443 0.0
C127 C 0.56521 0.55289 0.7558 0.0
C128 C 0.54725 0.56632 0.77546 0.0
C129 C 0.52079 0.5407 0.79659 0.0
C130 C 0.51898 0.50368 0.80169 0.0
C131 C 0.54183 0.4916 0.78449 0.0
C132 C 0.56385 0.51618 0.76064 0.0
C133 C 0.39115 0.57225 0.85468 0.0
O134 O 0.48454 0.61971 0.7414 0.0
C135 C 0.48893 0.54884 0.80691 0.0
C136 C 0.49041 0.57814 0.65362 0.0
C137 C 0.46693 0.53685 0.64861 0.0
C138 C 0.42893 0.52058 0.6362 0.0
C139 C 0.41438 0.54541 0.6273 0.0
C140 C 0.43827 0.58707 0.63019 0.0
C141 C 0.47543 0.60311 0.64458 0.0
C142 C 0.52332 0.50384 0.68632 0.0
O143 O 0.51699 0.46984 0.67505 0.0
H144 H 0.44653 0.44456 0.71094 0.0
H145 H 0.40323 0.46334 0.74029 0.0
H146 H 0.42647 0.53536 0.75078 0.0
H147 H 0.53004 0.67343 0.69146 0.0
H148 H 0.63731 0.77786 0.72022 0.0
H149 H 0.61093 0.66195 0.75002 0.0
H150 H 0.65133 0.55288 0.59 0.0
H151 H 0.54368 0.54854 0.62097 0.0
H152 H 0.62343 0.53858 0.6815 0.0
H153 H 0.64325 0.68137 0.62747 0.0
H154 H 0.70518 0.69373 0.65404 0.0
H155 H 0.6993 0.65714 0.7004 0.0
H156 H 0.55062 0.59554 0.77202 0.0
H157 H 0.49936 0.4842 0.81869 0.0
H158 H 0.57889 0.50646 0.74545 0.0
H159 H 0.47854 0.51711 0.6522 0.0
H160 H 0.3854 0.5322 0.61673 0.0
H161 H 0.49416 0.63526 0.6467 0.0
C162 C 0.51931 0.98237 0.36364 0.0
C163 C 0.54738 0.97198 0.37326 0.0
C164 C 0.53334 0.93759 0.39108 0.0
C165 C 0.49208 0.91434 0.39848 0.0
C166 C 0.46561 0.92589 0.38762 0.0
N167 N 0.48089 0.95902 0.3714 0.0
C168 C 0.42173 0.90744 0.39271 0.0
C169 C 0.36328 0.91627 0.38246 0.0
C170 C 0.33526 0.88068 0.36871 0.0
C171 C 0.29432 0.86843 0.36961 0.0
C172 C 0.28112 0.89149 0.38434 0.0
C173 C 0.30883 0.92672 0.39832 0.0
C174 C 0.34979 0.93908 0.39743 0.0
Cd175 Cd 0.39438 0.83646 0.45252 0.0
Cd176 Cd 0.46089 0.86494 0.47266 0.0
C177 C 0.48908 0.03902 0.31296 0.0
C178 C 0.50054 0.10384 0.29734 0.0
C179 C 0.48694 0.08817 0.26955 0.0
C180 C 0.47959 0.04992 0.26169 0.0
C181 C 0.48013 0.025 0.28399 0.0
C182 C 0.50037 0.07882 0.31932 0.0
Co183 Co 0.44543 0.97339 0.35752 0.0
N184 N 0.42924 0.93704 0.32441 0.0
N185 N 0.41012 0.98823 0.34361 0.0
C186 C 0.3906 0.97024 0.31935 0.0
C187 C 0.36576 0.98288 0.30674 0.0
C188 C 0.36308 0.0144 0.3204 0.0
C189 C 0.38534 0.03283 0.34583 0.0
C190 C 0.40972 0.01872 0.35708 0.0
N191 N 0.4568 0.01315 0.38808 0.0
N192 N 0.40536 0.92926 0.3814 0.0
N193 N 0.49059 0.01414 0.33552 0.0
O194 O 0.45995 0.83479 0.51626 0.0
O195 O 0.40812 0.79447 0.48939 0.0
C196 C 0.30963 0.78561 0.46866 0.0
O197 O 0.33608 0.80909 0.48652 0.0
O198 O 0.32094 0.78911 0.44224 0.0
C199 C 0.45854 0.81089 0.4195 0.0
O200 O 0.42241 0.80393 0.42022 0.0
O201 O 0.48378 0.83525 0.43757 0.0
C202 C 0.4008 0.94037 0.30867 0.0
O203 O 0.3855 0.92008 0.28458 0.0
O204 O 0.4342 0.91316 0.46162 0.0
O205 O 0.49642 0.93425 0.4755 0.0
C206 C 0.43635 0.033 0.3826 0.0
O207 O 0.43746 0.06024 0.4004 0.0
C208 C 0.47737 0.01716 0.41496 0.0
C209 C 0.45976 0.98606 0.43481 0.0
C210 C 0.48212 0.98299 0.45735 0.0
C211 C 0.52011 0.01637 0.4638 0.0
C212 C 0.53628 0.05174 0.44667 0.0
C213 C 0.51508 0.05082 0.42121 0.0
C214 C 0.4312 0.80004 0.51095 0.0
O215 O 0.39884 0.86947 0.40334 0.0
C216 C 0.4695 0.94209 0.46798 0.0
C217 C 0.44287 0.90958 0.31661 0.0
C218 C 0.48282 0.92375 0.30807 0.0
C219 C 0.49489 0.89745 0.29757 0.0
C220 C 0.46695 0.85691 0.29426 0.0
C221 C 0.42613 0.84228 0.30091 0.0
C222 C 0.41487 0.86867 0.31343 0.0
C223 C 0.52512 0.01464 0.3435 0.0
O224 O 0.56007 0.03891 0.3313 0.0
H225 H 0.57878 0.98945 0.36717 0.0
H226 H 0.55435 0.92899 0.39915 0.0
H227 H 0.48135 0.889 0.41267 0.0
H228 H 0.34502 0.86252 0.35727 0.0
H229 H 0.24944 0.88198 0.38504 0.0
H230 H 0.37077 0.96612 0.40869 0.0
H231 H 0.48472 0.10745 0.25347 0.0
H232 H 0.47511 0.99546 0.27892 0.0
H233 H 0.51057 0.09053 0.34097 0.0
H234 H 0.34946 0.96939 0.28693 0.0
H235 H 0.34416 0.02486 0.31109 0.0
H236 H 0.38376 0.0573 0.35605 0.0
H237 H 0.42959 0.96209 0.43084 0.0
H238 H 0.5368 0.0145 0.48202 0.0
H239 H 0.52793 0.07567 0.40607 0.0
H240 H 0.50441 0.95523 0.30787 0.0
H241 H 0.47704 0.83791 0.28448 0.0
H242 H 0.38379 0.85804 0.31915 0.0
C243 C 0.54682 0.03838 0.94329 0.0
C244 C 0.58542 0.04772 0.93429 0.0
C245 C 0.60769 0.08233 0.91692 0.0
C246 C 0.59141 0.10684 0.90923 0.0
C247 C 0.55288 0.09595 0.9193 0.0
N248 N 0.53335 0.06282 0.93538 0.0
C249 C 0.52846 0.115 0.91339 0.0
C250 C 0.46138 0.10796 0.92198 0.0
C251 C 0.46967 0.14409 0.93522 0.0
C252 C 0.4419 0.15738 0.93357 0.0
C253 C 0.40587 0.13482 0.91858 0.0
C254 C 0.39766 0.09906 0.90509 0.0
C255 C 0.42534 0.08567 0.90673 0.0
Cd256 Cd 0.57936 0.18266 0.85426 0.0
Cd257 Cd 0.64556 0.13851 0.8221 0.0
C258 C 0.45973 0.98652 -0.00516 0.0
C259 C 0.40631 0.92411 0.01442 0.0
C260 C 0.41252 0.94161 0.04202 0.0
C261 C 0.44333 0.98091 0.04669 0.0
C262 C 0.46764 1.00318 0.02306 0.0
C263 C 0.42915 0.9469 -0.0093 0.0
Co264 Co 0.48289 0.04945 0.94818 0.0
N265 N 0.50171 0.08573 0.98149 0.0
N266 N 0.43199 0.03525 0.96087 0.0
C267 C 0.42946 0.0528 0.98512 0.0
C268 C 0.39141 0.04001 -0.0028 0.0
C269 C 0.35763 1.00869 0.98308 0.0
C270 C 0.36246 0.99056 0.95777 0.0
C271 C 0.40147 1.00481 0.94709 0.0
N272 N 0.45536 1.00993 0.91737 0.0
N273 N 0.48947 0.0939 0.92384 0.0
N274 N 0.48521 1.0083 0.97078 0.0
O275 O 0.65728 0.18162 0.78177 0.0
O276 O 0.62284 0.19637 0.81203 0.0
C277 C 0.55584 0.24242 0.84053 0.0
O278 O 0.54492 0.21161 0.82467 0.0
O279 O 0.57491 0.24395 0.86341 0.0
C280 C 0.67422 0.20608 0.88097 0.0
O281 O 0.64353 0.21063 0.88065 0.0
O282 O 0.67789 0.18261 0.86331 0.0
C283 C 0.46909 0.08219 -0.00342 0.0
O284 O 0.47286 0.10169 0.02092 0.0
O285 O 0.5434 0.10828 0.84679 0.0
O286 O 0.58007 0.08238 0.83047 0.0
C287 C 0.41474 0.99036 0.92209 0.0
O288 O 0.38923 0.96308 0.90408 0.0
C289 C 0.47312 1.00488 0.89136 0.0
C290 C 0.48961 0.03598 0.8715 0.0
C291 C 0.51645 0.03777 0.8503 0.0
C292 C 0.52 1.00345 0.8453 0.0
C293 C 0.49761 0.96803 0.86203 0.0
C294 C 0.47528 0.97003 0.88608 0.0
C295 C 0.64578 0.2056 0.78996 0.0
O296 O 0.54495 0.15271 0.90235 0.0
C297 C 0.54687 0.07802 0.83954 0.0
C298 C 0.54241 0.11466 0.98927 0.0
C299 C 0.57061 0.10276 -0.00455 0.0
C300 C 0.60897 0.13051 0.00521 0.0
C301 C 0.61912 0.17012 0.01025 0.0
C302 C 0.59034 0.18197 0.00632 0.0
C303 C 0.55274 0.15454 -0.0054 0.0
C304 C 0.51898 1.00669 0.96342 0.0
O305 O 0.52863 0.98244 0.97656 0.0
H306 H 0.59812 0.02939 0.94065 0.0
H307 H 0.63753 0.09019 0.90946 0.0
H308 H 0.60798 0.13275 0.89554 0.0
H309 H 0.49744 0.16186 0.94685 0.0
H310 H 0.38441 0.14513 0.91731 0.0
H311 H 0.41882 0.05824 0.89583 0.0
H312 H 0.39489 0.9236 0.06037 0.0
H313 H 0.49281 0.03296 0.02664 0.0
H314 H 0.42479 0.93332 0.96939 0.0
H315 H 0.38785 0.05318 0.01699 0.0
H316 H 0.32784 0.99809 -0.00802 0.0
H317 H 0.33674 0.9661 0.94727 0.0
H318 H 0.48443 0.06078 0.87449 0.0
H319 H 0.54133 1.00503 0.82912 0.0
H320 H 0.45935 0.94499 0.90073 0.0
H321 H 0.5627 0.07186 -0.00553 0.0
H322 H 0.64841 0.19053 0.01917 0.0
H323 H 0.53057 0.16362 -0.00883 0.0
C324 C 0.99384 0.51846 0.61132 0.0
C325 C 0.98645 0.54759 0.59959 0.0
C326 C 0.95147 0.53453 0.58251 0.0
C327 C 0.92483 0.49323 0.57759 0.0
C328 C 0.93392 0.46578 0.59017 0.0
N329 N 0.96722 0.48006 0.60618 0.0
C330 C 0.91303 0.42167 0.58676 0.0
C331 C 0.91631 0.3615 0.60086 0.0
C332 C 0.88109 0.33776 0.61698 0.0
C333 C 0.86521 0.29637 0.61867 0.0
C334 C 0.88428 0.27849 0.60419 0.0
C335 C 0.91916 0.30197 0.58791 0.0
C336 C 0.93514 0.34338 0.58621 0.0
Cd337 Cd 0.84307 0.39433 0.52656 0.0
Cd338 Cd 0.88497 0.50278 0.49509 0.0
C339 C 0.04714 0.48617 0.66381 0.0
C340 C 0.10656 0.48451 0.67932 0.0
C341 C 0.09285 0.47931 0.70809 0.0
C342 C 0.05764 0.4798 0.71555 0.0
C343 C 0.03436 0.4826 0.69305 0.0
C344 C 0.08383 0.48822 0.65715 0.0
Co345 Co 0.97937 0.4435 0.62119 0.0
N346 N 0.94488 0.4315 0.65575 0.0
N347 N 0.99216 0.40707 0.63589 0.0
C348 C 0.97556 0.39047 0.66135 0.0
C349 C 0.98713 0.36514 0.67453 0.0
C350 C 1.0162 0.35889 0.66012 0.0
C351 C 0.03333 0.37815 0.63337 0.0
C352 C 0.0204 0.40318 0.62161 0.0
N353 N 1.01685 0.45038 0.58965 0.0
N354 N 0.93289 0.40395 0.59922 0.0
N355 N 0.02322 0.48846 0.64084 0.0
O356 O 0.84444 0.47076 0.45359 0.0
O357 O 0.82914 0.42084 0.48299 0.0
C358 C 0.7845 0.30993 0.51391 0.0
O359 O 0.81698 0.32918 0.4994 0.0
O360 O 0.78094 0.32837 0.53561 0.0
C361 C 0.81821 0.46383 0.55429 0.0
O362 O 0.81337 0.42874 0.55282 0.0
O363 O 0.84172 0.49188 0.53724 0.0
C364 C 0.94821 0.40384 0.67251 0.0
O365 O 0.93018 0.39185 0.6979 0.0
O366 O 0.91727 0.43112 0.51749 0.0
O367 O 0.94148 0.49381 0.50243 0.0
C368 C 0.03436 0.4277 0.59499 0.0
O369 O 0.05972 0.42583 0.57661 0.0
C370 C 0.0216 0.47077 0.56259 0.0
C371 C 0.99026 0.45366 0.54291 0.0
C372 C 0.9877 0.47633 0.52032 0.0
C373 C 0.02162 0.51397 0.5138 0.0
C374 C 0.05652 0.52949 0.53104 0.0
C375 C 0.05565 0.50831 0.55635 0.0
C376 C 0.82162 0.43441 0.46024 0.0
O377 O 0.87494 0.40013 0.57615 0.0
C378 C 0.94692 0.46537 0.51026 0.0
C379 C 0.9182 0.44646 0.66345 0.0
C380 C 0.93264 0.48762 0.66595 0.0
C381 C 0.9071 0.50185 0.67422 0.0
C382 C 0.86721 0.47526 0.68167 0.0
C383 C 0.8526 0.43377 0.6821 0.0
C384 C 0.87819 0.41973 0.67196 0.0
C385 C 0.02625 0.52342 0.63116 0.0
O386 O 0.05318 0.55849 0.64145 0.0
H387 H 1.00664 0.57912 0.60353 0.0
H388 H 0.94512 0.55639 0.57298 0.0
H389 H 0.8988 0.48331 0.56394 0.0
H390 H 0.86605 0.35125 0.62825 0.0
H391 H 0.87196 0.24646 0.60549 0.0
H392 H 0.96189 0.36112 0.57327 0.0
H393 H 0.11092 0.47658 0.725 0.0
H394 H 1.00698 0.48295 0.69816 0.0
H395 H 0.09458 0.49281 0.63488 0.0
H396 H 0.97467 0.35113 0.69529 0.0
H397 H 0.02583 0.33956 0.66985 0.0
H398 H 0.05608 0.37396 0.62259 0.0
H399 H 0.96553 0.42398 0.54739 0.0
H400 H 0.0204 0.53179 0.49606 0.0
H401 H 0.08082 0.52102 0.5712 0.0
H402 H 0.96394 0.50901 0.6631 0.0
H403 H 0.84847 0.48752 0.68817 0.0
H404 H 0.86805 0.38807 0.6721 0.0
C405 C 0.51978 0.48684 0.28442 0.0
C406 C 0.4898 0.44951 0.27442 0.0
C407 C 0.50171 0.42682 0.25705 0.0
C408 C 0.54277 0.4415 0.25026 0.0
C409 C 0.57113 0.47881 0.26125 0.0
N410 N 0.55789 0.49866 0.27747 0.0
C411 C 0.61517 0.50168 0.2562 0.0
C412 C 0.67655 0.56602 0.2671 0.0
C413 C 0.70169 0.55498 0.28149 0.0
C414 C 0.74335 0.58047 0.28115 0.0
C415 C 0.76013 0.61698 0.26637 0.0
C416 C 0.73528 0.62797 0.25182 0.0
C417 C 0.69361 0.60257 0.25214 0.0
Cd418 Cd 0.6434 0.45744 0.19705 0.0
Cd419 Cd 0.57381 0.41715 0.17813 0.0
C420 C 0.55521 0.57247 0.33676 0.0
C421 C 0.54312 0.62357 0.35772 0.0
C422 C 0.55573 0.61725 0.3848 0.0
C423 C 0.56508 0.587 0.38866 0.0
C424 C 0.56453 0.56434 0.36462 0.0
C425 C 0.5441 0.60187 0.33346 0.0
Co426 Co 0.59564 0.54782 0.29097 0.0
N427 N 0.61024 0.52666 0.32447 0.0
N428 N 0.63326 0.59739 0.30427 0.0
C429 C 0.65323 0.59825 0.32808 0.0
C430 C 0.68127 0.63552 0.33949 0.0
C431 C 0.68672 0.6703 0.32504 0.0
C432 C 0.66411 0.66725 0.29998 0.0
C433 C 0.63642 0.62894 0.28999 0.0
N434 N 0.58652 0.57715 0.25999 0.0
N435 N 0.6338 0.54002 0.26737 0.0
N436 N 0.55187 0.54742 0.31254 0.0
O437 O 0.57464 0.39625 0.13078 0.0
O438 O 0.63327 0.41637 0.15105 0.0
C439 C 0.72952 0.48539 0.19037 0.0
O440 O 0.71457 0.50551 0.1797 0.0
O441 O 0.70603 0.45607 0.20634 0.0
C442 C 0.57493 0.36683 0.23057 0.0
O443 O 0.61065 0.39651 0.22913 0.0
O444 O 0.54897 0.36415 0.21244 0.0
C445 C 0.6407 0.55798 0.33938 0.0
O446 O 0.65533 0.5527 0.36369 0.0
O447 O 0.60761 0.49772 0.18698 0.0
O448 O 0.54375 0.45574 0.17769 0.0
C449 C 0.60966 0.61745 0.26461 0.0
O450 O 0.61096 0.64394 0.24603 0.0
C451 C 0.56573 0.56068 0.23323 0.0
C452 C 0.5833 0.54705 0.21335 0.0
C453 C 0.56047 0.5208 0.1914 0.0
C454 C 0.52222 0.5157 0.18525 0.0
C455 C 0.50562 0.53442 0.20255 0.0
C456 C 0.52735 0.5556 0.22761 0.0
C457 C 0.60886 0.39914 0.13017 0.0
O458 O 0.63607 0.48408 0.24608 0.0
C459 C 0.57181 0.49109 0.18215 0.0
C460 C 0.59357 0.4856 0.33375 0.0
C461 C 0.55289 0.46249 0.34152 0.0
C462 C 0.53816 0.42498 0.35437 0.0
C463 C 0.564 0.41048 0.36071 0.0
C464 C 0.60534 0.43385 0.3546 0.0
C465 C 0.61935 0.47048 0.33973 0.0
C466 C 0.51612 0.5152 0.30413 0.0
O467 O 0.48171 0.50691 0.31624 0.0
H468 H 0.45848 0.43815 0.27988 0.0
H469 H 0.47917 0.39797 0.2488 0.0
H470 H 0.55182 0.42482 0.23643 0.0
H471 H 0.68912 0.5268 0.29298 0.0
H472 H 0.79237 0.63667 0.26609 0.0
H473 H 0.67484 0.61128 0.24047 0.0
H474 H 0.55579 0.6343 0.40362 0.0
H475 H 0.56955 0.53945 0.36788 0.0
H476 H 0.5342 0.6061 0.31243 0.0
H477 H 0.69814 0.63782 0.35887 0.0
H478 H 0.70827 0.69954 0.33332 0.0
H479 H 0.66815 0.6938 0.28897 0.0
H480 H 0.61346 0.55296 0.21733 0.0
H481 H 0.50548 0.49657 0.16728 0.0
H482 H 0.51437 0.56726 0.24302 0.0
H483 H 0.53273 0.47403 0.33961 0.0
H484 H 0.55185 0.38226 0.37213 0.0
H485 H 0.65092 0.48864 0.33432 0.0
C486 C 0.25138 0.72203 0.07124 0.0
C487 C 0.25086 0.68749 0.06132 0.0
C488 C 0.27282 0.75818 0.05612 0.0
C489 C 0.29346 0.75944 0.03015 0.0
C490 C 0.28943 0.72368 0.01843 0.0
C491 C 0.2686 0.68806 0.03445 0.0
C492 C 0.27645 0.79567 0.06949 0.0
C493 C 0.30946 0.72345 -0.00984 0.0
C494 C 0.34368 0.86339 -0.00242 0.0
C495 C 0.38046 0.88054 0.01213 0.0
C496 C 0.31582 0.82237 0.00084 0.0
C497 C 0.32527 0.79887 0.01929 0.0
C498 C 0.36398 0.8157 0.03176 0.0
C499 C 0.39114 0.85639 0.02793 0.0
C500 C 0.27536 0.80504 0.9864 0.0
C501 C 0.37551 0.79177 0.05146 0.0
H502 H 0.23718 0.72147 0.09182 0.0
H503 H 0.26725 0.66099 0.02634 0.0
H504 H 0.30758 0.81502 0.07747 0.0
H505 H 0.27051 0.81301 0.05304 0.0
H506 H 0.25534 0.78892 0.08804 0.0
H507 H 0.29449 0.69317 0.98016 0.0
H508 H 0.30922 0.74508 0.9744 0.0
H509 H 0.34128 0.73234 -0.0057 0.0
H510 H 0.33583 0.88236 0.98517 0.0
H511 H 0.42001 0.87 0.03878 0.0
H512 H 0.25302 0.80405 0.00227 0.0
H513 H 0.2647 0.77397 0.97892 0.0
H514 H 0.27636 0.82351 0.96756 0.0
H515 H 0.35728 0.78387 0.07174 0.0
H516 H 0.40782 0.80858 0.05746 0.0
H517 H 0.3692 0.76343 0.0408 0.0
C518 C 0.33038 0.53594 0.71473 0.0
C519 C 0.3263 0.53677 0.74495 0.0
C520 C 0.29757 0.52644 0.69642 0.0
C521 C 0.26053 0.51889 0.70881 0.0
C522 C 0.25687 0.52066 0.73942 0.0
C523 C 0.28966 0.52891 0.75712 0.0
C524 C 0.30228 0.52362 0.66406 0.0
C525 C 0.21836 0.51405 0.75358 0.0
C526 C 0.17922 0.53081 0.67316 0.0
C527 C 0.1474 0.49129 0.67435 0.0
C528 C 0.21813 0.54021 0.68129 0.0
C529 C 0.22508 0.50911 0.69038 0.0
C530 C 0.19411 0.4687 0.6876 0.0
C531 C 0.15532 0.46025 0.67996 0.0
C532 C 0.25009 0.58369 0.68399 0.0
C533 C 0.20059 0.43461 0.69613 0.0
H534 H 0.35892 0.54187 0.70553 0.0
H535 H 0.28694 0.52997 0.78056 0.0
H536 H 0.28357 0.49199 0.6571 0.0
H537 H 0.29148 0.54132 0.65207 0.0
H538 H 0.334 0.53424 0.65768 0.0
H539 H 0.22137 0.51881 0.77748 0.0
H540 H 0.20923 0.53473 0.74412 0.0
H541 H 0.19376 0.48306 0.74939 0.0
H542 H 0.1728 0.55476 0.66916 0.0
H543 H 0.13047 0.42969 0.68105 0.0
H544 H 0.27996 0.58855 0.67721 0.0
H545 H 0.25229 0.59291 0.70709 0.0
H546 H 0.24287 0.60332 0.67076 0.0
H547 H 0.23064 0.44037 0.68889 0.0
H548 H 0.17717 0.40574 0.68679 0.0
H549 H 0.19922 0.43166 0.72017 0.0
C550 C 0.44378 0.76095 0.37952 0.0
C551 C 0.47115 0.78966 0.3989 0.0
C552 C 0.45417 0.73617 0.36372 0.0
C553 C 0.49241 0.7399 0.36788 0.0
C554 C 0.52142 0.77164 0.38502 0.0
C555 C 0.51049 0.79626 0.40015 0.0
C556 C 0.42293 0.70368 0.34478 0.0
C557 C 0.56255 0.77675 0.39029 0.0
C558 C 0.49902 0.64689 0.37911 0.0
C559 C 0.52489 0.64956 0.3565 0.0
C560 C 0.48664 0.67507 0.38213 0.0
C561 C 0.49878 0.70581 0.36114 0.0
C562 C 0.52129 0.70623 0.33645 0.0
C563 C 0.53461 0.67823 0.33456 0.0
C564 C 0.46307 0.67351 0.40906 0.0
C565 C 0.53255 0.73715 0.31281 0.0
H566 H 0.41363 0.75637 0.37779 0.0
H567 H 0.53221 0.81907 0.41448 0.0
H568 H 0.43704 0.69807 0.32559 0.0
H569 H 0.40697 0.67542 0.35737 0.0
H570 H 0.40022 0.71146 0.33733 0.0
H571 H 0.5832 0.80584 0.40081 0.0
H572 H 0.55954 0.75232 0.4047 0.0
H573 H 0.57646 0.77479 0.36964 0.0
H574 H 0.48993 0.62364 0.39543 0.0
H575 H 0.55391 0.67985 0.31669 0.0
H576 H 0.43456 0.67218 0.40296 0.0
H577 H 0.48072 0.70105 0.42215 0.0
H578 H 0.45573 0.64724 0.42305 0.0
H579 H 0.50543 0.73781 0.30541 0.0
H580 H 0.54673 0.73111 0.29382 0.0
H581 H 0.55385 0.76734 0.32136 0.0
C582 C 0.7464 0.23696 0.89439 0.0
C583 C 0.70792 0.23068 0.90077 0.0
C584 C 0.77985 0.26392 0.91058 0.0
C585 C 0.77463 0.28459 0.93416 0.0
C586 C 0.7356 0.27683 0.9417 0.0
C587 C 0.7026 0.24988 0.9249 0.0
C588 C 0.82115 0.27251 0.90099 0.0
C589 C 0.72857 0.29749 0.96704 0.0
C590 C 0.87216 0.34257 0.97558 0.0
C591 C 0.8887 0.37944 0.96121 0.0
C592 C 0.83282 0.312 0.96918 0.0
C593 C 0.81073 0.31857 0.94744 0.0
C594 C 0.82617 0.35709 0.93509 0.0
C595 C 0.86475 0.38722 0.94253 0.0
C596 C 0.81594 0.27201 0.98415 0.0
C597 C 0.80353 0.36561 0.91205 0.0
H598 H 0.75081 0.22232 0.87574 0.0
H599 H 0.67278 0.24453 0.93029 0.0
H600 H 0.83913 0.3041 0.89365 0.0
H601 H 0.83731 0.26856 0.91942 0.0
H602 H 0.81985 0.25278 0.88289 0.0
H603 H 0.70014 0.29805 0.96445 0.0
H604 H 0.72666 0.28093 0.98725 0.0
H605 H 0.75339 0.32873 0.96983 0.0
H606 H 0.89072 0.33681 -0.00977 0.0
H607 H 0.87763 0.41613 0.93184 0.0
H608 H 0.81671 0.24998 0.96901 0.0
H609 H 0.78406 0.26059 -0.00957 0.0
H610 H 0.83338 0.27385 0.00385 0.0
H611 H 0.79981 0.3472 0.89248 0.0
H612 H 0.81926 0.39763 0.90549 0.0
H613 H 0.77305 0.35736 0.92006 0.0
C614 C 0.81124 0.49039 0.60188 0.0
C615 C 0.79456 0.47207 0.57529 0.0
C616 C 0.79061 0.50319 0.62037 0.0
C617 C 0.75281 0.4976 0.61171 0.0
C618 C 0.73532 0.47744 0.58529 0.0
C619 C 0.75649 0.46482 0.56743 0.0
C620 C 0.8096 0.52338 0.64871 0.0
C621 C 0.69526 0.4712 0.57502 0.0
C622 C 0.67239 0.50589 0.65267 0.0
C623 C 0.67745 0.54142 0.64052 0.0
C624 C 0.70029 0.49331 0.64674 0.0
C625 C 0.73313 0.51656 0.6279 0.0
C626 C 0.74123 0.55512 0.61924 0.0
C627 C 0.71337 0.56726 0.62596 0.0
C628 C 0.69193 0.45304 0.65772 0.0
C629 C 0.77626 0.58127 0.59953 0.0
H630 H 0.84079 0.49563 0.60778 0.0
H631 H 0.744 0.4507 0.54671 0.0
H632 H 0.80818 0.55119 0.65169 0.0
H633 H 0.79267 0.50302 0.66699 0.0
H634 H 0.84152 0.53096 0.65005 0.0
H635 H 0.6854 0.45387 0.55444 0.0
H636 H 0.67179 0.45506 0.59182 0.0
H637 H 0.69733 0.50063 0.57143 0.0
H638 H 0.64481 0.48606 0.66426 0.0
H639 H 0.71758 0.59517 0.61712 0.0
H640 H 0.72032 0.45347 0.66295 0.0
H641 H 0.67634 0.43022 0.64057 0.0
H642 H 0.67235 0.44376 0.67737 0.0
H643 H 0.80407 0.58201 0.60689 0.0
H644 H 0.78189 0.61244 0.59857 0.0
H645 H 0.76973 0.5687 0.5772 0.0
C646 C 0.52693 0.29907 0.2501 0.0
C647 C 0.5641 0.3345 0.25215 0.0
C648 C 0.51854 0.26545 0.2668 0.0
C649 C 0.54783 0.26748 0.28639 0.0
C650 C 0.58338 0.30453 0.29106 0.0
C651 C 0.59139 0.33761 0.2736 0.0
C652 C 0.47999 0.22664 0.26121 0.0
C653 C 0.6143 0.30845 0.31287 0.0
C654 C 0.50705 0.1656 0.32133 0.0
C655 C 0.52029 0.14772 0.3009 0.0
C656 C 0.51987 0.20673 0.31931 0.0
C657 C 0.54514 0.2294 0.29584 0.0
C658 C 0.56179 0.21206 0.27727 0.0
C659 C 0.54971 0.17166 0.28047 0.0
C660 C 0.50391 0.22487 0.34092 0.0
C661 C 0.58871 0.23467 0.25181 0.0
H662 H 0.50524 0.29667 0.23409 0.0
H663 H 0.61972 0.36531 0.27598 0.0
H664 H 0.48702 0.20473 0.25101 0.0
H665 H 0.46402 0.21351 0.28197 0.0
H666 H 0.45934 0.23073 0.24664 0.0
H667 H 0.63338 0.33998 0.31997 0.0
H668 H 0.59963 0.28924 0.33213 0.0
H669 H 0.63431 0.29866 0.3029 0.0
H670 H 0.48495 0.14718 0.33759 0.0
H671 H 0.56083 0.15784 0.26528 0.0
H672 H 0.47457 0.22033 0.33329 0.0
H673 H 0.52478 0.2575 0.34353 0.0
H674 H 0.49884 0.21007 0.36246 0.0
H675 H 0.5717 0.24216 0.23601 0.0
H676 H 0.6003 0.21713 0.24027 0.0
H677 H 0.61475 0.26316 0.25917 0.0
C678 C 0.43564 0.49704 0.18023 0.0
C679 C 0.46576 0.53099 0.19474 0.0
C680 C 0.40009 0.49529 0.17022 0.0
C681 C 0.39345 0.52781 0.17529 0.0
C682 C 0.42266 0.56128 0.19115 0.0
C683 C 0.45835 0.56261 0.20039 0.0
C684 C 0.37014 0.45903 0.15334 0.0
C685 C 0.41683 0.59643 0.19759 0.0
C686 C 0.32755 0.54753 0.12338 0.0
C687 C 0.29124 0.53292 0.13895 0.0
C688 C 0.36038 0.54515 0.13464 0.0
C689 C 0.35744 0.52803 0.16244 0.0
C690 C 0.32051 0.51223 0.17799 0.0
C691 C 0.28791 0.51472 0.16606 0.0
C692 C 0.3987 0.56193 0.11697 0.0
C693 C 0.31588 0.49389 0.20771 0.0
H694 H 0.43978 0.47164 0.17639 0.0
H695 H 0.48106 0.58921 0.2113 0.0
H696 H 0.33979 0.44621 0.16329 0.0
H697 H 0.36805 0.46799 0.13079 0.0
H698 H 0.37855 0.43536 0.15239 0.0
H699 H 0.44021 0.6184 0.21243 0.0
H700 H 0.41793 0.61193 0.17702 0.0
H701 H 0.38683 0.58598 0.2076 0.0
H702 H 0.3307 0.56171 0.10245 0.0
H703 H 0.26029 0.50367 0.17847 0.0
H704 H 0.4076 0.53883 0.11407 0.0
H705 H 0.42346 0.58742 0.12871 0.0
H706 H 0.39567 0.57251 0.09519 0.0
H707 H 0.32382 0.46993 0.20691 0.0
H708 H 0.28479 0.48105 0.2164 0.0
H709 H 0.33691 0.51701 0.22308 0.0
C710 C 0.44768 0.74836 0.81207 0.0
C711 C 0.47941 0.74018 0.81402 0.0
C712 C 0.4524 0.7856 0.82058 0.0
C713 C 0.49002 0.81615 0.83105 0.0
C714 C 0.52232 0.80825 0.83293 0.0
C715 C 0.51657 0.77037 0.82465 0.0
C716 C 0.41687 0.79215 0.8185 0.0
C717 C 0.56312 0.83998 0.84346 0.0
C718 C 0.50587 0.9223 0.82603 0.0
C719 C 0.49834 0.92997 0.85471 0.0
C720 C 0.50523 0.8865 0.81845 0.0
C721 C 0.49527 0.85629 0.83963 0.0
C722 C 0.48792 0.86366 0.8686 0.0
C723 C 0.49026 0.90039 0.87586 0.0
C724 C 0.5143 0.88066 0.78743 0.0
C725 C 0.47645 0.83219 0.8919 0.0
H726 H 0.41872 0.72534 0.80413 0.0
H727 H 0.54131 0.76453 0.82627 0.0
H728 H 0.41047 0.80068 0.84009 0.0
H729 H 0.42394 0.81718 0.80334 0.0
H730 H 0.38932 0.76508 0.81077 0.0
H731 H 0.58532 0.8295 0.84334 0.0
H732 H 0.5747 0.86698 0.82949 0.0
H733 H 0.56066 0.84917 0.86589 0.0
H734 H 0.51139 0.94382 0.80903 0.0
H735 H 0.48549 0.90554 0.89827 0.0
H736 H 0.48656 0.857 0.77699 0.0
H737 H 0.53677 0.87058 0.78686 0.0
H738 H 0.526 0.90851 0.77434 0.0
H739 H 0.44803 0.80483 0.88586 0.0
H740 H 0.47224 0.84255 0.9135 0.0
H741 H 0.49992 0.82359 0.89375 0.0
C742 C 0.09784 0.60493 0.53281 0.0
C743 C 0.09293 0.5683 0.52298 0.0
C744 C 0.13154 0.64174 0.5243 0.0
C745 C 0.16126 0.64211 0.50552 0.0
C746 C 0.15616 0.60497 0.49558 0.0
C747 C 0.12212 0.56869 0.50432 0.0
C748 C 0.1353 0.68031 0.53535 0.0
C749 C 0.18687 0.60348 0.47579 0.0
C750 C 0.23557 0.73525 0.46159 0.0
C751 C 0.27014 0.75161 0.47896 0.0
C752 C 0.19948 0.70082 0.47053 0.0
C753 C 0.19822 0.68103 0.49689 0.0
C754 C 0.23312 0.69761 0.51448 0.0
C755 C 0.26819 0.73284 0.50558 0.0
C756 C 0.16282 0.68526 0.45149 0.0
C757 C 0.2341 0.67716 0.54216 0.0
H758 H 0.07515 0.60472 0.54706 0.0
H759 H 0.11822 0.54043 0.49651 0.0
H760 H 0.16307 0.69681 0.54842 0.0
H761 H 0.13795 0.6998 0.51677 0.0
H762 H 0.10918 0.67515 0.54902 0.0
H763 H 0.17878 0.57233 0.47013 0.0
H764 H 0.18985 0.62007 0.4554 0.0
H765 H 0.21675 0.61833 0.48641 0.0
H766 H 0.23674 0.74938 0.44097 0.0
H767 H 0.2949 0.74467 0.51893 0.0
H768 H 0.13655 0.68097 0.46454 0.0
H769 H 0.15531 0.65564 0.4425 0.0
H770 H 0.16741 0.70582 0.43313 0.0
H771 H 0.20837 0.67131 0.55646 0.0
H772 H 0.26243 0.69515 0.55444 0.0
H773 H 0.23121 0.64776 0.53684 0.0
C774 C 0.57711 0.45111 0.78812 0.0
C775 C 0.54166 0.45314 0.79082 0.0
C776 C 0.5781 0.41602 0.79529 0.0
C777 C 0.54278 0.38163 0.80549 0.0
C778 C 0.5067 0.38316 0.8077 0.0
C779 C 0.50656 0.41865 0.80037 0.0
C780 C 0.6173 0.41604 0.79248 0.0
C781 C 0.46822 0.34736 0.81822 0.0
C782 C 0.53888 0.28004 0.80339 0.0
C783 C 0.54942 0.27635 0.83197 0.0
C784 C 0.5363 0.31379 0.79453 0.0
C785 C 0.54399 0.34467 0.81473 0.0
C786 C 0.55373 0.3406 0.84376 0.0
C787 C 0.55658 0.30684 0.85193 0.0
C788 C 0.52621 0.31681 0.76332 0.0
C789 C 0.56178 0.37232 0.8662 0.0
H790 H 0.60455 0.47744 0.78105 0.0
H791 H 0.47871 0.41925 0.80204 0.0
H792 H 0.62694 0.41162 0.81419 0.0
H793 H 0.61327 0.39081 0.77853 0.0
H794 H 0.64167 0.44442 0.78307 0.0
H795 H 0.44241 0.35278 0.81795 0.0
H796 H 0.46083 0.32096 0.80442 0.0
H797 H 0.47216 0.33968 0.84074 0.0
H798 H 0.53368 0.25701 0.78766 0.0
H799 H 0.56479 0.30449 0.87404 0.0
H800 H 0.55166 0.34345 0.75293 0.0
H801 H 0.49963 0.32091 0.76238 0.0
H802 H 0.51984 0.28987 0.75046 0.0
H803 H 0.58819 0.40116 0.85948 0.0
H804 H 0.56766 0.36423 0.88807 0.0
H805 H 0.5357 0.37719 0.86781 0.0
C806 C 0.71655 0.24825 0.52229 0.0
C807 C 0.75081 0.26968 0.50461 0.0
C808 C 0.68295 0.21222 0.51279 0.0
C809 C 0.68299 0.197 0.48467 0.0
C810 C 0.71774 0.21814 0.46689 0.0
C811 C 0.75113 0.25393 0.47707 0.0
C812 C 0.647 0.19076 0.53274 0.0
C813 C 0.71928 0.20349 0.43673 0.0
C814 C 0.60645 0.0866 0.4688 0.0
C815 C 0.57503 0.08895 0.45503 0.0
C816 C 0.64168 0.12125 0.47823 0.0
C817 C 0.64628 0.15971 0.47369 0.0
C818 C 0.61518 0.16241 0.45921 0.0
C819 C 0.58016 0.12728 0.45022 0.0
C820 C 0.67383 0.11662 0.49345 0.0
C821 C 0.61855 0.20253 0.45362 0.0
H822 H 0.7157 0.25997 0.54356 0.0
H823 H 0.77711 0.27022 0.46302 0.0
H824 H 0.62038 0.18991 0.5227 0.0
H825 H 0.63965 0.1593 0.53593 0.0
H826 H 0.65213 0.2054 0.55434 0.0
H827 H 0.74881 0.22244 0.42589 0.0
H828 H 0.71332 0.17225 0.43768 0.0
H829 H 0.69543 0.20335 0.42313 0.0
H830 H 0.60372 0.05757 0.47221 0.0
H831 H 0.55623 0.12992 0.44002 0.0
H832 H 0.67821 0.12908 0.51576 0.0
H833 H 0.70292 0.13382 0.48175 0.0
H834 H 0.66622 0.08485 0.49495 0.0
H835 H 0.61992 0.21738 0.47461 0.0
H836 H 0.59279 0.19987 0.44094 0.0
H837 H 0.64678 0.22232 0.44159 0.0
C838 C 0.94993 0.51308 0.15704 0.0
C839 C 0.95292 0.50273 0.12805 0.0
C840 C 0.91572 0.51396 0.16749 0.0
C841 C 0.8823 0.50267 0.14906 0.0
C842 C 0.88482 0.49215 0.11986 0.0
C843 C 0.92004 0.49296 0.10964 0.0
C844 C 0.91515 0.52633 0.19857 0.0
C845 C 0.84977 0.47903 0.09948 0.0
C846 C 0.77865 0.46063 0.18514 0.0
C847 C 0.77019 0.49193 0.18183 0.0
C848 C 0.81466 0.46376 0.17454 0.0
C849 C 0.84396 0.49952 0.16081 0.0
C850 C 0.83626 0.5318 0.15825 0.0
C851 C 0.79932 0.52742 0.16834 0.0
C852 C 0.8208 0.42817 0.17734 0.0
C853 C 0.867 0.57097 0.14472 0.0
H854 H 0.97404 0.51983 0.1721 0.0
H855 H 0.92146 0.48577 0.08708 0.0
H856 H 0.90561 0.54914 0.19951 0.0
H857 H 0.89302 0.5001 0.21139 0.0
H858 H 0.94501 0.53878 0.20908 0.0
H859 H 0.85631 0.47202 0.07737 0.0
H860 H 0.82308 0.452 0.10835 0.0
H861 H 0.84166 0.50279 0.09764 0.0
H862 H 0.75634 0.43285 0.19518 0.0
H863 H 0.79323 0.55178 0.16559 0.0
H864 H 0.84831 0.43647 0.19007 0.0
H865 H 0.82521 0.4187 0.15548 0.0
H866 H 0.79494 0.40226 0.18812 0.0
H867 H 0.89632 0.58263 0.15585 0.0
H868 H 0.8577 0.59398 0.14588 0.0
H869 H 0.87178 0.56626 0.12158 0.0
C870 C 0.0781 0.50113 0.76712 0.0
C871 C 0.04732 0.47919 0.747 0.0
C872 C 0.07055 0.49797 0.79714 0.0
C873 C 0.03095 0.473 0.80758 0.0
C874 C 0.99931 0.45206 0.78742 0.0
C875 C 1.00789 0.4553 0.75736 0.0
C876 C 0.10525 0.52056 0.81774 0.0
C877 C 0.95656 0.42546 0.79766 0.0
C878 C 1.01631 0.4322 0.88481 0.0
C879 C 1.00716 0.45816 0.90002 0.0
C880 C 0.02473 0.43707 0.85483 0.0
C881 C 0.02308 0.46814 0.8396 0.0
C882 C 1.01452 0.49486 0.85509 0.0
C883 C 1.00686 0.48965 0.88518 0.0
C884 C 0.03448 0.40839 0.83935 0.0
C885 C 1.01205 0.52807 0.83968 0.0
H886 H 0.10855 0.52052 0.75937 0.0
H887 H 0.98396 0.4382 0.74207 0.0
H888 H 0.09944 0.54041 0.83195 0.0
H889 H 0.1083 0.49915 0.8321 0.0
H890 H 0.13425 0.53905 0.80612 0.0
H891 H 0.93505 0.41336 0.7793 0.0
H892 H 0.95442 0.39999 0.8103 0.0
H893 H 0.94737 0.44235 0.81236 0.0
H894 H 1.0158 0.40743 0.89632 0.0
H895 H 0.99879 0.50906 0.89691 0.0
H896 H 0.06362 0.42523 0.82765 0.0
H897 H 1.01112 0.39117 0.82287 0.0
H898 H 0.03621 0.38694 0.85453 0.0
H899 H 0.04067 0.54773 0.82804 0.0
H900 H 1.00573 0.54668 0.8549 0.0
H901 H 0.98792 0.51514 0.82313 0.0
C902 C 0.60705 0.59188 0.43159 0.0
C903 C 0.56919 0.57622 0.41877 0.0
C904 C 0.61061 0.58744 0.46164 0.0
C905 C 0.57544 0.56696 0.47911 0.0
C906 C 0.53717 0.55047 0.46595 0.0
C907 C 0.53455 0.55545 0.43597 0.0
C908 C 0.65195 0.60557 0.47484 0.0
C909 C 0.49896 0.52833 0.48363 0.0
C910 C 0.58462 0.52509 0.55162 0.0
C911 C 0.58655 0.55376 0.57134 0.0
C912 C 0.58041 0.52875 0.52168 0.0
C913 C 0.57852 0.56219 0.51107 0.0
C914 C 0.57953 0.59084 0.531 0.0
C915 C 0.58333 0.58615 0.56099 0.0
C916 C 0.57882 0.49722 0.50133 0.0
C917 C 0.57787 0.62706 0.52058 0.0
H918 H 0.63376 0.6087 0.41828 0.0
H919 H 0.50531 0.54411 0.42599 0.0
H920 H 0.65581 0.62827 0.49131 0.0
H921 H 0.65543 0.58215 0.48623 0.0
H922 H 0.67624 0.62007 0.45828 0.0
H923 H 0.47159 0.51649 0.46997 0.0
H924 H 0.49847 0.50298 0.49537 0.0
H925 H 0.49777 0.5486 0.50026 0.0
H926 H 0.5872 0.50006 0.55967 0.0
H927 H 0.58546 0.60861 0.57621 0.0
H928 H 0.6049 0.51089 0.4862 0.0
H929 H 0.55121 0.48465 0.48794 0.0
H930 H 0.57918 0.47231 0.51315 0.0
H931 H 0.6044 0.64576 0.50659 0.0
H932 H 0.57747 0.64572 0.53887 0.0
H933 H 0.5507 0.61766 0.50715 0.0
C934 C 0.49393 0.06871 0.20861 0.0
C935 C 0.47483 0.03865 0.22996 0.0
C936 C 0.48812 0.06017 0.17881 0.0
C937 C 0.46484 0.02007 0.16951 0.0
C938 C 0.44699 0.98913 0.19064 0.0
C939 C 0.45157 0.99879 0.22056 0.0
C940 C 0.50674 0.09436 0.15725 0.0
C941 C 0.42305 0.94579 0.18163 0.0
C942 C 0.42228 1.00021 0.09259 0.0
C943 C 0.45142 0.99599 0.07701 0.0
C944 C 0.42633 1.00826 0.12262 0.0
C945 C 0.45976 1.01097 0.13762 0.0
C946 C 0.48938 1.00691 0.12183 0.0
C947 C 0.48504 0.99987 0.09166 0.0
C948 C 0.39474 0.0137 0.13829 0.0
C949 C 0.52513 1.00893 0.13695 0.0
H950 H 0.51383 0.09945 0.21499 0.0
H951 H 0.43663 0.97511 0.23647 0.0
H952 H 0.52956 0.09211 0.14378 0.0
H953 H 0.48339 0.09275 0.14231 0.0
H954 H 0.52142 0.12408 0.16807 0.0
H955 H 0.41325 0.92512 0.20057 0.0
H956 H 0.39603 0.94053 0.16942 0.0
H957 H 0.44133 0.93833 0.16686 0.0
H958 H 0.39598 0.99661 0.08127 0.0
H959 H 0.50705 0.99564 0.0797 0.0
H960 H 0.40904 0.04311 0.14949 0.0
H961 H 0.37983 0.99027 0.15521 0.0
H962 H 0.37139 0.01209 0.12331 0.0
H963 H 0.54341 0.03863 0.1473 0.0
H964 H 0.54473 1.0038 0.12178 0.0
H965 H 0.51468 0.98615 0.15451 0.0
C966 C 0.24483 0.58916 0.9527 0.0
C967 C 0.22098 0.60512 0.94352 0.0
C968 C 0.27753 0.59383 0.93592 0.0
C969 C 0.28775 0.61636 0.90978 0.0
C970 C 0.26629 0.63578 0.9018 0.0
C971 C 0.23274 0.62929 0.91839 0.0
C972 C 0.29933 0.57218 0.94515 0.0
C973 C 0.27682 0.66139 0.87481 0.0
C974 C 0.38431 0.6265 0.8794 0.0
C975 C 0.36848 0.59251 0.8617 0.0
C976 C 0.35849 0.63789 0.89285 0.0
C977 C 0.31632 0.61378 0.88909 0.0
C978 C 0.30108 0.58215 0.86864 0.0
C979 C 0.3275 0.57214 0.85506 0.0
C980 C 0.37595 0.67385 0.91261 0.0
C981 C 0.25652 0.55617 0.86326 0.0
H982 H 0.2371 0.57165 0.97252 0.0
H983 H 0.2147 0.64173 0.91064 0.0
H984 H 0.29513 0.54952 0.92853 0.0
H985 H 0.33205 0.59354 0.9468 0.0
H986 H 0.2884 0.55676 0.96642 0.0
H987 H 0.26997 0.68593 0.87794 0.0
H988 H 0.30901 0.67467 0.86874 0.0
H989 H 0.25831 0.64281 0.85641 0.0
H990 H 0.41618 0.64246 0.88422 0.0
H991 H 0.31561 0.54612 0.84097 0.0
H992 H 0.3726 0.66385 0.93557 0.0
H993 H 0.35968 0.6907 0.91014 0.0
H994 H 0.40842 0.69429 0.90807 0.0
H995 H 0.24998 0.53436 0.84539 0.0
H996 H 0.24315 0.57493 0.85762 0.0
H997 H 0.24139 0.53933 0.88336 0.0
C998 C 0.46131 0.76474 0.53594 0.0
C999 C 0.42678 0.76607 0.52834 0.0
C1000 C 0.45868 0.73308 0.55245 0.0
C1001 C 0.42063 0.70271 0.56254 0.0
C1002 C 0.3855 0.70389 0.55493 0.0
C1003 C 0.38894 0.73534 0.5374 0.0
C1004 C 0.49672 0.73213 0.55898 0.0
C1005 C 0.34455 0.67248 0.56579 0.0
C1006 C 0.41836 0.60708 0.58456 0.0
C1007 C 0.42763 0.61381 0.61423 0.0
C1008 C 0.41393 0.63484 0.56769 0.0
C1009 C 0.41827 0.66991 0.58093 0.0
C1010 C 0.42537 0.67577 0.61123 0.0
C1011 C 0.43045 0.64782 0.6275 0.0
C1012 C 0.40739 0.62791 0.53535 0.0
C1013 C 0.4295 0.7125 0.62617 0.0
H1014 H 0.49049 0.78826 0.52848 0.0
H1015 H 0.36227 0.73654 0.53148 0.0
H1016 H 0.50193 0.73426 0.58277 0.0
H1017 H 0.49367 0.70332 0.55163 0.0
H1018 H 0.52358 0.75697 0.54822 0.0
H1019 H 0.3201 0.67682 0.55702 0.0
H1020 H 0.33855 0.64215 0.5597 0.0
H1021 H 0.34372 0.67351 0.58989 0.0
H1022 H 0.4168 0.58111 0.57413 0.0
H1023 H 0.43749 0.65296 0.65045 0.0
H1024 H 0.43452 0.65059 0.52348 0.0
H1025 H 0.38181 0.63149 0.52829 0.0
H1026 H 0.40141 0.59766 0.52886 0.0
H1027 H 0.45758 0.73935 0.61879 0.0
H1028 H 0.43045 0.71043 0.65022 0.0
H1029 H 0.40406 0.71701 0.62027 0.0
C1030 C 0.29943 0.68262 0.18789 0.0
C1031 C 0.26028 0.65465 0.19643 0.0
C1032 C 0.32852 0.70533 0.20871 0.0
C1033 C 0.31803 0.69915 0.23862 0.0
C1034 C 0.28015 0.66696 0.24721 0.0
C1035 C 0.25117 0.64563 0.22591 0.0
C1036 C 0.3687 0.73916 0.19859 0.0
C1037 C 0.26881 0.65788 0.27885 0.0
C1038 C 0.40223 0.76986 0.28878 0.0
C1039 C 0.39498 0.80214 0.29019 0.0
C1040 C 0.37641 0.73487 0.27325 0.0
C1041 C 0.34217 0.73188 0.25945 0.0
C1042 C 0.33314 0.76306 0.2627 0.0
C1043 C 0.35971 0.79776 0.27777 0.0
C1044 C 0.3864 0.70176 0.27102 0.0
C1045 C 0.29687 0.76121 0.24839 0.0
H1046 H 0.30614 0.68957 0.16498 0.0
H1047 H 0.22072 0.62378 0.23235 0.0
H1048 H 0.36973 0.76812 0.20224 0.0
H1049 H 0.39348 0.73972 0.21124 0.0
H1050 H 0.37409 0.73674 0.17511 0.0
H1051 H 0.24301 0.62707 0.28189 0.0
H1052 H 0.29468 0.66121 0.2917 0.0
H1053 H 0.26012 0.67932 0.2876 0.0
H1054 H 0.42884 0.77248 0.29893 0.0
H1055 H 0.3539 0.8225 0.2781 0.0
H1056 H 0.38126 0.68914 0.24873 0.0
H1057 H 0.36646 0.67712 0.28598 0.0
H1058 H 0.41812 0.71226 0.27701 0.0
H1059 H 0.29984 0.76064 0.2244 0.0
H1060 H 0.29319 0.78717 0.25421 0.0
H1061 H 0.26908 0.73343 0.25485 0.0
C1062 C 0.63757 0.35719 0.11398 0.0
C1063 C 0.61833 0.37876 0.10703 0.0
C1064 C 0.63872 0.33033 0.09395 0.0
C1065 C 0.62119 0.326 0.06622 0.0
C1066 C 0.60617 0.35135 0.05801 0.0
C1067 C 0.60396 0.37681 0.07881 0.0
C1068 C 0.65595 0.30446 0.10318 0.0
C1069 C 0.59037 0.34985 0.02781 0.0
C1070 C 0.63393 0.25581 0.01474 0.0
C1071 C 0.59713 0.22042 0.01853 0.0
C1072 C 0.642 0.29123 0.02907 0.0
C1073 C 0.61258 0.29081 0.04803 0.0
C1074 C 0.57497 0.25525 0.05141 0.0
C1075 C 0.56763 0.22066 0.03645 0.0
C1076 C 0.68226 0.32833 0.02388 0.0
C1077 C 0.54309 0.25307 0.072 0.0
H1078 H 0.64895 0.35898 0.13579 0.0
H1079 H 0.58987 0.39425 0.07329 0.0
H1080 H 0.63164 0.27264 0.10397 0.0
H1081 H 0.67861 0.3068 0.08703 0.0
H1082 H 0.67035 0.31298 0.12489 0.0
H1083 H 0.58656 0.37605 0.02332 0.0
H1084 H 0.61114 0.34893 0.01132 0.0
H1085 H 0.56077 0.32222 0.02529 0.0
H1086 H 0.65661 0.25549 0.00092 0.0
H1087 H 0.53939 0.19315 0.03994 0.0
H1088 H 0.70672 0.32121 0.02668 0.0
H1089 H 0.68811 0.35364 0.03838 0.0
H1090 H 0.68376 0.33824 0.00103 0.0
H1091 H 0.55529 0.26051 0.09439 0.0
H1092 H 0.51568 0.22295 0.07234 0.0
H1093 H 0.53423 0.27529 0.06566 0.0
C1094 C 0.70851 0.26959 0.7861 0.0
C1095 C 0.66777 0.24681 0.77918 0.0
C1096 C 0.73362 0.30543 0.77156 0.0
C1097 C 0.71738 0.31864 0.74951 0.0
C1098 C 0.67526 0.29795 0.7448 0.0
C1099 C 0.65074 0.2617 0.75958 0.0
C1100 C 0.77809 0.32715 0.7781 0.0
C1101 C 0.65655 0.31271 0.72292 0.0
C1102 C 0.79792 0.41809 0.71931 0.0
C1103 C 0.81276 0.40565 0.69581 0.0
C1104 C 0.76397 0.39061 0.73529 0.0
C1105 C 0.74544 0.34942 0.72855 0.0
C1106 C 0.75851 0.33694 0.70385 0.0
C1107 C 0.79126 0.36529 0.6874 0.0
C1108 C 0.75001 0.40573 0.76054 0.0
C1109 C 0.73995 0.29316 0.69606 0.0
H1110 H 0.72121 0.25805 0.80177 0.0
H1111 H 0.61896 0.24409 0.75466 0.0
H1112 H 0.79498 0.32586 0.75885 0.0
H1113 H 0.78887 0.35913 0.78277 0.0
H1114 H 0.78536 0.31404 0.79701 0.0
H1115 H 0.62368 0.29923 0.72665 0.0
H1116 H 0.67085 0.34582 0.72382 0.0
H1117 H 0.6613 0.30456 0.7007 0.0
H1118 H 0.81385 0.44895 0.72645 0.0
H1119 H 0.801 0.35531 0.66864 0.0
H1120 H 0.76768 0.40785 0.78013 0.0
H1121 H 0.71766 0.38562 0.76557 0.0
H1122 H 0.75509 0.43619 0.75595 0.0
H1123 H 0.7451 0.27694 0.71391 0.0
H1124 H 0.75271 0.2885 0.67567 0.0
H1125 H 0.70698 0.27952 0.69344 0.0
C1126 C 0.67074 0.45336 0.37869 0.0
C1127 C 0.63431 0.42306 0.36731 0.0
C1128 C 0.69732 0.44442 0.39296 0.0
C1129 C 0.68716 0.40396 0.39651 0.0
C1130 C 0.6505 0.37301 0.38524 0.0
C1131 C 0.62464 0.38294 0.37048 0.0
C1132 C 0.736 0.47852 0.40488 0.0
C1133 C 0.6386 0.32955 0.3887 0.0
C1134 C 0.7841 0.40833 0.41427 0.0
C1135 C 0.78374 0.41128 0.44455 0.0
C1136 C 0.7497 0.39916 0.39811 0.0
C1137 C 0.71532 0.39526 0.41266 0.0
C1138 C 0.71348 0.39358 0.44344 0.0
C1139 C 0.74778 0.4011 0.4591 0.0
C1140 C 0.75195 0.3988 0.36538 0.0
C1141 C 0.6775 0.38955 0.45988 0.0
H1142 H 0.6781 0.48434 0.3774 0.0
H1143 H 0.59676 0.35922 0.36161 0.0
H1144 H 0.73728 0.47512 0.42874 0.0
H1145 H 0.7622 0.47802 0.39505 0.0
H1146 H 0.73915 0.50827 0.40046 0.0
H1147 H 0.60615 0.30927 0.38427 0.0
H1148 H 0.65639 0.32234 0.37327 0.0
H1149 H 0.64519 0.32334 0.41092 0.0
H1150 H 0.81202 0.41599 0.40314 0.0
H1151 H 0.74778 0.40363 0.4826 0.0
H1152 H 0.75872 0.42842 0.3568 0.0
H1153 H 0.72281 0.37584 0.35611 0.0
H1154 H 0.77597 0.39279 0.35783 0.0
H1155 H 0.67839 0.41876 0.45963 0.0
H1156 H 0.67735 0.38081 0.48291 0.0
H1157 H 0.64903 0.36714 0.44951 0.0
loop_
_geom_bond_atom_site_label_1
_geom_bond_atom_site_label_2
_geom_bond_distance
_geom_bond_site_symmetry_2
_ccdc_geom_bond_type
C0 C1 1.359 . S
C0 N5 1.330 . S
C0 C61 1.508 . S
C1 C0 1.359 . S
C1 C2 1.366 . S
C1 H63 0.911 1_554 S
C2 C1 1.366 . S
C2 C3 1.415 . S
C2 H64 0.932 . S
C3 C2 1.415 . S
C3 C4 1.366 . S
C3 H65 0.931 . S
C4 C3 1.366 . S
C4 N5 1.325 . S
C4 C6 1.516 . S
N5 C0 1.330 . S
N5 C4 1.325 . S
N5 Co21 1.869 . S
C6 C4 1.516 . S
C6 N30 1.316 . S
C6 O53 1.263 . S
C7 C8 1.421 . S
C7 C12 1.360 . S
C7 N30 1.436 . S
C8 C7 1.421 . S
C8 C9 1.379 . S
C8 H66 0.929 . S
C9 C8 1.379 . S
C9 C10 1.417 . S
C10 C9 1.417 . S
C10 C11 1.352 . S
C10 H67 0.929 . S
C11 C10 1.352 . S
C11 C12 1.393 . S
C12 C7 1.360 . S
C12 C11 1.393 . S
C12 H68 0.931 . S
Cd13 O33 2.329 . S
Cd13 O35 2.350 . S
Cd13 O36 2.277 . S
Cd13 O38 2.173 . S
Cd13 O42 2.263 . S
Cd13 O53 2.366 . S
Cd14 O32 2.352 . S
Cd14 O39 2.250 . S
Cd14 O43 2.308 . S
C15 C19 1.403 . S
C15 C20 1.370 1_456 S
C15 N31 1.423 1_556 S
C16 C17 1.389 . S
C16 C20 1.389 1_556 S
C17 C16 1.389 . S
C17 C18 1.379 . S
C17 H69 0.929 . S
C18 C17 1.379 . S
C18 C19 1.405 1_655 S
C19 C15 1.403 . S
C19 C18 1.405 1_455 S
C19 H70 0.932 . S
C20 C15 1.370 1_654 S
C20 C16 1.389 1_554 S
C20 H71 0.931 . S
Co21 N5 1.869 . S
Co21 N22 1.955 1_554 S
Co21 N23 1.864 . S
Co21 N29 1.958 . S
Co21 N30 1.953 . S
Co21 N31 1.974 . S
N22 Co21 1.955 1_556 S
N22 C40 1.329 . S
N22 C55 1.432 . S
N23 Co21 1.864 . S
N23 C24 1.327 . S
N23 C28 1.342 . S
C24 N23 1.327 . S
C24 C25 1.407 . S
C24 C40 1.481 1_554 S
C25 C24 1.407 . S
C25 C26 1.364 . S
C25 H72 0.930 1_554 S
C26 C25 1.364 . S
C26 C27 1.390 . S
C26 H73 0.931 . S
C27 C26 1.390 . S
C27 C28 1.346 . S
C27 H74 0.930 1_455 S
C28 N23 1.342 . S
C28 C27 1.346 . S
C28 C44 1.516 . S
N29 Co21 1.958 . S
N29 C44 1.324 . S
N29 C46 1.427 . S
N30 C6 1.316 . S
N30 C7 1.436 . S
N30 Co21 1.953 . S
N31 C15 1.423 1_554 S
N31 Co21 1.974 . S
N31 C61 1.311 . S
O32 Cd14 2.352 . S
O32 C52 1.235 . S
O33 Cd13 2.329 . S
O33 C52 1.270 . S
C34 O35 1.270 . S
C34 O36 1.248 . S
O35 Cd13 2.350 . S
O35 C34 1.270 . S
O36 Cd13 2.277 . S
O36 C34 1.248 . S
C37 O38 1.277 . S
C37 O39 1.230 . S
O38 Cd13 2.173 . S
O38 C37 1.277 . S
O39 Cd14 2.250 . S
O39 C37 1.230 . S
C40 N22 1.329 . S
C40 C24 1.481 1_556 S
C40 O41 1.246 . S
O41 C40 1.246 . S
O42 Cd13 2.263 . S
O42 C54 1.258 . S
O43 Cd14 2.308 . S
O43 C54 1.274 . S
C44 C28 1.516 . S
C44 N29 1.324 . S
C44 O45 1.238 . S
O45 C44 1.238 . S
C46 N29 1.427 . S
C46 C47 1.394 . S
C46 C51 1.395 . S
C47 C46 1.394 . S
C47 C48 1.380 . S
C47 H75 0.929 . S
C48 C47 1.380 . S
C48 C49 1.384 . S
C48 C54 1.495 . S
C49 C48 1.384 . S
C49 C50 1.382 . S
C49 H76 0.930 . S
C50 C49 1.382 . S
C50 C51 1.398 . S
C51 C46 1.395 . S
C51 C50 1.398 . S
C51 H77 0.930 1_455 S
C52 O32 1.235 . S
C52 O33 1.270 . S
O53 C6 1.263 . S
O53 Cd13 2.366 . S
C54 O42 1.258 . S
C54 O43 1.274 . S
C54 C48 1.495 . S
C55 N22 1.432 . S
C55 C56 1.381 . S
C55 C60 1.385 . S
C56 C55 1.381 . S
C56 C57 1.371 . S
C56 H78 0.932 . S
C57 C56 1.371 . S
C57 C58 1.400 . S
C58 C57 1.400 . S
C58 C59 1.351 . S
C58 H79 0.930 . S
C59 C58 1.351 . S
C59 C60 1.388 . S
C60 C55 1.385 . S
C60 C59 1.388 . S
C60 H80 0.929 . S
C61 C0 1.508 . S
C61 N31 1.311 . S
C61 O62 1.252 1_554 S
O62 C61 1.252 1_556 S
H63 C1 0.911 1_556 S
H64 C2 0.932 . S
H65 C3 0.931 . S
H66 C8 0.929 . S
H67 C10 0.929 . S
H68 C12 0.931 . S
H69 C17 0.929 . S
H70 C19 0.932 . S
H71 C20 0.931 . S
H72 C25 0.930 1_556 S
H73 C26 0.931 . S
H74 C27 0.930 1_655 S
H75 C47 0.929 . S
H76 C49 0.930 . S
H77 C51 0.930 1_655 S
H78 C56 0.932 . S
H79 C58 0.930 . S
H80 C60 0.929 . S
C81 C82 1.359 . S
C81 N86 1.330 . S
C81 C142 1.504 . S
C82 C81 1.359 . S
C82 C83 1.366 . S
C82 H144 0.929 . S
C83 C82 1.366 . S
C83 C84 1.415 . S
C83 H145 0.932 . S
C84 C83 1.415 . S
C84 C85 1.366 . S
C84 H146 0.931 . S
C85 C84 1.366 . S
C85 N86 1.325 . S
C85 C87 1.516 . S
N86 C81 1.330 . S
N86 C85 1.325 . S
N86 Co102 1.869 . S
C87 C85 1.516 . S
C87 N111 1.316 . S
C87 O134 1.263 . S
C88 C89 1.421 . S
C88 C93 1.360 . S
C88 N111 1.436 . S
C89 C88 1.421 . S
C89 C90 1.379 . S
C89 H147 0.929 . S
C90 C89 1.379 . S
C90 C91 1.417 . S
C91 C90 1.417 . S
C91 C92 1.352 . S
C91 H148 0.929 . S
C92 C91 1.352 . S
C92 C93 1.393 . S
C93 C88 1.360 . S
C93 C92 1.393 . S
C93 H149 0.931 . S
Cd94 O114 2.329 . S
Cd94 O116 2.350 . S
Cd94 O117 2.277 . S
Cd94 O119 2.173 . S
Cd94 O123 2.263 . S
Cd94 O134 2.366 . S
Cd95 O113 2.352 . S
Cd95 O120 2.250 . S
Cd95 O124 2.308 . S
C96 C100 1.403 . S
C96 C101 1.370 . S
C96 N112 1.423 . S
C97 C98 1.389 . S
C97 C101 1.389 . S
C98 C97 1.389 . S
C98 C99 1.379 . S
C98 H150 0.929 . S
C99 C98 1.379 . S
C99 C100 1.405 . S
C100 C96 1.403 . S
C100 C99 1.405 . S
C100 H151 0.932 . S
C101 C96 1.370 . S
C101 C97 1.389 . S
C101 H152 0.931 . S
Co102 N86 1.869 . S
Co102 N103 1.955 . S
Co102 N104 1.864 . S
Co102 N110 1.958 . S
Co102 N111 1.953 . S
Co102 N112 1.974 . S
N103 Co102 1.955 . S
N103 C121 1.329 . S
N103 C136 1.432 . S
N104 Co102 1.864 . S
N104 C105 1.327 . S
N104 C109 1.342 . S
C105 N104 1.327 . S
C105 C106 1.407 . S
C105 C121 1.481 . S
C106 C105 1.407 . S
C106 C107 1.364 . S
C106 H153 0.930 . S
C107 C106 1.364 . S
C107 C108 1.390 . S
C107 H154 0.931 . S
C108 C107 1.390 . S
C108 C109 1.346 . S
C108 H155 0.930 . S
C109 N104 1.342 . S
C109 C108 1.346 . S
C109 C125 1.516 . S
N110 Co102 1.958 . S
N110 C125 1.324 . S
N110 C127 1.427 . S
N111 C87 1.316 . S
N111 C88 1.436 . S
N111 Co102 1.953 . S
N112 C96 1.423 . S
N112 Co102 1.974 . S
N112 C142 1.309 . S
O113 Cd95 2.352 . S
O113 C133 1.235 . S
O114 Cd94 2.329 . S
O114 C133 1.270 . S
C115 O116 1.270 . S
C115 O117 1.248 . S
O116 Cd94 2.350 . S
O116 C115 1.270 . S
O117 Cd94 2.277 . S
O117 C115 1.248 . S
C118 O119 1.277 . S
C118 O120 1.230 . S
O119 Cd94 2.173 . S
O119 C118 1.277 . S
O120 Cd95 2.250 . S
O120 C118 1.230 . S
C121 N103 1.329 . S
C121 C105 1.481 . S
C121 O122 1.246 . S
O122 C121 1.246 . S
O123 Cd94 2.263 . S
O123 C135 1.258 . S
O124 Cd95 2.308 . S
O124 C135 1.274 . S
C125 C109 1.516 . S
C125 N110 1.324 . S
C125 O126 1.238 . S
O126 C125 1.238 . S
C127 N110 1.427 . S
C127 C128 1.394 . S
C127 C132 1.395 . S
C128 C127 1.394 . S
C128 C129 1.380 . S
C128 H156 0.929 . S
C129 C128 1.380 . S
C129 C130 1.384 . S
C129 C135 1.495 . S
C130 C129 1.384 . S
C130 C131 1.382 . S
C130 H157 0.930 . S
C131 C130 1.382 . S
C131 C132 1.398 . S
C132 C127 1.395 . S
C132 C131 1.398 . S
C132 H158 0.930 . S
C133 O113 1.235 . S
C133 O114 1.270 . S
O134 C87 1.263 . S
O134 Cd94 2.366 . S
C135 O123 1.258 . S
C135 O124 1.274 . S
C135 C129 1.495 . S
C136 N103 1.432 . S
C136 C137 1.381 . S
C136 C141 1.385 . S
C137 C136 1.381 . S
C137 C138 1.371 . S
C137 H159 0.932 . S
C138 C137 1.371 . S
C138 C139 1.400 . S
C139 C138 1.400 . S
C139 C140 1.351 . S
C139 H160 0.930 . S
C140 C139 1.351 . S
C140 C141 1.388 . S
C141 C136 1.385 . S
C141 C140 1.388 . S
C141 H161 0.929 . S
C142 C81 1.504 . S
C142 N112 1.309 . S
C142 O143 1.258 . S
O143 C142 1.258 . S
H144 C82 0.929 . S
H145 C83 0.932 . S
H146 C84 0.931 . S
H147 C89 0.929 . S
H148 C91 0.929 . S
H149 C93 0.931 . S
H150 C98 0.929 . S
H151 C100 0.932 . S
H152 C101 0.931 . S
H153 C106 0.930 . S
H154 C107 0.931 . S
H155 C108 0.930 . S
H156 C128 0.929 . S
H157 C130 0.930 . S
H158 C132 0.930 . S
H159 C137 0.932 . S
H160 C139 0.930 . S
H161 C141 0.929 . S
C162 C163 1.359 . S
C162 N167 1.330 . S
C162 C223 1.504 . S
C163 C162 1.359 . S
C163 C164 1.366 . S
C163 H225 0.929 . S
C164 C163 1.366 . S
C164 C165 1.415 . S
C164 H226 0.932 . S
C165 C164 1.415 . S
C165 C166 1.366 . S
C165 H227 0.931 . S
C166 C165 1.366 . S
C166 N167 1.325 . S
C166 C168 1.516 . S
N167 C162 1.330 . S
N167 C166 1.325 . S
N167 Co183 1.869 . S
C168 C166 1.516 . S
C168 N192 1.316 . S
C168 O215 1.263 . S
C169 C170 1.421 . S
C169 C174 1.360 . S
C169 N192 1.436 . S
C170 C169 1.421 . S
C170 C171 1.379 . S
C170 H228 0.929 . S
C171 C170 1.379 . S
C171 C172 1.417 . S
C172 C171 1.417 . S
C172 C173 1.352 . S
C172 H229 0.929 . S
C173 C172 1.352 . S
C173 C174 1.393 . S
C174 C169 1.360 . S
C174 C173 1.393 . S
C174 H230 0.931 . S
Cd175 O195 2.329 . S
Cd175 O197 2.350 . S
Cd175 O198 2.277 . S
Cd175 O200 2.173 . S
Cd175 O204 2.263 . S
Cd175 O215 2.366 . S
Cd176 O194 2.352 . S
Cd176 O201 2.250 . S
Cd176 O205 2.308 . S
C177 C181 1.403 . S
C177 C182 1.370 1_565 S
C177 N193 1.423 . S
C178 C179 1.389 . S
C178 C182 1.389 . S
C179 C178 1.389 . S
C179 C180 1.379 . S
C179 H231 0.929 . S
C180 C179 1.379 . S
C180 C181 1.405 1_545 S
C181 C177 1.403 . S
C181 C180 1.405 1_565 S
C181 H232 0.932 . S
C182 C177 1.370 1_545 S
C182 C178 1.389 . S
C182 H233 0.931 . S
Co183 N167 1.869 . S
Co183 N184 1.955 . S
Co183 N185 1.864 . S
Co183 N191 1.958 . S
Co183 N192 1.953 . S
Co183 N193 1.974 . S
N184 Co183 1.955 . S
N184 C202 1.329 . S
N184 C217 1.432 . S
N185 Co183 1.864 . S
N185 C186 1.327 . S
N185 C190 1.342 . S
C186 N185 1.327 . S
C186 C187 1.407 . S
C186 C202 1.481 . S
C187 C186 1.407 . S
C187 C188 1.364 . S
C187 H234 0.930 . S
C188 C187 1.364 . S
C188 C189 1.390 . S
C188 H235 0.931 . S
C189 C188 1.390 . S
C189 C190 1.346 . S
C189 H236 0.930 1_565 S
C190 N185 1.342 . S
C190 C189 1.346 . S
C190 C206 1.516 . S
N191 Co183 1.958 . S
N191 C206 1.324 . S
N191 C208 1.427 . S
N192 C168 1.316 . S
N192 C169 1.436 . S
N192 Co183 1.953 . S
N193 C177 1.423 . S
N193 Co183 1.974 . S
N193 C223 1.309 . S
O194 Cd176 2.352 . S
O194 C214 1.235 . S
O195 Cd175 2.329 . S
O195 C214 1.270 . S
C196 O197 1.270 . S
C196 O198 1.248 . S
O197 Cd175 2.350 . S
O197 C196 1.270 . S
O198 Cd175 2.277 . S
O198 C196 1.248 . S
C199 O200 1.277 . S
C199 O201 1.230 . S
O200 Cd175 2.173 . S
O200 C199 1.277 . S
O201 Cd176 2.250 . S
O201 C199 1.230 . S
C202 N184 1.329 . S
C202 C186 1.481 . S
C202 O203 1.246 . S
O203 C202 1.246 . S
O204 Cd175 2.263 . S
O204 C216 1.258 . S
O205 Cd176 2.308 . S
O205 C216 1.274 . S
C206 C190 1.516 . S
C206 N191 1.324 . S
C206 O207 1.238 . S
O207 C206 1.238 . S
C208 N191 1.427 . S
C208 C209 1.394 . S
C208 C213 1.395 . S
C209 C208 1.394 . S
C209 C210 1.380 . S
C209 H237 0.929 . S
C210 C209 1.380 . S
C210 C211 1.384 . S
C210 C216 1.495 . S
C211 C210 1.384 . S
C211 C212 1.382 . S
C211 H238 0.930 . S
C212 C211 1.382 . S
C212 C213 1.398 . S
C213 C208 1.395 . S
C213 C212 1.398 . S
C213 H239 0.930 1_565 S
C214 O194 1.235 . S
C214 O195 1.270 . S
O215 C168 1.263 . S
O215 Cd175 2.366 . S
C216 O204 1.258 . S
C216 O205 1.274 . S
C216 C210 1.495 . S
C217 N184 1.432 . S
C217 C218 1.381 . S
C217 C222 1.385 . S
C218 C217 1.381 . S
C218 C219 1.371 . S
C218 H240 0.932 . S
C219 C218 1.371 . S
C219 C220 1.400 . S
C220 C219 1.400 . S
C220 C221 1.351 . S
C220 H241 0.930 . S
C221 C220 1.351 . S
C221 C222 1.388 . S
C222 C217 1.385 . S
C222 C221 1.388 . S
C222 H242 0.929 . S
C223 C162 1.504 . S
C223 N193 1.309 . S
C223 O224 1.258 . S
O224 C223 1.258 . S
H225 C163 0.929 . S
H226 C164 0.932 . S
H227 C165 0.931 . S
H228 C170 0.929 . S
H229 C172 0.929 . S
H230 C174 0.931 . S
H231 C179 0.929 . S
H232 C181 0.932 . S
H233 C182 0.931 . S
H234 C187 0.930 . S
H235 C188 0.931 . S
H236 C189 0.930 1_545 S
H237 C209 0.929 . S
H238 C211 0.930 . S
H239 C213 0.930 1_545 S
H240 C218 0.932 . S
H241 C220 0.930 . S
H242 C222 0.929 . S
C243 C244 1.359 . S
C243 N248 1.330 . S
C243 C304 1.508 . S
C244 C243 1.359 . S
C244 C245 1.366 . S
C244 H306 0.911 1_556 S
C245 C244 1.366 . S
C245 C246 1.415 . S
C245 H307 0.932 . S
C246 C245 1.415 . S
C246 C247 1.366 . S
C246 H308 0.931 . S
C247 C246 1.366 . S
C247 N248 1.325 . S
C247 C249 1.516 . S
N248 C243 1.330 . S
N248 C247 1.325 . S
N248 Co264 1.869 . S
C249 C247 1.516 . S
C249 N273 1.316 . S
C249 O296 1.263 . S
C250 C251 1.421 . S
C250 C255 1.360 . S
C250 N273 1.436 . S
C251 C250 1.421 . S
C251 C252 1.379 . S
C251 H309 0.929 . S
C252 C251 1.379 . S
C252 C253 1.417 . S
C253 C252 1.417 . S
C253 C254 1.352 . S
C253 H310 0.929 . S
C254 C253 1.352 . S
C254 C255 1.393 . S
C255 C250 1.360 . S
C255 C254 1.393 . S
C255 H311 0.931 . S
Cd256 O276 2.329 . S
Cd256 O278 2.350 . S
Cd256 O279 2.277 . S
Cd256 O281 2.173 . S
Cd256 O285 2.263 . S
Cd256 O296 2.366 . S
Cd257 O275 2.352 . S
Cd257 O282 2.250 . S
Cd257 O286 2.308 . S
C258 C262 1.403 . S
C258 C263 1.370 1_544 S
C258 N274 1.423 1_554 S
C259 C260 1.389 . S
C259 C263 1.389 1_554 S
C260 C259 1.389 . S
C260 C261 1.379 . S
C260 H312 0.929 . S
C261 C260 1.379 . S
C261 C262 1.405 1_565 S
C262 C258 1.403 . S
C262 C261 1.405 1_545 S
C262 H313 0.932 . S
C263 C258 1.370 1_566 S
C263 C259 1.389 1_556 S
C263 H314 0.931 . S
Co264 N248 1.869 . S
Co264 N265 1.955 1_556 S
Co264 N266 1.864 . S
Co264 N272 1.958 . S
Co264 N273 1.953 . S
Co264 N274 1.974 . S
N265 Co264 1.955 1_554 S
N265 C283 1.329 . S
N265 C298 1.432 . S
N266 Co264 1.864 . S
N266 C267 1.327 . S
N266 C271 1.342 . S
C267 N266 1.327 . S
C267 C268 1.407 . S
C267 C283 1.481 1_556 S
C268 C267 1.407 . S
C268 C269 1.364 . S
C268 H315 0.930 1_556 S
C269 C268 1.364 . S
C269 C270 1.390 . S
C269 H316 0.931 . S
C270 C269 1.390 . S
C270 C271 1.346 . S
C270 H317 0.930 1_545 S
C271 N266 1.342 . S
C271 C270 1.346 . S
C271 C287 1.516 . S
N272 Co264 1.958 . S
N272 C287 1.324 . S
N272 C289 1.427 . S
N273 C249 1.316 . S
N273 C250 1.436 . S
N273 Co264 1.953 . S
N274 C258 1.423 1_556 S
N274 Co264 1.974 . S
N274 C304 1.311 . S
O275 Cd257 2.352 . S
O275 C295 1.235 . S
O276 Cd256 2.329 . S
O276 C295 1.270 . S
C277 O278 1.270 . S
C277 O279 1.248 . S
O278 Cd256 2.350 . S
O278 C277 1.270 . S
O279 Cd256 2.277 . S
O279 C277 1.248 . S
C280 O281 1.277 . S
C280 O282 1.230 . S
O281 Cd256 2.173 . S
O281 C280 1.277 . S
O282 Cd257 2.250 . S
O282 C280 1.230 . S
C283 N265 1.329 . S
C283 C267 1.481 1_554 S
C283 O284 1.246 . S
O284 C283 1.246 . S
O285 Cd256 2.263 . S
O285 C297 1.258 . S
O286 Cd257 2.308 . S
O286 C297 1.274 . S
C287 C271 1.516 . S
C287 N272 1.324 . S
C287 O288 1.238 . S
O288 C287 1.238 . S
C289 N272 1.427 . S
C289 C290 1.394 . S
C289 C294 1.395 . S
C290 C289 1.394 . S
C290 C291 1.380 . S
C290 H318 0.929 . S
C291 C290 1.380 . S
C291 C292 1.384 . S
C291 C297 1.495 . S
C292 C291 1.384 . S
C292 C293 1.382 . S
C292 H319 0.930 . S
C293 C292 1.382 . S
C293 C294 1.398 . S
C294 C289 1.395 . S
C294 C293 1.398 . S
C294 H320 0.930 1_545 S
C295 O275 1.235 . S
C295 O276 1.270 . S
O296 C249 1.263 . S
O296 Cd256 2.366 . S
C297 O285 1.258 . S
C297 O286 1.274 . S
C297 C291 1.495 . S
C298 N265 1.432 . S
C298 C299 1.381 . S
C298 C303 1.385 . S
C299 C298 1.381 . S
C299 C300 1.371 . S
C299 H321 0.932 . S
C300 C299 1.371 . S
C300 C301 1.400 . S
C301 C300 1.400 . S
C301 C302 1.351 . S
C301 H322 0.930 . S
C302 C301 1.351 . S
C302 C303 1.388 . S
C303 C298 1.385 . S
C303 C302 1.388 . S
C303 H323 0.929 . S
C304 C243 1.508 . S
C304 N274 1.311 . S
C304 O305 1.252 1_556 S
O305 C304 1.252 1_554 S
H306 C244 0.911 1_554 S
H307 C245 0.932 . S
H308 C246 0.931 . S
H309 C251 0.929 . S
H310 C253 0.929 . S
H311 C255 0.931 . S
H312 C260 0.929 . S
H313 C262 0.932 . S
H314 C263 0.931 . S
H315 C268 0.930 1_554 S
H316 C269 0.931 . S
H317 C270 0.930 1_565 S
H318 C290 0.929 . S
H319 C292 0.930 . S
H320 C294 0.930 1_565 S
H321 C299 0.932 . S
H322 C301 0.930 . S
H323 C303 0.929 . S
C324 C325 1.359 . S
C324 N329 1.330 . S
C324 C385 1.504 . S
C325 C324 1.359 . S
C325 C326 1.366 . S
C325 H387 0.929 . S
C326 C325 1.366 . S
C326 C327 1.415 . S
C326 H388 0.932 . S
C327 C326 1.415 . S
C327 C328 1.366 . S
C327 H389 0.931 . S
C328 C327 1.366 . S
C328 N329 1.325 . S
C328 C330 1.516 . S
N329 C324 1.330 . S
N329 C328 1.325 . S
N329 Co345 1.869 . S
C330 C328 1.516 . S
C330 N354 1.316 . S
C330 O377 1.263 . S
C331 C332 1.421 . S
C331 C336 1.360 . S
C331 N354 1.436 . S
C332 C331 1.421 . S
C332 C333 1.379 . S
C332 H390 0.929 . S
C333 C332 1.379 . S
C333 C334 1.417 . S
C334 C333 1.417 . S
C334 C335 1.352 . S
C334 H391 0.929 . S
C335 C334 1.352 . S
C335 C336 1.393 . S
C336 C331 1.360 . S
C336 C335 1.393 . S
C336 H392 0.931 . S
Cd337 O357 2.329 . S
Cd337 O359 2.350 . S
Cd337 O360 2.277 . S
Cd337 O362 2.173 . S
Cd337 O366 2.263 . S
Cd337 O377 2.366 . S
Cd338 O356 2.352 . S
Cd338 O363 2.250 . S
Cd338 O367 2.308 . S
C339 C343 1.403 . S
C339 C344 1.370 1_655 S
C339 N355 1.423 . S
C340 C341 1.389 . S
C340 C344 1.389 . S
C341 C340 1.389 . S
C341 C342 1.379 . S
C341 H393 0.929 . S
C342 C341 1.379 . S
C342 C343 1.405 1_455 S
C343 C339 1.403 . S
C343 C342 1.405 1_655 S
C343 H394 0.932 . S
C344 C339 1.370 1_455 S
C344 C340 1.389 . S
C344 H395 0.931 . S
Co345 N329 1.869 . S
Co345 N346 1.955 . S
Co345 N347 1.864 . S
Co345 N353 1.958 . S
Co345 N354 1.953 . S
Co345 N355 1.974 . S
N346 Co345 1.955 . S
N346 C364 1.329 . S
N346 C379 1.432 . S
N347 Co345 1.864 . S
N347 C348 1.327 . S
N347 C352 1.342 . S
C348 N347 1.327 . S
C348 C349 1.407 . S
C348 C364 1.481 . S
C349 C348 1.407 . S
C349 C350 1.364 . S
C349 H396 0.930 . S
C350 C349 1.364 . S
C350 C351 1.390 . S
C350 H397 0.931 . S
C351 C350 1.390 . S
C351 C352 1.346 . S
C351 H398 0.930 1_655 S
C352 N347 1.342 . S
C352 C351 1.346 . S
C352 C368 1.516 . S
N353 Co345 1.958 . S
N353 C368 1.324 . S
N353 C370 1.427 . S
N354 C330 1.316 . S
N354 C331 1.436 . S
N354 Co345 1.953 . S
N355 C339 1.423 . S
N355 Co345 1.974 . S
N355 C385 1.309 . S
O356 Cd338 2.352 . S
O356 C376 1.235 . S
O357 Cd337 2.329 . S
O357 C376 1.270 . S
C358 O359 1.270 . S
C358 O360 1.248 . S
O359 Cd337 2.350 . S
O359 C358 1.270 . S
O360 Cd337 2.277 . S
O360 C358 1.248 . S
C361 O362 1.277 . S
C361 O363 1.230 . S
O362 Cd337 2.173 . S
O362 C361 1.277 . S
O363 Cd338 2.250 . S
O363 C361 1.230 . S
C364 N346 1.329 . S
C364 C348 1.481 . S
C364 O365 1.246 . S
O365 C364 1.246 . S
O366 Cd337 2.263 . S
O366 C378 1.258 . S
O367 Cd338 2.308 . S
O367 C378 1.274 . S
C368 C352 1.516 . S
C368 N353 1.324 . S
C368 O369 1.238 . S
O369 C368 1.238 . S
C370 N353 1.427 . S
C370 C371 1.394 . S
C370 C375 1.395 . S
C371 C370 1.394 . S
C371 C372 1.380 . S
C371 H399 0.929 . S
C372 C371 1.380 . S
C372 C373 1.384 . S
C372 C378 1.495 . S
C373 C372 1.384 . S
C373 C374 1.382 . S
C373 H400 0.930 . S
C374 C373 1.382 . S
C374 C375 1.398 . S
C375 C370 1.395 . S
C375 C374 1.398 . S
C375 H401 0.930 1_655 S
C376 O356 1.235 . S
C376 O357 1.270 . S
O377 C330 1.263 . S
O377 Cd337 2.366 . S
C378 O366 1.258 . S
C378 O367 1.274 . S
C378 C372 1.495 . S
C379 N346 1.432 . S
C379 C380 1.381 . S
C379 C384 1.385 . S
C380 C379 1.381 . S
C380 C381 1.371 . S
C380 H402 0.932 . S
C381 C380 1.371 . S
C381 C382 1.400 . S
C382 C381 1.400 . S
C382 C383 1.351 . S
C382 H403 0.930 . S
C383 C382 1.351 . S
C383 C384 1.388 . S
C384 C379 1.385 . S
C384 C383 1.388 . S
C384 H404 0.929 . S
C385 C324 1.504 . S
C385 N355 1.309 . S
C385 O386 1.258 . S
O386 C385 1.258 . S
H387 C325 0.929 . S
H388 C326 0.932 . S
H389 C327 0.931 . S
H390 C332 0.929 . S
H391 C334 0.929 . S
H392 C336 0.931 . S
H393 C341 0.929 . S
H394 C343 0.932 . S
H395 C344 0.931 . S
H396 C349 0.930 . S
H397 C350 0.931 . S
H398 C351 0.930 1_455 S
H399 C371 0.929 . S
H400 C373 0.930 . S
H401 C375 0.930 1_455 S
H402 C380 0.932 . S
H403 C382 0.930 . S
H404 C384 0.929 . S
C405 C406 1.359 . S
C405 N410 1.330 . S
C405 C466 1.504 . S
C406 C405 1.359 . S
C406 C407 1.366 . S
C406 H468 0.929 . S
C407 C406 1.366 . S
C407 C408 1.415 . S
C407 H469 0.932 . S
C408 C407 1.415 . S
C408 C409 1.366 . S
C408 H470 0.931 . S
C409 C408 1.366 . S
C409 N410 1.325 . S
C409 C411 1.516 . S
N410 C405 1.330 . S
N410 C409 1.325 . S
N410 Co426 1.869 . S
C411 C409 1.516 . S
C411 N435 1.316 . S
C411 O458 1.263 . S
C412 C413 1.421 . S
C412 C417 1.360 . S
C412 N435 1.436 . S
C413 C412 1.421 . S
C413 C414 1.379 . S
C413 H471 0.929 . S
C414 C413 1.379 . S
C414 C415 1.417 . S
C415 C414 1.417 . S
C415 C416 1.352 . S
C415 H472 0.929 . S
C416 C415 1.352 . S
C416 C417 1.393 . S
C417 C412 1.360 . S
C417 C416 1.393 . S
C417 H473 0.931 . S
Cd418 O438 2.329 . S
Cd418 O440 2.350 . S
Cd418 O441 2.277 . S
Cd418 O443 2.173 . S
Cd418 O447 2.263 . S
Cd418 O458 2.366 . S
Cd419 O437 2.352 . S
Cd419 O444 2.250 . S
Cd419 O448 2.308 . S
C420 C424 1.403 . S
C420 C425 1.370 . S
C420 N436 1.423 . S
C421 C422 1.389 . S
C421 C425 1.389 . S
C422 C421 1.389 . S
C422 C423 1.379 . S
C422 H474 0.929 . S
C423 C422 1.379 . S
C423 C424 1.405 . S
C424 C420 1.403 . S
C424 C423 1.405 . S
C424 H475 0.932 . S
C425 C420 1.370 . S
C425 C421 1.389 . S
C425 H476 0.931 . S
Co426 N410 1.869 . S
Co426 N427 1.955 . S
Co426 N428 1.864 . S
Co426 N434 1.958 . S
Co426 N435 1.953 . S
Co426 N436 1.974 . S
N427 Co426 1.955 . S
N427 C445 1.329 . S
N427 C460 1.432 . S
N428 Co426 1.864 . S
N428 C429 1.327 . S
N428 C433 1.342 . S
C429 N428 1.327 . S
C429 C430 1.407 . S
C429 C445 1.481 . S
C430 C429 1.407 . S
C430 C431 1.364 . S
C430 H477 0.930 . S
C431 C430 1.364 . S
C431 C432 1.390 . S
C431 H478 0.931 . S
C432 C431 1.390 . S
C432 C433 1.346 . S
C432 H479 0.930 . S
C433 N428 1.342 . S
C433 C432 1.346 . S
C433 C449 1.516 . S
N434 Co426 1.958 . S
N434 C449 1.324 . S
N434 C451 1.427 . S
N435 C411 1.316 . S
N435 C412 1.436 . S
N435 Co426 1.953 . S
N436 C420 1.423 . S
N436 Co426 1.974 . S
N436 C466 1.309 . S
O437 Cd419 2.352 . S
O437 C457 1.235 . S
O438 Cd418 2.329 . S
O438 C457 1.270 . S
C439 O440 1.270 . S
C439 O441 1.248 . S
O440 Cd418 2.350 . S
O440 C439 1.270 . S
O441 Cd418 2.277 . S
O441 C439 1.248 . S
C442 O443 1.277 . S
C442 O444 1.230 . S
O443 Cd418 2.173 . S
O443 C442 1.277 . S
O444 Cd419 2.250 . S
O444 C442 1.230 . S
C445 N427 1.329 . S
C445 C429 1.481 . S
C445 O446 1.246 . S
O446 C445 1.246 . S
O447 Cd418 2.263 . S
O447 C459 1.258 . S
O448 Cd419 2.308 . S
O448 C459 1.274 . S
C449 C433 1.516 . S
C449 N434 1.324 . S
C449 O450 1.238 . S
O450 C449 1.238 . S
C451 N434 1.427 . S
C451 C452 1.394 . S
C451 C456 1.395 . S
C452 C451 1.394 . S
C452 C453 1.380 . S
C452 H480 0.929 . S
C453 C452 1.380 . S
C453 C454 1.384 . S
C453 C459 1.495 . S
C454 C453 1.384 . S
C454 C455 1.382 . S
C454 H481 0.930 . S
C455 C454 1.382 . S
C455 C456 1.398 . S
C456 C451 1.395 . S
C456 C455 1.398 . S
C456 H482 0.930 . S
C457 O437 1.235 . S
C457 O438 1.270 . S
O458 C411 1.263 . S
O458 Cd418 2.366 . S
C459 O447 1.258 . S
C459 O448 1.274 . S
C459 C453 1.495 . S
C460 N427 1.432 . S
C460 C461 1.381 . S
C460 C465 1.385 . S
C461 C460 1.381 . S
C461 C462 1.371 . S
C461 H483 0.932 . S
C462 C461 1.371 . S
C462 C463 1.400 . S
C463 C462 1.400 . S
C463 C464 1.351 . S
C463 H484 0.930 . S
C464 C463 1.351 . S
C464 C465 1.388 . S
C465 C460 1.385 . S
C465 C464 1.388 . S
C465 H485 0.929 . S
C466 C405 1.504 . S
C466 N436 1.309 . S
C466 O467 1.258 . S
O467 C466 1.258 . S
H468 C406 0.929 . S
H469 C407 0.932 . S
H470 C408 0.931 . S
H471 C413 0.929 . S
H472 C415 0.929 . S
H473 C417 0.931 . S
H474 C422 0.929 . S
H475 C424 0.932 . S
H476 C425 0.931 . S
H477 C430 0.930 . S
H478 C431 0.931 . S
H479 C432 0.930 . S
H480 C452 0.929 . S
H481 C454 0.930 . S
H482 C456 0.930 . S
H483 C461 0.932 . S
H484 C463 0.930 . S
H485 C465 0.929 . S
C486 C487 1.391 . S
C486 C488 1.394 . S
C486 H502 0.931 . S
C487 C486 1.391 . S
C487 C491 1.376 . S
C488 C486 1.394 . S
C488 C489 1.369 . S
C488 C492 1.531 . S
C489 C488 1.369 . S
C489 C490 1.410 . S
C489 C497 1.503 . S
C490 C489 1.410 . S
C490 C491 1.392 . S
C490 C493 1.511 . S
C491 C487 1.376 . S
C491 C490 1.392 . S
C491 H503 0.929 . S
C492 C488 1.531 . S
C492 H504 0.960 . S
C492 H505 0.962 . S
C492 H506 0.960 . S
C493 C490 1.511 . S
C493 H507 0.961 . S
C493 H508 0.961 . S
C493 H509 0.961 . S
C494 C495 1.370 1_556 S
C494 C496 1.363 1_556 S
C494 H510 0.931 . S
C495 C494 1.370 1_554 S
C495 C499 1.408 . S
C496 C494 1.363 1_554 S
C496 C497 1.370 . S
C496 C500 1.532 . S
C497 C489 1.503 . S
C497 C496 1.370 . S
C497 C498 1.403 . S
C498 C497 1.403 . S
C498 C499 1.404 . S
C498 C501 1.539 . S
C499 C495 1.408 . S
C499 C498 1.404 . S
C499 H511 0.930 . S
C500 C496 1.532 . S
C500 H512 0.971 . S
C500 H513 0.957 1_554 S
C500 H514 0.942 1_554 S
C501 C498 1.539 . S
C501 H515 0.958 . S
C501 H516 0.961 . S
C501 H517 0.960 . S
H502 C486 0.931 . S
H503 C491 0.929 . S
H504 C492 0.960 . S
H505 C492 0.962 . S
H506 C492 0.960 . S
H507 C493 0.961 . S
H508 C493 0.961 . S
H509 C493 0.961 . S
H510 C494 0.931 . S
H511 C499 0.930 . S
H512 C500 0.971 . S
H513 C500 0.957 1_556 S
H514 C500 0.942 1_556 S
H515 C501 0.958 . S
H516 C501 0.961 . S
H517 C501 0.960 . S
C518 C519 1.391 . S
C518 C520 1.394 . S
C518 H534 0.931 . S
C519 C518 1.391 . S
C519 C523 1.376 . S
C520 C518 1.394 . S
C520 C521 1.369 . S
C520 C524 1.531 . S
C521 C520 1.369 . S
C521 C522 1.410 . S
C521 C529 1.503 . S
C522 C521 1.410 . S
C522 C523 1.392 . S
C522 C525 1.511 . S
C523 C519 1.376 . S
C523 C522 1.392 . S
C523 H535 0.929 . S
C524 C520 1.531 . S
C524 H536 0.960 . S
C524 H537 0.962 . S
C524 H538 0.960 . S
C525 C522 1.511 . S
C525 H539 0.961 . S
C525 H540 0.961 . S
C525 H541 0.961 . S
C526 C527 1.370 . S
C526 C528 1.363 . S
C526 H542 0.931 . S
C527 C526 1.370 . S
C527 C531 1.408 . S
C528 C526 1.363 . S
C528 C529 1.370 . S
C528 C532 1.524 . S
C529 C521 1.503 . S
C529 C528 1.370 . S
C529 C530 1.403 . S
C530 C529 1.403 . S
C530 C531 1.404 . S
C530 C533 1.539 . S
C531 C527 1.408 . S
C531 C530 1.404 . S
C531 H543 0.930 . S
C532 C528 1.524 . S
C532 H544 0.956 . S
C532 H545 0.961 . S
C532 H546 0.961 . S
C533 C530 1.539 . S
C533 H547 0.958 . S
C533 H548 0.961 . S
C533 H549 0.960 . S
H534 C518 0.931 . S
H535 C523 0.929 . S
H536 C524 0.960 . S
H537 C524 0.962 . S
H538 C524 0.960 . S
H539 C525 0.961 . S
H540 C525 0.961 . S
H541 C525 0.961 . S
H542 C526 0.931 . S
H543 C531 0.930 . S
H544 C532 0.956 . S
H545 C532 0.961 . S
H546 C532 0.961 . S
H547 C533 0.958 . S
H548 C533 0.961 . S
H549 C533 0.960 . S
C550 C551 1.391 . S
C550 C552 1.394 . S
C550 H566 0.931 . S
C551 C550 1.391 . S
C551 C555 1.376 . S
C552 C550 1.394 . S
C552 C553 1.369 . S
C552 C556 1.531 . S
C553 C552 1.369 . S
C553 C554 1.410 . S
C553 C561 1.503 . S
C554 C553 1.410 . S
C554 C555 1.392 . S
C554 C557 1.511 . S
C555 C551 1.376 . S
C555 C554 1.392 . S
C555 H567 0.929 . S
C556 C552 1.531 . S
C556 H568 0.960 . S
C556 H569 0.962 . S
C556 H570 0.960 . S
C557 C554 1.511 . S
C557 H571 0.961 . S
C557 H572 0.961 . S
C557 H573 0.961 . S
C558 C559 1.370 . S
C558 C560 1.363 . S
C558 H574 0.931 . S
C559 C558 1.370 . S
C559 C563 1.408 . S
C560 C558 1.363 . S
C560 C561 1.370 . S
C560 C564 1.524 . S
C561 C553 1.503 . S
C561 C560 1.370 . S
C561 C562 1.403 . S
C562 C561 1.403 . S
C562 C563 1.404 . S
C562 C565 1.539 . S
C563 C559 1.408 . S
C563 C562 1.404 . S
C563 H575 0.930 . S
C564 C560 1.524 . S
C564 H576 0.956 . S
C564 H577 0.961 . S
C564 H578 0.961 . S
C565 C562 1.539 . S
C565 H579 0.958 . S
C565 H580 0.961 . S
C565 H581 0.960 . S
H566 C550 0.931 . S
H567 C555 0.929 . S
H568 C556 0.960 . S
H569 C556 0.962 . S
H570 C556 0.960 . S
H571 C557 0.961 . S
H572 C557 0.961 . S
H573 C557 0.961 . S
H574 C558 0.931 . S
H575 C563 0.930 . S
H576 C564 0.956 . S
H577 C564 0.961 . S
H578 C564 0.961 . S
H579 C565 0.958 . S
H580 C565 0.961 . S
H581 C565 0.960 . S
C582 C583 1.391 . S
C582 C584 1.394 . S
C582 H598 0.931 . S
C583 C582 1.391 . S
C583 C587 1.376 . S
C584 C582 1.394 . S
C584 C585 1.369 . S
C584 C588 1.531 . S
C585 C584 1.369 . S
C585 C586 1.410 . S
C585 C593 1.503 . S
C586 C585 1.410 . S
C586 C587 1.392 . S
C586 C589 1.511 . S
C587 C583 1.376 . S
C587 C586 1.392 . S
C587 H599 0.929 . S
C588 C584 1.531 . S
C588 H600 0.960 . S
C588 H601 0.962 . S
C588 H602 0.960 . S
C589 C586 1.511 . S
C589 H603 0.961 . S
C589 H604 0.961 . S
C589 H605 0.961 . S
C590 C591 1.370 1_554 S
C590 C592 1.363 1_554 S
C590 H606 0.931 . S
C591 C590 1.370 1_556 S
C591 C595 1.408 . S
C592 C590 1.363 1_556 S
C592 C593 1.370 . S
C592 C596 1.524 1_556 S
C593 C585 1.503 . S
C593 C592 1.370 . S
C593 C594 1.403 . S
C594 C593 1.403 . S
C594 C595 1.404 . S
C594 C597 1.539 . S
C595 C591 1.408 . S
C595 C594 1.404 . S
C595 H607 0.930 . S
C596 C592 1.524 1_554 S
C596 H608 0.956 1_554 S
C596 H609 0.961 . S
C596 H610 0.961 . S
C597 C594 1.539 . S
C597 H611 0.958 . S
C597 H612 0.961 . S
C597 H613 0.960 . S
H598 C582 0.931 . S
H599 C587 0.929 . S
H600 C588 0.960 . S
H601 C588 0.962 . S
H602 C588 0.960 . S
H603 C589 0.961 . S
H604 C589 0.961 . S
H605 C589 0.961 . S
H606 C590 0.931 . S
H607 C595 0.930 . S
H608 C596 0.956 1_556 S
H609 C596 0.961 . S
H610 C596 0.961 . S
H611 C597 0.958 . S
H612 C597 0.961 . S
H613 C597 0.960 . S
C614 C615 1.391 . S
C614 C616 1.394 . S
C614 H630 0.931 . S
C615 C614 1.391 . S
C615 C619 1.376 . S
C616 C614 1.394 . S
C616 C617 1.369 . S
C616 C620 1.531 . S
C617 C616 1.369 . S
C617 C618 1.410 . S
C617 C625 1.503 . S
C618 C617 1.410 . S
C618 C619 1.392 . S
C618 C621 1.511 . S
C619 C615 1.376 . S
C619 C618 1.392 . S
C619 H631 0.929 . S
C620 C616 1.531 . S
C620 H632 0.960 . S
C620 H633 0.962 . S
C620 H634 0.960 . S
C621 C618 1.511 . S
C621 H635 0.961 . S
C621 H636 0.961 . S
C621 H637 0.961 . S
C622 C623 1.370 . S
C622 C624 1.363 . S
C622 H638 0.931 . S
C623 C622 1.370 . S
C623 C627 1.408 . S
C624 C622 1.363 . S
C624 C625 1.370 . S
C624 C628 1.524 . S
C625 C617 1.503 . S
C625 C624 1.370 . S
C625 C626 1.403 . S
C626 C625 1.403 . S
C626 C627 1.404 . S
C626 C629 1.539 . S
C627 C623 1.408 . S
C627 C626 1.404 . S
C627 H639 0.930 . S
C628 C624 1.524 . S
C628 H640 0.956 . S
C628 H641 0.961 . S
C628 H642 0.961 . S
C629 C626 1.539 . S
C629 H643 0.958 . S
C629 H644 0.961 . S
C629 H645 0.960 . S
H630 C614 0.931 . S
H631 C619 0.929 . S
H632 C620 0.960 . S
H633 C620 0.962 . S
H634 C620 0.960 . S
H635 C621 0.961 . S
H636 C621 0.961 . S
H637 C621 0.961 . S
H638 C622 0.931 . S
H639 C627 0.930 . S
H640 C628 0.956 . S
H641 C628 0.961 . S
H642 C628 0.961 . S
H643 C629 0.958 . S
H644 C629 0.961 . S
H645 C629 0.960 . S
C646 C647 1.391 . S
C646 C648 1.394 . S
C646 H662 0.931 . S
C647 C646 1.391 . S
C647 C651 1.376 . S
C648 C646 1.394 . S
C648 C649 1.369 . S
C648 C652 1.531 . S
C649 C648 1.369 . S
C649 C650 1.410 . S
C649 C657 1.503 . S
C650 C649 1.410 . S
C650 C651 1.392 . S
C650 C653 1.511 . S
C651 C647 1.376 . S
C651 C650 1.392 . S
C651 H663 0.929 . S
C652 C648 1.531 . S
C652 H664 0.960 . S
C652 H665 0.962 . S
C652 H666 0.960 . S
C653 C650 1.511 . S
C653 H667 0.961 . S
C653 H668 0.961 . S
C653 H669 0.961 . S
C654 C655 1.370 . S
C654 C656 1.363 . S
C654 H670 0.931 . S
C655 C654 1.370 . S
C655 C659 1.408 . S
C656 C654 1.363 . S
C656 C657 1.370 . S
C656 C660 1.524 . S
C657 C649 1.503 . S
C657 C656 1.370 . S
C657 C658 1.403 . S
C658 C657 1.403 . S
C658 C659 1.404 . S
C658 C661 1.539 . S
C659 C655 1.408 . S
C659 C658 1.404 . S
C659 H671 0.930 . S
C660 C656 1.524 . S
C660 H672 0.956 . S
C660 H673 0.961 . S
C660 H674 0.961 . S
C661 C658 1.539 . S
C661 H675 0.958 . S
C661 H676 0.961 . S
C661 H677 0.960 . S
H662 C646 0.931 . S
H663 C651 0.929 . S
H664 C652 0.960 . S
H665 C652 0.962 . S
H666 C652 0.960 . S
H667 C653 0.961 . S
H668 C653 0.961 . S
H669 C653 0.961 . S
H670 C654 0.931 . S
H671 C659 0.930 . S
H672 C660 0.956 . S
H673 C660 0.961 . S
H674 C660 0.961 . S
H675 C661 0.958 . S
H676 C661 0.961 . S
H677 C661 0.960 . S
C678 C679 1.391 . S
C678 C680 1.394 . S
C678 H694 0.931 . S
C679 C678 1.391 . S
C679 C683 1.376 . S
C680 C678 1.394 . S
C680 C681 1.369 . S
C680 C684 1.531 . S
C681 C680 1.369 . S
C681 C682 1.410 . S
C681 C689 1.503 . S
C682 C681 1.410 . S
C682 C683 1.392 . S
C682 C685 1.511 . S
C683 C679 1.376 . S
C683 C682 1.392 . S
C683 H695 0.929 . S
C684 C680 1.531 . S
C684 H696 0.960 . S
C684 H697 0.962 . S
C684 H698 0.960 . S
C685 C682 1.511 . S
C685 H699 0.961 . S
C685 H700 0.961 . S
C685 H701 0.961 . S
C686 C687 1.370 . S
C686 C688 1.363 . S
C686 H702 0.931 . S
C687 C686 1.370 . S
C687 C691 1.408 . S
C688 C686 1.363 . S
C688 C689 1.370 . S
C688 C692 1.524 . S
C689 C681 1.503 . S
C689 C688 1.370 . S
C689 C690 1.403 . S
C690 C689 1.403 . S
C690 C691 1.404 . S
C690 C693 1.539 . S
C691 C687 1.408 . S
C691 C690 1.404 . S
C691 H703 0.930 . S
C692 C688 1.524 . S
C692 H704 0.956 . S
C692 H705 0.961 . S
C692 H706 0.961 . S
C693 C690 1.539 . S
C693 H707 0.958 . S
C693 H708 0.961 . S
C693 H709 0.960 . S
H694 C678 0.931 . S
H695 C683 0.929 . S
H696 C684 0.960 . S
H697 C684 0.962 . S
H698 C684 0.960 . S
H699 C685 0.961 . S
H700 C685 0.961 . S
H701 C685 0.961 . S
H702 C686 0.931 . S
H703 C691 0.930 . S
H704 C692 0.956 . S
H705 C692 0.961 . S
H706 C692 0.961 . S
H707 C693 0.958 . S
H708 C693 0.961 . S
H709 C693 0.960 . S
C710 C711 1.391 . S
C710 C712 1.394 . S
C710 H726 0.931 . S
C711 C710 1.391 . S
C711 C715 1.376 . S
C712 C710 1.394 . S
C712 C713 1.369 . S
C712 C716 1.531 . S
C713 C712 1.369 . S
C713 C714 1.410 . S
C713 C721 1.503 . S
C714 C713 1.410 . S
C714 C715 1.392 . S
C714 C717 1.511 . S
C715 C711 1.376 . S
C715 C714 1.392 . S
C715 H727 0.929 . S
C716 C712 1.531 . S
C716 H728 0.960 . S
C716 H729 0.962 . S
C716 H730 0.960 . S
C717 C714 1.511 . S
C717 H731 0.961 . S
C717 H732 0.961 . S
C717 H733 0.961 . S
C718 C719 1.370 . S
C718 C720 1.363 . S
C718 H734 0.931 . S
C719 C718 1.370 . S
C719 C723 1.408 . S
C720 C718 1.363 . S
C720 C721 1.370 . S
C720 C724 1.524 . S
C721 C713 1.503 . S
C721 C720 1.370 . S
C721 C722 1.403 . S
C722 C721 1.403 . S
C722 C723 1.404 . S
C722 C725 1.539 . S
C723 C719 1.408 . S
C723 C722 1.404 . S
C723 H735 0.930 . S
C724 C720 1.524 . S
C724 H736 0.956 . S
C724 H737 0.961 . S
C724 H738 0.961 . S
C725 C722 1.539 . S
C725 H739 0.958 . S
C725 H740 0.961 . S
C725 H741 0.960 . S
H726 C710 0.931 . S
H727 C715 0.929 . S
H728 C716 0.960 . S
H729 C716 0.962 . S
H730 C716 0.960 . S
H731 C717 0.961 . S
H732 C717 0.961 . S
H733 C717 0.961 . S
H734 C718 0.931 . S
H735 C723 0.930 . S
H736 C724 0.956 . S
H737 C724 0.961 . S
H738 C724 0.961 . S
H739 C725 0.958 . S
H740 C725 0.961 . S
H741 C725 0.960 . S
C742 C743 1.391 . S
C742 C744 1.394 . S
C742 H758 0.931 . S
C743 C742 1.391 . S
C743 C747 1.376 . S
C744 C742 1.394 . S
C744 C745 1.369 . S
C744 C748 1.531 . S
C745 C744 1.369 . S
C745 C746 1.410 . S
C745 C753 1.503 . S
C746 C745 1.410 . S
C746 C747 1.392 . S
C746 C749 1.511 . S
C747 C743 1.376 . S
C747 C746 1.392 . S
C747 H759 0.929 . S
C748 C744 1.531 . S
C748 H760 0.960 . S
C748 H761 0.962 . S
C748 H762 0.960 . S
C749 C746 1.511 . S
C749 H763 0.961 . S
C749 H764 0.961 . S
C749 H765 0.961 . S
C750 C751 1.370 . S
C750 C752 1.363 . S
C750 H766 0.931 . S
C751 C750 1.370 . S
C751 C755 1.408 . S
C752 C750 1.363 . S
C752 C753 1.370 . S
C752 C756 1.524 . S
C753 C745 1.503 . S
C753 C752 1.370 . S
C753 C754 1.403 . S
C754 C753 1.403 . S
C754 C755 1.404 . S
C754 C757 1.539 . S
C755 C751 1.408 . S
C755 C754 1.404 . S
C755 H767 0.930 . S
C756 C752 1.524 . S
C756 H768 0.956 . S
C756 H769 0.961 . S
C756 H770 0.961 . S
C757 C754 1.539 . S
C757 H771 0.958 . S
C757 H772 0.961 . S
C757 H773 0.960 . S
H758 C742 0.931 . S
H759 C747 0.929 . S
H760 C748 0.960 . S
H761 C748 0.962 . S
H762 C748 0.960 . S
H763 C749 0.961 . S
H764 C749 0.961 . S
H765 C749 0.961 . S
H766 C750 0.931 . S
H767 C755 0.930 . S
H768 C756 0.956 . S
H769 C756 0.961 . S
H770 C756 0.961 . S
H771 C757 0.958 . S
H772 C757 0.961 . S
H773 C757 0.960 . S
C774 C775 1.391 . S
C774 C776 1.394 . S
C774 H790 0.931 . S
C775 C774 1.391 . S
C775 C779 1.376 . S
C776 C774 1.394 . S
C776 C777 1.369 . S
C776 C780 1.531 . S
C777 C776 1.369 . S
C777 C778 1.410 . S
C777 C785 1.503 . S
C778 C777 1.410 . S
C778 C779 1.392 . S
C778 C781 1.511 . S
C779 C775 1.376 . S
C779 C778 1.392 . S
C779 H791 0.929 . S
C780 C776 1.531 . S
C780 H792 0.960 . S
C780 H793 0.962 . S
C780 H794 0.960 . S
C781 C778 1.511 . S
C781 H795 0.961 . S
C781 H796 0.961 . S
C781 H797 0.961 . S
C782 C783 1.370 . S
C782 C784 1.363 . S
C782 H798 0.931 . S
C783 C782 1.370 . S
C783 C787 1.408 . S
C784 C782 1.363 . S
C784 C785 1.370 . S
C784 C788 1.524 . S
C785 C777 1.503 . S
C785 C784 1.370 . S
C785 C786 1.403 . S
C786 C785 1.403 . S
C786 C787 1.404 . S
C786 C789 1.539 . S
C787 C783 1.408 . S
C787 C786 1.404 . S
C787 H799 0.930 . S
C788 C784 1.524 . S
C788 H800 0.956 . S
C788 H801 0.961 . S
C788 H802 0.961 . S
C789 C786 1.539 . S
C789 H803 0.958 . S
C789 H804 0.961 . S
C789 H805 0.960 . S
H790 C774 0.931 . S
H791 C779 0.929 . S
H792 C780 0.960 . S
H793 C780 0.962 . S
H794 C780 0.960 . S
H795 C781 0.961 . S
H796 C781 0.961 . S
H797 C781 0.961 . S
H798 C782 0.931 . S
H799 C787 0.930 . S
H800 C788 0.956 . S
H801 C788 0.961 . S
H802 C788 0.961 . S
H803 C789 0.958 . S
H804 C789 0.961 . S
H805 C789 0.960 . S
C806 C807 1.391 . S
C806 C808 1.394 . S
C806 H822 0.931 . S
C807 C806 1.391 . S
C807 C811 1.376 . S
C808 C806 1.394 . S
C808 C809 1.369 . S
C808 C812 1.531 . S
C809 C808 1.369 . S
C809 C810 1.410 . S
C809 C817 1.503 . S
C810 C809 1.410 . S
C810 C811 1.392 . S
C810 C813 1.511 . S
C811 C807 1.376 . S
C811 C810 1.392 . S
C811 H823 0.929 . S
C812 C808 1.531 . S
C812 H824 0.960 . S
C812 H825 0.962 . S
C812 H826 0.960 . S
C813 C810 1.511 . S
C813 H827 0.961 . S
C813 H828 0.961 . S
C813 H829 0.961 . S
C814 C815 1.370 . S
C814 C816 1.363 . S
C814 H830 0.931 . S
C815 C814 1.370 . S
C815 C819 1.408 . S
C816 C814 1.363 . S
C816 C817 1.370 . S
C816 C820 1.524 . S
C817 C809 1.503 . S
C817 C816 1.370 . S
C817 C818 1.403 . S
C818 C817 1.403 . S
C818 C819 1.404 . S
C818 C821 1.539 . S
C819 C815 1.408 . S
C819 C818 1.404 . S
C819 H831 0.930 . S
C820 C816 1.524 . S
C820 H832 0.956 . S
C820 H833 0.961 . S
C820 H834 0.961 . S
C821 C818 1.539 . S
C821 H835 0.958 . S
C821 H836 0.961 . S
C821 H837 0.960 . S
H822 C806 0.931 . S
H823 C811 0.929 . S
H824 C812 0.960 . S
H825 C812 0.962 . S
H826 C812 0.960 . S
H827 C813 0.961 . S
H828 C813 0.961 . S
H829 C813 0.961 . S
H830 C814 0.931 . S
H831 C819 0.930 . S
H832 C820 0.956 . S
H833 C820 0.961 . S
H834 C820 0.961 . S
H835 C821 0.958 . S
H836 C821 0.961 . S
H837 C821 0.960 . S
C838 C839 1.391 . S
C838 C840 1.394 . S
C838 H854 0.931 . S
C839 C838 1.391 . S
C839 C843 1.376 . S
C840 C838 1.394 . S
C840 C841 1.369 . S
C840 C844 1.531 . S
C841 C840 1.369 . S
C841 C842 1.410 . S
C841 C849 1.503 . S
C842 C841 1.410 . S
C842 C843 1.392 . S
C842 C845 1.511 . S
C843 C839 1.376 . S
C843 C842 1.392 . S
C843 H855 0.929 . S
C844 C840 1.531 . S
C844 H856 0.960 . S
C844 H857 0.962 . S
C844 H858 0.960 . S
C845 C842 1.511 . S
C845 H859 0.961 . S
C845 H860 0.961 . S
C845 H861 0.961 . S
C846 C847 1.370 . S
C846 C848 1.363 . S
C846 H862 0.931 . S
C847 C846 1.370 . S
C847 C851 1.408 . S
C848 C846 1.363 . S
C848 C849 1.370 . S
C848 C852 1.524 . S
C849 C841 1.503 . S
C849 C848 1.370 . S
C849 C850 1.403 . S
C850 C849 1.403 . S
C850 C851 1.404 . S
C850 C853 1.539 . S
C851 C847 1.408 . S
C851 C850 1.404 . S
C851 H863 0.930 . S
C852 C848 1.524 . S
C852 H864 0.956 . S
C852 H865 0.961 . S
C852 H866 0.961 . S
C853 C850 1.539 . S
C853 H867 0.958 . S
C853 H868 0.961 . S
C853 H869 0.960 . S
H854 C838 0.931 . S
H855 C843 0.929 . S
H856 C844 0.960 . S
H857 C844 0.962 . S
H858 C844 0.960 . S
H859 C845 0.961 . S
H860 C845 0.961 . S
H861 C845 0.961 . S
H862 C846 0.931 . S
H863 C851 0.930 . S
H864 C852 0.956 . S
H865 C852 0.961 . S
H866 C852 0.961 . S
H867 C853 0.958 . S
H868 C853 0.961 . S
H869 C853 0.960 . S
C870 C871 1.391 . S
C870 C872 1.394 . S
C870 H886 0.931 . S
C871 C870 1.391 . S
C871 C875 1.376 1_455 S
C872 C870 1.394 . S
C872 C873 1.369 . S
C872 C876 1.531 . S
C873 C872 1.369 . S
C873 C874 1.410 1_455 S
C873 C881 1.503 1_455 S
C874 C873 1.410 1_655 S
C874 C875 1.392 . S
C874 C877 1.511 . S
C875 C871 1.376 1_655 S
C875 C874 1.392 . S
C875 H887 0.929 . S
C876 C872 1.531 . S
C876 H888 0.960 . S
C876 H889 0.962 . S
C876 H890 0.960 . S
C877 C874 1.511 . S
C877 H891 0.961 . S
C877 H892 0.961 . S
C877 H893 0.961 . S
C878 C879 1.370 . S
C878 C880 1.363 1_655 S
C878 H894 0.912 1_655 S
C879 C878 1.370 . S
C879 C883 1.408 . S
C880 C878 1.363 1_455 S
C880 C881 1.370 1_455 S
C880 C884 1.524 . S
C881 C873 1.503 1_655 S
C881 C880 1.370 1_655 S
C881 C882 1.403 . S
C882 C881 1.403 . S
C882 C883 1.404 . S
C882 C885 1.539 . S
C883 C879 1.408 . S
C883 C882 1.404 . S
C883 H895 0.930 . S
C884 C880 1.524 . S
C884 H896 0.956 . S
C884 H897 0.961 1_455 S
C884 H898 0.961 . S
C885 C882 1.539 . S
C885 H899 0.958 . S
C885 H900 0.961 . S
C885 H901 0.960 . S
H886 C870 0.931 . S
H887 C875 0.929 . S
H888 C876 0.960 . S
H889 C876 0.962 . S
H890 C876 0.960 . S
H891 C877 0.961 . S
H892 C877 0.961 . S
H893 C877 0.961 . S
H894 C878 0.912 1_455 S
H895 C883 0.930 . S
H896 C884 0.956 . S
H897 C884 0.961 1_655 S
H898 C884 0.961 . S
H899 C885 0.958 . S
H900 C885 0.961 . S
H901 C885 0.960 . S
C902 C903 1.391 . S
C902 C904 1.394 . S
C902 H918 0.931 . S
C903 C902 1.391 . S
C903 C907 1.376 . S
C904 C902 1.394 . S
C904 C905 1.369 . S
C904 C908 1.531 . S
C905 C904 1.369 . S
C905 C906 1.410 . S
C905 C913 1.503 . S
C906 C905 1.410 . S
C906 C907 1.392 . S
C906 C909 1.511 . S
C907 C903 1.376 . S
C907 C906 1.392 . S
C907 H919 0.929 . S
C908 C904 1.531 . S
C908 H920 0.960 . S
C908 H921 0.962 . S
C908 H922 0.960 . S
C909 C906 1.511 . S
C909 H923 0.961 . S
C909 H924 0.961 . S
C909 H925 0.961 . S
C910 C911 1.370 . S
C910 C912 1.363 . S
C910 H926 0.931 . S
C911 C910 1.370 . S
C911 C915 1.408 . S
C912 C910 1.363 . S
C912 C913 1.370 . S
C912 C916 1.524 . S
C913 C905 1.503 . S
C913 C912 1.370 . S
C913 C914 1.403 . S
C914 C913 1.403 . S
C914 C915 1.404 . S
C914 C917 1.539 . S
C915 C911 1.408 . S
C915 C914 1.404 . S
C915 H927 0.930 . S
C916 C912 1.524 . S
C916 H928 0.956 . S
C916 H929 0.961 . S
C916 H930 0.961 . S
C917 C914 1.539 . S
C917 H931 0.958 . S
C917 H932 0.961 . S
C917 H933 0.960 . S
H918 C902 0.931 . S
H919 C907 0.929 . S
H920 C908 0.960 . S
H921 C908 0.962 . S
H922 C908 0.960 . S
H923 C909 0.961 . S
H924 C909 0.961 . S
H925 C909 0.961 . S
H926 C910 0.931 . S
H927 C915 0.930 . S
H928 C916 0.956 . S
H929 C916 0.961 . S
H930 C916 0.961 . S
H931 C917 0.958 . S
H932 C917 0.961 . S
H933 C917 0.960 . S
C934 C935 1.391 . S
C934 C936 1.394 . S
C934 H950 0.931 . S
C935 C934 1.391 . S
C935 C939 1.376 1_545 S
C936 C934 1.394 . S
C936 C937 1.369 . S
C936 C940 1.531 . S
C937 C936 1.369 . S
C937 C938 1.410 1_545 S
C937 C945 1.502 1_545 S
C938 C937 1.410 1_565 S
C938 C939 1.392 . S
C938 C941 1.511 . S
C939 C935 1.376 1_565 S
C939 C938 1.392 . S
C939 H951 0.929 . S
C940 C936 1.531 . S
C940 H952 0.960 . S
C940 H953 0.962 . S
C940 H954 0.960 . S
C941 C938 1.511 . S
C941 H955 0.961 . S
C941 H956 0.961 . S
C941 H957 0.961 . S
C942 C943 1.370 . S
C942 C944 1.363 . S
C942 H958 0.931 . S
C943 C942 1.370 . S
C943 C947 1.408 1_565 S
C944 C942 1.363 . S
C944 C945 1.370 . S
C944 C948 1.524 . S
C945 C937 1.502 1_565 S
C945 C944 1.370 . S
C945 C946 1.404 1_565 S
C946 C945 1.404 1_545 S
C946 C947 1.404 . S
C946 C949 1.539 . S
C947 C943 1.408 1_545 S
C947 C946 1.404 . S
C947 H959 0.930 . S
C948 C944 1.524 . S
C948 H960 0.956 . S
C948 H961 0.961 . S
C948 H962 0.961 . S
C949 C946 1.539 . S
C949 H963 0.958 . S
C949 H964 0.961 . S
C949 H965 0.960 . S
H950 C934 0.931 . S
H951 C939 0.929 . S
H952 C940 0.960 . S
H953 C940 0.962 . S
H954 C940 0.960 . S
H955 C941 0.961 . S
H956 C941 0.961 . S
H957 C941 0.961 . S
H958 C942 0.931 . S
H959 C947 0.930 . S
H960 C948 0.956 . S
H961 C948 0.961 . S
H962 C948 0.961 . S
H963 C949 0.958 . S
H964 C949 0.961 . S
H965 C949 0.960 . S
C966 C967 1.391 . S
C966 C968 1.394 . S
C966 H982 0.931 . S
C967 C966 1.391 . S
C967 C971 1.376 . S
C968 C966 1.394 . S
C968 C969 1.369 . S
C968 C972 1.531 . S
C969 C968 1.369 . S
C969 C970 1.410 . S
C969 C977 1.503 . S
C970 C969 1.410 . S
C970 C971 1.392 . S
C970 C973 1.511 . S
C971 C967 1.376 . S
C971 C970 1.392 . S
C971 H983 0.929 . S
C972 C968 1.531 . S
C972 H984 0.960 . S
C972 H985 0.962 . S
C972 H986 0.960 . S
C973 C970 1.511 . S
C973 H987 0.961 . S
C973 H988 0.961 . S
C973 H989 0.961 . S
C974 C975 1.370 . S
C974 C976 1.363 . S
C974 H990 0.931 . S
C975 C974 1.370 . S
C975 C979 1.408 . S
C976 C974 1.363 . S
C976 C977 1.370 . S
C976 C980 1.524 . S
C977 C969 1.503 . S
C977 C976 1.370 . S
C977 C978 1.403 . S
C978 C977 1.403 . S
C978 C979 1.404 . S
C978 C981 1.539 . S
C979 C975 1.408 . S
C979 C978 1.404 . S
C979 H991 0.930 . S
C980 C976 1.524 . S
C980 H992 0.956 . S
C980 H993 0.961 . S
C980 H994 0.961 . S
C981 C978 1.539 . S
C981 H995 0.958 . S
C981 H996 0.961 . S
C981 H997 0.960 . S
H982 C966 0.931 . S
H983 C971 0.929 . S
H984 C972 0.960 . S
H985 C972 0.962 . S
H986 C972 0.960 . S
H987 C973 0.961 . S
H988 C973 0.961 . S
H989 C973 0.961 . S
H990 C974 0.931 . S
H991 C979 0.930 . S
H992 C980 0.956 . S
H993 C980 0.961 . S
H994 C980 0.961 . S
H995 C981 0.958 . S
H996 C981 0.961 . S
H997 C981 0.960 . S
C998 C999 1.391 . S
C998 C1000 1.394 . S
C998 H1014 0.931 . S
C999 C998 1.391 . S
C999 C1003 1.376 . S
C1000 C998 1.394 . S
C1000 C1001 1.369 . S
C1000 C1004 1.531 . S
C1001 C1000 1.369 . S
C1001 C1002 1.410 . S
C1001 C1009 1.503 . S
C1002 C1001 1.410 . S
C1002 C1003 1.392 . S
C1002 C1005 1.511 . S
C1003 C999 1.376 . S
C1003 C1002 1.392 . S
C1003 H1015 0.929 . S
C1004 C1000 1.531 . S
C1004 H1016 0.960 . S
C1004 H1017 0.962 . S
C1004 H1018 0.960 . S
C1005 C1002 1.511 . S
C1005 H1019 0.961 . S
C1005 H1020 0.961 . S
C1005 H1021 0.961 . S
C1006 C1007 1.370 . S
C1006 C1008 1.363 . S
C1006 H1022 0.931 . S
C1007 C1006 1.370 . S
C1007 C1011 1.408 . S
C1008 C1006 1.363 . S
C1008 C1009 1.370 . S
C1008 C1012 1.524 . S
C1009 C1001 1.503 . S
C1009 C1008 1.370 . S
C1009 C1010 1.403 . S
C1010 C1009 1.403 . S
C1010 C1011 1.404 . S
C1010 C1013 1.539 . S
C1011 C1007 1.408 . S
C1011 C1010 1.404 . S
C1011 H1023 0.930 . S
C1012 C1008 1.524 . S
C1012 H1024 0.956 . S
C1012 H1025 0.961 . S
C1012 H1026 0.961 . S
C1013 C1010 1.539 . S
C1013 H1027 0.958 . S
C1013 H1028 0.961 . S
C1013 H1029 0.960 . S
H1014 C998 0.931 . S
H1015 C1003 0.929 . S
H1016 C1004 0.960 . S
H1017 C1004 0.962 . S
H1018 C1004 0.960 . S
H1019 C1005 0.961 . S
H1020 C1005 0.961 . S
H1021 C1005 0.961 . S
H1022 C1006 0.931 . S
H1023 C1011 0.930 . S
H1024 C1012 0.956 . S
H1025 C1012 0.961 . S
H1026 C1012 0.961 . S
H1027 C1013 0.958 . S
H1028 C1013 0.961 . S
H1029 C1013 0.960 . S
C1030 C1031 1.391 . S
C1030 C1032 1.394 . S
C1030 H1046 0.931 . S
C1031 C1030 1.391 . S
C1031 C1035 1.376 . S
C1032 C1030 1.394 . S
C1032 C1033 1.369 . S
C1032 C1036 1.531 . S
C1033 C1032 1.369 . S
C1033 C1034 1.410 . S
C1033 C1041 1.503 . S
C1034 C1033 1.410 . S
C1034 C1035 1.392 . S
C1034 C1037 1.511 . S
C1035 C1031 1.376 . S
C1035 C1034 1.392 . S
C1035 H1047 0.929 . S
C1036 C1032 1.531 . S
C1036 H1048 0.960 . S
C1036 H1049 0.962 . S
C1036 H1050 0.960 . S
C1037 C1034 1.511 . S
C1037 H1051 0.961 . S
C1037 H1052 0.961 . S
C1037 H1053 0.961 . S
C1038 C1039 1.370 . S
C1038 C1040 1.363 . S
C1038 H1054 0.931 . S
C1039 C1038 1.370 . S
C1039 C1043 1.408 . S
C1040 C1038 1.363 . S
C1040 C1041 1.370 . S
C1040 C1044 1.524 . S
C1041 C1033 1.503 . S
C1041 C1040 1.370 . S
C1041 C1042 1.403 . S
C1042 C1041 1.403 . S
C1042 C1043 1.404 . S
C1042 C1045 1.539 . S
C1043 C1039 1.408 . S
C1043 C1042 1.404 . S
C1043 H1055 0.930 . S
C1044 C1040 1.524 . S
C1044 H1056 0.956 . S
C1044 H1057 0.961 . S
C1044 H1058 0.961 . S
C1045 C1042 1.539 . S
C1045 H1059 0.958 . S
C1045 H1060 0.961 . S
C1045 H1061 0.960 . S
H1046 C1030 0.931 . S
H1047 C1035 0.929 . S
H1048 C1036 0.960 . S
H1049 C1036 0.962 . S
H1050 C1036 0.960 . S
H1051 C1037 0.961 . S
H1052 C1037 0.961 . S
H1053 C1037 0.961 . S
H1054 C1038 0.931 . S
H1055 C1043 0.930 . S
H1056 C1044 0.956 . S
H1057 C1044 0.961 . S
H1058 C1044 0.961 . S
H1059 C1045 0.958 . S
H1060 C1045 0.961 . S
H1061 C1045 0.960 . S
C1062 C1063 1.391 . S
C1062 C1064 1.394 . S
C1062 H1078 0.931 . S
C1063 C1062 1.391 . S
C1063 C1067 1.376 . S
C1064 C1062 1.394 . S
C1064 C1065 1.369 . S
C1064 C1068 1.531 . S
C1065 C1064 1.369 . S
C1065 C1066 1.410 . S
C1065 C1073 1.503 . S
C1066 C1065 1.410 . S
C1066 C1067 1.392 . S
C1066 C1069 1.511 . S
C1067 C1063 1.376 . S
C1067 C1066 1.392 . S
C1067 H1079 0.929 . S
C1068 C1064 1.531 . S
C1068 H1080 0.960 . S
C1068 H1081 0.962 . S
C1068 H1082 0.960 . S
C1069 C1066 1.511 . S
C1069 H1083 0.961 . S
C1069 H1084 0.961 . S
C1069 H1085 0.961 . S
C1070 C1071 1.370 . S
C1070 C1072 1.363 . S
C1070 H1086 0.931 . S
C1071 C1070 1.370 . S
C1071 C1075 1.408 . S
C1072 C1070 1.363 . S
C1072 C1073 1.370 . S
C1072 C1076 1.524 . S
C1073 C1065 1.503 . S
C1073 C1072 1.370 . S
C1073 C1074 1.403 . S
C1074 C1073 1.403 . S
C1074 C1075 1.404 . S
C1074 C1077 1.539 . S
C1075 C1071 1.408 . S
C1075 C1074 1.404 . S
C1075 H1087 0.930 . S
C1076 C1072 1.524 . S
C1076 H1088 0.956 . S
C1076 H1089 0.961 . S
C1076 H1090 0.961 . S
C1077 C1074 1.539 . S
C1077 H1091 0.958 . S
C1077 H1092 0.961 . S
C1077 H1093 0.960 . S
H1078 C1062 0.931 . S
H1079 C1067 0.929 . S
H1080 C1068 0.960 . S
H1081 C1068 0.962 . S
H1082 C1068 0.960 . S
H1083 C1069 0.961 . S
H1084 C1069 0.961 . S
H1085 C1069 0.961 . S
H1086 C1070 0.931 . S
H1087 C1075 0.930 . S
H1088 C1076 0.956 . S
H1089 C1076 0.961 . S
H1090 C1076 0.961 . S
H1091 C1077 0.958 . S
H1092 C1077 0.961 . S
H1093 C1077 0.960 . S
C1094 C1095 1.391 . S
C1094 C1096 1.394 . S
C1094 H1110 0.931 . S
C1095 C1094 1.391 . S
C1095 C1099 1.376 . S
C1096 C1094 1.394 . S
C1096 C1097 1.369 . S
C1096 C1100 1.531 . S
C1097 C1096 1.369 . S
C1097 C1098 1.410 . S
C1097 C1105 1.503 . S
C1098 C1097 1.410 . S
C1098 C1099 1.392 . S
C1098 C1101 1.511 . S
C1099 C1095 1.376 . S
C1099 C1098 1.392 . S
C1099 H1111 0.929 . S
C1100 C1096 1.531 . S
C1100 H1112 0.960 . S
C1100 H1113 0.962 . S
C1100 H1114 0.960 . S
C1101 C1098 1.511 . S
C1101 H1115 0.961 . S
C1101 H1116 0.961 . S
C1101 H1117 0.961 . S
C1102 C1103 1.370 . S
C1102 C1104 1.363 . S
C1102 H1118 0.931 . S
C1103 C1102 1.370 . S
C1103 C1107 1.408 . S
C1104 C1102 1.363 . S
C1104 C1105 1.370 . S
C1104 C1108 1.524 . S
C1105 C1097 1.503 . S
C1105 C1104 1.370 . S
C1105 C1106 1.403 . S
C1106 C1105 1.403 . S
C1106 C1107 1.404 . S
C1106 C1109 1.539 . S
C1107 C1103 1.408 . S
C1107 C1106 1.404 . S
C1107 H1119 0.930 . S
C1108 C1104 1.524 . S
C1108 H1120 0.956 . S
C1108 H1121 0.961 . S
C1108 H1122 0.961 . S
C1109 C1106 1.539 . S
C1109 H1123 0.958 . S
C1109 H1124 0.961 . S
C1109 H1125 0.960 . S
H1110 C1094 0.931 . S
H1111 C1099 0.929 . S
H1112 C1100 0.960 . S
H1113 C1100 0.962 . S
H1114 C1100 0.960 . S
H1115 C1101 0.961 . S
H1116 C1101 0.961 . S
H1117 C1101 0.961 . S
H1118 C1102 0.931 . S
H1119 C1107 0.930 . S
H1120 C1108 0.956 . S
H1121 C1108 0.961 . S
H1122 C1108 0.961 . S
H1123 C1109 0.958 . S
H1124 C1109 0.961 . S
H1125 C1109 0.960 . S
C1126 C1127 1.391 . S
C1126 C1128 1.394 . S
C1126 H1142 0.931 . S
C1127 C1126 1.391 . S
C1127 C1131 1.376 . S
C1128 C1126 1.394 . S
C1128 C1129 1.369 . S
C1128 C1132 1.531 . S
C1129 C1128 1.369 . S
C1129 C1130 1.410 . S
C1129 C1137 1.503 . S
C1130 C1129 1.410 . S
C1130 C1131 1.392 . S
C1130 C1133 1.511 . S
C1131 C1127 1.376 . S
C1131 C1130 1.392 . S
C1131 H1143 0.929 . S
C1132 C1128 1.531 . S
C1132 H1144 0.960 . S
C1132 H1145 0.962 . S
C1132 H1146 0.960 . S
C1133 C1130 1.511 . S
C1133 H1147 0.961 . S
C1133 H1148 0.961 . S
C1133 H1149 0.961 . S
C1134 C1135 1.370 . S
C1134 C1136 1.363 . S
C1134 H1150 0.931 . S
C1135 C1134 1.370 . S
C1135 C1139 1.408 . S
C1136 C1134 1.363 . S
C1136 C1137 1.370 . S
C1136 C1140 1.524 . S
C1137 C1129 1.503 . S
C1137 C1136 1.370 . S
C1137 C1138 1.403 . S
C1138 C1137 1.403 . S
C1138 C1139 1.404 . S
C1138 C1141 1.539 . S
C1139 C1135 1.408 . S
C1139 C1138 1.404 . S
C1139 H1151 0.930 . S
C1140 C1136 1.524 . S
C1140 H1152 0.956 . S
C1140 H1153 0.961 . S
C1140 H1154 0.961 . S
C1141 C1138 1.539 . S
C1141 H1155 0.958 . S
C1141 H1156 0.961 . S
C1141 H1157 0.960 . S
H1142 C1126 0.931 . S
H1143 C1131 0.929 . S
H1144 C1132 0.960 . S
H1145 C1132 0.962 . S
H1146 C1132 0.960 . S
H1147 C1133 0.961 . S
H1148 C1133 0.961 . S
H1149 C1133 0.961 . S
H1150 C1134 0.931 . S
H1151 C1139 0.930 . S
H1152 C1140 0.956 . S
H1153 C1140 0.961 . S
H1154 C1140 0.961 . S
H1155 C1141 0.958 . S
H1156 C1141 0.961 . S
H1157 C1141 0.960 . S
C487 C37 1.832 . S
C495 C259 1.624 . S
C519 C118 1.858 . S
C527 C340 1.635 . S
C551 C199 1.870 . S
C559 C421 1.660 . S
C583 C280 1.832 . S
C591 C16 1.622 . S
C615 C361 1.848 . S
C623 C97 1.626 . S
C647 C442 1.832 . S
C655 C178 1.622 . S
C679 C455 3.040 . S
C687 C34 2.998 . S
C711 C115 2.973 . S
C719 C293 3.031 1_565 S
C743 C374 3.023 1_455 S
C751 C196 2.989 . S
C775 C131 3.012 . S
C783 C277 3.002 . S
C807 C358 2.972 . S
C815 C212 3.027 1_545 S
C839 C50 3.038 1_655 S
C847 C439 3.002 . S
C871 C342 1.661 . S
C879 C18 1.672 . S
C903 C423 1.678 . S
C911 C99 1.670 . S
C935 C180 1.668 . S
C943 C261 1.670 . S
C967 C59 0.731 . S
C975 C133 0.709 . S
C999 C214 0.681 . S
C1007 C140 0.758 . S
C1031 C52 0.652 . S
C1039 C221 0.725 . S
C1063 C457 0.704 . S
C1071 C302 0.702 . S
C1095 C295 0.647 . S
C1103 C383 0.757 . S
C1127 C464 0.659 . S
C1135 C376 0.740 . S
