# Generated by pormake.
# Topology ukb, (4)-cn, num edge types: 1
# Building blocks:
#     Node 0, Type 0, BuildingBlock: ICAMEG_clean_sbu_1, # of connection points: 4
#     Node 1, Type 0, BuildingBlock: ICAMEG_clean_sbu_1, # of connection points: 4
#     Node 2, Type 0, BuildingBlock: ICAMEG_clean_sbu_1, # of connection points: 4
#     Node 3, Type 0, BuildingBlock: ICAMEG_clean_sbu_1, # of connection points: 4
#     Node 4, Type 0, BuildingBlock: ICAMEG_clean_sbu_1, # of connection points: 4
#     Node 5, Type 0, BuildingBlock: ICAMEG_clean_sbu_1, # of connection points: 4
#     Node 6, Type 0, BuildingBlock: ICAMEG_clean_sbu_1, # of connection points: 4
#     Node 7, Type 0, BuildingBlock: ICAMEG_clean_sbu_1, # of connection points: 4
#     Node 8, Type 0, BuildingBlock: ICAMEG_clean_sbu_1, # of connection points: 4
#     Node 9, Type 0, BuildingBlock: ICAMEG_clean_sbu_1, # of connection points: 4
#     Node 10, Type 0, BuildingBlock: ICAMEG_clean_sbu_1, # of connection points: 4
#     Node 11, Type 0, BuildingBlock: ICAMEG_clean_sbu_1, # of connection points: 4
#     Node 12, Type 0, BuildingBlock: ICAMEG_clean_sbu_1, # of connection points: 4
#     Node 13, Type 0, BuildingBlock: ICAMEG_clean_sbu_1, # of connection points: 4
#     Node 14, Type 0, BuildingBlock: ICAMEG_clean_sbu_1, # of connection points: 4
#     Node 15, Type 0, BuildingBlock: ICAMEG_clean_sbu_1, # of connection points: 4
#     Edge 16, Type (0, 0), BuildingBlock: XUDNAN_clean_linker_2, # of connection points: 2
#     Edge 17, Type (0, 0), BuildingBlock: XUDNAN_clean_linker_2, # of connection points: 2
#     Edge 18, Type (0, 0), BuildingBlock: XUDNAN_clean_linker_2, # of connection points: 2
#     Edge 19, Type (0, 0), BuildingBlock: XUDNAN_clean_linker_2, # of connection points: 2
#     Edge 20, Type (0, 0), BuildingBlock: XUDNAN_clean_linker_2, # of connection points: 2
#     Edge 21, Type (0, 0), BuildingBlock: XUDNAN_clean_linker_2, # of connection points: 2
#     Edge 22, Type (0, 0), BuildingBlock: XUDNAN_clean_linker_2, # of connection points: 2
#     Edge 23, Type (0, 0), BuildingBlock: XUDNAN_clean_linker_2, # of connection points: 2
#     Edge 24, Type (0, 0), BuildingBlock: XUDNAN_clean_linker_2, # of connection points: 2
#     Edge 25, Type (0, 0), BuildingBlock: XUDNAN_clean_linker_2, # of connection points: 2
#     Edge 26, Type (0, 0), BuildingBlock: XUDNAN_clean_linker_2, # of connection points: 2
#     Edge 27, Type (0, 0), BuildingBlock: XUDNAN_clean_linker_2, # of connection points: 2
#     Edge 28, Type (0, 0), BuildingBlock: XUDNAN_clean_linker_2, # of connection points: 2
#     Edge 29, Type (0, 0), BuildingBlock: XUDNAN_clean_linker_2, # of connection points: 2
#     Edge 30, Type (0, 0), BuildingBlock: XUDNAN_clean_linker_2, # of connection points: 2
#     Edge 31, Type (0, 0), BuildingBlock: XUDNAN_clean_linker_2, # of connection points: 2
#     Edge 32, Type (0, 0), BuildingBlock: XUDNAN_clean_linker_2, # of connection points: 2
#     Edge 33, Type (0, 0), BuildingBlock: XUDNAN_clean_linker_2, # of connection points: 2
#     Edge 34, Type (0, 0), BuildingBlock: XUDNAN_clean_linker_2, # of connection points: 2
#     Edge 35, Type (0, 0), BuildingBlock: XUDNAN_clean_linker_2, # of connection points: 2
#     Edge 36, Type (0, 0), BuildingBlock: XUDNAN_clean_linker_2, # of connection points: 2
#     Edge 37, Type (0, 0), BuildingBlock: XUDNAN_clean_linker_2, # of connection points: 2
#     Edge 38, Type (0, 0), BuildingBlock: XUDNAN_clean_linker_2, # of connection points: 2
#     Edge 39, Type (0, 0), BuildingBlock: XUDNAN_clean_linker_2, # of connection points: 2
#     Edge 40, Type (0, 0), BuildingBlock: XUDNAN_clean_linker_2, # of connection points: 2
#     Edge 41, Type (0, 0), BuildingBlock: XUDNAN_clean_linker_2, # of connection points: 2
#     Edge 42, Type (0, 0), BuildingBlock: XUDNAN_clean_linker_2, # of connection points: 2
#     Edge 43, Type (0, 0), BuildingBlock: XUDNAN_clean_linker_2, # of connection points: 2
#     Edge 44, Type (0, 0), BuildingBlock: XUDNAN_clean_linker_2, # of connection points: 2
#     Edge 45, Type (0, 0), BuildingBlock: XUDNAN_clean_linker_2, # of connection points: 2
#     Edge 46, Type (0, 0), BuildingBlock: XUDNAN_clean_linker_2, # of connection points: 2
#     Edge 47, Type (0, 0), BuildingBlock: XUDNAN_clean_linker_2, # of connection points: 2
# Relax obj value: 0.076
# Max RMSD: 0.091
# Mean RMSD: 0.091
data_MOF--net-ukb--node1-ICAMEG_clean_sbu_1--edge1-XUDNAN_clean_linker_2
_symmetry_space_group_name_H-M    P1
_symmetry_Int_Tables_number       1
_symmetry_cell_setting            triclinic
loop_
_symmetry_equiv_pos_as_xyz
'x, y, z'
_cell_length_a     46.443706
_cell_length_b     46.457336
_cell_length_c     42.853492
_cell_angle_alpha  90.002936
_cell_angle_beta   90.016613
_cell_angle_gamma 89.946013
loop_
_atom_site_label
_atom_site_type_symbol
_atom_site_fract_x
_atom_site_fract_y
_atom_site_fract_z
_atom_type_partial_charge
Co0 Co 0.57812 0.1858 0.16024 0.0
Co1 Co 0.53121 0.1861 0.22335 0.0
O2 O 0.54055 0.17854 0.17951 0.0
C3 C 0.56356 0.22687 0.10987 0.0
O4 O 0.58298 0.24402 0.12215 0.0
C5 C 0.51963 0.12364 0.21551 0.0
O6 O 0.54223 0.12182 0.19726 0.0
O7 O 0.56827 0.16882 0.23787 0.0
O8 O 0.59839 0.16871 0.1968 0.0
H9 H 0.55135 0.22202 0.33176 0.0
H10 H 0.53305 0.15436 0.12504 0.0
O11 O 0.55792 0.20282 0.12292 0.0
H12 H 0.61498 0.08708 0.13225 0.0
H13 H 0.64916 0.18695 0.07126 0.0
H14 H 0.6339 0.20867 0.18268 0.0
H15 H 0.61828 0.13578 0.1548 0.0
H16 H 0.60207 0.17785 0.09597 0.0
O17 O 0.5123 0.14763 0.22743 0.0
H18 H 0.56241 0.21259 0.27639 0.0
H19 H 0.47976 0.17535 0.26349 0.0
H20 H 0.68135 0.21801 0.15894 0.0
H21 H 0.52894 0.10598 0.10176 0.0
H22 H 0.6892 0.20715 0.10282 0.0
H23 H 0.57006 0.07192 0.10541 0.0
O24 O 0.58053 0.22476 0.1801 0.0
H25 H 0.43983 0.18871 0.16064 0.0
H26 H 0.49898 0.23996 0.23832 0.0
H27 H 0.45341 0.26166 0.22036 0.0
H28 H 0.42344 0.23592 0.1813 0.0
H29 H 0.48573 0.16799 0.17902 0.0
H30 H 0.46793 0.18408 0.31877 0.0
H31 H 0.50382 0.2077 0.35329 0.0
O32 O 0.54952 0.22461 0.2204 0.0
C33 C 0.59259 0.1634 0.2253 0.0
C34 C 0.5355 0.21181 0.31693 0.0
C35 C 0.4887 0.19048 0.30965 0.0
N36 N 0.5217 0.19363 0.26667 0.0
C37 C 0.5416 0.20651 0.28554 0.0
C38 C 0.49555 0.18552 0.27838 0.0
C39 C 0.50884 0.20374 0.329 0.0
C40 C 0.55115 0.13977 0.12645 0.0
N41 N 0.57589 0.14791 0.14126 0.0
C42 C 0.54865 0.11235 0.11334 0.0
C43 C 0.57171 0.09324 0.11544 0.0
C44 C 0.5969 0.10172 0.13053 0.0
C45 C 0.5986 0.12928 0.1434 0.0
C46 C 0.64601 0.19175 0.09573 0.0
C47 C 0.63717 0.20382 0.15827 0.0
C48 C 0.6194 0.18666 0.10985 0.0
N49 N 0.61526 0.1927 0.14076 0.0
C50 C 0.66408 0.20918 0.14494 0.0
C51 C 0.66847 0.20309 0.11346 0.0
C52 C 0.56812 0.23697 0.20315 0.0
C53 C 0.4527 0.20014 0.17766 0.0
C54 C 0.48621 0.2288 0.22109 0.0
C55 C 0.46035 0.24111 0.21113 0.0
C56 C 0.44353 0.22664 0.18924 0.0
N57 N 0.49506 0.2028 0.20965 0.0
C58 C 0.47869 0.18849 0.18819 0.0
Co59 Co 0.30985 0.57506 0.65739 0.0
Co60 Co 0.30214 0.53052 0.72223 0.0
O61 O 0.31336 0.53746 0.67843 0.0
C62 C 0.27918 0.53471 0.61393 0.0
O63 O 0.27134 0.5185 0.6375 0.0
C64 C 0.36032 0.50132 0.71497 0.0
O65 O 0.36246 0.50885 0.68559 0.0
O66 O 0.32309 0.5654 0.73667 0.0
O67 O 0.32459 0.59506 0.6954 0.0
H68 H 0.26374 0.55944 0.8273 0.0
H69 H 0.34156 0.52846 0.62504 0.0
O70 O 0.29482 0.55684 0.61823 0.0
H71 H 0.41224 0.60653 0.63903 0.0
H72 H 0.31853 0.6439 0.56703 0.0
H73 H 0.28921 0.6327 0.67695 0.0
H74 H 0.36225 0.6123 0.6573 0.0
H75 H 0.32309 0.59696 0.59341 0.0
O76 O 0.33805 0.50755 0.73099 0.0
H77 H 0.2786 0.56728 0.77272 0.0
H78 H 0.30239 0.47935 0.7644 0.0
H79 H 0.28474 0.68016 0.6516 0.0
H80 H 0.3912 0.52193 0.60583 0.0
H81 H 0.2994 0.68596 0.59622 0.0
H82 H 0.42698 0.56109 0.61296 0.0
O83 O 0.2694 0.57977 0.67214 0.0
H84 H 0.28951 0.43743 0.66333 0.0
H85 H 0.24329 0.50761 0.73362 0.0
H86 H 0.21606 0.46504 0.71624 0.0
H87 H 0.23921 0.42949 0.68095 0.0
H88 H 0.31574 0.48043 0.68084 0.0
H89 H 0.2882 0.47062 0.81906 0.0
H90 H 0.26853 0.5108 0.85083 0.0
O91 O 0.26649 0.55378 0.71625 0.0
C92 C 0.32926 0.58943 0.72406 0.0
C93 C 0.27212 0.54171 0.81365 0.0
C94 C 0.28589 0.49188 0.80903 0.0
N95 N 0.29087 0.52371 0.76522 0.0
C96 C 0.28041 0.54599 0.78268 0.0
C97 C 0.29393 0.49696 0.77811 0.0
C98 C 0.27486 0.51443 0.82684 0.0
C99 C 0.35694 0.54568 0.62799 0.0
N100 N 0.34906 0.57064 0.64251 0.0
C101 C 0.38505 0.54182 0.61717 0.0
C102 C 0.40513 0.56378 0.62122 0.0
C103 C 0.39689 0.58925 0.6359 0.0
C104 C 0.36859 0.59233 0.64643 0.0
C105 C 0.31212 0.64165 0.59119 0.0
C106 C 0.29586 0.63511 0.65292 0.0
C107 C 0.31457 0.6151 0.60623 0.0
N108 N 0.3066 0.61212 0.63678 0.0
C109 C 0.29318 0.66201 0.63866 0.0
C110 C 0.30139 0.66525 0.60758 0.0
C111 C 0.25592 0.57116 0.6963 0.0
C112 C 0.27926 0.45265 0.6789 0.0
C113 C 0.25356 0.49229 0.71822 0.0
C114 C 0.23801 0.46819 0.7085 0.0
C115 C 0.25102 0.44824 0.68873 0.0
N116 N 0.28137 0.49639 0.70871 0.0
C117 C 0.29415 0.47699 0.68914 0.0
Co118 Co 0.93026 0.31704 0.15251 0.0
Co119 Co 0.97461 0.30933 0.21711 0.0
O120 O 0.96774 0.31997 0.17334 0.0
C121 C 0.96976 0.28472 0.11013 0.0
O122 O 0.98375 0.27492 0.13453 0.0
C123 C 0.99375 0.36978 0.21296 0.0
O124 O 0.97076 0.37467 0.19595 0.0
O125 O 0.94027 0.33124 0.23161 0.0
O126 O 0.91031 0.33185 0.1905 0.0
H127 H 0.94693 0.27304 0.32339 0.0
H128 H 0.9778 0.34859 0.12178 0.0
O129 O 0.94873 0.30204 0.11349 0.0
H130 H 0.89998 0.41989 0.13469 0.0
H131 H 0.86176 0.32664 0.06194 0.0
H132 H 0.87238 0.29695 0.17183 0.0
H133 H 0.89328 0.36968 0.15183 0.0
H134 H 0.90869 0.33061 0.08851 0.0
O135 O 0.99892 0.34459 0.22326 0.0
H136 H 0.93841 0.28678 0.26858 0.0
H137 H 0.02633 0.31 0.25839 0.0
H138 H 0.82494 0.29307 0.1463 0.0
H139 H 0.98536 0.39852 0.10398 0.0
H140 H 0.81942 0.30793 0.09094 0.0
H141 H 0.94631 0.43458 0.11052 0.0
O142 O 0.92526 0.27674 0.1674 0.0
H143 H 0.06687 0.2954 0.15779 0.0
H144 H 0.9964 0.24978 0.22819 0.0
H145 H 0.03834 0.22186 0.20995 0.0
H146 H 0.07396 0.2447 0.17454 0.0
H147 H 0.02446 0.32244 0.17634 0.0
H148 H 0.03573 0.29691 0.31324 0.0
H149 H 0.99589 0.27811 0.34609 0.0
O150 O 0.95032 0.27416 0.21226 0.0
C151 C 0.91608 0.33704 0.21904 0.0
C152 C 0.9645 0.28109 0.30929 0.0
C153 C 0.01433 0.29451 0.3036 0.0
N154 N 0.98191 0.29883 0.2602 0.0
C155 C 0.95983 0.28878 0.2782 0.0
C156 C 0.00886 0.30194 0.27257 0.0
C157 C 0.99196 0.28397 0.32201 0.0
C158 C 0.96062 0.3641 0.12443 0.0
N159 N 0.93513 0.35623 0.13783 0.0
C160 C 0.96506 0.39237 0.11442 0.0
C161 C 0.94316 0.4126 0.11815 0.0
C162 C 0.91717 0.40438 0.13174 0.0
C163 C 0.91353 0.37594 0.14152 0.0
C164 C 0.86388 0.32015 0.08609 0.0
C165 C 0.8701 0.30368 0.14781 0.0
C166 C 0.89042 0.32226 0.10123 0.0
N167 N 0.89323 0.3142 0.13177 0.0
C168 C 0.84321 0.30134 0.13345 0.0
C169 C 0.84013 0.30966 0.10237 0.0
C170 C 0.93314 0.26353 0.19208 0.0
C171 C 0.05155 0.28524 0.17329 0.0
C172 C 0.01175 0.25983 0.21268 0.0
C173 C 0.0355 0.24394 0.2025 0.0
C174 C 0.05549 0.25678 0.18266 0.0
N175 N 0.00807 0.28775 0.20343 0.0
C176 C 0.02757 0.30048 0.18398 0.0
Co177 Co 0.18776 0.93134 0.64197 0.0
Co178 Co 0.18739 0.96287 0.71471 0.0
O179 O 0.17976 0.96436 0.66946 0.0
C180 C 0.21715 0.9778 0.60516 0.0
O181 O 0.22913 0.98828 0.63047 0.0
C182 C 0.13095 0.99562 0.70851 0.0
O183 O 0.13082 0.99331 0.67802 0.0
O184 O 0.16443 0.92685 0.71902 0.0
O185 O 0.17669 0.90365 0.67532 0.0
H186 H 0.21675 0.91385 0.81431 0.0
H187 H 0.14967 0.97737 0.61791 0.0
O188 O 0.19922 0.95717 0.60683 0.0
H189 H 0.08998 0.88965 0.61849 0.0
H190 H 0.18625 0.87696 0.54026 0.0
H191 H 0.21799 0.87553 0.65007 0.0
H192 H 0.14061 0.8879 0.63563 0.0
H193 H 0.17498 0.91749 0.5753 0.0
O194 O 0.15156 0.98541 0.72475 0.0
H195 H 0.20673 0.91689 0.75792 0.0
H196 H 0.18393 0.00505 0.76724 0.0
H197 H 0.22941 0.83437 0.61591 0.0
H198 H 0.09919 0.98003 0.60017 0.0
H199 H 0.21358 0.83494 0.56054 0.0
H200 H 0.06896 0.93596 0.60051 0.0
O201 O 0.22847 0.92994 0.65649 0.0
H202 H 0.20787 0.06352 0.67689 0.0
H203 H 0.24501 0.98135 0.73758 0.0
H204 H 0.27462 0.02502 0.73224 0.0
H205 H 0.25604 0.06659 0.70184 0.0
H206 H 0.17917 0.01938 0.6825 0.0
H207 H 0.19336 0.00286 0.82384 0.0
H208 H 0.21005 0.95706 0.8477 0.0
O209 O 0.22315 0.93993 0.70733 0.0
C210 C 0.16566 0.90412 0.70249 0.0
C211 C 0.20957 0.93396 0.80418 0.0
C212 C 0.19641 0.9839 0.80953 0.0
N213 N 0.19502 0.96118 0.75923 0.0
C214 C 0.20394 0.93584 0.77224 0.0
C215 C 0.19103 0.98499 0.77748 0.0
C216 C 0.20578 0.9582 0.8229 0.0
C217 C 0.13668 0.95808 0.61794 0.0
N218 N 0.14805 0.93257 0.62794 0.0
C219 C 0.1081 0.95973 0.60795 0.0
C220 C 0.09114 0.935 0.60819 0.0
C221 C 0.10291 0.90902 0.61832 0.0
C222 C 0.13157 0.9082 0.62817 0.0
C223 C 0.19321 0.87641 0.56436 0.0
C224 C 0.21085 0.87587 0.62607 0.0
C225 C 0.18693 0.89933 0.58432 0.0
N226 N 0.19573 0.89886 0.61477 0.0
C227 C 0.21744 0.85252 0.60681 0.0
C228 C 0.20856 0.85286 0.57575 0.0
C229 C 0.23799 0.9307 0.68439 0.0
C230 C 0.21611 0.04564 0.69042 0.0
C231 C 0.23669 0.99933 0.72434 0.0
C232 C 0.25359 0.02402 0.72141 0.0
C233 C 0.24316 0.04733 0.70436 0.0
N234 N 0.21001 0.99791 0.71089 0.0
C235 C 0.1998 0.0206 0.69388 0.0
Co236 Co 0.57709 0.31989 0.84806 0.0
Co237 Co 0.53162 0.3092 0.78493 0.0
O238 O 0.53909 0.32041 0.82835 0.0
C239 C 0.54333 0.28276 0.89126 0.0
O240 O 0.53306 0.26889 0.86698 0.0
C241 C 0.5103 0.36884 0.7893 0.0
O242 O 0.53371 0.37454 0.80528 0.0
O243 O 0.56458 0.33241 0.76914 0.0
O244 O 0.59517 0.33597 0.80958 0.0
H245 H 0.5579 0.27317 0.67809 0.0
H246 H 0.52811 0.3485 0.87962 0.0
O247 O 0.56022 0.30403 0.88743 0.0
H248 H 0.60129 0.42429 0.8659 0.0
H249 H 0.64672 0.33371 0.93694 0.0
H250 H 0.6357 0.30341 0.82729 0.0
H251 H 0.61086 0.37456 0.84862 0.0
H252 H 0.59912 0.33487 0.91149 0.0
O253 O 0.50562 0.34342 0.77936 0.0
H254 H 0.56732 0.28768 0.73249 0.0
H255 H 0.47885 0.30749 0.74535 0.0
H256 H 0.68381 0.30237 0.85167 0.0
H257 H 0.51772 0.39787 0.89765 0.0
H258 H 0.68953 0.31755 0.90691 0.0
H259 H 0.55441 0.4362 0.89066 0.0
O260 O 0.5844 0.2799 0.83289 0.0
H261 H 0.44219 0.29146 0.84794 0.0
H262 H 0.51217 0.24878 0.77476 0.0
H263 H 0.47221 0.2191 0.79473 0.0
H264 H 0.43684 0.24045 0.83155 0.0
H265 H 0.48262 0.32029 0.82758 0.0
H266 H 0.4685 0.2936 0.69092 0.0
H267 H 0.50817 0.27612 0.65695 0.0
O268 O 0.55763 0.2752 0.78934 0.0
C269 C 0.58847 0.34018 0.78109 0.0
C270 C 0.54041 0.28063 0.69269 0.0
C271 C 0.49024 0.29213 0.69988 0.0
N272 N 0.52362 0.29808 0.74217 0.0
C273 C 0.5456 0.28874 0.72356 0.0
C274 C 0.49624 0.30002 0.73066 0.0
C275 C 0.51251 0.28232 0.68084 0.0
C276 C 0.54426 0.36503 0.87674 0.0
N277 N 0.57002 0.3587 0.86293 0.0
C278 C 0.53823 0.39295 0.8869 0.0
C279 C 0.55881 0.41446 0.88293 0.0
C280 C 0.58509 0.4078 0.86899 0.0
C281 C 0.59035 0.37964 0.85909 0.0
C282 C 0.64452 0.32708 0.91284 0.0
C283 C 0.63806 0.31025 0.85126 0.0
C284 C 0.61759 0.32758 0.89834 0.0
N285 N 0.61465 0.31935 0.86788 0.0
C286 C 0.66534 0.30953 0.86498 0.0
C287 C 0.66853 0.31802 0.89598 0.0
C288 C 0.57623 0.26589 0.80883 0.0
C289 C 0.45741 0.28194 0.83184 0.0
C290 C 0.4969 0.2582 0.79084 0.0
C291 C 0.47429 0.24131 0.80202 0.0
C292 C 0.45444 0.25331 0.82266 0.0
N293 N 0.49961 0.28629 0.79988 0.0
C294 C 0.48028 0.29819 0.82015 0.0
Co295 Co 0.18617 0.57793 0.3517 0.0
Co296 Co 0.19764 0.53406 0.28692 0.0
O297 O 0.18496 0.54038 0.3303 0.0
C298 C 0.21882 0.53856 0.39438 0.0
O299 O 0.22759 0.52351 0.37028 0.0
C300 C 0.13982 0.50399 0.29185 0.0
O301 O 0.13658 0.51169 0.32106 0.0
O302 O 0.17623 0.56853 0.27213 0.0
O303 O 0.17036 0.59732 0.31373 0.0
H304 H 0.23857 0.56476 0.18363 0.0
H305 H 0.15711 0.5293 0.38347 0.0
O306 O 0.20212 0.56006 0.39072 0.0
H307 H 0.08202 0.60332 0.36966 0.0
H308 H 0.17305 0.6452 0.44281 0.0
H309 H 0.20332 0.63686 0.33288 0.0
H310 H 0.13166 0.61206 0.35171 0.0
H311 H 0.17145 0.59834 0.41586 0.0
O312 O 0.16255 0.51038 0.2767 0.0
H313 H 0.2219 0.57177 0.23772 0.0
H314 H 0.19984 0.48329 0.24425 0.0
H315 H 0.20486 0.68424 0.35882 0.0
H316 H 0.10785 0.51985 0.40237 0.0
H317 H 0.18969 0.68861 0.4142 0.0
H318 H 0.06986 0.55695 0.39533 0.0
O319 O 0.22638 0.58519 0.33728 0.0
H320 H 0.21055 0.4408 0.34536 0.0
H321 H 0.25737 0.51253 0.27752 0.0
H322 H 0.28503 0.47043 0.2956 0.0
H323 H 0.26159 0.43411 0.32967 0.0
H324 H 0.18387 0.48335 0.32717 0.0
H325 H 0.21587 0.47538 0.19004 0.0
H326 H 0.23558 0.51626 0.15942 0.0
O327 O 0.23251 0.55805 0.29441 0.0
C328 C 0.16748 0.59176 0.28476 0.0
C329 C 0.23016 0.54673 0.19677 0.0
C330 C 0.21739 0.49658 0.20037 0.0
N331 N 0.21035 0.52789 0.2443 0.0
C332 C 0.22084 0.55055 0.22747 0.0
C333 C 0.20831 0.5012 0.23103 0.0
C334 C 0.22845 0.51953 0.1832 0.0
C335 C 0.14076 0.54566 0.38059 0.0
N336 N 0.14722 0.57112 0.36631 0.0
C337 C 0.11288 0.54013 0.39121 0.0
C338 C 0.09156 0.56094 0.38721 0.0
C339 C 0.09835 0.58693 0.37276 0.0
C340 C 0.12646 0.59168 0.36242 0.0
C341 C 0.17967 0.64358 0.41866 0.0
C342 C 0.19648 0.63864 0.35691 0.0
C343 C 0.17889 0.61709 0.40329 0.0
N344 N 0.18711 0.6149 0.37275 0.0
C345 C 0.19749 0.6655 0.37151 0.0
C346 C 0.189 0.66793 0.40259 0.0
C347 C 0.24134 0.57655 0.31415 0.0
C348 C 0.22095 0.45636 0.33033 0.0
C349 C 0.24697 0.49687 0.29238 0.0
C350 C 0.26276 0.47303 0.3025 0.0
C351 C 0.2496 0.45266 0.32159 0.0
N352 N 0.21878 0.50028 0.30085 0.0
C353 C 0.20582 0.48045 0.31972 0.0
Co354 Co 0.9277 0.18346 0.85577 0.0
Co355 Co 0.96419 0.18881 0.78505 0.0
O356 O 0.96295 0.18185 0.83046 0.0
C357 C 0.97215 0.21652 0.89367 0.0
O358 O 0.99165 0.21476 0.87162 0.0
C359 C 0.98681 0.12981 0.79231 0.0
O360 O 0.96619 0.12564 0.81273 0.0
O361 O 0.92986 0.16412 0.77736 0.0
O362 O 0.90638 0.16165 0.82311 0.0
H363 H 0.92262 0.21468 0.68048 0.0
H364 H 0.98209 0.15928 0.88191 0.0
O365 O 0.94732 0.20538 0.89014 0.0
H366 H 0.91017 0.08197 0.8923 0.0
H367 H 0.86979 0.17941 0.95511 0.0
H368 H 0.86641 0.19509 0.84134 0.0
H369 H 0.89663 0.12888 0.86977 0.0
H370 H 0.91399 0.17604 0.92347 0.0
O371 O 0.98954 0.1542 0.77905 0.0
H372 H 0.92123 0.20554 0.73714 0.0
H373 H 0.01071 0.18654 0.73714 0.0
H374 H 0.82159 0.19826 0.87206 0.0
H375 H 0.99646 0.1129 0.90489 0.0
H376 H 0.82313 0.19044 0.92938 0.0
H377 H 0.96041 0.07376 0.91012 0.0
O378 O 0.91661 0.22094 0.8365 0.0
H379 H 0.06242 0.21128 0.82771 0.0
H380 H 0.98083 0.24823 0.76583 0.0
H381 H 0.02316 0.27918 0.77465 0.0
H382 H 0.06439 0.2607 0.8057 0.0
H383 H 0.01947 0.1812 0.81872 0.0
H384 H 0.013 0.19513 0.68038 0.0
H385 H 0.96876 0.20946 0.65171 0.0
O386 O 0.93878 0.22311 0.78989 0.0
C387 C 0.90905 0.15559 0.7943 0.0
C388 C 0.94207 0.20855 0.69272 0.0
C389 C 0.99279 0.19755 0.69267 0.0
N390 N 0.96591 0.19581 0.74047 0.0
C391 C 0.94143 0.20345 0.72483 0.0
C392 C 0.99134 0.19266 0.72479 0.0
C393 C 0.96796 0.20559 0.67659 0.0
C394 C 0.96613 0.14263 0.88454 0.0
N395 N 0.93844 0.14704 0.87485 0.0
C396 C 0.97445 0.11628 0.89739 0.0
C397 C 0.95424 0.0943 0.90026 0.0
C398 C 0.92606 0.0989 0.89026 0.0
C399 C 0.91853 0.12551 0.87749 0.0
C400 C 0.86882 0.18278 0.93014 0.0
C401 C 0.86719 0.1914 0.86623 0.0
C402 C 0.8938 0.18098 0.9121 0.0
N403 N 0.89274 0.18516 0.88053 0.0
C404 C 0.84177 0.19333 0.88352 0.0
C405 C 0.84266 0.18897 0.91569 0.0
C406 C 0.92197 0.2334 0.81061 0.0
C407 C 0.04462 0.21956 0.8141 0.0
C408 C 0.99857 0.24011 0.7796 0.0
C409 C 0.02255 0.2577 0.78439 0.0
C410 C 0.04569 0.2473 0.80178 0.0
N411 N 0.99769 0.21293 0.79177 0.0
C412 C 0.0203 0.20258 0.80881 0.0
Co413 Co 0.31883 0.93398 0.35394 0.0
Co414 Co 0.31241 0.96639 0.28102 0.0
O415 O 0.32059 0.96771 0.3262 0.0
C416 C 0.28725 0.98114 0.38995 0.0
O417 O 0.29036 1.00032 0.36774 0.0
C418 C 0.3723 0.98778 0.28437 0.0
O419 O 0.37667 0.97028 0.30791 0.0
O420 O 0.33574 0.93076 0.27513 0.0
O421 O 0.34029 0.91074 0.3226 0.0
H422 H 0.28165 0.91901 0.18104 0.0
H423 H 0.34402 0.98964 0.37586 0.0
O424 O 0.2972 0.95572 0.38698 0.0
H425 H 0.42035 0.9173 0.39102 0.0
H426 H 0.32296 0.88214 0.45714 0.0
H427 H 0.30698 0.87203 0.34388 0.0
H428 H 0.37321 0.90319 0.36959 0.0
H429 H 0.32649 0.9243 0.42242 0.0
O430 O 0.34768 0.9896 0.27147 0.0
H431 H 0.293 0.92098 0.23721 0.0
H432 H 0.31427 0.00959 0.22951 0.0
H433 H 0.30368 0.82919 0.37773 0.0
H434 H 0.39061 0.00457 0.39772 0.0
H435 H 0.31164 0.83412 0.4348 0.0
H436 H 0.42929 0.96831 0.40538 0.0
O437 O 0.28101 0.92188 0.33595 0.0
H438 H 0.29498 0.06776 0.31721 0.0
H439 H 0.25305 0.9843 0.26256 0.0
H440 H 0.22401 0.02832 0.26935 0.0
H441 H 0.245 0.07049 0.29676 0.0
H442 H 0.32313 0.02315 0.31026 0.0
H443 H 0.30348 0.0085 0.17314 0.0
H444 H 0.28689 0.96301 0.14859 0.0
O445 O 0.27752 0.94293 0.28892 0.0
C446 C 0.34512 0.91129 0.29337 0.0
C447 C 0.28877 0.93899 0.19147 0.0
C448 C 0.30105 0.98921 0.18704 0.0
N449 N 0.30397 0.96545 0.23669 0.0
C450 C 0.29514 0.94027 0.22329 0.0
C451 C 0.30718 0.98969 0.21896 0.0
C452 C 0.29174 0.96368 0.17328 0.0
C453 C 0.36039 0.97358 0.37961 0.0
N454 N 0.35554 0.94546 0.37192 0.0
C455 C 0.38691 0.98224 0.3918 0.0
C456 C 0.40862 0.9619 0.39602 0.0
C457 C 0.40362 0.93329 0.38796 0.0
C458 C 0.37685 0.92544 0.37581 0.0
C459 C 0.31953 0.8797 0.4323 0.0
C460 C 0.31075 0.87428 0.36866 0.0
C461 C 0.32141 0.90351 0.41252 0.0
N462 N 0.31714 0.90058 0.3811 0.0
C463 C 0.30874 0.84998 0.38772 0.0
C464 C 0.31317 0.85277 0.41975 0.0
C465 C 0.26772 0.92678 0.31043 0.0
C466 C 0.28562 0.04955 0.30517 0.0
C467 C 0.26226 0.00247 0.27473 0.0
C468 C 0.24575 0.02739 0.27839 0.0
C469 C 0.25756 0.05105 0.29374 0.0
N470 N 0.28978 0.00119 0.286 0.0
C471 C 0.3015 0.02429 0.30106 0.0
Co472 Co 0.41781 0.82051 0.84728 0.0
Co473 Co 0.46159 0.80474 0.78416 0.0
O474 O 0.45561 0.81841 0.82699 0.0
C475 C 0.45093 0.78423 0.89179 0.0
O476 O 0.46036 0.76934 0.86782 0.0
C477 C 0.48782 0.86286 0.78227 0.0
O478 O 0.46579 0.87243 0.79843 0.0
O479 O 0.43046 0.83008 0.76787 0.0
O480 O 0.39987 0.83532 0.80804 0.0
H481 H 0.43038 0.76741 0.67943 0.0
H482 H 0.46824 0.84847 0.87669 0.0
O483 O 0.43456 0.80588 0.88744 0.0
H484 H 0.39872 0.92683 0.85765 0.0
H485 H 0.35021 0.84257 0.936 0.0
H486 H 0.35819 0.80584 0.82837 0.0
H487 H 0.38674 0.87675 0.8438 0.0
H488 H 0.39746 0.83988 0.90992 0.0
O489 O 0.49012 0.83614 0.77607 0.0
H490 H 0.42321 0.78514 0.73311 0.0
H491 H 0.51342 0.7959 0.74415 0.0
H492 H 0.31043 0.80863 0.85338 0.0
H493 H 0.48103 0.89825 0.89122 0.0
H494 H 0.30624 0.82705 0.90761 0.0
H495 H 0.44618 0.93785 0.88158 0.0
O496 O 0.40837 0.78009 0.83483 0.0
H497 H 0.55028 0.78245 0.84675 0.0
H498 H 0.47591 0.74243 0.777 0.0
H499 H 0.51361 0.71047 0.79812 0.0
H500 H 0.55117 0.73047 0.83322 0.0
H501 H 0.51201 0.81361 0.8253 0.0
H502 H 0.52157 0.77869 0.69041 0.0
H503 H 0.47987 0.76411 0.65773 0.0
O504 O 0.43318 0.77327 0.79043 0.0
C505 C 0.40682 0.83896 0.77951 0.0
C506 C 0.44874 0.77356 0.69348 0.0
C507 C 0.49991 0.77992 0.69964 0.0
N508 N 0.46789 0.79115 0.74189 0.0
C509 C 0.44482 0.78349 0.72394 0.0
C510 C 0.49516 0.7897 0.73003 0.0
C511 C 0.47651 0.77175 0.68131 0.0
C512 C 0.45287 0.86557 0.87269 0.0
N513 N 0.42677 0.85971 0.85943 0.0
C514 C 0.46027 0.89372 0.88085 0.0
C515 C 0.44072 0.91593 0.8754 0.0
C516 C 0.4141 0.90977 0.86195 0.0
C517 C 0.40747 0.88138 0.85405 0.0
C518 C 0.35175 0.83453 0.91235 0.0
C519 C 0.35651 0.81406 0.8519 0.0
C520 C 0.37846 0.83285 0.89751 0.0
N521 N 0.38056 0.82283 0.8676 0.0
C522 C 0.32942 0.81551 0.86597 0.0
C523 C 0.32709 0.82583 0.8964 0.0
C524 C 0.41485 0.76527 0.81076 0.0
C525 C 0.53408 0.7735 0.8314 0.0
C526 C 0.49214 0.75128 0.79233 0.0
C527 C 0.51347 0.73309 0.80416 0.0
C528 C 0.53454 0.74433 0.82384 0.0
N529 N 0.49187 0.77988 0.79982 0.0
C530 C 0.51244 0.79106 0.81911 0.0
Co531 Co 0.68617 0.4266 0.34597 0.0
Co532 Co 0.69661 0.46354 0.27649 0.0
O533 O 0.68658 0.46214 0.3211 0.0
C534 C 0.72728 0.46121 0.38469 0.0
O535 O 0.74267 0.46689 0.35973 0.0
C536 C 0.63829 0.48916 0.27866 0.0
O537 O 0.63166 0.47035 0.3003 0.0
O538 O 0.67085 0.43061 0.26663 0.0
O539 O 0.66776 0.40507 0.31104 0.0
H540 H 0.72736 0.42132 0.17383 0.0
H541 H 0.66104 0.47983 0.3725 0.0
O542 O 0.70399 0.44693 0.38238 0.0
H543 H 0.58118 0.41001 0.36931 0.0
H544 H 0.67208 0.36857 0.44408 0.0
H545 H 0.70002 0.36546 0.3331 0.0
H546 H 0.62973 0.39616 0.35152 0.0
H547 H 0.67158 0.41271 0.41216 0.0
O548 O 0.66366 0.49023 0.26747 0.0
H549 H 0.71387 0.42004 0.22946 0.0
H550 H 0.70048 0.51049 0.22914 0.0
H551 H 0.70043 0.32068 0.36406 0.0
H552 H 0.61287 0.49449 0.39091 0.0
H553 H 0.68645 0.32209 0.41999 0.0
H554 H 0.57251 0.45948 0.38924 0.0
O555 O 0.72534 0.41558 0.33066 0.0
H556 H 0.7209 0.55905 0.32455 0.0
H557 H 0.7577 0.47807 0.26168 0.0
H558 H 0.78997 0.51853 0.27444 0.0
H559 H 0.77158 0.55944 0.30603 0.0
H560 H 0.68943 0.518 0.31146 0.0
H561 H 0.71344 0.51271 0.17335 0.0
H562 H 0.72718 0.46792 0.14538 0.0
O563 O 0.7293 0.4367 0.28366 0.0
C564 C 0.66239 0.40893 0.28223 0.0
C565 C 0.72153 0.44101 0.18578 0.0
C566 C 0.71369 0.49229 0.18552 0.0
N567 N 0.70677 0.46521 0.23262 0.0
C568 C 0.71399 0.44043 0.21732 0.0
C569 C 0.70632 0.49089 0.21708 0.0
C570 C 0.7214 0.46715 0.16983 0.0
C571 C 0.64364 0.4644 0.37202 0.0
N572 N 0.64821 0.43717 0.36101 0.0
C573 C 0.61639 0.47285 0.38234 0.0
C574 C 0.59375 0.45321 0.38136 0.0
C575 C 0.59859 0.42546 0.37016 0.0
C576 C 0.62612 0.41777 0.36002 0.0
C577 C 0.67819 0.36767 0.41973 0.0
C578 C 0.69372 0.3662 0.35737 0.0
C579 C 0.67805 0.39262 0.40156 0.0
N580 N 0.6857 0.39165 0.37077 0.0
C581 C 0.69407 0.34079 0.37481 0.0
C582 C 0.68625 0.3416 0.40619 0.0
C583 C 0.73872 0.42022 0.30513 0.0
C584 C 0.72914 0.54139 0.3107 0.0
C585 C 0.74957 0.49575 0.27553 0.0
C586 C 0.76792 0.51863 0.28262 0.0
C587 C 0.75758 0.54158 0.30033 0.0
N588 N 0.72167 0.49578 0.2857 0.0
C589 C 0.7114 0.51816 0.30314 0.0
Co590 Co 0.07738 0.6906 0.85095 0.0
Co591 Co 0.02792 0.69194 0.7903 0.0
O592 O 0.03812 0.68685 0.83443 0.0
C593 C 0.04139 0.72797 0.89243 0.0
O594 O 0.0247 0.73428 0.8687 0.0
C595 C 0.00578 0.6338 0.80455 0.0
O596 O 0.02921 0.62924 0.82096 0.0
O597 O 0.05945 0.66585 0.77654 0.0
O598 O 0.09326 0.66991 0.8138 0.0
H599 H 0.04763 0.7102 0.67663 0.0
H600 H 0.03129 0.66559 0.89035 0.0
O601 O 0.06291 0.71128 0.88897 0.0
H602 H 0.10541 0.58991 0.88225 0.0
H603 H 0.15306 0.68935 0.9352 0.0
H604 H 0.13413 0.70453 0.82315 0.0
H605 H 0.11236 0.63694 0.85672 0.0
H606 H 0.10388 0.68456 0.91416 0.0
O607 O 0.00122 0.6582 0.79199 0.0
H608 H 0.06037 0.70437 0.73212 0.0
H609 H 0.97266 0.68965 0.75495 0.0
H610 H 0.18372 0.70907 0.84314 0.0
H611 H 0.02358 0.619 0.91662 0.0
H612 H 0.19343 0.70152 0.89956 0.0
H613 H 0.06076 0.58072 0.91255 0.0
O614 O 0.08299 0.7283 0.82933 0.0
H615 H 0.94162 0.72009 0.85405 0.0
H616 H 0.00941 0.7511 0.77214 0.0
H617 H 0.9709 0.78414 0.78921 0.0
H618 H 0.93663 0.76865 0.8304 0.0
H619 H 0.98069 0.68787 0.83654 0.0
H620 H 0.95898 0.695 0.69966 0.0
H621 H 0.99659 0.70546 0.66007 0.0
O622 O 0.05487 0.72503 0.7867 0.0
C623 C 0.08454 0.66084 0.78733 0.0
C624 C 0.03102 0.70578 0.69367 0.0
C625 C 0.98128 0.69721 0.70659 0.0
N626 N 0.01729 0.69698 0.74682 0.0
C627 C 0.03811 0.70258 0.72516 0.0
C628 C 0.98917 0.69417 0.73787 0.0
C629 C 0.00239 0.70308 0.68439 0.0
C630 C 0.04767 0.64914 0.8887 0.0
N631 N 0.07225 0.65399 0.872 0.0
C632 C 0.04314 0.62275 0.90353 0.0
C633 C 0.06399 0.60127 0.90119 0.0
C634 C 0.08903 0.6064 0.88417 0.0
C635 C 0.0928 0.63303 0.86963 0.0
C636 C 0.14911 0.69266 0.91056 0.0
C637 C 0.13821 0.701 0.84769 0.0
C638 C 0.12128 0.69008 0.89853 0.0
N639 N 0.11615 0.6941 0.86741 0.0
C640 C 0.16632 0.70369 0.85889 0.0
C641 C 0.17175 0.69947 0.89055 0.0
C642 C 0.07417 0.73747 0.80296 0.0
C643 C 0.95637 0.72705 0.83602 0.0
C644 C 0.99469 0.74428 0.79021 0.0
C645 C 0.97286 0.76304 0.7997 0.0
C646 C 0.95362 0.75432 0.82278 0.0
N647 N 0.99723 0.71758 0.80331 0.0
C648 C 0.97843 0.70885 0.82591 0.0
Co649 Co 0.82322 0.08035 0.35062 0.0
Co650 Co 0.81343 0.03485 0.28725 0.0
O651 O 0.82461 0.04237 0.33073 0.0
C652 C 0.78946 0.04276 0.39365 0.0
O653 O 0.77991 0.02811 0.36961 0.0
C654 C 0.87359 0.01472 0.2914 0.0
O655 O 0.87886 0.0379 0.30793 0.0
O656 O 0.83587 0.06838 0.27172 0.0
O657 O 0.83932 0.09875 0.3123 0.0
H658 H 0.77651 0.06113 0.18075 0.0
H659 H 0.85244 0.03193 0.38252 0.0
O660 O 0.80708 0.06344 0.3899 0.0
H661 H 0.92716 0.10623 0.369 0.0
H662 H 0.835 0.15015 0.43965 0.0
H663 H 0.80592 0.13865 0.32967 0.0
H664 H 0.87739 0.11496 0.3513 0.0
H665 H 0.83718 0.10258 0.41425 0.0
O666 O 0.84826 0.00978 0.28131 0.0
H667 H 0.79087 0.07043 0.23524 0.0
H668 H 0.81293 0.98238 0.24715 0.0
H669 H 0.80384 0.18672 0.35403 0.0
H670 H 0.90188 0.02237 0.4009 0.0
H671 H 0.8184 0.19268 0.40943 0.0
H672 H 0.93967 0.05964 0.39404 0.0
O673 O 0.78323 0.08687 0.33531 0.0
H674 H 0.79852 0.94396 0.34865 0.0
H675 H 0.75338 0.01404 0.27731 0.0
H676 H 0.72493 0.97296 0.29671 0.0
H677 H 0.74753 0.93753 0.3326 0.0
H678 H 0.82608 0.98553 0.32894 0.0
H679 H 0.7992 0.97217 0.19265 0.0
H680 H 0.78067 0.01168 0.15911 0.0
O681 O 0.77869 0.05991 0.29194 0.0
C682 C 0.84355 0.09224 0.28377 0.0
C683 C 0.78444 0.0437 0.19516 0.0
C684 C 0.7972 0.99378 0.20183 0.0
N685 N 0.80239 0.02692 0.24445 0.0
C686 C 0.79247 0.04882 0.22607 0.0
C687 C 0.805 0.99971 0.23265 0.0
C688 C 0.78681 0.01596 0.18303 0.0
C689 C 0.86871 0.04834 0.37972 0.0
N690 N 0.86205 0.07396 0.36582 0.0
C691 C 0.89669 0.04277 0.39007 0.0
C692 C 0.91789 0.06367 0.38616 0.0
C693 C 0.9109 0.0898 0.37208 0.0
C694 C 0.88271 0.09459 0.36198 0.0
C695 C 0.82866 0.14785 0.41548 0.0
C696 C 0.81252 0.14112 0.35371 0.0
C697 C 0.82976 0.12094 0.40099 0.0
N698 N 0.82188 0.11788 0.37042 0.0
C699 C 0.8112 0.16837 0.36741 0.0
C700 C 0.81935 0.17169 0.39851 0.0
C701 C 0.76913 0.07832 0.31148 0.0
C702 C 0.78846 0.9592 0.33295 0.0
C703 C 0.76332 0.99878 0.29303 0.0
C704 C 0.74714 0.97552 0.30386 0.0
C705 C 0.75984 0.95564 0.32398 0.0
N706 N 0.7914 0.0021 0.30191 0.0
C707 C 0.804 0.9827 0.32161 0.0
Co708 Co 0.42761 0.69118 0.16359 0.0
Co709 Co 0.47683 0.6877 0.22458 0.0
O710 O 0.46582 0.68241 0.18075 0.0
C711 C 0.44048 0.73307 0.11326 0.0
O712 O 0.4218 0.75033 0.1267 0.0
C713 C 0.49019 0.62599 0.21208 0.0
O714 O 0.46773 0.62443 0.19359 0.0
O715 O 0.4407 0.669 0.23952 0.0
O716 O 0.4085 0.67323 0.20052 0.0
H717 H 0.46036 0.71738 0.33592 0.0
H718 H 0.47052 0.65992 0.12511 0.0
O719 O 0.44656 0.7089 0.12586 0.0
H720 H 0.38735 0.59445 0.13325 0.0
H721 H 0.35272 0.69654 0.07846 0.0
H722 H 0.37345 0.71476 0.18958 0.0
H723 H 0.38608 0.6424 0.15785 0.0
H724 H 0.40061 0.68558 0.10037 0.0
O725 O 0.4967 0.64948 0.22555 0.0
H726 H 0.44725 0.71065 0.28062 0.0
H727 H 0.53009 0.67598 0.26161 0.0
H728 H 0.32526 0.72598 0.16865 0.0
H729 H 0.47255 0.61236 0.09964 0.0
H730 H 0.31465 0.71688 0.1127 0.0
H731 H 0.43082 0.57919 0.10378 0.0
O732 O 0.42681 0.72961 0.18495 0.0
H733 H 0.5656 0.69533 0.15818 0.0
H734 H 0.50847 0.74151 0.24121 0.0
H735 H 0.55285 0.76497 0.22259 0.0
H736 H 0.58182 0.74179 0.18083 0.0
H737 H 0.52088 0.6728 0.17731 0.0
H738 H 0.54395 0.68202 0.31676 0.0
H739 H 0.50901 0.70298 0.35432 0.0
O740 O 0.45764 0.72583 0.22513 0.0
C741 C 0.4156 0.66544 0.22803 0.0
C742 C 0.4758 0.7083 0.31976 0.0
C743 C 0.52271 0.68842 0.30902 0.0
N744 N 0.48792 0.6931 0.26786 0.0
C745 C 0.46853 0.70452 0.2884 0.0
C746 C 0.51469 0.68498 0.27783 0.0
C747 C 0.50309 0.70019 0.33007 0.0
C748 C 0.45216 0.64573 0.12676 0.0
N749 N 0.42824 0.65391 0.14308 0.0
C750 C 0.45349 0.61877 0.1124 0.0
C751 C 0.43008 0.60015 0.11477 0.0
C752 C 0.40571 0.60867 0.13135 0.0
C753 C 0.40518 0.63578 0.14543 0.0
C754 C 0.35707 0.70058 0.10288 0.0
C755 C 0.36898 0.71069 0.16522 0.0
C756 C 0.38414 0.69442 0.11542 0.0
N757 N 0.38982 0.69951 0.14625 0.0
C758 C 0.34166 0.7171 0.1535 0.0
C759 C 0.33572 0.712 0.1221 0.0
C760 C 0.43927 0.73982 0.2091 0.0
C761 C 0.55317 0.70564 0.1764 0.0
C762 C 0.52079 0.73144 0.22286 0.0
C763 C 0.54599 0.74475 0.2125 0.0
C764 C 0.56225 0.73172 0.18909 0.0
N765 N 0.51206 0.70584 0.21034 0.0
C766 C 0.52787 0.69295 0.18736 0.0
Co767 Co 0.81831 0.42672 0.65679 0.0
Co768 Co 0.80684 0.46753 0.72388 0.0
O769 O 0.81956 0.46315 0.68031 0.0
C770 C 0.7812 0.44107 0.60291 0.0
O771 O 0.76512 0.41938 0.61188 0.0
C772 C 0.86519 0.49651 0.72137 0.0
O773 O 0.86899 0.48939 0.69207 0.0
O774 O 0.82764 0.43202 0.73666 0.0
O775 O 0.83328 0.40499 0.69363 0.0
H776 H 0.76462 0.4322 0.8248 0.0
H777 H 0.84813 0.47638 0.62761 0.0
O778 O 0.80328 0.44809 0.61901 0.0
H779 H 0.92278 0.40173 0.64013 0.0
H780 H 0.83482 0.36353 0.56278 0.0
H781 H 0.7991 0.36736 0.67106 0.0
H782 H 0.87286 0.39254 0.65676 0.0
H783 H 0.83573 0.40908 0.59233 0.0
O784 O 0.84204 0.4902 0.73571 0.0
H785 H 0.78148 0.42776 0.77046 0.0
H786 H 0.80527 0.51602 0.76966 0.0
H787 H 0.79795 0.32133 0.64242 0.0
H788 H 0.89769 0.48624 0.61003 0.0
H789 H 0.81588 0.31922 0.58786 0.0
H790 H 0.93546 0.44883 0.61641 0.0
O791 O 0.77794 0.41899 0.67096 0.0
H792 H 0.79578 0.5635 0.67056 0.0
H793 H 0.74753 0.4898 0.73465 0.0
H794 H 0.72082 0.53338 0.71915 0.0
H795 H 0.74501 0.5707 0.68701 0.0
H796 H 0.82153 0.51949 0.68624 0.0
H797 H 0.78904 0.52132 0.82417 0.0
H798 H 0.76837 0.47926 0.85204 0.0
O799 O 0.77179 0.44467 0.71478 0.0
C800 C 0.83596 0.40916 0.7229 0.0
C801 C 0.77347 0.45073 0.81287 0.0
C802 C 0.78721 0.50073 0.81252 0.0
N803 N 0.79397 0.47169 0.76675 0.0
C804 C 0.78294 0.44837 0.78205 0.0
C805 C 0.79641 0.49758 0.78168 0.0
C806 C 0.77561 0.47712 0.82814 0.0
C807 C 0.86435 0.45985 0.63013 0.0
N808 N 0.85756 0.43393 0.64327 0.0
C809 C 0.89242 0.46562 0.62029 0.0
C810 C 0.91362 0.44464 0.62393 0.0
C811 C 0.90653 0.41824 0.63729 0.0
C812 C 0.87824 0.41323 0.64687 0.0
C813 C 0.82696 0.36417 0.58654 0.0
C814 C 0.807 0.36661 0.64735 0.0
C815 C 0.82741 0.3899 0.60339 0.0
N816 N 0.81752 0.39087 0.63343 0.0
C817 C 0.80627 0.34048 0.63124 0.0
C818 C 0.81633 0.33932 0.60063 0.0
C819 C 0.76289 0.42697 0.6943 0.0
C820 C 0.78506 0.54749 0.68475 0.0
C821 C 0.75823 0.5059 0.72063 0.0
C822 C 0.74298 0.53056 0.71195 0.0
C823 C 0.75656 0.55149 0.69393 0.0
N824 N 0.7863 0.50225 0.71182 0.0
C825 C 0.79964 0.52255 0.69388 0.0
Co826 Co 0.08066 0.81864 0.15579 0.0
Co827 Co 0.03606 0.80854 0.22026 0.0
O828 O 0.04292 0.8207 0.17676 0.0
C829 C 0.04102 0.78707 0.11232 0.0
O830 O 0.02476 0.77924 0.13584 0.0
C831 C 0.0069 0.86679 0.21439 0.0
O832 O 0.01481 0.86962 0.18521 0.0
O833 O 0.07079 0.82943 0.23526 0.0
O834 O 0.09986 0.8343 0.19377 0.0
H835 H 0.06516 0.76779 0.32423 0.0
H836 H 0.03276 0.84843 0.12337 0.0
O837 O 0.06307 0.80282 0.11665 0.0
H838 H 0.10814 0.92205 0.13691 0.0
H839 H 0.14926 0.82974 0.06552 0.0
H840 H 0.13907 0.8005 0.17559 0.0
H841 H 0.11582 0.87241 0.15544 0.0
H842 H 0.10212 0.83251 0.09178 0.0
O843 O 0.01287 0.84413 0.22987 0.0
H844 H 0.07293 0.7839 0.27007 0.0
H845 H 0.9849 0.8077 0.26244 0.0
H846 H 0.18672 0.79781 0.15035 0.0
H847 H 0.02435 0.89768 0.10388 0.0
H848 H 0.19202 0.81245 0.09491 0.0
H849 H 0.06215 0.93494 0.11078 0.0
O850 O 0.0871 0.77846 0.1707 0.0
H851 H 0.94297 0.79685 0.16114 0.0
H852 H 0.01349 0.74931 0.23003 0.0
H853 H 0.97104 0.72229 0.21189 0.0
H854 H 0.93532 0.7461 0.1773 0.0
H855 H 0.98585 0.82288 0.17938 0.0
H856 H 0.97625 0.79223 0.3167 0.0
H857 H 0.01651 0.77193 0.34791 0.0
O858 O 0.05954 0.77322 0.21339 0.0
C859 C 0.09425 0.83754 0.22267 0.0
C860 C 0.0474 0.77647 0.31083 0.0
C861 C 0.99751 0.79022 0.30661 0.0
N862 N 0.02931 0.79631 0.26295 0.0
C863 C 0.05165 0.7855 0.2801 0.0
C864 C 0.00255 0.79899 0.27592 0.0
C865 C 0.02011 0.77883 0.32411 0.0
C866 C 0.04941 0.86445 0.12621 0.0
N867 N 0.07467 0.85759 0.14075 0.0
C868 C 0.04448 0.89234 0.11524 0.0
C869 C 0.06567 0.91325 0.11916 0.0
C870 C 0.09145 0.90605 0.13388 0.0
C871 C 0.0956 0.87795 0.14455 0.0
C872 C 0.14724 0.82335 0.08971 0.0
C873 C 0.14125 0.80712 0.15153 0.0
C874 C 0.12057 0.82479 0.10469 0.0
N875 N 0.11787 0.81685 0.13527 0.0
C876 C 0.16827 0.80546 0.13733 0.0
C877 C 0.17122 0.81366 0.10621 0.0
C878 C 0.07808 0.76389 0.19395 0.0
C879 C 0.95826 0.7863 0.17639 0.0
C880 C 0.9981 0.75986 0.21494 0.0
C881 C 0.97406 0.74443 0.20479 0.0
C882 C 0.95402 0.75781 0.1854 0.0
N883 N 0.00203 0.7879 0.20621 0.0
C884 C 0.98254 0.80106 0.18704 0.0
Co885 Co 0.69297 0.08477 0.65374 0.0
Co886 Co 0.6845 0.03187 0.71029 0.0
O887 O 0.68105 0.04622 0.66739 0.0
C888 C 0.7248 0.04477 0.61152 0.0
O889 O 0.72794 0.0267 0.6348 0.0
C890 C 0.62494 0.0146 0.726 0.0
O891 O 0.62658 0.03237 0.74978 0.0
O892 O 0.6664 0.06768 0.72716 0.0
O893 O 0.6744 0.10212 0.69126 0.0
H894 H 0.70851 0.03945 0.82435 0.0
H895 H 0.66024 0.04633 0.61146 0.0
O896 O 0.71158 0.06851 0.61539 0.0
H897 H 0.60149 0.13441 0.62056 0.0
H898 H 0.71016 0.16333 0.57487 0.0
H899 H 0.71696 0.1359 0.68581 0.0
H900 H 0.64804 0.1304 0.64791 0.0
H901 H 0.69444 0.11528 0.59236 0.0
O902 O 0.64561 0.01321 0.70641 0.0
H903 H 0.70397 0.05697 0.77024 0.0
H904 H 0.67253 0.97538 0.74131 0.0
H905 H 0.73267 0.18428 0.66937 0.0
H906 H 0.614 0.04952 0.58329 0.0
H907 H 0.72933 0.19826 0.61353 0.0
H908 H 0.58424 0.09378 0.58784 0.0
O909 O 0.73047 0.08173 0.67639 0.0
H910 H 0.69198 0.94743 0.63743 0.0
H911 H 0.73783 0.99846 0.7252 0.0
H912 H 0.76109 0.95519 0.70344 0.0
H913 H 0.73809 0.92929 0.65928 0.0
H914 H 0.66968 0.99106 0.65961 0.0
H915 H 0.67665 0.95702 0.79512 0.0
H916 H 0.69477 0.98915 0.83708 0.0
O917 O 0.72308 0.04977 0.71482 0.0
C918 C 0.6647 0.09363 0.71754 0.0
C919 C 0.70059 0.02525 0.80627 0.0
C920 C 0.68271 0.97898 0.78987 0.0
N921 N 0.68798 0.01725 0.75263 0.0
C922 C 0.69798 0.03504 0.77559 0.0
C923 C 0.68042 0.98951 0.75945 0.0
C924 C 0.69287 0.99702 0.8134 0.0
C925 C 0.64744 0.06568 0.61347 0.0
N926 N 0.65673 0.0881 0.63148 0.0
C927 C 0.62127 0.06735 0.5975 0.0
C928 C 0.60457 0.09218 0.60008 0.0
C929 C 0.61421 0.11497 0.61846 0.0
C930 C 0.64049 0.11252 0.63408 0.0
C931 C 0.71166 0.15752 0.59928 0.0
C932 C 0.71523 0.14191 0.66151 0.0
C933 C 0.70286 0.13031 0.60931 0.0
N934 N 0.70459 0.12287 0.64012 0.0
C935 C 0.72425 0.1693 0.65232 0.0
C936 C 0.7224 0.17711 0.62098 0.0
C937 C 0.73877 0.06797 0.70054 0.0
C938 C 0.70217 0.95848 0.65673 0.0
C939 C 0.7278 0.98747 0.70585 0.0
C940 C 0.74101 0.96288 0.69371 0.0
C941 C 0.72807 0.94834 0.66896 0.0
N942 N 0.70237 0.99727 0.69376 0.0
C943 C 0.68956 0.98311 0.6695 0.0
H944 H 0.4882 0.11266 0.26779 0.0
H945 H 0.50996 0.07767 0.17697 0.0
H946 H 0.47578 0.03751 0.18569 0.0
H947 H 0.48124 0.0426 0.3072 0.0
H948 H 0.45205 0.05488 0.33152 0.0
H949 H 0.47911 0.07993 0.31848 0.0
H950 H 0.43934 0.11236 0.29471 0.0
H951 H 0.41219 0.08739 0.30749 0.0
H952 H 0.41445 0.09727 0.26689 0.0
H953 H 0.43524 0.00463 0.20209 0.0
H954 H 0.3952 0.97817 0.22736 0.0
H955 H 0.40305 0.03222 0.30925 0.0
C956 C 0.48599 0.09634 0.24989 0.0
C957 C 0.50155 0.0982 0.22165 0.0
C958 C 0.4983 0.07645 0.19882 0.0
C959 C 0.4789 0.05368 0.20355 0.0
C960 C 0.4635 0.05274 0.2315 0.0
C961 C 0.46728 0.0732 0.25454 0.0
C962 C 0.44812 0.06737 0.28243 0.0
C963 C 0.46622 0.0608 0.31163 0.0
C964 C 0.42729 0.0926 0.2882 0.0
C965 C 0.43231 0.04086 0.27118 0.0
C966 C 0.44138 0.03286 0.24165 0.0
C967 C 0.42843 0.0103 0.22544 0.0
C968 C 0.40573 0.99549 0.23985 0.0
C969 C 0.39665 0.00303 0.27025 0.0
C970 C 0.41018 0.02581 0.28621 0.0
H971 H 0.39068 0.45508 0.69241 0.0
H972 H 0.38225 0.51146 0.77249 0.0
H973 H 0.42096 0.48468 0.79956 0.0
H974 H 0.40016 0.39072 0.73773 0.0
H975 H 0.42523 0.37438 0.71093 0.0
H976 H 0.39857 0.39934 0.69674 0.0
H977 H 0.43878 0.43064 0.67219 0.0
H978 H 0.46555 0.40572 0.68625 0.0
H979 H 0.46792 0.44331 0.69635 0.0
H980 H 0.46139 0.45267 0.81728 0.0
H981 H 0.49732 0.41431 0.82686 0.0
H982 H 0.47599 0.37544 0.73778 0.0
C983 C 0.39734 0.46191 0.71547 0.0
C984 C 0.38395 0.48553 0.73029 0.0
C985 C 0.3925 0.49349 0.76078 0.0
C986 C 0.41446 0.47848 0.77626 0.0
C987 C 0.42718 0.45515 0.76117 0.0
C988 C 0.41868 0.44659 0.73166 0.0
C989 C 0.43448 0.41954 0.72166 0.0
C990 C 0.41335 0.39452 0.71647 0.0
C991 C 0.45277 0.42515 0.69238 0.0
C992 C 0.45327 0.41437 0.75005 0.0
C993 C 0.44906 0.43545 0.77235 0.0
C994 C 0.4647 0.43589 0.80012 0.0
C995 C 0.48508 0.4141 0.80534 0.0
C996 C 0.48915 0.39188 0.7832 0.0
C997 C 0.47297 0.39202 0.75526 0.0
H998 H 0.02621 0.37717 0.26563 0.0
H999 H 0.00666 0.41567 0.17588 0.0
H1000 H 0.04176 0.45453 0.18656 0.0
H1001 H 0.03232 0.4451 0.30728 0.0
H1002 H 0.06088 0.43254 0.33231 0.0
H1003 H 0.03475 0.40748 0.31727 0.0
H1004 H 0.07578 0.37649 0.29381 0.0
H1005 H 0.10205 0.40145 0.30875 0.0
H1006 H 0.1014 0.39291 0.26772 0.0
H1007 H 0.08157 0.48686 0.20541 0.0
H1008 H 0.11942 0.51387 0.23359 0.0
H1009 H 0.10938 0.45751 0.31344 0.0
C1010 C 0.02938 0.39381 0.24827 0.0
C1011 C 0.014 0.39341 0.21981 0.0
C1012 C 0.01829 0.41569 0.19781 0.0
C1013 C 0.0382 0.43775 0.20364 0.0
C1014 C 0.05313 0.4375 0.23189 0.0
C1015 C 0.04859 0.41641 0.25408 0.0
C1016 C 0.06669 0.42171 0.28298 0.0
C1017 C 0.04751 0.42703 0.31165 0.0
C1018 C 0.08773 0.39665 0.28863 0.0
C1019 C 0.08247 0.44884 0.27338 0.0
C1020 C 0.0746 0.45735 0.24364 0.0
C1021 C 0.08755 0.48071 0.22889 0.0
C1022 C 0.10903 0.49585 0.24499 0.0
C1023 C 0.11686 0.48796 0.27573 0.0
C1024 C 0.10328 0.46428 0.29017 0.0
H1025 H 0.10052 0.04284 0.68823 0.0
H1026 H 0.10964 0.98389 0.76609 0.0
H1027 H 0.07243 0.01078 0.79522 0.0
H1028 H 0.09377 0.10588 0.73532 0.0
H1029 H 0.06819 0.12345 0.71003 0.0
H1030 H 0.0937 0.09823 0.69407 0.0
H1031 H 0.05193 0.06845 0.67035 0.0
H1032 H 0.02629 0.09367 0.68615 0.0
H1033 H 0.02333 0.05593 0.69533 0.0
H1034 H 0.03433 0.04394 0.81593 0.0
H1035 H 1.00028 0.08325 0.82834 0.0
H1036 H 0.01854 0.12296 0.73884 0.0
C1037 C 0.09429 0.03539 0.7112 0.0
C1038 C 0.1076 0.0111 0.72481 0.0
C1039 C 0.09953 0.00238 0.75524 0.0
C1040 C 0.0784 0.01747 0.77192 0.0
C1041 C 0.06587 0.04152 0.75804 0.0
C1042 C 0.07366 0.05064 0.7285 0.0
C1043 C 0.0582 0.07828 0.71989 0.0
C1044 C 0.07975 0.10292 0.71452 0.0
C1045 C 0.03878 0.0738 0.69123 0.0
C1046 C 0.04054 0.08322 0.74916 0.0
C1047 C 0.04501 0.06154 0.7707 0.0
C1048 C 0.03072 0.0611 0.7993 0.0
C1049 C 0.01141 0.08346 0.80613 0.0
C1050 C 0.00693 0.10618 0.78465 0.0
C1051 C 0.02176 0.106 0.75583 0.0
H1052 H 0.50047 0.91822 0.80102 0.0
H1053 H 0.52244 0.85335 0.73205 0.0
H1054 H 0.55647 0.88702 0.70742 0.0
H1055 H 0.50591 0.98076 0.74999 0.0
H1056 H 0.52229 0.0032 0.77934 0.0
H1057 H 0.49809 0.97476 0.79068 0.0
H1058 H 0.53742 0.95305 0.82658 0.0
H1059 H 0.56159 0.98156 0.8156 0.0
H1060 H 0.57227 0.94455 0.81048 0.0
H1061 H 0.5885 0.92705 0.69049 0.0
H1062 H 0.62049 0.96906 0.68577 0.0
H1063 H 0.57956 0.0078 0.7667 0.0
C1064 C 0.51233 0.91122 0.78062 0.0
C1065 C 0.50871 0.8832 0.7684 0.0
C1066 C 0.52491 0.87467 0.74193 0.0
C1067 C 0.54415 0.89372 0.72759 0.0
C1068 C 0.54717 0.92119 0.74011 0.0
C1069 C 0.53202 0.92988 0.76623 0.0
C1070 C 0.54081 0.95997 0.77611 0.0
C1071 C 0.51525 0.98091 0.77389 0.0
C1072 C 0.5538 0.95975 0.80914 0.0
C1073 C 0.56344 0.96665 0.75162 0.0
C1074 C 0.56639 0.94413 0.73082 0.0
C1075 C 0.58635 0.94488 0.70658 0.0
C1076 C 0.60438 0.96893 0.70403 0.0
C1077 C 0.60259 0.99182 0.72582 0.0
C1078 C 0.58138 0.9908 0.74952 0.0
H1079 H 0.51743 0.61047 0.2657 0.0
H1080 H 0.50604 0.58557 0.16898 0.0
H1081 H 0.5423 0.54683 0.17583 0.0
H1082 H 0.59188 0.59922 0.27136 0.0
H1083 H 0.5911 0.58445 0.31024 0.0
H1084 H 0.56359 0.60933 0.29801 0.0
H1085 H 0.52413 0.57218 0.31217 0.0
H1086 H 0.55151 0.54722 0.32471 0.0
H1087 H 0.52564 0.53655 0.29558 0.0
H1088 H 0.58383 0.51491 0.19195 0.0
H1089 H 0.62261 0.48717 0.21796 0.0
H1090 H 0.60316 0.52944 0.30557 0.0
C1091 C 0.52235 0.59658 0.2461 0.0
C1092 C 0.50915 0.60092 0.21677 0.0
C1093 C 0.51587 0.58237 0.19165 0.0
C1094 C 0.53649 0.56047 0.19532 0.0
C1095 C 0.54954 0.55708 0.22445 0.0
C1096 C 0.54222 0.57419 0.2496 0.0
C1097 C 0.55909 0.56591 0.27853 0.0
C1098 C 0.57751 0.59124 0.29021 0.0
C1099 C 0.53888 0.5548 0.30426 0.0
C1100 C 0.57765 0.54193 0.26557 0.0
C1101 C 0.57204 0.53739 0.23423 0.0
C1102 C 0.58797 0.51784 0.2166 0.0
C1103 C 0.60997 0.50233 0.23146 0.0
C1104 C 0.6154 0.50607 0.26368 0.0
C1105 C 0.59897 0.52596 0.28099 0.0
H1106 H 0.97576 0.62469 0.75094 0.0
H1107 H 0.99133 0.58898 0.84291 0.0
H1108 H 0.95732 0.54922 0.83134 0.0
H1109 H 0.90108 0.60777 0.74469 0.0
H1110 H 0.90294 0.59836 0.70393 0.0
H1111 H 0.92786 0.62411 0.71993 0.0
H1112 H 0.97064 0.59338 0.70002 0.0
H1113 H 0.94588 0.56745 0.68401 0.0
H1114 H 0.97321 0.55605 0.71122 0.0
H1115 H 0.91905 0.51554 0.81069 0.0
H1116 H 0.88305 0.48751 0.78085 0.0
H1117 H 0.89662 0.54244 0.70045 0.0
C1118 C 0.97187 0.60856 0.7687 0.0
C1119 C 0.98575 0.60997 0.79799 0.0
C1120 C 0.98071 0.58823 0.82041 0.0
C1121 C 0.96146 0.56567 0.81404 0.0
C1122 C 0.94806 0.56492 0.78489 0.0
C1123 C 0.95339 0.58555 0.76242 0.0
C1124 C 0.9371 0.57931 0.73255 0.0
C1125 C 0.91599 0.60384 0.72484 0.0
C1126 C 0.95796 0.57371 0.70535 0.0
C1127 C 0.92132 0.55214 0.74183 0.0
C1128 C 0.92768 0.54439 0.77225 0.0
C1129 C 0.91429 0.52111 0.78671 0.0
C1130 C 0.89389 0.50539 0.76965 0.0
C1131 C 0.88756 0.51262 0.73831 0.0
C1132 C 0.90163 0.53613 0.72417 0.0
H1133 H 0.88031 0.98112 0.23942 0.0
H1134 H 0.91965 0.00211 0.32836 0.0
H1135 H 0.95835 0.9667 0.31805 0.0
H1136 H 0.89607 0.90577 0.23877 0.0
H1137 H 0.90422 0.90443 0.19767 0.0
H1138 H 0.87936 0.93095 0.21234 0.0
H1139 H 0.91008 0.97153 0.1877 0.0
H1140 H 0.93506 0.94514 0.17295 0.0
H1141 H 0.9478 0.97412 0.19726 0.0
H1142 H 0.99056 0.92661 0.2997 0.0
H1143 H 0.01736 0.88826 0.27204 0.0
H1144 H 0.96027 0.89695 0.19256 0.0
C1145 C 0.89708 0.97818 0.2567 0.0
C1146 C 0.89697 0.99408 0.28481 0.0
C1147 C 0.91943 0.99008 0.3067 0.0
C1148 C 0.94141 0.97 0.30107 0.0
C1149 C 0.94091 0.95459 0.27315 0.0
C1150 C 0.91961 0.95879 0.25108 0.0
C1151 C 0.92467 0.9402 0.2225 0.0
C1152 C 0.89959 0.91909 0.21754 0.0
C1153 C 0.92971 0.95887 0.19338 0.0
C1154 C 0.95192 0.92457 0.23214 0.0
C1155 C 0.96068 0.93293 0.26163 0.0
C1156 C 0.98421 0.92024 0.27641 0.0
C1157 C 0.99923 0.89848 0.2606 0.0
C1158 C 0.99107 0.89013 0.23012 0.0
C1159 C 0.96725 0.90347 0.21563 0.0
H1160 H 0.61962 0.26497 0.19287 0.0
H1161 H 0.5345 0.2763 0.23287 0.0
H1162 H 0.54838 0.32407 0.25222 0.0
H1163 H 0.65716 0.29482 0.25511 0.0
H1164 H 0.68436 0.3126 0.23215 0.0
H1165 H 0.6668 0.28096 0.21721 0.0
H1166 H 0.65148 0.30901 0.16769 0.0
H1167 H 0.66914 0.34079 0.18243 0.0
H1168 H 0.63164 0.34219 0.17165 0.0
H1169 H 0.57235 0.36735 0.27269 0.0
H1170 H 0.60556 0.40457 0.29269 0.0
H1171 H 0.67554 0.36672 0.23989 0.0
C1172 C 0.60371 0.27787 0.20496 0.0
C1173 C 0.57591 0.26691 0.21127 0.0
C1174 C 0.55591 0.28415 0.22782 0.0
C1175 C 0.56354 0.31143 0.23878 0.0
C1176 C 0.59128 0.3213 0.23299 0.0
C1177 C 0.6111 0.30522 0.21636 0.0
C1178 C 0.64024 0.32001 0.21585 0.0
C1179 C 0.6635 0.30096 0.23099 0.0
C1180 C 0.64861 0.32851 0.18241 0.0
C1181 C 0.63383 0.34637 0.2356 0.0
C1182 C 0.60532 0.34676 0.24489 0.0
C1183 C 0.59457 0.36765 0.26511 0.0
C1184 C 0.61351 0.3886 0.2764 0.0
C1185 C 0.64273 0.3885 0.26736 0.0
C1186 C 0.65303 0.36742 0.24644 0.0
H1187 H 0.23176 0.57983 0.75332 0.0
H1188 H 0.21529 0.59039 0.65437 0.0
H1189 H 0.16746 0.61142 0.66662 0.0
H1190 H 0.15949 0.56297 0.77825 0.0
H1191 H 0.16249 0.5837 0.81367 0.0
H1192 H 0.19407 0.56739 0.79678 0.0
H1193 H 0.21924 0.61711 0.79521 0.0
H1194 H 0.18784 0.6336 0.81214 0.0
H1195 H 0.20186 0.64676 0.77563 0.0
H1196 H 0.12124 0.63167 0.69062 0.0
H1197 H 0.08353 0.65377 0.72362 0.0
H1198 H 0.13319 0.63261 0.8063 0.0
C1199 C 0.218 0.58614 0.73414 0.0
C1200 C 0.22704 0.5831 0.70287 0.0
C1201 C 0.20865 0.59239 0.6785 0.0
C1202 C 0.18146 0.60423 0.68525 0.0
C1203 C 0.17328 0.60698 0.71647 0.0
C1204 C 0.19126 0.5985 0.74047 0.0
C1205 C 0.17869 0.60572 0.77206 0.0
C1206 C 0.17336 0.57831 0.79131 0.0
C1207 C 0.19806 0.62707 0.78979 0.0
C1208 C 0.15071 0.61962 0.76219 0.0
C1209 C 0.14768 0.6198 0.7301 0.0
C1210 C 0.12346 0.63166 0.71576 0.0
C1211 C 0.1021 0.64408 0.73471 0.0
C1212 C 0.10538 0.64499 0.7676 0.0
C1213 C 0.12994 0.63229 0.78131 0.0
H1214 H 0.875 0.13908 0.30218 0.0
H1215 H 0.84362 0.09491 0.21966 0.0
H1216 H 0.86467 0.13305 0.1865 0.0
H1217 H 0.86195 0.20989 0.27679 0.0
H1218 H 0.89412 0.2246 0.29408 0.0
H1219 H 0.87743 0.19329 0.31092 0.0
H1220 H 0.92548 0.16519 0.30588 0.0
H1221 H 0.9423 0.19649 0.28908 0.0
H1222 H 0.94288 0.16272 0.26837 0.0
H1223 H 0.88609 0.17854 0.1628 0.0
H1224 H 0.90883 0.22542 0.1506 0.0
H1225 H 0.92832 0.23727 0.24883 0.0
C1226 C 0.87274 0.13717 0.27715 0.0
C1227 C 0.85762 0.11396 0.26357 0.0
C1228 C 0.85521 0.11241 0.23063 0.0
C1229 C 0.86705 0.134 0.2116 0.0
C1230 C 0.88158 0.15673 0.22585 0.0
C1231 C 0.88476 0.15819 0.25788 0.0
C1232 C 0.90113 0.18484 0.26759 0.0
C1233 C 0.88254 0.2043 0.28857 0.0
C1234 C 0.92964 0.17682 0.28367 0.0
C1235 C 0.90631 0.19846 0.23606 0.0
C1236 C 0.89478 0.18208 0.21222 0.0
C1237 C 0.89556 0.19131 0.18125 0.0
C1238 C 0.90844 0.21798 0.17455 0.0
C1239 C 0.92063 0.23488 0.19869 0.0
C1240 C 0.91967 0.22471 0.22974 0.0
H1241 H 0.26165 0.92213 0.74196 0.0
H1242 H 0.27952 0.91133 0.64317 0.0
H1243 H 0.32636 0.88882 0.65642 0.0
H1244 H 0.33432 0.93738 0.76735 0.0
H1245 H 0.3302 0.91733 0.80308 0.0
H1246 H 0.2994 0.93445 0.78546 0.0
H1247 H 0.27257 0.8856 0.78451 0.0
H1248 H 0.30323 0.86826 0.80204 0.0
H1249 H 0.28906 0.8551 0.76558 0.0
H1250 H 0.37093 0.86584 0.68142 0.0
H1251 H 0.40764 0.84317 0.71534 0.0
H1252 H 0.35808 0.86795 0.79698 0.0
C1253 C 0.27542 0.91542 0.72292 0.0
C1254 C 0.26689 0.91872 0.69145 0.0
C1255 C 0.28562 0.9092 0.66745 0.0
C1256 C 0.31227 0.89641 0.67477 0.0
C1257 C 0.31974 0.89322 0.70614 0.0
C1258 C 0.30173 0.90243 0.72976 0.0
C1259 C 0.3137 0.89523 0.76162 0.0
C1260 C 0.31977 0.92274 0.78048 0.0
C1261 C 0.29344 0.87483 0.77947 0.0
C1262 C 0.34128 0.88027 0.75236 0.0
C1263 C 0.34465 0.87952 0.72032 0.0
C1264 C 0.3685 0.86642 0.70653 0.0
C1265 C 0.38926 0.85363 0.726 0.0
C1266 C 0.38586 0.85379 0.7589 0.0
C1267 C 0.36153 0.86747 0.77201 0.0
H1268 H 0.58496 0.24151 0.7519 0.0
H1269 H 0.59818 0.22675 0.85079 0.0
H1270 H 0.62046 0.17943 0.83877 0.0
H1271 H 0.56898 0.16888 0.72917 0.0
H1272 H 0.58853 0.1715 0.69294 0.0
H1273 H 0.57234 0.20315 0.70976 0.0
H1274 H 0.62178 0.22895 0.70896 0.0
H1275 H 0.63812 0.19743 0.69209 0.0
H1276 H 0.65227 0.21231 0.72778 0.0
H1277 H 0.64068 0.13285 0.81493 0.0
H1278 H 0.66116 0.0942 0.78168 0.0
H1279 H 0.63699 0.14249 0.69912 0.0
C1280 C 0.59226 0.22826 0.7711 0.0
C1281 C 0.58955 0.23761 0.80229 0.0
C1282 C 0.6 0.21989 0.82671 0.0
C1283 C 0.61255 0.19299 0.8201 0.0
C1284 C 0.61484 0.18442 0.78897 0.0
C1285 C 0.60528 0.2018 0.76491 0.0
C1286 C 0.61167 0.18873 0.73337 0.0
C1287 C 0.58371 0.1827 0.71526 0.0
C1288 C 0.63218 0.208 0.71445 0.0
C1289 C 0.62624 0.16114 0.74332 0.0
C1290 C 0.6276 0.15872 0.77543 0.0
C1291 C 0.63984 0.13465 0.78977 0.0
C1292 C 0.65132 0.11278 0.77073 0.0
C1293 C 0.65089 0.11545 0.73779 0.0
C1294 C 0.63797 0.1399 0.72415 0.0
H1295 H 0.36926 0.63412 0.20842 0.0
H1296 H 0.41105 0.66619 0.29197 0.0
H1297 H 0.37154 0.64599 0.32406 0.0
H1298 H 0.29741 0.64765 0.23078 0.0
H1299 H 0.28335 0.61522 0.21345 0.0
H1300 H 0.31518 0.63175 0.19758 0.0
H1301 H 0.3432 0.58387 0.20448 0.0
H1302 H 0.31138 0.56721 0.22029 0.0
H1303 H 0.34445 0.56697 0.24233 0.0
H1304 H 0.32465 0.6253 0.3463 0.0
H1305 H 0.27746 0.6023 0.35687 0.0
H1306 H 0.26957 0.58118 0.25862 0.0
C1307 C 0.37025 0.63684 0.23345 0.0
C1308 C 0.39315 0.65189 0.24765 0.0
C1309 C 0.39373 0.65466 0.28058 0.0
C1310 C 0.37135 0.64334 0.29897 0.0
C1311 C 0.34888 0.62888 0.28409 0.0
C1312 C 0.3485 0.62524 0.25207 0.0
C1313 C 0.32223 0.60867 0.24158 0.0
C1314 C 0.30344 0.62692 0.21956 0.0
C1315 C 0.33084 0.57998 0.22627 0.0
C1316 C 0.30757 0.60388 0.27262 0.0
C1317 C 0.32302 0.61586 0.29692 0.0
C1318 C 0.31262 0.61547 0.32749 0.0
C1319 C 0.28579 0.60245 0.33327 0.0
C1320 C 0.26995 0.58965 0.30865 0.0
C1321 C 0.28127 0.59031 0.27807 0.0
H1322 H 0.86468 0.3609 0.70261 0.0
H1323 H 0.83529 0.40404 0.78674 0.0
H1324 H 0.85403 0.36384 0.81846 0.0
H1325 H 0.84819 0.28934 0.7262 0.0
H1326 H 0.87975 0.27372 0.70849 0.0
H1327 H 0.86422 0.30603 0.69245 0.0
H1328 H 0.91329 0.33211 0.69802 0.0
H1329 H 0.92895 0.29981 0.71397 0.0
H1330 H 0.93086 0.33308 0.73553 0.0
H1331 H 0.87411 0.31764 0.84087 0.0
H1332 H 0.89694 0.27069 0.85233 0.0
H1333 H 0.91495 0.2593 0.75366 0.0
C1334 C 0.8623 0.36207 0.7277 0.0
C1335 C 0.84848 0.38572 0.74211 0.0
C1336 C 0.84587 0.38626 0.77508 0.0
C1337 C 0.85638 0.36347 0.79334 0.0
C1338 C 0.86969 0.34043 0.77833 0.0
C1339 C 0.87294 0.33971 0.74628 0.0
C1340 C 0.8883 0.31261 0.73588 0.0
C1341 C 0.86895 0.29435 0.7145 0.0
C1342 C 0.91706 0.31985 0.71991 0.0
C1343 C 0.89303 0.29809 0.76708 0.0
C1344 C 0.88197 0.31433 0.79128 0.0
C1345 C 0.88306 0.30484 0.82212 0.0
C1346 C 0.89599 0.27812 0.82839 0.0
C1347 C 0.9079 0.26136 0.80395 0.0
C1348 C 0.90632 0.27165 0.77294 0.0
H1349 H 0.14009 0.87006 0.20385 0.0
H1350 H 0.09968 0.83443 0.28657 0.0
H1351 H 0.13931 0.85392 0.31891 0.0
H1352 H 0.21216 0.85625 0.22457 0.0
H1353 H 0.22577 0.88939 0.20845 0.0
H1354 H 0.19386 0.87321 0.19232 0.0
H1355 H 0.16553 0.92057 0.20167 0.0
H1356 H 0.19743 0.93692 0.21769 0.0
H1357 H 0.16468 0.93609 0.24022 0.0
H1358 H 0.18576 0.87516 0.34156 0.0
H1359 H 0.23242 0.89895 0.3526 0.0
H1360 H 0.23964 0.92206 0.25473 0.0
C1361 C 0.13932 0.86648 0.22876 0.0
C1362 C 0.11674 0.85067 0.24261 0.0
C1363 C 0.11669 0.8466 0.27541 0.0
C1364 C 0.13914 0.85751 0.29396 0.0
C1365 C 0.16124 0.87276 0.2794 0.0
C1366 C 0.16121 0.87752 0.24756 0.0
C1367 C 0.1872 0.89462 0.23737 0.0
C1368 C 0.20584 0.87733 0.21433 0.0
C1369 C 0.17816 0.92378 0.22342 0.0
C1370 C 0.20219 0.89841 0.26838 0.0
C1371 C 0.18709 0.8856 0.29241 0.0
C1372 C 0.19758 0.88553 0.32294 0.0
C1373 C 0.22412 0.89902 0.32898 0.0
C1374 C 0.23967 0.91257 0.30462 0.0
C1375 C 0.2283 0.9122 0.27403 0.0
H1376 H 0.3568 0.6382 0.70445 0.0
H1377 H 0.32949 0.59341 0.78824 0.0
H1378 H 0.34778 0.63377 0.82033 0.0
H1379 H 0.42285 0.66637 0.73643 0.0
H1380 H 0.42007 0.69965 0.71501 0.0
H1381 H 0.40471 0.66717 0.69924 0.0
H1382 H 0.35515 0.69261 0.6946 0.0
H1383 H 0.37037 0.72506 0.71054 0.0
H1384 H 0.33932 0.70893 0.7287 0.0
H1385 H 0.36737 0.68119 0.84294 0.0
H1386 H 0.39015 0.72853 0.85373 0.0
H1387 H 0.40622 0.73931 0.75471 0.0
C1388 C 0.35479 0.63662 0.72953 0.0
C1389 C 0.34167 0.61256 0.74375 0.0
C1390 C 0.33955 0.61156 0.77676 0.0
C1391 C 0.34978 0.63444 0.79518 0.0
C1392 C 0.36238 0.65796 0.78027 0.0
C1393 C 0.36522 0.65892 0.74817 0.0
C1394 C 0.37996 0.6862 0.7376 0.0
C1395 C 0.4086 0.67943 0.72111 0.0
C1396 C 0.36 0.70426 0.71663 0.0
C1397 C 0.38487 0.70061 0.76874 0.0
C1398 C 0.3744 0.68429 0.79316 0.0
C1399 C 0.37588 0.69399 0.82398 0.0
C1400 C 0.38872 0.7209 0.8299 0.0
C1401 C 0.4002 0.73748 0.80512 0.0
C1402 C 0.39804 0.72706 0.77425 0.0
H1403 H 0.86626 0.36248 0.19907 0.0
H1404 H 0.91301 0.33953 0.28323 0.0
H1405 H 0.87244 0.35766 0.31517 0.0
H1406 H 0.83589 0.42851 0.22872 0.0
H1407 H 0.80247 0.42372 0.20795 0.0
H1408 H 0.83535 0.40904 0.19233 0.0
H1409 H 0.81182 0.35845 0.19017 0.0
H1410 H 0.77898 0.373 0.206 0.0
H1411 H 0.79658 0.34326 0.22516 0.0
H1412 H 0.82482 0.37664 0.33769 0.0
H1413 H 0.77694 0.39828 0.34836 0.0
H1414 H 0.76392 0.40998 0.24888 0.0
C1415 C 0.86822 0.36141 0.2242 0.0
C1416 C 0.8929 0.34957 0.23858 0.0
C1417 C 0.89439 0.34863 0.27162 0.0
C1418 C 0.8714 0.35876 0.28997 0.0
C1419 C 0.84726 0.37002 0.2749 0.0
C1420 C 0.84578 0.37169 0.24274 0.0
C1421 C 0.81779 0.38499 0.232 0.0
C1422 C 0.82321 0.41324 0.21421 0.0
C1423 C 0.80027 0.36365 0.21217 0.0
C1424 C 0.80358 0.39048 0.26313 0.0
C1425 C 0.82066 0.38153 0.28769 0.0
C1426 C 0.8114 0.38391 0.3186 0.0
C1427 C 0.78416 0.39609 0.32445 0.0
C1428 C 0.76677 0.406 0.29949 0.0
C1429 C 0.77674 0.40292 0.26854 0.0
H1430 H 0.08419 0.79467 0.81907 0.0
H1431 H 0.10287 0.72897 0.75002 0.0
H1432 H 0.12939 0.76426 0.71846 0.0
H1433 H 0.0723 0.85178 0.76492 0.0
H1434 H 0.0893 0.87946 0.78791 0.0
H1435 H 0.0732 0.84884 0.80686 0.0
H1436 H 0.12154 0.83768 0.83449 0.0
H1437 H 0.13777 0.86835 0.81569 0.0
H1438 H 0.15373 0.83318 0.81148 0.0
H1439 H 0.1511 0.80549 0.69302 0.0
H1440 H 0.16886 0.85179 0.67424 0.0
H1441 H 0.13744 0.8933 0.75869 0.0
C1442 C 0.09426 0.78787 0.7975 0.0
C1443 C 0.09138 0.75928 0.78664 0.0
C1444 C 0.10453 0.75094 0.75831 0.0
C1445 C 0.11977 0.77075 0.74036 0.0
C1446 C 0.12177 0.79889 0.7511 0.0
C1447 C 0.1096 0.80763 0.77899 0.0
C1448 C 0.11442 0.8397 0.78402 0.0
C1449 C 0.08558 0.8559 0.78604 0.0
C1450 C 0.13297 0.84504 0.81315 0.0
C1451 C 0.13068 0.84743 0.75437 0.0
C1452 C 0.13469 0.82334 0.73601 0.0
C1453 C 0.14833 0.82456 0.70722 0.0
C1454 C 0.15829 0.85114 0.69674 0.0
C1455 C 0.15462 0.87642 0.71491 0.0
C1456 C 0.14066 0.87444 0.74426 0.0
H1457 H 0.64009 0.13379 0.20529 0.0
H1458 H 0.5975 0.1641 0.28925 0.0
H1459 H 0.6376 0.14475 0.32105 0.0
H1460 H 0.66708 0.0672 0.23842 0.0
H1461 H 0.70018 0.06862 0.21651 0.0
H1462 H 0.66789 0.08452 0.20078 0.0
H1463 H 0.69439 0.13327 0.19457 0.0
H1464 H 0.72671 0.11752 0.21033 0.0
H1465 H 0.71159 0.14933 0.22801 0.0
H1466 H 0.68451 0.1248 0.34313 0.0
H1467 H 0.73206 0.10274 0.35386 0.0
H1468 H 0.7416 0.08325 0.25536 0.0
C1469 C 0.63902 0.13628 0.23036 0.0
C1470 C 0.61566 0.15056 0.24474 0.0
C1471 C 0.61512 0.15315 0.2777 0.0
C1472 C 0.63784 0.1423 0.29594 0.0
C1473 C 0.66067 0.12856 0.28089 0.0
C1474 C 0.66118 0.12522 0.24886 0.0
C1475 C 0.688 0.10952 0.23825 0.0
C1476 C 0.68032 0.08076 0.22257 0.0
C1477 C 0.70625 0.12855 0.21651 0.0
C1478 C 0.70277 0.10484 0.26929 0.0
C1479 C 0.68684 0.11613 0.29363 0.0
C1480 C 0.69696 0.11557 0.32428 0.0
C1481 C 0.72401 0.10309 0.33014 0.0
C1482 C 0.74042 0.09103 0.30551 0.0
C1483 C 0.72943 0.09186 0.27478 0.0
H1484 H 0.39226 0.77382 0.19319 0.0
H1485 H 0.46855 0.77167 0.25195 0.0
H1486 H 0.45432 0.81726 0.27589 0.0
H1487 H 0.39047 0.85376 0.18314 0.0
H1488 H 0.35173 0.85524 0.18516 0.0
H1489 H 0.36931 0.82377 0.1695 0.0
H1490 H 0.34238 0.79182 0.20944 0.0
H1491 H 0.32486 0.82313 0.22533 0.0
H1492 H 0.34538 0.79976 0.2505 0.0
H1493 H 0.43007 0.85913 0.29826 0.0
H1494 H 0.39735 0.89754 0.31614 0.0
H1495 H 0.33673 0.87538 0.24301 0.0
C1496 C 0.40629 0.78332 0.21054 0.0
C1497 C 0.43166 0.76903 0.22047 0.0
C1498 C 0.44911 0.782 0.24372 0.0
C1499 C 0.44125 0.80805 0.25754 0.0
C1500 C 0.41589 0.82116 0.24786 0.0
C1501 C 0.39871 0.80954 0.22474 0.0
C1502 C 0.37161 0.82747 0.22037 0.0
C1503 C 0.37074 0.84086 0.18759 0.0
C1504 C 0.34446 0.80946 0.2268 0.0
C1505 C 0.37602 0.85035 0.24527 0.0
C1506 C 0.40184 0.8462 0.26067 0.0
C1507 C 0.41001 0.86298 0.28608 0.0
C1508 C 0.39125 0.88457 0.2962 0.0
C1509 C 0.36477 0.88935 0.28082 0.0
C1510 C 0.35717 0.87234 0.25474 0.0
H1511 H 0.73167 0.4274 0.74814 0.0
H1512 H 0.7291 0.39646 0.6526 0.0
H1513 H 0.68177 0.37394 0.66302 0.0
H1514 H 0.70449 0.36381 0.7815 0.0
H1515 H 0.68492 0.38215 0.81189 0.0
H1516 H 0.71682 0.3982 0.79567 0.0
H1517 H 0.68791 0.44425 0.78206 0.0
H1518 H 0.65583 0.42835 0.79819 0.0
H1519 H 0.65582 0.44141 0.75858 0.0
H1520 H 0.63452 0.35399 0.68508 0.0
H1521 H 0.59484 0.33474 0.71756 0.0
H1522 H 0.63176 0.3763 0.79889 0.0
C1523 C 0.72116 0.41625 0.72914 0.0
C1524 C 0.73405 0.4141 0.69936 0.0
C1525 C 0.71958 0.39871 0.6755 0.0
C1526 C 0.69266 0.38588 0.68121 0.0
C1527 C 0.68074 0.38833 0.71099 0.0
C1528 C 0.69478 0.40291 0.7346 0.0
C1529 C 0.67889 0.40063 0.76525 0.0
C1530 C 0.69738 0.38528 0.79002 0.0
C1531 C 0.66902 0.43043 0.77668 0.0
C1532 C 0.65363 0.38235 0.75535 0.0
C1533 C 0.6547 0.37581 0.7239 0.0
C1534 C 0.63353 0.359 0.70972 0.0
C1535 C 0.61103 0.34825 0.72832 0.0
C1536 C 0.61025 0.35393 0.76081 0.0
C1537 C 0.63173 0.37147 0.77421 0.0
H1538 H 0.13315 0.63684 0.30278 0.0
H1539 H 0.17161 0.59718 0.22107 0.0
H1540 H 0.15149 0.63593 0.18807 0.0
H1541 H 0.06686 0.65946 0.26448 0.0
H1542 H 0.06462 0.69238 0.28662 0.0
H1543 H 0.08152 0.66107 0.3034 0.0
H1544 H 0.12788 0.69068 0.31363 0.0
H1545 H 0.1111 0.722 0.29684 0.0
H1546 H 0.14495 0.70919 0.28164 0.0
H1547 H 0.13017 0.6817 0.16473 0.0
H1548 H 0.1066 0.7283 0.15281 0.0
H1549 H 0.07961 0.73513 0.24949 0.0
C1550 C 0.13719 0.63608 0.27794 0.0
C1551 C 0.15403 0.61394 0.26459 0.0
C1552 C 0.15869 0.61384 0.23188 0.0
C1553 C 0.1474 0.63579 0.21293 0.0
C1554 C 0.1311 0.65743 0.22695 0.0
C1555 C 0.12569 0.65747 0.25867 0.0
C1556 C 0.10759 0.6831 0.26814 0.0
C1557 C 0.07841 0.67341 0.28144 0.0
C1558 C 0.12386 0.70237 0.29143 0.0
C1559 C 0.10403 0.69777 0.23687 0.0
C1560 C 0.11786 0.68283 0.21337 0.0
C1561 C 0.1189 0.69334 0.18288 0.0
C1562 C 0.10552 0.71983 0.17633 0.0
C1563 C 0.091 0.73528 0.20011 0.0
C1564 C 0.09011 0.72377 0.23063 0.0
H1565 H 0.87714 0.16369 0.74105 0.0
H1566 H 0.89193 0.10444 0.81754 0.0
H1567 H 0.85309 0.07306 0.79802 0.0
H1568 H 0.80164 0.15947 0.74373 0.0
H1569 H 0.79598 0.1617 0.70219 0.0
H1570 H 0.82749 0.17771 0.71939 0.0
H1571 H 0.86008 0.14784 0.68252 0.0
H1572 H 0.8286 0.13177 0.66513 0.0
H1573 H 0.8564 0.10923 0.68146 0.0
H1574 H 0.81099 0.05036 0.77352 0.0
H1575 H 0.76603 0.03808 0.74676 0.0
H1576 H 0.77627 0.11233 0.68602 0.0
C1577 C 0.8725 0.14374 0.75312 0.0
C1578 C 0.88749 0.1362 0.78062 0.0
C1579 C 0.88055 0.11046 0.79648 0.0
C1580 C 0.85869 0.09246 0.78544 0.0
C1581 C 0.84386 0.10065 0.75863 0.0
C1582 C 0.85029 0.12569 0.74266 0.0
C1583 C 0.8291 0.13063 0.71618 0.0
C1584 C 0.81257 0.15906 0.72066 0.0
C1585 C 0.84447 0.12981 0.68444 0.0
C1586 C 0.80948 0.10478 0.72029 0.0
C1587 C 0.81877 0.08764 0.74464 0.0
C1588 C 0.80363 0.06339 0.75416 0.0
C1589 C 0.77801 0.05662 0.73873 0.0
C1590 C 0.76753 0.07409 0.71405 0.0
C1591 C 0.78383 0.09828 0.70445 0.0
H1592 H 0.57598 0.27315 0.07267 0.0
H1593 H 0.52558 0.19455 0.07529 0.0
H1594 H 0.51097 0.20252 0.02049 0.0
H1595 H 0.5275 0.31447 0.02096 0.0
H1596 H 0.55722 0.3313 1.00101 0.0
H1597 H 0.56078 0.32109 0.0414 0.0
H1598 H 0.60604 0.29093 0.02771 0.0
H1599 H 0.60253 0.3009 0.98734 0.0
H1600 H 0.60357 0.26342 0.99816 0.0
H1601 H 0.50596 0.21675 0.96339 0.0
H1602 H 0.51075 0.23623 0.90984 0.0
H1603 H 0.56424 0.30534 0.94563 0.0
C1604 C 0.56135 0.2579 0.06202 0.0
C1605 C 0.55183 0.23329 0.07841 0.0
C1606 C 0.53304 0.21367 0.06333 0.0
C1607 C 0.52461 0.21802 0.03217 0.0
C1608 C 0.53499 0.24217 0.01647 0.0
C1609 C 0.55279 0.26188 0.03102 0.0
C1610 C 0.56262 0.28501 0.00856 0.0
C1611 C 0.55134 0.31473 0.01859 0.0
C1612 C 0.59564 0.28504 0.00525 0.0
C1613 C 0.54815 0.27489 0.9789 0.0
C1614 C 0.5321 0.2503 0.98386 0.0
C1615 C 0.51816 0.23623 0.95935 0.0
C1616 C 0.52102 0.24743 0.929 0.0
C1617 C 0.53779 0.27236 0.92344 0.0
C1618 C 0.55107 0.28638 0.94896 0.0
H1619 H 0.22931 0.57583 0.44194 0.0
H1620 H 0.2305 0.48506 0.41858 0.0
H1621 H 0.24467 0.47343 0.47305 0.0
H1622 H 0.29234 0.57356 0.49106 0.0
H1623 H 0.2787 0.60024 0.51779 0.0
H1624 H 0.2677 0.60084 0.4775 0.0
H1625 H 0.2142 0.59881 0.49454 0.0
H1626 H 0.22504 0.59809 0.53488 0.0
H1627 H 0.20222 0.57005 0.51961 0.0
H1628 H 0.25624 0.47222 0.53175 0.0
H1629 H 0.27027 0.48183 0.58675 0.0
H1630 H 0.26553 0.57356 0.56897 0.0
C1631 C 0.23251 0.55348 0.44832 0.0
C1632 C 0.22856 0.53127 0.42626 0.0
C1633 C 0.23342 0.50235 0.43524 0.0
C1634 C 0.24132 0.49558 0.46611 0.0
C1635 C 0.24482 0.51806 0.48742 0.0
C1636 C 0.24107 0.54647 0.47866 0.0
C1637 C 0.24747 0.56682 0.50532 0.0
C1638 C 0.27308 0.58652 0.49744 0.0
C1639 C 0.22063 0.58448 0.5141 0.0
C1640 C 0.25518 0.5455 0.53065 0.0
C1641 C 0.25312 0.51743 0.52017 0.0
C1642 C 0.25822 0.49413 0.54004 0.0
C1643 C 0.26603 0.49974 0.57122 0.0
C1644 C 0.26923 0.52838 0.58189 0.0
C1645 C 0.26361 0.55142 0.56129 0.0
H1646 H 0.93348 0.28011 0.06057 0.0
H1647 H 0.02227 0.26627 0.08811 0.0
H1648 H 0.0338 0.25023 0.03425 0.0
H1649 H 0.92839 0.21741 0.01291 0.0
H1650 H 0.90494 0.2341 0.98468 0.0
H1651 H 0.90457 0.24612 0.0246 0.0
H1652 H 0.9151 0.29825 0.00636 0.0
H1653 H 0.91564 0.28637 0.96635 0.0
H1654 H 0.94617 0.30522 0.98232 0.0
H1655 H 0.03516 0.23617 0.97631 0.0
H1656 H 0.02514 0.22014 0.92214 0.0
H1657 H 0.9348 0.24062 0.93499 0.0
C1658 C 0.95544 0.27398 0.05523 0.0
C1659 C 0.97711 0.27475 0.07833 0.0
C1660 C 0.00541 0.2659 0.07064 0.0
C1661 C 0.01214 0.25691 0.04012 0.0
C1662 C 0.99021 0.25652 0.0178 0.0
C1663 C 0.96234 0.26444 0.02523 0.0
C1664 C 0.94219 0.2604 0.99785 0.0
C1665 C 0.91864 0.23819 0.00547 0.0
C1666 C 0.92901 0.28928 0.98762 0.0
C1667 C 0.96301 0.24901 0.97371 0.0
C1668 C 0.99071 0.24728 0.98537 0.0
C1669 C 0.01352 0.23739 0.96703 0.0
C1670 C 0.00769 0.22849 0.93626 0.0
C1671 C 0.97922 0.2291 0.92445 0.0
C1672 C 0.95679 0.23983 0.94342 0.0
H1673 H 0.2594 0.9454 0.42968 0.0
H1674 H 0.28675 0.03405 0.41921 0.0
H1675 H 0.27058 0.04431 0.47337 0.0
H1676 H 0.19527 0.96033 0.47649 0.0
H1677 H 0.20001 0.9282 0.49952 0.0
H1678 H 0.21222 0.92905 0.45964 0.0
H1679 H 0.26345 0.91431 0.47781 0.0
H1680 H 0.25138 0.91364 0.51769 0.0
H1681 H 0.28161 0.93577 0.50679 0.0
H1682 H 0.25561 0.04259 0.5318 0.0
H1683 H 0.23869 0.03035 0.58532 0.0
H1684 H 0.21968 0.94368 0.55414 0.0
C1685 C 0.26161 0.96712 0.43858 0.0
C1686 C 0.27431 0.98895 0.42034 0.0
C1687 C 0.27681 0.01709 0.43277 0.0
C1688 C 0.26785 0.02303 0.46354 0.0
C1689 C 0.25602 1.0007 0.48122 0.0
C1690 C 0.25244 0.97344 0.46881 0.0
C1691 C 0.23961 0.95289 0.49227 0.0
C1692 C 0.21002 0.94199 0.48132 0.0
C1693 C 0.26025 0.92768 0.49903 0.0
C1694 C 0.23683 0.97262 0.5201 0.0
C1695 C 0.24654 1.00008 0.51365 0.0
C1696 C 0.24748 0.02127 0.53684 0.0
C1697 C 0.23797 0.01416 0.56716 0.0
C1698 C 0.22731 0.98627 0.57372 0.0
C1699 C 0.22689 0.96544 0.54974 0.0
H1700 H 0.42929 0.80665 0.94613 0.0
H1701 H 0.48598 0.7398 0.91088 0.0
H1702 H 0.49304 0.7219 0.96472 0.0
H1703 H 0.46742 0.81986 0.01979 0.0
H1704 H 0.43444 0.82522 0.04119 0.0
H1705 H 0.43615 0.83427 1.00034 0.0
H1706 H 0.3925 0.80106 0.98938 0.0
H1707 H 0.39065 0.79192 0.03012 0.0
H1708 H 0.39398 0.76387 1.00129 0.0
H1709 H 0.49075 0.70906 0.02224 0.0
H1710 H 0.47886 0.70201 0.07791 0.0
H1711 H 0.42366 0.77742 0.07502 0.0
C1712 C 0.44361 0.78854 0.94967 0.0
C1713 C 0.45719 0.77472 0.92418 0.0
C1714 C 0.47541 0.75083 0.92998 0.0
C1715 C 0.4796 0.74054 0.96051 0.0
C1716 C 0.46549 0.75442 0.98503 0.0
C1717 C 0.44793 0.77797 0.97989 0.0
C1718 C 0.43381 0.78801 0.00985 0.0
C1719 C 0.44355 0.81866 0.01829 0.0
C1720 C 0.40079 0.78609 0.00751 0.0
C1721 C 0.44572 0.76611 0.03263 0.0
C1722 C 0.46415 0.74704 0.01796 0.0
C1723 C 0.47662 0.72408 0.034 0.0
C1724 C 0.46974 0.72026 0.06567 0.0
C1725 C 0.45047 0.73926 0.08101 0.0
C1726 C 0.43876 0.76272 0.06422 0.0
H1727 H 0.73299 0.43616 0.567 0.0
H1728 H 0.81854 0.47352 0.5675 0.0
H1729 H 0.81231 0.48795 0.51227 0.0
H1730 H 0.73684 0.4055 0.49399 0.0
H1731 H 0.6999 0.41234 0.48343 0.0
H1732 H 0.70965 0.40865 0.52382 0.0
H1733 H 0.68757 0.45873 0.53581 0.0
H1734 H 0.67756 0.4625 0.49537 0.0
H1735 H 0.69932 0.48969 0.5139 0.0
H1736 H 0.7987 0.49227 0.45449 0.0
H1737 H 0.77845 0.4875 0.40121 0.0
H1738 H 0.70155 0.44867 0.4403 0.0
C1739 C 0.7502 0.44798 0.55578 0.0
C1740 C 0.77621 0.4538 0.57163 0.0
C1741 C 0.79828 0.46909 0.55594 0.0
C1742 C 0.79495 0.47731 0.52453 0.0
C1743 C 0.76928 0.47045 0.5093 0.0
C1744 C 0.74715 0.45645 0.52464 0.0
C1745 C 0.72244 0.44979 0.50281 0.0
C1746 C 0.71691 0.41714 0.50091 0.0
C1747 C 0.69511 0.46616 0.51256 0.0
C1748 C 0.73443 0.46133 0.47251 0.0
C1749 C 0.76137 0.47336 0.47657 0.0
C1750 C 0.77739 0.48337 0.4512 0.0
C1751 C 0.76573 0.48057 0.42099 0.0
C1752 C 0.73834 0.46781 0.41644 0.0
C1753 C 0.72242 0.45874 0.44278 0.0
H1754 H 0.07935 0.77541 0.06611 0.0
H1755 H 0.98788 0.77747 0.08612 0.0
H1756 H 0.97748 0.76447 0.03103 0.0
H1757 H 0.07695 0.80389 0.98885 0.0
H1758 H 0.10461 0.78028 0.97412 0.0
H1759 H 0.1045 0.79044 0.01469 0.0
H1760 H 0.10409 0.73667 0.0308 0.0
H1761 H 0.1044 0.72634 0.9903 0.0
H1762 H 0.07641 0.71329 0.01574 0.0
H1763 H 0.97768 0.75363 0.97233 0.0
H1764 H 0.98834 0.73944 0.9177 0.0
H1765 H 0.0797 0.74075 0.93848 0.0
C1766 C 0.0571 0.77314 0.05889 0.0
C1767 C 0.03435 0.77767 0.08018 0.0
C1768 C 0.00557 0.77405 0.07008 0.0
C1769 C 0.99951 0.76684 0.03885 0.0
C1770 C 0.02252 0.76283 0.01831 0.0
C1771 C 0.05075 0.76532 0.02816 0.0
C1772 C 0.0717 0.75858 0.00212 0.0
C1773 C 0.09055 0.78487 0.9945 0.0
C1774 C 0.09023 0.73215 0.01023 0.0
C1775 C 0.05091 0.75208 0.97589 0.0
C1776 C 0.02262 0.75507 0.98543 0.0
C1777 C 0.99974 0.75098 0.96475 0.0
C1778 C 0.00598 0.7431 0.93377 0.0
C1779 C 0.03479 0.73888 0.92403 0.0
C1780 C 0.05744 0.74362 0.94539 0.0
H1781 H 0.74383 0.08221 0.56734 0.0
H1782 H 0.73012 0.99133 0.58481 0.0
H1783 H 0.74486 0.98033 0.53042 0.0
H1784 H 0.71874 0.08437 0.48939 0.0
H1785 H 0.74581 0.10935 0.4762 0.0
H1786 H 0.73438 0.10973 0.51634 0.0
H1787 H 0.7872 0.10277 0.53439 0.0
H1788 H 0.79882 0.10254 0.49429 0.0
H1789 H 0.80777 0.07282 0.51955 0.0
H1790 H 0.7577 0.98026 0.4722 0.0
H1791 H 0.77329 0.99044 0.41787 0.0
H1792 H 0.78208 0.08084 0.4411 0.0
C1793 C 0.74408 0.05997 0.55976 0.0
C1794 C 0.73571 0.03759 0.5801 0.0
C1795 C 0.73658 0.00874 0.56952 0.0
C1796 C 0.74477 0.00234 0.53868 0.0
C1797 C 0.75254 0.02501 0.51903 0.0
C1798 C 0.75278 0.05319 0.52943 0.0
C1799 C 0.76271 0.07365 0.50418 0.0
C1800 C 0.73899 0.09556 0.49605 0.0
C1801 C 0.7908 0.08883 0.51367 0.0
C1802 C 0.76767 0.05269 0.47772 0.0
C1803 C 0.76137 0.02476 0.48648 0.0
C1804 C 0.76307 0.002 0.46526 0.0
C1805 C 0.77179 0.00796 0.43448 0.0
C1806 C 0.77917 0.03632 0.4255 0.0
C1807 C 0.777 0.05886 0.44748 0.0
loop_
_geom_bond_atom_site_label_1
_geom_bond_atom_site_label_2
_geom_bond_distance
_geom_bond_site_symmetry_2
_ccdc_geom_bond_type
Co0 O2 2.143 . S
Co0 O8 2.074 . S
Co0 O11 2.093 . S
Co0 O24 2.097 . S
Co0 N41 2.151 . S
Co0 N49 2.214 . S
Co1 O2 2.160 . S
Co1 O7 2.058 . S
Co1 O17 2.057 . S
Co1 O32 2.037 . S
Co1 N36 2.145 . S
Co1 N57 2.257 . S
O2 Co0 2.143 . S
O2 Co1 2.160 . S
C3 O4 1.278 . S
C3 O11 1.224 . S
O4 C3 1.278 . S
C5 O6 1.245 . S
C5 O17 1.232 . S
O6 C5 1.245 . S
O7 Co1 2.058 . S
O7 C33 1.269 . S
O8 Co0 2.074 . S
O8 C33 1.257 . S
H9 C34 0.930 . S
H10 C40 0.930 . S
O11 Co0 2.093 . S
O11 C3 1.224 . S
H12 C44 0.929 . S
H13 C46 0.930 . S
H14 C47 0.930 . S
H15 C45 0.929 . S
H16 C48 0.928 . S
O17 Co1 2.057 . S
O17 C5 1.232 . S
H18 C37 0.929 . S
H19 C38 0.929 . S
H20 C50 0.931 . S
H21 C42 0.929 . S
H22 C51 0.930 . S
H23 C43 0.931 . S
O24 Co0 2.097 . S
O24 C52 1.214 . S
H25 C53 0.929 . S
H26 C54 0.929 . S
H27 C55 0.930 . S
H28 C56 0.929 . S
H29 C58 0.930 . S
H30 C35 0.930 . S
H31 C39 0.930 . S
O32 Co1 2.037 . S
O32 C52 1.234 . S
C33 O7 1.269 . S
C33 O8 1.257 . S
C34 H9 0.930 . S
C34 C37 1.388 . S
C34 C39 1.418 . S
C35 H30 0.930 . S
C35 C38 1.404 . S
C35 C39 1.353 . S
N36 Co1 2.145 . S
N36 C37 1.397 . S
N36 C38 1.334 . S
C37 H18 0.929 . S
C37 C34 1.388 . S
C37 N36 1.397 . S
C38 H19 0.929 . S
C38 C35 1.404 . S
C38 N36 1.334 . S
C39 H31 0.930 . S
C39 C34 1.418 . S
C39 C35 1.353 . S
C40 H10 0.930 . S
C40 N41 1.330 . S
C40 C42 1.446 . S
N41 Co0 2.151 . S
N41 C40 1.330 . S
N41 C45 1.418 . S
C42 H21 0.929 . S
C42 C40 1.446 . S
C42 C43 1.332 . S
C43 H23 0.931 . S
C43 C42 1.332 . S
C43 C44 1.267 . S
C44 H12 0.929 . S
C44 C43 1.267 . S
C44 C45 1.251 . S
C45 H15 0.929 . S
C45 N41 1.418 . S
C45 C44 1.251 . S
C46 H13 0.930 . S
C46 C48 1.406 . S
C46 C51 1.261 . S
C47 H14 0.930 . S
C47 N49 1.325 . S
C47 C50 1.357 . S
C48 H16 0.928 . S
C48 C46 1.406 . S
C48 N49 1.261 . S
N49 Co0 2.214 . S
N49 C47 1.325 . S
N49 C48 1.261 . S
C50 H20 0.931 . S
C50 C47 1.357 . S
C50 C51 1.312 . S
C51 H22 0.930 . S
C51 C46 1.261 . S
C51 C50 1.312 . S
C52 O24 1.214 . S
C52 O32 1.234 . S
C53 H25 0.929 . S
C53 C56 1.391 . S
C53 C58 1.391 . S
C54 H26 0.929 . S
C54 C55 1.390 . S
C54 N57 1.391 . S
C55 H27 0.930 . S
C55 C54 1.390 . S
C55 C56 1.392 . S
C56 H28 0.929 . S
C56 C53 1.391 . S
C56 C55 1.392 . S
N57 Co1 2.257 . S
N57 C54 1.391 . S
N57 C58 1.388 . S
C58 H29 0.930 . S
C58 C53 1.391 . S
C58 N57 1.388 . S
Co59 O61 2.143 . S
Co59 O67 2.074 . S
Co59 O70 2.093 . S
Co59 O83 2.097 . S
Co59 N100 2.151 . S
Co59 N108 2.214 . S
Co60 O61 2.160 . S
Co60 O66 2.058 . S
Co60 O76 2.057 . S
Co60 O91 2.037 . S
Co60 N95 2.145 . S
Co60 N116 2.257 . S
O61 Co59 2.143 . S
O61 Co60 2.160 . S
C62 O63 1.278 . S
C62 O70 1.224 . S
O63 C62 1.278 . S
C64 O65 1.245 . S
C64 O76 1.232 . S
O65 C64 1.245 . S
O66 Co60 2.058 . S
O66 C92 1.269 . S
O67 Co59 2.074 . S
O67 C92 1.257 . S
H68 C93 0.930 . S
H69 C99 0.930 . S
O70 Co59 2.093 . S
O70 C62 1.224 . S
H71 C103 0.929 . S
H72 C105 0.930 . S
H73 C106 0.930 . S
H74 C104 0.929 . S
H75 C107 0.928 . S
O76 Co60 2.057 . S
O76 C64 1.232 . S
H77 C96 0.929 . S
H78 C97 0.929 . S
H79 C109 0.931 . S
H80 C101 0.929 . S
H81 C110 0.930 . S
H82 C102 0.931 . S
O83 Co59 2.097 . S
O83 C111 1.214 . S
H84 C112 0.929 . S
H85 C113 0.929 . S
H86 C114 0.930 . S
H87 C115 0.929 . S
H88 C117 0.930 . S
H89 C94 0.930 . S
H90 C98 0.930 . S
O91 Co60 2.037 . S
O91 C111 1.234 . S
C92 O66 1.269 . S
C92 O67 1.257 . S
C93 H68 0.930 . S
C93 C96 1.388 . S
C93 C98 1.418 . S
C94 H89 0.930 . S
C94 C97 1.404 . S
C94 C98 1.353 . S
N95 Co60 2.145 . S
N95 C96 1.397 . S
N95 C97 1.334 . S
C96 H77 0.929 . S
C96 C93 1.388 . S
C96 N95 1.397 . S
C97 H78 0.929 . S
C97 C94 1.404 . S
C97 N95 1.334 . S
C98 H90 0.930 . S
C98 C93 1.418 . S
C98 C94 1.353 . S
C99 H69 0.930 . S
C99 N100 1.330 . S
C99 C101 1.446 . S
N100 Co59 2.151 . S
N100 C99 1.330 . S
N100 C104 1.418 . S
C101 H80 0.929 . S
C101 C99 1.446 . S
C101 C102 1.332 . S
C102 H82 0.931 . S
C102 C101 1.332 . S
C102 C103 1.267 . S
C103 H71 0.929 . S
C103 C102 1.267 . S
C103 C104 1.251 . S
C104 H74 0.929 . S
C104 N100 1.418 . S
C104 C103 1.251 . S
C105 H72 0.930 . S
C105 C107 1.406 . S
C105 C110 1.261 . S
C106 H73 0.930 . S
C106 N108 1.325 . S
C106 C109 1.357 . S
C107 H75 0.928 . S
C107 C105 1.406 . S
C107 N108 1.261 . S
N108 Co59 2.214 . S
N108 C106 1.325 . S
N108 C107 1.261 . S
C109 H79 0.931 . S
C109 C106 1.357 . S
C109 C110 1.312 . S
C110 H81 0.930 . S
C110 C105 1.261 . S
C110 C109 1.312 . S
C111 O83 1.214 . S
C111 O91 1.234 . S
C112 H84 0.929 . S
C112 C115 1.391 . S
C112 C117 1.391 . S
C113 H85 0.929 . S
C113 C114 1.390 . S
C113 N116 1.391 . S
C114 H86 0.930 . S
C114 C113 1.390 . S
C114 C115 1.392 . S
C115 H87 0.929 . S
C115 C112 1.391 . S
C115 C114 1.392 . S
N116 Co60 2.257 . S
N116 C113 1.391 . S
N116 C117 1.388 . S
C117 H88 0.930 . S
C117 C112 1.391 . S
C117 N116 1.388 . S
Co118 O120 2.143 . S
Co118 O126 2.074 . S
Co118 O129 2.093 . S
Co118 O142 2.097 . S
Co118 N159 2.151 . S
Co118 N167 2.214 . S
Co119 O120 2.160 . S
Co119 O125 2.058 . S
Co119 O135 2.057 1_655 S
Co119 O150 2.037 . S
Co119 N154 2.145 . S
Co119 N175 2.257 1_655 S
O120 Co118 2.143 . S
O120 Co119 2.160 . S
C121 O122 1.278 1_655 S
C121 O129 1.224 . S
O122 C121 1.278 1_455 S
C123 O124 1.245 . S
C123 O135 1.232 . S
O124 C123 1.245 . S
O125 Co119 2.058 . S
O125 C151 1.269 . S
O126 Co118 2.074 . S
O126 C151 1.257 . S
H127 C152 0.930 . S
H128 C158 0.930 . S
O129 Co118 2.093 . S
O129 C121 1.224 . S
H130 C162 0.929 . S
H131 C164 0.930 . S
H132 C165 0.930 . S
H133 C163 0.929 . S
H134 C166 0.928 . S
O135 Co119 2.057 1_455 S
O135 C123 1.232 . S
H136 C155 0.929 . S
H137 C156 0.929 . S
H138 C168 0.931 . S
H139 C160 0.929 . S
H140 C169 0.930 . S
H141 C161 0.931 . S
O142 Co118 2.097 . S
O142 C170 1.214 . S
H143 C171 0.929 . S
H144 C172 0.940 . S
H145 C173 0.930 . S
H146 C174 0.929 . S
H147 C176 0.930 . S
H148 C153 0.930 . S
H149 C157 0.930 1_455 S
O150 Co119 2.037 . S
O150 C170 1.234 . S
C151 O125 1.269 . S
C151 O126 1.257 . S
C152 H127 0.930 . S
C152 C155 1.388 . S
C152 C157 1.418 . S
C153 H148 0.930 . S
C153 C156 1.404 . S
C153 C157 1.353 1_455 S
N154 Co119 2.145 . S
N154 C155 1.397 . S
N154 C156 1.334 1_655 S
C155 H136 0.929 . S
C155 C152 1.388 . S
C155 N154 1.397 . S
C156 H137 0.929 . S
C156 C153 1.404 . S
C156 N154 1.334 1_455 S
C157 H149 0.930 1_655 S
C157 C152 1.418 . S
C157 C153 1.353 1_655 S
C158 H128 0.930 . S
C158 N159 1.330 . S
C158 C160 1.446 . S
N159 Co118 2.151 . S
N159 C158 1.330 . S
N159 C163 1.418 . S
C160 H139 0.929 . S
C160 C158 1.446 . S
C160 C161 1.332 . S
C161 H141 0.931 . S
C161 C160 1.332 . S
C161 C162 1.267 . S
C162 H130 0.929 . S
C162 C161 1.267 . S
C162 C163 1.251 . S
C163 H133 0.929 . S
C163 N159 1.418 . S
C163 C162 1.251 . S
C164 H131 0.930 . S
C164 C166 1.406 . S
C164 C169 1.261 . S
C165 H132 0.930 . S
C165 N167 1.325 . S
C165 C168 1.357 . S
C166 H134 0.928 . S
C166 C164 1.406 . S
C166 N167 1.261 . S
N167 Co118 2.214 . S
N167 C165 1.325 . S
N167 C166 1.261 . S
C168 H138 0.931 . S
C168 C165 1.357 . S
C168 C169 1.312 . S
C169 H140 0.930 . S
C169 C164 1.261 . S
C169 C168 1.312 . S
C170 O142 1.214 . S
C170 O150 1.234 . S
C171 H143 0.929 . S
C171 C174 1.391 . S
C171 C176 1.391 . S
C172 H144 0.940 . S
C172 C173 1.390 . S
C172 N175 1.391 . S
C173 H145 0.930 . S
C173 C172 1.390 . S
C173 C174 1.392 . S
C174 H146 0.929 . S
C174 C171 1.391 . S
C174 C173 1.392 . S
N175 Co119 2.257 1_455 S
N175 C172 1.391 . S
N175 C176 1.388 . S
C176 H147 0.930 . S
C176 C171 1.391 . S
C176 N175 1.388 . S
Co177 O179 2.143 . S
Co177 O185 2.074 . S
Co177 O188 2.093 . S
Co177 O201 2.097 . S
Co177 N218 2.151 . S
Co177 N226 2.214 . S
Co178 O179 2.160 . S
Co178 O184 2.058 . S
Co178 O194 2.057 1_565 S
Co178 O209 2.037 . S
Co178 N213 2.145 . S
Co178 N234 2.257 1_565 S
O179 Co177 2.143 . S
O179 Co178 2.160 . S
C180 O181 1.278 1_565 S
C180 O188 1.224 . S
O181 C180 1.278 1_545 S
C182 O183 1.245 . S
C182 O194 1.232 . S
O183 C182 1.245 . S
O184 Co178 2.058 . S
O184 C210 1.269 . S
O185 Co177 2.074 . S
O185 C210 1.257 . S
H186 C211 0.930 . S
H187 C217 0.930 . S
O188 Co177 2.093 . S
O188 C180 1.224 . S
H189 C221 0.929 . S
H190 C223 0.930 . S
H191 C224 0.930 . S
H192 C222 0.929 . S
H193 C225 0.928 . S
O194 Co178 2.057 1_545 S
O194 C182 1.232 . S
H195 C214 0.929 . S
H196 C215 0.929 . S
H197 C227 0.931 . S
H198 C219 0.929 . S
H199 C228 0.930 . S
H200 C220 0.931 . S
O201 Co177 2.097 . S
O201 C229 1.214 . S
H202 C230 0.929 . S
H203 C231 0.940 . S
H204 C232 0.930 . S
H205 C233 0.929 . S
H206 C235 0.930 . S
H207 C212 0.930 . S
H208 C216 0.930 1_545 S
O209 Co178 2.037 . S
O209 C229 1.234 . S
C210 O184 1.269 . S
C210 O185 1.257 . S
C211 H186 0.930 . S
C211 C214 1.388 . S
C211 C216 1.418 . S
C212 H207 0.930 . S
C212 C215 1.404 . S
C212 C216 1.353 1_545 S
N213 Co178 2.145 . S
N213 C214 1.397 . S
N213 C215 1.334 1_565 S
C214 H195 0.929 . S
C214 C211 1.388 . S
C214 N213 1.397 . S
C215 H196 0.929 . S
C215 C212 1.404 . S
C215 N213 1.334 1_545 S
C216 H208 0.930 1_565 S
C216 C211 1.418 . S
C216 C212 1.353 1_565 S
C217 H187 0.930 . S
C217 N218 1.330 . S
C217 C219 1.446 . S
N218 Co177 2.151 . S
N218 C217 1.330 . S
N218 C222 1.418 . S
C219 H198 0.929 . S
C219 C217 1.446 . S
C219 C220 1.332 . S
C220 H200 0.931 . S
C220 C219 1.332 . S
C220 C221 1.267 . S
C221 H189 0.929 . S
C221 C220 1.267 . S
C221 C222 1.251 . S
C222 H192 0.929 . S
C222 N218 1.418 . S
C222 C221 1.251 . S
C223 H190 0.930 . S
C223 C225 1.406 . S
C223 C228 1.261 . S
C224 H191 0.930 . S
C224 N226 1.325 . S
C224 C227 1.357 . S
C225 H193 0.928 . S
C225 C223 1.406 . S
C225 N226 1.261 . S
N226 Co177 2.214 . S
N226 C224 1.325 . S
N226 C225 1.261 . S
C227 H197 0.931 . S
C227 C224 1.357 . S
C227 C228 1.312 . S
C228 H199 0.930 . S
C228 C223 1.261 . S
C228 C227 1.312 . S
C229 O201 1.214 . S
C229 O209 1.234 . S
C230 H202 0.929 . S
C230 C233 1.391 . S
C230 C235 1.391 . S
C231 H203 0.940 . S
C231 C232 1.390 . S
C231 N234 1.391 . S
C232 H204 0.930 . S
C232 C231 1.390 . S
C232 C233 1.392 . S
C233 H205 0.929 . S
C233 C230 1.391 . S
C233 C232 1.392 . S
N234 Co178 2.257 1_545 S
N234 C231 1.391 . S
N234 C235 1.388 . S
C235 H206 0.930 . S
C235 C230 1.391 . S
C235 N234 1.388 . S
Co236 O238 2.143 . S
Co236 O244 2.074 . S
Co236 O247 2.093 . S
Co236 O260 2.097 . S
Co236 N277 2.151 . S
Co236 N285 2.214 . S
Co237 O238 2.160 . S
Co237 O243 2.058 . S
Co237 O253 2.057 . S
Co237 O268 2.037 . S
Co237 N272 2.145 . S
Co237 N293 2.257 . S
O238 Co236 2.143 . S
O238 Co237 2.160 . S
C239 O240 1.278 . S
C239 O247 1.224 . S
O240 C239 1.278 . S
C241 O242 1.245 . S
C241 O253 1.232 . S
O242 C241 1.245 . S
O243 Co237 2.058 . S
O243 C269 1.269 . S
O244 Co236 2.074 . S
O244 C269 1.257 . S
H245 C270 0.930 . S
H246 C276 0.930 . S
O247 Co236 2.093 . S
O247 C239 1.224 . S
H248 C280 0.929 . S
H249 C282 0.930 . S
H250 C283 0.930 . S
H251 C281 0.929 . S
H252 C284 0.928 . S
O253 Co237 2.057 . S
O253 C241 1.232 . S
H254 C273 0.929 . S
H255 C274 0.929 . S
H256 C286 0.931 . S
H257 C278 0.929 . S
H258 C287 0.930 . S
H259 C279 0.931 . S
O260 Co236 2.097 . S
O260 C288 1.214 . S
H261 C289 0.929 . S
H262 C290 0.929 . S
H263 C291 0.930 . S
H264 C292 0.929 . S
H265 C294 0.930 . S
H266 C271 0.930 . S
H267 C275 0.930 . S
O268 Co237 2.037 . S
O268 C288 1.234 . S
C269 O243 1.269 . S
C269 O244 1.257 . S
C270 H245 0.930 . S
C270 C273 1.388 . S
C270 C275 1.418 . S
C271 H266 0.930 . S
C271 C274 1.404 . S
C271 C275 1.353 . S
N272 Co237 2.145 . S
N272 C273 1.397 . S
N272 C274 1.334 . S
C273 H254 0.929 . S
C273 C270 1.388 . S
C273 N272 1.397 . S
C274 H255 0.929 . S
C274 C271 1.404 . S
C274 N272 1.334 . S
C275 H267 0.930 . S
C275 C270 1.418 . S
C275 C271 1.353 . S
C276 H246 0.930 . S
C276 N277 1.330 . S
C276 C278 1.446 . S
N277 Co236 2.151 . S
N277 C276 1.330 . S
N277 C281 1.418 . S
C278 H257 0.929 . S
C278 C276 1.446 . S
C278 C279 1.332 . S
C279 H259 0.931 . S
C279 C278 1.332 . S
C279 C280 1.267 . S
C280 H248 0.929 . S
C280 C279 1.267 . S
C280 C281 1.251 . S
C281 H251 0.929 . S
C281 N277 1.418 . S
C281 C280 1.251 . S
C282 H249 0.930 . S
C282 C284 1.406 . S
C282 C287 1.261 . S
C283 H250 0.930 . S
C283 N285 1.325 . S
C283 C286 1.357 . S
C284 H252 0.928 . S
C284 C282 1.406 . S
C284 N285 1.261 . S
N285 Co236 2.214 . S
N285 C283 1.325 . S
N285 C284 1.261 . S
C286 H256 0.931 . S
C286 C283 1.357 . S
C286 C287 1.312 . S
C287 H258 0.930 . S
C287 C282 1.261 . S
C287 C286 1.312 . S
C288 O260 1.214 . S
C288 O268 1.234 . S
C289 H261 0.929 . S
C289 C292 1.391 . S
C289 C294 1.391 . S
C290 H262 0.929 . S
C290 C291 1.390 . S
C290 N293 1.391 . S
C291 H263 0.930 . S
C291 C290 1.390 . S
C291 C292 1.392 . S
C292 H264 0.929 . S
C292 C289 1.391 . S
C292 C291 1.392 . S
N293 Co237 2.257 . S
N293 C290 1.391 . S
N293 C294 1.388 . S
C294 H265 0.930 . S
C294 C289 1.391 . S
C294 N293 1.388 . S
Co295 O297 2.143 . S
Co295 O303 2.074 . S
Co295 O306 2.093 . S
Co295 O319 2.097 . S
Co295 N336 2.151 . S
Co295 N344 2.214 . S
Co296 O297 2.160 . S
Co296 O302 2.058 . S
Co296 O312 2.057 . S
Co296 O327 2.037 . S
Co296 N331 2.145 . S
Co296 N352 2.257 . S
O297 Co295 2.143 . S
O297 Co296 2.160 . S
C298 O299 1.278 . S
C298 O306 1.224 . S
O299 C298 1.278 . S
C300 O301 1.245 . S
C300 O312 1.232 . S
O301 C300 1.245 . S
O302 Co296 2.058 . S
O302 C328 1.269 . S
O303 Co295 2.074 . S
O303 C328 1.257 . S
H304 C329 0.930 . S
H305 C335 0.930 . S
O306 Co295 2.093 . S
O306 C298 1.224 . S
H307 C339 0.929 . S
H308 C341 0.930 . S
H309 C342 0.930 . S
H310 C340 0.929 . S
H311 C343 0.928 . S
O312 Co296 2.057 . S
O312 C300 1.232 . S
H313 C332 0.929 . S
H314 C333 0.929 . S
H315 C345 0.931 . S
H316 C337 0.929 . S
H317 C346 0.930 . S
H318 C338 0.931 . S
O319 Co295 2.097 . S
O319 C347 1.214 . S
H320 C348 0.929 . S
H321 C349 0.929 . S
H322 C350 0.930 . S
H323 C351 0.929 . S
H324 C353 0.930 . S
H325 C330 0.930 . S
H326 C334 0.930 . S
O327 Co296 2.037 . S
O327 C347 1.234 . S
C328 O302 1.269 . S
C328 O303 1.257 . S
C329 H304 0.930 . S
C329 C332 1.388 . S
C329 C334 1.418 . S
C330 H325 0.930 . S
C330 C333 1.404 . S
C330 C334 1.353 . S
N331 Co296 2.145 . S
N331 C332 1.397 . S
N331 C333 1.334 . S
C332 H313 0.929 . S
C332 C329 1.388 . S
C332 N331 1.397 . S
C333 H314 0.929 . S
C333 C330 1.404 . S
C333 N331 1.334 . S
C334 H326 0.930 . S
C334 C329 1.418 . S
C334 C330 1.353 . S
C335 H305 0.930 . S
C335 N336 1.330 . S
C335 C337 1.446 . S
N336 Co295 2.151 . S
N336 C335 1.330 . S
N336 C340 1.418 . S
C337 H316 0.929 . S
C337 C335 1.446 . S
C337 C338 1.332 . S
C338 H318 0.931 . S
C338 C337 1.332 . S
C338 C339 1.267 . S
C339 H307 0.929 . S
C339 C338 1.267 . S
C339 C340 1.251 . S
C340 H310 0.929 . S
C340 N336 1.418 . S
C340 C339 1.251 . S
C341 H308 0.930 . S
C341 C343 1.406 . S
C341 C346 1.261 . S
C342 H309 0.930 . S
C342 N344 1.325 . S
C342 C345 1.357 . S
C343 H311 0.928 . S
C343 C341 1.406 . S
C343 N344 1.261 . S
N344 Co295 2.214 . S
N344 C342 1.325 . S
N344 C343 1.261 . S
C345 H315 0.931 . S
C345 C342 1.357 . S
C345 C346 1.312 . S
C346 H317 0.930 . S
C346 C341 1.261 . S
C346 C345 1.312 . S
C347 O319 1.214 . S
C347 O327 1.234 . S
C348 H320 0.929 . S
C348 C351 1.391 . S
C348 C353 1.391 . S
C349 H321 0.929 . S
C349 C350 1.390 . S
C349 N352 1.391 . S
C350 H322 0.930 . S
C350 C349 1.390 . S
C350 C351 1.392 . S
C351 H323 0.929 . S
C351 C348 1.391 . S
C351 C350 1.392 . S
N352 Co296 2.257 . S
N352 C349 1.391 . S
N352 C353 1.388 . S
C353 H324 0.930 . S
C353 C348 1.391 . S
C353 N352 1.388 . S
Co354 O356 2.143 . S
Co354 O362 2.074 . S
Co354 O365 2.093 . S
Co354 O378 2.097 . S
Co354 N395 2.151 . S
Co354 N403 2.214 . S
Co355 O356 2.160 . S
Co355 O361 2.058 . S
Co355 O371 2.057 1_655 S
Co355 O386 2.037 . S
Co355 N390 2.145 . S
Co355 N411 2.257 1_655 S
O356 Co354 2.143 . S
O356 Co355 2.160 . S
C357 O358 1.278 1_655 S
C357 O365 1.224 . S
O358 C357 1.278 1_455 S
C359 O360 1.245 . S
C359 O371 1.232 . S
O360 C359 1.245 . S
O361 Co355 2.058 . S
O361 C387 1.269 . S
O362 Co354 2.074 . S
O362 C387 1.257 . S
H363 C388 0.930 . S
H364 C394 0.930 . S
O365 Co354 2.093 . S
O365 C357 1.224 . S
H366 C398 0.929 . S
H367 C400 0.930 . S
H368 C401 0.930 . S
H369 C399 0.929 . S
H370 C402 0.928 . S
O371 Co355 2.057 1_455 S
O371 C359 1.232 . S
H372 C391 0.929 . S
H373 C392 0.929 . S
H374 C404 0.931 . S
H375 C396 0.929 . S
H376 C405 0.930 . S
H377 C397 0.931 . S
O378 Co354 2.097 . S
O378 C406 1.214 . S
H379 C407 0.929 . S
H380 C408 0.940 . S
H381 C409 0.930 . S
H382 C410 0.929 . S
H383 C412 0.930 . S
H384 C389 0.930 . S
H385 C393 0.930 1_455 S
O386 Co355 2.037 . S
O386 C406 1.234 . S
C387 O361 1.269 . S
C387 O362 1.257 . S
C388 H363 0.930 . S
C388 C391 1.388 . S
C388 C393 1.418 . S
C389 H384 0.930 . S
C389 C392 1.404 . S
C389 C393 1.353 1_455 S
N390 Co355 2.145 . S
N390 C391 1.397 . S
N390 C392 1.334 1_655 S
C391 H372 0.929 . S
C391 C388 1.388 . S
C391 N390 1.397 . S
C392 H373 0.929 . S
C392 C389 1.404 . S
C392 N390 1.334 1_455 S
C393 H385 0.930 1_655 S
C393 C388 1.418 . S
C393 C389 1.353 1_655 S
C394 H364 0.930 . S
C394 N395 1.330 . S
C394 C396 1.446 . S
N395 Co354 2.151 . S
N395 C394 1.330 . S
N395 C399 1.418 . S
C396 H375 0.929 . S
C396 C394 1.446 . S
C396 C397 1.332 . S
C397 H377 0.931 . S
C397 C396 1.332 . S
C397 C398 1.267 . S
C398 H366 0.929 . S
C398 C397 1.267 . S
C398 C399 1.251 . S
C399 H369 0.929 . S
C399 N395 1.418 . S
C399 C398 1.251 . S
C400 H367 0.930 . S
C400 C402 1.406 . S
C400 C405 1.261 . S
C401 H368 0.930 . S
C401 N403 1.325 . S
C401 C404 1.357 . S
C402 H370 0.928 . S
C402 C400 1.406 . S
C402 N403 1.261 . S
N403 Co354 2.214 . S
N403 C401 1.325 . S
N403 C402 1.261 . S
C404 H374 0.931 . S
C404 C401 1.357 . S
C404 C405 1.312 . S
C405 H376 0.930 . S
C405 C400 1.261 . S
C405 C404 1.312 . S
C406 O378 1.214 . S
C406 O386 1.234 . S
C407 H379 0.929 . S
C407 C410 1.391 . S
C407 C412 1.391 . S
C408 H380 0.940 . S
C408 C409 1.390 . S
C408 N411 1.391 . S
C409 H381 0.930 . S
C409 C408 1.390 . S
C409 C410 1.392 . S
C410 H382 0.929 . S
C410 C407 1.391 . S
C410 C409 1.392 . S
N411 Co355 2.257 1_455 S
N411 C408 1.391 . S
N411 C412 1.388 . S
C412 H383 0.930 . S
C412 C407 1.391 . S
C412 N411 1.388 . S
Co413 O415 2.143 . S
Co413 O421 2.074 . S
Co413 O424 2.093 . S
Co413 O437 2.097 . S
Co413 N454 2.151 . S
Co413 N462 2.214 . S
Co414 O415 2.160 . S
Co414 O420 2.058 . S
Co414 O430 2.057 1_565 S
Co414 O445 2.037 . S
Co414 N449 2.145 . S
Co414 N470 2.257 1_565 S
O415 Co413 2.143 . S
O415 Co414 2.160 . S
C416 O417 1.278 1_565 S
C416 O424 1.224 . S
O417 C416 1.278 1_545 S
C418 O419 1.245 . S
C418 O430 1.232 . S
O419 C418 1.245 . S
O420 Co414 2.058 . S
O420 C446 1.269 . S
O421 Co413 2.074 . S
O421 C446 1.257 . S
H422 C447 0.930 . S
H423 C453 0.930 . S
O424 Co413 2.093 . S
O424 C416 1.224 . S
H425 C457 0.929 . S
H426 C459 0.930 . S
H427 C460 0.930 . S
H428 C458 0.929 . S
H429 C461 0.928 . S
O430 Co414 2.057 1_545 S
O430 C418 1.232 . S
H431 C450 0.929 . S
H432 C451 0.929 . S
H433 C463 0.931 . S
H434 C455 0.929 . S
H435 C464 0.930 . S
H436 C456 0.931 . S
O437 Co413 2.097 . S
O437 C465 1.214 . S
H438 C466 0.929 . S
H439 C467 0.940 . S
H440 C468 0.930 . S
H441 C469 0.929 . S
H442 C471 0.930 . S
H443 C448 0.930 . S
H444 C452 0.930 1_545 S
O445 Co414 2.037 . S
O445 C465 1.234 . S
C446 O420 1.269 . S
C446 O421 1.257 . S
C447 H422 0.930 . S
C447 C450 1.388 . S
C447 C452 1.418 . S
C448 H443 0.930 . S
C448 C451 1.404 . S
C448 C452 1.353 1_545 S
N449 Co414 2.145 . S
N449 C450 1.397 . S
N449 C451 1.334 1_565 S
C450 H431 0.929 . S
C450 C447 1.388 . S
C450 N449 1.397 . S
C451 H432 0.929 . S
C451 C448 1.404 . S
C451 N449 1.334 1_545 S
C452 H444 0.930 1_565 S
C452 C447 1.418 . S
C452 C448 1.353 1_565 S
C453 H423 0.930 . S
C453 N454 1.330 . S
C453 C455 1.446 . S
N454 Co413 2.151 . S
N454 C453 1.330 . S
N454 C458 1.418 . S
C455 H434 0.929 . S
C455 C453 1.446 . S
C455 C456 1.332 . S
C456 H436 0.931 . S
C456 C455 1.332 . S
C456 C457 1.267 . S
C457 H425 0.929 . S
C457 C456 1.267 . S
C457 C458 1.251 . S
C458 H428 0.929 . S
C458 N454 1.418 . S
C458 C457 1.251 . S
C459 H426 0.930 . S
C459 C461 1.406 . S
C459 C464 1.261 . S
C460 H427 0.930 . S
C460 N462 1.325 . S
C460 C463 1.357 . S
C461 H429 0.928 . S
C461 C459 1.406 . S
C461 N462 1.261 . S
N462 Co413 2.214 . S
N462 C460 1.325 . S
N462 C461 1.261 . S
C463 H433 0.931 . S
C463 C460 1.357 . S
C463 C464 1.312 . S
C464 H435 0.930 . S
C464 C459 1.261 . S
C464 C463 1.312 . S
C465 O437 1.214 . S
C465 O445 1.234 . S
C466 H438 0.929 . S
C466 C469 1.391 . S
C466 C471 1.391 . S
C467 H439 0.940 . S
C467 C468 1.390 . S
C467 N470 1.391 . S
C468 H440 0.930 . S
C468 C467 1.390 . S
C468 C469 1.392 . S
C469 H441 0.929 . S
C469 C466 1.391 . S
C469 C468 1.392 . S
N470 Co414 2.257 1_545 S
N470 C467 1.391 . S
N470 C471 1.388 . S
C471 H442 0.930 . S
C471 C466 1.391 . S
C471 N470 1.388 . S
Co472 O474 2.143 . S
Co472 O480 2.074 . S
Co472 O483 2.093 . S
Co472 O496 2.097 . S
Co472 N513 2.151 . S
Co472 N521 2.214 . S
Co473 O474 2.160 . S
Co473 O479 2.058 . S
Co473 O489 2.057 . S
Co473 O504 2.037 . S
Co473 N508 2.145 . S
Co473 N529 2.257 . S
O474 Co472 2.143 . S
O474 Co473 2.160 . S
C475 O476 1.278 . S
C475 O483 1.224 . S
O476 C475 1.278 . S
C477 O478 1.245 . S
C477 O489 1.232 . S
O478 C477 1.245 . S
O479 Co473 2.058 . S
O479 C505 1.269 . S
O480 Co472 2.074 . S
O480 C505 1.257 . S
H481 C506 0.930 . S
H482 C512 0.930 . S
O483 Co472 2.093 . S
O483 C475 1.224 . S
H484 C516 0.929 . S
H485 C518 0.930 . S
H486 C519 0.930 . S
H487 C517 0.929 . S
H488 C520 0.928 . S
O489 Co473 2.057 . S
O489 C477 1.232 . S
H490 C509 0.929 . S
H491 C510 0.929 . S
H492 C522 0.931 . S
H493 C514 0.929 . S
H494 C523 0.930 . S
H495 C515 0.931 . S
O496 Co472 2.097 . S
O496 C524 1.214 . S
H497 C525 0.929 . S
H498 C526 0.929 . S
H499 C527 0.930 . S
H500 C528 0.929 . S
H501 C530 0.930 . S
H502 C507 0.930 . S
H503 C511 0.930 . S
O504 Co473 2.037 . S
O504 C524 1.234 . S
C505 O479 1.269 . S
C505 O480 1.257 . S
C506 H481 0.930 . S
C506 C509 1.388 . S
C506 C511 1.418 . S
C507 H502 0.930 . S
C507 C510 1.404 . S
C507 C511 1.353 . S
N508 Co473 2.145 . S
N508 C509 1.397 . S
N508 C510 1.334 . S
C509 H490 0.929 . S
C509 C506 1.388 . S
C509 N508 1.397 . S
C510 H491 0.929 . S
C510 C507 1.404 . S
C510 N508 1.334 . S
C511 H503 0.930 . S
C511 C506 1.418 . S
C511 C507 1.353 . S
C512 H482 0.930 . S
C512 N513 1.330 . S
C512 C514 1.446 . S
N513 Co472 2.151 . S
N513 C512 1.330 . S
N513 C517 1.418 . S
C514 H493 0.929 . S
C514 C512 1.446 . S
C514 C515 1.332 . S
C515 H495 0.931 . S
C515 C514 1.332 . S
C515 C516 1.267 . S
C516 H484 0.929 . S
C516 C515 1.267 . S
C516 C517 1.251 . S
C517 H487 0.929 . S
C517 N513 1.418 . S
C517 C516 1.251 . S
C518 H485 0.930 . S
C518 C520 1.406 . S
C518 C523 1.261 . S
C519 H486 0.930 . S
C519 N521 1.325 . S
C519 C522 1.357 . S
C520 H488 0.928 . S
C520 C518 1.406 . S
C520 N521 1.261 . S
N521 Co472 2.214 . S
N521 C519 1.325 . S
N521 C520 1.261 . S
C522 H492 0.931 . S
C522 C519 1.357 . S
C522 C523 1.312 . S
C523 H494 0.930 . S
C523 C518 1.261 . S
C523 C522 1.312 . S
C524 O496 1.214 . S
C524 O504 1.234 . S
C525 H497 0.929 . S
C525 C528 1.391 . S
C525 C530 1.391 . S
C526 H498 0.929 . S
C526 C527 1.390 . S
C526 N529 1.391 . S
C527 H499 0.930 . S
C527 C526 1.390 . S
C527 C528 1.392 . S
C528 H500 0.929 . S
C528 C525 1.391 . S
C528 C527 1.392 . S
N529 Co473 2.257 . S
N529 C526 1.391 . S
N529 C530 1.388 . S
C530 H501 0.930 . S
C530 C525 1.391 . S
C530 N529 1.388 . S
Co531 O533 2.143 . S
Co531 O539 2.074 . S
Co531 O542 2.093 . S
Co531 O555 2.097 . S
Co531 N572 2.151 . S
Co531 N580 2.214 . S
Co532 O533 2.160 . S
Co532 O538 2.058 . S
Co532 O548 2.057 . S
Co532 O563 2.037 . S
Co532 N567 2.145 . S
Co532 N588 2.257 . S
O533 Co531 2.143 . S
O533 Co532 2.160 . S
C534 O535 1.278 . S
C534 O542 1.224 . S
O535 C534 1.278 . S
C536 O537 1.245 . S
C536 O548 1.232 . S
O537 C536 1.245 . S
O538 Co532 2.058 . S
O538 C564 1.269 . S
O539 Co531 2.074 . S
O539 C564 1.257 . S
H540 C565 0.930 . S
H541 C571 0.930 . S
O542 Co531 2.093 . S
O542 C534 1.224 . S
H543 C575 0.929 . S
H544 C577 0.930 . S
H545 C578 0.930 . S
H546 C576 0.929 . S
H547 C579 0.928 . S
O548 Co532 2.057 . S
O548 C536 1.232 . S
H549 C568 0.929 . S
H550 C569 0.929 . S
H551 C581 0.931 . S
H552 C573 0.929 . S
H553 C582 0.930 . S
H554 C574 0.931 . S
O555 Co531 2.097 . S
O555 C583 1.214 . S
H556 C584 0.929 . S
H557 C585 0.929 . S
H558 C586 0.930 . S
H559 C587 0.929 . S
H560 C589 0.930 . S
H561 C566 0.930 . S
H562 C570 0.930 . S
O563 Co532 2.037 . S
O563 C583 1.234 . S
C564 O538 1.269 . S
C564 O539 1.257 . S
C565 H540 0.930 . S
C565 C568 1.388 . S
C565 C570 1.418 . S
C566 H561 0.930 . S
C566 C569 1.404 . S
C566 C570 1.353 . S
N567 Co532 2.145 . S
N567 C568 1.397 . S
N567 C569 1.334 . S
C568 H549 0.929 . S
C568 C565 1.388 . S
C568 N567 1.397 . S
C569 H550 0.929 . S
C569 C566 1.404 . S
C569 N567 1.334 . S
C570 H562 0.930 . S
C570 C565 1.418 . S
C570 C566 1.353 . S
C571 H541 0.930 . S
C571 N572 1.330 . S
C571 C573 1.446 . S
N572 Co531 2.151 . S
N572 C571 1.330 . S
N572 C576 1.418 . S
C573 H552 0.929 . S
C573 C571 1.446 . S
C573 C574 1.332 . S
C574 H554 0.931 . S
C574 C573 1.332 . S
C574 C575 1.267 . S
C575 H543 0.929 . S
C575 C574 1.267 . S
C575 C576 1.251 . S
C576 H546 0.929 . S
C576 N572 1.418 . S
C576 C575 1.251 . S
C577 H544 0.930 . S
C577 C579 1.406 . S
C577 C582 1.261 . S
C578 H545 0.930 . S
C578 N580 1.325 . S
C578 C581 1.357 . S
C579 H547 0.928 . S
C579 C577 1.406 . S
C579 N580 1.261 . S
N580 Co531 2.214 . S
N580 C578 1.325 . S
N580 C579 1.261 . S
C581 H551 0.931 . S
C581 C578 1.357 . S
C581 C582 1.312 . S
C582 H553 0.930 . S
C582 C577 1.261 . S
C582 C581 1.312 . S
C583 O555 1.214 . S
C583 O563 1.234 . S
C584 H556 0.929 . S
C584 C587 1.391 . S
C584 C589 1.391 . S
C585 H557 0.929 . S
C585 C586 1.390 . S
C585 N588 1.391 . S
C586 H558 0.930 . S
C586 C585 1.390 . S
C586 C587 1.392 . S
C587 H559 0.929 . S
C587 C584 1.391 . S
C587 C586 1.392 . S
N588 Co532 2.257 . S
N588 C585 1.391 . S
N588 C589 1.388 . S
C589 H560 0.930 . S
C589 C584 1.391 . S
C589 N588 1.388 . S
Co590 O592 2.143 . S
Co590 O598 2.074 . S
Co590 O601 2.093 . S
Co590 O614 2.097 . S
Co590 N631 2.151 . S
Co590 N639 2.214 . S
Co591 O592 2.160 . S
Co591 O597 2.058 . S
Co591 O607 2.057 1_455 S
Co591 O622 2.037 . S
Co591 N626 2.145 . S
Co591 N647 2.257 1_455 S
O592 Co590 2.143 . S
O592 Co591 2.160 . S
C593 O594 1.278 1_455 S
C593 O601 1.224 . S
O594 C593 1.278 1_655 S
C595 O596 1.245 . S
C595 O607 1.232 . S
O596 C595 1.245 . S
O597 Co591 2.058 . S
O597 C623 1.269 . S
O598 Co590 2.074 . S
O598 C623 1.257 . S
H599 C624 0.930 . S
H600 C630 0.930 . S
O601 Co590 2.093 . S
O601 C593 1.224 . S
H602 C634 0.929 . S
H603 C636 0.930 . S
H604 C637 0.930 . S
H605 C635 0.929 . S
H606 C638 0.928 . S
O607 Co591 2.057 1_655 S
O607 C595 1.232 . S
H608 C627 0.929 . S
H609 C628 0.929 . S
H610 C640 0.931 . S
H611 C632 0.929 . S
H612 C641 0.930 . S
H613 C633 0.931 . S
O614 Co590 2.097 . S
O614 C642 1.214 . S
H615 C643 0.929 . S
H616 C644 0.940 . S
H617 C645 0.930 . S
H618 C646 0.929 . S
H619 C648 0.930 . S
H620 C625 0.930 . S
H621 C629 0.930 1_655 S
O622 Co591 2.037 . S
O622 C642 1.234 . S
C623 O597 1.269 . S
C623 O598 1.257 . S
C624 H599 0.930 . S
C624 C627 1.388 . S
C624 C629 1.418 . S
C625 H620 0.930 . S
C625 C628 1.404 . S
C625 C629 1.353 1_655 S
N626 Co591 2.145 . S
N626 C627 1.397 . S
N626 C628 1.334 1_455 S
C627 H608 0.929 . S
C627 C624 1.388 . S
C627 N626 1.397 . S
C628 H609 0.929 . S
C628 C625 1.404 . S
C628 N626 1.334 1_655 S
C629 H621 0.930 1_455 S
C629 C624 1.418 . S
C629 C625 1.353 1_455 S
C630 H600 0.930 . S
C630 N631 1.330 . S
C630 C632 1.446 . S
N631 Co590 2.151 . S
N631 C630 1.330 . S
N631 C635 1.418 . S
C632 H611 0.929 . S
C632 C630 1.446 . S
C632 C633 1.332 . S
C633 H613 0.931 . S
C633 C632 1.332 . S
C633 C634 1.267 . S
C634 H602 0.929 . S
C634 C633 1.267 . S
C634 C635 1.251 . S
C635 H605 0.929 . S
C635 N631 1.418 . S
C635 C634 1.251 . S
C636 H603 0.930 . S
C636 C638 1.406 . S
C636 C641 1.261 . S
C637 H604 0.930 . S
C637 N639 1.325 . S
C637 C640 1.357 . S
C638 H606 0.928 . S
C638 C636 1.406 . S
C638 N639 1.261 . S
N639 Co590 2.214 . S
N639 C637 1.325 . S
N639 C638 1.261 . S
C640 H610 0.931 . S
C640 C637 1.357 . S
C640 C641 1.312 . S
C641 H612 0.930 . S
C641 C636 1.261 . S
C641 C640 1.312 . S
C642 O614 1.214 . S
C642 O622 1.234 . S
C643 H615 0.929 . S
C643 C646 1.391 . S
C643 C648 1.391 . S
C644 H616 0.940 . S
C644 C645 1.390 . S
C644 N647 1.391 . S
C645 H617 0.930 . S
C645 C644 1.390 . S
C645 C646 1.392 . S
C646 H618 0.929 . S
C646 C643 1.391 . S
C646 C645 1.392 . S
N647 Co591 2.257 1_655 S
N647 C644 1.391 . S
N647 C648 1.388 . S
C648 H619 0.930 . S
C648 C643 1.391 . S
C648 N647 1.388 . S
Co649 O651 2.143 . S
Co649 O657 2.074 . S
Co649 O660 2.093 . S
Co649 O673 2.097 . S
Co649 N690 2.151 . S
Co649 N698 2.214 . S
Co650 O651 2.160 . S
Co650 O656 2.058 . S
Co650 O666 2.057 1_545 S
Co650 O681 2.037 . S
Co650 N685 2.145 . S
Co650 N706 2.257 1_545 S
O651 Co649 2.143 . S
O651 Co650 2.160 . S
C652 O653 1.278 1_545 S
C652 O660 1.224 . S
O653 C652 1.278 1_565 S
C654 O655 1.245 . S
C654 O666 1.232 . S
O655 C654 1.245 . S
O656 Co650 2.058 . S
O656 C682 1.269 . S
O657 Co649 2.074 . S
O657 C682 1.257 . S
H658 C683 0.930 . S
H659 C689 0.930 . S
O660 Co649 2.093 . S
O660 C652 1.224 . S
H661 C693 0.929 . S
H662 C695 0.930 . S
H663 C696 0.930 . S
H664 C694 0.929 . S
H665 C697 0.928 . S
O666 Co650 2.057 1_565 S
O666 C654 1.232 . S
H667 C686 0.929 . S
H668 C687 0.929 . S
H669 C699 0.931 . S
H670 C691 0.929 . S
H671 C700 0.930 . S
H672 C692 0.931 . S
O673 Co649 2.097 . S
O673 C701 1.214 . S
H674 C702 0.929 . S
H675 C703 0.940 . S
H676 C704 0.930 . S
H677 C705 0.929 . S
H678 C707 0.930 . S
H679 C684 0.930 . S
H680 C688 0.930 1_565 S
O681 Co650 2.037 . S
O681 C701 1.234 . S
C682 O656 1.269 . S
C682 O657 1.257 . S
C683 H658 0.930 . S
C683 C686 1.388 . S
C683 C688 1.418 . S
C684 H679 0.930 . S
C684 C687 1.404 . S
C684 C688 1.353 1_565 S
N685 Co650 2.145 . S
N685 C686 1.397 . S
N685 C687 1.334 1_545 S
C686 H667 0.929 . S
C686 C683 1.388 . S
C686 N685 1.397 . S
C687 H668 0.929 . S
C687 C684 1.404 . S
C687 N685 1.334 1_565 S
C688 H680 0.930 1_545 S
C688 C683 1.418 . S
C688 C684 1.353 1_545 S
C689 H659 0.930 . S
C689 N690 1.330 . S
C689 C691 1.446 . S
N690 Co649 2.151 . S
N690 C689 1.330 . S
N690 C694 1.418 . S
C691 H670 0.929 . S
C691 C689 1.446 . S
C691 C692 1.332 . S
C692 H672 0.931 . S
C692 C691 1.332 . S
C692 C693 1.267 . S
C693 H661 0.929 . S
C693 C692 1.267 . S
C693 C694 1.251 . S
C694 H664 0.929 . S
C694 N690 1.418 . S
C694 C693 1.251 . S
C695 H662 0.930 . S
C695 C697 1.406 . S
C695 C700 1.261 . S
C696 H663 0.930 . S
C696 N698 1.325 . S
C696 C699 1.357 . S
C697 H665 0.928 . S
C697 C695 1.406 . S
C697 N698 1.261 . S
N698 Co649 2.214 . S
N698 C696 1.325 . S
N698 C697 1.261 . S
C699 H669 0.931 . S
C699 C696 1.357 . S
C699 C700 1.312 . S
C700 H671 0.930 . S
C700 C695 1.261 . S
C700 C699 1.312 . S
C701 O673 1.214 . S
C701 O681 1.234 . S
C702 H674 0.929 . S
C702 C705 1.391 . S
C702 C707 1.391 . S
C703 H675 0.940 . S
C703 C704 1.390 . S
C703 N706 1.391 . S
C704 H676 0.930 . S
C704 C703 1.390 . S
C704 C705 1.392 . S
C705 H677 0.929 . S
C705 C702 1.391 . S
C705 C704 1.392 . S
N706 Co650 2.257 1_565 S
N706 C703 1.391 . S
N706 C707 1.388 . S
C707 H678 0.930 . S
C707 C702 1.391 . S
C707 N706 1.388 . S
Co708 O710 2.143 . S
Co708 O716 2.074 . S
Co708 O719 2.093 . S
Co708 O732 2.097 . S
Co708 N749 2.151 . S
Co708 N757 2.214 . S
Co709 O710 2.160 . S
Co709 O715 2.058 . S
Co709 O725 2.057 . S
Co709 O740 2.037 . S
Co709 N744 2.145 . S
Co709 N765 2.257 . S
O710 Co708 2.143 . S
O710 Co709 2.160 . S
C711 O712 1.278 . S
C711 O719 1.224 . S
O712 C711 1.278 . S
C713 O714 1.245 . S
C713 O725 1.232 . S
O714 C713 1.245 . S
O715 Co709 2.058 . S
O715 C741 1.269 . S
O716 Co708 2.074 . S
O716 C741 1.257 . S
H717 C742 0.930 . S
H718 C748 0.930 . S
O719 Co708 2.093 . S
O719 C711 1.224 . S
H720 C752 0.929 . S
H721 C754 0.930 . S
H722 C755 0.930 . S
H723 C753 0.929 . S
H724 C756 0.928 . S
O725 Co709 2.057 . S
O725 C713 1.232 . S
H726 C745 0.929 . S
H727 C746 0.929 . S
H728 C758 0.931 . S
H729 C750 0.929 . S
H730 C759 0.930 . S
H731 C751 0.931 . S
O732 Co708 2.097 . S
O732 C760 1.214 . S
H733 C761 0.929 . S
H734 C762 0.929 . S
H735 C763 0.930 . S
H736 C764 0.929 . S
H737 C766 0.930 . S
H738 C743 0.930 . S
H739 C747 0.930 . S
O740 Co709 2.037 . S
O740 C760 1.234 . S
C741 O715 1.269 . S
C741 O716 1.257 . S
C742 H717 0.930 . S
C742 C745 1.388 . S
C742 C747 1.418 . S
C743 H738 0.930 . S
C743 C746 1.404 . S
C743 C747 1.353 . S
N744 Co709 2.145 . S
N744 C745 1.397 . S
N744 C746 1.334 . S
C745 H726 0.929 . S
C745 C742 1.388 . S
C745 N744 1.397 . S
C746 H727 0.929 . S
C746 C743 1.404 . S
C746 N744 1.334 . S
C747 H739 0.930 . S
C747 C742 1.418 . S
C747 C743 1.353 . S
C748 H718 0.930 . S
C748 N749 1.330 . S
C748 C750 1.446 . S
N749 Co708 2.151 . S
N749 C748 1.330 . S
N749 C753 1.418 . S
C750 H729 0.929 . S
C750 C748 1.446 . S
C750 C751 1.332 . S
C751 H731 0.931 . S
C751 C750 1.332 . S
C751 C752 1.267 . S
C752 H720 0.929 . S
C752 C751 1.267 . S
C752 C753 1.251 . S
C753 H723 0.929 . S
C753 N749 1.418 . S
C753 C752 1.251 . S
C754 H721 0.930 . S
C754 C756 1.406 . S
C754 C759 1.261 . S
C755 H722 0.930 . S
C755 N757 1.325 . S
C755 C758 1.357 . S
C756 H724 0.928 . S
C756 C754 1.406 . S
C756 N757 1.261 . S
N757 Co708 2.214 . S
N757 C755 1.325 . S
N757 C756 1.261 . S
C758 H728 0.931 . S
C758 C755 1.357 . S
C758 C759 1.312 . S
C759 H730 0.930 . S
C759 C754 1.261 . S
C759 C758 1.312 . S
C760 O732 1.214 . S
C760 O740 1.234 . S
C761 H733 0.929 . S
C761 C764 1.391 . S
C761 C766 1.391 . S
C762 H734 0.929 . S
C762 C763 1.390 . S
C762 N765 1.391 . S
C763 H735 0.930 . S
C763 C762 1.390 . S
C763 C764 1.392 . S
C764 H736 0.929 . S
C764 C761 1.391 . S
C764 C763 1.392 . S
N765 Co709 2.257 . S
N765 C762 1.391 . S
N765 C766 1.388 . S
C766 H737 0.930 . S
C766 C761 1.391 . S
C766 N765 1.388 . S
Co767 O769 2.143 . S
Co767 O775 2.074 . S
Co767 O778 2.093 . S
Co767 O791 2.097 . S
Co767 N808 2.151 . S
Co767 N816 2.214 . S
Co768 O769 2.160 . S
Co768 O774 2.058 . S
Co768 O784 2.057 . S
Co768 O799 2.037 . S
Co768 N803 2.145 . S
Co768 N824 2.257 . S
O769 Co767 2.143 . S
O769 Co768 2.160 . S
C770 O771 1.278 . S
C770 O778 1.224 . S
O771 C770 1.278 . S
C772 O773 1.245 . S
C772 O784 1.232 . S
O773 C772 1.245 . S
O774 Co768 2.058 . S
O774 C800 1.269 . S
O775 Co767 2.074 . S
O775 C800 1.257 . S
H776 C801 0.930 . S
H777 C807 0.930 . S
O778 Co767 2.093 . S
O778 C770 1.224 . S
H779 C811 0.929 . S
H780 C813 0.930 . S
H781 C814 0.930 . S
H782 C812 0.929 . S
H783 C815 0.928 . S
O784 Co768 2.057 . S
O784 C772 1.232 . S
H785 C804 0.929 . S
H786 C805 0.929 . S
H787 C817 0.931 . S
H788 C809 0.929 . S
H789 C818 0.930 . S
H790 C810 0.931 . S
O791 Co767 2.097 . S
O791 C819 1.214 . S
H792 C820 0.929 . S
H793 C821 0.929 . S
H794 C822 0.930 . S
H795 C823 0.929 . S
H796 C825 0.930 . S
H797 C802 0.930 . S
H798 C806 0.930 . S
O799 Co768 2.037 . S
O799 C819 1.234 . S
C800 O774 1.269 . S
C800 O775 1.257 . S
C801 H776 0.930 . S
C801 C804 1.388 . S
C801 C806 1.418 . S
C802 H797 0.930 . S
C802 C805 1.404 . S
C802 C806 1.353 . S
N803 Co768 2.145 . S
N803 C804 1.397 . S
N803 C805 1.334 . S
C804 H785 0.929 . S
C804 C801 1.388 . S
C804 N803 1.397 . S
C805 H786 0.929 . S
C805 C802 1.404 . S
C805 N803 1.334 . S
C806 H798 0.930 . S
C806 C801 1.418 . S
C806 C802 1.353 . S
C807 H777 0.930 . S
C807 N808 1.330 . S
C807 C809 1.446 . S
N808 Co767 2.151 . S
N808 C807 1.330 . S
N808 C812 1.418 . S
C809 H788 0.929 . S
C809 C807 1.446 . S
C809 C810 1.332 . S
C810 H790 0.931 . S
C810 C809 1.332 . S
C810 C811 1.267 . S
C811 H779 0.929 . S
C811 C810 1.267 . S
C811 C812 1.251 . S
C812 H782 0.929 . S
C812 N808 1.418 . S
C812 C811 1.251 . S
C813 H780 0.930 . S
C813 C815 1.406 . S
C813 C818 1.261 . S
C814 H781 0.930 . S
C814 N816 1.325 . S
C814 C817 1.357 . S
C815 H783 0.928 . S
C815 C813 1.406 . S
C815 N816 1.261 . S
N816 Co767 2.214 . S
N816 C814 1.325 . S
N816 C815 1.261 . S
C817 H787 0.931 . S
C817 C814 1.357 . S
C817 C818 1.312 . S
C818 H789 0.930 . S
C818 C813 1.261 . S
C818 C817 1.312 . S
C819 O791 1.214 . S
C819 O799 1.234 . S
C820 H792 0.929 . S
C820 C823 1.391 . S
C820 C825 1.391 . S
C821 H793 0.929 . S
C821 C822 1.390 . S
C821 N824 1.391 . S
C822 H794 0.930 . S
C822 C821 1.390 . S
C822 C823 1.392 . S
C823 H795 0.929 . S
C823 C820 1.391 . S
C823 C822 1.392 . S
N824 Co768 2.257 . S
N824 C821 1.391 . S
N824 C825 1.388 . S
C825 H796 0.930 . S
C825 C820 1.391 . S
C825 N824 1.388 . S
Co826 O828 2.143 . S
Co826 O834 2.074 . S
Co826 O837 2.093 . S
Co826 O850 2.097 . S
Co826 N867 2.151 . S
Co826 N875 2.214 . S
Co827 O828 2.160 . S
Co827 O833 2.058 . S
Co827 O843 2.057 1_455 S
Co827 O858 2.037 . S
Co827 N862 2.145 . S
Co827 N883 2.257 1_455 S
O828 Co826 2.143 . S
O828 Co827 2.160 . S
C829 O830 1.278 1_455 S
C829 O837 1.224 . S
O830 C829 1.278 1_655 S
C831 O832 1.245 . S
C831 O843 1.232 . S
O832 C831 1.245 . S
O833 Co827 2.058 . S
O833 C859 1.269 . S
O834 Co826 2.074 . S
O834 C859 1.257 . S
H835 C860 0.930 . S
H836 C866 0.930 . S
O837 Co826 2.093 . S
O837 C829 1.224 . S
H838 C870 0.929 . S
H839 C872 0.930 . S
H840 C873 0.930 . S
H841 C871 0.929 . S
H842 C874 0.928 . S
O843 Co827 2.057 1_655 S
O843 C831 1.232 . S
H844 C863 0.929 . S
H845 C864 0.929 . S
H846 C876 0.931 . S
H847 C868 0.929 . S
H848 C877 0.930 . S
H849 C869 0.931 . S
O850 Co826 2.097 . S
O850 C878 1.214 . S
H851 C879 0.929 . S
H852 C880 0.940 . S
H853 C881 0.930 . S
H854 C882 0.929 . S
H855 C884 0.930 . S
H856 C861 0.930 . S
H857 C865 0.930 1_655 S
O858 Co827 2.037 . S
O858 C878 1.234 . S
C859 O833 1.269 . S
C859 O834 1.257 . S
C860 H835 0.930 . S
C860 C863 1.388 . S
C860 C865 1.418 . S
C861 H856 0.930 . S
C861 C864 1.404 . S
C861 C865 1.353 1_655 S
N862 Co827 2.145 . S
N862 C863 1.397 . S
N862 C864 1.334 1_455 S
C863 H844 0.929 . S
C863 C860 1.388 . S
C863 N862 1.397 . S
C864 H845 0.929 . S
C864 C861 1.404 . S
C864 N862 1.334 1_655 S
C865 H857 0.930 1_455 S
C865 C860 1.418 . S
C865 C861 1.353 1_455 S
C866 H836 0.930 . S
C866 N867 1.330 . S
C866 C868 1.446 . S
N867 Co826 2.151 . S
N867 C866 1.330 . S
N867 C871 1.418 . S
C868 H847 0.929 . S
C868 C866 1.446 . S
C868 C869 1.332 . S
C869 H849 0.931 . S
C869 C868 1.332 . S
C869 C870 1.267 . S
C870 H838 0.929 . S
C870 C869 1.267 . S
C870 C871 1.251 . S
C871 H841 0.929 . S
C871 N867 1.418 . S
C871 C870 1.251 . S
C872 H839 0.930 . S
C872 C874 1.406 . S
C872 C877 1.261 . S
C873 H840 0.930 . S
C873 N875 1.325 . S
C873 C876 1.357 . S
C874 H842 0.928 . S
C874 C872 1.406 . S
C874 N875 1.261 . S
N875 Co826 2.214 . S
N875 C873 1.325 . S
N875 C874 1.261 . S
C876 H846 0.931 . S
C876 C873 1.357 . S
C876 C877 1.312 . S
C877 H848 0.930 . S
C877 C872 1.261 . S
C877 C876 1.312 . S
C878 O850 1.214 . S
C878 O858 1.234 . S
C879 H851 0.929 . S
C879 C882 1.391 . S
C879 C884 1.391 . S
C880 H852 0.940 . S
C880 C881 1.390 . S
C880 N883 1.391 . S
C881 H853 0.930 . S
C881 C880 1.390 . S
C881 C882 1.392 . S
C882 H854 0.929 . S
C882 C879 1.391 . S
C882 C881 1.392 . S
N883 Co827 2.257 1_655 S
N883 C880 1.391 . S
N883 C884 1.388 . S
C884 H855 0.930 . S
C884 C879 1.391 . S
C884 N883 1.388 . S
Co885 O887 2.143 . S
Co885 O893 2.074 . S
Co885 O896 2.093 . S
Co885 O909 2.097 . S
Co885 N926 2.151 . S
Co885 N934 2.214 . S
Co886 O887 2.160 . S
Co886 O892 2.058 . S
Co886 O902 2.057 1_545 S
Co886 O917 2.037 . S
Co886 N921 2.145 . S
Co886 N942 2.257 1_545 S
O887 Co885 2.143 . S
O887 Co886 2.160 . S
C888 O889 1.278 1_545 S
C888 O896 1.224 . S
O889 C888 1.278 1_565 S
C890 O891 1.245 . S
C890 O902 1.232 . S
O891 C890 1.245 . S
O892 Co886 2.058 . S
O892 C918 1.269 . S
O893 Co885 2.074 . S
O893 C918 1.257 . S
H894 C919 0.930 . S
H895 C925 0.930 . S
O896 Co885 2.093 . S
O896 C888 1.224 . S
H897 C929 0.929 . S
H898 C931 0.930 . S
H899 C932 0.930 . S
H900 C930 0.929 . S
H901 C933 0.928 . S
O902 Co886 2.057 1_565 S
O902 C890 1.232 . S
H903 C922 0.929 . S
H904 C923 0.929 . S
H905 C935 0.931 . S
H906 C927 0.929 . S
H907 C936 0.930 . S
H908 C928 0.931 . S
O909 Co885 2.097 . S
O909 C937 1.214 . S
H910 C938 0.929 . S
H911 C939 0.940 . S
H912 C940 0.930 . S
H913 C941 0.929 . S
H914 C943 0.930 . S
H915 C920 0.930 . S
H916 C924 0.930 1_565 S
O917 Co886 2.037 . S
O917 C937 1.234 . S
C918 O892 1.269 . S
C918 O893 1.257 . S
C919 H894 0.930 . S
C919 C922 1.388 . S
C919 C924 1.418 . S
C920 H915 0.930 . S
C920 C923 1.404 . S
C920 C924 1.353 1_565 S
N921 Co886 2.145 . S
N921 C922 1.397 . S
N921 C923 1.334 1_545 S
C922 H903 0.929 . S
C922 C919 1.388 . S
C922 N921 1.397 . S
C923 H904 0.929 . S
C923 C920 1.404 . S
C923 N921 1.334 1_565 S
C924 H916 0.930 1_545 S
C924 C919 1.418 . S
C924 C920 1.353 1_545 S
C925 H895 0.930 . S
C925 N926 1.330 . S
C925 C927 1.446 . S
N926 Co885 2.151 . S
N926 C925 1.330 . S
N926 C930 1.418 . S
C927 H906 0.929 . S
C927 C925 1.446 . S
C927 C928 1.332 . S
C928 H908 0.931 . S
C928 C927 1.332 . S
C928 C929 1.267 . S
C929 H897 0.929 . S
C929 C928 1.267 . S
C929 C930 1.251 . S
C930 H900 0.929 . S
C930 N926 1.418 . S
C930 C929 1.251 . S
C931 H898 0.930 . S
C931 C933 1.406 . S
C931 C936 1.261 . S
C932 H899 0.930 . S
C932 N934 1.325 . S
C932 C935 1.357 . S
C933 H901 0.928 . S
C933 C931 1.406 . S
C933 N934 1.261 . S
N934 Co885 2.214 . S
N934 C932 1.325 . S
N934 C933 1.261 . S
C935 H905 0.931 . S
C935 C932 1.357 . S
C935 C936 1.312 . S
C936 H907 0.930 . S
C936 C931 1.261 . S
C936 C935 1.312 . S
C937 O909 1.214 . S
C937 O917 1.234 . S
C938 H910 0.929 . S
C938 C941 1.391 . S
C938 C943 1.391 . S
C939 H911 0.940 . S
C939 C940 1.390 . S
C939 N942 1.391 . S
C940 H912 0.930 . S
C940 C939 1.390 . S
C940 C941 1.392 . S
C941 H913 0.929 . S
C941 C938 1.391 . S
C941 C940 1.392 . S
N942 Co886 2.257 1_565 S
N942 C939 1.391 . S
N942 C943 1.388 . S
C943 H914 0.930 . S
C943 C938 1.391 . S
C943 N942 1.388 . S
H944 C956 0.930 . S
H945 C958 0.930 . S
H946 C959 0.930 . S
H947 C963 0.959 . S
H948 C963 0.959 . S
H949 C963 0.961 . S
H950 C964 0.960 . S
H951 C964 0.961 . S
H952 C964 0.959 . S
H953 C967 0.929 . S
H954 C968 0.931 . S
H955 C970 0.930 . S
C956 H944 0.930 . S
C956 C957 1.399 . S
C956 C961 1.399 . S
C957 C956 1.399 . S
C957 C958 1.376 . S
C958 H945 0.930 . S
C958 C957 1.376 . S
C958 C959 1.388 . S
C959 H946 0.930 . S
C959 C958 1.388 . S
C959 C960 1.390 . S
C960 C959 1.390 . S
C960 C961 1.394 . S
C960 C966 1.465 . S
C961 C956 1.399 . S
C961 C960 1.394 . S
C961 C962 1.516 . S
C962 C961 1.516 . S
C962 C963 1.502 . S
C962 C964 1.561 . S
C962 C965 1.526 . S
C963 H947 0.959 . S
C963 H948 0.959 . S
C963 H949 0.961 . S
C963 C962 1.502 . S
C964 H950 0.960 . S
C964 H951 0.961 . S
C964 H952 0.959 . S
C964 C962 1.561 . S
C965 C962 1.526 . S
C965 C966 1.396 . S
C965 C970 1.390 . S
C966 C960 1.465 . S
C966 C965 1.396 . S
C966 C967 1.399 . S
C967 H953 0.929 . S
C967 C966 1.399 . S
C967 C968 1.385 . S
C968 H954 0.931 . S
C968 C967 1.385 . S
C968 C969 1.389 . S
C969 C968 1.389 . S
C969 C970 1.387 . S
C970 H955 0.930 . S
C970 C965 1.390 . S
C970 C969 1.387 . S
H971 C983 0.930 . S
H972 C985 0.930 . S
H973 C986 0.930 . S
H974 C990 0.959 . S
H975 C990 0.959 . S
H976 C990 0.961 . S
H977 C991 0.960 . S
H978 C991 0.961 . S
H979 C991 0.959 . S
H980 C994 0.929 . S
H981 C995 0.931 . S
H982 C997 0.930 . S
C983 H971 0.930 . S
C983 C984 1.399 . S
C983 C988 1.399 . S
C984 C983 1.399 . S
C984 C985 1.376 . S
C985 H972 0.930 . S
C985 C984 1.376 . S
C985 C986 1.388 . S
C986 H973 0.930 . S
C986 C985 1.388 . S
C986 C987 1.390 . S
C987 C986 1.390 . S
C987 C988 1.394 . S
C987 C993 1.465 . S
C988 C983 1.399 . S
C988 C987 1.394 . S
C988 C989 1.516 . S
C989 C988 1.516 . S
C989 C990 1.502 . S
C989 C991 1.561 . S
C989 C992 1.526 . S
C990 H974 0.959 . S
C990 H975 0.959 . S
C990 H976 0.961 . S
C990 C989 1.502 . S
C991 H977 0.960 . S
C991 H978 0.961 . S
C991 H979 0.959 . S
C991 C989 1.561 . S
C992 C989 1.526 . S
C992 C993 1.396 . S
C992 C997 1.390 . S
C993 C987 1.465 . S
C993 C992 1.396 . S
C993 C994 1.399 . S
C994 H980 0.929 . S
C994 C993 1.399 . S
C994 C995 1.385 . S
C995 H981 0.931 . S
C995 C994 1.385 . S
C995 C996 1.389 . S
C996 C995 1.389 . S
C996 C997 1.387 . S
C997 H982 0.930 . S
C997 C992 1.390 . S
C997 C996 1.387 . S
H998 C1010 0.930 . S
H999 C1012 0.930 . S
H1000 C1013 0.930 . S
H1001 C1017 0.959 . S
H1002 C1017 0.959 . S
H1003 C1017 0.961 . S
H1004 C1018 0.960 . S
H1005 C1018 0.961 . S
H1006 C1018 0.959 . S
H1007 C1021 0.929 . S
H1008 C1022 0.931 . S
H1009 C1024 0.930 . S
C1010 H998 0.930 . S
C1010 C1011 1.399 . S
C1010 C1015 1.399 . S
C1011 C1010 1.399 . S
C1011 C1012 1.376 . S
C1012 H999 0.930 . S
C1012 C1011 1.376 . S
C1012 C1013 1.388 . S
C1013 H1000 0.930 . S
C1013 C1012 1.388 . S
C1013 C1014 1.390 . S
C1014 C1013 1.390 . S
C1014 C1015 1.394 . S
C1014 C1020 1.465 . S
C1015 C1010 1.399 . S
C1015 C1014 1.394 . S
C1015 C1016 1.516 . S
C1016 C1015 1.516 . S
C1016 C1017 1.502 . S
C1016 C1018 1.561 . S
C1016 C1019 1.526 . S
C1017 H1001 0.959 . S
C1017 H1002 0.959 . S
C1017 H1003 0.961 . S
C1017 C1016 1.502 . S
C1018 H1004 0.960 . S
C1018 H1005 0.961 . S
C1018 H1006 0.959 . S
C1018 C1016 1.561 . S
C1019 C1016 1.526 . S
C1019 C1020 1.396 . S
C1019 C1024 1.390 . S
C1020 C1014 1.465 . S
C1020 C1019 1.396 . S
C1020 C1021 1.399 . S
C1021 H1007 0.929 . S
C1021 C1020 1.399 . S
C1021 C1022 1.385 . S
C1022 H1008 0.931 . S
C1022 C1021 1.385 . S
C1022 C1023 1.389 . S
C1023 C1022 1.389 . S
C1023 C1024 1.387 . S
C1024 H1009 0.930 . S
C1024 C1019 1.390 . S
C1024 C1023 1.387 . S
H1025 C1037 0.930 . S
H1026 C1039 0.930 . S
H1027 C1040 0.930 . S
H1028 C1044 0.959 . S
H1029 C1044 0.959 . S
H1030 C1044 0.961 . S
H1031 C1045 0.960 . S
H1032 C1045 0.961 . S
H1033 C1045 0.959 . S
H1034 C1048 0.929 . S
H1035 C1049 0.931 . S
H1036 C1051 0.930 . S
C1037 H1025 0.930 . S
C1037 C1038 1.399 . S
C1037 C1042 1.399 . S
C1038 C1037 1.399 . S
C1038 C1039 1.376 . S
C1039 H1026 0.930 . S
C1039 C1038 1.376 . S
C1039 C1040 1.388 . S
C1040 H1027 0.930 . S
C1040 C1039 1.388 . S
C1040 C1041 1.390 . S
C1041 C1040 1.390 . S
C1041 C1042 1.394 . S
C1041 C1047 1.465 . S
C1042 C1037 1.399 . S
C1042 C1041 1.394 . S
C1042 C1043 1.516 . S
C1043 C1042 1.516 . S
C1043 C1044 1.502 . S
C1043 C1045 1.561 . S
C1043 C1046 1.526 . S
C1044 H1028 0.959 . S
C1044 H1029 0.959 . S
C1044 H1030 0.961 . S
C1044 C1043 1.502 . S
C1045 H1031 0.960 . S
C1045 H1032 0.961 . S
C1045 H1033 0.959 . S
C1045 C1043 1.561 . S
C1046 C1043 1.526 . S
C1046 C1047 1.396 . S
C1046 C1051 1.390 . S
C1047 C1041 1.465 . S
C1047 C1046 1.396 . S
C1047 C1048 1.399 . S
C1048 H1034 0.929 . S
C1048 C1047 1.399 . S
C1048 C1049 1.385 . S
C1049 H1035 0.931 . S
C1049 C1048 1.385 . S
C1049 C1050 1.389 . S
C1050 C1049 1.389 . S
C1050 C1051 1.387 . S
C1051 H1036 0.930 . S
C1051 C1046 1.390 . S
C1051 C1050 1.387 . S
H1052 C1064 0.930 . S
H1053 C1066 0.930 . S
H1054 C1067 0.930 . S
H1055 C1071 0.959 . S
H1056 C1071 0.959 . S
H1057 C1071 0.961 . S
H1058 C1072 0.960 . S
H1059 C1072 0.961 . S
H1060 C1072 0.959 . S
H1061 C1075 0.929 . S
H1062 C1076 0.931 . S
H1063 C1078 0.930 . S
C1064 H1052 0.930 . S
C1064 C1065 1.399 . S
C1064 C1069 1.399 . S
C1065 C1064 1.399 . S
C1065 C1066 1.376 . S
C1066 H1053 0.930 . S
C1066 C1065 1.376 . S
C1066 C1067 1.388 . S
C1067 H1054 0.930 . S
C1067 C1066 1.388 . S
C1067 C1068 1.390 . S
C1068 C1067 1.390 . S
C1068 C1069 1.394 . S
C1068 C1074 1.465 . S
C1069 C1064 1.399 . S
C1069 C1068 1.394 . S
C1069 C1070 1.516 . S
C1070 C1069 1.516 . S
C1070 C1071 1.502 . S
C1070 C1072 1.561 . S
C1070 C1073 1.526 . S
C1071 H1055 0.959 . S
C1071 H1056 0.959 . S
C1071 H1057 0.961 . S
C1071 C1070 1.502 . S
C1072 H1058 0.960 . S
C1072 H1059 0.961 . S
C1072 H1060 0.959 . S
C1072 C1070 1.561 . S
C1073 C1070 1.526 . S
C1073 C1074 1.396 . S
C1073 C1078 1.390 . S
C1074 C1068 1.465 . S
C1074 C1073 1.396 . S
C1074 C1075 1.399 . S
C1075 H1061 0.929 . S
C1075 C1074 1.399 . S
C1075 C1076 1.385 . S
C1076 H1062 0.931 . S
C1076 C1075 1.385 . S
C1076 C1077 1.389 . S
C1077 C1076 1.389 . S
C1077 C1078 1.387 . S
C1078 H1063 0.930 . S
C1078 C1073 1.390 . S
C1078 C1077 1.387 . S
H1079 C1091 0.930 . S
H1080 C1093 0.930 . S
H1081 C1094 0.930 . S
H1082 C1098 0.959 . S
H1083 C1098 0.959 . S
H1084 C1098 0.961 . S
H1085 C1099 0.960 . S
H1086 C1099 0.961 . S
H1087 C1099 0.959 . S
H1088 C1102 0.929 . S
H1089 C1103 0.931 . S
H1090 C1105 0.930 . S
C1091 H1079 0.930 . S
C1091 C1092 1.399 . S
C1091 C1096 1.399 . S
C1092 C1091 1.399 . S
C1092 C1093 1.376 . S
C1093 H1080 0.930 . S
C1093 C1092 1.376 . S
C1093 C1094 1.388 . S
C1094 H1081 0.930 . S
C1094 C1093 1.388 . S
C1094 C1095 1.390 . S
C1095 C1094 1.390 . S
C1095 C1096 1.394 . S
C1095 C1101 1.465 . S
C1096 C1091 1.399 . S
C1096 C1095 1.394 . S
C1096 C1097 1.516 . S
C1097 C1096 1.516 . S
C1097 C1098 1.502 . S
C1097 C1099 1.561 . S
C1097 C1100 1.526 . S
C1098 H1082 0.959 . S
C1098 H1083 0.959 . S
C1098 H1084 0.961 . S
C1098 C1097 1.502 . S
C1099 H1085 0.960 . S
C1099 H1086 0.961 . S
C1099 H1087 0.959 . S
C1099 C1097 1.561 . S
C1100 C1097 1.526 . S
C1100 C1101 1.396 . S
C1100 C1105 1.390 . S
C1101 C1095 1.465 . S
C1101 C1100 1.396 . S
C1101 C1102 1.399 . S
C1102 H1088 0.929 . S
C1102 C1101 1.399 . S
C1102 C1103 1.385 . S
C1103 H1089 0.931 . S
C1103 C1102 1.385 . S
C1103 C1104 1.389 . S
C1104 C1103 1.389 . S
C1104 C1105 1.387 . S
C1105 H1090 0.930 . S
C1105 C1100 1.390 . S
C1105 C1104 1.387 . S
H1106 C1118 0.930 . S
H1107 C1120 0.930 . S
H1108 C1121 0.930 . S
H1109 C1125 0.959 . S
H1110 C1125 0.959 . S
H1111 C1125 0.961 . S
H1112 C1126 0.960 . S
H1113 C1126 0.961 . S
H1114 C1126 0.959 . S
H1115 C1129 0.929 . S
H1116 C1130 0.931 . S
H1117 C1132 0.930 . S
C1118 H1106 0.930 . S
C1118 C1119 1.399 . S
C1118 C1123 1.399 . S
C1119 C1118 1.399 . S
C1119 C1120 1.376 . S
C1120 H1107 0.930 . S
C1120 C1119 1.376 . S
C1120 C1121 1.388 . S
C1121 H1108 0.930 . S
C1121 C1120 1.388 . S
C1121 C1122 1.390 . S
C1122 C1121 1.390 . S
C1122 C1123 1.394 . S
C1122 C1128 1.465 . S
C1123 C1118 1.399 . S
C1123 C1122 1.394 . S
C1123 C1124 1.516 . S
C1124 C1123 1.516 . S
C1124 C1125 1.502 . S
C1124 C1126 1.561 . S
C1124 C1127 1.526 . S
C1125 H1109 0.959 . S
C1125 H1110 0.959 . S
C1125 H1111 0.961 . S
C1125 C1124 1.502 . S
C1126 H1112 0.960 . S
C1126 H1113 0.961 . S
C1126 H1114 0.959 . S
C1126 C1124 1.561 . S
C1127 C1124 1.526 . S
C1127 C1128 1.396 . S
C1127 C1132 1.390 . S
C1128 C1122 1.465 . S
C1128 C1127 1.396 . S
C1128 C1129 1.399 . S
C1129 H1115 0.929 . S
C1129 C1128 1.399 . S
C1129 C1130 1.385 . S
C1130 H1116 0.931 . S
C1130 C1129 1.385 . S
C1130 C1131 1.389 . S
C1131 C1130 1.389 . S
C1131 C1132 1.387 . S
C1132 H1117 0.930 . S
C1132 C1127 1.390 . S
C1132 C1131 1.387 . S
H1133 C1145 0.930 . S
H1134 C1147 0.930 . S
H1135 C1148 0.930 . S
H1136 C1152 0.959 . S
H1137 C1152 0.959 . S
H1138 C1152 0.961 . S
H1139 C1153 0.960 . S
H1140 C1153 0.961 . S
H1141 C1153 0.959 . S
H1142 C1156 0.929 . S
H1143 C1157 0.931 . S
H1144 C1159 0.930 . S
C1145 H1133 0.930 . S
C1145 C1146 1.399 . S
C1145 C1150 1.399 . S
C1146 C1145 1.399 . S
C1146 C1147 1.376 . S
C1147 H1134 0.930 . S
C1147 C1146 1.376 . S
C1147 C1148 1.388 . S
C1148 H1135 0.930 . S
C1148 C1147 1.388 . S
C1148 C1149 1.390 . S
C1149 C1148 1.390 . S
C1149 C1150 1.394 . S
C1149 C1155 1.465 . S
C1150 C1145 1.399 . S
C1150 C1149 1.394 . S
C1150 C1151 1.516 . S
C1151 C1150 1.516 . S
C1151 C1152 1.502 . S
C1151 C1153 1.561 . S
C1151 C1154 1.526 . S
C1152 H1136 0.959 . S
C1152 H1137 0.959 . S
C1152 H1138 0.961 . S
C1152 C1151 1.502 . S
C1153 H1139 0.960 . S
C1153 H1140 0.961 . S
C1153 H1141 0.959 . S
C1153 C1151 1.561 . S
C1154 C1151 1.526 . S
C1154 C1155 1.396 . S
C1154 C1159 1.390 . S
C1155 C1149 1.465 . S
C1155 C1154 1.396 . S
C1155 C1156 1.399 . S
C1156 H1142 0.929 . S
C1156 C1155 1.399 . S
C1156 C1157 1.385 . S
C1157 H1143 0.931 . S
C1157 C1156 1.385 . S
C1157 C1158 1.389 . S
C1158 C1157 1.389 . S
C1158 C1159 1.387 . S
C1159 H1144 0.930 . S
C1159 C1154 1.390 . S
C1159 C1158 1.387 . S
H1160 C1172 0.930 . S
H1161 C1174 0.930 . S
H1162 C1175 0.930 . S
H1163 C1179 0.959 . S
H1164 C1179 0.959 . S
H1165 C1179 0.961 . S
H1166 C1180 0.960 . S
H1167 C1180 0.961 . S
H1168 C1180 0.959 . S
H1169 C1183 0.929 . S
H1170 C1184 0.931 . S
H1171 C1186 0.930 . S
C1172 H1160 0.930 . S
C1172 C1173 1.399 . S
C1172 C1177 1.399 . S
C1173 C1172 1.399 . S
C1173 C1174 1.376 . S
C1174 H1161 0.930 . S
C1174 C1173 1.376 . S
C1174 C1175 1.388 . S
C1175 H1162 0.930 . S
C1175 C1174 1.388 . S
C1175 C1176 1.390 . S
C1176 C1175 1.390 . S
C1176 C1177 1.394 . S
C1176 C1182 1.465 . S
C1177 C1172 1.399 . S
C1177 C1176 1.394 . S
C1177 C1178 1.516 . S
C1178 C1177 1.516 . S
C1178 C1179 1.502 . S
C1178 C1180 1.561 . S
C1178 C1181 1.526 . S
C1179 H1163 0.959 . S
C1179 H1164 0.959 . S
C1179 H1165 0.961 . S
C1179 C1178 1.502 . S
C1180 H1166 0.960 . S
C1180 H1167 0.961 . S
C1180 H1168 0.959 . S
C1180 C1178 1.561 . S
C1181 C1178 1.526 . S
C1181 C1182 1.396 . S
C1181 C1186 1.390 . S
C1182 C1176 1.465 . S
C1182 C1181 1.396 . S
C1182 C1183 1.399 . S
C1183 H1169 0.929 . S
C1183 C1182 1.399 . S
C1183 C1184 1.385 . S
C1184 H1170 0.931 . S
C1184 C1183 1.385 . S
C1184 C1185 1.389 . S
C1185 C1184 1.389 . S
C1185 C1186 1.387 . S
C1186 H1171 0.930 . S
C1186 C1181 1.390 . S
C1186 C1185 1.387 . S
H1187 C1199 0.930 . S
H1188 C1201 0.930 . S
H1189 C1202 0.930 . S
H1190 C1206 0.959 . S
H1191 C1206 0.959 . S
H1192 C1206 0.961 . S
H1193 C1207 0.960 . S
H1194 C1207 0.961 . S
H1195 C1207 0.959 . S
H1196 C1210 0.929 . S
H1197 C1211 0.931 . S
H1198 C1213 0.930 . S
C1199 H1187 0.930 . S
C1199 C1200 1.399 . S
C1199 C1204 1.399 . S
C1200 C1199 1.399 . S
C1200 C1201 1.376 . S
C1201 H1188 0.930 . S
C1201 C1200 1.376 . S
C1201 C1202 1.388 . S
C1202 H1189 0.930 . S
C1202 C1201 1.388 . S
C1202 C1203 1.390 . S
C1203 C1202 1.390 . S
C1203 C1204 1.394 . S
C1203 C1209 1.465 . S
C1204 C1199 1.399 . S
C1204 C1203 1.394 . S
C1204 C1205 1.516 . S
C1205 C1204 1.516 . S
C1205 C1206 1.502 . S
C1205 C1207 1.561 . S
C1205 C1208 1.526 . S
C1206 H1190 0.959 . S
C1206 H1191 0.959 . S
C1206 H1192 0.961 . S
C1206 C1205 1.502 . S
C1207 H1193 0.960 . S
C1207 H1194 0.961 . S
C1207 H1195 0.959 . S
C1207 C1205 1.561 . S
C1208 C1205 1.526 . S
C1208 C1209 1.396 . S
C1208 C1213 1.390 . S
C1209 C1203 1.465 . S
C1209 C1208 1.396 . S
C1209 C1210 1.399 . S
C1210 H1196 0.929 . S
C1210 C1209 1.399 . S
C1210 C1211 1.385 . S
C1211 H1197 0.931 . S
C1211 C1210 1.385 . S
C1211 C1212 1.389 . S
C1212 C1211 1.389 . S
C1212 C1213 1.387 . S
C1213 H1198 0.930 . S
C1213 C1208 1.390 . S
C1213 C1212 1.387 . S
H1214 C1226 0.930 . S
H1215 C1228 0.930 . S
H1216 C1229 0.930 . S
H1217 C1233 0.959 . S
H1218 C1233 0.959 . S
H1219 C1233 0.961 . S
H1220 C1234 0.960 . S
H1221 C1234 0.961 . S
H1222 C1234 0.959 . S
H1223 C1237 0.929 . S
H1224 C1238 0.931 . S
H1225 C1240 0.930 . S
C1226 H1214 0.930 . S
C1226 C1227 1.399 . S
C1226 C1231 1.399 . S
C1227 C1226 1.399 . S
C1227 C1228 1.376 . S
C1228 H1215 0.930 . S
C1228 C1227 1.376 . S
C1228 C1229 1.388 . S
C1229 H1216 0.930 . S
C1229 C1228 1.388 . S
C1229 C1230 1.390 . S
C1230 C1229 1.390 . S
C1230 C1231 1.394 . S
C1230 C1236 1.465 . S
C1231 C1226 1.399 . S
C1231 C1230 1.394 . S
C1231 C1232 1.516 . S
C1232 C1231 1.516 . S
C1232 C1233 1.502 . S
C1232 C1234 1.561 . S
C1232 C1235 1.526 . S
C1233 H1217 0.959 . S
C1233 H1218 0.959 . S
C1233 H1219 0.961 . S
C1233 C1232 1.502 . S
C1234 H1220 0.960 . S
C1234 H1221 0.961 . S
C1234 H1222 0.959 . S
C1234 C1232 1.561 . S
C1235 C1232 1.526 . S
C1235 C1236 1.396 . S
C1235 C1240 1.390 . S
C1236 C1230 1.465 . S
C1236 C1235 1.396 . S
C1236 C1237 1.399 . S
C1237 H1223 0.929 . S
C1237 C1236 1.399 . S
C1237 C1238 1.385 . S
C1238 H1224 0.931 . S
C1238 C1237 1.385 . S
C1238 C1239 1.389 . S
C1239 C1238 1.389 . S
C1239 C1240 1.387 . S
C1240 H1225 0.930 . S
C1240 C1235 1.390 . S
C1240 C1239 1.387 . S
H1241 C1253 0.930 . S
H1242 C1255 0.930 . S
H1243 C1256 0.930 . S
H1244 C1260 0.959 . S
H1245 C1260 0.959 . S
H1246 C1260 0.961 . S
H1247 C1261 0.960 . S
H1248 C1261 0.961 . S
H1249 C1261 0.959 . S
H1250 C1264 0.929 . S
H1251 C1265 0.931 . S
H1252 C1267 0.930 . S
C1253 H1241 0.930 . S
C1253 C1254 1.399 . S
C1253 C1258 1.399 . S
C1254 C1253 1.399 . S
C1254 C1255 1.376 . S
C1255 H1242 0.930 . S
C1255 C1254 1.376 . S
C1255 C1256 1.388 . S
C1256 H1243 0.930 . S
C1256 C1255 1.388 . S
C1256 C1257 1.390 . S
C1257 C1256 1.390 . S
C1257 C1258 1.394 . S
C1257 C1263 1.465 . S
C1258 C1253 1.399 . S
C1258 C1257 1.394 . S
C1258 C1259 1.516 . S
C1259 C1258 1.516 . S
C1259 C1260 1.502 . S
C1259 C1261 1.561 . S
C1259 C1262 1.526 . S
C1260 H1244 0.959 . S
C1260 H1245 0.959 . S
C1260 H1246 0.961 . S
C1260 C1259 1.502 . S
C1261 H1247 0.960 . S
C1261 H1248 0.961 . S
C1261 H1249 0.959 . S
C1261 C1259 1.561 . S
C1262 C1259 1.526 . S
C1262 C1263 1.396 . S
C1262 C1267 1.390 . S
C1263 C1257 1.465 . S
C1263 C1262 1.396 . S
C1263 C1264 1.399 . S
C1264 H1250 0.929 . S
C1264 C1263 1.399 . S
C1264 C1265 1.385 . S
C1265 H1251 0.931 . S
C1265 C1264 1.385 . S
C1265 C1266 1.389 . S
C1266 C1265 1.389 . S
C1266 C1267 1.387 . S
C1267 H1252 0.930 . S
C1267 C1262 1.390 . S
C1267 C1266 1.387 . S
H1268 C1280 0.930 . S
H1269 C1282 0.930 . S
H1270 C1283 0.930 . S
H1271 C1287 0.959 . S
H1272 C1287 0.959 . S
H1273 C1287 0.961 . S
H1274 C1288 0.960 . S
H1275 C1288 0.961 . S
H1276 C1288 0.959 . S
H1277 C1291 0.929 . S
H1278 C1292 0.931 . S
H1279 C1294 0.930 . S
C1280 H1268 0.930 . S
C1280 C1281 1.399 . S
C1280 C1285 1.399 . S
C1281 C1280 1.399 . S
C1281 C1282 1.376 . S
C1282 H1269 0.930 . S
C1282 C1281 1.376 . S
C1282 C1283 1.388 . S
C1283 H1270 0.930 . S
C1283 C1282 1.388 . S
C1283 C1284 1.390 . S
C1284 C1283 1.390 . S
C1284 C1285 1.394 . S
C1284 C1290 1.465 . S
C1285 C1280 1.399 . S
C1285 C1284 1.394 . S
C1285 C1286 1.516 . S
C1286 C1285 1.516 . S
C1286 C1287 1.502 . S
C1286 C1288 1.561 . S
C1286 C1289 1.526 . S
C1287 H1271 0.959 . S
C1287 H1272 0.959 . S
C1287 H1273 0.961 . S
C1287 C1286 1.502 . S
C1288 H1274 0.960 . S
C1288 H1275 0.961 . S
C1288 H1276 0.959 . S
C1288 C1286 1.561 . S
C1289 C1286 1.526 . S
C1289 C1290 1.396 . S
C1289 C1294 1.390 . S
C1290 C1284 1.465 . S
C1290 C1289 1.396 . S
C1290 C1291 1.399 . S
C1291 H1277 0.929 . S
C1291 C1290 1.399 . S
C1291 C1292 1.385 . S
C1292 H1278 0.931 . S
C1292 C1291 1.385 . S
C1292 C1293 1.389 . S
C1293 C1292 1.389 . S
C1293 C1294 1.387 . S
C1294 H1279 0.930 . S
C1294 C1289 1.390 . S
C1294 C1293 1.387 . S
H1295 C1307 0.930 . S
H1296 C1309 0.930 . S
H1297 C1310 0.930 . S
H1298 C1314 0.959 . S
H1299 C1314 0.959 . S
H1300 C1314 0.961 . S
H1301 C1315 0.960 . S
H1302 C1315 0.961 . S
H1303 C1315 0.959 . S
H1304 C1318 0.929 . S
H1305 C1319 0.931 . S
H1306 C1321 0.930 . S
C1307 H1295 0.930 . S
C1307 C1308 1.399 . S
C1307 C1312 1.399 . S
C1308 C1307 1.399 . S
C1308 C1309 1.376 . S
C1309 H1296 0.930 . S
C1309 C1308 1.376 . S
C1309 C1310 1.388 . S
C1310 H1297 0.930 . S
C1310 C1309 1.388 . S
C1310 C1311 1.390 . S
C1311 C1310 1.390 . S
C1311 C1312 1.394 . S
C1311 C1317 1.465 . S
C1312 C1307 1.399 . S
C1312 C1311 1.394 . S
C1312 C1313 1.516 . S
C1313 C1312 1.516 . S
C1313 C1314 1.502 . S
C1313 C1315 1.561 . S
C1313 C1316 1.526 . S
C1314 H1298 0.959 . S
C1314 H1299 0.959 . S
C1314 H1300 0.961 . S
C1314 C1313 1.502 . S
C1315 H1301 0.960 . S
C1315 H1302 0.961 . S
C1315 H1303 0.959 . S
C1315 C1313 1.561 . S
C1316 C1313 1.526 . S
C1316 C1317 1.396 . S
C1316 C1321 1.390 . S
C1317 C1311 1.465 . S
C1317 C1316 1.396 . S
C1317 C1318 1.399 . S
C1318 H1304 0.929 . S
C1318 C1317 1.399 . S
C1318 C1319 1.385 . S
C1319 H1305 0.931 . S
C1319 C1318 1.385 . S
C1319 C1320 1.389 . S
C1320 C1319 1.389 . S
C1320 C1321 1.387 . S
C1321 H1306 0.930 . S
C1321 C1316 1.390 . S
C1321 C1320 1.387 . S
H1322 C1334 0.930 . S
H1323 C1336 0.930 . S
H1324 C1337 0.930 . S
H1325 C1341 0.959 . S
H1326 C1341 0.959 . S
H1327 C1341 0.961 . S
H1328 C1342 0.960 . S
H1329 C1342 0.961 . S
H1330 C1342 0.959 . S
H1331 C1345 0.929 . S
H1332 C1346 0.931 . S
H1333 C1348 0.930 . S
C1334 H1322 0.930 . S
C1334 C1335 1.399 . S
C1334 C1339 1.399 . S
C1335 C1334 1.399 . S
C1335 C1336 1.376 . S
C1336 H1323 0.930 . S
C1336 C1335 1.376 . S
C1336 C1337 1.388 . S
C1337 H1324 0.930 . S
C1337 C1336 1.388 . S
C1337 C1338 1.390 . S
C1338 C1337 1.390 . S
C1338 C1339 1.394 . S
C1338 C1344 1.465 . S
C1339 C1334 1.399 . S
C1339 C1338 1.394 . S
C1339 C1340 1.516 . S
C1340 C1339 1.516 . S
C1340 C1341 1.502 . S
C1340 C1342 1.561 . S
C1340 C1343 1.526 . S
C1341 H1325 0.959 . S
C1341 H1326 0.959 . S
C1341 H1327 0.961 . S
C1341 C1340 1.502 . S
C1342 H1328 0.960 . S
C1342 H1329 0.961 . S
C1342 H1330 0.959 . S
C1342 C1340 1.561 . S
C1343 C1340 1.526 . S
C1343 C1344 1.396 . S
C1343 C1348 1.390 . S
C1344 C1338 1.465 . S
C1344 C1343 1.396 . S
C1344 C1345 1.399 . S
C1345 H1331 0.929 . S
C1345 C1344 1.399 . S
C1345 C1346 1.385 . S
C1346 H1332 0.931 . S
C1346 C1345 1.385 . S
C1346 C1347 1.389 . S
C1347 C1346 1.389 . S
C1347 C1348 1.387 . S
C1348 H1333 0.930 . S
C1348 C1343 1.390 . S
C1348 C1347 1.387 . S
H1349 C1361 0.930 . S
H1350 C1363 0.930 . S
H1351 C1364 0.930 . S
H1352 C1368 0.959 . S
H1353 C1368 0.959 . S
H1354 C1368 0.961 . S
H1355 C1369 0.960 . S
H1356 C1369 0.961 . S
H1357 C1369 0.959 . S
H1358 C1372 0.929 . S
H1359 C1373 0.931 . S
H1360 C1375 0.930 . S
C1361 H1349 0.930 . S
C1361 C1362 1.399 . S
C1361 C1366 1.399 . S
C1362 C1361 1.399 . S
C1362 C1363 1.376 . S
C1363 H1350 0.930 . S
C1363 C1362 1.376 . S
C1363 C1364 1.388 . S
C1364 H1351 0.930 . S
C1364 C1363 1.388 . S
C1364 C1365 1.390 . S
C1365 C1364 1.390 . S
C1365 C1366 1.394 . S
C1365 C1371 1.465 . S
C1366 C1361 1.399 . S
C1366 C1365 1.394 . S
C1366 C1367 1.516 . S
C1367 C1366 1.516 . S
C1367 C1368 1.502 . S
C1367 C1369 1.561 . S
C1367 C1370 1.526 . S
C1368 H1352 0.959 . S
C1368 H1353 0.959 . S
C1368 H1354 0.961 . S
C1368 C1367 1.502 . S
C1369 H1355 0.960 . S
C1369 H1356 0.961 . S
C1369 H1357 0.959 . S
C1369 C1367 1.561 . S
C1370 C1367 1.526 . S
C1370 C1371 1.396 . S
C1370 C1375 1.390 . S
C1371 C1365 1.465 . S
C1371 C1370 1.396 . S
C1371 C1372 1.399 . S
C1372 H1358 0.929 . S
C1372 C1371 1.399 . S
C1372 C1373 1.385 . S
C1373 H1359 0.931 . S
C1373 C1372 1.385 . S
C1373 C1374 1.389 . S
C1374 C1373 1.389 . S
C1374 C1375 1.387 . S
C1375 H1360 0.930 . S
C1375 C1370 1.390 . S
C1375 C1374 1.387 . S
H1376 C1388 0.930 . S
H1377 C1390 0.930 . S
H1378 C1391 0.930 . S
H1379 C1395 0.959 . S
H1380 C1395 0.959 . S
H1381 C1395 0.961 . S
H1382 C1396 0.960 . S
H1383 C1396 0.961 . S
H1384 C1396 0.959 . S
H1385 C1399 0.929 . S
H1386 C1400 0.931 . S
H1387 C1402 0.930 . S
C1388 H1376 0.930 . S
C1388 C1389 1.399 . S
C1388 C1393 1.399 . S
C1389 C1388 1.399 . S
C1389 C1390 1.376 . S
C1390 H1377 0.930 . S
C1390 C1389 1.376 . S
C1390 C1391 1.388 . S
C1391 H1378 0.930 . S
C1391 C1390 1.388 . S
C1391 C1392 1.390 . S
C1392 C1391 1.390 . S
C1392 C1393 1.394 . S
C1392 C1398 1.465 . S
C1393 C1388 1.399 . S
C1393 C1392 1.394 . S
C1393 C1394 1.516 . S
C1394 C1393 1.516 . S
C1394 C1395 1.502 . S
C1394 C1396 1.561 . S
C1394 C1397 1.526 . S
C1395 H1379 0.959 . S
C1395 H1380 0.959 . S
C1395 H1381 0.961 . S
C1395 C1394 1.502 . S
C1396 H1382 0.960 . S
C1396 H1383 0.961 . S
C1396 H1384 0.959 . S
C1396 C1394 1.561 . S
C1397 C1394 1.526 . S
C1397 C1398 1.396 . S
C1397 C1402 1.390 . S
C1398 C1392 1.465 . S
C1398 C1397 1.396 . S
C1398 C1399 1.399 . S
C1399 H1385 0.929 . S
C1399 C1398 1.399 . S
C1399 C1400 1.385 . S
C1400 H1386 0.931 . S
C1400 C1399 1.385 . S
C1400 C1401 1.389 . S
C1401 C1400 1.389 . S
C1401 C1402 1.387 . S
C1402 H1387 0.930 . S
C1402 C1397 1.390 . S
C1402 C1401 1.387 . S
H1403 C1415 0.930 . S
H1404 C1417 0.930 . S
H1405 C1418 0.930 . S
H1406 C1422 0.959 . S
H1407 C1422 0.959 . S
H1408 C1422 0.961 . S
H1409 C1423 0.960 . S
H1410 C1423 0.961 . S
H1411 C1423 0.959 . S
H1412 C1426 0.929 . S
H1413 C1427 0.931 . S
H1414 C1429 0.930 . S
C1415 H1403 0.930 . S
C1415 C1416 1.399 . S
C1415 C1420 1.399 . S
C1416 C1415 1.399 . S
C1416 C1417 1.376 . S
C1417 H1404 0.930 . S
C1417 C1416 1.376 . S
C1417 C1418 1.388 . S
C1418 H1405 0.930 . S
C1418 C1417 1.388 . S
C1418 C1419 1.390 . S
C1419 C1418 1.390 . S
C1419 C1420 1.394 . S
C1419 C1425 1.465 . S
C1420 C1415 1.399 . S
C1420 C1419 1.394 . S
C1420 C1421 1.516 . S
C1421 C1420 1.516 . S
C1421 C1422 1.502 . S
C1421 C1423 1.561 . S
C1421 C1424 1.526 . S
C1422 H1406 0.959 . S
C1422 H1407 0.959 . S
C1422 H1408 0.961 . S
C1422 C1421 1.502 . S
C1423 H1409 0.960 . S
C1423 H1410 0.961 . S
C1423 H1411 0.959 . S
C1423 C1421 1.561 . S
C1424 C1421 1.526 . S
C1424 C1425 1.396 . S
C1424 C1429 1.390 . S
C1425 C1419 1.465 . S
C1425 C1424 1.396 . S
C1425 C1426 1.399 . S
C1426 H1412 0.929 . S
C1426 C1425 1.399 . S
C1426 C1427 1.385 . S
C1427 H1413 0.931 . S
C1427 C1426 1.385 . S
C1427 C1428 1.389 . S
C1428 C1427 1.389 . S
C1428 C1429 1.387 . S
C1429 H1414 0.930 . S
C1429 C1424 1.390 . S
C1429 C1428 1.387 . S
H1430 C1442 0.930 . S
H1431 C1444 0.930 . S
H1432 C1445 0.930 . S
H1433 C1449 0.959 . S
H1434 C1449 0.959 . S
H1435 C1449 0.961 . S
H1436 C1450 0.960 . S
H1437 C1450 0.961 . S
H1438 C1450 0.959 . S
H1439 C1453 0.929 . S
H1440 C1454 0.931 . S
H1441 C1456 0.930 . S
C1442 H1430 0.930 . S
C1442 C1443 1.399 . S
C1442 C1447 1.399 . S
C1443 C1442 1.399 . S
C1443 C1444 1.376 . S
C1444 H1431 0.930 . S
C1444 C1443 1.376 . S
C1444 C1445 1.388 . S
C1445 H1432 0.930 . S
C1445 C1444 1.388 . S
C1445 C1446 1.390 . S
C1446 C1445 1.390 . S
C1446 C1447 1.394 . S
C1446 C1452 1.465 . S
C1447 C1442 1.399 . S
C1447 C1446 1.394 . S
C1447 C1448 1.516 . S
C1448 C1447 1.516 . S
C1448 C1449 1.502 . S
C1448 C1450 1.561 . S
C1448 C1451 1.526 . S
C1449 H1433 0.959 . S
C1449 H1434 0.959 . S
C1449 H1435 0.961 . S
C1449 C1448 1.502 . S
C1450 H1436 0.960 . S
C1450 H1437 0.961 . S
C1450 H1438 0.959 . S
C1450 C1448 1.561 . S
C1451 C1448 1.526 . S
C1451 C1452 1.396 . S
C1451 C1456 1.390 . S
C1452 C1446 1.465 . S
C1452 C1451 1.396 . S
C1452 C1453 1.399 . S
C1453 H1439 0.929 . S
C1453 C1452 1.399 . S
C1453 C1454 1.385 . S
C1454 H1440 0.931 . S
C1454 C1453 1.385 . S
C1454 C1455 1.389 . S
C1455 C1454 1.389 . S
C1455 C1456 1.387 . S
C1456 H1441 0.930 . S
C1456 C1451 1.390 . S
C1456 C1455 1.387 . S
H1457 C1469 0.930 . S
H1458 C1471 0.930 . S
H1459 C1472 0.930 . S
H1460 C1476 0.959 . S
H1461 C1476 0.959 . S
H1462 C1476 0.961 . S
H1463 C1477 0.960 . S
H1464 C1477 0.961 . S
H1465 C1477 0.959 . S
H1466 C1480 0.929 . S
H1467 C1481 0.931 . S
H1468 C1483 0.930 . S
C1469 H1457 0.930 . S
C1469 C1470 1.399 . S
C1469 C1474 1.399 . S
C1470 C1469 1.399 . S
C1470 C1471 1.376 . S
C1471 H1458 0.930 . S
C1471 C1470 1.376 . S
C1471 C1472 1.388 . S
C1472 H1459 0.930 . S
C1472 C1471 1.388 . S
C1472 C1473 1.390 . S
C1473 C1472 1.390 . S
C1473 C1474 1.394 . S
C1473 C1479 1.465 . S
C1474 C1469 1.399 . S
C1474 C1473 1.394 . S
C1474 C1475 1.516 . S
C1475 C1474 1.516 . S
C1475 C1476 1.502 . S
C1475 C1477 1.561 . S
C1475 C1478 1.526 . S
C1476 H1460 0.959 . S
C1476 H1461 0.959 . S
C1476 H1462 0.961 . S
C1476 C1475 1.502 . S
C1477 H1463 0.960 . S
C1477 H1464 0.961 . S
C1477 H1465 0.959 . S
C1477 C1475 1.561 . S
C1478 C1475 1.526 . S
C1478 C1479 1.396 . S
C1478 C1483 1.390 . S
C1479 C1473 1.465 . S
C1479 C1478 1.396 . S
C1479 C1480 1.399 . S
C1480 H1466 0.929 . S
C1480 C1479 1.399 . S
C1480 C1481 1.385 . S
C1481 H1467 0.931 . S
C1481 C1480 1.385 . S
C1481 C1482 1.389 . S
C1482 C1481 1.389 . S
C1482 C1483 1.387 . S
C1483 H1468 0.930 . S
C1483 C1478 1.390 . S
C1483 C1482 1.387 . S
H1484 C1496 0.930 . S
H1485 C1498 0.930 . S
H1486 C1499 0.930 . S
H1487 C1503 0.959 . S
H1488 C1503 0.959 . S
H1489 C1503 0.961 . S
H1490 C1504 0.960 . S
H1491 C1504 0.961 . S
H1492 C1504 0.959 . S
H1493 C1507 0.929 . S
H1494 C1508 0.931 . S
H1495 C1510 0.930 . S
C1496 H1484 0.930 . S
C1496 C1497 1.399 . S
C1496 C1501 1.399 . S
C1497 C1496 1.399 . S
C1497 C1498 1.376 . S
C1498 H1485 0.930 . S
C1498 C1497 1.376 . S
C1498 C1499 1.388 . S
C1499 H1486 0.930 . S
C1499 C1498 1.388 . S
C1499 C1500 1.390 . S
C1500 C1499 1.390 . S
C1500 C1501 1.394 . S
C1500 C1506 1.465 . S
C1501 C1496 1.399 . S
C1501 C1500 1.394 . S
C1501 C1502 1.516 . S
C1502 C1501 1.516 . S
C1502 C1503 1.502 . S
C1502 C1504 1.561 . S
C1502 C1505 1.526 . S
C1503 H1487 0.959 . S
C1503 H1488 0.959 . S
C1503 H1489 0.961 . S
C1503 C1502 1.502 . S
C1504 H1490 0.960 . S
C1504 H1491 0.961 . S
C1504 H1492 0.959 . S
C1504 C1502 1.561 . S
C1505 C1502 1.526 . S
C1505 C1506 1.396 . S
C1505 C1510 1.390 . S
C1506 C1500 1.465 . S
C1506 C1505 1.396 . S
C1506 C1507 1.399 . S
C1507 H1493 0.929 . S
C1507 C1506 1.399 . S
C1507 C1508 1.385 . S
C1508 H1494 0.931 . S
C1508 C1507 1.385 . S
C1508 C1509 1.389 . S
C1509 C1508 1.389 . S
C1509 C1510 1.387 . S
C1510 H1495 0.930 . S
C1510 C1505 1.390 . S
C1510 C1509 1.387 . S
H1511 C1523 0.930 . S
H1512 C1525 0.930 . S
H1513 C1526 0.930 . S
H1514 C1530 0.959 . S
H1515 C1530 0.959 . S
H1516 C1530 0.961 . S
H1517 C1531 0.960 . S
H1518 C1531 0.961 . S
H1519 C1531 0.959 . S
H1520 C1534 0.929 . S
H1521 C1535 0.931 . S
H1522 C1537 0.930 . S
C1523 H1511 0.930 . S
C1523 C1524 1.399 . S
C1523 C1528 1.399 . S
C1524 C1523 1.399 . S
C1524 C1525 1.376 . S
C1525 H1512 0.930 . S
C1525 C1524 1.376 . S
C1525 C1526 1.388 . S
C1526 H1513 0.930 . S
C1526 C1525 1.388 . S
C1526 C1527 1.390 . S
C1527 C1526 1.390 . S
C1527 C1528 1.394 . S
C1527 C1533 1.465 . S
C1528 C1523 1.399 . S
C1528 C1527 1.394 . S
C1528 C1529 1.516 . S
C1529 C1528 1.516 . S
C1529 C1530 1.502 . S
C1529 C1531 1.561 . S
C1529 C1532 1.526 . S
C1530 H1514 0.959 . S
C1530 H1515 0.959 . S
C1530 H1516 0.961 . S
C1530 C1529 1.502 . S
C1531 H1517 0.960 . S
C1531 H1518 0.961 . S
C1531 H1519 0.959 . S
C1531 C1529 1.561 . S
C1532 C1529 1.526 . S
C1532 C1533 1.396 . S
C1532 C1537 1.390 . S
C1533 C1527 1.465 . S
C1533 C1532 1.396 . S
C1533 C1534 1.399 . S
C1534 H1520 0.929 . S
C1534 C1533 1.399 . S
C1534 C1535 1.385 . S
C1535 H1521 0.931 . S
C1535 C1534 1.385 . S
C1535 C1536 1.389 . S
C1536 C1535 1.389 . S
C1536 C1537 1.387 . S
C1537 H1522 0.930 . S
C1537 C1532 1.390 . S
C1537 C1536 1.387 . S
H1538 C1550 0.930 . S
H1539 C1552 0.930 . S
H1540 C1553 0.930 . S
H1541 C1557 0.959 . S
H1542 C1557 0.959 . S
H1543 C1557 0.961 . S
H1544 C1558 0.960 . S
H1545 C1558 0.961 . S
H1546 C1558 0.959 . S
H1547 C1561 0.929 . S
H1548 C1562 0.931 . S
H1549 C1564 0.930 . S
C1550 H1538 0.930 . S
C1550 C1551 1.399 . S
C1550 C1555 1.399 . S
C1551 C1550 1.399 . S
C1551 C1552 1.376 . S
C1552 H1539 0.930 . S
C1552 C1551 1.376 . S
C1552 C1553 1.388 . S
C1553 H1540 0.930 . S
C1553 C1552 1.388 . S
C1553 C1554 1.390 . S
C1554 C1553 1.390 . S
C1554 C1555 1.394 . S
C1554 C1560 1.465 . S
C1555 C1550 1.399 . S
C1555 C1554 1.394 . S
C1555 C1556 1.516 . S
C1556 C1555 1.516 . S
C1556 C1557 1.502 . S
C1556 C1558 1.561 . S
C1556 C1559 1.526 . S
C1557 H1541 0.959 . S
C1557 H1542 0.959 . S
C1557 H1543 0.961 . S
C1557 C1556 1.502 . S
C1558 H1544 0.960 . S
C1558 H1545 0.961 . S
C1558 H1546 0.959 . S
C1558 C1556 1.561 . S
C1559 C1556 1.526 . S
C1559 C1560 1.396 . S
C1559 C1564 1.390 . S
C1560 C1554 1.465 . S
C1560 C1559 1.396 . S
C1560 C1561 1.399 . S
C1561 H1547 0.929 . S
C1561 C1560 1.399 . S
C1561 C1562 1.385 . S
C1562 H1548 0.931 . S
C1562 C1561 1.385 . S
C1562 C1563 1.389 . S
C1563 C1562 1.389 . S
C1563 C1564 1.387 . S
C1564 H1549 0.930 . S
C1564 C1559 1.390 . S
C1564 C1563 1.387 . S
H1565 C1577 0.930 . S
H1566 C1579 0.930 . S
H1567 C1580 0.930 . S
H1568 C1584 0.959 . S
H1569 C1584 0.959 . S
H1570 C1584 0.961 . S
H1571 C1585 0.960 . S
H1572 C1585 0.961 . S
H1573 C1585 0.959 . S
H1574 C1588 0.929 . S
H1575 C1589 0.931 . S
H1576 C1591 0.930 . S
C1577 H1565 0.930 . S
C1577 C1578 1.399 . S
C1577 C1582 1.399 . S
C1578 C1577 1.399 . S
C1578 C1579 1.376 . S
C1579 H1566 0.930 . S
C1579 C1578 1.376 . S
C1579 C1580 1.388 . S
C1580 H1567 0.930 . S
C1580 C1579 1.388 . S
C1580 C1581 1.390 . S
C1581 C1580 1.390 . S
C1581 C1582 1.394 . S
C1581 C1587 1.465 . S
C1582 C1577 1.399 . S
C1582 C1581 1.394 . S
C1582 C1583 1.516 . S
C1583 C1582 1.516 . S
C1583 C1584 1.502 . S
C1583 C1585 1.561 . S
C1583 C1586 1.526 . S
C1584 H1568 0.959 . S
C1584 H1569 0.959 . S
C1584 H1570 0.961 . S
C1584 C1583 1.502 . S
C1585 H1571 0.960 . S
C1585 H1572 0.961 . S
C1585 H1573 0.959 . S
C1585 C1583 1.561 . S
C1586 C1583 1.526 . S
C1586 C1587 1.396 . S
C1586 C1591 1.390 . S
C1587 C1581 1.465 . S
C1587 C1586 1.396 . S
C1587 C1588 1.399 . S
C1588 H1574 0.929 . S
C1588 C1587 1.399 . S
C1588 C1589 1.385 . S
C1589 H1575 0.931 . S
C1589 C1588 1.385 . S
C1589 C1590 1.389 . S
C1590 C1589 1.389 . S
C1590 C1591 1.387 . S
C1591 H1576 0.930 . S
C1591 C1586 1.390 . S
C1591 C1590 1.387 . S
H1592 C1604 0.930 . S
H1593 C1606 0.930 . S
H1594 C1607 0.930 . S
H1595 C1611 0.956 1_556 S
H1596 C1611 0.959 1_556 S
H1597 C1611 0.961 . S
H1598 C1612 0.960 . S
H1599 C1612 0.961 1_556 S
H1600 C1612 0.959 . S
H1601 C1615 0.929 . S
H1602 C1616 0.931 . S
H1603 C1618 0.930 . S
C1604 H1592 0.930 . S
C1604 C1605 1.399 . S
C1604 C1609 1.399 . S
C1605 C1604 1.399 . S
C1605 C1606 1.376 . S
C1606 H1593 0.930 . S
C1606 C1605 1.376 . S
C1606 C1607 1.388 . S
C1607 H1594 0.930 . S
C1607 C1606 1.388 . S
C1607 C1608 1.390 . S
C1608 C1607 1.390 . S
C1608 C1609 1.394 . S
C1608 C1614 1.465 1_554 S
C1609 C1604 1.399 . S
C1609 C1608 1.394 . S
C1609 C1610 1.516 . S
C1610 C1609 1.516 . S
C1610 C1611 1.502 . S
C1610 C1612 1.561 . S
C1610 C1613 1.526 1_554 S
C1611 H1595 0.956 1_554 S
C1611 H1596 0.959 1_554 S
C1611 H1597 0.961 . S
C1611 C1610 1.502 . S
C1612 H1598 0.960 . S
C1612 H1599 0.961 1_554 S
C1612 H1600 0.959 . S
C1612 C1610 1.561 . S
C1613 C1610 1.526 1_556 S
C1613 C1614 1.396 . S
C1613 C1618 1.390 . S
C1614 C1608 1.465 1_556 S
C1614 C1613 1.396 . S
C1614 C1615 1.399 . S
C1615 H1601 0.929 . S
C1615 C1614 1.399 . S
C1615 C1616 1.385 . S
C1616 H1602 0.931 . S
C1616 C1615 1.385 . S
C1616 C1617 1.389 . S
C1617 C1616 1.389 . S
C1617 C1618 1.387 . S
C1618 H1603 0.930 . S
C1618 C1613 1.390 . S
C1618 C1617 1.387 . S
H1619 C1631 0.930 . S
H1620 C1633 0.930 . S
H1621 C1634 0.930 . S
H1622 C1638 0.959 . S
H1623 C1638 0.959 . S
H1624 C1638 0.961 . S
H1625 C1639 0.960 . S
H1626 C1639 0.961 . S
H1627 C1639 0.959 . S
H1628 C1642 0.929 . S
H1629 C1643 0.931 . S
H1630 C1645 0.930 . S
C1631 H1619 0.930 . S
C1631 C1632 1.399 . S
C1631 C1636 1.399 . S
C1632 C1631 1.399 . S
C1632 C1633 1.376 . S
C1633 H1620 0.930 . S
C1633 C1632 1.376 . S
C1633 C1634 1.388 . S
C1634 H1621 0.930 . S
C1634 C1633 1.388 . S
C1634 C1635 1.390 . S
C1635 C1634 1.390 . S
C1635 C1636 1.394 . S
C1635 C1641 1.465 . S
C1636 C1631 1.399 . S
C1636 C1635 1.394 . S
C1636 C1637 1.516 . S
C1637 C1636 1.516 . S
C1637 C1638 1.502 . S
C1637 C1639 1.561 . S
C1637 C1640 1.526 . S
C1638 H1622 0.959 . S
C1638 H1623 0.959 . S
C1638 H1624 0.961 . S
C1638 C1637 1.502 . S
C1639 H1625 0.960 . S
C1639 H1626 0.961 . S
C1639 H1627 0.959 . S
C1639 C1637 1.561 . S
C1640 C1637 1.526 . S
C1640 C1641 1.396 . S
C1640 C1645 1.390 . S
C1641 C1635 1.465 . S
C1641 C1640 1.396 . S
C1641 C1642 1.399 . S
C1642 H1628 0.929 . S
C1642 C1641 1.399 . S
C1642 C1643 1.385 . S
C1643 H1629 0.931 . S
C1643 C1642 1.385 . S
C1643 C1644 1.389 . S
C1644 C1643 1.389 . S
C1644 C1645 1.387 . S
C1645 H1630 0.930 . S
C1645 C1640 1.390 . S
C1645 C1644 1.387 . S
H1646 C1658 0.930 . S
H1647 C1660 0.930 . S
H1648 C1661 0.930 . S
H1649 C1665 0.959 1_554 S
H1650 C1665 0.959 . S
H1651 C1665 0.961 1_554 S
H1652 C1666 0.960 1_554 S
H1653 C1666 0.961 . S
H1654 C1666 0.959 . S
H1655 C1669 0.929 . S
H1656 C1670 0.931 . S
H1657 C1672 0.930 . S
C1658 H1646 0.930 . S
C1658 C1659 1.399 . S
C1658 C1663 1.399 . S
C1659 C1658 1.399 . S
C1659 C1660 1.376 1_655 S
C1660 H1647 0.930 . S
C1660 C1659 1.376 1_455 S
C1660 C1661 1.388 . S
C1661 H1648 0.930 . S
C1661 C1660 1.388 . S
C1661 C1662 1.390 . S
C1662 C1661 1.390 . S
C1662 C1663 1.394 1_455 S
C1662 C1668 1.465 1_554 S
C1663 C1658 1.399 . S
C1663 C1662 1.394 1_655 S
C1663 C1664 1.516 1_554 S
C1664 C1663 1.516 1_556 S
C1664 C1665 1.502 . S
C1664 C1666 1.561 . S
C1664 C1667 1.526 . S
C1665 H1649 0.959 1_556 S
C1665 H1650 0.959 . S
C1665 H1651 0.961 1_556 S
C1665 C1664 1.502 . S
C1666 H1652 0.960 1_556 S
C1666 H1653 0.961 . S
C1666 H1654 0.959 . S
C1666 C1664 1.561 . S
C1667 C1664 1.526 . S
C1667 C1668 1.396 1_655 S
C1667 C1672 1.390 . S
C1668 C1662 1.465 1_556 S
C1668 C1667 1.396 1_455 S
C1668 C1669 1.399 . S
C1669 H1655 0.929 . S
C1669 C1668 1.399 . S
C1669 C1670 1.385 . S
C1670 H1656 0.931 . S
C1670 C1669 1.385 . S
C1670 C1671 1.389 1_455 S
C1671 C1670 1.389 1_655 S
C1671 C1672 1.387 . S
C1672 H1657 0.930 . S
C1672 C1667 1.390 . S
C1672 C1671 1.387 . S
H1673 C1685 0.930 . S
H1674 C1687 0.930 . S
H1675 C1688 0.930 . S
H1676 C1692 0.959 . S
H1677 C1692 0.959 . S
H1678 C1692 0.961 . S
H1679 C1693 0.960 . S
H1680 C1693 0.961 . S
H1681 C1693 0.959 . S
H1682 C1696 0.929 . S
H1683 C1697 0.931 . S
H1684 C1699 0.930 . S
C1685 H1673 0.930 . S
C1685 C1686 1.399 . S
C1685 C1690 1.399 . S
C1686 C1685 1.399 . S
C1686 C1687 1.376 1_565 S
C1687 H1674 0.930 . S
C1687 C1686 1.376 1_545 S
C1687 C1688 1.388 . S
C1688 H1675 0.930 . S
C1688 C1687 1.388 . S
C1688 C1689 1.390 1_545 S
C1689 C1688 1.390 1_565 S
C1689 C1690 1.393 . S
C1689 C1695 1.465 1_565 S
C1690 C1685 1.399 . S
C1690 C1689 1.393 . S
C1690 C1691 1.516 . S
C1691 C1690 1.516 . S
C1691 C1692 1.502 . S
C1691 C1693 1.561 . S
C1691 C1694 1.526 . S
C1692 H1676 0.959 . S
C1692 H1677 0.959 . S
C1692 H1678 0.961 . S
C1692 C1691 1.502 . S
C1693 H1679 0.960 . S
C1693 H1680 0.961 . S
C1693 H1681 0.959 . S
C1693 C1691 1.561 . S
C1694 C1691 1.526 . S
C1694 C1695 1.389 1_565 S
C1694 C1699 1.390 . S
C1695 C1689 1.465 1_545 S
C1695 C1694 1.389 1_545 S
C1695 C1696 1.404 . S
C1696 H1682 0.929 . S
C1696 C1695 1.404 . S
C1696 C1697 1.385 . S
C1697 H1683 0.931 . S
C1697 C1696 1.385 . S
C1697 C1698 1.389 1_545 S
C1698 C1697 1.389 1_565 S
C1698 C1699 1.387 . S
C1699 H1684 0.930 . S
C1699 C1694 1.390 . S
C1699 C1698 1.387 . S
H1700 C1712 0.930 . S
H1701 C1714 0.930 . S
H1702 C1715 0.930 . S
H1703 C1719 0.959 . S
H1704 C1719 0.959 . S
H1705 C1719 0.961 1_556 S
H1706 C1720 0.960 1_556 S
H1707 C1720 0.961 . S
H1708 C1720 0.959 . S
H1709 C1723 0.929 . S
H1710 C1724 0.931 . S
H1711 C1726 0.930 . S
C1712 H1700 0.930 . S
C1712 C1713 1.399 . S
C1712 C1717 1.399 . S
C1713 C1712 1.399 . S
C1713 C1714 1.376 . S
C1714 H1701 0.930 . S
C1714 C1713 1.376 . S
C1714 C1715 1.388 . S
C1715 H1702 0.930 . S
C1715 C1714 1.388 . S
C1715 C1716 1.390 . S
C1716 C1715 1.390 . S
C1716 C1717 1.394 . S
C1716 C1722 1.465 1_556 S
C1717 C1712 1.399 . S
C1717 C1716 1.394 . S
C1717 C1718 1.516 1_556 S
C1718 C1717 1.516 1_554 S
C1718 C1719 1.502 . S
C1718 C1720 1.561 . S
C1718 C1721 1.526 . S
C1719 H1703 0.959 . S
C1719 H1704 0.959 . S
C1719 H1705 0.961 1_554 S
C1719 C1718 1.502 . S
C1720 H1706 0.960 1_554 S
C1720 H1707 0.961 . S
C1720 H1708 0.959 . S
C1720 C1718 1.561 . S
C1721 C1718 1.526 . S
C1721 C1722 1.396 . S
C1721 C1726 1.390 . S
C1722 C1716 1.465 1_554 S
C1722 C1721 1.396 . S
C1722 C1723 1.399 . S
C1723 H1709 0.929 . S
C1723 C1722 1.399 . S
C1723 C1724 1.385 . S
C1724 H1710 0.931 . S
C1724 C1723 1.385 . S
C1724 C1725 1.389 . S
C1725 C1724 1.389 . S
C1725 C1726 1.387 . S
C1726 H1711 0.930 . S
C1726 C1721 1.390 . S
C1726 C1725 1.387 . S
H1727 C1739 0.930 . S
H1728 C1741 0.930 . S
H1729 C1742 0.930 . S
H1730 C1746 0.959 . S
H1731 C1746 0.959 . S
H1732 C1746 0.961 . S
H1733 C1747 0.960 . S
H1734 C1747 0.961 . S
H1735 C1747 0.959 . S
H1736 C1750 0.929 . S
H1737 C1751 0.931 . S
H1738 C1753 0.930 . S
C1739 H1727 0.930 . S
C1739 C1740 1.399 . S
C1739 C1744 1.399 . S
C1740 C1739 1.399 . S
C1740 C1741 1.376 . S
C1741 H1728 0.930 . S
C1741 C1740 1.376 . S
C1741 C1742 1.388 . S
C1742 H1729 0.930 . S
C1742 C1741 1.388 . S
C1742 C1743 1.390 . S
C1743 C1742 1.390 . S
C1743 C1744 1.394 . S
C1743 C1749 1.465 . S
C1744 C1739 1.399 . S
C1744 C1743 1.394 . S
C1744 C1745 1.516 . S
C1745 C1744 1.516 . S
C1745 C1746 1.502 . S
C1745 C1747 1.561 . S
C1745 C1748 1.526 . S
C1746 H1730 0.959 . S
C1746 H1731 0.959 . S
C1746 H1732 0.961 . S
C1746 C1745 1.502 . S
C1747 H1733 0.960 . S
C1747 H1734 0.961 . S
C1747 H1735 0.959 . S
C1747 C1745 1.561 . S
C1748 C1745 1.526 . S
C1748 C1749 1.396 . S
C1748 C1753 1.390 . S
C1749 C1743 1.465 . S
C1749 C1748 1.396 . S
C1749 C1750 1.399 . S
C1750 H1736 0.929 . S
C1750 C1749 1.399 . S
C1750 C1751 1.385 . S
C1751 H1737 0.931 . S
C1751 C1750 1.385 . S
C1751 C1752 1.389 . S
C1752 C1751 1.389 . S
C1752 C1753 1.387 . S
C1753 H1738 0.930 . S
C1753 C1748 1.390 . S
C1753 C1752 1.387 . S
H1754 C1766 0.930 . S
H1755 C1768 0.930 . S
H1756 C1769 0.930 . S
H1757 C1773 0.959 . S
H1758 C1773 0.959 1_556 S
H1759 C1773 0.961 . S
H1760 C1774 0.960 . S
H1761 C1774 0.961 1_556 S
H1762 C1774 0.959 1_655 S
H1763 C1777 0.929 . S
H1764 C1778 0.931 . S
H1765 C1780 0.930 . S
C1766 H1754 0.930 . S
C1766 C1767 1.399 . S
C1766 C1771 1.399 . S
C1767 C1766 1.399 . S
C1767 C1768 1.376 1_455 S
C1768 H1755 0.930 . S
C1768 C1767 1.376 1_655 S
C1768 C1769 1.388 . S
C1769 H1756 0.930 . S
C1769 C1768 1.388 . S
C1769 C1770 1.390 1_655 S
C1770 C1769 1.390 1_455 S
C1770 C1771 1.394 . S
C1770 C1776 1.465 1_554 S
C1771 C1766 1.399 . S
C1771 C1770 1.394 . S
C1771 C1772 1.516 . S
C1772 C1771 1.516 . S
C1772 C1773 1.502 . S
C1772 C1774 1.561 . S
C1772 C1775 1.526 1_554 S
C1773 H1757 0.959 . S
C1773 H1758 0.959 1_554 S
C1773 H1759 0.961 . S
C1773 C1772 1.502 . S
C1774 H1760 0.960 . S
C1774 H1761 0.961 1_554 S
C1774 H1762 0.959 1_455 S
C1774 C1772 1.561 . S
C1775 C1772 1.526 1_556 S
C1775 C1776 1.396 . S
C1775 C1780 1.390 . S
C1776 C1770 1.465 1_556 S
C1776 C1775 1.396 . S
C1776 C1777 1.399 1_455 S
C1777 H1763 0.929 . S
C1777 C1776 1.399 1_655 S
C1777 C1778 1.385 . S
C1778 H1764 0.931 . S
C1778 C1777 1.385 . S
C1778 C1779 1.389 1_655 S
C1779 C1778 1.389 1_455 S
C1779 C1780 1.387 . S
C1780 H1765 0.930 . S
C1780 C1775 1.390 . S
C1780 C1779 1.387 . S
H1781 C1793 0.930 . S
H1782 C1795 0.930 . S
H1783 C1796 0.930 . S
H1784 C1800 0.959 . S
H1785 C1800 0.959 . S
H1786 C1800 0.961 . S
H1787 C1801 0.960 . S
H1788 C1801 0.961 . S
H1789 C1801 0.959 . S
H1790 C1804 0.929 . S
H1791 C1805 0.931 . S
H1792 C1807 0.930 . S
C1793 H1781 0.930 . S
C1793 C1794 1.399 . S
C1793 C1798 1.399 . S
C1794 C1793 1.399 . S
C1794 C1795 1.376 1_545 S
C1795 H1782 0.930 . S
C1795 C1794 1.376 1_565 S
C1795 C1796 1.388 . S
C1796 H1783 0.930 . S
C1796 C1795 1.388 . S
C1796 C1797 1.390 . S
C1797 C1796 1.390 . S
C1797 C1798 1.394 1_565 S
C1797 C1803 1.465 . S
C1798 C1793 1.399 . S
C1798 C1797 1.394 1_545 S
C1798 C1799 1.516 . S
C1799 C1798 1.516 . S
C1799 C1800 1.502 . S
C1799 C1801 1.561 . S
C1799 C1802 1.526 . S
C1800 H1784 0.959 . S
C1800 H1785 0.959 . S
C1800 H1786 0.961 . S
C1800 C1799 1.502 . S
C1801 H1787 0.960 . S
C1801 H1788 0.961 . S
C1801 H1789 0.959 . S
C1801 C1799 1.561 . S
C1802 C1799 1.526 . S
C1802 C1803 1.396 1_545 S
C1802 C1807 1.390 . S
C1803 C1797 1.465 . S
C1803 C1802 1.396 1_565 S
C1803 C1804 1.399 . S
C1804 H1790 0.929 . S
C1804 C1803 1.399 . S
C1804 C1805 1.385 . S
C1805 H1791 0.931 . S
C1805 C1804 1.385 . S
C1805 C1806 1.389 1_565 S
C1806 C1805 1.389 1_545 S
C1806 C1807 1.387 . S
C1807 H1792 0.930 . S
C1807 C1802 1.390 . S
C1807 C1806 1.387 . S
C957 C5 1.488 . S
C969 C418 1.461 . S
C984 C64 1.447 . S
C996 C241 1.474 . S
C1011 C123 1.471 . S
C1023 C300 1.448 . S
C1038 C182 1.454 . S
C1050 C359 1.456 . S
C1065 C477 1.488 . S
C1077 C890 1.480 . S
C1092 C713 1.456 . S
C1104 C536 1.449 . S
C1119 C595 1.467 . S
C1131 C772 1.449 . S
C1146 C654 1.471 . S
C1158 C831 1.451 . S
C1173 C52 1.600 . S
C1185 C564 1.577 . S
C1200 C111 1.597 . S
C1212 C623 1.577 . S
C1227 C682 1.578 . S
C1239 C170 1.595 . S
C1254 C229 1.582 . S
C1266 C505 1.597 . S
C1281 C288 1.587 . S
C1293 C918 1.597 . S
C1308 C741 1.581 . S
C1320 C347 1.592 . S
C1335 C800 1.598 . S
C1347 C406 1.586 . S
C1362 C859 1.578 . S
C1374 C465 1.595 . S
C1389 C92 1.577 . S
C1401 C524 1.599 . S
C1416 C151 1.593 . S
C1428 C583 1.581 . S
C1443 C642 1.585 . S
C1455 C210 1.582 . S
C1470 C33 1.586 . S
C1482 C701 1.600 . S
C1497 C760 1.581 . S
C1509 C446 1.592 . S
C1524 C819 1.598 . S
C1536 C269 1.577 . S
C1551 C328 1.598 . S
C1563 C878 1.582 . S
C1578 C387 1.583 . S
C1590 C937 1.600 . S
C1605 C3 1.628 . S
C1617 C239 1.631 . S
C1632 C298 1.660 . S
C1644 C62 1.664 . S
C1659 C121 1.672 . S
C1671 C357 1.671 . S
C1686 C416 1.664 . S
C1698 C180 1.667 . S
C1713 C475 1.631 . S
C1725 C711 1.640 . S
C1740 C770 1.631 . S
C1752 C534 1.627 . S
C1767 C829 1.667 . S
C1779 C593 1.660 . S
C1794 C888 1.669 . S
C1806 C652 1.671 . S
