# Generated by pormake.
# Topology soi, (5)-cn, num edge types: 1
# Building blocks:
#     Node 0, Type 0, BuildingBlock: BEQFEK_clean_sbu_0, # of connection points: 5
#     Node 1, Type 0, BuildingBlock: BEQFEK_clean_sbu_0, # of connection points: 5
#     Node 2, Type 0, BuildingBlock: BEQFEK_clean_sbu_0, # of connection points: 5
#     Node 3, Type 0, BuildingBlock: BEQFEK_clean_sbu_0, # of connection points: 5
#     Node 4, Type 0, BuildingBlock: BEQFEK_clean_sbu_0, # of connection points: 5
#     Node 5, Type 0, BuildingBlock: BEQFEK_clean_sbu_0, # of connection points: 5
#     Node 6, Type 0, BuildingBlock: BEQFEK_clean_sbu_0, # of connection points: 5
#     Node 7, Type 0, BuildingBlock: BEQFEK_clean_sbu_0, # of connection points: 5
#     Node 8, Type 0, BuildingBlock: BEQFEK_clean_sbu_0, # of connection points: 5
#     Node 9, Type 0, BuildingBlock: BEQFEK_clean_sbu_0, # of connection points: 5
#     Node 10, Type 0, BuildingBlock: BEQFEK_clean_sbu_0, # of connection points: 5
#     Node 11, Type 0, BuildingBlock: BEQFEK_clean_sbu_0, # of connection points: 5
#     Node 12, Type 0, BuildingBlock: BEQFEK_clean_sbu_0, # of connection points: 5
#     Node 13, Type 0, BuildingBlock: BEQFEK_clean_sbu_0, # of connection points: 5
#     Node 14, Type 0, BuildingBlock: BEQFEK_clean_sbu_0, # of connection points: 5
#     Node 15, Type 0, BuildingBlock: BEQFEK_clean_sbu_0, # of connection points: 5
#     Edge 16, Type (0, 0), BuildingBlock: UVAHIK_clean_linker_0, # of connection points: 2
#     Edge 17, Type (0, 0), BuildingBlock: UVAHIK_clean_linker_0, # of connection points: 2
#     Edge 18, Type (0, 0), BuildingBlock: UVAHIK_clean_linker_0, # of connection points: 2
#     Edge 19, Type (0, 0), BuildingBlock: UVAHIK_clean_linker_0, # of connection points: 2
#     Edge 20, Type (0, 0), BuildingBlock: UVAHIK_clean_linker_0, # of connection points: 2
#     Edge 21, Type (0, 0), BuildingBlock: UVAHIK_clean_linker_0, # of connection points: 2
#     Edge 22, Type (0, 0), BuildingBlock: UVAHIK_clean_linker_0, # of connection points: 2
#     Edge 23, Type (0, 0), BuildingBlock: UVAHIK_clean_linker_0, # of connection points: 2
#     Edge 24, Type (0, 0), BuildingBlock: UVAHIK_clean_linker_0, # of connection points: 2
#     Edge 25, Type (0, 0), BuildingBlock: UVAHIK_clean_linker_0, # of connection points: 2
#     Edge 26, Type (0, 0), BuildingBlock: UVAHIK_clean_linker_0, # of connection points: 2
#     Edge 27, Type (0, 0), BuildingBlock: UVAHIK_clean_linker_0, # of connection points: 2
#     Edge 28, Type (0, 0), BuildingBlock: UVAHIK_clean_linker_0, # of connection points: 2
#     Edge 29, Type (0, 0), BuildingBlock: UVAHIK_clean_linker_0, # of connection points: 2
#     Edge 30, Type (0, 0), BuildingBlock: UVAHIK_clean_linker_0, # of connection points: 2
#     Edge 31, Type (0, 0), BuildingBlock: UVAHIK_clean_linker_0, # of connection points: 2
#     Edge 32, Type (0, 0), BuildingBlock: UVAHIK_clean_linker_0, # of connection points: 2
#     Edge 33, Type (0, 0), BuildingBlock: UVAHIK_clean_linker_0, # of connection points: 2
#     Edge 34, Type (0, 0), BuildingBlock: UVAHIK_clean_linker_0, # of connection points: 2
#     Edge 35, Type (0, 0), BuildingBlock: UVAHIK_clean_linker_0, # of connection points: 2
#     Edge 36, Type (0, 0), BuildingBlock: UVAHIK_clean_linker_0, # of connection points: 2
#     Edge 37, Type (0, 0), BuildingBlock: UVAHIK_clean_linker_0, # of connection points: 2
#     Edge 38, Type (0, 0), BuildingBlock: UVAHIK_clean_linker_0, # of connection points: 2
#     Edge 39, Type (0, 0), BuildingBlock: UVAHIK_clean_linker_0, # of connection points: 2
#     Edge 40, Type (0, 0), BuildingBlock: UVAHIK_clean_linker_0, # of connection points: 2
#     Edge 41, Type (0, 0), BuildingBlock: UVAHIK_clean_linker_0, # of connection points: 2
#     Edge 42, Type (0, 0), BuildingBlock: UVAHIK_clean_linker_0, # of connection points: 2
#     Edge 43, Type (0, 0), BuildingBlock: UVAHIK_clean_linker_0, # of connection points: 2
#     Edge 44, Type (0, 0), BuildingBlock: UVAHIK_clean_linker_0, # of connection points: 2
#     Edge 45, Type (0, 0), BuildingBlock: UVAHIK_clean_linker_0, # of connection points: 2
#     Edge 46, Type (0, 0), BuildingBlock: UVAHIK_clean_linker_0, # of connection points: 2
#     Edge 47, Type (0, 0), BuildingBlock: UVAHIK_clean_linker_0, # of connection points: 2
#     Edge 48, Type (0, 0), BuildingBlock: UVAHIK_clean_linker_0, # of connection points: 2
#     Edge 49, Type (0, 0), BuildingBlock: UVAHIK_clean_linker_0, # of connection points: 2
#     Edge 50, Type (0, 0), BuildingBlock: UVAHIK_clean_linker_0, # of connection points: 2
#     Edge 51, Type (0, 0), BuildingBlock: UVAHIK_clean_linker_0, # of connection points: 2
#     Edge 52, Type (0, 0), BuildingBlock: UVAHIK_clean_linker_0, # of connection points: 2
#     Edge 53, Type (0, 0), BuildingBlock: UVAHIK_clean_linker_0, # of connection points: 2
#     Edge 54, Type (0, 0), BuildingBlock: UVAHIK_clean_linker_0, # of connection points: 2
#     Edge 55, Type (0, 0), BuildingBlock: UVAHIK_clean_linker_0, # of connection points: 2
# Relax obj value: 0.127
# Max RMSD: 0.199
# Mean RMSD: 0.181
data_MOF--net-soi--node1-BEQFEK_clean_sbu_0--edge1-UVAHIK_clean_linker_0
_symmetry_space_group_name_H-M    P1
_symmetry_Int_Tables_number       1
_symmetry_cell_setting            triclinic
loop_
_symmetry_equiv_pos_as_xyz
'x, y, z'
_cell_length_a     45.58285
_cell_length_b     35.019796
_cell_length_c     91.726328
_cell_angle_alpha  90.028646
_cell_angle_beta   90.016562
_cell_angle_gamma 91.106638
loop_
_atom_site_label
_atom_site_type_symbol
_atom_site_fract_x
_atom_site_fract_y
_atom_site_fract_z
_atom_type_partial_charge
Co0 Co 0.34812 0.06531 0.14303 0.0
Co1 Co 0.33389 0.06198 0.10927 0.0
C2 C 0.29317 0.09848 0.13045 0.0
O3 O 0.30989 0.09134 0.14121 0.0
O4 O 0.29962 0.08811 0.11755 0.0
C5 C 0.34913 0.08059 0.17392 0.0
O6 O 0.33654 0.11252 0.17012 0.0
C7 C 0.30421 0.05783 0.08048 0.0
C8 C 0.33851 0.03178 0.06692 0.0
C9 C 0.31002 0.04481 0.06646 0.0
N10 N 0.32798 0.05194 0.08886 0.0
N11 N 0.34845 0.03666 0.08063 0.0
C12 C 0.27776 0.07865 0.08557 0.0
H13 H 0.28483 0.10437 0.09179 0.0
H14 H 0.2647 0.05981 0.09294 0.0
H15 H 0.26387 0.08796 0.07637 0.0
C16 C 0.35161 0.9823 0.13853 0.0
N17 N 0.34754 0.01774 0.13335 0.0
N18 N 0.34017 0.01571 0.1195 0.0
C19 C 0.33827 0.97863 0.11556 0.0
C20 C 0.34576 0.95624 0.12746 0.0
C21 C 0.36157 0.97391 0.15372 0.0
H22 H 0.37982 0.99378 0.15674 0.0
H23 H 0.34316 0.9785 0.1614 0.0
H24 H 0.36921 0.94415 0.1548 0.0
O25 O 0.37857 0.09921 0.13472 0.0
O26 O 0.36878 0.09713 0.11098 0.0
H27 H 0.34422 0.96389 0.09317 0.0
H28 H 0.31629 0.93576 0.10227 0.0
C29 C 0.32619 0.96483 0.10127 0.0
H30 H 0.30919 0.98445 0.09728 0.0
H31 H 0.36918 0.02934 0.08441 0.0
O32 O 0.35626 0.05698 0.16408 0.0
C33 C 0.38404 0.10962 0.12169 0.0
Co34 Co 0.65103 0.42978 0.14218 0.0
Co35 Co 0.66417 0.43549 0.1082 0.0
C36 C 0.70219 0.39066 0.12827 0.0
O37 O 0.68661 0.39869 0.13935 0.0
O38 O 0.69604 0.40323 0.11563 0.0
C39 C 0.66272 0.42897 0.17314 0.0
O40 O 0.68854 0.41703 0.16896 0.0
C41 C 0.6955 0.44212 0.07996 0.0
C42 C 0.6626 0.46994 0.06609 0.0
C43 C 0.69083 0.45608 0.06602 0.0
N44 N 0.67111 0.44735 0.08795 0.0
N45 N 0.65147 0.46377 0.07952 0.0
C46 C 0.72335 0.42647 0.08588 0.0
H47 H 0.72814 0.43946 0.09668 0.0
H48 H 0.74216 0.43217 0.07847 0.0
H49 H 0.72051 0.39517 0.08734 0.0
C50 C 0.65361 0.51348 0.13916 0.0
N51 N 0.65548 0.47826 0.13341 0.0
N52 N 0.662 0.48102 0.11947 0.0
C53 C 0.6654 0.51826 0.11601 0.0
C54 C 0.65987 0.54005 0.12834 0.0
C55 C 0.64461 0.52124 0.15456 0.0
H56 H 0.62542 0.50282 0.15745 0.0
H57 H 0.66292 0.51413 0.162 0.0
H58 H 0.63871 0.55153 0.15617 0.0
O59 O 0.61753 0.40246 0.1333 0.0
O60 O 0.62641 0.40561 0.10947 0.0
H61 H 0.6576 0.53373 0.09385 0.0
H62 H 0.68638 0.56149 0.10251 0.0
C63 C 0.67628 0.53252 0.10157 0.0
H64 H 0.69285 0.51292 0.09714 0.0
H65 H 0.63058 0.47126 0.08301 0.0
O66 O 0.64334 0.43568 0.16354 0.0
C67 C 0.61048 0.39464 0.12018 0.0
Co68 Co 0.34866 0.92803 0.40127 0.0
Co69 Co 0.34814 0.93468 0.36695 0.0
C70 C 0.39496 0.89201 0.38192 0.0
O71 O 0.38372 0.8999 0.39432 0.0
O72 O 0.38376 0.90396 0.37002 0.0
C73 C 0.36252 0.94512 0.43264 0.0
O74 O 0.38605 0.96494 0.42883 0.0
C75 C 0.35811 0.95405 0.33529 0.0
C76 C 0.31291 0.97095 0.32985 0.0
C77 C 0.34089 0.96863 0.32414 0.0
N78 N 0.34093 0.9486 0.34711 0.0
N79 N 0.31393 0.95822 0.34363 0.0
C80 C 0.39056 0.94873 0.33514 0.0
H81 H 0.39937 0.9487 0.34642 0.0
H82 H 0.40154 0.97157 0.32863 0.0
H83 H 0.39534 0.92086 0.32998 0.0
C84 C 0.34451 0.0126 0.39846 0.0
N85 N 0.34723 0.97727 0.39283 0.0
N86 N 0.34978 0.97988 0.37857 0.0
C87 C 0.35047 0.01705 0.37477 0.0
C88 C 0.34679 0.03908 0.38721 0.0
C89 C 0.33616 0.02052 0.41394 0.0
H90 H 0.3239 0.9958 0.41861 0.0
H91 H 0.3563 0.02601 0.42045 0.0
H92 H 0.32228 0.04614 0.41465 0.0
O93 O 0.31371 0.89826 0.39592 0.0
O94 O 0.31319 0.90197 0.37187 0.0
H95 H 0.33574 0.02959 0.35319 0.0
H96 H 0.36459 0.06121 0.35971 0.0
C97 C 0.3563 0.03122 0.35964 0.0
H98 H 0.3729 0.01318 0.35434 0.0
H99 H 0.2963 0.95734 0.35088 0.0
O100 O 0.34656 0.92928 0.42293 0.0
C101 C 0.30208 0.88985 0.38375 0.0
Co102 Co 0.65712 0.55922 0.40064 0.0
Co103 Co 0.6627 0.56055 0.36626 0.0
C104 C 0.61458 0.60185 0.38246 0.0
O105 O 0.62359 0.59108 0.39497 0.0
O106 O 0.62735 0.5917 0.37069 0.0
C107 C 0.6461 0.54948 0.4334 0.0
O108 O 0.61742 0.55105 0.43231 0.0
C109 C 0.64972 0.53988 0.33521 0.0
C110 C 0.69385 0.54924 0.32574 0.0
C111 C 0.66576 0.53636 0.32237 0.0
N112 N 0.6678 0.55375 0.34567 0.0
N113 N 0.69396 0.55979 0.33981 0.0
C114 C 0.61869 0.52723 0.33788 0.0
H115 H 0.61458 0.52377 0.34974 0.0
H116 H 0.61383 0.50002 0.33207 0.0
H117 H 0.60376 0.54921 0.33359 0.0
C118 C 0.6535 0.47644 0.3951 0.0
N119 N 0.65612 0.51261 0.39032 0.0
N120 N 0.66055 0.51257 0.37613 0.0
C121 C 0.66217 0.47606 0.37154 0.0
C122 C 0.6574 0.45189 0.38338 0.0
C123 C 0.64626 0.46609 0.41052 0.0
H124 H 0.63003 0.48628 0.4149 0.0
H125 H 0.63709 0.4366 0.41133 0.0
H126 H 0.66644 0.46853 0.41726 0.0
O127 O 0.69362 0.58795 0.39645 0.0
O128 O 0.69781 0.59011 0.37248 0.0
H129 H 0.68226 0.43654 0.3566 0.0
H130 H 0.65191 0.46265 0.34936 0.0
C131 C 0.67147 0.46466 0.35652 0.0
H132 H 0.68708 0.48613 0.35199 0.0
H133 H 0.71229 0.56982 0.34556 0.0
O134 O 0.66195 0.5515 0.42202 0.0
C135 C 0.70742 0.59844 0.38509 0.0
Co136 Co 0.67195 0.92284 0.91237 0.0
Co137 Co 0.66618 0.91952 0.87792 0.0
C138 C 0.62264 0.87961 0.89815 0.0
O139 O 0.63577 0.89064 0.90978 0.0
O140 O 0.63202 0.88927 0.88551 0.0
C141 C 0.67046 0.93691 0.94525 0.0
O142 O 0.64167 0.9371 0.94577 0.0
C143 C 0.64506 0.93601 0.84748 0.0
C144 C 0.68426 0.91832 0.83527 0.0
C145 C 0.65672 0.93365 0.83338 0.0
N146 N 0.66514 0.92309 0.85701 0.0
N147 N 0.68832 0.91233 0.84954 0.0
C148 C 0.61628 0.95185 0.85207 0.0
H149 H 0.6161 0.95718 0.86401 0.0
H150 H 0.612 0.97877 0.84612 0.0
H151 H 0.59849 0.93088 0.84946 0.0
C152 C 0.66844 0.0056 0.90603 0.0
N153 N 0.66898 0.969 0.90158 0.0
N154 N 0.66863 0.96797 0.88723 0.0
C155 C 0.66922 0.00402 0.88209 0.0
C156 C 0.66865 0.02915 0.89383 0.0
C157 C 0.66617 0.01729 0.92167 0.0
H158 H 0.65077 -0.00238 0.92742 0.0
H159 H 0.65821 0.04688 0.92278 0.0
H160 H 0.68804 0.01522 0.9269 0.0
O161 O 0.70611 0.89332 0.90579 0.0
O162 O 0.70176 0.89079 0.88183 0.0
H163 H 0.6856 0.04195 0.86527 0.0
H164 H 0.65191 0.01682 0.86102 0.0
C165 C 0.67358 0.01424 0.86637 0.0
H166 H 0.68623 0.99195 0.86074 0.0
H167 H 0.70727 0.90142 0.8542 0.0
O168 O 0.68342 0.93245 0.93311 0.0
C169 C 0.71539 0.8826 0.89343 0.0
Co170 Co 0.33539 0.55969 0.91234 0.0
Co171 Co 0.33999 0.56553 0.87801 0.0
C172 C 0.38489 0.60271 0.89808 0.0
O173 O 0.3719 0.59129 0.90967 0.0
O174 O 0.37498 0.59416 0.88544 0.0
C175 C 0.32635 0.57329 0.94268 0.0
O176 O 0.33395 0.60827 0.93887 0.0
C177 C 0.36078 0.55166 0.84748 0.0
C178 C 0.32293 0.57389 0.83529 0.0
C179 C 0.35016 0.55785 0.83348 0.0
N180 N 0.34053 0.56357 0.85711 0.0
N181 N 0.31801 0.57668 0.84968 0.0
C182 C 0.39025 0.5372 0.85163 0.0
H183 H 0.39324 0.53814 0.86364 0.0
H184 H 0.39252 0.50741 0.84776 0.0
H185 H 0.40761 0.55478 0.84623 0.0
C186 C 0.33702 0.47737 0.90497 0.0
N187 N 0.33725 0.51434 0.90097 0.0
N188 N 0.33729 0.51648 0.88664 0.0
C189 C 0.33579 0.48091 0.88106 0.0
C190 C 0.33599 0.45479 0.89249 0.0
C191 C 0.33897 0.46435 0.92048 0.0
H192 H 0.35376 0.48388 0.9267 0.0
H193 H 0.34733 0.43486 0.9212 0.0
H194 H 0.31685 0.4652 0.92551 0.0
O195 O 0.30098 0.59053 0.90677 0.0
O196 O 0.30505 0.59472 0.8828 0.0
H197 H 0.31863 0.44486 0.8638 0.0
H198 H 0.35238 0.47011 0.8597 0.0
C199 C 0.33088 0.47228 0.86525 0.0
H200 H 0.31824 0.49527 0.86005 0.0
H201 H 0.29923 0.58781 0.85442 0.0
O202 O 0.32737 0.54689 0.93317 0.0
C203 C 0.29173 0.60247 0.89455 0.0
Co204 Co 0.65955 0.06347 0.61112 0.0
Co205 Co 0.65409 0.06845 0.64547 0.0
C206 C 0.61055 0.10517 0.62475 0.0
O207 O 0.62329 0.09385 0.61316 0.0
O208 O 0.62029 0.0968 0.63738 0.0
C209 C 0.65861 0.04799 0.5784 0.0
O210 O 0.62986 0.04494 0.57796 0.0
C211 C 0.62993 0.04975 0.675 0.0
C212 C 0.66384 0.0775 0.68883 0.0
C213 C 0.6378 0.05659 0.68946 0.0
N214 N 0.65057 0.06581 0.66631 0.0
N215 N 0.67066 0.08238 0.6747 0.0
C216 C 0.60236 0.03087 0.66952 0.0
H217 H 0.59939 0.03668 0.65772 0.0
H218 H 0.60344 -0.00042 0.67115 0.0
H219 H 0.58325 0.04122 0.67578 0.0
C220 C 0.65889 0.98096 0.61812 0.0
N221 N 0.65705 0.01769 0.62224 0.0
N222 N 0.65712 0.01959 0.63659 0.0
C223 C 0.66043 0.98417 0.64203 0.0
C224 C 0.66131 0.95835 0.63051 0.0
C225 C 0.65791 0.96813 0.60257 0.0
H226 H 0.64166 0.9851 0.5965 0.0
H227 H 0.65176 0.93741 0.60168 0.0
H228 H 0.67976 0.97314 0.59751 0.0
O229 O 0.69345 0.09486 0.61782 0.0
O230 O 0.69017 0.09848 0.64184 0.0
H231 H 0.68231 0.95173 0.65866 0.0
H232 H 0.6465 0.96807 0.66346 0.0
C233 C 0.6671 0.97596 0.6577 0.0
H234 H 0.67723 0.00134 0.66303 0.0
H235 H 0.68915 0.09713 0.67079 0.0
O236 O 0.67154 0.05412 0.59048 0.0
C237 C 0.70336 0.1065 0.63002 0.0
Co238 Co 0.3349 0.42619 0.60735 0.0
Co239 Co 0.34093 0.42927 0.6417 0.0
C240 C 0.38319 0.38553 0.62362 0.0
O241 O 0.37042 0.39533 0.61181 0.0
O242 O 0.37417 0.39672 0.63607 0.0
C243 C 0.33975 0.44337 0.57493 0.0
O244 O 0.36481 0.46205 0.57655 0.0
C245 C 0.36002 0.44282 0.67275 0.0
C246 C 0.31768 0.46169 0.68172 0.0
C247 C 0.34673 0.45625 0.68533 0.0
N248 N 0.33957 0.44072 0.66213 0.0
N249 N 0.31429 0.45145 0.66771 0.0
C250 C 0.39184 0.43507 0.67057 0.0
H251 H 0.39784 0.43817 0.6589 0.0
H252 H 0.40557 0.45464 0.67736 0.0
H253 H 0.39617 0.40533 0.67401 0.0
C254 C 0.33468 0.51088 0.61173 0.0
N255 N 0.33708 0.47475 0.61662 0.0
N256 N 0.34188 0.47559 0.63078 0.0
C257 C 0.34419 0.51222 0.63518 0.0
C258 C 0.33931 0.53587 0.62333 0.0
C259 C 0.32484 0.52108 0.59669 0.0
H260 H 0.31058 0.49802 0.59214 0.0
H261 H 0.34434 0.52502 0.58959 0.0
H262 H 0.31252 0.5481 0.59674 0.0
O263 O 0.30031 0.39791 0.61432 0.0
O264 O 0.30367 0.4001 0.63834 0.0
H265 H 0.33304 0.5224 0.65748 0.0
H266 H 0.36132 0.55412 0.65048 0.0
C267 C 0.35257 0.52434 0.6503 0.0
H268 H 0.36963 0.50529 0.6546 0.0
H269 H 0.29484 0.45306 0.66176 0.0
O270 O 0.32691 0.42882 0.58597 0.0
C271 C 0.29022 0.38964 0.62684 0.0
Co272 Co 0.84826 0.56391 0.64416 0.0
Co273 Co 0.83857 0.56405 0.60984 0.0
C274 C 0.79882 0.60558 0.6305 0.0
O275 O 0.81207 0.59424 0.64188 0.0
O276 O 0.8074 0.59622 0.61781 0.0
C277 C 0.84282 0.57214 0.67552 0.0
O278 O 0.82625 0.6012 0.67225 0.0
C279 C 0.80718 0.55399 0.58138 0.0
C280 C 0.84472 0.55056 0.56627 0.0
C281 C 0.8143 0.55009 0.56667 0.0
N282 N 0.83226 0.5564 0.58921 0.0
N283 N 0.85454 0.55413 0.58006 0.0
C284 C 0.77708 0.55664 0.5878 0.0
H285 H 0.77776 0.56841 0.59894 0.0
H286 H 0.767 0.52762 0.58844 0.0
H287 H 0.76302 0.57465 0.58084 0.0
C288 C 0.84702 0.48102 0.63882 0.0
N289 N 0.84518 0.51712 0.63397 0.0
N290 N 0.84004 0.51671 0.61986 0.0
C291 C 0.83771 0.48016 0.61532 0.0
C292 C 0.84217 0.45628 0.6272 0.0
C293 C 0.85493 0.47075 0.65416 0.0
H294 H 0.87411 0.48837 0.65771 0.0
H295 H 0.83625 0.47711 0.66147 0.0
H296 H 0.86054 0.4402 0.6552 0.0
O297 O 0.88199 0.59399 0.63662 0.0
O298 O 0.87632 0.59291 0.61251 0.0
H299 H 0.8475 0.47595 0.5926 0.0
H300 H 0.8237 0.43787 0.59928 0.0
C301 C 0.82921 0.46873 0.60014 0.0
H302 H 0.80981 0.48503 0.59673 0.0
H303 H 0.87651 0.55554 0.58321 0.0
O304 O 0.85455 0.55329 0.66529 0.0
C305 C 0.89065 0.6032 0.62386 0.0
Co306 Co 0.16578 0.92945 0.64097 0.0
Co307 Co 0.17001 0.93058 0.60663 0.0
C308 C 0.21554 0.8935 0.62571 0.0
O309 O 0.20262 0.90215 0.63753 0.0
O310 O 0.20519 0.90304 0.61337 0.0
C311 C 0.13832 0.93649 0.66955 0.0
O312 O 0.11381 0.92678 0.66285 0.0
C313 C 0.20053 0.94721 0.57935 0.0
C314 C 0.16595 0.93912 0.56273 0.0
C315 C 0.19564 0.94742 0.56441 0.0
N316 N 0.17511 0.93869 0.58614 0.0
N317 N 0.15445 0.93406 0.57615 0.0
C318 C 0.22847 0.95681 0.58721 0.0
H319 H 0.24151 0.93062 0.58837 0.0
H320 H 0.2237 0.96792 0.59827 0.0
H321 H 0.24166 0.97823 0.58099 0.0
C322 C 0.16465 0.01285 0.63606 0.0
N323 N 0.16583 0.97681 0.63103 0.0
N324 N 0.16592 0.97735 0.6167 0.0
C325 C 0.16376 0.01371 0.61211 0.0
C326 C 0.16297 0.03756 0.62424 0.0
C327 C 0.16772 0.02323 0.65184 0.0
H328 H 0.18358 0.00415 0.65719 0.0
H329 H 0.17556 0.05317 0.65327 0.0
H330 H 0.14614 0.01946 0.6573 0.0
O331 O 0.13266 0.89619 0.63424 0.0
O332 O 0.13516 0.8972 0.61001 0.0
H333 H 0.15141 0.05369 0.5953 0.0
H334 H 0.18297 0.02502 0.59127 0.0
C335 C 0.16096 0.02494 0.59644 0.0
H336 H 0.14673 0.00392 0.59062 0.0
H337 H 0.13264 0.92683 0.57848 0.0
O338 O 0.16213 0.93845 0.66233 0.0
C339 C 0.12303 0.88566 0.62177 0.0
Co340 Co 0.84388 0.4237 0.90287 0.0
Co341 Co 0.84203 0.42617 0.86835 0.0
C342 C 0.88863 0.3839 0.88391 0.0
O343 O 0.87825 0.39354 0.89631 0.0
O344 O 0.87694 0.39474 0.87199 0.0
C345 C 0.85831 0.44428 0.93398 0.0
O346 O 0.88151 0.46421 0.9298 0.0
C347 C 0.85196 0.43906 0.8361 0.0
C348 C 0.80578 0.44697 0.8296 0.0
C349 C 0.83401 0.44597 0.82412 0.0
N350 N 0.83487 0.43628 0.84809 0.0
N351 N 0.80737 0.44109 0.84402 0.0
C352 C 0.88443 0.4337 0.83606 0.0
H353 H 0.89127 0.41719 0.84574 0.0
H354 H 0.89567 0.46206 0.8364 0.0
H355 H 0.89127 0.41894 0.82593 0.0
C356 C 0.84198 0.50813 0.89836 0.0
N357 N 0.84322 0.47196 0.89339 0.0
N358 N 0.84484 0.47264 0.87905 0.0
C359 C 0.84624 0.50919 0.87452 0.0
C360 C 0.84433 0.53297 0.88659 0.0
C361 C 0.83477 0.51864 0.91375 0.0
H362 H 0.82231 0.49512 0.91913 0.0
H363 H 0.85537 0.5245 0.91985 0.0
H364 H 0.82145 0.54483 0.91407 0.0
O365 O 0.80818 0.39447 0.89827 0.0
O366 O 0.80661 0.39581 0.87419 0.0
H367 H 0.82976 0.51777 0.85298 0.0
H368 H 0.85893 0.55084 0.85813 0.0
C369 C 0.8508 0.52087 0.85899 0.0
H370 H 0.86704 0.50202 0.85385 0.0
H371 H 0.78954 0.44029 0.85116 0.0
O372 O 0.84227 0.42728 0.92457 0.0
C373 C 0.79577 0.3854 0.88635 0.0
Co374 Co 0.15744 0.05901 0.89997 0.0
Co375 Co 0.15734 0.05563 0.86555 0.0
C376 C 0.11101 0.09735 0.88197 0.0
O377 O 0.12218 0.08813 0.89424 0.0
O378 O 0.12216 0.08658 0.86988 0.0
C379 C 0.1462 0.04881 0.93243 0.0
O380 O 0.11767 0.04487 0.93081 0.0
C381 C 0.14574 0.04284 0.83342 0.0
C382 C 0.1912 0.03074 0.82672 0.0
C383 C 0.16299 0.03403 0.82136 0.0
N384 N 0.16321 0.04448 0.8453 0.0
N385 N 0.19026 0.03716 0.84112 0.0
C386 C 0.11366 0.05096 0.83361 0.0
H387 H 0.10819 0.06924 0.84304 0.0
H388 H 0.10114 0.02361 0.83464 0.0
H389 H 0.107 0.06506 0.82332 0.0
C390 C 0.15853 0.97518 0.89611 0.0
N391 N 0.1576 0.01088 0.89072 0.0
N392 N 0.15591 0.00933 0.87642 0.0
C393 C 0.15459 0.97243 0.87226 0.0
C394 C 0.1564 0.94945 0.88458 0.0
C395 C 0.16411 0.96638 0.91183 0.0
H396 H 0.18027 0.98722 0.91637 0.0
H397 H 0.14331 0.96883 0.91802 0.0
H398 H 0.17277 0.93728 0.91331 0.0
O399 O 0.19218 0.08911 0.89456 0.0
O400 O 0.19281 0.08717 0.87051 0.0
H401 H 0.17114 0.96215 0.85084 0.0
H402 H 0.14192 0.92958 0.85631 0.0
C403 C 0.15006 0.95961 0.85684 0.0
H404 H 0.13389 0.97813 0.85144 0.0
H405 H 0.20822 0.03663 0.84817 0.0
O406 O 0.1625 0.05414 0.92135 0.0
C407 C 0.20394 0.09829 0.88252 0.0
Co408 Co 0.16525 0.42927 0.41066 0.0
Co409 Co 0.16033 0.42259 0.3764 0.0
C410 C 0.11631 0.38487 0.39703 0.0
O411 O 0.129 0.39727 0.40856 0.0
O412 O 0.1262 0.3931 0.38437 0.0
C413 C 0.17559 0.4154 0.44074 0.0
O414 O 0.16766 0.3806 0.43684 0.0
C415 C 0.13664 0.44054 0.347 0.0
C416 C 0.16988 0.4138 0.33297 0.0
C417 C 0.14427 0.43433 0.33253 0.0
N418 N 0.15704 0.42457 0.35557 0.0
N419 N 0.17672 0.40851 0.34708 0.0
C420 C 0.10943 0.45868 0.3526 0.0
H421 H 0.1087 0.45755 0.3647 0.0
H422 H 0.10857 0.4888 0.34898 0.0
H423 H 0.0899 0.44354 0.34802 0.0
C424 C 0.16365 0.5113 0.40321 0.0
N425 N 0.1628 0.47431 0.39925 0.0
N426 N 0.16314 0.47192 0.38493 0.0
C427 C 0.16575 0.5074 0.37932 0.0
C428 C 0.16568 0.53368 0.39071 0.0
C429 C 0.1619 0.5245 0.4187 0.0
H430 H 0.14711 0.50512 0.42499 0.0
H431 H 0.15366 0.55406 0.41938 0.0
H432 H 0.18406 0.5236 0.42369 0.0
O433 O 0.19945 0.39874 0.40462 0.0
O434 O 0.19608 0.39421 0.3806 0.0
H435 H 0.18732 0.54114 0.36267 0.0
H436 H 0.152 0.52167 0.35774 0.0
C437 C 0.17258 0.51568 0.36365 0.0
H438 H 0.18336 0.49102 0.3585 0.0
H439 H 0.19496 0.39404 0.35091 0.0
O440 O 0.1743 0.44209 0.43138 0.0
C441 C 0.20916 0.38688 0.39247 0.0
Co442 Co 0.82845 0.06727 0.41424 0.0
Co443 Co 0.83818 0.06222 0.3801 0.0
C444 C 0.88031 0.10578 0.39883 0.0
O445 O 0.86583 0.09714 0.41037 0.0
O446 O 0.87214 0.09407 0.38624 0.0
C447 C 0.83065 0.04912 0.44641 0.0
O448 O 0.85495 0.03007 0.44467 0.0
C449 C 0.85839 0.04643 0.34934 0.0
C450 C 0.81587 0.02614 0.34034 0.0
C451 C 0.84517 0.03144 0.33686 0.0
N452 N 0.83767 0.04927 0.35978 0.0
N453 N 0.81232 0.03768 0.35416 0.0
C454 C 0.89033 0.05473 0.35167 0.0
H455 H 0.89573 0.0542 0.36346 0.0
H456 H 0.90376 0.03374 0.34569 0.0
H457 H 0.89573 0.08358 0.34733 0.0
C458 C 0.82567 0.98216 0.41029 0.0
N459 N 0.82964 0.01818 0.40532 0.0
N460 N 0.83643 0.01679 0.39137 0.0
C461 C 0.83868 0.98009 0.38727 0.0
C462 C 0.83147 0.95684 0.39901 0.0
C463 C 0.81342 0.97221 0.42496 0.0
H464 H 0.79966 0.99561 0.42908 0.0
H465 H 0.83174 0.96752 0.43267 0.0
H466 H 0.79993 0.94552 0.42442 0.0
O467 O 0.79567 0.096 0.4063 0.0
O468 O 0.80198 0.09218 0.38245 0.0
H469 H 0.83141 0.96802 0.36468 0.0
H470 H 0.85839 0.93826 0.37314 0.0
C471 C 0.84963 0.96757 0.37267 0.0
H472 H 0.86737 0.98728 0.36895 0.0
H473 H 0.79267 0.0364 0.35999 0.0
O474 O 0.8187 0.06492 0.4355 0.0
C475 C 0.78756 0.10363 0.39341 0.0
Co476 Co 0.16581 0.56276 0.10943 0.0
Co477 Co 0.15782 0.56547 0.14371 0.0
C478 C 0.11554 0.60385 0.1237 0.0
O479 O 0.1293 0.59324 0.11229 0.0
O480 O 0.12411 0.59457 0.13644 0.0
C481 C 0.16349 0.54136 0.07719 0.0
O482 O 0.1381 0.5233 0.07848 0.0
C483 C 0.13479 0.55434 0.17409 0.0
C484 C 0.17605 0.56258 0.18646 0.0
C485 C 0.14634 0.55538 0.18809 0.0
N486 N 0.15686 0.56066 0.16455 0.0
N487 N 0.18139 0.56553 0.17209 0.0
C488 C 0.10327 0.54905 0.16994 0.0
H489 H 0.10085 0.54681 0.15793 0.0
H490 H 0.09406 0.52296 0.17523 0.0
H491 H 0.09069 0.57372 0.17398 0.0
C492 C 0.16797 0.47916 0.11605 0.0
N493 N 0.16416 0.51582 0.12003 0.0
N494 N 0.15989 0.51717 0.13424 0.0
C495 C 0.1601 0.48143 0.13966 0.0
C496 C 0.16534 0.45611 0.12834 0.0
C497 C 0.1772 0.46697 0.10114 0.0
H498 H 0.19181 0.48907 0.09621 0.0
H499 H 0.15745 0.46326 0.09418 0.0
H500 H 0.18892 0.43951 0.10147 0.0
O501 O 0.19976 0.59328 0.11618 0.0
O502 O 0.19401 0.59606 0.14008 0.0
H503 H 0.17314 0.48309 0.16206 0.0
H504 H 0.15201 0.44067 0.15711 0.0
C505 C 0.15466 0.47184 0.15534 0.0
H506 H 0.13432 0.48567 0.15897 0.0
H507 H 0.2019 0.57105 0.16742 0.0
O508 O 0.17547 0.5568 0.0883 0.0
C509 C 0.2084 0.6045 0.12864 0.0
Co510 Co 0.84188 0.93003 0.1088 0.0
Co511 Co 0.85067 0.93001 0.14307 0.0
C512 C 0.89208 0.88904 0.12373 0.0
O513 O 0.87801 0.89896 0.1123 0.0
O514 O 0.88419 0.89969 0.13643 0.0
C515 C 0.84411 0.95205 0.0767 0.0
O516 O 0.86793 0.97326 0.07847 0.0
C517 C 0.87059 0.94107 0.17422 0.0
C518 C 0.82698 0.9413 0.18475 0.0
C519 C 0.85669 0.94352 0.18766 0.0
N520 N 0.84979 0.93751 0.1638 0.0
N521 N 0.82386 0.93794 0.17026 0.0
C522 C 0.90286 0.94032 0.17144 0.0
H523 H 0.90748 0.93995 0.15957 0.0
H524 H 0.91365 0.96571 0.17651 0.0
H525 H 0.91209 0.91457 0.17663 0.0
C526 C 0.83909 0.01409 0.11473 0.0
N527 N 0.84381 0.97774 0.11887 0.0
N528 N 0.84923 0.97731 0.13299 0.0
C529 C 0.84933 0.01333 0.13812 0.0
C530 C 0.84268 0.03786 0.12677 0.0
C531 C 0.82732 0.0252 0.10014 0.0
H532 H 0.8141 0.0014 0.0954 0.0
H533 H 0.84591 0.03224 0.09276 0.0
H534 H 0.81338 0.05074 0.10101 0.0
O535 O 0.80754 0.90082 0.11574 0.0
O536 O 0.81443 0.89932 0.13958 0.0
H537 H 0.83688 0.01636 0.16055 0.0
H538 H 0.86107 0.05493 0.15471 0.0
C539 C 0.85601 0.02395 0.15359 0.0
H540 H 0.87516 0.00778 0.15743 0.0
H541 H 0.80389 0.93551 0.16475 0.0
O542 O 0.83282 0.93453 0.08753 0.0
C543 C 0.79944 0.89042 0.12837 0.0
C544 C 0.35573 0.89109 0.11765 0.0
C545 C 0.34389 0.91421 0.12859 0.0
C546 C 0.35137 0.8515 0.11806 0.0
C547 C 0.32715 0.77098 0.14157 0.0
H548 H 0.28905 0.73304 0.10653 0.0
C549 C 0.23945 0.65225 0.14218 0.0
C550 C 0.23449 0.63002 0.12965 0.0
C551 C 0.26157 0.68036 0.14234 0.0
C552 C 0.30034 0.74253 0.1163 0.0
H553 H 0.31888 0.91433 0.14867 0.0
H554 H 0.31168 0.8453 0.14954 0.0
H555 H 0.31309 0.7954 0.10631 0.0
H556 H 0.2505 0.61734 0.10794 0.0
H557 H 0.28961 0.6657 0.10835 0.0
H558 H 0.31355 0.71855 0.15172 0.0
C559 C 0.32462 0.85756 0.14075 0.0
C560 C 0.31411 0.77843 0.11616 0.0
C561 C 0.3287 0.89708 0.14025 0.0
C562 C 0.25346 0.63452 0.11767 0.0
C563 C 0.27583 0.6623 0.11789 0.0
C564 C 0.31361 0.73485 0.14169 0.0
C565 C 0.33534 0.83446 0.1295 0.0
C566 C 0.32662 0.79359 0.12894 0.0
C567 C 0.27944 0.68652 0.13002 0.0
C568 C 0.29902 0.72087 0.12921 0.0
H569 H 0.36776 0.90373 0.10863 0.0
H570 H 0.35992 0.83428 0.10928 0.0
H571 H 0.33701 0.78187 0.15152 0.0
H572 H 0.22526 0.64939 0.15161 0.0
H573 H 0.26344 0.69869 0.15181 0.0
C574 C 0.67868 0.59821 0.14125 0.0
C575 C 0.66229 0.58195 0.12981 0.0
C576 C 0.68317 0.63767 0.14198 0.0
C577 C 0.69198 0.71769 0.11769 0.0
H578 H 0.69616 0.77652 0.15349 0.0
C579 C 0.75329 0.861 0.11833 0.0
C580 C 0.77329 0.86523 0.1299 0.0
C581 C 0.73081 0.83342 0.11898 0.0
C582 C 0.6951 0.76051 0.14339 0.0
H583 H 0.63651 0.59384 0.11057 0.0
H584 H 0.645 0.66309 0.1116 0.0
H585 H 0.67254 0.71328 0.15354 0.0
H586 H 0.7843 0.84567 0.15161 0.0
H587 H 0.74598 0.79664 0.15254 0.0
H588 H 0.71623 0.76319 0.10769 0.0
C589 C 0.65428 0.6453 0.12002 0.0
C590 C 0.68147 0.72443 0.14343 0.0
C591 C 0.64955 0.60581 0.11938 0.0
C592 C 0.76929 0.843 0.1425 0.0
C593 C 0.74709 0.81504 0.14307 0.0
C594 C 0.70586 0.75349 0.11768 0.0
C595 C 0.67159 0.66149 0.13118 0.0
C596 C 0.68065 0.70223 0.13067 0.0
C597 C 0.72816 0.8091 0.13112 0.0
C598 C 0.70848 0.7748 0.13064 0.0
H599 H 0.68905 0.58032 0.14931 0.0
H600 H 0.69703 0.64931 0.15055 0.0
H601 H 0.69196 0.70102 0.10774 0.0
H602 H 0.75551 0.87823 0.10857 0.0
H603 H 0.71619 0.83024 0.10974 0.0
C604 C 0.35556 0.10248 0.39941 0.0
C605 C 0.34283 0.08087 0.38806 0.0
C606 C 0.35024 0.14157 0.40058 0.0
C607 C 0.32714 0.22534 0.38012 0.0
H608 H 0.28455 0.25448 0.41482 0.0
C609 C 0.24183 0.34179 0.37941 0.0
C610 C 0.23475 0.36156 0.39222 0.0
C611 C 0.26333 0.31403 0.37955 0.0
C612 C 0.29713 0.24746 0.40522 0.0
H613 H 0.3146 0.08319 0.36906 0.0
H614 H 0.30644 0.15154 0.37072 0.0
H615 H 0.30809 0.19274 0.41388 0.0
H616 H 0.24628 0.36978 0.41498 0.0
H617 H 0.28445 0.32192 0.41512 0.0
H618 H 0.31587 0.27956 0.37128 0.0
C619 C 0.32059 0.1383 0.37867 0.0
C620 C 0.31053 0.21196 0.40469 0.0
C621 C 0.32535 0.09921 0.3777 0.0
C622 C 0.25097 0.35468 0.40496 0.0
C623 C 0.27276 0.32712 0.40506 0.0
C624 C 0.31419 0.2611 0.38072 0.0
C625 C 0.33267 0.15971 0.39021 0.0
C626 C 0.32455 0.20004 0.39191 0.0
C627 C 0.27858 0.30563 0.39246 0.0
C628 C 0.29785 0.27186 0.39302 0.0
H629 H 0.3694 0.08911 0.40745 0.0
H630 H 0.35968 0.1576 0.40959 0.0
H631 H 0.33815 0.21678 0.3702 0.0
H632 H 0.22981 0.34639 0.3694 0.0
H633 H 0.26676 0.29777 0.36967 0.0
C634 C 0.75036 0.13446 0.37728 0.0
C635 C 0.76219 0.12866 0.39123 0.0
C636 C 0.72864 0.16156 0.37511 0.0
C637 C 0.67991 0.22912 0.39518 0.0
H638 H 0.69641 0.29487 0.36206 0.0
C639 C 0.67482 0.39188 0.39492 0.0
C640 C 0.65927 0.40976 0.38371 0.0
C641 C 0.67809 0.35241 0.3949 0.0
C642 C 0.69108 0.27633 0.37117 0.0
H643 H 0.75942 0.1453 0.41398 0.0
H644 H 0.7228 0.19323 0.41018 0.0
H645 H 0.71933 0.23282 0.36354 0.0
H646 H 0.6343 0.40034 0.36387 0.0
H647 H 0.64166 0.33104 0.36338 0.0
H648 H 0.65389 0.27474 0.40339 0.0
C649 C 0.72948 0.17641 0.40089 0.0
C650 C 0.7041 0.24065 0.37203 0.0
C651 C 0.75083 0.14906 0.40307 0.0
C652 C 0.64671 0.38729 0.37254 0.0
C653 C 0.65065 0.34778 0.37232 0.0
C654 C 0.66741 0.26513 0.39445 0.0
C655 C 0.71859 0.18373 0.38683 0.0
C656 C 0.69966 0.21725 0.38435 0.0
C657 C 0.66647 0.33017 0.38348 0.0
C658 C 0.67375 0.28944 0.38268 0.0
H659 H 0.75839 0.11878 0.36796 0.0
H660 H 0.72036 0.16588 0.36418 0.0
H661 H 0.67529 0.21143 0.40461 0.0
H662 H 0.68537 0.40847 0.40347 0.0
H663 H 0.69088 0.33942 0.40346 0.0
C664 C 0.68879 0.09175 0.9028 0.0
C665 C 0.67004 0.07137 0.89333 0.0
C666 C 0.69152 0.13137 0.90177 0.0
C667 C 0.69588 0.20436 0.87584 0.0
H668 H 0.6888 0.2741 0.90843 0.0
C669 C 0.75407 0.35049 0.87395 0.0
C670 C 0.76982 0.35944 0.88672 0.0
C671 C 0.73214 0.32199 0.8741 0.0
C672 C 0.69097 0.25506 0.89921 0.0
H673 H 0.63874 0.0765 0.87567 0.0
H674 H 0.645 0.14596 0.87329 0.0
H675 H 0.66873 0.20913 0.91038 0.0
H676 H 0.77364 0.34718 0.90983 0.0
H677 H 0.73672 0.29693 0.90998 0.0
H678 H 0.72056 0.24838 0.86512 0.0
C679 C 0.657 0.13109 0.88167 0.0
C680 C 0.67923 0.21806 0.90031 0.0
C681 C 0.6537 0.09147 0.88295 0.0
C682 C 0.76203 0.34095 0.89977 0.0
C683 C 0.74049 0.31223 0.89989 0.0
C684 C 0.70822 0.24106 0.87484 0.0
C685 C 0.67607 0.15121 0.89103 0.0
C686 C 0.68249 0.19214 0.88881 0.0
C687 C 0.7258 0.30156 0.88698 0.0
C688 C 0.70697 0.26636 0.88675 0.0
H689 H 0.70214 0.077 0.91068 0.0
H690 H 0.70676 0.14637 0.90892 0.0
H691 H 0.69878 0.18461 0.86688 0.0
H692 H 0.7593 0.36463 0.86375 0.0
H693 H 0.72086 0.31513 0.86402 0.0
C694 C 0.34857 0.39263 0.88068 0.0
C695 C 0.33329 0.41268 0.89148 0.0
C696 C 0.34387 0.35335 0.87887 0.0
C697 C 0.32089 0.26581 0.89645 0.0
H698 H 0.27582 0.23997 0.86185 0.0
C699 C 0.23817 0.14253 0.89576 0.0
C700 C 0.22941 0.12514 0.88262 0.0
C701 C 0.2593 0.17177 0.89584 0.0
C702 C 0.28915 0.24608 0.87137 0.0
H703 H 0.30166 0.40717 0.90904 0.0
H704 H 0.2947 0.33825 0.90637 0.0
H705 H 0.29848 0.30323 0.86412 0.0
H706 H 0.23769 0.12277 0.85936 0.0
H707 H 0.27542 0.17325 0.85954 0.0
H708 H 0.3116 0.20904 0.90384 0.0
C709 C 0.31012 0.3531 0.89927 0.0
C710 C 0.30197 0.28246 0.87267 0.0
C711 C 0.31423 0.39245 0.90084 0.0
C712 C 0.24371 0.13594 0.86965 0.0
C713 C 0.26523 0.16502 0.86975 0.0
C714 C 0.30866 0.22914 0.89502 0.0
C715 C 0.32448 0.33344 0.88811 0.0
C716 C 0.31687 0.29299 0.88546 0.0
C717 C 0.27262 0.18412 0.8828 0.0
C718 C 0.29139 0.21941 0.88278 0.0
H719 H 0.36376 0.40743 0.87347 0.0
H720 H 0.35508 0.33859 0.87018 0.0
H721 H 0.33253 0.27343 0.90636 0.0
H722 H 0.2277 0.13492 0.90599 0.0
H723 H 0.26387 0.18603 0.90609 0.0
C724 C 0.68732 0.90047 0.62171 0.0
C725 C 0.66716 0.91694 0.6313 0.0
C726 C 0.69365 0.86177 0.62272 0.0
C727 C 0.70706 0.78854 0.64689 0.0
H728 H 0.69093 0.71711 0.61545 0.0
C729 C 0.76326 0.64299 0.64552 0.0
C730 C 0.77454 0.63282 0.63182 0.0
C731 C 0.74281 0.67214 0.64671 0.0
C732 C 0.69574 0.73667 0.62431 0.0
H733 H 0.63772 0.90581 0.64944 0.0
H734 H 0.65018 0.83812 0.6517 0.0
H735 H 0.6694 0.78043 0.61492 0.0
H736 H 0.77207 0.64407 0.60858 0.0
H737 H 0.73769 0.69533 0.61067 0.0
H738 H 0.73539 0.74662 0.65573 0.0
C739 C 0.66043 0.85529 0.64323 0.0
C740 C 0.68316 0.7727 0.62404 0.0
C741 C 0.65354 0.89391 0.64199 0.0
C742 C 0.7639 0.65113 0.61932 0.0
C743 C 0.74384 0.68046 0.62052 0.0
C744 C 0.72016 0.75281 0.64703 0.0
C745 C 0.68049 0.83907 0.63357 0.0
C746 C 0.68933 0.79911 0.63515 0.0
C747 C 0.73347 0.69199 0.63424 0.0
C748 C 0.71541 0.72684 0.63549 0.0
H749 H 0.69881 0.91764 0.61365 0.0
H750 H 0.70956 0.84977 0.61532 0.0
H751 H 0.71223 0.8088 0.65549 0.0
H752 H 0.77078 0.62915 0.65535 0.0
H753 H 0.73489 0.6797 0.65743 0.0
C754 C 0.25783 0.86171 0.61359 0.0
C755 C 0.24098 0.86794 0.62616 0.0
C756 C 0.27836 0.83263 0.61323 0.0
C757 C 0.31402 0.7581 0.63624 0.0
H758 H 0.30607 0.69743 0.60102 0.0
C759 C 0.32029 0.59521 0.6347 0.0
C760 C 0.3362 0.57786 0.62349 0.0
C761 C 0.3167 0.63463 0.63487 0.0
C762 C 0.30903 0.71438 0.61081 0.0
H763 H 0.23395 0.85024 0.64857 0.0
H764 H 0.26874 0.79882 0.64782 0.0
H765 H 0.286 0.76116 0.60175 0.0
H766 H 0.36101 0.58807 0.60368 0.0
H767 H 0.35361 0.65734 0.60363 0.0
H768 H 0.33518 0.70972 0.64556 0.0
C769 C 0.26673 0.81675 0.63827 0.0
C770 C 0.29763 0.75107 0.61124 0.0
C771 C 0.24654 0.8462 0.63869 0.0
C772 C 0.34844 0.60074 0.61239 0.0
C773 C 0.3444 0.64025 0.61241 0.0
C774 C 0.32504 0.72117 0.63585 0.0
C775 C 0.28215 0.80871 0.62537 0.0
C776 C 0.29912 0.77296 0.62412 0.0
C777 C 0.32848 0.65748 0.62367 0.0
C778 C 0.32183 0.69862 0.62327 0.0
H779 H 0.25435 0.87826 0.60381 0.0
H780 H 0.29038 0.82793 0.60323 0.0
H781 H 0.3162 0.77443 0.64622 0.0
H782 H 0.30996 0.57822 0.64319 0.0
H783 H 0.30377 0.6471 0.64349 0.0
C784 C 0.82196 0.39699 0.63865 0.0
C785 C 0.83934 0.41425 0.62779 0.0
C786 C 0.81807 0.35748 0.63902 0.0
C787 C 0.82421 0.27105 0.64042 0.0
H788 H 0.78487 0.23279 0.60577 0.0
C789 C 0.74759 0.13567 0.61791 0.0
C790 C 0.72965 0.13178 0.6303 0.0
C791 C 0.77036 0.16292 0.61761 0.0
C792 C 0.79657 0.24232 0.61542 0.0
H793 H 0.86703 0.40396 0.60906 0.0
H794 H 0.85894 0.33437 0.60926 0.0
H795 H 0.80915 0.29513 0.60524 0.0
H796 H 0.72252 0.15182 0.65237 0.0
H797 H 0.76124 0.20019 0.65166 0.0
H798 H 0.81105 0.21879 0.65077 0.0
C799 C 0.8488 0.35161 0.6176 0.0
C800 C 0.81043 0.27818 0.61509 0.0
C801 C 0.8532 0.39124 0.61742 0.0
C802 C 0.73592 0.15417 0.64265 0.0
C803 C 0.75839 0.18174 0.64227 0.0
C804 C 0.81075 0.23492 0.6407 0.0
C805 C 0.83105 0.3345 0.62837 0.0
C806 C 0.82317 0.29349 0.62777 0.0
C807 C 0.77538 0.18719 0.6296 0.0
C808 C 0.79552 0.22093 0.62841 0.0
H809 H 0.81068 0.41415 0.64663 0.0
H810 H 0.80379 0.34501 0.64725 0.0
H811 H 0.83424 0.28223 0.65029 0.0
H812 H 0.74358 0.11836 0.6083 0.0
H813 H 0.7834 0.16578 0.60779 0.0
C814 C 0.25245 0.34717 0.6152 0.0
C815 C 0.26372 0.36474 0.62784 0.0
C816 C 0.23023 0.31946 0.61615 0.0
C817 C 0.2024 0.24843 0.64239 0.0
H818 H 0.15539 0.21878 0.60883 0.0
C819 C 0.14583 0.09931 0.63481 0.0
C820 C 0.16292 0.07979 0.62456 0.0
C821 C 0.14839 0.13901 0.63616 0.0
C822 C 0.1679 0.22714 0.6184 0.0
H823 H 0.25868 0.36946 0.65128 0.0
H824 H 0.21908 0.32168 0.6529 0.0
H825 H 0.17612 0.28352 0.61032 0.0
H826 H 0.19523 0.08652 0.60737 0.0
H827 H 0.19847 0.15599 0.60922 0.0
H828 H 0.19439 0.19156 0.65025 0.0
C829 C 0.22814 0.32849 0.64229 0.0
C830 C 0.18006 0.26397 0.61921 0.0
C831 C 0.25076 0.35599 0.64136 0.0
C832 C 0.18138 0.1008 0.61517 0.0
C833 C 0.18333 0.14046 0.61625 0.0
C834 C 0.18964 0.21192 0.64171 0.0
C835 C 0.21832 0.3089 0.62974 0.0
C836 C 0.19889 0.27435 0.63081 0.0
C837 C 0.16736 0.1597 0.62695 0.0
C838 C 0.17352 0.20055 0.6294 0.0
H839 H 0.26181 0.3533 0.60459 0.0
H840 H 0.22378 0.30476 0.60623 0.0
H841 H 0.21688 0.25503 0.65143 0.0
H842 H 0.13107 0.0838 0.64203 0.0
H843 H 0.13603 0.15347 0.64453 0.0
C844 C 0.85755 0.59652 0.89756 0.0
C845 C 0.8426 0.57508 0.88684 0.0
C846 C 0.85405 0.63601 0.89845 0.0
C847 C 0.83099 0.72036 0.87827 0.0
H848 H 0.79312 0.75159 0.91406 0.0
C849 C 0.74703 0.83802 0.87957 0.0
C850 C 0.74109 0.85765 0.89255 0.0
C851 C 0.76863 0.81044 0.87916 0.0
C852 C 0.80446 0.74403 0.90413 0.0
H853 H 0.81263 0.57808 0.86854 0.0
H854 H 0.80748 0.64716 0.86971 0.0
H855 H 0.81528 0.68915 0.91264 0.0
H856 H 0.75486 0.86614 0.91498 0.0
H857 H 0.79329 0.81866 0.91417 0.0
H858 H 0.81981 0.77481 0.86961 0.0
C859 C 0.82195 0.63344 0.87739 0.0
C860 C 0.81705 0.70809 0.90333 0.0
C861 C 0.82495 0.59395 0.8767 0.0
C862 C 0.75863 0.85104 0.90486 0.0
C863 C 0.78058 0.82373 0.90441 0.0
C864 C 0.81889 0.7566 0.87914 0.0
C865 C 0.83606 0.65468 0.88841 0.0
C866 C 0.82923 0.69539 0.8902 0.0
C867 C 0.78515 0.80215 0.89169 0.0
C868 C 0.80417 0.76813 0.89185 0.0
H869 H 0.87161 0.5827 0.90539 0.0
H870 H 0.86505 0.65191 0.90706 0.0
H871 H 0.8406 0.71119 0.86808 0.0
H872 H 0.73398 0.84247 0.86986 0.0
H873 H 0.77108 0.79414 0.86922 0.0
C874 C 0.17705 0.88841 0.87546 0.0
C875 C 0.15863 0.90739 0.88522 0.0
C876 C 0.18112 0.8492 0.87671 0.0
C877 C 0.18874 0.77789 0.90349 0.0
H878 H 0.18559 0.70684 0.87107 0.0
C879 C 0.24986 0.6362 0.90648 0.0
C880 C 0.26632 0.62806 0.89394 0.0
C881 C 0.22791 0.66358 0.90603 0.0
C882 C 0.18668 0.72629 0.88025 0.0
H883 H 0.12906 0.9001 0.90355 0.0
H884 H 0.13759 0.83145 0.90625 0.0
H885 H 0.16314 0.76927 0.86872 0.0
H886 H 0.27165 0.64102 0.87093 0.0
H887 H 0.23459 0.68926 0.87027 0.0
H888 H 0.21449 0.73682 0.91461 0.0
C889 C 0.14839 0.84705 0.89751 0.0
C890 C 0.17359 0.76183 0.87891 0.0
C891 C 0.14374 0.88621 0.89603 0.0
C892 C 0.25946 0.64655 0.88082 0.0
C893 C 0.23785 0.67409 0.88041 0.0
C894 C 0.20236 0.74266 0.90474 0.0
C895 C 0.16733 0.82839 0.88792 0.0
C896 C 0.17538 0.78832 0.89035 0.0
C897 C 0.22218 0.68361 0.89306 0.0
C898 C 0.20249 0.71702 0.89291 0.0
H899 H 0.18923 0.90407 0.86719 0.0
H900 H 0.19621 0.83545 0.86934 0.0
H901 H 0.19055 0.79808 0.91242 0.0
H902 H 0.25441 0.62214 0.91673 0.0
H903 H 0.21596 0.6697 0.91593 0.0
C904 C 0.15578 0.59636 0.37863 0.0
C905 C 0.16978 0.57565 0.38968 0.0
C906 C 0.16142 0.63551 0.37699 0.0
C907 C 0.18457 0.72171 0.39557 0.0
H908 H 0.23079 0.74896 0.36152 0.0
C909 C 0.26786 0.84447 0.39644 0.0
C910 C 0.27674 0.86279 0.38351 0.0
C911 C 0.24679 0.81517 0.39614 0.0
C912 C 0.21718 0.74243 0.37089 0.0
H913 H 0.20048 0.57981 0.4077 0.0
H914 H 0.20901 0.64848 0.40532 0.0
H915 H 0.20763 0.68581 0.36309 0.0
H916 H 0.26878 0.86665 0.36024 0.0
H917 H 0.23119 0.816 0.35978 0.0
H918 H 0.19409 0.77793 0.40352 0.0
C919 C 0.19379 0.63428 0.39793 0.0
C920 C 0.20406 0.70613 0.37179 0.0
C921 C 0.18875 0.59506 0.39934 0.0
C922 C 0.26266 0.85277 0.37038 0.0
C923 C 0.24122 0.8236 0.37011 0.0
C924 C 0.19713 0.75828 0.39455 0.0
C925 C 0.18051 0.65464 0.38663 0.0
C926 C 0.1887 0.69509 0.38438 0.0
C927 C 0.23365 0.80366 0.38294 0.0
C928 C 0.21478 0.7685 0.38251 0.0
H929 H 0.14073 0.58223 0.37116 0.0
H930 H 0.15105 0.6508 0.36818 0.0
H931 H 0.17257 0.71371 0.40533 0.0
H932 H 0.27817 0.85145 0.40677 0.0
H933 H 0.24206 0.80023 0.40623 0.0
C934 C 0.83821 0.89236 0.4104 0.0
C935 C 0.82783 0.9148 0.39888 0.0
C936 C 0.83459 0.85258 0.41002 0.0
C937 C 0.82194 0.772 0.38514 0.0
H938 H 0.77405 0.72712 0.41578 0.0
C939 C 0.74254 0.64734 0.37507 0.0
C940 C 0.73334 0.62401 0.3867 0.0
C941 C 0.76333 0.67651 0.37734 0.0
C942 C 0.78819 0.7386 0.4073 0.0
H943 H 0.80486 0.91351 0.37818 0.0
H944 H 0.79953 0.84431 0.37727 0.0
H945 H 0.79386 0.79163 0.4187 0.0
H946 H 0.74085 0.61025 0.40944 0.0
H947 H 0.77784 0.66039 0.41329 0.0
H948 H 0.81574 0.71952 0.37353 0.0
C949 C 0.81076 0.8573 0.38649 0.0
C950 C 0.79943 0.77569 0.40899 0.0
C951 C 0.81384 0.89688 0.38701 0.0
C952 C 0.74716 0.62826 0.40032 0.0
C953 C 0.76826 0.65711 0.40254 0.0
C954 C 0.81107 0.73471 0.38352 0.0
C955 C 0.82103 0.8348 0.39798 0.0
C956 C 0.81529 0.79321 0.39766 0.0
C957 C 0.77566 0.68263 0.39124 0.0
C958 C 0.7929 0.71822 0.39429 0.0
H959 H 0.84924 0.9055 0.41964 0.0
H960 H 0.84246 0.8357 0.41906 0.0
H961 H 0.83445 0.78492 0.37633 0.0
H962 H 0.73234 0.64472 0.36444 0.0
H963 H 0.76819 0.69575 0.36839 0.0
C964 C 0.26736 0.14859 0.14466 0.0
C965 C 0.26806 0.12405 0.13255 0.0
C966 C 0.24759 0.17853 0.14513 0.0
C967 C 0.20844 0.23948 0.11929 0.0
H968 H 0.18254 0.28848 0.15481 0.0
C969 C 0.15656 0.38906 0.11959 0.0
C970 C 0.17022 0.41456 0.12939 0.0
C971 C 0.16195 0.34992 0.12039 0.0
C972 C 0.18952 0.27498 0.1448 0.0
H973 H 0.2464 0.10898 0.11225 0.0
H974 H 0.21135 0.16056 0.11324 0.0
H975 H 0.20174 0.22392 0.15586 0.0
H976 H 0.20047 0.41948 0.14754 0.0
H977 H 0.20939 0.35117 0.14917 0.0
H978 H 0.19669 0.29088 0.1083 0.0
C979 C 0.2268 0.15761 0.12212 0.0
C980 C 0.20059 0.23807 0.14539 0.0
C981 C 0.24681 0.12791 0.12158 0.0
C982 C 0.18914 0.40031 0.14007 0.0
C983 C 0.19423 0.36124 0.141 0.0
C984 C 0.19707 0.27618 0.11868 0.0
C985 C 0.22782 0.18431 0.13358 0.0
C986 C 0.21111 0.22035 0.13271 0.0
C987 C 0.18085 0.33568 0.13112 0.0
C988 C 0.18839 0.29474 0.13149 0.0
H989 H 0.28342 0.14641 0.15331 0.0
H990 H 0.24925 0.19858 0.15409 0.0
H991 H 0.21669 0.22712 0.10931 0.0
H992 H 0.14179 0.39942 0.11129 0.0
H993 H 0.15137 0.3308 0.11264 0.0
C994 C 0.74735 0.3596 0.11875 0.0
C995 C 0.72635 0.36339 0.12984 0.0
C996 C 0.76754 0.33015 0.11921 0.0
C997 C 0.79687 0.25289 0.14278 0.0
H998 H 0.80199 0.19816 0.10612 0.0
C999 C 0.81804 0.09236 0.13892 0.0
C1000 C 0.83626 0.07899 0.12777 0.0
C1001 C 0.81094 0.13085 0.13964 0.0
C1002 C 0.8013 0.21345 0.11637 0.0
H1003 H 0.71129 0.34074 0.1506 0.0
H1004 H 0.74596 0.28889 0.15124 0.0
H1005 H 0.77873 0.26 0.10679 0.0
H1006 H 0.86159 0.09514 0.10871 0.0
H1007 H 0.84867 0.16275 0.10978 0.0
H1008 H 0.81822 0.20514 0.15243 0.0
C1009 C 0.74719 0.30892 0.14226 0.0
C1010 C 0.78801 0.249 0.11678 0.0
C1011 C 0.72715 0.33857 0.14186 0.0
C1012 C 0.84739 0.10483 0.11737 0.0
C1013 C 0.84007 0.14339 0.11801 0.0
C1014 C 0.80999 0.21718 0.14238 0.0
C1015 C 0.76705 0.30368 0.13072 0.0
C1016 C 0.78498 0.26873 0.13004 0.0
C1017 C 0.82164 0.15671 0.12912 0.0
C1018 C 0.81167 0.19672 0.12924 0.0
H1019 H 0.74774 0.37877 0.10952 0.0
H1020 H 0.783 0.32748 0.11032 0.0
H1021 H 0.79539 0.26764 0.15312 0.0
H1022 H 0.80861 0.07286 0.14687 0.0
H1023 H 0.79619 0.1401 0.14813 0.0
C1024 C 0.26066 0.03519 0.05451 0.0
C1025 C 0.29079 0.04413 0.05342 0.0
C1026 C 0.243 0.03365 0.04202 0.0
C1027 C 0.24744 0.01972 1.00228 0.0
H1028 H 0.17223 0.06957 1.00099 0.0
C1029 C 0.19086 0.05131 0.94818 0.0
C1030 C 0.16025 0.04637 0.94699 0.0
C1031 C 0.20478 0.04868 0.96164 0.0
C1032 C 0.19296 0.05499 1.00125 0.0
H1033 H 0.32617 0.05739 0.03839 0.0
H1034 H 0.29548 0.05461 0.01661 0.0
H1035 H 0.20048 0.06948 0.02369 0.0
H1036 H 0.12026 0.03504 0.95916 0.0
H1037 H 0.14484 0.03019 0.98288 0.0
H1038 H 0.2402 0.00535 0.97991 0.0
C1039 C 0.28543 0.04891 0.02711 0.0
C1040 C 0.20916 0.05501 0.01424 0.0
C1041 C 0.30299 0.05066 0.03958 0.0
C1042 C 0.14386 0.03899 0.9597 0.0
C1043 C 0.15792 0.03635 0.97328 0.0
C1044 C 0.23126 0.01957 0.98937 0.0
C1045 C 0.25524 0.04033 0.02817 0.0
C1046 C 0.23686 0.03803 0.0148 0.0
C1047 C 0.18861 0.0409 0.97436 0.0
C1048 C 0.20412 0.03791 0.98858 0.0
H1049 H 0.25082 0.0285 0.06497 0.0
H1050 H 0.21992 0.02633 0.04317 0.0
H1051 H 0.26838 0.00562 1.00245 0.0
H1052 H 0.20426 0.05728 0.93867 0.0
H1053 H 0.22835 0.05319 0.96209 0.0
C1054 C 0.85063 0.4793 0.95747 0.0
C1055 C 0.84795 0.44557 0.94923 0.0
C1056 C 0.83691 0.48199 0.9711 0.0
C1057 C 0.80936 0.42902 1.00225 0.0
H1058 H 0.74667 0.50199 1.00454 0.0
C1059 C 0.72454 0.42267 0.04896 0.0
C1060 C 0.71121 0.4564 0.05349 0.0
C1061 C 0.74319 0.42273 0.03685 0.0
C1062 C 0.76448 0.482 1.00433 0.0
H1063 H 0.83009 0.38779 0.94898 0.0
H1064 H 0.80729 0.392 0.97308 0.0
H1065 H 0.77769 0.50029 0.98295 0.0
H1066 H 0.70698 0.51671 0.04917 0.0
H1067 H 0.74074 0.51761 0.02854 0.0
H1068 H 0.79707 0.41124 0.0237 0.0
C1069 C 0.81956 0.41644 0.9689 0.0
C1070 C 0.78214 0.48098 0.99187 0.0
C1071 C 0.83255 0.41407 0.95514 0.0
C1072 C 0.71698 0.4903 0.04581 0.0
C1073 C 0.73619 0.49063 0.0339 0.0
C1074 C 0.79218 0.43061 0.01487 0.0
C1075 C 0.82106 0.45066 0.97685 0.0
C1076 C 0.80443 0.45411 0.99064 0.0
C1077 C 0.74944 0.45676 0.02913 0.0
C1078 C 0.76908 0.45668 0.01603 0.0
H1079 H 0.86207 0.50413 0.95308 0.0
H1080 H 0.8383 0.50869 0.97706 0.0
H1081 H 0.82653 0.40812 1.00154 0.0
H1082 H 0.72001 0.39603 0.0546 0.0
H1083 H 0.75217 0.39582 0.03341 0.0
C1084 C 0.33173 0.91646 0.45244 0.0
C1085 C 0.35203 0.94475 0.44791 0.0
C1086 C 0.31916 0.91785 0.46629 0.0
C1087 C 0.29836 0.9852 0.49453 0.0
H1088 H 0.2861 0.89386 0.51782 0.0
C1089 C 0.20956 0.97047 0.53949 0.0
C1090 C 0.21725 0.95169 0.55243 0.0
C1091 C 0.22912 0.9723 0.52774 0.0
C1092 C 0.28959 0.91973 0.51153 0.0
H1093 H 0.3755 -0.00365 0.45449 0.0
H1094 H 0.35311 -0.00096 0.47879 0.0
H1095 H 0.31593 0.89106 0.49576 0.0
H1096 H 0.25115 0.91903 0.56299 0.0
H1097 H 0.28531 0.92254 0.54259 0.0
H1098 H 0.27142 0.01365 0.51015 0.0
C1099 C 0.3471 0.97573 0.47155 0.0
C1100 C 0.30651 0.91805 0.49885 0.0
C1101 C 0.36006 0.97402 0.45771 0.0
C1102 C 0.24488 0.93475 0.55337 0.0
C1103 C 0.26432 0.93627 0.54159 0.0
C1104 C 0.28116 0.9868 0.50715 0.0
C1105 C 0.32628 0.94783 0.47591 0.0
C1106 C 0.31079 0.95063 0.49011 0.0
C1107 C 0.25657 0.95479 0.52859 0.0
C1108 C 0.27633 0.95397 0.5157 0.0
H1109 H 0.3251 0.89352 0.44515 0.0
H1110 H 0.303 0.89615 0.46927 0.0
H1111 H 0.30108 0.0107 0.48795 0.0
H1112 H 0.1883 0.98348 0.53842 0.0
H1113 H 0.22235 0.98634 0.5178 0.0
C1114 C 0.7665 0.53216 0.55404 0.0
C1115 C 0.79483 0.54879 0.55362 0.0
C1116 C 0.74846 0.53218 0.54167 0.0
C1117 C 0.74082 0.57995 0.50554 0.0
H1118 H 0.68882 0.49398 0.4968 0.0
C1119 C 0.69116 0.55574 0.4488 0.0
C1120 C 0.66081 0.54795 0.44783 0.0
C1121 C 0.70541 0.55588 0.46225 0.0
C1122 C 0.703 0.51835 0.49921 0.0
H1123 H 0.82688 0.57661 0.53953 0.0
H1124 H 0.79608 0.5754 0.51793 0.0
H1125 H 0.71827 0.49359 0.5191 0.0
H1126 H 0.6218 0.53337 0.46031 0.0
H1127 H 0.64711 0.53287 0.48398 0.0
H1128 H 0.7263 0.60399 0.4854 0.0
C1129 C 0.78719 0.56371 0.52796 0.0
C1130 C 0.71987 0.51823 0.512 0.0
C1131 C 0.80505 0.56402 0.54034 0.0
C1132 C 0.64516 0.53957 0.46069 0.0
C1133 C 0.65962 0.53916 0.47421 0.0
C1134 C 0.72429 0.57982 0.49272 0.0
C1135 C 0.75847 0.54824 0.52847 0.0
C1136 C 0.73932 0.54885 0.51525 0.0
C1137 C 0.68985 0.54779 0.47511 0.0
C1138 C 0.70548 0.54885 0.48932 0.0
H1139 H 0.75822 0.51855 0.5638 0.0
H1140 H 0.72655 0.51992 0.54252 0.0
H1141 H 0.75487 0.60452 0.50781 0.0
H1142 H 0.70398 0.56234 0.43915 0.0
H1143 H 0.72877 0.56216 0.46258 0.0
C1144 C 0.71798 0.92966 0.95855 0.0
C1145 C 0.68839 0.9404 0.95873 0.0
C1146 C 0.73508 0.93185 0.97117 0.0
C1147 C 0.74328 0.97987 1.00632 0.0
H1148 H 0.78756 0.89077 0.01723 0.0
C1149 C 0.83195 0.98011 0.05221 0.0
C1150 C 0.82854 0.95063 0.06251 0.0
C1151 C 0.81527 0.97978 0.03935 0.0
C1152 C 0.77535 0.91588 0.01431 0.0
H1153 H 0.65378 0.96262 0.97233 0.0
H1154 H 0.68406 0.96718 0.99444 0.0
H1155 H 0.75684 0.88885 0.99538 0.0
H1156 H 0.8055 0.89727 0.06721 0.0
H1157 H 0.77714 0.89624 0.04466 0.0
H1158 H 0.7621 0.00698 0.02524 0.0
C1159 C 0.69379 0.95681 0.98446 0.0
C1160 C 0.75787 0.91484 1.00178 0.0
C1161 C 0.67645 0.95401 0.97184 0.0
C1162 C 0.80866 0.92042 0.0595 0.0
C1163 C 0.79245 0.91975 0.04657 0.0
C1164 C 0.7612 0.98114 0.01874 0.0
C1165 C 0.72322 0.94538 0.98427 0.0
C1166 C 0.74154 0.94674 0.99768 0.0
C1167 C 0.79533 0.94959 0.03642 0.0
C1168 C 0.77728 0.94905 0.02291 0.0
H1169 H 0.72793 0.91899 0.94866 0.0
H1170 H 0.75774 0.92314 0.97066 0.0
H1171 H 0.73107 0.00495 1.00336 0.0
H1172 H 0.84693 0.0039 0.05426 0.0
H1173 H 0.81804 0.00304 0.03166 0.0
C1174 C 0.20214 0.57006 0.061 0.0
C1175 C 0.17909 0.54329 0.06299 0.0
C1176 C 0.21758 0.57183 0.04786 0.0
C1177 C 0.23886 0.51564 0.01613 0.0
H1178 H 0.25375 0.61454 0.99836 0.0
C1179 C 0.29529 0.53309 0.95959 0.0
C1180 C 0.3127 0.56605 0.95713 0.0
C1181 C 0.2794 0.5287 0.97257 0.0
C1182 C 0.25031 0.5867 1.00326 0.0
H1183 H 0.15434 0.49716 0.05272 0.0
H1184 H 0.1818 0.49993 0.0297 0.0
H1185 H 0.2246 0.61009 0.02052 0.0
H1186 H 0.32833 0.61921 0.96672 0.0
H1187 H 0.30173 0.61094 0.98952 0.0
H1188 H 0.2652 0.49225 0.9991 0.0
C1189 C 0.1877 0.51962 0.03838 0.0
C1190 C 0.23337 0.58418 0.01593 0.0
C1191 C 0.17188 0.51821 0.0515 0.0
C1192 C 0.31492 0.59364 0.96821 0.0
C1193 C 0.29936 0.58904 0.98125 0.0
C1194 C 0.25616 0.51818 1.00351 0.0
C1195 C 0.21066 0.54658 0.03642 0.0
C1196 C 0.22755 0.54868 0.02255 0.0
C1197 C 0.28079 0.55696 0.9835 0.0
C1198 C 0.26228 0.55382 0.99694 0.0
H1199 H 0.2083 0.58983 0.06961 0.0
H1200 H 0.23532 0.59267 0.04674 0.0
H1201 H 0.23498 0.48792 0.02107 0.0
H1202 H 0.29297 0.51135 0.95124 0.0
H1203 H 0.2652 0.50376 0.97379 0.0
C1204 C 0.70565 0.05994 0.56493 0.0
C1205 C 0.67644 0.04615 0.56487 0.0
C1206 C 0.72257 0.0595 0.55224 0.0
C1207 C 0.73167 0.01225 0.51709 0.0
H1208 H 0.77281 0.10575 0.50591 0.0
C1209 C 0.81965 0.02055 0.47103 0.0
C1210 C 0.81523 0.04941 0.46065 0.0
C1211 C 0.80311 0.01943 0.48392 0.0
C1212 C 0.76147 0.07943 0.5089 0.0
H1213 H 0.64235 0.02035 0.55141 0.0
H1214 H 0.67234 0.01884 0.52919 0.0
H1215 H 0.74243 0.10464 0.52788 0.0
H1216 H 0.79055 0.10021 0.45583 0.0
H1217 H 0.76241 0.09882 0.47846 0.0
H1218 H 0.75105 0.98698 0.49814 0.0
C1219 C 0.68191 0.03024 0.53913 0.0
C1220 C 0.74419 0.07875 0.5215 0.0
C1221 C 0.66472 0.03127 0.55182 0.0
C1222 C 0.7945 0.0776 0.4636 0.0
C1223 C 0.77841 0.07688 0.47658 0.0
C1224 C 0.7494 0.01275 0.50461 0.0
C1225 C 0.71092 0.04473 0.53919 0.0
C1226 C 0.729 0.04522 0.5257 0.0
C1227 C 0.78229 0.04757 0.4868 0.0
C1228 C 0.76436 0.04643 0.50034 0.0
H1229 H 0.71541 0.07168 0.57477 0.0
H1230 H 0.74492 0.07056 0.55265 0.0
H1231 H 0.72036 0.98595 0.52013 0.0
H1232 H 0.8353 -0.00173 0.46902 0.0
H1233 H 0.80667 -0.00336 0.49167 0.0
C1234 C 0.33215 0.46649 0.54921 0.0
C1235 C 0.32499 0.44092 0.56054 0.0
C1236 C 0.31658 0.46524 0.53601 0.0
C1237 C 0.27111 0.40135 0.51308 0.0
H1238 H 0.23861 0.49395 0.49718 0.0
C1239 C 0.18793 0.39403 0.46602 0.0
C1240 C 0.1898 0.42206 0.4551 0.0
C1241 C 0.20399 0.39806 0.47894 0.0
C1242 C 0.24783 0.46786 0.50133 0.0
H1243 H 0.29629 0.39352 0.56676 0.0
H1244 H 0.26969 0.39096 0.54375 0.0
H1245 H 0.26927 0.49729 0.51902 0.0
H1246 H 0.20944 0.4769 0.44936 0.0
H1247 H 0.23805 0.48351 0.47172 0.0
H1248 H 0.25038 0.37181 0.49538 0.0
C1249 C 0.28719 0.41205 0.54506 0.0
C1250 C 0.2654 0.46983 0.51386 0.0
C1251 C 0.30239 0.41366 0.55827 0.0
C1252 C 0.20738 0.45485 0.4576 0.0
C1253 C 0.22376 0.45867 0.47046 0.0
C1254 C 0.25389 0.3994 0.50049 0.0
C1255 C 0.29392 0.43798 0.53381 0.0
C1256 C 0.27693 0.43651 0.51997 0.0
C1257 C 0.22271 0.42998 0.48122 0.0
C1258 C 0.24165 0.43254 0.49451 0.0
H1259 H 0.34933 0.48795 0.55065 0.0
H1260 H 0.32234 0.48544 0.52749 0.0
H1261 H 0.28004 0.37524 0.51741 0.0
H1262 H 0.17439 0.36858 0.4645 0.0
H1263 H 0.20189 0.37584 0.4871 0.0
C1264 C 0.3424 0.0951 0.20045 0.0
C1265 C 0.35326 0.07105 0.18952 0.0
C1266 C 0.34452 0.08497 0.21513 0.0
C1267 C 0.38294 0.02321 0.24128 0.0
H1268 H 0.31201 0.03465 0.26402 0.0
C1269 C 0.36652 0.96153 0.3 0.0
C1270 C 0.3493 0.98299 0.30955 0.0
C1271 C 0.37016 0.97313 0.28545 0.0
C1272 C 0.33221 0.0318 0.25794 0.0
H1273 H 0.37575 0.01798 0.18553 0.0
H1274 H 0.37944 0.00035 0.21123 0.0
H1275 H 0.31254 0.05361 0.23858 0.0
H1276 H 0.32413 0.03448 0.31179 0.0
H1277 H 0.33128 0.05537 0.28678 0.0
H1278 H 0.40261 0.00144 0.26077 0.0
C1279 C 0.36936 0.02711 0.20839 0.0
C1280 C 0.33245 0.04263 0.24331 0.0
C1281 C 0.36709 0.03714 0.19367 0.0
C1282 C 0.33722 0.01716 0.30459 0.0
C1283 C 0.34114 0.02895 0.29021 0.0
C1284 C 0.38277 0.01254 0.25602 0.0
C1285 C 0.35766 0.05062 0.21927 0.0
C1286 C 0.35783 0.03872 0.23482 0.0
C1287 C 0.35679 0.00649 0.2803 0.0
C1288 C 0.35743 0.01703 0.26456 0.0
H1289 H 0.33174 0.12149 0.19766 0.0
H1290 H 0.33565 0.10395 0.22328 0.0
H1291 H 0.40287 0.01997 0.23501 0.0
H1292 H 0.3758 0.93485 0.30353 0.0
H1293 H 0.38228 0.95507 0.2781 0.0
C1294 C 0.63111 0.45385 0.19341 0.0
C1295 C 0.65674 0.43558 0.18883 0.0
C1296 C 0.62621 0.46113 0.20823 0.0
C1297 C 0.65009 0.43208 0.24524 0.0
H1298 H 0.62609 0.53326 0.25688 0.0
C1299 C 0.67774 0.49587 0.30103 0.0
C1300 C 0.65739 0.51881 0.30824 0.0
C1301 C 0.67196 0.48189 0.28707 0.0
C1302 C 0.63223 0.50462 0.25382 0.0
H1303 H 0.69712 0.41023 0.19628 0.0
H1304 H 0.68869 0.42299 0.22197 0.0
H1305 H 0.62685 0.51621 0.23104 0.0
H1306 H 0.61486 0.54494 0.30652 0.0
H1307 H 0.60469 0.5205 0.28187 0.0
H1308 H 0.65642 0.42089 0.26795 0.0
C1309 C 0.67217 0.43138 0.21418 0.0
C1310 C 0.63271 0.49486 0.23901 0.0
C1311 C 0.67713 0.42432 0.1994 0.0
C1312 C 0.63074 0.52686 0.3013 0.0
C1313 C 0.62507 0.5132 0.28716 0.0
C1314 C 0.64964 0.44183 0.26001 0.0
C1315 C 0.64674 0.45001 0.21879 0.0
C1316 C 0.64247 0.45882 0.23453 0.0
C1317 C 0.6458 0.49081 0.27985 0.0
C1318 C 0.64152 0.47858 0.26445 0.0
H1319 H 0.61497 0.46297 0.18553 0.0
H1320 H 0.60633 0.47535 0.21142 0.0
H1321 H 0.65707 0.40378 0.24219 0.0
H1322 H 0.69848 0.48919 0.30611 0.0
H1323 H 0.68859 0.46523 0.28171 0.0
C1324 C 0.66563 0.95267 0.80757 0.0
C1325 C 0.64533 0.94597 0.81891 0.0
C1326 C 0.65631 0.96168 0.79357 0.0
C1327 C 0.59999 0.00521 0.7722 0.0
H1328 H 0.63571 0.94889 0.74061 0.0
C1329 C 0.62452 0.06724 0.71543 0.0
C1330 C 0.62408 0.04312 0.70319 0.0
C1331 C 0.61753 0.05302 0.72925 0.0
C1332 C 0.62498 0.96448 0.74924 0.0
H1333 H 0.59877 0.94355 0.82399 0.0
H1334 H 0.58259 0.96115 0.79948 0.0
H1335 H 0.64238 0.92793 0.76568 0.0
H1336 H 0.61495 0.98538 0.69576 0.0
H1337 H 0.60252 0.96046 0.71992 0.0
H1338 H 0.58383 0.04295 0.75574 0.0
C1339 C 0.60585 0.95909 0.80168 0.0
C1340 C 0.62903 0.95262 0.76361 0.0
C1341 C 0.61522 0.9494 0.81579 0.0
C1342 C 0.61488 0.00489 0.70491 0.0
C1343 C 0.60813 0.99051 0.71879 0.0
C1344 C 0.59617 0.01737 0.75777 0.0
C1345 C 0.62637 0.96466 0.79041 0.0
C1346 C 0.61735 0.9735 0.77526 0.0
C1347 C 0.61032 0.01415 0.73119 0.0
C1348 C 0.60935 -0.00227 0.74616 0.0
H1349 H 0.68902 0.95074 0.80945 0.0
H1350 H 0.67265 0.96648 0.78515 0.0
H1351 H 0.59082 0.02184 0.781 0.0
H1352 H 0.63166 0.09681 0.71442 0.0
H1353 H 0.61979 0.07195 0.73854 0.0
C1354 C 0.37151 0.44128 0.70899 0.0
C1355 C 0.35991 0.46811 0.69932 0.0
C1356 C 0.3777 0.45164 0.72349 0.0
C1357 C 0.35199 0.52205 0.75022 0.0
H1358 H 0.41394 0.48494 0.77516 0.0
C1359 C 0.36145 0.57728 0.80811 0.0
C1360 C 0.36323 0.54963 0.81911 0.0
C1361 C 0.36735 0.56792 0.79365 0.0
C1362 C 0.39649 0.49538 0.7683 0.0
H1363 H 0.3478 0.52708 0.69663 0.0
H1364 H 0.35972 0.54566 0.72155 0.0
H1365 H 0.41311 0.46757 0.74918 0.0
H1366 H 0.37376 0.49085 0.82375 0.0
H1367 H 0.384 0.47422 0.79829 0.0
H1368 H 0.33506 0.5494 0.76911 0.0
C1369 C 0.36317 0.51637 0.71827 0.0
C1370 C 0.39599 0.48543 0.75345 0.0
C1371 C 0.35661 0.50591 0.70396 0.0
C1372 C 0.3728 0.51291 0.81551 0.0
C1373 C 0.37852 0.50337 0.80093 0.0
C1374 C 0.35256 0.53202 0.76491 0.0
C1375 C 0.37251 0.48903 0.72841 0.0
C1376 C 0.37383 0.49902 0.74421 0.0
C1377 C 0.37469 0.53045 0.78978 0.0
C1378 C 0.37491 0.51919 0.77413 0.0
H1379 H 0.37395 0.41186 0.70563 0.0
H1380 H 0.38483 0.42987 0.731 0.0
H1381 H 0.334 0.53201 0.7436 0.0
H1382 H 0.35418 0.60583 0.81061 0.0
H1383 H 0.36484 0.58967 0.78537 0.0
C1384 C 0.86543 0.47537 0.80431 0.0
C1385 C 0.8414 0.45224 0.80857 0.0
C1386 C 0.86889 0.4862 0.78967 0.0
C1387 C 0.82326 0.50103 0.75718 0.0
H1388 H 0.89694 0.50992 0.73625 0.0
C1389 C 0.831 0.57849 0.70208 0.0
C1390 C 0.8463 0.56 0.69091 0.0
C1391 C 0.83277 0.56567 0.71648 0.0
C1392 C 0.87619 0.50744 0.74195 0.0
H1393 H 0.80321 0.42055 0.8008 0.0
H1394 H 0.80948 0.43876 0.77538 0.0
H1395 H 0.89625 0.48429 0.76113 0.0
H1396 H 0.8762 0.51411 0.68619 0.0
H1397 H 0.87924 0.49173 0.71136 0.0
H1398 H 0.80307 0.52373 0.73812 0.0
C1399 C 0.82532 0.44925 0.7833 0.0
C1400 C 0.87584 0.49304 0.75622 0.0
C1401 C 0.82183 0.43863 0.79785 0.0
C1402 C 0.86409 0.529 0.69454 0.0
C1403 C 0.86598 0.51628 0.70897 0.0
C1404 C 0.82363 0.51556 0.74302 0.0
C1405 C 0.84832 0.47415 0.77909 0.0
C1406 C 0.8493 0.48946 0.76396 0.0
C1407 C 0.84998 0.53412 0.72007 0.0
C1408 C 0.85006 0.51896 0.73522 0.0
H1409 H 0.88053 0.48695 0.81234 0.0
H1410 H 0.88675 0.5056 0.78678 0.0
H1411 H 0.80248 0.49923 0.7629 0.0
H1412 H 0.8172 0.60254 0.6997 0.0
H1413 H 0.82051 0.58039 0.72481 0.0
C1414 C 0.1289 0.01032 0.80141 0.0
C1415 C 0.15517 0.02869 0.80578 0.0
C1416 C 0.1242 0.00097 0.78669 0.0
C1417 C 0.16674 0.97915 0.75392 0.0
H1418 H 0.09522 -0.00374 0.73222 0.0
C1419 C 0.16347 0.96257 0.69178 0.0
C1420 C 0.13828 0.94629 0.68527 0.0
C1421 C 0.16364 0.97205 0.70656 0.0
C1422 C 0.1152 0.99079 0.73818 0.0
H1423 H 0.19642 0.0531 0.7981 0.0
H1424 H 0.18823 0.03696 0.77264 0.0
H1425 H 0.09811 0.01456 0.75798 0.0
H1426 H 0.09339 0.9274 0.68922 0.0
H1427 H 0.0939 0.94327 0.71518 0.0
H1428 H 0.1839 0.95512 0.73438 0.0
C1429 C 0.17142 0.02931 0.78052 0.0
C1430 C 0.11684 0.00136 0.75292 0.0
C1431 C 0.17604 0.0387 0.79512 0.0
C1432 C 0.11317 0.93991 0.6939 0.0
C1433 C 0.11339 0.94922 0.70877 0.0
C1434 C 0.16506 0.96839 0.7393 0.0
C1435 C 0.14582 0.00952 0.77618 0.0
C1436 C 0.14285 -0.00373 0.76085 0.0
C1437 C 0.13871 0.96524 0.7153 0.0
C1438 C 0.13949 0.97468 0.73114 0.0
H1439 H 0.11267 0.00142 0.80937 0.0
H1440 H 0.10431 0.98552 0.78365 0.0
H1441 H 0.18686 0.97404 0.75984 0.0
H1442 H 0.18309 0.96831 0.68543 0.0
H1443 H 0.18333 0.98511 0.71112 0.0
C1444 C 0.1275 0.42437 0.30695 0.0
C1445 C 0.1308 0.44877 0.31901 0.0
C1446 C 0.11995 0.4389 0.29329 0.0
C1447 C 0.13202 0.52468 0.27208 0.0
H1448 H 0.07974 0.47651 0.24392 0.0
C1449 C 0.13301 0.57665 0.21299 0.0
C1450 C 0.13184 0.54834 0.2022 0.0
C1451 C 0.12518 0.568 0.22736 0.0
C1452 C 0.09461 0.49019 0.2516 0.0
H1453 H 0.1287 0.50748 0.3263 0.0
H1454 H 0.11554 0.53302 0.3024 0.0
H1455 H 0.07986 0.45414 0.26917 0.0
H1456 H 0.12102 0.48917 0.19767 0.0
H1457 H 0.10841 0.47332 0.22285 0.0
H1458 H 0.14829 0.55903 0.2546 0.0
C1459 C 0.11831 0.50252 0.30358 0.0
C1460 C 0.09451 0.47749 0.26609 0.0
C1461 C 0.12545 0.48786 0.3173 0.0
C1462 C 0.12153 0.5116 0.20581 0.0
C1463 C 0.1143 0.50263 0.22027 0.0
C1464 C 0.13246 0.53698 0.2576 0.0
C1465 C 0.11618 0.47831 0.29136 0.0
C1466 C 0.1135 0.49432 0.27643 0.0
C1467 C 0.11694 0.53045 0.23135 0.0
C1468 C 0.11405 0.51963 0.24707 0.0
H1469 H 0.13185 0.39418 0.30798 0.0
H1470 H 0.11882 0.4196 0.28407 0.0
H1471 H 0.1473 0.53776 0.27973 0.0
H1472 H 0.14104 0.60517 0.2104 0.0
H1473 H 0.12669 0.59052 0.23543 0.0
C1474 C 0.87535 0.04385 0.31431 0.0
C1475 C 0.85826 0.01894 0.32296 0.0
C1476 C 0.88226 0.03385 0.29988 0.0
C1477 C 0.85035 0.97374 0.27087 0.0
H1478 H 0.92203 0.99485 0.24934 0.0
C1479 C 0.8599 0.91984 0.21298 0.0
C1480 C 0.86901 0.94659 0.20248 0.0
C1481 C 0.86485 0.92673 0.22775 0.0
C1482 C 0.90186 0.98896 0.25523 0.0
H1483 H 0.83715 0.96311 0.32394 0.0
H1484 H 0.84991 0.94518 0.29916 0.0
H1485 H 0.91937 0.01095 0.27542 0.0
H1486 H 0.89167 0.00066 0.199 0.0
H1487 H 0.90008 0.01323 0.22505 0.0
H1488 H 0.83251 0.95238 0.25094 0.0
C1489 C 0.85724 0.97285 0.30318 0.0
C1490 C 0.90033 -0.0018 0.27013 0.0
C1491 C 0.85008 0.98298 0.31741 0.0
C1492 C 0.88488 0.97934 0.20692 0.0
C1493 C 0.88958 0.98654 0.22182 0.0
C1494 C 0.85187 0.96456 0.25613 0.0
C1495 C 0.87226 -0.00124 0.29401 0.0
C1496 C 0.87461 0.99016 0.27815 0.0
C1497 C 0.87846 0.961 0.2324 0.0
C1498 C 0.87771 0.97151 0.24814 0.0
H1499 H 0.88171 0.07187 0.31835 0.0
H1500 H 0.89387 0.05444 0.2931 0.0
H1501 H 0.82985 0.9683 0.27655 0.0
H1502 H 0.84758 0.89441 0.20978 0.0
H1503 H 0.85663 0.90604 0.23559 0.0
C1504 C 0.5654 0.36082 0.12928 0.0
C1505 C 0.58387 0.37068 0.11756 0.0
C1506 C 0.54156 0.33592 0.12727 0.0
C1507 C 0.51527 0.25787 0.10378 0.0
H1508 H 0.44411 0.27048 0.12631 0.0
C1509 C 0.41634 0.14887 0.10497 0.0
C1510 C 0.40721 0.13907 0.11916 0.0
C1511 C 0.43676 0.17869 0.10274 0.0
C1512 C 0.46384 0.26665 0.11993 0.0
H1513 H 0.5912 0.36285 0.09438 0.0
H1514 H 0.54916 0.31927 0.09085 0.0
H1515 H 0.48078 0.32199 0.12558 0.0
H1516 H 0.4128 0.15253 0.14213 0.0
H1517 H 0.44803 0.20443 0.13819 0.0
H1518 H 0.49821 0.2021 0.09833 0.0
C1519 C 0.55346 0.33069 0.10164 0.0
C1520 C 0.48485 0.29606 0.11953 0.0
C1521 C 0.57741 0.35581 0.10364 0.0
C1522 C 0.4193 0.15924 0.13105 0.0
C1523 C 0.43932 0.18921 0.12881 0.0
C1524 C 0.49404 0.22846 0.10409 0.0
C1525 C 0.53545 0.32022 0.11348 0.0
C1526 C 0.51125 0.29154 0.11186 0.0
C1527 C 0.44799 0.19951 0.11465 0.0
C1528 C 0.4686 0.23219 0.11255 0.0
H1529 H 0.56965 0.3717 0.14015 0.0
H1530 H 0.52847 0.32799 0.13669 0.0
H1531 H 0.53545 0.2534 0.09784 0.0
H1532 H 0.40747 0.13383 0.09558 0.0
H1533 H 0.4432 0.18611 0.09172 0.0
C1534 C 0.4312 0.85292 0.36796 0.0
C1535 C 0.42002 0.86562 0.38137 0.0
C1536 C 0.45257 0.82475 0.36753 0.0
C1537 C 0.48037 0.74536 0.38958 0.0
H1538 H 0.54654 0.74892 0.36305 0.0
C1539 C 0.57689 0.64243 0.39452 0.0
C1540 C 0.58997 0.62891 0.38168 0.0
C1541 C 0.5554 0.67027 0.39393 0.0
C1542 C 0.52794 0.74722 0.37038 0.0
H1543 H 0.42364 0.85978 0.40487 0.0
H1544 H 0.46095 0.81114 0.40409 0.0
H1545 H 0.51162 0.80096 0.36309 0.0
H1546 H 0.58996 0.63345 0.35808 0.0
H1547 H 0.55211 0.6817 0.35706 0.0
H1548 H 0.49652 0.69172 0.39687 0.0
C1549 C 0.45281 0.82241 0.39389 0.0
C1550 C 0.50799 0.77711 0.37042 0.0
C1551 C 0.43154 0.85056 0.39433 0.0
C1552 C 0.58044 0.64327 0.36819 0.0
C1553 C 0.5589 0.67115 0.36761 0.0
C1554 C 0.50023 0.7155 0.38951 0.0
C1555 C 0.46315 0.80863 0.3805 0.0
C1556 C 0.48414 0.77667 0.38013 0.0
C1557 C 0.54634 0.68528 0.38048 0.0
C1558 C 0.52441 0.71619 0.38 0.0
H1559 H 0.42285 0.86389 0.35776 0.0
H1560 H 0.46003 0.81465 0.35703 0.0
H1561 H 0.46186 0.74375 0.39697 0.0
H1562 H 0.5837 0.63217 0.40511 0.0
H1563 H 0.54648 0.6808 0.40407 0.0
C1564 C 0.58659 0.83991 0.91277 0.0
C1565 C 0.59701 0.85293 0.89917 0.0
C1566 C 0.56394 0.81239 0.91355 0.0
C1567 C 0.52963 0.73517 0.89182 0.0
H1568 H 0.46472 0.74291 0.91889 0.0
C1569 C 0.42538 0.64131 0.88645 0.0
C1570 C 0.41124 0.62815 0.89917 0.0
C1571 C 0.449 0.66718 0.88729 0.0
C1572 C 0.48293 0.74 0.91142 0.0
H1573 H 0.59097 0.84798 0.87575 0.0
H1574 H 0.55159 0.80035 0.87716 0.0
H1575 H 0.5035 0.79208 0.91884 0.0
H1576 H 0.41139 0.63142 0.92279 0.0
H1577 H 0.45301 0.67627 0.92424 0.0
H1578 H 0.50926 0.68324 0.88438 0.0
C1579 C 0.56121 0.81098 0.88721 0.0
C1580 C 0.5051 0.76824 0.91137 0.0
C1581 C 0.58369 0.83853 0.88642 0.0
C1582 C 0.42173 0.64098 0.91278 0.0
C1583 C 0.44545 0.66692 0.91361 0.0
C1584 C 0.5076 0.70692 0.89191 0.0
C1585 C 0.55136 0.79717 0.90076 0.0
C1586 C 0.52846 0.76641 0.90141 0.0
C1587 C 0.45924 0.68054 0.90086 0.0
C1588 C 0.48373 0.70924 0.90156 0.0
H1589 H 0.59632 0.85038 0.92281 0.0
H1590 H 0.55687 0.80222 0.92415 0.0
H1591 H 0.54767 0.73251 0.88423 0.0
H1592 H 0.41791 0.63218 0.87577 0.0
H1593 H 0.45877 0.67745 0.87723 0.0
C1594 C 0.41808 0.34474 0.60951 0.0
C1595 C 0.40785 0.35848 0.62296 0.0
C1596 C 0.43974 0.31696 0.609 0.0
C1597 C 0.47107 0.24028 0.63125 0.0
H1598 H 0.53597 0.24596 0.60397 0.0
C1599 C 0.57137 0.14398 0.63643 0.0
C1600 C 0.58494 0.13061 0.62368 0.0
C1601 C 0.54875 0.17021 0.63564 0.0
C1602 C 0.51773 0.2436 0.6115 0.0
H1603 H 0.41315 0.35446 0.64644 0.0
H1604 H 0.45087 0.30627 0.64552 0.0
H1605 H 0.49926 0.29586 0.60395 0.0
H1606 H 0.58469 0.13379 0.60006 0.0
H1607 H 0.54479 0.17925 0.59869 0.0
H1608 H 0.48933 0.1881 0.6388 0.0
C1609 C 0.44185 0.3166 0.63536 0.0
C1610 C 0.49675 0.27229 0.61152 0.0
C1611 C 0.42035 0.34447 0.63588 0.0
C1612 C 0.57479 0.14351 0.6101 0.0
C1613 C 0.55206 0.1698 0.60932 0.0
C1614 C 0.49192 0.21156 0.63119 0.0
C1615 C 0.45153 0.30215 0.62194 0.0
C1616 C 0.47338 0.27117 0.62151 0.0
C1617 C 0.53895 0.18375 0.6221 0.0
C1618 C 0.51573 0.21307 0.62145 0.0
H1619 H 0.40898 0.35486 0.59934 0.0
H1620 H 0.44664 0.30628 0.59849 0.0
H1621 H 0.45298 0.23815 0.63888 0.0
H1622 H 0.57859 0.13481 0.64709 0.0
H1623 H 0.5395 0.18068 0.64572 0.0
C1624 C 0.93264 0.6402 0.63482 0.0
C1625 C 0.91708 0.62816 0.62235 0.0
C1626 C 0.95622 0.66598 0.63366 0.0
C1627 C 0.98637 0.7413 0.60977 0.0
H1628 H 0.05427 0.73292 0.63497 0.0
C1629 C 0.08711 0.84526 0.60749 0.0
C1630 C 0.09839 0.85754 0.62102 0.0
C1631 C 0.06533 0.81664 0.60681 0.0
C1632 C 0.03534 0.73577 0.62794 0.0
H1633 H 0.91474 0.63302 0.59879 0.0
H1634 H 0.95627 0.67784 0.59676 0.0
H1635 H 0.01682 0.68233 0.63495 0.0
H1636 H 0.09499 0.84999 0.64446 0.0
H1637 H 0.05701 0.80031 0.64324 0.0
H1638 H 0.00498 0.79493 0.60282 0.0
C1639 C 0.94985 0.66765 0.60746 0.0
C1640 C 0.0139 0.7068 0.62792 0.0
C1641 C 0.92619 0.64178 0.60862 0.0
C1642 C 0.08692 0.84117 0.63385 0.0
C1643 C 0.0653 0.81248 0.63316 0.0
C1644 C 0.00792 0.77026 0.60975 0.0
C1645 C 0.96493 0.68033 0.61999 0.0
C1646 C 0.98893 0.7095 0.61902 0.0
C1647 C 0.05453 0.79958 0.61964 0.0
C1648 C 0.03238 0.76806 0.61901 0.0
H1649 H 0.92626 0.63037 0.64558 0.0
H1650 H 0.96706 0.67553 0.64355 0.0
H1651 H 0.96723 0.74448 0.60291 0.0
H1652 H 0.09544 0.85726 0.59739 0.0
H1653 H 0.05751 0.80716 0.59624 0.0
C1654 C 0.07408 0.13714 0.89496 0.0
C1655 C 0.08591 0.12368 0.8818 0.0
C1656 C 0.0525 0.16491 0.8949 0.0
C1657 C 0.99726 0.21133 0.87172 0.0
H1658 H 0.00629 0.29405 0.8996 0.0
C1659 C 0.92446 0.34442 0.86994 0.0
C1660 C 0.91356 0.35734 0.88338 0.0
C1661 C 0.94624 0.31687 0.86947 0.0
C1662 C 0.00329 0.27099 0.89184 0.0
H1663 H 0.08344 0.12804 0.85823 0.0
H1664 H 0.04583 0.17661 0.85815 0.0
H1665 H 0.04159 0.24269 0.89937 0.0
H1666 H 0.91769 0.35202 0.90687 0.0
H1667 H 0.95544 0.30392 0.90602 0.0
H1668 H 0.95886 0.2396 0.86423 0.0
C1669 C 0.0532 0.1655 0.86851 0.0
C1670 C 0.02349 0.24151 0.89172 0.0
C1671 C 0.07484 0.13771 0.86857 0.0
C1672 C 0.92556 0.34282 0.89632 0.0
C1673 C 0.94733 0.31531 0.89584 0.0
C1674 C 0.97701 0.24083 0.87185 0.0
C1675 C 0.04217 0.1799 0.88169 0.0
C1676 C 0.02064 0.21123 0.88171 0.0
C1677 C 0.95767 0.30165 0.88241 0.0
C1678 C 0.97973 0.27094 0.88195 0.0
H1679 H 0.08192 0.12686 0.90536 0.0
H1680 H 0.04405 0.17486 0.90523 0.0
H1681 H 0.99427 0.18823 0.86398 0.0
H1682 H 0.91582 0.35504 0.85975 0.0
H1683 H 0.95406 0.30741 0.85895 0.0
C1684 C 0.07824 0.34187 0.38562 0.0
C1685 C 0.09075 0.35817 0.39825 0.0
C1686 C 0.05592 0.31416 0.38666 0.0
C1687 C 0.99858 0.27433 0.41072 0.0
H1688 H 0.00541 0.18527 0.38588 0.0
C1689 C 0.91562 0.14686 0.41335 0.0
C1690 C 0.90643 0.13162 0.39987 0.0
C1691 C 0.93916 0.17307 0.41407 0.0
C1692 C 0.003 0.21008 0.3928 0.0
H1693 H 0.08879 0.35887 0.42189 0.0
H1694 H 0.04953 0.3105 0.42366 0.0
H1695 H 0.0435 0.23495 0.38533 0.0
H1696 H 0.91523 0.13168 0.3766 0.0
H1697 H 0.95575 0.1775 0.37785 0.0
H1698 H 0.95775 0.24977 0.41798 0.0
C1699 C 0.05715 0.31928 0.41297 0.0
C1700 C 0.02485 0.23855 0.39248 0.0
C1701 C 0.07968 0.34692 0.41194 0.0
C1702 C 0.92169 0.14269 0.38719 0.0
C1703 C 0.94512 0.16887 0.38791 0.0
C1704 C 0.97658 0.24589 0.41098 0.0
C1705 C 0.04541 0.30214 0.40034 0.0
C1706 C 0.02272 0.27122 0.40129 0.0
C1707 C 0.95406 0.18462 0.40134 0.0
C1708 C 0.97834 0.21364 0.40187 0.0
H1709 H 0.08606 0.3499 0.37488 0.0
H1710 H 0.04694 0.30199 0.37672 0.0
H1711 H 0.99627 0.29929 0.41757 0.0
H1712 H 0.90442 0.13892 0.42334 0.0
H1713 H 0.94571 0.18427 0.42461 0.0
C1714 C 0.92993 0.84745 0.13509 0.0
C1715 C 0.91666 0.86196 0.12245 0.0
C1716 C 0.9509 0.81903 0.13414 0.0
C1717 C 0.00381 0.77335 0.1098 0.0
H1718 H 0.99453 0.68837 0.13661 0.0
C1719 C 0.08102 0.6433 0.10869 0.0
C1720 C 0.09017 0.62966 0.12235 0.0
C1721 C 0.05856 0.66998 0.10771 0.0
C1722 C 0.99767 0.71202 0.12913 0.0
H1723 H 0.91609 0.85881 0.09882 0.0
H1724 H 0.9531 0.80928 0.09719 0.0
H1725 H 0.95913 0.73951 0.13685 0.0
H1726 H 0.08234 0.63301 0.14567 0.0
H1727 H 0.04385 0.67955 0.14397 0.0
H1728 H 0.04279 0.74627 0.10232 0.0
C1729 C 0.94704 0.81996 0.10783 0.0
C1730 C 0.97733 0.74133 0.12926 0.0
C1731 C 0.9258 0.84829 0.10878 0.0
C1732 C 0.07589 0.64271 0.13494 0.0
C1733 C 0.05359 0.66934 0.13396 0.0
C1734 C 0.02436 0.74409 0.10974 0.0
C1735 C 0.95936 0.8045 0.12053 0.0
C1736 C 0.98037 0.77259 0.11975 0.0
C1737 C 0.04474 0.6836 0.12036 0.0
C1738 C 0.02177 0.7133 0.11956 0.0
H1739 H 0.92362 0.85734 0.14582 0.0
H1740 H 0.96039 0.80819 0.14411 0.0
H1741 H 0.00679 0.79716 0.10238 0.0
H1742 H 0.0915 0.63387 0.09876 0.0
H1743 H 0.05206 0.67995 0.09703 0.0
loop_
_geom_bond_atom_site_label_1
_geom_bond_atom_site_label_2
_geom_bond_distance
_geom_bond_site_symmetry_2
_ccdc_geom_bond_type
Co0 O3 1.970 . S
Co0 N17 1.989 . S
Co0 O25 1.967 . S
Co0 O32 1.920 . S
Co1 O4 1.966 . S
Co1 N10 2.022 . S
Co1 N18 1.993 . S
Co1 O26 1.941 . S
C2 O3 1.258 . S
C2 O4 1.263 . S
O3 Co0 1.970 . S
O3 C2 1.258 . S
O4 Co1 1.966 . S
O4 C2 1.263 . S
C5 O6 1.235 . S
C5 O32 1.289 . S
O6 C5 1.235 . S
C7 C9 1.400 . S
C7 N10 1.351 . S
C7 C12 1.501 . S
C8 C9 1.387 . S
C8 N11 1.341 . S
C9 C7 1.400 . S
C9 C8 1.387 . S
N10 Co1 2.022 . S
N10 C7 1.351 . S
N10 N11 1.365 . S
N11 C8 1.341 . S
N11 N10 1.365 . S
N11 H31 0.862 . S
C12 C7 1.501 . S
C12 H13 0.961 . S
C12 H14 0.961 . S
C12 H15 0.960 . S
H13 C12 0.961 . S
H14 C12 0.961 . S
H15 C12 0.960 . S
C16 N17 1.342 . S
C16 C20 1.401 1_545 S
C16 C21 1.499 . S
N17 Co0 1.989 . S
N17 C16 1.342 . S
N17 N18 1.388 . S
N18 Co1 1.993 . S
N18 N17 1.388 . S
N18 C19 1.346 . S
C19 N18 1.346 . S
C19 C20 1.396 1_545 S
C19 C29 1.510 . S
C20 C16 1.401 1_565 S
C20 C19 1.396 1_565 S
C21 C16 1.499 . S
C21 H22 0.959 . S
C21 H23 0.960 1_545 S
C21 H24 0.961 1_545 S
H22 C21 0.959 . S
H23 C21 0.960 1_565 S
H24 C21 0.961 1_565 S
O25 Co0 1.967 . S
O25 C33 1.258 . S
O26 Co1 1.941 . S
O26 C33 1.266 . S
H27 C29 0.959 1_565 S
H28 C29 0.961 . S
C29 C19 1.510 . S
C29 H27 0.959 1_545 S
C29 H28 0.961 . S
C29 H30 0.960 . S
H30 C29 0.960 . S
H31 N11 0.862 . S
O32 Co0 1.920 . S
O32 C5 1.289 . S
C33 O25 1.258 . S
C33 O26 1.266 . S
Co34 O37 1.970 . S
Co34 N51 1.989 . S
Co34 O59 1.967 . S
Co34 O66 1.920 . S
Co35 O38 1.966 . S
Co35 N44 2.022 . S
Co35 N52 1.993 . S
Co35 O60 1.941 . S
C36 O37 1.258 . S
C36 O38 1.263 . S
O37 Co34 1.970 . S
O37 C36 1.258 . S
O38 Co35 1.966 . S
O38 C36 1.263 . S
C39 O40 1.235 . S
C39 O66 1.289 . S
O40 C39 1.235 . S
C41 C43 1.400 . S
C41 N44 1.351 . S
C41 C46 1.501 . S
C42 C43 1.387 . S
C42 N45 1.341 . S
C43 C41 1.400 . S
C43 C42 1.387 . S
N44 Co35 2.022 . S
N44 C41 1.351 . S
N44 N45 1.365 . S
N45 C42 1.341 . S
N45 N44 1.365 . S
N45 H65 0.862 . S
C46 C41 1.501 . S
C46 H47 0.961 . S
C46 H48 0.961 . S
C46 H49 0.960 . S
H47 C46 0.961 . S
H48 C46 0.961 . S
H49 C46 0.960 . S
C50 N51 1.342 . S
C50 C54 1.401 . S
C50 C55 1.499 . S
N51 Co34 1.989 . S
N51 C50 1.342 . S
N51 N52 1.388 . S
N52 Co35 1.993 . S
N52 N51 1.388 . S
N52 C53 1.346 . S
C53 N52 1.346 . S
C53 C54 1.396 . S
C53 C63 1.510 . S
C54 C50 1.401 . S
C54 C53 1.396 . S
C55 C50 1.499 . S
C55 H56 0.959 . S
C55 H57 0.960 . S
C55 H58 0.961 . S
H56 C55 0.959 . S
H57 C55 0.960 . S
H58 C55 0.961 . S
O59 Co34 1.967 . S
O59 C67 1.258 . S
O60 Co35 1.941 . S
O60 C67 1.266 . S
H61 C63 0.959 . S
H62 C63 0.961 . S
C63 C53 1.510 . S
C63 H61 0.959 . S
C63 H62 0.961 . S
C63 H64 0.960 . S
H64 C63 0.960 . S
H65 N45 0.862 . S
O66 Co34 1.920 . S
O66 C39 1.289 . S
C67 O59 1.258 . S
C67 O60 1.266 . S
Co68 O71 1.970 . S
Co68 N85 1.989 . S
Co68 O93 1.967 . S
Co68 O100 1.920 . S
Co69 O72 1.966 . S
Co69 N78 2.022 . S
Co69 N86 1.993 . S
Co69 O94 1.941 . S
C70 O71 1.258 . S
C70 O72 1.263 . S
O71 Co68 1.970 . S
O71 C70 1.258 . S
O72 Co69 1.966 . S
O72 C70 1.263 . S
C73 O74 1.235 . S
C73 O100 1.289 . S
O74 C73 1.235 . S
C75 C77 1.400 . S
C75 N78 1.351 . S
C75 C80 1.501 . S
C76 C77 1.387 . S
C76 N79 1.341 . S
C77 C75 1.400 . S
C77 C76 1.387 . S
N78 Co69 2.022 . S
N78 C75 1.351 . S
N78 N79 1.365 . S
N79 C76 1.341 . S
N79 N78 1.365 . S
N79 H99 0.862 . S
C80 C75 1.501 . S
C80 H81 0.961 . S
C80 H82 0.961 . S
C80 H83 0.960 . S
H81 C80 0.961 . S
H82 C80 0.961 . S
H83 C80 0.960 . S
C84 N85 1.342 1_545 S
C84 C88 1.401 . S
C84 C89 1.499 . S
N85 Co68 1.989 . S
N85 C84 1.342 1_565 S
N85 N86 1.388 . S
N86 Co69 1.993 . S
N86 N85 1.388 . S
N86 C87 1.346 1_565 S
C87 N86 1.346 1_545 S
C87 C88 1.396 . S
C87 C97 1.510 . S
C88 C84 1.401 . S
C88 C87 1.396 . S
C89 C84 1.499 . S
C89 H90 0.959 1_545 S
C89 H91 0.960 . S
C89 H92 0.961 . S
H90 C89 0.959 1_565 S
H91 C89 0.960 . S
H92 C89 0.961 . S
O93 Co68 1.967 . S
O93 C101 1.258 . S
O94 Co69 1.941 . S
O94 C101 1.266 . S
H95 C97 0.959 . S
H96 C97 0.961 . S
C97 C87 1.510 . S
C97 H95 0.959 . S
C97 H96 0.961 . S
C97 H98 0.960 . S
H98 C97 0.960 . S
H99 N79 0.862 . S
O100 Co68 1.920 . S
O100 C73 1.289 . S
C101 O93 1.258 . S
C101 O94 1.266 . S
Co102 O105 1.970 . S
Co102 N119 1.989 . S
Co102 O127 1.967 . S
Co102 O134 1.920 . S
Co103 O106 1.966 . S
Co103 N112 2.022 . S
Co103 N120 1.993 . S
Co103 O128 1.941 . S
C104 O105 1.258 . S
C104 O106 1.263 . S
O105 Co102 1.970 . S
O105 C104 1.258 . S
O106 Co103 1.966 . S
O106 C104 1.263 . S
C107 O108 1.235 . S
C107 O134 1.289 . S
O108 C107 1.235 . S
C109 C111 1.400 . S
C109 N112 1.351 . S
C109 C114 1.501 . S
C110 C111 1.387 . S
C110 N113 1.341 . S
C111 C109 1.400 . S
C111 C110 1.387 . S
N112 Co103 2.022 . S
N112 C109 1.351 . S
N112 N113 1.365 . S
N113 C110 1.341 . S
N113 N112 1.365 . S
N113 H133 0.862 . S
C114 C109 1.501 . S
C114 H115 0.961 . S
C114 H116 0.961 . S
C114 H117 0.960 . S
H115 C114 0.961 . S
H116 C114 0.961 . S
H117 C114 0.960 . S
C118 N119 1.342 . S
C118 C122 1.401 . S
C118 C123 1.499 . S
N119 Co102 1.989 . S
N119 C118 1.342 . S
N119 N120 1.388 . S
N120 Co103 1.993 . S
N120 N119 1.388 . S
N120 C121 1.346 . S
C121 N120 1.346 . S
C121 C122 1.396 . S
C121 C131 1.510 . S
C122 C118 1.401 . S
C122 C121 1.396 . S
C123 C118 1.499 . S
C123 H124 0.959 . S
C123 H125 0.960 . S
C123 H126 0.961 . S
H124 C123 0.959 . S
H125 C123 0.960 . S
H126 C123 0.961 . S
O127 Co102 1.967 . S
O127 C135 1.258 . S
O128 Co103 1.941 . S
O128 C135 1.266 . S
H129 C131 0.959 . S
H130 C131 0.961 . S
C131 C121 1.510 . S
C131 H129 0.959 . S
C131 H130 0.961 . S
C131 H132 0.960 . S
H132 C131 0.960 . S
H133 N113 0.862 . S
O134 Co102 1.920 . S
O134 C107 1.289 . S
C135 O127 1.258 . S
C135 O128 1.266 . S
Co136 O139 1.970 . S
Co136 N153 1.989 . S
Co136 O161 1.967 . S
Co136 O168 1.920 . S
Co137 O140 1.966 . S
Co137 N146 2.022 . S
Co137 N154 1.993 . S
Co137 O162 1.941 . S
C138 O139 1.258 . S
C138 O140 1.263 . S
O139 Co136 1.970 . S
O139 C138 1.258 . S
O140 Co137 1.966 . S
O140 C138 1.263 . S
C141 O142 1.235 . S
C141 O168 1.289 . S
O142 C141 1.235 . S
C143 C145 1.400 . S
C143 N146 1.351 . S
C143 C148 1.501 . S
C144 C145 1.387 . S
C144 N147 1.341 . S
C145 C143 1.400 . S
C145 C144 1.387 . S
N146 Co137 2.022 . S
N146 C143 1.351 . S
N146 N147 1.365 . S
N147 C144 1.341 . S
N147 N146 1.365 . S
N147 H167 0.862 . S
C148 C143 1.501 . S
C148 H149 0.961 . S
C148 H150 0.961 . S
C148 H151 0.960 . S
H149 C148 0.961 . S
H150 C148 0.961 . S
H151 C148 0.960 . S
C152 N153 1.342 . S
C152 C156 1.401 1_565 S
C152 C157 1.499 . S
N153 Co136 1.989 . S
N153 C152 1.342 . S
N153 N154 1.388 . S
N154 Co137 1.993 . S
N154 N153 1.388 . S
N154 C155 1.346 . S
C155 N154 1.346 . S
C155 C156 1.396 1_565 S
C155 C165 1.510 1_565 S
C156 C152 1.401 1_545 S
C156 C155 1.396 1_545 S
C157 C152 1.499 . S
C157 H158 0.959 . S
C157 H159 0.960 1_565 S
C157 H160 0.961 . S
H158 C157 0.959 . S
H159 C157 0.960 1_545 S
H160 C157 0.961 . S
O161 Co136 1.967 . S
O161 C169 1.258 . S
O162 Co137 1.941 . S
O162 C169 1.266 . S
H163 C165 0.959 . S
H164 C165 0.961 . S
C165 C155 1.510 1_545 S
C165 H163 0.959 . S
C165 H164 0.961 . S
C165 H166 0.960 1_545 S
H166 C165 0.960 1_565 S
H167 N147 0.862 . S
O168 Co136 1.920 . S
O168 C141 1.289 . S
C169 O161 1.258 . S
C169 O162 1.266 . S
Co170 O173 1.970 . S
Co170 N187 1.989 . S
Co170 O195 1.967 . S
Co170 O202 1.920 . S
Co171 O174 1.966 . S
Co171 N180 2.022 . S
Co171 N188 1.993 . S
Co171 O196 1.941 . S
C172 O173 1.258 . S
C172 O174 1.263 . S
O173 Co170 1.970 . S
O173 C172 1.258 . S
O174 Co171 1.966 . S
O174 C172 1.263 . S
C175 O176 1.235 . S
C175 O202 1.289 . S
O176 C175 1.235 . S
C177 C179 1.400 . S
C177 N180 1.351 . S
C177 C182 1.501 . S
C178 C179 1.387 . S
C178 N181 1.341 . S
C179 C177 1.400 . S
C179 C178 1.387 . S
N180 Co171 2.022 . S
N180 C177 1.351 . S
N180 N181 1.365 . S
N181 C178 1.341 . S
N181 N180 1.365 . S
N181 H201 0.862 . S
C182 C177 1.501 . S
C182 H183 0.961 . S
C182 H184 0.961 . S
C182 H185 0.960 . S
H183 C182 0.961 . S
H184 C182 0.961 . S
H185 C182 0.960 . S
C186 N187 1.342 . S
C186 C190 1.401 . S
C186 C191 1.499 . S
N187 Co170 1.989 . S
N187 C186 1.342 . S
N187 N188 1.388 . S
N188 Co171 1.993 . S
N188 N187 1.388 . S
N188 C189 1.346 . S
C189 N188 1.346 . S
C189 C190 1.396 . S
C189 C199 1.510 . S
C190 C186 1.401 . S
C190 C189 1.396 . S
C191 C186 1.499 . S
C191 H192 0.959 . S
C191 H193 0.960 . S
C191 H194 0.961 . S
H192 C191 0.959 . S
H193 C191 0.960 . S
H194 C191 0.961 . S
O195 Co170 1.967 . S
O195 C203 1.258 . S
O196 Co171 1.941 . S
O196 C203 1.266 . S
H197 C199 0.959 . S
H198 C199 0.961 . S
C199 C189 1.510 . S
C199 H197 0.959 . S
C199 H198 0.961 . S
C199 H200 0.960 . S
H200 C199 0.960 . S
H201 N181 0.862 . S
O202 Co170 1.920 . S
O202 C175 1.289 . S
C203 O195 1.258 . S
C203 O196 1.266 . S
Co204 O207 1.970 . S
Co204 N221 1.989 . S
Co204 O229 1.967 . S
Co204 O236 1.920 . S
Co205 O208 1.966 . S
Co205 N214 2.022 . S
Co205 N222 1.993 . S
Co205 O230 1.941 . S
C206 O207 1.258 . S
C206 O208 1.263 . S
O207 Co204 1.970 . S
O207 C206 1.258 . S
O208 Co205 1.966 . S
O208 C206 1.263 . S
C209 O210 1.235 . S
C209 O236 1.289 . S
O210 C209 1.235 . S
C211 C213 1.400 . S
C211 N214 1.351 . S
C211 C216 1.501 . S
C212 C213 1.387 . S
C212 N215 1.341 . S
C213 C211 1.400 . S
C213 C212 1.387 . S
N214 Co205 2.022 . S
N214 C211 1.351 . S
N214 N215 1.365 . S
N215 C212 1.341 . S
N215 N214 1.365 . S
N215 H235 0.862 . S
C216 C211 1.501 . S
C216 H217 0.961 . S
C216 H218 0.961 . S
C216 H219 0.960 . S
H217 C216 0.961 . S
H218 C216 0.961 . S
H219 C216 0.960 . S
C220 N221 1.342 . S
C220 C224 1.401 . S
C220 C225 1.499 . S
N221 Co204 1.989 . S
N221 C220 1.342 . S
N221 N222 1.388 . S
N222 Co205 1.993 . S
N222 N221 1.388 . S
N222 C223 1.346 . S
C223 N222 1.346 . S
C223 C224 1.396 . S
C223 C233 1.510 . S
C224 C220 1.401 . S
C224 C223 1.396 . S
C225 C220 1.499 . S
C225 H226 0.959 . S
C225 H227 0.960 1_545 S
C225 H228 0.961 . S
H226 C225 0.959 . S
H227 C225 0.960 1_565 S
H228 C225 0.961 . S
O229 Co204 1.967 . S
O229 C237 1.258 . S
O230 Co205 1.941 . S
O230 C237 1.266 . S
H231 C233 0.959 . S
H232 C233 0.961 1_565 S
C233 C223 1.510 . S
C233 H231 0.959 . S
C233 H232 0.961 1_545 S
C233 H234 0.960 . S
H234 C233 0.960 . S
H235 N215 0.862 . S
O236 Co204 1.920 . S
O236 C209 1.289 . S
C237 O229 1.258 . S
C237 O230 1.266 . S
Co238 O241 1.970 . S
Co238 N255 1.989 . S
Co238 O263 1.967 . S
Co238 O270 1.920 . S
Co239 O242 1.966 . S
Co239 N248 2.022 . S
Co239 N256 1.993 . S
Co239 O264 1.941 . S
C240 O241 1.258 . S
C240 O242 1.263 . S
O241 Co238 1.970 . S
O241 C240 1.258 . S
O242 Co239 1.966 . S
O242 C240 1.263 . S
C243 O244 1.235 . S
C243 O270 1.289 . S
O244 C243 1.235 . S
C245 C247 1.400 . S
C245 N248 1.351 . S
C245 C250 1.501 . S
C246 C247 1.387 . S
C246 N249 1.341 . S
C247 C245 1.400 . S
C247 C246 1.387 . S
N248 Co239 2.022 . S
N248 C245 1.351 . S
N248 N249 1.365 . S
N249 C246 1.341 . S
N249 N248 1.365 . S
N249 H269 0.862 . S
C250 C245 1.501 . S
C250 H251 0.961 . S
C250 H252 0.961 . S
C250 H253 0.960 . S
H251 C250 0.961 . S
H252 C250 0.961 . S
H253 C250 0.960 . S
C254 N255 1.342 . S
C254 C258 1.401 . S
C254 C259 1.499 . S
N255 Co238 1.989 . S
N255 C254 1.342 . S
N255 N256 1.388 . S
N256 Co239 1.993 . S
N256 N255 1.388 . S
N256 C257 1.346 . S
C257 N256 1.346 . S
C257 C258 1.396 . S
C257 C267 1.510 . S
C258 C254 1.401 . S
C258 C257 1.396 . S
C259 C254 1.499 . S
C259 H260 0.959 . S
C259 H261 0.960 . S
C259 H262 0.961 . S
H260 C259 0.959 . S
H261 C259 0.960 . S
H262 C259 0.961 . S
O263 Co238 1.967 . S
O263 C271 1.258 . S
O264 Co239 1.941 . S
O264 C271 1.266 . S
H265 C267 0.959 . S
H266 C267 0.961 . S
C267 C257 1.510 . S
C267 H265 0.959 . S
C267 H266 0.961 . S
C267 H268 0.960 . S
H268 C267 0.960 . S
H269 N249 0.862 . S
O270 Co238 1.920 . S
O270 C243 1.289 . S
C271 O263 1.258 . S
C271 O264 1.266 . S
Co272 O275 1.970 . S
Co272 N289 1.989 . S
Co272 O297 1.967 . S
Co272 O304 1.920 . S
Co273 O276 1.966 . S
Co273 N282 2.022 . S
Co273 N290 1.993 . S
Co273 O298 1.941 . S
C274 O275 1.258 . S
C274 O276 1.263 . S
O275 Co272 1.970 . S
O275 C274 1.258 . S
O276 Co273 1.966 . S
O276 C274 1.263 . S
C277 O278 1.235 . S
C277 O304 1.289 . S
O278 C277 1.235 . S
C279 C281 1.400 . S
C279 N282 1.351 . S
C279 C284 1.501 . S
C280 C281 1.387 . S
C280 N283 1.341 . S
C281 C279 1.400 . S
C281 C280 1.387 . S
N282 Co273 2.022 . S
N282 C279 1.351 . S
N282 N283 1.365 . S
N283 C280 1.341 . S
N283 N282 1.365 . S
N283 H303 0.862 . S
C284 C279 1.501 . S
C284 H285 0.961 . S
C284 H286 0.961 . S
C284 H287 0.960 . S
H285 C284 0.961 . S
H286 C284 0.961 . S
H287 C284 0.960 . S
C288 N289 1.342 . S
C288 C292 1.401 . S
C288 C293 1.499 . S
N289 Co272 1.989 . S
N289 C288 1.342 . S
N289 N290 1.388 . S
N290 Co273 1.993 . S
N290 N289 1.388 . S
N290 C291 1.346 . S
C291 N290 1.346 . S
C291 C292 1.396 . S
C291 C301 1.510 . S
C292 C288 1.401 . S
C292 C291 1.396 . S
C293 C288 1.499 . S
C293 H294 0.959 . S
C293 H295 0.960 . S
C293 H296 0.961 . S
H294 C293 0.959 . S
H295 C293 0.960 . S
H296 C293 0.961 . S
O297 Co272 1.967 . S
O297 C305 1.258 . S
O298 Co273 1.941 . S
O298 C305 1.266 . S
H299 C301 0.959 . S
H300 C301 0.961 . S
C301 C291 1.510 . S
C301 H299 0.959 . S
C301 H300 0.961 . S
C301 H302 0.960 . S
H302 C301 0.960 . S
H303 N283 0.862 . S
O304 Co272 1.920 . S
O304 C277 1.289 . S
C305 O297 1.258 . S
C305 O298 1.266 . S
Co306 O309 1.970 . S
Co306 N323 1.989 . S
Co306 O331 1.967 . S
Co306 O338 1.920 . S
Co307 O310 1.966 . S
Co307 N316 2.022 . S
Co307 N324 1.993 . S
Co307 O332 1.941 . S
C308 O309 1.258 . S
C308 O310 1.263 . S
O309 Co306 1.970 . S
O309 C308 1.258 . S
O310 Co307 1.966 . S
O310 C308 1.263 . S
C311 O312 1.235 . S
C311 O338 1.289 . S
O312 C311 1.235 . S
C313 C315 1.400 . S
C313 N316 1.351 . S
C313 C318 1.501 . S
C314 C315 1.387 . S
C314 N317 1.341 . S
C315 C313 1.400 . S
C315 C314 1.387 . S
N316 Co307 2.022 . S
N316 C313 1.351 . S
N316 N317 1.365 . S
N317 C314 1.341 . S
N317 N316 1.365 . S
N317 H337 0.862 . S
C318 C313 1.501 . S
C318 H319 0.961 . S
C318 H320 0.961 . S
C318 H321 0.960 . S
H319 C318 0.961 . S
H320 C318 0.961 . S
H321 C318 0.960 . S
C322 N323 1.342 . S
C322 C326 1.401 1_565 S
C322 C327 1.499 . S
N323 Co306 1.989 . S
N323 C322 1.342 . S
N323 N324 1.388 . S
N324 Co307 1.993 . S
N324 N323 1.388 . S
N324 C325 1.346 . S
C325 N324 1.346 . S
C325 C326 1.396 1_565 S
C325 C335 1.510 . S
C326 C322 1.401 1_545 S
C326 C325 1.396 1_545 S
C327 C322 1.499 . S
C327 H328 0.959 . S
C327 H329 0.960 1_565 S
C327 H330 0.961 1_565 S
H328 C327 0.959 . S
H329 C327 0.960 1_545 S
H330 C327 0.961 1_545 S
O331 Co306 1.967 . S
O331 C339 1.258 . S
O332 Co307 1.941 . S
O332 C339 1.266 . S
H333 C335 0.959 1_545 S
H334 C335 0.961 . S
C335 C325 1.510 . S
C335 H333 0.959 1_565 S
C335 H334 0.961 . S
C335 H336 0.960 . S
H336 C335 0.960 . S
H337 N317 0.862 . S
O338 Co306 1.920 . S
O338 C311 1.289 . S
C339 O331 1.258 . S
C339 O332 1.266 . S
Co340 O343 1.970 . S
Co340 N357 1.989 . S
Co340 O365 1.967 . S
Co340 O372 1.920 . S
Co341 O344 1.966 . S
Co341 N350 2.022 . S
Co341 N358 1.993 . S
Co341 O366 1.941 . S
C342 O343 1.258 . S
C342 O344 1.263 . S
O343 Co340 1.970 . S
O343 C342 1.258 . S
O344 Co341 1.966 . S
O344 C342 1.263 . S
C345 O346 1.235 . S
C345 O372 1.289 . S
O346 C345 1.235 . S
C347 C349 1.400 . S
C347 N350 1.351 . S
C347 C352 1.501 . S
C348 C349 1.387 . S
C348 N351 1.341 . S
C349 C347 1.400 . S
C349 C348 1.387 . S
N350 Co341 2.022 . S
N350 C347 1.351 . S
N350 N351 1.365 . S
N351 C348 1.341 . S
N351 N350 1.365 . S
N351 H371 0.862 . S
C352 C347 1.501 . S
C352 H353 0.961 . S
C352 H354 0.961 . S
C352 H355 0.960 . S
H353 C352 0.961 . S
H354 C352 0.961 . S
H355 C352 0.960 . S
C356 N357 1.342 . S
C356 C360 1.401 . S
C356 C361 1.499 . S
N357 Co340 1.989 . S
N357 C356 1.342 . S
N357 N358 1.388 . S
N358 Co341 1.993 . S
N358 N357 1.388 . S
N358 C359 1.346 . S
C359 N358 1.346 . S
C359 C360 1.396 . S
C359 C369 1.510 . S
C360 C356 1.401 . S
C360 C359 1.396 . S
C361 C356 1.499 . S
C361 H362 0.959 . S
C361 H363 0.960 . S
C361 H364 0.961 . S
H362 C361 0.959 . S
H363 C361 0.960 . S
H364 C361 0.961 . S
O365 Co340 1.967 . S
O365 C373 1.258 . S
O366 Co341 1.941 . S
O366 C373 1.266 . S
H367 C369 0.959 . S
H368 C369 0.961 . S
C369 C359 1.510 . S
C369 H367 0.959 . S
C369 H368 0.961 . S
C369 H370 0.960 . S
H370 C369 0.960 . S
H371 N351 0.862 . S
O372 Co340 1.920 . S
O372 C345 1.289 . S
C373 O365 1.258 . S
C373 O366 1.266 . S
Co374 O377 1.970 . S
Co374 N391 1.989 . S
Co374 O399 1.967 . S
Co374 O406 1.920 . S
Co375 O378 1.966 . S
Co375 N384 2.022 . S
Co375 N392 1.993 . S
Co375 O400 1.941 . S
C376 O377 1.258 . S
C376 O378 1.263 . S
O377 Co374 1.970 . S
O377 C376 1.258 . S
O378 Co375 1.966 . S
O378 C376 1.263 . S
C379 O380 1.235 . S
C379 O406 1.289 . S
O380 C379 1.235 . S
C381 C383 1.400 . S
C381 N384 1.351 . S
C381 C386 1.501 . S
C382 C383 1.387 . S
C382 N385 1.341 . S
C383 C381 1.400 . S
C383 C382 1.387 . S
N384 Co375 2.022 . S
N384 C381 1.351 . S
N384 N385 1.365 . S
N385 C382 1.341 . S
N385 N384 1.365 . S
N385 H405 0.862 . S
C386 C381 1.501 . S
C386 H387 0.961 . S
C386 H388 0.961 . S
C386 H389 0.960 . S
H387 C386 0.961 . S
H388 C386 0.961 . S
H389 C386 0.960 . S
C390 N391 1.342 1_565 S
C390 C394 1.401 . S
C390 C395 1.499 . S
N391 Co374 1.989 . S
N391 C390 1.342 1_545 S
N391 N392 1.388 . S
N392 Co375 1.993 . S
N392 N391 1.388 . S
N392 C393 1.346 1_545 S
C393 N392 1.346 1_565 S
C393 C394 1.396 . S
C393 C403 1.510 . S
C394 C390 1.401 . S
C394 C393 1.396 . S
C395 C390 1.499 . S
C395 H396 0.959 1_565 S
C395 H397 0.960 . S
C395 H398 0.961 . S
H396 C395 0.959 1_545 S
H397 C395 0.960 . S
H398 C395 0.961 . S
O399 Co374 1.967 . S
O399 C407 1.258 . S
O400 Co375 1.941 . S
O400 C407 1.266 . S
H401 C403 0.959 . S
H402 C403 0.961 . S
C403 C393 1.510 . S
C403 H401 0.959 . S
C403 H402 0.961 . S
C403 H404 0.960 . S
H404 C403 0.960 . S
H405 N385 0.862 . S
O406 Co374 1.920 . S
O406 C379 1.289 . S
C407 O399 1.258 . S
C407 O400 1.266 . S
Co408 O411 1.970 . S
Co408 N425 1.989 . S
Co408 O433 1.967 . S
Co408 O440 1.920 . S
Co409 O412 1.966 . S
Co409 N418 2.022 . S
Co409 N426 1.993 . S
Co409 O434 1.941 . S
C410 O411 1.258 . S
C410 O412 1.263 . S
O411 Co408 1.970 . S
O411 C410 1.258 . S
O412 Co409 1.966 . S
O412 C410 1.263 . S
C413 O414 1.235 . S
C413 O440 1.289 . S
O414 C413 1.235 . S
C415 C417 1.400 . S
C415 N418 1.351 . S
C415 C420 1.501 . S
C416 C417 1.387 . S
C416 N419 1.341 . S
C417 C415 1.400 . S
C417 C416 1.387 . S
N418 Co409 2.022 . S
N418 C415 1.351 . S
N418 N419 1.365 . S
N419 C416 1.341 . S
N419 N418 1.365 . S
N419 H439 0.862 . S
C420 C415 1.501 . S
C420 H421 0.961 . S
C420 H422 0.961 . S
C420 H423 0.960 . S
H421 C420 0.961 . S
H422 C420 0.961 . S
H423 C420 0.960 . S
C424 N425 1.342 . S
C424 C428 1.401 . S
C424 C429 1.499 . S
N425 Co408 1.989 . S
N425 C424 1.342 . S
N425 N426 1.388 . S
N426 Co409 1.993 . S
N426 N425 1.388 . S
N426 C427 1.346 . S
C427 N426 1.346 . S
C427 C428 1.396 . S
C427 C437 1.510 . S
C428 C424 1.401 . S
C428 C427 1.396 . S
C429 C424 1.499 . S
C429 H430 0.959 . S
C429 H431 0.960 . S
C429 H432 0.961 . S
H430 C429 0.959 . S
H431 C429 0.960 . S
H432 C429 0.961 . S
O433 Co408 1.967 . S
O433 C441 1.258 . S
O434 Co409 1.941 . S
O434 C441 1.266 . S
H435 C437 0.959 . S
H436 C437 0.961 . S
C437 C427 1.510 . S
C437 H435 0.959 . S
C437 H436 0.961 . S
C437 H438 0.960 . S
H438 C437 0.960 . S
H439 N419 0.862 . S
O440 Co408 1.920 . S
O440 C413 1.289 . S
C441 O433 1.258 . S
C441 O434 1.266 . S
Co442 O445 1.970 . S
Co442 N459 1.989 . S
Co442 O467 1.967 . S
Co442 O474 1.920 . S
Co443 O446 1.966 . S
Co443 N452 2.022 . S
Co443 N460 1.993 . S
Co443 O468 1.941 . S
C444 O445 1.258 . S
C444 O446 1.263 . S
O445 Co442 1.970 . S
O445 C444 1.258 . S
O446 Co443 1.966 . S
O446 C444 1.263 . S
C447 O448 1.235 . S
C447 O474 1.289 . S
O448 C447 1.235 . S
C449 C451 1.400 . S
C449 N452 1.351 . S
C449 C454 1.501 . S
C450 C451 1.387 . S
C450 N453 1.341 . S
C451 C449 1.400 . S
C451 C450 1.387 . S
N452 Co443 2.022 . S
N452 C449 1.351 . S
N452 N453 1.365 . S
N453 C450 1.341 . S
N453 N452 1.365 . S
N453 H473 0.862 . S
C454 C449 1.501 . S
C454 H455 0.961 . S
C454 H456 0.961 . S
C454 H457 0.960 . S
H455 C454 0.961 . S
H456 C454 0.961 . S
H457 C454 0.960 . S
C458 N459 1.342 . S
C458 C462 1.401 1_545 S
C458 C463 1.499 . S
N459 Co442 1.989 . S
N459 C458 1.342 . S
N459 N460 1.388 . S
N460 Co443 1.993 . S
N460 N459 1.388 . S
N460 C461 1.346 . S
C461 N460 1.346 . S
C461 C462 1.396 1_545 S
C461 C471 1.510 1_545 S
C462 C458 1.401 1_565 S
C462 C461 1.396 1_565 S
C463 C458 1.499 . S
C463 H464 0.959 . S
C463 H465 0.960 1_545 S
C463 H466 0.961 . S
H464 C463 0.959 . S
H465 C463 0.960 1_565 S
H466 C463 0.961 . S
O467 Co442 1.967 . S
O467 C475 1.258 . S
O468 Co443 1.941 . S
O468 C475 1.266 . S
H469 C471 0.959 . S
H470 C471 0.961 . S
C471 C461 1.510 1_565 S
C471 H469 0.959 . S
C471 H470 0.961 . S
C471 H472 0.960 1_565 S
H472 C471 0.960 1_545 S
H473 N453 0.862 . S
O474 Co442 1.920 . S
O474 C447 1.289 . S
C475 O467 1.258 . S
C475 O468 1.266 . S
Co476 O479 1.970 . S
Co476 N493 1.989 . S
Co476 O501 1.967 . S
Co476 O508 1.920 . S
Co477 O480 1.966 . S
Co477 N486 2.022 . S
Co477 N494 1.993 . S
Co477 O502 1.941 . S
C478 O479 1.258 . S
C478 O480 1.263 . S
O479 Co476 1.970 . S
O479 C478 1.258 . S
O480 Co477 1.966 . S
O480 C478 1.263 . S
C481 O482 1.235 . S
C481 O508 1.289 . S
O482 C481 1.235 . S
C483 C485 1.400 . S
C483 N486 1.351 . S
C483 C488 1.501 . S
C484 C485 1.387 . S
C484 N487 1.341 . S
C485 C483 1.400 . S
C485 C484 1.387 . S
N486 Co477 2.022 . S
N486 C483 1.351 . S
N486 N487 1.365 . S
N487 C484 1.341 . S
N487 N486 1.365 . S
N487 H507 0.862 . S
C488 C483 1.501 . S
C488 H489 0.961 . S
C488 H490 0.961 . S
C488 H491 0.960 . S
H489 C488 0.961 . S
H490 C488 0.961 . S
H491 C488 0.960 . S
C492 N493 1.342 . S
C492 C496 1.401 . S
C492 C497 1.499 . S
N493 Co476 1.989 . S
N493 C492 1.342 . S
N493 N494 1.388 . S
N494 Co477 1.993 . S
N494 N493 1.388 . S
N494 C495 1.346 . S
C495 N494 1.346 . S
C495 C496 1.396 . S
C495 C505 1.510 . S
C496 C492 1.401 . S
C496 C495 1.396 . S
C497 C492 1.499 . S
C497 H498 0.959 . S
C497 H499 0.960 . S
C497 H500 0.961 . S
H498 C497 0.959 . S
H499 C497 0.960 . S
H500 C497 0.961 . S
O501 Co476 1.967 . S
O501 C509 1.258 . S
O502 Co477 1.941 . S
O502 C509 1.266 . S
H503 C505 0.959 . S
H504 C505 0.961 . S
C505 C495 1.510 . S
C505 H503 0.959 . S
C505 H504 0.961 . S
C505 H506 0.960 . S
H506 C505 0.960 . S
H507 N487 0.862 . S
O508 Co476 1.920 . S
O508 C481 1.289 . S
C509 O501 1.258 . S
C509 O502 1.266 . S
Co510 O513 1.970 . S
Co510 N527 1.989 . S
Co510 O535 1.967 . S
Co510 O542 1.920 . S
Co511 O514 1.966 . S
Co511 N520 2.022 . S
Co511 N528 1.993 . S
Co511 O536 1.941 . S
C512 O513 1.258 . S
C512 O514 1.263 . S
O513 Co510 1.970 . S
O513 C512 1.258 . S
O514 Co511 1.966 . S
O514 C512 1.263 . S
C515 O516 1.235 . S
C515 O542 1.289 . S
O516 C515 1.235 . S
C517 C519 1.400 . S
C517 N520 1.351 . S
C517 C522 1.501 . S
C518 C519 1.387 . S
C518 N521 1.341 . S
C519 C517 1.400 . S
C519 C518 1.387 . S
N520 Co511 2.022 . S
N520 C517 1.351 . S
N520 N521 1.365 . S
N521 C518 1.341 . S
N521 N520 1.365 . S
N521 H541 0.862 . S
C522 C517 1.501 . S
C522 H523 0.961 . S
C522 H524 0.961 . S
C522 H525 0.960 . S
H523 C522 0.961 . S
H524 C522 0.961 . S
H525 C522 0.960 . S
C526 N527 1.342 . S
C526 C530 1.401 . S
C526 C531 1.499 . S
N527 Co510 1.989 . S
N527 C526 1.342 . S
N527 N528 1.388 . S
N528 Co511 1.993 . S
N528 N527 1.388 . S
N528 C529 1.346 . S
C529 N528 1.346 . S
C529 C530 1.396 . S
C529 C539 1.510 . S
C530 C526 1.401 . S
C530 C529 1.396 . S
C531 C526 1.499 . S
C531 H532 0.959 . S
C531 H533 0.960 1_565 S
C531 H534 0.961 . S
H532 C531 0.959 . S
H533 C531 0.960 1_545 S
H534 C531 0.961 . S
O535 Co510 1.967 . S
O535 C543 1.258 . S
O536 Co511 1.941 . S
O536 C543 1.266 . S
H537 C539 0.959 . S
H538 C539 0.961 1_545 S
C539 C529 1.510 . S
C539 H537 0.959 . S
C539 H538 0.961 1_565 S
C539 H540 0.960 . S
H540 C539 0.960 . S
H541 N521 0.862 . S
O542 Co510 1.920 . S
O542 C515 1.289 . S
C543 O535 1.258 . S
C543 O536 1.266 . S
C544 C545 1.349 . S
C544 C546 1.327 . S
C544 H569 0.950 . S
C545 C544 1.349 . S
C545 C561 1.349 . S
C546 C544 1.327 . S
C546 C565 1.429 . S
C546 H570 0.950 . S
C547 C564 1.574 . S
C547 C566 1.368 . S
C547 H571 0.949 . S
H548 C552 0.949 . S
C549 C550 1.349 . S
C549 C551 1.327 . S
C549 H572 0.950 . S
C550 C549 1.349 . S
C550 C562 1.349 . S
C551 C549 1.327 . S
C551 C567 1.429 . S
C551 H573 0.950 . S
C552 H548 0.949 . S
C552 C560 1.574 . S
C552 C568 1.368 . S
H553 C561 0.950 . S
H554 C559 0.950 . S
H555 C560 0.949 . S
H556 C562 0.950 . S
H557 C563 0.950 . S
H558 C564 0.949 . S
C559 H554 0.950 . S
C559 C561 1.327 . S
C559 C565 1.429 . S
C560 C552 1.574 . S
C560 H555 0.949 . S
C560 C566 1.368 . S
C561 C545 1.349 . S
C561 H553 0.950 . S
C561 C559 1.327 . S
C562 C550 1.349 . S
C562 H556 0.950 . S
C562 C563 1.327 . S
C563 H557 0.950 . S
C563 C562 1.327 . S
C563 C567 1.429 . S
C564 C547 1.574 . S
C564 H558 0.949 . S
C564 C568 1.368 . S
C565 C546 1.429 . S
C565 C559 1.429 . S
C565 C566 1.523 . S
C566 C547 1.368 . S
C566 C560 1.368 . S
C566 C565 1.523 . S
C567 C551 1.429 . S
C567 C563 1.429 . S
C567 C568 1.523 . S
C568 C552 1.368 . S
C568 C564 1.368 . S
C568 C567 1.523 . S
H569 C544 0.950 . S
H570 C546 0.950 . S
H571 C547 0.949 . S
H572 C549 0.950 . S
H573 C551 0.950 . S
C574 C575 1.349 . S
C574 C576 1.327 . S
C574 H599 0.950 . S
C575 C574 1.349 . S
C575 C591 1.349 . S
C576 C574 1.327 . S
C576 C595 1.429 . S
C576 H600 0.950 . S
C577 C594 1.574 . S
C577 C596 1.368 . S
C577 H601 0.949 . S
H578 C582 0.949 . S
C579 C580 1.349 . S
C579 C581 1.327 . S
C579 H602 0.950 . S
C580 C579 1.349 . S
C580 C592 1.349 . S
C581 C579 1.327 . S
C581 C597 1.429 . S
C581 H603 0.950 . S
C582 H578 0.949 . S
C582 C590 1.574 . S
C582 C598 1.368 . S
H583 C591 0.950 . S
H584 C589 0.950 . S
H585 C590 0.949 . S
H586 C592 0.950 . S
H587 C593 0.950 . S
H588 C594 0.949 . S
C589 H584 0.950 . S
C589 C591 1.327 . S
C589 C595 1.429 . S
C590 C582 1.574 . S
C590 H585 0.949 . S
C590 C596 1.368 . S
C591 C575 1.349 . S
C591 H583 0.950 . S
C591 C589 1.327 . S
C592 C580 1.349 . S
C592 H586 0.950 . S
C592 C593 1.327 . S
C593 H587 0.950 . S
C593 C592 1.327 . S
C593 C597 1.429 . S
C594 C577 1.574 . S
C594 H588 0.949 . S
C594 C598 1.368 . S
C595 C576 1.429 . S
C595 C589 1.429 . S
C595 C596 1.523 . S
C596 C577 1.368 . S
C596 C590 1.368 . S
C596 C595 1.523 . S
C597 C581 1.429 . S
C597 C593 1.429 . S
C597 C598 1.523 . S
C598 C582 1.368 . S
C598 C594 1.368 . S
C598 C597 1.523 . S
H599 C574 0.950 . S
H600 C576 0.950 . S
H601 C577 0.949 . S
H602 C579 0.950 . S
H603 C581 0.950 . S
C604 C605 1.349 . S
C604 C606 1.327 . S
C604 H629 0.950 . S
C605 C604 1.349 . S
C605 C621 1.349 . S
C606 C604 1.327 . S
C606 C625 1.429 . S
C606 H630 0.950 . S
C607 C624 1.574 . S
C607 C626 1.368 . S
C607 H631 0.949 . S
H608 C612 0.949 . S
C609 C610 1.349 . S
C609 C611 1.327 . S
C609 H632 0.950 . S
C610 C609 1.349 . S
C610 C622 1.349 . S
C611 C609 1.327 . S
C611 C627 1.429 . S
C611 H633 0.950 . S
C612 H608 0.949 . S
C612 C620 1.574 . S
C612 C628 1.368 . S
H613 C621 0.950 . S
H614 C619 0.950 . S
H615 C620 0.949 . S
H616 C622 0.950 . S
H617 C623 0.950 . S
H618 C624 0.949 . S
C619 H614 0.950 . S
C619 C621 1.327 . S
C619 C625 1.429 . S
C620 C612 1.574 . S
C620 H615 0.949 . S
C620 C626 1.368 . S
C621 C605 1.349 . S
C621 H613 0.950 . S
C621 C619 1.327 . S
C622 C610 1.349 . S
C622 H616 0.950 . S
C622 C623 1.327 . S
C623 H617 0.950 . S
C623 C622 1.327 . S
C623 C627 1.429 . S
C624 C607 1.574 . S
C624 H618 0.949 . S
C624 C628 1.368 . S
C625 C606 1.429 . S
C625 C619 1.429 . S
C625 C626 1.523 . S
C626 C607 1.368 . S
C626 C620 1.368 . S
C626 C625 1.523 . S
C627 C611 1.429 . S
C627 C623 1.429 . S
C627 C628 1.523 . S
C628 C612 1.368 . S
C628 C624 1.368 . S
C628 C627 1.523 . S
H629 C604 0.950 . S
H630 C606 0.950 . S
H631 C607 0.949 . S
H632 C609 0.950 . S
H633 C611 0.950 . S
C634 C635 1.349 . S
C634 C636 1.327 . S
C634 H659 0.950 . S
C635 C634 1.349 . S
C635 C651 1.349 . S
C636 C634 1.327 . S
C636 C655 1.429 . S
C636 H660 0.950 . S
C637 C654 1.574 . S
C637 C656 1.368 . S
C637 H661 0.949 . S
H638 C642 0.949 . S
C639 C640 1.349 . S
C639 C641 1.327 . S
C639 H662 0.950 . S
C640 C639 1.349 . S
C640 C652 1.349 . S
C641 C639 1.327 . S
C641 C657 1.429 . S
C641 H663 0.950 . S
C642 H638 0.949 . S
C642 C650 1.574 . S
C642 C658 1.368 . S
H643 C651 0.950 . S
H644 C649 0.950 . S
H645 C650 0.949 . S
H646 C652 0.950 . S
H647 C653 0.950 . S
H648 C654 0.949 . S
C649 H644 0.950 . S
C649 C651 1.327 . S
C649 C655 1.429 . S
C650 C642 1.574 . S
C650 H645 0.949 . S
C650 C656 1.368 . S
C651 C635 1.349 . S
C651 H643 0.950 . S
C651 C649 1.327 . S
C652 C640 1.349 . S
C652 H646 0.950 . S
C652 C653 1.327 . S
C653 H647 0.950 . S
C653 C652 1.327 . S
C653 C657 1.429 . S
C654 C637 1.574 . S
C654 H648 0.949 . S
C654 C658 1.368 . S
C655 C636 1.429 . S
C655 C649 1.429 . S
C655 C656 1.523 . S
C656 C637 1.368 . S
C656 C650 1.368 . S
C656 C655 1.523 . S
C657 C641 1.429 . S
C657 C653 1.429 . S
C657 C658 1.523 . S
C658 C642 1.368 . S
C658 C654 1.368 . S
C658 C657 1.523 . S
H659 C634 0.950 . S
H660 C636 0.950 . S
H661 C637 0.949 . S
H662 C639 0.950 . S
H663 C641 0.950 . S
C664 C665 1.349 . S
C664 C666 1.327 . S
C664 H689 0.950 . S
C665 C664 1.349 . S
C665 C681 1.349 . S
C666 C664 1.327 . S
C666 C685 1.429 . S
C666 H690 0.950 . S
C667 C684 1.574 . S
C667 C686 1.368 . S
C667 H691 0.949 . S
H668 C672 0.949 . S
C669 C670 1.349 . S
C669 C671 1.327 . S
C669 H692 0.950 . S
C670 C669 1.349 . S
C670 C682 1.349 . S
C671 C669 1.327 . S
C671 C687 1.429 . S
C671 H693 0.950 . S
C672 H668 0.949 . S
C672 C680 1.574 . S
C672 C688 1.368 . S
H673 C681 0.950 . S
H674 C679 0.950 . S
H675 C680 0.949 . S
H676 C682 0.950 . S
H677 C683 0.950 . S
H678 C684 0.949 . S
C679 H674 0.950 . S
C679 C681 1.327 . S
C679 C685 1.429 . S
C680 C672 1.574 . S
C680 H675 0.949 . S
C680 C686 1.368 . S
C681 C665 1.349 . S
C681 H673 0.950 . S
C681 C679 1.327 . S
C682 C670 1.349 . S
C682 H676 0.950 . S
C682 C683 1.327 . S
C683 H677 0.950 . S
C683 C682 1.327 . S
C683 C687 1.429 . S
C684 C667 1.574 . S
C684 H678 0.949 . S
C684 C688 1.368 . S
C685 C666 1.429 . S
C685 C679 1.429 . S
C685 C686 1.523 . S
C686 C667 1.368 . S
C686 C680 1.368 . S
C686 C685 1.523 . S
C687 C671 1.429 . S
C687 C683 1.429 . S
C687 C688 1.523 . S
C688 C672 1.368 . S
C688 C684 1.368 . S
C688 C687 1.523 . S
H689 C664 0.950 . S
H690 C666 0.950 . S
H691 C667 0.949 . S
H692 C669 0.950 . S
H693 C671 0.950 . S
C694 C695 1.349 . S
C694 C696 1.327 . S
C694 H719 0.950 . S
C695 C694 1.349 . S
C695 C711 1.349 . S
C696 C694 1.327 . S
C696 C715 1.429 . S
C696 H720 0.950 . S
C697 C714 1.574 . S
C697 C716 1.368 . S
C697 H721 0.949 . S
H698 C702 0.949 . S
C699 C700 1.349 . S
C699 C701 1.327 . S
C699 H722 0.950 . S
C700 C699 1.349 . S
C700 C712 1.349 . S
C701 C699 1.327 . S
C701 C717 1.429 . S
C701 H723 0.950 . S
C702 H698 0.949 . S
C702 C710 1.574 . S
C702 C718 1.368 . S
H703 C711 0.950 . S
H704 C709 0.950 . S
H705 C710 0.949 . S
H706 C712 0.950 . S
H707 C713 0.950 . S
H708 C714 0.949 . S
C709 H704 0.950 . S
C709 C711 1.327 . S
C709 C715 1.429 . S
C710 C702 1.574 . S
C710 H705 0.949 . S
C710 C716 1.368 . S
C711 C695 1.349 . S
C711 H703 0.950 . S
C711 C709 1.327 . S
C712 C700 1.349 . S
C712 H706 0.950 . S
C712 C713 1.327 . S
C713 H707 0.950 . S
C713 C712 1.327 . S
C713 C717 1.429 . S
C714 C697 1.574 . S
C714 H708 0.949 . S
C714 C718 1.368 . S
C715 C696 1.429 . S
C715 C709 1.429 . S
C715 C716 1.523 . S
C716 C697 1.368 . S
C716 C710 1.368 . S
C716 C715 1.523 . S
C717 C701 1.429 . S
C717 C713 1.429 . S
C717 C718 1.523 . S
C718 C702 1.368 . S
C718 C714 1.368 . S
C718 C717 1.523 . S
H719 C694 0.950 . S
H720 C696 0.950 . S
H721 C697 0.949 . S
H722 C699 0.950 . S
H723 C701 0.950 . S
C724 C725 1.349 . S
C724 C726 1.327 . S
C724 H749 0.950 . S
C725 C724 1.349 . S
C725 C741 1.349 . S
C726 C724 1.327 . S
C726 C745 1.429 . S
C726 H750 0.950 . S
C727 C744 1.574 . S
C727 C746 1.368 . S
C727 H751 0.949 . S
H728 C732 0.949 . S
C729 C730 1.349 . S
C729 C731 1.327 . S
C729 H752 0.950 . S
C730 C729 1.349 . S
C730 C742 1.349 . S
C731 C729 1.327 . S
C731 C747 1.429 . S
C731 H753 0.950 . S
C732 H728 0.949 . S
C732 C740 1.574 . S
C732 C748 1.368 . S
H733 C741 0.950 . S
H734 C739 0.950 . S
H735 C740 0.949 . S
H736 C742 0.950 . S
H737 C743 0.950 . S
H738 C744 0.949 . S
C739 H734 0.950 . S
C739 C741 1.327 . S
C739 C745 1.429 . S
C740 C732 1.574 . S
C740 H735 0.949 . S
C740 C746 1.368 . S
C741 C725 1.349 . S
C741 H733 0.950 . S
C741 C739 1.327 . S
C742 C730 1.349 . S
C742 H736 0.950 . S
C742 C743 1.327 . S
C743 H737 0.950 . S
C743 C742 1.327 . S
C743 C747 1.429 . S
C744 C727 1.574 . S
C744 H738 0.949 . S
C744 C748 1.368 . S
C745 C726 1.429 . S
C745 C739 1.429 . S
C745 C746 1.523 . S
C746 C727 1.368 . S
C746 C740 1.368 . S
C746 C745 1.523 . S
C747 C731 1.429 . S
C747 C743 1.429 . S
C747 C748 1.523 . S
C748 C732 1.368 . S
C748 C744 1.368 . S
C748 C747 1.523 . S
H749 C724 0.950 . S
H750 C726 0.950 . S
H751 C727 0.949 . S
H752 C729 0.950 . S
H753 C731 0.950 . S
C754 C755 1.349 . S
C754 C756 1.327 . S
C754 H779 0.950 . S
C755 C754 1.349 . S
C755 C771 1.349 . S
C756 C754 1.327 . S
C756 C775 1.429 . S
C756 H780 0.950 . S
C757 C774 1.574 . S
C757 C776 1.368 . S
C757 H781 0.949 . S
H758 C762 0.949 . S
C759 C760 1.349 . S
C759 C761 1.327 . S
C759 H782 0.950 . S
C760 C759 1.349 . S
C760 C772 1.349 . S
C761 C759 1.327 . S
C761 C777 1.429 . S
C761 H783 0.950 . S
C762 H758 0.949 . S
C762 C770 1.574 . S
C762 C778 1.368 . S
H763 C771 0.950 . S
H764 C769 0.950 . S
H765 C770 0.949 . S
H766 C772 0.950 . S
H767 C773 0.950 . S
H768 C774 0.949 . S
C769 H764 0.950 . S
C769 C771 1.327 . S
C769 C775 1.429 . S
C770 C762 1.574 . S
C770 H765 0.949 . S
C770 C776 1.368 . S
C771 C755 1.349 . S
C771 H763 0.950 . S
C771 C769 1.327 . S
C772 C760 1.349 . S
C772 H766 0.950 . S
C772 C773 1.327 . S
C773 H767 0.950 . S
C773 C772 1.327 . S
C773 C777 1.429 . S
C774 C757 1.574 . S
C774 H768 0.949 . S
C774 C778 1.368 . S
C775 C756 1.429 . S
C775 C769 1.429 . S
C775 C776 1.523 . S
C776 C757 1.368 . S
C776 C770 1.368 . S
C776 C775 1.523 . S
C777 C761 1.429 . S
C777 C773 1.429 . S
C777 C778 1.523 . S
C778 C762 1.368 . S
C778 C774 1.368 . S
C778 C777 1.523 . S
H779 C754 0.950 . S
H780 C756 0.950 . S
H781 C757 0.949 . S
H782 C759 0.950 . S
H783 C761 0.950 . S
C784 C785 1.349 . S
C784 C786 1.327 . S
C784 H809 0.950 . S
C785 C784 1.349 . S
C785 C801 1.349 . S
C786 C784 1.327 . S
C786 C805 1.429 . S
C786 H810 0.950 . S
C787 C804 1.574 . S
C787 C806 1.368 . S
C787 H811 0.949 . S
H788 C792 0.949 . S
C789 C790 1.349 . S
C789 C791 1.327 . S
C789 H812 0.950 . S
C790 C789 1.349 . S
C790 C802 1.349 . S
C791 C789 1.327 . S
C791 C807 1.429 . S
C791 H813 0.950 . S
C792 H788 0.949 . S
C792 C800 1.574 . S
C792 C808 1.368 . S
H793 C801 0.950 . S
H794 C799 0.950 . S
H795 C800 0.949 . S
H796 C802 0.950 . S
H797 C803 0.950 . S
H798 C804 0.949 . S
C799 H794 0.950 . S
C799 C801 1.327 . S
C799 C805 1.429 . S
C800 C792 1.574 . S
C800 H795 0.949 . S
C800 C806 1.368 . S
C801 C785 1.349 . S
C801 H793 0.950 . S
C801 C799 1.327 . S
C802 C790 1.349 . S
C802 H796 0.950 . S
C802 C803 1.327 . S
C803 H797 0.950 . S
C803 C802 1.327 . S
C803 C807 1.429 . S
C804 C787 1.574 . S
C804 H798 0.949 . S
C804 C808 1.368 . S
C805 C786 1.429 . S
C805 C799 1.429 . S
C805 C806 1.523 . S
C806 C787 1.368 . S
C806 C800 1.368 . S
C806 C805 1.523 . S
C807 C791 1.429 . S
C807 C803 1.429 . S
C807 C808 1.523 . S
C808 C792 1.368 . S
C808 C804 1.368 . S
C808 C807 1.523 . S
H809 C784 0.950 . S
H810 C786 0.950 . S
H811 C787 0.949 . S
H812 C789 0.950 . S
H813 C791 0.950 . S
C814 C815 1.349 . S
C814 C816 1.327 . S
C814 H839 0.950 . S
C815 C814 1.349 . S
C815 C831 1.349 . S
C816 C814 1.327 . S
C816 C835 1.429 . S
C816 H840 0.950 . S
C817 C834 1.574 . S
C817 C836 1.368 . S
C817 H841 0.949 . S
H818 C822 0.949 . S
C819 C820 1.349 . S
C819 C821 1.327 . S
C819 H842 0.950 . S
C820 C819 1.349 . S
C820 C832 1.349 . S
C821 C819 1.327 . S
C821 C837 1.429 . S
C821 H843 0.950 . S
C822 H818 0.949 . S
C822 C830 1.574 . S
C822 C838 1.368 . S
H823 C831 0.950 . S
H824 C829 0.950 . S
H825 C830 0.949 . S
H826 C832 0.950 . S
H827 C833 0.950 . S
H828 C834 0.949 . S
C829 H824 0.950 . S
C829 C831 1.327 . S
C829 C835 1.429 . S
C830 C822 1.574 . S
C830 H825 0.949 . S
C830 C836 1.368 . S
C831 C815 1.349 . S
C831 H823 0.950 . S
C831 C829 1.327 . S
C832 C820 1.349 . S
C832 H826 0.950 . S
C832 C833 1.327 . S
C833 H827 0.950 . S
C833 C832 1.327 . S
C833 C837 1.429 . S
C834 C817 1.574 . S
C834 H828 0.949 . S
C834 C838 1.368 . S
C835 C816 1.429 . S
C835 C829 1.429 . S
C835 C836 1.523 . S
C836 C817 1.368 . S
C836 C830 1.368 . S
C836 C835 1.523 . S
C837 C821 1.429 . S
C837 C833 1.429 . S
C837 C838 1.523 . S
C838 C822 1.368 . S
C838 C834 1.368 . S
C838 C837 1.523 . S
H839 C814 0.950 . S
H840 C816 0.950 . S
H841 C817 0.949 . S
H842 C819 0.950 . S
H843 C821 0.950 . S
C844 C845 1.349 . S
C844 C846 1.327 . S
C844 H869 0.950 . S
C845 C844 1.349 . S
C845 C861 1.349 . S
C846 C844 1.327 . S
C846 C865 1.429 . S
C846 H870 0.950 . S
C847 C864 1.574 . S
C847 C866 1.368 . S
C847 H871 0.949 . S
H848 C852 0.949 . S
C849 C850 1.349 . S
C849 C851 1.327 . S
C849 H872 0.950 . S
C850 C849 1.349 . S
C850 C862 1.349 . S
C851 C849 1.327 . S
C851 C867 1.429 . S
C851 H873 0.950 . S
C852 H848 0.949 . S
C852 C860 1.574 . S
C852 C868 1.368 . S
H853 C861 0.950 . S
H854 C859 0.950 . S
H855 C860 0.949 . S
H856 C862 0.950 . S
H857 C863 0.950 . S
H858 C864 0.949 . S
C859 H854 0.950 . S
C859 C861 1.327 . S
C859 C865 1.429 . S
C860 C852 1.574 . S
C860 H855 0.949 . S
C860 C866 1.368 . S
C861 C845 1.349 . S
C861 H853 0.950 . S
C861 C859 1.327 . S
C862 C850 1.349 . S
C862 H856 0.950 . S
C862 C863 1.327 . S
C863 H857 0.950 . S
C863 C862 1.327 . S
C863 C867 1.429 . S
C864 C847 1.574 . S
C864 H858 0.949 . S
C864 C868 1.368 . S
C865 C846 1.429 . S
C865 C859 1.429 . S
C865 C866 1.523 . S
C866 C847 1.368 . S
C866 C860 1.368 . S
C866 C865 1.523 . S
C867 C851 1.429 . S
C867 C863 1.429 . S
C867 C868 1.523 . S
C868 C852 1.368 . S
C868 C864 1.368 . S
C868 C867 1.523 . S
H869 C844 0.950 . S
H870 C846 0.950 . S
H871 C847 0.949 . S
H872 C849 0.950 . S
H873 C851 0.950 . S
C874 C875 1.349 . S
C874 C876 1.327 . S
C874 H899 0.950 . S
C875 C874 1.349 . S
C875 C891 1.349 . S
C876 C874 1.327 . S
C876 C895 1.429 . S
C876 H900 0.950 . S
C877 C894 1.574 . S
C877 C896 1.368 . S
C877 H901 0.949 . S
H878 C882 0.949 . S
C879 C880 1.349 . S
C879 C881 1.327 . S
C879 H902 0.950 . S
C880 C879 1.349 . S
C880 C892 1.349 . S
C881 C879 1.327 . S
C881 C897 1.429 . S
C881 H903 0.950 . S
C882 H878 0.949 . S
C882 C890 1.574 . S
C882 C898 1.368 . S
H883 C891 0.950 . S
H884 C889 0.950 . S
H885 C890 0.949 . S
H886 C892 0.950 . S
H887 C893 0.950 . S
H888 C894 0.949 . S
C889 H884 0.950 . S
C889 C891 1.327 . S
C889 C895 1.429 . S
C890 C882 1.574 . S
C890 H885 0.949 . S
C890 C896 1.368 . S
C891 C875 1.349 . S
C891 H883 0.950 . S
C891 C889 1.327 . S
C892 C880 1.349 . S
C892 H886 0.950 . S
C892 C893 1.327 . S
C893 H887 0.950 . S
C893 C892 1.327 . S
C893 C897 1.429 . S
C894 C877 1.574 . S
C894 H888 0.949 . S
C894 C898 1.368 . S
C895 C876 1.429 . S
C895 C889 1.429 . S
C895 C896 1.523 . S
C896 C877 1.368 . S
C896 C890 1.368 . S
C896 C895 1.523 . S
C897 C881 1.429 . S
C897 C893 1.429 . S
C897 C898 1.523 . S
C898 C882 1.368 . S
C898 C894 1.368 . S
C898 C897 1.523 . S
H899 C874 0.950 . S
H900 C876 0.950 . S
H901 C877 0.949 . S
H902 C879 0.950 . S
H903 C881 0.950 . S
C904 C905 1.349 . S
C904 C906 1.327 . S
C904 H929 0.950 . S
C905 C904 1.349 . S
C905 C921 1.349 . S
C906 C904 1.327 . S
C906 C925 1.429 . S
C906 H930 0.950 . S
C907 C924 1.574 . S
C907 C926 1.368 . S
C907 H931 0.949 . S
H908 C912 0.949 . S
C909 C910 1.349 . S
C909 C911 1.327 . S
C909 H932 0.950 . S
C910 C909 1.349 . S
C910 C922 1.349 . S
C911 C909 1.327 . S
C911 C927 1.429 . S
C911 H933 0.950 . S
C912 H908 0.949 . S
C912 C920 1.574 . S
C912 C928 1.368 . S
H913 C921 0.950 . S
H914 C919 0.950 . S
H915 C920 0.949 . S
H916 C922 0.950 . S
H917 C923 0.950 . S
H918 C924 0.949 . S
C919 H914 0.950 . S
C919 C921 1.327 . S
C919 C925 1.429 . S
C920 C912 1.574 . S
C920 H915 0.949 . S
C920 C926 1.368 . S
C921 C905 1.349 . S
C921 H913 0.950 . S
C921 C919 1.327 . S
C922 C910 1.349 . S
C922 H916 0.950 . S
C922 C923 1.327 . S
C923 H917 0.950 . S
C923 C922 1.327 . S
C923 C927 1.429 . S
C924 C907 1.574 . S
C924 H918 0.949 . S
C924 C928 1.368 . S
C925 C906 1.429 . S
C925 C919 1.429 . S
C925 C926 1.523 . S
C926 C907 1.368 . S
C926 C920 1.368 . S
C926 C925 1.523 . S
C927 C911 1.429 . S
C927 C923 1.429 . S
C927 C928 1.523 . S
C928 C912 1.368 . S
C928 C924 1.368 . S
C928 C927 1.523 . S
H929 C904 0.950 . S
H930 C906 0.950 . S
H931 C907 0.949 . S
H932 C909 0.950 . S
H933 C911 0.950 . S
C934 C935 1.349 . S
C934 C936 1.327 . S
C934 H959 0.950 . S
C935 C934 1.349 . S
C935 C951 1.349 . S
C936 C934 1.327 . S
C936 C955 1.429 . S
C936 H960 0.950 . S
C937 C954 1.574 . S
C937 C956 1.368 . S
C937 H961 0.949 . S
H938 C942 0.949 . S
C939 C940 1.349 . S
C939 C941 1.327 . S
C939 H962 0.950 . S
C940 C939 1.349 . S
C940 C952 1.349 . S
C941 C939 1.327 . S
C941 C957 1.429 . S
C941 H963 0.950 . S
C942 H938 0.949 . S
C942 C950 1.574 . S
C942 C958 1.368 . S
H943 C951 0.950 . S
H944 C949 0.950 . S
H945 C950 0.949 . S
H946 C952 0.950 . S
H947 C953 0.950 . S
H948 C954 0.949 . S
C949 H944 0.950 . S
C949 C951 1.327 . S
C949 C955 1.429 . S
C950 C942 1.574 . S
C950 H945 0.949 . S
C950 C956 1.368 . S
C951 C935 1.349 . S
C951 H943 0.950 . S
C951 C949 1.327 . S
C952 C940 1.349 . S
C952 H946 0.950 . S
C952 C953 1.327 . S
C953 H947 0.950 . S
C953 C952 1.327 . S
C953 C957 1.429 . S
C954 C937 1.574 . S
C954 H948 0.949 . S
C954 C958 1.368 . S
C955 C936 1.429 . S
C955 C949 1.429 . S
C955 C956 1.523 . S
C956 C937 1.368 . S
C956 C950 1.368 . S
C956 C955 1.523 . S
C957 C941 1.429 . S
C957 C953 1.429 . S
C957 C958 1.523 . S
C958 C942 1.368 . S
C958 C954 1.368 . S
C958 C957 1.523 . S
H959 C934 0.950 . S
H960 C936 0.950 . S
H961 C937 0.949 . S
H962 C939 0.950 . S
H963 C941 0.950 . S
C964 C965 1.349 . S
C964 C966 1.327 . S
C964 H989 0.950 . S
C965 C964 1.349 . S
C965 C981 1.349 . S
C966 C964 1.327 . S
C966 C985 1.429 . S
C966 H990 0.950 . S
C967 C984 1.574 . S
C967 C986 1.368 . S
C967 H991 0.949 . S
H968 C972 0.949 . S
C969 C970 1.349 . S
C969 C971 1.327 . S
C969 H992 0.950 . S
C970 C969 1.349 . S
C970 C982 1.349 . S
C971 C969 1.327 . S
C971 C987 1.429 . S
C971 H993 0.950 . S
C972 H968 0.949 . S
C972 C980 1.574 . S
C972 C988 1.368 . S
H973 C981 0.950 . S
H974 C979 0.950 . S
H975 C980 0.949 . S
H976 C982 0.950 . S
H977 C983 0.950 . S
H978 C984 0.949 . S
C979 H974 0.950 . S
C979 C981 1.327 . S
C979 C985 1.429 . S
C980 C972 1.574 . S
C980 H975 0.949 . S
C980 C986 1.368 . S
C981 C965 1.349 . S
C981 H973 0.950 . S
C981 C979 1.327 . S
C982 C970 1.349 . S
C982 H976 0.950 . S
C982 C983 1.327 . S
C983 H977 0.950 . S
C983 C982 1.327 . S
C983 C987 1.429 . S
C984 C967 1.574 . S
C984 H978 0.949 . S
C984 C988 1.368 . S
C985 C966 1.429 . S
C985 C979 1.429 . S
C985 C986 1.523 . S
C986 C967 1.368 . S
C986 C980 1.368 . S
C986 C985 1.523 . S
C987 C971 1.429 . S
C987 C983 1.429 . S
C987 C988 1.523 . S
C988 C972 1.368 . S
C988 C984 1.368 . S
C988 C987 1.523 . S
H989 C964 0.950 . S
H990 C966 0.950 . S
H991 C967 0.949 . S
H992 C969 0.950 . S
H993 C971 0.950 . S
C994 C995 1.349 . S
C994 C996 1.327 . S
C994 H1019 0.950 . S
C995 C994 1.349 . S
C995 C1011 1.349 . S
C996 C994 1.327 . S
C996 C1015 1.429 . S
C996 H1020 0.950 . S
C997 C1014 1.574 . S
C997 C1016 1.368 . S
C997 H1021 0.949 . S
H998 C1002 0.949 . S
C999 C1000 1.349 . S
C999 C1001 1.327 . S
C999 H1022 0.950 . S
C1000 C999 1.349 . S
C1000 C1012 1.349 . S
C1001 C999 1.327 . S
C1001 C1017 1.429 . S
C1001 H1023 0.950 . S
C1002 H998 0.949 . S
C1002 C1010 1.574 . S
C1002 C1018 1.368 . S
H1003 C1011 0.950 . S
H1004 C1009 0.950 . S
H1005 C1010 0.949 . S
H1006 C1012 0.950 . S
H1007 C1013 0.950 . S
H1008 C1014 0.949 . S
C1009 H1004 0.950 . S
C1009 C1011 1.327 . S
C1009 C1015 1.429 . S
C1010 C1002 1.574 . S
C1010 H1005 0.949 . S
C1010 C1016 1.368 . S
C1011 C995 1.349 . S
C1011 H1003 0.950 . S
C1011 C1009 1.327 . S
C1012 C1000 1.349 . S
C1012 H1006 0.950 . S
C1012 C1013 1.327 . S
C1013 H1007 0.950 . S
C1013 C1012 1.327 . S
C1013 C1017 1.429 . S
C1014 C997 1.574 . S
C1014 H1008 0.949 . S
C1014 C1018 1.368 . S
C1015 C996 1.429 . S
C1015 C1009 1.429 . S
C1015 C1016 1.523 . S
C1016 C997 1.368 . S
C1016 C1010 1.368 . S
C1016 C1015 1.523 . S
C1017 C1001 1.429 . S
C1017 C1013 1.429 . S
C1017 C1018 1.523 . S
C1018 C1002 1.368 . S
C1018 C1014 1.368 . S
C1018 C1017 1.523 . S
H1019 C994 0.950 . S
H1020 C996 0.950 . S
H1021 C997 0.949 . S
H1022 C999 0.950 . S
H1023 C1001 0.950 . S
C1024 C1025 1.349 . S
C1024 C1026 1.327 . S
C1024 H1049 0.950 . S
C1025 C1024 1.349 . S
C1025 C1041 1.349 . S
C1026 C1024 1.327 . S
C1026 C1045 1.429 . S
C1026 H1050 0.950 . S
C1027 C1044 1.574 . S
C1027 C1046 1.368 1_556 S
C1027 H1051 0.949 . S
H1028 C1032 0.949 . S
C1029 C1030 1.349 . S
C1029 C1031 1.327 . S
C1029 H1052 0.950 . S
C1030 C1029 1.349 . S
C1030 C1042 1.349 . S
C1031 C1029 1.327 . S
C1031 C1047 1.429 . S
C1031 H1053 0.950 . S
C1032 H1028 0.949 . S
C1032 C1040 1.574 1_556 S
C1032 C1048 1.368 . S
H1033 C1041 0.950 . S
H1034 C1039 0.950 . S
H1035 C1040 0.949 . S
H1036 C1042 0.950 . S
H1037 C1043 0.950 . S
H1038 C1044 0.949 . S
C1039 H1034 0.950 . S
C1039 C1041 1.327 . S
C1039 C1045 1.429 . S
C1040 C1032 1.574 1_554 S
C1040 H1035 0.949 . S
C1040 C1046 1.368 . S
C1041 C1025 1.349 . S
C1041 H1033 0.950 . S
C1041 C1039 1.327 . S
C1042 C1030 1.349 . S
C1042 H1036 0.950 . S
C1042 C1043 1.327 . S
C1043 H1037 0.950 . S
C1043 C1042 1.327 . S
C1043 C1047 1.429 . S
C1044 C1027 1.574 . S
C1044 H1038 0.949 . S
C1044 C1048 1.368 . S
C1045 C1026 1.429 . S
C1045 C1039 1.429 . S
C1045 C1046 1.523 . S
C1046 C1027 1.368 1_554 S
C1046 C1040 1.368 . S
C1046 C1045 1.523 . S
C1047 C1031 1.429 . S
C1047 C1043 1.429 . S
C1047 C1048 1.523 . S
C1048 C1032 1.368 . S
C1048 C1044 1.368 . S
C1048 C1047 1.523 . S
H1049 C1024 0.950 . S
H1050 C1026 0.950 . S
H1051 C1027 0.949 . S
H1052 C1029 0.950 . S
H1053 C1031 0.950 . S
C1054 C1055 1.349 . S
C1054 C1056 1.327 . S
C1054 H1079 0.950 . S
C1055 C1054 1.349 . S
C1055 C1071 1.349 . S
C1056 C1054 1.327 . S
C1056 C1075 1.429 . S
C1056 H1080 0.950 . S
C1057 C1074 1.574 1_556 S
C1057 C1076 1.368 . S
C1057 H1081 0.949 . S
H1058 C1062 0.935 1_554 S
C1059 C1060 1.349 . S
C1059 C1061 1.327 . S
C1059 H1082 0.950 . S
C1060 C1059 1.349 . S
C1060 C1072 1.349 . S
C1061 C1059 1.327 . S
C1061 C1077 1.429 . S
C1061 H1083 0.950 . S
C1062 H1058 0.935 1_556 S
C1062 C1070 1.574 . S
C1062 C1078 1.368 1_556 S
H1063 C1071 0.950 . S
H1064 C1069 0.950 . S
H1065 C1070 0.949 . S
H1066 C1072 0.950 . S
H1067 C1073 0.950 . S
H1068 C1074 0.949 . S
C1069 H1064 0.950 . S
C1069 C1071 1.327 . S
C1069 C1075 1.429 . S
C1070 C1062 1.574 . S
C1070 H1065 0.949 . S
C1070 C1076 1.368 . S
C1071 C1055 1.349 . S
C1071 H1063 0.950 . S
C1071 C1069 1.327 . S
C1072 C1060 1.349 . S
C1072 H1066 0.950 . S
C1072 C1073 1.327 . S
C1073 H1067 0.950 . S
C1073 C1072 1.327 . S
C1073 C1077 1.429 . S
C1074 C1057 1.574 1_554 S
C1074 H1068 0.949 . S
C1074 C1078 1.368 . S
C1075 C1056 1.429 . S
C1075 C1069 1.429 . S
C1075 C1076 1.523 . S
C1076 C1057 1.368 . S
C1076 C1070 1.368 . S
C1076 C1075 1.523 . S
C1077 C1061 1.429 . S
C1077 C1073 1.429 . S
C1077 C1078 1.523 . S
C1078 C1062 1.368 1_554 S
C1078 C1074 1.368 . S
C1078 C1077 1.523 . S
H1079 C1054 0.950 . S
H1080 C1056 0.950 . S
H1081 C1057 0.949 . S
H1082 C1059 0.950 . S
H1083 C1061 0.950 . S
C1084 C1085 1.349 . S
C1084 C1086 1.327 . S
C1084 H1109 0.950 . S
C1085 C1084 1.349 . S
C1085 C1101 1.349 . S
C1086 C1084 1.327 . S
C1086 C1105 1.429 . S
C1086 H1110 0.950 . S
C1087 C1104 1.574 . S
C1087 C1106 1.368 . S
C1087 H1111 0.949 . S
H1088 C1092 0.949 . S
C1089 C1090 1.349 . S
C1089 C1091 1.327 . S
C1089 H1112 0.950 . S
C1090 C1089 1.349 . S
C1090 C1102 1.349 . S
C1091 C1089 1.327 . S
C1091 C1107 1.429 . S
C1091 H1113 0.950 . S
C1092 H1088 0.949 . S
C1092 C1100 1.574 . S
C1092 C1108 1.368 . S
H1093 C1101 0.950 . S
H1094 C1099 0.950 . S
H1095 C1100 0.949 . S
H1096 C1102 0.950 . S
H1097 C1103 0.950 . S
H1098 C1104 0.949 . S
C1099 H1094 0.950 . S
C1099 C1101 1.327 . S
C1099 C1105 1.429 . S
C1100 C1092 1.574 . S
C1100 H1095 0.949 . S
C1100 C1106 1.368 . S
C1101 C1085 1.349 . S
C1101 H1093 0.950 . S
C1101 C1099 1.327 . S
C1102 C1090 1.349 . S
C1102 H1096 0.950 . S
C1102 C1103 1.327 . S
C1103 H1097 0.950 . S
C1103 C1102 1.327 . S
C1103 C1107 1.429 . S
C1104 C1087 1.574 . S
C1104 H1098 0.949 . S
C1104 C1108 1.368 . S
C1105 C1086 1.429 . S
C1105 C1099 1.429 . S
C1105 C1106 1.523 . S
C1106 C1087 1.368 . S
C1106 C1100 1.368 . S
C1106 C1105 1.523 . S
C1107 C1091 1.429 . S
C1107 C1103 1.429 . S
C1107 C1108 1.523 . S
C1108 C1092 1.368 . S
C1108 C1104 1.368 . S
C1108 C1107 1.523 . S
H1109 C1084 0.950 . S
H1110 C1086 0.950 . S
H1111 C1087 0.949 . S
H1112 C1089 0.950 . S
H1113 C1091 0.950 . S
C1114 C1115 1.349 . S
C1114 C1116 1.327 . S
C1114 H1139 0.950 . S
C1115 C1114 1.349 . S
C1115 C1131 1.349 . S
C1116 C1114 1.327 . S
C1116 C1135 1.429 . S
C1116 H1140 0.950 . S
C1117 C1134 1.574 . S
C1117 C1136 1.368 . S
C1117 H1141 0.949 . S
H1118 C1122 0.949 . S
C1119 C1120 1.349 . S
C1119 C1121 1.327 . S
C1119 H1142 0.950 . S
C1120 C1119 1.349 . S
C1120 C1132 1.349 . S
C1121 C1119 1.327 . S
C1121 C1137 1.429 . S
C1121 H1143 0.950 . S
C1122 H1118 0.949 . S
C1122 C1130 1.574 . S
C1122 C1138 1.368 . S
H1123 C1131 0.950 . S
H1124 C1129 0.950 . S
H1125 C1130 0.949 . S
H1126 C1132 0.950 . S
H1127 C1133 0.950 . S
H1128 C1134 0.949 . S
C1129 H1124 0.950 . S
C1129 C1131 1.327 . S
C1129 C1135 1.429 . S
C1130 C1122 1.574 . S
C1130 H1125 0.949 . S
C1130 C1136 1.368 . S
C1131 C1115 1.349 . S
C1131 H1123 0.950 . S
C1131 C1129 1.327 . S
C1132 C1120 1.349 . S
C1132 H1126 0.950 . S
C1132 C1133 1.327 . S
C1133 H1127 0.950 . S
C1133 C1132 1.327 . S
C1133 C1137 1.429 . S
C1134 C1117 1.574 . S
C1134 H1128 0.949 . S
C1134 C1138 1.368 . S
C1135 C1116 1.429 . S
C1135 C1129 1.429 . S
C1135 C1136 1.523 . S
C1136 C1117 1.368 . S
C1136 C1130 1.368 . S
C1136 C1135 1.523 . S
C1137 C1121 1.429 . S
C1137 C1133 1.429 . S
C1137 C1138 1.523 . S
C1138 C1122 1.368 . S
C1138 C1134 1.368 . S
C1138 C1137 1.523 . S
H1139 C1114 0.950 . S
H1140 C1116 0.950 . S
H1141 C1117 0.949 . S
H1142 C1119 0.950 . S
H1143 C1121 0.950 . S
C1144 C1145 1.349 . S
C1144 C1146 1.327 . S
C1144 H1169 0.950 . S
C1145 C1144 1.349 . S
C1145 C1161 1.349 . S
C1146 C1144 1.327 . S
C1146 C1165 1.429 . S
C1146 H1170 0.950 . S
C1147 C1164 1.641 . S
C1147 C1166 1.321 1_554 S
C1147 H1171 0.935 1_554 S
H1148 C1152 0.949 . S
C1149 C1150 1.349 . S
C1149 C1151 1.327 . S
C1149 H1172 0.950 . S
C1150 C1149 1.349 . S
C1150 C1162 1.349 . S
C1151 C1149 1.327 . S
C1151 C1167 1.429 . S
C1151 H1173 0.950 . S
C1152 H1148 0.949 . S
C1152 C1160 1.574 1_554 S
C1152 C1168 1.368 . S
H1153 C1161 0.950 . S
H1154 C1159 0.950 . S
H1155 C1160 0.949 . S
H1156 C1162 0.950 . S
H1157 C1163 0.950 . S
H1158 C1164 0.949 . S
C1159 H1154 0.950 . S
C1159 C1161 1.327 . S
C1159 C1165 1.429 . S
C1160 C1152 1.574 1_556 S
C1160 H1155 0.949 . S
C1160 C1166 1.368 . S
C1161 C1145 1.349 . S
C1161 H1153 0.950 . S
C1161 C1159 1.327 . S
C1162 C1150 1.349 . S
C1162 H1156 0.950 . S
C1162 C1163 1.327 . S
C1163 H1157 0.950 . S
C1163 C1162 1.327 . S
C1163 C1167 1.429 . S
C1164 C1147 1.641 . S
C1164 H1158 0.949 . S
C1164 C1168 1.368 . S
C1165 C1146 1.429 . S
C1165 C1159 1.429 . S
C1165 C1166 1.523 . S
C1166 C1147 1.321 1_556 S
C1166 C1160 1.368 . S
C1166 C1165 1.523 . S
C1167 C1151 1.429 . S
C1167 C1163 1.429 . S
C1167 C1168 1.523 . S
C1168 C1152 1.368 . S
C1168 C1164 1.368 . S
C1168 C1167 1.523 . S
H1169 C1144 0.950 . S
H1170 C1146 0.950 . S
H1171 C1147 0.935 1_556 S
H1172 C1149 0.950 . S
H1173 C1151 0.950 . S
C1174 C1175 1.349 . S
C1174 C1176 1.327 . S
C1174 H1199 0.950 . S
C1175 C1174 1.349 . S
C1175 C1191 1.349 . S
C1176 C1174 1.327 . S
C1176 C1195 1.429 . S
C1176 H1200 0.950 . S
C1177 C1194 1.574 1_554 S
C1177 C1196 1.368 . S
C1177 H1201 0.949 . S
H1178 C1182 0.948 . S
C1179 C1180 1.349 . S
C1179 C1181 1.327 . S
C1179 H1202 0.950 . S
C1180 C1179 1.349 . S
C1180 C1192 1.349 . S
C1181 C1179 1.327 . S
C1181 C1197 1.429 . S
C1181 H1203 0.950 . S
C1182 H1178 0.948 . S
C1182 C1190 1.576 1_556 S
C1182 C1198 1.367 . S
H1183 C1191 0.950 . S
H1184 C1189 0.950 . S
H1185 C1190 0.949 . S
H1186 C1192 0.950 . S
H1187 C1193 0.950 . S
H1188 C1194 0.949 . S
C1189 H1184 0.950 . S
C1189 C1191 1.327 . S
C1189 C1195 1.429 . S
C1190 C1182 1.576 1_554 S
C1190 H1185 0.949 . S
C1190 C1196 1.368 . S
C1191 C1175 1.349 . S
C1191 H1183 0.950 . S
C1191 C1189 1.327 . S
C1192 C1180 1.349 . S
C1192 H1186 0.950 . S
C1192 C1193 1.327 . S
C1193 H1187 0.950 . S
C1193 C1192 1.327 . S
C1193 C1197 1.429 . S
C1194 C1177 1.574 1_556 S
C1194 H1188 0.949 . S
C1194 C1198 1.368 . S
C1195 C1176 1.429 . S
C1195 C1189 1.429 . S
C1195 C1196 1.523 . S
C1196 C1177 1.368 . S
C1196 C1190 1.368 . S
C1196 C1195 1.523 . S
C1197 C1181 1.429 . S
C1197 C1193 1.429 . S
C1197 C1198 1.523 . S
C1198 C1182 1.367 . S
C1198 C1194 1.368 . S
C1198 C1197 1.523 . S
H1199 C1174 0.950 . S
H1200 C1176 0.950 . S
H1201 C1177 0.949 . S
H1202 C1179 0.950 . S
H1203 C1181 0.950 . S
C1204 C1205 1.349 . S
C1204 C1206 1.327 . S
C1204 H1229 0.950 . S
C1205 C1204 1.349 . S
C1205 C1221 1.349 . S
C1206 C1204 1.327 . S
C1206 C1225 1.429 . S
C1206 H1230 0.950 . S
C1207 C1224 1.574 . S
C1207 C1226 1.368 . S
C1207 H1231 0.949 . S
H1208 C1212 0.949 . S
C1209 C1210 1.349 . S
C1209 C1211 1.327 . S
C1209 H1232 0.950 . S
C1210 C1209 1.349 . S
C1210 C1222 1.349 . S
C1211 C1209 1.327 . S
C1211 C1227 1.429 . S
C1211 H1233 0.950 . S
C1212 H1208 0.949 . S
C1212 C1220 1.574 . S
C1212 C1228 1.368 . S
H1213 C1221 0.950 . S
H1214 C1219 0.950 . S
H1215 C1220 0.949 . S
H1216 C1222 0.950 . S
H1217 C1223 0.950 . S
H1218 C1224 0.949 . S
C1219 H1214 0.950 . S
C1219 C1221 1.327 . S
C1219 C1225 1.429 . S
C1220 C1212 1.574 . S
C1220 H1215 0.949 . S
C1220 C1226 1.368 . S
C1221 C1205 1.349 . S
C1221 H1213 0.950 . S
C1221 C1219 1.327 . S
C1222 C1210 1.349 . S
C1222 H1216 0.950 . S
C1222 C1223 1.327 . S
C1223 H1217 0.950 . S
C1223 C1222 1.327 . S
C1223 C1227 1.429 . S
C1224 C1207 1.574 . S
C1224 H1218 0.949 . S
C1224 C1228 1.368 . S
C1225 C1206 1.429 . S
C1225 C1219 1.429 . S
C1225 C1226 1.523 . S
C1226 C1207 1.368 . S
C1226 C1220 1.368 . S
C1226 C1225 1.523 . S
C1227 C1211 1.429 . S
C1227 C1223 1.429 . S
C1227 C1228 1.523 . S
C1228 C1212 1.368 . S
C1228 C1224 1.368 . S
C1228 C1227 1.523 . S
H1229 C1204 0.950 . S
H1230 C1206 0.950 . S
H1231 C1207 0.949 . S
H1232 C1209 0.950 . S
H1233 C1211 0.950 . S
C1234 C1235 1.349 . S
C1234 C1236 1.327 . S
C1234 H1259 0.950 . S
C1235 C1234 1.349 . S
C1235 C1251 1.349 . S
C1236 C1234 1.327 . S
C1236 C1255 1.429 . S
C1236 H1260 0.950 . S
C1237 C1254 1.574 . S
C1237 C1256 1.368 . S
C1237 H1261 0.949 . S
H1238 C1242 0.949 . S
C1239 C1240 1.349 . S
C1239 C1241 1.327 . S
C1239 H1262 0.950 . S
C1240 C1239 1.349 . S
C1240 C1252 1.349 . S
C1241 C1239 1.327 . S
C1241 C1257 1.429 . S
C1241 H1263 0.950 . S
C1242 H1238 0.949 . S
C1242 C1250 1.574 . S
C1242 C1258 1.368 . S
H1243 C1251 0.950 . S
H1244 C1249 0.950 . S
H1245 C1250 0.949 . S
H1246 C1252 0.950 . S
H1247 C1253 0.950 . S
H1248 C1254 0.949 . S
C1249 H1244 0.950 . S
C1249 C1251 1.327 . S
C1249 C1255 1.429 . S
C1250 C1242 1.574 . S
C1250 H1245 0.949 . S
C1250 C1256 1.368 . S
C1251 C1235 1.349 . S
C1251 H1243 0.950 . S
C1251 C1249 1.327 . S
C1252 C1240 1.349 . S
C1252 H1246 0.950 . S
C1252 C1253 1.327 . S
C1253 H1247 0.950 . S
C1253 C1252 1.327 . S
C1253 C1257 1.429 . S
C1254 C1237 1.574 . S
C1254 H1248 0.949 . S
C1254 C1258 1.368 . S
C1255 C1236 1.429 . S
C1255 C1249 1.429 . S
C1255 C1256 1.523 . S
C1256 C1237 1.368 . S
C1256 C1250 1.368 . S
C1256 C1255 1.523 . S
C1257 C1241 1.429 . S
C1257 C1253 1.429 . S
C1257 C1258 1.523 . S
C1258 C1242 1.368 . S
C1258 C1254 1.368 . S
C1258 C1257 1.523 . S
H1259 C1234 0.950 . S
H1260 C1236 0.950 . S
H1261 C1237 0.949 . S
H1262 C1239 0.950 . S
H1263 C1241 0.950 . S
C1264 C1265 1.349 . S
C1264 C1266 1.327 . S
C1264 H1289 0.950 . S
C1265 C1264 1.349 . S
C1265 C1281 1.349 . S
C1266 C1264 1.327 . S
C1266 C1285 1.429 . S
C1266 H1290 0.950 . S
C1267 C1284 1.574 . S
C1267 C1286 1.368 . S
C1267 H1291 0.949 . S
H1268 C1272 0.949 . S
C1269 C1270 1.349 . S
C1269 C1271 1.327 . S
C1269 H1292 0.950 . S
C1270 C1269 1.349 . S
C1270 C1282 1.349 1_565 S
C1271 C1269 1.327 . S
C1271 C1287 1.429 1_565 S
C1271 H1293 0.950 . S
C1272 H1268 0.949 . S
C1272 C1280 1.574 . S
C1272 C1288 1.368 . S
H1273 C1281 0.950 . S
H1274 C1279 0.950 . S
H1275 C1280 0.949 . S
H1276 C1282 0.950 . S
H1277 C1283 0.950 . S
H1278 C1284 0.949 1_565 S
C1279 H1274 0.950 . S
C1279 C1281 1.327 . S
C1279 C1285 1.429 . S
C1280 C1272 1.574 . S
C1280 H1275 0.949 . S
C1280 C1286 1.368 . S
C1281 C1265 1.349 . S
C1281 H1273 0.950 . S
C1281 C1279 1.327 . S
C1282 C1270 1.349 1_545 S
C1282 H1276 0.950 . S
C1282 C1283 1.327 . S
C1283 H1277 0.950 . S
C1283 C1282 1.327 . S
C1283 C1287 1.429 . S
C1284 C1267 1.574 . S
C1284 H1278 0.949 1_545 S
C1284 C1288 1.368 . S
C1285 C1266 1.429 . S
C1285 C1279 1.429 . S
C1285 C1286 1.523 . S
C1286 C1267 1.368 . S
C1286 C1280 1.368 . S
C1286 C1285 1.523 . S
C1287 C1271 1.429 1_545 S
C1287 C1283 1.429 . S
C1287 C1288 1.523 . S
C1288 C1272 1.368 . S
C1288 C1284 1.368 . S
C1288 C1287 1.523 . S
H1289 C1264 0.950 . S
H1290 C1266 0.950 . S
H1291 C1267 0.949 . S
H1292 C1269 0.950 . S
H1293 C1271 0.950 . S
C1294 C1295 1.349 . S
C1294 C1296 1.327 . S
C1294 H1319 0.950 . S
C1295 C1294 1.349 . S
C1295 C1311 1.349 . S
C1296 C1294 1.327 . S
C1296 C1315 1.429 . S
C1296 H1320 0.950 . S
C1297 C1314 1.574 . S
C1297 C1316 1.368 . S
C1297 H1321 0.949 . S
H1298 C1302 0.949 . S
C1299 C1300 1.349 . S
C1299 C1301 1.327 . S
C1299 H1322 0.950 . S
C1300 C1299 1.349 . S
C1300 C1312 1.349 . S
C1301 C1299 1.327 . S
C1301 C1317 1.429 . S
C1301 H1323 0.950 . S
C1302 H1298 0.949 . S
C1302 C1310 1.574 . S
C1302 C1318 1.368 . S
H1303 C1311 0.950 . S
H1304 C1309 0.950 . S
H1305 C1310 0.949 . S
H1306 C1312 0.950 . S
H1307 C1313 0.950 . S
H1308 C1314 0.949 . S
C1309 H1304 0.950 . S
C1309 C1311 1.327 . S
C1309 C1315 1.429 . S
C1310 C1302 1.574 . S
C1310 H1305 0.949 . S
C1310 C1316 1.368 . S
C1311 C1295 1.349 . S
C1311 H1303 0.950 . S
C1311 C1309 1.327 . S
C1312 C1300 1.349 . S
C1312 H1306 0.950 . S
C1312 C1313 1.327 . S
C1313 H1307 0.950 . S
C1313 C1312 1.327 . S
C1313 C1317 1.429 . S
C1314 C1297 1.574 . S
C1314 H1308 0.949 . S
C1314 C1318 1.368 . S
C1315 C1296 1.429 . S
C1315 C1309 1.429 . S
C1315 C1316 1.523 . S
C1316 C1297 1.368 . S
C1316 C1310 1.368 . S
C1316 C1315 1.523 . S
C1317 C1301 1.429 . S
C1317 C1313 1.429 . S
C1317 C1318 1.523 . S
C1318 C1302 1.368 . S
C1318 C1314 1.368 . S
C1318 C1317 1.523 . S
H1319 C1294 0.950 . S
H1320 C1296 0.950 . S
H1321 C1297 0.949 . S
H1322 C1299 0.950 . S
H1323 C1301 0.950 . S
C1324 C1325 1.349 . S
C1324 C1326 1.327 . S
C1324 H1349 0.950 . S
C1325 C1324 1.349 . S
C1325 C1341 1.349 . S
C1326 C1324 1.327 . S
C1326 C1345 1.429 . S
C1326 H1350 0.950 . S
C1327 C1344 1.574 1_565 S
C1327 C1346 1.368 . S
C1327 H1351 0.949 . S
H1328 C1332 0.949 . S
C1329 C1330 1.349 . S
C1329 C1331 1.327 . S
C1329 H1352 0.950 . S
C1330 C1329 1.349 . S
C1330 C1342 1.349 . S
C1331 C1329 1.327 . S
C1331 C1347 1.429 . S
C1331 H1353 0.950 . S
C1332 H1328 0.949 . S
C1332 C1340 1.574 . S
C1332 C1348 1.368 . S
H1333 C1341 0.950 . S
H1334 C1339 0.950 . S
H1335 C1340 0.949 . S
H1336 C1342 0.950 . S
H1337 C1343 0.950 . S
H1338 C1344 0.949 . S
C1339 H1334 0.950 . S
C1339 C1341 1.327 . S
C1339 C1345 1.429 . S
C1340 C1332 1.574 . S
C1340 H1335 0.949 . S
C1340 C1346 1.368 1_545 S
C1341 C1325 1.349 . S
C1341 H1333 0.950 . S
C1341 C1339 1.327 . S
C1342 C1330 1.349 . S
C1342 H1336 0.950 . S
C1342 C1343 1.327 . S
C1343 H1337 0.950 . S
C1343 C1342 1.327 . S
C1343 C1347 1.429 . S
C1344 C1327 1.574 1_545 S
C1344 H1338 0.949 . S
C1344 C1348 1.368 . S
C1345 C1326 1.429 . S
C1345 C1339 1.429 . S
C1345 C1346 1.523 . S
C1346 C1327 1.368 . S
C1346 C1340 1.368 1_565 S
C1346 C1345 1.523 . S
C1347 C1331 1.429 . S
C1347 C1343 1.429 . S
C1347 C1348 1.523 . S
C1348 C1332 1.368 . S
C1348 C1344 1.368 . S
C1348 C1347 1.523 . S
H1349 C1324 0.950 . S
H1350 C1326 0.950 . S
H1351 C1327 0.949 . S
H1352 C1329 0.950 . S
H1353 C1331 0.950 . S
C1354 C1355 1.349 . S
C1354 C1356 1.327 . S
C1354 H1379 0.950 . S
C1355 C1354 1.349 . S
C1355 C1371 1.349 . S
C1356 C1354 1.327 . S
C1356 C1375 1.429 . S
C1356 H1380 0.950 . S
C1357 C1374 1.574 . S
C1357 C1376 1.368 . S
C1357 H1381 0.949 . S
H1358 C1362 0.949 . S
C1359 C1360 1.349 . S
C1359 C1361 1.327 . S
C1359 H1382 0.950 . S
C1360 C1359 1.349 . S
C1360 C1372 1.349 . S
C1361 C1359 1.327 . S
C1361 C1377 1.429 . S
C1361 H1383 0.950 . S
C1362 H1358 0.949 . S
C1362 C1370 1.574 . S
C1362 C1378 1.368 . S
H1363 C1371 0.950 . S
H1364 C1369 0.950 . S
H1365 C1370 0.949 . S
H1366 C1372 0.950 . S
H1367 C1373 0.950 . S
H1368 C1374 0.949 . S
C1369 H1364 0.950 . S
C1369 C1371 1.327 . S
C1369 C1375 1.429 . S
C1370 C1362 1.574 . S
C1370 H1365 0.949 . S
C1370 C1376 1.368 . S
C1371 C1355 1.349 . S
C1371 H1363 0.950 . S
C1371 C1369 1.327 . S
C1372 C1360 1.349 . S
C1372 H1366 0.950 . S
C1372 C1373 1.327 . S
C1373 H1367 0.950 . S
C1373 C1372 1.327 . S
C1373 C1377 1.429 . S
C1374 C1357 1.574 . S
C1374 H1368 0.949 . S
C1374 C1378 1.368 . S
C1375 C1356 1.429 . S
C1375 C1369 1.429 . S
C1375 C1376 1.523 . S
C1376 C1357 1.368 . S
C1376 C1370 1.368 . S
C1376 C1375 1.523 . S
C1377 C1361 1.429 . S
C1377 C1373 1.429 . S
C1377 C1378 1.523 . S
C1378 C1362 1.368 . S
C1378 C1374 1.368 . S
C1378 C1377 1.523 . S
H1379 C1354 0.950 . S
H1380 C1356 0.950 . S
H1381 C1357 0.949 . S
H1382 C1359 0.950 . S
H1383 C1361 0.950 . S
C1384 C1385 1.349 . S
C1384 C1386 1.327 . S
C1384 H1409 0.950 . S
C1385 C1384 1.349 . S
C1385 C1401 1.349 . S
C1386 C1384 1.327 . S
C1386 C1405 1.429 . S
C1386 H1410 0.950 . S
C1387 C1404 1.574 . S
C1387 C1406 1.368 . S
C1387 H1411 0.949 . S
H1388 C1392 0.949 . S
C1389 C1390 1.349 . S
C1389 C1391 1.327 . S
C1389 H1412 0.950 . S
C1390 C1389 1.349 . S
C1390 C1402 1.349 . S
C1391 C1389 1.327 . S
C1391 C1407 1.429 . S
C1391 H1413 0.950 . S
C1392 H1388 0.949 . S
C1392 C1400 1.574 . S
C1392 C1408 1.368 . S
H1393 C1401 0.950 . S
H1394 C1399 0.950 . S
H1395 C1400 0.949 . S
H1396 C1402 0.950 . S
H1397 C1403 0.950 . S
H1398 C1404 0.949 . S
C1399 H1394 0.950 . S
C1399 C1401 1.327 . S
C1399 C1405 1.429 . S
C1400 C1392 1.574 . S
C1400 H1395 0.949 . S
C1400 C1406 1.368 . S
C1401 C1385 1.349 . S
C1401 H1393 0.950 . S
C1401 C1399 1.327 . S
C1402 C1390 1.349 . S
C1402 H1396 0.950 . S
C1402 C1403 1.327 . S
C1403 H1397 0.950 . S
C1403 C1402 1.327 . S
C1403 C1407 1.429 . S
C1404 C1387 1.574 . S
C1404 H1398 0.949 . S
C1404 C1408 1.368 . S
C1405 C1386 1.429 . S
C1405 C1399 1.429 . S
C1405 C1406 1.523 . S
C1406 C1387 1.368 . S
C1406 C1400 1.368 . S
C1406 C1405 1.523 . S
C1407 C1391 1.429 . S
C1407 C1403 1.429 . S
C1407 C1408 1.523 . S
C1408 C1392 1.368 . S
C1408 C1404 1.368 . S
C1408 C1407 1.523 . S
H1409 C1384 0.950 . S
H1410 C1386 0.950 . S
H1411 C1387 0.949 . S
H1412 C1389 0.950 . S
H1413 C1391 0.950 . S
C1414 C1415 1.349 1_565 S
C1414 C1416 1.327 . S
C1414 H1439 0.950 . S
C1415 C1414 1.349 1_545 S
C1415 C1431 1.349 . S
C1416 C1414 1.327 . S
C1416 C1435 1.429 . S
C1416 H1440 0.950 . S
C1417 C1434 1.574 1_545 S
C1417 C1436 1.368 1_545 S
C1417 H1441 0.949 . S
H1418 C1422 0.949 . S
C1419 C1420 1.349 . S
C1419 C1421 1.327 . S
C1419 H1442 0.950 . S
C1420 C1419 1.349 . S
C1420 C1432 1.349 . S
C1421 C1419 1.327 . S
C1421 C1437 1.429 . S
C1421 H1443 0.950 . S
C1422 H1418 0.949 . S
C1422 C1430 1.574 . S
C1422 C1438 1.368 . S
H1423 C1431 0.950 . S
H1424 C1429 0.950 . S
H1425 C1430 0.949 . S
H1426 C1432 0.950 . S
H1427 C1433 0.950 . S
H1428 C1434 0.949 1_545 S
C1429 H1424 0.950 . S
C1429 C1431 1.327 . S
C1429 C1435 1.429 1_545 S
C1430 C1422 1.574 . S
C1430 H1425 0.949 . S
C1430 C1436 1.368 . S
C1431 C1415 1.349 . S
C1431 H1423 0.950 . S
C1431 C1429 1.327 . S
C1432 C1420 1.349 . S
C1432 H1426 0.950 . S
C1432 C1433 1.327 . S
C1433 H1427 0.950 . S
C1433 C1432 1.327 . S
C1433 C1437 1.429 . S
C1434 C1417 1.574 1_565 S
C1434 H1428 0.949 1_565 S
C1434 C1438 1.368 . S
C1435 C1416 1.429 . S
C1435 C1429 1.429 1_565 S
C1435 C1436 1.523 . S
C1436 C1417 1.368 1_565 S
C1436 C1430 1.368 . S
C1436 C1435 1.523 . S
C1437 C1421 1.429 . S
C1437 C1433 1.429 . S
C1437 C1438 1.523 . S
C1438 C1422 1.368 . S
C1438 C1434 1.368 . S
C1438 C1437 1.523 . S
H1439 C1414 0.950 . S
H1440 C1416 0.950 . S
H1441 C1417 0.949 . S
H1442 C1419 0.950 . S
H1443 C1421 0.950 . S
C1444 C1445 1.349 . S
C1444 C1446 1.327 . S
C1444 H1469 0.950 . S
C1445 C1444 1.349 . S
C1445 C1461 1.349 . S
C1446 C1444 1.327 . S
C1446 C1465 1.429 . S
C1446 H1470 0.950 . S
C1447 C1464 1.574 . S
C1447 C1466 1.368 . S
C1447 H1471 0.949 . S
H1448 C1452 0.949 . S
C1449 C1450 1.349 . S
C1449 C1451 1.327 . S
C1449 H1472 0.950 . S
C1450 C1449 1.349 . S
C1450 C1462 1.349 . S
C1451 C1449 1.327 . S
C1451 C1467 1.429 . S
C1451 H1473 0.950 . S
C1452 H1448 0.949 . S
C1452 C1460 1.574 . S
C1452 C1468 1.368 . S
H1453 C1461 0.950 . S
H1454 C1459 0.950 . S
H1455 C1460 0.949 . S
H1456 C1462 0.950 . S
H1457 C1463 0.950 . S
H1458 C1464 0.949 . S
C1459 H1454 0.950 . S
C1459 C1461 1.327 . S
C1459 C1465 1.429 . S
C1460 C1452 1.574 . S
C1460 H1455 0.949 . S
C1460 C1466 1.368 . S
C1461 C1445 1.349 . S
C1461 H1453 0.950 . S
C1461 C1459 1.327 . S
C1462 C1450 1.349 . S
C1462 H1456 0.950 . S
C1462 C1463 1.327 . S
C1463 H1457 0.950 . S
C1463 C1462 1.327 . S
C1463 C1467 1.429 . S
C1464 C1447 1.574 . S
C1464 H1458 0.949 . S
C1464 C1468 1.368 . S
C1465 C1446 1.429 . S
C1465 C1459 1.429 . S
C1465 C1466 1.523 . S
C1466 C1447 1.368 . S
C1466 C1460 1.368 . S
C1466 C1465 1.523 . S
C1467 C1451 1.429 . S
C1467 C1463 1.429 . S
C1467 C1468 1.523 . S
C1468 C1452 1.368 . S
C1468 C1464 1.368 . S
C1468 C1467 1.523 . S
H1469 C1444 0.950 . S
H1470 C1446 0.950 . S
H1471 C1447 0.949 . S
H1472 C1449 0.950 . S
H1473 C1451 0.950 . S
C1474 C1475 1.349 . S
C1474 C1476 1.327 . S
C1474 H1499 0.950 . S
C1475 C1474 1.349 . S
C1475 C1491 1.349 . S
C1476 C1474 1.327 . S
C1476 C1495 1.429 . S
C1476 H1500 0.950 . S
C1477 C1494 1.574 . S
C1477 C1496 1.368 1_565 S
C1477 H1501 0.949 . S
H1478 C1482 0.949 . S
C1479 C1480 1.349 . S
C1479 C1481 1.327 . S
C1479 H1502 0.950 . S
C1480 C1479 1.349 . S
C1480 C1492 1.349 . S
C1481 C1479 1.327 . S
C1481 C1497 1.429 . S
C1481 H1503 0.950 . S
C1482 H1478 0.949 . S
C1482 C1490 1.574 . S
C1482 C1498 1.368 1_545 S
H1483 C1491 0.950 1_565 S
H1484 C1489 0.950 . S
H1485 C1490 0.949 . S
H1486 C1492 0.950 . S
H1487 C1493 0.950 1_545 S
H1488 C1494 0.949 . S
C1489 H1484 0.950 . S
C1489 C1491 1.327 1_565 S
C1489 C1495 1.429 1_565 S
C1490 C1482 1.574 . S
C1490 H1485 0.949 . S
C1490 C1496 1.368 . S
C1491 C1475 1.349 . S
C1491 H1483 0.950 1_545 S
C1491 C1489 1.327 1_545 S
C1492 C1480 1.349 . S
C1492 H1486 0.950 . S
C1492 C1493 1.327 . S
C1493 H1487 0.950 1_565 S
C1493 C1492 1.327 . S
C1493 C1497 1.429 . S
C1494 C1477 1.574 . S
C1494 H1488 0.949 . S
C1494 C1498 1.368 . S
C1495 C1476 1.429 . S
C1495 C1489 1.429 1_545 S
C1495 C1496 1.523 . S
C1496 C1477 1.368 1_545 S
C1496 C1490 1.368 . S
C1496 C1495 1.523 . S
C1497 C1481 1.429 . S
C1497 C1493 1.429 . S
C1497 C1498 1.523 . S
C1498 C1482 1.368 1_565 S
C1498 C1494 1.368 . S
C1498 C1497 1.523 . S
H1499 C1474 0.950 . S
H1500 C1476 0.950 . S
H1501 C1477 0.949 . S
H1502 C1479 0.950 . S
H1503 C1481 0.950 . S
C1504 C1505 1.349 . S
C1504 C1506 1.327 . S
C1504 H1529 0.950 . S
C1505 C1504 1.349 . S
C1505 C1521 1.349 . S
C1506 C1504 1.327 . S
C1506 C1525 1.429 . S
C1506 H1530 0.950 . S
C1507 C1524 1.574 . S
C1507 C1526 1.368 . S
C1507 H1531 0.949 . S
H1508 C1512 0.949 . S
C1509 C1510 1.349 . S
C1509 C1511 1.327 . S
C1509 H1532 0.950 . S
C1510 C1509 1.349 . S
C1510 C1522 1.349 . S
C1511 C1509 1.327 . S
C1511 C1527 1.429 . S
C1511 H1533 0.950 . S
C1512 H1508 0.949 . S
C1512 C1520 1.574 . S
C1512 C1528 1.368 . S
H1513 C1521 0.950 . S
H1514 C1519 0.950 . S
H1515 C1520 0.949 . S
H1516 C1522 0.950 . S
H1517 C1523 0.950 . S
H1518 C1524 0.949 . S
C1519 H1514 0.950 . S
C1519 C1521 1.327 . S
C1519 C1525 1.429 . S
C1520 C1512 1.574 . S
C1520 H1515 0.949 . S
C1520 C1526 1.368 . S
C1521 C1505 1.349 . S
C1521 H1513 0.950 . S
C1521 C1519 1.327 . S
C1522 C1510 1.349 . S
C1522 H1516 0.950 . S
C1522 C1523 1.327 . S
C1523 H1517 0.950 . S
C1523 C1522 1.327 . S
C1523 C1527 1.429 . S
C1524 C1507 1.574 . S
C1524 H1518 0.949 . S
C1524 C1528 1.368 . S
C1525 C1506 1.429 . S
C1525 C1519 1.429 . S
C1525 C1526 1.523 . S
C1526 C1507 1.368 . S
C1526 C1520 1.368 . S
C1526 C1525 1.523 . S
C1527 C1511 1.429 . S
C1527 C1523 1.429 . S
C1527 C1528 1.523 . S
C1528 C1512 1.368 . S
C1528 C1524 1.368 . S
C1528 C1527 1.523 . S
H1529 C1504 0.950 . S
H1530 C1506 0.950 . S
H1531 C1507 0.949 . S
H1532 C1509 0.950 . S
H1533 C1511 0.950 . S
C1534 C1535 1.349 . S
C1534 C1536 1.327 . S
C1534 H1559 0.950 . S
C1535 C1534 1.349 . S
C1535 C1551 1.349 . S
C1536 C1534 1.327 . S
C1536 C1555 1.429 . S
C1536 H1560 0.950 . S
C1537 C1554 1.574 . S
C1537 C1556 1.368 . S
C1537 H1561 0.949 . S
H1538 C1542 0.949 . S
C1539 C1540 1.349 . S
C1539 C1541 1.327 . S
C1539 H1562 0.950 . S
C1540 C1539 1.349 . S
C1540 C1552 1.349 . S
C1541 C1539 1.327 . S
C1541 C1557 1.429 . S
C1541 H1563 0.950 . S
C1542 H1538 0.949 . S
C1542 C1550 1.574 . S
C1542 C1558 1.368 . S
H1543 C1551 0.950 . S
H1544 C1549 0.950 . S
H1545 C1550 0.949 . S
H1546 C1552 0.950 . S
H1547 C1553 0.950 . S
H1548 C1554 0.949 . S
C1549 H1544 0.950 . S
C1549 C1551 1.327 . S
C1549 C1555 1.429 . S
C1550 C1542 1.574 . S
C1550 H1545 0.949 . S
C1550 C1556 1.368 . S
C1551 C1535 1.349 . S
C1551 H1543 0.950 . S
C1551 C1549 1.327 . S
C1552 C1540 1.349 . S
C1552 H1546 0.950 . S
C1552 C1553 1.327 . S
C1553 H1547 0.950 . S
C1553 C1552 1.327 . S
C1553 C1557 1.429 . S
C1554 C1537 1.574 . S
C1554 H1548 0.949 . S
C1554 C1558 1.368 . S
C1555 C1536 1.429 . S
C1555 C1549 1.429 . S
C1555 C1556 1.523 . S
C1556 C1537 1.368 . S
C1556 C1550 1.368 . S
C1556 C1555 1.523 . S
C1557 C1541 1.429 . S
C1557 C1553 1.429 . S
C1557 C1558 1.523 . S
C1558 C1542 1.368 . S
C1558 C1554 1.368 . S
C1558 C1557 1.523 . S
H1559 C1534 0.950 . S
H1560 C1536 0.950 . S
H1561 C1537 0.949 . S
H1562 C1539 0.950 . S
H1563 C1541 0.950 . S
C1564 C1565 1.349 . S
C1564 C1566 1.327 . S
C1564 H1589 0.950 . S
C1565 C1564 1.349 . S
C1565 C1581 1.349 . S
C1566 C1564 1.327 . S
C1566 C1585 1.429 . S
C1566 H1590 0.950 . S
C1567 C1584 1.574 . S
C1567 C1586 1.368 . S
C1567 H1591 0.949 . S
H1568 C1572 0.949 . S
C1569 C1570 1.349 . S
C1569 C1571 1.327 . S
C1569 H1592 0.950 . S
C1570 C1569 1.349 . S
C1570 C1582 1.349 . S
C1571 C1569 1.327 . S
C1571 C1587 1.429 . S
C1571 H1593 0.950 . S
C1572 H1568 0.949 . S
C1572 C1580 1.574 . S
C1572 C1588 1.368 . S
H1573 C1581 0.950 . S
H1574 C1579 0.950 . S
H1575 C1580 0.949 . S
H1576 C1582 0.950 . S
H1577 C1583 0.950 . S
H1578 C1584 0.949 . S
C1579 H1574 0.950 . S
C1579 C1581 1.327 . S
C1579 C1585 1.429 . S
C1580 C1572 1.574 . S
C1580 H1575 0.949 . S
C1580 C1586 1.368 . S
C1581 C1565 1.349 . S
C1581 H1573 0.950 . S
C1581 C1579 1.327 . S
C1582 C1570 1.349 . S
C1582 H1576 0.950 . S
C1582 C1583 1.327 . S
C1583 H1577 0.950 . S
C1583 C1582 1.327 . S
C1583 C1587 1.429 . S
C1584 C1567 1.574 . S
C1584 H1578 0.949 . S
C1584 C1588 1.368 . S
C1585 C1566 1.429 . S
C1585 C1579 1.429 . S
C1585 C1586 1.523 . S
C1586 C1567 1.368 . S
C1586 C1580 1.368 . S
C1586 C1585 1.523 . S
C1587 C1571 1.429 . S
C1587 C1583 1.429 . S
C1587 C1588 1.523 . S
C1588 C1572 1.368 . S
C1588 C1584 1.368 . S
C1588 C1587 1.523 . S
H1589 C1564 0.950 . S
H1590 C1566 0.950 . S
H1591 C1567 0.949 . S
H1592 C1569 0.950 . S
H1593 C1571 0.950 . S
C1594 C1595 1.349 . S
C1594 C1596 1.327 . S
C1594 H1619 0.950 . S
C1595 C1594 1.349 . S
C1595 C1611 1.349 . S
C1596 C1594 1.327 . S
C1596 C1615 1.429 . S
C1596 H1620 0.950 . S
C1597 C1614 1.574 . S
C1597 C1616 1.368 . S
C1597 H1621 0.949 . S
H1598 C1602 0.949 . S
C1599 C1600 1.349 . S
C1599 C1601 1.327 . S
C1599 H1622 0.950 . S
C1600 C1599 1.349 . S
C1600 C1612 1.349 . S
C1601 C1599 1.327 . S
C1601 C1617 1.429 . S
C1601 H1623 0.950 . S
C1602 H1598 0.949 . S
C1602 C1610 1.574 . S
C1602 C1618 1.368 . S
H1603 C1611 0.950 . S
H1604 C1609 0.950 . S
H1605 C1610 0.949 . S
H1606 C1612 0.950 . S
H1607 C1613 0.950 . S
H1608 C1614 0.949 . S
C1609 H1604 0.950 . S
C1609 C1611 1.327 . S
C1609 C1615 1.429 . S
C1610 C1602 1.574 . S
C1610 H1605 0.949 . S
C1610 C1616 1.368 . S
C1611 C1595 1.349 . S
C1611 H1603 0.950 . S
C1611 C1609 1.327 . S
C1612 C1600 1.349 . S
C1612 H1606 0.950 . S
C1612 C1613 1.327 . S
C1613 H1607 0.950 . S
C1613 C1612 1.327 . S
C1613 C1617 1.429 . S
C1614 C1597 1.574 . S
C1614 H1608 0.949 . S
C1614 C1618 1.368 . S
C1615 C1596 1.429 . S
C1615 C1609 1.429 . S
C1615 C1616 1.523 . S
C1616 C1597 1.368 . S
C1616 C1610 1.368 . S
C1616 C1615 1.523 . S
C1617 C1601 1.429 . S
C1617 C1613 1.429 . S
C1617 C1618 1.523 . S
C1618 C1602 1.368 . S
C1618 C1614 1.368 . S
C1618 C1617 1.523 . S
H1619 C1594 0.950 . S
H1620 C1596 0.950 . S
H1621 C1597 0.949 . S
H1622 C1599 0.950 . S
H1623 C1601 0.950 . S
C1624 C1625 1.349 . S
C1624 C1626 1.327 . S
C1624 H1649 0.950 . S
C1625 C1624 1.349 . S
C1625 C1641 1.349 . S
C1626 C1624 1.327 . S
C1626 C1645 1.429 . S
C1626 H1650 0.950 . S
C1627 C1644 1.574 1_655 S
C1627 C1646 1.368 . S
C1627 H1651 0.949 . S
H1628 C1632 0.949 . S
C1629 C1630 1.349 . S
C1629 C1631 1.327 . S
C1629 H1652 0.950 . S
C1630 C1629 1.349 . S
C1630 C1642 1.349 . S
C1631 C1629 1.327 . S
C1631 C1647 1.429 . S
C1631 H1653 0.950 . S
C1632 H1628 0.949 . S
C1632 C1640 1.574 1_455 S
C1632 C1648 1.368 . S
H1633 C1641 0.950 . S
H1634 C1639 0.950 . S
H1635 C1640 0.949 . S
H1636 C1642 0.950 . S
H1637 C1643 0.950 . S
H1638 C1644 0.949 . S
C1639 H1634 0.950 . S
C1639 C1641 1.327 . S
C1639 C1645 1.429 . S
C1640 C1632 1.574 1_655 S
C1640 H1635 0.949 . S
C1640 C1646 1.368 . S
C1641 C1625 1.349 . S
C1641 H1633 0.950 . S
C1641 C1639 1.327 . S
C1642 C1630 1.349 . S
C1642 H1636 0.950 . S
C1642 C1643 1.327 . S
C1643 H1637 0.950 . S
C1643 C1642 1.327 . S
C1643 C1647 1.429 . S
C1644 C1627 1.574 1_455 S
C1644 H1638 0.949 . S
C1644 C1648 1.368 . S
C1645 C1626 1.429 . S
C1645 C1639 1.429 . S
C1645 C1646 1.523 . S
C1646 C1627 1.368 . S
C1646 C1640 1.368 . S
C1646 C1645 1.523 . S
C1647 C1631 1.429 . S
C1647 C1643 1.429 . S
C1647 C1648 1.523 . S
C1648 C1632 1.368 . S
C1648 C1644 1.368 . S
C1648 C1647 1.523 . S
H1649 C1624 0.950 . S
H1650 C1626 0.950 . S
H1651 C1627 0.949 . S
H1652 C1629 0.950 . S
H1653 C1631 0.950 . S
C1654 C1655 1.349 . S
C1654 C1656 1.327 . S
C1654 H1679 0.950 . S
C1655 C1654 1.349 . S
C1655 C1671 1.349 . S
C1656 C1654 1.327 . S
C1656 C1675 1.429 . S
C1656 H1680 0.950 . S
C1657 C1674 1.574 . S
C1657 C1676 1.368 1_655 S
C1657 H1681 0.949 . S
H1658 C1662 0.949 . S
C1659 C1660 1.349 . S
C1659 C1661 1.327 . S
C1659 H1682 0.950 . S
C1660 C1659 1.349 . S
C1660 C1672 1.349 . S
C1661 C1659 1.327 . S
C1661 C1677 1.429 . S
C1661 H1683 0.950 . S
C1662 H1658 0.949 . S
C1662 C1670 1.574 . S
C1662 C1678 1.368 1_455 S
H1663 C1671 0.950 . S
H1664 C1669 0.950 . S
H1665 C1670 0.949 . S
H1666 C1672 0.950 . S
H1667 C1673 0.950 . S
H1668 C1674 0.949 . S
C1669 H1664 0.950 . S
C1669 C1671 1.327 . S
C1669 C1675 1.429 . S
C1670 C1662 1.574 . S
C1670 H1665 0.949 . S
C1670 C1676 1.368 . S
C1671 C1655 1.349 . S
C1671 H1663 0.950 . S
C1671 C1669 1.327 . S
C1672 C1660 1.349 . S
C1672 H1666 0.950 . S
C1672 C1673 1.327 . S
C1673 H1667 0.950 . S
C1673 C1672 1.327 . S
C1673 C1677 1.429 . S
C1674 C1657 1.574 . S
C1674 H1668 0.949 . S
C1674 C1678 1.368 . S
C1675 C1656 1.429 . S
C1675 C1669 1.429 . S
C1675 C1676 1.523 . S
C1676 C1657 1.368 1_455 S
C1676 C1670 1.368 . S
C1676 C1675 1.523 . S
C1677 C1661 1.429 . S
C1677 C1673 1.429 . S
C1677 C1678 1.523 . S
C1678 C1662 1.368 1_655 S
C1678 C1674 1.368 . S
C1678 C1677 1.523 . S
H1679 C1654 0.950 . S
H1680 C1656 0.950 . S
H1681 C1657 0.949 . S
H1682 C1659 0.950 . S
H1683 C1661 0.950 . S
C1684 C1685 1.349 . S
C1684 C1686 1.327 . S
C1684 H1709 0.950 . S
C1685 C1684 1.349 . S
C1685 C1701 1.349 . S
C1686 C1684 1.327 . S
C1686 C1705 1.429 . S
C1686 H1710 0.950 . S
C1687 C1704 1.574 1_455 S
C1687 C1706 1.368 . S
C1687 H1711 0.949 . S
H1688 C1692 0.949 . S
C1689 C1690 1.349 . S
C1689 C1691 1.327 . S
C1689 H1712 0.950 . S
C1690 C1689 1.349 . S
C1690 C1702 1.349 . S
C1691 C1689 1.327 . S
C1691 C1707 1.429 . S
C1691 H1713 0.950 . S
C1692 H1688 0.949 . S
C1692 C1700 1.574 1_655 S
C1692 C1708 1.368 . S
H1693 C1701 0.950 . S
H1694 C1699 0.950 . S
H1695 C1700 0.949 . S
H1696 C1702 0.950 . S
H1697 C1703 0.950 . S
H1698 C1704 0.949 . S
C1699 H1694 0.950 . S
C1699 C1701 1.327 . S
C1699 C1705 1.429 . S
C1700 C1692 1.574 1_455 S
C1700 H1695 0.949 . S
C1700 C1706 1.368 . S
C1701 C1685 1.349 . S
C1701 H1693 0.950 . S
C1701 C1699 1.327 . S
C1702 C1690 1.349 . S
C1702 H1696 0.950 . S
C1702 C1703 1.327 . S
C1703 H1697 0.950 . S
C1703 C1702 1.327 . S
C1703 C1707 1.429 . S
C1704 C1687 1.574 1_655 S
C1704 H1698 0.949 . S
C1704 C1708 1.368 . S
C1705 C1686 1.429 . S
C1705 C1699 1.429 . S
C1705 C1706 1.523 . S
C1706 C1687 1.368 . S
C1706 C1700 1.368 . S
C1706 C1705 1.523 . S
C1707 C1691 1.429 . S
C1707 C1703 1.429 . S
C1707 C1708 1.523 . S
C1708 C1692 1.368 . S
C1708 C1704 1.368 . S
C1708 C1707 1.523 . S
H1709 C1684 0.950 . S
H1710 C1686 0.950 . S
H1711 C1687 0.949 . S
H1712 C1689 0.950 . S
H1713 C1691 0.950 . S
C1714 C1715 1.349 . S
C1714 C1716 1.327 . S
C1714 H1739 0.950 . S
C1715 C1714 1.349 . S
C1715 C1731 1.349 . S
C1716 C1714 1.327 . S
C1716 C1735 1.429 . S
C1716 H1740 0.950 . S
C1717 C1734 1.574 1_655 S
C1717 C1736 1.368 . S
C1717 H1741 0.949 . S
H1718 C1722 0.949 . S
C1719 C1720 1.349 . S
C1719 C1721 1.327 . S
C1719 H1742 0.950 . S
C1720 C1719 1.349 . S
C1720 C1732 1.349 . S
C1721 C1719 1.327 . S
C1721 C1737 1.429 . S
C1721 H1743 0.950 . S
C1722 H1718 0.949 . S
C1722 C1730 1.574 1_455 S
C1722 C1738 1.368 . S
H1723 C1731 0.950 . S
H1724 C1729 0.950 . S
H1725 C1730 0.949 . S
H1726 C1732 0.950 . S
H1727 C1733 0.950 . S
H1728 C1734 0.949 . S
C1729 H1724 0.950 . S
C1729 C1731 1.327 . S
C1729 C1735 1.429 . S
C1730 C1722 1.574 1_655 S
C1730 H1725 0.949 . S
C1730 C1736 1.368 . S
C1731 C1715 1.349 . S
C1731 H1723 0.950 . S
C1731 C1729 1.327 . S
C1732 C1720 1.349 . S
C1732 H1726 0.950 . S
C1732 C1733 1.327 . S
C1733 H1727 0.950 . S
C1733 C1732 1.327 . S
C1733 C1737 1.429 . S
C1734 C1717 1.574 1_455 S
C1734 H1728 0.949 . S
C1734 C1738 1.368 . S
C1735 C1716 1.429 . S
C1735 C1729 1.429 . S
C1735 C1736 1.523 . S
C1736 C1717 1.368 . S
C1736 C1730 1.368 . S
C1736 C1735 1.523 . S
C1737 C1721 1.429 . S
C1737 C1733 1.429 . S
C1737 C1738 1.523 . S
C1738 C1722 1.368 . S
C1738 C1734 1.368 . S
C1738 C1737 1.523 . S
H1739 C1714 0.950 . S
H1740 C1716 0.950 . S
H1741 C1717 0.949 . S
H1742 C1719 0.950 . S
H1743 C1721 0.950 . S
C545 C20 0.566 . S
C550 C509 0.561 . S
C575 C54 0.566 . S
C580 C543 0.561 . S
C605 C88 0.701 . S
C610 C441 0.702 . S
C635 C475 0.702 . S
C640 C122 0.701 . S
C665 C156 0.980 . S
C670 C373 0.976 . S
C695 C190 0.980 . S
C700 C407 0.976 . S
C725 C224 0.741 1_565 S
C730 C274 0.741 . S
C755 C308 0.741 . S
C760 C258 0.741 . S
C785 C292 0.566 . S
C790 C237 0.561 . S
C815 C271 0.561 . S
C820 C326 0.566 . S
C845 C360 0.701 . S
C850 C169 0.702 . S
C875 C394 0.701 . S
C880 C203 0.702 . S
C905 C428 0.980 . S
C910 C101 0.976 . S
C935 C462 0.980 . S
C940 C135 0.976 . S
C965 C2 0.741 . S
C970 C496 0.741 . S
C995 C36 0.741 . S
C1000 C530 0.741 1_545 S
C1025 C9 1.678 . S
C1030 C379 1.694 . S
C1055 C345 1.694 . S
C1060 C43 1.678 . S
C1085 C73 1.695 . S
C1090 C315 1.678 . S
C1115 C281 1.678 . S
C1120 C107 1.694 . S
C1145 C141 2.050 . S
C1150 C515 2.041 . S
C1175 C481 2.041 . S
C1180 C175 2.050 . S
C1205 C209 2.041 . S
C1210 C447 2.050 . S
C1235 C243 2.041 . S
C1240 C413 2.050 . S
C1265 C5 1.978 . S
C1270 C77 1.827 . S
C1295 C39 1.978 . S
C1300 C111 1.827 . S
C1325 C145 1.405 . S
C1330 C213 1.425 . S
C1355 C247 1.425 . S
C1360 C179 1.405 . S
C1385 C349 1.827 . S
C1390 C277 1.978 . S
C1415 C383 1.827 . S
C1420 C311 1.978 . S
C1445 C417 1.405 . S
C1450 C485 1.425 . S
C1475 C451 1.405 . S
C1480 C519 1.425 . S
C1505 C67 1.177 . S
C1510 C33 1.177 . S
C1535 C70 1.425 . S
C1540 C104 1.425 . S
C1565 C138 1.700 . S
C1570 C172 1.700 . S
C1595 C240 1.752 . S
C1600 C206 1.752 . S
C1625 C305 1.177 . S
C1630 C339 1.177 . S
C1655 C376 1.425 . S
C1660 C342 1.425 . S
C1685 C410 1.700 . S
C1690 C444 1.700 . S
C1715 C512 1.752 . S
C1720 C478 1.752 . S
