# Generated by pormake.
# Topology ecn, (8)-cn, num edge types: 1
# Building blocks:
#     Node 0, Type 0, BuildingBlock: TAGTUT_clean_sbu_1, # of connection points: 8
#     Node 1, Type 0, BuildingBlock: TAGTUT_clean_sbu_1, # of connection points: 8
#     Node 2, Type 0, BuildingBlock: TAGTUT_clean_sbu_1, # of connection points: 8
#     Node 3, Type 0, BuildingBlock: TAGTUT_clean_sbu_1, # of connection points: 8
#     Node 4, Type 0, BuildingBlock: TAGTUT_clean_sbu_1, # of connection points: 8
#     Node 5, Type 0, BuildingBlock: TAGTUT_clean_sbu_1, # of connection points: 8
#     Node 6, Type 0, BuildingBlock: TAGTUT_clean_sbu_1, # of connection points: 8
#     Node 7, Type 0, BuildingBlock: TAGTUT_clean_sbu_1, # of connection points: 8
#     Node 8, Type 0, BuildingBlock: TAGTUT_clean_sbu_1, # of connection points: 8
#     Edge 9, Type (0, 0), BuildingBlock: UVAHIK_clean_linker_0, # of connection points: 2
#     Edge 10, Type (0, 0), BuildingBlock: UVAHIK_clean_linker_0, # of connection points: 2
#     Edge 11, Type (0, 0), BuildingBlock: UVAHIK_clean_linker_0, # of connection points: 2
#     Edge 12, Type (0, 0), BuildingBlock: UVAHIK_clean_linker_0, # of connection points: 2
#     Edge 13, Type (0, 0), BuildingBlock: UVAHIK_clean_linker_0, # of connection points: 2
#     Edge 14, Type (0, 0), BuildingBlock: UVAHIK_clean_linker_0, # of connection points: 2
#     Edge 15, Type (0, 0), BuildingBlock: UVAHIK_clean_linker_0, # of connection points: 2
#     Edge 16, Type (0, 0), BuildingBlock: UVAHIK_clean_linker_0, # of connection points: 2
#     Edge 17, Type (0, 0), BuildingBlock: UVAHIK_clean_linker_0, # of connection points: 2
#     Edge 18, Type (0, 0), BuildingBlock: UVAHIK_clean_linker_0, # of connection points: 2
#     Edge 19, Type (0, 0), BuildingBlock: UVAHIK_clean_linker_0, # of connection points: 2
#     Edge 20, Type (0, 0), BuildingBlock: UVAHIK_clean_linker_0, # of connection points: 2
#     Edge 21, Type (0, 0), BuildingBlock: UVAHIK_clean_linker_0, # of connection points: 2
#     Edge 22, Type (0, 0), BuildingBlock: UVAHIK_clean_linker_0, # of connection points: 2
#     Edge 23, Type (0, 0), BuildingBlock: UVAHIK_clean_linker_0, # of connection points: 2
#     Edge 24, Type (0, 0), BuildingBlock: UVAHIK_clean_linker_0, # of connection points: 2
#     Edge 25, Type (0, 0), BuildingBlock: UVAHIK_clean_linker_0, # of connection points: 2
#     Edge 26, Type (0, 0), BuildingBlock: UVAHIK_clean_linker_0, # of connection points: 2
#     Edge 27, Type (0, 0), BuildingBlock: UVAHIK_clean_linker_0, # of connection points: 2
#     Edge 28, Type (0, 0), BuildingBlock: UVAHIK_clean_linker_0, # of connection points: 2
#     Edge 29, Type (0, 0), BuildingBlock: UVAHIK_clean_linker_0, # of connection points: 2
#     Edge 30, Type (0, 0), BuildingBlock: UVAHIK_clean_linker_0, # of connection points: 2
#     Edge 31, Type (0, 0), BuildingBlock: UVAHIK_clean_linker_0, # of connection points: 2
#     Edge 32, Type (0, 0), BuildingBlock: UVAHIK_clean_linker_0, # of connection points: 2
#     Edge 33, Type (0, 0), BuildingBlock: UVAHIK_clean_linker_0, # of connection points: 2
#     Edge 34, Type (0, 0), BuildingBlock: UVAHIK_clean_linker_0, # of connection points: 2
#     Edge 35, Type (0, 0), BuildingBlock: UVAHIK_clean_linker_0, # of connection points: 2
#     Edge 36, Type (0, 0), BuildingBlock: UVAHIK_clean_linker_0, # of connection points: 2
#     Edge 37, Type (0, 0), BuildingBlock: UVAHIK_clean_linker_0, # of connection points: 2
#     Edge 38, Type (0, 0), BuildingBlock: UVAHIK_clean_linker_0, # of connection points: 2
#     Edge 39, Type (0, 0), BuildingBlock: UVAHIK_clean_linker_0, # of connection points: 2
#     Edge 40, Type (0, 0), BuildingBlock: UVAHIK_clean_linker_0, # of connection points: 2
#     Edge 41, Type (0, 0), BuildingBlock: UVAHIK_clean_linker_0, # of connection points: 2
#     Edge 42, Type (0, 0), BuildingBlock: UVAHIK_clean_linker_0, # of connection points: 2
#     Edge 43, Type (0, 0), BuildingBlock: UVAHIK_clean_linker_0, # of connection points: 2
#     Edge 44, Type (0, 0), BuildingBlock: UVAHIK_clean_linker_0, # of connection points: 2
# Relax obj value: 0.105
# Max RMSD: 0.220
# Mean RMSD: 0.212
data_MOF--net-ecn--node1-TAGTUT_clean_sbu_1--edge1-UVAHIK_clean_linker_0
_symmetry_space_group_name_H-M    P1
_symmetry_Int_Tables_number       1
_symmetry_cell_setting            triclinic
loop_
_symmetry_equiv_pos_as_xyz
'x, y, z'
_cell_length_a     64.172974
_cell_length_b     63.388394
_cell_length_c     18.518318
_cell_angle_alpha  90.349092
_cell_angle_beta   89.359742
_cell_angle_gamma 118.2878
loop_
_atom_site_label
_atom_site_type_symbol
_atom_site_fract_x
_atom_site_fract_y
_atom_site_fract_z
_atom_type_partial_charge
C0 C 0.02624 0.19144 0.02147 0.0
C1 C 0.04762 0.15495 0.17376 0.0
C2 C 0.11706 0.23964 0.24706 0.0
Mg3 Mg 0.06458 0.17474 0.02011 0.0
O4 O 0.08197 0.20678 0.05394 0.0
Mg5 Mg 0.06981 0.21475 0.14528 0.0
Mg6 Mg 0.11565 0.21758 0.08452 0.0
O7 O 0.14813 0.22658 0.11754 0.0
Mg8 Mg 0.16657 0.25536 0.16583 0.0
Mg9 Mg 0.16084 0.2194 0.0274 0.0
C10 C 0.10973 0.19613 0.93193 0.0
C11 C 0.12117 0.16926 0.09538 0.0
O12 O 0.03626 0.20431 0.07737 0.0
O13 O 0.03415 0.17876 0.98824 0.0
O14 O 0.05147 0.17587 0.19325 0.0
O15 O 0.05315 0.15104 0.1108 0.0
O16 O 0.09562 0.17654 0.9634 0.0
O17 O 0.12601 0.21304 0.96873 0.0
C18 C 0.1085 0.26464 0.06689 0.0
O19 O 0.12268 0.25582 0.05782 0.0
O20 O 0.08825 0.25265 0.09773 0.0
O21 O 0.19399 0.22611 0.09519 0.0
O22 O 0.19555 0.24842 0.19199 0.0
O23 O 0.17928 0.25944 -0.00772 0.0
C24 C 0.20356 0.23662 0.15478 0.0
O25 O 0.17789 0.28214 0.0832 0.0
O26 O 0.1397 0.2528 0.24468 0.0
C27 C 0.18313 0.27979 0.01799 0.0
O28 O 0.10585 0.22416 0.19767 0.0
O29 O 0.10795 0.17893 0.10861 0.0
O30 O 0.14151 0.1808 0.06524 0.0
C31 C 0.77107 0.79628 0.05684 0.0
C32 C 0.73393 0.82996 0.94672 0.0
C33 C 0.81471 0.90995 0.93611 0.0
Mg34 Mg 0.74928 0.82898 0.1026 0.0
O35 O 0.7803 0.85227 0.08244 0.0
Mg36 Mg 0.7927 0.85185 0.98304 0.0
Mg37 Mg 0.78897 0.88685 0.09138 0.0
O38 O 0.79706 0.92144 0.09917 0.0
Mg39 Mg 0.82546 0.94674 0.0669 0.0
Mg40 Mg 0.78669 0.9214 0.20053 0.0
C41 C 0.75722 0.86442 0.23438 0.0
C42 C 0.74095 0.8923 0.09501 0.0
O43 O 0.78449 0.81215 0.01037 0.0
O44 O 0.75647 0.79935 0.09766 0.0
O45 O 0.75565 0.83773 0.92816 0.0
O46 O 0.72757 0.827 0.01297 0.0
O47 O 0.74507 0.84384 0.20454 0.0
O48 O 0.77647 0.88105 0.20662 0.0
C49 C 0.83736 0.88157 0.09044 0.0
O50 O 0.82644 0.89211 0.11946 0.0
O51 O 0.82817 0.86636 0.03918 0.0
O52 O 0.79505 0.96046 0.18424 0.0
O53 O 0.81856 0.97687 0.08774 0.0
O54 O 0.82605 0.93698 0.24334 0.0
C55 C 0.80634 0.97815 0.14132 0.0
O56 O 0.85002 0.94859 0.14586 0.0
O57 O 0.82523 0.93159 0.96031 0.0
C58 C 0.8468 0.9459 0.21403 0.0
O59 O 0.80101 0.89213 0.97597 0.0
O60 O 0.75173 0.88189 0.06435 0.0
O61 O 0.7503 0.90718 0.1473 0.0
C62 C 0.2089 0.97576 0.96776 0.0
C63 C 0.17894 0.90408 0.87197 0.0
C64 C 0.10067 0.89597 0.83832 0.0
Mg65 Mg 0.17758 0.92381 0.02225 0.0
O66 O 0.15361 0.93074 -0.00434 0.0
Mg67 Mg 0.15478 0.94106 0.89272 0.0
Mg68 Mg 0.12026 0.90412 0.00076 0.0
O69 O 0.08719 0.87698 0.00543 0.0
Mg70 Mg 0.06161 0.87793 0.9626 0.0
Mg71 Mg 0.08616 0.86751 0.10743 0.0
C72 C 0.14118 0.89717 0.15017 0.0
C73 C 0.12017 0.85292 0.01018 0.0
O74 O 0.19303 0.97269 0.92054 0.0
O75 O 0.20635 0.95933 0.01246 0.0
O76 O 0.17153 0.91801 0.84642 0.0
O77 O 0.18074 0.90204 0.93966 0.0
O78 O 0.16215 0.90587 0.12313 0.0
O79 O 0.12431 0.89895 0.11872 0.0
C80 C 0.11979 0.95473 -0.0105 0.0
O81 O 0.11077 0.93412 0.02003 0.0
O82 O 0.13633 0.96123 0.94156 0.0
O83 O 0.04929 0.83529 0.08598 0.0
O84 O 0.03411 0.84201 0.98554 0.0
O85 O 0.06687 0.89023 0.13819 0.0
C86 C 0.03287 0.82867 0.03881 0.0
O87 O 0.05693 0.9018 0.03515 0.0
O88 O 0.07871 0.88428 0.85662 0.0
C89 C 0.0579 0.90169 0.10421 0.0
O90 O 0.11652 0.90935 0.88297 0.0
O91 O 0.12911 0.87363 0.98012 0.0
O92 O 0.10467 0.84685 0.06134 0.0
C93 C 0.69657 0.53058 0.35182 0.0
C94 C 0.72133 0.48846 0.4708 0.0
C95 C 0.79479 0.57618 0.5345 0.0
Mg96 Mg 0.73229 0.51158 0.32017 0.0
O97 O 0.75307 0.54122 0.36092 0.0
Mg98 Mg 0.74464 0.54928 0.45769 0.0
Mg99 Mg 0.78657 0.54935 0.38151 0.0
O100 O 0.81998 0.55731 0.40215 0.0
Mg101 Mg 0.84039 0.58768 0.4387 0.0
Mg102 Mg 0.82895 0.5488 0.30643 0.0
C103 C 0.77818 0.52673 0.21939 0.0
C104 C 0.78981 0.49991 0.38412 0.0
O105 O 0.70941 0.54178 0.40607 0.0
O106 O 0.70182 0.51776 0.30904 0.0
O107 O 0.72671 0.50914 0.49769 0.0
O108 O 0.72439 0.48572 0.40386 0.0
O109 O 0.75574 0.51386 0.23019 0.0
O110 O 0.79176 0.54159 0.26679 0.0
C111 C 0.78188 0.59816 0.37278 0.0
O112 O 0.7944 0.58797 0.35514 0.0
O113 O 0.76303 0.58742 0.41168 0.0
O114 O 0.8646 0.55582 0.36308 0.0
O115 O 0.8696 0.58069 0.45644 0.0
O116 O 0.84694 0.58804 0.26425 0.0
C117 C 0.87612 0.56768 0.41907 0.0
O118 O 0.8492 0.61289 0.35295 0.0
O119 O 0.81708 0.58913 0.52243 0.0
C120 C 0.85208 0.60903 0.28698 0.0
O121 O 0.78175 0.55778 0.49611 0.0
O122 O 0.77807 0.51054 0.40526 0.0
O123 O 0.80918 0.51062 0.3479 0.0
C124 C 0.44177 0.13679 0.4222 0.0
C125 C 0.40131 0.16485 0.30503 0.0
C126 C 0.47963 0.24614 0.2756 0.0
Mg127 Mg 0.41878 0.1691 0.46013 0.0
O128 O 0.44937 0.19251 0.43527 0.0
Mg129 Mg 0.46084 0.19006 0.33623 0.0
Mg130 Mg 0.45685 0.2269 0.43665 0.0
O131 O 0.46409 0.26129 0.43701 0.0
Mg132 Mg 0.49281 0.2853 0.40053 0.0
Mg133 Mg 0.45588 0.26287 0.54037 0.0
C134 C 0.42733 0.20749 0.58361 0.0
C135 C 0.40837 0.23115 0.44468 0.0
O136 O 0.45448 0.1517 0.37256 0.0
O137 O 0.42723 0.14031 0.46201 0.0
O138 O 0.42297 0.17287 0.28569 0.0
O139 O 0.39549 0.16365 0.37148 0.0
O140 O 0.41489 0.18639 0.55725 0.0
O141 O 0.44648 0.22328 0.55323 0.0
C142 C 0.50661 0.22484 0.43291 0.0
O143 O 0.4951 0.23501 0.45936 0.0
O144 O 0.49756 0.20772 0.38706 0.0
O145 O 0.46432 0.3016 0.51862 0.0
O146 O 0.48715 0.31629 0.41965 0.0
O147 O 0.49563 0.27847 0.57768 0.0
C148 C 0.47558 0.3186 0.47343 0.0
O149 O 0.51827 0.28746 0.47759 0.0
O150 O 0.49062 0.26831 0.29499 0.0
C151 C 0.51587 0.2859 0.5462 0.0
O152 O 0.46689 0.2294 0.32002 0.0
O153 O 0.41877 0.22019 0.41484 0.0
O154 O 0.41856 0.24734 0.4933 0.0
C155 C 0.87273 0.31238 0.31042 0.0
C156 C 0.85147 0.23992 0.22718 0.0
C157 C 0.76892 0.2279 0.17294 0.0
Mg158 Mg 0.84563 0.26077 0.3718 0.0
O159 O 0.82025 0.26356 0.33447 0.0
Mg160 Mg 0.82191 0.2721 0.22941 0.0
Mg161 Mg 0.78759 0.23584 0.33992 0.0
O162 O 0.75499 0.20798 0.34384 0.0
Mg163 Mg 0.7297 0.2084 0.29646 0.0
Mg164 Mg 0.75322 0.2025 0.4495 0.0
C165 C 0.80722 0.23283 0.49403 0.0
C166 C 0.78907 0.18631 0.36887 0.0
O167 O 0.85826 0.30627 0.25699 0.0
O168 O 0.87063 0.29798 0.36168 0.0
O169 O 0.84215 0.25132 0.196 0.0
O170 O 0.85332 0.23987 0.29558 0.0
O171 O 0.82875 0.24229 0.47126 0.0
O172 O 0.79079 0.23435 0.45929 0.0
C173 C 0.78417 0.28454 0.31439 0.0
O174 O 0.77616 0.26462 0.34815 0.0
O175 O 0.8008 0.29106 0.26697 0.0
O176 O 0.71669 0.17001 0.43079 0.0
O177 O 0.70182 0.17289 0.3244 0.0
O178 O 0.7338 0.22596 0.46781 0.0
C179 C 0.70043 0.1616 0.38298 0.0
O180 O 0.72419 0.23368 0.35836 0.0
O181 O 0.74684 0.21663 0.19028 0.0
C182 C 0.72512 0.23619 0.42694 0.0
O183 O 0.78517 0.2375 0.22031 0.0
O184 O 0.79821 0.20618 0.33381 0.0
O185 O 0.77261 0.18115 0.41662 0.0
C186 C 0.36285 0.86701 0.67714 0.0
C187 C 0.38068 0.82457 0.81998 0.0
C188 C 0.45324 0.90819 0.90041 0.0
Mg189 Mg 0.39825 0.84673 0.66825 0.0
O190 O 0.41749 0.87736 0.70912 0.0
Mg191 Mg 0.40616 0.88507 0.80232 0.0
Mg192 Mg 0.45068 0.886 0.73918 0.0
O193 O 0.48292 0.89338 0.77122 0.0
Mg194 Mg 0.50216 0.92224 0.81823 0.0
Mg195 Mg 0.49482 0.88624 0.67906 0.0
C196 C 0.44423 0.86648 0.58218 0.0
C197 C 0.45388 0.83652 0.74556 0.0
O198 O 0.37315 0.87772 0.73574 0.0
O199 O 0.36975 0.85441 0.63899 0.0
O200 O 0.38659 0.84555 0.84472 0.0
O201 O 0.38481 0.82137 0.75455 0.0
O202 O 0.42818 0.84681 0.60881 0.0
O203 O 0.46031 0.88178 0.62341 0.0
C204 C 0.44633 0.93479 0.72797 0.0
O205 O 0.45948 0.92494 0.71616 0.0
O206 O 0.42611 0.92349 0.75947 0.0
O207 O 0.52806 0.89174 0.74501 0.0
O208 O 0.53073 0.91439 0.84214 0.0
O209 O 0.51394 0.9262 0.64415 0.0
C210 C 0.53809 0.90215 0.80431 0.0
O211 O 0.51336 0.949 0.73579 0.0
O212 O 0.47589 0.92112 0.89703 0.0
C213 C 0.5181 0.94657 0.67017 0.0
O214 O 0.44158 0.89208 0.85323 0.0
O215 O 0.44123 0.84678 0.75934 0.0
O216 O 0.47437 0.84764 0.71599 0.0
C217 C 0.10707 0.46658 0.7384 0.0
C218 C 0.06964 0.49715 0.61601 0.0
C219 C 0.14924 0.57616 0.58547 0.0
Mg220 Mg 0.08599 0.50078 0.7723 0.0
O221 O 0.11698 0.52328 0.74817 0.0
Mg222 Mg 0.12859 0.5199 0.65029 0.0
Mg223 Mg 0.12515 0.55782 0.74586 0.0
O224 O 0.13249 0.59223 0.74272 0.0
Mg225 Mg 0.16022 0.61707 0.70437 0.0
Mg226 Mg 0.12226 0.59486 0.84263 0.0
C227 C 0.09447 0.54003 0.89251 0.0
C228 C 0.07641 0.56202 0.74195 0.0
O229 O 0.12046 0.48114 0.68902 0.0
O230 O 0.09277 0.47091 0.77675 0.0
O231 O 0.09114 0.50402 0.59701 0.0
O232 O 0.06376 0.49639 0.68227 0.0
O233 O 0.08207 0.5187 0.86776 0.0
O234 O 0.11355 0.55558 0.86129 0.0
C235 C 0.17386 0.55346 0.75178 0.0
O236 O 0.16296 0.56476 0.77529 0.0
O237 O 0.16445 0.53646 0.70548 0.0
O238 O 0.12931 0.63266 0.81384 0.0
O239 O 0.15205 0.64684 0.71468 0.0
O240 O 0.16179 0.6121 0.88393 0.0
C241 C 0.13972 0.64906 0.76635 0.0
O242 O 0.18538 0.62214 0.78565 0.0
O243 O 0.15943 0.59853 0.60286 0.0
C244 C 0.18246 0.62082 0.85416 0.0
O245 O 0.13652 0.55966 0.63071 0.0
O246 O 0.08755 0.55123 0.71637 0.0
O247 O 0.08551 0.57828 0.79085 0.0
C248 C 0.5406 0.64646 0.62231 0.0
C249 C 0.51204 0.57233 0.54952 0.0
C250 C 0.43204 0.55967 0.51547 0.0
Mg251 Mg 0.51162 0.59649 0.69275 0.0
O252 O 0.48646 0.60114 0.66355 0.0
Mg253 Mg 0.48583 0.60772 0.55783 0.0
Mg254 Mg 0.45389 0.5735 0.67597 0.0
O255 O 0.42166 0.5453 0.68823 0.0
Mg256 Mg 0.39479 0.54307 0.64465 0.0
Mg257 Mg 0.42245 0.54013 0.7931 0.0
C258 C 0.47751 0.57276 0.82692 0.0
C259 C 0.45698 0.52458 0.7024 0.0
O260 O 0.52386 0.64137 0.57636 0.0
O261 O 0.53928 0.63182 0.67176 0.0
O262 O 0.50361 0.58472 0.51923 0.0
O263 O 0.51473 0.57272 0.61759 0.0
O264 O 0.49825 0.58145 0.7983 0.0
O265 O 0.45992 0.57288 0.79469 0.0
C266 C 0.45036 0.62197 0.64982 0.0
O267 O 0.44267 0.60235 0.68538 0.0
O268 O 0.46638 0.6279 0.60032 0.0
O269 O 0.38585 0.50647 0.78315 0.0
O270 O 0.36867 0.50779 0.67973 0.0
O271 O 0.40233 0.56271 0.8147 0.0
C272 C 0.36866 0.49724 0.73847 0.0
O273 O 0.38985 0.56876 0.70739 0.0
O274 O 0.41049 0.54731 0.53715 0.0
C275 C 0.39215 0.57193 0.77581 0.0
O276 O 0.44829 0.57427 0.55713 0.0
O277 O 0.46452 0.5441 0.66622 0.0
O278 O 0.44195 0.51933 0.75473 0.0
C279 C 0.2335 0.22158 0.14449 0.0
C280 C 0.22425 0.23467 0.18244 0.0
C281 C 0.25282 0.2196 0.17144 0.0
C282 C 0.30289 0.24917 0.29769 0.0
H283 H 0.30495 0.18902 0.29014 0.0
C284 C 0.37271 0.23728 0.45493 0.0
C285 C 0.38482 0.22673 0.41871 0.0
C286 C 0.35226 0.23621 0.42593 0.0
C287 C 0.30472 0.20599 0.29204 0.0
H288 H 0.22813 0.25573 0.27908 0.0
H289 H 0.26149 0.25212 0.32597 0.0
H290 H 0.27129 0.19162 0.23838 0.0
H291 H 0.38401 0.20551 0.3253 0.0
H292 H 0.34818 0.20373 0.27439 0.0
H293 H 0.33616 0.2636 0.35124 0.0
C294 C 0.25406 0.24366 0.27483 0.0
C295 C 0.28546 0.2075 0.26231 0.0
C296 C 0.2348 0.24564 0.24801 0.0
C297 C 0.37518 0.2139 0.35458 0.0
C298 C 0.35462 0.21285 0.3254 0.0
C299 C 0.32203 0.24766 0.32737 0.0
C300 C 0.2634 0.2307 0.23685 0.0
C301 C 0.2842 0.22907 0.26552 0.0
C302 C 0.34333 0.22461 0.35978 0.0
C303 C 0.32308 0.226 0.32578 0.0
H304 H 0.22584 0.21286 0.09385 0.0
H305 H 0.25969 0.20967 0.14045 0.0
H306 H 0.30282 0.26622 0.29962 0.0
H307 H 0.37938 0.24702 0.50493 0.0
H308 H 0.34366 0.24492 0.45482 0.0
C309 C 0.80611 0.16873 0.27957 0.0
C310 C 0.79557 0.16764 0.34745 0.0
C311 C 0.80944 0.14965 0.25475 0.0
C312 C 0.78259 0.08495 0.27312 0.0
H313 H 0.83991 0.09048 0.18366 0.0
C314 C 0.79393 1.00227 0.22047 0.0
C315 C 0.80561 1.00076 0.15747 0.0
C316 C 0.79352 0.02339 0.23871 0.0
C317 C 0.82366 0.0887 0.20743 0.0
H318 H 0.78084 0.14591 0.44333 0.0
H319 H 0.7864 0.11247 0.39962 0.0
H320 H 0.83881 0.12651 0.22767 0.0
H321 H 0.8261 0.02057 0.06414 0.0
H322 H 0.82496 0.05767 0.09555 0.0
H323 H 0.76715 0.04744 0.25215 0.0
C324 C 0.79211 0.12815 0.3657 0.0
C325 C 0.8231 0.10929 0.23299 0.0
C326 C 0.78901 0.14732 0.39082 0.0
C327 C 0.81688 0.02109 0.11292 0.0
C328 C 0.81636 0.04237 0.13117 0.0
C329 C 0.78305 0.06451 0.247 0.0
C330 C 0.80191 0.12893 0.29684 0.0
C331 C 0.80267 0.1075 0.26736 0.0
C332 C 0.80458 0.0437 0.1943 0.0
C333 C 0.80372 0.066 0.21522 0.0
H334 H 0.81085 0.18389 0.24412 0.0
H335 H 0.81686 0.15066 0.20125 0.0
H336 H 0.7664 0.08312 0.29763 0.0
H337 H 0.78523 0.98716 0.25675 0.0
H338 H 0.78478 0.02386 0.2886 0.0
C339 C 0.99109 0.79886 0.00749 0.0
C340 C 0.01186 0.8048 0.04644 0.0
C341 C 0.97111 0.77648 0.01659 0.0
C342 C 0.9524 0.71506 0.07976 0.0
H343 H 0.89246 0.71315 0.12658 0.0
C344 C 0.86754 0.65255 0.25998 0.0
C345 C 0.86361 0.62975 0.23748 0.0
C346 C 0.8818 0.67282 0.21899 0.0
C347 C 0.90902 0.71338 0.11288 0.0
H348 H 0.02805 0.7917 0.12427 0.0
H349 H 0.99332 0.75276 0.13966 0.0
H350 H 0.92626 0.75095 0.08915 0.0
H351 H 0.86997 0.61013 0.15114 0.0
H352 H 0.89512 0.64567 0.07984 0.0
H353 H 0.93563 0.67784 0.1065 0.0
C354 C 0.9925 0.76536 0.10201 0.0
C355 C 0.9283 0.73496 0.09106 0.0
C356 C 0.01234 0.78776 0.09361 0.0
C357 C 0.87285 0.62747 0.17042 0.0
C358 C 0.88731 0.64781 0.12966 0.0
C359 C 0.93312 0.69349 0.10101 0.0
C360 C 0.97165 0.75953 0.06395 0.0
C361 C 0.95036 0.73613 0.07648 0.0
C362 C 0.89258 0.67075 0.1548 0.0
C363 C 0.91143 0.69256 0.11986 0.0
H364 H 0.99014 0.8116 0.97078 0.0
H365 H 0.95527 0.77241 0.98647 0.0
H366 H 0.96914 0.71541 0.06801 0.0
H367 H 0.86044 0.65492 0.31092 0.0
H368 H 0.88558 0.69024 0.24004 0.0
C369 C 0.75847 0.75724 0.11933 0.0
C370 C 0.7742 0.77489 0.07136 0.0
C371 C 0.76343 0.73956 0.14563 0.0
C372 C 0.79321 0.70431 0.12128 0.0
H373 H 0.79437 0.70446 0.33076 0.0
C374 C 0.80368 0.63166 0.28378 0.0
C375 C 0.78783 0.62201 0.34241 0.0
C376 C 0.80676 0.65265 0.24954 0.0
C377 C 0.79402 0.70404 0.27229 0.0
H378 H 0.8067 0.78655 0.00934 0.0
H379 H 0.81502 0.7549 0.05455 0.0
H380 H 0.78949 0.73536 0.26732 0.0
H381 H 0.76344 0.62742 0.41245 0.0
H382 H 0.76843 0.66341 0.35275 0.0
H383 H 0.79643 0.67218 0.12632 0.0
C384 C 0.79903 0.75524 0.07214 0.0
C385 C 0.79136 0.72183 0.23603 0.0
C386 C 0.79419 0.77326 0.04616 0.0
C387 C 0.77582 0.6343 0.36757 0.0
C388 C 0.77884 0.65514 0.33347 0.0
C389 C 0.7956 0.68623 0.15774 0.0
C390 C 0.78406 0.7388 0.12408 0.0
C391 C 0.79029 0.72178 0.16036 0.0
C392 C 0.79405 0.66443 0.27329 0.0
C393 C 0.79532 0.68549 0.23386 0.0
H394 H 0.74275 0.75764 0.13941 0.0
H395 H 0.75141 0.72684 0.18473 0.0
H396 H 0.79241 0.70392 0.06286 0.0
H397 H 0.81304 0.62253 0.26255 0.0
H398 H 0.81881 0.65942 0.20385 0.0
C399 C 0.25073 1.00016 0.00705 0.0
C400 C 0.23058 0.99924 0.97482 0.0
C401 C 0.2702 0.02205 0.024 0.0
C402 C 0.28554 0.08378 0.07199 0.0
H403 H 0.34923 0.09164 0.06579 0.0
C404 C 0.38773 0.1506 0.17852 0.0
C405 C 0.38231 0.15384 0.2502 0.0
C406 C 0.36974 0.13639 0.13048 0.0
C407 C 0.3317 0.09011 0.06695 0.0
H408 H 0.2155 0.02078 0.93265 0.0
H409 H 0.24978 0.05937 0.96267 0.0
H410 H 0.31761 0.05798 0.00389 0.0
H411 H 0.35345 0.14612 0.32557 0.0
H412 H 0.32227 0.1211 0.24272 0.0
H413 H 0.29963 0.11579 0.13607 0.0
C414 C 0.25033 0.04296 0.97492 0.0
C415 C 0.31346 0.07057 0.03201 0.0
C416 C 0.2308 0.02089 0.95713 0.0
C417 C 0.35835 0.1439 0.271 0.0
C418 C 0.34038 0.12963 0.2231 0.0
C419 C 0.30383 0.10339 0.10699 0.0
C420 C 0.27012 0.04375 0.00965 0.0
C421 C 0.29001 0.06672 0.03595 0.0
C422 C 0.34586 0.12499 0.15293 0.0
C423 C 0.32705 0.10644 0.10669 0.0
H424 H 0.25121 0.98384 0.02124 0.0
H425 H 0.28493 0.02186 0.05149 0.0
H426 H 0.26769 0.08135 0.07639 0.0
H427 H 0.40594 0.15804 0.16037 0.0
H428 H 0.37463 0.13368 0.07641 0.0
C429 C 1.00197 0.21121 -0.00642 0.0
C430 C 1.00376 0.19008 -0.00073 0.0
C431 C 0.97981 0.21022 -0.00875 0.0
C432 C 0.93004 0.1832 0.09146 0.0
H433 H 0.89811 0.20648 0.9635 0.0
C434 C 0.86215 0.20713 0.21201 0.0
C435 C 0.86112 0.22701 0.18324 0.0
C436 C 0.87308 0.19604 0.1736 0.0
C437 C 0.90689 0.20015 0.00037 0.0
H438 H 0.98421 0.15135 0.0027 0.0
H439 H 0.94518 0.14968 0.0024 0.0
H440 H 0.93044 0.19995 0.91699 0.0
H441 H 0.87027 0.25066 0.091 0.0
H442 H 0.89164 0.23318 0.02724 0.0
H443 H 0.90919 0.18586 0.17675 0.0
C444 C 0.96093 0.16687 -0.00291 0.0
C445 C 0.92513 0.19607 0.97314 0.0
C446 C 0.98317 0.16783 -0.00267 0.0
C447 C 0.87077 0.23528 0.11438 0.0
C448 C 0.88283 0.22497 0.07741 0.0
C449 C 0.91247 0.18798 0.11919 0.0
C450 C 0.95918 0.18812 -0.00346 0.0
C451 C 0.93703 0.18793 0.01899 0.0
C452 C 0.88474 0.20554 0.1074 0.0
C453 C 0.90091 0.19709 0.07459 0.0
H454 H 0.01768 0.22854 -0.00451 0.0
H455 H 0.97879 0.22681 -0.00794 0.0
H456 H 0.93938 0.17736 0.128 0.0
H457 H 0.85485 0.20035 0.26501 0.0
H458 H 0.87302 0.18049 0.19758 0.0
C459 C 0.90964 0.57897 0.50494 0.0
C460 C 0.89722 0.56587 0.44399 0.0
C461 C 0.9289 0.57697 0.53128 0.0
C462 C 0.95722 0.53796 0.53221 0.0
H463 H 0.00971 0.59527 0.60948 0.0
C464 C 0.04507 0.54395 0.64606 0.0
C465 C 0.05355 0.55757 0.70966 0.0
C466 C 0.02532 0.54277 0.61053 0.0
C467 C 0.99512 0.57905 0.58861 0.0
H468 H 0.8956 0.54029 0.36296 0.0
H469 H 0.92968 0.53703 0.40878 0.0
H470 H 0.97767 0.59815 0.54954 0.0
H471 H 0.04695 0.57947 0.7877 0.0
H472 H 0.01285 0.57746 0.72599 0.0
H473 H 0.9751 0.51898 0.57148 0.0
C474 C 0.9242 0.54872 0.43642 0.0
C475 C 0.97671 0.58068 0.55422 0.0
C476 C 0.90477 0.55072 0.40985 0.0
C477 C 0.04114 0.569 0.73856 0.0
C478 C 0.02162 0.56796 0.70295 0.0
C479 C 0.97586 0.53634 0.56638 0.0
C480 C 0.93654 0.5619 0.49746 0.0
C481 C 0.95721 0.56012 0.52706 0.0
C482 C 0.01385 0.5554 0.63754 0.0
C483 C 0.99473 0.55683 0.59646 0.0
H484 H 0.90438 0.59073 0.53323 0.0
H485 H 0.93757 0.58702 0.57925 0.0
H486 H 0.94246 0.52173 0.51218 0.0
H487 H 0.05424 0.53504 0.62199 0.0
H488 H 0.01974 0.53291 0.56027 0.0
C489 C 0.47077 0.50668 0.605 0.0
C490 C 0.46383 0.50653 0.67734 0.0
C491 C 0.4756 0.48877 0.5787 0.0
C492 C 0.48791 0.43989 0.63767 0.0
H493 H 0.46389 0.41331 0.44855 0.0
C494 C 0.46806 0.34551 0.55585 0.0
C495 C 0.47626 0.34191 0.48848 0.0
C496 C 0.46963 0.36755 0.57366 0.0
C497 C 0.47105 0.42083 0.50087 0.0
H498 H 0.45619 0.48731 0.77871 0.0
H499 H 0.46425 0.4557 0.73267 0.0
H500 H 0.46075 0.44822 0.49143 0.0
H501 H 0.4922 0.35874 0.38639 0.0
H502 H 0.49443 0.39754 0.41745 0.0
H503 H 0.49721 0.41179 0.64815 0.0
C504 C 0.46657 0.47005 0.69658 0.0
C505 C 0.46928 0.44083 0.52557 0.0
C506 C 0.46179 0.48804 0.72295 0.0
C507 C 0.48573 0.36093 0.43867 0.0
C508 C 0.487 0.38308 0.45635 0.0
C509 C 0.48948 0.41982 0.61323 0.0
C510 C 0.4734 0.47012 0.62396 0.0
C511 C 0.47723 0.45028 0.59496 0.0
C512 C 0.47924 0.3866 0.52449 0.0
C513 C 0.48059 0.40979 0.54532 0.0
H514 H 0.47202 0.52042 0.56801 0.0
H515 H 0.48102 0.48955 0.52275 0.0
H516 H 0.49474 0.44703 0.69057 0.0
H517 H 0.46069 0.33137 0.59583 0.0
H518 H 0.46314 0.36965 0.62605 0.0
C519 C 0.54209 0.968 0.56103 0.0
C520 C 0.52998 0.96822 0.6245 0.0
C521 C 0.5561 0.98928 0.52369 0.0
C522 C 0.59009 0.05325 0.56441 0.0
H523 H 0.60519 0.05883 0.35967 0.0
C524 C 0.65858 0.13034 0.35636 0.0
C525 C 0.67906 0.13859 0.39864 0.0
C526 C 0.63788 0.10964 0.37628 0.0
C527 C 0.60094 0.0576 0.41678 0.0
H528 H 0.52123 0.99048 0.69468 0.0
H529 H 0.54504 0.02738 0.62844 0.0
H530 H 0.57121 0.02255 0.40601 0.0
H531 H 0.69417 0.13078 0.49272 0.0
H532 H 0.65842 0.09492 0.5266 0.0
H533 H 0.61978 0.08803 0.57561 0.0
C534 C 0.54443 0.01096 0.60887 0.0
C535 C 0.58164 0.0368 0.4434 0.0
C536 C 0.53073 0.98979 0.64676 0.0
C537 C 0.67867 0.12521 0.45937 0.0
C538 C 0.65812 0.10468 0.47912 0.0
C539 C 0.60927 0.07391 0.53792 0.0
C540 C 0.55805 0.01114 0.54866 0.0
C541 C 0.57632 0.0342 0.51783 0.0
C542 C 0.63736 0.09695 0.43884 0.0
C543 C 0.6153 0.07606 0.46424 0.0
H544 H 0.54179 0.95164 0.54229 0.0
H545 H 0.56646 0.98876 0.47782 0.0
H546 H 0.58678 0.05183 0.62211 0.0
H547 H 0.65831 0.14022 0.30918 0.0
H548 H 0.62211 0.10402 0.34419 0.0
C549 C 0.43102 0.09981 0.49416 0.0
C550 C 0.44526 0.11584 0.44011 0.0
C551 C 0.43602 0.08216 0.52019 0.0
C552 C 0.46232 0.04405 0.48522 0.0
H553 H 0.46641 0.04389 0.69413 0.0
C554 C 0.46939 0.96829 0.64068 0.0
C555 C 0.45347 0.95904 0.69927 0.0
C556 C 0.47367 0.98987 0.60793 0.0
C557 C 0.46532 0.04363 0.63578 0.0
H558 H 0.47519 0.12476 0.36806 0.0
H559 H 0.48357 0.09312 0.41309 0.0
H560 H 0.46302 0.07621 0.63418 0.0
H561 H 0.43015 0.96556 0.77077 0.0
H562 H 0.43738 0.00284 0.71392 0.0
H563 H 0.46332 0.0107 0.48718 0.0
C564 C 0.46873 0.09474 0.43553 0.0
C565 C 0.46347 0.0622 0.60149 0.0
C566 C 0.46388 0.11276 0.40974 0.0
C567 C 0.44256 0.9722 0.72589 0.0
C568 C 0.44686 0.99372 0.69349 0.0
C569 C 0.46397 0.02525 0.51971 0.0
C570 C 0.45522 0.07979 0.49252 0.0
C571 C 0.46119 0.0622 0.52617 0.0
C572 C 0.46217 0.00267 0.63341 0.0
C573 C 0.46467 0.02444 0.59565 0.0
H574 H 0.41636 0.10132 0.51848 0.0
H575 H 0.42505 0.07055 0.56317 0.0
H576 H 0.46055 0.04366 0.42706 0.0
H577 H 0.47783 0.95839 0.61831 0.0
H578 H 0.48568 0.99635 0.56209 0.0
C579 C 0.05521 0.48286 0.48998 0.0
C580 C 0.05059 0.48741 0.56123 0.0
C581 C 0.03655 0.46992 0.4424 0.0
C582 C 0.97062 0.4435 0.42311 0.0
H583 H 0.97643 0.39255 0.32335 0.0
C584 C 0.89459 0.34891 0.3844 0.0
C585 C 0.89164 0.33736 0.31751 0.0
C586 C 0.91367 0.37157 0.3958 0.0
C587 C 0.97467 0.40696 0.3495 0.0
H588 H 0.02277 0.48352 0.63625 0.0
H589 H 0.99055 0.46072 0.55485 0.0
H590 H 0.0113 0.42539 0.37715 0.0
H591 H 0.906 0.34046 0.20946 0.0
H592 H 0.94033 0.38016 0.23046 0.0
H593 H 0.93355 0.42388 0.40008 0.0
C594 C 0.00846 0.46721 0.5348 0.0
C595 C 0.99468 0.42588 0.38034 0.0
C596 C 0.02703 0.48017 0.58206 0.0
C597 C 0.90786 0.34914 0.26132 0.0
C598 C 0.92746 0.37171 0.2734 0.0
C599 C 0.95059 0.42442 0.39321 0.0
C600 C 0.01287 0.46122 0.46502 0.0
C601 C 0.99276 0.44395 0.41996 0.0
C602 C 0.93059 0.38302 0.34107 0.0
C603 C 0.95229 0.40557 0.35824 0.0
H604 H 0.07314 0.48829 0.47192 0.0
H605 H 0.04068 0.46608 0.38865 0.0
H606 H 0.96852 0.45738 0.45143 0.0
H607 H 0.88229 0.34017 0.42854 0.0
H608 H 0.91578 0.3797 0.44871 0.0
C609 C 0.52552 0.54157 0.53939 0.0
C610 C 0.52119 0.55887 0.50564 0.0
C611 C 0.53868 0.53228 0.50454 0.0
C612 C 0.58609 0.5395 0.46137 0.0
H613 H 0.59459 0.52809 0.25979 0.0
C614 C 0.67451 0.55362 0.36456 0.0
C615 C 0.67497 0.53281 0.34038 0.0
C616 C 0.65337 0.55467 0.36704 0.0
C617 C 0.59219 0.53106 0.31624 0.0
H618 H 0.52556 0.57848 0.40618 0.0
H619 H 0.55016 0.56334 0.34663 0.0
H620 H 0.55894 0.53075 0.29839 0.0
H621 H 0.6541 0.49754 0.29384 0.0
H622 H 0.61656 0.49928 0.29959 0.0
H623 H 0.61926 0.54043 0.47958 0.0
C624 C 0.54267 0.55646 0.39942 0.0
C625 C 0.57196 0.53268 0.33822 0.0
C626 C 0.52873 0.56526 0.43372 0.0
C627 C 0.65416 0.51376 0.31295 0.0
C628 C 0.63278 0.51477 0.31595 0.0
C629 C 0.60613 0.53807 0.43952 0.0
C630 C 0.5488 0.54086 0.4363 0.0
C631 C 0.56882 0.53704 0.41116 0.0
C632 C 0.63217 0.53489 0.34588 0.0
C633 C 0.6096 0.53424 0.36682 0.0
H634 H 0.51994 0.53618 0.59464 0.0
H635 H 0.5425 0.51973 0.53355 0.0
H636 H 0.58461 0.54341 0.51764 0.0
H637 H 0.69037 0.56876 0.38472 0.0
H638 H 0.65334 0.57047 0.38961 0.0
C639 C 0.56767 0.88663 0.79168 0.0
C640 C 0.55865 0.89968 0.83089 0.0
C641 C 0.58696 0.88433 0.81756 0.0
C642 C 0.63721 0.913 0.94421 0.0
H643 H 0.63916 0.85285 0.93198 0.0
C644 C 0.70557 0.89901 0.10283 0.0
C645 C 0.71793 0.88874 0.0665 0.0
C646 C 0.68552 0.8985 0.07255 0.0
C647 C 0.63896 0.86982 0.93516 0.0
H648 H 0.56286 0.92027 0.92885 0.0
H649 H 0.59606 0.91606 0.9739 0.0
H650 H 0.60567 0.85595 0.88084 0.0
H651 H 0.71802 0.86875 0.97106 0.0
H652 H 0.6828 0.86782 0.91809 0.0
H653 H 0.67028 0.92689 -0.00128 0.0
C654 C 0.58855 0.90793 0.9225 0.0
C655 C 0.6198 0.87163 0.90577 0.0
C656 C 0.56935 0.91023 0.89673 0.0
C657 C 0.70896 0.87685 0.00055 0.0
C658 C 0.68876 0.87631 0.97017 0.0
C659 C 0.65623 0.91119 0.97361 0.0
C660 C 0.59772 0.89507 0.88319 0.0
C661 C 0.61854 0.89318 0.91082 0.0
C662 C 0.6772 0.88772 0.00502 0.0
C663 C 0.65723 0.88951 0.97044 0.0
H664 H 0.55989 0.87823 0.7408 0.0
H665 H 0.59367 0.87447 0.78556 0.0
H666 H 0.63719 0.93006 0.94753 0.0
H667 H 0.7117 0.90805 0.15411 0.0
H668 H 0.6767 0.90693 0.10173 0.0
C669 C 0.12229 0.67206 0.82862 0.0
C670 C 0.13751 0.67123 0.77473 0.0
C671 C 0.12095 0.69297 0.84205 0.0
C672 C 0.15414 0.75849 0.82213 0.0
H673 H 0.09445 0.75318 0.89048 0.0
C674 C 0.13487 0.83713 0.9085 0.0
C675 C 0.1257 0.83455 0.97921 0.0
C676 C 0.13784 0.81875 0.87598 0.0
C677 C 0.11121 0.7549 0.87138 0.0
H678 H 0.16291 0.69188 0.69133 0.0
H679 H 0.16022 0.72874 0.71417 0.0
H680 H 0.09554 0.71818 0.83985 0.0
H681 H 0.11233 0.81054 0.07103 0.0
H682 H 0.11693 0.77817 0.01329 0.0
H683 H 0.16953 0.79559 0.8532 0.0
C684 C 0.14957 0.71303 0.74661 0.0
C685 C 0.11191 0.73488 0.84259 0.0
C686 C 0.15099 0.69189 0.73316 0.0
C687 C 0.11962 0.81319 0.01678 0.0
C688 C 0.1222 0.79467 0.9838 0.0
C689 C 0.15333 0.77873 0.84985 0.0
C690 C 0.13458 0.71379 0.80159 0.0
C691 C 0.1335 0.73616 0.82005 0.0
C692 C 0.13113 0.79723 0.91297 0.0
C693 C 0.13196 0.77682 0.87675 0.0
H694 H 0.11159 0.65659 0.86196 0.0
H695 H 0.10963 0.69292 0.88592 0.0
H696 H 0.17107 0.76012 0.80557 0.0
H697 H 0.13902 0.85304 0.87726 0.0
H698 H 0.1445 0.82098 0.821 0.0
C699 C 0.20902 0.30143 0.91218 0.0
C700 C 0.19596 0.3016 0.97341 0.0
C701 C 0.22434 0.32285 0.87741 0.0
C702 C 0.25939 0.38655 0.92227 0.0
H703 H 0.27613 0.39324 0.71873 0.0
C704 C 0.34774 0.46193 0.82052 0.0
C705 C 0.34778 0.47412 0.75731 0.0
C706 C 0.32764 0.44099 0.84124 0.0
C707 C 0.2715 0.39172 0.77558 0.0
H708 H 0.18698 0.32407 0.04188 0.0
H709 H 0.21321 0.36128 0.98025 0.0
H710 H 0.24182 0.35681 0.76197 0.0
H711 H 0.32677 0.47339 0.6653 0.0
H712 H 0.29155 0.43679 0.70198 0.0
H713 H 0.2889 0.42134 0.93615 0.0
C714 C 0.21226 0.34473 0.96053 0.0
C715 C 0.25198 0.37079 0.80043 0.0
C716 C 0.19715 0.32338 -0.0043 0.0
C717 C 0.32737 0.46447 0.71432 0.0
C718 C 0.3072 0.44346 0.73517 0.0
C719 C 0.27883 0.40738 0.89751 0.0
C720 C 0.22673 0.34484 0.90279 0.0
C721 C 0.24589 0.36784 0.87428 0.0
C722 C 0.30702 0.43169 0.79945 0.0
C723 C 0.28538 0.41006 0.82416 0.0
H724 H 0.20847 0.28495 0.89349 0.0
H725 H 0.23528 0.32227 0.83332 0.0
H726 H 0.25547 0.38481 0.97963 0.0
H727 H 0.36317 0.46868 0.8547 0.0
H728 H 0.32825 0.43207 0.89027 0.0
C729 C 0.13255 0.29932 0.98372 0.0
C730 C 0.11461 0.2885 0.0364 0.0
C731 C 0.1363 0.32055 0.94956 0.0
C732 C 0.12223 0.37099 0.96693 0.0
H733 H 0.1271 0.37405 0.7578 0.0
C734 C 0.09323 0.42847 0.80731 0.0
C735 C 0.10945 0.44509 0.75792 0.0
C736 C 0.09709 0.41042 0.83633 0.0
C737 C 0.12609 0.37357 0.81624 0.0
H738 H 0.08706 0.29195 0.09585 0.0
H739 H 0.0934 0.32852 0.03652 0.0
H740 H 0.12917 0.34135 0.82212 0.0
H741 H 0.14174 0.45463 0.69687 0.0
H742 H 0.14823 0.42241 0.74723 0.0
H743 H 0.11812 0.4025 0.96108 0.0
C744 C 0.10481 0.3209 0.02184 0.0
C745 C 0.12735 0.35493 0.85315 0.0
C746 C 0.10105 0.29976 0.05565 0.0
C747 C 0.1289 0.44216 0.73476 0.0
C748 C 0.13267 0.42379 0.76367 0.0
C749 C 0.12079 0.38939 0.93019 0.0
C750 C 0.12226 0.33144 0.96773 0.0
C751 C 0.1247 0.35304 0.92886 0.0
C752 C 0.11716 0.40827 0.81652 0.0
C753 C 0.12201 0.3905 0.85443 0.0
H754 H 0.14316 0.29098 0.96712 0.0
H755 H 0.15001 0.3283 0.90851 0.0
H756 H 0.12073 0.37045 0.02529 0.0
H757 H 0.07786 0.42987 0.82584 0.0
H758 H 0.08457 0.39838 0.87579 0.0
C759 C 0.69125 0.81135 0.91112 0.0
C760 C 0.71522 0.82115 0.89061 0.0
C761 C 0.67329 0.79859 0.86159 0.0
C762 C 0.6365 0.77458 0.74555 0.0
H763 H 0.64969 0.73073 0.6316 0.0
C764 C 0.56135 0.69139 0.60588 0.0
C765 C 0.56218 0.67014 0.62167 0.0
C766 C 0.5811 0.71381 0.61913 0.0
C767 C 0.64569 0.74291 0.66272 0.0
H768 H 0.73896 0.82724 0.79955 0.0
H769 H 0.70759 0.80537 0.7127 0.0
H770 H 0.6818 0.76394 0.69341 0.0
H771 H 0.58474 0.6557 0.65901 0.0
H772 H 0.6188 0.69425 0.68138 0.0
H773 H 0.60005 0.7524 0.7187 0.0
C774 C 0.70269 0.80692 0.76785 0.0
C775 C 0.66422 0.76222 0.69763 0.0
C776 C 0.72072 0.81965 0.81761 0.0
C777 C 0.5835 0.67175 0.64648 0.0
C778 C 0.60315 0.69394 0.65886 0.0
C779 C 0.61792 0.75517 0.71081 0.0
C780 C 0.67875 0.79538 0.78989 0.0
C781 C 0.65979 0.77784 0.74174 0.0
C782 C 0.60209 0.71531 0.64727 0.0
C783 C 0.62217 0.73855 0.67122 0.0
H784 H 0.68628 0.81235 0.96661 0.0
H785 H 0.65517 0.78995 0.88108 0.0
H786 H 0.63243 0.78649 0.77779 0.0
H787 H 0.54511 0.69071 0.58716 0.0
H788 H 0.57973 0.72992 0.60914 0.0
C789 C 0.34034 0.88975 0.67368 0.0
C790 C 0.34167 0.86884 0.65616 0.0
C791 C 0.31883 0.89006 0.67055 0.0
C792 C 0.26979 0.86657 0.7446 0.0
H793 H 0.22832 0.8723 0.60431 0.0
C794 C 0.19064 0.87236 0.84983 0.0
C795 C 0.18796 0.89162 0.8232 0.0
C796 C 0.20344 0.86345 0.81097 0.0
C797 C 0.23969 0.87056 0.64395 0.0
H798 H 0.32214 0.83257 0.61538 0.0
H799 H 0.284 0.83297 0.61183 0.0
H800 H 0.26404 0.87027 0.56316 0.0
H801 H 0.19508 0.91543 0.73202 0.0
H802 H 0.21924 0.90111 0.66632 0.0
H803 H 0.24701 0.86821 0.82572 0.0
C804 C 0.29981 0.84916 0.6266 0.0
C805 C 0.25994 0.86925 0.62034 0.0
C806 C 0.32154 0.84892 0.62896 0.0
C807 C 0.19694 0.90063 0.75409 0.0
C808 C 0.21065 0.89228 0.71619 0.0
C809 C 0.24981 0.86788 0.76805 0.0
C810 C 0.29824 0.86944 0.65028 0.0
C811 C 0.27526 0.86769 0.67094 0.0
C812 C 0.21505 0.87444 0.74627 0.0
C813 C 0.2346 0.8702 0.71834 0.0
H814 H 0.35566 0.90542 0.69408 0.0
H815 H 0.3179 0.90581 0.68952 0.0
H816 H 0.28154 0.86555 0.78442 0.0
H817 H 0.18395 0.86496 0.9028 0.0
H818 H 0.20571 0.84907 0.8345 0.0
C819 C 0.09915 0.96929 0.0764 0.0
C820 C 0.1111 0.9717 0.01033 0.0
C821 C 0.09219 0.98628 0.09732 0.0
C822 C 0.09962 0.03602 0.14384 0.0
H823 H 0.07729 0.06534 0.00238 0.0
C824 C 0.12767 0.13579 0.13804 0.0
C825 C 0.11237 0.1437 0.11016 0.0
C826 C 0.12058 0.11135 0.14219 0.0
C827 C 0.08299 0.05712 0.04338 0.0
H828 H 0.12433 0.99319 0.91329 0.0
H829 H 0.1123 0.02272 0.94971 0.0
H830 H 0.07633 0.02733 0.97488 0.0
H831 H 0.07783 0.13255 0.06465 0.0
H832 H 0.06504 0.08973 0.07362 0.0
H833 H 0.10721 0.06636 0.21117 0.0
C834 C 0.10815 0.00769 0.98519 0.0
C835 C 0.08264 0.03545 0.02724 0.0
C836 C 0.11528 0.99092 0.96468 0.0
C837 C 0.0896 0.12684 0.08869 0.0
C838 C 0.08245 0.10236 0.09278 0.0
C839 C 0.1 0.05776 0.16002 0.0
C840 C 0.09682 0.00574 0.05205 0.0
C841 C 0.09193 0.02527 0.07596 0.0
C842 C 0.09812 0.09438 0.11774 0.0
C843 C 0.09264 0.06903 0.10863 0.0
H844 H 0.09574 0.95467 0.11277 0.0
H845 H 0.08346 0.98438 0.14911 0.0
H846 H 0.1069 0.02855 0.1824 0.0
H847 H 0.14544 0.14855 0.1542 0.0
H848 H 0.13326 0.10585 0.1604 0.0
C849 C 0.03614 0.11329 0.21289 0.0
C850 C 0.03334 0.13386 0.22 0.0
C851 C 0.01897 0.09129 0.23983 0.0
C852 C 0.96295 0.05917 0.346 0.0
H853 H 0.94633 0.01447 0.18643 0.0
C854 C 0.87001 0.9768 0.30608 0.0
C855 C 0.86836 0.95885 0.25787 0.0
C856 C 0.89222 0.99596 0.32353 0.0
C857 C 0.95088 0.02621 0.2329 0.0
H858 H 0.01142 0.14799 0.2669 0.0
H859 H 0.98103 0.1093 0.31312 0.0
H860 H 0.98167 0.05241 0.17866 0.0
H861 H 0.88875 0.94601 0.1957 0.0
H862 H 0.92695 0.97686 0.23409 0.0
H863 H 0.93159 0.03276 0.39958 0.0
C864 C 0.99667 0.11025 0.28724 0.0
C865 C 0.97129 0.04823 0.22809 0.0
C866 C 0.01409 0.13243 0.26078 0.0
C867 C 0.88927 0.95886 0.23507 0.0
C868 C 0.91133 0.97724 0.25517 0.0
C869 C 0.94247 0.03679 0.35129 0.0
C870 C 0.99838 0.08924 0.27372 0.0
C871 C 0.97755 0.06511 0.28409 0.0
C872 C 0.91315 0.9971 0.29453 0.0
C873 C 0.93604 0.02004 0.29438 0.0
H874 H 0.05092 0.11389 0.18277 0.0
H875 H 0.02113 0.07556 0.23007 0.0
H876 H 0.96729 0.07183 0.39005 0.0
H877 H 0.8542 0.9776 0.32326 0.0
H878 H 0.89275 0.01079 0.35417 0.0
C879 C 0.87493 0.87921 0.07406 0.0
C880 C 0.86116 0.88666 0.11592 0.0
C881 C 0.89726 0.88359 0.09697 0.0
C882 C 0.94909 0.92424 0.18807 0.0
H883 H 0.96247 0.87075 0.19923 0.0
C884 C 0.03059 0.89814 0.20622 0.0
C885 C 0.04321 0.91033 0.144 0.0
C886 C 0.01033 0.89954 0.22829 0.0
C887 C 0.95905 0.88592 0.19802 0.0
H888 H 0.85984 0.90377 0.21621 0.0
H889 H 0.89971 0.91242 0.25496 0.0
H890 H 0.92172 0.86321 0.18688 0.0
H891 H 0.04638 0.93607 0.06231 0.0
H892 H 0.01151 0.93894 0.10173 0.0
H893 H 0.9867 0.94698 0.19385 0.0
C894 C 0.89292 0.90315 0.20436 0.0
C895 C 0.93572 0.88155 0.19047 0.0
C896 C 0.87024 0.89834 0.18195 0.0
C897 C 0.037 0.92638 0.11031 0.0
C898 C 0.01696 0.92803 0.13297 0.0
C899 C 0.97259 0.92864 0.19437 0.0
C900 C 0.90656 0.89575 0.16192 0.0
C901 C 0.93059 0.90063 0.18354 0.0
C902 C 1.00257 0.91346 0.18929 0.0
C903 C 0.97786 0.90949 0.19758 0.0
H904 H 0.86855 0.87005 0.02307 0.0
H905 H 0.90749 0.87777 0.06321 0.0
H906 H 0.94553 0.93923 0.18234 0.0
H907 H 0.03484 0.8856 0.23339 0.0
H908 H 0.99976 0.88837 0.27257 0.0
C909 C 0.7682 0.3024 0.40556 0.0
C910 C 0.77491 0.30108 0.33386 0.0
C911 C 0.76085 0.31918 0.4252 0.0
C912 C 0.74092 0.36048 0.34934 0.0
H913 H 0.7775 0.40343 0.50331 0.0
C914 C 0.77971 0.46027 0.33333 0.0
C915 C 0.77949 0.47389 0.3929 0.0
C916 C 0.77064 0.43565 0.3394 0.0
C917 C 0.76655 0.39125 0.46171 0.0
H918 H 0.77891 0.31578 0.22633 0.0
H919 H 0.76605 0.34506 0.26028 0.0
H920 H 0.77726 0.36502 0.4884 0.0
H921 H 0.76932 0.47274 0.50527 0.0
H922 H 0.75425 0.42911 0.51713 0.0
H923 H 0.73176 0.38757 0.31929 0.0
C924 C 0.76613 0.33297 0.30124 0.0
C925 C 0.76646 0.36928 0.45299 0.0
C926 C 0.77374 0.31642 0.28186 0.0
C927 C 0.76972 0.46247 0.45881 0.0
C928 C 0.76109 0.43767 0.46547 0.0
C929 C 0.74106 0.38241 0.358 0.0
C930 C 0.75987 0.33472 0.37324 0.0
C931 C 0.75472 0.35435 0.39421 0.0
C932 C 0.76151 0.42412 0.40557 0.0
C933 C 0.75496 0.39852 0.41171 0.0
H934 H 0.76911 0.29081 0.44677 0.0
H935 H 0.75615 0.32017 0.48102 0.0
H936 H 0.73131 0.34904 0.30457 0.0
H937 H 0.78699 0.46873 0.28179 0.0
H938 H 0.7716 0.42572 0.29277 0.0
C939 C 0.69169 0.46551 0.56799 0.0
C940 C 0.70775 0.46643 0.51428 0.0
C941 C 0.67438 0.4434 0.59506 0.0
C942 C 0.64287 0.38022 0.53285 0.0
H943 H 0.60871 0.36994 0.71426 0.0
C944 C 0.5571 0.29427 0.5698 0.0
C945 C 0.53796 0.29826 0.58771 0.0
C946 C 0.58031 0.3118 0.58352 0.0
C947 C 0.61815 0.3725 0.66351 0.0
H948 H 0.7196 0.44505 0.45191 0.0
H949 H 0.69096 0.40693 0.50287 0.0
H950 H 0.64592 0.40688 0.69559 0.0
H951 H 0.52784 0.32256 0.64088 0.0
H952 H 0.56834 0.3533 0.66489 0.0
H953 H 0.61506 0.34635 0.49984 0.0
C954 C 0.69076 0.42303 0.52178 0.0
C955 C 0.63945 0.39374 0.65259 0.0
C956 C 0.70756 0.445 0.49338 0.0
C957 C 0.54227 0.31887 0.62738 0.0
C958 C 0.56555 0.33658 0.64067 0.0
C959 C 0.62184 0.35904 0.544 0.0
C960 C 0.67305 0.42175 0.56995 0.0
C961 C 0.65192 0.39811 0.58644 0.0
C962 C 0.58486 0.33385 0.61478 0.0
C963 C 0.60893 0.35501 0.60887 0.0
H964 H 0.69122 0.48168 0.58478 0.0
H965 H 0.6611 0.4433 0.63181 0.0
H966 H 0.65135 0.38295 0.48038 0.0
H967 H 0.55418 0.27845 0.53995 0.0
H968 H 0.59473 0.30879 0.56466 0.0
C969 C 0.54911 0.25318 0.41342 0.0
C970 C 0.53152 0.23392 0.45196 0.0
C971 C 0.57299 0.2603 0.42547 0.0
C972 C 0.6151 0.2532 0.54739 0.0
H973 H 0.64992 0.26046 0.36896 0.0
C974 C 0.69664 0.23744 0.51786 0.0
C975 C 0.71177 0.24775 0.45821 0.0
C976 C 0.67785 0.24241 0.5312 0.0
C977 C 0.64087 0.25918 0.41974 0.0
H978 H 0.52454 0.20715 0.53376 0.0
H979 H 0.56641 0.21938 0.55473 0.0
H980 H 0.61061 0.25637 0.36492 0.0
H981 H 0.72068 0.27325 0.37087 0.0
H982 H 0.68968 0.28367 0.39821 0.0
H983 H 0.64539 0.25534 0.60192 0.0
C984 C 0.5619 0.22934 0.51628 0.0
C985 C 0.61814 0.25673 0.41726 0.0
C986 C 0.53799 0.22222 0.50407 0.0
C987 C 0.70954 0.26523 0.4178 0.0
C988 C 0.69136 0.2708 0.43257 0.0
C989 C 0.63805 0.2558 0.54996 0.0
C990 C 0.57967 0.24812 0.47591 0.0
C991 C 0.60479 0.25331 0.48079 0.0
C992 C 0.67422 0.25815 0.48591 0.0
C993 C 0.65111 0.25847 0.48594 0.0
H994 H 0.54436 0.26236 0.37287 0.0
H995 H 0.58624 0.27502 0.39416 0.0
H996 H 0.60532 0.2508 0.59739 0.0
H997 H 0.69774 0.22366 0.54939 0.0
H998 H 0.66507 0.23232 0.57287 0.0
C999 C 0.45972 0.80255 0.78652 0.0
C1000 C 0.44451 0.81095 0.76119 0.0
C1001 C 0.45192 0.77803 0.79209 0.0
C1002 C 0.41231 0.72378 0.69913 0.0
H1003 H 0.437 0.69565 0.83699 0.0
C1004 C 0.43035 0.63718 0.73606 0.0
C1005 C 0.44107 0.6386 0.66838 0.0
C1006 C 0.42287 0.65384 0.75557 0.0
C1007 C 0.42945 0.70293 0.79874 0.0
H1008 H 0.40934 0.80066 0.72252 0.0
H1009 H 0.39541 0.75756 0.73297 0.0
H1010 H 0.43767 0.73355 0.8653 0.0
H1011 H 0.45175 0.65807 0.56723 0.0
H1012 H 0.43914 0.68741 0.60164 0.0
H1013 H 0.40501 0.69366 0.63128 0.0
C1014 C 0.41327 0.76994 0.7493 0.0
C1015 C 0.43002 0.72473 0.81475 0.0
C1016 C 0.42109 0.79454 0.74418 0.0
C1017 C 0.4436 0.65657 0.61981 0.0
C1018 C 0.43609 0.67318 0.63922 0.0
C1019 C 0.41173 0.70198 0.68313 0.0
C1020 C 0.42882 0.76146 0.77159 0.0
C1021 C 0.42251 0.7359 0.76363 0.0
C1022 C 0.42601 0.67223 0.70774 0.0
C1023 C 0.42134 0.69195 0.73132 0.0
H1024 H 0.47791 0.81495 0.79968 0.0
H1025 H 0.46448 0.77211 0.80821 0.0
H1026 H 0.40643 0.73196 0.6585 0.0
H1027 H 0.42835 0.62363 0.77489 0.0
H1028 H 0.41509 0.65263 0.8086 0.0
C1029 C 0.22605 0.63801 0.8683 0.0
C1030 C 0.20416 0.6339 0.89776 0.0
C1031 C 0.24723 0.65593 0.8959 0.0
C1032 C 0.26803 0.71518 0.97057 0.0
H1033 H 0.32882 0.71627 0.9553 0.0
C1034 C 0.35349 0.8041 0.92561 0.0
C1035 C 0.36625 0.803 0.8647 0.0
C1036 C 0.33633 0.78299 0.95845 0.0
C1037 C 0.31201 0.7163 0.96035 0.0
H1038 H 0.18749 0.64434 0.98302 0.0
H1039 H 0.2247 0.67617 0.03072 0.0
H1040 H 0.29268 0.67796 0.96458 0.0
H1041 H 0.37208 0.77882 0.79415 0.0
H1042 H 0.34275 0.74248 0.85118 0.0
H1043 H 0.28713 0.75336 0.96149 0.0
C1044 C 0.22535 0.66526 0.98639 0.0
C1045 C 0.29131 0.69435 0.96585 0.0
C1046 C 0.20405 0.64688 0.95952 0.0
C1047 C 0.3627 0.78044 0.84095 0.0
C1048 C 0.34585 0.75947 0.87408 0.0
C1049 C 0.28873 0.73714 0.96493 0.0
C1050 C 0.2471 0.67063 0.95281 0.0
C1051 C 0.269 0.69348 0.96757 0.0
C1052 C 0.33184 0.76039 0.93165 0.0
C1053 C 0.31088 0.7379 0.95623 0.0
H1054 H 0.22682 0.62863 0.82011 0.0
H1055 H 0.26355 0.65962 0.86813 0.0
H1056 H 0.25116 0.71521 0.97117 0.0
H1057 H 0.35575 0.82117 0.94533 0.0
H1058 H 0.32598 0.78433 0.00313 0.0
C1059 C 0.36746 0.57414 0.87825 0.0
C1060 C 0.37836 0.58254 0.81066 0.0
C1061 C 0.34807 0.57727 0.89963 0.0
C1062 C 0.31015 0.605 0.84884 0.0
H1063 H 0.25879 0.54055 0.8765 0.0
C1064 C 0.21002 0.54799 0.74978 0.0
C1065 C 0.19787 0.55973 0.77851 0.0
C1066 C 0.23252 0.55353 0.77407 0.0
C1067 C 0.27296 0.55873 0.87006 0.0
H1068 H 0.37949 0.60344 0.717 0.0
H1069 H 0.34629 0.60933 0.75481 0.0
H1070 H 0.29954 0.54827 0.88878 0.0
H1071 H 0.19971 0.58591 0.85732 0.0
H1072 H 0.23992 0.59655 0.89745 0.0
H1073 H 0.28321 0.61499 0.82628 0.0
C1074 C 0.35237 0.60011 0.79117 0.0
C1075 C 0.29632 0.56323 0.87771 0.0
C1076 C 0.37145 0.59669 0.76935 0.0
C1077 C 0.20883 0.57704 0.83279 0.0
C1078 C 0.23171 0.58298 0.85616 0.0
C1079 C 0.28666 0.60052 0.84213 0.0
C1080 C 0.33953 0.58915 0.85429 0.0
C1081 C 0.31524 0.5862 0.8643 0.0
C1082 C 0.24366 0.57114 0.82712 0.0
C1083 C 0.26793 0.57712 0.84974 0.0
H1084 H 0.3723 0.56313 0.9113 0.0
H1085 H 0.33871 0.56889 0.9491 0.0
H1086 H 0.32435 0.6229 0.83845 0.0
H1087 H 0.2022 0.53448 0.70817 0.0
H1088 H 0.24145 0.54429 0.75029 0.0
C1089 C 0.11383 0.22595 0.8374 0.0
C1090 C 0.10015 0.2036 0.87059 0.0
C1091 C 0.10563 0.23227 0.77607 0.0
C1092 C 0.06865 0.20263 0.62215 0.0
H1093 H 0.08883 0.2681 0.56308 0.0
C1094 C 0.08068 0.22383 0.32564 0.0
C1095 C 0.10416 0.24126 0.31176 0.0
C1096 C 0.07055 0.22212 0.39399 0.0
C1097 C 0.08278 0.24967 0.57891 0.0
H1098 H 0.06639 0.17098 0.86769 0.0
H1099 H 0.05209 0.18217 0.76112 0.0
H1100 H 0.08918 0.25894 0.6909 0.0
H1101 H 0.13427 0.27257 0.35564 0.0
H1102 H 0.11704 0.26924 0.47451 0.0
H1103 H 0.06387 0.19347 0.5106 0.0
C1104 C 0.0693 0.19465 0.78206 0.0
C1105 C 0.08304 0.24445 0.65201 0.0
C1106 C 0.07755 0.18824 0.84313 0.0
C1107 C 0.1163 0.25859 0.36488 0.0
C1108 C 0.10625 0.25686 0.43312 0.0
C1109 C 0.06842 0.20784 0.5493 0.0
C1110 C 0.08354 0.21641 0.74658 0.0
C1111 C 0.0772 0.22107 0.67381 0.0
C1112 C 0.08378 0.23779 0.44966 0.0
C1113 C 0.07678 0.23162 0.52645 0.0
H1114 H 0.13129 0.23823 0.85715 0.0
H1115 H 0.11723 0.24902 0.74949 0.0
H1116 H 0.06415 0.18444 0.63684 0.0
H1117 H 0.07068 0.21046 0.28564 0.0
H1118 H 0.05301 0.20752 0.40466 0.0
C1119 C 0.74203 0.85006 0.3572 0.0
C1120 C 0.74949 0.86829 0.30539 0.0
C1121 C 0.74107 0.85545 0.42965 0.0
C1122 C 0.74633 0.87345 0.58362 0.0
H1123 H 0.81161 0.92374 0.59171 0.0
C1124 C 0.81971 0.92612 0.81232 0.0
C1125 C 0.81394 0.90639 0.85768 0.0
C1126 C 0.8106 0.92257 0.74302 0.0
C1127 C 0.79328 0.90996 0.59073 0.0
H1128 H 0.75648 0.90471 0.28547 0.0
H1129 H 0.75533 0.91433 0.41215 0.0
H1130 H 0.79011 0.91632 0.4799 0.0
H1131 H 0.79809 0.86765 0.86178 0.0
H1132 H 0.78277 0.86144 0.73975 0.0
H1133 H 0.74988 0.86677 0.69454 0.0
C1134 C 0.75095 0.89615 0.39723 0.0
C1135 C 0.78083 0.90588 0.52696 0.0
C1136 C 0.75213 0.8908 0.32494 0.0
C1137 C 0.8021 0.88315 0.82894 0.0
C1138 C 0.79313 0.87959 0.75938 0.0
C1139 C 0.75876 0.8777 0.64786 0.0
C1140 C 0.74751 0.87909 0.45028 0.0
C1141 C 0.75751 0.88713 0.52225 0.0
C1142 C 0.79605 0.89926 0.71782 0.0
C1143 C 0.78258 0.89551 0.65109 0.0
H1144 H 0.73939 0.83237 0.34287 0.0
H1145 H 0.73823 0.8419 0.46959 0.0
H1146 H 0.72839 0.85886 0.58095 0.0
H1147 H 0.82912 0.94431 0.83248 0.0
H1148 H 0.81339 0.93808 0.71171 0.0
C1149 C 0.09751 0.86377 0.7578 0.0
C1150 C 0.10805 0.8884 0.77269 0.0
C1151 C 0.10494 0.85535 0.69891 0.0
C1152 C 0.14872 0.87455 0.5472 0.0
H1153 H 0.09302 0.83242 0.43785 0.0
C1154 C 0.11591 0.87793 0.25826 0.0
C1155 C 0.13635 0.88343 0.21745 0.0
C1156 C 0.113 0.86762 0.32623 0.0
C1157 C 0.10882 0.8438 0.46801 0.0
H1158 H 0.13575 0.92349 0.74209 0.0
H1159 H 0.1475 0.90912 0.63417 0.0
H1160 H 0.08935 0.83726 0.56615 0.0
H1161 H 0.16857 0.88015 0.21201 0.0
H1162 H 0.1635 0.86236 0.33128 0.0
H1163 H 0.16754 0.88312 0.4469 0.0
C1164 C 0.13395 0.89614 0.66928 0.0
C1165 C 0.10682 0.84649 0.54187 0.0
C1166 C 0.12693 0.9045 0.72987 0.0
C1167 C 0.15288 0.87665 0.24315 0.0
C1168 C 0.14995 0.86631 0.31109 0.0
C1169 C 0.15064 0.87207 0.473 0.0
C1170 C 0.12258 0.87148 0.65233 0.0
C1171 C 0.12644 0.86316 0.58119 0.0
C1172 C 0.13046 0.8626 0.35434 0.0
C1173 C 0.13031 0.85799 0.43226 0.0
H1174 H 0.08366 0.85087 0.79246 0.0
H1175 H 0.09634 0.83625 0.68869 0.0
H1176 H 0.16428 0.88689 0.5767 0.0
H1177 H 0.10282 0.88281 0.23965 0.0
H1178 H 0.09792 0.86529 0.35876 0.0
C1179 C 0.76422 0.56364 0.63131 0.0
C1180 C 0.78452 0.58176 0.59822 0.0
C1181 C 0.75982 0.56563 0.70407 0.0
C1182 C 0.80269 0.58655 0.83959 0.0
H1183 H 0.74876 0.54754 0.96167 0.0
C1184 C 0.80638 0.55163 0.12435 0.0
C1185 C 0.78665 0.52991 0.14415 0.0
C1186 C 0.80761 0.56112 0.05594 0.0
C1187 C 0.76396 0.55833 0.92771 0.0
H1188 H 0.81258 0.61842 0.60834 0.0
H1189 H 0.80489 0.62178 0.73571 0.0
H1190 H 0.74291 0.56509 0.85181 0.0
H1191 H 0.75615 0.49833 0.1034 0.0
H1192 H 0.75883 0.51454 0.9829 0.0
H1193 H 0.82354 0.57878 0.91322 0.0
C1194 C 0.79287 0.6058 0.70654 0.0
C1195 C 0.76065 0.56872 0.86588 0.0
C1196 C 0.7974 0.60375 0.63393 0.0
C1197 C 0.77108 0.51554 0.0903 0.0
C1198 C 0.77239 0.52495 0.02174 0.0
C1199 C 0.80598 0.57614 0.90126 0.0
C1200 C 0.77578 0.58571 0.74368 0.0
C1201 C 0.77983 0.58204 0.81959 0.0
C1202 C 0.78944 0.54861 0.0065 0.0
C1203 C 0.78648 0.56111 0.94401 0.0
H1204 H 0.75356 0.54675 0.60421 0.0
H1205 H 0.74616 0.54997 0.73098 0.0
H1206 H 0.81784 0.59641 0.80446 0.0
H1207 H 0.81905 0.56285 0.16405 0.0
H1208 H 0.82132 0.57921 0.04485 0.0
C1209 C 0.46275 0.21657 0.17639 0.0
C1210 C 0.4765 0.24046 0.19817 0.0
C1211 C 0.45076 0.21136 0.1113 0.0
C1212 C 0.42975 0.24141 0.98229 0.0
H1213 H 0.41547 0.18566 0.86428 0.0
C1214 C 0.43334 0.23532 0.68637 0.0
C1215 C 0.41928 0.21342 0.65169 0.0
C1216 C 0.42859 0.23865 0.75761 0.0
C1217 C 0.41852 0.20086 0.89806 0.0
H1218 H 0.49262 0.2775 0.16259 0.0
H1219 H 0.47321 0.2683 0.04627 0.0
H1220 H 0.43646 0.19106 0.97602 0.0
H1221 H 0.38711 0.17929 0.66059 0.0
H1222 H 0.37992 0.18464 0.78708 0.0
H1223 H 0.41401 0.25235 0.89904 0.0
C1224 C 0.46997 0.25365 0.08232 0.0
C1225 C 0.43082 0.20411 0.96188 0.0
C1226 C 0.48155 0.25888 0.14828 0.0
C1227 C 0.39868 0.19614 0.68653 0.0
C1228 C 0.39424 0.1993 0.75846 0.0
C1229 C 0.41789 0.23841 0.91744 0.0
C1230 C 0.45314 0.22999 0.06573 0.0
C1231 C 0.43754 0.22498 0.00289 0.0
C1232 C 0.41019 0.21987 0.79561 0.0
C1233 C 0.41324 0.21867 0.8734 0.0
H1234 H 0.45941 0.20196 0.21234 0.0
H1235 H 0.43842 0.19286 0.09948 0.0
H1236 H 0.43379 0.25719 0.01446 0.0
H1237 H 0.44927 0.24904 0.6614 0.0
H1238 H 0.44125 0.25464 0.78542 0.0
C1239 C 0.77974 0.2111 0.59525 0.0
C1240 C 0.80068 0.21692 0.55687 0.0
C1241 C 0.77462 0.1977 0.65829 0.0
C1242 C 0.80958 0.19721 0.80303 0.0
H1243 H 0.74741 0.16652 0.89302 0.0
C1244 C 0.79389 0.21712 0.09542 0.0
C1245 C 0.77552 0.22319 0.10125 0.0
C1246 C 0.79681 0.20659 0.03275 0.0
C1247 C 0.76493 0.1748 0.86872 0.0
H1248 H 0.8313 0.21095 0.54882 0.0
H1249 H 0.82256 0.18795 0.66036 0.0
H1250 H 0.75154 0.16015 0.76469 0.0
H1251 H 0.74591 0.22324 0.04665 0.0
H1252 H 0.75161 0.20577 0.93516 0.0
H1253 H 0.82274 0.21362 0.905 0.0
C1254 C 0.81023 0.19389 0.64194 0.0
C1255 C 0.7673 0.17097 0.79569 0.0
C1256 C 0.81538 0.20737 0.5789 0.0
C1257 C 0.76046 0.21912 0.04274 0.0
C1258 C 0.7634 0.20863 0.97988 0.0
C1259 C 0.80721 0.20099 0.87595 0.0
C1260 C 0.79042 0.18997 0.68404 0.0
C1261 C 0.78934 0.18394 0.76112 0.0
C1262 C 0.78128 0.20181 0.97504 0.0
C1263 C 0.78462 0.19139 0.90754 0.0
H1264 H 0.76798 0.21803 0.57901 0.0
H1265 H 0.75936 0.19531 0.68998 0.0
H1266 H 0.82687 0.20734 0.77809 0.0
H1267 H 0.80489 0.2188 0.14115 0.0
H1268 H 0.81071 0.20149 0.03035 0.0
C1269 C 0.4206 0.86114 0.47108 0.0
C1270 C 0.43688 0.87652 0.5218 0.0
C1271 C 0.41477 0.87044 0.41114 0.0
C1272 C 0.44326 0.92276 0.29645 0.0
H1273 H 0.38526 0.88922 0.18791 0.0
C1274 C 0.44968 0.93367 -0.00269 0.0
C1275 C 0.44068 0.91131 0.96299 0.0
C1276 C 0.44151 0.93552 0.0659 0.0
C1277 C 0.40152 0.89896 0.21772 0.0
H1278 H 0.45844 0.91386 0.55236 0.0
H1279 H 0.44808 0.93 0.44816 0.0
H1280 H 0.3855 0.88051 0.3162 0.0
H1281 H 0.41434 0.87392 0.96893 0.0
H1282 H 0.40099 0.87673 0.09007 0.0
H1283 H 0.45987 0.93986 0.19826 0.0
C1284 C 0.44017 0.91073 0.454 0.0
C1285 C 0.40165 0.89397 0.29112 0.0
C1286 C 0.44619 0.90144 0.51356 0.0
C1287 C 0.42168 0.89134 -0.0053 0.0
C1288 C 0.41389 0.89305 0.0641 0.0
C1289 C 0.44316 0.92767 0.2234 0.0
C1290 C 0.42501 0.89535 0.4009 0.0
C1291 C 0.42286 0.90493 0.33017 0.0
C1292 C 0.42477 0.91489 0.1022 0.0
C1293 C 0.42262 0.91489 0.18218 0.0
H1294 H 0.41307 0.84188 0.4762 0.0
H1295 H 0.40332 0.85808 0.37077 0.0
H1296 H 0.45997 0.93144 0.32456 0.0
H1297 H 0.46398 0.94946 0.97291 0.0
H1298 H 0.44968 0.95277 0.09274 0.0
C1299 C 0.15404 0.58821 0.45677 0.0
C1300 C 0.1471 0.5699 0.50834 0.0
C1301 C 0.14304 0.58336 0.38995 0.0
C1302 C 0.10171 0.53529 0.27002 0.0
H1303 H 0.08726 0.58566 0.2119 0.0
C1304 C 0.06699 0.52891 -0.00171 0.0
C1305 C 0.08697 0.54625 0.96112 0.0
C1306 C 0.06374 0.53203 0.07124 0.0
C1307 C 0.09058 0.5712 0.22881 0.0
H1308 H 0.12761 0.53151 0.52443 0.0
H1309 H 0.10767 0.52312 0.40948 0.0
H1310 H 0.10779 0.58939 0.32523 0.0
H1311 H 0.11674 0.58212 0.96756 0.0
H1312 H 0.11095 0.58754 0.09383 0.0
H1313 H 0.08514 0.51742 0.1728 0.0
C1314 C 0.12096 0.54131 0.421 0.0
C1315 C 0.1028 0.57353 0.29251 0.0
C1316 C 0.13232 0.54613 0.48722 0.0
C1317 C 0.10138 0.56826 -0.00532 0.0
C1318 C 0.0979 0.5715 0.0672 0.0
C1319 C 0.08918 0.53279 0.20705 0.0
C1320 C 0.12502 0.56019 0.37408 0.0
C1321 C 0.10956 0.55618 0.31157 0.0
C1322 C 0.08033 0.55257 0.10715 0.0
C1323 C 0.08465 0.5513 0.18413 0.0
H1324 H 0.16605 0.60668 0.47039 0.0
H1325 H 0.14749 0.59806 0.35282 0.0
H1326 H 0.10652 0.52156 0.2834 0.0
H1327 H 0.05513 0.51199 0.97323 0.0
H1328 H 0.04994 0.51733 0.10123 0.0
C1329 C 0.4275 0.52864 0.42726 0.0
C1330 C 0.43885 0.55291 0.44717 0.0
C1331 C 0.43514 0.52094 0.36713 0.0
C1332 C 0.4817 0.54198 0.22283 0.0
H1333 H 0.42777 0.5035 0.10199 0.0
C1334 C 0.45279 0.55359 0.93573 0.0
C1335 C 0.47331 0.55952 0.89489 0.0
C1336 C 0.44941 0.54198 0.00161 0.0
C1337 C 0.44308 0.51386 0.13532 0.0
H1338 H 0.46765 0.58806 0.42258 0.0
H1339 H 0.47989 0.57512 0.31316 0.0
H1340 H 0.42197 0.50518 0.23058 0.0
H1341 H 0.50562 0.55645 0.88807 0.0
H1342 H 0.49978 0.53643 0.00414 0.0
H1343 H 0.50219 0.55296 0.12569 0.0
C1344 C 0.46562 0.56176 0.34548 0.0
C1345 C 0.43985 0.51472 0.20937 0.0
C1346 C 0.45834 0.56936 0.40704 0.0
C1347 C 0.48983 0.55255 0.91927 0.0
C1348 C 0.48643 0.5409 0.98524 0.0
C1349 C 0.48484 0.54144 0.14845 0.0
C1350 C 0.45387 0.53748 0.3244 0.0
C1351 C 0.45882 0.53025 0.25295 0.0
C1352 C 0.46648 0.53605 0.02778 0.0
C1353 C 0.46516 0.52887 0.10384 0.0
H1354 H 0.41301 0.51539 0.4593 0.0
H1355 H 0.42607 0.50208 0.35345 0.0
H1356 H 0.49681 0.55333 0.25565 0.0
H1357 H 0.43977 0.55874 0.9183 0.0
H1358 H 0.43408 0.53899 0.03393 0.0
loop_
_geom_bond_atom_site_label_1
_geom_bond_atom_site_label_2
_geom_bond_distance
_geom_bond_site_symmetry_2
_ccdc_geom_bond_type
C0 O12 1.241 . S
C0 O13 1.280 1_554 S
C1 O14 1.277 . S
C1 O15 1.245 . S
C2 O26 1.247 . S
C2 O28 1.289 . S
Mg3 O4 1.926 1_556 S
Mg3 O13 1.984 . S
Mg3 O15 1.988 1_556 S
Mg3 O16 2.061 . S
O4 Mg3 1.926 1_554 S
O4 Mg5 1.986 . S
O4 Mg6 1.917 . S
Mg5 O4 1.986 . S
Mg5 O12 2.042 . S
Mg5 O14 2.041 . S
Mg5 O20 2.038 . S
Mg5 O28 2.238 . S
Mg6 O4 1.917 . S
Mg6 O7 1.917 . S
Mg6 O17 2.106 1_554 S
Mg6 O19 2.079 . S
Mg6 O28 2.106 . S
Mg6 O29 2.079 . S
O7 Mg6 1.917 . S
O7 Mg8 1.926 . S
O7 Mg9 1.986 1_554 S
Mg8 O7 1.926 . S
Mg8 O22 1.984 . S
Mg8 O25 1.988 . S
Mg8 O26 2.061 . S
Mg9 O7 1.986 1_556 S
Mg9 O17 2.238 . S
Mg9 O21 2.042 1_556 S
Mg9 O23 2.041 . S
Mg9 O30 2.038 1_556 S
C10 O16 1.247 . S
C10 O17 1.289 . S
C11 O29 1.245 . S
C11 O30 1.274 . S
O12 C0 1.241 . S
O12 Mg5 2.042 . S
O13 C0 1.280 1_556 S
O13 Mg3 1.984 . S
O14 C1 1.277 . S
O14 Mg5 2.041 . S
O15 C1 1.245 . S
O15 Mg3 1.988 1_554 S
O16 Mg3 2.061 . S
O16 C10 1.247 . S
O17 Mg6 2.106 1_556 S
O17 Mg9 2.238 . S
O17 C10 1.289 . S
C18 O19 1.245 . S
C18 O20 1.274 . S
O19 Mg6 2.079 . S
O19 C18 1.245 . S
O20 Mg5 2.038 . S
O20 C18 1.274 . S
O21 Mg9 2.042 1_554 S
O21 C24 1.241 . S
O22 Mg8 1.984 . S
O22 C24 1.280 . S
O23 Mg9 2.041 . S
O23 C27 1.277 1_556 S
C24 O21 1.241 . S
C24 O22 1.280 . S
O25 Mg8 1.988 . S
O25 C27 1.245 . S
O26 C2 1.247 . S
O26 Mg8 2.061 . S
C27 O23 1.277 1_554 S
C27 O25 1.245 . S
O28 C2 1.289 . S
O28 Mg5 2.238 . S
O28 Mg6 2.106 . S
O29 Mg6 2.079 . S
O29 C11 1.245 . S
O30 Mg9 2.038 1_554 S
O30 C11 1.274 . S
C31 O43 1.241 . S
C31 O44 1.280 . S
C32 O45 1.277 . S
C32 O46 1.245 . S
C33 O57 1.247 . S
C33 O59 1.289 1_556 S
Mg34 O35 1.926 . S
Mg34 O44 1.984 . S
Mg34 O46 1.988 . S
Mg34 O47 2.061 . S
O35 Mg34 1.926 . S
O35 Mg36 1.986 . S
O35 Mg37 1.917 . S
Mg36 O35 1.986 . S
Mg36 O43 2.042 . S
Mg36 O45 2.041 . S
Mg36 O51 2.038 . S
Mg36 O59 2.238 . S
Mg37 O35 1.917 . S
Mg37 O38 1.917 . S
Mg37 O48 2.106 . S
Mg37 O50 2.079 . S
Mg37 O59 2.106 . S
Mg37 O60 2.079 . S
O38 Mg37 1.917 . S
O38 Mg39 1.926 . S
O38 Mg40 1.986 . S
Mg39 O38 1.926 . S
Mg39 O53 1.984 . S
Mg39 O56 1.988 . S
Mg39 O57 2.061 1_554 S
Mg40 O38 1.986 . S
Mg40 O48 2.238 . S
Mg40 O52 2.042 . S
Mg40 O54 2.041 . S
Mg40 O61 2.038 . S
C41 O47 1.247 . S
C41 O48 1.289 . S
C42 O60 1.245 . S
C42 O61 1.274 . S
O43 C31 1.241 . S
O43 Mg36 2.042 . S
O44 C31 1.280 . S
O44 Mg34 1.984 . S
O45 C32 1.277 . S
O45 Mg36 2.041 . S
O46 C32 1.245 . S
O46 Mg34 1.988 . S
O47 Mg34 2.061 . S
O47 C41 1.247 . S
O48 Mg37 2.106 . S
O48 Mg40 2.238 . S
O48 C41 1.289 . S
C49 O50 1.245 . S
C49 O51 1.274 . S
O50 Mg37 2.079 . S
O50 C49 1.245 . S
O51 Mg36 2.038 . S
O51 C49 1.274 . S
O52 Mg40 2.042 . S
O52 C55 1.241 . S
O53 Mg39 1.984 . S
O53 C55 1.280 . S
O54 Mg40 2.041 . S
O54 C58 1.277 . S
C55 O52 1.241 . S
C55 O53 1.280 . S
O56 Mg39 1.988 . S
O56 C58 1.245 . S
O57 C33 1.247 . S
O57 Mg39 2.061 1_556 S
C58 O54 1.277 . S
C58 O56 1.245 . S
O59 C33 1.289 1_554 S
O59 Mg36 2.238 . S
O59 Mg37 2.106 . S
O60 Mg37 2.079 . S
O60 C42 1.245 . S
O61 Mg40 2.038 . S
O61 C42 1.274 . S
C62 O74 1.241 1_554 S
C62 O75 1.280 . S
C63 O76 1.277 . S
C63 O77 1.245 1_556 S
C64 O88 1.247 . S
C64 O90 1.289 . S
Mg65 O66 1.926 . S
Mg65 O75 1.984 . S
Mg65 O77 1.988 . S
Mg65 O78 2.061 . S
O66 Mg65 1.926 . S
O66 Mg67 1.986 1_554 S
O66 Mg68 1.918 . S
Mg67 O66 1.986 1_556 S
Mg67 O74 2.042 . S
Mg67 O76 2.041 . S
Mg67 O82 2.038 . S
Mg67 O90 2.238 . S
Mg68 O66 1.918 . S
Mg68 O69 1.916 1_554 S
Mg68 O79 2.112 . S
Mg68 O81 2.079 . S
Mg68 O90 2.101 1_554 S
Mg68 O91 2.078 1_554 S
O69 Mg68 1.916 1_556 S
O69 Mg70 1.926 . S
O69 Mg71 1.986 1_556 S
Mg70 O69 1.926 . S
Mg70 O84 1.984 . S
Mg70 O87 1.988 . S
Mg70 O88 2.061 . S
Mg71 O69 1.986 1_554 S
Mg71 O79 2.238 . S
Mg71 O83 2.042 . S
Mg71 O85 2.041 . S
Mg71 O92 2.038 . S
C72 O78 1.247 . S
C72 O79 1.289 . S
C73 O91 1.245 1_554 S
C73 O92 1.274 . S
O74 C62 1.241 1_556 S
O74 Mg67 2.042 . S
O75 C62 1.280 . S
O75 Mg65 1.984 . S
O76 C63 1.277 . S
O76 Mg67 2.041 . S
O77 C63 1.245 1_554 S
O77 Mg65 1.988 . S
O78 Mg65 2.061 . S
O78 C72 1.247 . S
O79 Mg68 2.112 . S
O79 Mg71 2.238 . S
O79 C72 1.289 . S
C80 O81 1.245 1_556 S
C80 O82 1.274 . S
O81 Mg68 2.079 . S
O81 C80 1.245 1_554 S
O82 Mg67 2.038 . S
O82 C80 1.274 . S
O83 Mg71 2.042 . S
O83 C86 1.241 1_554 S
O84 Mg70 1.984 . S
O84 C86 1.280 . S
O85 Mg71 2.041 . S
O85 C89 1.277 . S
C86 O83 1.241 1_556 S
C86 O84 1.280 . S
O87 Mg70 1.988 . S
O87 C89 1.245 1_556 S
O88 C64 1.247 . S
O88 Mg70 2.061 . S
C89 O85 1.277 . S
C89 O87 1.245 1_554 S
O90 C64 1.289 . S
O90 Mg67 2.238 . S
O90 Mg68 2.101 1_556 S
O91 Mg68 2.078 1_556 S
O91 C73 1.245 1_556 S
O92 Mg71 2.038 . S
O92 C73 1.274 . S
C93 O105 1.241 . S
C93 O106 1.280 . S
C94 O107 1.277 . S
C94 O108 1.245 . S
C95 O119 1.247 . S
C95 O121 1.289 . S
Mg96 O97 1.926 . S
Mg96 O106 1.984 . S
Mg96 O108 1.988 . S
Mg96 O109 2.061 . S
O97 Mg96 1.926 . S
O97 Mg98 1.986 . S
O97 Mg99 1.917 . S
Mg98 O97 1.986 . S
Mg98 O105 2.042 . S
Mg98 O107 2.041 . S
Mg98 O113 2.038 . S
Mg98 O121 2.238 . S
Mg99 O97 1.917 . S
Mg99 O100 1.917 . S
Mg99 O110 2.106 . S
Mg99 O112 2.079 . S
Mg99 O121 2.106 . S
Mg99 O122 2.079 . S
O100 Mg99 1.917 . S
O100 Mg101 1.926 . S
O100 Mg102 1.986 . S
Mg101 O100 1.926 . S
Mg101 O115 1.984 . S
Mg101 O118 1.988 . S
Mg101 O119 2.061 . S
Mg102 O100 1.986 . S
Mg102 O110 2.238 . S
Mg102 O114 2.042 . S
Mg102 O116 2.041 . S
Mg102 O123 2.038 . S
C103 O109 1.247 . S
C103 O110 1.289 . S
C104 O122 1.245 . S
C104 O123 1.274 . S
O105 C93 1.241 . S
O105 Mg98 2.042 . S
O106 C93 1.280 . S
O106 Mg96 1.984 . S
O107 C94 1.277 . S
O107 Mg98 2.041 . S
O108 C94 1.245 . S
O108 Mg96 1.988 . S
O109 Mg96 2.061 . S
O109 C103 1.247 . S
O110 Mg99 2.106 . S
O110 Mg102 2.238 . S
O110 C103 1.289 . S
C111 O112 1.245 . S
C111 O113 1.274 . S
O112 Mg99 2.079 . S
O112 C111 1.245 . S
O113 Mg98 2.038 . S
O113 C111 1.274 . S
O114 Mg102 2.042 . S
O114 C117 1.241 . S
O115 Mg101 1.984 . S
O115 C117 1.280 . S
O116 Mg102 2.041 . S
O116 C120 1.277 . S
C117 O114 1.241 . S
C117 O115 1.280 . S
O118 Mg101 1.988 . S
O118 C120 1.245 . S
O119 C95 1.247 . S
O119 Mg101 2.061 . S
C120 O116 1.277 . S
C120 O118 1.245 . S
O121 C95 1.289 . S
O121 Mg98 2.238 . S
O121 Mg99 2.106 . S
O122 Mg99 2.079 . S
O122 C104 1.245 . S
O123 Mg102 2.038 . S
O123 C104 1.274 . S
C124 O136 1.241 . S
C124 O137 1.280 . S
C125 O138 1.277 . S
C125 O139 1.245 . S
C126 O150 1.247 . S
C126 O152 1.289 . S
Mg127 O128 1.926 . S
Mg127 O137 1.984 . S
Mg127 O139 1.988 . S
Mg127 O140 2.061 . S
O128 Mg127 1.926 . S
O128 Mg129 1.986 . S
O128 Mg130 1.917 . S
Mg129 O128 1.986 . S
Mg129 O136 2.042 . S
Mg129 O138 2.041 . S
Mg129 O144 2.038 . S
Mg129 O152 2.238 . S
Mg130 O128 1.917 . S
Mg130 O131 1.917 . S
Mg130 O141 2.106 . S
Mg130 O143 2.079 . S
Mg130 O152 2.106 . S
Mg130 O153 2.079 . S
O131 Mg130 1.917 . S
O131 Mg132 1.926 . S
O131 Mg133 1.986 . S
Mg132 O131 1.926 . S
Mg132 O146 1.984 . S
Mg132 O149 1.988 . S
Mg132 O150 2.061 . S
Mg133 O131 1.986 . S
Mg133 O141 2.238 . S
Mg133 O145 2.042 . S
Mg133 O147 2.041 . S
Mg133 O154 2.038 . S
C134 O140 1.247 . S
C134 O141 1.289 . S
C135 O153 1.245 . S
C135 O154 1.274 . S
O136 C124 1.241 . S
O136 Mg129 2.042 . S
O137 C124 1.280 . S
O137 Mg127 1.984 . S
O138 C125 1.277 . S
O138 Mg129 2.041 . S
O139 C125 1.245 . S
O139 Mg127 1.988 . S
O140 Mg127 2.061 . S
O140 C134 1.247 . S
O141 Mg130 2.106 . S
O141 Mg133 2.238 . S
O141 C134 1.289 . S
C142 O143 1.245 . S
C142 O144 1.274 . S
O143 Mg130 2.079 . S
O143 C142 1.245 . S
O144 Mg129 2.038 . S
O144 C142 1.274 . S
O145 Mg133 2.042 . S
O145 C148 1.241 . S
O146 Mg132 1.984 . S
O146 C148 1.280 . S
O147 Mg133 2.041 . S
O147 C151 1.277 . S
C148 O145 1.241 . S
C148 O146 1.280 . S
O149 Mg132 1.988 . S
O149 C151 1.245 . S
O150 C126 1.247 . S
O150 Mg132 2.061 . S
C151 O147 1.277 . S
C151 O149 1.245 . S
O152 C126 1.289 . S
O152 Mg129 2.238 . S
O152 Mg130 2.106 . S
O153 Mg130 2.079 . S
O153 C135 1.245 . S
O154 Mg133 2.038 . S
O154 C135 1.274 . S
C155 O167 1.241 . S
C155 O168 1.280 . S
C156 O169 1.277 . S
C156 O170 1.245 . S
C157 O181 1.247 . S
C157 O183 1.289 . S
Mg158 O159 1.926 . S
Mg158 O168 1.984 . S
Mg158 O170 1.988 . S
Mg158 O171 2.061 . S
O159 Mg158 1.926 . S
O159 Mg160 1.986 . S
O159 Mg161 1.917 . S
Mg160 O159 1.986 . S
Mg160 O167 2.042 . S
Mg160 O169 2.041 . S
Mg160 O175 2.038 . S
Mg160 O183 2.238 . S
Mg161 O159 1.917 . S
Mg161 O162 1.917 . S
Mg161 O172 2.106 . S
Mg161 O174 2.079 . S
Mg161 O183 2.106 . S
Mg161 O184 2.079 . S
O162 Mg161 1.917 . S
O162 Mg163 1.926 . S
O162 Mg164 1.986 . S
Mg163 O162 1.926 . S
Mg163 O177 1.984 . S
Mg163 O180 1.988 . S
Mg163 O181 2.061 . S
Mg164 O162 1.986 . S
Mg164 O172 2.238 . S
Mg164 O176 2.042 . S
Mg164 O178 2.041 . S
Mg164 O185 2.038 . S
C165 O171 1.247 . S
C165 O172 1.289 . S
C166 O184 1.245 . S
C166 O185 1.274 . S
O167 C155 1.241 . S
O167 Mg160 2.042 . S
O168 C155 1.280 . S
O168 Mg158 1.984 . S
O169 C156 1.277 . S
O169 Mg160 2.041 . S
O170 C156 1.245 . S
O170 Mg158 1.988 . S
O171 Mg158 2.061 . S
O171 C165 1.247 . S
O172 Mg161 2.106 . S
O172 Mg164 2.238 . S
O172 C165 1.289 . S
C173 O174 1.245 . S
C173 O175 1.274 . S
O174 Mg161 2.079 . S
O174 C173 1.245 . S
O175 Mg160 2.038 . S
O175 C173 1.274 . S
O176 Mg164 2.042 . S
O176 C179 1.241 . S
O177 Mg163 1.984 . S
O177 C179 1.280 . S
O178 Mg164 2.041 . S
O178 C182 1.277 . S
C179 O176 1.241 . S
C179 O177 1.280 . S
O180 Mg163 1.988 . S
O180 C182 1.245 . S
O181 C157 1.247 . S
O181 Mg163 2.061 . S
C182 O178 1.277 . S
C182 O180 1.245 . S
O183 C157 1.289 . S
O183 Mg160 2.238 . S
O183 Mg161 2.106 . S
O184 Mg161 2.079 . S
O184 C166 1.245 . S
O185 Mg164 2.038 . S
O185 C166 1.274 . S
C186 O198 1.241 . S
C186 O199 1.280 . S
C187 O200 1.277 . S
C187 O201 1.245 . S
C188 O212 1.247 . S
C188 O214 1.289 . S
Mg189 O190 1.926 . S
Mg189 O199 1.984 . S
Mg189 O201 1.988 . S
Mg189 O202 2.061 . S
O190 Mg189 1.926 . S
O190 Mg191 1.986 . S
O190 Mg192 1.917 . S
Mg191 O190 1.986 . S
Mg191 O198 2.042 . S
Mg191 O200 2.041 . S
Mg191 O206 2.038 . S
Mg191 O214 2.238 . S
Mg192 O190 1.917 . S
Mg192 O193 1.917 . S
Mg192 O203 2.106 . S
Mg192 O205 2.079 . S
Mg192 O214 2.106 . S
Mg192 O215 2.079 . S
O193 Mg192 1.917 . S
O193 Mg194 1.926 . S
O193 Mg195 1.986 . S
Mg194 O193 1.926 . S
Mg194 O208 1.984 . S
Mg194 O211 1.988 . S
Mg194 O212 2.061 . S
Mg195 O193 1.986 . S
Mg195 O203 2.238 . S
Mg195 O207 2.042 . S
Mg195 O209 2.041 . S
Mg195 O216 2.038 . S
C196 O202 1.247 . S
C196 O203 1.289 . S
C197 O215 1.245 . S
C197 O216 1.274 . S
O198 C186 1.241 . S
O198 Mg191 2.042 . S
O199 C186 1.280 . S
O199 Mg189 1.984 . S
O200 C187 1.277 . S
O200 Mg191 2.041 . S
O201 C187 1.245 . S
O201 Mg189 1.988 . S
O202 Mg189 2.061 . S
O202 C196 1.247 . S
O203 Mg192 2.106 . S
O203 Mg195 2.238 . S
O203 C196 1.289 . S
C204 O205 1.245 . S
C204 O206 1.274 . S
O205 Mg192 2.079 . S
O205 C204 1.245 . S
O206 Mg191 2.038 . S
O206 C204 1.274 . S
O207 Mg195 2.042 . S
O207 C210 1.241 . S
O208 Mg194 1.984 . S
O208 C210 1.280 . S
O209 Mg195 2.041 . S
O209 C213 1.277 . S
C210 O207 1.241 . S
C210 O208 1.280 . S
O211 Mg194 1.988 . S
O211 C213 1.245 . S
O212 C188 1.247 . S
O212 Mg194 2.061 . S
C213 O209 1.277 . S
C213 O211 1.245 . S
O214 C188 1.289 . S
O214 Mg191 2.238 . S
O214 Mg192 2.106 . S
O215 Mg192 2.079 . S
O215 C197 1.245 . S
O216 Mg195 2.038 . S
O216 C197 1.274 . S
C217 O229 1.241 . S
C217 O230 1.280 . S
C218 O231 1.277 . S
C218 O232 1.245 . S
C219 O243 1.247 . S
C219 O245 1.289 . S
Mg220 O221 1.926 . S
Mg220 O230 1.984 . S
Mg220 O232 1.988 . S
Mg220 O233 2.061 . S
O221 Mg220 1.926 . S
O221 Mg222 1.986 . S
O221 Mg223 1.917 . S
Mg222 O221 1.986 . S
Mg222 O229 2.042 . S
Mg222 O231 2.041 . S
Mg222 O237 2.038 . S
Mg222 O245 2.238 . S
Mg223 O221 1.917 . S
Mg223 O224 1.917 . S
Mg223 O234 2.106 . S
Mg223 O236 2.079 . S
Mg223 O245 2.106 . S
Mg223 O246 2.079 . S
O224 Mg223 1.917 . S
O224 Mg225 1.926 . S
O224 Mg226 1.986 . S
Mg225 O224 1.926 . S
Mg225 O239 1.984 . S
Mg225 O242 1.988 . S
Mg225 O243 2.061 . S
Mg226 O224 1.986 . S
Mg226 O234 2.238 . S
Mg226 O238 2.042 . S
Mg226 O240 2.041 . S
Mg226 O247 2.038 . S
C227 O233 1.247 . S
C227 O234 1.289 . S
C228 O246 1.245 . S
C228 O247 1.274 . S
O229 C217 1.241 . S
O229 Mg222 2.042 . S
O230 C217 1.280 . S
O230 Mg220 1.984 . S
O231 C218 1.277 . S
O231 Mg222 2.041 . S
O232 C218 1.245 . S
O232 Mg220 1.988 . S
O233 Mg220 2.061 . S
O233 C227 1.247 . S
O234 Mg223 2.106 . S
O234 Mg226 2.238 . S
O234 C227 1.289 . S
C235 O236 1.245 . S
C235 O237 1.274 . S
O236 Mg223 2.079 . S
O236 C235 1.245 . S
O237 Mg222 2.038 . S
O237 C235 1.274 . S
O238 Mg226 2.042 . S
O238 C241 1.241 . S
O239 Mg225 1.984 . S
O239 C241 1.280 . S
O240 Mg226 2.041 . S
O240 C244 1.277 . S
C241 O238 1.241 . S
C241 O239 1.280 . S
O242 Mg225 1.988 . S
O242 C244 1.245 . S
O243 C219 1.247 . S
O243 Mg225 2.061 . S
C244 O240 1.277 . S
C244 O242 1.245 . S
O245 C219 1.289 . S
O245 Mg222 2.238 . S
O245 Mg223 2.106 . S
O246 Mg223 2.079 . S
O246 C228 1.245 . S
O247 Mg226 2.038 . S
O247 C228 1.274 . S
C248 O260 1.241 . S
C248 O261 1.280 . S
C249 O262 1.277 . S
C249 O263 1.245 . S
C250 O274 1.247 . S
C250 O276 1.289 . S
Mg251 O252 1.926 . S
Mg251 O261 1.984 . S
Mg251 O263 1.988 . S
Mg251 O264 2.061 . S
O252 Mg251 1.926 . S
O252 Mg253 1.986 . S
O252 Mg254 1.917 . S
Mg253 O252 1.986 . S
Mg253 O260 2.042 . S
Mg253 O262 2.041 . S
Mg253 O268 2.038 . S
Mg253 O276 2.238 . S
Mg254 O252 1.917 . S
Mg254 O255 1.917 . S
Mg254 O265 2.106 . S
Mg254 O267 2.079 . S
Mg254 O276 2.106 . S
Mg254 O277 2.079 . S
O255 Mg254 1.917 . S
O255 Mg256 1.926 . S
O255 Mg257 1.986 . S
Mg256 O255 1.926 . S
Mg256 O270 1.984 . S
Mg256 O273 1.988 . S
Mg256 O274 2.061 . S
Mg257 O255 1.986 . S
Mg257 O265 2.238 . S
Mg257 O269 2.042 . S
Mg257 O271 2.041 . S
Mg257 O278 2.038 . S
C258 O264 1.247 . S
C258 O265 1.289 . S
C259 O277 1.245 . S
C259 O278 1.274 . S
O260 C248 1.241 . S
O260 Mg253 2.042 . S
O261 C248 1.280 . S
O261 Mg251 1.984 . S
O262 C249 1.277 . S
O262 Mg253 2.041 . S
O263 C249 1.245 . S
O263 Mg251 1.988 . S
O264 Mg251 2.061 . S
O264 C258 1.247 . S
O265 Mg254 2.106 . S
O265 Mg257 2.238 . S
O265 C258 1.289 . S
C266 O267 1.245 . S
C266 O268 1.274 . S
O267 Mg254 2.079 . S
O267 C266 1.245 . S
O268 Mg253 2.038 . S
O268 C266 1.274 . S
O269 Mg257 2.042 . S
O269 C272 1.241 . S
O270 Mg256 1.984 . S
O270 C272 1.280 . S
O271 Mg257 2.041 . S
O271 C275 1.277 . S
C272 O269 1.241 . S
C272 O270 1.280 . S
O273 Mg256 1.988 . S
O273 C275 1.245 . S
O274 C250 1.247 . S
O274 Mg256 2.061 . S
C275 O271 1.277 . S
C275 O273 1.245 . S
O276 C250 1.289 . S
O276 Mg253 2.238 . S
O276 Mg254 2.106 . S
O277 Mg254 2.079 . S
O277 C259 1.245 . S
O278 Mg257 2.038 . S
O278 C259 1.274 . S
C279 C280 1.349 . S
C279 C281 1.327 . S
C279 H304 0.950 . S
C280 C279 1.349 . S
C280 C296 1.349 . S
C281 C279 1.327 . S
C281 C300 1.429 . S
C281 H305 0.950 . S
C282 C299 1.574 . S
C282 C301 1.368 . S
C282 H306 0.949 . S
H283 C287 0.949 . S
C284 C285 1.349 . S
C284 C286 1.327 . S
C284 H307 0.950 . S
C285 C284 1.349 . S
C285 C297 1.349 . S
C286 C284 1.327 . S
C286 C302 1.429 . S
C286 H308 0.950 . S
C287 H283 0.949 . S
C287 C295 1.574 . S
C287 C303 1.368 . S
H288 C296 0.950 . S
H289 C294 0.950 . S
H290 C295 0.949 . S
H291 C297 0.950 . S
H292 C298 0.950 . S
H293 C299 0.949 . S
C294 H289 0.950 . S
C294 C296 1.327 . S
C294 C300 1.429 . S
C295 C287 1.574 . S
C295 H290 0.949 . S
C295 C301 1.368 . S
C296 C280 1.349 . S
C296 H288 0.950 . S
C296 C294 1.327 . S
C297 C285 1.349 . S
C297 H291 0.950 . S
C297 C298 1.327 . S
C298 H292 0.950 . S
C298 C297 1.327 . S
C298 C302 1.429 . S
C299 C282 1.574 . S
C299 H293 0.949 . S
C299 C303 1.368 . S
C300 C281 1.429 . S
C300 C294 1.429 . S
C300 C301 1.523 . S
C301 C282 1.368 . S
C301 C295 1.368 . S
C301 C300 1.523 . S
C302 C286 1.429 . S
C302 C298 1.429 . S
C302 C303 1.523 . S
C303 C287 1.368 . S
C303 C299 1.368 . S
C303 C302 1.523 . S
H304 C279 0.950 . S
H305 C281 0.950 . S
H306 C282 0.949 . S
H307 C284 0.950 . S
H308 C286 0.950 . S
C309 C310 1.349 . S
C309 C311 1.327 . S
C309 H334 0.950 . S
C310 C309 1.349 . S
C310 C326 1.349 . S
C311 C309 1.327 . S
C311 C330 1.429 . S
C311 H335 0.950 . S
C312 C329 1.574 . S
C312 C331 1.368 . S
C312 H336 0.949 . S
H313 C317 0.949 . S
C314 C315 1.349 . S
C314 C316 1.327 1_565 S
C314 H337 0.950 . S
C315 C314 1.349 . S
C315 C327 1.331 1_565 S
C316 C314 1.327 1_545 S
C316 C332 1.429 . S
C316 H338 0.950 . S
C317 H313 0.949 . S
C317 C325 1.574 . S
C317 C333 1.368 . S
H318 C326 0.950 . S
H319 C324 0.950 . S
H320 C325 0.949 . S
H321 C327 0.945 1_565 S
H322 C328 0.950 . S
H323 C329 0.949 . S
C324 H319 0.950 . S
C324 C326 1.327 . S
C324 C330 1.429 . S
C325 C317 1.574 . S
C325 H320 0.949 . S
C325 C331 1.368 . S
C326 C310 1.349 . S
C326 H318 0.950 . S
C326 C324 1.327 . S
C327 C315 1.331 1_545 S
C327 H321 0.945 1_545 S
C327 C328 1.350 . S
C328 H322 0.950 . S
C328 C327 1.350 . S
C328 C332 1.429 . S
C329 C312 1.574 . S
C329 H323 0.949 . S
C329 C333 1.368 . S
C330 C311 1.429 . S
C330 C324 1.429 . S
C330 C331 1.523 . S
C331 C312 1.368 . S
C331 C325 1.368 . S
C331 C330 1.523 . S
C332 C316 1.429 . S
C332 C328 1.429 . S
C332 C333 1.523 . S
C333 C317 1.368 . S
C333 C329 1.368 . S
C333 C332 1.523 . S
H334 C309 0.950 . S
H335 C311 0.950 . S
H336 C312 0.949 . S
H337 C314 0.950 . S
H338 C316 0.950 . S
C339 C340 1.349 . S
C339 C341 1.327 1_456 S
C339 H364 0.950 . S
C340 C339 1.349 . S
C340 C356 1.349 1_456 S
C341 C339 1.327 1_654 S
C341 C360 1.429 . S
C341 H365 0.950 . S
C342 C359 1.574 . S
C342 C361 1.368 . S
C342 H366 0.949 . S
H343 C347 0.949 . S
C344 C345 1.349 . S
C344 C346 1.327 . S
C344 H367 0.950 . S
C345 C344 1.349 . S
C345 C357 1.349 . S
C346 C344 1.327 . S
C346 C362 1.429 . S
C346 H368 0.950 . S
C347 H343 0.949 . S
C347 C355 1.574 . S
C347 C363 1.368 . S
H348 C356 0.950 . S
H349 C354 0.950 . S
H350 C355 0.949 . S
H351 C357 0.950 . S
H352 C358 0.950 . S
H353 C359 0.949 . S
C354 H349 0.950 . S
C354 C356 1.327 . S
C354 C360 1.429 . S
C355 C347 1.574 . S
C355 H350 0.949 . S
C355 C361 1.368 . S
C356 C340 1.349 1_654 S
C356 H348 0.950 . S
C356 C354 1.327 . S
C357 C345 1.349 . S
C357 H351 0.950 . S
C357 C358 1.327 . S
C358 H352 0.950 . S
C358 C357 1.327 . S
C358 C362 1.429 . S
C359 C342 1.574 . S
C359 H353 0.949 . S
C359 C363 1.368 . S
C360 C341 1.429 . S
C360 C354 1.429 . S
C360 C361 1.523 . S
C361 C342 1.368 . S
C361 C355 1.368 . S
C361 C360 1.523 . S
C362 C346 1.429 . S
C362 C358 1.429 . S
C362 C363 1.523 . S
C363 C347 1.368 . S
C363 C359 1.368 . S
C363 C362 1.523 . S
H364 C339 0.950 . S
H365 C341 0.950 . S
H366 C342 0.949 . S
H367 C344 0.950 . S
H368 C346 0.950 . S
C369 C370 1.349 . S
C369 C371 1.327 . S
C369 H394 0.950 . S
C370 C369 1.349 . S
C370 C386 1.349 . S
C371 C369 1.327 . S
C371 C390 1.429 . S
C371 H395 0.950 . S
C372 C389 1.574 . S
C372 C391 1.368 . S
C372 H396 0.949 . S
H373 C377 0.949 . S
C374 C375 1.349 . S
C374 C376 1.327 . S
C374 H397 0.950 . S
C375 C374 1.349 . S
C375 C387 1.349 . S
C376 C374 1.327 . S
C376 C392 1.429 . S
C376 H398 0.950 . S
C377 H373 0.949 . S
C377 C385 1.574 . S
C377 C393 1.368 . S
H378 C386 0.950 . S
H379 C384 0.950 . S
H380 C385 0.949 . S
H381 C387 0.950 . S
H382 C388 0.950 . S
H383 C389 0.949 . S
C384 H379 0.950 . S
C384 C386 1.327 . S
C384 C390 1.429 . S
C385 C377 1.574 . S
C385 H380 0.949 . S
C385 C391 1.368 . S
C386 C370 1.349 . S
C386 H378 0.950 . S
C386 C384 1.327 . S
C387 C375 1.349 . S
C387 H381 0.950 . S
C387 C388 1.327 . S
C388 H382 0.950 . S
C388 C387 1.327 . S
C388 C392 1.429 . S
C389 C372 1.574 . S
C389 H383 0.949 . S
C389 C393 1.368 . S
C390 C371 1.429 . S
C390 C384 1.429 . S
C390 C391 1.523 . S
C391 C372 1.368 . S
C391 C385 1.368 . S
C391 C390 1.523 . S
C392 C376 1.429 . S
C392 C388 1.429 . S
C392 C393 1.523 . S
C393 C377 1.368 . S
C393 C389 1.368 . S
C393 C392 1.523 . S
H394 C369 0.950 . S
H395 C371 0.950 . S
H396 C372 0.949 . S
H397 C374 0.950 . S
H398 C376 0.950 . S
C399 C400 1.349 . S
C399 C401 1.327 . S
C399 H424 0.950 . S
C400 C399 1.349 . S
C400 C416 1.349 1_565 S
C401 C399 1.327 . S
C401 C420 1.429 1_565 S
C401 H425 0.950 . S
C402 C419 1.574 . S
C402 C421 1.368 . S
C402 H426 0.949 . S
H403 C407 0.949 . S
C404 C405 1.349 . S
C404 C406 1.327 . S
C404 H427 0.950 . S
C405 C404 1.349 . S
C405 C417 1.349 . S
C406 C404 1.327 . S
C406 C422 1.429 . S
C406 H428 0.950 . S
C407 H403 0.949 . S
C407 C415 1.574 . S
C407 C423 1.368 . S
H408 C416 0.950 . S
H409 C414 0.950 . S
H410 C415 0.949 . S
H411 C417 0.950 . S
H412 C418 0.950 . S
H413 C419 0.949 . S
C414 H409 0.950 . S
C414 C416 1.327 . S
C414 C420 1.429 . S
C415 C407 1.574 . S
C415 H410 0.949 . S
C415 C421 1.368 . S
C416 C400 1.349 1_545 S
C416 H408 0.950 . S
C416 C414 1.327 . S
C417 C405 1.349 . S
C417 H411 0.950 . S
C417 C418 1.327 . S
C418 H412 0.950 . S
C418 C417 1.327 . S
C418 C422 1.429 . S
C419 C402 1.574 . S
C419 H413 0.949 . S
C419 C423 1.368 . S
C420 C401 1.429 1_545 S
C420 C414 1.429 . S
C420 C421 1.523 . S
C421 C402 1.368 . S
C421 C415 1.368 . S
C421 C420 1.523 . S
C422 C406 1.429 . S
C422 C418 1.429 . S
C422 C423 1.523 . S
C423 C407 1.368 . S
C423 C419 1.368 . S
C423 C422 1.523 . S
H424 C399 0.950 . S
H425 C401 0.950 . S
H426 C402 0.949 . S
H427 C404 0.950 . S
H428 C406 0.950 . S
C429 C430 1.348 1_556 S
C429 C431 1.327 1_456 S
C429 H454 0.951 . S
C430 C429 1.348 1_554 S
C430 C446 1.349 . S
C431 C429 1.327 1_654 S
C431 C450 1.429 . S
C431 H455 0.950 . S
C432 C449 1.574 . S
C432 C451 1.368 . S
C432 H456 0.949 . S
H433 C437 0.949 . S
C434 C435 1.349 . S
C434 C436 1.327 . S
C434 H457 0.950 . S
C435 C434 1.349 . S
C435 C447 1.349 . S
C436 C434 1.327 . S
C436 C452 1.429 . S
C436 H458 0.950 . S
C437 H433 0.949 . S
C437 C445 1.574 . S
C437 C453 1.368 . S
H438 C446 0.950 . S
H439 C444 0.950 . S
H440 C445 0.949 . S
H441 C447 0.950 . S
H442 C448 0.950 . S
H443 C449 0.949 . S
C444 H439 0.950 . S
C444 C446 1.327 1_655 S
C444 C450 1.429 . S
C445 C437 1.574 . S
C445 H440 0.949 . S
C445 C451 1.368 . S
C446 C430 1.349 . S
C446 H438 0.950 . S
C446 C444 1.327 1_455 S
C447 C435 1.349 . S
C447 H441 0.950 . S
C447 C448 1.327 . S
C448 H442 0.950 . S
C448 C447 1.327 . S
C448 C452 1.429 . S
C449 C432 1.574 . S
C449 H443 0.949 . S
C449 C453 1.368 . S
C450 C431 1.429 . S
C450 C444 1.429 . S
C450 C451 1.523 . S
C451 C432 1.368 . S
C451 C445 1.368 . S
C451 C450 1.523 . S
C452 C436 1.429 . S
C452 C448 1.429 . S
C452 C453 1.523 . S
C453 C437 1.368 . S
C453 C449 1.368 . S
C453 C452 1.523 . S
H454 C429 0.951 . S
H455 C431 0.950 . S
H456 C432 0.949 . S
H457 C434 0.950 . S
H458 C436 0.950 . S
C459 C460 1.349 . S
C459 C461 1.327 . S
C459 H484 0.950 . S
C460 C459 1.349 . S
C460 C476 1.349 . S
C461 C459 1.327 . S
C461 C480 1.429 . S
C461 H485 0.950 . S
C462 C479 1.574 . S
C462 C481 1.368 . S
C462 H486 0.949 . S
H463 C467 0.949 . S
C464 C465 1.349 . S
C464 C466 1.327 . S
C464 H487 0.950 . S
C465 C464 1.349 . S
C465 C477 1.349 . S
C466 C464 1.327 . S
C466 C482 1.429 1_455 S
C466 H488 0.950 1_455 S
C467 H463 0.949 . S
C467 C475 1.574 . S
C467 C483 1.368 . S
H468 C476 0.950 . S
H469 C474 0.950 . S
H470 C475 0.949 . S
H471 C477 0.950 . S
H472 C478 0.950 . S
H473 C479 0.949 . S
C474 H469 0.950 . S
C474 C476 1.327 . S
C474 C480 1.429 . S
C475 C467 1.574 . S
C475 H470 0.949 . S
C475 C481 1.368 . S
C476 C460 1.349 . S
C476 H468 0.950 . S
C476 C474 1.327 . S
C477 C465 1.349 . S
C477 H471 0.950 . S
C477 C478 1.327 . S
C478 H472 0.950 . S
C478 C477 1.327 . S
C478 C482 1.429 1_455 S
C479 C462 1.574 . S
C479 H473 0.949 . S
C479 C483 1.368 . S
C480 C461 1.429 . S
C480 C474 1.429 . S
C480 C481 1.523 . S
C481 C462 1.368 . S
C481 C475 1.368 . S
C481 C480 1.523 . S
C482 C466 1.429 1_655 S
C482 C478 1.429 1_655 S
C482 C483 1.523 . S
C483 C467 1.368 . S
C483 C479 1.368 . S
C483 C482 1.523 . S
H484 C459 0.950 . S
H485 C461 0.950 . S
H486 C462 0.949 . S
H487 C464 0.950 . S
H488 C466 0.950 1_655 S
C489 C490 1.349 . S
C489 C491 1.327 . S
C489 H514 0.950 . S
C490 C489 1.349 . S
C490 C506 1.349 . S
C491 C489 1.327 . S
C491 C510 1.429 . S
C491 H515 0.950 . S
C492 C509 1.574 . S
C492 C511 1.368 . S
C492 H516 0.949 . S
H493 C497 0.949 . S
C494 C495 1.349 . S
C494 C496 1.327 . S
C494 H517 0.950 . S
C495 C494 1.349 . S
C495 C507 1.349 . S
C496 C494 1.327 . S
C496 C512 1.429 . S
C496 H518 0.950 . S
C497 H493 0.949 . S
C497 C505 1.574 . S
C497 C513 1.368 . S
H498 C506 0.950 . S
H499 C504 0.950 . S
H500 C505 0.949 . S
H501 C507 0.950 . S
H502 C508 0.950 . S
H503 C509 0.949 . S
C504 H499 0.950 . S
C504 C506 1.327 . S
C504 C510 1.429 . S
C505 C497 1.574 . S
C505 H500 0.949 . S
C505 C511 1.368 . S
C506 C490 1.349 . S
C506 H498 0.950 . S
C506 C504 1.327 . S
C507 C495 1.349 . S
C507 H501 0.950 . S
C507 C508 1.327 . S
C508 H502 0.950 . S
C508 C507 1.327 . S
C508 C512 1.429 . S
C509 C492 1.574 . S
C509 H503 0.949 . S
C509 C513 1.368 . S
C510 C491 1.429 . S
C510 C504 1.429 . S
C510 C511 1.523 . S
C511 C492 1.368 . S
C511 C505 1.368 . S
C511 C510 1.523 . S
C512 C496 1.429 . S
C512 C508 1.429 . S
C512 C513 1.523 . S
C513 C497 1.368 . S
C513 C509 1.368 . S
C513 C512 1.523 . S
H514 C489 0.950 . S
H515 C491 0.950 . S
H516 C492 0.949 . S
H517 C494 0.950 . S
H518 C496 0.950 . S
C519 C520 1.349 . S
C519 C521 1.327 . S
C519 H544 0.950 . S
C520 C519 1.349 . S
C520 C536 1.349 . S
C521 C519 1.327 . S
C521 C540 1.429 1_565 S
C521 H545 0.950 . S
C522 C539 1.574 . S
C522 C541 1.368 . S
C522 H546 0.949 . S
H523 C527 0.949 . S
C524 C525 1.349 . S
C524 C526 1.327 . S
C524 H547 0.950 . S
C525 C524 1.349 . S
C525 C537 1.349 . S
C526 C524 1.327 . S
C526 C542 1.429 . S
C526 H548 0.950 . S
C527 H523 0.949 . S
C527 C535 1.574 . S
C527 C543 1.368 . S
H528 C536 0.950 . S
H529 C534 0.950 . S
H530 C535 0.949 . S
H531 C537 0.950 . S
H532 C538 0.950 . S
H533 C539 0.949 . S
C534 H529 0.950 . S
C534 C536 1.327 1_545 S
C534 C540 1.429 . S
C535 C527 1.574 . S
C535 H530 0.949 . S
C535 C541 1.368 . S
C536 C520 1.349 . S
C536 H528 0.950 . S
C536 C534 1.327 1_565 S
C537 C525 1.349 . S
C537 H531 0.950 . S
C537 C538 1.327 . S
C538 H532 0.950 . S
C538 C537 1.327 . S
C538 C542 1.429 . S
C539 C522 1.574 . S
C539 H533 0.949 . S
C539 C543 1.368 . S
C540 C521 1.429 1_545 S
C540 C534 1.429 . S
C540 C541 1.523 . S
C541 C522 1.368 . S
C541 C535 1.368 . S
C541 C540 1.523 . S
C542 C526 1.429 . S
C542 C538 1.429 . S
C542 C543 1.523 . S
C543 C527 1.368 . S
C543 C539 1.368 . S
C543 C542 1.523 . S
H544 C519 0.950 . S
H545 C521 0.950 . S
H546 C522 0.949 . S
H547 C524 0.950 . S
H548 C526 0.950 . S
C549 C550 1.349 . S
C549 C551 1.327 . S
C549 H574 0.950 . S
C550 C549 1.349 . S
C550 C566 1.349 . S
C551 C549 1.327 . S
C551 C570 1.429 . S
C551 H575 0.950 . S
C552 C569 1.574 . S
C552 C571 1.368 . S
C552 H576 0.949 . S
H553 C557 0.949 . S
C554 C555 1.349 . S
C554 C556 1.327 . S
C554 H577 0.950 . S
C555 C554 1.349 . S
C555 C567 1.349 . S
C556 C554 1.327 . S
C556 C572 1.429 . S
C556 H578 0.950 . S
C557 H553 0.949 . S
C557 C565 1.574 . S
C557 C573 1.368 . S
H558 C566 0.950 . S
H559 C564 0.950 . S
H560 C565 0.949 . S
H561 C567 0.950 . S
H562 C568 0.950 . S
H563 C569 0.949 . S
C564 H559 0.950 . S
C564 C566 1.327 . S
C564 C570 1.429 . S
C565 C557 1.574 . S
C565 H560 0.949 . S
C565 C571 1.368 . S
C566 C550 1.349 . S
C566 H558 0.950 . S
C566 C564 1.327 . S
C567 C555 1.349 . S
C567 H561 0.950 . S
C567 C568 1.327 . S
C568 H562 0.950 . S
C568 C567 1.327 . S
C568 C572 1.429 . S
C569 C552 1.574 . S
C569 H563 0.949 . S
C569 C573 1.368 . S
C570 C551 1.429 . S
C570 C564 1.429 . S
C570 C571 1.523 . S
C571 C552 1.368 . S
C571 C565 1.368 . S
C571 C570 1.523 . S
C572 C556 1.429 . S
C572 C568 1.429 . S
C572 C573 1.523 1_565 S
C573 C557 1.368 . S
C573 C569 1.368 . S
C573 C572 1.523 1_545 S
H574 C549 0.950 . S
H575 C551 0.950 . S
H576 C552 0.949 . S
H577 C554 0.950 . S
H578 C556 0.950 . S
C579 C580 1.349 . S
C579 C581 1.327 . S
C579 H604 0.950 . S
C580 C579 1.349 . S
C580 C596 1.349 . S
C581 C579 1.327 . S
C581 C600 1.429 1_455 S
C581 H605 0.950 . S
C582 C599 1.574 . S
C582 C601 1.368 . S
C582 H606 0.949 . S
H583 C587 0.949 . S
C584 C585 1.349 . S
C584 C586 1.327 . S
C584 H607 0.950 . S
C585 C584 1.349 . S
C585 C597 1.349 . S
C586 C584 1.327 . S
C586 C602 1.429 . S
C586 H608 0.950 . S
C587 H583 0.949 . S
C587 C595 1.574 . S
C587 C603 1.368 . S
H588 C596 0.950 . S
H589 C594 0.950 . S
H590 C595 0.949 . S
H591 C597 0.950 . S
H592 C598 0.950 . S
H593 C599 0.949 . S
C594 H589 0.950 . S
C594 C596 1.327 1_655 S
C594 C600 1.429 . S
C595 C587 1.574 . S
C595 H590 0.949 . S
C595 C601 1.368 . S
C596 C580 1.349 . S
C596 H588 0.950 . S
C596 C594 1.327 1_455 S
C597 C585 1.349 . S
C597 H591 0.950 . S
C597 C598 1.327 . S
C598 H592 0.950 . S
C598 C597 1.327 . S
C598 C602 1.429 . S
C599 C582 1.574 . S
C599 H593 0.949 . S
C599 C603 1.368 . S
C600 C581 1.429 1_655 S
C600 C594 1.429 . S
C600 C601 1.523 . S
C601 C582 1.368 . S
C601 C595 1.368 . S
C601 C600 1.523 . S
C602 C586 1.429 . S
C602 C598 1.429 . S
C602 C603 1.523 . S
C603 C587 1.368 . S
C603 C599 1.368 . S
C603 C602 1.523 . S
H604 C579 0.950 . S
H605 C581 0.950 . S
H606 C582 0.949 . S
H607 C584 0.950 . S
H608 C586 0.950 . S
C609 C610 1.349 . S
C609 C611 1.327 . S
C609 H634 0.950 . S
C610 C609 1.349 . S
C610 C626 1.349 . S
C611 C609 1.327 . S
C611 C630 1.429 . S
C611 H635 0.950 . S
C612 C629 1.574 . S
C612 C631 1.368 . S
C612 H636 0.949 . S
H613 C617 0.949 . S
C614 C615 1.349 . S
C614 C616 1.327 . S
C614 H637 0.950 . S
C615 C614 1.349 . S
C615 C627 1.349 . S
C616 C614 1.327 . S
C616 C632 1.429 . S
C616 H638 0.950 . S
C617 H613 0.949 . S
C617 C625 1.574 . S
C617 C633 1.368 . S
H618 C626 0.950 . S
H619 C624 0.950 . S
H620 C625 0.949 . S
H621 C627 0.950 . S
H622 C628 0.950 . S
H623 C629 0.949 . S
C624 H619 0.950 . S
C624 C626 1.327 . S
C624 C630 1.429 . S
C625 C617 1.574 . S
C625 H620 0.949 . S
C625 C631 1.368 . S
C626 C610 1.349 . S
C626 H618 0.950 . S
C626 C624 1.327 . S
C627 C615 1.349 . S
C627 H621 0.950 . S
C627 C628 1.327 . S
C628 H622 0.950 . S
C628 C627 1.327 . S
C628 C632 1.429 . S
C629 C612 1.574 . S
C629 H623 0.949 . S
C629 C633 1.368 . S
C630 C611 1.429 . S
C630 C624 1.429 . S
C630 C631 1.523 . S
C631 C612 1.368 . S
C631 C625 1.368 . S
C631 C630 1.523 . S
C632 C616 1.429 . S
C632 C628 1.429 . S
C632 C633 1.523 . S
C633 C617 1.368 . S
C633 C629 1.368 . S
C633 C632 1.523 . S
H634 C609 0.950 . S
H635 C611 0.950 . S
H636 C612 0.949 . S
H637 C614 0.950 . S
H638 C616 0.950 . S
C639 C640 1.349 . S
C639 C641 1.327 . S
C639 H664 0.950 . S
C640 C639 1.349 . S
C640 C656 1.349 . S
C641 C639 1.327 . S
C641 C660 1.429 . S
C641 H665 0.950 . S
C642 C659 1.574 1_556 S
C642 C661 1.368 . S
C642 H666 0.949 . S
H643 C647 0.949 . S
C644 C645 1.349 . S
C644 C646 1.327 . S
C644 H667 0.950 . S
C645 C644 1.349 . S
C645 C657 1.349 . S
C646 C644 1.327 . S
C646 C662 1.429 . S
C646 H668 0.950 . S
C647 H643 0.949 . S
C647 C655 1.574 . S
C647 C663 1.368 . S
H648 C656 0.950 . S
H649 C654 0.950 . S
H650 C655 0.949 . S
H651 C657 0.950 . S
H652 C658 0.950 1_556 S
H653 C659 0.949 . S
C654 H649 0.950 . S
C654 C656 1.327 . S
C654 C660 1.429 . S
C655 C647 1.574 . S
C655 H650 0.949 . S
C655 C661 1.368 . S
C656 C640 1.349 . S
C656 H648 0.950 . S
C656 C654 1.327 . S
C657 C645 1.349 . S
C657 H651 0.950 . S
C657 C658 1.327 . S
C658 H652 0.950 1_554 S
C658 C657 1.327 . S
C658 C662 1.429 . S
C659 C642 1.574 1_554 S
C659 H653 0.949 . S
C659 C663 1.368 1_554 S
C660 C641 1.429 . S
C660 C654 1.429 . S
C660 C661 1.523 . S
C661 C642 1.368 . S
C661 C655 1.368 . S
C661 C660 1.523 . S
C662 C646 1.429 . S
C662 C658 1.429 . S
C662 C663 1.523 1_554 S
C663 C647 1.368 . S
C663 C659 1.368 1_556 S
C663 C662 1.523 1_556 S
H664 C639 0.950 . S
H665 C641 0.950 . S
H666 C642 0.949 . S
H667 C644 0.950 . S
H668 C646 0.950 . S
C669 C670 1.349 . S
C669 C671 1.327 . S
C669 H694 0.950 . S
C670 C669 1.349 . S
C670 C686 1.349 . S
C671 C669 1.327 . S
C671 C690 1.429 . S
C671 H695 0.950 . S
C672 C689 1.574 . S
C672 C691 1.368 . S
C672 H696 0.949 . S
H673 C677 0.949 . S
C674 C675 1.349 1_554 S
C674 C676 1.327 1_554 S
C674 H697 0.950 . S
C675 C674 1.349 1_556 S
C675 C687 1.349 . S
C676 C674 1.327 1_556 S
C676 C692 1.429 . S
C676 H698 0.950 1_556 S
C677 H673 0.949 . S
C677 C685 1.574 . S
C677 C693 1.368 . S
H678 C686 0.950 . S
H679 C684 0.950 . S
H680 C685 0.949 . S
H681 C687 0.950 . S
H682 C688 0.950 . S
H683 C689 0.949 . S
C684 H679 0.950 . S
C684 C686 1.327 . S
C684 C690 1.429 . S
C685 C677 1.574 . S
C685 H680 0.949 . S
C685 C691 1.368 . S
C686 C670 1.349 . S
C686 H678 0.950 . S
C686 C684 1.327 . S
C687 C675 1.349 . S
C687 H681 0.950 . S
C687 C688 1.327 . S
C688 H682 0.950 . S
C688 C687 1.327 . S
C688 C692 1.429 . S
C689 C672 1.574 . S
C689 H683 0.949 . S
C689 C693 1.368 . S
C690 C671 1.429 . S
C690 C684 1.429 . S
C690 C691 1.523 . S
C691 C672 1.368 . S
C691 C685 1.368 . S
C691 C690 1.523 . S
C692 C676 1.429 . S
C692 C688 1.429 . S
C692 C693 1.523 . S
C693 C677 1.368 . S
C693 C689 1.368 . S
C693 C692 1.523 . S
H694 C669 0.950 . S
H695 C671 0.950 . S
H696 C672 0.949 . S
H697 C674 0.950 . S
H698 C676 0.950 1_554 S
C699 C700 1.349 . S
C699 C701 1.327 . S
C699 H724 0.950 . S
C700 C699 1.349 . S
C700 C716 1.349 . S
C701 C699 1.327 . S
C701 C720 1.429 . S
C701 H725 0.950 . S
C702 C719 1.574 . S
C702 C721 1.368 . S
C702 H726 0.949 . S
H703 C707 0.949 . S
C704 C705 1.349 . S
C704 C706 1.327 . S
C704 H727 0.950 . S
C705 C704 1.349 . S
C705 C717 1.349 . S
C706 C704 1.327 . S
C706 C722 1.429 . S
C706 H728 0.950 . S
C707 H703 0.949 . S
C707 C715 1.574 . S
C707 C723 1.368 . S
H708 C716 0.950 1_554 S
H709 C714 0.950 . S
H710 C715 0.949 . S
H711 C717 0.950 . S
H712 C718 0.950 . S
H713 C719 0.949 . S
C714 H709 0.950 . S
C714 C716 1.327 . S
C714 C720 1.429 . S
C715 C707 1.574 . S
C715 H710 0.949 . S
C715 C721 1.368 . S
C716 C700 1.349 . S
C716 H708 0.950 1_556 S
C716 C714 1.327 . S
C717 C705 1.349 . S
C717 H711 0.950 . S
C717 C718 1.327 . S
C718 H712 0.950 . S
C718 C717 1.327 . S
C718 C722 1.429 . S
C719 C702 1.574 . S
C719 H713 0.949 . S
C719 C723 1.368 . S
C720 C701 1.429 . S
C720 C714 1.429 . S
C720 C721 1.523 . S
C721 C702 1.368 . S
C721 C715 1.368 . S
C721 C720 1.523 . S
C722 C706 1.429 . S
C722 C718 1.429 . S
C722 C723 1.523 . S
C723 C707 1.368 . S
C723 C719 1.368 . S
C723 C722 1.523 . S
H724 C699 0.950 . S
H725 C701 0.950 . S
H726 C702 0.949 . S
H727 C704 0.950 . S
H728 C706 0.950 . S
C729 C730 1.349 1_556 S
C729 C731 1.327 . S
C729 H754 0.950 . S
C730 C729 1.349 1_554 S
C730 C746 1.349 . S
C731 C729 1.327 . S
C731 C750 1.429 1_556 S
C731 H755 0.950 . S
C732 C749 1.574 . S
C732 C751 1.368 1_554 S
C732 H756 0.949 . S
H733 C737 0.949 . S
C734 C735 1.349 . S
C734 C736 1.327 . S
C734 H757 0.950 . S
C735 C734 1.349 . S
C735 C747 1.349 . S
C736 C734 1.327 . S
C736 C752 1.429 . S
C736 H758 0.950 1_556 S
C737 H733 0.949 . S
C737 C745 1.574 . S
C737 C753 1.368 . S
H738 C746 0.950 . S
H739 C744 0.950 . S
H740 C745 0.949 . S
H741 C747 0.950 . S
H742 C748 0.950 . S
H743 C749 0.949 . S
C744 H739 0.950 . S
C744 C746 1.327 . S
C744 C750 1.429 . S
C745 C737 1.574 . S
C745 H740 0.949 . S
C745 C751 1.368 . S
C746 C730 1.349 . S
C746 H738 0.950 . S
C746 C744 1.327 . S
C747 C735 1.349 . S
C747 H741 0.950 . S
C747 C748 1.327 . S
C748 H742 0.950 . S
C748 C747 1.327 . S
C748 C752 1.429 . S
C749 C732 1.574 . S
C749 H743 0.949 . S
C749 C753 1.368 1_554 S
C750 C731 1.429 1_554 S
C750 C744 1.429 . S
C750 C751 1.523 1_554 S
C751 C732 1.368 1_556 S
C751 C745 1.368 . S
C751 C750 1.523 1_556 S
C752 C736 1.429 . S
C752 C748 1.429 . S
C752 C753 1.523 . S
C753 C737 1.368 . S
C753 C749 1.368 1_556 S
C753 C752 1.523 . S
H754 C729 0.950 . S
H755 C731 0.950 . S
H756 C732 0.949 . S
H757 C734 0.950 . S
H758 C736 0.950 1_554 S
C759 C760 1.349 . S
C759 C761 1.327 1_554 S
C759 H784 0.950 . S
C760 C759 1.349 . S
C760 C776 1.349 1_554 S
C761 C759 1.327 1_556 S
C761 C780 1.429 . S
C761 H785 0.950 . S
C762 C779 1.574 . S
C762 C781 1.368 . S
C762 H786 0.949 . S
H763 C767 0.949 . S
C764 C765 1.349 . S
C764 C766 1.327 . S
C764 H787 0.950 . S
C765 C764 1.349 . S
C765 C777 1.349 . S
C766 C764 1.327 . S
C766 C782 1.429 . S
C766 H788 0.950 . S
C767 H763 0.949 . S
C767 C775 1.574 . S
C767 C783 1.368 . S
H768 C776 0.950 . S
H769 C774 0.950 . S
H770 C775 0.949 . S
H771 C777 0.950 . S
H772 C778 0.950 . S
H773 C779 0.949 . S
C774 H769 0.950 . S
C774 C776 1.327 . S
C774 C780 1.429 . S
C775 C767 1.574 . S
C775 H770 0.949 . S
C775 C781 1.368 . S
C776 C760 1.349 1_556 S
C776 H768 0.950 . S
C776 C774 1.327 . S
C777 C765 1.349 . S
C777 H771 0.950 . S
C777 C778 1.327 . S
C778 H772 0.950 . S
C778 C777 1.327 . S
C778 C782 1.429 . S
C779 C762 1.574 . S
C779 H773 0.949 . S
C779 C783 1.368 . S
C780 C761 1.429 . S
C780 C774 1.429 . S
C780 C781 1.523 . S
C781 C762 1.368 . S
C781 C775 1.368 . S
C781 C780 1.523 . S
C782 C766 1.429 . S
C782 C778 1.429 . S
C782 C783 1.523 . S
C783 C767 1.368 . S
C783 C779 1.368 . S
C783 C782 1.523 . S
H784 C759 0.950 . S
H785 C761 0.950 . S
H786 C762 0.949 . S
H787 C764 0.950 . S
H788 C766 0.950 . S
C789 C790 1.349 . S
C789 C791 1.327 . S
C789 H814 0.950 . S
C790 C789 1.349 . S
C790 C806 1.349 . S
C791 C789 1.327 . S
C791 C810 1.429 . S
C791 H815 0.950 . S
C792 C809 1.574 . S
C792 C811 1.368 . S
C792 H816 0.949 . S
H793 C797 0.949 . S
C794 C795 1.349 . S
C794 C796 1.327 . S
C794 H817 0.950 . S
C795 C794 1.349 . S
C795 C807 1.349 . S
C796 C794 1.327 . S
C796 C812 1.429 . S
C796 H818 0.950 . S
C797 H793 0.949 . S
C797 C805 1.574 . S
C797 C813 1.368 . S
H798 C806 0.950 . S
H799 C804 0.950 . S
H800 C805 0.949 . S
H801 C807 0.950 . S
H802 C808 0.950 . S
H803 C809 0.949 . S
C804 H799 0.950 . S
C804 C806 1.327 . S
C804 C810 1.429 . S
C805 C797 1.574 . S
C805 H800 0.949 . S
C805 C811 1.368 . S
C806 C790 1.349 . S
C806 H798 0.950 . S
C806 C804 1.327 . S
C807 C795 1.349 . S
C807 H801 0.950 . S
C807 C808 1.327 . S
C808 H802 0.950 . S
C808 C807 1.327 . S
C808 C812 1.429 . S
C809 C792 1.574 . S
C809 H803 0.949 . S
C809 C813 1.368 . S
C810 C791 1.429 . S
C810 C804 1.429 . S
C810 C811 1.523 . S
C811 C792 1.368 . S
C811 C805 1.368 . S
C811 C810 1.523 . S
C812 C796 1.429 . S
C812 C808 1.429 . S
C812 C813 1.523 . S
C813 C797 1.368 . S
C813 C809 1.368 . S
C813 C812 1.523 . S
H814 C789 0.950 . S
H815 C791 0.950 . S
H816 C792 0.949 . S
H817 C794 0.950 . S
H818 C796 0.950 . S
C819 C820 1.349 1_556 S
C819 C821 1.327 . S
C819 H844 0.950 . S
C820 C819 1.349 1_554 S
C820 C836 1.349 . S
C821 C819 1.327 . S
C821 C840 1.429 1_566 S
C821 H845 0.944 1_565 S
C822 C839 1.574 . S
C822 C841 1.368 . S
C822 H846 0.949 . S
H823 C827 0.949 . S
C824 C825 1.349 . S
C824 C826 1.327 . S
C824 H847 0.950 . S
C825 C824 1.349 . S
C825 C837 1.353 . S
C826 C824 1.327 . S
C826 C842 1.429 . S
C826 H848 0.950 . S
C827 H823 0.949 . S
C827 C835 1.574 . S
C827 C843 1.368 1_556 S
H828 C836 0.950 . S
H829 C834 0.950 . S
H830 C835 0.949 . S
H831 C837 0.946 1_556 S
H832 C838 0.950 . S
H833 C839 0.949 . S
C834 H829 0.950 . S
C834 C836 1.327 1_545 S
C834 C840 1.429 . S
C835 C827 1.574 . S
C835 H830 0.949 . S
C835 C841 1.368 1_556 S
C836 C820 1.349 . S
C836 H828 0.950 . S
C836 C834 1.327 1_565 S
C837 C825 1.353 . S
C837 H831 0.946 1_554 S
C837 C838 1.327 1_554 S
C838 H832 0.950 . S
C838 C837 1.327 1_556 S
C838 C842 1.429 1_556 S
C839 C822 1.574 . S
C839 H833 0.949 . S
C839 C843 1.368 . S
C840 C821 1.429 1_544 S
C840 C834 1.429 . S
C840 C841 1.523 . S
C841 C822 1.368 . S
C841 C835 1.368 1_554 S
C841 C840 1.523 . S
C842 C826 1.429 . S
C842 C838 1.429 1_554 S
C842 C843 1.523 . S
C843 C827 1.368 1_554 S
C843 C839 1.368 . S
C843 C842 1.523 . S
H844 C819 0.950 . S
H845 C821 0.944 1_545 S
H846 C822 0.949 . S
H847 C824 0.950 . S
H848 C826 0.950 . S
C849 C850 1.349 . S
C849 C851 1.327 . S
C849 H874 0.950 . S
C850 C849 1.349 . S
C850 C866 1.349 . S
C851 C849 1.327 . S
C851 C870 1.429 1_455 S
C851 H875 0.950 . S
C852 C869 1.574 . S
C852 C871 1.368 . S
C852 H876 0.949 . S
H853 C857 0.949 . S
C854 C855 1.349 . S
C854 C856 1.327 1_565 S
C854 H877 0.950 . S
C855 C854 1.349 . S
C855 C867 1.349 . S
C856 C854 1.327 1_545 S
C856 C872 1.429 . S
C856 H878 0.950 . S
C857 H853 0.949 . S
C857 C865 1.574 . S
C857 C873 1.368 . S
H858 C866 0.950 . S
H859 C864 0.950 . S
H860 C865 0.949 . S
H861 C867 0.950 . S
H862 C868 0.950 . S
H863 C869 0.949 . S
C864 H859 0.950 . S
C864 C866 1.327 1_655 S
C864 C870 1.429 . S
C865 C857 1.574 . S
C865 H860 0.949 . S
C865 C871 1.368 . S
C866 C850 1.349 . S
C866 H858 0.950 . S
C866 C864 1.327 1_455 S
C867 C855 1.349 . S
C867 H861 0.950 . S
C867 C868 1.327 . S
C868 H862 0.950 . S
C868 C867 1.327 . S
C868 C872 1.429 1_565 S
C869 C852 1.574 . S
C869 H863 0.949 . S
C869 C873 1.368 . S
C870 C851 1.429 1_655 S
C870 C864 1.429 . S
C870 C871 1.523 . S
C871 C852 1.368 . S
C871 C865 1.368 . S
C871 C870 1.523 . S
C872 C856 1.429 . S
C872 C868 1.429 1_545 S
C872 C873 1.523 . S
C873 C857 1.368 . S
C873 C869 1.368 . S
C873 C872 1.523 . S
H874 C849 0.950 . S
H875 C851 0.950 . S
H876 C852 0.949 . S
H877 C854 0.950 . S
H878 C856 0.950 . S
C879 C880 1.349 . S
C879 C881 1.327 . S
C879 H904 0.950 . S
C880 C879 1.349 . S
C880 C896 1.349 . S
C881 C879 1.327 . S
C881 C900 1.429 . S
C881 H905 0.950 . S
C882 C899 1.574 . S
C882 C901 1.368 . S
C882 H906 0.949 . S
H883 C887 0.949 1_556 S
C884 C885 1.349 . S
C884 C886 1.327 1_455 S
C884 H907 0.950 . S
C885 C884 1.349 . S
C885 C897 1.349 . S
C886 C884 1.327 1_655 S
C886 C902 1.429 . S
C886 H908 0.950 . S
C887 H883 0.949 1_554 S
C887 C895 1.574 . S
C887 C903 1.368 . S
H888 C896 0.950 . S
H889 C894 0.950 . S
H890 C895 0.941 1_556 S
H891 C897 0.950 1_556 S
H892 C898 0.950 1_556 S
H893 C899 0.949 . S
C894 H889 0.950 . S
C894 C896 1.327 . S
C894 C900 1.429 . S
C895 C887 1.574 . S
C895 H890 0.941 1_554 S
C895 C901 1.368 . S
C896 C880 1.349 . S
C896 H888 0.950 . S
C896 C894 1.327 . S
C897 C885 1.349 . S
C897 H891 0.950 1_554 S
C897 C898 1.327 1_455 S
C898 H892 0.950 1_554 S
C898 C897 1.327 1_655 S
C898 C902 1.429 . S
C899 C882 1.574 . S
C899 H893 0.949 . S
C899 C903 1.368 . S
C900 C881 1.429 . S
C900 C894 1.429 . S
C900 C901 1.523 . S
C901 C882 1.368 . S
C901 C895 1.368 . S
C901 C900 1.523 . S
C902 C886 1.429 . S
C902 C898 1.429 . S
C902 C903 1.523 . S
C903 C887 1.368 . S
C903 C899 1.368 . S
C903 C902 1.523 . S
H904 C879 0.950 . S
H905 C881 0.950 . S
H906 C882 0.949 . S
H907 C884 0.950 . S
H908 C886 0.950 . S
C909 C910 1.349 . S
C909 C911 1.327 . S
C909 H934 0.950 . S
C910 C909 1.349 . S
C910 C926 1.349 . S
C911 C909 1.327 . S
C911 C930 1.429 . S
C911 H935 0.950 . S
C912 C929 1.574 . S
C912 C931 1.368 . S
C912 H936 0.949 . S
H913 C917 0.949 . S
C914 C915 1.349 . S
C914 C916 1.327 . S
C914 H937 0.950 . S
C915 C914 1.349 . S
C915 C927 1.349 . S
C916 C914 1.327 . S
C916 C932 1.429 . S
C916 H938 0.950 . S
C917 H913 0.949 . S
C917 C925 1.574 . S
C917 C933 1.368 . S
H918 C926 0.950 . S
H919 C924 0.950 . S
H920 C925 0.949 . S
H921 C927 0.950 . S
H922 C928 0.950 . S
H923 C929 0.949 . S
C924 H919 0.950 . S
C924 C926 1.327 . S
C924 C930 1.429 . S
C925 C917 1.574 . S
C925 H920 0.949 . S
C925 C931 1.368 . S
C926 C910 1.349 . S
C926 H918 0.950 . S
C926 C924 1.327 . S
C927 C915 1.349 . S
C927 H921 0.950 . S
C927 C928 1.327 . S
C928 H922 0.950 . S
C928 C927 1.327 . S
C928 C932 1.429 . S
C929 C912 1.574 . S
C929 H923 0.949 . S
C929 C933 1.368 . S
C930 C911 1.429 . S
C930 C924 1.429 . S
C930 C931 1.523 . S
C931 C912 1.368 . S
C931 C925 1.368 . S
C931 C930 1.523 . S
C932 C916 1.429 . S
C932 C928 1.429 . S
C932 C933 1.523 . S
C933 C917 1.368 . S
C933 C929 1.368 . S
C933 C932 1.523 . S
H934 C909 0.950 . S
H935 C911 0.950 . S
H936 C912 0.949 . S
H937 C914 0.950 . S
H938 C916 0.950 . S
C939 C940 1.349 . S
C939 C941 1.327 . S
C939 H964 0.950 . S
C940 C939 1.349 . S
C940 C956 1.349 . S
C941 C939 1.327 . S
C941 C960 1.429 . S
C941 H965 0.950 . S
C942 C959 1.574 . S
C942 C961 1.368 . S
C942 H966 0.949 . S
H943 C947 0.949 . S
C944 C945 1.349 . S
C944 C946 1.327 . S
C944 H967 0.950 . S
C945 C944 1.349 . S
C945 C957 1.349 . S
C946 C944 1.327 . S
C946 C962 1.429 . S
C946 H968 0.950 . S
C947 H943 0.949 . S
C947 C955 1.574 . S
C947 C963 1.368 . S
H948 C956 0.950 . S
H949 C954 0.950 . S
H950 C955 0.949 . S
H951 C957 0.950 . S
H952 C958 0.950 . S
H953 C959 0.949 . S
C954 H949 0.950 . S
C954 C956 1.327 . S
C954 C960 1.429 . S
C955 C947 1.574 . S
C955 H950 0.949 . S
C955 C961 1.368 . S
C956 C940 1.349 . S
C956 H948 0.950 . S
C956 C954 1.327 . S
C957 C945 1.349 . S
C957 H951 0.950 . S
C957 C958 1.327 . S
C958 H952 0.950 . S
C958 C957 1.327 . S
C958 C962 1.429 . S
C959 C942 1.574 . S
C959 H953 0.949 . S
C959 C963 1.368 . S
C960 C941 1.429 . S
C960 C954 1.429 . S
C960 C961 1.523 . S
C961 C942 1.368 . S
C961 C955 1.368 . S
C961 C960 1.523 . S
C962 C946 1.429 . S
C962 C958 1.429 . S
C962 C963 1.523 . S
C963 C947 1.368 . S
C963 C959 1.368 . S
C963 C962 1.523 . S
H964 C939 0.950 . S
H965 C941 0.950 . S
H966 C942 0.949 . S
H967 C944 0.950 . S
H968 C946 0.950 . S
C969 C970 1.349 . S
C969 C971 1.327 . S
C969 H994 0.950 . S
C970 C969 1.349 . S
C970 C986 1.349 . S
C971 C969 1.327 . S
C971 C990 1.429 . S
C971 H995 0.950 . S
C972 C989 1.574 . S
C972 C991 1.368 . S
C972 H996 0.949 . S
H973 C977 0.949 . S
C974 C975 1.349 . S
C974 C976 1.327 . S
C974 H997 0.950 . S
C975 C974 1.349 . S
C975 C987 1.349 . S
C976 C974 1.327 . S
C976 C992 1.429 . S
C976 H998 0.950 . S
C977 H973 0.949 . S
C977 C985 1.574 . S
C977 C993 1.368 . S
H978 C986 0.950 . S
H979 C984 0.950 . S
H980 C985 0.949 . S
H981 C987 0.950 . S
H982 C988 0.950 . S
H983 C989 0.949 . S
C984 H979 0.950 . S
C984 C986 1.327 . S
C984 C990 1.429 . S
C985 C977 1.574 . S
C985 H980 0.949 . S
C985 C991 1.368 . S
C986 C970 1.349 . S
C986 H978 0.950 . S
C986 C984 1.327 . S
C987 C975 1.349 . S
C987 H981 0.950 . S
C987 C988 1.327 . S
C988 H982 0.950 . S
C988 C987 1.327 . S
C988 C992 1.429 . S
C989 C972 1.574 . S
C989 H983 0.949 . S
C989 C993 1.368 . S
C990 C971 1.429 . S
C990 C984 1.429 . S
C990 C991 1.523 . S
C991 C972 1.368 . S
C991 C985 1.368 . S
C991 C990 1.523 . S
C992 C976 1.429 . S
C992 C988 1.429 . S
C992 C993 1.523 . S
C993 C977 1.368 . S
C993 C989 1.368 . S
C993 C992 1.523 . S
H994 C969 0.950 . S
H995 C971 0.950 . S
H996 C972 0.949 . S
H997 C974 0.950 . S
H998 C976 0.950 . S
C999 C1000 1.349 . S
C999 C1001 1.327 . S
C999 H1024 0.950 . S
C1000 C999 1.349 . S
C1000 C1016 1.349 . S
C1001 C999 1.327 . S
C1001 C1020 1.429 . S
C1001 H1025 0.950 . S
C1002 C1019 1.574 . S
C1002 C1021 1.368 . S
C1002 H1026 0.949 . S
H1003 C1007 0.949 . S
C1004 C1005 1.349 . S
C1004 C1006 1.327 . S
C1004 H1027 0.950 . S
C1005 C1004 1.349 . S
C1005 C1017 1.349 . S
C1006 C1004 1.327 . S
C1006 C1022 1.429 . S
C1006 H1028 0.950 . S
C1007 H1003 0.949 . S
C1007 C1015 1.574 . S
C1007 C1023 1.368 . S
H1008 C1016 0.950 . S
H1009 C1014 0.950 . S
H1010 C1015 0.949 . S
H1011 C1017 0.950 . S
H1012 C1018 0.950 . S
H1013 C1019 0.949 . S
C1014 H1009 0.950 . S
C1014 C1016 1.327 . S
C1014 C1020 1.429 . S
C1015 C1007 1.574 . S
C1015 H1010 0.949 . S
C1015 C1021 1.368 . S
C1016 C1000 1.349 . S
C1016 H1008 0.950 . S
C1016 C1014 1.327 . S
C1017 C1005 1.349 . S
C1017 H1011 0.950 . S
C1017 C1018 1.327 . S
C1018 H1012 0.950 . S
C1018 C1017 1.327 . S
C1018 C1022 1.429 . S
C1019 C1002 1.574 . S
C1019 H1013 0.949 . S
C1019 C1023 1.368 . S
C1020 C1001 1.429 . S
C1020 C1014 1.429 . S
C1020 C1021 1.523 . S
C1021 C1002 1.368 . S
C1021 C1015 1.368 . S
C1021 C1020 1.523 . S
C1022 C1006 1.429 . S
C1022 C1018 1.429 . S
C1022 C1023 1.523 . S
C1023 C1007 1.368 . S
C1023 C1019 1.368 . S
C1023 C1022 1.523 . S
H1024 C999 0.950 . S
H1025 C1001 0.950 . S
H1026 C1002 0.949 . S
H1027 C1004 0.950 . S
H1028 C1006 0.950 . S
C1029 C1030 1.349 . S
C1029 C1031 1.327 . S
C1029 H1054 0.950 . S
C1030 C1029 1.349 . S
C1030 C1046 1.349 . S
C1031 C1029 1.327 . S
C1031 C1050 1.429 . S
C1031 H1055 0.950 . S
C1032 C1049 1.574 . S
C1032 C1051 1.368 . S
C1032 H1056 0.949 . S
H1033 C1037 0.949 . S
C1034 C1035 1.349 . S
C1034 C1036 1.327 . S
C1034 H1057 0.950 . S
C1035 C1034 1.349 . S
C1035 C1047 1.349 . S
C1036 C1034 1.327 . S
C1036 C1052 1.429 . S
C1036 H1058 0.950 . S
C1037 H1033 0.949 . S
C1037 C1045 1.574 . S
C1037 C1053 1.368 . S
H1038 C1046 0.950 . S
H1039 C1044 0.950 . S
H1040 C1045 0.949 . S
H1041 C1047 0.950 . S
H1042 C1048 0.950 . S
H1043 C1049 0.949 . S
C1044 H1039 0.950 . S
C1044 C1046 1.327 . S
C1044 C1050 1.429 . S
C1045 C1037 1.574 . S
C1045 H1040 0.949 . S
C1045 C1051 1.368 . S
C1046 C1030 1.349 . S
C1046 H1038 0.950 . S
C1046 C1044 1.327 . S
C1047 C1035 1.349 . S
C1047 H1041 0.950 . S
C1047 C1048 1.327 . S
C1048 H1042 0.950 . S
C1048 C1047 1.327 . S
C1048 C1052 1.429 . S
C1049 C1032 1.574 . S
C1049 H1043 0.949 . S
C1049 C1053 1.368 . S
C1050 C1031 1.429 . S
C1050 C1044 1.429 . S
C1050 C1051 1.523 . S
C1051 C1032 1.368 . S
C1051 C1045 1.368 . S
C1051 C1050 1.523 . S
C1052 C1036 1.429 . S
C1052 C1048 1.429 . S
C1052 C1053 1.523 . S
C1053 C1037 1.368 . S
C1053 C1049 1.368 . S
C1053 C1052 1.523 . S
H1054 C1029 0.950 . S
H1055 C1031 0.950 . S
H1056 C1032 0.949 . S
H1057 C1034 0.950 . S
H1058 C1036 0.950 . S
C1059 C1060 1.349 . S
C1059 C1061 1.327 . S
C1059 H1084 0.950 . S
C1060 C1059 1.349 . S
C1060 C1076 1.349 . S
C1061 C1059 1.327 . S
C1061 C1080 1.429 . S
C1061 H1085 0.950 . S
C1062 C1079 1.574 . S
C1062 C1081 1.368 . S
C1062 H1086 0.949 . S
H1063 C1067 0.949 . S
C1064 C1065 1.349 . S
C1064 C1066 1.327 . S
C1064 H1087 0.950 . S
C1065 C1064 1.349 . S
C1065 C1077 1.349 . S
C1066 C1064 1.327 . S
C1066 C1082 1.429 . S
C1066 H1088 0.950 . S
C1067 H1063 0.949 . S
C1067 C1075 1.574 . S
C1067 C1083 1.368 . S
H1068 C1076 0.950 . S
H1069 C1074 0.950 . S
H1070 C1075 0.949 . S
H1071 C1077 0.950 . S
H1072 C1078 0.950 . S
H1073 C1079 0.949 . S
C1074 H1069 0.950 . S
C1074 C1076 1.327 . S
C1074 C1080 1.429 . S
C1075 C1067 1.574 . S
C1075 H1070 0.949 . S
C1075 C1081 1.368 . S
C1076 C1060 1.349 . S
C1076 H1068 0.950 . S
C1076 C1074 1.327 . S
C1077 C1065 1.349 . S
C1077 H1071 0.950 . S
C1077 C1078 1.327 . S
C1078 H1072 0.950 . S
C1078 C1077 1.327 . S
C1078 C1082 1.429 . S
C1079 C1062 1.574 . S
C1079 H1073 0.949 . S
C1079 C1083 1.368 . S
C1080 C1061 1.429 . S
C1080 C1074 1.429 . S
C1080 C1081 1.523 . S
C1081 C1062 1.368 . S
C1081 C1075 1.368 . S
C1081 C1080 1.523 . S
C1082 C1066 1.429 . S
C1082 C1078 1.429 . S
C1082 C1083 1.523 . S
C1083 C1067 1.368 . S
C1083 C1079 1.368 . S
C1083 C1082 1.523 . S
H1084 C1059 0.950 . S
H1085 C1061 0.950 . S
H1086 C1062 0.949 . S
H1087 C1064 0.950 . S
H1088 C1066 0.950 . S
C1089 C1090 1.349 . S
C1089 C1091 1.327 . S
C1089 H1114 0.950 . S
C1090 C1089 1.349 . S
C1090 C1106 1.349 . S
C1091 C1089 1.327 . S
C1091 C1110 1.429 . S
C1091 H1115 0.950 . S
C1092 C1109 1.574 . S
C1092 C1111 1.368 . S
C1092 H1116 0.949 . S
H1093 C1097 0.949 . S
C1094 C1095 1.349 . S
C1094 C1096 1.327 . S
C1094 H1117 0.950 . S
C1095 C1094 1.349 . S
C1095 C1107 1.349 . S
C1096 C1094 1.327 . S
C1096 C1112 1.429 . S
C1096 H1118 0.950 . S
C1097 H1093 0.949 . S
C1097 C1105 1.574 . S
C1097 C1113 1.368 . S
H1098 C1106 0.950 . S
H1099 C1104 0.950 . S
H1100 C1105 0.949 . S
H1101 C1107 0.950 . S
H1102 C1108 0.950 . S
H1103 C1109 0.949 . S
C1104 H1099 0.950 . S
C1104 C1106 1.327 . S
C1104 C1110 1.429 . S
C1105 C1097 1.574 . S
C1105 H1100 0.949 . S
C1105 C1111 1.368 . S
C1106 C1090 1.349 . S
C1106 H1098 0.950 . S
C1106 C1104 1.327 . S
C1107 C1095 1.349 . S
C1107 H1101 0.950 . S
C1107 C1108 1.327 . S
C1108 H1102 0.950 . S
C1108 C1107 1.327 . S
C1108 C1112 1.429 . S
C1109 C1092 1.574 . S
C1109 H1103 0.949 . S
C1109 C1113 1.368 . S
C1110 C1091 1.429 . S
C1110 C1104 1.429 . S
C1110 C1111 1.523 . S
C1111 C1092 1.368 . S
C1111 C1105 1.368 . S
C1111 C1110 1.523 . S
C1112 C1096 1.429 . S
C1112 C1108 1.429 . S
C1112 C1113 1.523 . S
C1113 C1097 1.368 . S
C1113 C1109 1.368 . S
C1113 C1112 1.523 . S
H1114 C1089 0.950 . S
H1115 C1091 0.950 . S
H1116 C1092 0.949 . S
H1117 C1094 0.950 . S
H1118 C1096 0.950 . S
C1119 C1120 1.349 . S
C1119 C1121 1.327 . S
C1119 H1144 0.950 . S
C1120 C1119 1.349 . S
C1120 C1136 1.349 . S
C1121 C1119 1.327 . S
C1121 C1140 1.429 . S
C1121 H1145 0.950 . S
C1122 C1139 1.574 . S
C1122 C1141 1.368 . S
C1122 H1146 0.949 . S
H1123 C1127 0.949 . S
C1124 C1125 1.349 . S
C1124 C1126 1.327 . S
C1124 H1147 0.950 . S
C1125 C1124 1.349 . S
C1125 C1137 1.349 . S
C1126 C1124 1.327 . S
C1126 C1142 1.429 . S
C1126 H1148 0.950 . S
C1127 H1123 0.949 . S
C1127 C1135 1.574 . S
C1127 C1143 1.368 . S
H1128 C1136 0.950 . S
H1129 C1134 0.950 . S
H1130 C1135 0.949 . S
H1131 C1137 0.950 . S
H1132 C1138 0.950 . S
H1133 C1139 0.949 . S
C1134 H1129 0.950 . S
C1134 C1136 1.327 . S
C1134 C1140 1.429 . S
C1135 C1127 1.574 . S
C1135 H1130 0.949 . S
C1135 C1141 1.368 . S
C1136 C1120 1.349 . S
C1136 H1128 0.950 . S
C1136 C1134 1.327 . S
C1137 C1125 1.349 . S
C1137 H1131 0.950 . S
C1137 C1138 1.327 . S
C1138 H1132 0.950 . S
C1138 C1137 1.327 . S
C1138 C1142 1.429 . S
C1139 C1122 1.574 . S
C1139 H1133 0.949 . S
C1139 C1143 1.368 . S
C1140 C1121 1.429 . S
C1140 C1134 1.429 . S
C1140 C1141 1.523 . S
C1141 C1122 1.368 . S
C1141 C1135 1.368 . S
C1141 C1140 1.523 . S
C1142 C1126 1.429 . S
C1142 C1138 1.429 . S
C1142 C1143 1.523 . S
C1143 C1127 1.368 . S
C1143 C1139 1.368 . S
C1143 C1142 1.523 . S
H1144 C1119 0.950 . S
H1145 C1121 0.950 . S
H1146 C1122 0.949 . S
H1147 C1124 0.950 . S
H1148 C1126 0.950 . S
C1149 C1150 1.349 . S
C1149 C1151 1.327 . S
C1149 H1174 0.950 . S
C1150 C1149 1.349 . S
C1150 C1166 1.349 . S
C1151 C1149 1.327 . S
C1151 C1170 1.429 . S
C1151 H1175 0.950 . S
C1152 C1169 1.574 . S
C1152 C1171 1.368 . S
C1152 H1176 0.949 . S
H1153 C1157 0.949 . S
C1154 C1155 1.349 . S
C1154 C1156 1.327 . S
C1154 H1177 0.950 . S
C1155 C1154 1.349 . S
C1155 C1167 1.349 . S
C1156 C1154 1.327 . S
C1156 C1172 1.429 . S
C1156 H1178 0.950 . S
C1157 H1153 0.949 . S
C1157 C1165 1.574 . S
C1157 C1173 1.368 . S
H1158 C1166 0.950 . S
H1159 C1164 0.950 . S
H1160 C1165 0.949 . S
H1161 C1167 0.950 . S
H1162 C1168 0.950 . S
H1163 C1169 0.949 . S
C1164 H1159 0.950 . S
C1164 C1166 1.327 . S
C1164 C1170 1.429 . S
C1165 C1157 1.574 . S
C1165 H1160 0.949 . S
C1165 C1171 1.368 . S
C1166 C1150 1.349 . S
C1166 H1158 0.950 . S
C1166 C1164 1.327 . S
C1167 C1155 1.349 . S
C1167 H1161 0.950 . S
C1167 C1168 1.327 . S
C1168 H1162 0.950 . S
C1168 C1167 1.327 . S
C1168 C1172 1.429 . S
C1169 C1152 1.574 . S
C1169 H1163 0.949 . S
C1169 C1173 1.368 . S
C1170 C1151 1.429 . S
C1170 C1164 1.429 . S
C1170 C1171 1.523 . S
C1171 C1152 1.368 . S
C1171 C1165 1.368 . S
C1171 C1170 1.523 . S
C1172 C1156 1.429 . S
C1172 C1168 1.429 . S
C1172 C1173 1.523 . S
C1173 C1157 1.368 . S
C1173 C1169 1.368 . S
C1173 C1172 1.523 . S
H1174 C1149 0.950 . S
H1175 C1151 0.950 . S
H1176 C1152 0.949 . S
H1177 C1154 0.950 . S
H1178 C1156 0.950 . S
C1179 C1180 1.349 . S
C1179 C1181 1.327 . S
C1179 H1204 0.950 . S
C1180 C1179 1.349 . S
C1180 C1196 1.349 . S
C1181 C1179 1.327 . S
C1181 C1200 1.429 . S
C1181 H1205 0.950 . S
C1182 C1199 1.574 . S
C1182 C1201 1.368 . S
C1182 H1206 0.949 . S
H1183 C1187 0.949 . S
C1184 C1185 1.349 . S
C1184 C1186 1.327 . S
C1184 H1207 0.950 . S
C1185 C1184 1.349 . S
C1185 C1197 1.349 . S
C1186 C1184 1.327 . S
C1186 C1202 1.429 . S
C1186 H1208 0.950 . S
C1187 H1183 0.949 . S
C1187 C1195 1.574 . S
C1187 C1203 1.368 . S
H1188 C1196 0.950 . S
H1189 C1194 0.950 . S
H1190 C1195 0.949 . S
H1191 C1197 0.950 . S
H1192 C1198 0.950 . S
H1193 C1199 0.949 . S
C1194 H1189 0.950 . S
C1194 C1196 1.327 . S
C1194 C1200 1.429 . S
C1195 C1187 1.574 . S
C1195 H1190 0.949 . S
C1195 C1201 1.368 . S
C1196 C1180 1.349 . S
C1196 H1188 0.950 . S
C1196 C1194 1.327 . S
C1197 C1185 1.349 . S
C1197 H1191 0.950 . S
C1197 C1198 1.327 . S
C1198 H1192 0.950 . S
C1198 C1197 1.327 . S
C1198 C1202 1.429 . S
C1199 C1182 1.574 . S
C1199 H1193 0.949 . S
C1199 C1203 1.368 . S
C1200 C1181 1.429 . S
C1200 C1194 1.429 . S
C1200 C1201 1.523 . S
C1201 C1182 1.368 . S
C1201 C1195 1.368 . S
C1201 C1200 1.523 . S
C1202 C1186 1.429 . S
C1202 C1198 1.429 . S
C1202 C1203 1.523 1_554 S
C1203 C1187 1.368 . S
C1203 C1199 1.368 . S
C1203 C1202 1.523 1_556 S
H1204 C1179 0.950 . S
H1205 C1181 0.950 . S
H1206 C1182 0.949 . S
H1207 C1184 0.950 . S
H1208 C1186 0.950 . S
C1209 C1210 1.349 . S
C1209 C1211 1.327 . S
C1209 H1234 0.950 . S
C1210 C1209 1.349 . S
C1210 C1226 1.349 . S
C1211 C1209 1.327 . S
C1211 C1230 1.429 . S
C1211 H1235 0.950 . S
C1212 C1229 1.574 1_554 S
C1212 C1231 1.368 . S
C1212 H1236 0.949 . S
H1213 C1217 0.949 . S
C1214 C1215 1.349 . S
C1214 C1216 1.327 . S
C1214 H1237 0.950 . S
C1215 C1214 1.349 . S
C1215 C1227 1.349 . S
C1216 C1214 1.327 . S
C1216 C1232 1.429 . S
C1216 H1238 0.950 . S
C1217 H1213 0.949 . S
C1217 C1225 1.574 1_556 S
C1217 C1233 1.368 . S
H1218 C1226 0.950 . S
H1219 C1224 0.950 . S
H1220 C1225 0.949 . S
H1221 C1227 0.950 . S
H1222 C1228 0.950 . S
H1223 C1229 0.949 . S
C1224 H1219 0.950 . S
C1224 C1226 1.327 . S
C1224 C1230 1.429 . S
C1225 C1217 1.574 1_554 S
C1225 H1220 0.949 . S
C1225 C1231 1.368 . S
C1226 C1210 1.349 . S
C1226 H1218 0.950 . S
C1226 C1224 1.327 . S
C1227 C1215 1.349 . S
C1227 H1221 0.950 . S
C1227 C1228 1.327 . S
C1228 H1222 0.950 . S
C1228 C1227 1.327 . S
C1228 C1232 1.429 . S
C1229 C1212 1.574 1_556 S
C1229 H1223 0.949 . S
C1229 C1233 1.368 . S
C1230 C1211 1.429 . S
C1230 C1224 1.429 . S
C1230 C1231 1.523 . S
C1231 C1212 1.368 . S
C1231 C1225 1.368 . S
C1231 C1230 1.523 . S
C1232 C1216 1.429 . S
C1232 C1228 1.429 . S
C1232 C1233 1.523 . S
C1233 C1217 1.368 . S
C1233 C1229 1.368 . S
C1233 C1232 1.523 . S
H1234 C1209 0.950 . S
H1235 C1211 0.950 . S
H1236 C1212 0.949 . S
H1237 C1214 0.950 . S
H1238 C1216 0.950 . S
C1239 C1240 1.349 . S
C1239 C1241 1.327 . S
C1239 H1264 0.950 . S
C1240 C1239 1.349 . S
C1240 C1256 1.349 . S
C1241 C1239 1.327 . S
C1241 C1260 1.429 . S
C1241 H1265 0.950 . S
C1242 C1259 1.574 . S
C1242 C1261 1.368 . S
C1242 H1266 0.949 . S
H1243 C1247 0.949 . S
C1244 C1245 1.349 . S
C1244 C1246 1.327 . S
C1244 H1267 0.950 . S
C1245 C1244 1.349 . S
C1245 C1257 1.349 . S
C1246 C1244 1.327 . S
C1246 C1262 1.429 1_554 S
C1246 H1268 0.950 . S
C1247 H1243 0.949 . S
C1247 C1255 1.574 . S
C1247 C1263 1.368 . S
H1248 C1256 0.950 . S
H1249 C1254 0.950 . S
H1250 C1255 0.949 . S
H1251 C1257 0.950 . S
H1252 C1258 0.950 . S
H1253 C1259 0.949 . S
C1254 H1249 0.950 . S
C1254 C1256 1.327 . S
C1254 C1260 1.429 . S
C1255 C1247 1.574 . S
C1255 H1250 0.949 . S
C1255 C1261 1.368 . S
C1256 C1240 1.349 . S
C1256 H1248 0.950 . S
C1256 C1254 1.327 . S
C1257 C1245 1.349 . S
C1257 H1251 0.950 . S
C1257 C1258 1.327 . S
C1258 H1252 0.950 . S
C1258 C1257 1.327 . S
C1258 C1262 1.429 1_554 S
C1259 C1242 1.574 . S
C1259 H1253 0.949 . S
C1259 C1263 1.368 . S
C1260 C1241 1.429 . S
C1260 C1254 1.429 . S
C1260 C1261 1.523 . S
C1261 C1242 1.368 . S
C1261 C1255 1.368 . S
C1261 C1260 1.523 . S
C1262 C1246 1.429 1_556 S
C1262 C1258 1.429 1_556 S
C1262 C1263 1.523 . S
C1263 C1247 1.368 . S
C1263 C1259 1.368 . S
C1263 C1262 1.523 . S
H1264 C1239 0.950 . S
H1265 C1241 0.950 . S
H1266 C1242 0.949 . S
H1267 C1244 0.950 . S
H1268 C1246 0.950 . S
C1269 C1270 1.349 . S
C1269 C1271 1.327 . S
C1269 H1294 0.950 . S
C1270 C1269 1.349 . S
C1270 C1286 1.349 . S
C1271 C1269 1.327 . S
C1271 C1290 1.429 . S
C1271 H1295 0.950 . S
C1272 C1289 1.574 . S
C1272 C1291 1.368 . S
C1272 H1296 0.949 . S
H1273 C1277 0.949 . S
C1274 C1275 1.349 . S
C1274 C1276 1.327 1_556 S
C1274 H1297 0.950 . S
C1275 C1274 1.349 . S
C1275 C1287 1.349 . S
C1276 C1274 1.327 1_554 S
C1276 C1292 1.429 . S
C1276 H1298 0.950 . S
C1277 H1273 0.949 . S
C1277 C1285 1.574 . S
C1277 C1293 1.368 . S
H1278 C1286 0.950 . S
H1279 C1284 0.950 . S
H1280 C1285 0.949 . S
H1281 C1287 0.950 . S
H1282 C1288 0.950 . S
H1283 C1289 0.949 . S
C1284 H1279 0.950 . S
C1284 C1286 1.327 . S
C1284 C1290 1.429 . S
C1285 C1277 1.574 . S
C1285 H1280 0.949 . S
C1285 C1291 1.368 . S
C1286 C1270 1.349 . S
C1286 H1278 0.950 . S
C1286 C1284 1.327 . S
C1287 C1275 1.349 . S
C1287 H1281 0.950 . S
C1287 C1288 1.327 1_556 S
C1288 H1282 0.950 . S
C1288 C1287 1.327 1_554 S
C1288 C1292 1.429 . S
C1289 C1272 1.574 . S
C1289 H1283 0.949 . S
C1289 C1293 1.368 . S
C1290 C1271 1.429 . S
C1290 C1284 1.429 . S
C1290 C1291 1.523 . S
C1291 C1272 1.368 . S
C1291 C1285 1.368 . S
C1291 C1290 1.523 . S
C1292 C1276 1.429 . S
C1292 C1288 1.429 . S
C1292 C1293 1.523 . S
C1293 C1277 1.368 . S
C1293 C1289 1.368 . S
C1293 C1292 1.523 . S
H1294 C1269 0.950 . S
H1295 C1271 0.950 . S
H1296 C1272 0.949 . S
H1297 C1274 0.950 . S
H1298 C1276 0.950 . S
C1299 C1300 1.349 . S
C1299 C1301 1.327 . S
C1299 H1324 0.950 . S
C1300 C1299 1.349 . S
C1300 C1316 1.349 . S
C1301 C1299 1.327 . S
C1301 C1320 1.429 . S
C1301 H1325 0.950 . S
C1302 C1319 1.574 . S
C1302 C1321 1.368 . S
C1302 H1326 0.949 . S
H1303 C1307 0.949 . S
C1304 C1305 1.349 1_554 S
C1304 C1306 1.327 . S
C1304 H1327 0.950 1_554 S
C1305 C1304 1.349 1_556 S
C1305 C1317 1.349 1_556 S
C1306 C1304 1.327 . S
C1306 C1322 1.429 . S
C1306 H1328 0.950 . S
C1307 H1303 0.949 . S
C1307 C1315 1.574 . S
C1307 C1323 1.368 . S
H1308 C1316 0.950 . S
H1309 C1314 0.950 . S
H1310 C1315 0.949 . S
H1311 C1317 0.950 1_556 S
H1312 C1318 0.950 . S
H1313 C1319 0.949 . S
C1314 H1309 0.950 . S
C1314 C1316 1.327 . S
C1314 C1320 1.429 . S
C1315 C1307 1.574 . S
C1315 H1310 0.949 . S
C1315 C1321 1.368 . S
C1316 C1300 1.349 . S
C1316 H1308 0.950 . S
C1316 C1314 1.327 . S
C1317 C1305 1.349 1_554 S
C1317 H1311 0.950 1_554 S
C1317 C1318 1.327 . S
C1318 H1312 0.950 . S
C1318 C1317 1.327 . S
C1318 C1322 1.429 . S
C1319 C1302 1.574 . S
C1319 H1313 0.949 . S
C1319 C1323 1.368 . S
C1320 C1301 1.429 . S
C1320 C1314 1.429 . S
C1320 C1321 1.523 . S
C1321 C1302 1.368 . S
C1321 C1315 1.368 . S
C1321 C1320 1.523 . S
C1322 C1306 1.429 . S
C1322 C1318 1.429 . S
C1322 C1323 1.523 . S
C1323 C1307 1.368 . S
C1323 C1319 1.368 . S
C1323 C1322 1.523 . S
H1324 C1299 0.950 . S
H1325 C1301 0.950 . S
H1326 C1302 0.949 . S
H1327 C1304 0.950 1_556 S
H1328 C1306 0.950 . S
C1329 C1330 1.349 . S
C1329 C1331 1.327 . S
C1329 H1354 0.950 . S
C1330 C1329 1.349 . S
C1330 C1346 1.349 . S
C1331 C1329 1.327 . S
C1331 C1350 1.429 . S
C1331 H1355 0.950 . S
C1332 C1349 1.574 . S
C1332 C1351 1.368 . S
C1332 H1356 0.949 . S
H1333 C1337 0.949 . S
C1334 C1335 1.349 . S
C1334 C1336 1.327 . S
C1334 H1357 0.950 . S
C1335 C1334 1.349 . S
C1335 C1347 1.349 . S
C1336 C1334 1.327 . S
C1336 C1352 1.429 1_556 S
C1336 H1358 0.950 . S
C1337 H1333 0.949 . S
C1337 C1345 1.574 . S
C1337 C1353 1.368 . S
H1338 C1346 0.950 . S
H1339 C1344 0.950 . S
H1340 C1345 0.949 . S
H1341 C1347 0.950 . S
H1342 C1348 0.950 . S
H1343 C1349 0.949 . S
C1344 H1339 0.950 . S
C1344 C1346 1.327 . S
C1344 C1350 1.429 . S
C1345 C1337 1.574 . S
C1345 H1340 0.949 . S
C1345 C1351 1.368 . S
C1346 C1330 1.349 . S
C1346 H1338 0.950 . S
C1346 C1344 1.327 . S
C1347 C1335 1.349 . S
C1347 H1341 0.950 . S
C1347 C1348 1.327 . S
C1348 H1342 0.950 . S
C1348 C1347 1.327 . S
C1348 C1352 1.429 1_556 S
C1349 C1332 1.574 . S
C1349 H1343 0.949 . S
C1349 C1353 1.368 . S
C1350 C1331 1.429 . S
C1350 C1344 1.429 . S
C1350 C1351 1.523 . S
C1351 C1332 1.368 . S
C1351 C1345 1.368 . S
C1351 C1350 1.523 . S
C1352 C1336 1.429 1_554 S
C1352 C1348 1.429 1_554 S
C1352 C1353 1.523 . S
C1353 C1337 1.368 . S
C1353 C1349 1.368 . S
C1353 C1352 1.523 . S
H1354 C1329 0.950 . S
H1355 C1331 0.950 . S
H1356 C1332 0.949 . S
H1357 C1334 0.950 . S
H1358 C1336 0.950 . S
C280 C24 1.925 . S
C285 C135 1.961 . S
C310 C166 1.783 . S
C315 C55 1.626 . S
C340 C86 1.736 . S
C345 C120 1.935 . S
C370 C31 1.595 . S
C375 C111 1.621 . S
C400 C62 1.668 . S
C405 C125 1.698 . S
C430 C0 1.414 . S
C435 C156 1.519 . S
C460 C117 1.924 . S
C465 C228 1.961 . S
C490 C259 1.783 . S
C495 C148 1.626 . S
C520 C213 1.935 . S
C525 C179 1.736 . S
C550 C124 1.595 . S
C555 C204 1.621 . S
C580 C218 1.698 . S
C585 C155 1.668 . S
C610 C249 1.519 . S
C615 C93 1.414 . S
C640 C210 1.924 . S
C645 C42 1.961 . S
C670 C241 1.626 . S
C675 C73 1.783 1_556 S
C700 C27 1.935 1_556 S
C705 C272 1.736 . S
C730 C18 1.621 . S
C735 C217 1.595 . S
C760 C32 1.698 . S
C765 C248 1.668 . S
C790 C186 1.414 . S
C795 C63 1.519 . S
C820 C80 1.773 1_554 S
C825 C11 1.764 . S
C850 C1 1.532 . S
C855 C58 1.510 . S
C880 C49 1.668 . S
C885 C89 1.600 . S
C910 C173 1.773 . S
C915 C104 1.764 . S
C940 C94 1.532 . S
C945 C151 1.510 . S
C970 C142 1.668 . S
C975 C182 1.600 . S
C1000 C197 1.764 . S
C1005 C266 1.773 . S
C1030 C244 1.510 . S
C1035 C187 1.532 . S
C1060 C275 1.600 . S
C1065 C235 1.668 . S
C1090 C10 0.587 . S
C1095 C2 0.587 . S
C1120 C41 0.585 . S
C1125 C33 0.585 . S
C1150 C64 0.589 . S
C1155 C72 0.589 . S
C1180 C95 0.587 . S
C1185 C103 0.587 . S
C1210 C126 0.585 . S
C1215 C134 0.585 . S
C1240 C165 0.589 . S
C1245 C157 0.589 . S
C1270 C196 0.587 . S
C1275 C188 0.587 . S
C1300 C219 0.585 . S
C1305 C227 0.585 . S
C1330 C250 0.589 . S
C1335 C258 0.589 . S
