# Generated by pormake.
# Topology bcu-j, (5)-cn, num edge types: 1
# Building blocks:
#     Node 0, Type 0, BuildingBlock: BEQFEK_clean_sbu_0, # of connection points: 5
#     Node 1, Type 0, BuildingBlock: BEQFEK_clean_sbu_0, # of connection points: 5
#     Node 2, Type 0, BuildingBlock: BEQFEK_clean_sbu_0, # of connection points: 5
#     Node 3, Type 0, BuildingBlock: BEQFEK_clean_sbu_0, # of connection points: 5
#     Node 4, Type 0, BuildingBlock: BEQFEK_clean_sbu_0, # of connection points: 5
#     Node 5, Type 0, BuildingBlock: BEQFEK_clean_sbu_0, # of connection points: 5
#     Node 6, Type 0, BuildingBlock: BEQFEK_clean_sbu_0, # of connection points: 5
#     Node 7, Type 0, BuildingBlock: BEQFEK_clean_sbu_0, # of connection points: 5
#     Node 8, Type 0, BuildingBlock: BEQFEK_clean_sbu_0, # of connection points: 5
#     Node 9, Type 0, BuildingBlock: BEQFEK_clean_sbu_0, # of connection points: 5
#     Node 10, Type 0, BuildingBlock: BEQFEK_clean_sbu_0, # of connection points: 5
#     Node 11, Type 0, BuildingBlock: BEQFEK_clean_sbu_0, # of connection points: 5
#     Node 12, Type 0, BuildingBlock: BEQFEK_clean_sbu_0, # of connection points: 5
#     Node 13, Type 0, BuildingBlock: BEQFEK_clean_sbu_0, # of connection points: 5
#     Node 14, Type 0, BuildingBlock: BEQFEK_clean_sbu_0, # of connection points: 5
#     Node 15, Type 0, BuildingBlock: BEQFEK_clean_sbu_0, # of connection points: 5
#     Edge 16, Type (0, 0), BuildingBlock: CIFDUS_clean_linker_0, # of connection points: 2
#     Edge 17, Type (0, 0), BuildingBlock: CIFDUS_clean_linker_0, # of connection points: 2
#     Edge 18, Type (0, 0), BuildingBlock: CIFDUS_clean_linker_0, # of connection points: 2
#     Edge 19, Type (0, 0), BuildingBlock: CIFDUS_clean_linker_0, # of connection points: 2
#     Edge 20, Type (0, 0), BuildingBlock: CIFDUS_clean_linker_0, # of connection points: 2
#     Edge 21, Type (0, 0), BuildingBlock: CIFDUS_clean_linker_0, # of connection points: 2
#     Edge 22, Type (0, 0), BuildingBlock: CIFDUS_clean_linker_0, # of connection points: 2
#     Edge 23, Type (0, 0), BuildingBlock: CIFDUS_clean_linker_0, # of connection points: 2
#     Edge 24, Type (0, 0), BuildingBlock: CIFDUS_clean_linker_0, # of connection points: 2
#     Edge 25, Type (0, 0), BuildingBlock: CIFDUS_clean_linker_0, # of connection points: 2
#     Edge 26, Type (0, 0), BuildingBlock: CIFDUS_clean_linker_0, # of connection points: 2
#     Edge 27, Type (0, 0), BuildingBlock: CIFDUS_clean_linker_0, # of connection points: 2
#     Edge 28, Type (0, 0), BuildingBlock: CIFDUS_clean_linker_0, # of connection points: 2
#     Edge 29, Type (0, 0), BuildingBlock: CIFDUS_clean_linker_0, # of connection points: 2
#     Edge 30, Type (0, 0), BuildingBlock: CIFDUS_clean_linker_0, # of connection points: 2
#     Edge 31, Type (0, 0), BuildingBlock: CIFDUS_clean_linker_0, # of connection points: 2
#     Edge 32, Type (0, 0), BuildingBlock: CIFDUS_clean_linker_0, # of connection points: 2
#     Edge 33, Type (0, 0), BuildingBlock: CIFDUS_clean_linker_0, # of connection points: 2
#     Edge 34, Type (0, 0), BuildingBlock: CIFDUS_clean_linker_0, # of connection points: 2
#     Edge 35, Type (0, 0), BuildingBlock: CIFDUS_clean_linker_0, # of connection points: 2
#     Edge 36, Type (0, 0), BuildingBlock: CIFDUS_clean_linker_0, # of connection points: 2
#     Edge 37, Type (0, 0), BuildingBlock: CIFDUS_clean_linker_0, # of connection points: 2
#     Edge 38, Type (0, 0), BuildingBlock: CIFDUS_clean_linker_0, # of connection points: 2
#     Edge 39, Type (0, 0), BuildingBlock: CIFDUS_clean_linker_0, # of connection points: 2
#     Edge 40, Type (0, 0), BuildingBlock: CIFDUS_clean_linker_0, # of connection points: 2
#     Edge 41, Type (0, 0), BuildingBlock: CIFDUS_clean_linker_0, # of connection points: 2
#     Edge 42, Type (0, 0), BuildingBlock: CIFDUS_clean_linker_0, # of connection points: 2
#     Edge 43, Type (0, 0), BuildingBlock: CIFDUS_clean_linker_0, # of connection points: 2
#     Edge 44, Type (0, 0), BuildingBlock: CIFDUS_clean_linker_0, # of connection points: 2
#     Edge 45, Type (0, 0), BuildingBlock: CIFDUS_clean_linker_0, # of connection points: 2
#     Edge 46, Type (0, 0), BuildingBlock: CIFDUS_clean_linker_0, # of connection points: 2
#     Edge 47, Type (0, 0), BuildingBlock: CIFDUS_clean_linker_0, # of connection points: 2
#     Edge 48, Type (0, 0), BuildingBlock: CIFDUS_clean_linker_0, # of connection points: 2
#     Edge 49, Type (0, 0), BuildingBlock: CIFDUS_clean_linker_0, # of connection points: 2
#     Edge 50, Type (0, 0), BuildingBlock: CIFDUS_clean_linker_0, # of connection points: 2
#     Edge 51, Type (0, 0), BuildingBlock: CIFDUS_clean_linker_0, # of connection points: 2
#     Edge 52, Type (0, 0), BuildingBlock: CIFDUS_clean_linker_0, # of connection points: 2
#     Edge 53, Type (0, 0), BuildingBlock: CIFDUS_clean_linker_0, # of connection points: 2
#     Edge 54, Type (0, 0), BuildingBlock: CIFDUS_clean_linker_0, # of connection points: 2
#     Edge 55, Type (0, 0), BuildingBlock: CIFDUS_clean_linker_0, # of connection points: 2
# Relax obj value: 0.930
# Max RMSD: 0.234
# Mean RMSD: 0.224
data_MOF--net-bcu-j--node1-BEQFEK_clean_sbu_0--edge1-CIFDUS_clean_linker_0
_symmetry_space_group_name_H-M    P1
_symmetry_Int_Tables_number       1
_symmetry_cell_setting            triclinic
loop_
_symmetry_equiv_pos_as_xyz
'x, y, z'
_cell_length_a     37.716936
_cell_length_b     37.7849
_cell_length_c     34.219079
_cell_angle_alpha  89.461822
_cell_angle_beta   90.498057
_cell_angle_gamma 90.35758
loop_
_atom_site_label
_atom_site_type_symbol
_atom_site_fract_x
_atom_site_fract_y
_atom_site_fract_z
_atom_type_partial_charge
Co0 Co 0.9906 0.09496 0.60878 0.0
Co1 Co 0.01456 0.16322 0.56592 0.0
C2 C 0.06696 0.11058 0.58511 0.0
O3 O 0.04178 0.08947 0.59425 0.0
O4 O 0.06152 0.14325 0.57822 0.0
C5 C 0.99134 0.02547 0.64181 0.0
O6 O 0.01187 0.01843 0.6121 0.0
C7 C 0.04826 0.23105 0.54911 0.0
C8 C 0.00714 0.25946 0.5151 0.0
C9 C 0.04038 0.26344 0.53212 0.0
N10 N 0.02097 0.20879 0.5425 0.0
N11 N 0.99671 0.22573 0.52155 0.0
C12 C 0.07905 0.22267 0.57549 0.0
H13 H 0.09796 0.20579 0.55957 0.0
H14 H 0.06978 0.20764 0.6015 0.0
H15 H 0.09307 0.24698 0.58522 0.0
C16 C 0.96631 0.14562 0.66695 0.0
N17 N 0.98154 0.1378 0.63278 0.0
N18 N 0.98839 0.1671 0.61322 0.0
C19 C 0.97787 0.19483 0.63469 0.0
C20 C 0.96338 0.18203 0.66932 0.0
C21 C 0.95443 0.11854 0.69631 0.0
H22 H 0.93588 0.09967 0.68204 0.0
H23 H 0.97772 0.10334 0.70697 0.0
H24 H 0.94095 0.13083 0.72144 0.0
O25 O 0.96109 0.09469 0.56251 0.0
O26 O 0.99688 0.12737 0.52706 0.0
H27 H 0.97219 0.23875 0.59533 0.0
H28 H 0.97436 0.2512 0.6461 0.0
C29 C 0.98473 0.23276 0.62402 0.0
H30 H 0.01366 0.23723 0.62142 0.0
H31 H 0.97228 0.21483 0.51343 0.0
O32 O 0.97782 0.05603 0.64427 0.0
C33 C 0.97752 0.09976 0.53088 0.0
Co34 Co 0.4039 0.9742 0.61815 0.0
Co35 Co 0.34218 0.99512 0.56282 0.0
C36 C 0.39156 0.04931 0.58503 0.0
O37 O 0.41018 0.02487 0.60089 0.0
O38 O 0.36034 0.04305 0.57229 0.0
C39 C 0.46917 0.97643 0.6609 0.0
O40 O 0.48191 0.99095 0.62888 0.0
C41 C 0.2769 0.02443 0.52989 0.0
C42 C 0.24742 0.9759 0.51446 0.0
C43 C 0.24316 0.01195 0.52009 0.0
N44 N 0.29918 0.9968 0.53233 0.0
N45 N 0.28167 0.96804 0.52165 0.0
C46 C 0.28812 0.06185 0.53732 0.0
H47 H 0.31434 0.06684 0.52386 0.0
H48 H 0.29074 0.06611 0.56926 0.0
H49 H 0.26886 0.08092 0.52459 0.0
C50 C 0.34624 0.95342 0.66997 0.0
N51 N 0.35835 0.96495 0.6353 0.0
N52 N 0.33163 0.97334 0.61228 0.0
C53 C 0.30127 0.96829 0.63235 0.0
C54 C 0.30964 0.9552 0.66937 0.0
C55 C 0.3695 0.94265 0.70363 0.0
H56 H 0.39028 0.92439 0.69333 0.0
H57 H 0.38282 0.96649 0.71571 0.0
H58 H 0.35406 0.92936 0.72708 0.0
O59 O 0.41396 0.94283 0.5756 0.0
O60 O 0.38356 0.97489 0.53295 0.0
H61 H 0.25522 0.96316 0.59617 0.0
H62 H 0.24637 0.98171 0.64325 0.0
C63 C 0.26567 0.98109 0.619 0.0
H64 H 0.26823 0.00812 0.60658 0.0
H65 H 0.2922 0.94258 0.52284 0.0
O66 O 0.43718 0.9659 0.66125 0.0
C67 C 0.40977 0.95479 0.54123 0.0
Co68 Co 0.51256 0.40084 0.59602 0.0
Co69 Co 0.49192 0.33681 0.54109 0.0
C70 C 0.44387 0.39871 0.55 0.0
O71 O 0.46645 0.41445 0.57181 0.0
O72 O 0.44935 0.36757 0.53738 0.0
C73 C 0.5141 0.46644 0.63639 0.0
O74 O 0.493 0.4766 0.60777 0.0
C75 C 0.45249 0.27219 0.52557 0.0
C76 C 0.49092 0.24084 0.49233 0.0
C77 C 0.4583 0.23876 0.51064 0.0
N78 N 0.48063 0.29279 0.51711 0.0
N79 N 0.50305 0.27424 0.49621 0.0
C80 C 0.42347 0.2829 0.55255 0.0
H81 H 0.43191 0.30579 0.57051 0.0
H82 H 0.4156 0.26055 0.57194 0.0
H83 H 0.39995 0.29072 0.53486 0.0
C84 C 0.51108 0.34485 0.65602 0.0
N85 N 0.50798 0.35599 0.61871 0.0
N86 N 0.50387 0.32859 0.59553 0.0
C87 C 0.50513 0.29887 0.61776 0.0
C88 C 0.50924 0.30825 0.65663 0.0
C89 C 0.51415 0.36905 0.69027 0.0
H90 H 0.49626 0.39199 0.68603 0.0
H91 H 0.50746 0.35523 0.71801 0.0
H92 H 0.54176 0.37923 0.69228 0.0
O93 O 0.5496 0.39496 0.55714 0.0
O94 O 0.52898 0.36293 0.51017 0.0
H95 H 0.51978 0.24396 0.62264 0.0
H96 H 0.47742 0.25191 0.60045 0.0
C97 C 0.50503 0.26188 0.60249 0.0
H98 H 0.51753 0.26113 0.57338 0.0
H99 H 0.52782 0.28353 0.48724 0.0
O100 O 0.52679 0.4354 0.63598 0.0
C101 C 0.53908 0.39322 0.52201 0.0
Co102 Co 0.11188 0.53377 0.59404 0.0
Co103 Co 0.16707 0.50588 0.53517 0.0
C104 C 0.11849 0.45598 0.57273 0.0
O105 O 0.10279 0.48199 0.58833 0.0
O106 O 0.14685 0.46054 0.55341 0.0
C107 C 0.05014 0.54043 0.63819 0.0
O108 O 0.03634 0.52457 0.60756 0.0
C109 C 0.22793 0.46821 0.50553 0.0
C110 C 0.25107 0.50643 0.46363 0.0
C111 C 0.25697 0.47403 0.48179 0.0
N112 N 0.20582 0.4958 0.50159 0.0
N113 N 0.21935 0.51818 0.47573 0.0
C114 C 0.22373 0.43948 0.53568 0.0
H115 H 0.20532 0.41903 0.5241 0.0
H116 H 0.21214 0.45026 0.5627 0.0
H117 H 0.24937 0.42675 0.54306 0.0
C118 C 0.17554 0.55643 0.63598 0.0
N119 N 0.15955 0.5438 0.60376 0.0
N120 N 0.18354 0.53307 0.57899 0.0
C121 C 0.21598 0.53869 0.59508 0.0
C122 C 0.21188 0.55322 0.63196 0.0
C123 C 0.15613 0.56783 0.67166 0.0
H124 H 0.13549 0.58731 0.66322 0.0
H125 H 0.14271 0.54454 0.68508 0.0
H126 H 0.17435 0.57998 0.69344 0.0
O127 O 0.09547 0.55742 0.54696 0.0
O128 O 0.1255 0.52545 0.50492 0.0
H129 H 0.25109 0.53273 0.54673 0.0
H130 H 0.2733 0.53811 0.5931 0.0
C131 C 0.25005 0.52599 0.57823 0.0
H132 H 0.25178 0.4969 0.58187 0.0
H133 H 0.20821 0.54261 0.46849 0.0
O134 O 0.08274 0.54889 0.63791 0.0
C135 C 0.09873 0.54447 0.51311 0.0
Co136 Co 0.99519 0.40096 0.88099 0.0
Co137 Co 0.00647 0.35011 0.95267 0.0
C138 C 0.06639 0.3913 0.9128 0.0
O139 O 0.04712 0.40342 0.88513 0.0
O140 O 0.05345 0.37149 0.9395 0.0
C141 C 0.98504 0.4619 0.83418 0.0
O142 O 0.99868 0.47752 0.86505 0.0
C143 C 0.04216 0.28747 0.9794 0.0
C144 C 0.00851 0.26652 0.02678 0.0
C145 C 0.03793 0.25888 0.00443 0.0
N146 N 0.01664 0.31109 0.98658 0.0
N147 N 0.99703 0.29888 0.01562 0.0
C148 C 0.06669 0.29002 0.94526 0.0
H149 H 0.05297 0.30257 0.91993 0.0
H150 H 0.07668 0.26364 0.93678 0.0
H151 H 0.08967 0.30699 0.95332 0.0
C152 C 0.96972 0.33585 0.84533 0.0
N153 N 0.97975 0.35426 0.87696 0.0
N154 N 0.9819 0.33302 0.90745 0.0
C155 C 0.97156 0.30031 0.89637 0.0
C156 C 0.96401 0.30087 0.85652 0.0
C157 C 0.97189 0.35047 0.80451 0.0
H158 H 0.94641 0.36342 0.79681 0.0
H159 H 0.99337 0.37056 0.80263 0.0
H160 H 0.97723 0.32954 0.7829 0.0
O161 O 0.97763 0.4247 0.92743 0.0
O162 O 0.98167 0.38903 0.97919 0.0
H163 H 0.96055 0.27668 0.95223 0.0
H164 H 0.95121 0.24846 0.91098 0.0
C165 C 0.96968 0.26871 0.92294 0.0
H166 H 0.99629 0.25671 0.92574 0.0
H167 H 0.97442 0.31141 0.0259 0.0
O168 O 0.98009 0.42865 0.83506 0.0
C169 C 0.97423 0.41907 0.9639 0.0
Co170 Co 0.09472 0.99641 0.90127 0.0
Co171 Co 0.1518 0.01249 0.96377 0.0
C172 C 0.10187 0.06779 0.94001 0.0
O173 O 0.08428 0.04486 0.92056 0.0
O174 O 0.13185 0.06031 0.95535 0.0
C175 C 0.02982 0.98869 0.85875 0.0
O176 O 0.01514 0.9994 0.89122 0.0
C177 C 0.21955 0.04094 0.98817 0.0
C178 C 0.23861 0.00228 0.03212 0.0
C179 C 0.24909 0.03172 0.01042 0.0
N180 N 0.19319 0.01787 -0.00403 0.0
N181 N 0.20442 0.99531 0.02302 0.0
C182 C 0.21804 0.06747 0.95533 0.0
H183 H 0.21183 0.09384 0.96741 0.0
H184 H 0.19708 0.06029 0.93388 0.0
H185 H 0.24383 0.06938 0.94008 0.0
C186 C 0.15661 0.98551 0.85199 0.0
N187 N 0.1415 0.99264 0.88639 0.0
N188 N 0.16566 0.99331 0.91422 0.0
C189 C 0.19724 0.9852 0.89837 0.0
C190 C 0.1926 0.98048 0.85837 0.0
C191 C 0.13704 0.98616 0.81371 0.0
H192 H 0.12539 0.9596 0.80829 0.0
H193 H 0.11519 0.00563 0.81459 0.0
H194 H 0.15491 0.99323 0.78924 0.0
O195 O 0.08742 0.96011 0.9412 0.0
O196 O 0.11006 0.98924 0.99067 0.0
H197 H 0.22484 0.96972 0.95098 0.0
H198 H 0.2477 0.95965 0.90633 0.0
C199 C 0.23083 0.97935 0.92108 0.0
H200 H 0.24607 0.00444 0.92281 0.0
H201 H 0.18971 0.97363 0.03306 0.0
O202 O 0.06325 0.9855 0.85726 0.0
C203 C 0.08561 0.96959 0.97642 0.0
Co204 Co 0.50145 0.10444 0.91171 0.0
Co205 Co 0.49486 0.16869 0.9662 0.0
C206 C 0.4333 0.12307 0.95365 0.0
O207 O 0.45321 0.1012 0.93609 0.0
O208 O 0.44457 0.15364 0.96349 0.0
C209 C 0.49152 0.03762 0.87468 0.0
O210 O 0.47069 0.03071 0.90439 0.0
C211 C 0.47577 0.23992 0.98733 0.0
C212 C 0.52179 0.25817 0.0222 0.0
C213 C 0.49049 0.26967 0.00481 0.0
N214 N 0.49749 0.21238 -0.00627 0.0
N215 N 0.52457 0.22321 0.01538 0.0
C216 C 0.44467 0.23861 0.95975 0.0
H217 H 0.42021 0.23343 0.97671 0.0
H218 H 0.44785 0.21704 0.93837 0.0
H219 H 0.44151 0.26399 0.94358 0.0
C220 C 0.51659 0.15881 0.85282 0.0
N221 N 0.50908 0.14857 0.88949 0.0
N222 N 0.51162 0.17568 0.91319 0.0
C223 C 0.52134 0.20444 0.89183 0.0
C224 C 0.52437 0.19467 0.85289 0.0
C225 C 0.51761 0.13413 0.81886 0.0
H226 H 0.53786 0.11354 0.82468 0.0
H227 H 0.49155 0.12058 0.81579 0.0
H228 H 0.52431 0.14806 0.7912 0.0
O229 O 0.53938 0.10068 0.94981 0.0
O230 O 0.51441 0.12752 -0.00202 0.0
H231 H 0.5368 0.23993 0.93761 0.0
H232 H 0.54343 0.25743 0.88926 0.0
C233 C 0.52564 0.24103 0.90764 0.0
H234 H 0.49951 0.2542 0.90795 0.0
H235 H 0.54613 0.20737 0.02314 0.0
O236 O 0.50706 0.06745 0.87257 0.0
C237 C 0.52853 0.09967 0.98452 0.0
Co238 Co 0.4146 0.51677 0.89125 0.0
Co239 Co 0.34796 0.50925 0.94453 0.0
C240 C 0.40105 0.45184 0.94086 0.0
O241 O 0.42199 0.47095 0.92039 0.0
O242 O 0.37021 0.46249 0.94965 0.0
C243 C 0.48079 0.50709 0.85327 0.0
O244 O 0.48708 0.48531 0.88261 0.0
C245 C 0.27984 0.47726 0.9576 0.0
C246 C 0.25303 0.51274 -0.00132 0.0
C247 C 0.24817 0.48239 0.97674 0.0
N248 N 0.30231 0.50353 0.96723 0.0
N249 N 0.28633 0.52457 0.99211 0.0
C250 C 0.28943 0.44715 0.93159 0.0
H251 H 0.30158 0.42595 0.94979 0.0
H252 H 0.30915 0.45582 0.9096 0.0
H253 H 0.26596 0.43568 0.91662 0.0
C254 C 0.36037 0.519 0.82894 0.0
N255 N 0.37053 0.51651 0.86664 0.0
N256 N 0.34281 0.51982 0.8894 0.0
C257 C 0.31395 0.52509 0.86656 0.0
C258 C 0.32403 0.5243 0.8276 0.0
C259 C 0.38503 0.51546 0.79519 0.0
H260 H 0.40634 0.49636 0.8026 0.0
H261 H 0.37067 0.50653 0.76858 0.0
H262 H 0.39753 0.54155 0.78901 0.0
O263 O 0.40978 0.55746 0.92523 0.0
O264 O 0.38187 0.53923 0.97646 0.0
H265 H 0.26304 0.55018 0.86068 0.0
H266 H 0.26252 0.50762 0.88423 0.0
C267 C 0.27763 0.53272 0.88146 0.0
H268 H 0.27926 0.54565 0.91035 0.0
H269 H 0.29782 0.54734 0.00387 0.0
O270 O 0.45204 0.52441 0.85252 0.0
C271 C 0.41067 0.5502 0.96126 0.0
Co272 Co 0.02109 0.90401 0.37994 0.0
Co273 Co 0.00295 0.84014 0.43302 0.0
C274 C 0.9452 0.88145 0.40615 0.0
O275 O 0.96825 0.90288 0.39205 0.0
O276 O 0.95424 0.85159 0.42014 0.0
C277 C 0.01293 0.92207 0.30359 0.0
O278 O 0.99776 0.89073 0.30566 0.0
C279 C 0.97912 0.7723 0.46455 0.0
C280 C 0.03028 0.74548 0.47409 0.0
C281 C 0.99412 0.73913 0.47091 0.0
N282 N 0.00531 0.79651 0.46191 0.0
N283 N 0.03575 0.78046 0.469 0.0
C284 C 0.94066 0.78099 0.45956 0.0
H285 H 0.93501 0.80663 0.4737 0.0
H286 H 0.93417 0.78364 0.42798 0.0
H287 H 0.92361 0.76014 0.47281 0.0
C288 C 0.06169 0.85054 0.33874 0.0
N289 N 0.04124 0.86056 0.36849 0.0
N290 N 0.02786 0.83276 0.3859 0.0
C291 C 0.03552 0.80395 0.36475 0.0
C292 C 0.05786 0.81411 0.33394 0.0
C293 C 0.08704 0.87523 0.31856 0.0
H294 H 0.09483 0.89701 0.33849 0.0
H295 H 0.0744 0.88736 0.29245 0.0
H296 H 0.11103 0.86081 0.30921 0.0
O297 O 0.04486 0.92154 0.42467 0.0
O298 O 0.0194 0.88297 0.46514 0.0
H299 H 0.03329 0.75057 0.38626 0.0
H300 H 0.00891 0.75791 0.34126 0.0
C301 C 0.0162 0.76947 0.36991 0.0
H302 H 0.99146 0.77346 0.3864 0.0
H303 H 0.0605 0.79272 0.46645 0.0
O304 O 0.0263 0.93554 0.33424 0.0
C305 C 0.03543 0.91253 0.45884 0.0
Co306 Co 0.59307 0.99935 0.38574 0.0
Co307 Co 0.66016 0.98688 0.43662 0.0
C308 C 0.61292 0.9276 0.41984 0.0
O309 O 0.59086 0.94915 0.40447 0.0
O310 O 0.64398 0.93763 0.42956 0.0
C311 C 0.52447 0.99401 0.34958 0.0
O312 O 0.51529 0.97783 0.38215 0.0
C313 C 0.7316 0.9623 0.44858 0.0
C314 C 0.75465 0.99954 0.49123 0.0
C315 C 0.76322 0.97171 0.46687 0.0
N316 N 0.7058 0.98368 0.46119 0.0
N317 N 0.71954 0.00547 0.48731 0.0
C318 C 0.72674 0.93714 0.4153 0.0
H319 H 0.70406 0.94524 0.39651 0.0
H320 H 0.7509 0.93595 0.39712 0.0
H321 H 0.72117 0.91028 0.42721 0.0
C322 C 0.64481 0.02637 0.32984 0.0
N323 N 0.63649 0.01238 0.3648 0.0
N324 N 0.66492 0.01088 0.38716 0.0
C325 C 0.69253 0.02455 0.36686 0.0
C326 C 0.68064 0.03438 0.32978 0.0
C327 C 0.61864 0.03229 0.29731 0.0
H328 H 0.59702 0.04947 0.30777 0.0
H329 H 0.60671 0.00657 0.2887 0.0
H330 H 0.63107 0.04513 0.27151 0.0
O331 O 0.58422 0.03064 0.42886 0.0
O332 O 0.62108 0.00523 0.47117 0.0
H333 H 0.73048 0.0324 0.41313 0.0
H334 H 0.74527 0.04735 0.366 0.0
C335 C 0.72998 0.02652 0.38153 0.0
H336 H 0.74327 0.00095 0.37638 0.0
H337 H 0.70551 0.02574 0.50059 0.0
O338 O 0.55589 0.00575 0.34602 0.0
C339 C 0.59266 0.02242 0.46368 0.0
Co340 Co 0.47917 0.5913 0.36922 0.0
Co341 Co 0.49678 0.65 0.43088 0.0
C342 C 0.55434 0.61004 0.39345 0.0
O343 O 0.53263 0.59256 0.37214 0.0
O344 O 0.54357 0.63356 0.41667 0.0
C345 C 0.47182 0.5296 0.32044 0.0
O346 O 0.48675 0.51219 0.34959 0.0
C347 C 0.52766 0.7167 0.45947 0.0
C348 C 0.48386 0.73741 0.4948 0.0
C349 C 0.51645 0.74669 0.47909 0.0
N350 N 0.50237 0.69145 0.46266 0.0
N351 N 0.47682 0.70367 0.48488 0.0
C352 C 0.55881 0.71419 0.43257 0.0
H353 H 0.55325 0.69568 0.40846 0.0
H354 H 0.56553 0.74016 0.41921 0.0
H355 H 0.58214 0.70447 0.44938 0.0
C356 C 0.43825 0.64832 0.33368 0.0
N357 N 0.45837 0.6358 0.36319 0.0
N358 N 0.46918 0.66195 0.38524 0.0
C359 C 0.45872 0.69269 0.36829 0.0
C360 C 0.43851 0.68516 0.33475 0.0
C361 C 0.41836 0.62484 0.306 0.0
H362 H 0.40847 0.60103 0.32182 0.0
H363 H 0.4365 0.6159 0.28279 0.0
H364 H 0.39552 0.63888 0.29247 0.0
O365 O 0.46365 0.5687 0.41661 0.0
O366 O 0.47815 0.60802 0.46215 0.0
H367 H 0.45754 0.73818 0.40518 0.0
H368 H 0.47325 0.74774 0.35629 0.0
C369 C 0.47308 0.72804 0.38033 0.0
H370 H 0.50084 0.72515 0.38951 0.0
H371 H 0.45328 0.69001 0.49065 0.0
O372 O 0.46595 0.56244 0.32386 0.0
C373 C 0.46714 0.57717 0.45229 0.0
Co374 Co 0.90504 0.48686 0.37926 0.0
Co375 Co 0.8424 0.5106 0.4315 0.0
C376 C 0.89664 0.56189 0.40384 0.0
O377 O 0.91606 0.5373 0.39068 0.0
O378 O 0.86555 0.55592 0.41666 0.0
C379 C 0.96949 0.47684 0.33532 0.0
O380 O 0.98419 0.49921 0.35985 0.0
C381 C 0.77574 0.54608 0.43952 0.0
C382 C 0.75195 0.52218 0.49232 0.0
C383 C 0.74545 0.54588 0.46195 0.0
N384 N 0.79894 0.52314 0.45535 0.0
N385 N 0.78482 0.50916 0.48722 0.0
C386 C 0.78305 0.56797 0.4037 0.0
H387 H 0.79936 0.59123 0.41223 0.0
H388 H 0.79854 0.55253 0.38245 0.0
H389 H 0.75835 0.57773 0.38968 0.0
C390 C 0.84544 0.47257 0.32513 0.0
N391 N 0.85877 0.48112 0.36041 0.0
N392 N 0.83283 0.48411 0.38546 0.0
C393 C 0.80209 0.47588 0.36726 0.0
C394 C 0.80889 0.46909 0.32821 0.0
C395 C 0.86695 0.47185 0.28857 0.0
H396 H 0.87622 0.44444 0.28377 0.0
H397 H 0.89038 0.48954 0.29133 0.0
H398 H 0.851 0.48029 0.26278 0.0
O399 O 0.90827 0.45916 0.4275 0.0
O400 O 0.87833 0.49105 0.46888 0.0
H401 H 0.77027 0.46694 0.41834 0.0
H402 H 0.75008 0.45284 0.37279 0.0
C403 C 0.76684 0.47343 0.38687 0.0
H404 H 0.75286 0.49893 0.38386 0.0
H405 H 0.79712 0.49002 0.50474 0.0
O406 O 0.93736 0.46779 0.34001 0.0
C407 C 0.90661 0.47471 0.46012 0.0
Co408 Co 0.03704 0.59399 0.09112 0.0
Co409 Co 0.00896 0.66416 0.05108 0.0
C410 C 0.95961 0.60615 0.06199 0.0
O411 O 0.9855 0.5875 0.07488 0.0
O412 O 0.96342 0.63901 0.05412 0.0
C413 C 0.03303 0.52744 0.13148 0.0
O414 O 0.00379 0.52381 0.11077 0.0
C415 C 0.97779 0.73517 0.0354 0.0
C416 C 0.02504 0.76338 0.01305 0.0
C417 C 0.99024 0.76857 0.02427 0.0
N418 N 0.00441 0.71179 0.03176 0.0
N419 N 0.03221 0.72877 0.01748 0.0
C420 C 0.94277 0.72631 0.05352 0.0
H421 H 0.94399 0.7008 0.06964 0.0
H422 H 0.93465 0.74745 0.07382 0.0
H423 H 0.92235 0.72404 0.03012 0.0
C424 C 0.0579 0.64262 0.15318 0.0
N425 N 0.0426 0.63569 0.11846 0.0
N426 N 0.03029 0.66503 0.10272 0.0
C427 C 0.03493 0.69133 0.12871 0.0
C428 C 0.05318 0.67814 0.16139 0.0
C429 C 0.07909 0.6162 0.17618 0.0
H430 H 0.09385 0.59892 0.15608 0.0
H431 H 0.06079 0.59953 0.19378 0.0
H432 H 0.09843 0.62938 0.19594 0.0
O433 O 0.06679 0.60188 0.0462 0.0
O434 O 0.03365 0.6354 0.00963 0.0
H435 H 0.03326 0.74371 0.10438 0.0
H436 H 0.01477 0.7402 0.15298 0.0
C437 C 0.01764 0.72674 0.12459 0.0
H438 H 0.99073 0.72315 0.11241 0.0
H439 H 0.05679 0.71705 0.0129 0.0
O440 O 0.05267 0.55427 0.12524 0.0
C441 C 0.04872 0.60567 0.01521 0.0
Co442 Co 0.88713 0.01961 0.08416 0.0
Co443 Co 0.82647 0.99737 0.02874 0.0
C444 C 0.87755 0.94463 0.05501 0.0
O445 O 0.89666 0.96933 0.06941 0.0
O446 O 0.84652 0.95077 0.04189 0.0
C447 C 0.95395 0.02412 0.11848 0.0
O448 O 0.96257 0.01081 0.08455 0.0
C449 C 0.75983 0.96294 0.01293 0.0
C450 C 0.73638 0.99273 0.96345 0.0
C451 C 0.72961 0.96569 0.99007 0.0
N452 N 0.78347 0.98736 0.00087 0.0
N453 N 0.76953 0.00486 0.97088 0.0
C454 C 0.76581 0.93819 0.0468 0.0
H455 H 0.78093 0.91502 0.03654 0.0
H456 H 0.78173 0.95136 0.06991 0.0
H457 H 0.74046 0.92845 0.0592 0.0
C458 C 0.82829 0.03213 0.13763 0.0
N459 N 0.84156 0.02454 0.10242 0.0
N460 N 0.81572 0.02112 0.07673 0.0
C461 C 0.78488 0.02781 0.09481 0.0
C462 C 0.79173 0.03424 0.13407 0.0
C463 C 0.85014 0.03326 0.17437 0.0
H464 H 0.86165 0.06019 0.17755 0.0
H465 H 0.87226 0.01415 0.17267 0.0
H466 H 0.83402 0.02704 0.20052 0.0
O467 O 0.89057 0.05201 0.03997 0.0
O468 O 0.86679 0.01703 -0.00381 0.0
H469 H 0.73141 0.04689 0.09027 0.0
H470 H 0.73715 0.00148 0.07765 0.0
C471 C 0.74923 0.02813 0.07538 0.0
H472 H 0.7516 0.03585 0.04419 0.0
H473 H 0.78199 0.02598 0.95657 0.0
O474 O 0.92201 0.03287 0.12416 0.0
C475 C 0.89151 0.0383 0.00648 0.0
Co476 Co 0.46979 0.89512 0.09183 0.0
Co477 Co 0.49512 0.83437 0.03932 0.0
C478 C 0.54754 0.88269 0.06459 0.0
O479 O 0.5222 0.90072 0.07892 0.0
O480 O 0.54234 0.85177 0.05117 0.0
C481 C 0.47174 0.95938 0.13381 0.0
O482 O 0.4885 0.97085 0.10263 0.0
C483 C 0.52416 0.76903 0.00738 0.0
C484 C 0.47496 0.73938 -0.00556 0.0
C485 C 0.51131 0.73524 -0.00113 0.0
N486 N 0.49652 0.79126 0.00997 0.0
N487 N 0.46732 0.77356 0.00094 0.0
C488 C 0.56186 0.78026 0.01386 0.0
H489 H 0.56613 0.80703 0.00112 0.0
H490 H 0.56755 0.7816 0.04568 0.0
H491 H 0.58047 0.76161 3e-05 0.0
C492 C 0.44104 0.83667 0.13876 0.0
N493 N 0.45837 0.84966 0.10761 0.0
N494 N 0.47201 0.82382 0.08768 0.0
C495 C 0.46704 0.7934 0.10777 0.0
C496 C 0.44618 0.80014 0.14058 0.0
C497 C 0.41868 0.85924 0.16436 0.0
H498 H 0.40834 0.8822 0.14745 0.0
H499 H 0.43515 0.86955 0.18881 0.0
H500 H 0.39596 0.8439 0.17627 0.0
O501 O 0.44135 0.90517 0.04629 0.0
O502 O 0.47727 0.87675 0.00747 0.0
H503 H 0.47198 0.74293 0.0804 0.0
H504 H 0.49456 0.74616 0.12705 0.0
C505 C 0.48773 0.76059 0.09967 0.0
H506 H 0.51284 0.76763 0.08499 0.0
H507 H 0.44184 0.78401 0.00273 0.0
O508 O 0.45967 0.92795 0.13434 0.0
C509 C 0.45754 0.90342 0.01415 0.0
Co510 Co 0.60417 0.48059 0.07692 0.0
Co511 Co 0.66842 0.50881 0.02987 0.0
C512 C 0.61527 0.55832 0.05591 0.0
O513 O 0.59557 0.53222 0.06579 0.0
O514 O 0.64735 0.55409 0.0458 0.0
C515 C 0.53795 0.47547 0.11727 0.0
O516 O 0.527 0.49854 0.09094 0.0
C517 C 0.73519 0.54489 0.0155 0.0
C518 C 0.76181 0.51014 0.97349 0.0
C519 C 0.76695 0.53988 -0.00366 0.0
N520 N 0.71233 0.51929 0.00462 0.0
N521 N 0.72814 0.49898 0.97889 0.0
C522 C 0.72826 0.57034 0.04785 0.0
H523 H 0.71104 0.55786 0.07023 0.0
H524 H 0.75326 0.57931 0.06204 0.0
H525 H 0.71431 0.59378 0.03562 0.0
C526 C 0.66017 0.45733 0.13094 0.0
N527 N 0.64934 0.47203 0.09704 0.0
N528 N 0.67698 0.48035 0.07565 0.0
C529 C 0.70661 0.47088 0.09559 0.0
C530 C 0.69683 0.4562 0.13132 0.0
C531 C 0.63575 0.44554 0.16282 0.0
H532 H 0.61727 0.42517 0.15124 0.0
H533 H 0.61977 0.46836 0.17252 0.0
H534 H 0.65045 0.43417 0.18816 0.0
O535 O 0.60075 0.45408 0.02891 0.0
O536 O 0.63016 0.49201 0.99247 0.0
H537 H 0.74639 0.47336 0.05128 0.0
H538 H 0.7633 0.46285 0.09934 0.0
C539 C 0.74366 0.4789 0.0828 0.0
H540 H 0.74973 0.50718 0.08801 0.0
H541 H 0.71673 0.47627 0.96689 0.0
O542 O 0.56916 0.46338 0.11498 0.0
C543 C 0.60315 0.47195 -0.00244 0.0
H544 H 0.95075 0.03147 0.70638 0.0
H545 H 0.03473 0.96929 0.65719 0.0
H546 H 0.04984 0.9463 0.72199 0.0
H547 H 0.04776 0.95469 0.79284 0.0
H548 H 0.96604 0.01952 0.84225 0.0
H549 H 0.94115 0.03029 0.7771 0.0
C550 C 0.97175 0.01215 0.70969 0.0
C551 C 0.99238 0.00301 0.67729 0.0
C552 C 0.9811 4e-05 0.74716 0.0
C553 C 0.01884 0.97725 0.68178 0.0
C554 C 0.02769 0.96429 0.7189 0.0
C555 C 0.02397 0.97046 0.7894 0.0
C556 C 0.00929 0.98711 0.82201 0.0
C557 C 0.0104 0.97722 0.7519 0.0
C558 C 0.97804 0.00678 0.81746 0.0
C559 C 0.96393 0.01311 0.7802 0.0
H560 H 0.45141 0.94658 0.73025 0.0
H561 H 0.52802 0.01671 0.67665 0.0
H562 H 0.54651 0.03763 0.741 0.0
H563 H 0.53225 0.04448 0.81016 0.0
H564 H 0.45246 0.97742 0.86294 0.0
H565 H 0.44409 0.94655 0.80117 0.0
C566 C 0.47271 0.96588 0.73267 0.0
C567 C 0.48761 0.98085 0.69874 0.0
C568 C 0.48215 0.97879 0.76954 0.0
C569 C 0.51579 0.00511 0.70232 0.0
C570 C 0.52617 0.01731 0.73909 0.0
C571 C 0.51347 0.02268 0.80838 0.0
C572 C 0.49222 0.01394 0.8407 0.0
C573 C 0.50813 0.00573 0.77259 0.0
C574 C 0.46867 0.98509 0.83825 0.0
C575 C 0.46381 0.96748 0.80293 0.0
H576 H 0.47217 0.54563 0.78669 0.0
H577 H 0.53621 0.463 0.83855 0.0
H578 H 0.55837 0.44752 0.7742 0.0
H579 H 0.54972 0.44954 0.70323 0.0
H580 H 0.48231 0.52954 0.6515 0.0
H581 H 0.4719 0.55441 0.71584 0.0
C582 C 0.49163 0.52478 0.78407 0.0
C583 C 0.50168 0.50475 0.81715 0.0
C584 C 0.50328 0.51523 0.74693 0.0
C585 C 0.52753 0.4784 0.81342 0.0
C586 C 0.54008 0.4694 0.77659 0.0
C587 C 0.53341 0.47292 0.70588 0.0
C588 C 0.51592 0.487 0.67281 0.0
C589 C 0.52659 0.48636 0.74305 0.0
C590 C 0.49553 0.51776 0.67661 0.0
C591 C 0.48944 0.53193 0.71342 0.0
H592 H 0.01676 0.52402 0.81461 0.0
H593 H 0.94909 0.4415 0.76869 0.0
H594 H 0.95749 0.46448 0.70251 0.0
H595 H 0.99321 0.50024 0.6576 0.0
H596 H 0.06586 0.57852 0.7034 0.0
H597 H 0.04576 0.56561 0.76967 0.0
C598 C 0.00308 0.51166 0.79024 0.0
C599 C 0.98291 0.48076 0.79635 0.0
C600 C 0.00929 0.52404 0.75216 0.0
C601 C 0.96521 0.46506 0.76456 0.0
C602 C 0.97008 0.47811 0.72672 0.0
C603 C 0.0039 0.51521 0.68195 0.0
C604 C 0.03139 0.53982 0.67579 0.0
C605 C 0.99348 0.50644 0.72006 0.0
C606 C 0.04495 0.5591 0.70757 0.0
C607 C 0.0336 0.5516 0.74546 0.0
H608 H 0.00058 0.99128 0.28908 0.0
H609 H 0.02821 0.89325 0.23399 0.0
H610 H 0.02114 0.92064 0.16949 0.0
H611 H 0.9966 0.96846 0.12978 0.0
H612 H 0.95902 0.06305 0.18491 0.0
H613 H 0.98138 0.04182 0.24826 0.0
C614 C 0.00587 0.97639 0.26284 0.0
C615 C 0.01466 0.94047 0.26584 0.0
C616 C 0.99979 0.99176 0.22593 0.0
C617 C 0.02112 0.92097 0.23199 0.0
C618 C 0.01709 0.93658 0.19523 0.0
C619 C 0.99448 0.98497 0.15543 0.0
C620 C 0.9763 0.01718 0.15297 0.0
C621 C 0.00496 0.97146 0.19189 0.0
C622 C 0.97306 0.03814 0.18639 0.0
C623 C 0.9855 0.02585 0.22256 0.0
H624 H 0.53162 0.03196 0.28266 0.0
H625 H 0.46623 0.95193 0.33753 0.0
H626 H 0.43849 0.93864 0.27455 0.0
H627 H 0.4413 0.94214 0.20308 0.0
H628 H 0.50918 0.02009 0.14811 0.0
H629 H 0.52689 0.04233 0.2121 0.0
C630 C 0.51077 0.0121 0.28098 0.0
C631 C 0.50161 0.99231 0.31445 0.0
C632 C 0.49566 0.00399 0.24461 0.0
C633 C 0.47403 0.96726 0.31208 0.0
C634 C 0.45831 0.9595 0.27603 0.0
C635 C 0.45936 0.96452 0.20504 0.0
C636 C 0.47468 0.97879 0.17096 0.0
C637 C 0.47021 0.9765 0.24191 0.0
C638 C 0.49742 0.00826 0.17392 0.0
C639 C 0.50772 0.02088 0.21052 0.0
H640 H 0.50461 0.47062 0.29426 0.0
H641 H 0.43337 0.55389 0.25816 0.0
H642 H 0.44225 0.539 0.18982 0.0
H643 H 0.47963 0.5109 0.14106 0.0
H644 H 0.55326 0.42972 0.17728 0.0
H645 H 0.53339 0.43457 0.24456 0.0
C646 C 0.49022 0.48481 0.27151 0.0
C647 C 0.46925 0.51399 0.28114 0.0
C648 C 0.49628 0.47681 0.23217 0.0
C649 C 0.45043 0.53187 0.25138 0.0
C650 C 0.45551 0.52341 0.21226 0.0
C651 C 0.49065 0.49357 0.16345 0.0
C652 C 0.51868 0.47085 0.15441 0.0
C653 C 0.4799 0.49726 0.20232 0.0
C654 C 0.53222 0.4481 0.18364 0.0
C655 C 0.52095 0.45092 0.2222 0.0
H656 H 0.03343 0.50068 0.30895 0.0
H657 H 0.94329 0.43614 0.27617 0.0
H658 H 0.96058 0.43958 0.20795 0.0
H659 H 0.99266 0.4725 0.15735 0.0
H660 H 0.08258 0.53742 0.18957 0.0
H661 H 0.07463 0.52133 0.25809 0.0
C662 C 0.01814 0.48652 0.28705 0.0
C663 C 0.98628 0.46953 0.29739 0.0
C664 C 0.02788 0.4891 0.24762 0.0
C665 C 0.96733 0.45043 0.26884 0.0
C666 C 0.97716 0.45238 0.22971 0.0
C667 C 0.01118 0.48233 0.17919 0.0
C668 C 0.03692 0.50763 0.16871 0.0
C669 C 0.00605 0.47351 0.21861 0.0
C670 C 0.06156 0.51903 0.19709 0.0
C671 C 0.05701 0.50989 0.23637 0.0
H672 H 0.06312 0.97852 0.45214 0.0
H673 H 0.99569 0.91408 0.52579 0.0
H674 H 0.96902 0.96748 0.5521 0.0
H675 H 0.95969 0.03142 0.5478 0.0
H676 H 0.0244 0.09523 0.47039 0.0
H677 H 0.05506 0.04226 0.44916 0.0
C678 C 0.04303 0.976 0.47453 0.0
C679 C 0.03089 0.94218 0.48626 0.0
C680 C 0.02583 0.00648 0.48703 0.0
C681 C 0.00553 0.93964 0.51603 0.0
C682 C 0.98962 0.97016 0.53037 0.0
C683 C 0.98017 0.03388 0.52586 0.0
C684 C 0.98963 0.0675 0.51076 0.0
C685 C 0.99839 0.00351 0.51461 0.0
C686 C 0.01627 0.06983 0.48235 0.0
C687 C 0.03427 0.03961 0.47068 0.0
H688 H 0.56859 0.96051 0.49079 0.0
H689 H 0.546 0.07216 0.48756 0.0
H690 H 0.48447 0.06 0.50607 0.0
H691 H 0.43664 0.01734 0.51874 0.0
H692 H 0.45891 0.90557 0.52162 0.0
H693 H 0.52096 0.91781 0.50512 0.0
C694 C 0.55053 0.98224 0.49579 0.0
C695 C 0.56197 0.01729 0.48915 0.0
C696 C 0.51486 0.97483 0.50393 0.0
C697 C 0.53799 0.04513 0.4939 0.0
C698 C 0.50268 0.03808 0.50346 0.0
C699 C 0.45483 0.99559 0.51451 0.0
C700 C 0.44305 0.96049 0.51998 0.0
C701 C 0.49063 0.00299 0.50722 0.0
C702 C 0.46721 0.93266 0.51618 0.0
C703 C 0.50276 0.93974 0.50765 0.0
H704 H 0.54271 0.46081 0.54844 0.0
H705 H 0.4909 0.39604 0.46132 0.0
H706 H 0.45602 0.44672 0.43949 0.0
H707 H 0.44392 0.50993 0.44145 0.0
H708 H 0.49928 0.57592 0.52462 0.0
H709 H 0.52688 0.5236 0.55375 0.0
C710 C 0.52367 0.45766 0.52478 0.0
C711 C 0.51942 0.42446 0.50675 0.0
C712 C 0.50358 0.4869 0.5124 0.0
C713 C 0.49491 0.42115 0.47576 0.0
C714 C 0.47464 0.45006 0.46349 0.0
C715 C 0.46128 0.51289 0.46668 0.0
C716 C 0.47013 0.54702 0.48016 0.0
C717 C 0.47903 0.48308 0.48137 0.0
C718 C 0.49203 0.55013 0.51342 0.0
C719 C 0.50847 0.52023 0.52956 0.0
H720 H 0.97303 0.46737 0.43069 0.0
H721 H 0.9159 0.5165 0.52448 0.0
H722 H 0.96938 0.54894 0.54352 0.0
H723 H 0.03197 0.56238 0.53437 0.0
H724 H 0.08998 0.5113 0.44254 0.0
H725 H 0.03538 0.48285 0.41984 0.0
C726 C 0.97216 0.485 0.45546 0.0
C727 C 0.9403 0.48934 0.47612 0.0
C728 C 0.00272 0.50428 0.46562 0.0
C729 C 0.93999 0.51234 0.50819 0.0
C730 C 0.97045 0.53129 0.51878 0.0
C731 C 0.03278 0.54561 0.50885 0.0
C732 C 0.0654 0.5386 0.49065 0.0
C733 C 0.00182 0.52765 0.49749 0.0
C734 C 0.06542 0.51718 0.45725 0.0
C735 C 0.03429 0.50036 0.44469 0.0
H736 H 0.95126 0.48517 0.94481 0.0
H737 H 0.00295 0.42526 0.03678 0.0
H738 H 0.03319 0.47839 0.0589 0.0
H739 H 0.05195 0.53909 0.04586 0.0
H740 H 0.99932 0.60075 0.95591 0.0
H741 H 0.9634 0.54905 0.93821 0.0
C742 C 0.96793 0.48408 0.9708 0.0
C743 C 0.97556 0.45104 0.9884 0.0
C744 C 0.98625 0.51464 0.98262 0.0
C745 C 0.99668 0.45015 0.02242 0.0
C746 C 0.01465 0.4805 0.03463 0.0
C747 C 0.03249 0.54156 0.02253 0.0
C748 C 0.02862 0.5739 0.00211 0.0
C749 C 0.01101 0.51235 0.01366 0.0
C750 C 0.00317 0.57619 0.97191 0.0
C751 C 0.98231 0.54677 0.96211 0.0
H752 H 0.05612 0.03111 -0.00308 0.0
H753 H 0.03281 0.9203 0.98142 0.0
H754 H 0.96911 0.9327 0.98285 0.0
H755 H 0.92036 0.97559 0.98641 0.0
H756 H 0.94437 0.08664 -0.00058 0.0
H757 H 0.00779 0.07386 -0.00121 0.0
C758 C 0.03711 0.00953 -0.00501 0.0
C759 C 0.0491 0.97469 0.99012 0.0
C760 C 0.00079 0.01718 0.99333 0.0
C761 C 0.02414 0.94716 0.98636 0.0
C762 C 0.9878 0.95438 0.9863 0.0
C763 C 0.93947 0.99714 0.98764 0.0
C764 C 0.92769 0.03217 0.99214 0.0
C765 C 0.97586 0.98941 0.98877 0.0
C766 C 0.95283 0.05963 -0.00504 0.0
C767 C 0.98904 0.05224 -0.00462 0.0
H768 H 0.54527 0.03478 0.957 0.0
H769 H 0.47758 0.08645 0.03995 0.0
H770 H 0.44507 0.0312 0.05019 0.0
H771 H 0.43556 0.96888 0.03542 0.0
H772 H 0.50456 0.91626 0.95452 0.0
H773 H 0.53513 0.97226 0.94149 0.0
C774 C 0.52374 0.03393 0.97782 0.0
C775 C 0.51405 0.06493 -0.00231 0.0
C776 C 0.50454 0.00231 0.98284 0.0
C777 C 0.486 0.06313 0.02447 0.0
C778 C 0.46697 0.03164 0.02988 0.0
C779 C 0.4569 0.96954 0.01438 0.0
C780 C 0.46791 0.938 -0.00362 0.0
C781 C 0.4757 0.00127 0.00879 0.0
C782 C 0.4954 0.93989 0.96889 0.0
C783 C 0.51339 0.9718 0.96201 0.0
H784 H 0.47634 0.56215 0.93278 0.0
H785 H 0.42056 0.50119 0.02052 0.0
H786 H 0.47423 0.46737 0.03429 0.0
H787 H 0.53639 0.45498 0.02125 0.0
H788 H 0.59309 0.51754 0.93551 0.0
H789 H 0.53868 0.54949 0.91949 0.0
C790 C 0.47596 0.54172 0.95527 0.0
C791 C 0.4443 0.5342 0.97541 0.0
C792 C 0.5067 0.52199 0.96258 0.0
C793 C 0.44446 0.50779 0.00465 0.0
C794 C 0.47504 0.48809 0.01218 0.0
C795 C 0.53696 0.47522 -0.00142 0.0
C796 C 0.56913 0.48396 0.97987 0.0
C797 C 0.50612 0.49469 0.99095 0.0
C798 C 0.56888 0.51015 0.9504 0.0
C799 C 0.5379 0.52886 0.94169 0.0
H800 H 0.99359 0.17798 0.7404 0.0
H801 H 0.91208 0.23202 0.67475 0.0
H802 H 0.90083 0.27065 0.73051 0.0
H803 H 0.91897 0.29273 0.79523 0.0
H804 H 0.00474 0.24167 0.85743 0.0
H805 H 0.00855 0.19711 0.80676 0.0
C806 C 0.97294 0.19782 0.73875 0.0
C807 C 0.95374 0.20257 0.70388 0.0
C808 C 0.96728 0.22018 0.77043 0.0
C809 C 0.92722 0.22834 0.70151 0.0
C810 C 0.92083 0.25028 0.73328 0.0
C811 C 0.93802 0.27142 0.79785 0.0
C812 C 0.96141 0.27036 0.82997 0.0
C813 C 0.94136 0.24701 0.76752 0.0
C814 C 0.98597 0.24268 0.83337 0.0
C815 C 0.98855 0.21749 0.80407 0.0
H816 H 0.31589 0.99119 0.73639 0.0
H817 H 0.25042 0.91437 0.6773 0.0
H818 H 0.20947 0.91295 0.73271 0.0
H819 H 0.19139 0.93582 0.7967 0.0
H820 H 0.25525 0.01595 0.8529 0.0
H821 H 0.29865 0.01292 0.80065 0.0
C822 C 0.29291 0.97378 0.73605 0.0
C823 C 0.28603 0.95272 0.70332 0.0
C824 C 0.2695 0.97357 0.76754 0.0
C825 C 0.25599 0.9307 0.7025 0.0
C826 C 0.23272 0.92992 0.73406 0.0
C827 C 0.21486 0.95254 0.79741 0.0
C828 C 0.22022 0.97599 0.82854 0.0
C829 C 0.23903 0.95158 0.76653 0.0
C830 C 0.25089 0.99722 0.82957 0.0
C831 C 0.2755 0.99581 0.79949 0.0
H832 H 0.478 0.20054 0.79341 0.0
H833 H 0.57848 0.24046 0.83514 0.0
H834 H 0.58248 0.28018 0.77818 0.0
H835 H 0.55702 0.30321 0.71613 0.0
H836 H 0.45788 0.26058 0.67355 0.0
H837 H 0.45387 0.22161 0.73079 0.0
C838 C 0.50085 0.21782 0.78978 0.0
C839 C 0.52772 0.21807 0.81836 0.0
C840 C 0.50321 0.23983 0.75677 0.0
C841 C 0.55719 0.24048 0.8137 0.0
C842 C 0.55957 0.26294 0.78109 0.0
C843 C 0.53461 0.28535 0.71964 0.0
C844 C 0.50774 0.28458 0.69102 0.0
C845 C 0.53266 0.26289 0.75248 0.0
C846 C 0.47892 0.26127 0.69529 0.0
C847 C 0.47656 0.23917 0.728 0.0
H848 H 0.20801 0.51143 0.69533 0.0
H849 H 0.27326 0.59141 0.64093 0.0
H850 H 0.31478 0.58915 0.69674 0.0
H851 H 0.33111 0.56519 0.76214 0.0
H852 H 0.26466 0.48538 0.81553 0.0
H853 H 0.22444 0.48714 0.75931 0.0
C854 C 0.23129 0.52845 0.69589 0.0
C855 C 0.23768 0.55174 0.66456 0.0
C856 C 0.25451 0.52716 0.72794 0.0
C857 C 0.26803 0.57334 0.66499 0.0
C858 C 0.29159 0.57208 0.69683 0.0
C859 C 0.30792 0.5481 0.76117 0.0
C860 C 0.30055 0.52541 0.79289 0.0
C861 C 0.28495 0.54921 0.72861 0.0
C862 C 0.27041 0.50348 0.79166 0.0
C863 C 0.24758 0.50431 0.75947 0.0
H864 H 0.07584 0.74602 0.16835 0.0
H865 H 0.05161 0.65267 0.2369 0.0
H866 H 0.06184 0.68553 0.29684 0.0
H867 H 0.06944 0.7426 0.32955 0.0
H868 H 0.068 0.83763 0.25825 0.0
H869 H 0.07727 0.80323 0.20056 0.0
C870 C 0.07221 0.73291 0.19636 0.0
C871 C 0.06269 0.697 0.19788 0.0
C872 C 0.07382 0.75276 0.23062 0.0
C873 C 0.05961 0.68013 0.23456 0.0
C874 C 0.06493 0.69906 0.26899 0.0
C875 C 0.0703 0.75595 0.30147 0.0
C876 C 0.06787 0.79305 0.29912 0.0
C877 C 0.07064 0.73572 0.26732 0.0
C878 C 0.07102 0.80953 0.26216 0.0
C879 C 0.07553 0.78966 0.22854 0.0
H880 H 0.78569 0.07911 0.19522 0.0
H881 H 0.74148 0.98402 0.14529 0.0
H882 H 0.70204 0.97688 0.20079 0.0
H883 H 0.68289 0.99529 0.26532 0.0
H884 H 0.72644 0.08976 0.31688 0.0
H885 H 0.76409 0.0993 0.25945 0.0
C886 C 0.7671 0.05712 0.19654 0.0
C887 C 0.76599 0.03241 0.16616 0.0
C888 C 0.74496 0.05277 0.22903 0.0
C889 C 0.74208 0.00385 0.16793 0.0
C890 C 0.71985 0.9995 0.19985 0.0
C891 C 0.70039 0.01817 0.26368 0.0
C892 C 0.70233 0.04167 0.29504 0.0
C893 C 0.72143 0.02349 0.23073 0.0
C894 C 0.7251 0.0711 0.29307 0.0
C895 C 0.74637 0.07662 0.26025 0.0
H896 H 0.4388 0.67257 0.25596 0.0
H897 H 0.41476 0.754 0.33923 0.0
H898 H 0.41641 0.79826 0.28662 0.0
H899 H 0.43359 0.81288 0.2189 0.0
H900 H 0.43277 0.729 0.13382 0.0
H901 H 0.43115 0.68533 0.18635 0.0
C902 C 0.43183 0.69938 0.2631 0.0
C903 C 0.4287 0.70997 0.30227 0.0
C904 C 0.42912 0.72403 0.23251 0.0
C905 C 0.41985 0.74537 0.30974 0.0
C906 C 0.42028 0.77065 0.27962 0.0
C907 C 0.43128 0.78539 0.21102 0.0
C908 C 0.43575 0.77455 0.17202 0.0
C909 C 0.42637 0.76029 0.24101 0.0
C910 C 0.43247 0.7383 0.16358 0.0
C911 C 0.43078 0.71319 0.19359 0.0
H912 H 0.69424 0.49407 0.19671 0.0
H913 H 0.7501 0.40845 0.14311 0.0
H914 H 0.78885 0.40307 0.201 0.0
H915 H 0.80761 0.42451 0.2662 0.0
H916 H 0.7529 0.51268 0.31678 0.0
H917 H 0.71205 0.51462 0.26144 0.0
C918 C 0.71473 0.47404 0.19801 0.0
C919 C 0.71956 0.45164 0.16615 0.0
C920 C 0.73672 0.47138 0.23098 0.0
C921 C 0.74624 0.42598 0.16756 0.0
C922 C 0.76821 0.42291 0.20056 0.0
C923 C 0.78658 0.44394 0.26503 0.0
C924 C 0.78283 0.46797 0.29578 0.0
C925 C 0.76386 0.4457 0.23234 0.0
C926 C 0.75561 0.49315 0.2941 0.0
C927 C 0.73255 0.49464 0.26217 0.0
H928 H 0.22601 0.06501 0.57098 0.0
H929 H 0.18048 0.99535 0.48449 0.0
H930 H 0.12146 0.01811 0.49884 0.0
H931 H 0.0829 0.05752 0.53662 0.0
H932 H 0.12984 0.13226 0.61635 0.0
H933 H 0.18889 0.10845 0.60316 0.0
C934 C 0.20376 0.05587 0.55364 0.0
C935 C 0.2082 0.02927 0.52551 0.0
C936 C 0.17012 0.06972 0.5613 0.0
C937 C 0.17803 0.01618 0.50582 0.0
C938 C 0.14425 0.02909 0.5141 0.0
C939 C 0.10617 0.06844 0.55105 0.0
C940 C 0.10233 0.09606 0.57788 0.0
C941 C 0.13999 0.05568 0.54199 0.0
C942 C 0.13242 0.1107 0.59594 0.0
C943 C 0.16604 0.09717 0.58829 0.0
H944 H 0.36005 0.10926 0.55635 0.0
H945 H 0.46126 0.06736 0.5938 0.0
H946 H 0.49063 0.12171 0.57272 0.0
H947 H 0.48814 0.18051 0.54202 0.0
H948 H 0.38747 0.22372 0.50603 0.0
H949 H 0.35729 0.16936 0.52783 0.0
C950 C 0.38848 0.11212 0.56024 0.0
C951 C 0.40832 0.08414 0.57668 0.0
C952 C 0.40536 0.14352 0.54789 0.0
C953 C 0.44517 0.08845 0.58157 0.0
C954 C 0.46212 0.11947 0.56924 0.0
C955 C 0.45962 0.17781 0.53864 0.0
C956 C 0.43997 0.20568 0.52207 0.0
C957 C 0.44256 0.14695 0.55194 0.0
C958 C 0.40301 0.20238 0.51859 0.0
C959 C 0.38583 0.17142 0.53113 0.0
H960 H 0.38546 0.3722 0.51264 0.0
H961 H 0.43054 0.46917 0.55755 0.0
H962 H 0.3783 0.50168 0.53592 0.0
H963 H 0.3182 0.50215 0.50778 0.0
H964 H 0.27134 0.40518 0.46627 0.0
H965 H 0.32598 0.37308 0.48246 0.0
C966 C 0.38387 0.40044 0.51766 0.0
C967 C 0.41177 0.41808 0.53707 0.0
C968 C 0.35349 0.41901 0.50551 0.0
C969 C 0.40929 0.45475 0.54322 0.0
C970 C 0.37948 0.47347 0.53064 0.0
C971 C 0.32041 0.47415 0.5015 0.0
C972 C 0.2913 0.45595 0.48548 0.0
C973 C 0.3513 0.45583 0.51215 0.0
C974 C 0.29381 0.41958 0.47824 0.0
C975 C 0.32485 0.40128 0.48778 0.0
H976 H 0.14423 0.39407 0.54449 0.0
H977 H 0.05241 0.43907 0.59943 0.0
H978 H 0.01989 0.38377 0.59052 0.0
H979 H 0.01648 0.32329 0.56458 0.0
H980 H 0.10848 0.27747 0.51177 0.0
H981 H 0.14192 0.33257 0.52188 0.0
C982 C 0.11725 0.3917 0.55493 0.0
C983 C 0.10084 0.42083 0.57247 0.0
C984 C 0.09855 0.35984 0.54954 0.0
C985 C 0.06584 0.41714 0.58593 0.0
C986 C 0.04706 0.38557 0.5806 0.0
C987 C 0.04379 0.32563 0.55512 0.0
C988 C 0.06006 0.29688 0.53705 0.0
C989 C 0.06293 0.35698 0.56186 0.0
C990 C 0.09556 0.2996 0.52551 0.0
C991 C 0.11462 0.33096 0.53142 0.0
H992 H 0.21352 0.47063 0.90873 0.0
H993 H 0.20747 0.45137 0.03276 0.0
H994 H 0.15192 0.41819 0.02341 0.0
H995 H 0.10462 0.39628 0.97994 0.0
H996 H 0.10962 0.41818 0.85606 0.0
H997 H 0.16688 0.44782 0.86511 0.0
C998 C 0.20029 0.45862 0.93358 0.0
C999 C 0.21471 0.46264 0.97127 0.0
C1000 C 0.1685 0.43988 0.9279 0.0
C1001 C 0.1968 0.44824 0.00349 0.0
C1002 C 0.16523 0.42922 -0.00191 0.0
C1003 C 0.11854 0.40695 0.9548 0.0
C1004 C 0.10305 0.40477 0.9173 0.0
C1005 C 0.15085 0.42491 0.96041 0.0
C1006 C 0.12108 0.41938 0.88516 0.0
C1007 C 0.15369 0.43648 0.89036 0.0
H1008 H 0.13137 0.12396 0.97827 0.0
H1009 H 0.03497 0.08942 0.92069 0.0
H1010 H 0.00595 0.14428 0.93857 0.0
H1011 H 0.00776 0.20236 0.97038 0.0
H1012 H 0.10456 0.23866 0.02467 0.0
H1013 H 0.13353 0.18259 0.00896 0.0
C1014 C 0.10408 0.12848 0.96942 0.0
C1015 C 0.08548 0.10251 0.9481 0.0
C1016 C 0.08747 0.1602 0.97974 0.0
C1017 C 0.05011 0.10895 0.93686 0.0
C1018 C 0.03333 0.14026 0.94729 0.0
C1019 C 0.03502 0.19759 0.97923 0.0
C1020 C 0.05397 0.22388 -0.00066 0.0
C1021 C 0.05167 0.16596 0.96889 0.0
C1022 C 0.08949 0.21822 0.00984 0.0
C1023 C 0.10604 0.1864 0.00055 0.0
H1024 H 0.40967 0.0562 0.96743 0.0
H1025 H 0.37601 0.16513 0.96634 0.0
H1026 H 0.31637 0.14674 0.98594 0.0
H1027 H 0.27343 0.09946 0.00215 0.0
H1028 H 0.30777 0.99084 0.00484 0.0
H1029 H 0.36775 0.00939 0.98702 0.0
C1030 C 0.38921 0.07589 0.97125 0.0
C1031 C 0.39707 0.11193 0.96487 0.0
C1032 C 0.35523 0.06521 0.98329 0.0
C1033 C 0.37053 0.13721 0.97082 0.0
C1034 C 0.33646 0.12672 0.9821 0.0
C1035 C 0.2941 0.07993 -0.00117 0.0
C1036 C 0.28611 0.04383 0.0043 0.0
C1037 C 0.32847 0.09079 0.98828 0.0
C1038 C 0.31329 0.01881 0.00085 0.0
C1039 C 0.3475 0.02936 0.99031 0.0
H1040 H 0.46876 0.42736 0.9485 0.0
H1041 H 0.35942 0.39811 0.96793 0.0
H1042 H 0.37768 0.34044 0.99287 0.0
H1043 H 0.42436 0.29724 0.00683 0.0
H1044 H 0.53366 0.32551 0.98718 0.0
H1045 H 0.51594 0.385 0.96613 0.0
C1046 C 0.44895 0.40831 0.95808 0.0
C1047 C 0.41274 0.41692 0.95585 0.0
C1048 C 0.45965 0.37515 0.97284 0.0
C1049 C 0.38745 0.39216 0.96909 0.0
C1050 C 0.39785 0.35915 0.98346 0.0
C1051 C 0.44424 0.31648 -0.00204 0.0
C1052 C 0.48012 0.30691 -0.00216 0.0
C1053 C 0.43381 0.35024 0.98515 0.0
C1054 C 0.5058 0.33231 0.98741 0.0
C1055 C 0.49567 0.36619 0.97501 0.0
H1056 H 0.92236 0.94856 0.41724 0.0
H1057 H 0.88579 0.84034 0.41103 0.0
H1058 H 0.82641 0.8585 0.43035 0.0
H1059 H 0.78557 0.90475 0.45182 0.0
H1060 H 0.82237 0.01272 0.45966 0.0
H1061 H 0.88129 0.99491 0.43826 0.0
C1062 C 0.90119 0.92909 0.41932 0.0
C1063 C 0.90832 0.89323 0.41212 0.0
C1064 C 0.86739 0.93956 0.43163 0.0
C1065 C 0.88087 0.86815 0.41603 0.0
C1066 C 0.84699 0.87847 0.42736 0.0
C1067 C 0.80638 0.92442 0.4484 0.0
C1068 C 0.79947 0.96008 0.45673 0.0
C1069 C 0.84006 0.91403 0.43572 0.0
C1070 C 0.82704 0.98509 0.45346 0.0
C1071 C 0.86063 0.97498 0.44088 0.0
H1072 H 0.54511 0.90464 0.42813 0.0
H1073 H 0.65371 0.87022 0.43881 0.0
H1074 H 0.63362 0.81216 0.46216 0.0
H1075 H 0.58502 0.77087 0.4787 0.0
H1076 H 0.47666 0.80538 0.4663 0.0
H1077 H 0.49691 0.86422 0.4464 0.0
C1078 C 0.56442 0.88432 0.43508 0.0
C1079 C 0.60085 0.89159 0.43108 0.0
C1080 C 0.55274 0.85124 0.44903 0.0
C1081 C 0.62549 0.8652 0.44122 0.0
C1082 C 0.61404 0.83207 0.4548 0.0
C1083 C 0.56589 0.79127 0.47149 0.0
C1084 C 0.52942 0.7835 0.47317 0.0
C1085 C 0.57772 0.82477 0.45878 0.0
C1086 C 0.50492 0.81056 0.46513 0.0
C1087 C 0.51645 0.84413 0.45327 0.0
H1088 H 0.70493 0.53818 0.39686 0.0
H1089 H 0.70955 0.5911 0.50779 0.0
H1090 H 0.65217 0.61887 0.49397 0.0
H1091 H 0.60013 0.62567 0.45198 0.0
H1092 H 0.59265 0.56903 0.34316 0.0
H1093 H 0.65245 0.54561 0.35401 0.0
C1094 C 0.69348 0.55616 0.41769 0.0
C1095 C 0.71141 0.56316 0.45302 0.0
C1096 C 0.66028 0.57134 0.40981 0.0
C1097 C 0.69612 0.58566 0.48036 0.0
C1098 C 0.66347 0.60151 0.4724 0.0
C1099 C 0.61165 0.60864 0.4302 0.0
C1100 C 0.59196 0.59929 0.3966 0.0
C1101 C 0.64525 0.59431 0.43737 0.0
C1102 C 0.60727 0.57675 0.36913 0.0
C1103 C 0.64135 0.56323 0.37545 0.0
H1104 H 0.95237 0.57801 0.44969 0.0
H1105 H 0.87392 0.62423 0.37294 0.0
H1106 H 0.89735 0.68357 0.38686 0.0
H1107 H 0.94046 0.7214 0.42009 0.0
H1108 H 0.01448 0.67627 0.5032 0.0
H1109 H 0.99287 0.61688 0.48714 0.0
C1110 C 0.94073 0.60119 0.43589 0.0
C1111 C 0.91207 0.59714 0.4098 0.0
C1112 C 0.95329 0.63511 0.44546 0.0
C1113 C 0.89639 0.62704 0.39264 0.0
C1114 C 0.90964 0.66081 0.40078 0.0
C1115 C 0.95091 0.699 0.43618 0.0
C1116 C 0.97819 0.70363 0.46407 0.0
C1117 C 0.93787 0.66514 0.4274 0.0
C1118 C 0.99302 0.67355 0.48218 0.0
C1119 C 0.98078 0.6396 0.4729 0.0
H1120 H 0.89753 0.63717 0.0396 0.0
H1121 H 0.94516 0.53511 0.06129 0.0
H1122 H 0.89064 0.50571 0.04031 0.0
H1123 H 0.82895 0.50883 0.01624 0.0
H1124 H 0.7808 0.61058 -0.00368 0.0
H1125 H 0.83604 0.64028 0.01577 0.0
C1126 C 0.89596 0.60849 0.04001 0.0
C1127 C 0.92546 0.58847 0.05229 0.0
C1128 C 0.86446 0.59168 0.0279 0.0
C1129 C 0.92285 0.5513 0.05245 0.0
C1130 C 0.89171 0.53439 0.04019 0.0
C1131 C 0.83083 0.5375 0.01574 0.0
C1132 C 0.80111 0.55762 0.00479 0.0
C1133 C 0.86237 0.55429 0.02777 0.0
C1134 C 0.80348 0.59469 0.00472 0.0
C1135 C 0.83495 0.61161 0.01594 0.0
H1136 H 0.92033 0.78751 0.01658 0.0
H1137 H 0.02402 0.82921 0.04519 0.0
H1138 H 0.9984 0.88686 0.05851 0.0
H1139 H 0.94659 0.9253 0.06307 0.0
H1140 H 0.8427 0.88372 0.03482 0.0
H1141 H 0.86825 0.82587 0.02183 0.0
C1142 C 0.93724 0.80893 0.02648 0.0
C1143 C 0.97396 0.8037 0.03064 0.0
C1144 C 0.92227 0.84202 0.03461 0.0
C1145 C 0.99564 0.83239 0.0418 0.0
C1146 C 0.981 0.86536 0.04971 0.0
C1147 C 0.92943 0.90351 0.0545 0.0
C1148 C 0.89273 0.90887 0.05017 0.0
C1149 C 0.94433 0.87041 0.04651 0.0
C1150 C 0.87103 0.88038 0.03849 0.0
C1151 C 0.88563 0.84727 0.03091 0.0
H1152 H 0.68569 0.97677 0.05038 0.0
H1153 H 0.69727 0.9153 0.94602 0.0
H1154 H 0.64266 0.88244 0.96134 0.0
H1155 H 0.59233 0.87108 0.00494 0.0
H1156 H 0.57932 0.93454 0.10791 0.0
H1157 H 0.63444 0.96648 0.09322 0.0
C1158 C 0.67615 0.95619 0.03109 0.0
C1159 C 0.6953 0.94811 -0.00267 0.0
C1160 C 0.64494 0.93758 0.04019 0.0
C1161 C 0.6827 0.92181 0.97211 0.0
C1162 C 0.65172 0.90297 0.98102 0.0
C1163 C 0.60185 0.89152 0.02451 0.0
C1164 C 0.58221 0.90002 0.05791 0.0
C1165 C 0.63284 0.91043 0.01518 0.0
C1166 C 0.59424 0.92731 0.08231 0.0
C1167 C 0.62559 0.94566 0.0738 0.0
H1168 H 0.55866 0.57508 0.01134 0.0
H1169 H 0.63761 0.62022 0.08805 0.0
H1170 H 0.61251 0.67932 0.0772 0.0
H1171 H 0.56736 0.71722 0.04713 0.0
H1172 H 0.4929 0.67339 0.96387 0.0
H1173 H 0.51665 0.6143 0.97649 0.0
C1174 C 0.57012 0.59795 0.02578 0.0
C1175 C 0.59939 0.59355 0.05101 0.0
C1176 C 0.55656 0.63187 0.01799 0.0
C1177 C 0.61475 0.62319 0.06893 0.0
C1178 C 0.60051 0.65687 0.06257 0.0
C1179 C 0.55722 0.69531 0.03023 0.0
C1180 C 0.52903 0.70029 0.00345 0.0
C1181 C 0.57154 0.66153 0.03697 0.0
C1182 C 0.51491 0.67055 0.98419 0.0
C1183 C 0.52838 0.6367 0.99149 0.0
loop_
_geom_bond_atom_site_label_1
_geom_bond_atom_site_label_2
_geom_bond_distance
_geom_bond_site_symmetry_2
_ccdc_geom_bond_type
Co0 O3 1.977 . S
Co0 N17 1.986 1_455 S
Co0 O25 1.963 1_455 S
Co0 O32 1.919 1_455 S
Co1 O4 1.966 1_655 S
Co1 N10 2.022 . S
Co1 N18 1.993 . S
Co1 O26 1.941 . S
C2 O3 1.258 . S
C2 O4 1.263 . S
O3 Co0 1.977 . S
O3 C2 1.258 . S
O4 Co1 1.966 1_455 S
O4 C2 1.263 . S
C5 O6 1.235 . S
C5 O32 1.289 1_455 S
O6 C5 1.235 . S
C7 C9 1.400 . S
C7 N10 1.351 1_455 S
C7 C12 1.501 . S
C8 C9 1.387 1_655 S
C8 N11 1.341 . S
C9 C7 1.400 . S
C9 C8 1.387 1_455 S
N10 Co1 2.022 . S
N10 C7 1.351 1_655 S
N10 N11 1.365 . S
N11 C8 1.341 . S
N11 N10 1.365 . S
N11 H31 0.862 . S
C12 C7 1.501 . S
C12 H13 0.961 . S
C12 H14 0.961 . S
C12 H15 0.960 . S
H13 C12 0.961 . S
H14 C12 0.961 . S
H15 C12 0.960 . S
C16 N17 1.342 . S
C16 C20 1.401 . S
C16 C21 1.499 . S
N17 Co0 1.986 1_655 S
N17 C16 1.342 . S
N17 N18 1.388 . S
N18 Co1 1.993 . S
N18 N17 1.388 . S
N18 C19 1.346 . S
C19 N18 1.346 . S
C19 C20 1.396 . S
C19 C29 1.510 . S
C20 C16 1.401 . S
C20 C19 1.396 . S
C21 C16 1.499 . S
C21 H22 0.959 . S
C21 H23 0.960 . S
C21 H24 0.961 . S
H22 C21 0.959 . S
H23 C21 0.960 . S
H24 C21 0.961 . S
O25 Co0 1.963 1_655 S
O25 C33 1.258 . S
O26 Co1 1.941 . S
O26 C33 1.266 . S
H27 C29 0.959 . S
H28 C29 0.961 . S
C29 C19 1.510 . S
C29 H27 0.959 . S
C29 H28 0.961 . S
C29 H30 0.960 . S
H30 C29 0.960 . S
H31 N11 0.862 . S
O32 Co0 1.919 1_655 S
O32 C5 1.289 1_655 S
C33 O25 1.258 . S
C33 O26 1.266 . S
Co34 O37 1.950 1_565 S
Co34 N51 1.997 . S
Co34 O59 1.978 . S
Co34 O66 1.924 . S
Co35 O38 1.966 1_565 S
Co35 N44 2.022 . S
Co35 N52 1.993 . S
Co35 O60 1.941 . S
C36 O37 1.258 . S
C36 O38 1.263 . S
O37 Co34 1.950 1_545 S
O37 C36 1.258 . S
O38 Co35 1.966 1_545 S
O38 C36 1.263 . S
C39 O40 1.235 . S
C39 O66 1.289 1_545 S
O40 C39 1.235 . S
C41 C43 1.400 . S
C41 N44 1.351 1_545 S
C41 C46 1.501 . S
C42 C43 1.387 1_565 S
C42 N45 1.341 . S
C43 C41 1.400 . S
C43 C42 1.387 1_545 S
N44 Co35 2.022 . S
N44 C41 1.351 1_565 S
N44 N45 1.365 . S
N45 C42 1.341 . S
N45 N44 1.365 . S
N45 H65 0.862 . S
C46 C41 1.501 . S
C46 H47 0.961 . S
C46 H48 0.961 . S
C46 H49 0.960 . S
H47 C46 0.961 . S
H48 C46 0.961 . S
H49 C46 0.960 . S
C50 N51 1.342 . S
C50 C54 1.401 . S
C50 C55 1.499 . S
N51 Co34 1.997 . S
N51 C50 1.342 . S
N51 N52 1.388 . S
N52 Co35 1.993 . S
N52 N51 1.388 . S
N52 C53 1.346 . S
C53 N52 1.346 . S
C53 C54 1.396 . S
C53 C63 1.510 . S
C54 C50 1.401 . S
C54 C53 1.396 . S
C55 C50 1.499 . S
C55 H56 0.959 . S
C55 H57 0.960 . S
C55 H58 0.961 . S
H56 C55 0.959 . S
H57 C55 0.960 . S
H58 C55 0.961 . S
O59 Co34 1.978 . S
O59 C67 1.258 . S
O60 Co35 1.941 . S
O60 C67 1.266 . S
H61 C63 0.959 . S
H62 C63 0.961 . S
C63 C53 1.510 . S
C63 H61 0.959 . S
C63 H62 0.961 . S
C63 H64 0.960 . S
H64 C63 0.960 . S
H65 N45 0.862 . S
O66 Co34 1.924 . S
O66 C39 1.289 1_565 S
C67 O59 1.258 . S
C67 O60 1.266 . S
Co68 O71 1.970 . S
Co68 N85 1.989 . S
Co68 O93 1.967 . S
Co68 O100 1.920 . S
Co69 O72 1.966 . S
Co69 N78 2.022 . S
Co69 N86 1.993 . S
Co69 O94 1.941 . S
C70 O71 1.258 . S
C70 O72 1.263 . S
O71 Co68 1.970 . S
O71 C70 1.258 . S
O72 Co69 1.966 . S
O72 C70 1.263 . S
C73 O74 1.235 . S
C73 O100 1.289 . S
O74 C73 1.235 . S
C75 C77 1.400 . S
C75 N78 1.351 . S
C75 C80 1.501 . S
C76 C77 1.387 . S
C76 N79 1.341 . S
C77 C75 1.400 . S
C77 C76 1.387 . S
N78 Co69 2.022 . S
N78 C75 1.351 . S
N78 N79 1.365 . S
N79 C76 1.341 . S
N79 N78 1.365 . S
N79 H99 0.862 . S
C80 C75 1.501 . S
C80 H81 0.961 . S
C80 H82 0.961 . S
C80 H83 0.960 . S
H81 C80 0.961 . S
H82 C80 0.961 . S
H83 C80 0.960 . S
C84 N85 1.342 . S
C84 C88 1.401 . S
C84 C89 1.499 . S
N85 Co68 1.989 . S
N85 C84 1.342 . S
N85 N86 1.388 . S
N86 Co69 1.993 . S
N86 N85 1.388 . S
N86 C87 1.346 . S
C87 N86 1.346 . S
C87 C88 1.396 . S
C87 C97 1.510 . S
C88 C84 1.401 . S
C88 C87 1.396 . S
C89 C84 1.499 . S
C89 H90 0.959 . S
C89 H91 0.960 . S
C89 H92 0.961 . S
H90 C89 0.959 . S
H91 C89 0.960 . S
H92 C89 0.961 . S
O93 Co68 1.967 . S
O93 C101 1.258 . S
O94 Co69 1.941 . S
O94 C101 1.266 . S
H95 C97 0.959 . S
H96 C97 0.961 . S
C97 C87 1.510 . S
C97 H95 0.959 . S
C97 H96 0.961 . S
C97 H98 0.960 . S
H98 C97 0.960 . S
H99 N79 0.862 . S
O100 Co68 1.920 . S
O100 C73 1.289 . S
C101 O93 1.258 . S
C101 O94 1.266 . S
Co102 O105 1.970 . S
Co102 N119 1.989 . S
Co102 O127 1.967 . S
Co102 O134 1.920 . S
Co103 O106 1.966 . S
Co103 N112 2.022 . S
Co103 N120 1.993 . S
Co103 O128 1.941 . S
C104 O105 1.258 . S
C104 O106 1.263 . S
O105 Co102 1.970 . S
O105 C104 1.258 . S
O106 Co103 1.966 . S
O106 C104 1.263 . S
C107 O108 1.235 . S
C107 O134 1.289 . S
O108 C107 1.235 . S
C109 C111 1.400 . S
C109 N112 1.351 . S
C109 C114 1.501 . S
C110 C111 1.387 . S
C110 N113 1.341 . S
C111 C109 1.400 . S
C111 C110 1.387 . S
N112 Co103 2.022 . S
N112 C109 1.351 . S
N112 N113 1.365 . S
N113 C110 1.341 . S
N113 N112 1.365 . S
N113 H133 0.862 . S
C114 C109 1.501 . S
C114 H115 0.961 . S
C114 H116 0.961 . S
C114 H117 0.960 . S
H115 C114 0.961 . S
H116 C114 0.961 . S
H117 C114 0.960 . S
C118 N119 1.342 . S
C118 C122 1.401 . S
C118 C123 1.499 . S
N119 Co102 1.989 . S
N119 C118 1.342 . S
N119 N120 1.388 . S
N120 Co103 1.993 . S
N120 N119 1.388 . S
N120 C121 1.346 . S
C121 N120 1.346 . S
C121 C122 1.396 . S
C121 C131 1.510 . S
C122 C118 1.401 . S
C122 C121 1.396 . S
C123 C118 1.499 . S
C123 H124 0.959 . S
C123 H125 0.960 . S
C123 H126 0.961 . S
H124 C123 0.959 . S
H125 C123 0.960 . S
H126 C123 0.961 . S
O127 Co102 1.967 . S
O127 C135 1.258 . S
O128 Co103 1.941 . S
O128 C135 1.266 . S
H129 C131 0.959 . S
H130 C131 0.961 . S
C131 C121 1.510 . S
C131 H129 0.959 . S
C131 H130 0.961 . S
C131 H132 0.960 . S
H132 C131 0.960 . S
H133 N113 0.862 . S
O134 Co102 1.920 . S
O134 C107 1.289 . S
C135 O127 1.258 . S
C135 O128 1.266 . S
Co136 O139 1.950 1_655 S
Co136 N153 1.997 . S
Co136 O161 1.978 . S
Co136 O168 1.924 . S
Co137 O140 1.966 1_655 S
Co137 N146 2.022 . S
Co137 N154 1.993 . S
Co137 O162 1.941 . S
C138 O139 1.258 . S
C138 O140 1.263 . S
O139 Co136 1.950 1_455 S
O139 C138 1.258 . S
O140 Co137 1.966 1_455 S
O140 C138 1.263 . S
C141 O142 1.235 . S
C141 O168 1.289 1_455 S
O142 C141 1.235 . S
C143 C145 1.400 . S
C143 N146 1.351 1_454 S
C143 C148 1.499 1_554 S
C144 C145 1.387 1_655 S
C144 N147 1.341 . S
C145 C143 1.400 . S
C145 C144 1.387 1_455 S
N146 Co137 2.022 . S
N146 C143 1.351 1_656 S
N146 N147 1.365 1_556 S
N147 C144 1.341 . S
N147 N146 1.365 1_554 S
N147 H167 0.862 . S
C148 C143 1.499 1_556 S
C148 H149 0.965 . S
C148 H150 0.971 . S
C148 H151 0.948 1_556 S
H149 C148 0.965 . S
H150 C148 0.971 . S
H151 C148 0.948 1_554 S
C152 N153 1.342 . S
C152 C156 1.401 . S
C152 C157 1.499 . S
N153 Co136 1.997 . S
N153 C152 1.342 . S
N153 N154 1.388 . S
N154 Co137 1.993 . S
N154 N153 1.388 . S
N154 C155 1.346 . S
C155 N154 1.346 . S
C155 C156 1.396 . S
C155 C165 1.510 . S
C156 C152 1.401 . S
C156 C155 1.396 . S
C157 C152 1.499 . S
C157 H158 0.959 . S
C157 H159 0.960 . S
C157 H160 0.961 . S
H158 C157 0.959 . S
H159 C157 0.960 . S
H160 C157 0.961 . S
O161 Co136 1.978 . S
O161 C169 1.258 . S
O162 Co137 1.941 . S
O162 C169 1.266 . S
H163 C165 0.959 . S
H164 C165 0.961 . S
C165 C155 1.510 . S
C165 H163 0.959 . S
C165 H164 0.961 . S
C165 H166 0.960 . S
H166 C165 0.960 . S
H167 N147 0.862 . S
O168 Co136 1.924 . S
O168 C141 1.289 1_655 S
C169 O161 1.258 . S
C169 O162 1.266 . S
Co170 O173 1.977 . S
Co170 N187 1.986 1_545 S
Co170 O195 1.963 1_545 S
Co170 O202 1.919 1_545 S
Co171 O174 1.966 1_565 S
Co171 N180 2.022 1_556 S
Co171 N188 1.993 . S
Co171 O196 1.941 . S
C172 O173 1.258 . S
C172 O174 1.263 . S
O173 Co170 1.977 . S
O173 C172 1.258 . S
O174 Co171 1.966 1_545 S
O174 C172 1.263 . S
C175 O176 1.235 . S
C175 O202 1.289 1_545 S
O176 C175 1.235 . S
C177 C179 1.400 . S
C177 N180 1.351 1_545 S
C177 C182 1.501 . S
C178 C179 1.387 1_565 S
C178 N181 1.341 . S
C179 C177 1.400 . S
C179 C178 1.387 1_545 S
N180 Co171 2.022 1_554 S
N180 C177 1.351 1_565 S
N180 N181 1.365 . S
N181 C178 1.341 . S
N181 N180 1.365 . S
N181 H201 0.862 . S
C182 C177 1.501 . S
C182 H183 0.961 1_554 S
C182 H184 0.961 1_554 S
C182 H185 0.960 . S
H183 C182 0.961 1_556 S
H184 C182 0.961 1_556 S
H185 C182 0.960 . S
C186 N187 1.342 . S
C186 C190 1.401 . S
C186 C191 1.499 . S
N187 Co170 1.986 1_565 S
N187 C186 1.342 . S
N187 N188 1.388 . S
N188 Co171 1.993 . S
N188 N187 1.388 . S
N188 C189 1.346 . S
C189 N188 1.346 . S
C189 C190 1.396 . S
C189 C199 1.510 . S
C190 C186 1.401 . S
C190 C189 1.396 . S
C191 C186 1.499 . S
C191 H192 0.959 . S
C191 H193 0.960 . S
C191 H194 0.961 . S
H192 C191 0.959 . S
H193 C191 0.960 . S
H194 C191 0.961 . S
O195 Co170 1.963 1_565 S
O195 C203 1.258 . S
O196 Co171 1.941 . S
O196 C203 1.266 . S
H197 C199 0.959 . S
H198 C199 0.961 . S
C199 C189 1.510 . S
C199 H197 0.959 . S
C199 H198 0.961 . S
C199 H200 0.960 . S
H200 C199 0.960 . S
H201 N181 0.862 . S
O202 Co170 1.919 1_565 S
O202 C175 1.289 1_565 S
C203 O195 1.258 . S
C203 O196 1.266 . S
Co204 O207 1.970 . S
Co204 N221 1.989 . S
Co204 O229 1.967 . S
Co204 O236 1.920 . S
Co205 O208 1.966 . S
Co205 N214 2.022 1_556 S
Co205 N222 1.993 . S
Co205 O230 1.941 . S
C206 O207 1.258 . S
C206 O208 1.263 . S
O207 Co204 1.970 . S
O207 C206 1.258 . S
O208 Co205 1.966 . S
O208 C206 1.263 . S
C209 O210 1.235 . S
C209 O236 1.289 . S
O210 C209 1.235 . S
C211 C213 1.400 . S
C211 N214 1.351 . S
C211 C216 1.501 . S
C212 C213 1.387 . S
C212 N215 1.341 . S
C213 C211 1.400 . S
C213 C212 1.387 . S
N214 Co205 2.022 1_554 S
N214 C211 1.351 . S
N214 N215 1.365 . S
N215 C212 1.341 . S
N215 N214 1.365 . S
N215 H235 0.862 . S
C216 C211 1.501 . S
C216 H217 0.961 1_554 S
C216 H218 0.961 1_554 S
C216 H219 0.960 . S
H217 C216 0.961 1_556 S
H218 C216 0.961 1_556 S
H219 C216 0.960 . S
C220 N221 1.342 . S
C220 C224 1.401 . S
C220 C225 1.499 . S
N221 Co204 1.989 . S
N221 C220 1.342 . S
N221 N222 1.388 . S
N222 Co205 1.993 . S
N222 N221 1.388 . S
N222 C223 1.346 . S
C223 N222 1.346 . S
C223 C224 1.396 . S
C223 C233 1.510 . S
C224 C220 1.401 . S
C224 C223 1.396 . S
C225 C220 1.499 . S
C225 H226 0.959 . S
C225 H227 0.960 . S
C225 H228 0.961 . S
H226 C225 0.959 . S
H227 C225 0.960 . S
H228 C225 0.961 . S
O229 Co204 1.967 . S
O229 C237 1.258 . S
O230 Co205 1.941 . S
O230 C237 1.266 . S
H231 C233 0.959 . S
H232 C233 0.961 . S
C233 C223 1.510 . S
C233 H231 0.959 . S
C233 H232 0.961 . S
C233 H234 0.960 . S
H234 C233 0.960 . S
H235 N215 0.862 . S
O236 Co204 1.920 . S
O236 C209 1.289 . S
C237 O229 1.258 . S
C237 O230 1.266 . S
Co238 O241 1.970 . S
Co238 N255 1.989 . S
Co238 O263 1.967 . S
Co238 O270 1.920 . S
Co239 O242 1.966 . S
Co239 N248 2.022 . S
Co239 N256 1.993 . S
Co239 O264 1.941 . S
C240 O241 1.258 . S
C240 O242 1.263 . S
O241 Co238 1.970 . S
O241 C240 1.258 . S
O242 Co239 1.966 . S
O242 C240 1.263 . S
C243 O244 1.235 . S
C243 O270 1.289 . S
O244 C243 1.235 . S
C245 C247 1.400 . S
C245 N248 1.351 1_554 S
C245 C250 1.501 1_554 S
C246 C247 1.387 . S
C246 N249 1.341 . S
C247 C245 1.400 . S
C247 C246 1.387 . S
N248 Co239 2.022 . S
N248 C245 1.351 1_556 S
N248 N249 1.365 1_556 S
N249 C246 1.341 . S
N249 N248 1.365 1_554 S
N249 H269 0.862 . S
C250 C245 1.501 1_556 S
C250 H251 0.961 . S
C250 H252 0.961 . S
C250 H253 0.960 1_556 S
H251 C250 0.961 . S
H252 C250 0.961 . S
H253 C250 0.960 1_554 S
C254 N255 1.342 . S
C254 C258 1.401 . S
C254 C259 1.499 . S
N255 Co238 1.989 . S
N255 C254 1.342 . S
N255 N256 1.388 . S
N256 Co239 1.993 . S
N256 N255 1.388 . S
N256 C257 1.346 . S
C257 N256 1.346 . S
C257 C258 1.396 . S
C257 C267 1.510 . S
C258 C254 1.401 . S
C258 C257 1.396 . S
C259 C254 1.499 . S
C259 H260 0.959 . S
C259 H261 0.960 . S
C259 H262 0.961 . S
H260 C259 0.959 . S
H261 C259 0.960 . S
H262 C259 0.961 . S
O263 Co238 1.967 . S
O263 C271 1.258 . S
O264 Co239 1.941 . S
O264 C271 1.266 . S
H265 C267 0.959 . S
H266 C267 0.961 . S
C267 C257 1.510 . S
C267 H265 0.959 . S
C267 H266 0.961 . S
C267 H268 0.960 . S
H268 C267 0.960 . S
H269 N249 0.862 . S
O270 Co238 1.920 . S
O270 C243 1.289 . S
C271 O263 1.258 . S
C271 O264 1.266 . S
Co272 O275 1.977 . S
Co272 N289 1.986 1_655 S
Co272 O297 1.963 1_655 S
Co272 O304 1.919 1_655 S
Co273 O276 1.966 1_455 S
Co273 N282 2.022 . S
Co273 N290 1.993 . S
Co273 O298 1.941 . S
C274 O275 1.258 . S
C274 O276 1.263 . S
O275 Co272 1.977 . S
O275 C274 1.258 . S
O276 Co273 1.966 1_655 S
O276 C274 1.263 . S
C277 O278 1.235 . S
C277 O304 1.289 1_655 S
O278 C277 1.235 . S
C279 C281 1.400 . S
C279 N282 1.351 1_655 S
C279 C284 1.501 . S
C280 C281 1.387 1_455 S
C280 N283 1.341 . S
C281 C279 1.400 . S
C281 C280 1.387 1_655 S
N282 Co273 2.022 . S
N282 C279 1.351 1_455 S
N282 N283 1.365 . S
N283 C280 1.341 . S
N283 N282 1.365 . S
N283 H303 0.862 . S
C284 C279 1.501 . S
C284 H285 0.961 . S
C284 H286 0.961 . S
C284 H287 0.960 . S
H285 C284 0.961 . S
H286 C284 0.961 . S
H287 C284 0.960 . S
C288 N289 1.342 . S
C288 C292 1.401 . S
C288 C293 1.499 . S
N289 Co272 1.986 1_455 S
N289 C288 1.342 . S
N289 N290 1.388 . S
N290 Co273 1.993 . S
N290 N289 1.388 . S
N290 C291 1.346 . S
C291 N290 1.346 . S
C291 C292 1.396 . S
C291 C301 1.510 . S
C292 C288 1.401 . S
C292 C291 1.396 . S
C293 C288 1.499 . S
C293 H294 0.959 . S
C293 H295 0.960 . S
C293 H296 0.961 . S
H294 C293 0.959 . S
H295 C293 0.960 . S
H296 C293 0.961 . S
O297 Co272 1.963 1_455 S
O297 C305 1.258 . S
O298 Co273 1.941 . S
O298 C305 1.266 . S
H299 C301 0.959 . S
H300 C301 0.961 . S
C301 C291 1.510 . S
C301 H299 0.959 . S
C301 H300 0.961 . S
C301 H302 0.960 . S
H302 C301 0.960 . S
H303 N283 0.862 . S
O304 Co272 1.919 1_455 S
O304 C277 1.289 1_455 S
C305 O297 1.258 . S
C305 O298 1.266 . S
Co306 O309 1.950 1_545 S
Co306 N323 1.997 . S
Co306 O331 1.978 . S
Co306 O338 1.924 . S
Co307 O310 1.966 1_545 S
Co307 N316 2.022 . S
Co307 N324 1.993 . S
Co307 O332 1.941 . S
C308 O309 1.258 . S
C308 O310 1.263 . S
O309 Co306 1.950 1_565 S
O309 C308 1.258 . S
O310 Co307 1.966 1_565 S
O310 C308 1.263 . S
C311 O312 1.235 . S
C311 O338 1.289 1_565 S
O312 C311 1.235 . S
C313 C315 1.400 . S
C313 N316 1.351 1_565 S
C313 C318 1.501 . S
C314 C315 1.387 1_545 S
C314 N317 1.341 . S
C315 C313 1.400 . S
C315 C314 1.387 1_565 S
N316 Co307 2.022 . S
N316 C313 1.351 1_545 S
N316 N317 1.365 . S
N317 C314 1.341 . S
N317 N316 1.365 . S
N317 H337 0.862 . S
C318 C313 1.501 . S
C318 H319 0.961 . S
C318 H320 0.961 . S
C318 H321 0.960 . S
H319 C318 0.961 . S
H320 C318 0.961 . S
H321 C318 0.960 . S
C322 N323 1.342 . S
C322 C326 1.401 . S
C322 C327 1.499 . S
N323 Co306 1.997 . S
N323 C322 1.342 . S
N323 N324 1.388 . S
N324 Co307 1.993 . S
N324 N323 1.388 . S
N324 C325 1.346 . S
C325 N324 1.346 . S
C325 C326 1.396 . S
C325 C335 1.510 . S
C326 C322 1.401 . S
C326 C325 1.396 . S
C327 C322 1.499 . S
C327 H328 0.959 . S
C327 H329 0.960 . S
C327 H330 0.961 . S
H328 C327 0.959 . S
H329 C327 0.960 . S
H330 C327 0.961 . S
O331 Co306 1.978 . S
O331 C339 1.258 . S
O332 Co307 1.941 . S
O332 C339 1.266 . S
H333 C335 0.959 . S
H334 C335 0.961 . S
C335 C325 1.510 . S
C335 H333 0.959 . S
C335 H334 0.961 . S
C335 H336 0.960 . S
H336 C335 0.960 . S
H337 N317 0.862 . S
O338 Co306 1.924 . S
O338 C311 1.289 1_545 S
C339 O331 1.258 . S
C339 O332 1.266 . S
Co340 O343 1.970 . S
Co340 N357 1.989 . S
Co340 O365 1.967 . S
Co340 O372 1.920 . S
Co341 O344 1.966 . S
Co341 N350 2.022 . S
Co341 N358 1.993 . S
Co341 O366 1.941 . S
C342 O343 1.258 . S
C342 O344 1.263 . S
O343 Co340 1.970 . S
O343 C342 1.258 . S
O344 Co341 1.966 . S
O344 C342 1.263 . S
C345 O346 1.235 . S
C345 O372 1.289 . S
O346 C345 1.235 . S
C347 C349 1.400 . S
C347 N350 1.351 . S
C347 C352 1.501 . S
C348 C349 1.387 . S
C348 N351 1.341 . S
C349 C347 1.400 . S
C349 C348 1.387 . S
N350 Co341 2.022 . S
N350 C347 1.351 . S
N350 N351 1.365 . S
N351 C348 1.341 . S
N351 N350 1.365 . S
N351 H371 0.862 . S
C352 C347 1.501 . S
C352 H353 0.961 . S
C352 H354 0.961 . S
C352 H355 0.960 . S
H353 C352 0.961 . S
H354 C352 0.961 . S
H355 C352 0.960 . S
C356 N357 1.342 . S
C356 C360 1.401 . S
C356 C361 1.499 . S
N357 Co340 1.989 . S
N357 C356 1.342 . S
N357 N358 1.388 . S
N358 Co341 1.993 . S
N358 N357 1.388 . S
N358 C359 1.346 . S
C359 N358 1.346 . S
C359 C360 1.396 . S
C359 C369 1.510 . S
C360 C356 1.401 . S
C360 C359 1.396 . S
C361 C356 1.499 . S
C361 H362 0.959 . S
C361 H363 0.960 . S
C361 H364 0.961 . S
H362 C361 0.959 . S
H363 C361 0.960 . S
H364 C361 0.961 . S
O365 Co340 1.967 . S
O365 C373 1.258 . S
O366 Co341 1.941 . S
O366 C373 1.266 . S
H367 C369 0.959 . S
H368 C369 0.961 . S
C369 C359 1.510 . S
C369 H367 0.959 . S
C369 H368 0.961 . S
C369 H370 0.960 . S
H370 C369 0.960 . S
H371 N351 0.862 . S
O372 Co340 1.920 . S
O372 C345 1.289 . S
C373 O365 1.258 . S
C373 O366 1.266 . S
Co374 O377 1.970 . S
Co374 N391 1.989 . S
Co374 O399 1.967 . S
Co374 O406 1.920 . S
Co375 O378 1.966 . S
Co375 N384 2.022 . S
Co375 N392 1.993 . S
Co375 O400 1.941 . S
C376 O377 1.258 . S
C376 O378 1.263 . S
O377 Co374 1.970 . S
O377 C376 1.258 . S
O378 Co375 1.966 . S
O378 C376 1.263 . S
C379 O380 1.235 . S
C379 O406 1.289 . S
O380 C379 1.235 . S
C381 C383 1.400 . S
C381 N384 1.351 . S
C381 C386 1.501 . S
C382 C383 1.387 . S
C382 N385 1.341 . S
C383 C381 1.400 . S
C383 C382 1.387 . S
N384 Co375 2.022 . S
N384 C381 1.351 . S
N384 N385 1.365 . S
N385 C382 1.341 . S
N385 N384 1.365 . S
N385 H405 0.862 . S
C386 C381 1.501 . S
C386 H387 0.961 . S
C386 H388 0.961 . S
C386 H389 0.960 . S
H387 C386 0.961 . S
H388 C386 0.961 . S
H389 C386 0.960 . S
C390 N391 1.342 . S
C390 C394 1.401 . S
C390 C395 1.499 . S
N391 Co374 1.989 . S
N391 C390 1.342 . S
N391 N392 1.388 . S
N392 Co375 1.993 . S
N392 N391 1.388 . S
N392 C393 1.346 . S
C393 N392 1.346 . S
C393 C394 1.396 . S
C393 C403 1.510 . S
C394 C390 1.401 . S
C394 C393 1.396 . S
C395 C390 1.499 . S
C395 H396 0.959 . S
C395 H397 0.960 . S
C395 H398 0.961 . S
H396 C395 0.959 . S
H397 C395 0.960 . S
H398 C395 0.961 . S
O399 Co374 1.967 . S
O399 C407 1.258 . S
O400 Co375 1.941 . S
O400 C407 1.266 . S
H401 C403 0.959 . S
H402 C403 0.961 . S
C403 C393 1.510 . S
C403 H401 0.959 . S
C403 H402 0.961 . S
C403 H404 0.960 . S
H404 C403 0.960 . S
H405 N385 0.862 . S
O406 Co374 1.920 . S
O406 C379 1.289 . S
C407 O399 1.258 . S
C407 O400 1.266 . S
Co408 O411 1.950 1_455 S
Co408 N425 1.997 . S
Co408 O433 1.978 . S
Co408 O440 1.924 . S
Co409 O412 1.966 1_455 S
Co409 N418 2.022 . S
Co409 N426 1.993 . S
Co409 O434 1.941 . S
C410 O411 1.258 . S
C410 O412 1.263 . S
O411 Co408 1.950 1_655 S
O411 C410 1.258 . S
O412 Co409 1.966 1_655 S
O412 C410 1.263 . S
C413 O414 1.235 . S
C413 O440 1.289 1_655 S
O414 C413 1.235 . S
C415 C417 1.400 . S
C415 N418 1.351 1_656 S
C415 C420 1.499 1_556 S
C416 C417 1.387 1_455 S
C416 N419 1.341 . S
C417 C415 1.400 . S
C417 C416 1.387 1_655 S
N418 Co409 2.022 . S
N418 C415 1.351 1_454 S
N418 N419 1.365 1_554 S
N419 C416 1.341 . S
N419 N418 1.365 1_556 S
N419 H439 0.862 . S
C420 C415 1.499 1_554 S
C420 H421 0.965 . S
C420 H422 0.971 . S
C420 H423 0.948 1_554 S
H421 C420 0.965 . S
H422 C420 0.971 . S
H423 C420 0.948 1_556 S
C424 N425 1.342 . S
C424 C428 1.401 . S
C424 C429 1.499 . S
N425 Co408 1.997 . S
N425 C424 1.342 . S
N425 N426 1.388 . S
N426 Co409 1.993 . S
N426 N425 1.388 . S
N426 C427 1.346 . S
C427 N426 1.346 . S
C427 C428 1.396 . S
C427 C437 1.510 . S
C428 C424 1.401 . S
C428 C427 1.396 . S
C429 C424 1.499 . S
C429 H430 0.959 . S
C429 H431 0.960 . S
C429 H432 0.961 . S
H430 C429 0.959 . S
H431 C429 0.960 . S
H432 C429 0.961 . S
O433 Co408 1.978 . S
O433 C441 1.258 . S
O434 Co409 1.941 . S
O434 C441 1.266 . S
H435 C437 0.959 . S
H436 C437 0.961 . S
C437 C427 1.510 . S
C437 H435 0.959 . S
C437 H436 0.961 . S
C437 H438 0.960 . S
H438 C437 0.960 . S
H439 N419 0.862 . S
O440 Co408 1.924 . S
O440 C413 1.289 1_455 S
C441 O433 1.258 . S
C441 O434 1.266 . S
Co442 O445 1.977 . S
Co442 N459 1.986 1_565 S
Co442 O467 1.963 1_565 S
Co442 O474 1.919 1_565 S
Co443 O446 1.966 1_545 S
Co443 N452 2.022 1_554 S
Co443 N460 1.993 . S
Co443 O468 1.941 . S
C444 O445 1.258 . S
C444 O446 1.263 . S
O445 Co442 1.977 . S
O445 C444 1.258 . S
O446 Co443 1.966 1_565 S
O446 C444 1.263 . S
C447 O448 1.235 . S
C447 O474 1.289 1_565 S
O448 C447 1.235 . S
C449 C451 1.400 . S
C449 N452 1.351 1_565 S
C449 C454 1.501 . S
C450 C451 1.387 1_545 S
C450 N453 1.341 . S
C451 C449 1.400 . S
C451 C450 1.387 1_565 S
N452 Co443 2.022 1_556 S
N452 C449 1.351 1_545 S
N452 N453 1.365 . S
N453 C450 1.341 . S
N453 N452 1.365 . S
N453 H473 0.862 . S
C454 C449 1.501 . S
C454 H455 0.961 1_556 S
C454 H456 0.961 1_556 S
C454 H457 0.960 . S
H455 C454 0.961 1_554 S
H456 C454 0.961 1_554 S
H457 C454 0.960 . S
C458 N459 1.342 . S
C458 C462 1.401 . S
C458 C463 1.499 . S
N459 Co442 1.986 1_545 S
N459 C458 1.342 . S
N459 N460 1.388 . S
N460 Co443 1.993 . S
N460 N459 1.388 . S
N460 C461 1.346 . S
C461 N460 1.346 . S
C461 C462 1.396 . S
C461 C471 1.510 . S
C462 C458 1.401 . S
C462 C461 1.396 . S
C463 C458 1.499 . S
C463 H464 0.959 . S
C463 H465 0.960 . S
C463 H466 0.961 . S
H464 C463 0.959 . S
H465 C463 0.960 . S
H466 C463 0.961 . S
O467 Co442 1.963 1_545 S
O467 C475 1.258 . S
O468 Co443 1.941 . S
O468 C475 1.266 . S
H469 C471 0.959 . S
H470 C471 0.961 . S
C471 C461 1.510 . S
C471 H469 0.959 . S
C471 H470 0.961 . S
C471 H472 0.960 . S
H472 C471 0.960 . S
H473 N453 0.862 . S
O474 Co442 1.919 1_545 S
O474 C447 1.289 1_545 S
C475 O467 1.258 . S
C475 O468 1.266 . S
Co476 O479 1.970 . S
Co476 N493 1.989 . S
Co476 O501 1.967 . S
Co476 O508 1.920 . S
Co477 O480 1.966 . S
Co477 N486 2.022 1_554 S
Co477 N494 1.993 . S
Co477 O502 1.941 . S
C478 O479 1.258 . S
C478 O480 1.263 . S
O479 Co476 1.970 . S
O479 C478 1.258 . S
O480 Co477 1.966 . S
O480 C478 1.263 . S
C481 O482 1.235 . S
C481 O508 1.289 . S
O482 C481 1.235 . S
C483 C485 1.400 . S
C483 N486 1.351 . S
C483 C488 1.501 . S
C484 C485 1.387 . S
C484 N487 1.341 . S
C485 C483 1.400 . S
C485 C484 1.387 . S
N486 Co477 2.022 1_556 S
N486 C483 1.351 . S
N486 N487 1.365 . S
N487 C484 1.341 . S
N487 N486 1.365 . S
N487 H507 0.862 . S
C488 C483 1.501 . S
C488 H489 0.961 1_556 S
C488 H490 0.961 1_556 S
C488 H491 0.960 . S
H489 C488 0.961 1_554 S
H490 C488 0.961 1_554 S
H491 C488 0.960 . S
C492 N493 1.342 . S
C492 C496 1.401 . S
C492 C497 1.499 . S
N493 Co476 1.989 . S
N493 C492 1.342 . S
N493 N494 1.388 . S
N494 Co477 1.993 . S
N494 N493 1.388 . S
N494 C495 1.346 . S
C495 N494 1.346 . S
C495 C496 1.396 . S
C495 C505 1.510 . S
C496 C492 1.401 . S
C496 C495 1.396 . S
C497 C492 1.499 . S
C497 H498 0.959 . S
C497 H499 0.960 . S
C497 H500 0.961 . S
H498 C497 0.959 . S
H499 C497 0.960 . S
H500 C497 0.961 . S
O501 Co476 1.967 . S
O501 C509 1.258 . S
O502 Co477 1.941 . S
O502 C509 1.266 . S
H503 C505 0.959 . S
H504 C505 0.961 . S
C505 C495 1.510 . S
C505 H503 0.959 . S
C505 H504 0.961 . S
C505 H506 0.960 . S
H506 C505 0.960 . S
H507 N487 0.862 . S
O508 Co476 1.920 . S
O508 C481 1.289 . S
C509 O501 1.258 . S
C509 O502 1.266 . S
Co510 O513 1.970 . S
Co510 N527 1.989 . S
Co510 O535 1.967 . S
Co510 O542 1.920 . S
Co511 O514 1.966 . S
Co511 N520 2.022 . S
Co511 N528 1.993 . S
Co511 O536 1.941 . S
C512 O513 1.258 . S
C512 O514 1.263 . S
O513 Co510 1.970 . S
O513 C512 1.258 . S
O514 Co511 1.966 . S
O514 C512 1.263 . S
C515 O516 1.235 . S
C515 O542 1.289 . S
O516 C515 1.235 . S
C517 C519 1.400 . S
C517 N520 1.351 1_556 S
C517 C522 1.501 1_556 S
C518 C519 1.387 . S
C518 N521 1.341 . S
C519 C517 1.400 . S
C519 C518 1.387 . S
N520 Co511 2.022 . S
N520 C517 1.351 1_554 S
N520 N521 1.365 1_554 S
N521 C518 1.341 . S
N521 N520 1.365 1_556 S
N521 H541 0.862 . S
C522 C517 1.501 1_554 S
C522 H523 0.961 . S
C522 H524 0.961 . S
C522 H525 0.960 1_554 S
H523 C522 0.961 . S
H524 C522 0.961 . S
H525 C522 0.960 1_556 S
C526 N527 1.342 . S
C526 C530 1.401 . S
C526 C531 1.499 . S
N527 Co510 1.989 . S
N527 C526 1.342 . S
N527 N528 1.388 . S
N528 Co511 1.993 . S
N528 N527 1.388 . S
N528 C529 1.346 . S
C529 N528 1.346 . S
C529 C530 1.396 . S
C529 C539 1.510 . S
C530 C526 1.401 . S
C530 C529 1.396 . S
C531 C526 1.499 . S
C531 H532 0.959 . S
C531 H533 0.960 . S
C531 H534 0.961 . S
H532 C531 0.959 . S
H533 C531 0.960 . S
H534 C531 0.961 . S
O535 Co510 1.967 . S
O535 C543 1.258 . S
O536 Co511 1.941 . S
O536 C543 1.266 . S
H537 C539 0.959 . S
H538 C539 0.961 . S
C539 C529 1.510 . S
C539 H537 0.959 . S
C539 H538 0.961 . S
C539 H540 0.960 . S
H540 C539 0.960 . S
H541 N521 0.862 . S
O542 Co510 1.920 . S
O542 C515 1.289 . S
C543 O535 1.258 . S
C543 O536 1.266 . S
H544 C550 0.930 . S
H545 C553 0.930 . S
H546 C554 0.930 1_565 S
H547 C555 0.930 1_565 S
H548 C558 0.930 . S
H549 C559 0.930 . S
C550 H544 0.930 . S
C550 C551 1.355 . S
C550 C552 1.415 . S
C551 C550 1.355 . S
C551 C553 1.419 1_455 S
C552 C550 1.415 . S
C552 C557 1.425 . S
C552 C559 1.409 . S
C553 H545 0.930 . S
C553 C551 1.419 1_655 S
C553 C554 1.362 . S
C554 H546 0.930 1_545 S
C554 C553 1.362 . S
C554 C557 1.409 1_655 S
C555 H547 0.930 1_545 S
C555 C556 1.355 . S
C555 C557 1.415 . S
C556 C555 1.355 . S
C556 C558 1.419 . S
C557 C552 1.425 . S
C557 C554 1.409 1_455 S
C557 C555 1.415 . S
C558 H548 0.930 . S
C558 C556 1.419 . S
C558 C559 1.362 . S
C559 H549 0.930 . S
C559 C552 1.409 . S
C559 C558 1.362 . S
H560 C566 0.930 . S
H561 C569 0.930 . S
H562 C570 0.930 . S
H563 C571 0.930 . S
H564 C574 0.930 . S
H565 C575 0.930 . S
C566 H560 0.930 . S
C566 C567 1.355 . S
C566 C568 1.415 . S
C567 C566 1.355 . S
C567 C569 1.419 1_545 S
C568 C566 1.415 . S
C568 C573 1.425 . S
C568 C575 1.409 . S
C569 H561 0.930 . S
C569 C567 1.419 1_565 S
C569 C570 1.362 1_565 S
C570 H562 0.930 . S
C570 C569 1.362 1_545 S
C570 C573 1.409 . S
C571 H563 0.930 . S
C571 C572 1.355 . S
C571 C573 1.415 . S
C572 C571 1.355 . S
C572 C574 1.419 . S
C573 C568 1.425 . S
C573 C570 1.409 . S
C573 C571 1.415 . S
C574 H564 0.930 . S
C574 C572 1.419 . S
C574 C575 1.362 . S
C575 H565 0.930 . S
C575 C568 1.409 . S
C575 C574 1.362 . S
H576 C582 0.930 . S
H577 C585 0.930 . S
H578 C586 0.930 . S
H579 C587 0.930 . S
H580 C590 0.930 . S
H581 C591 0.930 . S
C582 H576 0.930 . S
C582 C583 1.355 . S
C582 C584 1.415 . S
C583 C582 1.355 . S
C583 C585 1.419 . S
C584 C582 1.415 . S
C584 C589 1.425 . S
C584 C591 1.409 . S
C585 H577 0.930 . S
C585 C583 1.419 . S
C585 C586 1.362 . S
C586 H578 0.930 . S
C586 C585 1.362 . S
C586 C589 1.409 . S
C587 H579 0.930 . S
C587 C588 1.355 . S
C587 C589 1.415 . S
C588 C587 1.355 . S
C588 C590 1.419 . S
C589 C584 1.425 . S
C589 C586 1.409 . S
C589 C587 1.415 . S
C590 H580 0.930 . S
C590 C588 1.419 . S
C590 C591 1.362 . S
C591 H581 0.930 . S
C591 C584 1.409 . S
C591 C590 1.362 . S
H592 C598 0.930 . S
H593 C601 0.930 . S
H594 C602 0.933 . S
H595 C603 0.930 . S
H596 C606 0.930 . S
H597 C607 0.930 . S
C598 H592 0.930 . S
C598 C599 1.355 . S
C598 C600 1.415 . S
C599 C598 1.355 . S
C599 C601 1.419 1_455 S
C600 C598 1.415 . S
C600 C605 1.425 . S
C600 C607 1.409 . S
C601 H593 0.930 . S
C601 C599 1.419 1_655 S
C601 C602 1.364 . S
C602 H594 0.933 . S
C602 C601 1.364 . S
C602 C605 1.405 1_655 S
C603 H595 0.930 . S
C603 C604 1.355 . S
C603 C605 1.415 . S
C604 C603 1.355 . S
C604 C606 1.419 . S
C605 C600 1.425 . S
C605 C602 1.405 1_455 S
C605 C603 1.415 . S
C606 H596 0.930 . S
C606 C604 1.419 . S
C606 C607 1.362 . S
C607 H597 0.930 . S
C607 C600 1.409 . S
C607 C606 1.362 . S
H608 C614 0.930 1_455 S
H609 C617 0.930 . S
H610 C618 0.930 . S
H611 C619 0.930 . S
H612 C622 0.930 . S
H613 C623 0.930 1_455 S
C614 H608 0.930 1_655 S
C614 C615 1.355 . S
C614 C616 1.415 . S
C615 C614 1.355 . S
C615 C617 1.419 . S
C616 C614 1.415 . S
C616 C621 1.425 . S
C616 C623 1.409 1_565 S
C617 H609 0.930 . S
C617 C615 1.419 . S
C617 C618 1.362 . S
C618 H610 0.930 . S
C618 C617 1.362 . S
C618 C621 1.409 . S
C619 H611 0.930 . S
C619 C620 1.355 . S
C619 C621 1.415 . S
C620 C619 1.355 . S
C620 C622 1.419 1_565 S
C621 C616 1.425 . S
C621 C618 1.409 . S
C621 C619 1.415 . S
C622 H612 0.930 . S
C622 C620 1.419 1_545 S
C622 C623 1.362 . S
C623 H613 0.930 1_655 S
C623 C616 1.409 1_545 S
C623 C622 1.362 . S
H624 C630 0.930 1_545 S
H625 C633 0.930 . S
H626 C634 0.930 . S
H627 C635 0.930 . S
H628 C638 0.930 . S
H629 C639 0.930 . S
C630 H624 0.930 1_565 S
C630 C631 1.355 . S
C630 C632 1.415 . S
C631 C630 1.355 . S
C631 C633 1.419 . S
C632 C630 1.415 . S
C632 C637 1.425 . S
C632 C639 1.409 . S
C633 H625 0.930 . S
C633 C631 1.419 . S
C633 C634 1.362 . S
C634 H626 0.930 . S
C634 C633 1.362 . S
C634 C637 1.409 . S
C635 H627 0.930 . S
C635 C636 1.355 . S
C635 C637 1.415 . S
C636 C635 1.355 . S
C636 C638 1.419 . S
C637 C632 1.425 . S
C637 C634 1.409 . S
C637 C635 1.415 . S
C638 H628 0.930 . S
C638 C636 1.419 . S
C638 C639 1.362 . S
C639 H629 0.930 . S
C639 C632 1.409 . S
C639 C638 1.362 . S
H640 C646 0.930 . S
H641 C649 0.930 . S
H642 C650 0.930 . S
H643 C651 0.930 . S
H644 C654 0.930 . S
H645 C655 0.930 . S
C646 H640 0.930 . S
C646 C647 1.355 . S
C646 C648 1.415 . S
C647 C646 1.355 . S
C647 C649 1.419 . S
C648 C646 1.415 . S
C648 C653 1.425 . S
C648 C655 1.409 . S
C649 H641 0.930 . S
C649 C647 1.419 . S
C649 C650 1.362 . S
C650 H642 0.930 . S
C650 C649 1.362 . S
C650 C653 1.409 . S
C651 H643 0.930 . S
C651 C652 1.355 . S
C651 C653 1.415 . S
C652 C651 1.355 . S
C652 C654 1.419 . S
C653 C648 1.425 . S
C653 C650 1.409 . S
C653 C651 1.415 . S
C654 H644 0.930 . S
C654 C652 1.419 . S
C654 C655 1.362 . S
C655 H645 0.930 . S
C655 C648 1.409 . S
C655 C654 1.362 . S
H656 C662 0.930 . S
H657 C665 0.930 . S
H658 C666 0.930 . S
H659 C667 0.930 . S
H660 C670 0.930 . S
H661 C671 0.930 . S
C662 H656 0.930 . S
C662 C663 1.355 . S
C662 C664 1.415 . S
C663 C662 1.355 . S
C663 C665 1.419 . S
C664 C662 1.415 . S
C664 C669 1.425 . S
C664 C671 1.409 1_655 S
C665 H657 0.930 . S
C665 C663 1.419 . S
C665 C666 1.362 . S
C666 H658 0.930 . S
C666 C665 1.362 . S
C666 C669 1.409 . S
C667 H659 0.930 . S
C667 C668 1.355 . S
C667 C669 1.415 . S
C668 C667 1.355 . S
C668 C670 1.419 1_655 S
C669 C664 1.425 . S
C669 C666 1.409 . S
C669 C667 1.415 . S
C670 H660 0.930 . S
C670 C668 1.419 1_455 S
C670 C671 1.362 . S
C671 H661 0.930 . S
C671 C664 1.409 1_455 S
C671 C670 1.362 . S
H672 C678 0.930 . S
H673 C681 0.924 1_655 S
H674 C682 0.930 . S
H675 C683 0.930 . S
H676 C686 0.930 1_455 S
H677 C687 0.930 . S
C678 H672 0.930 . S
C678 C679 1.355 . S
C678 C680 1.415 1_565 S
C679 C678 1.355 . S
C679 C681 1.445 . S
C680 C678 1.415 1_545 S
C680 C685 1.425 1_445 S
C680 C687 1.409 . S
C681 H673 0.924 1_455 S
C681 C679 1.445 . S
C681 C682 1.343 1_455 S
C682 H674 0.930 . S
C682 C681 1.343 1_655 S
C682 C685 1.409 . S
C683 H675 0.930 . S
C683 C684 1.355 . S
C683 C685 1.415 1_545 S
C684 C683 1.355 . S
C684 C686 1.419 . S
C685 C680 1.425 1_665 S
C685 C682 1.409 . S
C685 C683 1.415 1_565 S
C686 H676 0.930 1_655 S
C686 C684 1.419 . S
C686 C687 1.362 1_655 S
C687 H677 0.930 . S
C687 C680 1.409 . S
C687 C686 1.362 1_455 S
H688 C694 0.930 . S
H689 C697 0.930 1_565 S
H690 C698 0.930 . S
H691 C699 0.930 . S
H692 C702 0.928 1_545 S
H693 C703 0.930 . S
C694 H688 0.930 . S
C694 C695 1.355 . S
C694 C696 1.415 . S
C695 C694 1.355 . S
C695 C697 1.420 . S
C696 C694 1.415 . S
C696 C701 1.425 1_545 S
C696 C703 1.409 . S
C697 H689 0.930 1_545 S
C697 C695 1.420 . S
C697 C698 1.361 1_545 S
C698 H690 0.930 . S
C698 C697 1.361 1_565 S
C698 C701 1.409 . S
C699 H691 0.930 . S
C699 C700 1.355 . S
C699 C701 1.415 . S
C700 C699 1.355 . S
C700 C702 1.427 . S
C701 C696 1.425 1_565 S
C701 C698 1.409 . S
C701 C699 1.415 . S
C702 H692 0.928 1_565 S
C702 C700 1.427 . S
C702 C703 1.356 1_565 S
C703 H693 0.930 . S
C703 C696 1.409 . S
C703 C702 1.356 1_545 S
H704 C710 0.930 . S
H705 C713 0.930 . S
H706 C714 0.930 . S
H707 C715 0.930 . S
H708 C718 0.930 . S
H709 C719 0.930 . S
C710 H704 0.930 . S
C710 C711 1.355 . S
C710 C712 1.415 . S
C711 C710 1.355 . S
C711 C713 1.419 . S
C712 C710 1.415 . S
C712 C717 1.425 . S
C712 C719 1.409 . S
C713 H705 0.930 . S
C713 C711 1.419 . S
C713 C714 1.362 . S
C714 H706 0.930 . S
C714 C713 1.362 . S
C714 C717 1.409 . S
C715 H707 0.930 . S
C715 C716 1.355 . S
C715 C717 1.415 . S
C716 C715 1.355 . S
C716 C718 1.419 . S
C717 C712 1.425 . S
C717 C714 1.409 . S
C717 C715 1.415 . S
C718 H708 0.930 . S
C718 C716 1.419 . S
C718 C719 1.362 . S
C719 H709 0.930 . S
C719 C712 1.409 . S
C719 C718 1.362 . S
H720 C726 0.930 . S
H721 C729 0.930 . S
H722 C730 0.930 . S
H723 C731 0.930 . S
H724 C734 0.930 . S
H725 C735 0.930 . S
C726 H720 0.930 . S
C726 C727 1.355 . S
C726 C728 1.415 . S
C727 C726 1.355 . S
C727 C729 1.419 . S
C728 C726 1.415 . S
C728 C733 1.425 1_655 S
C728 C735 1.409 1_655 S
C729 H721 0.930 . S
C729 C727 1.419 . S
C729 C730 1.362 . S
C730 H722 0.930 . S
C730 C729 1.362 . S
C730 C733 1.409 1_655 S
C731 H723 0.930 . S
C731 C732 1.355 . S
C731 C733 1.415 . S
C732 C731 1.355 . S
C732 C734 1.419 . S
C733 C728 1.425 1_455 S
C733 C730 1.409 1_455 S
C733 C731 1.415 . S
C734 H724 0.930 . S
C734 C732 1.419 . S
C734 C735 1.362 . S
C735 H725 0.930 . S
C735 C728 1.409 1_455 S
C735 C734 1.362 . S
H736 C742 0.930 . S
H737 C745 0.930 . S
H738 C746 0.930 . S
H739 C747 0.930 . S
H740 C750 0.930 . S
H741 C751 0.930 . S
C742 H736 0.930 . S
C742 C743 1.355 . S
C742 C744 1.415 . S
C743 C742 1.355 . S
C743 C745 1.419 1_556 S
C744 C742 1.415 . S
C744 C749 1.425 1_656 S
C744 C751 1.409 . S
C745 H737 0.930 . S
C745 C743 1.419 1_554 S
C745 C746 1.362 1_655 S
C746 H738 0.930 . S
C746 C745 1.362 1_455 S
C746 C749 1.409 . S
C747 H739 0.930 . S
C747 C748 1.355 . S
C747 C749 1.415 . S
C748 C747 1.355 . S
C748 C750 1.419 1_554 S
C749 C744 1.425 1_454 S
C749 C746 1.409 . S
C749 C747 1.415 . S
C750 H740 0.930 . S
C750 C748 1.419 1_556 S
C750 C751 1.362 1_455 S
C751 H741 0.930 . S
C751 C744 1.409 . S
C751 C750 1.362 1_655 S
H752 C758 0.909 1_544 S
H753 C761 0.930 . S
H754 C762 0.930 . S
H755 C763 0.928 1_566 S
H756 C766 0.930 . S
H757 C767 0.930 . S
C758 H752 0.909 1_566 S
C758 C759 1.386 . S
C758 C760 1.403 1_566 S
C759 C758 1.386 . S
C759 C761 1.419 . S
C760 C758 1.403 1_544 S
C760 C765 1.425 1_444 S
C760 C767 1.410 . S
C761 H753 0.930 . S
C761 C759 1.419 . S
C761 C762 1.362 1_455 S
C762 H754 0.930 . S
C762 C761 1.362 1_655 S
C762 C765 1.410 . S
C763 H755 0.928 1_544 S
C763 C764 1.357 . S
C763 C765 1.414 1_544 S
C764 C763 1.357 . S
C764 C766 1.419 . S
C765 C760 1.425 1_666 S
C765 C762 1.410 . S
C765 C763 1.414 1_566 S
C766 H756 0.930 . S
C766 C764 1.419 . S
C766 C767 1.362 1_655 S
C767 H757 0.930 . S
C767 C760 1.410 . S
C767 C766 1.362 1_455 S
H768 C774 0.930 . S
H769 C777 0.930 . S
H770 C778 0.930 . S
H771 C779 0.930 . S
H772 C782 0.930 . S
H773 C783 0.930 . S
C774 H768 0.930 . S
C774 C775 1.355 1_554 S
C774 C776 1.415 1_545 S
C775 C774 1.355 1_556 S
C775 C777 1.419 . S
C776 C774 1.415 1_565 S
C776 C781 1.425 1_564 S
C776 C783 1.409 . S
C777 H769 0.930 . S
C777 C775 1.419 . S
C777 C778 1.362 . S
C778 H770 0.930 . S
C778 C777 1.362 . S
C778 C781 1.409 . S
C779 H771 0.930 . S
C779 C780 1.355 1_556 S
C779 C781 1.415 1_565 S
C780 C779 1.355 1_554 S
C780 C782 1.419 . S
C781 C776 1.425 1_546 S
C781 C778 1.409 . S
C781 C779 1.415 1_545 S
C782 H772 0.930 . S
C782 C780 1.419 . S
C782 C783 1.362 . S
C783 H773 0.930 . S
C783 C776 1.409 . S
C783 C782 1.362 . S
H784 C790 0.930 . S
H785 C793 0.930 . S
H786 C794 0.930 . S
H787 C795 0.930 . S
H788 C798 0.930 . S
H789 C799 0.930 . S
C790 H784 0.930 . S
C790 C791 1.355 . S
C790 C792 1.415 . S
C791 C790 1.355 . S
C791 C793 1.419 1_556 S
C792 C790 1.415 . S
C792 C797 1.425 1_556 S
C792 C799 1.409 . S
C793 H785 0.930 . S
C793 C791 1.419 1_554 S
C793 C794 1.362 . S
C794 H786 0.930 . S
C794 C793 1.362 . S
C794 C797 1.409 . S
C795 H787 0.930 . S
C795 C796 1.355 . S
C795 C797 1.415 . S
C796 C795 1.355 . S
C796 C798 1.419 1_554 S
C797 C792 1.425 1_554 S
C797 C794 1.409 . S
C797 C795 1.415 . S
C798 H788 0.930 . S
C798 C796 1.419 1_556 S
C798 C799 1.362 . S
C799 H789 0.930 . S
C799 C792 1.409 . S
C799 C798 1.362 . S
H800 C806 0.930 . S
H801 C809 0.930 . S
H802 C810 0.930 . S
H803 C811 0.930 . S
H804 C814 0.930 . S
H805 C815 0.915 1_455 S
C806 H800 0.930 . S
C806 C807 1.355 . S
C806 C808 1.415 . S
C807 C806 1.355 . S
C807 C809 1.419 . S
C808 C806 1.415 . S
C808 C813 1.425 . S
C808 C815 1.409 . S
C809 H801 0.930 . S
C809 C807 1.419 . S
C809 C810 1.362 . S
C810 H802 0.930 . S
C810 C809 1.362 . S
C810 C813 1.409 . S
C811 H803 0.930 . S
C811 C812 1.355 . S
C811 C813 1.415 . S
C812 C811 1.355 . S
C812 C814 1.419 . S
C813 C808 1.425 . S
C813 C810 1.409 . S
C813 C811 1.415 . S
C814 H804 0.930 . S
C814 C812 1.419 . S
C814 C815 1.362 . S
C815 H805 0.915 1_655 S
C815 C808 1.409 . S
C815 C814 1.362 . S
H816 C822 0.930 . S
H817 C825 0.930 . S
H818 C826 0.930 . S
H819 C827 0.930 . S
H820 C830 0.930 1_545 S
H821 C831 0.930 1_545 S
C822 H816 0.930 . S
C822 C823 1.355 . S
C822 C824 1.415 . S
C823 C822 1.355 . S
C823 C825 1.419 . S
C824 C822 1.415 . S
C824 C829 1.425 . S
C824 C831 1.409 . S
C825 H817 0.930 . S
C825 C823 1.419 . S
C825 C826 1.362 . S
C826 H818 0.930 . S
C826 C825 1.362 . S
C826 C829 1.409 . S
C827 H819 0.930 . S
C827 C828 1.355 . S
C827 C829 1.415 . S
C828 C827 1.355 . S
C828 C830 1.419 . S
C829 C824 1.425 . S
C829 C826 1.409 . S
C829 C827 1.415 . S
C830 H820 0.930 1_565 S
C830 C828 1.419 . S
C830 C831 1.362 . S
C831 H821 0.930 1_565 S
C831 C824 1.409 . S
C831 C830 1.362 . S
H832 C838 0.930 . S
H833 C841 0.930 . S
H834 C842 0.930 . S
H835 C843 0.930 . S
H836 C846 0.930 . S
H837 C847 0.930 . S
C838 H832 0.930 . S
C838 C839 1.355 . S
C838 C840 1.415 . S
C839 C838 1.355 . S
C839 C841 1.419 . S
C840 C838 1.415 . S
C840 C845 1.425 . S
C840 C847 1.409 . S
C841 H833 0.930 . S
C841 C839 1.419 . S
C841 C842 1.362 . S
C842 H834 0.930 . S
C842 C841 1.362 . S
C842 C845 1.409 . S
C843 H835 0.930 . S
C843 C844 1.355 . S
C843 C845 1.415 . S
C844 C843 1.355 . S
C844 C846 1.419 . S
C845 C840 1.425 . S
C845 C842 1.409 . S
C845 C843 1.415 . S
C846 H836 0.930 . S
C846 C844 1.419 . S
C846 C847 1.362 . S
C847 H837 0.930 . S
C847 C840 1.409 . S
C847 C846 1.362 . S
H848 C854 0.930 . S
H849 C857 0.930 . S
H850 C858 0.930 . S
H851 C859 0.930 . S
H852 C862 0.930 . S
H853 C863 0.930 . S
C854 H848 0.930 . S
C854 C855 1.355 . S
C854 C856 1.415 . S
C855 C854 1.355 . S
C855 C857 1.419 . S
C856 C854 1.415 . S
C856 C861 1.425 . S
C856 C863 1.409 . S
C857 H849 0.930 . S
C857 C855 1.419 . S
C857 C858 1.362 . S
C858 H850 0.930 . S
C858 C857 1.362 . S
C858 C861 1.409 . S
C859 H851 0.930 . S
C859 C860 1.355 . S
C859 C861 1.415 . S
C860 C859 1.355 . S
C860 C862 1.419 . S
C861 C856 1.425 . S
C861 C858 1.409 . S
C861 C859 1.415 . S
C862 H852 0.930 . S
C862 C860 1.419 . S
C862 C863 1.362 . S
C863 H853 0.930 . S
C863 C856 1.409 . S
C863 C862 1.362 . S
H864 C870 0.930 . S
H865 C873 0.930 . S
H866 C874 0.930 . S
H867 C875 0.930 . S
H868 C878 0.930 . S
H869 C879 0.930 . S
C870 H864 0.930 . S
C870 C871 1.355 . S
C870 C872 1.415 . S
C871 C870 1.355 . S
C871 C873 1.419 . S
C872 C870 1.415 . S
C872 C877 1.425 . S
C872 C879 1.409 . S
C873 H865 0.930 . S
C873 C871 1.419 . S
C873 C874 1.362 . S
C874 H866 0.930 . S
C874 C873 1.362 . S
C874 C877 1.409 . S
C875 H867 0.930 . S
C875 C876 1.355 . S
C875 C877 1.415 . S
C876 C875 1.355 . S
C876 C878 1.419 . S
C877 C872 1.425 . S
C877 C874 1.409 . S
C877 C875 1.415 . S
C878 H868 0.930 . S
C878 C876 1.419 . S
C878 C879 1.362 . S
C879 H869 0.930 . S
C879 C872 1.409 . S
C879 C878 1.362 . S
H880 C886 0.930 . S
H881 C889 0.930 . S
H882 C890 0.930 . S
H883 C891 0.930 . S
H884 C894 0.930 . S
H885 C895 0.930 . S
C886 H880 0.930 . S
C886 C887 1.355 . S
C886 C888 1.415 . S
C887 C886 1.355 . S
C887 C889 1.419 . S
C888 C886 1.415 . S
C888 C893 1.425 . S
C888 C895 1.409 . S
C889 H881 0.930 . S
C889 C887 1.419 . S
C889 C890 1.362 . S
C890 H882 0.930 . S
C890 C889 1.362 . S
C890 C893 1.409 . S
C891 H883 0.930 . S
C891 C892 1.355 . S
C891 C893 1.415 . S
C892 C891 1.355 . S
C892 C894 1.419 . S
C893 C888 1.425 . S
C893 C890 1.409 . S
C893 C891 1.415 . S
C894 H884 0.930 . S
C894 C892 1.419 . S
C894 C895 1.362 . S
C895 H885 0.930 . S
C895 C888 1.409 . S
C895 C894 1.362 . S
H896 C902 0.930 . S
H897 C905 0.930 . S
H898 C906 0.930 . S
H899 C907 0.930 . S
H900 C910 0.930 . S
H901 C911 0.930 . S
C902 H896 0.930 . S
C902 C903 1.355 . S
C902 C904 1.415 . S
C903 C902 1.355 . S
C903 C905 1.419 . S
C904 C902 1.415 . S
C904 C909 1.425 . S
C904 C911 1.409 . S
C905 H897 0.930 . S
C905 C903 1.419 . S
C905 C906 1.362 . S
C906 H898 0.930 . S
C906 C905 1.362 . S
C906 C909 1.409 . S
C907 H899 0.930 . S
C907 C908 1.355 . S
C907 C909 1.415 . S
C908 C907 1.355 . S
C908 C910 1.419 . S
C909 C904 1.425 . S
C909 C906 1.409 . S
C909 C907 1.415 . S
C910 H900 0.930 . S
C910 C908 1.419 . S
C910 C911 1.362 . S
C911 H901 0.930 . S
C911 C904 1.409 . S
C911 C910 1.362 . S
H912 C918 0.930 . S
H913 C921 0.930 . S
H914 C922 0.930 . S
H915 C923 0.930 . S
H916 C926 0.930 . S
H917 C927 0.930 . S
C918 H912 0.930 . S
C918 C919 1.355 . S
C918 C920 1.415 . S
C919 C918 1.355 . S
C919 C921 1.419 . S
C920 C918 1.415 . S
C920 C925 1.425 . S
C920 C927 1.409 . S
C921 H913 0.930 . S
C921 C919 1.419 . S
C921 C922 1.362 . S
C922 H914 0.930 . S
C922 C921 1.362 . S
C922 C925 1.409 . S
C923 H915 0.930 . S
C923 C924 1.355 . S
C923 C925 1.415 . S
C924 C923 1.355 . S
C924 C926 1.419 . S
C925 C920 1.425 . S
C925 C922 1.409 . S
C925 C923 1.415 . S
C926 H916 0.930 . S
C926 C924 1.419 . S
C926 C927 1.362 . S
C927 H917 0.930 . S
C927 C920 1.409 . S
C927 C926 1.362 . S
H928 C934 0.930 . S
H929 C937 0.930 . S
H930 C938 0.930 . S
H931 C939 0.930 . S
H932 C942 0.930 . S
H933 C943 0.930 . S
C934 H928 0.930 . S
C934 C935 1.355 . S
C934 C936 1.415 . S
C935 C934 1.355 . S
C935 C937 1.419 . S
C936 C934 1.415 . S
C936 C941 1.425 . S
C936 C943 1.409 . S
C937 H929 0.930 . S
C937 C935 1.419 . S
C937 C938 1.362 . S
C938 H930 0.930 . S
C938 C937 1.362 . S
C938 C941 1.409 . S
C939 H931 0.930 . S
C939 C940 1.355 . S
C939 C941 1.415 . S
C940 C939 1.355 . S
C940 C942 1.419 . S
C941 C936 1.425 . S
C941 C938 1.409 . S
C941 C939 1.415 . S
C942 H932 0.930 . S
C942 C940 1.419 . S
C942 C943 1.362 . S
C943 H933 0.930 . S
C943 C936 1.409 . S
C943 C942 1.362 . S
H944 C950 0.930 . S
H945 C953 0.930 . S
H946 C954 0.930 . S
H947 C955 0.930 . S
H948 C958 0.930 . S
H949 C959 0.930 . S
C950 H944 0.930 . S
C950 C951 1.355 . S
C950 C952 1.415 . S
C951 C950 1.355 . S
C951 C953 1.419 . S
C952 C950 1.415 . S
C952 C957 1.425 . S
C952 C959 1.409 . S
C953 H945 0.930 . S
C953 C951 1.419 . S
C953 C954 1.362 . S
C954 H946 0.930 . S
C954 C953 1.362 . S
C954 C957 1.409 . S
C955 H947 0.930 . S
C955 C956 1.355 . S
C955 C957 1.415 . S
C956 C955 1.355 . S
C956 C958 1.419 . S
C957 C952 1.425 . S
C957 C954 1.409 . S
C957 C955 1.415 . S
C958 H948 0.930 . S
C958 C956 1.419 . S
C958 C959 1.362 . S
C959 H949 0.930 . S
C959 C952 1.409 . S
C959 C958 1.362 . S
H960 C966 0.930 . S
H961 C969 0.930 . S
H962 C970 0.930 . S
H963 C971 0.930 . S
H964 C974 0.930 . S
H965 C975 0.930 . S
C966 H960 0.930 . S
C966 C967 1.355 . S
C966 C968 1.415 . S
C967 C966 1.355 . S
C967 C969 1.419 . S
C968 C966 1.415 . S
C968 C973 1.425 . S
C968 C975 1.409 . S
C969 H961 0.930 . S
C969 C967 1.419 . S
C969 C970 1.362 . S
C970 H962 0.930 . S
C970 C969 1.362 . S
C970 C973 1.409 . S
C971 H963 0.930 . S
C971 C972 1.355 . S
C971 C973 1.415 . S
C972 C971 1.355 . S
C972 C974 1.419 . S
C973 C968 1.425 . S
C973 C970 1.409 . S
C973 C971 1.415 . S
C974 H964 0.930 . S
C974 C972 1.419 . S
C974 C975 1.362 . S
C975 H965 0.930 . S
C975 C968 1.409 . S
C975 C974 1.362 . S
H976 C982 0.930 . S
H977 C985 0.930 . S
H978 C986 0.930 . S
H979 C987 0.930 . S
H980 C990 0.930 . S
H981 C991 0.930 . S
C982 H976 0.930 . S
C982 C983 1.355 . S
C982 C984 1.415 . S
C983 C982 1.355 . S
C983 C985 1.419 . S
C984 C982 1.415 . S
C984 C989 1.425 . S
C984 C991 1.409 . S
C985 H977 0.930 . S
C985 C983 1.419 . S
C985 C986 1.362 . S
C986 H978 0.930 . S
C986 C985 1.362 . S
C986 C989 1.409 . S
C987 H979 0.930 . S
C987 C988 1.355 . S
C987 C989 1.415 . S
C988 C987 1.355 . S
C988 C990 1.419 . S
C989 C984 1.425 . S
C989 C986 1.409 . S
C989 C987 1.415 . S
C990 H980 0.930 . S
C990 C988 1.419 . S
C990 C991 1.362 . S
C991 H981 0.930 . S
C991 C984 1.409 . S
C991 C990 1.362 . S
H992 C998 0.930 . S
H993 C1001 0.930 . S
H994 C1002 0.930 . S
H995 C1003 0.930 . S
H996 C1006 0.930 . S
H997 C1007 0.930 . S
C998 H992 0.930 . S
C998 C999 1.355 1_556 S
C998 C1000 1.415 . S
C999 C998 1.355 1_554 S
C999 C1001 1.419 . S
C1000 C998 1.415 . S
C1000 C1005 1.425 . S
C1000 C1007 1.409 . S
C1001 H993 0.930 . S
C1001 C999 1.419 . S
C1001 C1002 1.362 . S
C1002 H994 0.930 . S
C1002 C1001 1.362 . S
C1002 C1005 1.409 1_554 S
C1003 H995 0.930 . S
C1003 C1004 1.355 . S
C1003 C1005 1.415 . S
C1004 C1003 1.355 . S
C1004 C1006 1.419 . S
C1005 C1000 1.425 . S
C1005 C1002 1.409 1_556 S
C1005 C1003 1.415 . S
C1006 H996 0.930 . S
C1006 C1004 1.419 . S
C1006 C1007 1.362 . S
C1007 H997 0.930 . S
C1007 C1000 1.409 . S
C1007 C1006 1.362 . S
H1008 C1014 0.930 . S
H1009 C1017 0.930 . S
H1010 C1018 0.930 . S
H1011 C1019 0.930 . S
H1012 C1022 0.930 . S
H1013 C1023 0.930 1_556 S
C1014 H1008 0.930 . S
C1014 C1015 1.355 . S
C1014 C1016 1.415 . S
C1015 C1014 1.355 . S
C1015 C1017 1.419 . S
C1016 C1014 1.415 . S
C1016 C1021 1.425 . S
C1016 C1023 1.409 1_556 S
C1017 H1009 0.930 . S
C1017 C1015 1.419 . S
C1017 C1018 1.362 . S
C1018 H1010 0.930 . S
C1018 C1017 1.362 . S
C1018 C1021 1.409 . S
C1019 H1011 0.930 . S
C1019 C1020 1.355 . S
C1019 C1021 1.415 1_554 S
C1020 C1019 1.355 . S
C1020 C1022 1.419 . S
C1021 C1016 1.425 . S
C1021 C1018 1.409 . S
C1021 C1019 1.415 1_556 S
C1022 H1012 0.930 . S
C1022 C1020 1.419 . S
C1022 C1023 1.362 . S
C1023 H1013 0.930 1_554 S
C1023 C1016 1.409 1_554 S
C1023 C1022 1.362 . S
H1024 C1030 0.930 . S
H1025 C1033 0.930 . S
H1026 C1034 0.930 . S
H1027 C1035 0.930 . S
H1028 C1038 0.930 . S
H1029 C1039 0.930 . S
C1030 H1024 0.930 . S
C1030 C1031 1.355 . S
C1030 C1032 1.415 . S
C1031 C1030 1.355 . S
C1031 C1033 1.419 1_556 S
C1032 C1030 1.415 . S
C1032 C1037 1.425 1_556 S
C1032 C1039 1.409 . S
C1033 H1025 0.930 . S
C1033 C1031 1.419 1_554 S
C1033 C1034 1.362 . S
C1034 H1026 0.930 . S
C1034 C1033 1.362 . S
C1034 C1037 1.409 . S
C1035 H1027 0.930 . S
C1035 C1036 1.355 . S
C1035 C1037 1.415 . S
C1036 C1035 1.355 . S
C1036 C1038 1.419 1_554 S
C1037 C1032 1.425 1_554 S
C1037 C1034 1.409 . S
C1037 C1035 1.415 . S
C1038 H1028 0.930 . S
C1038 C1036 1.419 1_556 S
C1038 C1039 1.362 . S
C1039 H1029 0.930 . S
C1039 C1032 1.409 . S
C1039 C1038 1.362 . S
H1040 C1046 0.930 . S
H1041 C1049 0.930 . S
H1042 C1050 0.930 . S
H1043 C1051 0.930 . S
H1044 C1054 0.930 . S
H1045 C1055 0.930 . S
C1046 H1040 0.930 . S
C1046 C1047 1.355 . S
C1046 C1048 1.415 . S
C1047 C1046 1.355 . S
C1047 C1049 1.419 1_556 S
C1048 C1046 1.415 . S
C1048 C1053 1.425 1_556 S
C1048 C1055 1.409 . S
C1049 H1041 0.930 . S
C1049 C1047 1.419 1_554 S
C1049 C1050 1.362 . S
C1050 H1042 0.930 . S
C1050 C1049 1.362 . S
C1050 C1053 1.409 . S
C1051 H1043 0.930 . S
C1051 C1052 1.355 . S
C1051 C1053 1.415 . S
C1052 C1051 1.355 . S
C1052 C1054 1.419 1_554 S
C1053 C1048 1.425 1_554 S
C1053 C1050 1.409 . S
C1053 C1051 1.415 . S
C1054 H1044 0.930 . S
C1054 C1052 1.419 1_556 S
C1054 C1055 1.362 . S
C1055 H1045 0.930 . S
C1055 C1048 1.409 . S
C1055 C1054 1.362 . S
H1056 C1062 0.930 . S
H1057 C1065 0.930 . S
H1058 C1066 0.930 . S
H1059 C1067 0.930 . S
H1060 C1070 0.930 1_545 S
H1061 C1071 0.930 . S
C1062 H1056 0.930 . S
C1062 C1063 1.355 . S
C1062 C1064 1.415 . S
C1063 C1062 1.355 . S
C1063 C1065 1.419 . S
C1064 C1062 1.415 . S
C1064 C1069 1.425 . S
C1064 C1071 1.409 . S
C1065 H1057 0.930 . S
C1065 C1063 1.419 . S
C1065 C1066 1.362 . S
C1066 H1058 0.930 . S
C1066 C1065 1.362 . S
C1066 C1069 1.409 . S
C1067 H1059 0.930 . S
C1067 C1068 1.355 . S
C1067 C1069 1.415 . S
C1068 C1067 1.355 . S
C1068 C1070 1.419 . S
C1069 C1064 1.425 . S
C1069 C1066 1.409 . S
C1069 C1067 1.415 . S
C1070 H1060 0.930 1_565 S
C1070 C1068 1.419 . S
C1070 C1071 1.362 . S
C1071 H1061 0.930 . S
C1071 C1064 1.409 . S
C1071 C1070 1.362 . S
H1072 C1078 0.930 . S
H1073 C1081 0.930 . S
H1074 C1082 0.930 . S
H1075 C1083 0.930 . S
H1076 C1086 0.930 . S
H1077 C1087 0.930 . S
C1078 H1072 0.930 . S
C1078 C1079 1.355 . S
C1078 C1080 1.415 . S
C1079 C1078 1.355 . S
C1079 C1081 1.419 . S
C1080 C1078 1.415 . S
C1080 C1085 1.425 . S
C1080 C1087 1.409 . S
C1081 H1073 0.930 . S
C1081 C1079 1.419 . S
C1081 C1082 1.362 . S
C1082 H1074 0.930 . S
C1082 C1081 1.362 . S
C1082 C1085 1.409 . S
C1083 H1075 0.930 . S
C1083 C1084 1.355 . S
C1083 C1085 1.415 . S
C1084 C1083 1.355 . S
C1084 C1086 1.419 . S
C1085 C1080 1.425 . S
C1085 C1082 1.409 . S
C1085 C1083 1.415 . S
C1086 H1076 0.930 . S
C1086 C1084 1.419 . S
C1086 C1087 1.362 . S
C1087 H1077 0.930 . S
C1087 C1080 1.409 . S
C1087 C1086 1.362 . S
H1088 C1094 0.930 . S
H1089 C1097 0.930 . S
H1090 C1098 0.930 . S
H1091 C1099 0.930 . S
H1092 C1102 0.930 . S
H1093 C1103 0.930 . S
C1094 H1088 0.930 . S
C1094 C1095 1.355 . S
C1094 C1096 1.415 . S
C1095 C1094 1.355 . S
C1095 C1097 1.419 . S
C1096 C1094 1.415 . S
C1096 C1101 1.425 . S
C1096 C1103 1.409 . S
C1097 H1089 0.930 . S
C1097 C1095 1.419 . S
C1097 C1098 1.362 . S
C1098 H1090 0.930 . S
C1098 C1097 1.362 . S
C1098 C1101 1.409 . S
C1099 H1091 0.930 . S
C1099 C1100 1.355 . S
C1099 C1101 1.415 . S
C1100 C1099 1.355 . S
C1100 C1102 1.419 . S
C1101 C1096 1.425 . S
C1101 C1098 1.409 . S
C1101 C1099 1.415 . S
C1102 H1092 0.930 . S
C1102 C1100 1.419 . S
C1102 C1103 1.362 . S
C1103 H1093 0.930 . S
C1103 C1096 1.409 . S
C1103 C1102 1.362 . S
H1104 C1110 0.930 . S
H1105 C1113 0.930 . S
H1106 C1114 0.930 . S
H1107 C1115 0.930 . S
H1108 C1118 0.930 1_455 S
H1109 C1119 0.930 . S
C1110 H1104 0.930 . S
C1110 C1111 1.355 . S
C1110 C1112 1.415 . S
C1111 C1110 1.355 . S
C1111 C1113 1.419 . S
C1112 C1110 1.415 . S
C1112 C1117 1.425 . S
C1112 C1119 1.409 . S
C1113 H1105 0.930 . S
C1113 C1111 1.419 . S
C1113 C1114 1.362 . S
C1114 H1106 0.930 . S
C1114 C1113 1.362 . S
C1114 C1117 1.409 . S
C1115 H1107 0.930 . S
C1115 C1116 1.355 . S
C1115 C1117 1.415 . S
C1116 C1115 1.355 . S
C1116 C1118 1.419 . S
C1117 C1112 1.425 . S
C1117 C1114 1.409 . S
C1117 C1115 1.415 . S
C1118 H1108 0.930 1_655 S
C1118 C1116 1.419 . S
C1118 C1119 1.362 . S
C1119 H1109 0.930 . S
C1119 C1112 1.409 . S
C1119 C1118 1.362 . S
H1120 C1126 0.930 . S
H1121 C1129 0.930 . S
H1122 C1130 0.930 . S
H1123 C1131 0.930 . S
H1124 C1134 0.930 . S
H1125 C1135 0.930 . S
C1126 H1120 0.930 . S
C1126 C1127 1.355 . S
C1126 C1128 1.415 . S
C1127 C1126 1.355 . S
C1127 C1129 1.419 . S
C1128 C1126 1.415 . S
C1128 C1133 1.425 . S
C1128 C1135 1.409 1_554 S
C1129 H1121 0.930 . S
C1129 C1127 1.419 . S
C1129 C1130 1.362 . S
C1130 H1122 0.930 . S
C1130 C1129 1.362 . S
C1130 C1133 1.409 . S
C1131 H1123 0.930 . S
C1131 C1132 1.355 1_554 S
C1131 C1133 1.415 . S
C1132 C1131 1.355 1_556 S
C1132 C1134 1.419 . S
C1133 C1128 1.425 . S
C1133 C1130 1.409 . S
C1133 C1131 1.415 . S
C1134 H1124 0.930 . S
C1134 C1132 1.419 . S
C1134 C1135 1.362 . S
C1135 H1125 0.930 . S
C1135 C1128 1.409 1_556 S
C1135 C1134 1.362 . S
H1136 C1142 0.930 . S
H1137 C1145 0.930 . S
H1138 C1146 0.930 . S
H1139 C1147 0.930 . S
H1140 C1150 0.930 . S
H1141 C1151 0.930 . S
C1142 H1136 0.930 . S
C1142 C1143 1.355 . S
C1142 C1144 1.415 . S
C1143 C1142 1.355 . S
C1143 C1145 1.419 1_556 S
C1144 C1142 1.415 . S
C1144 C1149 1.425 1_556 S
C1144 C1151 1.409 . S
C1145 H1137 0.930 . S
C1145 C1143 1.419 1_554 S
C1145 C1146 1.362 . S
C1146 H1138 0.930 . S
C1146 C1145 1.362 . S
C1146 C1149 1.409 . S
C1147 H1139 0.930 . S
C1147 C1148 1.355 . S
C1147 C1149 1.415 . S
C1148 C1147 1.355 . S
C1148 C1150 1.419 1_554 S
C1149 C1144 1.425 1_554 S
C1149 C1146 1.409 . S
C1149 C1147 1.415 . S
C1150 H1140 0.930 . S
C1150 C1148 1.419 1_556 S
C1150 C1151 1.362 . S
C1151 H1141 0.930 . S
C1151 C1144 1.409 . S
C1151 C1150 1.362 . S
H1152 C1158 0.930 . S
H1153 C1161 0.926 1_545 S
H1154 C1162 0.930 . S
H1155 C1163 0.930 1_556 S
H1156 C1166 0.930 . S
H1157 C1167 0.930 . S
C1158 H1152 0.930 . S
C1158 C1159 1.355 1_554 S
C1158 C1160 1.415 . S
C1159 C1158 1.355 1_556 S
C1159 C1161 1.419 . S
C1160 C1158 1.415 . S
C1160 C1165 1.425 1_554 S
C1160 C1167 1.409 . S
C1161 H1153 0.926 1_565 S
C1161 C1159 1.419 . S
C1161 C1162 1.362 . S
C1162 H1154 0.930 . S
C1162 C1161 1.362 . S
C1162 C1165 1.409 . S
C1163 H1155 0.930 1_554 S
C1163 C1164 1.355 . S
C1163 C1165 1.415 1_554 S
C1164 C1163 1.355 . S
C1164 C1166 1.419 . S
C1165 C1160 1.425 1_556 S
C1165 C1162 1.409 . S
C1165 C1163 1.415 1_556 S
C1166 H1156 0.930 . S
C1166 C1164 1.419 . S
C1166 C1167 1.362 . S
C1167 H1157 0.930 . S
C1167 C1160 1.409 . S
C1167 C1166 1.362 . S
H1168 C1174 0.930 . S
H1169 C1177 0.930 . S
H1170 C1178 0.930 . S
H1171 C1179 0.930 . S
H1172 C1182 0.930 . S
H1173 C1183 0.929 1_554 S
C1174 H1168 0.930 . S
C1174 C1175 1.355 . S
C1174 C1176 1.415 . S
C1175 C1174 1.355 . S
C1175 C1177 1.419 . S
C1176 C1174 1.415 . S
C1176 C1181 1.425 . S
C1176 C1183 1.406 1_554 S
C1177 H1169 0.930 . S
C1177 C1175 1.419 . S
C1177 C1178 1.362 . S
C1178 H1170 0.930 . S
C1178 C1177 1.362 . S
C1178 C1181 1.409 . S
C1179 H1171 0.930 . S
C1179 C1180 1.355 . S
C1179 C1181 1.415 1_556 S
C1180 C1179 1.355 . S
C1180 C1182 1.419 . S
C1181 C1176 1.425 . S
C1181 C1178 1.409 . S
C1181 C1179 1.415 1_554 S
C1182 H1172 0.930 . S
C1182 C1180 1.419 . S
C1182 C1183 1.367 . S
C1183 H1173 0.929 1_556 S
C1183 C1176 1.406 1_556 S
C1183 C1182 1.367 . S
C551 C5 0.901 . S
C556 C175 0.743 . S
C567 C39 0.902 . S
C572 C209 0.788 . S
C583 C243 0.925 . S
C588 C73 0.829 . S
C599 C141 0.839 . S
C604 C107 0.805 . S
C615 C277 0.742 . S
C620 C447 0.899 . S
C631 C311 0.896 . S
C636 C481 0.796 . S
C647 C345 0.817 . S
C652 C515 0.900 . S
C663 C379 0.750 . S
C668 C413 0.909 . S
C679 C305 1.701 . S
C684 C33 1.700 . S
C695 C339 1.344 . S
C700 C67 1.342 . S
C711 C101 1.547 . S
C716 C373 1.547 . S
C727 C407 1.946 . S
C732 C135 1.946 . S
C743 C169 1.376 . S
C748 C441 1.375 . S
C759 C203 1.759 . S
C764 C475 1.759 . S
C775 C237 1.854 . S
C780 C509 1.854 . S
C791 C271 1.568 . S
C796 C543 1.568 . S
C807 C20 1.718 . S
C812 C156 1.683 . S
C823 C54 1.740 . S
C828 C190 1.677 . S
C839 C224 1.816 . S
C844 C88 1.764 . S
C855 C122 1.812 . S
C860 C258 1.775 . S
C871 C428 1.712 . S
C876 C292 1.685 . S
C887 C462 1.696 . S
C892 C326 1.749 . S
C903 C360 1.779 . S
C908 C496 1.810 . S
C919 C530 1.814 . S
C924 C394 1.769 . S
C935 C43 1.794 . S
C940 C2 1.826 . S
C951 C36 1.908 . S
C956 C77 1.863 . S
C967 C70 2.100 . S
C972 C111 2.071 . S
C983 C104 1.983 . S
C988 C9 1.913 . S
C999 C247 1.876 . S
C1004 C138 1.931 . S
C1015 C172 1.808 . S
C1020 C145 1.767 . S
C1031 C206 1.996 . S
C1036 C179 1.904 . S
C1047 C240 2.109 . S
C1052 C213 2.034 . S
C1063 C274 1.837 . S
C1068 C315 1.755 . S
C1079 C308 1.932 . S
C1084 C349 1.856 . S
C1095 C383 2.076 . S
C1100 C342 2.125 . S
C1111 C376 2.007 . S
C1116 C281 1.938 . S
C1127 C410 1.907 . S
C1132 C519 1.897 . S
C1143 C417 1.754 . S
C1148 C444 1.831 . S
C1159 C451 1.957 . S
C1164 C478 1.999 . S
C1175 C512 2.128 . S
C1180 C485 2.051 . S
