# Generated by pormake.
# Topology qtz-e, (6)-cn, num edge types: 1
# Building blocks:
#     Node 0, Type 0, BuildingBlock: HISSIN_clean_sbu_0, # of connection points: 6
#     Node 1, Type 0, BuildingBlock: HISSIN_clean_sbu_0, # of connection points: 6
#     Node 2, Type 0, BuildingBlock: HISSIN_clean_sbu_0, # of connection points: 6
#     Node 3, Type 0, BuildingBlock: HISSIN_clean_sbu_0, # of connection points: 6
#     Node 4, Type 0, BuildingBlock: HISSIN_clean_sbu_0, # of connection points: 6
#     Node 5, Type 0, BuildingBlock: HISSIN_clean_sbu_0, # of connection points: 6
#     Edge 6, Type (0, 0), BuildingBlock: EZIPEK_clean_linker_0, # of connection points: 2
#     Edge 7, Type (0, 0), BuildingBlock: EZIPEK_clean_linker_0, # of connection points: 2
#     Edge 8, Type (0, 0), BuildingBlock: EZIPEK_clean_linker_0, # of connection points: 2
#     Edge 9, Type (0, 0), BuildingBlock: EZIPEK_clean_linker_0, # of connection points: 2
#     Edge 10, Type (0, 0), BuildingBlock: EZIPEK_clean_linker_0, # of connection points: 2
#     Edge 11, Type (0, 0), BuildingBlock: EZIPEK_clean_linker_0, # of connection points: 2
#     Edge 12, Type (0, 0), BuildingBlock: EZIPEK_clean_linker_0, # of connection points: 2
#     Edge 13, Type (0, 0), BuildingBlock: EZIPEK_clean_linker_0, # of connection points: 2
#     Edge 14, Type (0, 0), BuildingBlock: EZIPEK_clean_linker_0, # of connection points: 2
#     Edge 15, Type (0, 0), BuildingBlock: EZIPEK_clean_linker_0, # of connection points: 2
#     Edge 16, Type (0, 0), BuildingBlock: EZIPEK_clean_linker_0, # of connection points: 2
#     Edge 17, Type (0, 0), BuildingBlock: EZIPEK_clean_linker_0, # of connection points: 2
#     Edge 18, Type (0, 0), BuildingBlock: EZIPEK_clean_linker_0, # of connection points: 2
#     Edge 19, Type (0, 0), BuildingBlock: EZIPEK_clean_linker_0, # of connection points: 2
#     Edge 20, Type (0, 0), BuildingBlock: EZIPEK_clean_linker_0, # of connection points: 2
#     Edge 21, Type (0, 0), BuildingBlock: EZIPEK_clean_linker_0, # of connection points: 2
#     Edge 22, Type (0, 0), BuildingBlock: EZIPEK_clean_linker_0, # of connection points: 2
#     Edge 23, Type (0, 0), BuildingBlock: EZIPEK_clean_linker_0, # of connection points: 2
# Relax obj value: 0.116
# Max RMSD: 0.203
# Mean RMSD: 0.203
data_MOF--net-qtz-e--node1-HISSIN_clean_sbu_0--edge1-EZIPEK_clean_linker_0
_symmetry_space_group_name_H-M    P1
_symmetry_Int_Tables_number       1
_symmetry_cell_setting            triclinic
loop_
_symmetry_equiv_pos_as_xyz
'x, y, z'
_cell_length_a     19.375703
_cell_length_b     18.999345
_cell_length_c     42.048218
_cell_angle_alpha  90.114721
_cell_angle_beta   89.927989
_cell_angle_gamma 119.38374
loop_
_atom_site_label
_atom_site_type_symbol
_atom_site_fract_x
_atom_site_fract_y
_atom_site_fract_z
_atom_type_partial_charge
Eu0 Eu 0.24691 0.46729 0.09042 0.0
Eu1 Eu 0.18255 0.29305 0.05123 0.0
C2 C 0.07985 0.38256 0.05703 0.0
C3 C 0.29785 0.6215 0.15853 0.0
C4 C 0.22527 0.60449 0.17244 0.0
C5 C 0.36621 0.69151 0.20685 0.0
C6 C 0.22347 0.63165 0.20322 0.0
C7 C 0.36807 0.66459 0.17609 0.0
C8 C 0.29402 0.67581 0.22045 0.0
C9 C 0.3028 0.59686 0.1257 0.0
O10 O 0.23563 0.38874 1.01324 0.0
O11 O 0.26128 0.50712 0.03916 0.0
C12 C 0.25686 0.46626 1.01312 0.0
O13 O 0.34638 0.46513 0.06614 0.0
O14 O 0.09355 0.18039 0.02892 0.0
O15 O 0.21606 0.2088 0.0304 0.0
O16 O 0.30202 0.33229 0.07477 0.0
C17 C 0.36057 0.40624 0.0712 0.0
O18 O 0.21825 0.36814 0.12621 0.0
O19 O 0.12119 0.26068 0.09903 0.0
O20 O 0.10083 0.34162 0.0379 0.0
O21 O 0.33763 0.55341 0.12226 0.0
O22 O 0.24092 0.57295 0.10724 0.0
O23 O 0.11708 0.4127 0.08388 0.0
C24 C 0.14399 0.13941 0.98487 0.0
C25 C 0.17652 0.09069 0.97562 0.0
C26 C 0.12698 0.16075 0.92896 0.0
C27 C 0.18656 0.07917 0.94337 0.0
C28 C 0.11767 0.17295 0.96123 0.0
C29 C 0.16363 0.11571 0.91977 0.0
C30 C 0.14585 0.16098 1.01887 0.0
C31 C 0.15325 0.29761 0.12594 0.0
H32 H 0.17021 0.57127 0.15947 0.0
H33 H 0.42114 0.72608 0.21977 0.0
H34 H 0.16732 0.61958 0.2134 0.0
H35 H 0.42465 0.67843 0.16581 0.0
H36 H 0.19762 0.06458 0.99341 0.0
H37 H 0.10984 0.19038 0.91115 0.0
H38 H 0.21588 0.04518 0.93686 0.0
H39 H 0.0931 0.21141 0.96764 0.0
Eu40 Eu 0.73015 0.23169 0.42036 0.0
Eu41 Eu 0.80542 0.1434 0.37419 0.0
C42 C 0.62441 0.06261 0.39452 0.0
C43 C 0.62874 0.28534 0.48742 0.0
C44 C 0.6175 0.22163 0.50748 0.0
C45 C 0.57498 0.33557 0.528 0.0
C46 C 0.58516 0.21512 0.5378 0.0
C47 C 0.60724 0.34205 0.49776 0.0
C48 C 0.56403 0.27229 0.54817 0.0
C49 C 0.66529 0.29559 0.4561 0.0
O50 O 0.79711 0.2352 0.34303 0.0
O51 O 0.69755 0.24373 0.36963 0.0
C52 C 0.73996 0.25357 0.34381 0.0
O53 O 0.84197 0.33081 0.40145 0.0
O54 O 0.78971 0.05898 0.33583 0.0
O55 O 0.90414 0.12686 0.35824 0.0
O56 O 0.90798 0.25995 0.39286 0.0
C57 C 0.90721 0.32798 0.39749 0.0
O58 O 0.78988 0.18505 0.45409 0.0
O59 O 0.79343 0.08658 0.4228 0.0
O60 O 0.6708 0.08054 0.36958 0.0
O61 O 0.74106 0.31957 0.45603 0.0
O62 O 0.62601 0.23918 0.43505 0.0
O63 O 0.65809 0.09842 0.42085 0.0
C64 C 0.90376 0.10466 0.30292 0.0
C65 C 0.97334 0.10099 0.29705 0.0
C66 C 0.91491 0.16213 0.25016 0.0
C67 C 0.01407 0.1288 0.2682 0.0
C68 C 0.87472 0.13522 0.27912 0.0
C69 C -0.01455 0.16008 0.24458 0.0
C70 C 0.86479 0.08064 0.33442 0.0
C71 C 0.79674 0.11956 0.45086 0.0
H72 H 0.63413 0.17754 0.49975 0.0
H73 H 0.55867 0.37989 0.53572 0.0
H74 H 0.57663 0.16576 0.55315 0.0
H75 H 0.61591 0.39165 0.48251 0.0
H76 H -0.00295 0.07805 0.31508 0.0
H77 H 0.89203 0.18641 0.23234 0.0
H78 H 0.06854 0.12705 0.26445 0.0
H79 H 0.82171 0.13964 0.28307 0.0
Eu80 Eu 0.49675 0.7321 0.75054 0.0
Eu81 Eu 0.65944 0.81025 0.70525 0.0
C82 C 0.56374 0.62767 0.72642 0.0
C83 C 0.36007 0.64081 0.82175 0.0
C84 C 0.41723 0.68427 0.8451 0.0
C85 C 0.273 0.55061 0.86243 0.0
C86 C 0.40248 0.66075 0.87689 0.0
C87 C 0.28797 0.57387 0.83057 0.0
C88 C 0.33022 0.59403 0.88566 0.0
C89 C 0.37451 0.66556 0.78831 0.0
O90 O 0.56048 0.79406 0.67311 0.0
O91 O 0.45295 0.69445 0.69999 0.0
C92 C 0.48604 0.73707 0.67417 0.0
O93 O 0.50072 0.83888 0.72855 0.0
O94 O 0.72537 0.79433 0.66615 0.0
O95 O 0.7741 0.90947 0.69018 0.0
O96 O 0.63363 0.91239 0.71619 0.0
C97 C 0.56354 0.90607 0.72077 0.0
O98 O 0.59966 0.81099 0.78273 0.0
O99 O 0.69976 0.80409 0.7558 0.0
O100 O 0.59203 0.67281 0.70106 0.0
O101 O 0.41593 0.7432 0.78325 0.0
O102 O 0.3951 0.62396 0.76966 0.0
O103 O 0.5643 0.66588 0.75203 0.0
C104 C 0.78993 0.91104 0.63406 0.0
C105 C 0.75412 0.95838 0.62748 0.0
C106 C 0.8396 0.93245 0.57958 0.0
C107 C 0.76108 -0.00757 0.5973 0.0
C108 C 0.83286 0.89858 0.60985 0.0
C109 C 0.80346 0.97941 0.57304 0.0
C110 C 0.77855 0.87064 0.66531 0.0
C111 C 0.66932 0.81455 0.78243 0.0
H112 H 0.47313 0.73643 0.83878 0.0
H113 H 0.21727 0.49846 0.86897 0.0
H114 H 0.44731 0.69431 0.89463 0.0
H115 H 0.24336 0.53973 0.81282 0.0
H116 H 0.71964 0.968 0.64553 0.0
H117 H 0.87198 0.92112 0.56111 0.0
H118 H 0.73211 0.02775 0.59266 0.0
H119 H 0.85995 0.86141 0.61424 0.0
Eu120 Eu 0.74516 0.50991 0.0823 0.0
Eu121 Eu 0.84662 0.67472 0.03646 0.0
C122 C 0.89923 0.54115 0.04672 0.0
C123 C 0.67 0.37104 0.15439 0.0
C124 C 0.68822 0.43288 0.17672 0.0
C125 C 0.66649 0.28302 0.19688 0.0
C126 C 0.6957 0.41971 0.20902 0.0
C127 C 0.65835 0.29592 0.16476 0.0
C128 C 0.68632 0.34507 0.21919 0.0
C129 C 0.67194 0.386 0.12001 0.0
O130 O 0.78627 0.56705 1.0044 0.0
O131 O 0.67888 0.48399 0.0352 0.0
C132 C 0.71273 0.50914 1.00711 0.0
O133 O 0.71966 0.60845 0.09363 0.0
O134 O 0.9263 0.73754 0.99677 0.0
O135 O 0.86316 0.79116 1.0196 0.0
O136 O 0.71807 0.64268 0.04373 0.0
C137 C 0.68193 0.62222 0.0713 0.0
O138 O 0.8432 0.60206 0.11354 0.0
O139 O 0.88651 0.72263 0.08616 0.0
O140 O 0.92592 0.61989 0.04718 0.0
O141 O 0.64002 0.4286 0.10981 0.0
O142 O 0.73972 0.40634 0.1064 0.0
O143 O 0.82424 0.48953 0.0501 0.0
C144 C 0.87995 0.80772 0.96324 0.0
C145 C 0.85178 0.86309 0.96012 0.0
C146 C 0.85318 0.77615 0.90665 0.0
C147 C 0.823 0.87342 0.93083 0.0
C148 C 0.88178 0.76563 0.93589 0.0
C149 C 0.82179 0.82861 0.904 0.0
C150 C 0.90536 0.79314 0.995 0.0
C151 C 0.88297 0.68167 0.11198 0.0
H152 H 0.69862 0.49174 0.1691 0.0
H153 H 0.65888 0.22504 0.2043 0.0
H154 H 0.71081 0.46818 0.22594 0.0
H155 H 0.64527 0.24791 0.14782 0.0
H156 H 0.85042 0.89722 0.98054 0.0
H157 H 0.85329 0.74132 0.88624 0.0
H158 H 0.79939 0.91449 0.92932 0.0
H159 H 0.90354 0.72299 0.93716 0.0
Eu160 Eu 0.27085 0.826 0.41741 0.0
Eu161 Eu 0.13166 0.83823 0.37566 0.0
C162 C 0.30197 0.97953 0.38496 0.0
C163 C 0.38814 0.81331 0.48659 0.0
C164 C 0.4595 0.85189 0.50352 0.0
C165 C 0.32252 0.73172 0.53307 0.0
C166 C 0.46254 0.83018 0.53499 0.0
C167 C 0.31938 0.75368 0.50161 0.0
C168 C 0.39427 0.76969 0.54982 0.0
C169 C 0.3852 0.83735 0.45371 0.0
O170 O 0.18095 0.78153 0.34289 0.0
O171 O 0.30419 0.82651 0.36535 0.0
C172 C 0.25376 0.79427 0.3415 0.0
O173 O 0.18518 0.69677 0.4091 0.0
O174 O 0.09933 0.91381 0.34724 0.0
O175 O 0.01277 0.78874 0.35567 0.0
O176 O 0.07788 0.70576 0.38941 0.0
C177 C 0.11193 0.664 0.39919 0.0
O178 O 0.17474 0.80515 0.45239 0.0
O179 O 0.12354 0.87577 0.42638 0.0
O180 O 0.25377 0.94001 0.36182 0.0
O181 O 0.34723 0.77878 0.43347 0.0
O182 O 0.36763 0.89482 0.45044 0.0
O183 O 0.27838 0.94602 0.4125 0.0
C184 C 0.01421 0.8397 0.30428 0.0
C185 C 0.94074 0.7766 0.29404 0.0
C186 C 0.05667 0.86797 0.24891 0.0
C187 C 0.9258 0.75857 0.26167 0.0
C188 C 0.07184 0.88585 0.28133 0.0
C189 C -0.01609 0.80353 0.23893 0.0
C190 C 0.03119 0.85312 0.33881 0.0
C191 C 0.13798 0.84782 0.4528 0.0
H192 H 0.51271 0.89877 0.49242 0.0
H193 H 0.26938 0.68504 0.54428 0.0
H194 H 0.51811 0.86029 0.54782 0.0
H195 H 0.26345 0.72408 0.48899 0.0
H196 H 0.89531 0.7402 0.31115 0.0
H197 H 0.10193 0.90368 0.23164 0.0
H198 H 0.86909 0.70897 0.25434 0.0
H199 H 0.12911 0.93491 0.28837 0.0
Eu200 Eu 0.42746 0.25446 0.7486 0.0
Eu201 Eu 0.26206 0.12287 0.7119 0.0
C202 C 0.31307 0.30406 0.72256 0.0
C203 C 0.56173 0.37712 0.8161 0.0
C204 C 0.51198 0.39623 0.83405 0.0
C205 C 0.63419 0.38376 0.86409 0.0
C206 C 0.52344 0.40938 0.86677 0.0
C207 C 0.6227 0.37068 0.83141 0.0
C208 C 0.58491 0.40357 0.88187 0.0
C209 C 0.54791 0.35772 0.78201 0.0
O210 O 0.35838 0.16208 0.67546 0.0
O211 O 0.45139 0.28513 0.69613 0.0
C212 C 0.42228 0.23288 0.67242 0.0
O213 O 0.457 0.16522 0.72863 0.0
O214 O 0.162 0.10125 0.68145 0.0
O215 O 0.17326 0.00022 0.69845 0.0
O216 O 0.33117 0.05703 0.72245 0.0
C217 C 0.40887 0.08871 0.72384 0.0
O218 O 0.35031 0.16638 0.78615 0.0
O219 O 0.22833 0.12686 0.76385 0.0
O220 O 0.29265 0.25175 0.69945 0.0
O221 O 0.53559 0.28587 0.77453 0.0
O222 O 0.50055 0.37694 0.76686 0.0
O223 O 0.32726 0.28021 0.74935 0.0
C224 C 0.1296 -0.00604 0.64563 0.0
C225 C 0.1967 0.00376 0.629 0.0
C226 C 0.04915 0.93052 0.5987 0.0
C227 C 0.19012 0.97716 0.59755 0.0
C228 C 0.05575 0.95717 0.63028 0.0
C229 C 0.11635 0.94029 0.58215 0.0
C230 C 0.13753 0.02424 0.67855 0.0
C231 C 0.2736 0.13808 0.789 0.0
H232 H 0.46458 0.40128 0.82284 0.0
H233 H 0.68274 0.38045 0.87539 0.0
H234 H 0.48616 0.42646 0.88014 0.0
H235 H 0.66143 0.35543 0.81804 0.0
H236 H 0.25434 0.03243 0.64028 0.0
H237 H -0.00801 0.9029 0.58705 0.0
H238 H 0.24274 0.98589 0.58509 0.0
H239 H 0.00344 0.94963 0.64262 0.0
C240 C 0.27122 0.80825 0.28231 0.0
C241 C 0.27769 0.77252 0.31111 0.0
C242 C 0.29599 0.6728 0.28031 0.0
C243 C 0.29281 0.71101 0.25183 0.0
N244 N 0.29519 0.82476 0.22557 0.0
N245 N 0.30572 0.67705 0.33793 0.0
C246 C 0.28605 0.78182 0.25283 0.0
C247 C 0.29401 0.70729 0.31023 0.0
N248 N 0.24785 0.86546 0.28289 0.0
N249 N 0.297 0.6014 0.27868 0.0
H250 H 0.30003 0.69707 0.36035 0.0
H251 H 0.32615 0.63564 0.33882 0.0
H252 H 0.29951 0.57516 0.2572 0.0
H253 H 0.28995 0.56516 0.2983 0.0
H254 H 0.23136 0.88504 0.26263 0.0
H255 H 0.23963 0.88989 0.30374 0.0
H256 H 0.30008 0.88184 0.2253 0.0
H257 H 0.30509 0.80678 0.20336 0.0
C258 C 0.41428 0.23641 0.61314 0.0
C259 C 0.4616 0.25174 0.64089 0.0
C260 C 0.57836 0.2902 0.60735 0.0
C261 C 0.52903 0.26545 0.58009 0.0
N262 N 0.39819 0.20227 0.55714 0.0
N263 N 0.58628 0.27824 0.66426 0.0
C264 C 0.44641 0.23502 0.58299 0.0
C265 C 0.54325 0.27526 0.63805 0.0
N266 N 0.33921 0.2254 0.61543 0.0
N267 N 0.65886 0.32887 0.60393 0.0
H268 H 0.56311 0.26575 0.68718 0.0
H269 H 0.64318 0.28572 0.66293 0.0
H270 H 0.68672 0.3397 0.58182 0.0
H271 H 0.69792 0.35622 0.62279 0.0
H272 H 0.3052 0.22226 0.59575 0.0
H273 H 0.31345 0.22728 0.63693 0.0
H274 H 0.3366 0.17036 0.55866 0.0
H275 H 0.41956 0.20057 0.53453 0.0
C276 C 0.2547 0.56106 0.97092 0.0
C277 C 0.2834 0.50952 0.9822 0.0
C278 C 0.34287 0.51467 0.93014 0.0
C279 C 0.31595 0.56722 0.91914 0.0
N280 N 0.26101 0.65424 0.93 0.0
N281 N 0.37676 0.46124 0.97575 0.0
C282 C 0.27664 0.59497 0.9399 0.0
C283 C 0.33389 0.49329 0.96267 0.0
N284 N 0.20381 0.57484 0.98897 0.0
N285 N 0.37599 0.48407 0.90942 0.0
H286 H 0.37647 0.45138 1.00008 0.0
H287 H 0.41946 0.45401 0.96336 0.0
H288 H 0.38592 0.50006 0.88545 0.0
H289 H 0.38798 0.43804 0.91548 0.0
H290 H 0.17382 0.60381 0.98047 0.0
H291 H 0.18593 0.55198 1.01176 0.0
H292 H 0.24077 0.68381 0.94504 0.0
H293 H 0.27428 0.67861 0.90714 0.0
C294 C 0.78573 0.35172 0.2984 0.0
C295 C 0.72287 0.28521 0.31422 0.0
C296 C 0.63272 0.27439 0.27113 0.0
C297 C 0.6983 0.33098 0.25305 0.0
N298 N 0.83978 0.41748 0.24807 0.0
N299 N 0.58727 0.17654 0.31365 0.0
C300 C 0.77558 0.3686 0.26636 0.0
C301 C 0.64618 0.24526 0.30027 0.0
N302 N 0.85434 0.4003 0.31436 0.0
N303 N 0.55744 0.24902 0.26055 0.0
H304 H 0.59459 0.1522 0.33464 0.0
H305 H 0.53338 0.1398 0.30245 0.0
H306 H 0.54559 0.26962 0.23937 0.0
H307 H 0.50714 0.21401 0.27419 0.0
H308 H 0.89967 0.4539 0.30502 0.0
H309 H 0.86195 0.39165 0.3383 0.0
H310 H 0.89798 0.43903 0.25555 0.0
H311 H 0.83522 0.43117 0.22443 0.0
C312 C 0.39581 0.76329 0.64027 0.0
C313 C 0.43982 0.72264 0.64463 0.0
C314 C 0.4303 0.69184 0.58769 0.0
C315 C 0.39958 0.745 0.58272 0.0
N316 N 0.3523 0.83199 0.60351 0.0
N317 N 0.49672 0.6447 0.62365 0.0
C318 C 0.38074 0.7799 0.60886 0.0
C319 C 0.45525 0.68469 0.61868 0.0
N320 N 0.36936 0.7865 0.66622 0.0
N321 N 0.43554 0.64849 0.56271 0.0
H322 H 0.51137 0.63463 0.64639 0.0
H323 H 0.51895 0.62415 0.60551 0.0
H324 H 0.41822 0.65309 0.53967 0.0
H325 H 0.45082 0.60336 0.56511 0.0
H326 H 0.3322 0.8115 0.66491 0.0
H327 H 0.37893 0.77379 0.68938 0.0
H328 H 0.34613 0.86688 0.62121 0.0
H329 H 0.3388 0.84389 0.58083 0.0
C330 C 0.62437 0.39548 0.96977 0.0
C331 C 0.66723 0.47927 0.97706 0.0
C332 C 0.64973 0.51235 0.92233 0.0
C333 C 0.60526 0.42898 0.91537 0.0
N334 N 0.53424 0.2913 0.93341 0.0
N335 N 0.70242 0.61621 0.9624 0.0
C336 C 0.58712 0.37051 0.93951 0.0
C337 C 0.67403 0.53722 0.95399 0.0
N338 N 0.6235 0.34016 0.99072 0.0
N339 N 0.67226 0.56803 0.89838 0.0
H340 H 0.72155 0.63848 0.98515 0.0
H341 H 0.69967 0.65852 0.94761 0.0
H342 H 0.65477 0.55323 0.87476 0.0
H343 H 0.71356 0.62871 0.90141 0.0
H344 H 0.60054 0.27927 0.98521 0.0
H345 H 0.65151 0.35579 1.01277 0.0
H346 H 0.51246 0.24675 0.95086 0.0
H347 H 0.50665 0.2716 0.91135 0.0
C348 C 0.48778 0.45105 0.04765 0.0
C349 C 0.44418 0.43072 0.07596 0.0
C350 C 0.55538 0.54537 0.10248 0.0
C351 C 0.59376 0.57129 0.0724 0.0
N352 N 0.57234 0.56598 1.01568 0.0
N353 N 0.43559 0.45297 0.13145 0.0
C354 C 0.55324 0.52918 0.04461 0.0
C355 C 0.47885 0.47543 0.10401 0.0
N356 N 0.46286 0.3976 1.02303 0.0
N357 N 0.59122 0.58928 0.12916 0.0
H358 H 0.38097 0.3999 0.13266 0.0
H359 H 0.45227 0.48638 0.15242 0.0
H360 H 0.64137 0.64641 0.12798 0.0
H361 H 0.5716 0.56981 0.1522 0.0
H362 H 0.49519 0.40862 1.00201 0.0
H363 H 0.41294 0.34044 1.02517 0.0
H364 H 0.54166 0.53763 0.99498 0.0
H365 H 0.61001 0.62807 1.01353 0.0
C366 C 0.0537 0.53164 0.37031 0.0
C367 C 0.06666 0.57506 0.39932 0.0
C368 C -0.00362 0.44843 0.42881 0.0
C369 C 0.98036 0.40581 0.39966 0.0
N370 N 0.01152 0.40195 0.34471 0.0
N371 N 0.06733 0.5759 0.45682 0.0
C372 C 0.01567 0.44605 0.37107 0.0
C373 C 0.04395 0.53371 0.42885 0.0
N374 N 0.07557 0.57198 0.34202 0.0
N375 N 0.96222 0.40703 0.45616 0.0
H376 H 0.09873 0.63876 0.45791 0.0
H377 H 0.06 0.54882 0.47898 0.0
H378 H 0.93078 0.34405 0.45691 0.0
H379 H 0.96222 0.43443 0.47761 0.0
H380 H 0.06038 0.54379 0.3199 0.0
H381 H 0.10482 0.63455 0.34053 0.0
H382 H 0.04134 0.42717 0.32356 0.0
H383 H -0.01655 0.33899 0.34501 0.0
C384 C 0.4661 0.01901 0.69188 0.0
C385 C 0.44714 0.0387 0.72207 0.0
C386 C 0.53987 0.00489 0.74801 0.0
C387 C 0.55068 0.97548 0.71871 0.0
N388 N 0.53193 0.95842 0.66234 0.0
N389 N 0.45969 0.04503 0.77918 0.0
C390 C 0.51705 0.98505 0.69036 0.0
C391 C 0.48278 0.03063 0.75025 0.0
N392 N 0.43598 0.03361 0.66489 0.0
N393 N 0.58385 0.00646 0.77366 0.0
H394 H 0.41617 0.06191 0.78161 0.0
H395 H 0.47835 0.03387 0.80085 0.0
H396 H 0.62628 0.98784 0.77195 0.0
H397 H 0.58376 0.03248 0.79545 0.0
H398 H 0.45366 0.02899 0.64197 0.0
H399 H 0.39368 0.0523 0.66547 0.0
H400 H 0.50348 0.95507 0.64098 0.0
H401 H 0.57325 0.93837 0.66081 0.0
C402 C 0.4831 0.49751 0.69454 0.0
C403 C 0.5017 0.5401 0.72398 0.0
C404 C 0.37339 0.43974 0.74531 0.0
C405 C 0.35758 0.3932 0.71742 0.0
N406 N 0.38099 0.39342 0.66139 0.0
N407 N 0.47781 0.52594 0.78075 0.0
C408 C 0.40763 0.42667 0.69064 0.0
C409 C 0.45036 0.50435 0.7504 0.0
N410 N 0.53996 0.51993 0.67162 0.0
N411 N 0.31562 0.4183 0.76777 0.0
H412 H 0.53825 0.55916 0.78576 0.0
H413 H 0.44266 0.50112 0.80084 0.0
H414 H 0.25855 0.36999 0.76416 0.0
H415 H 0.32228 0.45307 0.78795 0.0
H416 H 0.5323 0.4875 0.6507 0.0
H417 H 0.5983 0.56507 0.67538 0.0
H418 H 0.41216 0.41763 0.64039 0.0
H419 H 0.32262 0.348 0.65793 0.0
C420 C 0.97356 0.40579 0.07567 0.0
C421 C 0.01566 0.40077 0.04925 0.0
C422 C 0.97935 0.4885 1.01902 0.0
C423 C 0.9516 0.50539 0.04773 0.0
N424 N 0.93233 0.48809 0.10447 0.0
N425 N 0.04504 0.42252 0.99313 0.0
C426 C 0.95141 0.46601 0.07634 0.0
C427 C 0.01407 0.43717 1.01989 0.0
N428 N 0.95563 0.3527 0.10027 0.0
N429 N 0.97084 0.52033 0.99112 0.0
H430 H 0.06261 0.37893 0.99208 0.0
H431 H 0.05244 0.45226 0.97162 0.0
H432 H 0.94875 0.56055 0.9903 0.0
H433 H -0.01676 0.50585 0.96877 0.0
H434 H 0.91936 0.34895 0.11926 0.0
H435 H 0.97037 0.30667 0.09967 0.0
H436 H 0.93817 0.46655 0.1265 0.0
H437 H 0.91912 0.53472 0.10592 0.0
C438 C 0.42648 0.00749 0.35548 0.0
C439 C 0.38962 0.02583 0.38074 0.0
C440 C 0.49859 0.05168 0.41595 0.0
C441 C 0.53751 0.03388 0.39105 0.0
N442 N 0.52537 0.97064 0.34 0.0
N443 N 0.40764 0.09983 0.4291 0.0
C444 C 0.49799 0.00529 0.3614 0.0
C445 C 0.43289 0.06132 0.40865 0.0
N446 N 0.39572 -0.00258 0.32564 0.0
N447 N 0.51796 0.04995 0.44708 0.0
H448 H 0.35855 0.10667 0.42386 0.0
H449 H 0.4401 0.13149 0.44904 0.0
H450 H 0.55342 0.02557 0.45414 0.0
H451 H 0.4882 0.0589 0.46597 0.0
H452 H 0.4217 0.98823 0.30553 0.0
H453 H 0.34997 0.00972 0.32068 0.0
H454 H 0.49593 0.9432 0.31901 0.0
H455 H 0.57203 0.95999 0.34526 0.0
C456 C 0.27115 0.20029 0.84162 0.0
C457 C 0.24105 0.13043 0.82193 0.0
C458 C 0.15451 0.04946 0.86605 0.0
C459 C 0.19 0.11869 0.88612 0.0
N460 N 0.29628 0.25455 0.89491 0.0
N461 N 0.16023 0.98632 0.8163 0.0
C462 C 0.25217 0.19246 0.87441 0.0
C463 C 0.18403 0.05423 0.83437 0.0
N464 N 0.31559 0.27538 0.82889 0.0
N465 N 0.09212 0.97971 0.87719 0.0
H466 H 0.1802 0.98808 0.79311 0.0
H467 H 0.12507 0.92792 0.82481 0.0
H468 H 0.06996 0.97439 0.90021 0.0
H469 H 0.05897 0.92882 0.8632 0.0
H470 H 0.32802 0.32813 0.84109 0.0
H471 H 0.33403 0.28513 0.8054 0.0
H472 H 0.34837 0.30585 0.88813 0.0
H473 H 0.28602 0.2516 0.91935 0.0
C474 C 0.0399 0.14476 0.19174 0.0
C475 C 0.03132 0.19502 0.21466 0.0
C476 C 0.09644 0.31014 0.17831 0.0
C477 C 0.11242 0.26213 0.15669 0.0
N478 N 0.11314 0.13753 0.14621 0.0
N479 N 0.06893 0.32977 0.23274 0.0
C480 C 0.08796 0.18036 0.16434 0.0
C481 C 0.06498 0.27902 0.20884 0.0
N482 N 8e-05 0.06282 0.19555 0.0
N483 N 0.10687 0.3838 0.16922 0.0
H484 H 0.04798 0.30974 0.25567 0.0
H485 H 0.1003 0.39249 0.2307 0.0
H486 H 0.1261 0.40805 0.14666 0.0
H487 H 0.08807 0.41698 0.18293 0.0
H488 H -0.00257 0.02274 0.17802 0.0
H489 H 0.96381 0.03451 0.21509 0.0
H490 H 0.1037 0.08044 0.15246 0.0
H491 H 0.1504 0.16217 0.12662 0.0
C492 C 0.74177 0.9675 0.51915 0.0
C493 C 0.80597 0.0116 0.54032 0.0
C494 C 0.8686 0.12186 0.50125 0.0
C495 C 0.80312 0.07915 0.48041 0.0
N496 N 0.68114 0.9579 0.46754 0.0
N497 N 0.93535 0.12415 0.55067 0.0
C498 C 0.74113 0.00055 0.48869 0.0
C499 C 0.87092 0.08694 0.53105 0.0
N500 N 0.68044 0.89464 0.5287 0.0
N501 N 0.92847 0.19618 0.4924 0.0
H502 H 0.93806 0.10107 0.57283 0.0
H503 H -0.01197 0.17552 0.54471 0.0
H504 H 0.93248 0.21974 0.46966 0.0
H505 H 0.97364 0.23561 0.50738 0.0
H506 H 0.62841 0.86087 0.51601 0.0
H507 H 0.68022 0.86757 0.55028 0.0
H508 H 0.6383 0.89769 0.47022 0.0
H509 H 0.67501 0.98134 0.44608 0.0
C510 C 0.66649 0.76609 0.8387 0.0
C511 C 0.70933 0.82107 0.81374 0.0
C512 C 0.82748 0.88321 0.84831 0.0
C513 C 0.78255 0.83153 0.87366 0.0
N514 N 0.65423 0.73898 0.8952 0.0
N515 N 0.82705 0.94119 0.79682 0.0
C516 C 0.70053 0.77779 0.8695 0.0
C517 C 0.78911 0.88213 0.81907 0.0
N518 N 0.59476 0.69959 0.83276 0.0
N519 N 0.90692 0.93323 0.85224 0.0
H520 H 0.80043 0.94323 0.77556 0.0
H521 H 0.88225 0.99185 0.80047 0.0
H522 H 0.93515 0.93941 0.87399 0.0
H523 H 0.94526 0.96539 0.83376 0.0
H524 H 0.56612 0.65241 0.84892 0.0
H525 H 0.56679 0.68739 0.81079 0.0
H526 H 0.59263 0.7055 0.89415 0.0
H527 H 0.6765 0.74713 0.91824 0.0
C528 C 0.91454 0.80204 0.18843 0.0
C529 C 0.96737 0.78291 0.20461 0.0
C530 C 0.98106 0.71795 0.1563 0.0
C531 C 0.91925 0.72613 0.1419 0.0
N532 N 0.82276 0.7716 0.14478 0.0
N533 N 0.04804 0.7184 0.20509 0.0
C534 C 0.88545 0.76796 0.15792 0.0
C535 C 0.00055 0.74033 0.18876 0.0
N536 N 0.89303 0.85374 0.20214 0.0
N537 N 0.02227 0.69057 0.13859 0.0
H538 H 0.06444 0.73445 0.22874 0.0
H539 H 0.06686 0.67966 0.19595 0.0
H540 H 0.01073 0.67645 0.11449 0.0
H541 H 0.07254 0.68961 0.1467 0.0
H542 H 0.86134 0.87684 0.19028 0.0
H543 H 0.91308 0.87957 0.22451 0.0
H544 H 0.78881 0.7914 0.15711 0.0
H545 H 0.80108 0.75009 0.1221 0.0
C546 C 0.07983 0.83264 0.53999 0.0
C547 C 0.11103 0.91525 0.54819 0.0
C548 C 0.15421 0.95444 0.49306 0.0
C549 C 0.12044 0.87142 0.48444 0.0
N550 N 0.03419 0.73194 0.49796 0.0
N551 N 0.15957 0.05266 0.53134 0.0
C552 C 0.07798 0.81062 0.50744 0.0
C553 C 0.14216 0.97538 0.52427 0.0
N554 N 0.05489 0.7755 0.56337 0.0
N555 N 0.20226 0.01376 0.47234 0.0
H556 H 0.15179 0.07026 0.55398 0.0
H557 H 0.17441 0.09727 0.51417 0.0
H558 H 0.21319 0.00271 0.44919 0.0
H559 H 0.23672 0.07409 0.47895 0.0
H560 H 0.04015 0.71568 0.55925 0.0
H561 H 0.05448 0.78913 0.58739 0.0
H562 H -0.00375 0.68551 0.51303 0.0
H563 H 0.02951 0.71451 0.47416 0.0
loop_
_geom_bond_atom_site_label_1
_geom_bond_atom_site_label_2
_geom_bond_distance
_geom_bond_site_symmetry_2
_ccdc_geom_bond_type
Eu0 C9 2.828 . S
Eu0 O11 2.392 . S
Eu0 O13 2.418 . S
Eu0 O18 2.373 . S
Eu0 O21 2.488 . S
Eu0 O22 2.471 . S
Eu0 O23 2.349 . S
Eu1 O10 2.373 1_554 S
Eu1 O14 2.488 1_554 S
Eu1 O15 2.471 1_554 S
Eu1 O16 2.349 . S
Eu1 O19 2.392 . S
Eu1 O20 2.418 . S
Eu1 C30 2.828 1_554 S
C2 O20 1.244 . S
C2 O23 1.265 . S
C3 C4 1.379 . S
C3 C7 1.373 . S
C3 C9 1.505 . S
C4 C3 1.379 . S
C4 C6 1.369 . S
C4 H32 0.930 . S
C5 C7 1.383 . S
C5 C8 1.382 . S
C5 H33 0.930 . S
C6 C4 1.369 . S
C6 C8 1.392 . S
C6 H34 0.930 . S
C7 C3 1.373 . S
C7 C5 1.383 . S
C7 H35 0.931 . S
C8 C5 1.382 . S
C8 C6 1.392 . S
C9 Eu0 2.828 . S
C9 C3 1.505 . S
C9 O21 1.249 . S
C9 O22 1.244 . S
O10 Eu1 2.373 1_556 S
O10 C12 1.258 . S
O11 Eu0 2.392 . S
O11 C12 1.242 1_554 S
C12 O10 1.258 . S
C12 O11 1.242 1_556 S
O13 Eu0 2.418 . S
O13 C17 1.244 . S
O14 Eu1 2.488 1_556 S
O14 C30 1.249 . S
O15 Eu1 2.471 1_556 S
O15 C30 1.244 . S
O16 Eu1 2.349 . S
O16 C17 1.265 . S
C17 O13 1.244 . S
C17 O16 1.265 . S
O18 Eu0 2.373 . S
O18 C31 1.258 . S
O19 Eu1 2.392 . S
O19 C31 1.242 . S
O20 Eu1 2.418 . S
O20 C2 1.244 . S
O21 Eu0 2.488 . S
O21 C9 1.249 . S
O22 Eu0 2.471 . S
O22 C9 1.244 . S
O23 Eu0 2.349 . S
O23 C2 1.265 . S
C24 C25 1.379 . S
C24 C28 1.373 . S
C24 C30 1.505 . S
C25 C24 1.379 . S
C25 C27 1.369 . S
C25 H36 0.930 . S
C26 C28 1.383 . S
C26 C29 1.382 . S
C26 H37 0.930 . S
C27 C25 1.369 . S
C27 C29 1.392 . S
C27 H38 0.930 . S
C28 C24 1.373 . S
C28 C26 1.383 . S
C28 H39 0.931 . S
C29 C26 1.382 . S
C29 C27 1.392 . S
C30 Eu1 2.828 1_556 S
C30 O14 1.249 . S
C30 O15 1.244 . S
C30 C24 1.505 . S
C31 O18 1.258 . S
C31 O19 1.242 . S
H32 C4 0.930 . S
H33 C5 0.930 . S
H34 C6 0.930 . S
H35 C7 0.931 . S
H36 C25 0.930 . S
H37 C26 0.930 . S
H38 C27 0.930 . S
H39 C28 0.931 . S
Eu40 C49 2.828 . S
Eu40 O51 2.392 . S
Eu40 O53 2.418 . S
Eu40 O58 2.373 . S
Eu40 O61 2.488 . S
Eu40 O62 2.471 . S
Eu40 O63 2.349 . S
Eu41 O50 2.373 . S
Eu41 O54 2.488 . S
Eu41 O55 2.471 . S
Eu41 O56 2.349 . S
Eu41 O59 2.392 . S
Eu41 O60 2.418 . S
Eu41 C70 2.828 . S
C42 O60 1.244 . S
C42 O63 1.265 . S
C43 C44 1.379 . S
C43 C47 1.373 . S
C43 C49 1.505 . S
C44 C43 1.379 . S
C44 C46 1.369 . S
C44 H72 0.930 . S
C45 C47 1.383 . S
C45 C48 1.382 . S
C45 H73 0.930 . S
C46 C44 1.369 . S
C46 C48 1.392 . S
C46 H74 0.930 . S
C47 C43 1.373 . S
C47 C45 1.383 . S
C47 H75 0.931 . S
C48 C45 1.382 . S
C48 C46 1.392 . S
C49 Eu40 2.828 . S
C49 C43 1.505 . S
C49 O61 1.249 . S
C49 O62 1.244 . S
O50 Eu41 2.373 . S
O50 C52 1.258 . S
O51 Eu40 2.392 . S
O51 C52 1.242 . S
C52 O50 1.258 . S
C52 O51 1.242 . S
O53 Eu40 2.418 . S
O53 C57 1.244 . S
O54 Eu41 2.488 . S
O54 C70 1.249 . S
O55 Eu41 2.471 . S
O55 C70 1.244 . S
O56 Eu41 2.349 . S
O56 C57 1.265 . S
C57 O53 1.244 . S
C57 O56 1.265 . S
O58 Eu40 2.373 . S
O58 C71 1.258 . S
O59 Eu41 2.392 . S
O59 C71 1.242 . S
O60 Eu41 2.418 . S
O60 C42 1.244 . S
O61 Eu40 2.488 . S
O61 C49 1.249 . S
O62 Eu40 2.471 . S
O62 C49 1.244 . S
O63 Eu40 2.349 . S
O63 C42 1.265 . S
C64 C65 1.379 1_655 S
C64 C68 1.373 . S
C64 C70 1.505 . S
C65 C64 1.379 1_455 S
C65 C67 1.369 . S
C65 H76 0.930 . S
C66 C68 1.383 . S
C66 C69 1.382 1_655 S
C66 H77 0.930 . S
C67 C65 1.369 . S
C67 C69 1.392 . S
C67 H78 0.930 . S
C68 C64 1.373 . S
C68 C66 1.383 . S
C68 H79 0.931 . S
C69 C66 1.382 1_455 S
C69 C67 1.392 . S
C70 Eu41 2.828 . S
C70 O54 1.249 . S
C70 O55 1.244 . S
C70 C64 1.505 . S
C71 O58 1.258 . S
C71 O59 1.242 . S
H72 C44 0.930 . S
H73 C45 0.930 . S
H74 C46 0.930 . S
H75 C47 0.931 . S
H76 C65 0.930 . S
H77 C66 0.930 . S
H78 C67 0.930 . S
H79 C68 0.931 . S
Eu80 C89 2.828 . S
Eu80 O91 2.392 . S
Eu80 O93 2.418 . S
Eu80 O98 2.373 . S
Eu80 O101 2.488 . S
Eu80 O102 2.471 . S
Eu80 O103 2.349 . S
Eu81 O90 2.373 . S
Eu81 O94 2.488 . S
Eu81 O95 2.471 . S
Eu81 O96 2.349 . S
Eu81 O99 2.392 . S
Eu81 O100 2.418 . S
Eu81 C110 2.828 . S
C82 O100 1.244 . S
C82 O103 1.265 . S
C83 C84 1.379 . S
C83 C87 1.373 . S
C83 C89 1.505 . S
C84 C83 1.379 . S
C84 C86 1.369 . S
C84 H112 0.930 . S
C85 C87 1.383 . S
C85 C88 1.382 . S
C85 H113 0.930 . S
C86 C84 1.369 . S
C86 C88 1.392 . S
C86 H114 0.930 . S
C87 C83 1.373 . S
C87 C85 1.383 . S
C87 H115 0.931 . S
C88 C85 1.382 . S
C88 C86 1.392 . S
C89 Eu80 2.828 . S
C89 C83 1.505 . S
C89 O101 1.249 . S
C89 O102 1.244 . S
O90 Eu81 2.373 . S
O90 C92 1.258 . S
O91 Eu80 2.392 . S
O91 C92 1.242 . S
C92 O90 1.258 . S
C92 O91 1.242 . S
O93 Eu80 2.418 . S
O93 C97 1.244 . S
O94 Eu81 2.488 . S
O94 C110 1.249 . S
O95 Eu81 2.471 . S
O95 C110 1.244 . S
O96 Eu81 2.349 . S
O96 C97 1.265 . S
C97 O93 1.244 . S
C97 O96 1.265 . S
O98 Eu80 2.373 . S
O98 C111 1.258 . S
O99 Eu81 2.392 . S
O99 C111 1.242 . S
O100 Eu81 2.418 . S
O100 C82 1.244 . S
O101 Eu80 2.488 . S
O101 C89 1.249 . S
O102 Eu80 2.471 . S
O102 C89 1.244 . S
O103 Eu80 2.349 . S
O103 C82 1.265 . S
C104 C105 1.379 1_565 S
C104 C108 1.373 . S
C104 C110 1.505 . S
C105 C104 1.379 1_545 S
C105 C107 1.369 . S
C105 H116 0.930 . S
C106 C108 1.383 . S
C106 C109 1.382 1_565 S
C106 H117 0.930 . S
C107 C105 1.369 . S
C107 C109 1.392 . S
C107 H118 0.930 . S
C108 C104 1.373 . S
C108 C106 1.383 . S
C108 H119 0.931 . S
C109 C106 1.382 1_545 S
C109 C107 1.392 . S
C110 Eu81 2.828 . S
C110 O94 1.249 . S
C110 O95 1.244 . S
C110 C104 1.505 . S
C111 O98 1.258 . S
C111 O99 1.242 . S
H112 C84 0.930 . S
H113 C85 0.930 . S
H114 C86 0.930 . S
H115 C87 0.931 . S
H116 C105 0.930 . S
H117 C106 0.930 . S
H118 C107 0.930 . S
H119 C108 0.931 . S
Eu120 C129 2.828 . S
Eu120 O131 2.392 . S
Eu120 O133 2.418 . S
Eu120 O138 2.373 . S
Eu120 O141 2.488 . S
Eu120 O142 2.471 . S
Eu120 O143 2.349 . S
Eu121 O130 2.373 1_554 S
Eu121 O134 2.488 1_554 S
Eu121 O135 2.471 1_554 S
Eu121 O136 2.349 . S
Eu121 O139 2.392 . S
Eu121 O140 2.418 . S
Eu121 C150 2.828 1_554 S
C122 O140 1.244 . S
C122 O143 1.265 . S
C123 C124 1.379 . S
C123 C127 1.373 . S
C123 C129 1.505 . S
C124 C123 1.379 . S
C124 C126 1.369 . S
C124 H152 0.930 . S
C125 C127 1.383 . S
C125 C128 1.382 . S
C125 H153 0.930 . S
C126 C124 1.369 . S
C126 C128 1.392 . S
C126 H154 0.930 . S
C127 C123 1.373 . S
C127 C125 1.383 . S
C127 H155 0.931 . S
C128 C125 1.382 . S
C128 C126 1.392 . S
C129 Eu120 2.828 . S
C129 C123 1.505 . S
C129 O141 1.249 . S
C129 O142 1.244 . S
O130 Eu121 2.373 1_556 S
O130 C132 1.258 . S
O131 Eu120 2.392 . S
O131 C132 1.242 1_554 S
C132 O130 1.258 . S
C132 O131 1.242 1_556 S
O133 Eu120 2.418 . S
O133 C137 1.244 . S
O134 Eu121 2.488 1_556 S
O134 C150 1.249 . S
O135 Eu121 2.471 1_556 S
O135 C150 1.244 . S
O136 Eu121 2.349 . S
O136 C137 1.265 . S
C137 O133 1.244 . S
C137 O136 1.265 . S
O138 Eu120 2.373 . S
O138 C151 1.258 . S
O139 Eu121 2.392 . S
O139 C151 1.242 . S
O140 Eu121 2.418 . S
O140 C122 1.244 . S
O141 Eu120 2.488 . S
O141 C129 1.249 . S
O142 Eu120 2.471 . S
O142 C129 1.244 . S
O143 Eu120 2.349 . S
O143 C122 1.265 . S
C144 C145 1.379 . S
C144 C148 1.373 . S
C144 C150 1.505 . S
C145 C144 1.379 . S
C145 C147 1.369 . S
C145 H156 0.930 . S
C146 C148 1.383 . S
C146 C149 1.382 . S
C146 H157 0.930 . S
C147 C145 1.369 . S
C147 C149 1.392 . S
C147 H158 0.930 . S
C148 C144 1.373 . S
C148 C146 1.383 . S
C148 H159 0.931 . S
C149 C146 1.382 . S
C149 C147 1.392 . S
C150 Eu121 2.828 1_556 S
C150 O134 1.249 . S
C150 O135 1.244 . S
C150 C144 1.505 . S
C151 O138 1.258 . S
C151 O139 1.242 . S
H152 C124 0.930 . S
H153 C125 0.930 . S
H154 C126 0.930 . S
H155 C127 0.931 . S
H156 C145 0.930 . S
H157 C146 0.930 . S
H158 C147 0.930 . S
H159 C148 0.931 . S
Eu160 C169 2.828 . S
Eu160 O171 2.392 . S
Eu160 O173 2.418 . S
Eu160 O178 2.373 . S
Eu160 O181 2.488 . S
Eu160 O182 2.471 . S
Eu160 O183 2.349 . S
Eu161 O170 2.373 . S
Eu161 O174 2.488 . S
Eu161 O175 2.471 . S
Eu161 O176 2.349 . S
Eu161 O179 2.392 . S
Eu161 O180 2.418 . S
Eu161 C190 2.828 . S
C162 O180 1.244 . S
C162 O183 1.265 . S
C163 C164 1.379 . S
C163 C167 1.373 . S
C163 C169 1.505 . S
C164 C163 1.379 . S
C164 C166 1.369 . S
C164 H192 0.930 . S
C165 C167 1.383 . S
C165 C168 1.382 . S
C165 H193 0.930 . S
C166 C164 1.369 . S
C166 C168 1.392 . S
C166 H194 0.930 . S
C167 C163 1.373 . S
C167 C165 1.383 . S
C167 H195 0.931 . S
C168 C165 1.382 . S
C168 C166 1.392 . S
C169 Eu160 2.828 . S
C169 C163 1.505 . S
C169 O181 1.249 . S
C169 O182 1.244 . S
O170 Eu161 2.373 . S
O170 C172 1.258 . S
O171 Eu160 2.392 . S
O171 C172 1.242 . S
C172 O170 1.258 . S
C172 O171 1.242 . S
O173 Eu160 2.418 . S
O173 C177 1.244 . S
O174 Eu161 2.488 . S
O174 C190 1.249 . S
O175 Eu161 2.471 . S
O175 C190 1.244 . S
O176 Eu161 2.349 . S
O176 C177 1.265 . S
C177 O173 1.244 . S
C177 O176 1.265 . S
O178 Eu160 2.373 . S
O178 C191 1.258 . S
O179 Eu161 2.392 . S
O179 C191 1.242 . S
O180 Eu161 2.418 . S
O180 C162 1.244 . S
O181 Eu160 2.488 . S
O181 C169 1.249 . S
O182 Eu160 2.471 . S
O182 C169 1.244 . S
O183 Eu160 2.349 . S
O183 C162 1.265 . S
C184 C185 1.379 1_455 S
C184 C188 1.373 . S
C184 C190 1.505 . S
C185 C184 1.379 1_655 S
C185 C187 1.369 . S
C185 H196 0.930 . S
C186 C188 1.383 . S
C186 C189 1.382 1_455 S
C186 H197 0.930 . S
C187 C185 1.369 . S
C187 C189 1.392 . S
C187 H198 0.930 . S
C188 C184 1.373 . S
C188 C186 1.383 . S
C188 H199 0.931 . S
C189 C186 1.382 1_655 S
C189 C187 1.392 . S
C190 Eu161 2.828 . S
C190 O174 1.249 . S
C190 O175 1.244 . S
C190 C184 1.505 . S
C191 O178 1.258 . S
C191 O179 1.242 . S
H192 C164 0.930 . S
H193 C165 0.930 . S
H194 C166 0.930 . S
H195 C167 0.931 . S
H196 C185 0.930 . S
H197 C186 0.930 . S
H198 C187 0.930 . S
H199 C188 0.931 . S
Eu200 C209 2.828 . S
Eu200 O211 2.392 . S
Eu200 O213 2.418 . S
Eu200 O218 2.373 . S
Eu200 O221 2.488 . S
Eu200 O222 2.471 . S
Eu200 O223 2.349 . S
Eu201 O210 2.373 . S
Eu201 O214 2.488 . S
Eu201 O215 2.471 . S
Eu201 O216 2.349 . S
Eu201 O219 2.392 . S
Eu201 O220 2.418 . S
Eu201 C230 2.828 . S
C202 O220 1.244 . S
C202 O223 1.265 . S
C203 C204 1.379 . S
C203 C207 1.373 . S
C203 C209 1.505 . S
C204 C203 1.379 . S
C204 C206 1.369 . S
C204 H232 0.930 . S
C205 C207 1.383 . S
C205 C208 1.382 . S
C205 H233 0.930 . S
C206 C204 1.369 . S
C206 C208 1.392 . S
C206 H234 0.930 . S
C207 C203 1.373 . S
C207 C205 1.383 . S
C207 H235 0.931 . S
C208 C205 1.382 . S
C208 C206 1.392 . S
C209 Eu200 2.828 . S
C209 C203 1.505 . S
C209 O221 1.249 . S
C209 O222 1.244 . S
O210 Eu201 2.373 . S
O210 C212 1.258 . S
O211 Eu200 2.392 . S
O211 C212 1.242 . S
C212 O210 1.258 . S
C212 O211 1.242 . S
O213 Eu200 2.418 . S
O213 C217 1.244 . S
O214 Eu201 2.488 . S
O214 C230 1.249 . S
O215 Eu201 2.471 . S
O215 C230 1.244 . S
O216 Eu201 2.349 . S
O216 C217 1.265 . S
C217 O213 1.244 . S
C217 O216 1.265 . S
O218 Eu200 2.373 . S
O218 C231 1.258 . S
O219 Eu201 2.392 . S
O219 C231 1.242 . S
O220 Eu201 2.418 . S
O220 C202 1.244 . S
O221 Eu200 2.488 . S
O221 C209 1.249 . S
O222 Eu200 2.471 . S
O222 C209 1.244 . S
O223 Eu200 2.349 . S
O223 C202 1.265 . S
C224 C225 1.379 1_545 S
C224 C228 1.373 . S
C224 C230 1.505 . S
C225 C224 1.379 1_565 S
C225 C227 1.369 . S
C225 H236 0.930 . S
C226 C228 1.383 . S
C226 C229 1.382 1_545 S
C226 H237 0.930 . S
C227 C225 1.369 . S
C227 C229 1.392 . S
C227 H238 0.930 . S
C228 C224 1.373 . S
C228 C226 1.383 . S
C228 H239 0.931 . S
C229 C226 1.382 1_565 S
C229 C227 1.392 . S
C230 Eu201 2.828 . S
C230 O214 1.249 . S
C230 O215 1.244 . S
C230 C224 1.505 . S
C231 O218 1.258 . S
C231 O219 1.242 . S
H232 C204 0.930 . S
H233 C205 0.930 . S
H234 C206 0.930 . S
H235 C207 0.931 . S
H236 C225 0.930 . S
H237 C226 0.930 . S
H238 C227 0.930 . S
H239 C228 0.931 . S
C240 C241 1.363 . S
C240 C246 1.379 . S
C240 N248 1.356 . S
C241 C240 1.363 . S
C241 C247 1.363 . S
C242 C243 1.363 . S
C242 C247 1.379 . S
C242 N249 1.356 . S
C243 C242 1.363 . S
C243 C246 1.363 . S
N244 C246 1.356 . S
N244 H256 0.984 . S
N244 H257 0.985 . S
N245 C247 1.356 . S
N245 H250 0.984 . S
N245 H251 0.985 . S
C246 C240 1.379 . S
C246 C243 1.363 . S
C246 N244 1.356 . S
C247 C241 1.363 . S
C247 C242 1.379 . S
C247 N245 1.356 . S
N248 C240 1.356 . S
N248 H254 0.984 . S
N248 H255 0.984 . S
N249 C242 1.356 . S
N249 H252 0.984 . S
N249 H253 0.985 . S
H250 N245 0.984 . S
H251 N245 0.985 . S
H252 N249 0.984 . S
H253 N249 0.985 . S
H254 N248 0.984 . S
H255 N248 0.984 . S
H256 N244 0.984 . S
H257 N244 0.985 . S
C258 C259 1.363 . S
C258 C264 1.379 . S
C258 N266 1.356 . S
C259 C258 1.363 . S
C259 C265 1.363 . S
C260 C261 1.363 . S
C260 C265 1.379 . S
C260 N267 1.356 . S
C261 C260 1.363 . S
C261 C264 1.363 . S
N262 C264 1.356 . S
N262 H274 0.984 . S
N262 H275 0.985 . S
N263 C265 1.356 . S
N263 H268 0.984 . S
N263 H269 0.985 . S
C264 C258 1.379 . S
C264 C261 1.363 . S
C264 N262 1.356 . S
C265 C259 1.363 . S
C265 C260 1.379 . S
C265 N263 1.356 . S
N266 C258 1.356 . S
N266 H272 0.984 . S
N266 H273 0.984 . S
N267 C260 1.356 . S
N267 H270 0.984 . S
N267 H271 0.985 . S
H268 N263 0.984 . S
H269 N263 0.985 . S
H270 N267 0.984 . S
H271 N267 0.985 . S
H272 N266 0.984 . S
H273 N266 0.984 . S
H274 N262 0.984 . S
H275 N262 0.985 . S
C276 C277 1.363 . S
C276 C282 1.379 . S
C276 N284 1.356 . S
C277 C276 1.363 . S
C277 C283 1.363 . S
C278 C279 1.363 . S
C278 C283 1.379 . S
C278 N285 1.356 . S
C279 C278 1.363 . S
C279 C282 1.363 . S
N280 C282 1.356 . S
N280 H292 0.984 . S
N280 H293 0.985 . S
N281 C283 1.356 . S
N281 H286 0.984 . S
N281 H287 0.985 . S
C282 C276 1.379 . S
C282 C279 1.363 . S
C282 N280 1.356 . S
C283 C277 1.363 . S
C283 C278 1.379 . S
C283 N281 1.356 . S
N284 C276 1.356 . S
N284 H290 0.984 . S
N284 H291 0.984 . S
N285 C278 1.356 . S
N285 H288 0.984 . S
N285 H289 0.985 . S
H286 N281 0.984 . S
H287 N281 0.985 . S
H288 N285 0.984 . S
H289 N285 0.985 . S
H290 N284 0.984 . S
H291 N284 0.984 . S
H292 N280 0.984 . S
H293 N280 0.985 . S
C294 C295 1.363 . S
C294 C300 1.379 . S
C294 N302 1.356 . S
C295 C294 1.363 . S
C295 C301 1.363 . S
C296 C297 1.363 . S
C296 C301 1.379 . S
C296 N303 1.356 . S
C297 C296 1.363 . S
C297 C300 1.363 . S
N298 C300 1.356 . S
N298 H310 0.984 . S
N298 H311 0.985 . S
N299 C301 1.356 . S
N299 H304 0.984 . S
N299 H305 0.985 . S
C300 C294 1.379 . S
C300 C297 1.363 . S
C300 N298 1.356 . S
C301 C295 1.363 . S
C301 C296 1.379 . S
C301 N299 1.356 . S
N302 C294 1.356 . S
N302 H308 0.984 . S
N302 H309 0.984 . S
N303 C296 1.356 . S
N303 H306 0.984 . S
N303 H307 0.985 . S
H304 N299 0.984 . S
H305 N299 0.985 . S
H306 N303 0.984 . S
H307 N303 0.985 . S
H308 N302 0.984 . S
H309 N302 0.984 . S
H310 N298 0.984 . S
H311 N298 0.985 . S
C312 C313 1.363 . S
C312 C318 1.379 . S
C312 N320 1.356 . S
C313 C312 1.363 . S
C313 C319 1.363 . S
C314 C315 1.363 . S
C314 C319 1.379 . S
C314 N321 1.356 . S
C315 C314 1.363 . S
C315 C318 1.363 . S
N316 C318 1.356 . S
N316 H328 0.984 . S
N316 H329 0.985 . S
N317 C319 1.356 . S
N317 H322 0.984 . S
N317 H323 0.985 . S
C318 C312 1.379 . S
C318 C315 1.363 . S
C318 N316 1.356 . S
C319 C313 1.363 . S
C319 C314 1.379 . S
C319 N317 1.356 . S
N320 C312 1.356 . S
N320 H326 0.984 . S
N320 H327 0.984 . S
N321 C314 1.356 . S
N321 H324 0.984 . S
N321 H325 0.985 . S
H322 N317 0.984 . S
H323 N317 0.985 . S
H324 N321 0.984 . S
H325 N321 0.985 . S
H326 N320 0.984 . S
H327 N320 0.984 . S
H328 N316 0.984 . S
H329 N316 0.985 . S
C330 C331 1.363 . S
C330 C336 1.379 . S
C330 N338 1.356 . S
C331 C330 1.363 . S
C331 C337 1.363 . S
C332 C333 1.363 . S
C332 C337 1.379 . S
C332 N339 1.356 . S
C333 C332 1.363 . S
C333 C336 1.363 . S
N334 C336 1.356 . S
N334 H346 0.984 . S
N334 H347 0.985 . S
N335 C337 1.356 . S
N335 H340 0.984 . S
N335 H341 0.985 . S
C336 C330 1.379 . S
C336 C333 1.363 . S
C336 N334 1.356 . S
C337 C331 1.363 . S
C337 C332 1.379 . S
C337 N335 1.356 . S
N338 C330 1.356 . S
N338 H344 0.984 . S
N338 H345 0.984 . S
N339 C332 1.356 . S
N339 H342 0.984 . S
N339 H343 0.985 . S
H340 N335 0.984 . S
H341 N335 0.985 . S
H342 N339 0.984 . S
H343 N339 0.985 . S
H344 N338 0.984 . S
H345 N338 0.984 . S
H346 N334 0.984 . S
H347 N334 0.985 . S
C348 C349 1.363 . S
C348 C354 1.379 . S
C348 N356 1.356 . S
C349 C348 1.363 . S
C349 C355 1.363 . S
C350 C351 1.363 . S
C350 C355 1.379 . S
C350 N357 1.356 . S
C351 C350 1.363 . S
C351 C354 1.363 . S
N352 C354 1.356 . S
N352 H364 0.984 1_554 S
N352 H365 0.985 . S
N353 C355 1.356 . S
N353 H358 0.984 . S
N353 H359 0.985 . S
C354 C348 1.379 . S
C354 C351 1.363 . S
C354 N352 1.356 . S
C355 C349 1.363 . S
C355 C350 1.379 . S
C355 N353 1.356 . S
N356 C348 1.356 . S
N356 H362 0.984 1_554 S
N356 H363 0.984 . S
N357 C350 1.356 . S
N357 H360 0.984 . S
N357 H361 0.985 . S
H358 N353 0.984 . S
H359 N353 0.985 . S
H360 N357 0.984 . S
H361 N357 0.985 . S
H362 N356 0.984 1_556 S
H363 N356 0.984 . S
H364 N352 0.984 1_556 S
H365 N352 0.985 . S
C366 C367 1.363 1_655 S
C366 C372 1.379 . S
C366 N374 1.356 . S
C367 C366 1.363 1_455 S
C367 C373 1.363 . S
C368 C369 1.363 1_455 S
C368 C373 1.379 . S
C368 N375 1.356 . S
C369 C368 1.363 1_655 S
C369 C372 1.363 . S
N370 C372 1.356 . S
N370 H382 0.984 . S
N370 H383 0.985 . S
N371 C373 1.356 . S
N371 H376 0.984 . S
N371 H377 0.985 . S
C372 C366 1.379 . S
C372 C369 1.363 . S
C372 N370 1.356 . S
C373 C367 1.363 . S
C373 C368 1.379 . S
C373 N371 1.356 . S
N374 C366 1.356 . S
N374 H380 0.984 . S
N374 H381 0.984 . S
N375 C368 1.356 . S
N375 H378 0.984 . S
N375 H379 0.985 . S
H376 N371 0.984 . S
H377 N371 0.985 . S
H378 N375 0.984 . S
H379 N375 0.985 . S
H380 N374 0.984 . S
H381 N374 0.984 . S
H382 N370 0.984 . S
H383 N370 0.985 . S
C384 C385 1.363 1_565 S
C384 C390 1.379 . S
C384 N392 1.356 . S
C385 C384 1.363 1_545 S
C385 C391 1.363 . S
C386 C387 1.363 1_545 S
C386 C391 1.379 . S
C386 N393 1.356 . S
C387 C386 1.363 1_565 S
C387 C390 1.363 . S
N388 C390 1.356 . S
N388 H400 0.984 . S
N388 H401 0.985 . S
N389 C391 1.356 . S
N389 H394 0.984 . S
N389 H395 0.985 . S
C390 C384 1.379 . S
C390 C387 1.363 . S
C390 N388 1.356 . S
C391 C385 1.363 . S
C391 C386 1.379 . S
C391 N389 1.356 . S
N392 C384 1.356 . S
N392 H398 0.984 . S
N392 H399 0.984 . S
N393 C386 1.356 . S
N393 H396 0.984 . S
N393 H397 0.985 . S
H394 N389 0.984 . S
H395 N389 0.985 . S
H396 N393 0.984 . S
H397 N393 0.985 . S
H398 N392 0.984 . S
H399 N392 0.984 . S
H400 N388 0.984 . S
H401 N388 0.985 . S
C402 C403 1.363 . S
C402 C408 1.379 . S
C402 N410 1.356 . S
C403 C402 1.363 . S
C403 C409 1.363 . S
C404 C405 1.363 . S
C404 C409 1.379 . S
C404 N411 1.356 . S
C405 C404 1.363 . S
C405 C408 1.363 . S
N406 C408 1.356 . S
N406 H418 0.984 . S
N406 H419 0.985 . S
N407 C409 1.356 . S
N407 H412 0.984 . S
N407 H413 0.985 . S
C408 C402 1.379 . S
C408 C405 1.363 . S
C408 N406 1.356 . S
C409 C403 1.363 . S
C409 C404 1.379 . S
C409 N407 1.356 . S
N410 C402 1.356 . S
N410 H416 0.984 . S
N410 H417 0.984 . S
N411 C404 1.356 . S
N411 H414 0.984 . S
N411 H415 0.985 . S
H412 N407 0.984 . S
H413 N407 0.985 . S
H414 N411 0.984 . S
H415 N411 0.985 . S
H416 N410 0.984 . S
H417 N410 0.984 . S
H418 N406 0.984 . S
H419 N406 0.985 . S
C420 C421 1.363 1_655 S
C420 C426 1.379 . S
C420 N428 1.356 . S
C421 C420 1.363 1_455 S
C421 C427 1.363 . S
C422 C423 1.363 1_455 S
C422 C427 1.379 . S
C422 N429 1.356 1_554 S
C423 C422 1.363 1_655 S
C423 C426 1.363 . S
N424 C426 1.356 . S
N424 H436 0.984 . S
N424 H437 0.985 . S
N425 C427 1.356 1_556 S
N425 H430 0.984 . S
N425 H431 0.985 . S
C426 C420 1.379 . S
C426 C423 1.363 . S
C426 N424 1.356 . S
C427 C421 1.363 . S
C427 C422 1.379 . S
C427 N425 1.356 1_554 S
N428 C420 1.356 . S
N428 H434 0.984 . S
N428 H435 0.984 . S
N429 C422 1.356 1_556 S
N429 H432 0.984 . S
N429 H433 0.985 . S
H430 N425 0.984 . S
H431 N425 0.985 . S
H432 N429 0.984 . S
H433 N429 0.985 . S
H434 N428 0.984 . S
H435 N428 0.984 . S
H436 N424 0.984 . S
H437 N424 0.985 . S
C438 C439 1.363 . S
C438 C444 1.379 . S
C438 N446 1.356 . S
C439 C438 1.363 . S
C439 C445 1.363 1_565 S
C440 C441 1.363 . S
C440 C445 1.379 . S
C440 N447 1.356 . S
C441 C440 1.363 . S
C441 C444 1.363 1_545 S
N442 C444 1.356 . S
N442 H454 0.984 . S
N442 H455 0.985 . S
N443 C445 1.356 . S
N443 H448 0.984 . S
N443 H449 0.985 . S
C444 C438 1.379 . S
C444 C441 1.363 1_565 S
C444 N442 1.356 . S
C445 C439 1.363 1_545 S
C445 C440 1.379 . S
C445 N443 1.356 . S
N446 C438 1.356 . S
N446 H452 0.984 . S
N446 H453 0.984 . S
N447 C440 1.356 . S
N447 H450 0.984 . S
N447 H451 0.985 . S
H448 N443 0.984 . S
H449 N443 0.985 . S
H450 N447 0.984 . S
H451 N447 0.985 . S
H452 N446 0.984 . S
H453 N446 0.984 . S
H454 N442 0.984 . S
H455 N442 0.985 . S
C456 C457 1.363 . S
C456 C462 1.379 . S
C456 N464 1.356 . S
C457 C456 1.363 . S
C457 C463 1.363 . S
C458 C459 1.363 . S
C458 C463 1.379 . S
C458 N465 1.356 . S
C459 C458 1.363 . S
C459 C462 1.363 . S
N460 C462 1.356 . S
N460 H472 0.984 . S
N460 H473 0.985 . S
N461 C463 1.356 . S
N461 H466 0.984 . S
N461 H467 0.985 . S
C462 C456 1.379 . S
C462 C459 1.363 . S
C462 N460 1.356 . S
C463 C457 1.363 . S
C463 C458 1.379 . S
C463 N461 1.356 . S
N464 C456 1.356 . S
N464 H470 0.984 . S
N464 H471 0.984 . S
N465 C458 1.356 . S
N465 H468 0.984 . S
N465 H469 0.985 1_545 S
H466 N461 0.984 . S
H467 N461 0.985 . S
H468 N465 0.984 . S
H469 N465 0.985 1_565 S
H470 N464 0.984 . S
H471 N464 0.984 . S
H472 N460 0.984 . S
H473 N460 0.985 . S
C474 C475 1.363 . S
C474 C480 1.379 . S
C474 N482 1.356 . S
C475 C474 1.363 . S
C475 C481 1.363 . S
C476 C477 1.363 . S
C476 C481 1.379 . S
C476 N483 1.356 . S
C477 C476 1.363 . S
C477 C480 1.363 . S
N478 C480 1.356 . S
N478 H490 0.984 . S
N478 H491 0.985 . S
N479 C481 1.356 . S
N479 H484 0.984 . S
N479 H485 0.985 . S
C480 C474 1.379 . S
C480 C477 1.363 . S
C480 N478 1.356 . S
C481 C475 1.363 . S
C481 C476 1.379 . S
C481 N479 1.356 . S
N482 C474 1.356 . S
N482 H488 0.984 . S
N482 H489 0.984 . S
N483 C476 1.356 . S
N483 H486 0.984 . S
N483 H487 0.985 . S
H484 N479 0.984 . S
H485 N479 0.985 . S
H486 N483 0.984 . S
H487 N483 0.985 . S
H488 N482 0.984 . S
H489 N482 0.984 . S
H490 N478 0.984 . S
H491 N478 0.985 . S
C492 C493 1.363 . S
C492 C498 1.379 . S
C492 N500 1.356 1_545 S
C493 C492 1.363 . S
C493 C499 1.363 . S
C494 C495 1.363 . S
C494 C499 1.379 . S
C494 N501 1.356 . S
C495 C494 1.363 . S
C495 C498 1.363 . S
N496 C498 1.356 . S
N496 H508 0.984 1_545 S
N496 H509 0.985 . S
N497 C499 1.356 . S
N497 H502 0.984 . S
N497 H503 0.985 1_655 S
C498 C492 1.379 . S
C498 C495 1.363 . S
C498 N496 1.356 . S
C499 C493 1.363 . S
C499 C494 1.379 . S
C499 N497 1.356 . S
N500 C492 1.356 1_565 S
N500 H506 0.984 . S
N500 H507 0.984 . S
N501 C494 1.356 . S
N501 H504 0.984 . S
N501 H505 0.985 1_655 S
H502 N497 0.984 . S
H503 N497 0.985 1_455 S
H504 N501 0.984 . S
H505 N501 0.985 1_455 S
H506 N500 0.984 . S
H507 N500 0.984 . S
H508 N496 0.984 1_565 S
H509 N496 0.985 . S
C510 C511 1.363 . S
C510 C516 1.379 . S
C510 N518 1.356 . S
C511 C510 1.363 . S
C511 C517 1.363 . S
C512 C513 1.363 . S
C512 C517 1.379 . S
C512 N519 1.356 . S
C513 C512 1.363 . S
C513 C516 1.363 . S
N514 C516 1.356 . S
N514 H526 0.984 . S
N514 H527 0.985 . S
N515 C517 1.356 . S
N515 H520 0.984 . S
N515 H521 0.985 . S
C516 C510 1.379 . S
C516 C513 1.363 . S
C516 N514 1.356 . S
C517 C511 1.363 . S
C517 C512 1.379 . S
C517 N515 1.356 . S
N518 C510 1.356 . S
N518 H524 0.984 . S
N518 H525 0.984 . S
N519 C512 1.356 . S
N519 H522 0.984 . S
N519 H523 0.985 1_565 S
H520 N515 0.984 . S
H521 N515 0.985 . S
H522 N519 0.984 . S
H523 N519 0.985 1_545 S
H524 N518 0.984 . S
H525 N518 0.984 . S
H526 N514 0.984 . S
H527 N514 0.985 . S
C528 C529 1.363 . S
C528 C534 1.379 . S
C528 N536 1.356 . S
C529 C528 1.363 . S
C529 C535 1.363 . S
C530 C531 1.363 . S
C530 C535 1.379 . S
C530 N537 1.356 . S
C531 C530 1.363 . S
C531 C534 1.363 . S
N532 C534 1.356 . S
N532 H544 0.984 . S
N532 H545 0.985 . S
N533 C535 1.356 . S
N533 H538 0.984 . S
N533 H539 0.985 1_655 S
C534 C528 1.379 . S
C534 C531 1.363 . S
C534 N532 1.356 . S
C535 C529 1.363 . S
C535 C530 1.379 . S
C535 N533 1.356 . S
N536 C528 1.356 . S
N536 H542 0.984 . S
N536 H543 0.984 . S
N537 C530 1.356 . S
N537 H540 0.984 . S
N537 H541 0.985 . S
H538 N533 0.984 . S
H539 N533 0.985 1_455 S
H540 N537 0.984 . S
H541 N537 0.985 . S
H542 N536 0.984 . S
H543 N536 0.984 . S
H544 N532 0.984 . S
H545 N532 0.985 . S
C546 C547 1.363 . S
C546 C552 1.379 . S
C546 N554 1.356 . S
C547 C546 1.363 . S
C547 C553 1.363 . S
C548 C549 1.363 . S
C548 C553 1.379 . S
C548 N555 1.356 . S
C549 C548 1.363 . S
C549 C552 1.363 . S
N550 C552 1.356 . S
N550 H562 0.984 . S
N550 H563 0.985 . S
N551 C553 1.356 1_545 S
N551 H556 0.984 . S
N551 H557 0.985 . S
C552 C546 1.379 . S
C552 C549 1.363 . S
C552 N550 1.356 . S
C553 C547 1.363 . S
C553 C548 1.379 . S
C553 N551 1.356 1_565 S
N554 C546 1.356 . S
N554 H560 0.984 . S
N554 H561 0.984 . S
N555 C548 1.356 . S
N555 H558 0.984 . S
N555 H559 0.985 1_565 S
H556 N551 0.984 . S
H557 N551 0.985 . S
H558 N555 0.984 . S
H559 N555 0.985 1_545 S
H560 N554 0.984 . S
H561 N554 0.984 . S
H562 N550 0.984 . S
H563 N550 0.985 . S
C241 C172 1.237 . S
C243 C8 1.237 . S
C259 C212 1.237 . S
C261 C48 1.237 . S
C277 C12 1.237 . S
C279 C88 1.237 . S
C295 C52 1.237 . S
C297 C128 1.237 . S
C313 C92 1.237 . S
C315 C168 1.236 . S
C331 C132 1.237 . S
C333 C208 1.237 . S
C349 C17 1.233 . S
C351 C137 1.233 . S
C367 C177 1.233 . S
C369 C57 1.233 . S
C385 C217 1.233 . S
C387 C97 1.233 . S
C403 C82 1.478 . S
C405 C202 1.478 . S
C421 C2 1.476 . S
C423 C122 1.476 . S
C439 C162 1.478 . S
C441 C42 1.478 . S
C457 C231 1.357 . S
C459 C29 1.329 . S
C475 C69 1.329 . S
C477 C31 1.357 . S
C493 C109 1.329 . S
C495 C71 1.357 . S
C511 C111 1.357 . S
C513 C149 1.329 . S
C529 C189 1.329 . S
C531 C151 1.357 . S
C547 C229 1.329 . S
C549 C191 1.357 . S
