# Generated by pormake.
# Topology umw, (4)-cn, num edge types: 1
# Building blocks:
#     Node 0, Type 0, BuildingBlock: ICAMEG_clean_sbu_1, # of connection points: 4
#     Node 1, Type 0, BuildingBlock: ICAMEG_clean_sbu_1, # of connection points: 4
#     Node 2, Type 0, BuildingBlock: ICAMEG_clean_sbu_1, # of connection points: 4
#     Node 3, Type 0, BuildingBlock: ICAMEG_clean_sbu_1, # of connection points: 4
#     Node 4, Type 0, BuildingBlock: ICAMEG_clean_sbu_1, # of connection points: 4
#     Node 5, Type 0, BuildingBlock: ICAMEG_clean_sbu_1, # of connection points: 4
#     Node 6, Type 0, BuildingBlock: ICAMEG_clean_sbu_1, # of connection points: 4
#     Node 7, Type 0, BuildingBlock: ICAMEG_clean_sbu_1, # of connection points: 4
#     Edge 8, Type (0, 0), BuildingBlock: EYOCIG_clean_linker_4, # of connection points: 2
#     Edge 9, Type (0, 0), BuildingBlock: EYOCIG_clean_linker_4, # of connection points: 2
#     Edge 10, Type (0, 0), BuildingBlock: EYOCIG_clean_linker_4, # of connection points: 2
#     Edge 11, Type (0, 0), BuildingBlock: EYOCIG_clean_linker_4, # of connection points: 2
#     Edge 12, Type (0, 0), BuildingBlock: EYOCIG_clean_linker_4, # of connection points: 2
#     Edge 13, Type (0, 0), BuildingBlock: EYOCIG_clean_linker_4, # of connection points: 2
#     Edge 14, Type (0, 0), BuildingBlock: EYOCIG_clean_linker_4, # of connection points: 2
#     Edge 15, Type (0, 0), BuildingBlock: EYOCIG_clean_linker_4, # of connection points: 2
#     Edge 16, Type (0, 0), BuildingBlock: EYOCIG_clean_linker_4, # of connection points: 2
#     Edge 17, Type (0, 0), BuildingBlock: EYOCIG_clean_linker_4, # of connection points: 2
#     Edge 18, Type (0, 0), BuildingBlock: EYOCIG_clean_linker_4, # of connection points: 2
#     Edge 19, Type (0, 0), BuildingBlock: EYOCIG_clean_linker_4, # of connection points: 2
#     Edge 20, Type (0, 0), BuildingBlock: EYOCIG_clean_linker_4, # of connection points: 2
#     Edge 21, Type (0, 0), BuildingBlock: EYOCIG_clean_linker_4, # of connection points: 2
#     Edge 22, Type (0, 0), BuildingBlock: EYOCIG_clean_linker_4, # of connection points: 2
#     Edge 23, Type (0, 0), BuildingBlock: EYOCIG_clean_linker_4, # of connection points: 2
# Relax obj value: 0.116
# Max RMSD: 0.127
# Mean RMSD: 0.127
data_MOF--net-umw--node1-ICAMEG_clean_sbu_1--edge1-EYOCIG_clean_linker_4
_symmetry_space_group_name_H-M    P1
_symmetry_Int_Tables_number       1
_symmetry_cell_setting            triclinic
loop_
_symmetry_equiv_pos_as_xyz
'x, y, z'
_cell_length_a     33.686967
_cell_length_b     33.695218
_cell_length_c     24.234489
_cell_angle_alpha  90.003571
_cell_angle_beta   90.026805
_cell_angle_gamma 89.984566
loop_
_atom_site_label
_atom_site_type_symbol
_atom_site_fract_x
_atom_site_fract_y
_atom_site_fract_z
_atom_type_partial_charge
Co0 Co 0.50373 0.18558 0.27618 0.0
Co1 Co 0.40764 0.18452 0.32632 0.0
O2 O 0.44899 0.20657 0.27746 0.0
C3 C 0.48219 0.18286 0.15744 0.0
O4 O 0.44838 0.1662 0.17097 0.0
C5 C 0.40273 0.2701 0.35602 0.0
O6 O 0.44143 0.27054 0.36194 0.0
O7 O 0.44256 0.19159 0.39107 0.0
O8 O 0.50323 0.17712 0.35803 0.0
H9 H 0.35843 0.09955 0.4822 0.0
H10 H 0.48719 0.26409 0.2261 0.0
O11 O 0.50678 0.1937 0.19425 0.0
H12 H 0.59034 0.28839 0.36663 0.0
H13 H 0.64587 0.17897 0.21178 0.0
H14 H 0.5436 0.11701 0.32898 0.0
H15 H 0.56354 0.22115 0.35215 0.0
H16 H 0.57866 0.20778 0.21758 0.0
O17 O 0.38495 0.23906 0.33903 0.0
H18 H 0.40802 0.12522 0.41653 0.0
H19 H 0.32087 0.19923 0.34256 0.0
H20 H 0.61044 0.08737 0.32458 0.0
H21 H 0.5134 0.33193 0.23894 0.0
H22 H 0.6621 0.11833 0.26552 0.0
H23 H 0.56546 0.34433 0.30951 0.0
O24 O 0.48356 0.13102 0.26408 0.0
H25 H 0.34033 0.22679 0.15086 0.0
H26 H 0.35816 0.11776 0.28425 0.0
H27 H 0.31504 0.10774 0.2033 0.0
H28 H 0.30577 0.16254 0.13598 0.0
H29 H 0.38357 0.23541 0.23238 0.0
H30 H 0.2703 0.1744 0.40761 0.0
H31 H 0.28901 0.12422 0.47809 0.0
O32 O 0.42822 0.12914 0.31571 0.0
C33 C 0.47917 0.18391 0.39742 0.0
C34 C 0.34986 0.12129 0.45154 0.0
C35 C 0.30044 0.16335 0.40971 0.0
N36 N 0.36729 0.16344 0.3754 0.0
C37 C 0.37779 0.13585 0.41409 0.0
C38 C 0.32919 0.17731 0.373 0.0
C39 C 0.31094 0.13518 0.44924 0.0
C40 C 0.50983 0.26935 0.25685 0.0
N41 N 0.52391 0.23875 0.28816 0.0
C42 C 0.52452 0.30778 0.26401 0.0
C43 C 0.55371 0.31473 0.30366 0.0
C44 C 0.56767 0.28338 0.33574 0.0
C45 C 0.55226 0.24539 0.32749 0.0
C46 C 0.62363 0.16527 0.23776 0.0
C47 C 0.56601 0.13091 0.30362 0.0
C48 C 0.58551 0.18144 0.24118 0.0
N49 N 0.55729 0.1643 0.27396 0.0
C50 C 0.60378 0.1139 0.30114 0.0
C51 C 0.63273 0.13125 0.26794 0.0
C52 C 0.4553 0.11249 0.2873 0.0
C53 C 0.34408 0.20272 0.17996 0.0
C54 C 0.35449 0.1417 0.25499 0.0
C55 C 0.32992 0.13587 0.20931 0.0
C56 C 0.32473 0.16665 0.17159 0.0
N57 N 0.37327 0.17721 0.263 0.0
C58 C 0.36842 0.20749 0.22619 0.0
Co59 Co 0.84152 0.50344 0.52598 0.0
Co60 Co 0.84269 0.40741 0.57631 0.0
O61 O 0.82056 0.44871 0.52739 0.0
C62 C 0.84419 0.48186 0.40725 0.0
O63 O 0.8609 0.44807 0.42081 0.0
C64 C 0.75713 0.40249 0.60619 0.0
O65 O 0.75667 0.44119 0.61212 0.0
O66 O 0.83564 0.44237 0.64101 0.0
O67 O 0.85004 0.503 0.60783 0.0
H68 H 0.92782 0.35833 0.73224 0.0
H69 H 0.76296 0.48685 0.47599 0.0
O70 O 0.83333 0.50643 0.44405 0.0
H71 H 0.73869 0.59009 0.61632 0.0
H72 H 0.84799 0.6455 0.46129 0.0
H73 H 0.91012 0.54334 0.57866 0.0
H74 H 0.80596 0.56329 0.60185 0.0
H75 H 0.81922 0.57831 0.46725 0.0
O76 O 0.78815 0.38473 0.58913 0.0
H77 H 0.90208 0.40785 0.66647 0.0
H78 H 0.82802 0.32067 0.59276 0.0
H79 H 0.93972 0.61016 0.5741 0.0
H80 H 0.6951 0.51305 0.48883 0.0
H81 H 0.90868 0.66176 0.51496 0.0
H82 H 0.68271 0.56515 0.5593 0.0
O83 O 0.8961 0.48328 0.51389 0.0
H84 H 0.80028 0.33997 0.40104 0.0
H85 H 0.90945 0.35791 0.53429 0.0
H86 H 0.91942 0.31472 0.45343 0.0
H87 H 0.86455 0.30541 0.38618 0.0
H88 H 0.79171 0.38328 0.48247 0.0
H89 H 0.85294 0.27018 0.65791 0.0
H90 H 0.90317 0.28893 0.7283 0.0
O91 O 0.89805 0.42798 0.56562 0.0
C92 C 0.8433 0.47897 0.64727 0.0
C93 C 0.90606 0.34975 0.70161 0.0
C94 C 0.86398 0.3003 0.65993 0.0
N95 N 0.86383 0.3671 0.62547 0.0
C96 C 0.89146 0.37763 0.66411 0.0
C97 C 0.84998 0.32902 0.62316 0.0
C98 C 0.89218 0.31083 0.69942 0.0
C99 C 0.7577 0.50951 0.50671 0.0
N100 N 0.78833 0.52362 0.53795 0.0
C101 C 0.71926 0.5242 0.51386 0.0
C102 C 0.71232 0.5534 0.55345 0.0
C103 C 0.74369 0.56739 0.58548 0.0
C104 C 0.7817 0.55199 0.57723 0.0
C105 C 0.86173 0.62329 0.48731 0.0
C106 C 0.89618 0.56573 0.55325 0.0
C107 C 0.84558 0.58518 0.49082 0.0
N108 N 0.86276 0.55699 0.52364 0.0
C109 C 0.91317 0.60349 0.55068 0.0
C110 C 0.89578 0.6324 0.51744 0.0
C111 C 0.91466 0.45505 0.53716 0.0
C112 C 0.82438 0.34375 0.43011 0.0
C113 C 0.88548 0.35421 0.50506 0.0
C114 C 0.89128 0.32961 0.45943 0.0
C115 C 0.86047 0.32439 0.42175 0.0
N116 N 0.84996 0.373 0.51306 0.0
C117 C 0.81964 0.36812 0.47629 0.0
Co118 Co 0.52352 0.84159 0.77578 0.0
Co119 Co 0.61951 0.84261 0.82636 0.0
O120 O 0.57825 0.82057 0.77728 0.0
C121 C 0.54519 0.84428 0.65709 0.0
O122 O 0.57898 0.86096 0.67072 0.0
C123 C 0.62444 0.75699 0.85585 0.0
O124 O 0.58573 0.75651 0.8616 0.0
O125 O 0.58448 0.83544 0.89094 0.0
O126 O 0.52392 0.85009 0.85763 0.0
H127 H 0.66839 0.92747 -0.01736 0.0
H128 H 0.54009 0.76304 0.72583 0.0
O129 O 0.52058 0.83343 0.69384 0.0
H130 H 0.43674 0.73889 0.86599 0.0
H131 H 0.38149 0.84827 0.71077 0.0
H132 H 0.48363 0.91022 0.82835 0.0
H133 H 0.46359 0.80611 0.85154 0.0
H134 H 0.44867 0.8194 0.7169 0.0
O135 O 0.64222 0.78807 0.83905 0.0
H136 H 0.61894 0.90182 0.9167 0.0
H137 H 0.70627 0.82794 0.84298 0.0
H138 H 0.41683 0.93991 0.82362 0.0
H139 H 0.51383 0.69522 0.73865 0.0
H140 H 0.36523 0.90896 0.76438 0.0
H141 H 0.46167 0.6829 0.80904 0.0
O142 O 0.54374 0.89613 0.76372 0.0
H143 H 0.68716 0.80057 0.65113 0.0
H144 H 0.66902 0.90944 0.78468 0.0
H145 H 0.7123 0.91958 0.70398 0.0
H146 H 0.72171 0.86485 0.63657 0.0
H147 H 0.64377 0.79184 0.73241 0.0
H148 H 0.7567 0.85277 0.90831 0.0
H149 H 0.73784 0.90287 -0.02121 0.0
O150 O 0.59891 0.89799 0.81579 0.0
C151 C 0.54788 0.84321 0.89712 0.0
C152 C 0.67703 0.90577 0.95197 0.0
C153 C 0.72656 0.86379 0.91029 0.0
N154 N 0.65976 0.86367 0.87568 0.0
C155 C 0.64918 0.89122 0.91438 0.0
C156 C 0.69788 0.84984 0.87342 0.0
C157 C 0.71597 0.89191 0.94983 0.0
C158 C 0.5174 0.75781 0.75651 0.0
N159 N 0.5033 0.78844 0.78772 0.0
C160 C 0.50268 0.71939 0.76365 0.0
C161 C 0.47345 0.71248 0.80319 0.0
C162 C 0.45945 0.74386 0.83519 0.0
C163 C 0.47489 0.78184 0.82695 0.0
C164 C 0.4037 0.86196 0.73684 0.0
C165 C 0.46124 0.89632 0.8029 0.0
C166 C 0.4418 0.84577 0.74045 0.0
N167 N 0.46998 0.8629 0.77332 0.0
C168 C 0.4235 0.91336 0.80024 0.0
C169 C 0.39458 0.89601 0.76694 0.0
C170 C 0.57192 0.91465 0.78719 0.0
C171 C 0.68334 0.82461 0.68027 0.0
C172 C 0.67276 0.88554 0.75539 0.0
C173 C 0.69741 0.89143 0.70985 0.0
C174 C 0.70269 0.8607 0.67208 0.0
N175 N 0.65398 0.85001 0.76322 0.0
C176 C 0.65892 0.81978 0.72637 0.0
Co177 Co 0.18558 0.5235 0.02612 0.0
Co178 Co 0.18448 0.61957 0.07632 0.0
O179 O 0.20656 0.57823 0.02744 0.0
C180 C 0.18289 0.54498 0.90735 0.0
O181 O 0.1662 0.57879 0.92085 0.0
C182 C 0.27009 0.6245 0.10605 0.0
O183 O 0.27056 0.58581 0.11199 0.0
O184 O 0.1916 0.58466 0.14106 0.0
O185 O 0.1771 0.52402 0.10797 0.0
H186 H 0.09952 0.66877 0.23226 0.0
H187 H 0.26412 0.54003 -0.02386 0.0
O188 O 0.19373 0.52043 0.9442 0.0
H189 H 0.28843 0.43695 0.11669 0.0
H190 H 0.17905 0.38139 0.96168 0.0
H191 H 0.11699 0.48367 0.07883 0.0
H192 H 0.22116 0.46372 0.10211 0.0
H193 H 0.20784 0.44857 0.96753 0.0
O194 O 0.23903 0.64226 0.08905 0.0
H195 H 0.12519 0.6192 0.16653 0.0
H196 H 0.19917 0.70632 0.09263 0.0
H197 H 0.08737 0.41686 0.07437 0.0
H198 H 0.33199 0.51385 -0.01091 0.0
H199 H 0.11837 0.36519 0.01534 0.0
H200 H 0.3444 0.46183 0.05968 0.0
O201 O 0.131 0.54368 0.01398 0.0
H202 H 0.22669 0.68689 0.90094 0.0
H203 H 0.11767 0.66903 0.03429 0.0
H204 H 0.10761 0.71217 0.9534 0.0
H205 H 0.16241 0.72145 0.8861 0.0
H206 H 0.23535 0.64363 -0.01759 0.0
H207 H 0.17433 0.75686 0.15774 0.0
H208 H 0.12418 0.73817 0.22821 0.0
O209 O 0.1291 0.59898 0.0657 0.0
C210 C 0.1839 0.54807 0.14738 0.0
C211 C 0.12125 0.67733 0.20159 0.0
C212 C 0.16329 0.72674 0.15981 0.0
N213 N 0.16339 0.65991 0.12544 0.0
C214 C 0.13581 0.64942 0.16412 0.0
C215 C 0.17725 0.698 0.12307 0.0
C216 C 0.13514 0.71624 0.19934 0.0
C217 C 0.26939 0.5174 0.0069 0.0
N218 N 0.23877 0.50333 0.03815 0.0
C219 C 0.30783 0.50273 0.01412 0.0
C220 C 0.31479 0.47357 0.05377 0.0
C221 C 0.28342 0.45961 0.0858 0.0
C222 C 0.24541 0.475 0.07749 0.0
C223 C 0.16533 0.40363 -0.01235 0.0
C224 C 0.13091 0.46126 0.05347 0.0
C225 C 0.18148 0.44173 -0.00889 0.0
N226 N 0.16432 0.46996 0.02386 0.0
C227 C 0.11391 0.4235 0.05096 0.0
C228 C 0.13129 0.39455 0.01778 0.0
C229 C 0.11246 0.57191 0.03726 0.0
C230 C 0.20263 0.68313 0.93003 0.0
C231 C 0.14161 0.67271 0.00504 0.0
C232 C 0.13576 0.69728 0.95939 0.0
C233 C 0.16653 0.70248 0.92168 0.0
N234 N 0.17714 0.65393 0.01303 0.0
C235 C 0.20741 0.65878 -0.02377 0.0
Co236 Co 0.5037 0.84162 0.27603 0.0
Co237 Co 0.40759 0.84269 0.22582 0.0
O238 O 0.44897 0.82062 0.27469 0.0
C239 C 0.48218 0.8443 0.39477 0.0
O240 O 0.44836 0.86096 0.38121 0.0
C241 C 0.40271 0.75712 0.19603 0.0
O242 O 0.44141 0.75668 0.19009 0.0
O243 O 0.4425 0.83565 0.16108 0.0
O244 O 0.50317 0.8501 0.19419 0.0
H245 H 0.35827 0.9277 0.06995 0.0
H246 H 0.48721 0.76309 0.32605 0.0
O247 O 0.50676 0.83347 0.35796 0.0
H248 H 0.59036 0.73885 0.1856 0.0
H249 H 0.64584 0.84824 0.34059 0.0
H250 H 0.5435 0.91021 0.22331 0.0
H251 H 0.56352 0.80609 0.2001 0.0
H252 H 0.57865 0.81941 0.3347 0.0
O253 O 0.38493 0.78815 0.21305 0.0
H254 H 0.4079 0.90203 0.13565 0.0
H255 H 0.32083 0.82796 0.20949 0.0
H256 H 0.61031 0.93987 0.2278 0.0
H257 H 0.51347 0.69525 0.31318 0.0
H258 H 0.66201 0.90891 0.2869 0.0
H259 H 0.56552 0.68289 0.24265 0.0
O260 O 0.4835 0.89618 0.28815 0.0
H261 H 0.34033 0.80032 0.40116 0.0
H262 H 0.35807 0.90942 0.2679 0.0
H263 H 0.31493 0.91939 0.3488 0.0
H264 H 0.30571 0.86454 0.41605 0.0
H265 H 0.38359 0.79176 0.31969 0.0
H266 H 0.27023 0.8528 0.1444 0.0
H267 H 0.28888 0.903 0.07398 0.0
O268 O 0.42814 0.89807 0.23648 0.0
C269 C 0.4791 0.84333 0.15478 0.0
C270 C 0.34973 0.90595 0.10059 0.0
C271 C 0.30035 0.86386 0.14234 0.0
N272 N 0.36721 0.86378 0.17671 0.0
C273 C 0.37768 0.89139 0.13805 0.0
C274 C 0.32913 0.8499 0.17908 0.0
C275 C 0.31082 0.89204 0.10284 0.0
C276 C 0.50985 0.75784 0.29531 0.0
N277 N 0.52391 0.78846 0.26404 0.0
C278 C 0.52457 0.71941 0.28814 0.0
C279 C 0.55375 0.71248 0.24852 0.0
C280 C 0.56769 0.74385 0.21647 0.0
C281 C 0.55225 0.78184 0.22473 0.0
C282 C 0.62359 0.86194 0.31458 0.0
C283 C 0.56593 0.8963 0.24869 0.0
C284 C 0.58548 0.84577 0.31111 0.0
N285 N 0.55724 0.8629 0.27832 0.0
C286 C 0.60368 0.91333 0.25122 0.0
C287 C 0.63265 0.89598 0.28444 0.0
C288 C 0.45523 0.91471 0.26491 0.0
C289 C 0.34406 0.8244 0.37208 0.0
C290 C 0.35442 0.88547 0.29713 0.0
C291 C 0.32985 0.89126 0.34278 0.0
C292 C 0.32468 0.86047 0.38046 0.0
N293 N 0.37323 0.84997 0.28911 0.0
C294 C 0.36841 0.81967 0.32588 0.0
Co295 Co 0.18557 0.50357 0.52639 0.0
Co296 Co 0.18456 0.40761 0.47583 0.0
O297 O 0.20661 0.44887 0.52488 0.0
C298 C 0.18292 0.48189 0.64509 0.0
O299 O 0.16626 0.4481 0.63148 0.0
C300 C 0.27016 0.40271 0.44615 0.0
O301 O 0.27061 0.44141 0.44031 0.0
O302 O 0.19165 0.44264 0.41123 0.0
O303 O 0.17705 0.5032 0.44453 0.0
H304 H 0.09961 0.35869 0.31962 0.0
H305 H 0.26415 0.48701 0.57635 0.0
O306 O 0.19374 0.5065 0.60832 0.0
H307 H 0.28826 0.59041 0.43623 0.0
H308 H 0.17884 0.64556 0.59137 0.0
H309 H 0.1169 0.54345 0.47378 0.0
H310 H 0.22103 0.56353 0.45064 0.0
H311 H 0.20774 0.57841 0.58527 0.0
O312 O 0.23911 0.38494 0.46309 0.0
H313 H 0.12527 0.40815 0.38554 0.0
H314 H 0.19928 0.32089 0.45923 0.0
H315 H 0.08718 0.61022 0.47849 0.0
H316 H 0.33197 0.5133 0.56356 0.0
H317 H 0.11812 0.6618 0.53774 0.0
H318 H 0.34427 0.56548 0.4932 0.0
O319 O 0.13102 0.48334 0.53844 0.0
H320 H 0.22681 0.33998 0.65103 0.0
H321 H 0.11778 0.35805 0.51759 0.0
H322 H 0.10774 0.31477 0.59833 0.0
H323 H 0.16255 0.30539 0.66567 0.0
H324 H 0.23544 0.38338 0.56973 0.0
H325 H 0.17446 0.27046 0.39392 0.0
H326 H 0.12429 0.28928 0.32347 0.0
O327 O 0.12916 0.42816 0.48645 0.0
C328 C 0.1839 0.47924 0.40504 0.0
C329 C 0.12135 0.35008 0.35028 0.0
C330 C 0.1634 0.30058 0.39194 0.0
N331 N 0.16349 0.36735 0.42654 0.0
C332 C 0.1359 0.37792 0.38786 0.0
C333 C 0.17736 0.32926 0.4288 0.0
C334 C 0.13524 0.31116 0.35242 0.0
C335 C 0.26937 0.50971 0.54568 0.0
N336 N 0.23872 0.52382 0.51446 0.0
C337 C 0.30779 0.52444 0.53856 0.0
C338 C 0.31469 0.5537 0.49903 0.0
C339 C 0.28329 0.56768 0.46702 0.0
C340 C 0.24531 0.55223 0.47524 0.0
C341 C 0.16515 0.62336 0.5653 0.0
C342 C 0.1308 0.56583 0.49923 0.0
C343 C 0.18136 0.58527 0.5617 0.0
N344 N 0.16423 0.5571 0.52883 0.0
C345 C 0.11374 0.60356 0.50188 0.0
C346 C 0.13109 0.63246 0.53519 0.0
C347 C 0.1125 0.45515 0.51502 0.0
C348 C 0.20274 0.34379 0.62192 0.0
C349 C 0.14171 0.35433 0.54686 0.0
C350 C 0.13588 0.32968 0.59242 0.0
C351 C 0.16666 0.32441 0.63015 0.0
N352 N 0.17723 0.37313 0.53899 0.0
C353 C 0.20751 0.36822 0.57581 0.0
Co354 Co 0.52352 0.18558 0.77648 0.0
Co355 Co 0.61952 0.18441 0.72605 0.0
O356 O 0.57827 0.20651 0.77507 0.0
C357 C 0.54518 0.18283 0.89519 0.0
O358 O 0.57895 0.1661 0.8816 0.0
C359 C 0.62454 0.27001 0.69652 0.0
O360 O 0.58583 0.27055 0.69071 0.0
O361 O 0.58451 0.19163 0.66142 0.0
O362 O 0.52392 0.17709 0.69463 0.0
H363 H 0.66835 0.0995 0.56984 0.0
H364 H 0.54016 0.26409 0.82649 0.0
O365 O 0.52058 0.19372 0.85841 0.0
H366 H 0.43684 0.28843 0.6862 0.0
H367 H 0.38147 0.17911 0.84125 0.0
H368 H 0.48356 0.11702 0.72381 0.0
H369 H 0.46363 0.22117 0.70064 0.0
H370 H 0.44868 0.20786 0.83526 0.0
O371 O 0.64228 0.23892 0.71339 0.0
H372 H 0.61891 0.12522 0.63571 0.0
H373 H 0.70629 0.19895 0.70959 0.0
H374 H 0.41672 0.08744 0.7284 0.0
H375 H 0.51395 0.33195 0.81368 0.0
H376 H 0.36515 0.11846 0.78758 0.0
H377 H 0.46182 0.34437 0.74323 0.0
O378 O 0.54368 0.131 0.78855 0.0
H379 H 0.68715 0.22635 0.90143 0.0
H380 H 0.66897 0.11751 0.76782 0.0
H381 H 0.71219 0.10731 0.84862 0.0
H382 H 0.72163 0.16201 0.91605 0.0
H383 H 0.6438 0.23515 0.82005 0.0
H384 H 0.75672 0.17406 0.64433 0.0
H385 H 0.73782 0.124 0.57381 0.0
O386 O 0.59887 0.12907 0.7366 0.0
C387 C 0.5479 0.18393 0.65518 0.0
C388 C 0.677 0.12119 0.60053 0.0
C389 C 0.72656 0.16309 0.6423 0.0
N390 N 0.65976 0.1633 0.6768 0.0
C391 C 0.64916 0.13577 0.63808 0.0
C392 C 0.69789 0.17707 0.67913 0.0
C393 C 0.71595 0.13499 0.60274 0.0
C394 C 0.51748 0.26936 0.79579 0.0
N395 N 0.50335 0.23875 0.76453 0.0
C396 C 0.50279 0.3078 0.78865 0.0
C397 C 0.47356 0.31476 0.74907 0.0
C398 C 0.45955 0.28341 0.71703 0.0
C399 C 0.47496 0.24541 0.72526 0.0
C400 C 0.40367 0.16538 0.81521 0.0
C401 C 0.46118 0.13095 0.74923 0.0
C402 C 0.44178 0.18152 0.81168 0.0
N403 N 0.46995 0.16435 0.77884 0.0
C404 C 0.42342 0.11397 0.75182 0.0
C405 C 0.39452 0.13136 0.78508 0.0
C406 C 0.57186 0.11244 0.76514 0.0
C407 C 0.68332 0.20232 0.87227 0.0
C408 C 0.67271 0.14141 0.79712 0.0
C409 C 0.69734 0.13548 0.84272 0.0
C410 C 0.70263 0.1662 0.8805 0.0
N411 N 0.65398 0.17697 0.78926 0.0
C412 C 0.65892 0.20719 0.82612 0.0
Co413 Co 0.84155 0.5233 0.02627 0.0
Co414 Co 0.84251 0.61931 -0.02413 0.0
O415 O 0.82048 0.57799 0.02482 0.0
C416 C 0.84418 0.54492 0.14499 0.0
O417 O 0.86081 0.57874 0.13144 0.0
C418 C 0.75692 0.6242 0.94593 0.0
O419 O 0.75649 0.58551 0.93991 0.0
O420 O 0.83547 0.58432 0.9112 0.0
O421 O 0.85005 0.52373 0.94443 0.0
H422 H 0.92743 0.6684 0.81986 0.0
H423 H 0.76298 0.53979 0.07619 0.0
O424 O 0.83339 0.52031 0.10819 0.0
H425 H 0.73887 0.43645 0.93593 0.0
H426 H 0.84832 0.38126 0.09102 0.0
H427 H 0.91021 0.48348 0.97365 0.0
H428 H 0.80609 0.46337 0.95041 0.0
H429 H 0.81942 0.44841 0.08503 0.0
O430 O 0.78794 0.64195 0.96306 0.0
H431 H 0.90183 0.61889 0.8857 0.0
H432 H 0.82771 0.70603 0.95937 0.0
H433 H 0.93994 0.4167 -0.02175 0.0
H434 H 0.69516 0.51347 0.06334 0.0
H435 H 0.90902 0.36507 0.03739 0.0
H436 H 0.68287 0.46131 -0.00708 0.0
O437 O 0.8961 0.54354 0.03839 0.0
H438 H 0.80013 0.68677 0.15109 0.0
H439 H 0.90923 0.66889 0.01785 0.0
H440 H 0.91919 0.71213 0.09867 0.0
H441 H 0.86435 0.72142 0.16591 0.0
H442 H 0.79157 0.64342 0.0697 0.0
H443 H 0.85247 0.75651 0.89415 0.0
H444 H 0.90266 0.73778 0.82374 0.0
O445 O 0.89792 0.59879 -0.01343 0.0
C446 C 0.84322 0.54773 0.90497 0.0
C447 C 0.90568 0.67698 0.8505 0.0
C448 C 0.86357 0.7264 0.89216 0.0
N449 N 0.86356 0.65962 0.92669 0.0
C450 C 0.89117 0.6491 0.88804 0.0
C451 C 0.84965 0.69769 0.92897 0.0
C452 C 0.89174 0.71588 0.85266 0.0
C453 C 0.75776 0.51711 0.04549 0.0
N454 N 0.7884 0.50304 0.01427 0.0
C455 C 0.71934 0.50235 0.03833 0.0
C456 C 0.71245 0.47312 -0.00123 0.0
C457 C 0.74384 0.45917 0.96676 0.0
C458 C 0.78182 0.47464 -0.02499 0.0
C459 C 0.86201 0.40349 0.065 0.0
C460 C 0.89632 0.46107 -0.00094 0.0
C461 C 0.84579 0.44157 0.06147 0.0
N462 N 0.8629 0.46978 0.02865 0.0
C463 C 0.91339 0.42334 0.00165 0.0
C464 C 0.89606 0.39441 0.03489 0.0
C465 C 0.9146 0.57177 0.01507 0.0
C466 C 0.82421 0.68301 0.12202 0.0
C467 C 0.88528 0.67257 0.04708 0.0
C468 C 0.89107 0.6972 0.09268 0.0
C469 C 0.86027 0.70241 0.13036 0.0
N470 N 0.84978 0.65375 0.0391 0.0
C471 C 0.81949 0.65861 0.07587 0.0
C472 C 0.50647 0.18228 0.49902 0.0
C473 C 0.49431 0.18295 0.45242 0.0
C474 C 0.52049 0.18228 0.55363 0.0
C475 C 0.53269 0.18296 0.60021 0.0
C476 C 0.84499 0.50633 0.74882 0.0
C477 C 0.84429 0.49415 0.70224 0.0
C478 C 0.84497 0.52035 0.80343 0.0
C479 C 0.84425 0.53254 0.85 0.0
C480 C 0.50641 0.84496 0.05321 0.0
C481 C 0.49424 0.84429 0.09979 0.0
C482 C 0.52044 0.84493 -0.00138 0.0
C483 C 0.53266 0.84422 0.95206 0.0
C484 C 0.18222 0.5067 0.30354 0.0
C485 C 0.18291 0.49448 0.3501 0.0
C486 C 0.18223 0.52075 0.24895 0.0
C487 C 0.18292 0.53293 0.20237 0.0
C488 C 0.35732 0.3292 0.39124 0.0
C489 C 0.37924 0.30302 0.37568 0.0
C490 C 0.32924 0.3573 0.41089 0.0
C491 C 0.30308 0.37923 0.42647 0.0
C492 C 0.69808 0.35709 0.64157 0.0
C493 C 0.72424 0.379 0.62593 0.0
C494 C 0.67 0.32904 0.66125 0.0
C495 C 0.64806 0.30289 0.67685 0.0
C496 C 0.69788 0.66969 0.91064 0.0
C497 C 0.72402 0.64772 0.92623 0.0
C498 C 0.66983 0.69783 0.89101 0.0
C499 C 0.64792 0.72404 0.87546 0.0
C500 C 0.32919 0.66994 0.14122 0.0
C501 C 0.30301 0.64801 0.12568 0.0
C502 C 0.35729 0.69803 0.16083 0.0
C503 C 0.37921 0.72421 0.17638 0.0
C504 C 0.45372 0.99273 0.27387 0.0
C505 C 0.45435 0.9571 0.26972 0.0
C506 C 0.45374 0.03448 0.27832 0.0
C507 C 0.45441 0.0701 0.28247 0.0
C508 C 0.9927 0.45357 0.52826 0.0
C509 C 0.95706 0.45419 0.53237 0.0
C510 C 0.03446 0.45359 0.52387 0.0
C511 C 0.0701 0.45425 0.51978 0.0
C512 C 0.5734 0.99267 0.77838 0.0
C513 C 0.57278 0.95704 0.78246 0.0
C514 C 0.57337 0.03442 0.77399 0.0
C515 C 0.57272 0.07005 0.76991 0.0
C516 C 0.99264 0.57335 0.02398 0.0
C517 C 0.957 0.57268 0.01987 0.0
C518 C 0.03441 0.57338 0.02838 0.0
C519 C 0.07005 0.57277 0.03249 0.0
C520 C 0.52132 0.18706 -0.00093 0.0
C521 C 0.53317 0.18469 0.95213 0.0
C522 C 0.50611 0.18707 0.05357 0.0
C523 C 0.49424 0.18472 0.10051 0.0
C524 C 0.83995 0.52101 0.24887 0.0
C525 C 0.84231 0.53289 0.20194 0.0
C526 C 0.83995 0.50579 0.30337 0.0
C527 C 0.84232 0.49391 0.35031 0.0
C528 C 0.52133 0.84005 0.55317 0.0
C529 C 0.53318 0.84242 0.60013 0.0
C530 C 0.50612 0.84006 0.49865 0.0
C531 C 0.49424 0.84242 0.4517 0.0
C532 C 0.18714 0.521 0.8035 0.0
C533 C 0.18477 0.5329 0.85043 0.0
C534 C 0.18715 0.50578 0.74899 0.0
C535 C 0.18478 0.49391 0.70204 0.0
loop_
_geom_bond_atom_site_label_1
_geom_bond_atom_site_label_2
_geom_bond_distance
_geom_bond_site_symmetry_2
_ccdc_geom_bond_type
Co0 O2 2.143 . S
Co0 O8 2.074 . S
Co0 O11 2.093 . S
Co0 O24 2.097 . S
Co0 N41 2.151 . S
Co0 N49 2.214 . S
Co1 O2 2.160 . S
Co1 O7 2.058 . S
Co1 O17 2.057 . S
Co1 O32 2.037 . S
Co1 N36 2.145 . S
Co1 N57 2.257 . S
O2 Co0 2.143 . S
O2 Co1 2.160 . S
C3 O4 1.278 . S
C3 O11 1.224 . S
O4 C3 1.278 . S
C5 O6 1.245 . S
C5 O17 1.232 . S
O6 C5 1.245 . S
O7 Co1 2.058 . S
O7 C33 1.269 . S
O8 Co0 2.074 . S
O8 C33 1.257 . S
H9 C34 0.930 . S
H10 C40 0.930 . S
O11 Co0 2.093 . S
O11 C3 1.224 . S
H12 C44 0.929 . S
H13 C46 0.930 . S
H14 C47 0.930 . S
H15 C45 0.929 . S
H16 C48 0.928 . S
O17 Co1 2.057 . S
O17 C5 1.232 . S
H18 C37 0.929 . S
H19 C38 0.929 . S
H20 C50 0.931 . S
H21 C42 0.929 . S
H22 C51 0.930 . S
H23 C43 0.931 . S
O24 Co0 2.097 . S
O24 C52 1.214 . S
H25 C53 0.929 . S
H26 C54 0.929 . S
H27 C55 0.930 . S
H28 C56 0.929 . S
H29 C58 0.930 . S
H30 C35 0.930 . S
H31 C39 0.930 . S
O32 Co1 2.037 . S
O32 C52 1.234 . S
C33 O7 1.269 . S
C33 O8 1.257 . S
C34 H9 0.930 . S
C34 C37 1.388 . S
C34 C39 1.418 . S
C35 H30 0.930 . S
C35 C38 1.404 . S
C35 C39 1.353 . S
N36 Co1 2.145 . S
N36 C37 1.397 . S
N36 C38 1.334 . S
C37 H18 0.929 . S
C37 C34 1.388 . S
C37 N36 1.397 . S
C38 H19 0.929 . S
C38 C35 1.404 . S
C38 N36 1.334 . S
C39 H31 0.930 . S
C39 C34 1.418 . S
C39 C35 1.353 . S
C40 H10 0.930 . S
C40 N41 1.330 . S
C40 C42 1.446 . S
N41 Co0 2.151 . S
N41 C40 1.330 . S
N41 C45 1.418 . S
C42 H21 0.929 . S
C42 C40 1.446 . S
C42 C43 1.332 . S
C43 H23 0.931 . S
C43 C42 1.332 . S
C43 C44 1.267 . S
C44 H12 0.929 . S
C44 C43 1.267 . S
C44 C45 1.251 . S
C45 H15 0.929 . S
C45 N41 1.418 . S
C45 C44 1.251 . S
C46 H13 0.930 . S
C46 C48 1.406 . S
C46 C51 1.261 . S
C47 H14 0.930 . S
C47 N49 1.325 . S
C47 C50 1.357 . S
C48 H16 0.928 . S
C48 C46 1.406 . S
C48 N49 1.261 . S
N49 Co0 2.214 . S
N49 C47 1.325 . S
N49 C48 1.261 . S
C50 H20 0.931 . S
C50 C47 1.357 . S
C50 C51 1.312 . S
C51 H22 0.930 . S
C51 C46 1.261 . S
C51 C50 1.312 . S
C52 O24 1.214 . S
C52 O32 1.234 . S
C53 H25 0.929 . S
C53 C56 1.391 . S
C53 C58 1.391 . S
C54 H26 0.929 . S
C54 C55 1.390 . S
C54 N57 1.391 . S
C55 H27 0.930 . S
C55 C54 1.390 . S
C55 C56 1.392 . S
C56 H28 0.929 . S
C56 C53 1.391 . S
C56 C55 1.392 . S
N57 Co1 2.257 . S
N57 C54 1.391 . S
N57 C58 1.388 . S
C58 H29 0.930 . S
C58 C53 1.391 . S
C58 N57 1.388 . S
Co59 O61 2.143 . S
Co59 O67 2.074 . S
Co59 O70 2.093 . S
Co59 O83 2.097 . S
Co59 N100 2.151 . S
Co59 N108 2.214 . S
Co60 O61 2.160 . S
Co60 O66 2.058 . S
Co60 O76 2.057 . S
Co60 O91 2.037 . S
Co60 N95 2.145 . S
Co60 N116 2.257 . S
O61 Co59 2.143 . S
O61 Co60 2.160 . S
C62 O63 1.278 . S
C62 O70 1.224 . S
O63 C62 1.278 . S
C64 O65 1.245 . S
C64 O76 1.232 . S
O65 C64 1.245 . S
O66 Co60 2.058 . S
O66 C92 1.269 . S
O67 Co59 2.074 . S
O67 C92 1.257 . S
H68 C93 0.930 . S
H69 C99 0.930 . S
O70 Co59 2.093 . S
O70 C62 1.224 . S
H71 C103 0.929 . S
H72 C105 0.930 . S
H73 C106 0.930 . S
H74 C104 0.929 . S
H75 C107 0.928 . S
O76 Co60 2.057 . S
O76 C64 1.232 . S
H77 C96 0.929 . S
H78 C97 0.929 . S
H79 C109 0.931 . S
H80 C101 0.929 . S
H81 C110 0.930 . S
H82 C102 0.931 . S
O83 Co59 2.097 . S
O83 C111 1.214 . S
H84 C112 0.929 . S
H85 C113 0.929 . S
H86 C114 0.930 . S
H87 C115 0.929 . S
H88 C117 0.930 . S
H89 C94 0.930 . S
H90 C98 0.930 . S
O91 Co60 2.037 . S
O91 C111 1.234 . S
C92 O66 1.269 . S
C92 O67 1.257 . S
C93 H68 0.930 . S
C93 C96 1.388 . S
C93 C98 1.418 . S
C94 H89 0.930 . S
C94 C97 1.404 . S
C94 C98 1.353 . S
N95 Co60 2.145 . S
N95 C96 1.397 . S
N95 C97 1.334 . S
C96 H77 0.929 . S
C96 C93 1.388 . S
C96 N95 1.397 . S
C97 H78 0.929 . S
C97 C94 1.404 . S
C97 N95 1.334 . S
C98 H90 0.930 . S
C98 C93 1.418 . S
C98 C94 1.353 . S
C99 H69 0.930 . S
C99 N100 1.330 . S
C99 C101 1.446 . S
N100 Co59 2.151 . S
N100 C99 1.330 . S
N100 C104 1.418 . S
C101 H80 0.929 . S
C101 C99 1.446 . S
C101 C102 1.332 . S
C102 H82 0.931 . S
C102 C101 1.332 . S
C102 C103 1.267 . S
C103 H71 0.929 . S
C103 C102 1.267 . S
C103 C104 1.251 . S
C104 H74 0.929 . S
C104 N100 1.418 . S
C104 C103 1.251 . S
C105 H72 0.930 . S
C105 C107 1.406 . S
C105 C110 1.261 . S
C106 H73 0.930 . S
C106 N108 1.325 . S
C106 C109 1.357 . S
C107 H75 0.928 . S
C107 C105 1.406 . S
C107 N108 1.261 . S
N108 Co59 2.214 . S
N108 C106 1.325 . S
N108 C107 1.261 . S
C109 H79 0.931 . S
C109 C106 1.357 . S
C109 C110 1.312 . S
C110 H81 0.930 . S
C110 C105 1.261 . S
C110 C109 1.312 . S
C111 O83 1.214 . S
C111 O91 1.234 . S
C112 H84 0.929 . S
C112 C115 1.391 . S
C112 C117 1.391 . S
C113 H85 0.929 . S
C113 C114 1.390 . S
C113 N116 1.391 . S
C114 H86 0.930 . S
C114 C113 1.390 . S
C114 C115 1.392 . S
C115 H87 0.929 . S
C115 C112 1.391 . S
C115 C114 1.392 . S
N116 Co60 2.257 . S
N116 C113 1.391 . S
N116 C117 1.388 . S
C117 H88 0.930 . S
C117 C112 1.391 . S
C117 N116 1.388 . S
Co118 O120 2.143 . S
Co118 O126 2.074 . S
Co118 O129 2.093 . S
Co118 O142 2.097 . S
Co118 N159 2.151 . S
Co118 N167 2.214 . S
Co119 O120 2.160 . S
Co119 O125 2.058 . S
Co119 O135 2.057 . S
Co119 O150 2.037 . S
Co119 N154 2.145 . S
Co119 N175 2.257 . S
O120 Co118 2.143 . S
O120 Co119 2.160 . S
C121 O122 1.278 . S
C121 O129 1.224 . S
O122 C121 1.278 . S
C123 O124 1.245 . S
C123 O135 1.232 . S
O124 C123 1.245 . S
O125 Co119 2.058 . S
O125 C151 1.269 . S
O126 Co118 2.074 . S
O126 C151 1.257 . S
H127 C152 0.930 1_554 S
H128 C158 0.930 . S
O129 Co118 2.093 . S
O129 C121 1.224 . S
H130 C162 0.929 . S
H131 C164 0.930 . S
H132 C165 0.930 . S
H133 C163 0.929 . S
H134 C166 0.928 . S
O135 Co119 2.057 . S
O135 C123 1.232 . S
H136 C155 0.929 . S
H137 C156 0.929 . S
H138 C168 0.931 . S
H139 C160 0.929 . S
H140 C169 0.930 . S
H141 C161 0.931 . S
O142 Co118 2.097 . S
O142 C170 1.214 . S
H143 C171 0.929 . S
H144 C172 0.929 . S
H145 C173 0.930 . S
H146 C174 0.929 . S
H147 C176 0.930 . S
H148 C153 0.930 . S
H149 C157 0.922 1_554 S
O150 Co119 2.037 . S
O150 C170 1.234 . S
C151 O125 1.269 . S
C151 O126 1.257 . S
C152 H127 0.930 1_556 S
C152 C155 1.388 . S
C152 C157 1.420 . S
C153 H148 0.930 . S
C153 C156 1.404 . S
C153 C157 1.359 . S
N154 Co119 2.145 . S
N154 C155 1.397 . S
N154 C156 1.334 . S
C155 H136 0.929 . S
C155 C152 1.388 . S
C155 N154 1.397 . S
C156 H137 0.929 . S
C156 C153 1.404 . S
C156 N154 1.334 . S
C157 H149 0.922 1_556 S
C157 C152 1.420 . S
C157 C153 1.359 . S
C158 H128 0.930 . S
C158 N159 1.330 . S
C158 C160 1.446 . S
N159 Co118 2.151 . S
N159 C158 1.330 . S
N159 C163 1.418 . S
C160 H139 0.929 . S
C160 C158 1.446 . S
C160 C161 1.332 . S
C161 H141 0.931 . S
C161 C160 1.332 . S
C161 C162 1.267 . S
C162 H130 0.929 . S
C162 C161 1.267 . S
C162 C163 1.251 . S
C163 H133 0.929 . S
C163 N159 1.418 . S
C163 C162 1.251 . S
C164 H131 0.930 . S
C164 C166 1.406 . S
C164 C169 1.261 . S
C165 H132 0.930 . S
C165 N167 1.325 . S
C165 C168 1.357 . S
C166 H134 0.928 . S
C166 C164 1.406 . S
C166 N167 1.261 . S
N167 Co118 2.214 . S
N167 C165 1.325 . S
N167 C166 1.261 . S
C168 H138 0.931 . S
C168 C165 1.357 . S
C168 C169 1.312 . S
C169 H140 0.930 . S
C169 C164 1.261 . S
C169 C168 1.312 . S
C170 O142 1.214 . S
C170 O150 1.234 . S
C171 H143 0.929 . S
C171 C174 1.391 . S
C171 C176 1.391 . S
C172 H144 0.929 . S
C172 C173 1.390 . S
C172 N175 1.391 . S
C173 H145 0.930 . S
C173 C172 1.390 . S
C173 C174 1.392 . S
C174 H146 0.929 . S
C174 C171 1.391 . S
C174 C173 1.392 . S
N175 Co119 2.257 . S
N175 C172 1.391 . S
N175 C176 1.388 . S
C176 H147 0.930 . S
C176 C171 1.391 . S
C176 N175 1.388 . S
Co177 O179 2.143 . S
Co177 O185 2.074 . S
Co177 O188 2.093 1_554 S
Co177 O201 2.097 . S
Co177 N218 2.151 . S
Co177 N226 2.214 . S
Co178 O179 2.160 . S
Co178 O184 2.058 . S
Co178 O194 2.057 . S
Co178 O209 2.037 . S
Co178 N213 2.145 . S
Co178 N234 2.257 . S
O179 Co177 2.143 . S
O179 Co178 2.160 . S
C180 O181 1.278 . S
C180 O188 1.224 . S
O181 C180 1.278 . S
C182 O183 1.245 . S
C182 O194 1.232 . S
O183 C182 1.245 . S
O184 Co178 2.058 . S
O184 C210 1.269 . S
O185 Co177 2.074 . S
O185 C210 1.257 . S
H186 C211 0.930 . S
H187 C217 0.930 1_556 S
O188 Co177 2.093 1_556 S
O188 C180 1.224 . S
H189 C221 0.929 . S
H190 C223 0.930 . S
H191 C224 0.930 . S
H192 C222 0.929 . S
H193 C225 0.928 1_556 S
O194 Co178 2.057 . S
O194 C182 1.232 . S
H195 C214 0.929 . S
H196 C215 0.929 . S
H197 C227 0.931 . S
H198 C219 0.929 . S
H199 C228 0.930 . S
H200 C220 0.931 . S
O201 Co177 2.097 . S
O201 C229 1.214 . S
H202 C230 0.929 . S
H203 C231 0.929 . S
H204 C232 0.930 . S
H205 C233 0.929 . S
H206 C235 0.930 . S
H207 C212 0.930 . S
H208 C216 0.930 . S
O209 Co178 2.037 . S
O209 C229 1.234 . S
C210 O184 1.269 . S
C210 O185 1.257 . S
C211 H186 0.930 . S
C211 C214 1.388 . S
C211 C216 1.418 . S
C212 H207 0.930 . S
C212 C215 1.404 . S
C212 C216 1.353 . S
N213 Co178 2.145 . S
N213 C214 1.397 . S
N213 C215 1.334 . S
C214 H195 0.929 . S
C214 C211 1.388 . S
C214 N213 1.397 . S
C215 H196 0.929 . S
C215 C212 1.404 . S
C215 N213 1.334 . S
C216 H208 0.930 . S
C216 C211 1.418 . S
C216 C212 1.353 . S
C217 H187 0.930 1_554 S
C217 N218 1.330 . S
C217 C219 1.446 . S
N218 Co177 2.151 . S
N218 C217 1.330 . S
N218 C222 1.418 . S
C219 H198 0.929 . S
C219 C217 1.446 . S
C219 C220 1.332 . S
C220 H200 0.931 . S
C220 C219 1.332 . S
C220 C221 1.267 . S
C221 H189 0.929 . S
C221 C220 1.267 . S
C221 C222 1.251 . S
C222 H192 0.929 . S
C222 N218 1.418 . S
C222 C221 1.251 . S
C223 H190 0.930 . S
C223 C225 1.406 . S
C223 C228 1.261 . S
C224 H191 0.930 . S
C224 N226 1.325 . S
C224 C227 1.357 . S
C225 H193 0.928 1_554 S
C225 C223 1.406 . S
C225 N226 1.261 . S
N226 Co177 2.214 . S
N226 C224 1.325 . S
N226 C225 1.261 . S
C227 H197 0.931 . S
C227 C224 1.357 . S
C227 C228 1.312 . S
C228 H199 0.930 . S
C228 C223 1.261 . S
C228 C227 1.312 . S
C229 O201 1.214 . S
C229 O209 1.234 . S
C230 H202 0.929 . S
C230 C233 1.391 . S
C230 C235 1.391 1_556 S
C231 H203 0.929 . S
C231 C232 1.390 1_554 S
C231 N234 1.391 . S
C232 H204 0.930 . S
C232 C231 1.390 1_556 S
C232 C233 1.392 . S
C233 H205 0.929 . S
C233 C230 1.391 . S
C233 C232 1.392 . S
N234 Co178 2.257 . S
N234 C231 1.391 . S
N234 C235 1.388 . S
C235 H206 0.930 . S
C235 C230 1.391 1_554 S
C235 N234 1.388 . S
Co236 O238 2.143 . S
Co236 O244 2.074 . S
Co236 O247 2.093 . S
Co236 O260 2.097 . S
Co236 N277 2.151 . S
Co236 N285 2.214 . S
Co237 O238 2.160 . S
Co237 O243 2.058 . S
Co237 O253 2.057 . S
Co237 O268 2.037 . S
Co237 N272 2.145 . S
Co237 N293 2.257 . S
O238 Co236 2.143 . S
O238 Co237 2.160 . S
C239 O240 1.278 . S
C239 O247 1.224 . S
O240 C239 1.278 . S
C241 O242 1.245 . S
C241 O253 1.232 . S
O242 C241 1.245 . S
O243 Co237 2.058 . S
O243 C269 1.269 . S
O244 Co236 2.074 . S
O244 C269 1.257 . S
H245 C270 0.930 . S
H246 C276 0.930 . S
O247 Co236 2.093 . S
O247 C239 1.224 . S
H248 C280 0.929 . S
H249 C282 0.930 . S
H250 C283 0.930 . S
H251 C281 0.929 . S
H252 C284 0.928 . S
O253 Co237 2.057 . S
O253 C241 1.232 . S
H254 C273 0.929 . S
H255 C274 0.929 . S
H256 C286 0.931 . S
H257 C278 0.929 . S
H258 C287 0.930 . S
H259 C279 0.931 . S
O260 Co236 2.097 . S
O260 C288 1.214 . S
H261 C289 0.929 . S
H262 C290 0.929 . S
H263 C291 0.930 . S
H264 C292 0.929 . S
H265 C294 0.930 . S
H266 C271 0.930 . S
H267 C275 0.930 . S
O268 Co237 2.037 . S
O268 C288 1.234 . S
C269 O243 1.269 . S
C269 O244 1.257 . S
C270 H245 0.930 . S
C270 C273 1.388 . S
C270 C275 1.418 . S
C271 H266 0.930 . S
C271 C274 1.404 . S
C271 C275 1.353 . S
N272 Co237 2.145 . S
N272 C273 1.397 . S
N272 C274 1.334 . S
C273 H254 0.929 . S
C273 C270 1.388 . S
C273 N272 1.397 . S
C274 H255 0.929 . S
C274 C271 1.404 . S
C274 N272 1.334 . S
C275 H267 0.930 . S
C275 C270 1.418 . S
C275 C271 1.353 . S
C276 H246 0.930 . S
C276 N277 1.330 . S
C276 C278 1.446 . S
N277 Co236 2.151 . S
N277 C276 1.330 . S
N277 C281 1.418 . S
C278 H257 0.929 . S
C278 C276 1.446 . S
C278 C279 1.332 . S
C279 H259 0.931 . S
C279 C278 1.332 . S
C279 C280 1.267 . S
C280 H248 0.929 . S
C280 C279 1.267 . S
C280 C281 1.251 . S
C281 H251 0.929 . S
C281 N277 1.418 . S
C281 C280 1.251 . S
C282 H249 0.930 . S
C282 C284 1.406 . S
C282 C287 1.261 . S
C283 H250 0.930 . S
C283 N285 1.325 . S
C283 C286 1.357 . S
C284 H252 0.928 . S
C284 C282 1.406 . S
C284 N285 1.261 . S
N285 Co236 2.214 . S
N285 C283 1.325 . S
N285 C284 1.261 . S
C286 H256 0.931 . S
C286 C283 1.357 . S
C286 C287 1.312 . S
C287 H258 0.930 . S
C287 C282 1.261 . S
C287 C286 1.312 . S
C288 O260 1.214 . S
C288 O268 1.234 . S
C289 H261 0.929 . S
C289 C292 1.391 . S
C289 C294 1.391 . S
C290 H262 0.929 . S
C290 C291 1.390 . S
C290 N293 1.391 . S
C291 H263 0.930 . S
C291 C290 1.390 . S
C291 C292 1.392 . S
C292 H264 0.929 . S
C292 C289 1.391 . S
C292 C291 1.392 . S
N293 Co237 2.257 . S
N293 C290 1.391 . S
N293 C294 1.388 . S
C294 H265 0.930 . S
C294 C289 1.391 . S
C294 N293 1.388 . S
Co295 O297 2.143 . S
Co295 O303 2.074 . S
Co295 O306 2.093 . S
Co295 O319 2.097 . S
Co295 N336 2.151 . S
Co295 N344 2.214 . S
Co296 O297 2.160 . S
Co296 O302 2.058 . S
Co296 O312 2.057 . S
Co296 O327 2.037 . S
Co296 N331 2.145 . S
Co296 N352 2.257 . S
O297 Co295 2.143 . S
O297 Co296 2.160 . S
C298 O299 1.278 . S
C298 O306 1.224 . S
O299 C298 1.278 . S
C300 O301 1.245 . S
C300 O312 1.232 . S
O301 C300 1.245 . S
O302 Co296 2.058 . S
O302 C328 1.269 . S
O303 Co295 2.074 . S
O303 C328 1.257 . S
H304 C329 0.930 . S
H305 C335 0.930 . S
O306 Co295 2.093 . S
O306 C298 1.224 . S
H307 C339 0.929 . S
H308 C341 0.930 . S
H309 C342 0.930 . S
H310 C340 0.929 . S
H311 C343 0.928 . S
O312 Co296 2.057 . S
O312 C300 1.232 . S
H313 C332 0.929 . S
H314 C333 0.929 . S
H315 C345 0.931 . S
H316 C337 0.929 . S
H317 C346 0.930 . S
H318 C338 0.931 . S
O319 Co295 2.097 . S
O319 C347 1.214 . S
H320 C348 0.929 . S
H321 C349 0.929 . S
H322 C350 0.930 . S
H323 C351 0.929 . S
H324 C353 0.930 . S
H325 C330 0.930 . S
H326 C334 0.930 . S
O327 Co296 2.037 . S
O327 C347 1.234 . S
C328 O302 1.269 . S
C328 O303 1.257 . S
C329 H304 0.930 . S
C329 C332 1.388 . S
C329 C334 1.418 . S
C330 H325 0.930 . S
C330 C333 1.404 . S
C330 C334 1.353 . S
N331 Co296 2.145 . S
N331 C332 1.397 . S
N331 C333 1.334 . S
C332 H313 0.929 . S
C332 C329 1.388 . S
C332 N331 1.397 . S
C333 H314 0.929 . S
C333 C330 1.404 . S
C333 N331 1.334 . S
C334 H326 0.930 . S
C334 C329 1.418 . S
C334 C330 1.353 . S
C335 H305 0.930 . S
C335 N336 1.330 . S
C335 C337 1.446 . S
N336 Co295 2.151 . S
N336 C335 1.330 . S
N336 C340 1.418 . S
C337 H316 0.929 . S
C337 C335 1.446 . S
C337 C338 1.332 . S
C338 H318 0.931 . S
C338 C337 1.332 . S
C338 C339 1.267 . S
C339 H307 0.929 . S
C339 C338 1.267 . S
C339 C340 1.251 . S
C340 H310 0.929 . S
C340 N336 1.418 . S
C340 C339 1.251 . S
C341 H308 0.930 . S
C341 C343 1.406 . S
C341 C346 1.261 . S
C342 H309 0.930 . S
C342 N344 1.325 . S
C342 C345 1.357 . S
C343 H311 0.928 . S
C343 C341 1.406 . S
C343 N344 1.261 . S
N344 Co295 2.214 . S
N344 C342 1.325 . S
N344 C343 1.261 . S
C345 H315 0.931 . S
C345 C342 1.357 . S
C345 C346 1.312 . S
C346 H317 0.930 . S
C346 C341 1.261 . S
C346 C345 1.312 . S
C347 O319 1.214 . S
C347 O327 1.234 . S
C348 H320 0.929 . S
C348 C351 1.391 . S
C348 C353 1.391 . S
C349 H321 0.929 . S
C349 C350 1.390 . S
C349 N352 1.391 . S
C350 H322 0.930 . S
C350 C349 1.390 . S
C350 C351 1.392 . S
C351 H323 0.929 . S
C351 C348 1.391 . S
C351 C350 1.392 . S
N352 Co296 2.257 . S
N352 C349 1.391 . S
N352 C353 1.388 . S
C353 H324 0.930 . S
C353 C348 1.391 . S
C353 N352 1.388 . S
Co354 O356 2.143 . S
Co354 O362 2.074 . S
Co354 O365 2.093 . S
Co354 O378 2.097 . S
Co354 N395 2.151 . S
Co354 N403 2.214 . S
Co355 O356 2.160 . S
Co355 O361 2.058 . S
Co355 O371 2.057 . S
Co355 O386 2.037 . S
Co355 N390 2.145 . S
Co355 N411 2.257 . S
O356 Co354 2.143 . S
O356 Co355 2.160 . S
C357 O358 1.278 . S
C357 O365 1.224 . S
O358 C357 1.278 . S
C359 O360 1.245 . S
C359 O371 1.232 . S
O360 C359 1.245 . S
O361 Co355 2.058 . S
O361 C387 1.269 . S
O362 Co354 2.074 . S
O362 C387 1.257 . S
H363 C388 0.930 . S
H364 C394 0.930 . S
O365 Co354 2.093 . S
O365 C357 1.224 . S
H366 C398 0.929 . S
H367 C400 0.930 . S
H368 C401 0.930 . S
H369 C399 0.929 . S
H370 C402 0.928 . S
O371 Co355 2.057 . S
O371 C359 1.232 . S
H372 C391 0.929 . S
H373 C392 0.929 . S
H374 C404 0.931 . S
H375 C396 0.929 . S
H376 C405 0.930 . S
H377 C397 0.931 . S
O378 Co354 2.097 . S
O378 C406 1.214 . S
H379 C407 0.929 . S
H380 C408 0.929 . S
H381 C409 0.930 . S
H382 C410 0.929 . S
H383 C412 0.930 . S
H384 C389 0.930 . S
H385 C393 0.930 . S
O386 Co355 2.037 . S
O386 C406 1.234 . S
C387 O361 1.269 . S
C387 O362 1.257 . S
C388 H363 0.930 . S
C388 C391 1.388 . S
C388 C393 1.418 . S
C389 H384 0.930 . S
C389 C392 1.404 . S
C389 C393 1.353 . S
N390 Co355 2.145 . S
N390 C391 1.397 . S
N390 C392 1.334 . S
C391 H372 0.929 . S
C391 C388 1.388 . S
C391 N390 1.397 . S
C392 H373 0.929 . S
C392 C389 1.404 . S
C392 N390 1.334 . S
C393 H385 0.930 . S
C393 C388 1.418 . S
C393 C389 1.353 . S
C394 H364 0.930 . S
C394 N395 1.330 . S
C394 C396 1.446 . S
N395 Co354 2.151 . S
N395 C394 1.330 . S
N395 C399 1.418 . S
C396 H375 0.929 . S
C396 C394 1.446 . S
C396 C397 1.332 . S
C397 H377 0.931 . S
C397 C396 1.332 . S
C397 C398 1.267 . S
C398 H366 0.929 . S
C398 C397 1.267 . S
C398 C399 1.251 . S
C399 H369 0.929 . S
C399 N395 1.418 . S
C399 C398 1.251 . S
C400 H367 0.930 . S
C400 C402 1.406 . S
C400 C405 1.261 . S
C401 H368 0.930 . S
C401 N403 1.325 . S
C401 C404 1.357 . S
C402 H370 0.928 . S
C402 C400 1.406 . S
C402 N403 1.261 . S
N403 Co354 2.214 . S
N403 C401 1.325 . S
N403 C402 1.261 . S
C404 H374 0.931 . S
C404 C401 1.357 . S
C404 C405 1.312 . S
C405 H376 0.930 . S
C405 C400 1.261 . S
C405 C404 1.312 . S
C406 O378 1.214 . S
C406 O386 1.234 . S
C407 H379 0.929 . S
C407 C410 1.391 . S
C407 C412 1.391 . S
C408 H380 0.929 . S
C408 C409 1.390 . S
C408 N411 1.391 . S
C409 H381 0.930 . S
C409 C408 1.390 . S
C409 C410 1.392 . S
C410 H382 0.929 . S
C410 C407 1.391 . S
C410 C409 1.392 . S
N411 Co355 2.257 . S
N411 C408 1.391 . S
N411 C412 1.388 . S
C412 H383 0.930 . S
C412 C407 1.391 . S
C412 N411 1.388 . S
Co413 O415 2.143 . S
Co413 O421 2.074 1_554 S
Co413 O424 2.093 . S
Co413 O437 2.097 . S
Co413 N454 2.151 . S
Co413 N462 2.214 . S
Co414 O415 2.160 1_556 S
Co414 O420 2.058 . S
Co414 O430 2.057 . S
Co414 O445 2.037 1_556 S
Co414 N449 2.145 . S
Co414 N470 2.257 1_556 S
O415 Co413 2.143 . S
O415 Co414 2.160 1_554 S
C416 O417 1.278 . S
C416 O424 1.224 . S
O417 C416 1.278 . S
C418 O419 1.245 1_556 S
C418 O430 1.232 . S
O419 C418 1.245 1_554 S
O420 Co414 2.058 . S
O420 C446 1.269 . S
O421 Co413 2.074 1_556 S
O421 C446 1.257 . S
H422 C447 0.930 . S
H423 C453 0.930 . S
O424 Co413 2.093 . S
O424 C416 1.224 . S
H425 C457 0.929 1_556 S
H426 C459 0.930 . S
H427 C460 0.921 1_556 S
H428 C458 0.929 1_556 S
H429 C461 0.928 . S
O430 Co414 2.057 . S
O430 C418 1.232 . S
H431 C450 0.929 . S
H432 C451 0.929 . S
H433 C463 0.931 1_556 S
H434 C455 0.929 . S
H435 C464 0.930 . S
H436 C456 0.931 . S
O437 Co413 2.097 . S
O437 C465 1.214 . S
H438 C466 0.929 . S
H439 C467 0.929 . S
H440 C468 0.930 . S
H441 C469 0.929 . S
H442 C471 0.930 . S
H443 C448 0.930 . S
H444 C452 0.930 . S
O445 Co414 2.037 1_554 S
O445 C465 1.234 . S
C446 O420 1.269 . S
C446 O421 1.257 . S
C447 H422 0.930 . S
C447 C450 1.388 . S
C447 C452 1.418 . S
C448 H443 0.930 . S
C448 C451 1.404 . S
C448 C452 1.353 . S
N449 Co414 2.145 . S
N449 C450 1.397 . S
N449 C451 1.334 . S
C450 H431 0.929 . S
C450 C447 1.388 . S
C450 N449 1.397 . S
C451 H432 0.929 . S
C451 C448 1.404 . S
C451 N449 1.334 . S
C452 H444 0.930 . S
C452 C447 1.418 . S
C452 C448 1.353 . S
C453 H423 0.930 . S
C453 N454 1.330 . S
C453 C455 1.446 . S
N454 Co413 2.151 . S
N454 C453 1.330 . S
N454 C458 1.418 . S
C455 H434 0.929 . S
C455 C453 1.446 . S
C455 C456 1.332 . S
C456 H436 0.931 . S
C456 C455 1.332 . S
C456 C457 1.267 . S
C457 H425 0.929 1_554 S
C457 C456 1.267 . S
C457 C458 1.251 . S
C458 H428 0.929 1_554 S
C458 N454 1.418 . S
C458 C457 1.251 . S
C459 H426 0.930 . S
C459 C461 1.406 . S
C459 C464 1.261 . S
C460 H427 0.921 1_554 S
C460 N462 1.325 . S
C460 C463 1.357 . S
C461 H429 0.928 . S
C461 C459 1.406 . S
C461 N462 1.261 . S
N462 Co413 2.214 . S
N462 C460 1.325 . S
N462 C461 1.261 . S
C463 H433 0.931 1_554 S
C463 C460 1.357 . S
C463 C464 1.312 . S
C464 H435 0.930 . S
C464 C459 1.261 . S
C464 C463 1.312 . S
C465 O437 1.214 . S
C465 O445 1.234 . S
C466 H438 0.929 . S
C466 C469 1.391 . S
C466 C471 1.391 . S
C467 H439 0.929 . S
C467 C468 1.390 . S
C467 N470 1.391 . S
C468 H440 0.930 . S
C468 C467 1.390 . S
C468 C469 1.392 . S
C469 H441 0.929 . S
C469 C466 1.391 . S
C469 C468 1.392 . S
N470 Co414 2.257 1_554 S
N470 C467 1.391 . S
N470 C471 1.388 . S
C471 H442 0.930 . S
C471 C466 1.391 . S
C471 N470 1.388 . S
C472 C473 1.170 . S
C472 C474 1.380 . S
C473 C472 1.170 . S
C474 C472 1.380 . S
C474 C475 1.170 . S
C475 C474 1.170 . S
C476 C477 1.170 . S
C476 C478 1.380 . S
C477 C476 1.170 . S
C478 C476 1.380 . S
C478 C479 1.170 . S
C479 C478 1.170 . S
C480 C481 1.170 . S
C480 C482 1.380 . S
C481 C480 1.170 . S
C482 C480 1.380 . S
C482 C483 1.170 1_554 S
C483 C482 1.170 1_556 S
C484 C485 1.170 . S
C484 C486 1.380 . S
C485 C484 1.170 . S
C486 C484 1.380 . S
C486 C487 1.170 . S
C487 C486 1.170 . S
C488 C489 1.170 . S
C488 C490 1.380 . S
C489 C488 1.170 . S
C490 C488 1.380 . S
C490 C491 1.170 . S
C491 C490 1.170 . S
C492 C493 1.170 . S
C492 C494 1.380 . S
C493 C492 1.170 . S
C494 C492 1.380 . S
C494 C495 1.170 . S
C495 C494 1.170 . S
C496 C497 1.170 . S
C496 C498 1.380 . S
C497 C496 1.170 . S
C498 C496 1.380 . S
C498 C499 1.170 . S
C499 C498 1.170 . S
C500 C501 1.170 . S
C500 C502 1.380 . S
C501 C500 1.170 . S
C502 C500 1.380 . S
C502 C503 1.170 . S
C503 C502 1.170 . S
C504 C505 1.170 . S
C504 C506 1.380 1_565 S
C505 C504 1.170 . S
C506 C504 1.380 1_545 S
C506 C507 1.170 . S
C507 C506 1.170 . S
C508 C509 1.170 . S
C508 C510 1.380 1_655 S
C509 C508 1.170 . S
C510 C508 1.380 1_455 S
C510 C511 1.170 . S
C511 C510 1.170 . S
C512 C513 1.170 . S
C512 C514 1.380 1_565 S
C513 C512 1.170 . S
C514 C512 1.380 1_545 S
C514 C515 1.170 . S
C515 C514 1.170 . S
C516 C517 1.170 . S
C516 C518 1.380 1_655 S
C517 C516 1.170 . S
C518 C516 1.380 1_455 S
C518 C519 1.170 . S
C519 C518 1.170 . S
C520 C521 1.170 1_554 S
C520 C522 1.380 . S
C521 C520 1.170 1_556 S
C522 C520 1.380 . S
C522 C523 1.170 . S
C523 C522 1.170 . S
C524 C525 1.170 . S
C524 C526 1.380 . S
C525 C524 1.170 . S
C526 C524 1.380 . S
C526 C527 1.170 . S
C527 C526 1.170 . S
C528 C529 1.170 . S
C528 C530 1.380 . S
C529 C528 1.170 . S
C530 C528 1.380 . S
C530 C531 1.170 . S
C531 C530 1.170 . S
C532 C533 1.170 . S
C532 C534 1.380 . S
C533 C532 1.170 . S
C534 C532 1.380 . S
C534 C535 1.170 . S
C535 C534 1.170 . S
C473 C33 1.018 . S
C475 C387 1.030 . S
C477 C92 1.019 . S
C479 C446 1.029 . S
C481 C269 1.023 . S
C483 C151 1.036 . S
C485 C328 1.035 . S
C487 C210 1.017 . S
C489 C5 1.631 . S
C491 C300 1.625 . S
C493 C64 1.607 . S
C495 C359 1.637 . S
C497 C418 1.607 . S
C499 C123 1.637 . S
C501 C182 1.630 . S
C503 C241 1.626 . S
C505 C288 1.610 . S
C507 C52 1.596 . S
C509 C111 1.595 . S
C511 C347 1.601 . S
C513 C170 1.610 . S
C515 C406 1.595 . S
C517 C465 1.600 . S
C519 C229 1.595 . S
C521 C357 1.381 . S
C523 C3 1.363 . S
C525 C416 1.371 . S
C527 C62 1.380 . S
C529 C121 1.380 . S
C531 C239 1.360 . S
C533 C180 1.369 . S
C535 C298 1.381 . S
