# Generated by pormake.
# Topology umk, (4)-cn, num edge types: 1
# Building blocks:
#     Node 0, Type 0, BuildingBlock: KUFVIS_clean_sbu_0, # of connection points: 4
#     Node 1, Type 0, BuildingBlock: KUFVIS_clean_sbu_0, # of connection points: 4
#     Node 2, Type 0, BuildingBlock: KUFVIS_clean_sbu_0, # of connection points: 4
#     Node 3, Type 0, BuildingBlock: KUFVIS_clean_sbu_0, # of connection points: 4
#     Node 4, Type 0, BuildingBlock: KUFVIS_clean_sbu_0, # of connection points: 4
#     Node 5, Type 0, BuildingBlock: KUFVIS_clean_sbu_0, # of connection points: 4
#     Node 6, Type 0, BuildingBlock: KUFVIS_clean_sbu_0, # of connection points: 4
#     Node 7, Type 0, BuildingBlock: KUFVIS_clean_sbu_0, # of connection points: 4
#     Node 8, Type 0, BuildingBlock: KUFVIS_clean_sbu_0, # of connection points: 4
#     Node 9, Type 0, BuildingBlock: KUFVIS_clean_sbu_0, # of connection points: 4
#     Node 10, Type 0, BuildingBlock: KUFVIS_clean_sbu_0, # of connection points: 4
#     Node 11, Type 0, BuildingBlock: KUFVIS_clean_sbu_0, # of connection points: 4
#     Node 12, Type 0, BuildingBlock: KUFVIS_clean_sbu_0, # of connection points: 4
#     Node 13, Type 0, BuildingBlock: KUFVIS_clean_sbu_0, # of connection points: 4
#     Node 14, Type 0, BuildingBlock: KUFVIS_clean_sbu_0, # of connection points: 4
#     Node 15, Type 0, BuildingBlock: KUFVIS_clean_sbu_0, # of connection points: 4
#     Node 16, Type 0, BuildingBlock: KUFVIS_clean_sbu_0, # of connection points: 4
#     Node 17, Type 0, BuildingBlock: KUFVIS_clean_sbu_0, # of connection points: 4
#     Node 18, Type 0, BuildingBlock: KUFVIS_clean_sbu_0, # of connection points: 4
#     Node 19, Type 0, BuildingBlock: KUFVIS_clean_sbu_0, # of connection points: 4
#     Node 20, Type 0, BuildingBlock: KUFVIS_clean_sbu_0, # of connection points: 4
#     Node 21, Type 0, BuildingBlock: KUFVIS_clean_sbu_0, # of connection points: 4
#     Node 22, Type 0, BuildingBlock: KUFVIS_clean_sbu_0, # of connection points: 4
#     Node 23, Type 0, BuildingBlock: KUFVIS_clean_sbu_0, # of connection points: 4
#     Edge 24, Type (0, 0), BuildingBlock: XIVTED_clean_linker_0, # of connection points: 2
#     Edge 25, Type (0, 0), BuildingBlock: XIVTED_clean_linker_0, # of connection points: 2
#     Edge 26, Type (0, 0), BuildingBlock: XIVTED_clean_linker_0, # of connection points: 2
#     Edge 27, Type (0, 0), BuildingBlock: XIVTED_clean_linker_0, # of connection points: 2
#     Edge 28, Type (0, 0), BuildingBlock: XIVTED_clean_linker_0, # of connection points: 2
#     Edge 29, Type (0, 0), BuildingBlock: XIVTED_clean_linker_0, # of connection points: 2
#     Edge 30, Type (0, 0), BuildingBlock: XIVTED_clean_linker_0, # of connection points: 2
#     Edge 31, Type (0, 0), BuildingBlock: XIVTED_clean_linker_0, # of connection points: 2
#     Edge 32, Type (0, 0), BuildingBlock: XIVTED_clean_linker_0, # of connection points: 2
#     Edge 33, Type (0, 0), BuildingBlock: XIVTED_clean_linker_0, # of connection points: 2
#     Edge 34, Type (0, 0), BuildingBlock: XIVTED_clean_linker_0, # of connection points: 2
#     Edge 35, Type (0, 0), BuildingBlock: XIVTED_clean_linker_0, # of connection points: 2
#     Edge 36, Type (0, 0), BuildingBlock: XIVTED_clean_linker_0, # of connection points: 2
#     Edge 37, Type (0, 0), BuildingBlock: XIVTED_clean_linker_0, # of connection points: 2
#     Edge 38, Type (0, 0), BuildingBlock: XIVTED_clean_linker_0, # of connection points: 2
#     Edge 39, Type (0, 0), BuildingBlock: XIVTED_clean_linker_0, # of connection points: 2
#     Edge 40, Type (0, 0), BuildingBlock: XIVTED_clean_linker_0, # of connection points: 2
#     Edge 41, Type (0, 0), BuildingBlock: XIVTED_clean_linker_0, # of connection points: 2
#     Edge 42, Type (0, 0), BuildingBlock: XIVTED_clean_linker_0, # of connection points: 2
#     Edge 43, Type (0, 0), BuildingBlock: XIVTED_clean_linker_0, # of connection points: 2
#     Edge 44, Type (0, 0), BuildingBlock: XIVTED_clean_linker_0, # of connection points: 2
#     Edge 45, Type (0, 0), BuildingBlock: XIVTED_clean_linker_0, # of connection points: 2
#     Edge 46, Type (0, 0), BuildingBlock: XIVTED_clean_linker_0, # of connection points: 2
#     Edge 47, Type (0, 0), BuildingBlock: XIVTED_clean_linker_0, # of connection points: 2
#     Edge 48, Type (0, 0), BuildingBlock: XIVTED_clean_linker_0, # of connection points: 2
#     Edge 49, Type (0, 0), BuildingBlock: XIVTED_clean_linker_0, # of connection points: 2
#     Edge 50, Type (0, 0), BuildingBlock: XIVTED_clean_linker_0, # of connection points: 2
#     Edge 51, Type (0, 0), BuildingBlock: XIVTED_clean_linker_0, # of connection points: 2
#     Edge 52, Type (0, 0), BuildingBlock: XIVTED_clean_linker_0, # of connection points: 2
#     Edge 53, Type (0, 0), BuildingBlock: XIVTED_clean_linker_0, # of connection points: 2
#     Edge 54, Type (0, 0), BuildingBlock: XIVTED_clean_linker_0, # of connection points: 2
#     Edge 55, Type (0, 0), BuildingBlock: XIVTED_clean_linker_0, # of connection points: 2
#     Edge 56, Type (0, 0), BuildingBlock: XIVTED_clean_linker_0, # of connection points: 2
#     Edge 57, Type (0, 0), BuildingBlock: XIVTED_clean_linker_0, # of connection points: 2
#     Edge 58, Type (0, 0), BuildingBlock: XIVTED_clean_linker_0, # of connection points: 2
#     Edge 59, Type (0, 0), BuildingBlock: XIVTED_clean_linker_0, # of connection points: 2
#     Edge 60, Type (0, 0), BuildingBlock: XIVTED_clean_linker_0, # of connection points: 2
#     Edge 61, Type (0, 0), BuildingBlock: XIVTED_clean_linker_0, # of connection points: 2
#     Edge 62, Type (0, 0), BuildingBlock: XIVTED_clean_linker_0, # of connection points: 2
#     Edge 63, Type (0, 0), BuildingBlock: XIVTED_clean_linker_0, # of connection points: 2
#     Edge 64, Type (0, 0), BuildingBlock: XIVTED_clean_linker_0, # of connection points: 2
#     Edge 65, Type (0, 0), BuildingBlock: XIVTED_clean_linker_0, # of connection points: 2
#     Edge 66, Type (0, 0), BuildingBlock: XIVTED_clean_linker_0, # of connection points: 2
#     Edge 67, Type (0, 0), BuildingBlock: XIVTED_clean_linker_0, # of connection points: 2
#     Edge 68, Type (0, 0), BuildingBlock: XIVTED_clean_linker_0, # of connection points: 2
#     Edge 69, Type (0, 0), BuildingBlock: XIVTED_clean_linker_0, # of connection points: 2
#     Edge 70, Type (0, 0), BuildingBlock: XIVTED_clean_linker_0, # of connection points: 2
#     Edge 71, Type (0, 0), BuildingBlock: XIVTED_clean_linker_0, # of connection points: 2
# Relax obj value: 0.071
# Max RMSD: 0.061
# Mean RMSD: 0.061
data_MOF--net-umk--node1-KUFVIS_clean_sbu_0--edge1-XIVTED_clean_linker_0
_symmetry_space_group_name_H-M    P1
_symmetry_Int_Tables_number       1
_symmetry_cell_setting            triclinic
loop_
_symmetry_equiv_pos_as_xyz
'x, y, z'
_cell_length_a     66.743611
_cell_length_b     66.747271
_cell_length_c     42.919788
_cell_angle_alpha  89.990248
_cell_angle_beta   90.003214
_cell_angle_gamma 119.99749
loop_
_atom_site_label
_atom_site_type_symbol
_atom_site_fract_x
_atom_site_fract_y
_atom_site_fract_z
_atom_type_partial_charge
Mn0 Mn 0.33592 0.46896 0.07133 0.0
Mn1 Mn 0.38239 0.50283 0.11588 0.0
C2 C 0.36883 0.49902 0.04858 0.0
C3 C 0.30003 0.46129 0.05207 0.0
C4 C 0.36863 0.45362 0.09656 0.0
O5 O 0.32343 0.4613 0.11602 0.0
O6 O 0.35401 0.48966 0.14171 0.0
C7 C 0.37234 0.54021 0.13081 0.0
N8 N 0.38687 0.53336 0.11889 0.0
C9 C 0.4158 0.57269 0.10748 0.0
C10 C 0.40123 0.58019 0.11988 0.0
C11 C 0.37937 0.56386 0.13148 0.0
C12 C 0.40783 0.5489 0.10736 0.0
H13 H 0.35552 0.52771 0.13966 0.0
C14 C 0.33304 0.47306 0.14054 0.0
O15 O 0.30549 0.44516 0.05346 0.0
O16 O 0.31516 0.48162 0.06211 0.0
N17 N 0.41121 0.51694 0.09384 0.0
C18 C 0.42297 0.50684 0.08202 0.0
C19 C 0.44507 0.52078 0.06917 0.0
C20 C 0.45499 0.54494 0.06898 0.0
C21 C 0.44274 0.55497 0.08178 0.0
C22 C 0.42083 0.54022 0.09441 0.0
H23 H 0.41558 0.48831 0.08234 0.0
O24 O 0.35335 0.48252 0.03148 0.0
O25 O 0.3642 0.49778 0.07809 0.0
O26 O 0.35257 0.45037 0.0775 0.0
O27 O 0.3795 0.47185 0.1133 0.0
C28 C 0.4513 0.57902 0.08217 0.0
C29 C 0.43779 0.58786 0.09487 0.0
H30 H 0.40658 0.59841 0.1204 0.0
H31 H 0.36797 0.5695 0.14092 0.0
H32 H 0.45445 0.5129 0.05945 0.0
H33 H 0.47197 0.55562 0.05886 0.0
H34 H 0.46812 0.59084 0.07239 0.0
H35 H 0.44443 0.60636 0.09465 0.0
Mn36 Mn 0.86995 0.33605 0.57373 0.0
Mn37 Mn 0.88524 0.38419 0.61586 0.0
C38 C 0.87601 0.36958 0.54894 0.0
C39 C 0.83951 0.30103 0.55492 0.0
C40 C 0.91825 0.36657 0.59974 0.0
O41 O 0.86358 0.32442 0.61885 0.0
O42 O 0.86802 0.35655 0.64266 0.0
C43 C 0.83868 0.37765 0.62796 0.0
N44 N 0.86055 0.39087 0.61673 0.0
C45 C 0.85296 0.42131 0.60239 0.0
C46 C 0.83043 0.40812 0.61413 0.0
C47 C 0.82323 0.38615 0.62684 0.0
C48 C 0.86755 0.41189 0.60406 0.0
H49 H 0.83306 0.36071 0.63756 0.0
C50 C 0.86209 0.3351 0.64264 0.0
O51 O 0.86028 0.30414 0.55765 0.0
O52 O 0.83658 0.31795 0.56364 0.0
N53 N 0.90195 0.41245 0.59289 0.0
C54 C 0.92406 0.42276 0.58191 0.0
C55 C 0.93386 0.44479 0.56823 0.0
C56 C 0.92095 0.45612 0.56632 0.0
C57 C 0.89837 0.44534 0.57821 0.0
C58 C 0.88958 0.42345 0.59178 0.0
H59 H 0.93419 0.41428 0.58359 0.0
O60 O 0.87587 0.35303 0.53296 0.0
O61 O 0.87199 0.36567 0.57849 0.0
O62 O 0.90492 0.35033 0.58117 0.0
O63 O 0.91189 0.37887 0.61517 0.0
C64 C 0.88415 0.45536 0.57683 0.0
C65 C 0.86141 0.44329 0.58873 0.0
H66 H 0.81846 0.41461 0.61328 0.0
H67 H 0.80581 0.37579 0.63573 0.0
H68 H 0.95133 0.45302 0.55919 0.0
H69 H 0.9285 0.47303 0.55553 0.0
H70 H 0.89043 0.47221 0.56631 0.0
H71 H 0.85053 0.45102 0.58713 0.0
Mn72 Mn 0.53724 0.86956 0.07344 0.0
Mn73 Mn 0.50487 0.88369 0.1186 0.0
C74 C 0.5091 0.8757 0.05086 0.0
C75 C 0.54192 0.83973 0.05248 0.0
C76 C 0.55513 0.91731 0.10143 0.0
O77 O 0.5433 0.86241 0.11776 0.0
O78 O 0.51591 0.86618 0.14362 0.0
C79 C 0.46521 0.83686 0.13047 0.0
N80 N 0.47357 0.85886 0.11989 0.0
C81 C 0.43525 0.85129 0.10746 0.0
C82 C 0.42621 0.8286 0.11847 0.0
C83 C 0.44127 0.82134 0.1299 0.0
C84 C 0.45926 0.86594 0.10848 0.0
H85 H 0.47675 0.83121 0.13918 0.0
C86 C 0.5315 0.86039 0.14218 0.0
O87 O 0.55948 0.86054 0.05548 0.0
O88 O 0.52211 0.8364 0.06209 0.0
N89 N 0.4928 0.90062 0.09733 0.0
C90 C 0.50433 0.92289 0.08691 0.0
C91 C 0.49178 0.93281 0.07462 0.0
C92 C 0.46752 0.91984 0.07349 0.0
C93 C 0.45602 0.89705 0.08465 0.0
C94 C 0.46943 0.88815 0.09687 0.0
H95 H 0.52295 0.93307 0.08804 0.0
O96 O 0.52532 0.87606 0.03381 0.0
O97 O 0.50959 0.87118 0.08011 0.0
O98 O 0.55781 0.90442 0.0818 0.0
O99 O 0.53673 0.91051 0.11766 0.0
C100 C 0.43177 0.88276 0.08393 0.0
C101 C 0.4214 0.85985 0.09515 0.0
H102 H 0.40775 0.81657 0.11805 0.0
H103 H 0.43444 0.80382 0.13827 0.0
H104 H 0.50079 0.95044 0.06613 0.0
H105 H 0.45792 0.92757 0.06401 0.0
H106 H 0.42096 0.88912 0.07445 0.0
H107 H 0.40278 0.84892 0.09406 0.0
Mn108 Mn 0.66917 0.53337 0.57321 0.0
Mn109 Mn 0.62148 0.50144 0.61656 0.0
C110 C 0.63518 0.50595 0.54927 0.0
C111 C 0.70388 0.5375 0.55389 0.0
C112 C 0.63953 0.55201 0.59964 0.0
O113 O 0.68129 0.53896 0.61812 0.0
O114 O 0.6494 0.51154 0.64264 0.0
C115 C 0.62716 0.46089 0.62857 0.0
N116 N 0.61415 0.46987 0.61765 0.0
C117 C 0.58287 0.43202 0.60444 0.0
C118 C 0.59583 0.42233 0.61584 0.0
C119 C 0.61812 0.43684 0.62783 0.0
C120 C 0.59283 0.4561 0.60565 0.0
H121 H 0.64431 0.472 0.63768 0.0
C122 C 0.67087 0.52695 0.64214 0.0
O123 O 0.70095 0.55527 0.55651 0.0
O124 O 0.68694 0.51776 0.56297 0.0
N125 N 0.59298 0.49028 0.59433 0.0
C126 C 0.5829 0.50239 0.58368 0.0
C127 C 0.56054 0.49044 0.57095 0.0
C128 C 0.54865 0.46617 0.56963 0.0
C129 C 0.55926 0.45405 0.581 0.0
C130 C 0.5815 0.46689 0.59368 0.0
H131 H 0.59177 0.52102 0.585 0.0
O132 O 0.65168 0.52204 0.53283 0.0
O133 O 0.63942 0.50606 0.57875 0.0
O134 O 0.65531 0.55442 0.58056 0.0
O135 O 0.62742 0.53364 0.61572 0.0
C136 C 0.5487 0.42976 0.5801 0.0
C137 C 0.56056 0.41876 0.59159 0.0
H138 H 0.58892 0.40379 0.61531 0.0
H139 H 0.62829 0.42951 0.63648 0.0
H140 H 0.55245 0.49991 0.56228 0.0
H141 H 0.5314 0.45703 0.55982 0.0
H142 H 0.53156 0.41938 0.57029 0.0
H143 H 0.55239 0.40009 0.59038 0.0
Mn144 Mn 0.13819 0.66879 0.07404 0.0
Mn145 Mn 0.124 0.62135 0.1172 0.0
C146 C 0.13264 0.63521 0.04996 0.0
C147 C 0.16808 0.70385 0.05448 0.0
C148 C 0.09023 0.638 0.10088 0.0
O149 O 0.14466 0.68093 0.11891 0.0
O150 O 0.14107 0.64937 0.14338 0.0
C151 C 0.17094 0.6288 0.12899 0.0
N152 N 0.14905 0.61518 0.11807 0.0
C153 C 0.15718 0.58505 0.10414 0.0
C154 C 0.17975 0.59865 0.11556 0.0
C155 C 0.18669 0.62066 0.12791 0.0
C156 C 0.14228 0.59411 0.10576 0.0
H157 H 0.17636 0.64577 0.13833 0.0
C158 C 0.14658 0.67069 0.14291 0.0
O159 O 0.14717 0.70038 0.05734 0.0
O160 O 0.17145 0.68728 0.06352 0.0
N161 N 0.10749 0.59279 0.09484 0.0
C162 C 0.08527 0.58204 0.08419 0.0
C163 C 0.07569 0.5599 0.07093 0.0
C164 C 0.08893 0.54891 0.06907 0.0
C165 C 0.11162 0.56015 0.08063 0.0
C166 C 0.12018 0.58213 0.09381 0.0
H167 H 0.0749 0.59025 0.08582 0.0
O168 O 0.13232 0.6514 0.03363 0.0
O169 O 0.13677 0.63949 0.07942 0.0
O170 O 0.10322 0.65404 0.08184 0.0
O171 O 0.097 0.62614 0.11657 0.0
C172 C 0.12616 0.55049 0.07928 0.0
C173 C 0.14897 0.563 0.09085 0.0
H174 H 0.19195 0.59244 0.11473 0.0
H175 H 0.20413 0.63133 0.13656 0.0
H176 H 0.05815 0.55131 0.06215 0.0
H177 H 0.08156 0.53191 0.0586 0.0
H178 H 0.12007 0.53359 0.06903 0.0
H179 H 0.16009 0.55553 0.08929 0.0
Mn180 Mn 0.47149 0.13561 0.57289 0.0
Mn181 Mn 0.50414 0.12142 0.61749 0.0
C182 C 0.49955 0.12963 0.54985 0.0
C183 C 0.4666 0.16542 0.55233 0.0
C184 C 0.45394 0.08765 0.60021 0.0
O185 O 0.46546 0.14253 0.61729 0.0
O186 O 0.4927 0.1384 0.64296 0.0
C187 C 0.54331 0.16843 0.62991 0.0
N188 N 0.53528 0.14657 0.61901 0.0
C189 C 0.5738 0.15492 0.60617 0.0
C190 C 0.5825 0.17747 0.61753 0.0
C191 C 0.56718 0.18427 0.62934 0.0
C192 C 0.54984 0.13992 0.60727 0.0
H193 H 0.53157 0.17374 0.63887 0.0
C194 C 0.47713 0.14423 0.64171 0.0
O195 O 0.44911 0.14457 0.55529 0.0
O196 O 0.48648 0.1688 0.56176 0.0
N197 N 0.51664 0.10499 0.59594 0.0
C198 C 0.50543 0.08272 0.58548 0.0
C199 C 0.51828 0.07324 0.57285 0.0
C200 C 0.54252 0.08662 0.57146 0.0
C201 C 0.5537 0.10935 0.58286 0.0
C202 C 0.53999 0.1178 0.59542 0.0
H203 H 0.48684 0.07225 0.58673 0.0
O204 O 0.48324 0.1293 0.53305 0.0
O205 O 0.49924 0.13407 0.57919 0.0
O206 O 0.45105 0.10072 0.58111 0.0
O207 O 0.47244 0.09435 0.61616 0.0
C208 C 0.57788 0.12402 0.58197 0.0
C209 C 0.58791 0.14683 0.59346 0.0
H210 H 0.6009 0.18975 0.6171 0.0
H211 H 0.57375 0.20169 0.63798 0.0
H212 H 0.50953 0.05566 0.5642 0.0
H213 H 0.55236 0.07932 0.56146 0.0
H214 H 0.58891 0.11801 0.57218 0.0
H215 H 0.6065 0.15804 0.59229 0.0
Mn216 Mn 0.53536 0.6681 0.93171 0.0
Mn217 Mn 0.50315 0.62065 0.88798 0.0
C218 C 0.50652 0.63453 0.95491 0.0
C219 C 0.54017 0.70316 0.95076 0.0
C220 C 0.55309 0.63716 0.9069 0.0
O221 O 0.54207 0.68038 0.88693 0.0
O222 O 0.51513 0.64865 0.86148 0.0
C223 C 0.46429 0.62832 0.87244 0.0
N224 N 0.47208 0.6147 0.88485 0.0
C225 C 0.4333 0.58476 0.89698 0.0
C226 C 0.42484 0.59839 0.88407 0.0
C227 C 0.44042 0.6203 0.87186 0.0
C228 C 0.45727 0.59369 0.89695 0.0
H229 H 0.47621 0.64519 0.86313 0.0
C230 C 0.53074 0.67005 0.86243 0.0
O231 O 0.55761 0.6996 0.94899 0.0
O232 O 0.52043 0.68665 0.941 0.0
N233 N 0.49022 0.59221 0.91078 0.0
C234 C 0.50122 0.58156 0.92336 0.0
C235 C 0.48813 0.55963 0.93707 0.0
C236 C 0.46387 0.54876 0.93738 0.0
C237 C 0.45292 0.55989 0.92388 0.0
C238 C 0.46686 0.58169 0.91043 0.0
H239 H 0.51984 0.58972 0.923 0.0
O240 O 0.52271 0.65055 0.97181 0.0
O241 O 0.50752 0.63892 0.92537 0.0
O242 O 0.55578 0.65335 0.92541 0.0
O243 O 0.53474 0.62516 0.89077 0.0
C244 C 0.42872 0.55035 0.9236 0.0
C245 C 0.41892 0.56282 0.91029 0.0
H246 H 0.40645 0.59228 0.88364 0.0
H247 H 0.43404 0.63098 0.86203 0.0
H248 H 0.49671 0.55112 0.94737 0.0
H249 H 0.45384 0.53192 0.94818 0.0
H250 H 0.4175 0.53357 0.93393 0.0
H251 H 0.40032 0.55546 0.91065 0.0
Mn252 Mn 0.87001 0.53402 0.431 0.0
Mn253 Mn 0.88448 0.50218 0.38525 0.0
C254 C 0.87605 0.50566 0.45304 0.0
C255 C 0.84012 0.53855 0.45205 0.0
C256 C 0.91793 0.55226 0.4034 0.0
O257 O 0.86313 0.54056 0.3868 0.0
O258 O 0.86714 0.51351 0.36039 0.0
C259 C 0.83774 0.46267 0.37248 0.0
N260 N 0.85965 0.4709 0.38331 0.0
C261 C 0.85198 0.43245 0.39509 0.0
C262 C 0.82937 0.42353 0.38383 0.0
C263 C 0.8222 0.43872 0.37259 0.0
C264 C 0.86665 0.45647 0.39451 0.0
H265 H 0.83216 0.4743 0.36392 0.0
C266 C 0.86133 0.52907 0.36213 0.0
O267 O 0.86096 0.5561 0.44935 0.0
O268 O 0.83678 0.51881 0.44209 0.0
N269 N 0.90127 0.48988 0.40632 0.0
C270 C 0.92349 0.50129 0.41696 0.0
C271 C 0.93332 0.48861 0.42906 0.0
C272 C 0.92032 0.46434 0.42978 0.0
C273 C 0.89759 0.45296 0.41839 0.0
C274 C 0.88878 0.46651 0.40636 0.0
H275 H 0.93369 0.51992 0.41615 0.0
O276 O 0.87629 0.52169 0.4704 0.0
O277 O 0.87169 0.50645 0.4238 0.0
O278 O 0.9049 0.55469 0.42305 0.0
O279 O 0.91128 0.53404 0.38685 0.0
C280 C 0.88328 0.42872 0.41868 0.0
C281 C 0.86044 0.41848 0.40721 0.0
H282 H 0.81734 0.40508 0.38389 0.0
H283 H 0.80474 0.43198 0.36402 0.0
H284 H 0.9509 0.49751 0.43772 0.0
H285 H 0.92798 0.45463 0.43912 0.0
H286 H 0.88957 0.4178 0.42801 0.0
H287 H 0.8495 0.39984 0.40796 0.0
Mn288 Mn 0.33868 0.86911 0.93202 0.0
Mn289 Mn 0.38597 0.88373 0.88825 0.0
C290 C 0.37266 0.87544 0.95569 0.0
C291 C 0.304 0.83897 0.95213 0.0
C292 C 0.36878 0.91705 0.90462 0.0
O293 O 0.32615 0.86209 0.88738 0.0
O294 O 0.35781 0.86628 0.86245 0.0
C295 C 0.37905 0.83698 0.87654 0.0
N296 N 0.39251 0.85894 0.88734 0.0
C297 C 0.42304 0.85131 0.90098 0.0
C298 C 0.40959 0.82868 0.88972 0.0
C299 C 0.38746 0.82146 0.87756 0.0
C300 C 0.41371 0.86598 0.89942 0.0
H301 H 0.362 0.83135 0.86732 0.0
C302 C 0.33637 0.86032 0.86326 0.0
O303 O 0.30708 0.85972 0.94912 0.0
O304 O 0.32075 0.8359 0.94301 0.0
N305 N 0.41466 0.90062 0.91024 0.0
C306 C 0.42526 0.92287 0.92073 0.0
C307 C 0.4475 0.93271 0.93376 0.0
C308 C 0.45873 0.91971 0.93556 0.0
C309 C 0.44765 0.89698 0.92416 0.0
C310 C 0.42556 0.88815 0.9112 0.0
H311 H 0.41684 0.93306 0.91916 0.0
O312 O 0.35644 0.87557 0.97218 0.0
O313 O 0.36817 0.87101 0.92631 0.0
O314 O 0.35287 0.90398 0.92378 0.0
O315 O 0.38078 0.91046 0.88891 0.0
C316 C 0.45756 0.88266 0.92547 0.0
C317 C 0.44521 0.8598 0.91405 0.0
H318 H 0.41601 0.81664 0.8905 0.0
H319 H 0.37692 0.80397 0.86901 0.0
H320 H 0.45596 0.95029 0.94242 0.0
H321 H 0.4758 0.92729 0.94587 0.0
H322 H 0.47455 0.88897 0.93555 0.0
H323 H 0.45287 0.84886 0.91557 0.0
Mn324 Mn 0.47122 0.33581 0.43025 0.0
Mn325 Mn 0.50295 0.38293 0.38581 0.0
C326 C 0.49896 0.37001 0.45336 0.0
C327 C 0.4671 0.30126 0.45019 0.0
C328 C 0.45258 0.36534 0.40343 0.0
O329 O 0.46517 0.32313 0.38565 0.0
O330 O 0.4924 0.35467 0.36031 0.0
C331 C 0.54316 0.37674 0.37346 0.0
N332 N 0.53443 0.39 0.3843 0.0
C333 C 0.57251 0.42118 0.39679 0.0
C334 C 0.58194 0.40795 0.38547 0.0
C335 C 0.56718 0.38559 0.37388 0.0
C336 C 0.54844 0.41139 0.3959 0.0
H337 H 0.53186 0.35953 0.36466 0.0
C338 C 0.47696 0.33323 0.36135 0.0
O339 O 0.44936 0.30426 0.44766 0.0
O340 O 0.4868 0.31804 0.44071 0.0
N341 N 0.51453 0.41172 0.40744 0.0
C342 C 0.50267 0.4221 0.41795 0.0
C343 C 0.51489 0.44457 0.43028 0.0
C344 C 0.53917 0.45626 0.43132 0.0
C345 C 0.55102 0.44535 0.42005 0.0
C346 C 0.53792 0.42302 0.40777 0.0
H347 H 0.48404 0.41337 0.41687 0.0
O348 O 0.48297 0.35376 0.47021 0.0
O349 O 0.49857 0.36542 0.42397 0.0
O350 O 0.45024 0.34972 0.42276 0.0
O351 O 0.47084 0.37723 0.38706 0.0
C352 C 0.57531 0.45572 0.42066 0.0
C353 C 0.58604 0.44358 0.40924 0.0
H354 H 0.60045 0.41471 0.38575 0.0
H355 H 0.5743 0.37522 0.36529 0.0
H356 H 0.50562 0.45289 0.43886 0.0
H357 H 0.54852 0.47358 0.44086 0.0
H358 H 0.58588 0.47292 0.43018 0.0
H359 H 0.6047 0.45161 0.41022 0.0
Mn360 Mn 0.13831 0.47045 0.93149 0.0
Mn361 Mn 0.12581 0.50417 0.88663 0.0
C362 C 0.13443 0.49992 0.95428 0.0
C363 C 0.1667 0.46315 0.95117 0.0
C364 C 0.09072 0.45451 0.90454 0.0
O365 O 0.14392 0.46334 0.88684 0.0
O366 O 0.14242 0.4922 0.86147 0.0
C367 C 0.17316 0.54276 0.87429 0.0
N368 N 0.15133 0.5351 0.88508 0.0
C369 C 0.16015 0.57388 0.89708 0.0
C370 C 0.18268 0.58222 0.88588 0.0
C371 C 0.18924 0.56657 0.87456 0.0
C372 C 0.14493 0.54996 0.8964 0.0
H373 H 0.17825 0.53078 0.86563 0.0
C374 C 0.14678 0.4756 0.86259 0.0
O375 O 0.14522 0.44682 0.94929 0.0
O376 O 0.17168 0.48351 0.94147 0.0
N377 N 0.10976 0.51714 0.90802 0.0
C378 C 0.08747 0.50627 0.91841 0.0
C379 C 0.07817 0.51947 0.93038 0.0
C380 C 0.09175 0.54369 0.93119 0.0
C381 C 0.11455 0.55451 0.92009 0.0
C382 C 0.12282 0.54047 0.90817 0.0
H383 H 0.07679 0.48769 0.91745 0.0
O384 O 0.1336 0.48348 0.97133 0.0
O385 O 0.13833 0.49901 0.92488 0.0
O386 O 0.10322 0.45151 0.92444 0.0
O387 O 0.09824 0.47272 0.88771 0.0
C388 C 0.12943 0.57867 0.9205 0.0
C389 C 0.15226 0.58834 0.9092 0.0
H390 H 0.19513 0.60057 0.88602 0.0
H391 H 0.20663 0.57286 0.86602 0.0
H392 H 0.06053 0.51099 0.93882 0.0
H393 H 0.08447 0.55379 0.94031 0.0
H394 H 0.12357 0.58995 0.92978 0.0
H395 H 0.16363 0.60691 0.91001 0.0
Mn396 Mn 0.66982 0.13488 0.43243 0.0
Mn397 Mn 0.62294 0.12028 0.38779 0.0
C398 C 0.63566 0.12885 0.45532 0.0
C399 C 0.70444 0.1648 0.453 0.0
C400 C 0.63983 0.08689 0.40515 0.0
O401 O 0.68275 0.14181 0.38794 0.0
O402 O 0.6513 0.13759 0.36235 0.0
C403 C 0.62997 0.16699 0.37532 0.0
N404 N 0.61643 0.14508 0.38624 0.0
C405 C 0.58571 0.15268 0.39872 0.0
C406 C 0.59925 0.17528 0.38735 0.0
C407 C 0.62152 0.18248 0.37572 0.0
C408 C 0.59511 0.13806 0.39785 0.0
H409 H 0.64711 0.17259 0.36645 0.0
C410 C 0.67272 0.14352 0.36356 0.0
O411 O 0.70116 0.14397 0.4501 0.0
O412 O 0.68792 0.16811 0.44347 0.0
N413 N 0.59411 0.10351 0.40947 0.0
C414 C 0.58347 0.08133 0.42022 0.0
C415 C 0.56107 0.07147 0.43271 0.0
C416 C 0.54973 0.0844 0.43369 0.0
C417 C 0.56092 0.10711 0.42222 0.0
C418 C 0.58317 0.11595 0.40981 0.0
H419 H 0.59194 0.07117 0.4192 0.0
O420 O 0.65163 0.1286 0.47224 0.0
O421 O 0.64048 0.13317 0.42599 0.0
O422 O 0.65557 0.1 0.42444 0.0
O423 O 0.62803 0.09349 0.38901 0.0
C424 C 0.55093 0.12137 0.42277 0.0
C425 C 0.56337 0.14419 0.41122 0.0
H426 H 0.59279 0.18728 0.38763 0.0
H427 H 0.63213 0.19994 0.36708 0.0
H428 H 0.55252 0.05391 0.44145 0.0
H429 H 0.53244 0.07671 0.44329 0.0
H430 H 0.53379 0.11504 0.43237 0.0
H431 H 0.55564 0.15509 0.41219 0.0
Mn432 Mn 0.66988 0.53444 0.93139 0.0
Mn433 Mn 0.62255 0.5025 0.88736 0.0
C434 C 0.63575 0.50684 0.95485 0.0
C435 C 0.70448 0.5386 0.95129 0.0
C436 C 0.64024 0.55296 0.90449 0.0
O437 O 0.68241 0.54017 0.8867 0.0
O438 O 0.65069 0.51291 0.86165 0.0
C439 C 0.62862 0.46221 0.87516 0.0
N440 N 0.61546 0.47101 0.88609 0.0
C441 C 0.5843 0.433 0.89896 0.0
C442 C 0.59745 0.4235 0.88758 0.0
C443 C 0.61975 0.43819 0.87575 0.0
C444 C 0.59411 0.45706 0.89788 0.0
H445 H 0.64578 0.47346 0.86613 0.0
C446 C 0.67216 0.52829 0.86252 0.0
O447 O 0.70151 0.55635 0.94857 0.0
O448 O 0.68765 0.51888 0.942 0.0
N449 N 0.59387 0.49104 0.90923 0.0
C450 C 0.58357 0.50297 0.91978 0.0
C451 C 0.56115 0.49082 0.93232 0.0
C452 C 0.54944 0.46655 0.93355 0.0
C453 C 0.56027 0.45463 0.92226 0.0
C454 C 0.58255 0.46765 0.90977 0.0
H455 H 0.59231 0.5216 0.91855 0.0
O456 O 0.65207 0.52295 0.9715 0.0
O457 O 0.64023 0.50706 0.92543 0.0
O458 O 0.65595 0.55542 0.92374 0.0
O459 O 0.62826 0.53461 0.88834 0.0
C460 C 0.54989 0.43035 0.92306 0.0
C461 C 0.56196 0.41955 0.91162 0.0
H462 H 0.59067 0.40499 0.88799 0.0
H463 H 0.63006 0.43101 0.86709 0.0
H464 H 0.55289 0.50014 0.94092 0.0
H465 H 0.53216 0.45726 0.94323 0.0
H466 H 0.53273 0.41983 0.93274 0.0
H467 H 0.55392 0.40089 0.91273 0.0
Mn468 Mn 0.13732 0.66816 0.43178 0.0
Mn469 Mn 0.12239 0.62148 0.38661 0.0
C470 C 0.13119 0.63384 0.45423 0.0
C471 C 0.16751 0.70261 0.45235 0.0
C472 C 0.08921 0.63845 0.40472 0.0
O473 O 0.14411 0.68131 0.38742 0.0
O474 O 0.13968 0.64996 0.36137 0.0
C475 C 0.169 0.62843 0.37357 0.0
N476 N 0.14713 0.61489 0.38462 0.0
C477 C 0.15471 0.58409 0.39666 0.0
C478 C 0.17727 0.59764 0.38517 0.0
C479 C 0.18447 0.61994 0.37369 0.0
C480 C 0.14011 0.59353 0.39607 0.0
H481 H 0.1746 0.6456 0.36482 0.0
C482 C 0.14569 0.67139 0.36286 0.0
O483 O 0.14672 0.69949 0.44982 0.0
O484 O 0.1706 0.68602 0.44252 0.0
N485 N 0.10563 0.59255 0.40806 0.0
C486 C 0.08348 0.5819 0.41893 0.0
C487 C 0.07363 0.55946 0.43129 0.0
C488 C 0.08655 0.5481 0.43203 0.0
C489 C 0.10922 0.5593 0.42042 0.0
C490 C 0.11804 0.58158 0.40814 0.0
H491 H 0.07334 0.59039 0.4181 0.0
O492 O 0.13112 0.64979 0.4714 0.0
O493 O 0.13543 0.63878 0.42492 0.0
O494 O 0.10241 0.65409 0.42408 0.0
O495 O 0.09569 0.62668 0.38831 0.0
C496 C 0.12345 0.54928 0.42073 0.0
C497 C 0.14623 0.56172 0.40904 0.0
H498 H 0.18926 0.59115 0.38524 0.0
H499 H 0.20189 0.63055 0.36495 0.0
H500 H 0.0561 0.55091 0.44013 0.0
H501 H 0.07888 0.53079 0.44156 0.0
H502 H 0.11715 0.53212 0.43025 0.0
H503 H 0.15712 0.55397 0.4098 0.0
Mn504 Mn 0.4721 0.13665 0.93049 0.0
Mn505 Mn 0.50421 0.12168 0.88624 0.0
C506 C 0.50047 0.13109 0.95361 0.0
C507 C 0.46758 0.16703 0.94972 0.0
C508 C 0.45405 0.08839 0.90439 0.0
O509 O 0.46556 0.14263 0.88579 0.0
O510 O 0.49313 0.13883 0.86051 0.0
C511 C 0.54385 0.16831 0.87327 0.0
N512 N 0.53552 0.14645 0.88438 0.0
C513 C 0.57388 0.15413 0.8968 0.0
C514 C 0.5829 0.17666 0.8852 0.0
C515 C 0.5678 0.18381 0.87352 0.0
C516 C 0.54985 0.13951 0.89609 0.0
H517 H 0.53229 0.17388 0.86441 0.0
C518 C 0.47738 0.14442 0.86147 0.0
O519 O 0.45003 0.14611 0.94791 0.0
O520 O 0.48729 0.17009 0.9401 0.0
N521 N 0.51632 0.10506 0.90817 0.0
C522 C 0.50481 0.08294 0.91914 0.0
C523 C 0.51739 0.07314 0.93169 0.0
C524 C 0.54166 0.08606 0.93251 0.0
C525 C 0.55315 0.10871 0.92081 0.0
C526 C 0.5397 0.11748 0.90834 0.0
H527 H 0.48619 0.07277 0.91822 0.0
O528 O 0.48443 0.1312 0.97054 0.0
O529 O 0.49971 0.1349 0.92417 0.0
O530 O 0.45154 0.10162 0.92364 0.0
O531 O 0.47229 0.09494 0.88791 0.0
C532 C 0.5774 0.12296 0.9212 0.0
C533 C 0.58775 0.14571 0.9094 0.0
H534 H 0.60136 0.18867 0.88536 0.0
H535 H 0.57462 0.20122 0.86472 0.0
H536 H 0.50841 0.05562 0.94059 0.0
H537 H 0.55129 0.07841 0.94214 0.0
H538 H 0.58824 0.11668 0.93086 0.0
H539 H 0.60639 0.15661 0.91024 0.0
Mn540 Mn 0.33703 0.46921 0.42989 0.0
Mn541 Mn 0.38413 0.50189 0.38584 0.0
C542 C 0.37072 0.49782 0.45308 0.0
C543 C 0.30205 0.46412 0.44973 0.0
C544 C 0.36778 0.45179 0.4037 0.0
O545 O 0.32454 0.46275 0.38518 0.0
O546 O 0.35595 0.49024 0.3598 0.0
C547 C 0.37642 0.54097 0.37208 0.0
N548 N 0.39013 0.53301 0.38366 0.0
C549 C 0.42025 0.57161 0.39618 0.0
C550 C 0.40654 0.58026 0.3841 0.0
C551 C 0.38449 0.56485 0.37211 0.0
C552 C 0.41126 0.54765 0.39557 0.0
H553 H 0.35944 0.52917 0.363 0.0
C554 C 0.33463 0.47441 0.36077 0.0
O555 O 0.30565 0.44674 0.44732 0.0
O556 O 0.31843 0.48396 0.44003 0.0
N557 N 0.41276 0.5145 0.40817 0.0
C558 C 0.42347 0.50332 0.41996 0.0
C559 C 0.44553 0.51623 0.43337 0.0
C560 C 0.45646 0.54048 0.43421 0.0
C561 C 0.44526 0.55162 0.4215 0.0
C562 C 0.42334 0.53786 0.40828 0.0
H563 H 0.41527 0.48471 0.41918 0.0
O564 O 0.35477 0.48152 0.46992 0.0
O565 O 0.36615 0.49711 0.42363 0.0
O566 O 0.35183 0.44896 0.42274 0.0
O567 O 0.37957 0.47023 0.38763 0.0
C568 C 0.45485 0.57582 0.42179 0.0
C569 C 0.44231 0.58581 0.40927 0.0
H570 H 0.41268 0.59866 0.38415 0.0
H571 H 0.37374 0.57137 0.36294 0.0
H572 H 0.45409 0.5075 0.44306 0.0
H573 H 0.47339 0.55036 0.44479 0.0
H574 H 0.47172 0.5869 0.43198 0.0
H575 H 0.44971 0.60441 0.41007 0.0
Mn576 Mn 0.87091 0.33691 0.93228 0.0
Mn577 Mn 0.88514 0.38432 0.88892 0.0
C578 C 0.87684 0.37065 0.95623 0.0
C579 C 0.84103 0.30201 0.95231 0.0
C580 C 0.91889 0.36767 0.90525 0.0
O581 O 0.86405 0.32455 0.88755 0.0
O582 O 0.86808 0.35623 0.86287 0.0
C583 C 0.83817 0.37679 0.87707 0.0
N584 N 0.86007 0.39044 0.88798 0.0
C585 C 0.85191 0.42059 0.90171 0.0
C586 C 0.82933 0.40694 0.89034 0.0
C587 C 0.82241 0.3849 0.87808 0.0
C588 C 0.86682 0.41154 0.90017 0.0
H589 H 0.83278 0.35981 0.86779 0.0
C590 C 0.86229 0.33483 0.8635 0.0
O591 O 0.86187 0.30535 0.94918 0.0
O592 O 0.83771 0.31862 0.94325 0.0
N593 N 0.90166 0.41296 0.91111 0.0
C594 C 0.92391 0.42379 0.92164 0.0
C595 C 0.93348 0.44598 0.93475 0.0
C596 C 0.92021 0.45694 0.93654 0.0
C597 C 0.8975 0.44563 0.92508 0.0
C598 C 0.88894 0.42359 0.91206 0.0
H599 H 0.9343 0.4156 0.92007 0.0
O600 O 0.87716 0.35447 0.97257 0.0
O601 O 0.87246 0.36628 0.92682 0.0
O602 O 0.90584 0.3515 0.92411 0.0
O603 O 0.91216 0.3796 0.88966 0.0
C604 C 0.88293 0.45525 0.92637 0.0
C605 C 0.86011 0.44268 0.91486 0.0
H606 H 0.81711 0.41313 0.8911 0.0
H607 H 0.80497 0.3742 0.86945 0.0
H608 H 0.95105 0.45463 0.94345 0.0
H609 H 0.92759 0.47398 0.9469 0.0
H610 H 0.88902 0.47219 0.9365 0.0
H611 H 0.84897 0.45013 0.91637 0.0
Mn612 Mn 0.53525 0.86766 0.43046 0.0
Mn613 Mn 0.50333 0.88257 0.38566 0.0
C614 C 0.50719 0.87385 0.45323 0.0
C615 C 0.53955 0.83743 0.45083 0.0
C616 C 0.55364 0.91565 0.40319 0.0
O617 O 0.54144 0.86096 0.38594 0.0
O618 O 0.51408 0.86494 0.36035 0.0
C619 C 0.4633 0.83604 0.37341 0.0
N620 N 0.4719 0.85802 0.38417 0.0
C621 C 0.43373 0.8509 0.39658 0.0
C622 C 0.42444 0.82824 0.38534 0.0
C623 C 0.43931 0.82076 0.37384 0.0
C624 C 0.45778 0.8653 0.39568 0.0
H625 H 0.47469 0.83021 0.36467 0.0
C626 C 0.52965 0.85912 0.36156 0.0
O627 O 0.55723 0.85821 0.44821 0.0
O628 O 0.51985 0.83437 0.44115 0.0
N629 N 0.49157 0.89965 0.40722 0.0
C630 C 0.50332 0.92184 0.41792 0.0
C631 C 0.49099 0.93194 0.43037 0.0
C632 C 0.46672 0.91924 0.43136 0.0
C633 C 0.45498 0.89653 0.41991 0.0
C634 C 0.46818 0.88744 0.40755 0.0
H635 H 0.52196 0.93182 0.41689 0.0
O636 O 0.52325 0.87385 0.47026 0.0
O637 O 0.50779 0.86962 0.4239 0.0
O638 O 0.55606 0.90256 0.42275 0.0
O639 O 0.53536 0.90911 0.38681 0.0
C640 C 0.4307 0.88251 0.42048 0.0
C641 C 0.42009 0.85966 0.409 0.0
H642 H 0.40594 0.8164 0.38565 0.0
H643 H 0.43228 0.80325 0.36532 0.0
H644 H 0.50018 0.9495 0.43908 0.0
H645 H 0.45728 0.92711 0.44097 0.0
H646 H 0.42004 0.88903 0.43004 0.0
H647 H 0.40144 0.84893 0.40999 0.0
Mn648 Mn 0.47138 0.3364 0.07299 0.0
Mn649 Mn 0.50352 0.38313 0.11786 0.0
C650 C 0.49948 0.37052 0.05011 0.0
C651 C 0.46706 0.30173 0.05315 0.0
C652 C 0.45336 0.36643 0.09996 0.0
O653 O 0.46497 0.3235 0.11745 0.0
O654 O 0.49248 0.35467 0.14309 0.0
C655 C 0.54317 0.37602 0.13014 0.0
N656 N 0.53483 0.38964 0.11941 0.0
C657 C 0.57317 0.42038 0.10705 0.0
C658 C 0.5822 0.40677 0.11823 0.0
C659 C 0.56712 0.38446 0.1297 0.0
C660 C 0.54915 0.41101 0.10795 0.0
H661 H 0.53162 0.35885 0.13887 0.0
C662 C 0.47677 0.33333 0.14183 0.0
O663 O 0.44941 0.30493 0.05524 0.0
O664 O 0.48673 0.31841 0.06281 0.0
N665 N 0.51561 0.4121 0.09654 0.0
C666 C 0.50411 0.42291 0.08622 0.0
C667 C 0.51669 0.44542 0.07411 0.0
C668 C 0.54095 0.45672 0.07307 0.0
C669 C 0.55243 0.44538 0.08413 0.0
C670 C 0.53899 0.42303 0.09623 0.0
H671 H 0.48549 0.41448 0.08732 0.0
O672 O 0.48344 0.35442 0.03314 0.0
O673 O 0.49894 0.3658 0.07949 0.0
O674 O 0.45077 0.35079 0.08047 0.0
O675 O 0.47162 0.37797 0.11648 0.0
C676 C 0.57668 0.45533 0.08348 0.0
C677 C 0.58702 0.44278 0.09473 0.0
H678 H 0.60066 0.41321 0.11793 0.0
H679 H 0.57394 0.37379 0.1382 0.0
H680 H 0.5077 0.45409 0.0657 0.0
H681 H 0.55057 0.47408 0.06372 0.0
H682 H 0.58751 0.47252 0.07407 0.0
H683 H 0.60566 0.45049 0.09375 0.0
Mn684 Mn 0.13754 0.47001 0.57363 0.0
Mn685 Mn 0.12291 0.50284 0.61702 0.0
C686 C 0.13148 0.49776 0.54969 0.0
C687 C 0.1677 0.46534 0.55386 0.0
C688 C 0.08953 0.45234 0.6006 0.0
O689 O 0.14419 0.4644 0.61844 0.0
O690 O 0.14021 0.49207 0.64309 0.0
C691 C 0.16968 0.54259 0.62884 0.0
N692 N 0.14775 0.53414 0.61795 0.0
C693 C 0.15551 0.57231 0.60415 0.0
C694 C 0.17811 0.58146 0.61553 0.0
C695 C 0.18525 0.56652 0.62781 0.0
C696 C 0.14079 0.54832 0.60572 0.0
H697 H 0.17525 0.53115 0.63813 0.0
C698 C 0.14594 0.47642 0.64251 0.0
O699 O 0.1469 0.44773 0.55675 0.0
O700 O 0.17081 0.48517 0.56299 0.0
N701 N 0.10615 0.51467 0.59479 0.0
C702 C 0.08393 0.50305 0.58418 0.0
C703 C 0.07416 0.51547 0.57099 0.0
C704 C 0.08722 0.53971 0.56918 0.0
C705 C 0.10991 0.55132 0.5807 0.0
C706 C 0.11866 0.53804 0.59381 0.0
H707 H 0.0737 0.48445 0.58576 0.0
O708 O 0.13139 0.48139 0.53331 0.0
O709 O 0.13574 0.49767 0.57913 0.0
O710 O 0.10261 0.44946 0.58153 0.0
O711 O 0.09613 0.47093 0.61631 0.0
C712 C 0.12427 0.57554 0.57939 0.0
C713 C 0.1471 0.58601 0.59093 0.0
H714 H 0.19018 0.5999 0.61474 0.0
H715 H 0.20271 0.57343 0.63644 0.0
H716 H 0.05661 0.50638 0.56223 0.0
H717 H 0.07969 0.54921 0.55875 0.0
H718 H 0.11803 0.58625 0.5692 0.0
H719 H 0.15808 0.60462 0.5894 0.0
Mn720 Mn 0.67005 0.13695 0.07429 0.0
Mn721 Mn 0.62227 0.12185 0.11719 0.0
C722 C 0.63639 0.13106 0.05008 0.0
C723 C 0.70502 0.16725 0.05508 0.0
C724 C 0.63954 0.08866 0.10038 0.0
O725 O 0.68203 0.14326 0.11924 0.0
O726 O 0.65014 0.1389 0.14365 0.0
C727 C 0.62922 0.16852 0.12968 0.0
N728 N 0.6158 0.14668 0.11845 0.0
C729 C 0.58547 0.15457 0.10464 0.0
C730 C 0.59886 0.17707 0.11638 0.0
C731 C 0.62087 0.1841 0.12883 0.0
C732 C 0.59474 0.13984 0.10603 0.0
H733 H 0.64618 0.17401 0.13908 0.0
C734 C 0.67156 0.14475 0.14327 0.0
O735 O 0.7018 0.14642 0.05771 0.0
O736 O 0.68825 0.17031 0.06413 0.0
N737 N 0.59382 0.10531 0.09459 0.0
C738 C 0.58327 0.08317 0.08367 0.0
C739 C 0.56115 0.07351 0.0703 0.0
C740 C 0.54998 0.08659 0.06862 0.0
C741 C 0.561 0.10919 0.08047 0.0
C742 C 0.58297 0.11783 0.09376 0.0
H743 H 0.59162 0.07292 0.08516 0.0
O744 O 0.65278 0.13112 0.03379 0.0
O745 O 0.64053 0.13507 0.07959 0.0
O746 O 0.65568 0.10198 0.08168 0.0
O747 O 0.62739 0.09507 0.11609 0.0
C748 C 0.55115 0.12356 0.07934 0.0
C749 C 0.56344 0.14628 0.09123 0.0
H750 H 0.5925 0.18915 0.11574 0.0
H751 H 0.63138 0.20149 0.13773 0.0
H752 H 0.55272 0.05603 0.0613 0.0
H753 H 0.533 0.07915 0.05806 0.0
H754 H 0.53426 0.1174 0.06902 0.0
H755 H 0.55582 0.15728 0.08984 0.0
Mn756 Mn 0.53527 0.66722 0.57269 0.0
Mn757 Mn 0.50244 0.61972 0.61598 0.0
C758 C 0.50687 0.63367 0.54894 0.0
C759 C 0.54034 0.70231 0.55334 0.0
C760 C 0.55272 0.63643 0.59869 0.0
O761 O 0.54138 0.67933 0.61759 0.0
O762 O 0.51375 0.64768 0.64239 0.0
C763 C 0.46309 0.62706 0.62949 0.0
N764 N 0.47125 0.61353 0.61785 0.0
C765 C 0.43279 0.58333 0.60483 0.0
C766 C 0.42395 0.59684 0.61698 0.0
C767 C 0.43918 0.61884 0.62924 0.0
C768 C 0.45678 0.59245 0.60567 0.0
H769 H 0.47476 0.64401 0.63878 0.0
C770 C 0.52952 0.66902 0.64178 0.0
O771 O 0.55775 0.69877 0.55577 0.0
O772 O 0.52046 0.68578 0.5627 0.0
N773 N 0.49013 0.5913 0.59324 0.0
C774 C 0.5015 0.5808 0.58137 0.0
C775 C 0.48879 0.55883 0.56765 0.0
C776 C 0.46453 0.54777 0.56659 0.0
C777 C 0.45319 0.55874 0.57938 0.0
C778 C 0.46676 0.58058 0.59289 0.0
H779 H 0.52012 0.58911 0.58232 0.0
O780 O 0.52325 0.64978 0.53237 0.0
O781 O 0.5074 0.638 0.57844 0.0
O782 O 0.55559 0.65248 0.57979 0.0
O783 O 0.53419 0.62448 0.61451 0.0
C784 C 0.42897 0.549 0.57889 0.0
C785 C 0.41878 0.56133 0.59146 0.0
H786 H 0.40552 0.59059 0.61676 0.0
H787 H 0.43251 0.62945 0.63845 0.0
H788 H 0.49767 0.55045 0.5579 0.0
H789 H 0.4548 0.5309 0.55578 0.0
H790 H 0.41803 0.53218 0.56849 0.0
H791 H 0.40017 0.55382 0.5905 0.0
Mn792 Mn 0.87071 0.53509 0.07395 0.0
Mn793 Mn 0.88534 0.50298 0.11887 0.0
C794 C 0.87667 0.50685 0.05129 0.0
C795 C 0.8407 0.5397 0.05344 0.0
C796 C 0.91874 0.55317 0.1011 0.0
O797 O 0.86401 0.54137 0.11842 0.0
O798 O 0.86796 0.51404 0.14414 0.0
C799 C 0.83865 0.46328 0.13134 0.0
N800 N 0.86059 0.47166 0.12054 0.0
C801 C 0.8531 0.43332 0.10842 0.0
C802 C 0.83048 0.42425 0.1197 0.0
C803 C 0.8232 0.43932 0.13107 0.0
C804 C 0.86768 0.45735 0.10914 0.0
H805 H 0.83298 0.47481 0.13997 0.0
C806 C 0.86216 0.52963 0.14285 0.0
O807 O 0.86155 0.55724 0.05612 0.0
O808 O 0.83743 0.51992 0.06315 0.0
N809 N 0.90218 0.49091 0.09739 0.0
C810 C 0.92437 0.50245 0.08667 0.0
C811 C 0.93429 0.48991 0.07438 0.0
C812 C 0.92142 0.46564 0.07357 0.0
C813 C 0.8987 0.45412 0.08502 0.0
C814 C 0.88979 0.46753 0.09722 0.0
H815 H 0.9345 0.52108 0.08757 0.0
O816 O 0.87683 0.52296 0.03422 0.0
O817 O 0.87243 0.50749 0.08061 0.0
O818 O 0.90564 0.55571 0.08168 0.0
O819 O 0.9121 0.53488 0.11751 0.0
C820 C 0.8845 0.42986 0.08462 0.0
C821 C 0.86166 0.41948 0.09612 0.0
H822 H 0.81851 0.40578 0.11952 0.0
H823 H 0.80572 0.43247 0.13963 0.0
H824 H 0.95186 0.49893 0.06567 0.0
H825 H 0.92915 0.45604 0.06412 0.0
H826 H 0.89087 0.41905 0.07517 0.0
H827 H 0.8508 0.40083 0.09528 0.0
Mn828 Mn 0.33791 0.86833 0.57408 0.0
Mn829 Mn 0.38565 0.88268 0.61667 0.0
C830 C 0.37149 0.87431 0.54953 0.0
C831 C 0.30285 0.83837 0.55462 0.0
C832 C 0.3686 0.91624 0.60111 0.0
O833 O 0.32597 0.86157 0.61904 0.0
O834 O 0.35778 0.86537 0.64303 0.0
C835 C 0.37855 0.8358 0.62787 0.0
N836 N 0.39202 0.85777 0.61709 0.0
C837 C 0.42231 0.84998 0.60273 0.0
C838 C 0.40887 0.82734 0.614 0.0
C839 C 0.38685 0.8202 0.62649 0.0
C840 C 0.41309 0.86473 0.60464 0.0
H841 H 0.36158 0.83023 0.63731 0.0
C842 C 0.3364 0.85967 0.64283 0.0
O843 O 0.30619 0.8592 0.55777 0.0
O844 O 0.31957 0.8351 0.5633 0.0
N845 N 0.4141 0.89943 0.59412 0.0
C846 C 0.42468 0.92168 0.58361 0.0
C847 C 0.44679 0.93144 0.57021 0.0
C848 C 0.45794 0.91837 0.56809 0.0
C849 C 0.44688 0.89564 0.5795 0.0
C850 C 0.42491 0.88689 0.59282 0.0
H851 H 0.41634 0.93193 0.58545 0.0
O852 O 0.35514 0.87453 0.53348 0.0
O853 O 0.36735 0.86999 0.57899 0.0
O854 O 0.35247 0.90324 0.58219 0.0
O855 O 0.38065 0.90954 0.61649 0.0
C856 C 0.4567 0.88125 0.57789 0.0
C857 C 0.44436 0.85839 0.58931 0.0
H858 H 0.4152 0.81525 0.61294 0.0
H859 H 0.3763 0.8027 0.63502 0.0
H860 H 0.45524 0.94902 0.56153 0.0
H861 H 0.47492 0.92589 0.55751 0.0
H862 H 0.4736 0.8875 0.56755 0.0
H863 H 0.45195 0.84739 0.58753 0.0
H864 H 0.32207 0.50079 0.17322 0.0
H865 H 0.31216 0.43304 0.32998 0.0
H866 H 0.31641 0.43366 0.17536 0.0
H867 H 0.32981 0.50443 0.32358 0.0
H868 H 0.30143 0.42803 0.27447 0.0
H869 H 0.31195 0.49695 0.2284 0.0
C870 C 0.31796 0.48491 0.18521 0.0
C871 C 0.32008 0.46753 0.16995 0.0
C872 C 0.30702 0.4446 0.28547 0.0
C873 C 0.30944 0.46333 0.23337 0.0
C874 C 0.31293 0.44739 0.31714 0.0
C875 C 0.32194 0.4692 0.33111 0.0
C876 C 0.31009 0.46377 0.26798 0.0
C877 C 0.32304 0.48738 0.31351 0.0
C878 C 0.31234 0.48275 0.21676 0.0
C879 C 0.31477 0.44734 0.18644 0.0
N880 N 0.31745 0.48433 0.28282 0.0
N881 N 0.31016 0.44597 0.21754 0.0
H882 H 0.87839 0.31052 0.67425 0.0
H883 H 0.82522 0.32847 0.83015 0.0
H884 H 0.82857 0.33348 0.67972 0.0
H885 H 0.88142 0.31421 0.82906 0.0
H886 H 0.81821 0.31826 0.77511 0.0
H887 H 0.8721 0.3004 0.72995 0.0
C888 C 0.86554 0.31263 0.68695 0.0
C889 C 0.85407 0.32297 0.67264 0.0
C890 C 0.83177 0.31682 0.78692 0.0
C891 C 0.847 0.3118 0.73597 0.0
C892 C 0.83565 0.32252 0.8184 0.0
C893 C 0.85394 0.32222 0.83393 0.0
C894 C 0.84673 0.31145 0.77059 0.0
C895 C 0.86706 0.31451 0.81776 0.0
C896 C 0.86208 0.30705 0.71872 0.0
C897 C 0.83787 0.32571 0.69004 0.0
N898 N 0.86355 0.3099 0.78668 0.0
N899 N 0.835 0.32042 0.72082 0.0
H900 H 0.57095 0.87625 0.33092 0.0
H901 H 0.50148 0.82235 0.17448 0.0
H902 H 0.4988 0.82457 0.32474 0.0
H903 H 0.57118 0.87991 0.17667 0.0
H904 H 0.50474 0.81487 0.22935 0.0
H905 H 0.57553 0.87008 0.27546 0.0
C906 C 0.55632 0.86299 0.31815 0.0
C907 C 0.53444 0.85098 0.33215 0.0
C908 C 0.51959 0.82882 0.21779 0.0
C909 C 0.53936 0.84408 0.26904 0.0
C910 C 0.51775 0.83296 0.18641 0.0
C911 C 0.53607 0.85176 0.17127 0.0
C912 C 0.53967 0.84404 0.23441 0.0
C913 C 0.55674 0.86515 0.18766 0.0
C914 C 0.55886 0.85961 0.28649 0.0
C915 C 0.51591 0.83427 0.31464 0.0
N916 N 0.55784 0.86137 0.21865 0.0
N917 N 0.51872 0.83152 0.28394 0.0
H918 H 0.67861 0.49751 0.82955 0.0
H919 H 0.69592 0.56797 0.67323 0.0
H920 H 0.69286 0.56795 0.82791 0.0
H921 H 0.67276 0.49517 0.6792 0.0
H922 H 0.70645 0.57203 0.72878 0.0
H923 H 0.68871 0.50048 0.77446 0.0
C924 C 0.68457 0.51385 0.81768 0.0
C925 C 0.68489 0.53249 0.83307 0.0
C926 C 0.69968 0.55531 0.71768 0.0
C927 C 0.6955 0.5358 0.76968 0.0
C928 C 0.69386 0.55305 0.68599 0.0
C929 C 0.68334 0.53118 0.67188 0.0
C930 C 0.69497 0.53555 0.73506 0.0
C931 C 0.68067 0.51229 0.68937 0.0
C932 C 0.69019 0.51553 0.78617 0.0
C933 C 0.69257 0.55326 0.81673 0.0
N934 N 0.68619 0.51486 0.72008 0.0
N935 N 0.69709 0.55422 0.78563 0.0
H936 H 0.18381 0.67975 0.33052 0.0
H937 H 0.12969 0.69504 0.17374 0.0
H938 H 0.12566 0.69096 0.32822 0.0
H939 H 0.18047 0.67337 0.18025 0.0
H940 H 0.13583 0.70566 0.22927 0.0
H941 H 0.191 0.69018 0.2755 0.0
C942 C 0.17301 0.68515 0.31853 0.0
C943 C 0.15413 0.6845 0.33369 0.0
C944 C 0.14609 0.6992 0.21829 0.0
C945 C 0.16153 0.69547 0.27042 0.0
C946 C 0.14273 0.69333 0.18661 0.0
C947 C 0.1545 0.68319 0.17267 0.0
C948 C 0.1614 0.69495 0.23581 0.0
C949 C 0.17094 0.68097 0.1903 0.0
C950 C 0.17698 0.69094 0.28708 0.0
C951 C 0.14049 0.69144 0.31722 0.0
N952 N 0.17371 0.68654 0.22099 0.0
N953 N 0.14413 0.69616 0.28618 0.0
H954 H 0.43633 0.12643 0.83 0.0
H955 H 0.50694 0.18186 0.67489 0.0
H956 H 0.50803 0.17957 0.8253 0.0
H957 H 0.43721 0.12432 0.67568 0.0
H958 H 0.50317 0.18888 0.72977 0.0
H959 H 0.43212 0.13271 0.77445 0.0
C960 C 0.45092 0.14001 0.81752 0.0
C961 C 0.47259 0.15242 0.83197 0.0
C962 C 0.48843 0.17502 0.71791 0.0
C963 C 0.46811 0.15944 0.76876 0.0
C964 C 0.49058 0.17113 0.68653 0.0
C965 C 0.47239 0.15248 0.67099 0.0
C966 C 0.46817 0.15968 0.73414 0.0
C967 C 0.45156 0.13896 0.687 0.0
C968 C 0.44859 0.14346 0.78582 0.0
C969 C 0.49108 0.16954 0.81484 0.0
N970 N 0.45016 0.14249 0.718 0.0
N971 N 0.4885 0.17235 0.78409 0.0
H972 H 0.57072 0.69209 0.67293 0.0
H973 H 0.50164 0.679 0.82946 0.0
H974 H 0.49886 0.67281 0.67891 0.0
H975 H 0.5702 0.68808 0.82758 0.0
H976 H 0.50517 0.68913 0.7743 0.0
H977 H 0.57528 0.70247 0.72855 0.0
C978 C 0.55616 0.69087 0.68571 0.0
C979 C 0.53436 0.68149 0.67158 0.0
C980 C 0.51972 0.68947 0.78598 0.0
C981 C 0.53927 0.69293 0.73483 0.0
C982 C 0.51773 0.68383 0.81751 0.0
C983 C 0.53565 0.68271 0.83284 0.0
C984 C 0.53954 0.69338 0.76945 0.0
C985 C 0.55609 0.68894 0.81643 0.0
C986 C 0.55869 0.69659 0.71745 0.0
C987 C 0.51591 0.67985 0.6891 0.0
N988 N 0.55733 0.69355 0.78534 0.0
N989 N 0.51871 0.68525 0.71985 0.0
H990 H 0.82355 0.49962 0.32892 0.0
H991 H 0.8799 0.57061 0.17439 0.0
H992 H 0.88138 0.56918 0.32859 0.0
H993 H 0.8267 0.49892 0.17858 0.0
H994 H 0.87327 0.5747 0.22983 0.0
H995 H 0.81671 0.50365 0.27403 0.0
C996 C 0.83436 0.51602 0.3174 0.0
C997 C 0.85304 0.53408 0.33306 0.0
C998 C 0.86258 0.55826 0.21837 0.0
C999 C 0.84607 0.53857 0.26991 0.0
C1000 C 0.86623 0.55601 0.18672 0.0
C1001 C 0.85389 0.53437 0.17217 0.0
C1002 C 0.84648 0.53871 0.23527 0.0
C1003 C 0.83665 0.51584 0.18912 0.0
C1004 C 0.83058 0.51831 0.286 0.0
C1005 C 0.8667 0.55494 0.31719 0.0
N1006 N 0.83366 0.51836 0.21983 0.0
N1007 N 0.86328 0.55647 0.28618 0.0
H1008 H 0.31177 0.87598 0.67427 0.0
H1009 H 0.33002 0.82318 0.83016 0.0
H1010 H 0.33441 0.82591 0.67978 0.0
H1011 H 0.31541 0.87913 0.82888 0.0
H1012 H 0.31955 0.81588 0.77521 0.0
H1013 H 0.30156 0.86966 0.72992 0.0
C1014 C 0.31378 0.86306 0.68696 0.0
C1015 C 0.32408 0.85155 0.67269 0.0
C1016 C 0.31809 0.82945 0.78697 0.0
C1017 C 0.31282 0.84446 0.73597 0.0
C1018 C 0.32393 0.83349 0.8184 0.0
C1019 C 0.32362 0.85179 0.83383 0.0
C1020 C 0.31255 0.84429 0.7706 0.0
C1021 C 0.31573 0.86477 0.81765 0.0
C1022 C 0.30814 0.85959 0.71871 0.0
C1023 C 0.32668 0.83525 0.69008 0.0
N1024 N 0.31099 0.86111 0.78661 0.0
N1025 N 0.32135 0.83239 0.72085 0.0
H1026 H 0.43592 0.30936 0.33007 0.0
H1027 H 0.50674 0.32563 0.1748 0.0
H1028 H 0.50803 0.3295 0.32509 0.0
H1029 H 0.43683 0.31297 0.17581 0.0
H1030 H 0.50305 0.3147 0.22963 0.0
H1031 H 0.4318 0.29884 0.27454 0.0
C1032 C 0.45063 0.31071 0.31754 0.0
C1033 C 0.47238 0.32042 0.33189 0.0
C1034 C 0.48826 0.31375 0.21782 0.0
C1035 C 0.46798 0.30886 0.26873 0.0
C1036 C 0.49035 0.31985 0.18647 0.0
C1037 C 0.47209 0.32024 0.17101 0.0
C1038 C 0.46799 0.30868 0.2341 0.0
C1039 C 0.45124 0.31275 0.18706 0.0
C1040 C 0.44835 0.30491 0.28585 0.0
C1041 C 0.49103 0.32221 0.3147 0.0
N1042 N 0.4499 0.30777 0.21804 0.0
N1043 N 0.48847 0.31678 0.28397 0.0
H1044 H 0.129 0.43523 0.67344 0.0
H1045 H 0.18496 0.50458 0.82978 0.0
H1046 H 0.17999 0.50761 0.67968 0.0
H1047 H 0.12573 0.43585 0.82815 0.0
H1048 H 0.19152 0.50102 0.77464 0.0
H1049 H 0.13536 0.43074 0.72891 0.0
C1050 C 0.14212 0.44995 0.68623 0.0
C1051 C 0.15392 0.47185 0.67223 0.0
C1052 C 0.17739 0.48644 0.78639 0.0
C1053 C 0.16109 0.46699 0.73529 0.0
C1054 C 0.17377 0.48843 0.81792 0.0
C1055 C 0.15477 0.47051 0.83331 0.0
C1056 C 0.16148 0.46661 0.7699 0.0
C1057 C 0.14065 0.44998 0.81698 0.0
C1058 C 0.14561 0.44745 0.71788 0.0
C1059 C 0.17046 0.49048 0.68977 0.0
N1060 N 0.14397 0.44875 0.78586 0.0
N1061 N 0.17337 0.48769 0.72042 0.0
H1062 H 0.68062 0.18153 0.3313 0.0
H1063 H 0.69627 0.12818 0.17394 0.0
H1064 H 0.69241 0.12375 0.32859 0.0
H1065 H 0.67358 0.17814 0.18102 0.0
H1066 H 0.70686 0.1342 0.22949 0.0
H1067 H 0.69073 0.18875 0.27621 0.0
C1068 C 0.68607 0.17082 0.31921 0.0
C1069 C 0.68568 0.15203 0.33428 0.0
C1070 C 0.70017 0.14431 0.21864 0.0
C1071 C 0.6963 0.15948 0.27092 0.0
C1072 C 0.69432 0.14101 0.18694 0.0
C1073 C 0.68392 0.15259 0.17314 0.0
C1074 C 0.69566 0.15938 0.23631 0.0
C1075 C 0.68139 0.16876 0.19095 0.0
C1076 C 0.69169 0.17481 0.2877 0.0
C1077 C 0.69269 0.13851 0.31766 0.0
N1078 N 0.68697 0.17149 0.22164 0.0
N1079 N 0.69724 0.14217 0.28658 0.0
H1080 H 0.21046 0.47943 0.92958 0.0
H1081 H 0.2684 0.47051 0.07824 0.0
H1082 H 0.16423 0.43852 0.00336 0.0
H1083 H 0.28247 0.4439 0.9947 0.0
H1084 H 0.23367 0.46725 0.05314 0.0
H1085 H 0.24147 0.47519 0.95412 0.0
C1086 C 0.20685 0.46944 0.95082 0.0
C1087 C 0.18482 0.45917 0.96445 0.0
C1088 C 0.24426 0.46188 0.04056 0.0
C1089 C 0.22017 0.45496 0.99291 0.0
C1090 C 0.26398 0.46376 0.05474 0.0
C1091 C 0.27804 0.45723 0.0385 0.0
C1092 C 0.23921 0.45434 0.00957 0.0
C1093 C 0.27183 0.44881 0.00802 0.0
C1094 C 0.22445 0.46698 0.96467 0.0
C1095 C 0.18097 0.44648 0.99205 0.0
N1096 N 0.25308 0.44805 0.99422 0.0
N1097 N 0.19865 0.4451 0.0058 0.0
H1098 H 0.7442 0.16553 0.47342 0.0
H1099 H 0.79577 0.29252 0.54523 0.0
H1100 H 0.71246 0.208 0.46595 0.0
H1101 H 0.8384 0.26127 0.53349 0.0
H1102 H 0.76378 0.25906 0.52085 0.0
H1103 H 0.77784 0.19804 0.49903 0.0
C1104 C 0.74431 0.18164 0.47706 0.0
C1105 C 0.72545 0.18401 0.46754 0.0
C1106 C 0.78008 0.2594 0.52351 0.0
C1107 C 0.76358 0.22099 0.49694 0.0
C1108 C 0.79843 0.27855 0.53761 0.0
C1109 C 0.81991 0.27982 0.54134 0.0
C1110 C 0.78299 0.2411 0.51301 0.0
C1111 C 0.82214 0.26103 0.531 0.0
C1112 C 0.76349 0.20015 0.49163 0.0
C1113 C 0.72653 0.20527 0.47283 0.0
N1114 N 0.80388 0.24239 0.51725 0.0
N1115 N 0.74513 0.22278 0.48723 0.0
H1116 H 0.58096 0.83869 0.03275 0.0
H1117 H 0.5053 0.7124 0.95902 0.0
H1118 H 0.50661 0.79683 0.0386 0.0
H1119 H 0.57877 0.74233 0.97356 0.0
H1120 H 0.50695 0.74599 0.98325 0.0
H1121 H 0.58197 0.80609 0.00719 0.0
C1122 C 0.56491 0.82271 0.02874 0.0
C1123 C 0.54366 0.82052 0.03783 0.0
C1124 C 0.52279 0.74533 0.98124 0.0
C1125 C 0.54469 0.78346 0.00848 0.0
C1126 C 0.52188 0.72611 0.96723 0.0
C1127 C 0.54192 0.72443 0.96433 0.0
C1128 C 0.54393 0.7633 0.99247 0.0
C1129 C 0.56289 0.74289 0.97541 0.0
C1130 C 0.56551 0.80414 0.01422 0.0
C1131 C 0.52341 0.79941 0.03208 0.0
N1132 N 0.56337 0.76162 0.98905 0.0
N1133 N 0.52444 0.78186 0.01773 0.0
H1134 H 0.71193 0.50201 0.5435 0.0
H1135 H 0.83935 0.57747 0.47277 0.0
H1136 H 0.74383 0.57603 0.53285 0.0
H1137 H 0.79693 0.50329 0.46495 0.0
H1138 H 0.80678 0.57851 0.4983 0.0
H1139 H 0.74538 0.50337 0.51915 0.0
C1140 C 0.72604 0.51864 0.53612 0.0
C1141 C 0.72497 0.53894 0.54017 0.0
C1142 C 0.80469 0.56207 0.49086 0.0
C1143 C 0.76367 0.54061 0.51192 0.0
C1144 C 0.82324 0.56146 0.47634 0.0
C1145 C 0.82089 0.54026 0.4667 0.0
C1146 C 0.78383 0.54131 0.49601 0.0
C1147 C 0.79963 0.52005 0.4719 0.0
C1148 C 0.74518 0.51938 0.52205 0.0
C1149 C 0.74391 0.55995 0.53011 0.0
N1150 N 0.78207 0.52109 0.48624 0.0
N1151 N 0.76254 0.56027 0.51641 0.0
H1152 H 0.29599 0.79561 0.96345 0.0
H1153 H 0.16844 0.74333 0.03343 0.0
H1154 H 0.26413 0.83783 0.97323 0.0
H1155 H 0.21174 0.71267 0.04321 0.0
H1156 H 0.20099 0.77714 0.0081 0.0
H1157 H 0.2627 0.76379 0.98832 0.0
C1158 C 0.28192 0.79821 0.97077 0.0
C1159 C 0.28296 0.81953 0.9663 0.0
C1160 C 0.20327 0.763 0.01597 0.0
C1161 C 0.24441 0.78278 0.99519 0.0
C1162 C 0.18474 0.74373 0.0304 0.0
C1163 C 0.18732 0.72509 0.04042 0.0
C1164 C 0.22433 0.7634 0.01133 0.0
C1165 C 0.20882 0.72653 0.03589 0.0
C1166 C 0.26287 0.77996 0.98514 0.0
C1167 C 0.26406 0.8217 0.9763 0.0
N1168 N 0.22633 0.74519 0.02162 0.0
N1169 N 0.24549 0.80351 0.9903 0.0
H1170 H 0.4275 0.16601 0.5319 0.0
H1171 H 0.50259 0.29325 0.46062 0.0
H1172 H 0.50167 0.20871 0.53961 0.0
H1173 H 0.42862 0.26147 0.47177 0.0
H1174 H 0.5013 0.25992 0.48519 0.0
H1175 H 0.42627 0.19853 0.50647 0.0
C1176 C 0.44347 0.18217 0.52835 0.0
C1177 C 0.46472 0.18461 0.53789 0.0
C1178 C 0.48528 0.26012 0.48237 0.0
C1179 C 0.46346 0.22159 0.50869 0.0
C1180 C 0.48599 0.27919 0.46817 0.0
C1181 C 0.46568 0.28026 0.46418 0.0
C1182 C 0.46409 0.24169 0.4927 0.0
C1183 C 0.4447 0.26139 0.47446 0.0
C1184 C 0.44275 0.20069 0.51388 0.0
C1185 C 0.48487 0.20593 0.53271 0.0
N1186 N 0.44442 0.24282 0.48828 0.0
N1187 N 0.48372 0.22344 0.51842 0.0
H1188 H 0.83993 0.57862 0.03264 0.0
H1189 H 0.7124 0.50311 0.96231 0.0
H1190 H 0.79738 0.50449 0.04105 0.0
H1191 H 0.74442 0.57717 0.97235 0.0
H1192 H 0.74578 0.50448 0.98692 0.0
H1193 H 0.80732 0.57965 0.00723 0.0
C1194 C 0.82378 0.56262 0.02925 0.0
C1195 C 0.82142 0.54143 0.03899 0.0
C1196 C 0.74562 0.52051 0.98383 0.0
C1197 C 0.7843 0.54248 0.0098 0.0
C1198 C 0.72652 0.51975 0.96962 0.0
C1199 C 0.72551 0.54006 0.9653 0.0
C1200 C 0.76414 0.54175 0.99384 0.0
C1201 C 0.74445 0.56109 0.97529 0.0
C1202 C 0.80521 0.56323 0.01479 0.0
C1203 C 0.8001 0.52124 0.034 0.0
N1204 N 0.76305 0.56142 0.98912 0.0
N1205 N 0.78252 0.52228 0.01971 0.0
H1206 H 0.21091 0.71055 0.46332 0.0
H1207 H 0.26309 0.83779 0.53441 0.0
H1208 H 0.16866 0.74229 0.47417 0.0
H1209 H 0.2943 0.79488 0.54264 0.0
H1210 H 0.22924 0.80523 0.50921 0.0
H1211 H 0.24281 0.74377 0.48823 0.0
C1212 C 0.20832 0.72458 0.47088 0.0
C1213 C 0.18697 0.72353 0.46668 0.0
C1214 C 0.24351 0.80303 0.51671 0.0
C1215 C 0.2238 0.76199 0.49561 0.0
C1216 C 0.26281 0.82157 0.53106 0.0
C1217 C 0.28161 0.8191 0.54061 0.0
C1218 C 0.24324 0.78207 0.51168 0.0
C1219 C 0.28031 0.7977 0.53569 0.0
C1220 C 0.2266 0.74359 0.48528 0.0
C1221 C 0.1848 0.74236 0.47702 0.0
N1222 N 0.2616 0.78017 0.5215 0.0
N1223 N 0.20303 0.76089 0.49102 0.0
H1224 H 0.50138 0.21209 0.95118 0.0
H1225 H 0.50119 0.29098 0.05096 0.0
H1226 H 0.43032 0.16708 0.97835 0.0
H1227 H 0.42986 0.26423 0.02465 0.0
H1228 H 0.50057 0.2581 0.02595 0.0
H1229 H 0.50049 0.2443 0.97595 0.0
C1230 C 0.48554 0.20891 0.96249 0.0
C1231 C 0.46599 0.1867 0.96308 0.0
C1232 C 0.48509 0.25949 0.02521 0.0
C1233 C 0.46508 0.22372 0.99244 0.0
C1234 C 0.48535 0.27822 0.03978 0.0
C1235 C 0.46564 0.28062 0.03952 0.0
C1236 C 0.46502 0.24292 0.00989 0.0
C1237 C 0.44551 0.26317 0.02512 0.0
C1238 C 0.48513 0.22735 0.97691 0.0
C1239 C 0.44585 0.18388 0.97763 0.0
N1240 N 0.44571 0.245 0.01075 0.0
N1241 N 0.44591 0.20222 0.99187 0.0
H1242 H 0.21113 0.5006 0.54256 0.0
H1243 H 0.26284 0.42514 0.47162 0.0
H1244 H 0.16866 0.42657 0.53258 0.0
H1245 H 0.29326 0.499 0.46091 0.0
H1246 H 0.22927 0.42399 0.49751 0.0
H1247 H 0.2428 0.49905 0.51732 0.0
C1248 C 0.20844 0.48392 0.53514 0.0
C1249 C 0.18709 0.46368 0.53964 0.0
C1250 C 0.24331 0.44037 0.48931 0.0
C1251 C 0.22366 0.46179 0.51033 0.0
C1252 C 0.26244 0.44104 0.47457 0.0
C1253 C 0.28094 0.4622 0.46411 0.0
C1254 C 0.24291 0.46104 0.49386 0.0
C1255 C 0.2795 0.48228 0.46855 0.0
C1256 C 0.2266 0.48307 0.52055 0.0
C1257 C 0.18481 0.4426 0.5295 0.0
N1258 N 0.26097 0.48118 0.48316 0.0
N1259 N 0.20291 0.44217 0.51528 0.0
H1260 H 0.84039 0.26226 0.97275 0.0
H1261 H 0.71364 0.211 0.04523 0.0
H1262 H 0.79774 0.29378 0.96494 0.0
H1263 H 0.74457 0.1681 0.03323 0.0
H1264 H 0.74703 0.24283 0.02048 0.0
H1265 H 0.8079 0.22862 0.99845 0.0
C1266 C 0.82425 0.2621 0.97631 0.0
C1267 C 0.82182 0.28091 0.9667 0.0
C1268 C 0.74664 0.2265 0.02317 0.0
C1269 C 0.78489 0.24281 0.99623 0.0
C1270 C 0.72753 0.20825 0.03747 0.0
C1271 C 0.72619 0.18674 0.04125 0.0
C1272 C 0.76483 0.22348 0.01249 0.0
C1273 C 0.74486 0.18438 0.03071 0.0
C1274 C 0.80575 0.24293 0.99094 0.0
C1275 C 0.80052 0.27977 0.97191 0.0
N1276 N 0.76348 0.20257 0.01677 0.0
N1277 N 0.78305 0.26119 0.98637 0.0
H1278 H 0.50406 0.79418 0.46256 0.0
H1279 H 0.57935 0.74172 0.53199 0.0
H1280 H 0.57819 0.83617 0.47195 0.0
H1281 H 0.50545 0.71116 0.54248 0.0
H1282 H 0.58053 0.77551 0.50674 0.0
H1283 H 0.50546 0.76234 0.48758 0.0
C1284 C 0.52072 0.79673 0.46981 0.0
C1285 C 0.54104 0.81798 0.46518 0.0
C1286 C 0.56414 0.7614 0.51475 0.0
C1287 C 0.54276 0.78122 0.4942 0.0
C1288 C 0.56344 0.74214 0.52913 0.0
C1289 C 0.54226 0.72354 0.53933 0.0
C1290 C 0.54347 0.76183 0.51032 0.0
C1291 C 0.52219 0.725 0.53502 0.0
C1292 C 0.52149 0.77847 0.48427 0.0
C1293 C 0.56209 0.8201 0.47514 0.0
N1294 N 0.5233 0.74366 0.52077 0.0
N1295 N 0.56244 0.8019 0.48919 0.0
H1296 H 0.36149 0.41915 0.05483 0.0
H1297 H 0.44546 0.38742 0.14896 0.0
H1298 H 0.3932 0.44839 0.14347 0.0
H1299 H 0.42092 0.3618 0.05632 0.0
H1300 H 0.42093 0.40472 0.15001 0.0
H1301 H 0.37799 0.39349 0.0574 0.0
C1302 C 0.37163 0.41997 0.075 0.0
C1303 C 0.37613 0.43613 0.09884 0.0
C1304 C 0.42066 0.39515 0.1295 0.0
C1305 C 0.39499 0.40687 0.1019 0.0
C1306 C 0.43467 0.38519 0.12892 0.0
C1307 C 0.43545 0.37332 0.10238 0.0
C1308 C 0.40739 0.39353 0.10323 0.0
C1309 C 0.42086 0.3708 0.07726 0.0
C1310 C 0.3811 0.40538 0.07639 0.0
C1311 C 0.38945 0.43645 0.12435 0.0
N1312 N 0.40763 0.38112 0.07811 0.0
N1313 N 0.39845 0.42218 0.1251 0.0
H1314 H 0.06101 0.44483 0.64992 0.0
H1315 H 0.94519 0.35911 0.55777 0.0
H1316 H 0.06174 0.41882 0.55815 0.0
H1317 H 0.94771 0.38921 0.64768 0.0
H1318 H 0.98736 0.37562 0.56002 0.0
H1319 H 0.01934 0.41931 0.65216 0.0
C1320 C 0.0524 0.43353 0.63031 0.0
C1321 C 0.06489 0.43417 0.60367 0.0
C1322 C 0.97859 0.37831 0.57941 0.0
C1323 C 0.0168 0.40495 0.60585 0.0
C1324 C 0.95451 0.36879 0.57822 0.0
C1325 C 0.94291 0.37299 0.60243 0.0
C1326 C 0.99105 0.39197 0.60508 0.0
C1327 C 0.95591 0.38576 0.62828 0.0
C1328 C 0.02853 0.41893 0.63158 0.0
C1329 C 0.05279 0.41891 0.57914 0.0
N1330 N 0.97919 0.39489 0.62878 0.0
N1331 N 0.02933 0.40514 0.58062 0.0
H1332 H 0.56286 0.94572 0.15099 0.0
H1333 H 0.64726 0.0619 0.05842 0.0
H1334 H 0.58815 0.94535 0.05859 0.0
H1335 H 0.61667 0.059 0.1481 0.0
H1336 H 0.63112 0.01978 0.06068 0.0
H1337 H 0.58796 0.98745 0.15307 0.0
C1338 C 0.57393 0.95441 0.13121 0.0
C1339 C 0.57319 0.942 0.10444 0.0
C1340 C 0.62823 0.02846 0.08 0.0
C1341 C 0.60191 0.99017 0.10646 0.0
C1342 C 0.63753 0.05251 0.07881 0.0
C1343 C 0.63312 0.06399 0.10297 0.0
C1344 C 0.61458 0.01591 0.10563 0.0
C1345 C 0.6203 0.0509 0.12873 0.0
C1346 C 0.58828 0.97832 0.13239 0.0
C1347 C 0.58815 0.95423 0.07969 0.0
N1348 N 0.6114 0.02765 0.12925 0.0
N1349 N 0.60168 0.97772 0.0811 0.0
H1350 H 0.64606 0.58537 0.55644 0.0
H1351 H 0.56061 0.61592 0.64823 0.0
H1352 H 0.61795 0.55997 0.6479 0.0
H1353 H 0.58598 0.64183 0.55595 0.0
H1354 H 0.58647 0.6002 0.65079 0.0
H1355 H 0.62925 0.61078 0.55804 0.0
C1356 C 0.63679 0.58547 0.5771 0.0
C1357 C 0.63321 0.57033 0.60195 0.0
C1358 C 0.58663 0.60949 0.63002 0.0
C1359 C 0.61384 0.59916 0.60382 0.0
C1360 C 0.57182 0.6185 0.62855 0.0
C1361 C 0.57092 0.63001 0.60169 0.0
C1362 C 0.60056 0.61163 0.60427 0.0
C1363 C 0.5861 0.63305 0.5771 0.0
C1364 C 0.62709 0.59988 0.57791 0.0
C1365 C 0.62092 0.57111 0.62802 0.0
N1366 N 0.60008 0.62361 0.57877 0.0
N1367 N 0.61157 0.58508 0.62814 0.0
H1368 H 0.94582 0.58697 0.05849 0.0
H1369 H 0.06167 0.61646 0.15002 0.0
H1370 H 0.94828 0.56026 0.14912 0.0
H1371 H 0.06235 0.64391 0.05876 0.0
H1372 H 0.02002 0.60039 0.15244 0.0
H1373 H 0.98803 0.6123 0.06041 0.0
C1374 C 0.95514 0.58674 0.07902 0.0
C1375 C 0.94349 0.57127 0.10355 0.0
C1376 C 0.0292 0.6101 0.13194 0.0
C1377 C 0.9917 0.60004 0.10579 0.0
C1378 C 0.05306 0.61931 0.13056 0.0
C1379 C 0.06554 0.63137 0.10401 0.0
C1380 C 0.01746 0.6126 0.10641 0.0
C1381 C 0.05342 0.63472 0.07967 0.0
C1382 C 0.97925 0.60111 0.08003 0.0
C1383 C 0.95649 0.57165 0.12948 0.0
N1384 N 0.02997 0.62509 0.08125 0.0
N1385 N 0.97981 0.5856 0.12978 0.0
H1386 H 0.41944 0.06053 0.55846 0.0
H1387 H 0.39043 0.94484 0.6501 0.0
H1388 H 0.44761 0.05819 0.64802 0.0
H1389 H 0.36237 0.94404 0.55924 0.0
H1390 H 0.40668 0.98652 0.65236 0.0
H1391 H 0.39395 0.01836 0.56082 0.0
C1392 C 0.41998 0.05125 0.57885 0.0
C1393 C 0.43589 0.06292 0.60293 0.0
C1394 C 0.3968 0.9773 0.63199 0.0
C1395 C 0.40691 0.01476 0.60569 0.0
C1396 C 0.38747 0.95342 0.6307 0.0
C1397 C 0.37521 0.94092 0.6043 0.0
C1398 C 0.39419 0.98901 0.60651 0.0
C1399 C 0.37172 0.953 0.58004 0.0
C1400 C 0.4055 0.02717 0.5801 0.0
C1401 C 0.43588 0.04996 0.6287 0.0
N1402 N 0.38146 0.97646 0.58152 0.0
N1403 N 0.4218 0.02666 0.62926 0.0
H1404 H 0.58673 0.6439 0.94989 0.0
H1405 H 0.62054 0.56191 0.85492 0.0
H1406 H 0.56074 0.61526 0.85884 0.0
H1407 H 0.64465 0.58508 0.94846 0.0
H1408 H 0.60386 0.58699 0.85353 0.0
H1409 H 0.61286 0.6279 0.94758 0.0
C1410 C 0.58679 0.63462 0.92922 0.0
C1411 C 0.57133 0.63071 0.90466 0.0
C1412 C 0.61298 0.58686 0.87432 0.0
C1413 C 0.60105 0.61237 0.9019 0.0
C1414 C 0.62258 0.57253 0.87509 0.0
C1415 C 0.63383 0.57121 0.90196 0.0
C1416 C 0.61428 0.59985 0.90077 0.0
C1417 C 0.63613 0.58558 0.92726 0.0
C1418 C 0.60162 0.62541 0.92798 0.0
C1419 C 0.5721 0.61847 0.87852 0.0
N1420 N 0.62611 0.59907 0.92624 0.0
N1421 N 0.58653 0.60967 0.87795 0.0
H1422 H 0.94658 0.56067 0.35391 0.0
H1423 H 0.06209 0.64475 0.44771 0.0
H1424 H 0.94561 0.58503 0.44671 0.0
H1425 H 0.05991 0.61696 0.35619 0.0
H1426 H 0.01991 0.62816 0.44553 0.0
H1427 H 0.98823 0.58633 0.352 0.0
C1428 C 0.95512 0.57163 0.37382 0.0
C1429 C 0.94258 0.57049 0.40064 0.0
C1430 C 0.02876 0.626 0.42578 0.0
C1431 C 0.99065 0.59987 0.39881 0.0
C1432 C 0.05284 0.63557 0.42694 0.0
C1433 C 0.06454 0.63204 0.40223 0.0
C1434 C 0.01639 0.61294 0.39967 0.0
C1435 C 0.05164 0.61989 0.37598 0.0
C1436 C 0.97898 0.58631 0.37273 0.0
C1437 C 0.95461 0.58533 0.42557 0.0
N1438 N 0.02834 0.61068 0.37552 0.0
N1439 N 0.97805 0.59919 0.42424 0.0
H1440 H 0.42036 0.06146 0.94723 0.0
H1441 H 0.38949 0.94545 0.8551 0.0
H1442 H 0.44668 0.05877 0.85642 0.0
H1443 H 0.36327 0.94492 0.94716 0.0
H1444 H 0.40563 0.98711 0.85275 0.0
H1445 H 0.39478 0.01927 0.94534 0.0
C1446 C 0.42047 0.0521 0.92668 0.0
C1447 C 0.43589 0.06367 0.90208 0.0
C1448 C 0.39617 0.97796 0.87342 0.0
C1449 C 0.40682 0.0155 0.89985 0.0
C1450 C 0.3869 0.95409 0.87475 0.0
C1451 C 0.3752 0.94167 0.9015 0.0
C1452 C 0.39407 0.98975 0.89919 0.0
C1453 C 0.37218 0.95382 0.92608 0.0
C1454 C 0.40595 0.02801 0.92569 0.0
C1455 C 0.43534 0.05062 0.87612 0.0
N1456 N 0.38187 0.97728 0.92454 0.0
N1457 N 0.42124 0.02732 0.87582 0.0
H1458 H 0.38828 0.44382 0.35422 0.0
H1459 H 0.4193 0.35895 0.44666 0.0
H1460 H 0.36258 0.41875 0.44667 0.0
H1461 H 0.44456 0.38679 0.35504 0.0
H1462 H 0.39382 0.37567 0.44492 0.0
H1463 H 0.40414 0.41807 0.35187 0.0
C1464 C 0.38578 0.4327 0.37398 0.0
C1465 C 0.3743 0.43365 0.40082 0.0
C1466 C 0.40471 0.3778 0.42505 0.0
C1467 C 0.39282 0.40414 0.39848 0.0
C1468 C 0.41916 0.36816 0.42595 0.0
C1469 C 0.43428 0.37168 0.40109 0.0
C1470 C 0.40536 0.39094 0.39905 0.0
C1471 C 0.43345 0.38387 0.37494 0.0
C1472 C 0.39487 0.41795 0.37263 0.0
C1473 C 0.37135 0.41859 0.42553 0.0
N1474 N 0.41943 0.39317 0.37474 0.0
N1475 N 0.38086 0.40467 0.42396 0.0
H1476 H 0.06182 0.44857 0.85612 0.0
H1477 H 0.94618 0.36047 0.94692 0.0
H1478 H 0.0627 0.4206 0.94645 0.0
H1479 H 0.94833 0.39121 0.85761 0.0
H1480 H 0.98844 0.37776 0.94481 0.0
H1481 H 0.02014 0.42322 0.8539 0.0
C1482 C 0.05326 0.43694 0.87545 0.0
C1483 C 0.06582 0.43693 0.90166 0.0
C1484 C 0.97958 0.38043 0.92553 0.0
C1485 C 0.01769 0.40781 0.89943 0.0
C1486 C 0.95545 0.37046 0.92663 0.0
C1487 C 0.94369 0.37458 0.90255 0.0
C1488 C 0.99195 0.39449 0.9001 0.0
C1489 C 0.95663 0.38778 0.87692 0.0
C1490 C 0.02937 0.42241 0.87416 0.0
C1491 C 0.05372 0.42123 0.9258 0.0
N1492 N 0.97997 0.39735 0.87651 0.0
N1493 N 0.03027 0.40749 0.92429 0.0
H1494 H 0.56202 0.94433 0.35374 0.0
H1495 H 0.64655 0.0597 0.44754 0.0
H1496 H 0.58658 0.94325 0.44638 0.0
H1497 H 0.61777 0.05764 0.35675 0.0
H1498 H 0.62999 0.01755 0.4451 0.0
H1499 H 0.58766 0.98599 0.3519 0.0
C1500 C 0.57303 0.95285 0.37363 0.0
C1501 C 0.57195 0.94027 0.40039 0.0
C1502 C 0.62761 0.02641 0.42557 0.0
C1503 C 0.60129 0.98834 0.39864 0.0
C1504 C 0.63715 0.05049 0.42687 0.0
C1505 C 0.63334 0.06222 0.40245 0.0
C1506 C 0.6143 0.01408 0.39959 0.0
C1507 C 0.62092 0.04935 0.37632 0.0
C1508 C 0.5877 0.97671 0.37258 0.0
C1509 C 0.58685 0.95227 0.42528 0.0
N1510 N 0.61175 0.02606 0.37572 0.0
N1511 N 0.60069 0.97572 0.424 0.0
H1512 H 0.46292 0.62724 0.95242 0.0
H1513 H 0.37664 0.54291 0.04963 0.0
H1514 H 0.50353 0.59961 0.99148 0.0
H1515 H 0.40406 0.50121 0.01379 0.0
H1516 H 0.40965 0.5774 0.02673 0.0
H1517 H 0.42797 0.59489 0.97538 0.0
C1518 C 0.46438 0.61431 0.9659 0.0
C1519 C 0.48584 0.61558 0.96958 0.0
C1520 C 0.40831 0.56066 0.02373 0.0
C1521 C 0.44632 0.57888 0.99571 0.0
C1522 C 0.38967 0.54112 0.03689 0.0
C1523 C 0.38815 0.5195 0.03412 0.0
C1524 C 0.42558 0.55846 0.00809 0.0
C1525 C 0.40501 0.51777 0.01682 0.0
C1526 C 0.44457 0.59604 0.9791 0.0
C1527 C 0.48712 0.59884 0.98777 0.0
N1528 N 0.4234 0.53716 0.00497 0.0
N1529 N 0.46746 0.5808 0.99968 0.0
H1530 H 0.91055 0.40352 0.51424 0.0
H1531 H 0.84042 0.46165 0.45327 0.0
H1532 H 0.84105 0.37899 0.5468 0.0
H1533 H 0.91038 0.50417 0.48583 0.0
H1534 H 0.83984 0.42756 0.47612 0.0
H1535 H 0.91054 0.43723 0.49074 0.0
C1536 C 0.89529 0.40523 0.51617 0.0
C1537 C 0.87606 0.3891 0.53318 0.0
C1538 C 0.85528 0.44438 0.4782 0.0
C1539 C 0.87556 0.42659 0.50557 0.0
C1540 C 0.85566 0.4637 0.46517 0.0
C1541 C 0.87568 0.48545 0.46717 0.0
C1542 C 0.87521 0.44688 0.49273 0.0
C1543 C 0.89481 0.48751 0.48341 0.0
C1544 C 0.8953 0.42433 0.50286 0.0
C1545 C 0.85641 0.39155 0.5345 0.0
N1546 N 0.89431 0.46831 0.49513 0.0
N1547 N 0.85662 0.41 0.52081 0.0
H1548 H 0.40726 0.91033 0.98914 0.0
H1549 H 0.46517 0.83997 0.04996 0.0
H1550 H 0.38198 0.84042 0.95783 0.0
H1551 H 0.50775 0.91007 0.01796 0.0
H1552 H 0.43117 0.83938 0.02682 0.0
H1553 H 0.44121 0.91041 0.01194 0.0
C1554 C 0.40887 0.89501 0.98732 0.0
C1555 C 0.39243 0.87561 0.97088 0.0
C1556 C 0.44798 0.85485 0.02488 0.0
C1557 C 0.43022 0.87522 0.99771 0.0
C1558 C 0.46725 0.85523 0.03809 0.0
C1559 C 0.48898 0.87529 0.03638 0.0
C1560 C 0.45052 0.87482 0.01045 0.0
C1561 C 0.49109 0.89446 0.02017 0.0
C1562 C 0.42812 0.89506 1.00022 0.0
C1563 C 0.39476 0.8559 0.96968 0.0
N1564 N 0.47194 0.89395 0.00827 0.0
N1565 N 0.41335 0.85616 0.983 0.0
H1566 H 0.4978 0.40418 0.48665 0.0
H1567 H 0.60156 0.50755 0.51517 0.0
H1568 H 0.5438 0.38074 0.45473 0.0
H1569 H 0.62422 0.46106 0.54762 0.0
H1570 H 0.56718 0.47443 0.49204 0.0
H1571 H 0.53116 0.43866 0.50914 0.0
C1572 C 0.51495 0.40636 0.48452 0.0
C1573 C 0.5184 0.39024 0.46807 0.0
C1574 C 0.5797 0.47154 0.50426 0.0
C1575 C 0.55613 0.4288 0.4943 0.0
C1576 C 0.59924 0.49034 0.51728 0.0
C1577 C 0.61509 0.48669 0.53408 0.0
C1578 C 0.57663 0.44922 0.5072 0.0
C1579 C 0.61188 0.4643 0.53554 0.0
C1580 C 0.53389 0.42595 0.49718 0.0
C1581 C 0.54072 0.39328 0.46656 0.0
N1582 N 0.59298 0.44632 0.52217 0.0
N1583 N 0.55883 0.41223 0.47965 0.0
H1584 H 0.17006 0.54406 0.9554 0.0
H1585 H 0.09816 0.60041 0.0163 0.0
H1586 H 0.09992 0.50098 0.98693 0.0
H1587 H 0.16821 0.62668 0.0477 0.0
H1588 H 0.09872 0.56684 0.99342 0.0
H1589 H 0.17027 0.57786 0.97865 0.0
C1590 C 0.15472 0.54182 0.96718 0.0
C1591 C 0.13474 0.52001 0.96872 0.0
C1592 C 0.11399 0.58009 0.00508 0.0
C1593 C 0.13477 0.55824 0.99476 0.0
C1594 C 0.11366 0.59912 0.01808 0.0
C1595 C 0.13291 0.61571 0.0346 0.0
C1596 C 0.13405 0.57838 0.00751 0.0
C1597 C 0.15285 0.61377 0.03576 0.0
C1598 C 0.15488 0.56098 0.98046 0.0
C1599 C 0.11545 0.51771 0.98483 0.0
N1600 N 0.15297 0.5954 0.02231 0.0
N1601 N 0.11575 0.53674 0.99677 0.0
H1602 H 0.49941 0.09462 0.51697 0.0
H1603 H 0.62745 0.16458 0.45583 0.0
H1604 H 0.54394 0.16465 0.54793 0.0
H1605 H 0.6002 0.09478 0.48893 0.0
H1606 H 0.59417 0.16534 0.47909 0.0
H1607 H 0.53335 0.09444 0.49465 0.0
C1608 C 0.51634 0.10995 0.51882 0.0
C1609 C 0.51924 0.12941 0.53504 0.0
C1610 C 0.59555 0.14991 0.48126 0.0
C1611 C 0.55749 0.12969 0.50866 0.0
C1612 C 0.61437 0.14943 0.46798 0.0
C1613 C 0.61606 0.12938 0.46996 0.0
C1614 C 0.5782 0.13005 0.49603 0.0
C1615 C 0.59911 0.11036 0.48651 0.0
C1616 C 0.53557 0.10984 0.50618 0.0
C1617 C 0.54128 0.14912 0.53626 0.0
N1618 N 0.58053 0.11095 0.49846 0.0
N1619 N 0.55966 0.14882 0.52315 0.0
H1620 H 0.49833 0.40483 0.01722 0.0
H1621 H 0.60188 0.50821 0.98862 0.0
H1622 H 0.54432 0.38121 0.0485 0.0
H1623 H 0.62492 0.46198 0.95636 0.0
H1624 H 0.5675 0.47498 0.01152 0.0
H1625 H 0.53164 0.43931 0.99468 0.0
C1626 C 0.51548 0.40698 0.01923 0.0
C1627 C 0.51893 0.39081 0.03553 0.0
C1628 C 0.58009 0.47217 0.9994 0.0
C1629 C 0.55663 0.42941 0.00927 0.0
C1630 C 0.59964 0.49104 0.9865 0.0
C1631 C 0.6156 0.48749 0.96981 0.0
C1632 C 0.57712 0.44988 0.99645 0.0
C1633 C 0.61249 0.46513 0.96834 0.0
C1634 C 0.53439 0.42659 0.00654 0.0
C1635 C 0.54124 0.3938 0.03683 0.0
N1636 N 0.59357 0.44709 0.9816 0.0
N1637 N 0.55933 0.41277 0.02376 0.0
H1638 H 0.16675 0.62536 0.45433 0.0
H1639 H 0.09664 0.49739 0.51602 0.0
H1640 H 0.09703 0.59833 0.48764 0.0
H1641 H 0.1665 0.54211 0.54748 0.0
H1642 H 0.09657 0.5312 0.493 0.0
H1643 H 0.16737 0.59195 0.47742 0.0
C1644 C 0.15157 0.61228 0.46646 0.0
C1645 C 0.1316 0.61409 0.46858 0.0
C1646 C 0.11191 0.53349 0.50478 0.0
C1647 C 0.13211 0.57609 0.49445 0.0
C1648 C 0.11196 0.51433 0.51782 0.0
C1649 C 0.13133 0.51733 0.53438 0.0
C1650 C 0.13174 0.55543 0.50726 0.0
C1651 C 0.15104 0.53938 0.53554 0.0
C1652 C 0.15198 0.59339 0.47964 0.0
C1653 C 0.11255 0.59716 0.48512 0.0
N1654 N 0.15079 0.55768 0.52208 0.0
N1655 N 0.11307 0.57851 0.49698 0.0
H1656 H 0.6021 0.09643 0.01599 0.0
H1657 H 0.54454 0.16663 0.95392 0.0
H1658 H 0.62706 0.1661 0.04811 0.0
H1659 H 0.50164 0.09698 0.98734 0.0
H1660 H 0.57846 0.16722 0.97737 0.0
H1661 H 0.5683 0.09646 0.9929 0.0
C1662 C 0.60046 0.11173 0.0179 0.0
C1663 C 0.61675 0.13102 0.03467 0.0
C1664 C 0.5616 0.15185 0.97954 0.0
C1665 C 0.57917 0.13156 0.0074 0.0
C1666 C 0.54237 0.15147 0.96616 0.0
C1667 C 0.52057 0.13152 0.96821 0.0
C1668 C 0.55895 0.13199 0.99446 0.0
C1669 C 0.51836 0.11248 0.98487 0.0
C1670 C 0.58131 0.11175 0.00481 0.0
C1671 C 0.61439 0.15071 0.03598 0.0
N1672 N 0.53746 0.11298 0.99692 0.0
N1673 N 0.5959 0.15053 0.02244 0.0
H1674 H 0.46315 0.62604 0.5499 0.0
H1675 H 0.37846 0.54159 0.45197 0.0
H1676 H 0.50474 0.59881 0.51306 0.0
H1677 H 0.4058 0.49999 0.48847 0.0
H1678 H 0.41119 0.57607 0.47518 0.0
H1679 H 0.42869 0.59348 0.52641 0.0
C1680 C 0.46493 0.61315 0.53677 0.0
C1681 C 0.48651 0.61461 0.53388 0.0
C1682 C 0.40991 0.55936 0.47828 0.0
C1683 C 0.44754 0.57767 0.5071 0.0
C1684 C 0.39142 0.53981 0.46495 0.0
C1685 C 0.38993 0.51822 0.46784 0.0
C1686 C 0.42706 0.55721 0.49428 0.0
C1687 C 0.40671 0.51653 0.48539 0.0
C1688 C 0.44539 0.59476 0.52327 0.0
C1689 C 0.48821 0.59791 0.51614 0.0
N1690 N 0.42496 0.53593 0.49748 0.0
N1691 N 0.46881 0.57975 0.50389 0.0
H1692 H 0.91162 0.40525 0.9898 0.0
H1693 H 0.84107 0.46284 0.05094 0.0
H1694 H 0.84163 0.37969 0.95861 0.0
H1695 H 0.9109 0.50554 0.01802 0.0
H1696 H 0.84053 0.42882 0.02799 0.0
H1697 H 0.91154 0.43908 0.01267 0.0
C1698 C 0.89624 0.40676 0.98804 0.0
C1699 C 0.87687 0.39029 0.97158 0.0
C1700 C 0.85593 0.44566 0.02581 0.0
C1701 C 0.8763 0.42794 0.99853 0.0
C1702 C 0.85628 0.46495 0.0389 0.0
C1703 C 0.87626 0.48672 0.03686 0.0
C1704 C 0.87586 0.44823 0.01118 0.0
C1705 C 0.89537 0.48885 0.02047 0.0
C1706 C 0.8962 0.42594 1.00099 0.0
C1707 C 0.85708 0.3925 0.97047 0.0
N1708 N 0.8949 0.46969 0.0087 0.0
N1709 N 0.85725 0.41104 0.98383 0.0
H1710 H 0.46314 0.83835 0.4537 0.0
H1711 H 0.40589 0.90905 0.51563 0.0
H1712 H 0.50605 0.90817 0.48651 0.0
H1713 H 0.38047 0.83908 0.54682 0.0
H1714 H 0.43959 0.90893 0.49231 0.0
H1715 H 0.42922 0.83791 0.47684 0.0
C1716 C 0.46531 0.85358 0.46574 0.0
C1717 C 0.48712 0.87352 0.46771 0.0
C1718 C 0.42651 0.89361 0.50409 0.0
C1719 C 0.44873 0.87323 0.4936 0.0
C1720 C 0.4074 0.89367 0.51729 0.0
C1721 C 0.39102 0.87431 0.53387 0.0
C1722 C 0.42851 0.8737 0.50645 0.0
C1723 C 0.39322 0.85452 0.53486 0.0
C1724 C 0.44608 0.85329 0.47894 0.0
C1725 C 0.48933 0.89266 0.48412 0.0
N1726 N 0.41168 0.85468 0.52127 0.0
N1727 N 0.47022 0.89224 0.49599 0.0
loop_
_geom_bond_atom_site_label_1
_geom_bond_atom_site_label_2
_geom_bond_distance
_geom_bond_site_symmetry_2
_ccdc_geom_bond_type
Mn0 O5 2.095 . S
Mn0 O15 2.162 . S
Mn0 O16 2.297 . S
Mn0 O24 2.385 . S
Mn0 O25 2.209 . S
Mn0 O26 2.094 . S
Mn1 O6 2.121 . S
Mn1 N8 2.257 . S
Mn1 N17 2.282 . S
Mn1 O25 2.215 . S
Mn1 O27 2.117 . S
C2 O24 1.234 . S
C2 O25 1.283 . S
C3 O15 1.281 . S
C3 O16 1.236 . S
C4 O26 1.240 . S
C4 O27 1.264 . S
O5 Mn0 2.095 . S
O5 C14 1.250 . S
O6 Mn1 2.121 . S
O6 C14 1.258 . S
C7 N8 1.326 . S
C7 C11 1.460 . S
C7 H13 0.929 . S
N8 Mn1 2.257 . S
N8 C7 1.326 . S
N8 C12 1.362 . S
C9 C10 1.258 . S
C9 C12 1.431 . S
C9 C29 1.449 . S
C10 C9 1.258 . S
C10 C11 1.477 . S
C10 H30 0.931 . S
C11 C7 1.460 . S
C11 C10 1.477 . S
C11 H31 0.930 . S
C12 N8 1.362 . S
C12 C9 1.431 . S
C12 C22 1.476 . S
H13 C7 0.929 . S
C14 O5 1.250 . S
C14 O6 1.258 . S
O15 Mn0 2.162 . S
O15 C3 1.281 . S
O16 Mn0 2.297 . S
O16 C3 1.236 . S
N17 Mn1 2.282 . S
N17 C18 1.328 . S
N17 C22 1.318 . S
C18 N17 1.328 . S
C18 C19 1.457 . S
C18 H23 0.929 . S
C19 C18 1.457 . S
C19 C20 1.291 . S
C19 H32 0.931 . S
C20 C19 1.291 . S
C20 C21 1.373 . S
C20 H33 0.929 . S
C21 C20 1.373 . S
C21 C22 1.396 . S
C21 C28 1.403 . S
C22 C12 1.476 . S
C22 N17 1.318 . S
C22 C21 1.396 . S
H23 C18 0.929 . S
O24 Mn0 2.385 . S
O24 C2 1.234 . S
O25 Mn0 2.209 . S
O25 Mn1 2.215 . S
O25 C2 1.283 . S
O26 Mn0 2.094 . S
O26 C4 1.240 . S
O27 Mn1 2.117 . S
O27 C4 1.264 . S
C28 C21 1.403 . S
C28 C29 1.399 . S
C28 H34 0.929 . S
C29 C9 1.449 . S
C29 C28 1.399 . S
C29 H35 0.930 . S
H30 C10 0.931 . S
H31 C11 0.930 . S
H32 C19 0.931 . S
H33 C20 0.929 . S
H34 C28 0.929 . S
H35 C29 0.930 . S
Mn36 O41 2.095 . S
Mn36 O51 2.162 . S
Mn36 O52 2.297 . S
Mn36 O60 2.385 . S
Mn36 O61 2.209 . S
Mn36 O62 2.094 . S
Mn37 O42 2.121 . S
Mn37 N44 2.257 . S
Mn37 N53 2.282 . S
Mn37 O61 2.215 . S
Mn37 O63 2.117 . S
C38 O60 1.234 . S
C38 O61 1.283 . S
C39 O51 1.281 . S
C39 O52 1.236 . S
C40 O62 1.240 . S
C40 O63 1.264 . S
O41 Mn36 2.095 . S
O41 C50 1.250 . S
O42 Mn37 2.121 . S
O42 C50 1.258 . S
C43 N44 1.326 . S
C43 C47 1.460 . S
C43 H49 0.929 . S
N44 Mn37 2.257 . S
N44 C43 1.326 . S
N44 C48 1.362 . S
C45 C46 1.258 . S
C45 C48 1.431 . S
C45 C65 1.449 . S
C46 C45 1.258 . S
C46 C47 1.477 . S
C46 H66 0.931 . S
C47 C43 1.460 . S
C47 C46 1.477 . S
C47 H67 0.930 . S
C48 N44 1.362 . S
C48 C45 1.431 . S
C48 C58 1.476 . S
H49 C43 0.929 . S
C50 O41 1.250 . S
C50 O42 1.258 . S
O51 Mn36 2.162 . S
O51 C39 1.281 . S
O52 Mn36 2.297 . S
O52 C39 1.236 . S
N53 Mn37 2.282 . S
N53 C54 1.328 . S
N53 C58 1.318 . S
C54 N53 1.328 . S
C54 C55 1.457 . S
C54 H59 0.929 . S
C55 C54 1.457 . S
C55 C56 1.291 . S
C55 H68 0.931 . S
C56 C55 1.291 . S
C56 C57 1.373 . S
C56 H69 0.929 . S
C57 C56 1.373 . S
C57 C58 1.396 . S
C57 C64 1.403 . S
C58 C48 1.476 . S
C58 N53 1.318 . S
C58 C57 1.396 . S
H59 C54 0.929 . S
O60 Mn36 2.385 . S
O60 C38 1.234 . S
O61 Mn36 2.209 . S
O61 Mn37 2.215 . S
O61 C38 1.283 . S
O62 Mn36 2.094 . S
O62 C40 1.240 . S
O63 Mn37 2.117 . S
O63 C40 1.264 . S
C64 C57 1.403 . S
C64 C65 1.399 . S
C64 H70 0.929 . S
C65 C45 1.449 . S
C65 C64 1.399 . S
C65 H71 0.930 . S
H66 C46 0.931 . S
H67 C47 0.930 . S
H68 C55 0.931 . S
H69 C56 0.929 . S
H70 C64 0.929 . S
H71 C65 0.930 . S
Mn72 O77 2.095 . S
Mn72 O87 2.162 . S
Mn72 O88 2.297 . S
Mn72 O96 2.385 . S
Mn72 O97 2.209 . S
Mn72 O98 2.094 . S
Mn73 O78 2.121 . S
Mn73 N80 2.257 . S
Mn73 N89 2.282 . S
Mn73 O97 2.215 . S
Mn73 O99 2.117 . S
C74 O96 1.234 . S
C74 O97 1.283 . S
C75 O87 1.281 . S
C75 O88 1.236 . S
C76 O98 1.240 . S
C76 O99 1.264 . S
O77 Mn72 2.095 . S
O77 C86 1.250 . S
O78 Mn73 2.121 . S
O78 C86 1.258 . S
C79 N80 1.326 . S
C79 C83 1.460 . S
C79 H85 0.929 . S
N80 Mn73 2.257 . S
N80 C79 1.326 . S
N80 C84 1.362 . S
C81 C82 1.258 . S
C81 C84 1.431 . S
C81 C101 1.449 . S
C82 C81 1.258 . S
C82 C83 1.477 . S
C82 H102 0.931 . S
C83 C79 1.460 . S
C83 C82 1.477 . S
C83 H103 0.930 . S
C84 N80 1.362 . S
C84 C81 1.431 . S
C84 C94 1.476 . S
H85 C79 0.929 . S
C86 O77 1.250 . S
C86 O78 1.258 . S
O87 Mn72 2.162 . S
O87 C75 1.281 . S
O88 Mn72 2.297 . S
O88 C75 1.236 . S
N89 Mn73 2.282 . S
N89 C90 1.328 . S
N89 C94 1.318 . S
C90 N89 1.328 . S
C90 C91 1.457 . S
C90 H95 0.929 . S
C91 C90 1.457 . S
C91 C92 1.291 . S
C91 H104 0.931 . S
C92 C91 1.291 . S
C92 C93 1.373 . S
C92 H105 0.929 . S
C93 C92 1.373 . S
C93 C94 1.396 . S
C93 C100 1.403 . S
C94 C84 1.476 . S
C94 N89 1.318 . S
C94 C93 1.396 . S
H95 C90 0.929 . S
O96 Mn72 2.385 . S
O96 C74 1.234 . S
O97 Mn72 2.209 . S
O97 Mn73 2.215 . S
O97 C74 1.283 . S
O98 Mn72 2.094 . S
O98 C76 1.240 . S
O99 Mn73 2.117 . S
O99 C76 1.264 . S
C100 C93 1.403 . S
C100 C101 1.399 . S
C100 H106 0.929 . S
C101 C81 1.449 . S
C101 C100 1.399 . S
C101 H107 0.930 . S
H102 C82 0.931 . S
H103 C83 0.930 . S
H104 C91 0.931 . S
H105 C92 0.929 . S
H106 C100 0.929 . S
H107 C101 0.930 . S
Mn108 O113 2.095 . S
Mn108 O123 2.162 . S
Mn108 O124 2.297 . S
Mn108 O132 2.385 . S
Mn108 O133 2.209 . S
Mn108 O134 2.094 . S
Mn109 O114 2.121 . S
Mn109 N116 2.257 . S
Mn109 N125 2.282 . S
Mn109 O133 2.215 . S
Mn109 O135 2.117 . S
C110 O132 1.234 . S
C110 O133 1.283 . S
C111 O123 1.281 . S
C111 O124 1.236 . S
C112 O134 1.240 . S
C112 O135 1.264 . S
O113 Mn108 2.095 . S
O113 C122 1.250 . S
O114 Mn109 2.121 . S
O114 C122 1.258 . S
C115 N116 1.326 . S
C115 C119 1.460 . S
C115 H121 0.929 . S
N116 Mn109 2.257 . S
N116 C115 1.326 . S
N116 C120 1.362 . S
C117 C118 1.258 . S
C117 C120 1.431 . S
C117 C137 1.449 . S
C118 C117 1.258 . S
C118 C119 1.477 . S
C118 H138 0.931 . S
C119 C115 1.460 . S
C119 C118 1.477 . S
C119 H139 0.930 . S
C120 N116 1.362 . S
C120 C117 1.431 . S
C120 C130 1.476 . S
H121 C115 0.929 . S
C122 O113 1.250 . S
C122 O114 1.258 . S
O123 Mn108 2.162 . S
O123 C111 1.281 . S
O124 Mn108 2.297 . S
O124 C111 1.236 . S
N125 Mn109 2.282 . S
N125 C126 1.328 . S
N125 C130 1.318 . S
C126 N125 1.328 . S
C126 C127 1.457 . S
C126 H131 0.929 . S
C127 C126 1.457 . S
C127 C128 1.291 . S
C127 H140 0.931 . S
C128 C127 1.291 . S
C128 C129 1.373 . S
C128 H141 0.929 . S
C129 C128 1.373 . S
C129 C130 1.396 . S
C129 C136 1.403 . S
C130 C120 1.476 . S
C130 N125 1.318 . S
C130 C129 1.396 . S
H131 C126 0.929 . S
O132 Mn108 2.385 . S
O132 C110 1.234 . S
O133 Mn108 2.209 . S
O133 Mn109 2.215 . S
O133 C110 1.283 . S
O134 Mn108 2.094 . S
O134 C112 1.240 . S
O135 Mn109 2.117 . S
O135 C112 1.264 . S
C136 C129 1.403 . S
C136 C137 1.399 . S
C136 H142 0.929 . S
C137 C117 1.449 . S
C137 C136 1.399 . S
C137 H143 0.930 . S
H138 C118 0.931 . S
H139 C119 0.930 . S
H140 C127 0.931 . S
H141 C128 0.929 . S
H142 C136 0.929 . S
H143 C137 0.930 . S
Mn144 O149 2.095 . S
Mn144 O159 2.162 . S
Mn144 O160 2.297 . S
Mn144 O168 2.385 . S
Mn144 O169 2.209 . S
Mn144 O170 2.094 . S
Mn145 O150 2.121 . S
Mn145 N152 2.257 . S
Mn145 N161 2.282 . S
Mn145 O169 2.215 . S
Mn145 O171 2.117 . S
C146 O168 1.234 . S
C146 O169 1.283 . S
C147 O159 1.281 . S
C147 O160 1.236 . S
C148 O170 1.240 . S
C148 O171 1.264 . S
O149 Mn144 2.095 . S
O149 C158 1.250 . S
O150 Mn145 2.121 . S
O150 C158 1.258 . S
C151 N152 1.326 . S
C151 C155 1.460 . S
C151 H157 0.929 . S
N152 Mn145 2.257 . S
N152 C151 1.326 . S
N152 C156 1.362 . S
C153 C154 1.258 . S
C153 C156 1.431 . S
C153 C173 1.449 . S
C154 C153 1.258 . S
C154 C155 1.477 . S
C154 H174 0.931 . S
C155 C151 1.460 . S
C155 C154 1.477 . S
C155 H175 0.930 . S
C156 N152 1.362 . S
C156 C153 1.431 . S
C156 C166 1.476 . S
H157 C151 0.929 . S
C158 O149 1.250 . S
C158 O150 1.258 . S
O159 Mn144 2.162 . S
O159 C147 1.281 . S
O160 Mn144 2.297 . S
O160 C147 1.236 . S
N161 Mn145 2.282 . S
N161 C162 1.328 . S
N161 C166 1.318 . S
C162 N161 1.328 . S
C162 C163 1.457 . S
C162 H167 0.929 . S
C163 C162 1.457 . S
C163 C164 1.291 . S
C163 H176 0.931 . S
C164 C163 1.291 . S
C164 C165 1.373 . S
C164 H177 0.929 . S
C165 C164 1.373 . S
C165 C166 1.396 . S
C165 C172 1.403 . S
C166 C156 1.476 . S
C166 N161 1.318 . S
C166 C165 1.396 . S
H167 C162 0.929 . S
O168 Mn144 2.385 . S
O168 C146 1.234 . S
O169 Mn144 2.209 . S
O169 Mn145 2.215 . S
O169 C146 1.283 . S
O170 Mn144 2.094 . S
O170 C148 1.240 . S
O171 Mn145 2.117 . S
O171 C148 1.264 . S
C172 C165 1.403 . S
C172 C173 1.399 . S
C172 H178 0.929 . S
C173 C153 1.449 . S
C173 C172 1.399 . S
C173 H179 0.930 . S
H174 C154 0.931 . S
H175 C155 0.930 . S
H176 C163 0.931 . S
H177 C164 0.929 . S
H178 C172 0.929 . S
H179 C173 0.930 . S
Mn180 O185 2.095 . S
Mn180 O195 2.162 . S
Mn180 O196 2.297 . S
Mn180 O204 2.385 . S
Mn180 O205 2.209 . S
Mn180 O206 2.094 . S
Mn181 O186 2.121 . S
Mn181 N188 2.257 . S
Mn181 N197 2.282 . S
Mn181 O205 2.215 . S
Mn181 O207 2.117 . S
C182 O204 1.234 . S
C182 O205 1.283 . S
C183 O195 1.281 . S
C183 O196 1.236 . S
C184 O206 1.240 . S
C184 O207 1.264 . S
O185 Mn180 2.095 . S
O185 C194 1.250 . S
O186 Mn181 2.121 . S
O186 C194 1.258 . S
C187 N188 1.326 . S
C187 C191 1.460 . S
C187 H193 0.929 . S
N188 Mn181 2.257 . S
N188 C187 1.326 . S
N188 C192 1.362 . S
C189 C190 1.258 . S
C189 C192 1.431 . S
C189 C209 1.449 . S
C190 C189 1.258 . S
C190 C191 1.477 . S
C190 H210 0.931 . S
C191 C187 1.460 . S
C191 C190 1.477 . S
C191 H211 0.930 . S
C192 N188 1.362 . S
C192 C189 1.431 . S
C192 C202 1.476 . S
H193 C187 0.929 . S
C194 O185 1.250 . S
C194 O186 1.258 . S
O195 Mn180 2.162 . S
O195 C183 1.281 . S
O196 Mn180 2.297 . S
O196 C183 1.236 . S
N197 Mn181 2.282 . S
N197 C198 1.328 . S
N197 C202 1.318 . S
C198 N197 1.328 . S
C198 C199 1.457 . S
C198 H203 0.929 . S
C199 C198 1.457 . S
C199 C200 1.291 . S
C199 H212 0.931 . S
C200 C199 1.291 . S
C200 C201 1.373 . S
C200 H213 0.929 . S
C201 C200 1.373 . S
C201 C202 1.396 . S
C201 C208 1.403 . S
C202 C192 1.476 . S
C202 N197 1.318 . S
C202 C201 1.396 . S
H203 C198 0.929 . S
O204 Mn180 2.385 . S
O204 C182 1.234 . S
O205 Mn180 2.209 . S
O205 Mn181 2.215 . S
O205 C182 1.283 . S
O206 Mn180 2.094 . S
O206 C184 1.240 . S
O207 Mn181 2.117 . S
O207 C184 1.264 . S
C208 C201 1.403 . S
C208 C209 1.399 . S
C208 H214 0.929 . S
C209 C189 1.449 . S
C209 C208 1.399 . S
C209 H215 0.930 . S
H210 C190 0.931 . S
H211 C191 0.930 . S
H212 C199 0.931 . S
H213 C200 0.929 . S
H214 C208 0.929 . S
H215 C209 0.930 . S
Mn216 O221 2.095 . S
Mn216 O231 2.162 . S
Mn216 O232 2.297 . S
Mn216 O240 2.385 . S
Mn216 O241 2.209 . S
Mn216 O242 2.094 . S
Mn217 O222 2.121 . S
Mn217 N224 2.257 . S
Mn217 N233 2.282 . S
Mn217 O241 2.215 . S
Mn217 O243 2.117 . S
C218 O240 1.234 . S
C218 O241 1.283 . S
C219 O231 1.281 . S
C219 O232 1.236 . S
C220 O242 1.240 . S
C220 O243 1.264 . S
O221 Mn216 2.095 . S
O221 C230 1.250 . S
O222 Mn217 2.121 . S
O222 C230 1.258 . S
C223 N224 1.326 . S
C223 C227 1.460 . S
C223 H229 0.929 . S
N224 Mn217 2.257 . S
N224 C223 1.326 . S
N224 C228 1.362 . S
C225 C226 1.258 . S
C225 C228 1.431 . S
C225 C245 1.449 . S
C226 C225 1.258 . S
C226 C227 1.477 . S
C226 H246 0.931 . S
C227 C223 1.460 . S
C227 C226 1.477 . S
C227 H247 0.930 . S
C228 N224 1.362 . S
C228 C225 1.431 . S
C228 C238 1.476 . S
H229 C223 0.929 . S
C230 O221 1.250 . S
C230 O222 1.258 . S
O231 Mn216 2.162 . S
O231 C219 1.281 . S
O232 Mn216 2.297 . S
O232 C219 1.236 . S
N233 Mn217 2.282 . S
N233 C234 1.328 . S
N233 C238 1.318 . S
C234 N233 1.328 . S
C234 C235 1.457 . S
C234 H239 0.929 . S
C235 C234 1.457 . S
C235 C236 1.291 . S
C235 H248 0.931 . S
C236 C235 1.291 . S
C236 C237 1.373 . S
C236 H249 0.929 . S
C237 C236 1.373 . S
C237 C238 1.396 . S
C237 C244 1.403 . S
C238 C228 1.476 . S
C238 N233 1.318 . S
C238 C237 1.396 . S
H239 C234 0.929 . S
O240 Mn216 2.385 . S
O240 C218 1.234 . S
O241 Mn216 2.209 . S
O241 Mn217 2.215 . S
O241 C218 1.283 . S
O242 Mn216 2.094 . S
O242 C220 1.240 . S
O243 Mn217 2.117 . S
O243 C220 1.264 . S
C244 C237 1.403 . S
C244 C245 1.399 . S
C244 H250 0.929 . S
C245 C225 1.449 . S
C245 C244 1.399 . S
C245 H251 0.930 . S
H246 C226 0.931 . S
H247 C227 0.930 . S
H248 C235 0.931 . S
H249 C236 0.929 . S
H250 C244 0.929 . S
H251 C245 0.930 . S
Mn252 O257 2.095 . S
Mn252 O267 2.162 . S
Mn252 O268 2.297 . S
Mn252 O276 2.385 . S
Mn252 O277 2.209 . S
Mn252 O278 2.094 . S
Mn253 O258 2.121 . S
Mn253 N260 2.257 . S
Mn253 N269 2.282 . S
Mn253 O277 2.215 . S
Mn253 O279 2.117 . S
C254 O276 1.234 . S
C254 O277 1.283 . S
C255 O267 1.281 . S
C255 O268 1.236 . S
C256 O278 1.240 . S
C256 O279 1.264 . S
O257 Mn252 2.095 . S
O257 C266 1.250 . S
O258 Mn253 2.121 . S
O258 C266 1.258 . S
C259 N260 1.326 . S
C259 C263 1.460 . S
C259 H265 0.929 . S
N260 Mn253 2.257 . S
N260 C259 1.326 . S
N260 C264 1.362 . S
C261 C262 1.258 . S
C261 C264 1.431 . S
C261 C281 1.449 . S
C262 C261 1.258 . S
C262 C263 1.477 . S
C262 H282 0.931 . S
C263 C259 1.460 . S
C263 C262 1.477 . S
C263 H283 0.930 . S
C264 N260 1.362 . S
C264 C261 1.431 . S
C264 C274 1.476 . S
H265 C259 0.929 . S
C266 O257 1.250 . S
C266 O258 1.258 . S
O267 Mn252 2.162 . S
O267 C255 1.281 . S
O268 Mn252 2.297 . S
O268 C255 1.236 . S
N269 Mn253 2.282 . S
N269 C270 1.328 . S
N269 C274 1.318 . S
C270 N269 1.328 . S
C270 C271 1.457 . S
C270 H275 0.929 . S
C271 C270 1.457 . S
C271 C272 1.291 . S
C271 H284 0.931 . S
C272 C271 1.291 . S
C272 C273 1.373 . S
C272 H285 0.929 . S
C273 C272 1.373 . S
C273 C274 1.396 . S
C273 C280 1.403 . S
C274 C264 1.476 . S
C274 N269 1.318 . S
C274 C273 1.396 . S
H275 C270 0.929 . S
O276 Mn252 2.385 . S
O276 C254 1.234 . S
O277 Mn252 2.209 . S
O277 Mn253 2.215 . S
O277 C254 1.283 . S
O278 Mn252 2.094 . S
O278 C256 1.240 . S
O279 Mn253 2.117 . S
O279 C256 1.264 . S
C280 C273 1.403 . S
C280 C281 1.399 . S
C280 H286 0.929 . S
C281 C261 1.449 . S
C281 C280 1.399 . S
C281 H287 0.930 . S
H282 C262 0.931 . S
H283 C263 0.930 . S
H284 C271 0.931 . S
H285 C272 0.929 . S
H286 C280 0.929 . S
H287 C281 0.930 . S
Mn288 O293 2.095 . S
Mn288 O303 2.162 . S
Mn288 O304 2.297 . S
Mn288 O312 2.385 . S
Mn288 O313 2.209 . S
Mn288 O314 2.094 . S
Mn289 O294 2.121 . S
Mn289 N296 2.257 . S
Mn289 N305 2.282 . S
Mn289 O313 2.215 . S
Mn289 O315 2.117 . S
C290 O312 1.234 . S
C290 O313 1.283 . S
C291 O303 1.281 . S
C291 O304 1.236 . S
C292 O314 1.240 . S
C292 O315 1.264 . S
O293 Mn288 2.095 . S
O293 C302 1.250 . S
O294 Mn289 2.121 . S
O294 C302 1.258 . S
C295 N296 1.326 . S
C295 C299 1.460 . S
C295 H301 0.929 . S
N296 Mn289 2.257 . S
N296 C295 1.326 . S
N296 C300 1.362 . S
C297 C298 1.258 . S
C297 C300 1.431 . S
C297 C317 1.449 . S
C298 C297 1.258 . S
C298 C299 1.477 . S
C298 H318 0.931 . S
C299 C295 1.460 . S
C299 C298 1.477 . S
C299 H319 0.930 . S
C300 N296 1.362 . S
C300 C297 1.431 . S
C300 C310 1.476 . S
H301 C295 0.929 . S
C302 O293 1.250 . S
C302 O294 1.258 . S
O303 Mn288 2.162 . S
O303 C291 1.281 . S
O304 Mn288 2.297 . S
O304 C291 1.236 . S
N305 Mn289 2.282 . S
N305 C306 1.328 . S
N305 C310 1.318 . S
C306 N305 1.328 . S
C306 C307 1.457 . S
C306 H311 0.929 . S
C307 C306 1.457 . S
C307 C308 1.291 . S
C307 H320 0.931 . S
C308 C307 1.291 . S
C308 C309 1.373 . S
C308 H321 0.929 . S
C309 C308 1.373 . S
C309 C310 1.396 . S
C309 C316 1.403 . S
C310 C300 1.476 . S
C310 N305 1.318 . S
C310 C309 1.396 . S
H311 C306 0.929 . S
O312 Mn288 2.385 . S
O312 C290 1.234 . S
O313 Mn288 2.209 . S
O313 Mn289 2.215 . S
O313 C290 1.283 . S
O314 Mn288 2.094 . S
O314 C292 1.240 . S
O315 Mn289 2.117 . S
O315 C292 1.264 . S
C316 C309 1.403 . S
C316 C317 1.399 . S
C316 H322 0.929 . S
C317 C297 1.449 . S
C317 C316 1.399 . S
C317 H323 0.930 . S
H318 C298 0.931 . S
H319 C299 0.930 . S
H320 C307 0.931 . S
H321 C308 0.929 . S
H322 C316 0.929 . S
H323 C317 0.930 . S
Mn324 O329 2.095 . S
Mn324 O339 2.162 . S
Mn324 O340 2.297 . S
Mn324 O348 2.385 . S
Mn324 O349 2.209 . S
Mn324 O350 2.094 . S
Mn325 O330 2.121 . S
Mn325 N332 2.257 . S
Mn325 N341 2.282 . S
Mn325 O349 2.215 . S
Mn325 O351 2.117 . S
C326 O348 1.234 . S
C326 O349 1.283 . S
C327 O339 1.281 . S
C327 O340 1.236 . S
C328 O350 1.240 . S
C328 O351 1.264 . S
O329 Mn324 2.095 . S
O329 C338 1.250 . S
O330 Mn325 2.121 . S
O330 C338 1.258 . S
C331 N332 1.326 . S
C331 C335 1.460 . S
C331 H337 0.929 . S
N332 Mn325 2.257 . S
N332 C331 1.326 . S
N332 C336 1.362 . S
C333 C334 1.258 . S
C333 C336 1.431 . S
C333 C353 1.449 . S
C334 C333 1.258 . S
C334 C335 1.477 . S
C334 H354 0.931 . S
C335 C331 1.460 . S
C335 C334 1.477 . S
C335 H355 0.930 . S
C336 N332 1.362 . S
C336 C333 1.431 . S
C336 C346 1.476 . S
H337 C331 0.929 . S
C338 O329 1.250 . S
C338 O330 1.258 . S
O339 Mn324 2.162 . S
O339 C327 1.281 . S
O340 Mn324 2.297 . S
O340 C327 1.236 . S
N341 Mn325 2.282 . S
N341 C342 1.328 . S
N341 C346 1.318 . S
C342 N341 1.328 . S
C342 C343 1.457 . S
C342 H347 0.929 . S
C343 C342 1.457 . S
C343 C344 1.291 . S
C343 H356 0.931 . S
C344 C343 1.291 . S
C344 C345 1.373 . S
C344 H357 0.929 . S
C345 C344 1.373 . S
C345 C346 1.396 . S
C345 C352 1.403 . S
C346 C336 1.476 . S
C346 N341 1.318 . S
C346 C345 1.396 . S
H347 C342 0.929 . S
O348 Mn324 2.385 . S
O348 C326 1.234 . S
O349 Mn324 2.209 . S
O349 Mn325 2.215 . S
O349 C326 1.283 . S
O350 Mn324 2.094 . S
O350 C328 1.240 . S
O351 Mn325 2.117 . S
O351 C328 1.264 . S
C352 C345 1.403 . S
C352 C353 1.399 . S
C352 H358 0.929 . S
C353 C333 1.449 . S
C353 C352 1.399 . S
C353 H359 0.930 . S
H354 C334 0.931 . S
H355 C335 0.930 . S
H356 C343 0.931 . S
H357 C344 0.929 . S
H358 C352 0.929 . S
H359 C353 0.930 . S
Mn360 O365 2.095 . S
Mn360 O375 2.162 . S
Mn360 O376 2.297 . S
Mn360 O384 2.385 . S
Mn360 O385 2.209 . S
Mn360 O386 2.094 . S
Mn361 O366 2.121 . S
Mn361 N368 2.257 . S
Mn361 N377 2.282 . S
Mn361 O385 2.215 . S
Mn361 O387 2.117 . S
C362 O384 1.234 . S
C362 O385 1.283 . S
C363 O375 1.281 . S
C363 O376 1.236 . S
C364 O386 1.240 . S
C364 O387 1.264 . S
O365 Mn360 2.095 . S
O365 C374 1.250 . S
O366 Mn361 2.121 . S
O366 C374 1.258 . S
C367 N368 1.326 . S
C367 C371 1.460 . S
C367 H373 0.929 . S
N368 Mn361 2.257 . S
N368 C367 1.326 . S
N368 C372 1.362 . S
C369 C370 1.258 . S
C369 C372 1.431 . S
C369 C389 1.449 . S
C370 C369 1.258 . S
C370 C371 1.477 . S
C370 H390 0.931 . S
C371 C367 1.460 . S
C371 C370 1.477 . S
C371 H391 0.930 . S
C372 N368 1.362 . S
C372 C369 1.431 . S
C372 C382 1.476 . S
H373 C367 0.929 . S
C374 O365 1.250 . S
C374 O366 1.258 . S
O375 Mn360 2.162 . S
O375 C363 1.281 . S
O376 Mn360 2.297 . S
O376 C363 1.236 . S
N377 Mn361 2.282 . S
N377 C378 1.328 . S
N377 C382 1.318 . S
C378 N377 1.328 . S
C378 C379 1.457 . S
C378 H383 0.929 . S
C379 C378 1.457 . S
C379 C380 1.291 . S
C379 H392 0.931 . S
C380 C379 1.291 . S
C380 C381 1.373 . S
C380 H393 0.929 . S
C381 C380 1.373 . S
C381 C382 1.396 . S
C381 C388 1.403 . S
C382 C372 1.476 . S
C382 N377 1.318 . S
C382 C381 1.396 . S
H383 C378 0.929 . S
O384 Mn360 2.385 . S
O384 C362 1.234 . S
O385 Mn360 2.209 . S
O385 Mn361 2.215 . S
O385 C362 1.283 . S
O386 Mn360 2.094 . S
O386 C364 1.240 . S
O387 Mn361 2.117 . S
O387 C364 1.264 . S
C388 C381 1.403 . S
C388 C389 1.399 . S
C388 H394 0.929 . S
C389 C369 1.449 . S
C389 C388 1.399 . S
C389 H395 0.930 . S
H390 C370 0.931 . S
H391 C371 0.930 . S
H392 C379 0.931 . S
H393 C380 0.929 . S
H394 C388 0.929 . S
H395 C389 0.930 . S
Mn396 O401 2.095 . S
Mn396 O411 2.162 . S
Mn396 O412 2.297 . S
Mn396 O420 2.385 . S
Mn396 O421 2.209 . S
Mn396 O422 2.094 . S
Mn397 O402 2.121 . S
Mn397 N404 2.257 . S
Mn397 N413 2.282 . S
Mn397 O421 2.215 . S
Mn397 O423 2.117 . S
C398 O420 1.234 . S
C398 O421 1.283 . S
C399 O411 1.281 . S
C399 O412 1.236 . S
C400 O422 1.240 . S
C400 O423 1.264 . S
O401 Mn396 2.095 . S
O401 C410 1.250 . S
O402 Mn397 2.121 . S
O402 C410 1.258 . S
C403 N404 1.326 . S
C403 C407 1.460 . S
C403 H409 0.929 . S
N404 Mn397 2.257 . S
N404 C403 1.326 . S
N404 C408 1.362 . S
C405 C406 1.258 . S
C405 C408 1.431 . S
C405 C425 1.449 . S
C406 C405 1.258 . S
C406 C407 1.477 . S
C406 H426 0.931 . S
C407 C403 1.460 . S
C407 C406 1.477 . S
C407 H427 0.930 . S
C408 N404 1.362 . S
C408 C405 1.431 . S
C408 C418 1.476 . S
H409 C403 0.929 . S
C410 O401 1.250 . S
C410 O402 1.258 . S
O411 Mn396 2.162 . S
O411 C399 1.281 . S
O412 Mn396 2.297 . S
O412 C399 1.236 . S
N413 Mn397 2.282 . S
N413 C414 1.328 . S
N413 C418 1.318 . S
C414 N413 1.328 . S
C414 C415 1.457 . S
C414 H419 0.929 . S
C415 C414 1.457 . S
C415 C416 1.291 . S
C415 H428 0.931 . S
C416 C415 1.291 . S
C416 C417 1.373 . S
C416 H429 0.929 . S
C417 C416 1.373 . S
C417 C418 1.396 . S
C417 C424 1.403 . S
C418 C408 1.476 . S
C418 N413 1.318 . S
C418 C417 1.396 . S
H419 C414 0.929 . S
O420 Mn396 2.385 . S
O420 C398 1.234 . S
O421 Mn396 2.209 . S
O421 Mn397 2.215 . S
O421 C398 1.283 . S
O422 Mn396 2.094 . S
O422 C400 1.240 . S
O423 Mn397 2.117 . S
O423 C400 1.264 . S
C424 C417 1.403 . S
C424 C425 1.399 . S
C424 H430 0.929 . S
C425 C405 1.449 . S
C425 C424 1.399 . S
C425 H431 0.930 . S
H426 C406 0.931 . S
H427 C407 0.930 . S
H428 C415 0.931 . S
H429 C416 0.929 . S
H430 C424 0.929 . S
H431 C425 0.930 . S
Mn432 O437 2.095 . S
Mn432 O447 2.162 . S
Mn432 O448 2.297 . S
Mn432 O456 2.385 . S
Mn432 O457 2.209 . S
Mn432 O458 2.094 . S
Mn433 O438 2.121 . S
Mn433 N440 2.257 . S
Mn433 N449 2.282 . S
Mn433 O457 2.215 . S
Mn433 O459 2.117 . S
C434 O456 1.234 . S
C434 O457 1.283 . S
C435 O447 1.281 . S
C435 O448 1.236 . S
C436 O458 1.240 . S
C436 O459 1.264 . S
O437 Mn432 2.095 . S
O437 C446 1.250 . S
O438 Mn433 2.121 . S
O438 C446 1.258 . S
C439 N440 1.326 . S
C439 C443 1.460 . S
C439 H445 0.929 . S
N440 Mn433 2.257 . S
N440 C439 1.326 . S
N440 C444 1.362 . S
C441 C442 1.258 . S
C441 C444 1.431 . S
C441 C461 1.449 . S
C442 C441 1.258 . S
C442 C443 1.477 . S
C442 H462 0.931 . S
C443 C439 1.460 . S
C443 C442 1.477 . S
C443 H463 0.930 . S
C444 N440 1.362 . S
C444 C441 1.431 . S
C444 C454 1.476 . S
H445 C439 0.929 . S
C446 O437 1.250 . S
C446 O438 1.258 . S
O447 Mn432 2.162 . S
O447 C435 1.281 . S
O448 Mn432 2.297 . S
O448 C435 1.236 . S
N449 Mn433 2.282 . S
N449 C450 1.328 . S
N449 C454 1.318 . S
C450 N449 1.328 . S
C450 C451 1.457 . S
C450 H455 0.929 . S
C451 C450 1.457 . S
C451 C452 1.291 . S
C451 H464 0.931 . S
C452 C451 1.291 . S
C452 C453 1.373 . S
C452 H465 0.929 . S
C453 C452 1.373 . S
C453 C454 1.396 . S
C453 C460 1.403 . S
C454 C444 1.476 . S
C454 N449 1.318 . S
C454 C453 1.396 . S
H455 C450 0.929 . S
O456 Mn432 2.385 . S
O456 C434 1.234 . S
O457 Mn432 2.209 . S
O457 Mn433 2.215 . S
O457 C434 1.283 . S
O458 Mn432 2.094 . S
O458 C436 1.240 . S
O459 Mn433 2.117 . S
O459 C436 1.264 . S
C460 C453 1.403 . S
C460 C461 1.399 . S
C460 H466 0.929 . S
C461 C441 1.449 . S
C461 C460 1.399 . S
C461 H467 0.930 . S
H462 C442 0.931 . S
H463 C443 0.930 . S
H464 C451 0.931 . S
H465 C452 0.929 . S
H466 C460 0.929 . S
H467 C461 0.930 . S
Mn468 O473 2.095 . S
Mn468 O483 2.162 . S
Mn468 O484 2.297 . S
Mn468 O492 2.385 . S
Mn468 O493 2.209 . S
Mn468 O494 2.094 . S
Mn469 O474 2.121 . S
Mn469 N476 2.257 . S
Mn469 N485 2.282 . S
Mn469 O493 2.215 . S
Mn469 O495 2.117 . S
C470 O492 1.234 . S
C470 O493 1.283 . S
C471 O483 1.281 . S
C471 O484 1.236 . S
C472 O494 1.240 . S
C472 O495 1.264 . S
O473 Mn468 2.095 . S
O473 C482 1.250 . S
O474 Mn469 2.121 . S
O474 C482 1.258 . S
C475 N476 1.326 . S
C475 C479 1.460 . S
C475 H481 0.929 . S
N476 Mn469 2.257 . S
N476 C475 1.326 . S
N476 C480 1.362 . S
C477 C478 1.258 . S
C477 C480 1.431 . S
C477 C497 1.449 . S
C478 C477 1.258 . S
C478 C479 1.477 . S
C478 H498 0.931 . S
C479 C475 1.460 . S
C479 C478 1.477 . S
C479 H499 0.930 . S
C480 N476 1.362 . S
C480 C477 1.431 . S
C480 C490 1.476 . S
H481 C475 0.929 . S
C482 O473 1.250 . S
C482 O474 1.258 . S
O483 Mn468 2.162 . S
O483 C471 1.281 . S
O484 Mn468 2.297 . S
O484 C471 1.236 . S
N485 Mn469 2.282 . S
N485 C486 1.328 . S
N485 C490 1.318 . S
C486 N485 1.328 . S
C486 C487 1.457 . S
C486 H491 0.929 . S
C487 C486 1.457 . S
C487 C488 1.291 . S
C487 H500 0.931 . S
C488 C487 1.291 . S
C488 C489 1.373 . S
C488 H501 0.929 . S
C489 C488 1.373 . S
C489 C490 1.396 . S
C489 C496 1.403 . S
C490 C480 1.476 . S
C490 N485 1.318 . S
C490 C489 1.396 . S
H491 C486 0.929 . S
O492 Mn468 2.385 . S
O492 C470 1.234 . S
O493 Mn468 2.209 . S
O493 Mn469 2.215 . S
O493 C470 1.283 . S
O494 Mn468 2.094 . S
O494 C472 1.240 . S
O495 Mn469 2.117 . S
O495 C472 1.264 . S
C496 C489 1.403 . S
C496 C497 1.399 . S
C496 H502 0.929 . S
C497 C477 1.449 . S
C497 C496 1.399 . S
C497 H503 0.930 . S
H498 C478 0.931 . S
H499 C479 0.930 . S
H500 C487 0.931 . S
H501 C488 0.929 . S
H502 C496 0.929 . S
H503 C497 0.930 . S
Mn504 O509 2.095 . S
Mn504 O519 2.162 . S
Mn504 O520 2.297 . S
Mn504 O528 2.385 . S
Mn504 O529 2.209 . S
Mn504 O530 2.094 . S
Mn505 O510 2.121 . S
Mn505 N512 2.257 . S
Mn505 N521 2.282 . S
Mn505 O529 2.215 . S
Mn505 O531 2.117 . S
C506 O528 1.234 . S
C506 O529 1.283 . S
C507 O519 1.281 . S
C507 O520 1.236 . S
C508 O530 1.240 . S
C508 O531 1.264 . S
O509 Mn504 2.095 . S
O509 C518 1.250 . S
O510 Mn505 2.121 . S
O510 C518 1.258 . S
C511 N512 1.326 . S
C511 C515 1.460 . S
C511 H517 0.929 . S
N512 Mn505 2.257 . S
N512 C511 1.326 . S
N512 C516 1.362 . S
C513 C514 1.258 . S
C513 C516 1.431 . S
C513 C533 1.449 . S
C514 C513 1.258 . S
C514 C515 1.477 . S
C514 H534 0.931 . S
C515 C511 1.460 . S
C515 C514 1.477 . S
C515 H535 0.930 . S
C516 N512 1.362 . S
C516 C513 1.431 . S
C516 C526 1.476 . S
H517 C511 0.929 . S
C518 O509 1.250 . S
C518 O510 1.258 . S
O519 Mn504 2.162 . S
O519 C507 1.281 . S
O520 Mn504 2.297 . S
O520 C507 1.236 . S
N521 Mn505 2.282 . S
N521 C522 1.328 . S
N521 C526 1.318 . S
C522 N521 1.328 . S
C522 C523 1.457 . S
C522 H527 0.929 . S
C523 C522 1.457 . S
C523 C524 1.291 . S
C523 H536 0.931 . S
C524 C523 1.291 . S
C524 C525 1.373 . S
C524 H537 0.929 . S
C525 C524 1.373 . S
C525 C526 1.396 . S
C525 C532 1.403 . S
C526 C516 1.476 . S
C526 N521 1.318 . S
C526 C525 1.396 . S
H527 C522 0.929 . S
O528 Mn504 2.385 . S
O528 C506 1.234 . S
O529 Mn504 2.209 . S
O529 Mn505 2.215 . S
O529 C506 1.283 . S
O530 Mn504 2.094 . S
O530 C508 1.240 . S
O531 Mn505 2.117 . S
O531 C508 1.264 . S
C532 C525 1.403 . S
C532 C533 1.399 . S
C532 H538 0.929 . S
C533 C513 1.449 . S
C533 C532 1.399 . S
C533 H539 0.930 . S
H534 C514 0.931 . S
H535 C515 0.930 . S
H536 C523 0.931 . S
H537 C524 0.929 . S
H538 C532 0.929 . S
H539 C533 0.930 . S
Mn540 O545 2.095 . S
Mn540 O555 2.162 . S
Mn540 O556 2.297 . S
Mn540 O564 2.385 . S
Mn540 O565 2.209 . S
Mn540 O566 2.094 . S
Mn541 O546 2.121 . S
Mn541 N548 2.257 . S
Mn541 N557 2.282 . S
Mn541 O565 2.215 . S
Mn541 O567 2.117 . S
C542 O564 1.234 . S
C542 O565 1.283 . S
C543 O555 1.281 . S
C543 O556 1.236 . S
C544 O566 1.240 . S
C544 O567 1.264 . S
O545 Mn540 2.095 . S
O545 C554 1.250 . S
O546 Mn541 2.121 . S
O546 C554 1.258 . S
C547 N548 1.326 . S
C547 C551 1.460 . S
C547 H553 0.929 . S
N548 Mn541 2.257 . S
N548 C547 1.326 . S
N548 C552 1.362 . S
C549 C550 1.258 . S
C549 C552 1.431 . S
C549 C569 1.449 . S
C550 C549 1.258 . S
C550 C551 1.477 . S
C550 H570 0.931 . S
C551 C547 1.460 . S
C551 C550 1.477 . S
C551 H571 0.930 . S
C552 N548 1.362 . S
C552 C549 1.431 . S
C552 C562 1.476 . S
H553 C547 0.929 . S
C554 O545 1.250 . S
C554 O546 1.258 . S
O555 Mn540 2.162 . S
O555 C543 1.281 . S
O556 Mn540 2.297 . S
O556 C543 1.236 . S
N557 Mn541 2.282 . S
N557 C558 1.328 . S
N557 C562 1.318 . S
C558 N557 1.328 . S
C558 C559 1.457 . S
C558 H563 0.929 . S
C559 C558 1.457 . S
C559 C560 1.291 . S
C559 H572 0.931 . S
C560 C559 1.291 . S
C560 C561 1.373 . S
C560 H573 0.929 . S
C561 C560 1.373 . S
C561 C562 1.396 . S
C561 C568 1.403 . S
C562 C552 1.476 . S
C562 N557 1.318 . S
C562 C561 1.396 . S
H563 C558 0.929 . S
O564 Mn540 2.385 . S
O564 C542 1.234 . S
O565 Mn540 2.209 . S
O565 Mn541 2.215 . S
O565 C542 1.283 . S
O566 Mn540 2.094 . S
O566 C544 1.240 . S
O567 Mn541 2.117 . S
O567 C544 1.264 . S
C568 C561 1.403 . S
C568 C569 1.399 . S
C568 H574 0.929 . S
C569 C549 1.449 . S
C569 C568 1.399 . S
C569 H575 0.930 . S
H570 C550 0.931 . S
H571 C551 0.930 . S
H572 C559 0.931 . S
H573 C560 0.929 . S
H574 C568 0.929 . S
H575 C569 0.930 . S
Mn576 O581 2.095 . S
Mn576 O591 2.162 . S
Mn576 O592 2.297 . S
Mn576 O600 2.385 . S
Mn576 O601 2.209 . S
Mn576 O602 2.094 . S
Mn577 O582 2.121 . S
Mn577 N584 2.257 . S
Mn577 N593 2.282 . S
Mn577 O601 2.215 . S
Mn577 O603 2.117 . S
C578 O600 1.234 . S
C578 O601 1.283 . S
C579 O591 1.281 . S
C579 O592 1.236 . S
C580 O602 1.240 . S
C580 O603 1.264 . S
O581 Mn576 2.095 . S
O581 C590 1.250 . S
O582 Mn577 2.121 . S
O582 C590 1.258 . S
C583 N584 1.326 . S
C583 C587 1.460 . S
C583 H589 0.929 . S
N584 Mn577 2.257 . S
N584 C583 1.326 . S
N584 C588 1.362 . S
C585 C586 1.258 . S
C585 C588 1.431 . S
C585 C605 1.449 . S
C586 C585 1.258 . S
C586 C587 1.477 . S
C586 H606 0.931 . S
C587 C583 1.460 . S
C587 C586 1.477 . S
C587 H607 0.930 . S
C588 N584 1.362 . S
C588 C585 1.431 . S
C588 C598 1.476 . S
H589 C583 0.929 . S
C590 O581 1.250 . S
C590 O582 1.258 . S
O591 Mn576 2.162 . S
O591 C579 1.281 . S
O592 Mn576 2.297 . S
O592 C579 1.236 . S
N593 Mn577 2.282 . S
N593 C594 1.328 . S
N593 C598 1.318 . S
C594 N593 1.328 . S
C594 C595 1.457 . S
C594 H599 0.929 . S
C595 C594 1.457 . S
C595 C596 1.291 . S
C595 H608 0.931 . S
C596 C595 1.291 . S
C596 C597 1.373 . S
C596 H609 0.929 . S
C597 C596 1.373 . S
C597 C598 1.396 . S
C597 C604 1.403 . S
C598 C588 1.476 . S
C598 N593 1.318 . S
C598 C597 1.396 . S
H599 C594 0.929 . S
O600 Mn576 2.385 . S
O600 C578 1.234 . S
O601 Mn576 2.209 . S
O601 Mn577 2.215 . S
O601 C578 1.283 . S
O602 Mn576 2.094 . S
O602 C580 1.240 . S
O603 Mn577 2.117 . S
O603 C580 1.264 . S
C604 C597 1.403 . S
C604 C605 1.399 . S
C604 H610 0.929 . S
C605 C585 1.449 . S
C605 C604 1.399 . S
C605 H611 0.930 . S
H606 C586 0.931 . S
H607 C587 0.930 . S
H608 C595 0.931 . S
H609 C596 0.929 . S
H610 C604 0.929 . S
H611 C605 0.930 . S
Mn612 O617 2.095 . S
Mn612 O627 2.162 . S
Mn612 O628 2.297 . S
Mn612 O636 2.385 . S
Mn612 O637 2.209 . S
Mn612 O638 2.094 . S
Mn613 O618 2.121 . S
Mn613 N620 2.257 . S
Mn613 N629 2.282 . S
Mn613 O637 2.215 . S
Mn613 O639 2.117 . S
C614 O636 1.234 . S
C614 O637 1.283 . S
C615 O627 1.281 . S
C615 O628 1.236 . S
C616 O638 1.240 . S
C616 O639 1.264 . S
O617 Mn612 2.095 . S
O617 C626 1.250 . S
O618 Mn613 2.121 . S
O618 C626 1.258 . S
C619 N620 1.326 . S
C619 C623 1.460 . S
C619 H625 0.929 . S
N620 Mn613 2.257 . S
N620 C619 1.326 . S
N620 C624 1.362 . S
C621 C622 1.258 . S
C621 C624 1.431 . S
C621 C641 1.449 . S
C622 C621 1.258 . S
C622 C623 1.477 . S
C622 H642 0.931 . S
C623 C619 1.460 . S
C623 C622 1.477 . S
C623 H643 0.930 . S
C624 N620 1.362 . S
C624 C621 1.431 . S
C624 C634 1.476 . S
H625 C619 0.929 . S
C626 O617 1.250 . S
C626 O618 1.258 . S
O627 Mn612 2.162 . S
O627 C615 1.281 . S
O628 Mn612 2.297 . S
O628 C615 1.236 . S
N629 Mn613 2.282 . S
N629 C630 1.328 . S
N629 C634 1.318 . S
C630 N629 1.328 . S
C630 C631 1.457 . S
C630 H635 0.929 . S
C631 C630 1.457 . S
C631 C632 1.291 . S
C631 H644 0.931 . S
C632 C631 1.291 . S
C632 C633 1.373 . S
C632 H645 0.929 . S
C633 C632 1.373 . S
C633 C634 1.396 . S
C633 C640 1.403 . S
C634 C624 1.476 . S
C634 N629 1.318 . S
C634 C633 1.396 . S
H635 C630 0.929 . S
O636 Mn612 2.385 . S
O636 C614 1.234 . S
O637 Mn612 2.209 . S
O637 Mn613 2.215 . S
O637 C614 1.283 . S
O638 Mn612 2.094 . S
O638 C616 1.240 . S
O639 Mn613 2.117 . S
O639 C616 1.264 . S
C640 C633 1.403 . S
C640 C641 1.399 . S
C640 H646 0.929 . S
C641 C621 1.449 . S
C641 C640 1.399 . S
C641 H647 0.930 . S
H642 C622 0.931 . S
H643 C623 0.930 . S
H644 C631 0.931 . S
H645 C632 0.929 . S
H646 C640 0.929 . S
H647 C641 0.930 . S
Mn648 O653 2.095 . S
Mn648 O663 2.162 . S
Mn648 O664 2.297 . S
Mn648 O672 2.385 . S
Mn648 O673 2.209 . S
Mn648 O674 2.094 . S
Mn649 O654 2.121 . S
Mn649 N656 2.257 . S
Mn649 N665 2.282 . S
Mn649 O673 2.215 . S
Mn649 O675 2.117 . S
C650 O672 1.234 . S
C650 O673 1.283 . S
C651 O663 1.281 . S
C651 O664 1.236 . S
C652 O674 1.240 . S
C652 O675 1.264 . S
O653 Mn648 2.095 . S
O653 C662 1.250 . S
O654 Mn649 2.121 . S
O654 C662 1.258 . S
C655 N656 1.326 . S
C655 C659 1.460 . S
C655 H661 0.929 . S
N656 Mn649 2.257 . S
N656 C655 1.326 . S
N656 C660 1.362 . S
C657 C658 1.258 . S
C657 C660 1.431 . S
C657 C677 1.449 . S
C658 C657 1.258 . S
C658 C659 1.477 . S
C658 H678 0.931 . S
C659 C655 1.460 . S
C659 C658 1.477 . S
C659 H679 0.930 . S
C660 N656 1.362 . S
C660 C657 1.431 . S
C660 C670 1.476 . S
H661 C655 0.929 . S
C662 O653 1.250 . S
C662 O654 1.258 . S
O663 Mn648 2.162 . S
O663 C651 1.281 . S
O664 Mn648 2.297 . S
O664 C651 1.236 . S
N665 Mn649 2.282 . S
N665 C666 1.328 . S
N665 C670 1.318 . S
C666 N665 1.328 . S
C666 C667 1.457 . S
C666 H671 0.929 . S
C667 C666 1.457 . S
C667 C668 1.291 . S
C667 H680 0.931 . S
C668 C667 1.291 . S
C668 C669 1.373 . S
C668 H681 0.929 . S
C669 C668 1.373 . S
C669 C670 1.396 . S
C669 C676 1.403 . S
C670 C660 1.476 . S
C670 N665 1.318 . S
C670 C669 1.396 . S
H671 C666 0.929 . S
O672 Mn648 2.385 . S
O672 C650 1.234 . S
O673 Mn648 2.209 . S
O673 Mn649 2.215 . S
O673 C650 1.283 . S
O674 Mn648 2.094 . S
O674 C652 1.240 . S
O675 Mn649 2.117 . S
O675 C652 1.264 . S
C676 C669 1.403 . S
C676 C677 1.399 . S
C676 H682 0.929 . S
C677 C657 1.449 . S
C677 C676 1.399 . S
C677 H683 0.930 . S
H678 C658 0.931 . S
H679 C659 0.930 . S
H680 C667 0.931 . S
H681 C668 0.929 . S
H682 C676 0.929 . S
H683 C677 0.930 . S
Mn684 O689 2.095 . S
Mn684 O699 2.162 . S
Mn684 O700 2.297 . S
Mn684 O708 2.385 . S
Mn684 O709 2.209 . S
Mn684 O710 2.094 . S
Mn685 O690 2.121 . S
Mn685 N692 2.257 . S
Mn685 N701 2.282 . S
Mn685 O709 2.215 . S
Mn685 O711 2.117 . S
C686 O708 1.234 . S
C686 O709 1.283 . S
C687 O699 1.281 . S
C687 O700 1.236 . S
C688 O710 1.240 . S
C688 O711 1.264 . S
O689 Mn684 2.095 . S
O689 C698 1.250 . S
O690 Mn685 2.121 . S
O690 C698 1.258 . S
C691 N692 1.326 . S
C691 C695 1.460 . S
C691 H697 0.929 . S
N692 Mn685 2.257 . S
N692 C691 1.326 . S
N692 C696 1.362 . S
C693 C694 1.258 . S
C693 C696 1.431 . S
C693 C713 1.449 . S
C694 C693 1.258 . S
C694 C695 1.477 . S
C694 H714 0.931 . S
C695 C691 1.460 . S
C695 C694 1.477 . S
C695 H715 0.930 . S
C696 N692 1.362 . S
C696 C693 1.431 . S
C696 C706 1.476 . S
H697 C691 0.929 . S
C698 O689 1.250 . S
C698 O690 1.258 . S
O699 Mn684 2.162 . S
O699 C687 1.281 . S
O700 Mn684 2.297 . S
O700 C687 1.236 . S
N701 Mn685 2.282 . S
N701 C702 1.328 . S
N701 C706 1.318 . S
C702 N701 1.328 . S
C702 C703 1.457 . S
C702 H707 0.929 . S
C703 C702 1.457 . S
C703 C704 1.291 . S
C703 H716 0.931 . S
C704 C703 1.291 . S
C704 C705 1.373 . S
C704 H717 0.929 . S
C705 C704 1.373 . S
C705 C706 1.396 . S
C705 C712 1.403 . S
C706 C696 1.476 . S
C706 N701 1.318 . S
C706 C705 1.396 . S
H707 C702 0.929 . S
O708 Mn684 2.385 . S
O708 C686 1.234 . S
O709 Mn684 2.209 . S
O709 Mn685 2.215 . S
O709 C686 1.283 . S
O710 Mn684 2.094 . S
O710 C688 1.240 . S
O711 Mn685 2.117 . S
O711 C688 1.264 . S
C712 C705 1.403 . S
C712 C713 1.399 . S
C712 H718 0.929 . S
C713 C693 1.449 . S
C713 C712 1.399 . S
C713 H719 0.930 . S
H714 C694 0.931 . S
H715 C695 0.930 . S
H716 C703 0.931 . S
H717 C704 0.929 . S
H718 C712 0.929 . S
H719 C713 0.930 . S
Mn720 O725 2.095 . S
Mn720 O735 2.162 . S
Mn720 O736 2.297 . S
Mn720 O744 2.385 . S
Mn720 O745 2.209 . S
Mn720 O746 2.094 . S
Mn721 O726 2.121 . S
Mn721 N728 2.257 . S
Mn721 N737 2.282 . S
Mn721 O745 2.215 . S
Mn721 O747 2.117 . S
C722 O744 1.234 . S
C722 O745 1.283 . S
C723 O735 1.281 . S
C723 O736 1.236 . S
C724 O746 1.240 . S
C724 O747 1.264 . S
O725 Mn720 2.095 . S
O725 C734 1.250 . S
O726 Mn721 2.121 . S
O726 C734 1.258 . S
C727 N728 1.326 . S
C727 C731 1.460 . S
C727 H733 0.929 . S
N728 Mn721 2.257 . S
N728 C727 1.326 . S
N728 C732 1.362 . S
C729 C730 1.258 . S
C729 C732 1.431 . S
C729 C749 1.449 . S
C730 C729 1.258 . S
C730 C731 1.477 . S
C730 H750 0.931 . S
C731 C727 1.460 . S
C731 C730 1.477 . S
C731 H751 0.930 . S
C732 N728 1.362 . S
C732 C729 1.431 . S
C732 C742 1.476 . S
H733 C727 0.929 . S
C734 O725 1.250 . S
C734 O726 1.258 . S
O735 Mn720 2.162 . S
O735 C723 1.281 . S
O736 Mn720 2.297 . S
O736 C723 1.236 . S
N737 Mn721 2.282 . S
N737 C738 1.328 . S
N737 C742 1.318 . S
C738 N737 1.328 . S
C738 C739 1.457 . S
C738 H743 0.929 . S
C739 C738 1.457 . S
C739 C740 1.291 . S
C739 H752 0.931 . S
C740 C739 1.291 . S
C740 C741 1.373 . S
C740 H753 0.929 . S
C741 C740 1.373 . S
C741 C742 1.396 . S
C741 C748 1.403 . S
C742 C732 1.476 . S
C742 N737 1.318 . S
C742 C741 1.396 . S
H743 C738 0.929 . S
O744 Mn720 2.385 . S
O744 C722 1.234 . S
O745 Mn720 2.209 . S
O745 Mn721 2.215 . S
O745 C722 1.283 . S
O746 Mn720 2.094 . S
O746 C724 1.240 . S
O747 Mn721 2.117 . S
O747 C724 1.264 . S
C748 C741 1.403 . S
C748 C749 1.399 . S
C748 H754 0.929 . S
C749 C729 1.449 . S
C749 C748 1.399 . S
C749 H755 0.930 . S
H750 C730 0.931 . S
H751 C731 0.930 . S
H752 C739 0.931 . S
H753 C740 0.929 . S
H754 C748 0.929 . S
H755 C749 0.930 . S
Mn756 O761 2.095 . S
Mn756 O771 2.162 . S
Mn756 O772 2.297 . S
Mn756 O780 2.385 . S
Mn756 O781 2.209 . S
Mn756 O782 2.094 . S
Mn757 O762 2.121 . S
Mn757 N764 2.257 . S
Mn757 N773 2.282 . S
Mn757 O781 2.215 . S
Mn757 O783 2.117 . S
C758 O780 1.234 . S
C758 O781 1.283 . S
C759 O771 1.281 . S
C759 O772 1.236 . S
C760 O782 1.240 . S
C760 O783 1.264 . S
O761 Mn756 2.095 . S
O761 C770 1.250 . S
O762 Mn757 2.121 . S
O762 C770 1.258 . S
C763 N764 1.326 . S
C763 C767 1.460 . S
C763 H769 0.929 . S
N764 Mn757 2.257 . S
N764 C763 1.326 . S
N764 C768 1.362 . S
C765 C766 1.258 . S
C765 C768 1.431 . S
C765 C785 1.449 . S
C766 C765 1.258 . S
C766 C767 1.477 . S
C766 H786 0.931 . S
C767 C763 1.460 . S
C767 C766 1.477 . S
C767 H787 0.930 . S
C768 N764 1.362 . S
C768 C765 1.431 . S
C768 C778 1.476 . S
H769 C763 0.929 . S
C770 O761 1.250 . S
C770 O762 1.258 . S
O771 Mn756 2.162 . S
O771 C759 1.281 . S
O772 Mn756 2.297 . S
O772 C759 1.236 . S
N773 Mn757 2.282 . S
N773 C774 1.328 . S
N773 C778 1.318 . S
C774 N773 1.328 . S
C774 C775 1.457 . S
C774 H779 0.929 . S
C775 C774 1.457 . S
C775 C776 1.291 . S
C775 H788 0.931 . S
C776 C775 1.291 . S
C776 C777 1.373 . S
C776 H789 0.929 . S
C777 C776 1.373 . S
C777 C778 1.396 . S
C777 C784 1.403 . S
C778 C768 1.476 . S
C778 N773 1.318 . S
C778 C777 1.396 . S
H779 C774 0.929 . S
O780 Mn756 2.385 . S
O780 C758 1.234 . S
O781 Mn756 2.209 . S
O781 Mn757 2.215 . S
O781 C758 1.283 . S
O782 Mn756 2.094 . S
O782 C760 1.240 . S
O783 Mn757 2.117 . S
O783 C760 1.264 . S
C784 C777 1.403 . S
C784 C785 1.399 . S
C784 H790 0.929 . S
C785 C765 1.449 . S
C785 C784 1.399 . S
C785 H791 0.930 . S
H786 C766 0.931 . S
H787 C767 0.930 . S
H788 C775 0.931 . S
H789 C776 0.929 . S
H790 C784 0.929 . S
H791 C785 0.930 . S
Mn792 O797 2.095 . S
Mn792 O807 2.162 . S
Mn792 O808 2.297 . S
Mn792 O816 2.385 . S
Mn792 O817 2.209 . S
Mn792 O818 2.094 . S
Mn793 O798 2.121 . S
Mn793 N800 2.257 . S
Mn793 N809 2.282 . S
Mn793 O817 2.215 . S
Mn793 O819 2.117 . S
C794 O816 1.234 . S
C794 O817 1.283 . S
C795 O807 1.281 . S
C795 O808 1.236 . S
C796 O818 1.240 . S
C796 O819 1.264 . S
O797 Mn792 2.095 . S
O797 C806 1.250 . S
O798 Mn793 2.121 . S
O798 C806 1.258 . S
C799 N800 1.326 . S
C799 C803 1.460 . S
C799 H805 0.929 . S
N800 Mn793 2.257 . S
N800 C799 1.326 . S
N800 C804 1.362 . S
C801 C802 1.258 . S
C801 C804 1.431 . S
C801 C821 1.449 . S
C802 C801 1.258 . S
C802 C803 1.477 . S
C802 H822 0.931 . S
C803 C799 1.460 . S
C803 C802 1.477 . S
C803 H823 0.930 . S
C804 N800 1.362 . S
C804 C801 1.431 . S
C804 C814 1.476 . S
H805 C799 0.929 . S
C806 O797 1.250 . S
C806 O798 1.258 . S
O807 Mn792 2.162 . S
O807 C795 1.281 . S
O808 Mn792 2.297 . S
O808 C795 1.236 . S
N809 Mn793 2.282 . S
N809 C810 1.328 . S
N809 C814 1.318 . S
C810 N809 1.328 . S
C810 C811 1.457 . S
C810 H815 0.929 . S
C811 C810 1.457 . S
C811 C812 1.291 . S
C811 H824 0.931 . S
C812 C811 1.291 . S
C812 C813 1.373 . S
C812 H825 0.929 . S
C813 C812 1.373 . S
C813 C814 1.396 . S
C813 C820 1.403 . S
C814 C804 1.476 . S
C814 N809 1.318 . S
C814 C813 1.396 . S
H815 C810 0.929 . S
O816 Mn792 2.385 . S
O816 C794 1.234 . S
O817 Mn792 2.209 . S
O817 Mn793 2.215 . S
O817 C794 1.283 . S
O818 Mn792 2.094 . S
O818 C796 1.240 . S
O819 Mn793 2.117 . S
O819 C796 1.264 . S
C820 C813 1.403 . S
C820 C821 1.399 . S
C820 H826 0.929 . S
C821 C801 1.449 . S
C821 C820 1.399 . S
C821 H827 0.930 . S
H822 C802 0.931 . S
H823 C803 0.930 . S
H824 C811 0.931 . S
H825 C812 0.929 . S
H826 C820 0.929 . S
H827 C821 0.930 . S
Mn828 O833 2.095 . S
Mn828 O843 2.162 . S
Mn828 O844 2.297 . S
Mn828 O852 2.385 . S
Mn828 O853 2.209 . S
Mn828 O854 2.094 . S
Mn829 O834 2.121 . S
Mn829 N836 2.257 . S
Mn829 N845 2.282 . S
Mn829 O853 2.215 . S
Mn829 O855 2.117 . S
C830 O852 1.234 . S
C830 O853 1.283 . S
C831 O843 1.281 . S
C831 O844 1.236 . S
C832 O854 1.240 . S
C832 O855 1.264 . S
O833 Mn828 2.095 . S
O833 C842 1.250 . S
O834 Mn829 2.121 . S
O834 C842 1.258 . S
C835 N836 1.326 . S
C835 C839 1.460 . S
C835 H841 0.929 . S
N836 Mn829 2.257 . S
N836 C835 1.326 . S
N836 C840 1.362 . S
C837 C838 1.258 . S
C837 C840 1.431 . S
C837 C857 1.449 . S
C838 C837 1.258 . S
C838 C839 1.477 . S
C838 H858 0.931 . S
C839 C835 1.460 . S
C839 C838 1.477 . S
C839 H859 0.930 . S
C840 N836 1.362 . S
C840 C837 1.431 . S
C840 C850 1.476 . S
H841 C835 0.929 . S
C842 O833 1.250 . S
C842 O834 1.258 . S
O843 Mn828 2.162 . S
O843 C831 1.281 . S
O844 Mn828 2.297 . S
O844 C831 1.236 . S
N845 Mn829 2.282 . S
N845 C846 1.328 . S
N845 C850 1.318 . S
C846 N845 1.328 . S
C846 C847 1.457 . S
C846 H851 0.929 . S
C847 C846 1.457 . S
C847 C848 1.291 . S
C847 H860 0.931 . S
C848 C847 1.291 . S
C848 C849 1.373 . S
C848 H861 0.929 . S
C849 C848 1.373 . S
C849 C850 1.396 . S
C849 C856 1.403 . S
C850 C840 1.476 . S
C850 N845 1.318 . S
C850 C849 1.396 . S
H851 C846 0.929 . S
O852 Mn828 2.385 . S
O852 C830 1.234 . S
O853 Mn828 2.209 . S
O853 Mn829 2.215 . S
O853 C830 1.283 . S
O854 Mn828 2.094 . S
O854 C832 1.240 . S
O855 Mn829 2.117 . S
O855 C832 1.264 . S
C856 C849 1.403 . S
C856 C857 1.399 . S
C856 H862 0.929 . S
C857 C837 1.449 . S
C857 C856 1.399 . S
C857 H863 0.930 . S
H858 C838 0.931 . S
H859 C839 0.930 . S
H860 C847 0.931 . S
H861 C848 0.929 . S
H862 C856 0.929 . S
H863 C857 0.930 . S
H864 C870 0.930 . S
H865 C874 0.930 . S
H866 C879 0.929 . S
H867 C877 0.929 . S
H868 C872 0.929 . S
H869 C878 0.929 . S
C870 H864 0.930 . S
C870 C871 1.367 . S
C870 C878 1.378 . S
C871 C870 1.367 . S
C871 C879 1.433 . S
C872 H868 0.929 . S
C872 C874 1.378 . S
C872 C876 1.350 . S
C873 C876 1.463 . S
C873 C878 1.350 . S
C873 N881 1.427 . S
C874 H865 0.930 . S
C874 C872 1.378 . S
C874 C875 1.367 . S
C875 C874 1.367 . S
C875 C877 1.433 . S
C876 C872 1.350 . S
C876 C873 1.463 . S
C876 N880 1.427 . S
C877 H867 0.929 . S
C877 C875 1.433 . S
C877 N880 1.384 . S
C878 H869 0.929 . S
C878 C870 1.378 . S
C878 C873 1.350 . S
C879 H866 0.929 . S
C879 C871 1.433 . S
C879 N881 1.384 . S
N880 C876 1.427 . S
N880 C877 1.384 . S
N881 C873 1.427 . S
N881 C879 1.384 . S
H882 C888 0.930 . S
H883 C892 0.930 . S
H884 C897 0.929 . S
H885 C895 0.929 . S
H886 C890 0.929 . S
H887 C896 0.929 . S
C888 H882 0.930 . S
C888 C889 1.367 . S
C888 C896 1.378 . S
C889 C888 1.367 . S
C889 C897 1.433 . S
C890 H886 0.929 . S
C890 C892 1.378 . S
C890 C894 1.350 . S
C891 C894 1.463 . S
C891 C896 1.350 . S
C891 N899 1.427 . S
C892 H883 0.930 . S
C892 C890 1.378 . S
C892 C893 1.367 . S
C893 C892 1.367 . S
C893 C895 1.433 . S
C894 C890 1.350 . S
C894 C891 1.463 . S
C894 N898 1.427 . S
C895 H885 0.929 . S
C895 C893 1.433 . S
C895 N898 1.384 . S
C896 H887 0.929 . S
C896 C888 1.378 . S
C896 C891 1.350 . S
C897 H884 0.929 . S
C897 C889 1.433 . S
C897 N899 1.384 . S
N898 C894 1.427 . S
N898 C895 1.384 . S
N899 C891 1.427 . S
N899 C897 1.384 . S
H900 C906 0.930 . S
H901 C910 0.930 . S
H902 C915 0.929 . S
H903 C913 0.929 . S
H904 C908 0.929 . S
H905 C914 0.929 . S
C906 H900 0.930 . S
C906 C907 1.367 . S
C906 C914 1.378 . S
C907 C906 1.367 . S
C907 C915 1.433 . S
C908 H904 0.929 . S
C908 C910 1.378 . S
C908 C912 1.350 . S
C909 C912 1.463 . S
C909 C914 1.350 . S
C909 N917 1.427 . S
C910 H901 0.930 . S
C910 C908 1.378 . S
C910 C911 1.367 . S
C911 C910 1.367 . S
C911 C913 1.433 . S
C912 C908 1.350 . S
C912 C909 1.463 . S
C912 N916 1.427 . S
C913 H903 0.929 . S
C913 C911 1.433 . S
C913 N916 1.384 . S
C914 H905 0.929 . S
C914 C906 1.378 . S
C914 C909 1.350 . S
C915 H902 0.929 . S
C915 C907 1.433 . S
C915 N917 1.384 . S
N916 C912 1.427 . S
N916 C913 1.384 . S
N917 C909 1.427 . S
N917 C915 1.384 . S
H918 C924 0.930 . S
H919 C928 0.930 . S
H920 C933 0.929 . S
H921 C931 0.929 . S
H922 C926 0.929 . S
H923 C932 0.929 . S
C924 H918 0.930 . S
C924 C925 1.367 . S
C924 C932 1.378 . S
C925 C924 1.367 . S
C925 C933 1.433 . S
C926 H922 0.929 . S
C926 C928 1.378 . S
C926 C930 1.350 . S
C927 C930 1.463 . S
C927 C932 1.350 . S
C927 N935 1.427 . S
C928 H919 0.930 . S
C928 C926 1.378 . S
C928 C929 1.367 . S
C929 C928 1.367 . S
C929 C931 1.433 . S
C930 C926 1.350 . S
C930 C927 1.463 . S
C930 N934 1.427 . S
C931 H921 0.929 . S
C931 C929 1.433 . S
C931 N934 1.384 . S
C932 H923 0.929 . S
C932 C924 1.378 . S
C932 C927 1.350 . S
C933 H920 0.929 . S
C933 C925 1.433 . S
C933 N935 1.384 . S
N934 C930 1.427 . S
N934 C931 1.384 . S
N935 C927 1.427 . S
N935 C933 1.384 . S
H936 C942 0.930 . S
H937 C946 0.930 . S
H938 C951 0.929 . S
H939 C949 0.929 . S
H940 C944 0.929 . S
H941 C950 0.929 . S
C942 H936 0.930 . S
C942 C943 1.367 . S
C942 C950 1.378 . S
C943 C942 1.367 . S
C943 C951 1.433 . S
C944 H940 0.929 . S
C944 C946 1.378 . S
C944 C948 1.350 . S
C945 C948 1.463 . S
C945 C950 1.350 . S
C945 N953 1.427 . S
C946 H937 0.930 . S
C946 C944 1.378 . S
C946 C947 1.367 . S
C947 C946 1.367 . S
C947 C949 1.433 . S
C948 C944 1.350 . S
C948 C945 1.463 . S
C948 N952 1.427 . S
C949 H939 0.929 . S
C949 C947 1.433 . S
C949 N952 1.384 . S
C950 H941 0.929 . S
C950 C942 1.378 . S
C950 C945 1.350 . S
C951 H938 0.929 . S
C951 C943 1.433 . S
C951 N953 1.384 . S
N952 C948 1.427 . S
N952 C949 1.384 . S
N953 C945 1.427 . S
N953 C951 1.384 . S
H954 C960 0.930 . S
H955 C964 0.930 . S
H956 C969 0.929 . S
H957 C967 0.929 . S
H958 C962 0.929 . S
H959 C968 0.929 . S
C960 H954 0.930 . S
C960 C961 1.367 . S
C960 C968 1.378 . S
C961 C960 1.367 . S
C961 C969 1.433 . S
C962 H958 0.929 . S
C962 C964 1.378 . S
C962 C966 1.350 . S
C963 C966 1.463 . S
C963 C968 1.350 . S
C963 N971 1.427 . S
C964 H955 0.930 . S
C964 C962 1.378 . S
C964 C965 1.367 . S
C965 C964 1.367 . S
C965 C967 1.433 . S
C966 C962 1.350 . S
C966 C963 1.463 . S
C966 N970 1.427 . S
C967 H957 0.929 . S
C967 C965 1.433 . S
C967 N970 1.384 . S
C968 H959 0.929 . S
C968 C960 1.378 . S
C968 C963 1.350 . S
C969 H956 0.929 . S
C969 C961 1.433 . S
C969 N971 1.384 . S
N970 C966 1.427 . S
N970 C967 1.384 . S
N971 C963 1.427 . S
N971 C969 1.384 . S
H972 C978 0.930 . S
H973 C982 0.930 . S
H974 C987 0.929 . S
H975 C985 0.929 . S
H976 C980 0.929 . S
H977 C986 0.929 . S
C978 H972 0.930 . S
C978 C979 1.367 . S
C978 C986 1.378 . S
C979 C978 1.367 . S
C979 C987 1.433 . S
C980 H976 0.929 . S
C980 C982 1.378 . S
C980 C984 1.350 . S
C981 C984 1.463 . S
C981 C986 1.350 . S
C981 N989 1.427 . S
C982 H973 0.930 . S
C982 C980 1.378 . S
C982 C983 1.367 . S
C983 C982 1.367 . S
C983 C985 1.433 . S
C984 C980 1.350 . S
C984 C981 1.463 . S
C984 N988 1.427 . S
C985 H975 0.929 . S
C985 C983 1.433 . S
C985 N988 1.384 . S
C986 H977 0.929 . S
C986 C978 1.378 . S
C986 C981 1.350 . S
C987 H974 0.929 . S
C987 C979 1.433 . S
C987 N989 1.384 . S
N988 C984 1.427 . S
N988 C985 1.384 . S
N989 C981 1.427 . S
N989 C987 1.384 . S
H990 C996 0.930 . S
H991 C1000 0.930 . S
H992 C1005 0.929 . S
H993 C1003 0.929 . S
H994 C998 0.929 . S
H995 C1004 0.929 . S
C996 H990 0.930 . S
C996 C997 1.367 . S
C996 C1004 1.378 . S
C997 C996 1.367 . S
C997 C1005 1.433 . S
C998 H994 0.929 . S
C998 C1000 1.378 . S
C998 C1002 1.350 . S
C999 C1002 1.463 . S
C999 C1004 1.350 . S
C999 N1007 1.427 . S
C1000 H991 0.930 . S
C1000 C998 1.378 . S
C1000 C1001 1.367 . S
C1001 C1000 1.367 . S
C1001 C1003 1.433 . S
C1002 C998 1.350 . S
C1002 C999 1.463 . S
C1002 N1006 1.427 . S
C1003 H993 0.929 . S
C1003 C1001 1.433 . S
C1003 N1006 1.384 . S
C1004 H995 0.929 . S
C1004 C996 1.378 . S
C1004 C999 1.350 . S
C1005 H992 0.929 . S
C1005 C997 1.433 . S
C1005 N1007 1.384 . S
N1006 C1002 1.427 . S
N1006 C1003 1.384 . S
N1007 C999 1.427 . S
N1007 C1005 1.384 . S
H1008 C1014 0.930 . S
H1009 C1018 0.930 . S
H1010 C1023 0.929 . S
H1011 C1021 0.929 . S
H1012 C1016 0.929 . S
H1013 C1022 0.929 . S
C1014 H1008 0.930 . S
C1014 C1015 1.367 . S
C1014 C1022 1.378 . S
C1015 C1014 1.367 . S
C1015 C1023 1.433 . S
C1016 H1012 0.929 . S
C1016 C1018 1.378 . S
C1016 C1020 1.350 . S
C1017 C1020 1.463 . S
C1017 C1022 1.350 . S
C1017 N1025 1.427 . S
C1018 H1009 0.930 . S
C1018 C1016 1.378 . S
C1018 C1019 1.367 . S
C1019 C1018 1.367 . S
C1019 C1021 1.433 . S
C1020 C1016 1.350 . S
C1020 C1017 1.463 . S
C1020 N1024 1.427 . S
C1021 H1011 0.929 . S
C1021 C1019 1.433 . S
C1021 N1024 1.384 . S
C1022 H1013 0.929 . S
C1022 C1014 1.378 . S
C1022 C1017 1.350 . S
C1023 H1010 0.929 . S
C1023 C1015 1.433 . S
C1023 N1025 1.384 . S
N1024 C1020 1.427 . S
N1024 C1021 1.384 . S
N1025 C1017 1.427 . S
N1025 C1023 1.384 . S
H1026 C1032 0.930 . S
H1027 C1036 0.930 . S
H1028 C1041 0.929 . S
H1029 C1039 0.929 . S
H1030 C1034 0.929 . S
H1031 C1040 0.929 . S
C1032 H1026 0.930 . S
C1032 C1033 1.367 . S
C1032 C1040 1.378 . S
C1033 C1032 1.367 . S
C1033 C1041 1.433 . S
C1034 H1030 0.929 . S
C1034 C1036 1.378 . S
C1034 C1038 1.350 . S
C1035 C1038 1.463 . S
C1035 C1040 1.350 . S
C1035 N1043 1.427 . S
C1036 H1027 0.930 . S
C1036 C1034 1.378 . S
C1036 C1037 1.367 . S
C1037 C1036 1.367 . S
C1037 C1039 1.433 . S
C1038 C1034 1.350 . S
C1038 C1035 1.463 . S
C1038 N1042 1.427 . S
C1039 H1029 0.929 . S
C1039 C1037 1.433 . S
C1039 N1042 1.384 . S
C1040 H1031 0.929 . S
C1040 C1032 1.378 . S
C1040 C1035 1.350 . S
C1041 H1028 0.929 . S
C1041 C1033 1.433 . S
C1041 N1043 1.384 . S
N1042 C1038 1.427 . S
N1042 C1039 1.384 . S
N1043 C1035 1.427 . S
N1043 C1041 1.384 . S
H1044 C1050 0.930 . S
H1045 C1054 0.930 . S
H1046 C1059 0.929 . S
H1047 C1057 0.929 . S
H1048 C1052 0.929 . S
H1049 C1058 0.929 . S
C1050 H1044 0.930 . S
C1050 C1051 1.367 . S
C1050 C1058 1.378 . S
C1051 C1050 1.367 . S
C1051 C1059 1.433 . S
C1052 H1048 0.929 . S
C1052 C1054 1.378 . S
C1052 C1056 1.350 . S
C1053 C1056 1.463 . S
C1053 C1058 1.350 . S
C1053 N1061 1.427 . S
C1054 H1045 0.930 . S
C1054 C1052 1.378 . S
C1054 C1055 1.367 . S
C1055 C1054 1.367 . S
C1055 C1057 1.433 . S
C1056 C1052 1.350 . S
C1056 C1053 1.463 . S
C1056 N1060 1.427 . S
C1057 H1047 0.929 . S
C1057 C1055 1.433 . S
C1057 N1060 1.384 . S
C1058 H1049 0.929 . S
C1058 C1050 1.378 . S
C1058 C1053 1.350 . S
C1059 H1046 0.929 . S
C1059 C1051 1.433 . S
C1059 N1061 1.384 . S
N1060 C1056 1.427 . S
N1060 C1057 1.384 . S
N1061 C1053 1.427 . S
N1061 C1059 1.384 . S
H1062 C1068 0.930 . S
H1063 C1072 0.930 . S
H1064 C1077 0.929 . S
H1065 C1075 0.929 . S
H1066 C1070 0.929 . S
H1067 C1076 0.929 . S
C1068 H1062 0.930 . S
C1068 C1069 1.367 . S
C1068 C1076 1.378 . S
C1069 C1068 1.367 . S
C1069 C1077 1.433 . S
C1070 H1066 0.929 . S
C1070 C1072 1.378 . S
C1070 C1074 1.350 . S
C1071 C1074 1.463 . S
C1071 C1076 1.350 . S
C1071 N1079 1.427 . S
C1072 H1063 0.930 . S
C1072 C1070 1.378 . S
C1072 C1073 1.367 . S
C1073 C1072 1.367 . S
C1073 C1075 1.433 . S
C1074 C1070 1.350 . S
C1074 C1071 1.463 . S
C1074 N1078 1.427 . S
C1075 H1065 0.929 . S
C1075 C1073 1.433 . S
C1075 N1078 1.384 . S
C1076 H1067 0.929 . S
C1076 C1068 1.378 . S
C1076 C1071 1.350 . S
C1077 H1064 0.929 . S
C1077 C1069 1.433 . S
C1077 N1079 1.384 . S
N1078 C1074 1.427 . S
N1078 C1075 1.384 . S
N1079 C1071 1.427 . S
N1079 C1077 1.384 . S
H1080 C1086 0.930 . S
H1081 C1090 0.930 . S
H1082 C1095 0.929 1_554 S
H1083 C1093 0.929 1_556 S
H1084 C1088 0.929 . S
H1085 C1094 0.929 . S
C1086 H1080 0.930 . S
C1086 C1087 1.367 . S
C1086 C1094 1.378 . S
C1087 C1086 1.367 . S
C1087 C1095 1.433 . S
C1088 H1084 0.929 . S
C1088 C1090 1.378 . S
C1088 C1092 1.350 . S
C1089 C1092 1.463 1_556 S
C1089 C1094 1.350 . S
C1089 N1097 1.427 1_556 S
C1090 H1081 0.930 . S
C1090 C1088 1.378 . S
C1090 C1091 1.367 . S
C1091 C1090 1.367 . S
C1091 C1093 1.433 . S
C1092 C1088 1.350 . S
C1092 C1089 1.463 1_554 S
C1092 N1096 1.427 1_554 S
C1093 H1083 0.929 1_554 S
C1093 C1091 1.433 . S
C1093 N1096 1.384 1_554 S
C1094 H1085 0.929 . S
C1094 C1086 1.378 . S
C1094 C1089 1.350 . S
C1095 H1082 0.929 1_556 S
C1095 C1087 1.433 . S
C1095 N1097 1.384 1_556 S
N1096 C1092 1.427 1_556 S
N1096 C1093 1.384 1_556 S
N1097 C1089 1.427 1_554 S
N1097 C1095 1.384 1_554 S
H1098 C1104 0.930 . S
H1099 C1108 0.930 . S
H1100 C1113 0.929 . S
H1101 C1111 0.929 . S
H1102 C1106 0.929 . S
H1103 C1112 0.929 . S
C1104 H1098 0.930 . S
C1104 C1105 1.367 . S
C1104 C1112 1.378 . S
C1105 C1104 1.367 . S
C1105 C1113 1.433 . S
C1106 H1102 0.929 . S
C1106 C1108 1.378 . S
C1106 C1110 1.350 . S
C1107 C1110 1.463 . S
C1107 C1112 1.350 . S
C1107 N1115 1.427 . S
C1108 H1099 0.930 . S
C1108 C1106 1.378 . S
C1108 C1109 1.367 . S
C1109 C1108 1.367 . S
C1109 C1111 1.433 . S
C1110 C1106 1.350 . S
C1110 C1107 1.463 . S
C1110 N1114 1.427 . S
C1111 H1101 0.929 . S
C1111 C1109 1.433 . S
C1111 N1114 1.384 . S
C1112 H1103 0.929 . S
C1112 C1104 1.378 . S
C1112 C1107 1.350 . S
C1113 H1100 0.929 . S
C1113 C1105 1.433 . S
C1113 N1115 1.384 . S
N1114 C1110 1.427 . S
N1114 C1111 1.384 . S
N1115 C1107 1.427 . S
N1115 C1113 1.384 . S
H1116 C1122 0.930 . S
H1117 C1126 0.930 . S
H1118 C1131 0.929 . S
H1119 C1129 0.929 . S
H1120 C1124 0.929 . S
H1121 C1130 0.929 . S
C1122 H1116 0.930 . S
C1122 C1123 1.367 . S
C1122 C1130 1.378 1_554 S
C1123 C1122 1.367 . S
C1123 C1131 1.433 . S
C1124 H1120 0.929 . S
C1124 C1126 1.378 1_554 S
C1124 C1128 1.350 1_554 S
C1125 C1128 1.463 1_554 S
C1125 C1130 1.350 1_554 S
C1125 N1133 1.427 . S
C1126 H1117 0.930 . S
C1126 C1124 1.378 1_556 S
C1126 C1127 1.367 . S
C1127 C1126 1.367 . S
C1127 C1129 1.433 . S
C1128 C1124 1.350 1_556 S
C1128 C1125 1.463 1_556 S
C1128 N1132 1.427 . S
C1129 H1119 0.929 . S
C1129 C1127 1.433 . S
C1129 N1132 1.384 . S
C1130 H1121 0.929 . S
C1130 C1122 1.378 1_556 S
C1130 C1125 1.350 1_556 S
C1131 H1118 0.929 . S
C1131 C1123 1.433 . S
C1131 N1133 1.384 . S
N1132 C1128 1.427 . S
N1132 C1129 1.384 . S
N1133 C1125 1.427 . S
N1133 C1131 1.384 . S
H1134 C1140 0.930 . S
H1135 C1144 0.930 . S
H1136 C1149 0.929 . S
H1137 C1147 0.929 . S
H1138 C1142 0.929 . S
H1139 C1148 0.929 . S
C1140 H1134 0.930 . S
C1140 C1141 1.367 . S
C1140 C1148 1.378 . S
C1141 C1140 1.367 . S
C1141 C1149 1.433 . S
C1142 H1138 0.929 . S
C1142 C1144 1.378 . S
C1142 C1146 1.350 . S
C1143 C1146 1.463 . S
C1143 C1148 1.350 . S
C1143 N1151 1.427 . S
C1144 H1135 0.930 . S
C1144 C1142 1.378 . S
C1144 C1145 1.367 . S
C1145 C1144 1.367 . S
C1145 C1147 1.433 . S
C1146 C1142 1.350 . S
C1146 C1143 1.463 . S
C1146 N1150 1.427 . S
C1147 H1137 0.929 . S
C1147 C1145 1.433 . S
C1147 N1150 1.384 . S
C1148 H1139 0.929 . S
C1148 C1140 1.378 . S
C1148 C1143 1.350 . S
C1149 H1136 0.929 . S
C1149 C1141 1.433 . S
C1149 N1151 1.384 . S
N1150 C1146 1.427 . S
N1150 C1147 1.384 . S
N1151 C1143 1.427 . S
N1151 C1149 1.384 . S
H1152 C1158 0.930 . S
H1153 C1162 0.930 . S
H1154 C1167 0.929 . S
H1155 C1165 0.929 . S
H1156 C1160 0.929 1_556 S
H1157 C1166 0.929 1_554 S
C1158 H1152 0.930 . S
C1158 C1159 1.367 . S
C1158 C1166 1.378 . S
C1159 C1158 1.367 . S
C1159 C1167 1.433 . S
C1160 H1156 0.929 1_554 S
C1160 C1162 1.378 . S
C1160 C1164 1.350 . S
C1161 C1164 1.463 1_556 S
C1161 C1166 1.350 . S
C1161 N1169 1.427 . S
C1162 H1153 0.930 . S
C1162 C1160 1.378 . S
C1162 C1163 1.367 . S
C1163 C1162 1.367 . S
C1163 C1165 1.433 . S
C1164 C1160 1.350 . S
C1164 C1161 1.463 1_554 S
C1164 N1168 1.427 . S
C1165 H1155 0.929 . S
C1165 C1163 1.433 . S
C1165 N1168 1.384 . S
C1166 H1157 0.929 1_556 S
C1166 C1158 1.378 . S
C1166 C1161 1.350 . S
C1167 H1154 0.929 . S
C1167 C1159 1.433 . S
C1167 N1169 1.384 . S
N1168 C1164 1.427 . S
N1168 C1165 1.384 . S
N1169 C1161 1.427 . S
N1169 C1167 1.384 . S
H1170 C1176 0.930 . S
H1171 C1180 0.930 . S
H1172 C1185 0.929 . S
H1173 C1183 0.929 . S
H1174 C1178 0.929 . S
H1175 C1184 0.929 . S
C1176 H1170 0.930 . S
C1176 C1177 1.367 . S
C1176 C1184 1.378 . S
C1177 C1176 1.367 . S
C1177 C1185 1.433 . S
C1178 H1174 0.929 . S
C1178 C1180 1.378 . S
C1178 C1182 1.350 . S
C1179 C1182 1.463 . S
C1179 C1184 1.350 . S
C1179 N1187 1.427 . S
C1180 H1171 0.930 . S
C1180 C1178 1.378 . S
C1180 C1181 1.367 . S
C1181 C1180 1.367 . S
C1181 C1183 1.433 . S
C1182 C1178 1.350 . S
C1182 C1179 1.463 . S
C1182 N1186 1.427 . S
C1183 H1173 0.929 . S
C1183 C1181 1.433 . S
C1183 N1186 1.384 . S
C1184 H1175 0.929 . S
C1184 C1176 1.378 . S
C1184 C1179 1.350 . S
C1185 H1172 0.929 . S
C1185 C1177 1.433 . S
C1185 N1187 1.384 . S
N1186 C1182 1.427 . S
N1186 C1183 1.384 . S
N1187 C1179 1.427 . S
N1187 C1185 1.384 . S
H1188 C1194 0.930 . S
H1189 C1198 0.930 . S
H1190 C1203 0.923 1_556 S
H1191 C1201 0.923 1_554 S
H1192 C1196 0.929 . S
H1193 C1202 0.929 . S
C1194 H1188 0.930 . S
C1194 C1195 1.367 . S
C1194 C1202 1.378 . S
C1195 C1194 1.367 . S
C1195 C1203 1.433 . S
C1196 H1192 0.929 . S
C1196 C1198 1.378 . S
C1196 C1200 1.350 . S
C1197 C1200 1.463 1_554 S
C1197 C1202 1.350 . S
C1197 N1205 1.427 1_554 S
C1198 H1189 0.930 . S
C1198 C1196 1.378 . S
C1198 C1199 1.367 . S
C1199 C1198 1.367 . S
C1199 C1201 1.433 . S
C1200 C1196 1.350 . S
C1200 C1197 1.463 1_556 S
C1200 N1204 1.427 1_556 S
C1201 H1191 0.923 1_556 S
C1201 C1199 1.433 . S
C1201 N1204 1.384 1_556 S
C1202 H1193 0.929 . S
C1202 C1194 1.378 . S
C1202 C1197 1.350 . S
C1203 H1190 0.923 1_554 S
C1203 C1195 1.433 . S
C1203 N1205 1.384 1_554 S
N1204 C1200 1.427 1_554 S
N1204 C1201 1.384 1_554 S
N1205 C1197 1.427 1_556 S
N1205 C1203 1.384 1_556 S
H1206 C1212 0.930 . S
H1207 C1216 0.930 . S
H1208 C1221 0.929 . S
H1209 C1219 0.929 . S
H1210 C1214 0.929 . S
H1211 C1220 0.929 . S
C1212 H1206 0.930 . S
C1212 C1213 1.367 . S
C1212 C1220 1.378 . S
C1213 C1212 1.367 . S
C1213 C1221 1.433 . S
C1214 H1210 0.929 . S
C1214 C1216 1.378 . S
C1214 C1218 1.350 . S
C1215 C1218 1.463 . S
C1215 C1220 1.350 . S
C1215 N1223 1.427 . S
C1216 H1207 0.930 . S
C1216 C1214 1.378 . S
C1216 C1217 1.367 . S
C1217 C1216 1.367 . S
C1217 C1219 1.433 . S
C1218 C1214 1.350 . S
C1218 C1215 1.463 . S
C1218 N1222 1.427 . S
C1219 H1209 0.929 . S
C1219 C1217 1.433 . S
C1219 N1222 1.384 . S
C1220 H1211 0.929 . S
C1220 C1212 1.378 . S
C1220 C1215 1.350 . S
C1221 H1208 0.929 . S
C1221 C1213 1.433 . S
C1221 N1223 1.384 . S
N1222 C1218 1.427 . S
N1222 C1219 1.384 . S
N1223 C1215 1.427 . S
N1223 C1221 1.384 . S
H1224 C1230 0.930 . S
H1225 C1234 0.930 . S
H1226 C1239 0.929 1_554 S
H1227 C1237 0.929 1_556 S
H1228 C1232 0.929 . S
H1229 C1238 0.929 . S
C1230 H1224 0.930 . S
C1230 C1231 1.367 . S
C1230 C1238 1.378 . S
C1231 C1230 1.367 . S
C1231 C1239 1.433 . S
C1232 H1228 0.929 . S
C1232 C1234 1.378 . S
C1232 C1236 1.350 . S
C1233 C1236 1.463 1_556 S
C1233 C1238 1.350 . S
C1233 N1241 1.427 1_556 S
C1234 H1225 0.930 . S
C1234 C1232 1.378 . S
C1234 C1235 1.367 . S
C1235 C1234 1.367 . S
C1235 C1237 1.433 . S
C1236 C1232 1.350 . S
C1236 C1233 1.463 1_554 S
C1236 N1240 1.427 1_554 S
C1237 H1227 0.929 1_554 S
C1237 C1235 1.433 . S
C1237 N1240 1.384 1_554 S
C1238 H1229 0.929 . S
C1238 C1230 1.378 . S
C1238 C1233 1.350 . S
C1239 H1226 0.929 1_556 S
C1239 C1231 1.433 . S
C1239 N1241 1.384 1_556 S
N1240 C1236 1.427 1_556 S
N1240 C1237 1.384 1_556 S
N1241 C1233 1.427 1_554 S
N1241 C1239 1.384 1_554 S
H1242 C1248 0.930 . S
H1243 C1252 0.930 . S
H1244 C1257 0.929 . S
H1245 C1255 0.929 . S
H1246 C1250 0.929 . S
H1247 C1256 0.929 . S
C1248 H1242 0.930 . S
C1248 C1249 1.367 . S
C1248 C1256 1.378 . S
C1249 C1248 1.367 . S
C1249 C1257 1.433 . S
C1250 H1246 0.929 . S
C1250 C1252 1.378 . S
C1250 C1254 1.350 . S
C1251 C1254 1.463 . S
C1251 C1256 1.350 . S
C1251 N1259 1.427 . S
C1252 H1243 0.930 . S
C1252 C1250 1.378 . S
C1252 C1253 1.367 . S
C1253 C1252 1.367 . S
C1253 C1255 1.433 . S
C1254 C1250 1.350 . S
C1254 C1251 1.463 . S
C1254 N1258 1.427 . S
C1255 H1245 0.929 . S
C1255 C1253 1.433 . S
C1255 N1258 1.384 . S
C1256 H1247 0.929 . S
C1256 C1248 1.378 . S
C1256 C1251 1.350 . S
C1257 H1244 0.929 . S
C1257 C1249 1.433 . S
C1257 N1259 1.384 . S
N1258 C1254 1.427 . S
N1258 C1255 1.384 . S
N1259 C1251 1.427 . S
N1259 C1257 1.384 . S
H1260 C1266 0.930 . S
H1261 C1270 0.930 . S
H1262 C1275 0.929 . S
H1263 C1273 0.929 . S
H1264 C1268 0.929 . S
H1265 C1274 0.929 . S
C1266 H1260 0.930 . S
C1266 C1267 1.367 . S
C1266 C1274 1.378 . S
C1267 C1266 1.367 . S
C1267 C1275 1.433 . S
C1268 H1264 0.929 . S
C1268 C1270 1.378 . S
C1268 C1272 1.350 . S
C1269 C1272 1.463 1_556 S
C1269 C1274 1.350 . S
C1269 N1277 1.427 . S
C1270 H1261 0.930 . S
C1270 C1268 1.378 . S
C1270 C1271 1.367 . S
C1271 C1270 1.367 . S
C1271 C1273 1.433 . S
C1272 C1268 1.350 . S
C1272 C1269 1.463 1_554 S
C1272 N1276 1.427 . S
C1273 H1263 0.929 . S
C1273 C1271 1.433 . S
C1273 N1276 1.384 . S
C1274 H1265 0.929 . S
C1274 C1266 1.378 . S
C1274 C1269 1.350 . S
C1275 H1262 0.929 . S
C1275 C1267 1.433 . S
C1275 N1277 1.384 . S
N1276 C1272 1.427 . S
N1276 C1273 1.384 . S
N1277 C1269 1.427 . S
N1277 C1275 1.384 . S
H1278 C1284 0.930 . S
H1279 C1288 0.930 . S
H1280 C1293 0.929 . S
H1281 C1291 0.929 . S
H1282 C1286 0.929 . S
H1283 C1292 0.929 . S
C1284 H1278 0.930 . S
C1284 C1285 1.367 . S
C1284 C1292 1.378 . S
C1285 C1284 1.367 . S
C1285 C1293 1.433 . S
C1286 H1282 0.929 . S
C1286 C1288 1.378 . S
C1286 C1290 1.350 . S
C1287 C1290 1.463 . S
C1287 C1292 1.350 . S
C1287 N1295 1.427 . S
C1288 H1279 0.930 . S
C1288 C1286 1.378 . S
C1288 C1289 1.367 . S
C1289 C1288 1.367 . S
C1289 C1291 1.433 . S
C1290 C1286 1.350 . S
C1290 C1287 1.463 . S
C1290 N1294 1.427 . S
C1291 H1281 0.929 . S
C1291 C1289 1.433 . S
C1291 N1294 1.384 . S
C1292 H1283 0.929 . S
C1292 C1284 1.378 . S
C1292 C1287 1.350 . S
C1293 H1280 0.929 . S
C1293 C1285 1.433 . S
C1293 N1295 1.384 . S
N1294 C1290 1.427 . S
N1294 C1291 1.384 . S
N1295 C1287 1.427 . S
N1295 C1293 1.384 . S
H1296 C1302 0.930 . S
H1297 C1306 0.930 . S
H1298 C1311 0.929 . S
H1299 C1309 0.929 . S
H1300 C1304 0.929 . S
H1301 C1310 0.929 . S
C1302 H1296 0.930 . S
C1302 C1303 1.367 . S
C1302 C1310 1.378 . S
C1303 C1302 1.367 . S
C1303 C1311 1.433 . S
C1304 H1300 0.929 . S
C1304 C1306 1.378 . S
C1304 C1308 1.350 . S
C1305 C1308 1.463 . S
C1305 C1310 1.350 . S
C1305 N1313 1.427 . S
C1306 H1297 0.930 . S
C1306 C1304 1.378 . S
C1306 C1307 1.367 . S
C1307 C1306 1.367 . S
C1307 C1309 1.433 . S
C1308 C1304 1.350 . S
C1308 C1305 1.463 . S
C1308 N1312 1.427 . S
C1309 H1299 0.929 . S
C1309 C1307 1.433 . S
C1309 N1312 1.384 . S
C1310 H1301 0.929 . S
C1310 C1302 1.378 . S
C1310 C1305 1.350 . S
C1311 H1298 0.929 . S
C1311 C1303 1.433 . S
C1311 N1313 1.384 . S
N1312 C1308 1.427 . S
N1312 C1309 1.384 . S
N1313 C1305 1.427 . S
N1313 C1311 1.384 . S
H1314 C1320 0.930 . S
H1315 C1324 0.930 . S
H1316 C1329 0.929 . S
H1317 C1327 0.929 . S
H1318 C1322 0.929 . S
H1319 C1328 0.929 . S
C1320 H1314 0.930 . S
C1320 C1321 1.367 . S
C1320 C1328 1.378 . S
C1321 C1320 1.367 . S
C1321 C1329 1.433 . S
C1322 H1318 0.929 . S
C1322 C1324 1.378 . S
C1322 C1326 1.350 . S
C1323 C1326 1.463 1_455 S
C1323 C1328 1.350 . S
C1323 N1331 1.427 . S
C1324 H1315 0.930 . S
C1324 C1322 1.378 . S
C1324 C1325 1.367 . S
C1325 C1324 1.367 . S
C1325 C1327 1.433 . S
C1326 C1322 1.350 . S
C1326 C1323 1.463 1_655 S
C1326 N1330 1.427 . S
C1327 H1317 0.929 . S
C1327 C1325 1.433 . S
C1327 N1330 1.384 . S
C1328 H1319 0.929 . S
C1328 C1320 1.378 . S
C1328 C1323 1.350 . S
C1329 H1316 0.929 . S
C1329 C1321 1.433 . S
C1329 N1331 1.384 . S
N1330 C1326 1.427 . S
N1330 C1327 1.384 . S
N1331 C1323 1.427 . S
N1331 C1329 1.384 . S
H1332 C1338 0.930 . S
H1333 C1342 0.930 . S
H1334 C1347 0.929 . S
H1335 C1345 0.929 . S
H1336 C1340 0.929 . S
H1337 C1346 0.929 . S
C1338 H1332 0.930 . S
C1338 C1339 1.367 . S
C1338 C1346 1.378 . S
C1339 C1338 1.367 . S
C1339 C1347 1.433 . S
C1340 H1336 0.929 . S
C1340 C1342 1.378 . S
C1340 C1344 1.350 . S
C1341 C1344 1.463 1_565 S
C1341 C1346 1.350 . S
C1341 N1349 1.427 . S
C1342 H1333 0.930 . S
C1342 C1340 1.378 . S
C1342 C1343 1.367 . S
C1343 C1342 1.367 . S
C1343 C1345 1.433 . S
C1344 C1340 1.350 . S
C1344 C1341 1.463 1_545 S
C1344 N1348 1.427 . S
C1345 H1335 0.929 . S
C1345 C1343 1.433 . S
C1345 N1348 1.384 . S
C1346 H1337 0.929 . S
C1346 C1338 1.378 . S
C1346 C1341 1.350 . S
C1347 H1334 0.929 . S
C1347 C1339 1.433 . S
C1347 N1349 1.384 . S
N1348 C1344 1.427 . S
N1348 C1345 1.384 . S
N1349 C1341 1.427 . S
N1349 C1347 1.384 . S
H1350 C1356 0.930 . S
H1351 C1360 0.930 . S
H1352 C1365 0.929 . S
H1353 C1363 0.929 . S
H1354 C1358 0.929 . S
H1355 C1364 0.929 . S
C1356 H1350 0.930 . S
C1356 C1357 1.367 . S
C1356 C1364 1.378 . S
C1357 C1356 1.367 . S
C1357 C1365 1.433 . S
C1358 H1354 0.929 . S
C1358 C1360 1.378 . S
C1358 C1362 1.350 . S
C1359 C1362 1.463 . S
C1359 C1364 1.350 . S
C1359 N1367 1.427 . S
C1360 H1351 0.930 . S
C1360 C1358 1.378 . S
C1360 C1361 1.367 . S
C1361 C1360 1.367 . S
C1361 C1363 1.433 . S
C1362 C1358 1.350 . S
C1362 C1359 1.463 . S
C1362 N1366 1.427 . S
C1363 H1353 0.929 . S
C1363 C1361 1.433 . S
C1363 N1366 1.384 . S
C1364 H1355 0.929 . S
C1364 C1356 1.378 . S
C1364 C1359 1.350 . S
C1365 H1352 0.929 . S
C1365 C1357 1.433 . S
C1365 N1367 1.384 . S
N1366 C1362 1.427 . S
N1366 C1363 1.384 . S
N1367 C1359 1.427 . S
N1367 C1365 1.384 . S
H1368 C1374 0.930 . S
H1369 C1378 0.930 . S
H1370 C1383 0.929 . S
H1371 C1381 0.929 . S
H1372 C1376 0.929 . S
H1373 C1382 0.929 . S
C1374 H1368 0.930 . S
C1374 C1375 1.367 . S
C1374 C1382 1.378 . S
C1375 C1374 1.367 . S
C1375 C1383 1.433 . S
C1376 H1372 0.929 . S
C1376 C1378 1.378 . S
C1376 C1380 1.350 . S
C1377 C1380 1.463 1_655 S
C1377 C1382 1.350 . S
C1377 N1385 1.427 . S
C1378 H1369 0.930 . S
C1378 C1376 1.378 . S
C1378 C1379 1.367 . S
C1379 C1378 1.367 . S
C1379 C1381 1.433 . S
C1380 C1376 1.350 . S
C1380 C1377 1.463 1_455 S
C1380 N1384 1.427 . S
C1381 H1371 0.929 . S
C1381 C1379 1.433 . S
C1381 N1384 1.384 . S
C1382 H1373 0.929 . S
C1382 C1374 1.378 . S
C1382 C1377 1.350 . S
C1383 H1370 0.929 . S
C1383 C1375 1.433 . S
C1383 N1385 1.384 . S
N1384 C1380 1.427 . S
N1384 C1381 1.384 . S
N1385 C1377 1.427 . S
N1385 C1383 1.384 . S
H1386 C1392 0.930 . S
H1387 C1396 0.930 . S
H1388 C1401 0.929 . S
H1389 C1399 0.929 . S
H1390 C1394 0.929 . S
H1391 C1400 0.929 . S
C1392 H1386 0.930 . S
C1392 C1393 1.367 . S
C1392 C1400 1.378 . S
C1393 C1392 1.367 . S
C1393 C1401 1.433 . S
C1394 H1390 0.929 . S
C1394 C1396 1.378 . S
C1394 C1398 1.350 . S
C1395 C1398 1.463 1_545 S
C1395 C1400 1.350 . S
C1395 N1403 1.427 . S
C1396 H1387 0.930 . S
C1396 C1394 1.378 . S
C1396 C1397 1.367 . S
C1397 C1396 1.367 . S
C1397 C1399 1.433 . S
C1398 C1394 1.350 . S
C1398 C1395 1.463 1_565 S
C1398 N1402 1.427 . S
C1399 H1389 0.929 . S
C1399 C1397 1.433 . S
C1399 N1402 1.384 . S
C1400 H1391 0.929 . S
C1400 C1392 1.378 . S
C1400 C1395 1.350 . S
C1401 H1388 0.929 . S
C1401 C1393 1.433 . S
C1401 N1403 1.384 . S
N1402 C1398 1.427 . S
N1402 C1399 1.384 . S
N1403 C1395 1.427 . S
N1403 C1401 1.384 . S
H1404 C1410 0.930 . S
H1405 C1414 0.930 . S
H1406 C1419 0.929 . S
H1407 C1417 0.929 . S
H1408 C1412 0.929 . S
H1409 C1418 0.929 . S
C1410 H1404 0.930 . S
C1410 C1411 1.367 . S
C1410 C1418 1.378 . S
C1411 C1410 1.367 . S
C1411 C1419 1.433 . S
C1412 H1408 0.929 . S
C1412 C1414 1.378 . S
C1412 C1416 1.350 . S
C1413 C1416 1.463 . S
C1413 C1418 1.350 . S
C1413 N1421 1.427 . S
C1414 H1405 0.930 . S
C1414 C1412 1.378 . S
C1414 C1415 1.367 . S
C1415 C1414 1.367 . S
C1415 C1417 1.433 . S
C1416 C1412 1.350 . S
C1416 C1413 1.463 . S
C1416 N1420 1.427 . S
C1417 H1407 0.929 . S
C1417 C1415 1.433 . S
C1417 N1420 1.384 . S
C1418 H1409 0.929 . S
C1418 C1410 1.378 . S
C1418 C1413 1.350 . S
C1419 H1406 0.929 . S
C1419 C1411 1.433 . S
C1419 N1421 1.384 . S
N1420 C1416 1.427 . S
N1420 C1417 1.384 . S
N1421 C1413 1.427 . S
N1421 C1419 1.384 . S
H1422 C1428 0.930 . S
H1423 C1432 0.930 . S
H1424 C1437 0.929 . S
H1425 C1435 0.929 . S
H1426 C1430 0.929 . S
H1427 C1436 0.929 . S
C1428 H1422 0.930 . S
C1428 C1429 1.367 . S
C1428 C1436 1.378 . S
C1429 C1428 1.367 . S
C1429 C1437 1.433 . S
C1430 H1426 0.929 . S
C1430 C1432 1.378 . S
C1430 C1434 1.350 . S
C1431 C1434 1.463 1_655 S
C1431 C1436 1.350 . S
C1431 N1439 1.427 . S
C1432 H1423 0.930 . S
C1432 C1430 1.378 . S
C1432 C1433 1.367 . S
C1433 C1432 1.367 . S
C1433 C1435 1.433 . S
C1434 C1430 1.350 . S
C1434 C1431 1.463 1_455 S
C1434 N1438 1.427 . S
C1435 H1425 0.929 . S
C1435 C1433 1.433 . S
C1435 N1438 1.384 . S
C1436 H1427 0.929 . S
C1436 C1428 1.378 . S
C1436 C1431 1.350 . S
C1437 H1424 0.929 . S
C1437 C1429 1.433 . S
C1437 N1439 1.384 . S
N1438 C1434 1.427 . S
N1438 C1435 1.384 . S
N1439 C1431 1.427 . S
N1439 C1437 1.384 . S
H1440 C1446 0.930 . S
H1441 C1450 0.930 . S
H1442 C1455 0.929 . S
H1443 C1453 0.929 . S
H1444 C1448 0.929 . S
H1445 C1454 0.929 . S
C1446 H1440 0.930 . S
C1446 C1447 1.367 . S
C1446 C1454 1.378 . S
C1447 C1446 1.367 . S
C1447 C1455 1.433 . S
C1448 H1444 0.929 . S
C1448 C1450 1.378 . S
C1448 C1452 1.350 . S
C1449 C1452 1.463 1_545 S
C1449 C1454 1.350 . S
C1449 N1457 1.427 . S
C1450 H1441 0.930 . S
C1450 C1448 1.378 . S
C1450 C1451 1.367 . S
C1451 C1450 1.367 . S
C1451 C1453 1.433 . S
C1452 C1448 1.350 . S
C1452 C1449 1.463 1_565 S
C1452 N1456 1.427 . S
C1453 H1443 0.929 . S
C1453 C1451 1.433 . S
C1453 N1456 1.384 . S
C1454 H1445 0.929 . S
C1454 C1446 1.378 . S
C1454 C1449 1.350 . S
C1455 H1442 0.929 . S
C1455 C1447 1.433 . S
C1455 N1457 1.384 . S
N1456 C1452 1.427 . S
N1456 C1453 1.384 . S
N1457 C1449 1.427 . S
N1457 C1455 1.384 . S
H1458 C1464 0.930 . S
H1459 C1468 0.930 . S
H1460 C1473 0.929 . S
H1461 C1471 0.929 . S
H1462 C1466 0.929 . S
H1463 C1472 0.929 . S
C1464 H1458 0.930 . S
C1464 C1465 1.367 . S
C1464 C1472 1.378 . S
C1465 C1464 1.367 . S
C1465 C1473 1.433 . S
C1466 H1462 0.929 . S
C1466 C1468 1.378 . S
C1466 C1470 1.350 . S
C1467 C1470 1.463 . S
C1467 C1472 1.350 . S
C1467 N1475 1.427 . S
C1468 H1459 0.930 . S
C1468 C1466 1.378 . S
C1468 C1469 1.367 . S
C1469 C1468 1.367 . S
C1469 C1471 1.433 . S
C1470 C1466 1.350 . S
C1470 C1467 1.463 . S
C1470 N1474 1.427 . S
C1471 H1461 0.929 . S
C1471 C1469 1.433 . S
C1471 N1474 1.384 . S
C1472 H1463 0.929 . S
C1472 C1464 1.378 . S
C1472 C1467 1.350 . S
C1473 H1460 0.929 . S
C1473 C1465 1.433 . S
C1473 N1475 1.384 . S
N1474 C1470 1.427 . S
N1474 C1471 1.384 . S
N1475 C1467 1.427 . S
N1475 C1473 1.384 . S
H1476 C1482 0.930 . S
H1477 C1486 0.930 . S
H1478 C1491 0.929 . S
H1479 C1489 0.929 . S
H1480 C1484 0.929 . S
H1481 C1490 0.929 . S
C1482 H1476 0.930 . S
C1482 C1483 1.367 . S
C1482 C1490 1.378 . S
C1483 C1482 1.367 . S
C1483 C1491 1.433 . S
C1484 H1480 0.929 . S
C1484 C1486 1.378 . S
C1484 C1488 1.350 . S
C1485 C1488 1.463 1_455 S
C1485 C1490 1.350 . S
C1485 N1493 1.427 . S
C1486 H1477 0.930 . S
C1486 C1484 1.378 . S
C1486 C1487 1.367 . S
C1487 C1486 1.367 . S
C1487 C1489 1.433 . S
C1488 C1484 1.350 . S
C1488 C1485 1.463 1_655 S
C1488 N1492 1.427 . S
C1489 H1479 0.929 . S
C1489 C1487 1.433 . S
C1489 N1492 1.384 . S
C1490 H1481 0.929 . S
C1490 C1482 1.378 . S
C1490 C1485 1.350 . S
C1491 H1478 0.929 . S
C1491 C1483 1.433 . S
C1491 N1493 1.384 . S
N1492 C1488 1.427 . S
N1492 C1489 1.384 . S
N1493 C1485 1.427 . S
N1493 C1491 1.384 . S
H1494 C1500 0.930 . S
H1495 C1504 0.930 . S
H1496 C1509 0.929 . S
H1497 C1507 0.929 . S
H1498 C1502 0.929 . S
H1499 C1508 0.929 . S
C1500 H1494 0.930 . S
C1500 C1501 1.367 . S
C1500 C1508 1.378 . S
C1501 C1500 1.367 . S
C1501 C1509 1.433 . S
C1502 H1498 0.929 . S
C1502 C1504 1.378 . S
C1502 C1506 1.350 . S
C1503 C1506 1.463 1_565 S
C1503 C1508 1.350 . S
C1503 N1511 1.427 . S
C1504 H1495 0.930 . S
C1504 C1502 1.378 . S
C1504 C1505 1.367 . S
C1505 C1504 1.367 . S
C1505 C1507 1.433 . S
C1506 C1502 1.350 . S
C1506 C1503 1.463 1_545 S
C1506 N1510 1.427 . S
C1507 H1497 0.929 . S
C1507 C1505 1.433 . S
C1507 N1510 1.384 . S
C1508 H1499 0.929 . S
C1508 C1500 1.378 . S
C1508 C1503 1.350 . S
C1509 H1496 0.929 . S
C1509 C1501 1.433 . S
C1509 N1511 1.384 . S
N1510 C1506 1.427 . S
N1510 C1507 1.384 . S
N1511 C1503 1.427 . S
N1511 C1509 1.384 . S
H1512 C1518 0.930 . S
H1513 C1522 0.930 . S
H1514 C1527 0.929 1_554 S
H1515 C1525 0.929 1_556 S
H1516 C1520 0.929 . S
H1517 C1526 0.929 . S
C1518 H1512 0.930 . S
C1518 C1519 1.367 . S
C1518 C1526 1.378 . S
C1519 C1518 1.367 . S
C1519 C1527 1.433 . S
C1520 H1516 0.929 . S
C1520 C1522 1.378 . S
C1520 C1524 1.350 . S
C1521 C1524 1.463 1_556 S
C1521 C1526 1.350 . S
C1521 N1529 1.427 1_556 S
C1522 H1513 0.930 . S
C1522 C1520 1.378 . S
C1522 C1523 1.367 . S
C1523 C1522 1.367 . S
C1523 C1525 1.433 . S
C1524 C1520 1.350 . S
C1524 C1521 1.463 1_554 S
C1524 N1528 1.427 1_554 S
C1525 H1515 0.929 1_554 S
C1525 C1523 1.433 . S
C1525 N1528 1.384 1_554 S
C1526 H1517 0.929 . S
C1526 C1518 1.378 . S
C1526 C1521 1.350 . S
C1527 H1514 0.929 1_556 S
C1527 C1519 1.433 . S
C1527 N1529 1.384 1_556 S
N1528 C1524 1.427 1_556 S
N1528 C1525 1.384 1_556 S
N1529 C1521 1.427 1_554 S
N1529 C1527 1.384 1_554 S
H1530 C1536 0.930 . S
H1531 C1540 0.930 . S
H1532 C1545 0.929 . S
H1533 C1543 0.929 . S
H1534 C1538 0.929 . S
H1535 C1544 0.929 . S
C1536 H1530 0.930 . S
C1536 C1537 1.367 . S
C1536 C1544 1.378 . S
C1537 C1536 1.367 . S
C1537 C1545 1.433 . S
C1538 H1534 0.929 . S
C1538 C1540 1.378 . S
C1538 C1542 1.350 . S
C1539 C1542 1.463 . S
C1539 C1544 1.350 . S
C1539 N1547 1.427 . S
C1540 H1531 0.930 . S
C1540 C1538 1.378 . S
C1540 C1541 1.367 . S
C1541 C1540 1.367 . S
C1541 C1543 1.433 . S
C1542 C1538 1.350 . S
C1542 C1539 1.463 . S
C1542 N1546 1.427 . S
C1543 H1533 0.929 . S
C1543 C1541 1.433 . S
C1543 N1546 1.384 . S
C1544 H1535 0.929 . S
C1544 C1536 1.378 . S
C1544 C1539 1.350 . S
C1545 H1532 0.929 . S
C1545 C1537 1.433 . S
C1545 N1547 1.384 . S
N1546 C1542 1.427 . S
N1546 C1543 1.384 . S
N1547 C1539 1.427 . S
N1547 C1545 1.384 . S
H1548 C1554 0.930 . S
H1549 C1558 0.930 . S
H1550 C1563 0.929 . S
H1551 C1561 0.929 . S
H1552 C1556 0.929 1_556 S
H1553 C1562 0.929 1_554 S
C1554 H1548 0.930 . S
C1554 C1555 1.367 . S
C1554 C1562 1.378 . S
C1555 C1554 1.367 . S
C1555 C1563 1.433 . S
C1556 H1552 0.929 1_554 S
C1556 C1558 1.378 . S
C1556 C1560 1.350 . S
C1557 C1560 1.463 1_556 S
C1557 C1562 1.350 . S
C1557 N1565 1.427 . S
C1558 H1549 0.930 . S
C1558 C1556 1.378 . S
C1558 C1559 1.367 . S
C1559 C1558 1.367 . S
C1559 C1561 1.433 . S
C1560 C1556 1.350 . S
C1560 C1557 1.463 1_554 S
C1560 N1564 1.427 . S
C1561 H1551 0.929 . S
C1561 C1559 1.433 . S
C1561 N1564 1.384 . S
C1562 H1553 0.929 1_556 S
C1562 C1554 1.378 . S
C1562 C1557 1.350 . S
C1563 H1550 0.929 . S
C1563 C1555 1.433 . S
C1563 N1565 1.384 . S
N1564 C1560 1.427 . S
N1564 C1561 1.384 . S
N1565 C1557 1.427 . S
N1565 C1563 1.384 . S
H1566 C1572 0.930 . S
H1567 C1576 0.930 . S
H1568 C1581 0.929 . S
H1569 C1579 0.929 . S
H1570 C1574 0.929 . S
H1571 C1580 0.929 . S
C1572 H1566 0.930 . S
C1572 C1573 1.367 . S
C1572 C1580 1.378 . S
C1573 C1572 1.367 . S
C1573 C1581 1.433 . S
C1574 H1570 0.929 . S
C1574 C1576 1.378 . S
C1574 C1578 1.350 . S
C1575 C1578 1.463 . S
C1575 C1580 1.350 . S
C1575 N1583 1.427 . S
C1576 H1567 0.930 . S
C1576 C1574 1.378 . S
C1576 C1577 1.367 . S
C1577 C1576 1.367 . S
C1577 C1579 1.433 . S
C1578 C1574 1.350 . S
C1578 C1575 1.463 . S
C1578 N1582 1.427 . S
C1579 H1569 0.929 . S
C1579 C1577 1.433 . S
C1579 N1582 1.384 . S
C1580 H1571 0.929 . S
C1580 C1572 1.378 . S
C1580 C1575 1.350 . S
C1581 H1568 0.929 . S
C1581 C1573 1.433 . S
C1581 N1583 1.384 . S
N1582 C1578 1.427 . S
N1582 C1579 1.384 . S
N1583 C1575 1.427 . S
N1583 C1581 1.384 . S
H1584 C1590 0.930 . S
H1585 C1594 0.930 . S
H1586 C1599 0.929 . S
H1587 C1597 0.929 . S
H1588 C1592 0.929 1_556 S
H1589 C1598 0.929 1_554 S
C1590 H1584 0.930 . S
C1590 C1591 1.367 . S
C1590 C1598 1.378 . S
C1591 C1590 1.367 . S
C1591 C1599 1.433 . S
C1592 H1588 0.929 1_554 S
C1592 C1594 1.378 . S
C1592 C1596 1.350 . S
C1593 C1596 1.463 1_556 S
C1593 C1598 1.350 . S
C1593 N1601 1.427 . S
C1594 H1585 0.930 . S
C1594 C1592 1.378 . S
C1594 C1595 1.367 . S
C1595 C1594 1.367 . S
C1595 C1597 1.433 . S
C1596 C1592 1.350 . S
C1596 C1593 1.463 1_554 S
C1596 N1600 1.427 . S
C1597 H1587 0.929 . S
C1597 C1595 1.433 . S
C1597 N1600 1.384 . S
C1598 H1589 0.929 1_556 S
C1598 C1590 1.378 . S
C1598 C1593 1.350 . S
C1599 H1586 0.929 . S
C1599 C1591 1.433 . S
C1599 N1601 1.384 . S
N1600 C1596 1.427 . S
N1600 C1597 1.384 . S
N1601 C1593 1.427 . S
N1601 C1599 1.384 . S
H1602 C1608 0.930 . S
H1603 C1612 0.930 . S
H1604 C1617 0.929 . S
H1605 C1615 0.929 . S
H1606 C1610 0.929 . S
H1607 C1616 0.929 . S
C1608 H1602 0.930 . S
C1608 C1609 1.367 . S
C1608 C1616 1.378 . S
C1609 C1608 1.367 . S
C1609 C1617 1.433 . S
C1610 H1606 0.929 . S
C1610 C1612 1.378 . S
C1610 C1614 1.350 . S
C1611 C1614 1.463 . S
C1611 C1616 1.350 . S
C1611 N1619 1.427 . S
C1612 H1603 0.930 . S
C1612 C1610 1.378 . S
C1612 C1613 1.367 . S
C1613 C1612 1.367 . S
C1613 C1615 1.433 . S
C1614 C1610 1.350 . S
C1614 C1611 1.463 . S
C1614 N1618 1.427 . S
C1615 H1605 0.929 . S
C1615 C1613 1.433 . S
C1615 N1618 1.384 . S
C1616 H1607 0.929 . S
C1616 C1608 1.378 . S
C1616 C1611 1.350 . S
C1617 H1604 0.929 . S
C1617 C1609 1.433 . S
C1617 N1619 1.384 . S
N1618 C1614 1.427 . S
N1618 C1615 1.384 . S
N1619 C1611 1.427 . S
N1619 C1617 1.384 . S
H1620 C1626 0.930 1_556 S
H1621 C1630 0.930 1_554 S
H1622 C1635 0.929 . S
H1623 C1633 0.929 . S
H1624 C1628 0.929 . S
H1625 C1634 0.929 . S
C1626 H1620 0.930 1_554 S
C1626 C1627 1.367 . S
C1626 C1634 1.378 1_554 S
C1627 C1626 1.367 . S
C1627 C1635 1.433 . S
C1628 H1624 0.929 . S
C1628 C1630 1.378 1_554 S
C1628 C1632 1.350 1_554 S
C1629 C1632 1.463 1_554 S
C1629 C1634 1.350 1_554 S
C1629 N1637 1.427 . S
C1630 H1621 0.930 1_556 S
C1630 C1628 1.378 1_556 S
C1630 C1631 1.367 . S
C1631 C1630 1.367 . S
C1631 C1633 1.433 . S
C1632 C1628 1.350 1_556 S
C1632 C1629 1.463 1_556 S
C1632 N1636 1.427 . S
C1633 H1623 0.929 . S
C1633 C1631 1.433 . S
C1633 N1636 1.384 . S
C1634 H1625 0.929 . S
C1634 C1626 1.378 1_556 S
C1634 C1629 1.350 1_556 S
C1635 H1622 0.929 . S
C1635 C1627 1.433 . S
C1635 N1637 1.384 . S
N1636 C1632 1.427 . S
N1636 C1633 1.384 . S
N1637 C1629 1.427 . S
N1637 C1635 1.384 . S
H1638 C1644 0.930 . S
H1639 C1648 0.930 . S
H1640 C1653 0.929 . S
H1641 C1651 0.929 . S
H1642 C1646 0.929 . S
H1643 C1652 0.929 . S
C1644 H1638 0.930 . S
C1644 C1645 1.367 . S
C1644 C1652 1.378 . S
C1645 C1644 1.367 . S
C1645 C1653 1.433 . S
C1646 H1642 0.929 . S
C1646 C1648 1.378 . S
C1646 C1650 1.350 . S
C1647 C1650 1.463 . S
C1647 C1652 1.350 . S
C1647 N1655 1.427 . S
C1648 H1639 0.930 . S
C1648 C1646 1.378 . S
C1648 C1649 1.367 . S
C1649 C1648 1.367 . S
C1649 C1651 1.433 . S
C1650 C1646 1.350 . S
C1650 C1647 1.463 . S
C1650 N1654 1.427 . S
C1651 H1641 0.929 . S
C1651 C1649 1.433 . S
C1651 N1654 1.384 . S
C1652 H1643 0.929 . S
C1652 C1644 1.378 . S
C1652 C1647 1.350 . S
C1653 H1640 0.929 . S
C1653 C1645 1.433 . S
C1653 N1655 1.384 . S
N1654 C1650 1.427 . S
N1654 C1651 1.384 . S
N1655 C1647 1.427 . S
N1655 C1653 1.384 . S
H1656 C1662 0.930 . S
H1657 C1666 0.930 . S
H1658 C1671 0.929 . S
H1659 C1669 0.929 . S
H1660 C1664 0.929 . S
H1661 C1670 0.929 . S
C1662 H1656 0.930 . S
C1662 C1663 1.367 . S
C1662 C1670 1.378 . S
C1663 C1662 1.367 . S
C1663 C1671 1.433 . S
C1664 H1660 0.929 . S
C1664 C1666 1.378 . S
C1664 C1668 1.350 . S
C1665 C1668 1.463 1_554 S
C1665 C1670 1.350 . S
C1665 N1673 1.427 . S
C1666 H1657 0.930 . S
C1666 C1664 1.378 . S
C1666 C1667 1.367 . S
C1667 C1666 1.367 . S
C1667 C1669 1.433 . S
C1668 C1664 1.350 . S
C1668 C1665 1.463 1_556 S
C1668 N1672 1.427 . S
C1669 H1659 0.929 . S
C1669 C1667 1.433 . S
C1669 N1672 1.384 . S
C1670 H1661 0.929 . S
C1670 C1662 1.378 . S
C1670 C1665 1.350 . S
C1671 H1658 0.929 . S
C1671 C1663 1.433 . S
C1671 N1673 1.384 . S
N1672 C1668 1.427 . S
N1672 C1669 1.384 . S
N1673 C1665 1.427 . S
N1673 C1671 1.384 . S
H1674 C1680 0.930 . S
H1675 C1684 0.930 . S
H1676 C1689 0.929 . S
H1677 C1687 0.929 . S
H1678 C1682 0.929 . S
H1679 C1688 0.929 . S
C1680 H1674 0.930 . S
C1680 C1681 1.367 . S
C1680 C1688 1.378 . S
C1681 C1680 1.367 . S
C1681 C1689 1.433 . S
C1682 H1678 0.929 . S
C1682 C1684 1.378 . S
C1682 C1686 1.350 . S
C1683 C1686 1.463 . S
C1683 C1688 1.350 . S
C1683 N1691 1.427 . S
C1684 H1675 0.930 . S
C1684 C1682 1.378 . S
C1684 C1685 1.367 . S
C1685 C1684 1.367 . S
C1685 C1687 1.433 . S
C1686 C1682 1.350 . S
C1686 C1683 1.463 . S
C1686 N1690 1.427 . S
C1687 H1677 0.929 . S
C1687 C1685 1.433 . S
C1687 N1690 1.384 . S
C1688 H1679 0.929 . S
C1688 C1680 1.378 . S
C1688 C1683 1.350 . S
C1689 H1676 0.929 . S
C1689 C1681 1.433 . S
C1689 N1691 1.384 . S
N1690 C1686 1.427 . S
N1690 C1687 1.384 . S
N1691 C1683 1.427 . S
N1691 C1689 1.384 . S
H1692 C1698 0.930 . S
H1693 C1702 0.930 . S
H1694 C1707 0.929 . S
H1695 C1705 0.929 . S
H1696 C1700 0.929 . S
H1697 C1706 0.929 . S
C1698 H1692 0.930 . S
C1698 C1699 1.367 . S
C1698 C1706 1.378 . S
C1699 C1698 1.367 . S
C1699 C1707 1.433 . S
C1700 H1696 0.929 . S
C1700 C1702 1.378 . S
C1700 C1704 1.350 . S
C1701 C1704 1.463 1_556 S
C1701 C1706 1.350 . S
C1701 N1709 1.427 . S
C1702 H1693 0.930 . S
C1702 C1700 1.378 . S
C1702 C1703 1.367 . S
C1703 C1702 1.367 . S
C1703 C1705 1.433 . S
C1704 C1700 1.350 . S
C1704 C1701 1.463 1_554 S
C1704 N1708 1.427 . S
C1705 H1695 0.929 . S
C1705 C1703 1.433 . S
C1705 N1708 1.384 . S
C1706 H1697 0.929 . S
C1706 C1698 1.378 . S
C1706 C1701 1.350 . S
C1707 H1694 0.929 . S
C1707 C1699 1.433 . S
C1707 N1709 1.384 . S
N1708 C1704 1.427 . S
N1708 C1705 1.384 . S
N1709 C1701 1.427 . S
N1709 C1707 1.384 . S
H1710 C1716 0.930 . S
H1711 C1720 0.930 . S
H1712 C1725 0.929 . S
H1713 C1723 0.929 . S
H1714 C1718 0.929 . S
H1715 C1724 0.929 . S
C1716 H1710 0.930 . S
C1716 C1717 1.367 . S
C1716 C1724 1.378 . S
C1717 C1716 1.367 . S
C1717 C1725 1.433 . S
C1718 H1714 0.929 . S
C1718 C1720 1.378 . S
C1718 C1722 1.350 . S
C1719 C1722 1.463 . S
C1719 C1724 1.350 . S
C1719 N1727 1.427 . S
C1720 H1711 0.930 . S
C1720 C1718 1.378 . S
C1720 C1721 1.367 . S
C1721 C1720 1.367 . S
C1721 C1723 1.433 . S
C1722 C1718 1.350 . S
C1722 C1719 1.463 . S
C1722 N1726 1.427 . S
C1723 H1713 0.929 . S
C1723 C1721 1.433 . S
C1723 N1726 1.384 . S
C1724 H1715 0.929 . S
C1724 C1716 1.378 . S
C1724 C1719 1.350 . S
C1725 H1712 0.929 . S
C1725 C1717 1.433 . S
C1725 N1727 1.384 . S
N1726 C1722 1.427 . S
N1726 C1723 1.384 . S
N1727 C1719 1.427 . S
N1727 C1725 1.384 . S
C871 C14 1.393 . S
C875 C554 1.379 . S
C889 C50 1.393 . S
C893 C590 1.379 . S
C907 C626 1.387 . S
C911 C86 1.385 . S
C925 C446 1.379 . S
C929 C122 1.393 . S
C943 C482 1.395 . S
C947 C158 1.376 . S
C961 C518 1.387 . S
C965 C194 1.384 . S
C979 C770 1.376 . S
C983 C230 1.396 . S
C997 C266 1.391 . S
C1001 C806 1.381 . S
C1015 C842 1.383 . S
C1019 C302 1.389 . S
C1033 C338 1.391 . S
C1037 C662 1.381 . S
C1051 C698 1.393 . S
C1055 C374 1.379 . S
C1069 C410 1.384 . S
C1073 C734 1.387 . S
C1087 C363 1.291 . S
C1091 C3 1.291 . S
C1105 C399 1.291 . S
C1109 C39 1.291 . S
C1123 C75 1.290 . S
C1127 C219 1.289 . S
C1141 C111 1.290 . S
C1145 C255 1.290 . S
C1159 C291 1.290 . S
C1163 C147 1.290 . S
C1177 C183 1.290 . S
C1181 C327 1.290 . S
C1195 C795 1.291 . S
C1199 C435 1.291 . S
C1213 C471 1.290 . S
C1217 C831 1.290 . S
C1231 C507 1.291 . S
C1235 C651 1.291 . S
C1249 C687 1.290 . S
C1253 C543 1.290 . S
C1267 C579 1.290 . S
C1271 C723 1.290 . S
C1285 C615 1.290 . S
C1289 C759 1.290 . S
C1303 C4 1.370 . S
C1307 C652 1.376 . S
C1321 C688 1.367 . S
C1325 C40 1.378 . S
C1339 C76 1.367 . S
C1343 C724 1.378 . S
C1357 C112 1.372 . S
C1361 C760 1.373 . S
C1375 C796 1.370 . S
C1379 C148 1.375 . S
C1393 C184 1.378 . S
C1397 C832 1.367 . S
C1411 C220 1.378 . S
C1415 C436 1.368 . S
C1429 C256 1.368 . S
C1433 C472 1.377 . S
C1447 C508 1.371 . S
C1451 C292 1.374 . S
C1465 C544 1.373 . S
C1469 C328 1.373 . S
C1483 C364 1.371 . S
C1487 C580 1.375 . S
C1501 C616 1.368 . S
C1505 C400 1.377 . S
C1519 C218 1.485 . S
C1523 C2 1.488 . S
C1537 C38 1.483 . S
C1541 C254 1.487 . S
C1555 C290 1.481 . S
C1559 C74 1.486 . S
C1573 C326 1.484 . S
C1577 C110 1.482 . S
C1591 C362 1.486 . S
C1595 C146 1.481 . S
C1609 C182 1.482 . S
C1613 C398 1.487 . S
C1627 C650 1.483 . S
C1631 C434 1.483 . S
C1645 C470 1.488 . S
C1649 C686 1.483 . S
C1663 C722 1.483 . S
C1667 C506 1.487 . S
C1681 C758 1.487 . S
C1685 C542 1.486 . S
C1699 C578 1.483 . S
C1703 C794 1.488 . S
C1717 C614 1.485 . S
C1721 C830 1.481 . S
