# Generated by pormake.
# Topology uow, (4)-cn, num edge types: 1
# Building blocks:
#     Node 0, Type 0, BuildingBlock: GALJAG_clean_sbu_0, # of connection points: 4
#     Node 1, Type 0, BuildingBlock: GALJAG_clean_sbu_0, # of connection points: 4
#     Node 2, Type 0, BuildingBlock: GALJAG_clean_sbu_0, # of connection points: 4
#     Node 3, Type 0, BuildingBlock: GALJAG_clean_sbu_0, # of connection points: 4
#     Node 4, Type 0, BuildingBlock: GALJAG_clean_sbu_0, # of connection points: 4
#     Node 5, Type 0, BuildingBlock: GALJAG_clean_sbu_0, # of connection points: 4
#     Node 6, Type 0, BuildingBlock: GALJAG_clean_sbu_0, # of connection points: 4
#     Node 7, Type 0, BuildingBlock: GALJAG_clean_sbu_0, # of connection points: 4
#     Node 8, Type 0, BuildingBlock: GALJAG_clean_sbu_0, # of connection points: 4
#     Node 9, Type 0, BuildingBlock: GALJAG_clean_sbu_0, # of connection points: 4
#     Node 10, Type 0, BuildingBlock: GALJAG_clean_sbu_0, # of connection points: 4
#     Node 11, Type 0, BuildingBlock: GALJAG_clean_sbu_0, # of connection points: 4
#     Node 12, Type 0, BuildingBlock: GALJAG_clean_sbu_0, # of connection points: 4
#     Node 13, Type 0, BuildingBlock: GALJAG_clean_sbu_0, # of connection points: 4
#     Node 14, Type 0, BuildingBlock: GALJAG_clean_sbu_0, # of connection points: 4
#     Node 15, Type 0, BuildingBlock: GALJAG_clean_sbu_0, # of connection points: 4
#     Node 16, Type 0, BuildingBlock: GALJAG_clean_sbu_0, # of connection points: 4
#     Node 17, Type 0, BuildingBlock: GALJAG_clean_sbu_0, # of connection points: 4
#     Node 18, Type 0, BuildingBlock: GALJAG_clean_sbu_0, # of connection points: 4
#     Node 19, Type 0, BuildingBlock: GALJAG_clean_sbu_0, # of connection points: 4
#     Node 20, Type 0, BuildingBlock: GALJAG_clean_sbu_0, # of connection points: 4
#     Node 21, Type 0, BuildingBlock: GALJAG_clean_sbu_0, # of connection points: 4
#     Node 22, Type 0, BuildingBlock: GALJAG_clean_sbu_0, # of connection points: 4
#     Node 23, Type 0, BuildingBlock: GALJAG_clean_sbu_0, # of connection points: 4
#     Node 24, Type 0, BuildingBlock: GALJAG_clean_sbu_0, # of connection points: 4
#     Node 25, Type 0, BuildingBlock: GALJAG_clean_sbu_0, # of connection points: 4
#     Node 26, Type 0, BuildingBlock: GALJAG_clean_sbu_0, # of connection points: 4
#     Node 27, Type 0, BuildingBlock: GALJAG_clean_sbu_0, # of connection points: 4
#     Node 28, Type 0, BuildingBlock: GALJAG_clean_sbu_0, # of connection points: 4
#     Node 29, Type 0, BuildingBlock: GALJAG_clean_sbu_0, # of connection points: 4
#     Node 30, Type 0, BuildingBlock: GALJAG_clean_sbu_0, # of connection points: 4
#     Node 31, Type 0, BuildingBlock: GALJAG_clean_sbu_0, # of connection points: 4
#     Edge 32, Type (0, 0), BuildingBlock: XUDNAN_clean_linker_2, # of connection points: 2
#     Edge 33, Type (0, 0), BuildingBlock: XUDNAN_clean_linker_2, # of connection points: 2
#     Edge 34, Type (0, 0), BuildingBlock: XUDNAN_clean_linker_2, # of connection points: 2
#     Edge 35, Type (0, 0), BuildingBlock: XUDNAN_clean_linker_2, # of connection points: 2
#     Edge 36, Type (0, 0), BuildingBlock: XUDNAN_clean_linker_2, # of connection points: 2
#     Edge 37, Type (0, 0), BuildingBlock: XUDNAN_clean_linker_2, # of connection points: 2
#     Edge 38, Type (0, 0), BuildingBlock: XUDNAN_clean_linker_2, # of connection points: 2
#     Edge 39, Type (0, 0), BuildingBlock: XUDNAN_clean_linker_2, # of connection points: 2
#     Edge 40, Type (0, 0), BuildingBlock: XUDNAN_clean_linker_2, # of connection points: 2
#     Edge 41, Type (0, 0), BuildingBlock: XUDNAN_clean_linker_2, # of connection points: 2
#     Edge 42, Type (0, 0), BuildingBlock: XUDNAN_clean_linker_2, # of connection points: 2
#     Edge 43, Type (0, 0), BuildingBlock: XUDNAN_clean_linker_2, # of connection points: 2
#     Edge 44, Type (0, 0), BuildingBlock: XUDNAN_clean_linker_2, # of connection points: 2
#     Edge 45, Type (0, 0), BuildingBlock: XUDNAN_clean_linker_2, # of connection points: 2
#     Edge 46, Type (0, 0), BuildingBlock: XUDNAN_clean_linker_2, # of connection points: 2
#     Edge 47, Type (0, 0), BuildingBlock: XUDNAN_clean_linker_2, # of connection points: 2
#     Edge 48, Type (0, 0), BuildingBlock: XUDNAN_clean_linker_2, # of connection points: 2
#     Edge 49, Type (0, 0), BuildingBlock: XUDNAN_clean_linker_2, # of connection points: 2
#     Edge 50, Type (0, 0), BuildingBlock: XUDNAN_clean_linker_2, # of connection points: 2
#     Edge 51, Type (0, 0), BuildingBlock: XUDNAN_clean_linker_2, # of connection points: 2
#     Edge 52, Type (0, 0), BuildingBlock: XUDNAN_clean_linker_2, # of connection points: 2
#     Edge 53, Type (0, 0), BuildingBlock: XUDNAN_clean_linker_2, # of connection points: 2
#     Edge 54, Type (0, 0), BuildingBlock: XUDNAN_clean_linker_2, # of connection points: 2
#     Edge 55, Type (0, 0), BuildingBlock: XUDNAN_clean_linker_2, # of connection points: 2
#     Edge 56, Type (0, 0), BuildingBlock: XUDNAN_clean_linker_2, # of connection points: 2
#     Edge 57, Type (0, 0), BuildingBlock: XUDNAN_clean_linker_2, # of connection points: 2
#     Edge 58, Type (0, 0), BuildingBlock: XUDNAN_clean_linker_2, # of connection points: 2
#     Edge 59, Type (0, 0), BuildingBlock: XUDNAN_clean_linker_2, # of connection points: 2
#     Edge 60, Type (0, 0), BuildingBlock: XUDNAN_clean_linker_2, # of connection points: 2
#     Edge 61, Type (0, 0), BuildingBlock: XUDNAN_clean_linker_2, # of connection points: 2
#     Edge 62, Type (0, 0), BuildingBlock: XUDNAN_clean_linker_2, # of connection points: 2
#     Edge 63, Type (0, 0), BuildingBlock: XUDNAN_clean_linker_2, # of connection points: 2
#     Edge 64, Type (0, 0), BuildingBlock: XUDNAN_clean_linker_2, # of connection points: 2
#     Edge 65, Type (0, 0), BuildingBlock: XUDNAN_clean_linker_2, # of connection points: 2
#     Edge 66, Type (0, 0), BuildingBlock: XUDNAN_clean_linker_2, # of connection points: 2
#     Edge 67, Type (0, 0), BuildingBlock: XUDNAN_clean_linker_2, # of connection points: 2
#     Edge 68, Type (0, 0), BuildingBlock: XUDNAN_clean_linker_2, # of connection points: 2
#     Edge 69, Type (0, 0), BuildingBlock: XUDNAN_clean_linker_2, # of connection points: 2
#     Edge 70, Type (0, 0), BuildingBlock: XUDNAN_clean_linker_2, # of connection points: 2
#     Edge 71, Type (0, 0), BuildingBlock: XUDNAN_clean_linker_2, # of connection points: 2
#     Edge 72, Type (0, 0), BuildingBlock: XUDNAN_clean_linker_2, # of connection points: 2
#     Edge 73, Type (0, 0), BuildingBlock: XUDNAN_clean_linker_2, # of connection points: 2
#     Edge 74, Type (0, 0), BuildingBlock: XUDNAN_clean_linker_2, # of connection points: 2
#     Edge 75, Type (0, 0), BuildingBlock: XUDNAN_clean_linker_2, # of connection points: 2
#     Edge 76, Type (0, 0), BuildingBlock: XUDNAN_clean_linker_2, # of connection points: 2
#     Edge 77, Type (0, 0), BuildingBlock: XUDNAN_clean_linker_2, # of connection points: 2
#     Edge 78, Type (0, 0), BuildingBlock: XUDNAN_clean_linker_2, # of connection points: 2
#     Edge 79, Type (0, 0), BuildingBlock: XUDNAN_clean_linker_2, # of connection points: 2
#     Edge 80, Type (0, 0), BuildingBlock: XUDNAN_clean_linker_2, # of connection points: 2
#     Edge 81, Type (0, 0), BuildingBlock: XUDNAN_clean_linker_2, # of connection points: 2
#     Edge 82, Type (0, 0), BuildingBlock: XUDNAN_clean_linker_2, # of connection points: 2
#     Edge 83, Type (0, 0), BuildingBlock: XUDNAN_clean_linker_2, # of connection points: 2
#     Edge 84, Type (0, 0), BuildingBlock: XUDNAN_clean_linker_2, # of connection points: 2
#     Edge 85, Type (0, 0), BuildingBlock: XUDNAN_clean_linker_2, # of connection points: 2
#     Edge 86, Type (0, 0), BuildingBlock: XUDNAN_clean_linker_2, # of connection points: 2
#     Edge 87, Type (0, 0), BuildingBlock: XUDNAN_clean_linker_2, # of connection points: 2
#     Edge 88, Type (0, 0), BuildingBlock: XUDNAN_clean_linker_2, # of connection points: 2
#     Edge 89, Type (0, 0), BuildingBlock: XUDNAN_clean_linker_2, # of connection points: 2
#     Edge 90, Type (0, 0), BuildingBlock: XUDNAN_clean_linker_2, # of connection points: 2
#     Edge 91, Type (0, 0), BuildingBlock: XUDNAN_clean_linker_2, # of connection points: 2
#     Edge 92, Type (0, 0), BuildingBlock: XUDNAN_clean_linker_2, # of connection points: 2
#     Edge 93, Type (0, 0), BuildingBlock: XUDNAN_clean_linker_2, # of connection points: 2
#     Edge 94, Type (0, 0), BuildingBlock: XUDNAN_clean_linker_2, # of connection points: 2
#     Edge 95, Type (0, 0), BuildingBlock: XUDNAN_clean_linker_2, # of connection points: 2
# Relax obj value: 0.043
# Max RMSD: 0.080
# Mean RMSD: 0.080
data_MOF--net-uow--node1-GALJAG_clean_sbu_0--edge1-XUDNAN_clean_linker_2
_symmetry_space_group_name_H-M    P1
_symmetry_Int_Tables_number       1
_symmetry_cell_setting            triclinic
loop_
_symmetry_equiv_pos_as_xyz
'x, y, z'
_cell_length_a     59.600013
_cell_length_b     59.608582
_cell_length_c     44.806116
_cell_angle_alpha  89.980157
_cell_angle_beta   90.015832
_cell_angle_gamma 90.004427
loop_
_atom_site_label
_atom_site_type_symbol
_atom_site_fract_x
_atom_site_fract_y
_atom_site_fract_z
_atom_type_partial_charge
In0 In 0.06631 0.37618 0.28134 0.0
O1 O 0.09081 0.40581 0.28142 0.0
O2 O 0.05962 0.40976 0.25908 0.0
C3 C 0.09177 0.35513 0.32275 0.0
C4 C 0.06796 0.35647 0.22713 0.0
C5 C 0.02617 0.3746 0.30946 0.0
O6 O 0.0842 0.37467 0.32646 0.0
O7 O 0.08695 0.34644 0.29792 0.0
O8 O 0.03484 0.35769 0.2971 0.0
O9 O 0.03756 0.39233 0.30726 0.0
C10 C 0.07804 0.4185 0.26658 0.0
O11 O 0.04973 0.36044 0.24046 0.0
O12 O 0.08533 0.36239 0.24118 0.0
In13 In 0.87631 0.80231 0.51593 0.0
O14 O 0.89629 0.79261 0.47488 0.0
O15 O 0.88412 0.82612 0.47726 0.0
C16 C 0.89637 0.76656 0.54122 0.0
C17 C 0.83311 0.79805 0.49906 0.0
C18 C 0.88598 0.83086 0.56082 0.0
O19 O 0.90674 0.78095 0.52591 0.0
O20 O 0.87548 0.76983 0.54334 0.0
O21 O 0.87105 0.81597 0.56295 0.0
O22 O 0.89513 0.83213 0.53549 0.0
C23 C 0.89498 0.81161 0.46265 0.0
O24 O 0.84047 0.8155 0.51161 0.0
O25 O 0.8474 0.78267 0.49566 0.0
In26 In 0.42139 0.62112 0.78038 0.0
O27 O 0.39992 0.59091 0.79399 0.0
O28 O 0.43413 0.5854 0.78279 0.0
C29 C 0.39681 0.65284 0.80795 0.0
C30 C 0.41007 0.62457 0.7224 0.0
C31 C 0.46321 0.63011 0.80007 0.0
O32 O 0.40234 0.63478 0.8207 0.0
O33 O 0.40315 0.65458 0.78122 0.0
O34 O 0.45939 0.62492 0.7732 0.0
O35 O 0.44606 0.63096 0.81645 0.0
C36 C 0.41564 0.57696 0.79054 0.0
O37 O 0.42638 0.63539 0.7333 0.0
O38 O 0.39981 0.61217 0.74066 0.0
In39 In 0.61843 0.17959 0.04565 0.0
O40 O 0.65096 0.17179 0.07049 0.0
O41 O 0.65226 0.17339 0.02329 0.0
C42 C 0.59218 0.15911 0.08633 0.0
C43 C 0.60206 0.16592 0.99259 0.0
C44 C 0.61509 0.22403 0.05661 0.0
O45 O 0.60859 0.1493 0.07415 0.0
O46 O 0.58913 0.17909 0.07797 0.0
O47 O 0.60386 0.2145 0.03638 0.0
O48 O 0.62791 0.2112 0.07101 0.0
C49 C 0.66291 0.17088 0.04734 0.0
O50 O 0.61392 0.18334 0.99538 0.0
O51 O 0.5985 0.15537 0.01653 0.0
In52 In 0.05872 0.62214 0.2205 0.0
O53 O 0.08466 0.59588 0.23554 0.0
O54 O 0.05539 0.58439 0.21369 0.0
C55 C 0.08101 0.65015 0.1836 0.0
C56 C 0.0586 0.64012 0.27595 0.0
C57 C 0.0179 0.62168 0.19467 0.0
O58 O 0.06328 0.65561 0.19713 0.0
O59 O 0.08774 0.63043 0.18875 0.0
O60 O 0.02056 0.62484 0.22232 0.0
O61 O 0.03581 0.6187 0.18015 0.0
C62 C 0.07358 0.57932 0.2262 0.0
O63 O 0.04346 0.62702 0.26687 0.0
O64 O 0.07382 0.64407 0.25716 0.0
In65 In 0.62785 0.80972 0.45259 0.0
O66 O 0.59843 0.8101 0.48541 0.0
O67 O 0.63071 0.81835 0.50204 0.0
C68 C 0.61194 0.76923 0.43661 0.0
C69 C 0.67308 0.80675 0.45065 0.0
C70 C 0.61554 0.84162 0.41273 0.0
O71 O 0.62627 0.77161 0.45714 0.0
O72 O 0.60493 0.78731 0.42531 0.0
O73 O 0.62397 0.82311 0.40525 0.0
O74 O 0.61421 0.84459 0.44051 0.0
C75 C 0.61012 0.81587 0.50756 0.0
O76 O 0.66324 0.82357 0.46168 0.0
O77 O 0.66017 0.79203 0.44024 0.0
In78 In 0.44368 0.37666 0.73436 0.0
O79 O 0.41595 0.40269 0.74197 0.0
O80 O 0.44939 0.41114 0.75399 0.0
C81 C 0.42296 0.34938 0.69539 0.0
C82 C 0.44427 0.3549 0.78719 0.0
C83 C 0.47876 0.38531 0.6983 0.0
O84 O 0.415 0.36832 0.70237 0.0
O85 O 0.44091 0.34414 0.70864 0.0
O86 O 0.48054 0.37293 0.72109 0.0
O87 O 0.45952 0.3936 0.69427 0.0
C88 C 0.42914 0.41714 0.75276 0.0
O89 O 0.46123 0.36506 0.77712 0.0
O90 O 0.42733 0.35533 0.77038 0.0
In91 In 0.86281 0.20894 0.9895 0.0
O92 O 0.88564 0.21955 0.02795 0.0
O93 O 0.87401 0.18576 0.02665 0.0
C94 C 0.8692 0.25028 0.96619 0.0
C95 C 0.82076 0.20055 0.00832 0.0
C96 C 0.87847 0.18234 0.94543 0.0
O97 O 0.88504 0.23724 0.9729 0.0
O98 O 0.84992 0.24287 0.9723 0.0
O99 O 0.86118 0.19429 0.9423 0.0
O100 O 0.88724 0.18324 0.97098 0.0
C101 C 0.88543 0.20042 0.04013 0.0
O102 O 0.82847 0.19233 0.98448 0.0
O103 O 0.83393 0.21351 0.022 0.0
In104 In 0.96722 0.62834 0.72778 0.0
O105 O 0.97681 0.64244 0.7734 0.0
O106 O 0.9425 0.64369 0.7608 0.0
C107 C 0.01009 0.62022 0.71208 0.0
C108 C 0.95017 0.5866 0.73102 0.0
C109 C 0.95522 0.65726 0.68403 0.0
O110 O 0.00464 0.63608 0.72931 0.0
O111 O 0.99401 0.60788 0.7039 0.0
O112 O 0.94111 0.64451 0.69636 0.0
O113 O 0.9748 0.6557 0.6942 0.0
C114 C 0.95707 0.64787 0.78041 0.0
O115 O 0.94734 0.59907 0.70855 0.0
O116 O 0.96156 0.59521 0.75183 0.0
In117 In 0.12828 0.19611 0.48359 0.0
O118 O 0.10167 0.20627 0.5176 0.0
O119 O 0.11432 0.17291 0.51929 0.0
C120 C 0.13433 0.23698 0.45914 0.0
C121 C 0.16974 0.1866 0.5039 0.0
C122 C 0.1044 0.17437 0.44158 0.0
O123 O 0.1267 0.2344 0.4852 0.0
O124 O 0.13966 0.21905 0.44601 0.0
O125 O 0.09942 0.19357 0.45126 0.0
O126 O 0.12165 0.16569 0.45327 0.0
C127 C 0.10127 0.18736 0.53031 0.0
O128 O 0.16305 0.18003 0.47861 0.0
O129 O 0.15574 0.19812 0.51833 0.0
In130 In 0.55468 0.36995 0.21879 0.0
O131 O 0.58095 0.39767 0.22361 0.0
O132 O 0.54739 0.40701 0.21318 0.0
C133 C 0.57746 0.35403 0.17124 0.0
C134 C 0.56175 0.35292 0.27408 0.0
C135 C 0.51127 0.3597 0.20771 0.0
O136 O 0.5603 0.36624 0.16873 0.0
O137 O 0.58375 0.35072 0.19776 0.0
O138 O 0.52704 0.34576 0.20527 0.0
O139 O 0.51721 0.37878 0.21693 0.0
C140 C 0.5672 0.41333 0.21849 0.0
O141 O 0.5577 0.37337 0.26952 0.0
O142 O 0.56188 0.341 0.25091 0.0
In143 In 0.38548 0.81821 0.97067 0.0
O144 O 0.39887 0.79947 0.01151 0.0
O145 O 0.40131 0.83499 0.01122 0.0
C146 C 0.37815 0.78359 0.93361 0.0
C147 C 0.34276 0.82908 0.98432 0.0
C148 C 0.41495 0.8395 0.93485 0.0
O149 O 0.38869 0.78135 0.95794 0.0
O150 O 0.37139 0.80324 0.92814 0.0
O151 O 0.39625 0.84806 0.94174 0.0
O152 O 0.41885 0.82068 0.94662 0.0
C153 C 0.40491 0.81696 0.02514 0.0
O154 O 0.35044 0.80944 0.98592 0.0
O155 O 0.35677 0.84375 0.97614 0.0
In156 In 0.94668 0.38455 0.78221 0.0
O157 O 0.93653 0.42061 0.79322 0.0
O158 O 0.93909 0.41149 0.74756 0.0
C159 C 0.92311 0.36183 0.82412 0.0
C160 C 0.94328 0.36094 0.73122 0.0
C161 C 0.98841 0.38911 0.80489 0.0
O162 O 0.94317 0.35748 0.81758 0.0
O163 O 0.91458 0.37765 0.80926 0.0
O164 O 0.98299 0.37311 0.78794 0.0
O165 O 0.97294 0.40304 0.80982 0.0
C166 C 0.93502 0.42667 0.76633 0.0
O167 O 0.96164 0.36903 0.74031 0.0
O168 O 0.92666 0.36456 0.74805 0.0
In169 In 0.37311 0.1877 0.53692 0.0
O170 O 0.37808 0.20276 0.49055 0.0
O171 O 0.38418 0.16783 0.49631 0.0
C172 C 0.38056 0.22971 0.55743 0.0
C173 C 0.32958 0.17576 0.5419 0.0
C174 C 0.39895 0.16121 0.57166 0.0
O175 O 0.36226 0.22409 0.54548 0.0
O176 O 0.39519 0.21451 0.55784 0.0
O177 O 0.37835 0.16421 0.57674 0.0
O178 O 0.40614 0.17075 0.54845 0.0
C179 C 0.38382 0.18439 0.47875 0.0
O180 O 0.34069 0.17276 0.5183 0.0
O181 O 0.34059 0.18414 0.56316 0.0
In182 In 0.55515 0.61738 0.2629 0.0
O183 O 0.54254 0.63734 0.22275 0.0
O184 O 0.57682 0.62738 0.2233 0.0
C185 C 0.51606 0.61029 0.29151 0.0
C186 C 0.56731 0.57529 0.24888 0.0
C187 C 0.57405 0.64535 0.30309 0.0
O188 O 0.51724 0.62196 0.26803 0.0
O189 O 0.53441 0.60191 0.29997 0.0
O190 O 0.57976 0.62503 0.30097 0.0
O191 O 0.55957 0.65155 0.28437 0.0
C192 C 0.56126 0.63736 0.20959 0.0
O193 O 0.58016 0.58842 0.26296 0.0
O194 O 0.54852 0.58351 0.24175 0.0
In195 In 0.13732 0.81418 0.02887 0.0
O196 O 0.1179 0.79763 0.9907 0.0
O197 O 0.13052 0.83042 0.98356 0.0
C198 C 0.13168 0.77453 0.05732 0.0
C199 C 0.18093 0.82517 0.02207 0.0
C200 C 0.11535 0.84179 0.06648 0.0
O201 O 0.11601 0.78837 0.05326 0.0
O202 O 0.15035 0.78048 0.04669 0.0
O203 O 0.10933 0.83866 0.03982 0.0
O204 O 0.13313 0.83171 0.07391 0.0
C205 C 0.11962 0.81408 0.9732 0.0
O206 O 0.16675 0.83872 0.03271 0.0
O207 O 0.1731 0.80623 0.0151 0.0
In208 In 0.57499 0.88171 0.76667 0.0
O209 O 0.59709 0.91242 0.77626 0.0
O210 O 0.57079 0.91566 0.7446 0.0
C211 C 0.60246 0.85825 0.80308 0.0
C212 C 0.57498 0.86294 0.71176 0.0
C213 C 0.535 0.87855 0.79457 0.0
O214 O 0.58747 0.8712 0.8129 0.0
O215 O 0.60412 0.8578 0.77506 0.0
O216 O 0.54618 0.86156 0.78669 0.0
O217 O 0.54364 0.89715 0.78754 0.0
C218 C 0.58696 0.92488 0.75791 0.0
O219 O 0.55743 0.86412 0.72743 0.0
O220 O 0.59224 0.87104 0.72385 0.0
In221 In 0.36872 0.29494 0.03063 0.0
O222 O 0.37987 0.28842 0.9824 0.0
O223 O 0.39624 0.31433 0.00627 0.0
C224 C 0.36212 0.25334 0.05259 0.0
C225 C 0.32806 0.31048 0.01426 0.0
C226 C 0.39011 0.31198 0.07844 0.0
O227 O 0.37779 0.25785 0.03459 0.0
O228 O 0.34964 0.26971 0.05906 0.0
O229 O 0.37299 0.32136 0.06733 0.0
O230 O 0.39617 0.2942 0.06545 0.0
C231 C 0.39453 0.30363 0.9822 0.0
O232 O 0.34089 0.32147 0.03128 0.0
O233 O 0.33587 0.29196 0.00552 0.0
In234 In 0.9408 0.12469 0.28783 0.0
O235 O 0.91809 0.0939 0.28908 0.0
O236 O 0.94936 0.09145 0.26627 0.0
C237 C 0.91518 0.14276 0.33141 0.0
C238 C 0.93598 0.14513 0.23442 0.0
C239 C 0.9825 0.12849 0.31067 0.0
O240 O 0.92751 0.1259 0.33572 0.0
O241 O 0.91521 0.14995 0.30498 0.0
O242 O 0.97079 0.1452 0.30321 0.0
O243 O 0.97335 0.10973 0.30612 0.0
C244 C 0.93136 0.08191 0.27397 0.0
O245 O 0.95268 0.14862 0.25106 0.0
O246 O 0.92187 0.13144 0.2447 0.0
In247 In 0.12286 0.69717 0.52428 0.0
O248 O 0.11717 0.70356 0.47449 0.0
O249 O 0.09089 0.68819 0.49889 0.0
C250 C 0.11318 0.73799 0.54694 0.0
C251 C 0.16506 0.68671 0.50773 0.0
C252 C 0.11555 0.66828 0.56988 0.0
O253 O 0.09862 0.72283 0.54354 0.0
O254 O 0.13258 0.73285 0.53796 0.0
O255 O 0.11262 0.66304 0.54295 0.0
O256 O 0.1228 0.6879 0.57388 0.0
C257 C 0.09791 0.69485 0.47391 0.0
O258 O 0.14908 0.6729 0.50642 0.0
O259 O 0.15989 0.70572 0.51799 0.0
In260 In 0.56852 0.12648 0.72371 0.0
O261 O 0.55314 0.12157 0.76996 0.0
O262 O 0.58382 0.13967 0.76664 0.0
C263 C 0.52768 0.12919 0.6981 0.0
C264 C 0.58666 0.08496 0.71928 0.0
C265 C 0.58801 0.16241 0.69805 0.0
O266 O 0.53031 0.12947 0.72605 0.0
O267 O 0.54559 0.12781 0.68325 0.0
O268 O 0.58966 0.14301 0.68695 0.0
O269 O 0.5768 0.16353 0.72185 0.0
C270 C 0.5686 0.132 0.78334 0.0
O271 O 0.59788 0.10159 0.72813 0.0
O272 O 0.5669 0.08953 0.7116 0.0
In273 In 0.12397 0.30961 0.96904 0.0
O274 O 0.12608 0.30921 0.02 0.0
O275 O 0.09371 0.30907 0.00064 0.0
C276 C 0.11341 0.26942 0.94473 0.0
C277 C 0.16813 0.31964 0.97079 0.0
C278 C 0.10814 0.34137 0.93178 0.0
O279 O 0.10347 0.28743 0.93836 0.0
O280 O 0.1286 0.27138 0.96423 0.0
O281 O 0.10613 0.34276 0.95976 0.0
O282 O 0.11883 0.32443 0.92274 0.0
C283 C 0.10521 0.30943 0.02421 0.0
O284 O 0.15308 0.33362 0.9774 0.0
O285 O 0.16091 0.3007 0.96267 0.0
In286 In 0.94377 0.8807 0.20871 0.0
O287 O 0.91778 0.90868 0.21351 0.0
O288 O 0.95233 0.91754 0.21401 0.0
C289 C 0.91887 0.85485 0.17185 0.0
C290 C 0.94012 0.86267 0.26368 0.0
C291 C 0.98566 0.88046 0.18586 0.0
O292 O 0.92234 0.87537 0.16675 0.0
O293 O 0.92758 0.84765 0.19559 0.0
O294 O 0.98192 0.8801 0.21357 0.0
O295 O 0.96829 0.88104 0.16977 0.0
C296 C 0.93225 0.92404 0.2158 0.0
O297 O 0.92828 0.87899 0.25513 0.0
O298 O 0.95389 0.85549 0.24455 0.0
In299 In 0.36946 0.67734 0.45813 0.0
O300 O 0.38354 0.68068 0.50553 0.0
O301 O 0.36308 0.65243 0.49517 0.0
C302 C 0.38371 0.71897 0.44392 0.0
C303 C 0.32434 0.67653 0.4565 0.0
C304 C 0.3942 0.65075 0.42183 0.0
O305 O 0.39258 0.70762 0.4646 0.0
O306 O 0.3676 0.70942 0.43085 0.0
O307 O 0.38029 0.66477 0.41187 0.0
O308 O 0.39545 0.65003 0.44982 0.0
C309 C 0.3745 0.6627 0.51454 0.0
O310 O 0.3362 0.66227 0.44289 0.0
O311 O 0.33527 0.6914 0.47028 0.0
In312 In 0.4207 0.11036 0.22429 0.0
O313 O 0.42446 0.11553 0.27451 0.0
O314 O 0.40825 0.14119 0.24989 0.0
C315 C 0.46387 0.1131 0.20602 0.0
C316 C 0.40736 0.0677 0.23462 0.0
C317 C 0.39582 0.12846 0.18036 0.0
O318 O 0.45349 0.12943 0.21731 0.0
O319 O 0.45268 0.0952 0.2045 0.0
O320 O 0.38752 0.1233 0.20542 0.0
O321 O 0.41631 0.12364 0.17728 0.0
C322 C 0.4148 0.13431 0.275 0.0
O323 O 0.40085 0.0786 0.21209 0.0
O324 O 0.42028 0.07836 0.25172 0.0
In325 In 0.62535 0.68972 0.95482 0.0
O326 O 0.60559 0.70284 0.99482 0.0
O327 O 0.61819 0.66942 0.99663 0.0
C328 C 0.63183 0.72884 0.92584 0.0
C329 C 0.6676 0.67773 0.96838 0.0
C330 C 0.59607 0.66913 0.91771 0.0
O331 O 0.62039 0.72763 0.9495 0.0
O332 O 0.6399 0.71046 0.91705 0.0
O333 O 0.61698 0.66622 0.91561 0.0
O334 O 0.59015 0.68182 0.9387 0.0
C335 C 0.60741 0.68485 0.00953 0.0
O336 O 0.65421 0.66443 0.95547 0.0
O337 O 0.65957 0.69681 0.97435 0.0
In338 In 0.03775 0.87357 0.73058 0.0
O339 O 0.03449 0.84814 0.76843 0.0
O340 O 0.0638 0.86848 0.76708 0.0
C341 C 0.99691 0.8721 0.70532 0.0
C342 C 0.03556 0.9168 0.7474 0.0
C343 C 0.06074 0.85147 0.68798 0.0
O344 O 0.0009 0.86324 0.73042 0.0
O345 O 0.01347 0.88173 0.69327 0.0
O346 O 0.04468 0.84306 0.70244 0.0
O347 O 0.06583 0.87134 0.69533 0.0
C348 C 0.053 0.85324 0.78033 0.0
O349 O 0.05006 0.91015 0.72873 0.0
O350 O 0.02285 0.90168 0.75745 0.0
In351 In 0.87682 0.30845 0.47892 0.0
O352 O 0.90803 0.30852 0.5087 0.0
O353 O 0.87654 0.31355 0.52946 0.0
C354 C 0.87521 0.26579 0.45948 0.0
C355 C 0.83355 0.32176 0.48214 0.0
C356 C 0.9015 0.33145 0.43849 0.0
O357 O 0.88298 0.2709 0.48484 0.0
O358 O 0.86799 0.28214 0.44435 0.0
O359 O 0.89115 0.34114 0.45941 0.0
O360 O 0.89898 0.3105 0.43777 0.0
C361 C 0.89748 0.31207 0.53257 0.0
O362 O 0.84913 0.33515 0.47532 0.0
O363 O 0.83982 0.3019 0.48689 0.0
In364 In 0.44949 0.87283 0.28232 0.0
O365 O 0.4552 0.87177 0.23213 0.0
O366 O 0.444 0.84185 0.25336 0.0
C367 C 0.4932 0.88241 0.29197 0.0
C368 C 0.42383 0.91008 0.27659 0.0
C369 C 0.43458 0.84781 0.32888 0.0
O370 O 0.48674 0.86406 0.28084 0.0
O371 O 0.47768 0.89627 0.29701 0.0
O372 O 0.4223 0.85245 0.30681 0.0
O373 O 0.45397 0.85603 0.32758 0.0
C374 C 0.44922 0.85155 0.22928 0.0
O375 O 0.43763 0.90744 0.2976 0.0
O376 O 0.42237 0.89362 0.25911 0.0
In377 In 0.87085 0.68529 0.02759 0.0
O378 O 0.9006 0.69449 0.99817 0.0
O379 O 0.8744 0.67529 0.97863 0.0
C380 C 0.87297 0.72663 0.05202 0.0
C381 C 0.82742 0.67465 0.01809 0.0
C382 C 0.89259 0.65757 0.06562 0.0
O383 O 0.87064 0.72365 0.02432 0.0
O384 O 0.87401 0.70887 0.0672 0.0
O385 O 0.87329 0.66522 0.07109 0.0
O386 O 0.90037 0.66313 0.04056 0.0
C387 C 0.89321 0.68466 0.97527 0.0
O388 O 0.84264 0.65995 0.01884 0.0
O389 O 0.83413 0.69444 0.02233 0.0
In390 In 0.03113 0.12517 0.77798 0.0
O391 O 0.02208 0.1464 0.73743 0.0
O392 O 0.0508 0.12551 0.73417 0.0
C393 C 0.99175 0.13237 0.8055 0.0
C394 C 0.03036 0.07996 0.7751 0.0
C395 C 0.05825 0.1501 0.81334 0.0
O396 O 0.99397 0.13426 0.77755 0.0
O397 O 0.00935 0.12679 0.81936 0.0
O398 O 0.05865 0.12892 0.81381 0.0
O399 O 0.0449 0.15836 0.79454 0.0
C400 C 0.03828 0.13976 0.7217 0.0
O401 O 0.04862 0.09066 0.77641 0.0
O402 O 0.01301 0.09199 0.7747 0.0
In403 In 0.6287 0.32608 0.53436 0.0
O404 O 0.6592 0.34931 0.529 0.0
O405 O 0.66389 0.3143 0.5232 0.0
C406 C 0.60015 0.35409 0.56246 0.0
C407 C 0.6128 0.32396 0.47833 0.0
C408 C 0.62588 0.29191 0.57369 0.0
O409 O 0.62022 0.35167 0.57079 0.0
O410 O 0.59468 0.34286 0.53981 0.0
O411 O 0.61914 0.28994 0.54707 0.0
O412 O 0.6341 0.31079 0.58 0.0
C413 C 0.67261 0.33354 0.52312 0.0
O414 O 0.61396 0.30681 0.49491 0.0
O415 O 0.61973 0.34194 0.49005 0.0
H416 H 0.10538 0.34596 0.19468 0.0
H417 H 0.03263 0.34421 0.1917 0.0
H418 H 0.03422 0.32891 0.14046 0.0
H419 H 0.11368 0.36399 0.12096 0.0
H420 H 0.13842 0.34726 0.11465 0.0
H421 H 0.1315 0.35628 0.15183 0.0
H422 H 0.13212 0.31498 0.16995 0.0
H423 H 0.13904 0.30581 0.13275 0.0
H424 H 0.11479 0.29446 0.15146 0.0
H425 H 0.0438 0.31658 0.0882 0.0
H426 H 0.06067 0.30823 0.039 0.0
H427 H 0.12709 0.31744 0.07671 0.0
C428 C 0.08978 0.3421 0.18339 0.0
C429 C 0.06888 0.34623 0.19714 0.0
C430 C 0.04883 0.34111 0.18158 0.0
C431 C 0.04957 0.33237 0.15251 0.0
C432 C 0.07048 0.32871 0.13947 0.0
C433 C 0.09022 0.33331 0.15446 0.0
C434 C 0.11049 0.32885 0.13499 0.0
C435 C 0.12432 0.35038 0.13033 0.0
C436 C 0.12496 0.30989 0.14807 0.0
C437 C 0.09906 0.32154 0.10644 0.0
C438 C 0.07599 0.32139 0.10952 0.0
C439 C 0.06185 0.31636 0.08564 0.0
C440 C 0.07157 0.31165 0.0578 0.0
C441 C 0.09516 0.31204 0.05414 0.0
C442 C 0.10901 0.31671 0.07894 0.0
H443 H 0.91403 0.87746 0.30987 0.0
H444 H 0.96013 0.82447 0.28432 0.0
H445 H 0.95442 0.80622 0.33325 0.0
H446 H 0.93094 0.88029 0.38789 0.0
H447 H 0.90282 0.8855 0.40098 0.0
H448 H 0.91113 0.89475 0.36432 0.0
H449 H 0.87796 0.87269 0.34111 0.0
H450 H 0.86959 0.86333 0.37765 0.0
H451 H 0.87517 0.84311 0.34869 0.0
H452 H 0.94211 0.79272 0.38357 0.0
H453 H 0.92518 0.78558 0.43295 0.0
H454 H 0.88795 0.84796 0.42635 0.0
C455 C 0.92304 0.8621 0.31466 0.0
C456 C 0.93751 0.85233 0.29337 0.0
C457 C 0.94901 0.83223 0.3004 0.0
C458 C 0.94586 0.82175 0.32809 0.0
C459 C 0.93132 0.83171 0.3485 0.0
C460 C 0.92022 0.85151 0.34224 0.0
C461 C 0.9053 0.85856 0.36793 0.0
C462 C 0.91302 0.88111 0.38105 0.0
C463 C 0.88054 0.85947 0.35826 0.0
C464 C 0.90951 0.83946 0.38947 0.0
C465 C 0.92456 0.82415 0.3778 0.0
C466 C 0.93047 0.80468 0.39307 0.0
C467 C 0.92073 0.80075 0.42103 0.0
C468 C 0.90536 0.81628 0.43345 0.0
C469 C 0.89982 0.83592 0.41749 0.0
H470 H 0.4239 0.65535 0.68045 0.0
H471 H 0.37975 0.59826 0.69371 0.0
H472 H 0.36627 0.60183 0.64194 0.0
H473 H 0.38558 0.68738 0.63586 0.0
H474 H 0.40686 0.69852 0.61143 0.0
H475 H 0.41386 0.69111 0.64927 0.0
H476 H 0.44532 0.66479 0.63011 0.0
H477 H 0.43847 0.6722 0.5922 0.0
H478 H 0.43857 0.64316 0.60346 0.0
H479 H 0.35722 0.61152 0.58954 0.0
H480 H 0.35286 0.627 0.53889 0.0
H481 H 0.40211 0.67849 0.55914 0.0
C482 C 0.41154 0.64352 0.67232 0.0
C483 C 0.40291 0.62648 0.691 0.0
C484 C 0.38659 0.61143 0.67974 0.0
C485 C 0.37883 0.6133 0.65038 0.0
C486 C 0.3875 0.63037 0.63261 0.0
C487 C 0.40346 0.64524 0.64304 0.0
C488 C 0.40954 0.66236 0.61933 0.0
C489 C 0.4036 0.68626 0.6296 0.0
C490 C 0.43446 0.66051 0.61077 0.0
C491 C 0.39446 0.65476 0.59404 0.0
C492 C 0.38197 0.63622 0.60223 0.0
C493 C 0.36689 0.62603 0.5828 0.0
C494 C 0.36454 0.63495 0.55409 0.0
C495 C 0.37713 0.65395 0.54513 0.0
C496 C 0.39223 0.664 0.56544 0.0
H497 H 0.59594 0.15968 0.81537 0.0
H498 H 0.54275 0.1105 0.82496 0.0
H499 H 0.54506 0.11417 0.87991 0.0
H500 H 0.62872 0.14241 0.8775 0.0
H501 H 0.63663 0.17048 0.88815 0.0
H502 H 0.63044 0.16423 0.84971 0.0
H503 H 0.60041 0.19569 0.84899 0.0
H504 H 0.60656 0.20208 0.88742 0.0
H505 H 0.57824 0.19544 0.87637 0.0
H506 H 0.55469 0.12189 0.93382 0.0
H507 H 0.56935 0.13469 0.98259 0.0
H508 H 0.61504 0.17994 0.9372 0.0
C509 C 0.58471 0.14974 0.82903 0.0
C510 C 0.56921 0.13475 0.81603 0.0
C511 C 0.55472 0.12211 0.83456 0.0
C512 C 0.55594 0.12405 0.86574 0.0
C513 C 0.57156 0.13888 0.87787 0.0
C514 C 0.58554 0.15166 0.86007 0.0
C515 C 0.60081 0.1664 0.87857 0.0
C516 C 0.62562 0.16052 0.87316 0.0
C517 C 0.59622 0.19138 0.87247 0.0
C518 C 0.59344 0.15977 0.90962 0.0
C519 C 0.57663 0.1438 0.90878 0.0
C520 C 0.5677 0.13454 0.93475 0.0
C521 C 0.57616 0.14185 0.9623 0.0
C522 C 0.5932 0.15838 0.96357 0.0
C523 C 0.60184 0.16745 0.93687 0.0
H524 H 0.09136 0.66583 0.30154 0.0
H525 H 0.0264 0.6357 0.31903 0.0
H526 H 0.02754 0.65031 0.37064 0.0
H527 H 0.11538 0.65262 0.37055 0.0
H528 H 0.1313 0.67821 0.37379 0.0
H529 H 0.12421 0.66745 0.3375 0.0
H530 H 0.1053 0.7053 0.32407 0.0
H531 H 0.11227 0.71616 0.36045 0.0
H532 H 0.08354 0.71632 0.34787 0.0
H533 H 0.03724 0.66535 0.42133 0.0
H534 H 0.05528 0.67865 0.46772 0.0
H535 H 0.11376 0.69921 0.41697 0.0
C536 C 0.07722 0.66261 0.31609 0.0
C537 C 0.05874 0.64972 0.30631 0.0
C538 C 0.04069 0.64559 0.3261 0.0
C539 C 0.04115 0.6539 0.35538 0.0
C540 C 0.05973 0.66637 0.36443 0.0
C541 C 0.07743 0.67073 0.34536 0.0
C542 C 0.0961 0.6832 0.36116 0.0
C543 C 0.11803 0.66955 0.36073 0.0
C544 C 0.09949 0.70664 0.34758 0.0
C545 C 0.0864 0.68467 0.39231 0.0
C546 C 0.0653 0.6751 0.39366 0.0
C547 C 0.05361 0.67317 0.42048 0.0
C548 C 0.06398 0.68077 0.44669 0.0
C549 C 0.08581 0.69012 0.44586 0.0
C550 C 0.09689 0.69251 0.4182 0.0
H551 H 0.63201 0.8309 0.55719 0.0
H552 H 0.56637 0.8107 0.52506 0.0
H553 H 0.55011 0.81921 0.57461 0.0
H554 H 0.62619 0.8091 0.6324 0.0
H555 H 0.64114 0.83224 0.64896 0.0
H556 H 0.64758 0.82355 0.61143 0.0
H557 H 0.64004 0.86396 0.59247 0.0
H558 H 0.63355 0.87276 0.62991 0.0
H559 H 0.61344 0.87708 0.60041 0.0
H560 H 0.54096 0.83124 0.62759 0.0
H561 H 0.53975 0.84604 0.67924 0.0
H562 H 0.61145 0.85838 0.67566 0.0
C563 C 0.61425 0.82807 0.56063 0.0
C564 C 0.60044 0.82008 0.53737 0.0
C565 C 0.57725 0.81677 0.54266 0.0
C566 C 0.56788 0.82153 0.57071 0.0
C567 C 0.58196 0.82957 0.59314 0.0
C568 C 0.60465 0.83278 0.58837 0.0
C569 C 0.61607 0.84221 0.61576 0.0
C570 C 0.63379 0.82579 0.62785 0.0
C571 C 0.62637 0.86537 0.60924 0.0
C572 C 0.59624 0.84402 0.63665 0.0
C573 C 0.57671 0.83656 0.62333 0.0
C574 C 0.55618 0.83703 0.63828 0.0
C575 C 0.55564 0.84545 0.66756 0.0
C576 C 0.57549 0.85332 0.68141 0.0
C577 C 0.596 0.85244 0.6657 0.0
H578 H 0.38348 0.29617 0.92396 0.0
H579 H 0.43501 0.32487 0.98059 0.0
H580 H 0.45598 0.33716 0.93584 0.0
H581 H 0.4201 0.27857 0.86137 0.0
H582 H 0.39971 0.2867 0.8337 0.0
H583 H 0.39058 0.27717 0.8699 0.0
H584 H 0.36805 0.31398 0.87706 0.0
H585 H 0.37709 0.32359 0.84097 0.0
H586 H 0.38225 0.34056 0.87356 0.0
H587 H 0.4699 0.34863 0.88517 0.0
H588 H 0.47407 0.36118 0.83285 0.0
H589 H 0.41225 0.32691 0.80973 0.0
C590 C 0.39946 0.30453 0.92686 0.0
C591 C 0.40786 0.30933 0.95558 0.0
C592 C 0.42844 0.32093 0.95866 0.0
C593 C 0.4405 0.32786 0.93342 0.0
C594 C 0.4316 0.32321 0.90532 0.0
C595 C 0.41147 0.31194 0.90191 0.0
C596 C 0.40432 0.31124 0.86951 0.0
C597 C 0.40364 0.28697 0.85794 0.0
C598 C 0.38159 0.32305 0.86503 0.0
C599 C 0.42328 0.32432 0.85532 0.0
C600 C 0.4391 0.33066 0.87623 0.0
C601 C 0.45772 0.3436 0.86855 0.0
C602 C 0.45998 0.35061 0.8388 0.0
C603 C 0.44349 0.34499 0.81733 0.0
C604 C 0.42516 0.33137 0.82568 0.0
H605 H 0.8784 0.16475 0.07674 0.0
H606 H 0.91813 0.22533 0.0676 0.0
H607 H 0.93687 0.21704 0.11575 0.0
H608 H 0.86884 0.17008 0.15461 0.0
H609 H 0.87013 0.14034 0.16173 0.0
H610 H 0.86108 0.15043 0.12582 0.0
H611 H 0.89198 0.12668 0.10011 0.0
H612 H 0.90113 0.11652 0.13596 0.0
H613 H 0.92083 0.13008 0.11134 0.0
H614 H 0.9511 0.20181 0.1652 0.0
H615 H 0.9578 0.18233 0.21325 0.0
H616 H 0.90711 0.13306 0.19023 0.0
C617 C 0.89121 0.17616 0.08472 0.0
C618 C 0.89701 0.19557 0.06845 0.0
C619 C 0.91354 0.21033 0.0798 0.0
C620 C 0.92428 0.20572 0.10702 0.0
C621 C 0.91809 0.18643 0.12259 0.0
C622 C 0.90181 0.172 0.11191 0.0
C623 C 0.89733 0.15302 0.13347 0.0
C624 C 0.8729 0.15351 0.14456 0.0
C625 C 0.90317 0.13023 0.11937 0.0
C626 C 0.91358 0.15903 0.15808 0.0
C627 C 0.92562 0.17819 0.15132 0.0
C628 C 0.94173 0.18682 0.17075 0.0
C629 C 0.94545 0.17566 0.1979 0.0
C630 C 0.93288 0.15631 0.2054 0.0
C631 C 0.91686 0.14791 0.18513 0.0
H632 H 0.91587 0.64873 0.80686 0.0
H633 H 0.98542 0.6676 0.82046 0.0
H634 H 0.976 0.68164 0.87089 0.0
H635 H 0.89013 0.69494 0.84826 0.0
H636 H 0.86847 0.67733 0.86376 0.0
H637 H 0.88029 0.67083 0.82778 0.0
H638 H 0.89043 0.63092 0.84638 0.0
H639 H 0.87869 0.63729 0.88239 0.0
H640 H 0.90731 0.62775 0.87951 0.0
H641 H 0.95924 0.69229 0.92034 0.0
H642 H 0.93686 0.69681 0.96638 0.0
H643 H 0.8787 0.6692 0.92111 0.0
C644 C 0.92903 0.65617 0.82028 0.0
C645 C 0.95132 0.65734 0.80978 0.0
C646 C 0.96821 0.66669 0.82815 0.0
C647 C 0.96301 0.67475 0.85672 0.0
C648 C 0.94089 0.67313 0.86657 0.0
C649 C 0.92419 0.66397 0.84897 0.0
C650 C 0.90212 0.66267 0.86559 0.0
C651 C 0.8842 0.67732 0.85044 0.0
C652 C 0.89418 0.6382 0.86865 0.0
C653 C 0.90906 0.67231 0.89542 0.0
C654 C 0.93141 0.67853 0.8954 0.0
C655 C 0.94171 0.68756 0.9206 0.0
C656 C 0.92887 0.69007 0.9466 0.0
C657 C 0.9061 0.68333 0.94725 0.0
C658 C 0.89608 0.6745 0.92123 0.0
H659 H 0.1055 0.15238 0.56913 0.0
H660 H 0.06613 0.21215 0.55154 0.0
H661 H 0.04391 0.20503 0.59723 0.0
H662 H 0.06058 0.11821 0.60076 0.0
H663 H 0.07862 0.10582 0.62853 0.0
H664 H 0.09006 0.11462 0.59319 0.0
H665 H 0.11906 0.13957 0.6207 0.0
H666 H 0.10772 0.13088 0.65608 0.0
H667 H 0.10937 0.1603 0.64701 0.0
H668 H 0.02692 0.19199 0.64562 0.0
H669 H 0.01767 0.17522 0.69454 0.0
H670 H 0.06934 0.1249 0.6813 0.0
C671 C 0.09199 0.16379 0.57467 0.0
C672 C 0.08735 0.18271 0.55677 0.0
C673 C 0.06985 0.19751 0.56498 0.0
C674 C 0.05712 0.19356 0.59079 0.0
C675 C 0.06226 0.17483 0.60814 0.0
C676 C 0.07934 0.16025 0.6005 0.0
C677 C 0.08244 0.14218 0.62388 0.0
C678 C 0.07763 0.11882 0.6108 0.0
C679 C 0.10605 0.14332 0.63773 0.0
C680 C 0.06459 0.14902 0.64608 0.0
C681 C 0.05294 0.16771 0.63641 0.0
C682 C 0.03587 0.1773 0.65337 0.0
C683 C 0.03074 0.16766 0.68109 0.0
C684 C 0.04282 0.1488 0.69165 0.0
C685 C 0.05982 0.13931 0.67376 0.0
H686 H 0.60267 0.35966 0.44276 0.0
H687 H 0.60255 0.28689 0.44478 0.0
H688 H 0.58811 0.28621 0.39295 0.0
H689 H 0.55151 0.36593 0.39993 0.0
H690 H 0.56178 0.38991 0.37957 0.0
H691 H 0.57171 0.3845 0.41686 0.0
H692 H 0.61275 0.38459 0.39771 0.0
H693 H 0.60296 0.39002 0.3604 0.0
H694 H 0.62059 0.36607 0.36767 0.0
H695 H 0.57545 0.29374 0.33997 0.0
H696 H 0.56451 0.30883 0.2906 0.0
H697 H 0.57166 0.37661 0.32453 0.0
C698 C 0.59956 0.34357 0.43234 0.0
C699 C 0.60378 0.32331 0.44767 0.0
C700 C 0.5994 0.30259 0.43336 0.0
C701 C 0.59121 0.30206 0.40398 0.0
C702 C 0.5873 0.32238 0.38945 0.0
C703 C 0.59121 0.34274 0.40324 0.0
C704 C 0.58579 0.36221 0.3828 0.0
C705 C 0.56655 0.37647 0.39556 0.0
C706 C 0.60677 0.37656 0.37679 0.0
C707 C 0.57848 0.34965 0.35515 0.0
C708 C 0.57949 0.32669 0.35937 0.0
C709 C 0.57439 0.31168 0.33651 0.0
C710 C 0.56822 0.32039 0.30858 0.0
C711 C 0.56708 0.34386 0.30389 0.0
C712 C 0.5721 0.3586 0.3276 0.0
H713 H 0.4503 0.8719 0.17478 0.0
H714 H 0.44082 0.80728 0.21751 0.0
H715 H 0.43191 0.79036 0.16851 0.0
H716 H 0.40487 0.86783 0.12696 0.0
H717 H 0.41802 0.8818 0.09587 0.0
H718 H 0.42685 0.88805 0.13333 0.0
H719 H 0.46785 0.87783 0.11964 0.0
H720 H 0.45916 0.87167 0.08198 0.0
H721 H 0.47386 0.85078 0.10353 0.0
H722 H 0.4209 0.78132 0.11551 0.0
H723 H 0.40771 0.78112 0.06316 0.0
H724 H 0.42319 0.85203 0.0559 0.0
C725 C 0.44692 0.85407 0.17373 0.0
C726 C 0.44646 0.84082 0.19983 0.0
C727 C 0.44142 0.81767 0.19769 0.0
C728 C 0.43639 0.80792 0.16997 0.0
C729 C 0.43647 0.82157 0.1447 0.0
C730 C 0.44166 0.84415 0.14635 0.0
C731 C 0.43869 0.85559 0.11645 0.0
C732 C 0.42105 0.87442 0.11828 0.0
C733 C 0.46123 0.86449 0.10471 0.0
C734 C 0.43039 0.83609 0.0979 0.0
C735 C 0.42959 0.81652 0.11443 0.0
C736 C 0.42168 0.79649 0.10228 0.0
C737 C 0.41422 0.79654 0.07257 0.0
C738 C 0.41445 0.81655 0.05554 0.0
C739 C 0.42289 0.83646 0.06836 0.0
H740 H 0.90458 0.34895 0.70267 0.0
H741 H 0.97706 0.34813 0.69365 0.0
H742 H 0.97326 0.33228 0.64293 0.0
H743 H 0.89319 0.29735 0.65969 0.0
H744 H 0.86821 0.30894 0.64304 0.0
H745 H 0.87676 0.31774 0.6798 0.0
H746 H 0.87666 0.35919 0.66226 0.0
H747 H 0.86822 0.35053 0.62548 0.0
H748 H 0.89323 0.36716 0.6303 0.0
H749 H 0.96147 0.3195 0.59183 0.0
H750 H 0.94255 0.31116 0.54399 0.0
H751 H 0.87783 0.32092 0.58638 0.0
C752 C 0.91966 0.345 0.69026 0.0
C753 C 0.94112 0.34961 0.7021 0.0
C754 C 0.96046 0.34461 0.685 0.0
C755 C 0.95847 0.33557 0.65622 0.0
C756 C 0.93703 0.33162 0.64496 0.0
C757 C 0.91797 0.33611 0.66149 0.0
C758 C 0.8969 0.33188 0.64349 0.0
C759 C 0.88295 0.31284 0.65733 0.0
C760 C 0.88294 0.35348 0.64019 0.0
C761 C 0.90708 0.32481 0.61404 0.0
C762 C 0.93024 0.32451 0.61543 0.0
C763 C 0.94334 0.31944 0.59056 0.0
C764 C 0.93246 0.31476 0.5635 0.0
C765 C 0.90876 0.31534 0.56155 0.0
C766 C 0.89598 0.32019 0.58727 0.0
H767 H 0.42051 0.11915 0.33193 0.0
H768 H 0.39953 0.17737 0.28093 0.0
H769 H 0.39127 0.19757 0.32791 0.0
H770 H 0.37803 0.12279 0.38651 0.0
H771 H 0.39561 0.11362 0.4169 0.0
H772 H 0.40157 0.10456 0.37942 0.0
H773 H 0.44197 0.12034 0.38384 0.0
H774 H 0.43615 0.12943 0.42139 0.0
H775 H 0.44605 0.1493 0.39407 0.0
H776 H 0.38419 0.21085 0.38061 0.0
H777 H 0.37733 0.21558 0.43472 0.0
H778 H 0.40182 0.14806 0.45054 0.0
C779 C 0.41446 0.13626 0.33065 0.0
C780 C 0.41079 0.1468 0.30288 0.0
C781 C 0.40252 0.16906 0.30206 0.0
C782 C 0.39784 0.18065 0.32859 0.0
C783 C 0.40146 0.16969 0.35564 0.0
C784 C 0.40953 0.14796 0.35683 0.0
C785 C 0.41081 0.13949 0.38861 0.0
C786 C 0.39559 0.1189 0.39311 0.0
C787 C 0.4352 0.13434 0.39749 0.0
C788 C 0.40192 0.15974 0.40513 0.0
C789 C 0.39687 0.17709 0.3858 0.0
C790 C 0.38815 0.1974 0.39596 0.0
C791 C 0.38433 0.19994 0.42668 0.0
C792 C 0.38901 0.18217 0.44672 0.0
C793 C 0.39806 0.16192 0.43572 0.0
H794 H 0.59398 0.62782 0.16913 0.0
H795 H 0.53616 0.67055 0.18391 0.0
H796 H 0.54232 0.68846 0.13469 0.0
H797 H 0.62842 0.66787 0.13012 0.0
H798 H 0.63934 0.64747 0.10424 0.0
H799 H 0.63093 0.63889 0.14113 0.0
H800 H 0.60402 0.60935 0.11828 0.0
H801 H 0.61237 0.61781 0.08134 0.0
H802 H 0.58313 0.61814 0.09162 0.0
H803 H 0.55561 0.70223 0.08421 0.0
H804 H 0.57281 0.70839 0.03454 0.0
H805 H 0.62008 0.65462 0.05189 0.0
C806 C 0.58272 0.64106 0.16206 0.0
C807 C 0.56473 0.648 0.18029 0.0
C808 C 0.55007 0.66507 0.17018 0.0
C809 C 0.55348 0.67536 0.14236 0.0
C810 C 0.57142 0.66811 0.12487 0.0
C811 C 0.58562 0.65116 0.1342 0.0
C812 C 0.60296 0.64566 0.11067 0.0
C813 C 0.62682 0.65025 0.12224 0.0
C814 C 0.60046 0.6213 0.09984 0.0
C815 C 0.59635 0.6622 0.08664 0.0
C816 C 0.57833 0.67522 0.09536 0.0
C817 C 0.56963 0.69203 0.07706 0.0
C818 C 0.57952 0.69545 0.04899 0.0
C819 C 0.59761 0.68186 0.03944 0.0
C820 C 0.6061 0.6651 0.05857 0.0
H821 H 0.08639 0.86823 0.8169 0.0
H822 H 0.03779 0.81463 0.80639 0.0
H823 H 0.0511 0.79742 0.85346 0.0
H824 H 0.13117 0.835 0.84966 0.0
H825 H 0.13946 0.85685 0.87517 0.0
H826 H 0.12711 0.86403 0.83972 0.0
H827 H 0.09649 0.88727 0.86676 0.0
H828 H 0.10875 0.88019 0.90225 0.0
H829 H 0.0796 0.8741 0.89518 0.0
H830 H 0.06935 0.78655 0.90218 0.0
H831 H 0.0895 0.78405 0.95033 0.0
H832 H 0.12497 0.84569 0.92959 0.0
C833 C 0.07873 0.85273 0.82434 0.0
C834 C 0.0612 0.84262 0.80798 0.0
C835 C 0.0513 0.82258 0.81863 0.0
C836 C 0.05879 0.81266 0.84525 0.0
C837 C 0.07606 0.82313 0.86095 0.0
C838 C 0.0858 0.8428 0.85098 0.0
C839 C 0.10318 0.85138 0.8728 0.0
C840 C 0.12662 0.85183 0.85848 0.0
C841 C 0.0966 0.8746 0.88497 0.0
C842 C 0.10162 0.83354 0.89672 0.0
C843 C 0.08607 0.81725 0.88934 0.0
C844 C 0.08159 0.79918 0.90817 0.0
C845 C 0.09313 0.79789 0.93541 0.0
C846 C 0.10875 0.81469 0.94363 0.0
C847 C 0.11312 0.8326 0.92387 0.0
H848 H 0.10995 0.31317 0.3191 0.0
H849 H 0.09921 0.36849 0.38032 0.0
H850 H 0.11413 0.34547 0.42168 0.0
H851 H 0.09181 0.27138 0.36571 0.0
H852 H 0.11205 0.25062 0.35428 0.0
H853 H 0.10394 0.2725 0.32888 0.0
H854 H 0.14558 0.28424 0.32283 0.0
H855 H 0.15385 0.26228 0.34823 0.0
H856 H 0.16198 0.2909 0.35546 0.0
H857 H 0.12438 0.3146 0.45737 0.0
H858 H 0.13052 0.27876 0.48406 0.0
H859 H 0.13606 0.24419 0.39924 0.0
C860 C 0.1113 0.32064 0.34105 0.0
C861 C 0.10351 0.34261 0.34653 0.0
C862 C 0.10524 0.35172 0.37562 0.0
C863 C 0.11372 0.33878 0.39924 0.0
C864 C 0.12069 0.31691 0.39326 0.0
C865 C 0.11984 0.30801 0.36478 0.0
C866 C 0.12658 0.28354 0.36464 0.0
C867 C 0.10746 0.26865 0.35269 0.0
C868 C 0.14829 0.28004 0.34673 0.0
C869 C 0.13045 0.27979 0.39764 0.0
C870 C 0.12717 0.29927 0.41379 0.0
C871 C 0.12755 0.29937 0.44492 0.0
C872 C 0.13099 0.27896 0.45989 0.0
C873 C 0.13409 0.25883 0.44368 0.0
C874 C 0.13433 0.25943 0.4122 0.0
H875 H 0.92143 0.85968 0.56236 0.0
H876 H 0.87173 0.82758 0.61868 0.0
H877 H 0.89232 0.84018 0.66345 0.0
H878 H 0.9665 0.84251 0.60058 0.0
H879 H 0.9832 0.86752 0.59639 0.0
H880 H 0.9621 0.86092 0.56918 0.0
H881 H 0.94318 0.89954 0.57765 0.0
H882 H 0.9645 0.90647 0.60467 0.0
H883 H 0.93528 0.90788 0.61487 0.0
H884 H 0.92206 0.84923 0.70101 0.0
H885 H 0.95743 0.85615 0.72841 0.0
H886 H 0.98742 0.88273 0.64762 0.0
C887 C 0.91438 0.85612 0.58412 0.0
C888 C 0.89495 0.84279 0.58709 0.0
C889 C 0.8865 0.83797 0.61592 0.0
C890 C 0.89808 0.84506 0.64148 0.0
C891 C 0.91789 0.85719 0.63778 0.0
C892 C 0.92576 0.86304 0.60979 0.0
C893 C 0.94875 0.87372 0.61159 0.0
C894 C 0.96614 0.86036 0.59337 0.0
C895 C 0.94787 0.89837 0.60161 0.0
C896 C 0.95312 0.87185 0.64474 0.0
C897 C 0.93502 0.86259 0.65957 0.0
C898 C 0.93611 0.85705 0.68979 0.0
C899 C 0.95628 0.86092 0.70513 0.0
C900 C 0.97504 0.87014 0.69016 0.0
C901 C 0.9732 0.87606 0.65977 0.0
H902 H 0.39066 0.73969 0.94057 0.0
H903 H 0.35819 0.78551 0.87889 0.0
H904 H 0.35494 0.75506 0.84187 0.0
H905 H 0.42359 0.71233 0.88832 0.0
H906 H 0.42127 0.68485 0.90483 0.0
H907 H 0.41848 0.70941 0.92779 0.0
H908 H 0.37959 0.69552 0.94595 0.0
H909 H 0.38225 0.67087 0.92293 0.0
H910 H 0.35815 0.68889 0.91897 0.0
H911 H 0.35992 0.72154 0.80937 0.0
H912 H 0.37212 0.68679 0.78401 0.0
H913 H 0.39964 0.66205 0.86733 0.0
C914 C 0.38248 0.74318 0.91949 0.0
C915 C 0.37465 0.76491 0.91256 0.0
C916 C 0.36425 0.76894 0.88466 0.0
C917 C 0.36225 0.75174 0.86353 0.0
C918 C 0.37047 0.73057 0.87084 0.0
C919 C 0.38022 0.72616 0.89823 0.0
C920 C 0.38915 0.70241 0.89967 0.0
C921 C 0.41463 0.70226 0.90548 0.0
C922 C 0.37652 0.68861 0.92328 0.0
C923 C 0.38366 0.69444 0.86844 0.0
C924 C 0.37272 0.71088 0.85224 0.0
C925 C 0.36797 0.70831 0.82198 0.0
C926 C 0.37498 0.68859 0.80776 0.0
C927 C 0.38641 0.6717 0.82391 0.0
C928 C 0.3903 0.67445 0.85474 0.0
H929 H 0.55956 0.17866 0.12005 0.0
H930 H 0.59022 0.11438 0.10019 0.0
H931 H 0.56247 0.09554 0.13277 0.0
H932 H 0.54545 0.16626 0.19852 0.0
H933 H 0.51942 0.18157 0.19647 0.0
H934 H 0.54293 0.19 0.1738 0.0
H935 H 0.51825 0.18676 0.12633 0.0
H936 H 0.49473 0.17831 0.1488 0.0
H937 H 0.50402 0.16072 0.11851 0.0
H938 H 0.52872 0.08353 0.16287 0.0
H939 H 0.49264 0.07949 0.18971 0.0
H940 H 0.48538 0.15187 0.19141 0.0
C941 C 0.56066 0.16065 0.12292 0.0
C942 C 0.57699 0.14794 0.10765 0.0
C943 C 0.57787 0.12442 0.11183 0.0
C944 C 0.5622 0.11359 0.13028 0.0
C945 C 0.54604 0.12661 0.14465 0.0
C946 C 0.54534 0.14967 0.14142 0.0
C947 C 0.52572 0.15975 0.15809 0.0
C948 C 0.53387 0.17531 0.18322 0.0
C949 C 0.50974 0.1721 0.13665 0.0
C950 C 0.51507 0.13871 0.17053 0.0
C951 C 0.52705 0.11976 0.16265 0.0
C952 C 0.51944 0.09827 0.16966 0.0
C953 C 0.49895 0.09613 0.18483 0.0
C954 C 0.48644 0.11537 0.1929 0.0
C955 C 0.49484 0.13689 0.18606 0.0
H956 H 0.06555 0.69022 0.16289 0.0
H957 H 0.12266 0.64523 0.15829 0.0
H958 H 0.14207 0.67198 0.12472 0.0
H959 H 0.06737 0.70795 0.08606 0.0
H960 H 0.05903 0.73631 0.09451 0.0
H961 H 0.04991 0.71358 0.11804 0.0
H962 H 0.06702 0.73355 0.16413 0.0
H963 H 0.0762 0.75634 0.14074 0.0
H964 H 0.09619 0.74155 0.16365 0.0
H965 H 0.15553 0.70463 0.09276 0.0
H966 H 0.16131 0.73962 0.06386 0.0
H967 H 0.09462 0.76201 0.08872 0.0
C968 C 0.08215 0.68597 0.15484 0.0
C969 C 0.09268 0.66573 0.16324 0.0
C970 C 0.11432 0.66069 0.15208 0.0
C971 C 0.12546 0.67577 0.13306 0.0
C972 C 0.11459 0.69566 0.12527 0.0
C973 C 0.09335 0.70067 0.13571 0.0
C974 C 0.08517 0.723 0.12397 0.0
C975 C 0.06413 0.72002 0.10449 0.0
C976 C 0.08091 0.73959 0.14966 0.0
C977 C 0.10521 0.72993 0.10547 0.0
C978 C 0.12206 0.71402 0.10651 0.0
C979 C 0.14239 0.71712 0.09165 0.0
C980 C 0.14553 0.73702 0.07534 0.0
C981 C 0.12836 0.75341 0.07395 0.0
C982 C 0.10798 0.74969 0.08916 0.0
H983 H 0.52897 0.85445 0.28477 0.0
H984 H 0.50884 0.91698 0.32618 0.0
H985 H 0.544 0.91743 0.3552 0.0
H986 H 0.54734 0.82942 0.34554 0.0
H987 H 0.57109 0.81499 0.32967 0.0
H988 H 0.54788 0.82261 0.30633 0.0
H989 H 0.57456 0.84457 0.27123 0.0
H990 H 0.59805 0.83682 0.29445 0.0
H991 H 0.59266 0.86595 0.2864 0.0
H992 H 0.57531 0.90604 0.38863 0.0
H993 H 0.60139 0.8849 0.42106 0.0
H994 H 0.60267 0.8308 0.35653 0.0
C995 C 0.53246 0.86873 0.29894 0.0
C996 C 0.51626 0.88568 0.3032 0.0
C997 C 0.52113 0.9039 0.3224 0.0
C998 C 0.5411 0.90431 0.33896 0.0
C999 C 0.55621 0.88664 0.33557 0.0
C1000 C 0.55236 0.86942 0.31548 0.0
C1001 C 0.56957 0.85092 0.31887 0.0
C1002 C 0.55829 0.82817 0.32552 0.0
C1003 C 0.58461 0.84949 0.29108 0.0
C1004 C 0.58258 0.85955 0.34551 0.0
C1005 C 0.57494 0.88039 0.35449 0.0
C1006 C 0.58202 0.89012 0.38122 0.0
C1007 C 0.59678 0.87799 0.39957 0.0
C1008 C 0.60428 0.85642 0.39102 0.0
C1009 C 0.59773 0.84756 0.36315 0.0
H1010 H 0.41661 0.24221 0.59069 0.0
H1011 H 0.35168 0.26555 0.55978 0.0
H1012 H 0.3559 0.29987 0.59046 0.0
H1013 H 0.41015 0.25922 0.6648 0.0
H1014 H 0.43904 0.26727 0.66997 0.0
H1015 H 0.43194 0.24586 0.6433 0.0
H1016 H 0.45193 0.26825 0.60142 0.0
H1017 H 0.45934 0.28964 0.62804 0.0
H1018 H 0.44413 0.29703 0.59468 0.0
H1019 H 0.36655 0.3306 0.62718 0.0
H1020 H 0.38296 0.35525 0.666 0.0
H1021 H 0.44013 0.31052 0.67319 0.0
C1022 C 0.40345 0.25474 0.58987 0.0
C1023 C 0.38389 0.25136 0.57272 0.0
C1024 C 0.36689 0.26795 0.57264 0.0
C1025 C 0.36912 0.28744 0.59001 0.0
C1026 C 0.38844 0.28998 0.60726 0.0
C1027 C 0.40534 0.2741 0.60716 0.0
C1028 C 0.42387 0.28007 0.62878 0.0
C1029 C 0.42638 0.26203 0.65315 0.0
C1030 C 0.44613 0.28399 0.61224 0.0
C1031 C 0.41466 0.30168 0.64141 0.0
C1032 C 0.3943 0.30726 0.62864 0.0
C1033 C 0.38253 0.32643 0.63721 0.0
C1034 C 0.39193 0.34028 0.65929 0.0
C1035 C 0.41275 0.33473 0.67261 0.0
C1036 C 0.42415 0.31516 0.66348 0.0
H1037 H 0.98407 0.13048 0.86533 0.0
H1038 H 0.95147 0.14458 0.78081 0.0
H1039 H 0.91653 0.15435 0.80765 0.0
H1040 H 0.93431 0.10752 0.90427 0.0
H1041 H 0.94221 0.1204 0.93911 0.0
H1042 H 0.96353 0.11179 0.91299 0.0
H1043 H 0.97988 0.15211 0.91285 0.0
H1044 H 0.95871 0.1608 0.93895 0.0
H1045 H 0.96177 0.17541 0.90395 0.0
H1046 H 0.88663 0.1664 0.84412 0.0
H1047 H 0.86485 0.18081 0.88702 0.0
H1048 H 0.9173 0.15839 0.9472 0.0
C1049 C 0.96946 0.13521 0.85241 0.0
C1050 C 0.97039 0.13672 0.82103 0.0
C1051 C 0.95103 0.14325 0.80491 0.0
C1052 C 0.93111 0.14872 0.81994 0.0
C1053 C 0.93086 0.14738 0.85101 0.0
C1054 C 0.94953 0.1407 0.86702 0.0
C1055 C 0.94563 0.14241 0.90027 0.0
C1056 C 0.94647 0.11914 0.91502 0.0
C1057 C 0.96249 0.15865 0.91484 0.0
C1058 C 0.9221 0.15184 0.90052 0.0
C1059 C 0.91369 0.15429 0.87195 0.0
C1060 C 0.89288 0.16422 0.86661 0.0
C1061 C 0.88063 0.17233 0.89109 0.0
C1062 C 0.88935 0.17057 0.92039 0.0
C1063 C 0.91006 0.15969 0.92509 0.0
H1064 H 0.91368 0.67227 0.66588 0.0
H1065 H 0.98484 0.67657 0.64604 0.0
H1066 H 0.97684 0.70249 0.60459 0.0
H1067 H 0.8934 0.67601 0.5886 0.0
H1068 H 0.86975 0.6934 0.59826 0.0
H1069 H 0.88068 0.67358 0.62495 0.0
H1070 H 0.88591 0.70558 0.66347 0.0
H1071 H 0.87495 0.72545 0.63695 0.0
H1072 H 0.90219 0.72993 0.65338 0.0
H1073 H 0.96184 0.72893 0.56717 0.0
H1074 H 0.9407 0.75641 0.53728 0.0
H1075 H 0.87907 0.73628 0.58149 0.0
C1076 C 0.92749 0.67849 0.65252 0.0
C1077 C 0.94986 0.67238 0.659 0.0
C1078 C 0.96758 0.68108 0.64143 0.0
C1079 C 0.96321 0.69571 0.61774 0.0
C1080 C 0.94103 0.70156 0.612 0.0
C1081 C 0.92343 0.69338 0.62891 0.0
C1082 C 0.90134 0.70365 0.61913 0.0
C1083 C 0.88535 0.68558 0.60701 0.0
C1084 C 0.89046 0.71694 0.64476 0.0
C1085 C 0.90938 0.71907 0.59442 0.0
C1086 C 0.93231 0.71733 0.59051 0.0
C1087 C 0.94385 0.73037 0.56983 0.0
C1088 C 0.93169 0.74593 0.55298 0.0
C1089 C 0.90826 0.74842 0.55703 0.0
C1090 C 0.89694 0.73457 0.57773 0.0
H1091 H 0.00188 0.16717 0.32999 0.0
H1092 H 0.01205 0.09518 0.32615 0.0
H1093 H 0.04695 0.09928 0.35567 0.0
H1094 H 0.06151 0.18378 0.32732 0.0
H1095 H 0.05718 0.20645 0.3533 0.0
H1096 H 0.03482 0.19797 0.32867 0.0
H1097 H 0.00869 0.19203 0.37427 0.0
H1098 H 0.03094 0.20038 0.39899 0.0
H1099 H 0.01746 0.17356 0.40394 0.0
H1100 H 0.07921 0.11128 0.38925 0.0
H1101 H 0.10503 0.12997 0.42488 0.0
H1102 H 0.07234 0.1936 0.40713 0.0
C1103 C 0.0117 0.15231 0.33477 0.0
C1104 C 0.00441 0.13088 0.32564 0.0
C1105 C 0.01747 0.11178 0.33282 0.0
C1106 C 0.03731 0.11396 0.3495 0.0
C1107 C 0.04379 0.13534 0.35872 0.0
C1108 C 0.03136 0.15417 0.3515 0.0
C1109 C 0.04075 0.17501 0.36604 0.0
C1110 C 0.04906 0.19179 0.34242 0.0
C1111 C 0.02343 0.18587 0.38706 0.0
C1112 C 0.06008 0.16494 0.38321 0.0
C1113 C 0.06187 0.14211 0.37843 0.0
C1114 C 0.07808 0.12919 0.39294 0.0
C1115 C 0.09265 0.1399 0.4131 0.0
C1116 C 0.09059 0.16316 0.41874 0.0
C1117 C 0.07429 0.17577 0.40326 0.0
H1118 H 0.63204 0.2454 0.10526 0.0
H1119 H 0.59085 0.256 0.02672 0.0
H1120 H 0.58249 0.29455 0.04381 0.0
H1121 H 0.59628 0.2697 0.15431 0.0
H1122 H 0.61734 0.28211 0.178 0.0
H1123 H 0.62393 0.25755 0.15656 0.0
H1124 H 0.65747 0.27837 0.13226 0.0
H1125 H 0.65093 0.30312 0.1537 0.0
H1126 H 0.65283 0.30477 0.11361 0.0
H1127 H 0.574 0.32925 0.07299 0.0
H1128 H 0.56435 0.35615 0.11284 0.0
H1129 H 0.6107 0.32262 0.17269 0.0
C1130 C 0.62183 0.25609 0.09118 0.0
C1131 C 0.61222 0.24786 0.06457 0.0
C1132 C 0.59849 0.26209 0.0471 0.0
C1133 C 0.59377 0.28403 0.05655 0.0
C1134 C 0.60303 0.29145 0.08339 0.0
C1135 C 0.61684 0.27789 0.10042 0.0
C1136 C 0.62222 0.28858 0.1302 0.0
C1137 C 0.61446 0.2736 0.15628 0.0
C1138 C 0.64736 0.29404 0.13257 0.0
C1139 C 0.60835 0.30975 0.12797 0.0
C1140 C 0.59786 0.31141 0.10051 0.0
C1141 C 0.58247 0.3284 0.09432 0.0
C1142 C 0.5771 0.3436 0.1171 0.0
C1143 C 0.58688 0.34151 0.14577 0.0
C1144 C 0.60327 0.32486 0.15083 0.0
H1145 H 0.45156 0.8201 0.90918 0.0
H1146 H 0.41366 0.8822 0.91197 0.0
H1147 H 0.43981 0.89898 0.87521 0.0
H1148 H 0.5063 0.84454 0.90253 0.0
H1149 H 0.51643 0.82327 0.87734 0.0
H1150 H 0.4949 0.81655 0.90407 0.0
H1151 H 0.46917 0.80262 0.86124 0.0
H1152 H 0.49058 0.80942 0.83435 0.0
H1153 H 0.46285 0.82115 0.83055 0.0
H1154 H 0.47099 0.90908 0.83903 0.0
H1155 H 0.50405 0.91144 0.80572 0.0
H1156 H 0.52001 0.84197 0.82527 0.0
C1157 C 0.44881 0.83728 0.9022 0.0
C1158 C 0.43069 0.84994 0.91352 0.0
C1159 C 0.4275 0.87226 0.90359 0.0
C1160 C 0.44224 0.88189 0.88273 0.0
C1161 C 0.45989 0.86887 0.87188 0.0
C1162 C 0.46315 0.84702 0.88123 0.0
C1163 C 0.48317 0.83644 0.86596 0.0
C1164 C 0.50127 0.82982 0.88884 0.0
C1165 C 0.47601 0.81622 0.84689 0.0
C1166 C 0.49081 0.8558 0.84666 0.0
C1167 C 0.47726 0.8744 0.85045 0.0
C1168 C 0.48159 0.89455 0.83572 0.0
C1169 C 0.50037 0.89574 0.81686 0.0
C1170 C 0.5144 0.87683 0.81272 0.0
C1171 C 0.50937 0.85659 0.82764 0.0
H1172 H 0.90904 0.26601 0.94531 0.0
H1173 H 0.8379 0.28125 0.94808 0.0
H1174 H 0.84421 0.31367 0.9145 0.0
H1175 H 0.92964 0.32426 0.94106 0.0
H1176 H 0.95187 0.31669 0.91573 0.0
H1177 H 0.94195 0.29667 0.94281 0.0
H1178 H 0.93416 0.26819 0.90032 0.0
H1179 H 0.94383 0.28816 0.87312 0.0
H1180 H 0.91616 0.27621 0.86978 0.0
H1181 H 0.85818 0.34249 0.87696 0.0
H1182 H 0.87855 0.36512 0.83926 0.0
H1183 H 0.94006 0.32978 0.86098 0.0
C1184 C 0.89484 0.27647 0.93946 0.0
C1185 C 0.87301 0.27126 0.94945 0.0
C1186 C 0.85481 0.28509 0.94083 0.0
C1187 C 0.85824 0.30351 0.92178 0.0
C1188 C 0.87995 0.30781 0.91167 0.0
C1189 C 0.89795 0.29472 0.9204 0.0
C1190 C 0.91933 0.30172 0.90486 0.0
C1191 C 0.93672 0.31035 0.92746 0.0
C1192 C 0.92892 0.28242 0.8859 0.0
C1193 C 0.91053 0.32051 0.88549 0.0
C1194 C 0.88785 0.32399 0.88988 0.0
C1195 C 0.87599 0.34003 0.87357 0.0
C1196 C 0.88766 0.35276 0.85219 0.0
C1197 C 0.91084 0.34917 0.84724 0.0
C1198 C 0.92234 0.33294 0.8643 0.0
H1199 H 0.51889 0.13582 0.63909 0.0
H1200 H 0.48645 0.12544 0.72465 0.0
H1201 H 0.4493 0.12803 0.70016 0.0
H1202 H 0.48164 0.17698 0.61344 0.0
H1203 H 0.48238 0.168 0.57504 0.0
H1204 H 0.50609 0.16291 0.59892 0.0
H1205 H 0.50391 0.12044 0.58671 0.0
H1206 H 0.48002 0.1254 0.56293 0.0
H1207 H 0.47806 0.10547 0.59307 0.0
H1208 H 0.4158 0.13404 0.66662 0.0
H1209 H 0.38886 0.14598 0.62774 0.0
H1210 H 0.44363 0.15303 0.56466 0.0
C1211 C 0.50397 0.13378 0.65262 0.0
C1212 C 0.50547 0.1303 0.6837 0.0
C1213 C 0.4856 0.12808 0.70076 0.0
C1214 C 0.46447 0.12939 0.68703 0.0
C1215 C 0.46357 0.13292 0.65628 0.0
C1216 C 0.48282 0.13521 0.63934 0.0
C1217 C 0.4774 0.1407 0.60719 0.0
C1218 C 0.48746 0.1635 0.59814 0.0
C1219 C 0.48532 0.12188 0.58624 0.0
C1220 C 0.45208 0.14165 0.60877 0.0
C1221 C 0.44437 0.13676 0.63713 0.0
C1222 C 0.42162 0.13769 0.64426 0.0
C1223 C 0.40645 0.14441 0.62203 0.0
C1224 C 0.41418 0.15033 0.59321 0.0
C1225 C 0.43721 0.14839 0.58642 0.0
H1226 H 0.58315 0.76079 0.39073 0.0
H1227 H 0.62853 0.7281 0.45274 0.0
H1228 H 0.62311 0.69216 0.42608 0.0
H1229 H 0.54464 0.71306 0.38071 0.0
H1230 H 0.54053 0.71928 0.34171 0.0
H1231 H 0.54639 0.74162 0.36765 0.0
H1232 H 0.58023 0.75383 0.33516 0.0
H1233 H 0.57475 0.73134 0.3094 0.0
H1234 H 0.60195 0.73376 0.32669 0.0
H1235 H 0.61508 0.66056 0.38976 0.0
H1236 H 0.60307 0.63537 0.34879 0.0
H1237 H 0.56337 0.68937 0.31095 0.0
C1238 C 0.59156 0.74597 0.39914 0.0
C1239 C 0.60617 0.74716 0.42386 0.0
C1240 C 0.61711 0.72748 0.43395 0.0
C1241 C 0.6142 0.70703 0.4189 0.0
C1242 C 0.60021 0.70661 0.39396 0.0
C1243 C 0.58886 0.72552 0.38441 0.0
C1244 C 0.57557 0.72096 0.35632 0.0
C1245 C 0.55028 0.7239 0.36195 0.0
C1246 C 0.58362 0.73585 0.33037 0.0
C1247 C 0.58154 0.69662 0.35119 0.0
C1248 C 0.5957 0.68857 0.37314 0.0
C1249 C 0.60384 0.66664 0.37259 0.0
C1250 C 0.59705 0.6525 0.34919 0.0
C1251 C 0.58233 0.66044 0.32673 0.0
C1252 C 0.57463 0.68281 0.3278 0.0
H1253 H 0.07348 0.85854 0.05686 0.0
H1254 H 0.12419 0.85028 0.12544 0.0
H1255 H 0.09731 0.86391 0.16335 0.0
H1256 H 0.04477 0.90859 0.08995 0.0
H1257 H 0.01759 0.89837 0.07872 0.0
H1258 H 0.042 0.89198 0.05654 0.0
H1259 H 0.03293 0.84957 0.06084 0.0
H1260 H 0.00872 0.85576 0.08326 0.0
H1261 H 0.03004 0.83708 0.09729 0.0
H1262 H 0.06342 0.87328 0.19447 0.0
H1263 H 0.02555 0.87822 0.21606 0.0
H1264 H 0.99712 0.87965 0.12693 0.0
C1265 C 0.07918 0.8603 0.07969 0.0
C1266 C 0.10095 0.85355 0.08822 0.0
C1267 C 0.10762 0.85557 0.11842 0.0
C1268 C 0.09248 0.86331 0.14008 0.0
C1269 C 0.07082 0.86904 0.13109 0.0
C1270 C 0.06426 0.86782 0.10153 0.0
C1271 C 0.03948 0.87268 0.09799 0.0
C1272 C 0.03575 0.89419 0.07972 0.0
C1273 C 0.02708 0.85257 0.08404 0.0
C1274 C 0.03292 0.87599 0.13027 0.0
C1275 C 0.05126 0.87417 0.14902 0.0
C1276 C 0.04901 0.87513 0.17997 0.0
C1277 C 0.02745 0.87785 0.19202 0.0
C1278 C 0.00846 0.87939 0.17314 0.0
C1279 C 0.01136 0.87876 0.1419 0.0
H1280 H 0.60803 0.76794 0.93139 0.0
H1281 H 0.66163 0.73652 0.88099 0.0
H1282 H 0.66399 0.76987 0.84855 0.0
H1283 H 0.58008 0.78947 0.87083 0.0
H1284 H 0.57138 0.81532 0.88821 0.0
H1285 H 0.57661 0.79094 0.91076 0.0
H1286 H 0.60536 0.81339 0.94225 0.0
H1287 H 0.60021 0.83791 0.9197 0.0
H1288 H 0.62838 0.82736 0.92393 0.0
H1289 H 0.65689 0.80347 0.81736 0.0
H1290 H 0.64027 0.83486 0.78899 0.0
H1291 H 0.59152 0.84504 0.85954 0.0
C1292 C 0.62069 0.7684 0.91407 0.0
C1293 C 0.63477 0.74978 0.90877 0.0
C1294 C 0.65075 0.75068 0.88545 0.0
C1295 C 0.6523 0.76959 0.86702 0.0
C1296 C 0.63781 0.78749 0.87231 0.0
C1297 C 0.62235 0.78712 0.89532 0.0
C1298 C 0.60708 0.80742 0.89411 0.0
C1299 C 0.58234 0.80035 0.89076 0.0
C1300 C 0.61047 0.82241 0.92163 0.0
C1301 C 0.61575 0.81871 0.86611 0.0
C1302 C 0.63374 0.80714 0.85417 0.0
C1303 C 0.64316 0.81299 0.8268 0.0
C1304 C 0.63361 0.8308 0.81083 0.0
C1305 C 0.61485 0.84249 0.8223 0.0
C1306 C 0.60625 0.83675 0.85065 0.0
H1307 H 0.49668 0.32088 0.18246 0.0
H1308 H 0.47481 0.38782 0.20675 0.0
H1309 H 0.43872 0.38124 0.18082 0.0
H1310 H 0.47693 0.32215 0.11094 0.0
H1311 H 0.46849 0.29314 0.10931 0.0
H1312 H 0.49064 0.30156 0.13411 0.0
H1313 H 0.46915 0.28449 0.17901 0.0
H1314 H 0.44696 0.27579 0.15425 0.0
H1315 H 0.44064 0.29304 0.18619 0.0
H1316 H 0.40723 0.36898 0.14646 0.0
H1317 H 0.38318 0.35201 0.10742 0.0
H1318 H 0.42646 0.29352 0.1057 0.0
C1319 C 0.48404 0.33392 0.18314 0.0
C1320 C 0.48843 0.35479 0.19678 0.0
C1321 C 0.47166 0.37162 0.19664 0.0
C1322 C 0.45113 0.36802 0.18198 0.0
C1323 C 0.44765 0.34748 0.16781 0.0
C1324 C 0.46361 0.33064 0.16855 0.0
C1325 C 0.45689 0.31095 0.14927 0.0
C1326 C 0.47426 0.30673 0.12445 0.0
C1327 C 0.45318 0.28982 0.16832 0.0
C1328 C 0.43502 0.31961 0.13669 0.0
C1329 C 0.42974 0.34055 0.1479 0.0
C1330 C 0.41101 0.35243 0.13792 0.0
C1331 C 0.39748 0.3427 0.11572 0.0
C1332 C 0.40294 0.32145 0.10364 0.0
C1333 C 0.42175 0.30971 0.11468 0.0
H1334 H 0.86644 0.25297 0.4024 0.0
H1335 H 0.88768 0.22725 0.48844 0.0
H1336 H 0.89436 0.19003 0.46573 0.0
H1337 H 0.84062 0.19985 0.3733 0.0
H1338 H 0.85102 0.20523 0.33621 0.0
H1339 H 0.84373 0.22831 0.36033 0.0
H1340 H 0.88356 0.245 0.3534 0.0
H1341 H 0.89097 0.22204 0.32941 0.0
H1342 H 0.90772 0.22796 0.36197 0.0
H1343 H 0.90387 0.15756 0.43238 0.0
H1344 H 0.91667 0.13319 0.39115 0.0
H1345 H 0.88969 0.18054 0.32697 0.0
C1346 C 0.87182 0.23931 0.41667 0.0
C1347 C 0.87637 0.24287 0.4472 0.0
C1348 C 0.88394 0.22478 0.46501 0.0
C1349 C 0.88769 0.20358 0.45233 0.0
C1350 C 0.88365 0.20079 0.42189 0.0
C1351 C 0.87579 0.21818 0.40433 0.0
C1352 C 0.87542 0.21179 0.37166 0.0
C1353 C 0.85126 0.21126 0.35968 0.0
C1354 C 0.89031 0.22763 0.35304 0.0
C1355 C 0.88524 0.18845 0.37339 0.0
C1356 C 0.88944 0.18218 0.40258 0.0
C1357 C 0.90025 0.1621 0.40949 0.0
C1358 C 0.90747 0.14837 0.38594 0.0
C1359 C 0.90405 0.15496 0.35592 0.0
C1360 C 0.89224 0.17493 0.34971 0.0
H1361 H 0.10558 0.68116 0.62658 0.0
H1362 H 0.10664 0.6234 0.56793 0.0
H1363 H 0.08633 0.60126 0.60584 0.0
H1364 H 0.10647 0.64908 0.7009 0.0
H1365 H 0.08711 0.66889 0.71702 0.0
H1366 H 0.10722 0.67809 0.68955 0.0
H1367 H 0.07491 0.69427 0.65734 0.0
H1368 H 0.05481 0.6851 0.6845 0.0
H1369 H 0.05218 0.67612 0.64625 0.0
H1370 H 0.05918 0.58836 0.64383 0.0
H1371 H 0.02672 0.58617 0.67784 0.0
H1372 H 0.04265 0.65225 0.71217 0.0
C1373 C 0.10246 0.66355 0.62237 0.0
C1374 C 0.10789 0.65385 0.59458 0.0
C1375 C 0.10279 0.63103 0.58926 0.0
C1376 C 0.09137 0.61831 0.61074 0.0
C1377 C 0.08523 0.62865 0.63743 0.0
C1378 C 0.09076 0.65075 0.64343 0.0
C1379 C 0.07897 0.65912 0.67123 0.0
C1380 C 0.09596 0.66408 0.69615 0.0
C1381 C 0.06435 0.67985 0.66439 0.0
C1382 C 0.0648 0.63881 0.67877 0.0
C1383 C 0.06914 0.62118 0.65953 0.0
C1384 C 0.05608 0.60177 0.65958 0.0
C1385 C 0.03764 0.60067 0.67894 0.0
C1386 C 0.03236 0.61895 0.6978 0.0
C1387 C 0.04667 0.6378 0.69855 0.0
H1388 H 0.61397 0.24769 0.56525 0.0
H1389 H 0.63244 0.29604 0.63342 0.0
H1390 H 0.62711 0.26726 0.67222 0.0
H1391 H 0.5712 0.22039 0.60623 0.0
H1392 H 0.57767 0.19259 0.59299 0.0
H1393 H 0.58407 0.21661 0.57017 0.0
H1394 H 0.62562 0.20403 0.56709 0.0
H1395 H 0.61934 0.17994 0.58995 0.0
H1396 H 0.64115 0.19917 0.60102 0.0
H1397 H 0.61651 0.23483 0.70385 0.0
H1398 H 0.60307 0.19954 0.72654 0.0
H1399 H 0.59368 0.17098 0.63841 0.0
C1400 C 0.61708 0.2521 0.58833 0.0
C1401 C 0.62362 0.27408 0.59635 0.0
C1402 C 0.62751 0.27928 0.62676 0.0
C1403 C 0.62454 0.26306 0.64897 0.0
C1404 C 0.61794 0.24162 0.64041 0.0
C1405 C 0.61446 0.23598 0.61085 0.0
C1406 C 0.60697 0.21176 0.60793 0.0
C1407 C 0.58359 0.21026 0.59348 0.0
C1408 C 0.62431 0.19791 0.59046 0.0
C1409 C 0.6063 0.20489 0.6405 0.0
C1410 C 0.61267 0.22243 0.65881 0.0
C1411 C 0.61187 0.22082 0.68979 0.0
C1412 C 0.60418 0.20078 0.70246 0.0
C1413 C 0.59771 0.18257 0.68417 0.0
C1414 C 0.59907 0.18453 0.65282 0.0
H1415 H 0.02304 0.35925 0.80085 0.0
H1416 H 0.00231 0.42044 0.84535 0.0
H1417 H 0.03564 0.41832 0.87791 0.0
H1418 H 0.0386 0.331 0.8627 0.0
H1419 H 0.06253 0.31681 0.84695 0.0
H1420 H 0.03995 0.3256 0.82314 0.0
H1421 H 0.06784 0.34826 0.79056 0.0
H1422 H 0.09063 0.33942 0.8143 0.0
H1423 H 0.08578 0.36887 0.8078 0.0
H1424 H 0.06613 0.40546 0.91187 0.0
H1425 H 0.09253 0.38364 0.94304 0.0
H1426 H 0.09472 0.33179 0.87531 0.0
C1427 C 0.02595 0.37262 0.81674 0.0
C1428 C 0.01018 0.39004 0.82055 0.0
C1429 C 0.01428 0.407 0.84197 0.0
C1430 C 0.0332 0.40597 0.86051 0.0
C1431 C 0.04801 0.38808 0.857 0.0
C1432 C 0.0448 0.37187 0.83532 0.0
C1433 C 0.06172 0.35306 0.8383 0.0
C1434 C 0.04999 0.3303 0.84307 0.0
C1435 C 0.07743 0.35237 0.81112 0.0
C1436 C 0.07412 0.36058 0.86603 0.0
C1437 C 0.06618 0.38097 0.87627 0.0
C1438 C 0.073 0.38985 0.90361 0.0
C1439 C 0.08792 0.37734 0.92121 0.0
C1440 C 0.0959 0.35629 0.91126 0.0
C1441 C 0.08942 0.34819 0.88297 0.0
H1442 H 0.88215 0.73604 0.11019 0.0
H1443 H 0.86978 0.76763 0.02452 0.0
H1444 H 0.87652 0.80489 0.04724 0.0
H1445 H 0.85748 0.78031 0.15716 0.0
H1446 H 0.87868 0.77704 0.18554 0.0
H1447 H 0.87036 0.75332 0.1632 0.0
H1448 H 0.91177 0.74708 0.14753 0.0
H1449 H 0.92019 0.77073 0.16976 0.0
H1450 H 0.92715 0.76981 0.13063 0.0
H1451 H 0.88768 0.83837 0.07873 0.0
H1452 H 0.90337 0.86491 0.11576 0.0
H1453 H 0.90868 0.81078 0.18013 0.0
C1454 C 0.88045 0.75082 0.0963 0.0
C1455 C 0.87533 0.74902 0.06566 0.0
C1456 C 0.87359 0.7687 0.04811 0.0
C1457 C 0.87732 0.7899 0.06084 0.0
C1458 C 0.88268 0.79106 0.0911 0.0
C1459 C 0.88419 0.772 0.10858 0.0
C1460 C 0.89181 0.77748 0.13992 0.0
C1461 C 0.87348 0.7717 0.1628 0.0
C1462 C 0.91405 0.76558 0.14737 0.0
C1463 C 0.89494 0.80255 0.13719 0.0
C1464 C 0.88931 0.81017 0.10903 0.0
C1465 C 0.89189 0.83262 0.10095 0.0
C1466 C 0.9008 0.84757 0.1221 0.0
C1467 C 0.90716 0.83988 0.15077 0.0
C1468 C 0.90381 0.81717 0.15844 0.0
H1469 H 0.40566 0.6592 0.36387 0.0
H1470 H 0.41721 0.61304 0.4371 0.0
H1471 H 0.44602 0.59349 0.40731 0.0
H1472 H 0.41757 0.61878 0.30117 0.0
H1473 H 0.43168 0.64013 0.27972 0.0
H1474 H 0.40891 0.64766 0.30424 0.0
H1475 H 0.43472 0.67625 0.33108 0.0
H1476 H 0.45751 0.66879 0.30678 0.0
H1477 H 0.46097 0.66681 0.34667 0.0
H1478 H 0.47692 0.58265 0.37335 0.0
H1479 H 0.50862 0.58184 0.33801 0.0
H1480 H 0.47772 0.63529 0.28671 0.0
C1481 C 0.41373 0.6445 0.37317 0.0
C1482 C 0.40911 0.63741 0.40258 0.0
C1483 C 0.42047 0.6186 0.41449 0.0
C1484 C 0.43675 0.60733 0.39769 0.0
C1485 C 0.44144 0.61511 0.36904 0.0
C1486 C 0.43024 0.63323 0.35679 0.0
C1487 C 0.44043 0.63999 0.32714 0.0
C1488 C 0.42364 0.63642 0.30155 0.0
C1489 C 0.44892 0.6644 0.328 0.0
C1490 C 0.45967 0.62346 0.32528 0.0
C1491 C 0.45966 0.60898 0.34939 0.0
C1492 C 0.47687 0.59356 0.35405 0.0
C1493 C 0.49483 0.59327 0.33392 0.0
C1494 C 0.49548 0.60838 0.30956 0.0
C1495 C 0.4774 0.62324 0.3048 0.0
H1496 H 0.41236 0.14543 0.12842 0.0
H1497 H 0.3522 0.14288 0.18276 0.0
H1498 H 0.33437 0.17105 0.14996 0.0
H1499 H 0.41369 0.20177 0.1206 0.0
H1500 H 0.42385 0.20241 0.08272 0.0
H1501 H 0.43003 0.17875 0.10615 0.0
H1502 H 0.4122 0.15195 0.06727 0.0
H1503 H 0.40611 0.17558 0.04348 0.0
H1504 H 0.3839 0.15686 0.05465 0.0
H1505 H 0.3259 0.20397 0.11722 0.0
H1506 H 0.32711 0.23838 0.08652 0.0
H1507 H 0.39274 0.21933 0.05334 0.0
C1508 C 0.39514 0.15018 0.13279 0.0
C1509 C 0.38357 0.14188 0.15797 0.0
C1510 C 0.36127 0.1489 0.16341 0.0
C1511 C 0.35101 0.16487 0.14486 0.0
C1512 C 0.36322 0.17343 0.12087 0.0
C1513 C 0.38473 0.16613 0.11459 0.0
C1514 C 0.39529 0.17979 0.08981 0.0
C1515 C 0.41698 0.19136 0.10048 0.0
C1516 C 0.39962 0.16517 0.06216 0.0
C1517 C 0.37679 0.19661 0.08407 0.0
C1518 C 0.35829 0.19245 0.10185 0.0
C1519 C 0.34005 0.20707 0.10266 0.0
C1520 C 0.34092 0.22661 0.08525 0.0
C1521 C 0.35992 0.23135 0.06739 0.0
C1522 C 0.3778 0.21586 0.0663 0.0
H1523 H 0.47366 0.64717 0.85455 0.0
H1524 H 0.50384 0.62235 0.7729 0.0
H1525 H 0.54166 0.6281 0.79475 0.0
H1526 H 0.51391 0.69043 0.86837 0.0
H1527 H 0.51307 0.68685 0.9083 0.0
H1528 H 0.48875 0.68025 0.88615 0.0
H1529 H 0.48821 0.64012 0.90844 0.0
H1530 H 0.51264 0.64652 0.9305 0.0
H1531 H 0.51289 0.62277 0.90562 0.0
H1532 H 0.57629 0.6363 0.82657 0.0
H1533 H 0.60442 0.6488 0.86381 0.0
H1534 H 0.55066 0.6688 0.92337 0.0
C1535 C 0.48821 0.64293 0.84121 0.0
C1536 C 0.48589 0.63425 0.81209 0.0
C1537 C 0.50532 0.62905 0.79527 0.0
C1538 C 0.52681 0.63217 0.80754 0.0
C1539 C 0.52848 0.6406 0.83652 0.0
C1540 C 0.50965 0.64607 0.85298 0.0
C1541 C 0.51578 0.6554 0.88324 0.0
C1542 C 0.50739 0.67967 0.8867 0.0
C1543 C 0.50685 0.64029 0.90843 0.0
C1544 C 0.54106 0.65441 0.88134 0.0
C1545 C 0.54815 0.64565 0.85438 0.0
C1546 C 0.57089 0.6432 0.84772 0.0
C1547 C 0.58674 0.65024 0.86901 0.0
C1548 C 0.57968 0.65976 0.8964 0.0
C1549 C 0.55656 0.6616 0.90261 0.0
H1550 H 0.04591 0.81326 0.66175 0.0
H1551 H 0.10076 0.86105 0.65994 0.0
H1552 H 0.11956 0.83837 0.62077 0.0
H1553 H 0.0781 0.76425 0.65337 0.0
H1554 H 0.0579 0.75022 0.62997 0.0
H1555 H 0.04868 0.77084 0.65657 0.0
H1556 H 0.02911 0.79311 0.61418 0.0
H1557 H 0.03833 0.77255 0.5874 0.0
H1558 H 0.04515 0.80173 0.58205 0.0
H1559 H 0.13334 0.80846 0.58423 0.0
H1560 H 0.14039 0.77487 0.55305 0.0
H1561 H 0.07535 0.74822 0.57814 0.0
C1562 C 0.06184 0.81906 0.65305 0.0
C1563 C 0.07198 0.83883 0.66392 0.0
C1564 C 0.09274 0.84593 0.65184 0.0
C1565 C 0.10349 0.83317 0.62962 0.0
C1566 C 0.09304 0.81361 0.61955 0.0
C1567 C 0.07257 0.80674 0.63078 0.0
C1568 C 0.06491 0.78496 0.61684 0.0
C1569 C 0.06226 0.76648 0.6406 0.0
C1570 C 0.04308 0.7883 0.59906 0.0
C1571 C 0.08449 0.78027 0.59639 0.0
C1572 C 0.10057 0.79695 0.59814 0.0
C1573 C 0.12072 0.79549 0.58241 0.0
C1574 C 0.12457 0.77637 0.56477 0.0
C1575 C 0.10832 0.75909 0.56296 0.0
C1576 C 0.08794 0.76132 0.57868 0.0
H1577 H 0.92724 0.3127 0.39489 0.0
H1578 H 0.91065 0.37654 0.4358 0.0
H1579 H 0.93884 0.39532 0.4038 0.0
H1580 H 0.98501 0.32099 0.39227 0.0
H1581 H 0.98911 0.30707 0.35698 0.0
H1582 H 0.96595 0.29923 0.38049 0.0
H1583 H 0.93818 0.30715 0.33722 0.0
H1584 H 0.9613 0.31494 0.31347 0.0
H1585 H 0.93839 0.3342 0.31922 0.0
H1586 H 0.97111 0.4064 0.37033 0.0
H1587 H 0.00481 0.40892 0.33834 0.0
H1588 H 0.00017 0.33761 0.31992 0.0
C1589 C 0.92921 0.33071 0.39675 0.0
C1590 C 0.9167 0.34322 0.41769 0.0
C1591 C 0.92 0.36669 0.41975 0.0
C1592 C 0.93594 0.37748 0.40166 0.0
C1593 C 0.94831 0.36454 0.38161 0.0
C1594 C 0.94504 0.34168 0.37898 0.0
C1595 C 0.96144 0.3313 0.35721 0.0
C1596 C 0.97625 0.31361 0.37267 0.0
C1597 C 0.94909 0.32131 0.33018 0.0
C1598 C 0.97487 0.35181 0.34849 0.0
C1599 C 0.96691 0.37086 0.36254 0.0
C1600 C 0.97731 0.39163 0.35896 0.0
C1601 C 0.99645 0.39289 0.34079 0.0
C1602 C 0.00503 0.37348 0.32659 0.0
C1603 C 0.99388 0.35277 0.33028 0.0
H1604 H 0.39749 0.8207 0.33096 0.0
H1605 H 0.45679 0.83987 0.38099 0.0
H1606 H 0.44794 0.81127 0.41905 0.0
H1607 H 0.36155 0.80671 0.39639 0.0
H1608 H 0.34896 0.78318 0.37746 0.0
H1609 H 0.35822 0.80724 0.35641 0.0
H1610 H 0.38294 0.78141 0.32349 0.0
H1611 H 0.37388 0.75735 0.34449 0.0
H1612 H 0.4034 0.76342 0.34101 0.0
H1613 H 0.435 0.77807 0.44871 0.0
H1614 H 0.41882 0.74262 0.46767 0.0
H1615 H 0.36819 0.74491 0.39812 0.0
C1616 C 0.40826 0.81926 0.35033 0.0
C1617 C 0.42772 0.83258 0.35318 0.0
C1618 C 0.44172 0.82989 0.37848 0.0
C1619 C 0.43681 0.81374 0.40025 0.0
C1620 C 0.4178 0.80047 0.39643 0.0
C1621 C 0.40366 0.80312 0.37219 0.0
C1622 C 0.38539 0.78548 0.37205 0.0
C1623 C 0.36215 0.7963 0.37581 0.0
C1624 C 0.38649 0.77107 0.34358 0.0
C1625 C 0.39188 0.77209 0.39944 0.0
C1626 C 0.41044 0.78117 0.41343 0.0
C1627 C 0.42027 0.77098 0.43821 0.0
C1628 C 0.41101 0.75084 0.44878 0.0
C1629 C 0.39223 0.7411 0.43444 0.0
C1630 C 0.38242 0.75209 0.40973 0.0
H1631 H 0.00903 0.62226 0.13495 0.0
H1632 H 0.97674 0.62329 0.22169 0.0
H1633 H 0.93977 0.62724 0.19716 0.0
H1634 H 0.97681 0.66427 0.10351 0.0
H1635 H 0.97572 0.65219 0.06667 0.0
H1636 H 0.99899 0.64606 0.09085 0.0
H1637 H 0.99121 0.60347 0.08516 0.0
H1638 H 0.9678 0.6095 0.06097 0.0
H1639 H 0.96376 0.59259 0.09389 0.0
H1640 H 0.90694 0.63505 0.16341 0.0
H1641 H 0.88136 0.64803 0.12353 0.0
H1642 H 0.93538 0.6422 0.05912 0.0
C1643 C 0.99413 0.6228 0.14876 0.0
C1644 C 0.99568 0.62231 0.18018 0.0
C1645 C 0.97588 0.62354 0.19754 0.0
C1646 C 0.95482 0.62567 0.18381 0.0
C1647 C 0.95389 0.62646 0.15273 0.0
C1648 C 0.97305 0.62506 0.13544 0.0
C1649 C 0.96784 0.62855 0.10272 0.0
C1650 C 0.98059 0.64898 0.09023 0.0
C1651 C 0.97296 0.60725 0.08462 0.0
C1652 C 0.94287 0.63288 0.10437 0.0
C1653 C 0.93503 0.63121 0.13332 0.0
C1654 C 0.91281 0.63606 0.14059 0.0
C1655 C 0.8984 0.64339 0.11781 0.0
C1656 C 0.90637 0.64599 0.08825 0.0
C1657 C 0.92872 0.64008 0.08143 0.0
H1658 H 0.08395 0.26361 0.8991 0.0
H1659 H 0.13139 0.2275 0.95467 0.0
H1660 H 0.12319 0.19259 0.92653 0.0
H1661 H 0.04326 0.21954 0.89239 0.0
H1662 H 0.03658 0.22636 0.85422 0.0
H1663 H 0.04611 0.24798 0.87924 0.0
H1664 H 0.07817 0.2579 0.84246 0.0
H1665 H 0.06887 0.2362 0.81741 0.0
H1666 H 0.09741 0.2363 0.83072 0.0
H1667 H 0.10902 0.16143 0.89181 0.0
H1668 H 0.09035 0.13727 0.85415 0.0
H1669 H 0.05361 0.19504 0.82129 0.0
C1670 C 0.09256 0.24835 0.90553 0.0
C1671 C 0.10823 0.2482 0.92914 0.0
C1672 C 0.11925 0.22792 0.93669 0.0
C1673 C 0.11472 0.20806 0.92081 0.0
C1674 C 0.09925 0.20888 0.89743 0.0
C1675 C 0.08837 0.22856 0.88989 0.0
C1676 C 0.07263 0.22528 0.86383 0.0
C1677 C 0.0482 0.23007 0.87298 0.0
C1678 C 0.07971 0.23978 0.83702 0.0
C1679 C 0.07629 0.20063 0.85774 0.0
C1680 C 0.09161 0.19134 0.87733 0.0
C1681 C 0.0971 0.16859 0.87628 0.0
C1682 C 0.08647 0.15501 0.85482 0.0
C1683 C 0.07069 0.16432 0.83468 0.0
C1684 C 0.06578 0.18745 0.83614 0.0
H1685 H 0.59494 0.35433 0.62262 0.0
H1686 H 0.56691 0.38052 0.54052 0.0
H1687 H 0.53525 0.39691 0.56879 0.0
H1688 H 0.54485 0.33525 0.64972 0.0
H1689 H 0.55028 0.341 0.68856 0.0
H1690 H 0.57327 0.33602 0.66348 0.0
H1691 H 0.59091 0.37421 0.67807 0.0
H1692 H 0.56798 0.37927 0.70344 0.0
H1693 H 0.57448 0.39949 0.67479 0.0
H1694 H 0.50479 0.40637 0.60448 0.0
H1695 H 0.47609 0.4058 0.64407 0.0
H1696 H 0.52233 0.37076 0.70261 0.0
C1697 C 0.58258 0.36435 0.61091 0.0
C1698 C 0.5835 0.3668 0.57964 0.0
C1699 C 0.56656 0.37893 0.5646 0.0
C1700 C 0.54862 0.38831 0.58048 0.0
C1701 C 0.54776 0.38507 0.61128 0.0
C1702 C 0.56423 0.37327 0.62636 0.0
C1703 C 0.55761 0.36915 0.65856 0.0
C1704 C 0.55643 0.34386 0.66546 0.0
C1705 C 0.5737 0.38126 0.67998 0.0
C1706 C 0.53455 0.37981 0.65896 0.0
C1707 C 0.52947 0.38941 0.63169 0.0
C1708 C 0.50867 0.39918 0.62605 0.0
C1709 C 0.49247 0.39874 0.64868 0.0
C1710 C 0.49702 0.38826 0.67639 0.0
C1711 C 0.51848 0.37905 0.68172 0.0
H1712 H 0.05276 0.44815 0.23477 0.0
H1713 H 0.11539 0.44222 0.28351 0.0
H1714 H 0.12281 0.48261 0.27506 0.0
H1715 H 0.07233 0.48922 0.17938 0.0
H1716 H 0.04585 0.50382 0.17911 0.0
H1717 H 0.04669 0.47414 0.18672 0.0
H1718 H 0.02562 0.48072 0.23657 0.0
H1719 H 0.02476 0.51037 0.22917 0.0
H1720 H 0.03697 0.50019 0.26341 0.0
H1721 H 0.1216 0.52444 0.26474 0.0
H1722 H 0.11196 0.56391 0.25315 0.0
H1723 H 0.05031 0.5417 0.21098 0.0
C1724 C 0.06822 0.45524 0.24328 0.0
C1725 C 0.08354 0.44209 0.25973 0.0
C1726 C 0.10347 0.45203 0.27073 0.0
C1727 C 0.10783 0.47492 0.26601 0.0
C1728 C 0.09216 0.48751 0.25008 0.0
C1729 C 0.07282 0.47795 0.23874 0.0
C1730 C 0.05805 0.49525 0.22378 0.0
C1731 C 0.0556 0.49031 0.19026 0.0
C1732 C 0.035 0.49671 0.23916 0.0
C1733 C 0.0718 0.51617 0.22909 0.0
C1734 C 0.09151 0.51141 0.24407 0.0
C1735 C 0.10634 0.52831 0.25269 0.0
C1736 C 0.10074 0.55066 0.24605 0.0
C1737 C 0.08046 0.55581 0.23106 0.0
C1738 C 0.06604 0.53826 0.2222 0.0
H1739 H 0.79808 0.82703 0.50859 0.0
H1740 H 0.8158 0.76457 0.46471 0.0
H1741 H 0.77723 0.76142 0.44511 0.0
H1742 H 0.74301 0.81001 0.53098 0.0
H1743 H 0.73055 0.83719 0.52497 0.0
H1744 H 0.7598 0.83502 0.53456 0.0
H1745 H 0.77023 0.85765 0.48715 0.0
H1746 H 0.74099 0.85976 0.47732 0.0
H1747 H 0.76074 0.84802 0.45116 0.0
H1748 H 0.73704 0.76459 0.431 0.0
H1749 H 0.69672 0.77268 0.42547 0.0
H1750 H 0.70459 0.83292 0.47892 0.0
C1751 C 0.79383 0.81274 0.49478 0.0
C1752 C 0.80989 0.79605 0.48808 0.0
C1753 C 0.80372 0.77751 0.47013 0.0
C1754 C 0.78191 0.77563 0.4588 0.0
C1755 C 0.7665 0.7924 0.4657 0.0
C1756 C 0.77208 0.81052 0.48342 0.0
C1757 C 0.75204 0.82573 0.48836 0.0
C1758 C 0.74599 0.82705 0.5217 0.0
C1759 C 0.75626 0.84918 0.47521 0.0
C1760 C 0.7343 0.8132 0.47081 0.0
C1761 C 0.74309 0.79413 0.45774 0.0
C1762 C 0.72995 0.7795 0.44102 0.0
C1763 C 0.70708 0.78426 0.438 0.0
C1764 C 0.69758 0.80344 0.45171 0.0
C1765 C 0.71145 0.81825 0.46798 0.0
H1766 H 0.4559 0.45204 0.7685 0.0
H1767 H 0.38606 0.43296 0.75855 0.0
H1768 H 0.37452 0.47134 0.77326 0.0
H1769 H 0.44884 0.49047 0.83179 0.0
H1770 H 0.46949 0.50979 0.81754 0.0
H1771 H 0.47193 0.48025 0.80964 0.0
H1772 H 0.47302 0.48879 0.75289 0.0
H1773 H 0.4707 0.51829 0.76061 0.0
H1774 H 0.45066 0.50491 0.7363 0.0
H1775 H 0.37101 0.51274 0.78586 0.0
H1776 H 0.37589 0.55379 0.79148 0.0
H1777 H 0.44812 0.54505 0.79171 0.0
C1778 C 0.43815 0.45579 0.76988 0.0
C1779 C 0.42184 0.43956 0.76261 0.0
C1780 C 0.3988 0.44521 0.76416 0.0
C1781 C 0.39211 0.46689 0.77264 0.0
C1782 C 0.4087 0.4826 0.77945 0.0
C1783 C 0.43125 0.47728 0.77803 0.0
C1784 C 0.44588 0.49749 0.78388 0.0
C1785 C 0.45985 0.4943 0.81241 0.0
C1786 C 0.46094 0.50267 0.75681 0.0
C1787 C 0.42808 0.51523 0.78809 0.0
C1788 C 0.40672 0.50633 0.78601 0.0
C1789 C 0.38765 0.51984 0.78782 0.0
C1790 C 0.39057 0.54309 0.7911 0.0
C1791 C 0.41237 0.55249 0.79207 0.0
C1792 C 0.43126 0.53828 0.7912 0.0
H1793 H 0.78439 0.18502 0.97731 0.0
H1794 H 0.80716 0.20279 0.06617 0.0
H1795 H 0.77013 0.19237 0.0867 0.0
H1796 H 0.73035 0.20849 0.98532 0.0
H1797 H 0.71633 0.18733 0.96346 0.0
H1798 H 0.74534 0.19374 0.9564 0.0
H1799 H 0.7556 0.15188 0.96416 0.0
H1800 H 0.72658 0.14538 0.97155 0.0
H1801 H 0.74785 0.13809 0.99847 0.0
H1802 H 0.73048 0.18141 0.09731 0.0
H1803 H 0.68953 0.17527 0.09652 0.0
H1804 H 0.69192 0.16653 0.00042 0.0
C1805 C 0.7816 0.18645 0.00112 0.0
C1806 C 0.79856 0.19454 0.02025 0.0
C1807 C 0.79429 0.19663 0.05119 0.0
C1808 C 0.77341 0.19058 0.06307 0.0
C1809 C 0.75698 0.18266 0.04364 0.0
C1810 C 0.76072 0.18086 0.01327 0.0
C1811 C 0.73959 0.17393 0.99694 0.0
C1812 C 0.73249 0.19195 0.9742 0.0
C1813 C 0.74259 0.15095 0.9819 0.0
C1814 C 0.7233 0.17255 0.0228 0.0
C1815 C 0.7338 0.17715 0.04961 0.0
C1816 C 0.72208 0.17766 0.07649 0.0
C1817 C 0.69885 0.17407 0.07583 0.0
C1818 C 0.68762 0.1704 0.04842 0.0
C1819 C 0.70011 0.16912 0.02172 0.0
H1820 H 0.94144 0.4643 0.79978 0.0
H1821 H 0.92027 0.4416 0.71226 0.0
H1822 H 0.91743 0.48099 0.69537 0.0
H1823 H 0.90799 0.51709 0.80215 0.0
H1824 H 0.93038 0.53225 0.82017 0.0
H1825 H 0.92703 0.50261 0.8268 0.0
H1826 H 0.96815 0.49591 0.8102 0.0
H1827 H 0.97158 0.52543 0.80337 0.0
H1828 H 0.97713 0.50556 0.77398 0.0
H1829 H 0.92048 0.52237 0.68662 0.0
H1830 H 0.93078 0.56252 0.68596 0.0
H1831 H 0.95164 0.55794 0.77856 0.0
C1832 C 0.93556 0.46769 0.77736 0.0
C1833 C 0.93078 0.45004 0.75739 0.0
C1834 C 0.92383 0.45499 0.72791 0.0
C1835 C 0.92209 0.47727 0.71818 0.0
C1836 C 0.92748 0.49433 0.7382 0.0
C1837 C 0.93409 0.4898 0.76717 0.0
C1838 C 0.94136 0.51094 0.78318 0.0
C1839 C 0.92575 0.51602 0.80964 0.0
C1840 C 0.96601 0.50936 0.79326 0.0
C1841 C 0.93841 0.52796 0.75844 0.0
C1842 C 0.92998 0.51813 0.73285 0.0
C1843 C 0.92685 0.53031 0.70662 0.0
C1844 C 0.93276 0.55308 0.70644 0.0
C1845 C 0.94199 0.56327 0.7322 0.0
C1846 C 0.94451 0.55059 0.75859 0.0
H1847 H 0.3011 0.16532 0.49608 0.0
H1848 H 0.30289 0.17933 0.59108 0.0
H1849 H 0.26151 0.17928 0.59242 0.0
H1850 H 0.25803 0.20116 0.47913 0.0
H1851 H 0.24477 0.18377 0.45134 0.0
H1852 H 0.27432 0.18096 0.45846 0.0
H1853 H 0.26917 0.13859 0.46938 0.0
H1854 H 0.23955 0.14119 0.46195 0.0
H1855 H 0.24904 0.12975 0.497 0.0
H1856 H 0.22082 0.1834 0.5823 0.0
H1857 H 0.18294 0.18964 0.56178 0.0
H1858 H 0.20705 0.17249 0.47331 0.0
C1859 C 0.29276 0.16767 0.51732 0.0
C1860 C 0.30514 0.1722 0.54352 0.0
C1861 C 0.29369 0.17571 0.57079 0.0
C1862 C 0.27021 0.17567 0.57178 0.0
C1863 C 0.25847 0.17193 0.54535 0.0
C1864 C 0.26932 0.16773 0.51867 0.0
C1865 C 0.25279 0.16624 0.49303 0.0
C1866 C 0.25778 0.1841 0.4691 0.0
C1867 C 0.25263 0.14253 0.47955 0.0
C1868 C 0.23107 0.17116 0.50928 0.0
C1869 C 0.23474 0.17415 0.5395 0.0
C1870 C 0.21764 0.18065 0.5588 0.0
C1871 C 0.19623 0.18429 0.54691 0.0
C1872 C 0.19212 0.18141 0.51603 0.0
C1873 C 0.2097 0.17445 0.49708 0.0
H1874 H 0.5405 0.54346 0.22381 0.0
H1875 H 0.6072 0.55392 0.26002 0.0
H1876 H 0.61585 0.51374 0.25207 0.0
H1877 H 0.53086 0.49181 0.25807 0.0
H1878 H 0.51556 0.47988 0.22721 0.0
H1879 H 0.51564 0.50976 0.23277 0.0
H1880 H 0.53059 0.51554 0.17897 0.0
H1881 H 0.53052 0.48562 0.17321 0.0
H1882 H 0.55591 0.50147 0.16744 0.0
H1883 H 0.61604 0.47174 0.24337 0.0
H1884 H 0.60741 0.4315 0.23588 0.0
H1885 H 0.54042 0.44916 0.2061 0.0
C1886 C 0.55707 0.5374 0.22961 0.0
C1887 C 0.57323 0.55176 0.24238 0.0
C1888 C 0.59461 0.54316 0.25008 0.0
C1889 C 0.59968 0.5204 0.24558 0.0
C1890 C 0.5832 0.50659 0.2333 0.0
C1891 C 0.56234 0.51481 0.22538 0.0
C1892 C 0.54703 0.49634 0.21447 0.0
C1893 C 0.52604 0.49433 0.23432 0.0
C1894 C 0.54064 0.49996 0.18157 0.0
C1895 C 0.56233 0.47632 0.21811 0.0
C1896 C 0.58322 0.48254 0.22864 0.0
C1897 C 0.59981 0.46671 0.23485 0.0
C1898 C 0.59477 0.44392 0.23053 0.0
C1899 C 0.57328 0.43727 0.22037 0.0
C1900 C 0.55704 0.45375 0.21373 0.0
H1901 H 0.21471 0.79679 0.00653 0.0
H1902 H 0.20103 0.86638 0.02818 0.0
H1903 H 0.24115 0.87558 0.02022 0.0
H1904 H 0.26783 0.79351 0.04323 0.0
H1905 H 0.27998 0.77535 0.01542 0.0
H1906 H 0.25021 0.77468 0.02218 0.0
H1907 H 0.24276 0.78272 0.96615 0.0
H1908 H 0.27251 0.78345 0.95923 0.0
H1909 H 0.25525 0.80704 0.94896 0.0
H1910 H 0.28313 0.87695 0.00847 0.0
H1911 H 0.32328 0.86983 0.99702 0.0
H1912 H 0.30858 0.79911 0.98547 0.0
C1913 C 0.22012 0.81398 0.00957 0.0
C1914 C 0.20481 0.8309 0.01786 0.0
C1915 C 0.21255 0.85317 0.02181 0.0
C1916 C 0.23526 0.85855 0.01728 0.0
C1917 C 0.24994 0.84142 0.00901 0.0
C1918 C 0.24264 0.81957 0.0054 0.0
C1919 C 0.26167 0.80408 0.99703 0.0
C1920 C 0.26512 0.78584 0.0209 0.0
C1921 C 0.25781 0.79372 0.966 0.0
C1922 C 0.28092 0.82056 0.99663 0.0
C1923 C 0.27389 0.84208 0.00325 0.0
C1924 C 0.28882 0.86013 0.00344 0.0
C1925 C 0.31153 0.85598 0.99687 0.0
C1926 C 0.31897 0.83393 0.99065 0.0
C1927 C 0.3034 0.81611 0.99051 0.0
H1928 H 0.56524 0.95464 0.72215 0.0
H1929 H 0.62258 0.94834 0.78121 0.0
H1930 H 0.63193 0.98831 0.77243 0.0
H1931 H 0.5905 0.99426 0.66896 0.0
H1932 H 0.56457 0.00942 0.66427 0.0
H1933 H 0.56405 0.97985 0.67267 0.0
H1934 H 0.539 0.98752 0.71889 0.0
H1935 H 0.53932 0.017 0.71051 0.0
H1936 H 0.54833 0.0073 0.74668 0.0
H1937 H 0.63303 0.02985 0.75998 0.0
H1938 H 0.62427 0.06944 0.74796 0.0
H1939 H 0.56606 0.04776 0.69754 0.0
C1940 C 0.57997 0.96155 0.73292 0.0
C1941 C 0.59325 0.94844 0.75226 0.0
C1942 C 0.61221 0.95815 0.76624 0.0
C1943 C 0.61771 0.98077 0.76125 0.0
C1944 C 0.60412 0.9933 0.74213 0.0
C1945 C 0.58561 0.98399 0.72826 0.0
C1946 C 0.5726 0.00129 0.71071 0.0
C1947 C 0.57297 0.99587 0.67716 0.0
C1948 C 0.5484 0.0034 0.72241 0.0
C1949 C 0.58626 0.022 0.71755 0.0
C1950 C 0.60462 0.01707 0.73526 0.0
C1951 C 0.61888 0.03385 0.74581 0.0
C1952 C 0.61383 0.05626 0.7388 0.0
C1953 C 0.59456 0.06159 0.72174 0.0
C1954 C 0.58103 0.04416 0.71039 0.0
H1955 H 0.29666 0.2869 0.98324 0.0
H1956 H 0.30777 0.3505 0.02794 0.0
H1957 H 0.26852 0.36147 0.01721 0.0
H1958 H 0.25827 0.3077 0.9251 0.0
H1959 H 0.2412 0.28276 0.92658 0.0
H1960 H 0.27075 0.28114 0.93487 0.0
H1961 H 0.26169 0.26312 0.98615 0.0
H1962 H 0.23218 0.26471 0.97805 0.0
H1963 H 0.24309 0.27747 0.01151 0.0
H1964 H 0.22727 0.36412 0.00481 0.0
H1965 H 0.18719 0.35777 0.99338 0.0
H1966 H 0.20339 0.29207 0.95771 0.0
C1967 C 0.29098 0.30332 0.99031 0.0
C1968 C 0.30524 0.31793 0.00626 0.0
C1969 C 0.2971 0.33911 0.01556 0.0
C1970 C 0.27488 0.34549 0.00949 0.0
C1971 C 0.26114 0.33051 0.99406 0.0
C1972 C 0.26892 0.30986 0.98459 0.0
C1973 C 0.25044 0.29612 0.9704 0.0
C1974 C 0.25547 0.29168 0.93727 0.0
C1975 C 0.24663 0.27406 0.98757 0.0
C1976 C 0.23087 0.312 0.97404 0.0
C1977 C 0.23741 0.33188 0.98733 0.0
C1978 C 0.22201 0.34871 0.99411 0.0
C1979 C 0.1993 0.34496 0.98754 0.0
C1980 C 0.19224 0.32446 0.97461 0.0
C1981 C 0.20832 0.30797 0.9674 0.0
H1982 H 0.95988 0.0517 0.24885 0.0
H1983 H 0.89146 0.05953 0.2802 0.0
H1984 H 0.88324 0.02032 0.26553 0.0
H1985 H 0.94766 0.01621 0.18532 0.0
H1986 H 0.97247 0.99933 0.19042 0.0
H1987 H 0.97244 0.02829 0.2019 0.0
H1988 H 0.98412 0.01648 0.25541 0.0
H1989 H 0.9843 0.98753 0.24406 0.0
H1990 H 0.96737 0.99622 0.27532 0.0
H1991 H 0.88298 0.97988 0.24808 0.0
H1992 H 0.89138 0.9409 0.23257 0.0
H1993 H 0.96024 0.96005 0.21416 0.0
C1994 C 0.94311 0.04523 0.25245 0.0
C1995 C 0.92625 0.05859 0.26551 0.0
C1996 C 0.90459 0.04949 0.27019 0.0
C1997 C 0.89976 0.02732 0.26182 0.0
C1998 C 0.91681 0.01457 0.24893 0.0
C1999 C 0.93809 0.02319 0.24447 0.0
C2000 C 0.95379 0.00581 0.2316 0.0
C2001 C 0.96207 0.01284 0.20046 0.0
C2002 C 0.97355 0.00124 0.25287 0.0
C2003 C 0.93813 0.98595 0.22982 0.0
C2004 C 0.91679 0.99134 0.23954 0.0
C2005 C 0.8996 0.97548 0.24034 0.0
C2006 C 0.9045 0.95345 0.23143 0.0
C2007 C 0.92644 0.94755 0.22221 0.0
C2008 C 0.9433 0.96411 0.22108 0.0
H2009 H 0.29562 0.70682 0.4815 0.0
H2010 H 0.2976 0.64253 0.43614 0.0
H2011 H 0.25669 0.63841 0.44346 0.0
H2012 H 0.25651 0.6919 0.53681 0.0
H2013 H 0.24222 0.71855 0.537 0.0
H2014 H 0.27134 0.71712 0.52657 0.0
H2015 H 0.26238 0.73643 0.47612 0.0
H2016 H 0.23323 0.73813 0.4865 0.0
H2017 H 0.24117 0.72464 0.4521 0.0
H2018 H 0.21616 0.6402 0.45885 0.0
H2019 H 0.17834 0.64887 0.47828 0.0
H2020 H 0.20294 0.71235 0.51266 0.0
C2021 C 0.2874 0.692 0.47276 0.0
C2022 C 0.29971 0.67498 0.45825 0.0
C2023 C 0.28841 0.65581 0.44721 0.0
C2024 C 0.26522 0.6533 0.45132 0.0
C2025 C 0.25364 0.67022 0.46627 0.0
C2026 C 0.2643 0.68931 0.47651 0.0
C2027 C 0.24811 0.70482 0.49233 0.0
C2028 C 0.25496 0.70829 0.52512 0.0
C2029 C 0.2461 0.72734 0.47576 0.0
C2030 C 0.22673 0.69129 0.48985 0.0
C2031 C 0.23027 0.67139 0.47475 0.0
C2032 C 0.21314 0.65582 0.47047 0.0
C2033 C 0.19177 0.66085 0.48169 0.0
C2034 C 0.18776 0.68129 0.4969 0.0
C2035 C 0.20551 0.69664 0.50101 0.0
H2036 H 0.42012 0.04184 0.28167 0.0
H2037 H 0.3828 0.03971 0.1986 0.0
H2038 H 0.37772 0.99876 0.20467 0.0
H2039 H 0.45068 0.99438 0.27006 0.0
H2040 H 0.45068 0.98489 0.30827 0.0
H2041 H 0.44777 0.01425 0.30015 0.0
H2042 H 0.41064 0.01546 0.33024 0.0
H2043 H 0.41346 0.98599 0.33853 0.0
H2044 H 0.38828 0.99633 0.32097 0.0
H2045 H 0.38162 0.95764 0.2161 0.0
H2046 H 0.39458 0.91998 0.23138 0.0
H2047 H 0.42917 0.94928 0.30711 0.0
C2048 C 0.41036 0.03286 0.26514 0.0
C2049 C 0.40177 0.0439 0.23973 0.0
C2050 C 0.38939 0.03156 0.21835 0.0
C2051 C 0.38637 0.00833 0.22167 0.0
C2052 C 0.3956 0.99783 0.24666 0.0
C2053 C 0.4072 0.00977 0.26815 0.0
C2054 C 0.41747 0.99438 0.29127 0.0
C2055 C 0.44316 0.99714 0.29247 0.0
C2056 C 0.40682 0.99828 0.32208 0.0
C2057 C 0.41081 0.97182 0.27868 0.0
C2058 C 0.39783 0.97413 0.25327 0.0
C2059 C 0.39136 0.95562 0.23631 0.0
C2060 C 0.39882 0.9343 0.24514 0.0
C2061 C 0.41274 0.93174 0.27054 0.0
C2062 C 0.41823 0.9507 0.28789 0.0
H2063 H 0.79215 0.70353 0.0205 0.0
H2064 H 0.80922 0.63434 0.00087 0.0
H2065 H 0.76959 0.62684 0.98737 0.0
H2066 H 0.73725 0.69236 0.05253 0.0
H2067 H 0.72511 0.71741 0.03678 0.0
H2068 H 0.75451 0.71672 0.04608 0.0
H2069 H 0.76448 0.72812 0.99182 0.0
H2070 H 0.73515 0.72875 0.98232 0.0
H2071 H 0.75418 0.71142 0.9612 0.0
H2072 H 0.72815 0.62785 0.97331 0.0
H2073 H 0.68853 0.63697 0.96158 0.0
H2074 H 0.6995 0.70531 0.99152 0.0
C2075 C 0.78755 0.68673 0.01361 0.0
C2076 C 0.80369 0.6695 0.01169 0.0
C2077 C 0.79704 0.64775 0.00256 0.0
C2078 C 0.77461 0.64336 0.99484 0.0
C2079 C 0.75913 0.66086 0.99664 0.0
C2080 C 0.76534 0.68206 0.00602 0.0
C2081 C 0.74577 0.69816 0.00551 0.0
C2082 C 0.74034 0.70665 0.03711 0.0
C2083 C 0.75016 0.71776 0.98392 0.0
C2084 C 0.72757 0.68283 0.99393 0.0
C2085 C 0.7355 0.66137 0.98896 0.0
C2086 C 0.72174 0.64455 0.97736 0.0
C2087 C 0.69931 0.64988 0.97072 0.0
C2088 C 0.69098 0.6718 0.97575 0.0
C2089 C 0.70534 0.68836 0.98762 0.0
H2090 H 0.06076 0.04906 0.75343 0.0
H2091 H 0.99611 0.05549 0.79715 0.0
H2092 H 0.99186 0.0144 0.79711 0.0
H2093 H 0.0439 0.00486 0.70451 0.0
H2094 H 0.07034 0.99019 0.70562 0.0
H2095 H 0.06954 0.02009 0.7113 0.0
H2096 H 0.08998 0.01531 0.76193 0.0
H2097 H 0.09086 0.98538 0.7564 0.0
H2098 H 0.07837 0.99678 0.78974 0.0
H2099 H 0.9939 0.97346 0.79195 0.0
H2100 H 0.00083 0.93406 0.77882 0.0
H2101 H 0.06318 0.95304 0.73541 0.0
C2102 C 0.0459 0.0417 0.76331 0.0
C2103 C 0.02881 0.05532 0.77552 0.0
C2104 C 0.00937 0.04527 0.78772 0.0
C2105 C 0.00684 0.02198 0.78791 0.0
C2106 C 0.0238 0.00897 0.77549 0.0
C2107 C 0.04288 0.01835 0.76315 0.0
C2108 C 0.05773 0.00038 0.74949 0.0
C2109 C 0.06053 0.00411 0.71573 0.0
C2110 C 0.08059 -0.00059 0.76534 0.0
C2111 C 0.04389 0.97956 0.75595 0.0
C2112 C 0.02456 0.98501 0.77135 0.0
C2113 C 0.00897 0.96891 0.77992 0.0
C2114 C 0.01309 0.94657 0.77235 0.0
C2115 C 0.03252 0.9405 0.75606 0.0
C2116 C 0.04818 0.95722 0.74785 0.0
H2117 H 0.70441 0.30135 0.51545 0.0
H2118 H 0.69485 0.3735 0.51537 0.0
H2119 H 0.73507 0.37871 0.50305 0.0
H2120 H 0.7584 0.30157 0.54982 0.0
H2121 H 0.7687 0.27832 0.52806 0.0
H2122 H 0.73919 0.28062 0.53604 0.0
H2123 H 0.73037 0.27892 0.47941 0.0
H2124 H 0.75987 0.27672 0.47124 0.0
H2125 H 0.74344 0.29879 0.45453 0.0
H2126 H 0.77674 0.37559 0.49059 0.0
H2127 H 0.81626 0.36449 0.48159 0.0
H2128 H 0.79759 0.2945 0.49098 0.0
C2129 C 0.71073 0.31827 0.51279 0.0
C2130 C 0.69656 0.33704 0.51627 0.0
C2131 C 0.70549 0.3589 0.51279 0.0
C2132 C 0.72826 0.362 0.50572 0.0
C2133 C 0.74177 0.34306 0.50234 0.0
C2134 C 0.7333 0.32164 0.50593 0.0
C2135 C 0.75127 0.30403 0.50187 0.0
C2136 C 0.75458 0.29034 0.53067 0.0
C2137 C 0.74591 0.28872 0.47517 0.0
C2138 C 0.77126 0.31883 0.49554 0.0
C2139 C 0.76552 0.3413 0.49567 0.0
C2140 C 0.7814 0.35804 0.49044 0.0
C2141 C 0.80376 0.3516 0.48529 0.0
C2142 C 0.80993 0.32867 0.48563 0.0
C2143 C 0.79338 0.31217 0.49061 0.0
loop_
_geom_bond_atom_site_label_1
_geom_bond_atom_site_label_2
_geom_bond_distance
_geom_bond_site_symmetry_2
_ccdc_geom_bond_type
In0 O1 2.294 . S
In0 O2 2.326 . S
In0 O6 2.266 . S
In0 O7 2.326 . S
In0 O8 2.266 . S
In0 O9 2.326 . S
In0 O11 2.294 . S
In0 O12 2.326 . S
O1 In0 2.294 . S
O1 C10 1.240 . S
O2 In0 2.326 . S
O2 C10 1.252 . S
C3 O6 1.252 . S
C3 O7 1.260 . S
C4 O11 1.240 . S
C4 O12 1.252 . S
C5 O8 1.252 . S
C5 O9 1.260 . S
O6 In0 2.266 . S
O6 C3 1.252 . S
O7 In0 2.326 . S
O7 C3 1.260 . S
O8 In0 2.266 . S
O8 C5 1.252 . S
O9 In0 2.326 . S
O9 C5 1.260 . S
C10 O1 1.240 . S
C10 O2 1.252 . S
O11 In0 2.294 . S
O11 C4 1.240 . S
O12 In0 2.326 . S
O12 C4 1.252 . S
In13 O14 2.294 . S
In13 O15 2.326 . S
In13 O19 2.266 . S
In13 O20 2.326 . S
In13 O21 2.266 . S
In13 O22 2.326 . S
In13 O24 2.294 . S
In13 O25 2.326 . S
O14 In13 2.294 . S
O14 C23 1.240 . S
O15 In13 2.326 . S
O15 C23 1.252 . S
C16 O19 1.252 . S
C16 O20 1.260 . S
C17 O24 1.240 . S
C17 O25 1.252 . S
C18 O21 1.252 . S
C18 O22 1.260 . S
O19 In13 2.266 . S
O19 C16 1.252 . S
O20 In13 2.326 . S
O20 C16 1.260 . S
O21 In13 2.266 . S
O21 C18 1.252 . S
O22 In13 2.326 . S
O22 C18 1.260 . S
C23 O14 1.240 . S
C23 O15 1.252 . S
O24 In13 2.294 . S
O24 C17 1.240 . S
O25 In13 2.326 . S
O25 C17 1.252 . S
In26 O27 2.294 . S
In26 O28 2.326 . S
In26 O32 2.266 . S
In26 O33 2.326 . S
In26 O34 2.266 . S
In26 O35 2.326 . S
In26 O37 2.294 . S
In26 O38 2.326 . S
O27 In26 2.294 . S
O27 C36 1.240 . S
O28 In26 2.326 . S
O28 C36 1.252 . S
C29 O32 1.252 . S
C29 O33 1.260 . S
C30 O37 1.240 . S
C30 O38 1.252 . S
C31 O34 1.252 . S
C31 O35 1.260 . S
O32 In26 2.266 . S
O32 C29 1.252 . S
O33 In26 2.326 . S
O33 C29 1.260 . S
O34 In26 2.266 . S
O34 C31 1.252 . S
O35 In26 2.326 . S
O35 C31 1.260 . S
C36 O27 1.240 . S
C36 O28 1.252 . S
O37 In26 2.294 . S
O37 C30 1.240 . S
O38 In26 2.326 . S
O38 C30 1.252 . S
In39 O40 2.294 . S
In39 O41 2.326 . S
In39 O45 2.266 . S
In39 O46 2.326 . S
In39 O47 2.266 . S
In39 O48 2.326 . S
In39 O50 2.294 1_554 S
In39 O51 2.326 . S
O40 In39 2.294 . S
O40 C49 1.240 . S
O41 In39 2.326 . S
O41 C49 1.252 . S
C42 O45 1.252 . S
C42 O46 1.260 . S
C43 O50 1.240 . S
C43 O51 1.252 1_556 S
C44 O47 1.252 . S
C44 O48 1.260 . S
O45 In39 2.266 . S
O45 C42 1.252 . S
O46 In39 2.326 . S
O46 C42 1.260 . S
O47 In39 2.266 . S
O47 C44 1.252 . S
O48 In39 2.326 . S
O48 C44 1.260 . S
C49 O40 1.240 . S
C49 O41 1.252 . S
O50 In39 2.294 1_556 S
O50 C43 1.240 . S
O51 In39 2.326 . S
O51 C43 1.252 1_554 S
In52 O53 2.294 . S
In52 O54 2.326 . S
In52 O58 2.266 . S
In52 O59 2.326 . S
In52 O60 2.266 . S
In52 O61 2.326 . S
In52 O63 2.294 . S
In52 O64 2.326 . S
O53 In52 2.294 . S
O53 C62 1.240 . S
O54 In52 2.326 . S
O54 C62 1.252 . S
C55 O58 1.252 . S
C55 O59 1.260 . S
C56 O63 1.240 . S
C56 O64 1.252 . S
C57 O60 1.252 . S
C57 O61 1.260 . S
O58 In52 2.266 . S
O58 C55 1.252 . S
O59 In52 2.326 . S
O59 C55 1.260 . S
O60 In52 2.266 . S
O60 C57 1.252 . S
O61 In52 2.326 . S
O61 C57 1.260 . S
C62 O53 1.240 . S
C62 O54 1.252 . S
O63 In52 2.294 . S
O63 C56 1.240 . S
O64 In52 2.326 . S
O64 C56 1.252 . S
In65 O66 2.294 . S
In65 O67 2.326 . S
In65 O71 2.266 . S
In65 O72 2.326 . S
In65 O73 2.266 . S
In65 O74 2.326 . S
In65 O76 2.294 . S
In65 O77 2.326 . S
O66 In65 2.294 . S
O66 C75 1.240 . S
O67 In65 2.326 . S
O67 C75 1.252 . S
C68 O71 1.252 . S
C68 O72 1.260 . S
C69 O76 1.240 . S
C69 O77 1.252 . S
C70 O73 1.252 . S
C70 O74 1.260 . S
O71 In65 2.266 . S
O71 C68 1.252 . S
O72 In65 2.326 . S
O72 C68 1.260 . S
O73 In65 2.266 . S
O73 C70 1.252 . S
O74 In65 2.326 . S
O74 C70 1.260 . S
C75 O66 1.240 . S
C75 O67 1.252 . S
O76 In65 2.294 . S
O76 C69 1.240 . S
O77 In65 2.326 . S
O77 C69 1.252 . S
In78 O79 2.294 . S
In78 O80 2.326 . S
In78 O84 2.266 . S
In78 O85 2.326 . S
In78 O86 2.266 . S
In78 O87 2.326 . S
In78 O89 2.294 . S
In78 O90 2.326 . S
O79 In78 2.294 . S
O79 C88 1.240 . S
O80 In78 2.326 . S
O80 C88 1.252 . S
C81 O84 1.252 . S
C81 O85 1.260 . S
C82 O89 1.240 . S
C82 O90 1.252 . S
C83 O86 1.252 . S
C83 O87 1.260 . S
O84 In78 2.266 . S
O84 C81 1.252 . S
O85 In78 2.326 . S
O85 C81 1.260 . S
O86 In78 2.266 . S
O86 C83 1.252 . S
O87 In78 2.326 . S
O87 C83 1.260 . S
C88 O79 1.240 . S
C88 O80 1.252 . S
O89 In78 2.294 . S
O89 C82 1.240 . S
O90 In78 2.326 . S
O90 C82 1.252 . S
In91 O92 2.294 1_556 S
In91 O93 2.326 . S
In91 O97 2.266 . S
In91 O98 2.326 . S
In91 O99 2.266 . S
In91 O100 2.326 . S
In91 O102 2.294 . S
In91 O103 2.326 . S
O92 In91 2.294 1_554 S
O92 C101 1.240 . S
O93 In91 2.326 . S
O93 C101 1.252 1_556 S
C94 O97 1.252 . S
C94 O98 1.260 . S
C95 O102 1.240 . S
C95 O103 1.252 . S
C96 O99 1.252 . S
C96 O100 1.260 . S
O97 In91 2.266 . S
O97 C94 1.252 . S
O98 In91 2.326 . S
O98 C94 1.260 . S
O99 In91 2.266 . S
O99 C96 1.252 . S
O100 In91 2.326 . S
O100 C96 1.260 . S
C101 O92 1.240 . S
C101 O93 1.252 1_554 S
O102 In91 2.294 . S
O102 C95 1.240 . S
O103 In91 2.326 . S
O103 C95 1.252 . S
In104 O105 2.294 . S
In104 O106 2.326 . S
In104 O110 2.266 . S
In104 O111 2.326 . S
In104 O112 2.266 . S
In104 O113 2.326 . S
In104 O115 2.294 . S
In104 O116 2.326 . S
O105 In104 2.294 . S
O105 C114 1.240 . S
O106 In104 2.326 . S
O106 C114 1.252 . S
C107 O110 1.252 . S
C107 O111 1.260 . S
C108 O115 1.240 . S
C108 O116 1.252 . S
C109 O112 1.252 . S
C109 O113 1.260 . S
O110 In104 2.266 . S
O110 C107 1.252 . S
O111 In104 2.326 . S
O111 C107 1.260 . S
O112 In104 2.266 . S
O112 C109 1.252 . S
O113 In104 2.326 . S
O113 C109 1.260 . S
C114 O105 1.240 . S
C114 O106 1.252 . S
O115 In104 2.294 . S
O115 C108 1.240 . S
O116 In104 2.326 . S
O116 C108 1.252 . S
In117 O118 2.294 . S
In117 O119 2.326 . S
In117 O123 2.266 . S
In117 O124 2.326 . S
In117 O125 2.266 . S
In117 O126 2.326 . S
In117 O128 2.294 . S
In117 O129 2.326 . S
O118 In117 2.294 . S
O118 C127 1.240 . S
O119 In117 2.326 . S
O119 C127 1.252 . S
C120 O123 1.252 . S
C120 O124 1.260 . S
C121 O128 1.240 . S
C121 O129 1.252 . S
C122 O125 1.252 . S
C122 O126 1.260 . S
O123 In117 2.266 . S
O123 C120 1.252 . S
O124 In117 2.326 . S
O124 C120 1.260 . S
O125 In117 2.266 . S
O125 C122 1.252 . S
O126 In117 2.326 . S
O126 C122 1.260 . S
C127 O118 1.240 . S
C127 O119 1.252 . S
O128 In117 2.294 . S
O128 C121 1.240 . S
O129 In117 2.326 . S
O129 C121 1.252 . S
In130 O131 2.294 . S
In130 O132 2.326 . S
In130 O136 2.266 . S
In130 O137 2.326 . S
In130 O138 2.266 . S
In130 O139 2.326 . S
In130 O141 2.294 . S
In130 O142 2.326 . S
O131 In130 2.294 . S
O131 C140 1.240 . S
O132 In130 2.326 . S
O132 C140 1.252 . S
C133 O136 1.252 . S
C133 O137 1.260 . S
C134 O141 1.240 . S
C134 O142 1.252 . S
C135 O138 1.252 . S
C135 O139 1.260 . S
O136 In130 2.266 . S
O136 C133 1.252 . S
O137 In130 2.326 . S
O137 C133 1.260 . S
O138 In130 2.266 . S
O138 C135 1.252 . S
O139 In130 2.326 . S
O139 C135 1.260 . S
C140 O131 1.240 . S
C140 O132 1.252 . S
O141 In130 2.294 . S
O141 C134 1.240 . S
O142 In130 2.326 . S
O142 C134 1.252 . S
In143 O144 2.294 1_556 S
In143 O145 2.326 . S
In143 O149 2.266 . S
In143 O150 2.326 . S
In143 O151 2.266 . S
In143 O152 2.326 . S
In143 O154 2.294 . S
In143 O155 2.326 . S
O144 In143 2.294 1_554 S
O144 C153 1.240 . S
O145 In143 2.326 . S
O145 C153 1.252 1_556 S
C146 O149 1.252 . S
C146 O150 1.260 . S
C147 O154 1.240 . S
C147 O155 1.252 . S
C148 O151 1.252 . S
C148 O152 1.260 . S
O149 In143 2.266 . S
O149 C146 1.252 . S
O150 In143 2.326 . S
O150 C146 1.260 . S
O151 In143 2.266 . S
O151 C148 1.252 . S
O152 In143 2.326 . S
O152 C148 1.260 . S
C153 O144 1.240 . S
C153 O145 1.252 1_554 S
O154 In143 2.294 . S
O154 C147 1.240 . S
O155 In143 2.326 . S
O155 C147 1.252 . S
In156 O157 2.294 . S
In156 O158 2.326 . S
In156 O162 2.266 . S
In156 O163 2.326 . S
In156 O164 2.266 . S
In156 O165 2.326 . S
In156 O167 2.294 . S
In156 O168 2.326 . S
O157 In156 2.294 . S
O157 C166 1.240 . S
O158 In156 2.326 . S
O158 C166 1.252 . S
C159 O162 1.252 . S
C159 O163 1.260 . S
C160 O167 1.240 . S
C160 O168 1.252 . S
C161 O164 1.252 . S
C161 O165 1.260 . S
O162 In156 2.266 . S
O162 C159 1.252 . S
O163 In156 2.326 . S
O163 C159 1.260 . S
O164 In156 2.266 . S
O164 C161 1.252 . S
O165 In156 2.326 . S
O165 C161 1.260 . S
C166 O157 1.240 . S
C166 O158 1.252 . S
O167 In156 2.294 . S
O167 C160 1.240 . S
O168 In156 2.326 . S
O168 C160 1.252 . S
In169 O170 2.294 . S
In169 O171 2.326 . S
In169 O175 2.266 . S
In169 O176 2.326 . S
In169 O177 2.266 . S
In169 O178 2.326 . S
In169 O180 2.294 . S
In169 O181 2.326 . S
O170 In169 2.294 . S
O170 C179 1.240 . S
O171 In169 2.326 . S
O171 C179 1.252 . S
C172 O175 1.252 . S
C172 O176 1.260 . S
C173 O180 1.240 . S
C173 O181 1.252 . S
C174 O177 1.252 . S
C174 O178 1.260 . S
O175 In169 2.266 . S
O175 C172 1.252 . S
O176 In169 2.326 . S
O176 C172 1.260 . S
O177 In169 2.266 . S
O177 C174 1.252 . S
O178 In169 2.326 . S
O178 C174 1.260 . S
C179 O170 1.240 . S
C179 O171 1.252 . S
O180 In169 2.294 . S
O180 C173 1.240 . S
O181 In169 2.326 . S
O181 C173 1.252 . S
In182 O183 2.294 . S
In182 O184 2.326 . S
In182 O188 2.266 . S
In182 O189 2.326 . S
In182 O190 2.266 . S
In182 O191 2.326 . S
In182 O193 2.294 . S
In182 O194 2.326 . S
O183 In182 2.294 . S
O183 C192 1.240 . S
O184 In182 2.326 . S
O184 C192 1.252 . S
C185 O188 1.252 . S
C185 O189 1.260 . S
C186 O193 1.240 . S
C186 O194 1.252 . S
C187 O190 1.252 . S
C187 O191 1.260 . S
O188 In182 2.266 . S
O188 C185 1.252 . S
O189 In182 2.326 . S
O189 C185 1.260 . S
O190 In182 2.266 . S
O190 C187 1.252 . S
O191 In182 2.326 . S
O191 C187 1.260 . S
C192 O183 1.240 . S
C192 O184 1.252 . S
O193 In182 2.294 . S
O193 C186 1.240 . S
O194 In182 2.326 . S
O194 C186 1.252 . S
In195 O196 2.294 1_554 S
In195 O197 2.326 . S
In195 O201 2.266 . S
In195 O202 2.326 . S
In195 O203 2.266 . S
In195 O204 2.326 . S
In195 O206 2.294 . S
In195 O207 2.326 . S
O196 In195 2.294 1_556 S
O196 C205 1.240 . S
O197 In195 2.326 . S
O197 C205 1.252 1_554 S
C198 O201 1.252 . S
C198 O202 1.260 . S
C199 O206 1.240 . S
C199 O207 1.252 . S
C200 O203 1.252 . S
C200 O204 1.260 . S
O201 In195 2.266 . S
O201 C198 1.252 . S
O202 In195 2.326 . S
O202 C198 1.260 . S
O203 In195 2.266 . S
O203 C200 1.252 . S
O204 In195 2.326 . S
O204 C200 1.260 . S
C205 O196 1.240 . S
C205 O197 1.252 1_556 S
O206 In195 2.294 . S
O206 C199 1.240 . S
O207 In195 2.326 . S
O207 C199 1.252 . S
In208 O209 2.294 . S
In208 O210 2.326 . S
In208 O214 2.266 . S
In208 O215 2.326 . S
In208 O216 2.266 . S
In208 O217 2.326 . S
In208 O219 2.294 . S
In208 O220 2.326 . S
O209 In208 2.294 . S
O209 C218 1.240 . S
O210 In208 2.326 . S
O210 C218 1.252 . S
C211 O214 1.252 . S
C211 O215 1.260 . S
C212 O219 1.240 . S
C212 O220 1.252 . S
C213 O216 1.252 . S
C213 O217 1.260 . S
O214 In208 2.266 . S
O214 C211 1.252 . S
O215 In208 2.326 . S
O215 C211 1.260 . S
O216 In208 2.266 . S
O216 C213 1.252 . S
O217 In208 2.326 . S
O217 C213 1.260 . S
C218 O209 1.240 . S
C218 O210 1.252 . S
O219 In208 2.294 . S
O219 C212 1.240 . S
O220 In208 2.326 . S
O220 C212 1.252 . S
In221 O222 2.294 1_554 S
In221 O223 2.326 . S
In221 O227 2.266 . S
In221 O228 2.326 . S
In221 O229 2.266 . S
In221 O230 2.326 . S
In221 O232 2.294 . S
In221 O233 2.326 . S
O222 In221 2.294 1_556 S
O222 C231 1.240 . S
O223 In221 2.326 . S
O223 C231 1.252 1_554 S
C224 O227 1.252 . S
C224 O228 1.260 . S
C225 O232 1.240 . S
C225 O233 1.252 . S
C226 O229 1.252 . S
C226 O230 1.260 . S
O227 In221 2.266 . S
O227 C224 1.252 . S
O228 In221 2.326 . S
O228 C224 1.260 . S
O229 In221 2.266 . S
O229 C226 1.252 . S
O230 In221 2.326 . S
O230 C226 1.260 . S
C231 O222 1.240 . S
C231 O223 1.252 1_556 S
O232 In221 2.294 . S
O232 C225 1.240 . S
O233 In221 2.326 . S
O233 C225 1.252 . S
In234 O235 2.294 . S
In234 O236 2.326 . S
In234 O240 2.266 . S
In234 O241 2.326 . S
In234 O242 2.266 . S
In234 O243 2.326 . S
In234 O245 2.294 . S
In234 O246 2.326 . S
O235 In234 2.294 . S
O235 C244 1.240 . S
O236 In234 2.326 . S
O236 C244 1.252 . S
C237 O240 1.252 . S
C237 O241 1.260 . S
C238 O245 1.240 . S
C238 O246 1.252 . S
C239 O242 1.252 . S
C239 O243 1.260 . S
O240 In234 2.266 . S
O240 C237 1.252 . S
O241 In234 2.326 . S
O241 C237 1.260 . S
O242 In234 2.266 . S
O242 C239 1.252 . S
O243 In234 2.326 . S
O243 C239 1.260 . S
C244 O235 1.240 . S
C244 O236 1.252 . S
O245 In234 2.294 . S
O245 C238 1.240 . S
O246 In234 2.326 . S
O246 C238 1.252 . S
In247 O248 2.294 . S
In247 O249 2.326 . S
In247 O253 2.266 . S
In247 O254 2.326 . S
In247 O255 2.266 . S
In247 O256 2.326 . S
In247 O258 2.294 . S
In247 O259 2.326 . S
O248 In247 2.294 . S
O248 C257 1.240 . S
O249 In247 2.326 . S
O249 C257 1.252 . S
C250 O253 1.252 . S
C250 O254 1.260 . S
C251 O258 1.240 . S
C251 O259 1.252 . S
C252 O255 1.252 . S
C252 O256 1.260 . S
O253 In247 2.266 . S
O253 C250 1.252 . S
O254 In247 2.326 . S
O254 C250 1.260 . S
O255 In247 2.266 . S
O255 C252 1.252 . S
O256 In247 2.326 . S
O256 C252 1.260 . S
C257 O248 1.240 . S
C257 O249 1.252 . S
O258 In247 2.294 . S
O258 C251 1.240 . S
O259 In247 2.326 . S
O259 C251 1.252 . S
In260 O261 2.294 . S
In260 O262 2.326 . S
In260 O266 2.266 . S
In260 O267 2.326 . S
In260 O268 2.266 . S
In260 O269 2.326 . S
In260 O271 2.294 . S
In260 O272 2.326 . S
O261 In260 2.294 . S
O261 C270 1.240 . S
O262 In260 2.326 . S
O262 C270 1.252 . S
C263 O266 1.252 . S
C263 O267 1.260 . S
C264 O271 1.240 . S
C264 O272 1.252 . S
C265 O268 1.252 . S
C265 O269 1.260 . S
O266 In260 2.266 . S
O266 C263 1.252 . S
O267 In260 2.326 . S
O267 C263 1.260 . S
O268 In260 2.266 . S
O268 C265 1.252 . S
O269 In260 2.326 . S
O269 C265 1.260 . S
C270 O261 1.240 . S
C270 O262 1.252 . S
O271 In260 2.294 . S
O271 C264 1.240 . S
O272 In260 2.326 . S
O272 C264 1.252 . S
In273 O274 2.294 1_556 S
In273 O275 2.326 . S
In273 O279 2.266 . S
In273 O280 2.326 . S
In273 O281 2.266 . S
In273 O282 2.326 . S
In273 O284 2.294 . S
In273 O285 2.326 . S
O274 In273 2.294 1_554 S
O274 C283 1.240 . S
O275 In273 2.326 . S
O275 C283 1.252 1_556 S
C276 O279 1.252 . S
C276 O280 1.260 . S
C277 O284 1.240 . S
C277 O285 1.252 . S
C278 O281 1.252 . S
C278 O282 1.260 . S
O279 In273 2.266 . S
O279 C276 1.252 . S
O280 In273 2.326 . S
O280 C276 1.260 . S
O281 In273 2.266 . S
O281 C278 1.252 . S
O282 In273 2.326 . S
O282 C278 1.260 . S
C283 O274 1.240 . S
C283 O275 1.252 1_554 S
O284 In273 2.294 . S
O284 C277 1.240 . S
O285 In273 2.326 . S
O285 C277 1.252 . S
In286 O287 2.294 . S
In286 O288 2.326 . S
In286 O292 2.266 . S
In286 O293 2.326 . S
In286 O294 2.266 . S
In286 O295 2.326 . S
In286 O297 2.294 . S
In286 O298 2.326 . S
O287 In286 2.294 . S
O287 C296 1.240 . S
O288 In286 2.326 . S
O288 C296 1.252 . S
C289 O292 1.252 . S
C289 O293 1.260 . S
C290 O297 1.240 . S
C290 O298 1.252 . S
C291 O294 1.252 . S
C291 O295 1.260 . S
O292 In286 2.266 . S
O292 C289 1.252 . S
O293 In286 2.326 . S
O293 C289 1.260 . S
O294 In286 2.266 . S
O294 C291 1.252 . S
O295 In286 2.326 . S
O295 C291 1.260 . S
C296 O287 1.240 . S
C296 O288 1.252 . S
O297 In286 2.294 . S
O297 C290 1.240 . S
O298 In286 2.326 . S
O298 C290 1.252 . S
In299 O300 2.294 . S
In299 O301 2.326 . S
In299 O305 2.266 . S
In299 O306 2.326 . S
In299 O307 2.266 . S
In299 O308 2.326 . S
In299 O310 2.294 . S
In299 O311 2.326 . S
O300 In299 2.294 . S
O300 C309 1.240 . S
O301 In299 2.326 . S
O301 C309 1.252 . S
C302 O305 1.252 . S
C302 O306 1.260 . S
C303 O310 1.240 . S
C303 O311 1.252 . S
C304 O307 1.252 . S
C304 O308 1.260 . S
O305 In299 2.266 . S
O305 C302 1.252 . S
O306 In299 2.326 . S
O306 C302 1.260 . S
O307 In299 2.266 . S
O307 C304 1.252 . S
O308 In299 2.326 . S
O308 C304 1.260 . S
C309 O300 1.240 . S
C309 O301 1.252 . S
O310 In299 2.294 . S
O310 C303 1.240 . S
O311 In299 2.326 . S
O311 C303 1.252 . S
In312 O313 2.294 . S
In312 O314 2.326 . S
In312 O318 2.266 . S
In312 O319 2.326 . S
In312 O320 2.266 . S
In312 O321 2.326 . S
In312 O323 2.294 . S
In312 O324 2.326 . S
O313 In312 2.294 . S
O313 C322 1.240 . S
O314 In312 2.326 . S
O314 C322 1.252 . S
C315 O318 1.252 . S
C315 O319 1.260 . S
C316 O323 1.240 . S
C316 O324 1.252 . S
C317 O320 1.252 . S
C317 O321 1.260 . S
O318 In312 2.266 . S
O318 C315 1.252 . S
O319 In312 2.326 . S
O319 C315 1.260 . S
O320 In312 2.266 . S
O320 C317 1.252 . S
O321 In312 2.326 . S
O321 C317 1.260 . S
C322 O313 1.240 . S
C322 O314 1.252 . S
O323 In312 2.294 . S
O323 C316 1.240 . S
O324 In312 2.326 . S
O324 C316 1.252 . S
In325 O326 2.294 1_556 S
In325 O327 2.326 . S
In325 O331 2.266 . S
In325 O332 2.326 . S
In325 O333 2.266 . S
In325 O334 2.326 . S
In325 O336 2.294 . S
In325 O337 2.326 . S
O326 In325 2.294 1_554 S
O326 C335 1.240 . S
O327 In325 2.326 . S
O327 C335 1.252 1_556 S
C328 O331 1.252 . S
C328 O332 1.260 . S
C329 O336 1.240 . S
C329 O337 1.252 . S
C330 O333 1.252 . S
C330 O334 1.260 . S
O331 In325 2.266 . S
O331 C328 1.252 . S
O332 In325 2.326 . S
O332 C328 1.260 . S
O333 In325 2.266 . S
O333 C330 1.252 . S
O334 In325 2.326 . S
O334 C330 1.260 . S
C335 O326 1.240 . S
C335 O327 1.252 1_554 S
O336 In325 2.294 . S
O336 C329 1.240 . S
O337 In325 2.326 . S
O337 C329 1.252 . S
In338 O339 2.294 . S
In338 O340 2.326 . S
In338 O344 2.266 . S
In338 O345 2.326 . S
In338 O346 2.266 . S
In338 O347 2.326 . S
In338 O349 2.294 . S
In338 O350 2.326 . S
O339 In338 2.294 . S
O339 C348 1.240 . S
O340 In338 2.326 . S
O340 C348 1.252 . S
C341 O344 1.252 . S
C341 O345 1.260 . S
C342 O349 1.240 . S
C342 O350 1.252 . S
C343 O346 1.252 . S
C343 O347 1.260 . S
O344 In338 2.266 . S
O344 C341 1.252 . S
O345 In338 2.326 . S
O345 C341 1.260 . S
O346 In338 2.266 . S
O346 C343 1.252 . S
O347 In338 2.326 . S
O347 C343 1.260 . S
C348 O339 1.240 . S
C348 O340 1.252 . S
O349 In338 2.294 . S
O349 C342 1.240 . S
O350 In338 2.326 . S
O350 C342 1.252 . S
In351 O352 2.294 . S
In351 O353 2.326 . S
In351 O357 2.266 . S
In351 O358 2.326 . S
In351 O359 2.266 . S
In351 O360 2.326 . S
In351 O362 2.294 . S
In351 O363 2.326 . S
O352 In351 2.294 . S
O352 C361 1.240 . S
O353 In351 2.326 . S
O353 C361 1.252 . S
C354 O357 1.252 . S
C354 O358 1.260 . S
C355 O362 1.240 . S
C355 O363 1.252 . S
C356 O359 1.252 . S
C356 O360 1.260 . S
O357 In351 2.266 . S
O357 C354 1.252 . S
O358 In351 2.326 . S
O358 C354 1.260 . S
O359 In351 2.266 . S
O359 C356 1.252 . S
O360 In351 2.326 . S
O360 C356 1.260 . S
C361 O352 1.240 . S
C361 O353 1.252 . S
O362 In351 2.294 . S
O362 C355 1.240 . S
O363 In351 2.326 . S
O363 C355 1.252 . S
In364 O365 2.294 . S
In364 O366 2.326 . S
In364 O370 2.266 . S
In364 O371 2.326 . S
In364 O372 2.266 . S
In364 O373 2.326 . S
In364 O375 2.294 . S
In364 O376 2.326 . S
O365 In364 2.294 . S
O365 C374 1.240 . S
O366 In364 2.326 . S
O366 C374 1.252 . S
C367 O370 1.252 . S
C367 O371 1.260 . S
C368 O375 1.240 . S
C368 O376 1.252 . S
C369 O372 1.252 . S
C369 O373 1.260 . S
O370 In364 2.266 . S
O370 C367 1.252 . S
O371 In364 2.326 . S
O371 C367 1.260 . S
O372 In364 2.266 . S
O372 C369 1.252 . S
O373 In364 2.326 . S
O373 C369 1.260 . S
C374 O365 1.240 . S
C374 O366 1.252 . S
O375 In364 2.294 . S
O375 C368 1.240 . S
O376 In364 2.326 . S
O376 C368 1.252 . S
In377 O378 2.294 1_554 S
In377 O379 2.326 . S
In377 O383 2.266 . S
In377 O384 2.326 . S
In377 O385 2.266 . S
In377 O386 2.326 . S
In377 O388 2.294 . S
In377 O389 2.326 . S
O378 In377 2.294 1_556 S
O378 C387 1.240 . S
O379 In377 2.326 . S
O379 C387 1.252 1_554 S
C380 O383 1.252 . S
C380 O384 1.260 . S
C381 O388 1.240 . S
C381 O389 1.252 . S
C382 O385 1.252 . S
C382 O386 1.260 . S
O383 In377 2.266 . S
O383 C380 1.252 . S
O384 In377 2.326 . S
O384 C380 1.260 . S
O385 In377 2.266 . S
O385 C382 1.252 . S
O386 In377 2.326 . S
O386 C382 1.260 . S
C387 O378 1.240 . S
C387 O379 1.252 1_556 S
O388 In377 2.294 . S
O388 C381 1.240 . S
O389 In377 2.326 . S
O389 C381 1.252 . S
In390 O391 2.294 . S
In390 O392 2.326 . S
In390 O396 2.266 . S
In390 O397 2.326 . S
In390 O398 2.266 . S
In390 O399 2.326 . S
In390 O401 2.294 . S
In390 O402 2.326 . S
O391 In390 2.294 . S
O391 C400 1.240 . S
O392 In390 2.326 . S
O392 C400 1.252 . S
C393 O396 1.252 . S
C393 O397 1.260 . S
C394 O401 1.240 . S
C394 O402 1.252 . S
C395 O398 1.252 . S
C395 O399 1.260 . S
O396 In390 2.266 . S
O396 C393 1.252 . S
O397 In390 2.326 . S
O397 C393 1.260 . S
O398 In390 2.266 . S
O398 C395 1.252 . S
O399 In390 2.326 . S
O399 C395 1.260 . S
C400 O391 1.240 . S
C400 O392 1.252 . S
O401 In390 2.294 . S
O401 C394 1.240 . S
O402 In390 2.326 . S
O402 C394 1.252 . S
In403 O404 2.294 . S
In403 O405 2.326 . S
In403 O409 2.266 . S
In403 O410 2.326 . S
In403 O411 2.266 . S
In403 O412 2.326 . S
In403 O414 2.294 . S
In403 O415 2.326 . S
O404 In403 2.294 . S
O404 C413 1.240 . S
O405 In403 2.326 . S
O405 C413 1.252 . S
C406 O409 1.252 . S
C406 O410 1.260 . S
C407 O414 1.240 . S
C407 O415 1.252 . S
C408 O411 1.252 . S
C408 O412 1.260 . S
O409 In403 2.266 . S
O409 C406 1.252 . S
O410 In403 2.326 . S
O410 C406 1.260 . S
O411 In403 2.266 . S
O411 C408 1.252 . S
O412 In403 2.326 . S
O412 C408 1.260 . S
C413 O404 1.240 . S
C413 O405 1.252 . S
O414 In403 2.294 . S
O414 C407 1.240 . S
O415 In403 2.326 . S
O415 C407 1.252 . S
H416 C428 0.930 . S
H417 C430 0.930 . S
H418 C431 0.930 . S
H419 C435 0.959 . S
H420 C435 0.959 . S
H421 C435 0.961 . S
H422 C436 0.960 . S
H423 C436 0.961 . S
H424 C436 0.959 . S
H425 C439 0.929 . S
H426 C440 0.931 . S
H427 C442 0.930 . S
C428 H416 0.930 . S
C428 C429 1.399 . S
C428 C433 1.399 . S
C429 C428 1.399 . S
C429 C430 1.376 . S
C430 H417 0.930 . S
C430 C429 1.376 . S
C430 C431 1.388 . S
C431 H418 0.930 . S
C431 C430 1.388 . S
C431 C432 1.390 . S
C432 C431 1.390 . S
C432 C433 1.394 . S
C432 C438 1.465 . S
C433 C428 1.399 . S
C433 C432 1.394 . S
C433 C434 1.516 . S
C434 C433 1.516 . S
C434 C435 1.502 . S
C434 C436 1.561 . S
C434 C437 1.526 . S
C435 H419 0.959 . S
C435 H420 0.959 . S
C435 H421 0.961 . S
C435 C434 1.502 . S
C436 H422 0.960 . S
C436 H423 0.961 . S
C436 H424 0.959 . S
C436 C434 1.561 . S
C437 C434 1.526 . S
C437 C438 1.396 . S
C437 C442 1.390 . S
C438 C432 1.465 . S
C438 C437 1.396 . S
C438 C439 1.399 . S
C439 H425 0.929 . S
C439 C438 1.399 . S
C439 C440 1.385 . S
C440 H426 0.931 . S
C440 C439 1.385 . S
C440 C441 1.389 . S
C441 C440 1.389 . S
C441 C442 1.387 . S
C442 H427 0.930 . S
C442 C437 1.390 . S
C442 C441 1.387 . S
H443 C455 0.930 . S
H444 C457 0.930 . S
H445 C458 0.930 . S
H446 C462 0.959 . S
H447 C462 0.959 . S
H448 C462 0.961 . S
H449 C463 0.960 . S
H450 C463 0.961 . S
H451 C463 0.959 . S
H452 C466 0.929 . S
H453 C467 0.931 . S
H454 C469 0.930 . S
C455 H443 0.930 . S
C455 C456 1.399 . S
C455 C460 1.399 . S
C456 C455 1.399 . S
C456 C457 1.376 . S
C457 H444 0.930 . S
C457 C456 1.376 . S
C457 C458 1.388 . S
C458 H445 0.930 . S
C458 C457 1.388 . S
C458 C459 1.390 . S
C459 C458 1.390 . S
C459 C460 1.394 . S
C459 C465 1.465 . S
C460 C455 1.399 . S
C460 C459 1.394 . S
C460 C461 1.516 . S
C461 C460 1.516 . S
C461 C462 1.502 . S
C461 C463 1.561 . S
C461 C464 1.526 . S
C462 H446 0.959 . S
C462 H447 0.959 . S
C462 H448 0.961 . S
C462 C461 1.502 . S
C463 H449 0.960 . S
C463 H450 0.961 . S
C463 H451 0.959 . S
C463 C461 1.561 . S
C464 C461 1.526 . S
C464 C465 1.396 . S
C464 C469 1.390 . S
C465 C459 1.465 . S
C465 C464 1.396 . S
C465 C466 1.399 . S
C466 H452 0.929 . S
C466 C465 1.399 . S
C466 C467 1.385 . S
C467 H453 0.931 . S
C467 C466 1.385 . S
C467 C468 1.389 . S
C468 C467 1.389 . S
C468 C469 1.387 . S
C469 H454 0.930 . S
C469 C464 1.390 . S
C469 C468 1.387 . S
H470 C482 0.930 . S
H471 C484 0.930 . S
H472 C485 0.930 . S
H473 C489 0.959 . S
H474 C489 0.959 . S
H475 C489 0.961 . S
H476 C490 0.960 . S
H477 C490 0.961 . S
H478 C490 0.959 . S
H479 C493 0.929 . S
H480 C494 0.931 . S
H481 C496 0.930 . S
C482 H470 0.930 . S
C482 C483 1.399 . S
C482 C487 1.399 . S
C483 C482 1.399 . S
C483 C484 1.376 . S
C484 H471 0.930 . S
C484 C483 1.376 . S
C484 C485 1.388 . S
C485 H472 0.930 . S
C485 C484 1.388 . S
C485 C486 1.390 . S
C486 C485 1.390 . S
C486 C487 1.394 . S
C486 C492 1.465 . S
C487 C482 1.399 . S
C487 C486 1.394 . S
C487 C488 1.516 . S
C488 C487 1.516 . S
C488 C489 1.502 . S
C488 C490 1.561 . S
C488 C491 1.526 . S
C489 H473 0.959 . S
C489 H474 0.959 . S
C489 H475 0.961 . S
C489 C488 1.502 . S
C490 H476 0.960 . S
C490 H477 0.961 . S
C490 H478 0.959 . S
C490 C488 1.561 . S
C491 C488 1.526 . S
C491 C492 1.396 . S
C491 C496 1.390 . S
C492 C486 1.465 . S
C492 C491 1.396 . S
C492 C493 1.399 . S
C493 H479 0.929 . S
C493 C492 1.399 . S
C493 C494 1.385 . S
C494 H480 0.931 . S
C494 C493 1.385 . S
C494 C495 1.389 . S
C495 C494 1.389 . S
C495 C496 1.387 . S
C496 H481 0.930 . S
C496 C491 1.390 . S
C496 C495 1.387 . S
H497 C509 0.930 . S
H498 C511 0.930 . S
H499 C512 0.930 . S
H500 C516 0.959 . S
H501 C516 0.959 . S
H502 C516 0.961 . S
H503 C517 0.960 . S
H504 C517 0.961 . S
H505 C517 0.959 . S
H506 C520 0.929 . S
H507 C521 0.931 . S
H508 C523 0.930 . S
C509 H497 0.930 . S
C509 C510 1.399 . S
C509 C514 1.399 . S
C510 C509 1.399 . S
C510 C511 1.376 . S
C511 H498 0.930 . S
C511 C510 1.376 . S
C511 C512 1.388 . S
C512 H499 0.930 . S
C512 C511 1.388 . S
C512 C513 1.390 . S
C513 C512 1.390 . S
C513 C514 1.394 . S
C513 C519 1.465 . S
C514 C509 1.399 . S
C514 C513 1.394 . S
C514 C515 1.516 . S
C515 C514 1.516 . S
C515 C516 1.502 . S
C515 C517 1.561 . S
C515 C518 1.526 . S
C516 H500 0.959 . S
C516 H501 0.959 . S
C516 H502 0.961 . S
C516 C515 1.502 . S
C517 H503 0.960 . S
C517 H504 0.961 . S
C517 H505 0.959 . S
C517 C515 1.561 . S
C518 C515 1.526 . S
C518 C519 1.396 . S
C518 C523 1.390 . S
C519 C513 1.465 . S
C519 C518 1.396 . S
C519 C520 1.399 . S
C520 H506 0.929 . S
C520 C519 1.399 . S
C520 C521 1.385 . S
C521 H507 0.931 . S
C521 C520 1.385 . S
C521 C522 1.389 . S
C522 C521 1.389 . S
C522 C523 1.387 . S
C523 H508 0.930 . S
C523 C518 1.390 . S
C523 C522 1.387 . S
H524 C536 0.930 . S
H525 C538 0.930 . S
H526 C539 0.930 . S
H527 C543 0.959 . S
H528 C543 0.959 . S
H529 C543 0.961 . S
H530 C544 0.960 . S
H531 C544 0.961 . S
H532 C544 0.959 . S
H533 C547 0.929 . S
H534 C548 0.931 . S
H535 C550 0.930 . S
C536 H524 0.930 . S
C536 C537 1.399 . S
C536 C541 1.399 . S
C537 C536 1.399 . S
C537 C538 1.376 . S
C538 H525 0.930 . S
C538 C537 1.376 . S
C538 C539 1.388 . S
C539 H526 0.930 . S
C539 C538 1.388 . S
C539 C540 1.390 . S
C540 C539 1.390 . S
C540 C541 1.394 . S
C540 C546 1.465 . S
C541 C536 1.399 . S
C541 C540 1.394 . S
C541 C542 1.516 . S
C542 C541 1.516 . S
C542 C543 1.502 . S
C542 C544 1.561 . S
C542 C545 1.526 . S
C543 H527 0.959 . S
C543 H528 0.959 . S
C543 H529 0.961 . S
C543 C542 1.502 . S
C544 H530 0.960 . S
C544 H531 0.961 . S
C544 H532 0.959 . S
C544 C542 1.561 . S
C545 C542 1.526 . S
C545 C546 1.396 . S
C545 C550 1.390 . S
C546 C540 1.465 . S
C546 C545 1.396 . S
C546 C547 1.399 . S
C547 H533 0.929 . S
C547 C546 1.399 . S
C547 C548 1.385 . S
C548 H534 0.931 . S
C548 C547 1.385 . S
C548 C549 1.389 . S
C549 C548 1.389 . S
C549 C550 1.387 . S
C550 H535 0.930 . S
C550 C545 1.390 . S
C550 C549 1.387 . S
H551 C563 0.930 . S
H552 C565 0.930 . S
H553 C566 0.930 . S
H554 C570 0.959 . S
H555 C570 0.959 . S
H556 C570 0.961 . S
H557 C571 0.960 . S
H558 C571 0.961 . S
H559 C571 0.959 . S
H560 C574 0.929 . S
H561 C575 0.931 . S
H562 C577 0.930 . S
C563 H551 0.930 . S
C563 C564 1.399 . S
C563 C568 1.399 . S
C564 C563 1.399 . S
C564 C565 1.376 . S
C565 H552 0.930 . S
C565 C564 1.376 . S
C565 C566 1.388 . S
C566 H553 0.930 . S
C566 C565 1.388 . S
C566 C567 1.390 . S
C567 C566 1.390 . S
C567 C568 1.394 . S
C567 C573 1.465 . S
C568 C563 1.399 . S
C568 C567 1.394 . S
C568 C569 1.516 . S
C569 C568 1.516 . S
C569 C570 1.502 . S
C569 C571 1.561 . S
C569 C572 1.526 . S
C570 H554 0.959 . S
C570 H555 0.959 . S
C570 H556 0.961 . S
C570 C569 1.502 . S
C571 H557 0.960 . S
C571 H558 0.961 . S
C571 H559 0.959 . S
C571 C569 1.561 . S
C572 C569 1.526 . S
C572 C573 1.396 . S
C572 C577 1.390 . S
C573 C567 1.465 . S
C573 C572 1.396 . S
C573 C574 1.399 . S
C574 H560 0.929 . S
C574 C573 1.399 . S
C574 C575 1.385 . S
C575 H561 0.931 . S
C575 C574 1.385 . S
C575 C576 1.389 . S
C576 C575 1.389 . S
C576 C577 1.387 . S
C577 H562 0.930 . S
C577 C572 1.390 . S
C577 C576 1.387 . S
H578 C590 0.930 . S
H579 C592 0.930 . S
H580 C593 0.930 . S
H581 C597 0.959 . S
H582 C597 0.959 . S
H583 C597 0.961 . S
H584 C598 0.960 . S
H585 C598 0.961 . S
H586 C598 0.959 . S
H587 C601 0.929 . S
H588 C602 0.931 . S
H589 C604 0.930 . S
C590 H578 0.930 . S
C590 C591 1.399 . S
C590 C595 1.399 . S
C591 C590 1.399 . S
C591 C592 1.376 . S
C592 H579 0.930 . S
C592 C591 1.376 . S
C592 C593 1.388 . S
C593 H580 0.930 . S
C593 C592 1.388 . S
C593 C594 1.390 . S
C594 C593 1.390 . S
C594 C595 1.394 . S
C594 C600 1.465 . S
C595 C590 1.399 . S
C595 C594 1.394 . S
C595 C596 1.516 . S
C596 C595 1.516 . S
C596 C597 1.502 . S
C596 C598 1.561 . S
C596 C599 1.526 . S
C597 H581 0.959 . S
C597 H582 0.959 . S
C597 H583 0.961 . S
C597 C596 1.502 . S
C598 H584 0.960 . S
C598 H585 0.961 . S
C598 H586 0.959 . S
C598 C596 1.561 . S
C599 C596 1.526 . S
C599 C600 1.396 . S
C599 C604 1.390 . S
C600 C594 1.465 . S
C600 C599 1.396 . S
C600 C601 1.399 . S
C601 H587 0.929 . S
C601 C600 1.399 . S
C601 C602 1.385 . S
C602 H588 0.931 . S
C602 C601 1.385 . S
C602 C603 1.389 . S
C603 C602 1.389 . S
C603 C604 1.387 . S
C604 H589 0.930 . S
C604 C599 1.390 . S
C604 C603 1.387 . S
H605 C617 0.930 . S
H606 C619 0.930 . S
H607 C620 0.930 . S
H608 C624 0.959 . S
H609 C624 0.959 . S
H610 C624 0.961 . S
H611 C625 0.960 . S
H612 C625 0.961 . S
H613 C625 0.959 . S
H614 C628 0.929 . S
H615 C629 0.931 . S
H616 C631 0.930 . S
C617 H605 0.930 . S
C617 C618 1.399 . S
C617 C622 1.399 . S
C618 C617 1.399 . S
C618 C619 1.376 . S
C619 H606 0.930 . S
C619 C618 1.376 . S
C619 C620 1.388 . S
C620 H607 0.930 . S
C620 C619 1.388 . S
C620 C621 1.390 . S
C621 C620 1.390 . S
C621 C622 1.394 . S
C621 C627 1.465 . S
C622 C617 1.399 . S
C622 C621 1.394 . S
C622 C623 1.516 . S
C623 C622 1.516 . S
C623 C624 1.502 . S
C623 C625 1.561 . S
C623 C626 1.526 . S
C624 H608 0.959 . S
C624 H609 0.959 . S
C624 H610 0.961 . S
C624 C623 1.502 . S
C625 H611 0.960 . S
C625 H612 0.961 . S
C625 H613 0.959 . S
C625 C623 1.561 . S
C626 C623 1.526 . S
C626 C627 1.396 . S
C626 C631 1.390 . S
C627 C621 1.465 . S
C627 C626 1.396 . S
C627 C628 1.399 . S
C628 H614 0.929 . S
C628 C627 1.399 . S
C628 C629 1.385 . S
C629 H615 0.931 . S
C629 C628 1.385 . S
C629 C630 1.389 . S
C630 C629 1.389 . S
C630 C631 1.387 . S
C631 H616 0.930 . S
C631 C626 1.390 . S
C631 C630 1.387 . S
H632 C644 0.930 . S
H633 C646 0.930 . S
H634 C647 0.930 . S
H635 C651 0.959 . S
H636 C651 0.959 . S
H637 C651 0.961 . S
H638 C652 0.960 . S
H639 C652 0.961 . S
H640 C652 0.959 . S
H641 C655 0.929 . S
H642 C656 0.931 . S
H643 C658 0.930 . S
C644 H632 0.930 . S
C644 C645 1.399 . S
C644 C649 1.399 . S
C645 C644 1.399 . S
C645 C646 1.376 . S
C646 H633 0.930 . S
C646 C645 1.376 . S
C646 C647 1.388 . S
C647 H634 0.930 . S
C647 C646 1.388 . S
C647 C648 1.390 . S
C648 C647 1.390 . S
C648 C649 1.394 . S
C648 C654 1.465 . S
C649 C644 1.399 . S
C649 C648 1.394 . S
C649 C650 1.516 . S
C650 C649 1.516 . S
C650 C651 1.502 . S
C650 C652 1.561 . S
C650 C653 1.526 . S
C651 H635 0.959 . S
C651 H636 0.959 . S
C651 H637 0.961 . S
C651 C650 1.502 . S
C652 H638 0.960 . S
C652 H639 0.961 . S
C652 H640 0.959 . S
C652 C650 1.561 . S
C653 C650 1.526 . S
C653 C654 1.396 . S
C653 C658 1.390 . S
C654 C648 1.465 . S
C654 C653 1.396 . S
C654 C655 1.399 . S
C655 H641 0.929 . S
C655 C654 1.399 . S
C655 C656 1.385 . S
C656 H642 0.931 . S
C656 C655 1.385 . S
C656 C657 1.389 . S
C657 C656 1.389 . S
C657 C658 1.387 . S
C658 H643 0.930 . S
C658 C653 1.390 . S
C658 C657 1.387 . S
H659 C671 0.930 . S
H660 C673 0.930 . S
H661 C674 0.930 . S
H662 C678 0.959 . S
H663 C678 0.959 . S
H664 C678 0.961 . S
H665 C679 0.960 . S
H666 C679 0.961 . S
H667 C679 0.959 . S
H668 C682 0.929 . S
H669 C683 0.931 . S
H670 C685 0.930 . S
C671 H659 0.930 . S
C671 C672 1.399 . S
C671 C676 1.399 . S
C672 C671 1.399 . S
C672 C673 1.376 . S
C673 H660 0.930 . S
C673 C672 1.376 . S
C673 C674 1.388 . S
C674 H661 0.930 . S
C674 C673 1.388 . S
C674 C675 1.390 . S
C675 C674 1.390 . S
C675 C676 1.394 . S
C675 C681 1.465 . S
C676 C671 1.399 . S
C676 C675 1.394 . S
C676 C677 1.516 . S
C677 C676 1.516 . S
C677 C678 1.502 . S
C677 C679 1.561 . S
C677 C680 1.526 . S
C678 H662 0.959 . S
C678 H663 0.959 . S
C678 H664 0.961 . S
C678 C677 1.502 . S
C679 H665 0.960 . S
C679 H666 0.961 . S
C679 H667 0.959 . S
C679 C677 1.561 . S
C680 C677 1.526 . S
C680 C681 1.396 . S
C680 C685 1.390 . S
C681 C675 1.465 . S
C681 C680 1.396 . S
C681 C682 1.399 . S
C682 H668 0.929 . S
C682 C681 1.399 . S
C682 C683 1.385 . S
C683 H669 0.931 . S
C683 C682 1.385 . S
C683 C684 1.389 . S
C684 C683 1.389 . S
C684 C685 1.387 . S
C685 H670 0.930 . S
C685 C680 1.390 . S
C685 C684 1.387 . S
H686 C698 0.930 . S
H687 C700 0.930 . S
H688 C701 0.930 . S
H689 C705 0.959 . S
H690 C705 0.959 . S
H691 C705 0.961 . S
H692 C706 0.960 . S
H693 C706 0.961 . S
H694 C706 0.959 . S
H695 C709 0.929 . S
H696 C710 0.931 . S
H697 C712 0.930 . S
C698 H686 0.930 . S
C698 C699 1.399 . S
C698 C703 1.399 . S
C699 C698 1.399 . S
C699 C700 1.376 . S
C700 H687 0.930 . S
C700 C699 1.376 . S
C700 C701 1.388 . S
C701 H688 0.930 . S
C701 C700 1.388 . S
C701 C702 1.390 . S
C702 C701 1.390 . S
C702 C703 1.394 . S
C702 C708 1.465 . S
C703 C698 1.399 . S
C703 C702 1.394 . S
C703 C704 1.516 . S
C704 C703 1.516 . S
C704 C705 1.502 . S
C704 C706 1.561 . S
C704 C707 1.526 . S
C705 H689 0.959 . S
C705 H690 0.959 . S
C705 H691 0.961 . S
C705 C704 1.502 . S
C706 H692 0.960 . S
C706 H693 0.961 . S
C706 H694 0.959 . S
C706 C704 1.561 . S
C707 C704 1.526 . S
C707 C708 1.396 . S
C707 C712 1.390 . S
C708 C702 1.465 . S
C708 C707 1.396 . S
C708 C709 1.399 . S
C709 H695 0.929 . S
C709 C708 1.399 . S
C709 C710 1.385 . S
C710 H696 0.931 . S
C710 C709 1.385 . S
C710 C711 1.389 . S
C711 C710 1.389 . S
C711 C712 1.387 . S
C712 H697 0.930 . S
C712 C707 1.390 . S
C712 C711 1.387 . S
H713 C725 0.930 . S
H714 C727 0.930 . S
H715 C728 0.930 . S
H716 C732 0.959 . S
H717 C732 0.959 . S
H718 C732 0.961 . S
H719 C733 0.960 . S
H720 C733 0.961 . S
H721 C733 0.959 . S
H722 C736 0.929 . S
H723 C737 0.931 . S
H724 C739 0.930 . S
C725 H713 0.930 . S
C725 C726 1.399 . S
C725 C730 1.399 . S
C726 C725 1.399 . S
C726 C727 1.376 . S
C727 H714 0.930 . S
C727 C726 1.376 . S
C727 C728 1.388 . S
C728 H715 0.930 . S
C728 C727 1.388 . S
C728 C729 1.390 . S
C729 C728 1.390 . S
C729 C730 1.394 . S
C729 C735 1.465 . S
C730 C725 1.399 . S
C730 C729 1.394 . S
C730 C731 1.516 . S
C731 C730 1.516 . S
C731 C732 1.502 . S
C731 C733 1.561 . S
C731 C734 1.526 . S
C732 H716 0.959 . S
C732 H717 0.959 . S
C732 H718 0.961 . S
C732 C731 1.502 . S
C733 H719 0.960 . S
C733 H720 0.961 . S
C733 H721 0.959 . S
C733 C731 1.561 . S
C734 C731 1.526 . S
C734 C735 1.396 . S
C734 C739 1.390 . S
C735 C729 1.465 . S
C735 C734 1.396 . S
C735 C736 1.399 . S
C736 H722 0.929 . S
C736 C735 1.399 . S
C736 C737 1.385 . S
C737 H723 0.931 . S
C737 C736 1.385 . S
C737 C738 1.389 . S
C738 C737 1.389 . S
C738 C739 1.387 . S
C739 H724 0.930 . S
C739 C734 1.390 . S
C739 C738 1.387 . S
H740 C752 0.930 . S
H741 C754 0.930 . S
H742 C755 0.930 . S
H743 C759 0.959 . S
H744 C759 0.959 . S
H745 C759 0.961 . S
H746 C760 0.960 . S
H747 C760 0.961 . S
H748 C760 0.959 . S
H749 C763 0.929 . S
H750 C764 0.931 . S
H751 C766 0.930 . S
C752 H740 0.930 . S
C752 C753 1.399 . S
C752 C757 1.399 . S
C753 C752 1.399 . S
C753 C754 1.376 . S
C754 H741 0.930 . S
C754 C753 1.376 . S
C754 C755 1.388 . S
C755 H742 0.930 . S
C755 C754 1.388 . S
C755 C756 1.390 . S
C756 C755 1.390 . S
C756 C757 1.394 . S
C756 C762 1.465 . S
C757 C752 1.399 . S
C757 C756 1.394 . S
C757 C758 1.516 . S
C758 C757 1.516 . S
C758 C759 1.502 . S
C758 C760 1.561 . S
C758 C761 1.526 . S
C759 H743 0.959 . S
C759 H744 0.959 . S
C759 H745 0.961 . S
C759 C758 1.502 . S
C760 H746 0.960 . S
C760 H747 0.961 . S
C760 H748 0.959 . S
C760 C758 1.561 . S
C761 C758 1.526 . S
C761 C762 1.396 . S
C761 C766 1.390 . S
C762 C756 1.465 . S
C762 C761 1.396 . S
C762 C763 1.399 . S
C763 H749 0.929 . S
C763 C762 1.399 . S
C763 C764 1.385 . S
C764 H750 0.931 . S
C764 C763 1.385 . S
C764 C765 1.389 . S
C765 C764 1.389 . S
C765 C766 1.387 . S
C766 H751 0.930 . S
C766 C761 1.390 . S
C766 C765 1.387 . S
H767 C779 0.930 . S
H768 C781 0.930 . S
H769 C782 0.930 . S
H770 C786 0.959 . S
H771 C786 0.959 . S
H772 C786 0.961 . S
H773 C787 0.960 . S
H774 C787 0.961 . S
H775 C787 0.959 . S
H776 C790 0.929 . S
H777 C791 0.931 . S
H778 C793 0.930 . S
C779 H767 0.930 . S
C779 C780 1.399 . S
C779 C784 1.399 . S
C780 C779 1.399 . S
C780 C781 1.376 . S
C781 H768 0.930 . S
C781 C780 1.376 . S
C781 C782 1.388 . S
C782 H769 0.930 . S
C782 C781 1.388 . S
C782 C783 1.390 . S
C783 C782 1.390 . S
C783 C784 1.394 . S
C783 C789 1.465 . S
C784 C779 1.399 . S
C784 C783 1.394 . S
C784 C785 1.516 . S
C785 C784 1.516 . S
C785 C786 1.502 . S
C785 C787 1.561 . S
C785 C788 1.526 . S
C786 H770 0.959 . S
C786 H771 0.959 . S
C786 H772 0.961 . S
C786 C785 1.502 . S
C787 H773 0.960 . S
C787 H774 0.961 . S
C787 H775 0.959 . S
C787 C785 1.561 . S
C788 C785 1.526 . S
C788 C789 1.396 . S
C788 C793 1.390 . S
C789 C783 1.465 . S
C789 C788 1.396 . S
C789 C790 1.399 . S
C790 H776 0.929 . S
C790 C789 1.399 . S
C790 C791 1.385 . S
C791 H777 0.931 . S
C791 C790 1.385 . S
C791 C792 1.389 . S
C792 C791 1.389 . S
C792 C793 1.387 . S
C793 H778 0.930 . S
C793 C788 1.390 . S
C793 C792 1.387 . S
H794 C806 0.930 . S
H795 C808 0.930 . S
H796 C809 0.930 . S
H797 C813 0.959 . S
H798 C813 0.959 . S
H799 C813 0.961 . S
H800 C814 0.960 . S
H801 C814 0.961 . S
H802 C814 0.959 . S
H803 C817 0.929 . S
H804 C818 0.931 . S
H805 C820 0.930 . S
C806 H794 0.930 . S
C806 C807 1.399 . S
C806 C811 1.399 . S
C807 C806 1.399 . S
C807 C808 1.376 . S
C808 H795 0.930 . S
C808 C807 1.376 . S
C808 C809 1.388 . S
C809 H796 0.930 . S
C809 C808 1.388 . S
C809 C810 1.390 . S
C810 C809 1.390 . S
C810 C811 1.394 . S
C810 C816 1.465 . S
C811 C806 1.399 . S
C811 C810 1.394 . S
C811 C812 1.516 . S
C812 C811 1.516 . S
C812 C813 1.502 . S
C812 C814 1.561 . S
C812 C815 1.526 . S
C813 H797 0.959 . S
C813 H798 0.959 . S
C813 H799 0.961 . S
C813 C812 1.502 . S
C814 H800 0.960 . S
C814 H801 0.961 . S
C814 H802 0.959 . S
C814 C812 1.561 . S
C815 C812 1.526 . S
C815 C816 1.396 . S
C815 C820 1.390 . S
C816 C810 1.465 . S
C816 C815 1.396 . S
C816 C817 1.399 . S
C817 H803 0.929 . S
C817 C816 1.399 . S
C817 C818 1.385 . S
C818 H804 0.931 . S
C818 C817 1.385 . S
C818 C819 1.389 . S
C819 C818 1.389 . S
C819 C820 1.387 . S
C820 H805 0.930 . S
C820 C815 1.390 . S
C820 C819 1.387 . S
H821 C833 0.930 . S
H822 C835 0.930 . S
H823 C836 0.930 . S
H824 C840 0.959 . S
H825 C840 0.959 . S
H826 C840 0.961 . S
H827 C841 0.960 . S
H828 C841 0.961 . S
H829 C841 0.959 . S
H830 C844 0.929 . S
H831 C845 0.931 . S
H832 C847 0.930 . S
C833 H821 0.930 . S
C833 C834 1.399 . S
C833 C838 1.399 . S
C834 C833 1.399 . S
C834 C835 1.376 . S
C835 H822 0.930 . S
C835 C834 1.376 . S
C835 C836 1.388 . S
C836 H823 0.930 . S
C836 C835 1.388 . S
C836 C837 1.390 . S
C837 C836 1.390 . S
C837 C838 1.394 . S
C837 C843 1.465 . S
C838 C833 1.399 . S
C838 C837 1.394 . S
C838 C839 1.516 . S
C839 C838 1.516 . S
C839 C840 1.502 . S
C839 C841 1.561 . S
C839 C842 1.526 . S
C840 H824 0.959 . S
C840 H825 0.959 . S
C840 H826 0.961 . S
C840 C839 1.502 . S
C841 H827 0.960 . S
C841 H828 0.961 . S
C841 H829 0.959 . S
C841 C839 1.561 . S
C842 C839 1.526 . S
C842 C843 1.396 . S
C842 C847 1.390 . S
C843 C837 1.465 . S
C843 C842 1.396 . S
C843 C844 1.399 . S
C844 H830 0.929 . S
C844 C843 1.399 . S
C844 C845 1.385 . S
C845 H831 0.931 . S
C845 C844 1.385 . S
C845 C846 1.389 . S
C846 C845 1.389 . S
C846 C847 1.387 . S
C847 H832 0.930 . S
C847 C842 1.390 . S
C847 C846 1.387 . S
H848 C860 0.930 . S
H849 C862 0.930 . S
H850 C863 0.930 . S
H851 C867 0.959 . S
H852 C867 0.959 . S
H853 C867 0.961 . S
H854 C868 0.960 . S
H855 C868 0.961 . S
H856 C868 0.959 . S
H857 C871 0.929 . S
H858 C872 0.931 . S
H859 C874 0.930 . S
C860 H848 0.930 . S
C860 C861 1.399 . S
C860 C865 1.399 . S
C861 C860 1.399 . S
C861 C862 1.376 . S
C862 H849 0.930 . S
C862 C861 1.376 . S
C862 C863 1.388 . S
C863 H850 0.930 . S
C863 C862 1.388 . S
C863 C864 1.390 . S
C864 C863 1.390 . S
C864 C865 1.394 . S
C864 C870 1.465 . S
C865 C860 1.399 . S
C865 C864 1.394 . S
C865 C866 1.516 . S
C866 C865 1.516 . S
C866 C867 1.502 . S
C866 C868 1.561 . S
C866 C869 1.526 . S
C867 H851 0.959 . S
C867 H852 0.959 . S
C867 H853 0.961 . S
C867 C866 1.502 . S
C868 H854 0.960 . S
C868 H855 0.961 . S
C868 H856 0.959 . S
C868 C866 1.561 . S
C869 C866 1.526 . S
C869 C870 1.396 . S
C869 C874 1.390 . S
C870 C864 1.465 . S
C870 C869 1.396 . S
C870 C871 1.399 . S
C871 H857 0.929 . S
C871 C870 1.399 . S
C871 C872 1.385 . S
C872 H858 0.931 . S
C872 C871 1.385 . S
C872 C873 1.389 . S
C873 C872 1.389 . S
C873 C874 1.387 . S
C874 H859 0.930 . S
C874 C869 1.390 . S
C874 C873 1.387 . S
H875 C887 0.930 . S
H876 C889 0.930 . S
H877 C890 0.930 . S
H878 C894 0.959 . S
H879 C894 0.959 . S
H880 C894 0.961 . S
H881 C895 0.960 . S
H882 C895 0.961 . S
H883 C895 0.959 . S
H884 C898 0.929 . S
H885 C899 0.931 . S
H886 C901 0.930 . S
C887 H875 0.930 . S
C887 C888 1.399 . S
C887 C892 1.399 . S
C888 C887 1.399 . S
C888 C889 1.376 . S
C889 H876 0.930 . S
C889 C888 1.376 . S
C889 C890 1.388 . S
C890 H877 0.930 . S
C890 C889 1.388 . S
C890 C891 1.390 . S
C891 C890 1.390 . S
C891 C892 1.394 . S
C891 C897 1.465 . S
C892 C887 1.399 . S
C892 C891 1.394 . S
C892 C893 1.516 . S
C893 C892 1.516 . S
C893 C894 1.502 . S
C893 C895 1.561 . S
C893 C896 1.526 . S
C894 H878 0.959 . S
C894 H879 0.959 . S
C894 H880 0.961 . S
C894 C893 1.502 . S
C895 H881 0.960 . S
C895 H882 0.961 . S
C895 H883 0.959 . S
C895 C893 1.561 . S
C896 C893 1.526 . S
C896 C897 1.396 . S
C896 C901 1.390 1_655 S
C897 C891 1.465 . S
C897 C896 1.396 . S
C897 C898 1.399 . S
C898 H884 0.929 . S
C898 C897 1.399 . S
C898 C899 1.385 1_655 S
C899 H885 0.931 . S
C899 C898 1.385 1_455 S
C899 C900 1.389 . S
C900 C899 1.389 . S
C900 C901 1.387 . S
C901 H886 0.930 . S
C901 C896 1.390 1_455 S
C901 C900 1.387 . S
H902 C914 0.930 . S
H903 C916 0.930 . S
H904 C917 0.930 . S
H905 C921 0.959 . S
H906 C921 0.959 . S
H907 C921 0.961 . S
H908 C922 0.960 . S
H909 C922 0.961 . S
H910 C922 0.959 . S
H911 C925 0.929 . S
H912 C926 0.931 . S
H913 C928 0.930 . S
C914 H902 0.930 . S
C914 C915 1.399 . S
C914 C919 1.399 . S
C915 C914 1.399 . S
C915 C916 1.376 . S
C916 H903 0.930 . S
C916 C915 1.376 . S
C916 C917 1.388 . S
C917 H904 0.930 . S
C917 C916 1.388 . S
C917 C918 1.390 . S
C918 C917 1.390 . S
C918 C919 1.394 . S
C918 C924 1.465 . S
C919 C914 1.399 . S
C919 C918 1.394 . S
C919 C920 1.516 . S
C920 C919 1.516 . S
C920 C921 1.502 . S
C920 C922 1.561 . S
C920 C923 1.526 . S
C921 H905 0.959 . S
C921 H906 0.959 . S
C921 H907 0.961 . S
C921 C920 1.502 . S
C922 H908 0.960 . S
C922 H909 0.961 . S
C922 H910 0.959 . S
C922 C920 1.561 . S
C923 C920 1.526 . S
C923 C924 1.396 . S
C923 C928 1.390 . S
C924 C918 1.465 . S
C924 C923 1.396 . S
C924 C925 1.399 . S
C925 H911 0.929 . S
C925 C924 1.399 . S
C925 C926 1.385 . S
C926 H912 0.931 . S
C926 C925 1.385 . S
C926 C927 1.389 . S
C927 C926 1.389 . S
C927 C928 1.387 . S
C928 H913 0.930 . S
C928 C923 1.390 . S
C928 C927 1.387 . S
H929 C941 0.930 . S
H930 C943 0.930 . S
H931 C944 0.930 . S
H932 C948 0.959 . S
H933 C948 0.959 . S
H934 C948 0.961 . S
H935 C949 0.960 . S
H936 C949 0.961 . S
H937 C949 0.959 . S
H938 C952 0.929 . S
H939 C953 0.931 . S
H940 C955 0.930 . S
C941 H929 0.930 . S
C941 C942 1.399 . S
C941 C946 1.399 . S
C942 C941 1.399 . S
C942 C943 1.376 . S
C943 H930 0.930 . S
C943 C942 1.376 . S
C943 C944 1.388 . S
C944 H931 0.930 . S
C944 C943 1.388 . S
C944 C945 1.390 . S
C945 C944 1.390 . S
C945 C946 1.394 . S
C945 C951 1.465 . S
C946 C941 1.399 . S
C946 C945 1.394 . S
C946 C947 1.516 . S
C947 C946 1.516 . S
C947 C948 1.502 . S
C947 C949 1.561 . S
C947 C950 1.526 . S
C948 H932 0.959 . S
C948 H933 0.959 . S
C948 H934 0.961 . S
C948 C947 1.502 . S
C949 H935 0.960 . S
C949 H936 0.961 . S
C949 H937 0.959 . S
C949 C947 1.561 . S
C950 C947 1.526 . S
C950 C951 1.396 . S
C950 C955 1.390 . S
C951 C945 1.465 . S
C951 C950 1.396 . S
C951 C952 1.399 . S
C952 H938 0.929 . S
C952 C951 1.399 . S
C952 C953 1.385 . S
C953 H939 0.931 . S
C953 C952 1.385 . S
C953 C954 1.389 . S
C954 C953 1.389 . S
C954 C955 1.387 . S
C955 H940 0.930 . S
C955 C950 1.390 . S
C955 C954 1.387 . S
H956 C968 0.930 . S
H957 C970 0.930 . S
H958 C971 0.930 . S
H959 C975 0.959 . S
H960 C975 0.959 . S
H961 C975 0.961 . S
H962 C976 0.960 . S
H963 C976 0.961 . S
H964 C976 0.959 . S
H965 C979 0.929 . S
H966 C980 0.931 . S
H967 C982 0.930 . S
C968 H956 0.930 . S
C968 C969 1.399 . S
C968 C973 1.399 . S
C969 C968 1.399 . S
C969 C970 1.376 . S
C970 H957 0.930 . S
C970 C969 1.376 . S
C970 C971 1.388 . S
C971 H958 0.930 . S
C971 C970 1.388 . S
C971 C972 1.390 . S
C972 C971 1.390 . S
C972 C973 1.394 . S
C972 C978 1.465 . S
C973 C968 1.399 . S
C973 C972 1.394 . S
C973 C974 1.516 . S
C974 C973 1.516 . S
C974 C975 1.502 . S
C974 C976 1.561 . S
C974 C977 1.526 . S
C975 H959 0.959 . S
C975 H960 0.959 . S
C975 H961 0.961 . S
C975 C974 1.502 . S
C976 H962 0.960 . S
C976 H963 0.961 . S
C976 H964 0.959 . S
C976 C974 1.561 . S
C977 C974 1.526 . S
C977 C978 1.396 . S
C977 C982 1.390 . S
C978 C972 1.465 . S
C978 C977 1.396 . S
C978 C979 1.399 . S
C979 H965 0.929 . S
C979 C978 1.399 . S
C979 C980 1.385 . S
C980 H966 0.931 . S
C980 C979 1.385 . S
C980 C981 1.389 . S
C981 C980 1.389 . S
C981 C982 1.387 . S
C982 H967 0.930 . S
C982 C977 1.390 . S
C982 C981 1.387 . S
H983 C995 0.930 . S
H984 C997 0.930 . S
H985 C998 0.930 . S
H986 C1002 0.959 . S
H987 C1002 0.959 . S
H988 C1002 0.961 . S
H989 C1003 0.960 . S
H990 C1003 0.961 . S
H991 C1003 0.959 . S
H992 C1006 0.929 . S
H993 C1007 0.931 . S
H994 C1009 0.930 . S
C995 H983 0.930 . S
C995 C996 1.399 . S
C995 C1000 1.399 . S
C996 C995 1.399 . S
C996 C997 1.376 . S
C997 H984 0.930 . S
C997 C996 1.376 . S
C997 C998 1.388 . S
C998 H985 0.930 . S
C998 C997 1.388 . S
C998 C999 1.390 . S
C999 C998 1.390 . S
C999 C1000 1.394 . S
C999 C1005 1.465 . S
C1000 C995 1.399 . S
C1000 C999 1.394 . S
C1000 C1001 1.516 . S
C1001 C1000 1.516 . S
C1001 C1002 1.502 . S
C1001 C1003 1.561 . S
C1001 C1004 1.526 . S
C1002 H986 0.959 . S
C1002 H987 0.959 . S
C1002 H988 0.961 . S
C1002 C1001 1.502 . S
C1003 H989 0.960 . S
C1003 H990 0.961 . S
C1003 H991 0.959 . S
C1003 C1001 1.561 . S
C1004 C1001 1.526 . S
C1004 C1005 1.396 . S
C1004 C1009 1.390 . S
C1005 C999 1.465 . S
C1005 C1004 1.396 . S
C1005 C1006 1.399 . S
C1006 H992 0.929 . S
C1006 C1005 1.399 . S
C1006 C1007 1.385 . S
C1007 H993 0.931 . S
C1007 C1006 1.385 . S
C1007 C1008 1.389 . S
C1008 C1007 1.389 . S
C1008 C1009 1.387 . S
C1009 H994 0.930 . S
C1009 C1004 1.390 . S
C1009 C1008 1.387 . S
H1010 C1022 0.930 . S
H1011 C1024 0.930 . S
H1012 C1025 0.930 . S
H1013 C1029 0.959 . S
H1014 C1029 0.959 . S
H1015 C1029 0.961 . S
H1016 C1030 0.960 . S
H1017 C1030 0.961 . S
H1018 C1030 0.959 . S
H1019 C1033 0.929 . S
H1020 C1034 0.931 . S
H1021 C1036 0.930 . S
C1022 H1010 0.930 . S
C1022 C1023 1.399 . S
C1022 C1027 1.399 . S
C1023 C1022 1.399 . S
C1023 C1024 1.376 . S
C1024 H1011 0.930 . S
C1024 C1023 1.376 . S
C1024 C1025 1.388 . S
C1025 H1012 0.930 . S
C1025 C1024 1.388 . S
C1025 C1026 1.390 . S
C1026 C1025 1.390 . S
C1026 C1027 1.394 . S
C1026 C1032 1.465 . S
C1027 C1022 1.399 . S
C1027 C1026 1.394 . S
C1027 C1028 1.516 . S
C1028 C1027 1.516 . S
C1028 C1029 1.502 . S
C1028 C1030 1.561 . S
C1028 C1031 1.526 . S
C1029 H1013 0.959 . S
C1029 H1014 0.959 . S
C1029 H1015 0.961 . S
C1029 C1028 1.502 . S
C1030 H1016 0.960 . S
C1030 H1017 0.961 . S
C1030 H1018 0.959 . S
C1030 C1028 1.561 . S
C1031 C1028 1.526 . S
C1031 C1032 1.396 . S
C1031 C1036 1.390 . S
C1032 C1026 1.465 . S
C1032 C1031 1.396 . S
C1032 C1033 1.399 . S
C1033 H1019 0.929 . S
C1033 C1032 1.399 . S
C1033 C1034 1.385 . S
C1034 H1020 0.931 . S
C1034 C1033 1.385 . S
C1034 C1035 1.389 . S
C1035 C1034 1.389 . S
C1035 C1036 1.387 . S
C1036 H1021 0.930 . S
C1036 C1031 1.390 . S
C1036 C1035 1.387 . S
H1037 C1049 0.930 . S
H1038 C1051 0.930 . S
H1039 C1052 0.930 . S
H1040 C1056 0.959 . S
H1041 C1056 0.959 . S
H1042 C1056 0.961 1_455 S
H1043 C1057 0.960 . S
H1044 C1057 0.961 . S
H1045 C1057 0.959 . S
H1046 C1060 0.929 . S
H1047 C1061 0.931 . S
H1048 C1063 0.930 . S
C1049 H1037 0.930 . S
C1049 C1050 1.399 . S
C1049 C1054 1.399 1_455 S
C1050 C1049 1.399 . S
C1050 C1051 1.376 . S
C1051 H1038 0.930 . S
C1051 C1050 1.376 . S
C1051 C1052 1.388 1_455 S
C1052 H1039 0.930 . S
C1052 C1051 1.388 1_655 S
C1052 C1053 1.390 . S
C1053 C1052 1.390 . S
C1053 C1054 1.394 . S
C1053 C1059 1.465 . S
C1054 C1049 1.399 1_655 S
C1054 C1053 1.394 . S
C1054 C1055 1.516 . S
C1055 C1054 1.516 . S
C1055 C1056 1.502 . S
C1055 C1057 1.561 . S
C1055 C1058 1.526 . S
C1056 H1040 0.959 . S
C1056 H1041 0.959 . S
C1056 H1042 0.961 1_655 S
C1056 C1055 1.502 . S
C1057 H1043 0.960 . S
C1057 H1044 0.961 . S
C1057 H1045 0.959 . S
C1057 C1055 1.561 . S
C1058 C1055 1.526 . S
C1058 C1059 1.396 . S
C1058 C1063 1.390 . S
C1059 C1053 1.465 . S
C1059 C1058 1.396 . S
C1059 C1060 1.399 . S
C1060 H1046 0.929 . S
C1060 C1059 1.399 . S
C1060 C1061 1.385 . S
C1061 H1047 0.931 . S
C1061 C1060 1.385 . S
C1061 C1062 1.389 . S
C1062 C1061 1.389 . S
C1062 C1063 1.387 . S
C1063 H1048 0.930 . S
C1063 C1058 1.390 . S
C1063 C1062 1.387 . S
H1064 C1076 0.930 . S
H1065 C1078 0.930 . S
H1066 C1079 0.930 . S
H1067 C1083 0.959 . S
H1068 C1083 0.959 . S
H1069 C1083 0.961 . S
H1070 C1084 0.960 . S
H1071 C1084 0.961 . S
H1072 C1084 0.959 . S
H1073 C1087 0.929 . S
H1074 C1088 0.931 . S
H1075 C1090 0.930 . S
C1076 H1064 0.930 . S
C1076 C1077 1.399 . S
C1076 C1081 1.399 . S
C1077 C1076 1.399 . S
C1077 C1078 1.376 . S
C1078 H1065 0.930 . S
C1078 C1077 1.376 . S
C1078 C1079 1.388 . S
C1079 H1066 0.930 . S
C1079 C1078 1.388 . S
C1079 C1080 1.390 . S
C1080 C1079 1.390 . S
C1080 C1081 1.394 . S
C1080 C1086 1.465 . S
C1081 C1076 1.399 . S
C1081 C1080 1.394 . S
C1081 C1082 1.516 . S
C1082 C1081 1.516 . S
C1082 C1083 1.502 . S
C1082 C1084 1.561 . S
C1082 C1085 1.526 . S
C1083 H1067 0.959 . S
C1083 H1068 0.959 . S
C1083 H1069 0.961 . S
C1083 C1082 1.502 . S
C1084 H1070 0.960 . S
C1084 H1071 0.961 . S
C1084 H1072 0.959 . S
C1084 C1082 1.561 . S
C1085 C1082 1.526 . S
C1085 C1086 1.396 . S
C1085 C1090 1.390 . S
C1086 C1080 1.465 . S
C1086 C1085 1.396 . S
C1086 C1087 1.399 . S
C1087 H1073 0.929 . S
C1087 C1086 1.399 . S
C1087 C1088 1.385 . S
C1088 H1074 0.931 . S
C1088 C1087 1.385 . S
C1088 C1089 1.389 . S
C1089 C1088 1.389 . S
C1089 C1090 1.387 . S
C1090 H1075 0.930 . S
C1090 C1085 1.390 . S
C1090 C1089 1.387 . S
H1091 C1103 0.930 . S
H1092 C1105 0.930 . S
H1093 C1106 0.931 . S
H1094 C1110 0.959 . S
H1095 C1110 0.959 . S
H1096 C1110 0.961 . S
H1097 C1111 0.960 . S
H1098 C1111 0.961 . S
H1099 C1111 0.959 . S
H1100 C1114 0.929 . S
H1101 C1115 0.931 . S
H1102 C1117 0.930 . S
C1103 H1091 0.930 . S
C1103 C1104 1.399 . S
C1103 C1108 1.399 1_655 S
C1104 C1103 1.399 . S
C1104 C1105 1.376 . S
C1105 H1092 0.930 . S
C1105 C1104 1.376 . S
C1105 C1106 1.388 . S
C1106 H1093 0.931 . S
C1106 C1105 1.388 . S
C1106 C1107 1.390 1_655 S
C1107 C1106 1.390 1_455 S
C1107 C1108 1.394 . S
C1107 C1113 1.465 . S
C1108 C1103 1.399 1_455 S
C1108 C1107 1.394 . S
C1108 C1109 1.516 . S
C1109 C1108 1.516 . S
C1109 C1110 1.502 . S
C1109 C1111 1.561 . S
C1109 C1112 1.526 . S
C1110 H1094 0.959 . S
C1110 H1095 0.959 . S
C1110 H1096 0.961 . S
C1110 C1109 1.502 . S
C1111 H1097 0.960 . S
C1111 H1098 0.961 . S
C1111 H1099 0.959 . S
C1111 C1109 1.561 . S
C1112 C1109 1.526 . S
C1112 C1113 1.396 . S
C1112 C1117 1.390 . S
C1113 C1107 1.465 . S
C1113 C1112 1.396 . S
C1113 C1114 1.399 . S
C1114 H1100 0.929 . S
C1114 C1113 1.399 . S
C1114 C1115 1.385 . S
C1115 H1101 0.931 . S
C1115 C1114 1.385 . S
C1115 C1116 1.389 . S
C1116 C1115 1.389 . S
C1116 C1117 1.387 . S
C1117 H1102 0.930 . S
C1117 C1112 1.390 . S
C1117 C1116 1.387 . S
H1118 C1130 0.930 . S
H1119 C1132 0.930 . S
H1120 C1133 0.930 . S
H1121 C1137 0.959 . S
H1122 C1137 0.959 . S
H1123 C1137 0.961 . S
H1124 C1138 0.960 . S
H1125 C1138 0.961 . S
H1126 C1138 0.959 . S
H1127 C1141 0.929 . S
H1128 C1142 0.931 . S
H1129 C1144 0.930 . S
C1130 H1118 0.930 . S
C1130 C1131 1.399 . S
C1130 C1135 1.399 . S
C1131 C1130 1.399 . S
C1131 C1132 1.376 . S
C1132 H1119 0.930 . S
C1132 C1131 1.376 . S
C1132 C1133 1.388 . S
C1133 H1120 0.930 . S
C1133 C1132 1.388 . S
C1133 C1134 1.390 . S
C1134 C1133 1.390 . S
C1134 C1135 1.394 . S
C1134 C1140 1.465 . S
C1135 C1130 1.399 . S
C1135 C1134 1.394 . S
C1135 C1136 1.516 . S
C1136 C1135 1.516 . S
C1136 C1137 1.502 . S
C1136 C1138 1.561 . S
C1136 C1139 1.526 . S
C1137 H1121 0.959 . S
C1137 H1122 0.959 . S
C1137 H1123 0.961 . S
C1137 C1136 1.502 . S
C1138 H1124 0.960 . S
C1138 H1125 0.961 . S
C1138 H1126 0.959 . S
C1138 C1136 1.561 . S
C1139 C1136 1.526 . S
C1139 C1140 1.396 . S
C1139 C1144 1.390 . S
C1140 C1134 1.465 . S
C1140 C1139 1.396 . S
C1140 C1141 1.399 . S
C1141 H1127 0.929 . S
C1141 C1140 1.399 . S
C1141 C1142 1.385 . S
C1142 H1128 0.931 . S
C1142 C1141 1.385 . S
C1142 C1143 1.389 . S
C1143 C1142 1.389 . S
C1143 C1144 1.387 . S
C1144 H1129 0.930 . S
C1144 C1139 1.390 . S
C1144 C1143 1.387 . S
H1145 C1157 0.930 . S
H1146 C1159 0.930 . S
H1147 C1160 0.930 . S
H1148 C1164 0.959 . S
H1149 C1164 0.959 . S
H1150 C1164 0.961 . S
H1151 C1165 0.960 . S
H1152 C1165 0.961 . S
H1153 C1165 0.959 . S
H1154 C1168 0.929 . S
H1155 C1169 0.931 . S
H1156 C1171 0.930 . S
C1157 H1145 0.930 . S
C1157 C1158 1.399 . S
C1157 C1162 1.399 . S
C1158 C1157 1.399 . S
C1158 C1159 1.376 . S
C1159 H1146 0.930 . S
C1159 C1158 1.376 . S
C1159 C1160 1.388 . S
C1160 H1147 0.930 . S
C1160 C1159 1.388 . S
C1160 C1161 1.390 . S
C1161 C1160 1.390 . S
C1161 C1162 1.394 . S
C1161 C1167 1.465 . S
C1162 C1157 1.399 . S
C1162 C1161 1.394 . S
C1162 C1163 1.516 . S
C1163 C1162 1.516 . S
C1163 C1164 1.502 . S
C1163 C1165 1.561 . S
C1163 C1166 1.526 . S
C1164 H1148 0.959 . S
C1164 H1149 0.959 . S
C1164 H1150 0.961 . S
C1164 C1163 1.502 . S
C1165 H1151 0.960 . S
C1165 H1152 0.961 . S
C1165 H1153 0.959 . S
C1165 C1163 1.561 . S
C1166 C1163 1.526 . S
C1166 C1167 1.396 . S
C1166 C1171 1.390 . S
C1167 C1161 1.465 . S
C1167 C1166 1.396 . S
C1167 C1168 1.399 . S
C1168 H1154 0.929 . S
C1168 C1167 1.399 . S
C1168 C1169 1.385 . S
C1169 H1155 0.931 . S
C1169 C1168 1.385 . S
C1169 C1170 1.389 . S
C1170 C1169 1.389 . S
C1170 C1171 1.387 . S
C1171 H1156 0.930 . S
C1171 C1166 1.390 . S
C1171 C1170 1.387 . S
H1172 C1184 0.930 . S
H1173 C1186 0.930 . S
H1174 C1187 0.930 . S
H1175 C1191 0.959 . S
H1176 C1191 0.959 . S
H1177 C1191 0.961 . S
H1178 C1192 0.960 . S
H1179 C1192 0.961 . S
H1180 C1192 0.959 . S
H1181 C1195 0.929 . S
H1182 C1196 0.931 . S
H1183 C1198 0.930 . S
C1184 H1172 0.930 . S
C1184 C1185 1.399 . S
C1184 C1189 1.399 . S
C1185 C1184 1.399 . S
C1185 C1186 1.376 . S
C1186 H1173 0.930 . S
C1186 C1185 1.376 . S
C1186 C1187 1.388 . S
C1187 H1174 0.930 . S
C1187 C1186 1.388 . S
C1187 C1188 1.390 . S
C1188 C1187 1.390 . S
C1188 C1189 1.394 . S
C1188 C1194 1.465 . S
C1189 C1184 1.399 . S
C1189 C1188 1.394 . S
C1189 C1190 1.516 . S
C1190 C1189 1.516 . S
C1190 C1191 1.502 . S
C1190 C1192 1.561 . S
C1190 C1193 1.526 . S
C1191 H1175 0.959 . S
C1191 H1176 0.959 . S
C1191 H1177 0.961 . S
C1191 C1190 1.502 . S
C1192 H1178 0.960 . S
C1192 H1179 0.961 . S
C1192 H1180 0.959 . S
C1192 C1190 1.561 . S
C1193 C1190 1.526 . S
C1193 C1194 1.396 . S
C1193 C1198 1.390 . S
C1194 C1188 1.465 . S
C1194 C1193 1.396 . S
C1194 C1195 1.399 . S
C1195 H1181 0.929 . S
C1195 C1194 1.399 . S
C1195 C1196 1.385 . S
C1196 H1182 0.931 . S
C1196 C1195 1.385 . S
C1196 C1197 1.389 . S
C1197 C1196 1.389 . S
C1197 C1198 1.387 . S
C1198 H1183 0.930 . S
C1198 C1193 1.390 . S
C1198 C1197 1.387 . S
H1199 C1211 0.930 . S
H1200 C1213 0.930 . S
H1201 C1214 0.930 . S
H1202 C1218 0.959 . S
H1203 C1218 0.959 . S
H1204 C1218 0.961 . S
H1205 C1219 0.960 . S
H1206 C1219 0.961 . S
H1207 C1219 0.959 . S
H1208 C1222 0.929 . S
H1209 C1223 0.931 . S
H1210 C1225 0.930 . S
C1211 H1199 0.930 . S
C1211 C1212 1.399 . S
C1211 C1216 1.399 . S
C1212 C1211 1.399 . S
C1212 C1213 1.376 . S
C1213 H1200 0.930 . S
C1213 C1212 1.376 . S
C1213 C1214 1.388 . S
C1214 H1201 0.930 . S
C1214 C1213 1.388 . S
C1214 C1215 1.390 . S
C1215 C1214 1.390 . S
C1215 C1216 1.394 . S
C1215 C1221 1.465 . S
C1216 C1211 1.399 . S
C1216 C1215 1.394 . S
C1216 C1217 1.516 . S
C1217 C1216 1.516 . S
C1217 C1218 1.502 . S
C1217 C1219 1.561 . S
C1217 C1220 1.526 . S
C1218 H1202 0.959 . S
C1218 H1203 0.959 . S
C1218 H1204 0.961 . S
C1218 C1217 1.502 . S
C1219 H1205 0.960 . S
C1219 H1206 0.961 . S
C1219 H1207 0.959 . S
C1219 C1217 1.561 . S
C1220 C1217 1.526 . S
C1220 C1221 1.396 . S
C1220 C1225 1.390 . S
C1221 C1215 1.465 . S
C1221 C1220 1.396 . S
C1221 C1222 1.399 . S
C1222 H1208 0.929 . S
C1222 C1221 1.399 . S
C1222 C1223 1.385 . S
C1223 H1209 0.931 . S
C1223 C1222 1.385 . S
C1223 C1224 1.389 . S
C1224 C1223 1.389 . S
C1224 C1225 1.387 . S
C1225 H1210 0.930 . S
C1225 C1220 1.390 . S
C1225 C1224 1.387 . S
H1226 C1238 0.930 . S
H1227 C1240 0.930 . S
H1228 C1241 0.930 . S
H1229 C1245 0.959 . S
H1230 C1245 0.959 . S
H1231 C1245 0.961 . S
H1232 C1246 0.960 . S
H1233 C1246 0.961 . S
H1234 C1246 0.959 . S
H1235 C1249 0.929 . S
H1236 C1250 0.931 . S
H1237 C1252 0.930 . S
C1238 H1226 0.930 . S
C1238 C1239 1.399 . S
C1238 C1243 1.399 . S
C1239 C1238 1.399 . S
C1239 C1240 1.376 . S
C1240 H1227 0.930 . S
C1240 C1239 1.376 . S
C1240 C1241 1.388 . S
C1241 H1228 0.930 . S
C1241 C1240 1.388 . S
C1241 C1242 1.390 . S
C1242 C1241 1.390 . S
C1242 C1243 1.394 . S
C1242 C1248 1.465 . S
C1243 C1238 1.399 . S
C1243 C1242 1.394 . S
C1243 C1244 1.516 . S
C1244 C1243 1.516 . S
C1244 C1245 1.502 . S
C1244 C1246 1.561 . S
C1244 C1247 1.526 . S
C1245 H1229 0.959 . S
C1245 H1230 0.959 . S
C1245 H1231 0.961 . S
C1245 C1244 1.502 . S
C1246 H1232 0.960 . S
C1246 H1233 0.961 . S
C1246 H1234 0.959 . S
C1246 C1244 1.561 . S
C1247 C1244 1.526 . S
C1247 C1248 1.396 . S
C1247 C1252 1.390 . S
C1248 C1242 1.465 . S
C1248 C1247 1.396 . S
C1248 C1249 1.399 . S
C1249 H1235 0.929 . S
C1249 C1248 1.399 . S
C1249 C1250 1.385 . S
C1250 H1236 0.931 . S
C1250 C1249 1.385 . S
C1250 C1251 1.389 . S
C1251 C1250 1.389 . S
C1251 C1252 1.387 . S
C1252 H1237 0.930 . S
C1252 C1247 1.390 . S
C1252 C1251 1.387 . S
H1253 C1265 0.930 . S
H1254 C1267 0.930 . S
H1255 C1268 0.930 . S
H1256 C1272 0.959 . S
H1257 C1272 0.959 . S
H1258 C1272 0.961 . S
H1259 C1273 0.960 . S
H1260 C1273 0.961 . S
H1261 C1273 0.959 . S
H1262 C1276 0.929 . S
H1263 C1277 0.931 . S
H1264 C1279 0.933 . S
C1265 H1253 0.930 . S
C1265 C1266 1.399 . S
C1265 C1270 1.399 . S
C1266 C1265 1.399 . S
C1266 C1267 1.376 . S
C1267 H1254 0.930 . S
C1267 C1266 1.376 . S
C1267 C1268 1.388 . S
C1268 H1255 0.930 . S
C1268 C1267 1.388 . S
C1268 C1269 1.390 . S
C1269 C1268 1.390 . S
C1269 C1270 1.394 . S
C1269 C1275 1.465 . S
C1270 C1265 1.399 . S
C1270 C1269 1.394 . S
C1270 C1271 1.516 . S
C1271 C1270 1.516 . S
C1271 C1272 1.502 . S
C1271 C1273 1.561 . S
C1271 C1274 1.526 . S
C1272 H1256 0.959 . S
C1272 H1257 0.959 . S
C1272 H1258 0.961 . S
C1272 C1271 1.502 . S
C1273 H1259 0.960 . S
C1273 H1260 0.961 . S
C1273 H1261 0.959 . S
C1273 C1271 1.561 . S
C1274 C1271 1.526 . S
C1274 C1275 1.396 . S
C1274 C1279 1.390 1_455 S
C1275 C1269 1.465 . S
C1275 C1274 1.396 . S
C1275 C1276 1.399 1_455 S
C1276 H1262 0.929 . S
C1276 C1275 1.399 1_655 S
C1276 C1277 1.385 . S
C1277 H1263 0.931 . S
C1277 C1276 1.385 . S
C1277 C1278 1.389 . S
C1278 C1277 1.389 . S
C1278 C1279 1.387 . S
C1279 H1264 0.933 . S
C1279 C1274 1.390 1_655 S
C1279 C1278 1.387 . S
H1280 C1292 0.930 . S
H1281 C1294 0.930 . S
H1282 C1295 0.930 . S
H1283 C1299 0.959 . S
H1284 C1299 0.959 . S
H1285 C1299 0.961 . S
H1286 C1300 0.960 . S
H1287 C1300 0.961 . S
H1288 C1300 0.959 . S
H1289 C1303 0.929 . S
H1290 C1304 0.931 . S
H1291 C1306 0.930 . S
C1292 H1280 0.930 . S
C1292 C1293 1.399 . S
C1292 C1297 1.399 . S
C1293 C1292 1.399 . S
C1293 C1294 1.376 . S
C1294 H1281 0.930 . S
C1294 C1293 1.376 . S
C1294 C1295 1.388 . S
C1295 H1282 0.930 . S
C1295 C1294 1.388 . S
C1295 C1296 1.390 . S
C1296 C1295 1.390 . S
C1296 C1297 1.394 . S
C1296 C1302 1.465 . S
C1297 C1292 1.399 . S
C1297 C1296 1.394 . S
C1297 C1298 1.516 . S
C1298 C1297 1.516 . S
C1298 C1299 1.502 . S
C1298 C1300 1.561 . S
C1298 C1301 1.526 . S
C1299 H1283 0.959 . S
C1299 H1284 0.959 . S
C1299 H1285 0.961 . S
C1299 C1298 1.502 . S
C1300 H1286 0.960 . S
C1300 H1287 0.961 . S
C1300 H1288 0.959 . S
C1300 C1298 1.561 . S
C1301 C1298 1.526 . S
C1301 C1302 1.396 . S
C1301 C1306 1.390 . S
C1302 C1296 1.465 . S
C1302 C1301 1.396 . S
C1302 C1303 1.399 . S
C1303 H1289 0.929 . S
C1303 C1302 1.399 . S
C1303 C1304 1.385 . S
C1304 H1290 0.931 . S
C1304 C1303 1.385 . S
C1304 C1305 1.389 . S
C1305 C1304 1.389 . S
C1305 C1306 1.387 . S
C1306 H1291 0.930 . S
C1306 C1301 1.390 . S
C1306 C1305 1.387 . S
H1307 C1319 0.930 . S
H1308 C1321 0.930 . S
H1309 C1322 0.930 . S
H1310 C1326 0.959 . S
H1311 C1326 0.959 . S
H1312 C1326 0.961 . S
H1313 C1327 0.960 . S
H1314 C1327 0.961 . S
H1315 C1327 0.959 . S
H1316 C1330 0.929 . S
H1317 C1331 0.931 . S
H1318 C1333 0.930 . S
C1319 H1307 0.930 . S
C1319 C1320 1.399 . S
C1319 C1324 1.399 . S
C1320 C1319 1.399 . S
C1320 C1321 1.376 . S
C1321 H1308 0.930 . S
C1321 C1320 1.376 . S
C1321 C1322 1.388 . S
C1322 H1309 0.930 . S
C1322 C1321 1.388 . S
C1322 C1323 1.390 . S
C1323 C1322 1.390 . S
C1323 C1324 1.394 . S
C1323 C1329 1.465 . S
C1324 C1319 1.399 . S
C1324 C1323 1.394 . S
C1324 C1325 1.516 . S
C1325 C1324 1.516 . S
C1325 C1326 1.502 . S
C1325 C1327 1.561 . S
C1325 C1328 1.526 . S
C1326 H1310 0.959 . S
C1326 H1311 0.959 . S
C1326 H1312 0.961 . S
C1326 C1325 1.502 . S
C1327 H1313 0.960 . S
C1327 H1314 0.961 . S
C1327 H1315 0.959 . S
C1327 C1325 1.561 . S
C1328 C1325 1.526 . S
C1328 C1329 1.396 . S
C1328 C1333 1.390 . S
C1329 C1323 1.465 . S
C1329 C1328 1.396 . S
C1329 C1330 1.399 . S
C1330 H1316 0.929 . S
C1330 C1329 1.399 . S
C1330 C1331 1.385 . S
C1331 H1317 0.931 . S
C1331 C1330 1.385 . S
C1331 C1332 1.389 . S
C1332 C1331 1.389 . S
C1332 C1333 1.387 . S
C1333 H1318 0.930 . S
C1333 C1328 1.390 . S
C1333 C1332 1.387 . S
H1334 C1346 0.930 . S
H1335 C1348 0.930 . S
H1336 C1349 0.930 . S
H1337 C1353 0.959 . S
H1338 C1353 0.959 . S
H1339 C1353 0.961 . S
H1340 C1354 0.960 . S
H1341 C1354 0.961 . S
H1342 C1354 0.959 . S
H1343 C1357 0.929 . S
H1344 C1358 0.931 . S
H1345 C1360 0.930 . S
C1346 H1334 0.930 . S
C1346 C1347 1.399 . S
C1346 C1351 1.399 . S
C1347 C1346 1.399 . S
C1347 C1348 1.376 . S
C1348 H1335 0.930 . S
C1348 C1347 1.376 . S
C1348 C1349 1.388 . S
C1349 H1336 0.930 . S
C1349 C1348 1.388 . S
C1349 C1350 1.390 . S
C1350 C1349 1.390 . S
C1350 C1351 1.394 . S
C1350 C1356 1.465 . S
C1351 C1346 1.399 . S
C1351 C1350 1.394 . S
C1351 C1352 1.516 . S
C1352 C1351 1.516 . S
C1352 C1353 1.502 . S
C1352 C1354 1.561 . S
C1352 C1355 1.526 . S
C1353 H1337 0.959 . S
C1353 H1338 0.959 . S
C1353 H1339 0.961 . S
C1353 C1352 1.502 . S
C1354 H1340 0.960 . S
C1354 H1341 0.961 . S
C1354 H1342 0.959 . S
C1354 C1352 1.561 . S
C1355 C1352 1.526 . S
C1355 C1356 1.396 . S
C1355 C1360 1.390 . S
C1356 C1350 1.465 . S
C1356 C1355 1.396 . S
C1356 C1357 1.399 . S
C1357 H1343 0.929 . S
C1357 C1356 1.399 . S
C1357 C1358 1.385 . S
C1358 H1344 0.931 . S
C1358 C1357 1.385 . S
C1358 C1359 1.389 . S
C1359 C1358 1.389 . S
C1359 C1360 1.387 . S
C1360 H1345 0.930 . S
C1360 C1355 1.390 . S
C1360 C1359 1.387 . S
H1361 C1373 0.930 . S
H1362 C1375 0.930 . S
H1363 C1376 0.930 . S
H1364 C1380 0.959 . S
H1365 C1380 0.959 . S
H1366 C1380 0.961 . S
H1367 C1381 0.960 . S
H1368 C1381 0.961 . S
H1369 C1381 0.959 . S
H1370 C1384 0.929 . S
H1371 C1385 0.931 . S
H1372 C1387 0.930 1_455 S
C1373 H1361 0.930 . S
C1373 C1374 1.399 . S
C1373 C1378 1.399 . S
C1374 C1373 1.399 . S
C1374 C1375 1.376 . S
C1375 H1362 0.930 . S
C1375 C1374 1.376 . S
C1375 C1376 1.388 . S
C1376 H1363 0.930 . S
C1376 C1375 1.388 . S
C1376 C1377 1.390 . S
C1377 C1376 1.390 . S
C1377 C1378 1.394 . S
C1377 C1383 1.465 . S
C1378 C1373 1.399 . S
C1378 C1377 1.394 . S
C1378 C1379 1.516 . S
C1379 C1378 1.516 . S
C1379 C1380 1.502 . S
C1379 C1381 1.561 . S
C1379 C1382 1.526 . S
C1380 H1364 0.959 . S
C1380 H1365 0.959 . S
C1380 H1366 0.961 . S
C1380 C1379 1.502 . S
C1381 H1367 0.960 . S
C1381 H1368 0.961 . S
C1381 H1369 0.959 . S
C1381 C1379 1.561 . S
C1382 C1379 1.526 . S
C1382 C1383 1.396 . S
C1382 C1387 1.390 1_455 S
C1383 C1377 1.465 . S
C1383 C1382 1.396 . S
C1383 C1384 1.399 1_455 S
C1384 H1370 0.929 . S
C1384 C1383 1.399 1_655 S
C1384 C1385 1.385 . S
C1385 H1371 0.931 . S
C1385 C1384 1.385 . S
C1385 C1386 1.389 . S
C1386 C1385 1.389 . S
C1386 C1387 1.387 . S
C1387 H1372 0.930 1_655 S
C1387 C1382 1.390 1_655 S
C1387 C1386 1.387 . S
H1388 C1400 0.930 . S
H1389 C1402 0.930 . S
H1390 C1403 0.930 . S
H1391 C1407 0.959 . S
H1392 C1407 0.959 . S
H1393 C1407 0.961 . S
H1394 C1408 0.960 . S
H1395 C1408 0.961 . S
H1396 C1408 0.959 . S
H1397 C1411 0.929 . S
H1398 C1412 0.931 . S
H1399 C1414 0.930 . S
C1400 H1388 0.930 . S
C1400 C1401 1.399 . S
C1400 C1405 1.399 . S
C1401 C1400 1.399 . S
C1401 C1402 1.376 . S
C1402 H1389 0.930 . S
C1402 C1401 1.376 . S
C1402 C1403 1.388 . S
C1403 H1390 0.930 . S
C1403 C1402 1.388 . S
C1403 C1404 1.390 . S
C1404 C1403 1.390 . S
C1404 C1405 1.394 . S
C1404 C1410 1.465 . S
C1405 C1400 1.399 . S
C1405 C1404 1.394 . S
C1405 C1406 1.516 . S
C1406 C1405 1.516 . S
C1406 C1407 1.502 . S
C1406 C1408 1.561 . S
C1406 C1409 1.526 . S
C1407 H1391 0.959 . S
C1407 H1392 0.959 . S
C1407 H1393 0.961 . S
C1407 C1406 1.502 . S
C1408 H1394 0.960 . S
C1408 H1395 0.961 . S
C1408 H1396 0.959 . S
C1408 C1406 1.561 . S
C1409 C1406 1.526 . S
C1409 C1410 1.396 . S
C1409 C1414 1.390 . S
C1410 C1404 1.465 . S
C1410 C1409 1.396 . S
C1410 C1411 1.399 . S
C1411 H1397 0.929 . S
C1411 C1410 1.399 . S
C1411 C1412 1.385 . S
C1412 H1398 0.931 . S
C1412 C1411 1.385 . S
C1412 C1413 1.389 . S
C1413 C1412 1.389 . S
C1413 C1414 1.387 . S
C1414 H1399 0.930 . S
C1414 C1409 1.390 . S
C1414 C1413 1.387 . S
H1415 C1427 0.930 . S
H1416 C1429 0.930 . S
H1417 C1430 0.930 . S
H1418 C1434 0.959 . S
H1419 C1434 0.959 . S
H1420 C1434 0.961 . S
H1421 C1435 0.960 . S
H1422 C1435 0.961 . S
H1423 C1435 0.959 . S
H1424 C1438 0.929 . S
H1425 C1439 0.931 . S
H1426 C1441 0.930 . S
C1427 H1415 0.930 . S
C1427 C1428 1.399 . S
C1427 C1432 1.399 1_655 S
C1428 C1427 1.399 . S
C1428 C1429 1.376 . S
C1429 H1416 0.930 . S
C1429 C1428 1.376 . S
C1429 C1430 1.388 1_655 S
C1430 H1417 0.930 . S
C1430 C1429 1.388 1_455 S
C1430 C1431 1.390 . S
C1431 C1430 1.390 . S
C1431 C1432 1.394 . S
C1431 C1437 1.465 . S
C1432 C1427 1.399 1_455 S
C1432 C1431 1.394 . S
C1432 C1433 1.516 . S
C1433 C1432 1.516 . S
C1433 C1434 1.502 . S
C1433 C1435 1.561 . S
C1433 C1436 1.526 . S
C1434 H1418 0.959 . S
C1434 H1419 0.959 . S
C1434 H1420 0.961 . S
C1434 C1433 1.502 . S
C1435 H1421 0.960 . S
C1435 H1422 0.961 . S
C1435 H1423 0.959 . S
C1435 C1433 1.561 . S
C1436 C1433 1.526 . S
C1436 C1437 1.396 . S
C1436 C1441 1.390 . S
C1437 C1431 1.465 . S
C1437 C1436 1.396 . S
C1437 C1438 1.399 . S
C1438 H1424 0.929 . S
C1438 C1437 1.399 . S
C1438 C1439 1.385 . S
C1439 H1425 0.931 . S
C1439 C1438 1.385 . S
C1439 C1440 1.389 . S
C1440 C1439 1.389 . S
C1440 C1441 1.387 . S
C1441 H1426 0.930 . S
C1441 C1436 1.390 . S
C1441 C1440 1.387 . S
H1442 C1454 0.930 . S
H1443 C1456 0.930 . S
H1444 C1457 0.930 . S
H1445 C1461 0.959 . S
H1446 C1461 0.959 . S
H1447 C1461 0.961 . S
H1448 C1462 0.960 . S
H1449 C1462 0.961 . S
H1450 C1462 0.959 . S
H1451 C1465 0.929 . S
H1452 C1466 0.931 . S
H1453 C1468 0.930 . S
C1454 H1442 0.930 . S
C1454 C1455 1.399 . S
C1454 C1459 1.399 . S
C1455 C1454 1.399 . S
C1455 C1456 1.376 . S
C1456 H1443 0.930 . S
C1456 C1455 1.376 . S
C1456 C1457 1.388 . S
C1457 H1444 0.930 . S
C1457 C1456 1.388 . S
C1457 C1458 1.390 . S
C1458 C1457 1.390 . S
C1458 C1459 1.394 . S
C1458 C1464 1.465 . S
C1459 C1454 1.399 . S
C1459 C1458 1.394 . S
C1459 C1460 1.516 . S
C1460 C1459 1.516 . S
C1460 C1461 1.502 . S
C1460 C1462 1.561 . S
C1460 C1463 1.526 . S
C1461 H1445 0.959 . S
C1461 H1446 0.959 . S
C1461 H1447 0.961 . S
C1461 C1460 1.502 . S
C1462 H1448 0.960 . S
C1462 H1449 0.961 . S
C1462 H1450 0.959 . S
C1462 C1460 1.561 . S
C1463 C1460 1.526 . S
C1463 C1464 1.396 . S
C1463 C1468 1.390 . S
C1464 C1458 1.465 . S
C1464 C1463 1.396 . S
C1464 C1465 1.399 . S
C1465 H1451 0.929 . S
C1465 C1464 1.399 . S
C1465 C1466 1.385 . S
C1466 H1452 0.931 . S
C1466 C1465 1.385 . S
C1466 C1467 1.389 . S
C1467 C1466 1.389 . S
C1467 C1468 1.387 . S
C1468 H1453 0.930 . S
C1468 C1463 1.390 . S
C1468 C1467 1.387 . S
H1469 C1481 0.930 . S
H1470 C1483 0.930 . S
H1471 C1484 0.930 . S
H1472 C1488 0.959 . S
H1473 C1488 0.959 . S
H1474 C1488 0.961 . S
H1475 C1489 0.960 . S
H1476 C1489 0.961 . S
H1477 C1489 0.959 . S
H1478 C1492 0.929 . S
H1479 C1493 0.931 . S
H1480 C1495 0.930 . S
C1481 H1469 0.930 . S
C1481 C1482 1.399 . S
C1481 C1486 1.399 . S
C1482 C1481 1.399 . S
C1482 C1483 1.376 . S
C1483 H1470 0.930 . S
C1483 C1482 1.376 . S
C1483 C1484 1.388 . S
C1484 H1471 0.930 . S
C1484 C1483 1.388 . S
C1484 C1485 1.390 . S
C1485 C1484 1.390 . S
C1485 C1486 1.394 . S
C1485 C1491 1.465 . S
C1486 C1481 1.399 . S
C1486 C1485 1.394 . S
C1486 C1487 1.516 . S
C1487 C1486 1.516 . S
C1487 C1488 1.502 . S
C1487 C1489 1.561 . S
C1487 C1490 1.526 . S
C1488 H1472 0.959 . S
C1488 H1473 0.959 . S
C1488 H1474 0.961 . S
C1488 C1487 1.502 . S
C1489 H1475 0.960 . S
C1489 H1476 0.961 . S
C1489 H1477 0.959 . S
C1489 C1487 1.561 . S
C1490 C1487 1.526 . S
C1490 C1491 1.396 . S
C1490 C1495 1.390 . S
C1491 C1485 1.465 . S
C1491 C1490 1.396 . S
C1491 C1492 1.399 . S
C1492 H1478 0.929 . S
C1492 C1491 1.399 . S
C1492 C1493 1.385 . S
C1493 H1479 0.931 . S
C1493 C1492 1.385 . S
C1493 C1494 1.389 . S
C1494 C1493 1.389 . S
C1494 C1495 1.387 . S
C1495 H1480 0.930 . S
C1495 C1490 1.390 . S
C1495 C1494 1.387 . S
H1496 C1508 0.930 . S
H1497 C1510 0.930 . S
H1498 C1511 0.930 . S
H1499 C1515 0.959 . S
H1500 C1515 0.959 . S
H1501 C1515 0.961 . S
H1502 C1516 0.960 . S
H1503 C1516 0.961 . S
H1504 C1516 0.959 . S
H1505 C1519 0.929 . S
H1506 C1520 0.931 . S
H1507 C1522 0.930 . S
C1508 H1496 0.930 . S
C1508 C1509 1.399 . S
C1508 C1513 1.399 . S
C1509 C1508 1.399 . S
C1509 C1510 1.376 . S
C1510 H1497 0.930 . S
C1510 C1509 1.376 . S
C1510 C1511 1.388 . S
C1511 H1498 0.930 . S
C1511 C1510 1.388 . S
C1511 C1512 1.390 . S
C1512 C1511 1.390 . S
C1512 C1513 1.394 . S
C1512 C1518 1.465 . S
C1513 C1508 1.399 . S
C1513 C1512 1.394 . S
C1513 C1514 1.516 . S
C1514 C1513 1.516 . S
C1514 C1515 1.502 . S
C1514 C1516 1.561 . S
C1514 C1517 1.526 . S
C1515 H1499 0.959 . S
C1515 H1500 0.959 . S
C1515 H1501 0.961 . S
C1515 C1514 1.502 . S
C1516 H1502 0.960 . S
C1516 H1503 0.961 . S
C1516 H1504 0.959 . S
C1516 C1514 1.561 . S
C1517 C1514 1.526 . S
C1517 C1518 1.396 . S
C1517 C1522 1.390 . S
C1518 C1512 1.465 . S
C1518 C1517 1.396 . S
C1518 C1519 1.399 . S
C1519 H1505 0.929 . S
C1519 C1518 1.399 . S
C1519 C1520 1.385 . S
C1520 H1506 0.931 . S
C1520 C1519 1.385 . S
C1520 C1521 1.389 . S
C1521 C1520 1.389 . S
C1521 C1522 1.387 . S
C1522 H1507 0.930 . S
C1522 C1517 1.390 . S
C1522 C1521 1.387 . S
H1523 C1535 0.930 . S
H1524 C1537 0.930 . S
H1525 C1538 0.930 . S
H1526 C1542 0.959 . S
H1527 C1542 0.959 . S
H1528 C1542 0.961 . S
H1529 C1543 0.960 . S
H1530 C1543 0.961 . S
H1531 C1543 0.959 . S
H1532 C1546 0.929 . S
H1533 C1547 0.931 . S
H1534 C1549 0.930 . S
C1535 H1523 0.930 . S
C1535 C1536 1.399 . S
C1535 C1540 1.399 . S
C1536 C1535 1.399 . S
C1536 C1537 1.376 . S
C1537 H1524 0.930 . S
C1537 C1536 1.376 . S
C1537 C1538 1.388 . S
C1538 H1525 0.930 . S
C1538 C1537 1.388 . S
C1538 C1539 1.390 . S
C1539 C1538 1.390 . S
C1539 C1540 1.394 . S
C1539 C1545 1.465 . S
C1540 C1535 1.399 . S
C1540 C1539 1.394 . S
C1540 C1541 1.516 . S
C1541 C1540 1.516 . S
C1541 C1542 1.502 . S
C1541 C1543 1.561 . S
C1541 C1544 1.526 . S
C1542 H1526 0.959 . S
C1542 H1527 0.959 . S
C1542 H1528 0.961 . S
C1542 C1541 1.502 . S
C1543 H1529 0.960 . S
C1543 H1530 0.961 . S
C1543 H1531 0.959 . S
C1543 C1541 1.561 . S
C1544 C1541 1.526 . S
C1544 C1545 1.396 . S
C1544 C1549 1.390 . S
C1545 C1539 1.465 . S
C1545 C1544 1.396 . S
C1545 C1546 1.399 . S
C1546 H1532 0.929 . S
C1546 C1545 1.399 . S
C1546 C1547 1.385 . S
C1547 H1533 0.931 . S
C1547 C1546 1.385 . S
C1547 C1548 1.389 . S
C1548 C1547 1.389 . S
C1548 C1549 1.387 . S
C1549 H1534 0.930 . S
C1549 C1544 1.390 . S
C1549 C1548 1.387 . S
H1550 C1562 0.930 . S
H1551 C1564 0.930 . S
H1552 C1565 0.930 . S
H1553 C1569 0.959 . S
H1554 C1569 0.959 . S
H1555 C1569 0.961 . S
H1556 C1570 0.960 . S
H1557 C1570 0.961 . S
H1558 C1570 0.959 . S
H1559 C1573 0.929 . S
H1560 C1574 0.931 . S
H1561 C1576 0.930 . S
C1562 H1550 0.930 . S
C1562 C1563 1.399 . S
C1562 C1567 1.399 . S
C1563 C1562 1.399 . S
C1563 C1564 1.376 . S
C1564 H1551 0.930 . S
C1564 C1563 1.376 . S
C1564 C1565 1.388 . S
C1565 H1552 0.930 . S
C1565 C1564 1.388 . S
C1565 C1566 1.390 . S
C1566 C1565 1.390 . S
C1566 C1567 1.394 . S
C1566 C1572 1.465 . S
C1567 C1562 1.399 . S
C1567 C1566 1.394 . S
C1567 C1568 1.516 . S
C1568 C1567 1.516 . S
C1568 C1569 1.502 . S
C1568 C1570 1.561 . S
C1568 C1571 1.526 . S
C1569 H1553 0.959 . S
C1569 H1554 0.959 . S
C1569 H1555 0.961 . S
C1569 C1568 1.502 . S
C1570 H1556 0.960 . S
C1570 H1557 0.961 . S
C1570 H1558 0.959 . S
C1570 C1568 1.561 . S
C1571 C1568 1.526 . S
C1571 C1572 1.396 . S
C1571 C1576 1.390 . S
C1572 C1566 1.465 . S
C1572 C1571 1.396 . S
C1572 C1573 1.399 . S
C1573 H1559 0.929 . S
C1573 C1572 1.399 . S
C1573 C1574 1.385 . S
C1574 H1560 0.931 . S
C1574 C1573 1.385 . S
C1574 C1575 1.389 . S
C1575 C1574 1.389 . S
C1575 C1576 1.387 . S
C1576 H1561 0.930 . S
C1576 C1571 1.390 . S
C1576 C1575 1.387 . S
H1577 C1589 0.930 . S
H1578 C1591 0.930 . S
H1579 C1592 0.930 . S
H1580 C1596 0.959 . S
H1581 C1596 0.959 . S
H1582 C1596 0.961 . S
H1583 C1597 0.960 . S
H1584 C1597 0.961 . S
H1585 C1597 0.959 . S
H1586 C1600 0.929 . S
H1587 C1601 0.931 . S
H1588 C1603 0.930 . S
C1589 H1577 0.930 . S
C1589 C1590 1.399 . S
C1589 C1594 1.399 . S
C1590 C1589 1.399 . S
C1590 C1591 1.376 . S
C1591 H1578 0.930 . S
C1591 C1590 1.376 . S
C1591 C1592 1.388 . S
C1592 H1579 0.930 . S
C1592 C1591 1.388 . S
C1592 C1593 1.390 . S
C1593 C1592 1.390 . S
C1593 C1594 1.394 . S
C1593 C1599 1.465 . S
C1594 C1589 1.399 . S
C1594 C1593 1.394 . S
C1594 C1595 1.516 . S
C1595 C1594 1.516 . S
C1595 C1596 1.502 . S
C1595 C1597 1.561 . S
C1595 C1598 1.526 . S
C1596 H1580 0.959 . S
C1596 H1581 0.959 . S
C1596 H1582 0.961 . S
C1596 C1595 1.502 . S
C1597 H1583 0.960 . S
C1597 H1584 0.961 . S
C1597 H1585 0.959 . S
C1597 C1595 1.561 . S
C1598 C1595 1.526 . S
C1598 C1599 1.396 . S
C1598 C1603 1.390 1_655 S
C1599 C1593 1.465 . S
C1599 C1598 1.396 . S
C1599 C1600 1.399 . S
C1600 H1586 0.929 . S
C1600 C1599 1.399 . S
C1600 C1601 1.385 1_655 S
C1601 H1587 0.931 . S
C1601 C1600 1.385 1_455 S
C1601 C1602 1.389 . S
C1602 C1601 1.389 . S
C1602 C1603 1.387 . S
C1603 H1588 0.930 . S
C1603 C1598 1.390 1_455 S
C1603 C1602 1.387 . S
H1604 C1616 0.930 . S
H1605 C1618 0.930 . S
H1606 C1619 0.930 . S
H1607 C1623 0.959 . S
H1608 C1623 0.959 . S
H1609 C1623 0.961 . S
H1610 C1624 0.960 . S
H1611 C1624 0.961 . S
H1612 C1624 0.959 . S
H1613 C1627 0.929 . S
H1614 C1628 0.931 . S
H1615 C1630 0.930 . S
C1616 H1604 0.930 . S
C1616 C1617 1.399 . S
C1616 C1621 1.399 . S
C1617 C1616 1.399 . S
C1617 C1618 1.376 . S
C1618 H1605 0.930 . S
C1618 C1617 1.376 . S
C1618 C1619 1.388 . S
C1619 H1606 0.930 . S
C1619 C1618 1.388 . S
C1619 C1620 1.390 . S
C1620 C1619 1.390 . S
C1620 C1621 1.394 . S
C1620 C1626 1.465 . S
C1621 C1616 1.399 . S
C1621 C1620 1.394 . S
C1621 C1622 1.516 . S
C1622 C1621 1.516 . S
C1622 C1623 1.502 . S
C1622 C1624 1.561 . S
C1622 C1625 1.526 . S
C1623 H1607 0.959 . S
C1623 H1608 0.959 . S
C1623 H1609 0.961 . S
C1623 C1622 1.502 . S
C1624 H1610 0.960 . S
C1624 H1611 0.961 . S
C1624 H1612 0.959 . S
C1624 C1622 1.561 . S
C1625 C1622 1.526 . S
C1625 C1626 1.396 . S
C1625 C1630 1.390 . S
C1626 C1620 1.465 . S
C1626 C1625 1.396 . S
C1626 C1627 1.399 . S
C1627 H1613 0.929 . S
C1627 C1626 1.399 . S
C1627 C1628 1.385 . S
C1628 H1614 0.931 . S
C1628 C1627 1.385 . S
C1628 C1629 1.389 . S
C1629 C1628 1.389 . S
C1629 C1630 1.387 . S
C1630 H1615 0.930 . S
C1630 C1625 1.390 . S
C1630 C1629 1.387 . S
H1631 C1643 0.930 . S
H1632 C1645 0.930 . S
H1633 C1646 0.930 . S
H1634 C1650 0.959 . S
H1635 C1650 0.959 . S
H1636 C1650 0.961 1_455 S
H1637 C1651 0.960 . S
H1638 C1651 0.961 . S
H1639 C1651 0.959 . S
H1640 C1654 0.929 . S
H1641 C1655 0.931 . S
H1642 C1657 0.930 . S
C1643 H1631 0.930 . S
C1643 C1644 1.399 . S
C1643 C1648 1.399 1_455 S
C1644 C1643 1.399 . S
C1644 C1645 1.376 . S
C1645 H1632 0.930 . S
C1645 C1644 1.376 . S
C1645 C1646 1.388 1_455 S
C1646 H1633 0.930 . S
C1646 C1645 1.388 1_655 S
C1646 C1647 1.390 . S
C1647 C1646 1.390 . S
C1647 C1648 1.394 . S
C1647 C1653 1.465 . S
C1648 C1643 1.399 1_655 S
C1648 C1647 1.394 . S
C1648 C1649 1.516 . S
C1649 C1648 1.516 . S
C1649 C1650 1.502 . S
C1649 C1651 1.561 . S
C1649 C1652 1.526 . S
C1650 H1634 0.959 . S
C1650 H1635 0.959 . S
C1650 H1636 0.961 1_655 S
C1650 C1649 1.502 . S
C1651 H1637 0.960 . S
C1651 H1638 0.961 . S
C1651 H1639 0.959 . S
C1651 C1649 1.561 . S
C1652 C1649 1.526 . S
C1652 C1653 1.396 . S
C1652 C1657 1.390 . S
C1653 C1647 1.465 . S
C1653 C1652 1.396 . S
C1653 C1654 1.399 . S
C1654 H1640 0.929 . S
C1654 C1653 1.399 . S
C1654 C1655 1.385 . S
C1655 H1641 0.931 . S
C1655 C1654 1.385 . S
C1655 C1656 1.389 . S
C1656 C1655 1.389 . S
C1656 C1657 1.387 . S
C1657 H1642 0.930 . S
C1657 C1652 1.390 . S
C1657 C1656 1.387 . S
H1658 C1670 0.930 . S
H1659 C1672 0.930 . S
H1660 C1673 0.930 . S
H1661 C1677 0.959 . S
H1662 C1677 0.959 . S
H1663 C1677 0.961 . S
H1664 C1678 0.960 . S
H1665 C1678 0.961 . S
H1666 C1678 0.959 . S
H1667 C1681 0.929 . S
H1668 C1682 0.931 . S
H1669 C1684 0.930 . S
C1670 H1658 0.930 . S
C1670 C1671 1.399 . S
C1670 C1675 1.399 . S
C1671 C1670 1.399 . S
C1671 C1672 1.376 . S
C1672 H1659 0.930 . S
C1672 C1671 1.376 . S
C1672 C1673 1.388 . S
C1673 H1660 0.930 . S
C1673 C1672 1.388 . S
C1673 C1674 1.390 . S
C1674 C1673 1.390 . S
C1674 C1675 1.394 . S
C1674 C1680 1.465 . S
C1675 C1670 1.399 . S
C1675 C1674 1.394 . S
C1675 C1676 1.516 . S
C1676 C1675 1.516 . S
C1676 C1677 1.502 . S
C1676 C1678 1.561 . S
C1676 C1679 1.526 . S
C1677 H1661 0.959 . S
C1677 H1662 0.959 . S
C1677 H1663 0.961 . S
C1677 C1676 1.502 . S
C1678 H1664 0.960 . S
C1678 H1665 0.961 . S
C1678 H1666 0.959 . S
C1678 C1676 1.561 . S
C1679 C1676 1.526 . S
C1679 C1680 1.396 . S
C1679 C1684 1.390 . S
C1680 C1674 1.465 . S
C1680 C1679 1.396 . S
C1680 C1681 1.399 . S
C1681 H1667 0.929 . S
C1681 C1680 1.399 . S
C1681 C1682 1.385 . S
C1682 H1668 0.931 . S
C1682 C1681 1.385 . S
C1682 C1683 1.389 . S
C1683 C1682 1.389 . S
C1683 C1684 1.387 . S
C1684 H1669 0.930 . S
C1684 C1679 1.390 . S
C1684 C1683 1.387 . S
H1685 C1697 0.930 . S
H1686 C1699 0.930 . S
H1687 C1700 0.930 . S
H1688 C1704 0.959 . S
H1689 C1704 0.959 . S
H1690 C1704 0.961 . S
H1691 C1705 0.960 . S
H1692 C1705 0.961 . S
H1693 C1705 0.959 . S
H1694 C1708 0.929 . S
H1695 C1709 0.931 . S
H1696 C1711 0.930 . S
C1697 H1685 0.930 . S
C1697 C1698 1.399 . S
C1697 C1702 1.399 . S
C1698 C1697 1.399 . S
C1698 C1699 1.376 . S
C1699 H1686 0.930 . S
C1699 C1698 1.376 . S
C1699 C1700 1.388 . S
C1700 H1687 0.930 . S
C1700 C1699 1.388 . S
C1700 C1701 1.390 . S
C1701 C1700 1.390 . S
C1701 C1702 1.394 . S
C1701 C1707 1.465 . S
C1702 C1697 1.399 . S
C1702 C1701 1.394 . S
C1702 C1703 1.516 . S
C1703 C1702 1.516 . S
C1703 C1704 1.502 . S
C1703 C1705 1.561 . S
C1703 C1706 1.526 . S
C1704 H1688 0.959 . S
C1704 H1689 0.959 . S
C1704 H1690 0.961 . S
C1704 C1703 1.502 . S
C1705 H1691 0.960 . S
C1705 H1692 0.961 . S
C1705 H1693 0.959 . S
C1705 C1703 1.561 . S
C1706 C1703 1.526 . S
C1706 C1707 1.396 . S
C1706 C1711 1.390 . S
C1707 C1701 1.465 . S
C1707 C1706 1.396 . S
C1707 C1708 1.399 . S
C1708 H1694 0.929 . S
C1708 C1707 1.399 . S
C1708 C1709 1.385 . S
C1709 H1695 0.931 . S
C1709 C1708 1.385 . S
C1709 C1710 1.389 . S
C1710 C1709 1.389 . S
C1710 C1711 1.387 . S
C1711 H1696 0.930 . S
C1711 C1706 1.390 . S
C1711 C1710 1.387 . S
H1712 C1724 0.930 . S
H1713 C1726 0.930 . S
H1714 C1727 0.930 . S
H1715 C1731 0.959 . S
H1716 C1731 0.959 . S
H1717 C1731 0.961 . S
H1718 C1732 0.960 . S
H1719 C1732 0.961 . S
H1720 C1732 0.959 . S
H1721 C1735 0.929 . S
H1722 C1736 0.931 . S
H1723 C1738 0.930 . S
C1724 H1712 0.930 . S
C1724 C1725 1.399 . S
C1724 C1729 1.399 . S
C1725 C1724 1.399 . S
C1725 C1726 1.376 . S
C1726 H1713 0.930 . S
C1726 C1725 1.376 . S
C1726 C1727 1.388 . S
C1727 H1714 0.930 . S
C1727 C1726 1.388 . S
C1727 C1728 1.390 . S
C1728 C1727 1.390 . S
C1728 C1729 1.394 . S
C1728 C1734 1.465 . S
C1729 C1724 1.399 . S
C1729 C1728 1.394 . S
C1729 C1730 1.516 . S
C1730 C1729 1.516 . S
C1730 C1731 1.502 . S
C1730 C1732 1.561 . S
C1730 C1733 1.526 . S
C1731 H1715 0.959 . S
C1731 H1716 0.959 . S
C1731 H1717 0.961 . S
C1731 C1730 1.502 . S
C1732 H1718 0.960 . S
C1732 H1719 0.961 . S
C1732 H1720 0.959 . S
C1732 C1730 1.561 . S
C1733 C1730 1.526 . S
C1733 C1734 1.396 . S
C1733 C1738 1.390 . S
C1734 C1728 1.465 . S
C1734 C1733 1.396 . S
C1734 C1735 1.399 . S
C1735 H1721 0.929 . S
C1735 C1734 1.399 . S
C1735 C1736 1.385 . S
C1736 H1722 0.931 . S
C1736 C1735 1.385 . S
C1736 C1737 1.389 . S
C1737 C1736 1.389 . S
C1737 C1738 1.387 . S
C1738 H1723 0.930 . S
C1738 C1733 1.390 . S
C1738 C1737 1.387 . S
H1739 C1751 0.930 . S
H1740 C1753 0.930 . S
H1741 C1754 0.930 . S
H1742 C1758 0.959 . S
H1743 C1758 0.959 . S
H1744 C1758 0.961 . S
H1745 C1759 0.960 . S
H1746 C1759 0.961 . S
H1747 C1759 0.959 . S
H1748 C1762 0.929 . S
H1749 C1763 0.931 . S
H1750 C1765 0.930 . S
C1751 H1739 0.930 . S
C1751 C1752 1.399 . S
C1751 C1756 1.399 . S
C1752 C1751 1.399 . S
C1752 C1753 1.376 . S
C1753 H1740 0.930 . S
C1753 C1752 1.376 . S
C1753 C1754 1.388 . S
C1754 H1741 0.930 . S
C1754 C1753 1.388 . S
C1754 C1755 1.390 . S
C1755 C1754 1.390 . S
C1755 C1756 1.394 . S
C1755 C1761 1.465 . S
C1756 C1751 1.399 . S
C1756 C1755 1.394 . S
C1756 C1757 1.516 . S
C1757 C1756 1.516 . S
C1757 C1758 1.502 . S
C1757 C1759 1.561 . S
C1757 C1760 1.526 . S
C1758 H1742 0.959 . S
C1758 H1743 0.959 . S
C1758 H1744 0.961 . S
C1758 C1757 1.502 . S
C1759 H1745 0.960 . S
C1759 H1746 0.961 . S
C1759 H1747 0.959 . S
C1759 C1757 1.561 . S
C1760 C1757 1.526 . S
C1760 C1761 1.396 . S
C1760 C1765 1.390 . S
C1761 C1755 1.465 . S
C1761 C1760 1.396 . S
C1761 C1762 1.399 . S
C1762 H1748 0.929 . S
C1762 C1761 1.399 . S
C1762 C1763 1.385 . S
C1763 H1749 0.931 . S
C1763 C1762 1.385 . S
C1763 C1764 1.389 . S
C1764 C1763 1.389 . S
C1764 C1765 1.387 . S
C1765 H1750 0.930 . S
C1765 C1760 1.390 . S
C1765 C1764 1.387 . S
H1766 C1778 0.930 . S
H1767 C1780 0.930 . S
H1768 C1781 0.930 . S
H1769 C1785 0.959 . S
H1770 C1785 0.959 . S
H1771 C1785 0.961 . S
H1772 C1786 0.960 . S
H1773 C1786 0.961 . S
H1774 C1786 0.959 . S
H1775 C1789 0.929 . S
H1776 C1790 0.931 . S
H1777 C1792 0.930 . S
C1778 H1766 0.930 . S
C1778 C1779 1.399 . S
C1778 C1783 1.399 . S
C1779 C1778 1.399 . S
C1779 C1780 1.376 . S
C1780 H1767 0.930 . S
C1780 C1779 1.376 . S
C1780 C1781 1.388 . S
C1781 H1768 0.930 . S
C1781 C1780 1.388 . S
C1781 C1782 1.390 . S
C1782 C1781 1.390 . S
C1782 C1783 1.394 . S
C1782 C1788 1.465 . S
C1783 C1778 1.399 . S
C1783 C1782 1.394 . S
C1783 C1784 1.516 . S
C1784 C1783 1.516 . S
C1784 C1785 1.502 . S
C1784 C1786 1.561 . S
C1784 C1787 1.526 . S
C1785 H1769 0.959 . S
C1785 H1770 0.959 . S
C1785 H1771 0.961 . S
C1785 C1784 1.502 . S
C1786 H1772 0.960 . S
C1786 H1773 0.961 . S
C1786 H1774 0.959 . S
C1786 C1784 1.561 . S
C1787 C1784 1.526 . S
C1787 C1788 1.396 . S
C1787 C1792 1.390 . S
C1788 C1782 1.465 . S
C1788 C1787 1.396 . S
C1788 C1789 1.399 . S
C1789 H1775 0.929 . S
C1789 C1788 1.399 . S
C1789 C1790 1.385 . S
C1790 H1776 0.931 . S
C1790 C1789 1.385 . S
C1790 C1791 1.389 . S
C1791 C1790 1.389 . S
C1791 C1792 1.387 . S
C1792 H1777 0.930 . S
C1792 C1787 1.390 . S
C1792 C1791 1.387 . S
H1793 C1805 0.930 . S
H1794 C1807 0.930 1_554 S
H1795 C1808 0.930 . S
H1796 C1812 0.959 . S
H1797 C1812 0.959 . S
H1798 C1812 0.961 . S
H1799 C1813 0.960 . S
H1800 C1813 0.961 . S
H1801 C1813 0.959 1_554 S
H1802 C1816 0.929 . S
H1803 C1817 0.931 . S
H1804 C1819 0.923 1_556 S
C1805 H1793 0.930 . S
C1805 C1806 1.399 . S
C1805 C1810 1.399 . S
C1806 C1805 1.399 . S
C1806 C1807 1.376 . S
C1807 H1794 0.930 1_556 S
C1807 C1806 1.376 . S
C1807 C1808 1.388 1_556 S
C1808 H1795 0.930 . S
C1808 C1807 1.388 1_554 S
C1808 C1809 1.390 . S
C1809 C1808 1.390 . S
C1809 C1810 1.394 1_554 S
C1809 C1815 1.465 . S
C1810 C1805 1.399 . S
C1810 C1809 1.394 1_556 S
C1810 C1811 1.516 . S
C1811 C1810 1.516 . S
C1811 C1812 1.502 . S
C1811 C1813 1.561 . S
C1811 C1814 1.526 1_556 S
C1812 H1796 0.959 . S
C1812 H1797 0.959 . S
C1812 H1798 0.961 . S
C1812 C1811 1.502 . S
C1813 H1799 0.960 . S
C1813 H1800 0.961 . S
C1813 H1801 0.959 1_556 S
C1813 C1811 1.561 . S
C1814 C1811 1.526 1_554 S
C1814 C1815 1.396 . S
C1814 C1819 1.390 . S
C1815 C1809 1.465 . S
C1815 C1814 1.396 . S
C1815 C1816 1.399 . S
C1816 H1802 0.929 . S
C1816 C1815 1.399 . S
C1816 C1817 1.385 . S
C1817 H1803 0.931 . S
C1817 C1816 1.385 . S
C1817 C1818 1.389 . S
C1818 C1817 1.389 . S
C1818 C1819 1.387 . S
C1819 H1804 0.923 1_554 S
C1819 C1814 1.390 . S
C1819 C1818 1.387 . S
H1820 C1832 0.930 . S
H1821 C1834 0.930 . S
H1822 C1835 0.930 . S
H1823 C1839 0.959 . S
H1824 C1839 0.959 . S
H1825 C1839 0.961 . S
H1826 C1840 0.960 . S
H1827 C1840 0.961 . S
H1828 C1840 0.959 . S
H1829 C1843 0.929 . S
H1830 C1844 0.931 . S
H1831 C1846 0.930 . S
C1832 H1820 0.930 . S
C1832 C1833 1.399 . S
C1832 C1837 1.399 . S
C1833 C1832 1.399 . S
C1833 C1834 1.376 . S
C1834 H1821 0.930 . S
C1834 C1833 1.376 . S
C1834 C1835 1.388 . S
C1835 H1822 0.930 . S
C1835 C1834 1.388 . S
C1835 C1836 1.390 . S
C1836 C1835 1.390 . S
C1836 C1837 1.394 . S
C1836 C1842 1.465 . S
C1837 C1832 1.399 . S
C1837 C1836 1.394 . S
C1837 C1838 1.516 . S
C1838 C1837 1.516 . S
C1838 C1839 1.502 . S
C1838 C1840 1.561 . S
C1838 C1841 1.526 . S
C1839 H1823 0.959 . S
C1839 H1824 0.959 . S
C1839 H1825 0.961 . S
C1839 C1838 1.502 . S
C1840 H1826 0.960 . S
C1840 H1827 0.961 . S
C1840 H1828 0.959 . S
C1840 C1838 1.561 . S
C1841 C1838 1.526 . S
C1841 C1842 1.396 . S
C1841 C1846 1.390 . S
C1842 C1836 1.465 . S
C1842 C1841 1.396 . S
C1842 C1843 1.399 . S
C1843 H1829 0.929 . S
C1843 C1842 1.399 . S
C1843 C1844 1.385 . S
C1844 H1830 0.931 . S
C1844 C1843 1.385 . S
C1844 C1845 1.389 . S
C1845 C1844 1.389 . S
C1845 C1846 1.387 . S
C1846 H1831 0.930 . S
C1846 C1841 1.390 . S
C1846 C1845 1.387 . S
H1847 C1859 0.930 . S
H1848 C1861 0.930 . S
H1849 C1862 0.930 . S
H1850 C1866 0.959 . S
H1851 C1866 0.959 . S
H1852 C1866 0.961 . S
H1853 C1867 0.960 . S
H1854 C1867 0.961 . S
H1855 C1867 0.959 . S
H1856 C1870 0.929 . S
H1857 C1871 0.931 . S
H1858 C1873 0.930 . S
C1859 H1847 0.930 . S
C1859 C1860 1.399 . S
C1859 C1864 1.399 . S
C1860 C1859 1.399 . S
C1860 C1861 1.376 . S
C1861 H1848 0.930 . S
C1861 C1860 1.376 . S
C1861 C1862 1.388 . S
C1862 H1849 0.930 . S
C1862 C1861 1.388 . S
C1862 C1863 1.390 . S
C1863 C1862 1.390 . S
C1863 C1864 1.394 . S
C1863 C1869 1.465 . S
C1864 C1859 1.399 . S
C1864 C1863 1.394 . S
C1864 C1865 1.516 . S
C1865 C1864 1.516 . S
C1865 C1866 1.502 . S
C1865 C1867 1.561 . S
C1865 C1868 1.526 . S
C1866 H1850 0.959 . S
C1866 H1851 0.959 . S
C1866 H1852 0.961 . S
C1866 C1865 1.502 . S
C1867 H1853 0.960 . S
C1867 H1854 0.961 . S
C1867 H1855 0.959 . S
C1867 C1865 1.561 . S
C1868 C1865 1.526 . S
C1868 C1869 1.396 . S
C1868 C1873 1.390 . S
C1869 C1863 1.465 . S
C1869 C1868 1.396 . S
C1869 C1870 1.399 . S
C1870 H1856 0.929 . S
C1870 C1869 1.399 . S
C1870 C1871 1.385 . S
C1871 H1857 0.931 . S
C1871 C1870 1.385 . S
C1871 C1872 1.389 . S
C1872 C1871 1.389 . S
C1872 C1873 1.387 . S
C1873 H1858 0.930 . S
C1873 C1868 1.390 . S
C1873 C1872 1.387 . S
H1874 C1886 0.930 . S
H1875 C1888 0.930 . S
H1876 C1889 0.930 . S
H1877 C1893 0.959 . S
H1878 C1893 0.959 . S
H1879 C1893 0.961 . S
H1880 C1894 0.960 . S
H1881 C1894 0.961 . S
H1882 C1894 0.959 . S
H1883 C1897 0.929 . S
H1884 C1898 0.931 . S
H1885 C1900 0.930 . S
C1886 H1874 0.930 . S
C1886 C1887 1.399 . S
C1886 C1891 1.399 . S
C1887 C1886 1.399 . S
C1887 C1888 1.376 . S
C1888 H1875 0.930 . S
C1888 C1887 1.376 . S
C1888 C1889 1.388 . S
C1889 H1876 0.930 . S
C1889 C1888 1.388 . S
C1889 C1890 1.390 . S
C1890 C1889 1.390 . S
C1890 C1891 1.394 . S
C1890 C1896 1.465 . S
C1891 C1886 1.399 . S
C1891 C1890 1.394 . S
C1891 C1892 1.516 . S
C1892 C1891 1.516 . S
C1892 C1893 1.502 . S
C1892 C1894 1.561 . S
C1892 C1895 1.526 . S
C1893 H1877 0.959 . S
C1893 H1878 0.959 . S
C1893 H1879 0.961 . S
C1893 C1892 1.502 . S
C1894 H1880 0.960 . S
C1894 H1881 0.961 . S
C1894 H1882 0.959 . S
C1894 C1892 1.561 . S
C1895 C1892 1.526 . S
C1895 C1896 1.396 . S
C1895 C1900 1.390 . S
C1896 C1890 1.465 . S
C1896 C1895 1.396 . S
C1896 C1897 1.399 . S
C1897 H1883 0.929 . S
C1897 C1896 1.399 . S
C1897 C1898 1.385 . S
C1898 H1884 0.931 . S
C1898 C1897 1.385 . S
C1898 C1899 1.389 . S
C1899 C1898 1.389 . S
C1899 C1900 1.387 . S
C1900 H1885 0.930 . S
C1900 C1895 1.390 . S
C1900 C1899 1.387 . S
H1901 C1913 0.930 . S
H1902 C1915 0.930 . S
H1903 C1916 0.930 . S
H1904 C1920 0.959 . S
H1905 C1920 0.959 . S
H1906 C1920 0.961 . S
H1907 C1921 0.960 . S
H1908 C1921 0.961 . S
H1909 C1921 0.959 . S
H1910 C1924 0.929 1_554 S
H1911 C1925 0.931 . S
H1912 C1927 0.930 . S
C1913 H1901 0.930 . S
C1913 C1914 1.399 . S
C1913 C1918 1.399 . S
C1914 C1913 1.399 . S
C1914 C1915 1.376 . S
C1915 H1902 0.930 . S
C1915 C1914 1.376 . S
C1915 C1916 1.388 . S
C1916 H1903 0.930 . S
C1916 C1915 1.388 . S
C1916 C1917 1.390 . S
C1917 C1916 1.390 . S
C1917 C1918 1.394 . S
C1917 C1923 1.469 . S
C1918 C1913 1.399 . S
C1918 C1917 1.394 . S
C1918 C1919 1.516 1_554 S
C1919 C1918 1.516 1_556 S
C1919 C1920 1.502 . S
C1919 C1921 1.561 1_556 S
C1919 C1922 1.526 . S
C1920 H1904 0.959 . S
C1920 H1905 0.959 . S
C1920 H1906 0.961 . S
C1920 C1919 1.502 . S
C1921 H1907 0.960 . S
C1921 H1908 0.961 . S
C1921 H1909 0.959 . S
C1921 C1919 1.561 1_554 S
C1922 C1919 1.526 . S
C1922 C1923 1.393 1_556 S
C1922 C1927 1.390 . S
C1923 C1917 1.469 . S
C1923 C1922 1.393 1_554 S
C1923 C1924 1.398 1_554 S
C1924 H1910 0.929 1_556 S
C1924 C1923 1.398 1_556 S
C1924 C1925 1.385 . S
C1925 H1911 0.931 . S
C1925 C1924 1.385 . S
C1925 C1926 1.389 . S
C1926 C1925 1.389 . S
C1926 C1927 1.387 . S
C1927 H1912 0.930 . S
C1927 C1922 1.390 . S
C1927 C1926 1.387 . S
H1928 C1940 0.930 . S
H1929 C1942 0.930 . S
H1930 C1943 0.930 . S
H1931 C1947 0.959 . S
H1932 C1947 0.959 . S
H1933 C1947 0.961 . S
H1934 C1948 0.960 . S
H1935 C1948 0.961 . S
H1936 C1948 0.959 . S
H1937 C1951 0.929 . S
H1938 C1952 0.931 . S
H1939 C1954 0.930 . S
C1940 H1928 0.930 . S
C1940 C1941 1.399 . S
C1940 C1945 1.399 . S
C1941 C1940 1.399 . S
C1941 C1942 1.376 . S
C1942 H1929 0.930 . S
C1942 C1941 1.376 . S
C1942 C1943 1.388 . S
C1943 H1930 0.930 . S
C1943 C1942 1.388 . S
C1943 C1944 1.390 . S
C1944 C1943 1.390 . S
C1944 C1945 1.394 . S
C1944 C1950 1.465 1_565 S
C1945 C1940 1.399 . S
C1945 C1944 1.394 . S
C1945 C1946 1.516 . S
C1946 C1945 1.516 . S
C1946 C1947 1.502 . S
C1946 C1948 1.561 . S
C1946 C1949 1.526 1_565 S
C1947 H1931 0.959 . S
C1947 H1932 0.959 . S
C1947 H1933 0.961 . S
C1947 C1946 1.502 . S
C1948 H1934 0.960 . S
C1948 H1935 0.961 . S
C1948 H1936 0.959 . S
C1948 C1946 1.561 . S
C1949 C1946 1.526 1_545 S
C1949 C1950 1.396 . S
C1949 C1954 1.390 . S
C1950 C1944 1.465 1_545 S
C1950 C1949 1.396 . S
C1950 C1951 1.399 . S
C1951 H1937 0.929 . S
C1951 C1950 1.399 . S
C1951 C1952 1.385 . S
C1952 H1938 0.931 . S
C1952 C1951 1.385 . S
C1952 C1953 1.389 . S
C1953 C1952 1.389 . S
C1953 C1954 1.387 . S
C1954 H1939 0.930 . S
C1954 C1949 1.390 . S
C1954 C1953 1.387 . S
H1955 C1967 0.930 . S
H1956 C1969 0.930 . S
H1957 C1970 0.930 . S
H1958 C1974 0.959 . S
H1959 C1974 0.959 . S
H1960 C1974 0.961 . S
H1961 C1975 0.960 . S
H1962 C1975 0.961 . S
H1963 C1975 0.959 . S
H1964 C1978 0.929 . S
H1965 C1979 0.931 . S
H1966 C1981 0.930 1_554 S
C1967 H1955 0.930 . S
C1967 C1968 1.399 . S
C1967 C1972 1.399 . S
C1968 C1967 1.399 . S
C1968 C1969 1.376 1_554 S
C1969 H1956 0.930 . S
C1969 C1968 1.376 1_556 S
C1969 C1970 1.388 . S
C1970 H1957 0.930 . S
C1970 C1969 1.388 . S
C1970 C1971 1.390 . S
C1971 C1970 1.390 . S
C1971 C1972 1.394 1_556 S
C1971 C1977 1.465 . S
C1972 C1967 1.399 . S
C1972 C1971 1.394 1_554 S
C1972 C1973 1.516 . S
C1973 C1972 1.516 . S
C1973 C1974 1.502 . S
C1973 C1975 1.561 . S
C1973 C1976 1.526 . S
C1974 H1958 0.959 . S
C1974 H1959 0.959 . S
C1974 H1960 0.961 . S
C1974 C1973 1.502 . S
C1975 H1961 0.960 . S
C1975 H1962 0.961 . S
C1975 H1963 0.959 . S
C1975 C1973 1.561 . S
C1976 C1973 1.526 . S
C1976 C1977 1.396 1_554 S
C1976 C1981 1.390 1_554 S
C1977 C1971 1.465 . S
C1977 C1976 1.396 1_556 S
C1977 C1978 1.399 . S
C1978 H1964 0.929 . S
C1978 C1977 1.399 . S
C1978 C1979 1.385 . S
C1979 H1965 0.931 . S
C1979 C1978 1.385 . S
C1979 C1980 1.389 . S
C1980 C1979 1.389 . S
C1980 C1981 1.387 . S
C1981 H1966 0.930 1_556 S
C1981 C1976 1.390 1_556 S
C1981 C1980 1.387 . S
H1982 C1994 0.930 . S
H1983 C1996 0.930 . S
H1984 C1997 0.930 . S
H1985 C2001 0.959 . S
H1986 C2001 0.959 1_565 S
H1987 C2001 0.961 . S
H1988 C2002 0.960 1_545 S
H1989 C2002 0.961 . S
H1990 C2002 0.959 . S
H1991 C2005 0.929 . S
H1992 C2006 0.931 . S
H1993 C2008 0.930 . S
C1994 H1982 0.930 . S
C1994 C1995 1.399 . S
C1994 C1999 1.399 . S
C1995 C1994 1.399 . S
C1995 C1996 1.376 . S
C1996 H1983 0.930 . S
C1996 C1995 1.376 . S
C1996 C1997 1.388 . S
C1997 H1984 0.930 . S
C1997 C1996 1.388 . S
C1997 C1998 1.390 . S
C1998 C1997 1.390 . S
C1998 C1999 1.394 . S
C1998 C2004 1.465 1_545 S
C1999 C1994 1.399 . S
C1999 C1998 1.394 . S
C1999 C2000 1.550 . S
C2000 C1999 1.550 . S
C2000 C2001 1.515 . S
C2000 C2002 1.550 1_545 S
C2000 C2003 1.490 1_545 S
C2001 H1985 0.959 . S
C2001 H1986 0.959 1_545 S
C2001 H1987 0.961 . S
C2001 C2000 1.515 . S
C2002 H1988 0.960 1_565 S
C2002 H1989 0.961 . S
C2002 H1990 0.959 . S
C2002 C2000 1.550 1_565 S
C2003 C2000 1.490 1_565 S
C2003 C2004 1.396 . S
C2003 C2008 1.390 . S
C2004 C1998 1.465 1_565 S
C2004 C2003 1.396 . S
C2004 C2005 1.399 . S
C2005 H1991 0.929 . S
C2005 C2004 1.399 . S
C2005 C2006 1.385 . S
C2006 H1992 0.931 . S
C2006 C2005 1.385 . S
C2006 C2007 1.389 . S
C2007 C2006 1.389 . S
C2007 C2008 1.387 . S
C2008 H1993 0.930 . S
C2008 C2003 1.390 . S
C2008 C2007 1.387 . S
H2009 C2021 0.930 . S
H2010 C2023 0.930 . S
H2011 C2024 0.930 . S
H2012 C2028 0.959 . S
H2013 C2028 0.959 . S
H2014 C2028 0.961 . S
H2015 C2029 0.960 . S
H2016 C2029 0.961 . S
H2017 C2029 0.959 . S
H2018 C2032 0.929 . S
H2019 C2033 0.931 . S
H2020 C2035 0.930 . S
C2021 H2009 0.930 . S
C2021 C2022 1.399 . S
C2021 C2026 1.399 . S
C2022 C2021 1.399 . S
C2022 C2023 1.376 . S
C2023 H2010 0.930 . S
C2023 C2022 1.376 . S
C2023 C2024 1.388 . S
C2024 H2011 0.930 . S
C2024 C2023 1.388 . S
C2024 C2025 1.390 . S
C2025 C2024 1.390 . S
C2025 C2026 1.394 . S
C2025 C2031 1.465 . S
C2026 C2021 1.399 . S
C2026 C2025 1.394 . S
C2026 C2027 1.516 . S
C2027 C2026 1.516 . S
C2027 C2028 1.502 . S
C2027 C2029 1.561 . S
C2027 C2030 1.526 . S
C2028 H2012 0.959 . S
C2028 H2013 0.959 . S
C2028 H2014 0.961 . S
C2028 C2027 1.502 . S
C2029 H2015 0.960 . S
C2029 H2016 0.961 . S
C2029 H2017 0.959 . S
C2029 C2027 1.561 . S
C2030 C2027 1.526 . S
C2030 C2031 1.396 . S
C2030 C2035 1.390 . S
C2031 C2025 1.465 . S
C2031 C2030 1.396 . S
C2031 C2032 1.399 . S
C2032 H2018 0.929 . S
C2032 C2031 1.399 . S
C2032 C2033 1.385 . S
C2033 H2019 0.931 . S
C2033 C2032 1.385 . S
C2033 C2034 1.389 . S
C2034 C2033 1.389 . S
C2034 C2035 1.387 . S
C2035 H2020 0.930 . S
C2035 C2030 1.390 . S
C2035 C2034 1.387 . S
H2036 C2048 0.930 . S
H2037 C2050 0.930 . S
H2038 C2051 0.930 . S
H2039 C2055 0.959 . S
H2040 C2055 0.959 . S
H2041 C2055 0.961 . S
H2042 C2056 0.960 . S
H2043 C2056 0.957 1_565 S
H2044 C2056 0.959 . S
H2045 C2059 0.929 . S
H2046 C2060 0.931 . S
H2047 C2062 0.930 . S
C2048 H2036 0.930 . S
C2048 C2049 1.399 . S
C2048 C2053 1.399 . S
C2049 C2048 1.399 . S
C2049 C2050 1.376 . S
C2050 H2037 0.930 . S
C2050 C2049 1.376 . S
C2050 C2051 1.388 . S
C2051 H2038 0.930 . S
C2051 C2050 1.388 . S
C2051 C2052 1.390 . S
C2052 C2051 1.390 . S
C2052 C2053 1.394 . S
C2052 C2058 1.465 1_545 S
C2053 C2048 1.399 . S
C2053 C2052 1.394 . S
C2053 C2054 1.516 . S
C2054 C2053 1.516 . S
C2054 C2055 1.502 . S
C2054 C2056 1.561 . S
C2054 C2057 1.526 1_545 S
C2055 H2039 0.959 . S
C2055 H2040 0.959 . S
C2055 H2041 0.961 . S
C2055 C2054 1.502 . S
C2056 H2042 0.960 . S
C2056 H2043 0.957 1_545 S
C2056 H2044 0.959 . S
C2056 C2054 1.561 . S
C2057 C2054 1.526 1_565 S
C2057 C2058 1.396 . S
C2057 C2062 1.390 . S
C2058 C2052 1.465 1_565 S
C2058 C2057 1.396 . S
C2058 C2059 1.399 . S
C2059 H2045 0.929 . S
C2059 C2058 1.399 . S
C2059 C2060 1.385 . S
C2060 H2046 0.931 . S
C2060 C2059 1.385 . S
C2060 C2061 1.389 . S
C2061 C2060 1.389 . S
C2061 C2062 1.387 . S
C2062 H2047 0.930 . S
C2062 C2057 1.390 . S
C2062 C2061 1.387 . S
H2063 C2075 0.930 . S
H2064 C2077 0.930 . S
H2065 C2078 0.930 . S
H2066 C2082 0.959 . S
H2067 C2082 0.959 . S
H2068 C2082 0.961 . S
H2069 C2083 0.960 . S
H2070 C2083 0.961 . S
H2071 C2083 0.959 . S
H2072 C2086 0.929 . S
H2073 C2087 0.931 . S
H2074 C2089 0.930 . S
C2075 H2063 0.930 . S
C2075 C2076 1.399 . S
C2075 C2080 1.399 . S
C2076 C2075 1.399 . S
C2076 C2077 1.376 . S
C2077 H2064 0.930 . S
C2077 C2076 1.376 . S
C2077 C2078 1.388 1_554 S
C2078 H2065 0.930 . S
C2078 C2077 1.388 1_556 S
C2078 C2079 1.390 . S
C2079 C2078 1.390 . S
C2079 C2080 1.394 1_556 S
C2079 C2085 1.465 . S
C2080 C2075 1.399 . S
C2080 C2079 1.394 1_554 S
C2080 C2081 1.516 . S
C2081 C2080 1.516 . S
C2081 C2082 1.502 . S
C2081 C2083 1.561 1_554 S
C2081 C2084 1.526 1_554 S
C2082 H2066 0.959 . S
C2082 H2067 0.959 . S
C2082 H2068 0.961 . S
C2082 C2081 1.502 . S
C2083 H2069 0.960 . S
C2083 H2070 0.961 . S
C2083 H2071 0.959 . S
C2083 C2081 1.561 1_556 S
C2084 C2081 1.526 1_556 S
C2084 C2085 1.396 . S
C2084 C2089 1.390 . S
C2085 C2079 1.465 . S
C2085 C2084 1.396 . S
C2085 C2086 1.399 . S
C2086 H2072 0.929 . S
C2086 C2085 1.399 . S
C2086 C2087 1.385 . S
C2087 H2073 0.931 . S
C2087 C2086 1.385 . S
C2087 C2088 1.389 . S
C2088 C2087 1.389 . S
C2088 C2089 1.387 . S
C2089 H2074 0.930 . S
C2089 C2084 1.390 . S
C2089 C2088 1.387 . S
H2090 C2102 0.930 . S
H2091 C2104 0.930 . S
H2092 C2105 0.930 . S
H2093 C2109 0.959 . S
H2094 C2109 0.959 1_565 S
H2095 C2109 0.961 . S
H2096 C2110 0.960 1_545 S
H2097 C2110 0.961 . S
H2098 C2110 0.959 . S
H2099 C2113 0.929 . S
H2100 C2114 0.931 . S
H2101 C2116 0.930 . S
C2102 H2090 0.930 . S
C2102 C2103 1.399 . S
C2102 C2107 1.399 . S
C2103 C2102 1.399 . S
C2103 C2104 1.376 . S
C2104 H2091 0.930 . S
C2104 C2103 1.376 . S
C2104 C2105 1.388 . S
C2105 H2092 0.930 . S
C2105 C2104 1.388 . S
C2105 C2106 1.390 . S
C2106 C2105 1.390 . S
C2106 C2107 1.394 . S
C2106 C2112 1.465 1_545 S
C2107 C2102 1.399 . S
C2107 C2106 1.394 . S
C2107 C2108 1.536 . S
C2108 C2107 1.536 . S
C2108 C2109 1.509 . S
C2108 C2110 1.554 1_545 S
C2108 C2111 1.505 1_545 S
C2109 H2093 0.959 . S
C2109 H2094 0.959 1_545 S
C2109 H2095 0.961 . S
C2109 C2108 1.509 . S
C2110 H2096 0.960 1_565 S
C2110 H2097 0.961 . S
C2110 H2098 0.959 . S
C2110 C2108 1.554 1_565 S
C2111 C2108 1.505 1_565 S
C2111 C2112 1.396 . S
C2111 C2116 1.390 . S
C2112 C2106 1.465 1_565 S
C2112 C2111 1.396 . S
C2112 C2113 1.399 . S
C2113 H2099 0.929 . S
C2113 C2112 1.399 . S
C2113 C2114 1.385 . S
C2114 H2100 0.931 . S
C2114 C2113 1.385 . S
C2114 C2115 1.389 . S
C2115 C2114 1.389 . S
C2115 C2116 1.387 . S
C2116 H2101 0.930 . S
C2116 C2111 1.390 . S
C2116 C2115 1.387 . S
H2117 C2129 0.930 . S
H2118 C2131 0.930 . S
H2119 C2132 0.930 . S
H2120 C2136 0.959 . S
H2121 C2136 0.959 . S
H2122 C2136 0.961 . S
H2123 C2137 0.960 . S
H2124 C2137 0.961 . S
H2125 C2137 0.959 . S
H2126 C2140 0.929 . S
H2127 C2141 0.931 . S
H2128 C2143 0.930 . S
C2129 H2117 0.930 . S
C2129 C2130 1.399 . S
C2129 C2134 1.399 . S
C2130 C2129 1.399 . S
C2130 C2131 1.376 . S
C2131 H2118 0.930 . S
C2131 C2130 1.376 . S
C2131 C2132 1.388 . S
C2132 H2119 0.930 . S
C2132 C2131 1.388 . S
C2132 C2133 1.390 . S
C2133 C2132 1.390 . S
C2133 C2134 1.394 . S
C2133 C2139 1.465 . S
C2134 C2129 1.399 . S
C2134 C2133 1.394 . S
C2134 C2135 1.516 . S
C2135 C2134 1.516 . S
C2135 C2136 1.502 . S
C2135 C2137 1.561 . S
C2135 C2138 1.526 . S
C2136 H2120 0.959 . S
C2136 H2121 0.959 . S
C2136 H2122 0.961 . S
C2136 C2135 1.502 . S
C2137 H2123 0.960 . S
C2137 H2124 0.961 . S
C2137 H2125 0.959 . S
C2137 C2135 1.561 . S
C2138 C2135 1.526 . S
C2138 C2139 1.396 . S
C2138 C2143 1.390 . S
C2139 C2133 1.465 . S
C2139 C2138 1.396 . S
C2139 C2140 1.399 . S
C2140 H2126 0.929 . S
C2140 C2139 1.399 . S
C2140 C2141 1.385 . S
C2141 H2127 0.931 . S
C2141 C2140 1.385 . S
C2141 C2142 1.389 . S
C2142 C2141 1.389 . S
C2142 C2143 1.387 . S
C2143 H2128 0.930 . S
C2143 C2138 1.390 . S
C2143 C2142 1.387 . S
C429 C4 1.602 . S
C441 C283 1.607 . S
C456 C290 1.611 . S
C468 C23 1.604 . S
C483 C30 1.604 . S
C495 C309 1.611 . S
C510 C270 1.602 . S
C522 C43 1.610 . S
C537 C56 1.603 . S
C549 C257 1.611 . S
C564 C75 1.604 . S
C576 C212 1.604 . S
C591 C231 1.609 . S
C603 C82 1.609 . S
C618 C101 1.603 . S
C630 C238 1.605 . S
C645 C114 1.602 . S
C657 C387 1.606 . S
C672 C127 1.602 . S
C684 C400 1.607 . S
C699 C407 1.603 . S
C711 C134 1.609 . S
C726 C374 1.609 . S
C738 C153 1.611 . S
C753 C160 1.603 . S
C765 C361 1.603 . S
C780 C322 1.605 . S
C792 C179 1.602 . S
C807 C192 1.604 . S
C819 C335 1.603 . S
C834 C348 1.602 . S
C846 C205 1.604 . S
C861 C3 1.404 . S
C873 C120 1.400 . S
C888 C18 1.374 . S
C900 C341 1.394 . S
C915 C146 1.402 . S
C927 C29 1.378 . S
C942 C42 1.378 . S
C954 C315 1.402 . S
C969 C55 1.368 . S
C981 C198 1.401 . S
C996 C367 1.397 . S
C1008 C70 1.352 . S
C1023 C172 1.394 . S
C1035 C81 1.380 . S
C1050 C393 1.399 . S
C1062 C96 1.404 . S
C1077 C109 1.357 . S
C1089 C16 1.397 . S
C1104 C239 1.401 . S
C1116 C122 1.384 . S
C1131 C44 1.399 . S
C1143 C133 1.399 . S
C1158 C148 1.405 . S
C1170 C213 1.401 . S
C1185 C94 1.394 . S
C1197 C159 1.352 . S
C1212 C263 1.397 . S
C1224 C174 1.389 . S
C1239 C68 1.398 . S
C1251 C187 1.394 . S
C1266 C200 1.353 . S
C1278 C291 1.396 . S
C1293 C328 1.402 . S
C1305 C211 1.383 . S
C1320 C135 1.401 . S
C1332 C226 1.403 . S
C1347 C354 1.394 . S
C1359 C237 1.378 . S
C1374 C252 1.366 . S
C1386 C107 1.401 . S
C1401 C408 1.400 . S
C1413 C265 1.361 . S
C1428 C161 1.402 . S
C1440 C278 1.397 . S
C1455 C380 1.394 . S
C1467 C289 1.377 . S
C1482 C304 1.377 . S
C1494 C185 1.402 . S
C1509 C317 1.379 . S
C1521 C224 1.401 . S
C1536 C31 1.394 . S
C1548 C330 1.361 . S
C1563 C343 1.362 . S
C1575 C250 1.398 . S
C1590 C356 1.401 . S
C1602 C5 1.402 . S
C1617 C369 1.352 . S
C1629 C302 1.394 . S
C1644 C57 1.396 . S
C1656 C382 1.381 . S
C1671 C276 1.402 . S
C1683 C395 1.390 . S
C1698 C406 1.378 . S
C1710 C83 1.400 . S
C1725 C10 1.273 . S
C1737 C62 1.307 . S
C1752 C17 1.264 . S
C1764 C69 1.285 . S
C1779 C88 1.298 . S
C1791 C36 1.265 . S
C1806 C95 1.263 . S
C1818 C49 1.291 . S
C1833 C166 1.271 . S
C1845 C108 1.286 . S
C1860 C173 1.294 . S
C1872 C121 1.267 . S
C1887 C186 1.302 . S
C1899 C140 1.282 . S
C1914 C199 1.289 . S
C1926 C147 1.269 . S
C1941 C218 1.293 . S
C1953 C264 1.263 . S
C1968 C225 1.284 . S
C1980 C277 1.307 . S
C1995 C244 1.306 . S
C2007 C296 1.288 . S
C2022 C303 1.306 . S
C2034 C251 1.287 . S
C2049 C316 1.306 . S
C2061 C368 1.264 . S
C2076 C381 1.278 . S
C2088 C329 1.304 . S
C2103 C394 1.288 . S
C2115 C342 1.270 . S
C2130 C413 1.276 . S
C2142 C355 1.305 . S
