# Generated by pormake.
# Topology vbc, (5)-cn, num edge types: 1
# Building blocks:
#     Node 0, Type 0, BuildingBlock: BEQFEK_clean_sbu_0, # of connection points: 5
#     Node 1, Type 0, BuildingBlock: BEQFEK_clean_sbu_0, # of connection points: 5
#     Node 2, Type 0, BuildingBlock: BEQFEK_clean_sbu_0, # of connection points: 5
#     Node 3, Type 0, BuildingBlock: BEQFEK_clean_sbu_0, # of connection points: 5
#     Node 4, Type 0, BuildingBlock: BEQFEK_clean_sbu_0, # of connection points: 5
#     Node 5, Type 0, BuildingBlock: BEQFEK_clean_sbu_0, # of connection points: 5
#     Node 6, Type 0, BuildingBlock: BEQFEK_clean_sbu_0, # of connection points: 5
#     Node 7, Type 0, BuildingBlock: BEQFEK_clean_sbu_0, # of connection points: 5
#     Node 8, Type 0, BuildingBlock: BEQFEK_clean_sbu_0, # of connection points: 5
#     Node 9, Type 0, BuildingBlock: BEQFEK_clean_sbu_0, # of connection points: 5
#     Node 10, Type 0, BuildingBlock: BEQFEK_clean_sbu_0, # of connection points: 5
#     Node 11, Type 0, BuildingBlock: BEQFEK_clean_sbu_0, # of connection points: 5
#     Node 12, Type 0, BuildingBlock: BEQFEK_clean_sbu_0, # of connection points: 5
#     Node 13, Type 0, BuildingBlock: BEQFEK_clean_sbu_0, # of connection points: 5
#     Node 14, Type 0, BuildingBlock: BEQFEK_clean_sbu_0, # of connection points: 5
#     Node 15, Type 0, BuildingBlock: BEQFEK_clean_sbu_0, # of connection points: 5
#     Node 16, Type 0, BuildingBlock: BEQFEK_clean_sbu_0, # of connection points: 5
#     Node 17, Type 0, BuildingBlock: BEQFEK_clean_sbu_0, # of connection points: 5
#     Node 18, Type 0, BuildingBlock: BEQFEK_clean_sbu_0, # of connection points: 5
#     Node 19, Type 0, BuildingBlock: BEQFEK_clean_sbu_0, # of connection points: 5
#     Node 20, Type 0, BuildingBlock: BEQFEK_clean_sbu_0, # of connection points: 5
#     Node 21, Type 0, BuildingBlock: BEQFEK_clean_sbu_0, # of connection points: 5
#     Node 22, Type 0, BuildingBlock: BEQFEK_clean_sbu_0, # of connection points: 5
#     Node 23, Type 0, BuildingBlock: BEQFEK_clean_sbu_0, # of connection points: 5
#     Node 24, Type 0, BuildingBlock: BEQFEK_clean_sbu_0, # of connection points: 5
#     Node 25, Type 0, BuildingBlock: BEQFEK_clean_sbu_0, # of connection points: 5
#     Node 26, Type 0, BuildingBlock: BEQFEK_clean_sbu_0, # of connection points: 5
#     Node 27, Type 0, BuildingBlock: BEQFEK_clean_sbu_0, # of connection points: 5
#     Node 28, Type 0, BuildingBlock: BEQFEK_clean_sbu_0, # of connection points: 5
#     Node 29, Type 0, BuildingBlock: BEQFEK_clean_sbu_0, # of connection points: 5
#     Node 30, Type 0, BuildingBlock: BEQFEK_clean_sbu_0, # of connection points: 5
#     Node 31, Type 0, BuildingBlock: BEQFEK_clean_sbu_0, # of connection points: 5
#     Edge 32, Type (0, 0), BuildingBlock: AJUNOK_clean_linker_0, # of connection points: 2
#     Edge 33, Type (0, 0), BuildingBlock: AJUNOK_clean_linker_0, # of connection points: 2
#     Edge 34, Type (0, 0), BuildingBlock: AJUNOK_clean_linker_0, # of connection points: 2
#     Edge 35, Type (0, 0), BuildingBlock: AJUNOK_clean_linker_0, # of connection points: 2
#     Edge 36, Type (0, 0), BuildingBlock: AJUNOK_clean_linker_0, # of connection points: 2
#     Edge 37, Type (0, 0), BuildingBlock: AJUNOK_clean_linker_0, # of connection points: 2
#     Edge 38, Type (0, 0), BuildingBlock: AJUNOK_clean_linker_0, # of connection points: 2
#     Edge 39, Type (0, 0), BuildingBlock: AJUNOK_clean_linker_0, # of connection points: 2
#     Edge 40, Type (0, 0), BuildingBlock: AJUNOK_clean_linker_0, # of connection points: 2
#     Edge 41, Type (0, 0), BuildingBlock: AJUNOK_clean_linker_0, # of connection points: 2
#     Edge 42, Type (0, 0), BuildingBlock: AJUNOK_clean_linker_0, # of connection points: 2
#     Edge 43, Type (0, 0), BuildingBlock: AJUNOK_clean_linker_0, # of connection points: 2
#     Edge 44, Type (0, 0), BuildingBlock: AJUNOK_clean_linker_0, # of connection points: 2
#     Edge 45, Type (0, 0), BuildingBlock: AJUNOK_clean_linker_0, # of connection points: 2
#     Edge 46, Type (0, 0), BuildingBlock: AJUNOK_clean_linker_0, # of connection points: 2
#     Edge 47, Type (0, 0), BuildingBlock: AJUNOK_clean_linker_0, # of connection points: 2
#     Edge 48, Type (0, 0), BuildingBlock: AJUNOK_clean_linker_0, # of connection points: 2
#     Edge 49, Type (0, 0), BuildingBlock: AJUNOK_clean_linker_0, # of connection points: 2
#     Edge 50, Type (0, 0), BuildingBlock: AJUNOK_clean_linker_0, # of connection points: 2
#     Edge 51, Type (0, 0), BuildingBlock: AJUNOK_clean_linker_0, # of connection points: 2
#     Edge 52, Type (0, 0), BuildingBlock: AJUNOK_clean_linker_0, # of connection points: 2
#     Edge 53, Type (0, 0), BuildingBlock: AJUNOK_clean_linker_0, # of connection points: 2
#     Edge 54, Type (0, 0), BuildingBlock: AJUNOK_clean_linker_0, # of connection points: 2
#     Edge 55, Type (0, 0), BuildingBlock: AJUNOK_clean_linker_0, # of connection points: 2
#     Edge 56, Type (0, 0), BuildingBlock: AJUNOK_clean_linker_0, # of connection points: 2
#     Edge 57, Type (0, 0), BuildingBlock: AJUNOK_clean_linker_0, # of connection points: 2
#     Edge 58, Type (0, 0), BuildingBlock: AJUNOK_clean_linker_0, # of connection points: 2
#     Edge 59, Type (0, 0), BuildingBlock: AJUNOK_clean_linker_0, # of connection points: 2
#     Edge 60, Type (0, 0), BuildingBlock: AJUNOK_clean_linker_0, # of connection points: 2
#     Edge 61, Type (0, 0), BuildingBlock: AJUNOK_clean_linker_0, # of connection points: 2
#     Edge 62, Type (0, 0), BuildingBlock: AJUNOK_clean_linker_0, # of connection points: 2
#     Edge 63, Type (0, 0), BuildingBlock: AJUNOK_clean_linker_0, # of connection points: 2
#     Edge 64, Type (0, 0), BuildingBlock: AJUNOK_clean_linker_0, # of connection points: 2
#     Edge 65, Type (0, 0), BuildingBlock: AJUNOK_clean_linker_0, # of connection points: 2
#     Edge 66, Type (0, 0), BuildingBlock: AJUNOK_clean_linker_0, # of connection points: 2
#     Edge 67, Type (0, 0), BuildingBlock: AJUNOK_clean_linker_0, # of connection points: 2
#     Edge 68, Type (0, 0), BuildingBlock: AJUNOK_clean_linker_0, # of connection points: 2
#     Edge 69, Type (0, 0), BuildingBlock: AJUNOK_clean_linker_0, # of connection points: 2
#     Edge 70, Type (0, 0), BuildingBlock: AJUNOK_clean_linker_0, # of connection points: 2
#     Edge 71, Type (0, 0), BuildingBlock: AJUNOK_clean_linker_0, # of connection points: 2
#     Edge 72, Type (0, 0), BuildingBlock: AJUNOK_clean_linker_0, # of connection points: 2
#     Edge 73, Type (0, 0), BuildingBlock: AJUNOK_clean_linker_0, # of connection points: 2
#     Edge 74, Type (0, 0), BuildingBlock: AJUNOK_clean_linker_0, # of connection points: 2
#     Edge 75, Type (0, 0), BuildingBlock: AJUNOK_clean_linker_0, # of connection points: 2
#     Edge 76, Type (0, 0), BuildingBlock: AJUNOK_clean_linker_0, # of connection points: 2
#     Edge 77, Type (0, 0), BuildingBlock: AJUNOK_clean_linker_0, # of connection points: 2
#     Edge 78, Type (0, 0), BuildingBlock: AJUNOK_clean_linker_0, # of connection points: 2
#     Edge 79, Type (0, 0), BuildingBlock: AJUNOK_clean_linker_0, # of connection points: 2
#     Edge 80, Type (0, 0), BuildingBlock: AJUNOK_clean_linker_0, # of connection points: 2
#     Edge 81, Type (0, 0), BuildingBlock: AJUNOK_clean_linker_0, # of connection points: 2
#     Edge 82, Type (0, 0), BuildingBlock: AJUNOK_clean_linker_0, # of connection points: 2
#     Edge 83, Type (0, 0), BuildingBlock: AJUNOK_clean_linker_0, # of connection points: 2
#     Edge 84, Type (0, 0), BuildingBlock: AJUNOK_clean_linker_0, # of connection points: 2
#     Edge 85, Type (0, 0), BuildingBlock: AJUNOK_clean_linker_0, # of connection points: 2
#     Edge 86, Type (0, 0), BuildingBlock: AJUNOK_clean_linker_0, # of connection points: 2
#     Edge 87, Type (0, 0), BuildingBlock: AJUNOK_clean_linker_0, # of connection points: 2
#     Edge 88, Type (0, 0), BuildingBlock: AJUNOK_clean_linker_0, # of connection points: 2
#     Edge 89, Type (0, 0), BuildingBlock: AJUNOK_clean_linker_0, # of connection points: 2
#     Edge 90, Type (0, 0), BuildingBlock: AJUNOK_clean_linker_0, # of connection points: 2
#     Edge 91, Type (0, 0), BuildingBlock: AJUNOK_clean_linker_0, # of connection points: 2
#     Edge 92, Type (0, 0), BuildingBlock: AJUNOK_clean_linker_0, # of connection points: 2
#     Edge 93, Type (0, 0), BuildingBlock: AJUNOK_clean_linker_0, # of connection points: 2
#     Edge 94, Type (0, 0), BuildingBlock: AJUNOK_clean_linker_0, # of connection points: 2
#     Edge 95, Type (0, 0), BuildingBlock: AJUNOK_clean_linker_0, # of connection points: 2
#     Edge 96, Type (0, 0), BuildingBlock: AJUNOK_clean_linker_0, # of connection points: 2
#     Edge 97, Type (0, 0), BuildingBlock: AJUNOK_clean_linker_0, # of connection points: 2
#     Edge 98, Type (0, 0), BuildingBlock: AJUNOK_clean_linker_0, # of connection points: 2
#     Edge 99, Type (0, 0), BuildingBlock: AJUNOK_clean_linker_0, # of connection points: 2
#     Edge 100, Type (0, 0), BuildingBlock: AJUNOK_clean_linker_0, # of connection points: 2
#     Edge 101, Type (0, 0), BuildingBlock: AJUNOK_clean_linker_0, # of connection points: 2
#     Edge 102, Type (0, 0), BuildingBlock: AJUNOK_clean_linker_0, # of connection points: 2
#     Edge 103, Type (0, 0), BuildingBlock: AJUNOK_clean_linker_0, # of connection points: 2
#     Edge 104, Type (0, 0), BuildingBlock: AJUNOK_clean_linker_0, # of connection points: 2
#     Edge 105, Type (0, 0), BuildingBlock: AJUNOK_clean_linker_0, # of connection points: 2
#     Edge 106, Type (0, 0), BuildingBlock: AJUNOK_clean_linker_0, # of connection points: 2
#     Edge 107, Type (0, 0), BuildingBlock: AJUNOK_clean_linker_0, # of connection points: 2
#     Edge 108, Type (0, 0), BuildingBlock: AJUNOK_clean_linker_0, # of connection points: 2
#     Edge 109, Type (0, 0), BuildingBlock: AJUNOK_clean_linker_0, # of connection points: 2
#     Edge 110, Type (0, 0), BuildingBlock: AJUNOK_clean_linker_0, # of connection points: 2
#     Edge 111, Type (0, 0), BuildingBlock: AJUNOK_clean_linker_0, # of connection points: 2
# Relax obj value: 0.312
# Max RMSD: 0.121
# Mean RMSD: 0.121
data_MOF--net-vbc--node1-BEQFEK_clean_sbu_0--edge1-AJUNOK_clean_linker_0
_symmetry_space_group_name_H-M    P1
_symmetry_Int_Tables_number       1
_symmetry_cell_setting            triclinic
loop_
_symmetry_equiv_pos_as_xyz
'x, y, z'
_cell_length_a     31.677246
_cell_length_b     57.42029
_cell_length_c     37.304745
_cell_angle_alpha  90.300479
_cell_angle_beta   90.017784
_cell_angle_gamma 90.420446
loop_
_atom_site_label
_atom_site_type_symbol
_atom_site_fract_x
_atom_site_fract_y
_atom_site_fract_z
_atom_type_partial_charge
Co0 Co 0.14824 0.02211 0.5813 0.0
Co1 Co 0.21501 0.03504 0.52663 0.0
C2 C 0.13446 1.01118 0.49891 0.0
O3 O 0.12086 1.01263 0.53131 0.0
O4 O 0.17297 0.01701 0.49263 0.0
C5 C 0.07279 1.00499 0.62026 0.0
O6 O 0.05548 0.99362 0.647 0.0
C7 C 0.29462 0.03554 0.48489 0.0
C8 C 0.30429 0.07365 0.48092 0.0
C9 C 0.32276 0.05249 0.47344 0.0
N10 N 0.26122 0.04637 0.49948 0.0
N11 N 0.26698 0.0691 0.49629 0.0
C12 C 0.30052 1.00976 0.48412 0.0
H13 H 0.27823 1.00108 0.50284 0.0
H14 H 0.33362 1.00537 0.491 0.0
H15 H 0.29431 1.00325 0.45655 0.0
C16 C 0.22436 1.00384 0.62281 0.0
N17 N 0.20653 1.0123 0.59228 0.0
N18 N 0.23656 0.0199 0.57105 0.0
C19 C 0.27441 0.01745 0.58859 0.0
C20 C 0.26859 1.00699 0.6225 0.0
C21 C 0.19913 0.99222 0.65144 0.0
H22 H 0.17939 1.00537 0.66521 0.0
H23 H 0.1773 0.97931 0.63899 0.0
H24 H 0.21979 0.9832 0.67089 0.0
O25 O 0.14655 0.05753 0.58619 0.0
O26 O 0.18683 0.06506 0.53955 0.0
H27 H 0.31001 0.04331 0.55992 0.0
H28 H 0.33736 0.03077 0.59779 0.0
C29 C 0.31539 0.02711 0.57523 0.0
H30 H 0.33038 0.01411 0.55734 0.0
H31 H 0.24623 0.08174 0.5058 0.0
O32 O 0.11243 1.00862 0.62029 0.0
C33 C 0.16256 0.07213 0.56434 0.0
Co34 Co 0.14769 0.2215 0.58307 0.0
Co35 Co 0.07816 0.21293 0.53092 0.0
C36 C 0.15813 0.23352 0.50023 0.0
O37 O 0.17175 0.23036 0.53214 0.0
O38 O 0.11878 0.22981 0.4945 0.0
C39 C 0.19979 0.25586 0.60086 0.0
O40 O 0.16721 0.26854 0.5916 0.0
C41 C 1.00414 0.21651 0.48423 0.0
C42 C 0.9681 0.1853 0.50134 0.0
C43 C 0.96597 0.20486 0.47997 0.0
N44 N 0.02718 0.2047 0.50809 0.0
N45 N 1.0057 0.18599 0.51796 0.0
C46 C 1.01929 0.238 0.46551 0.0
H47 H 0.05244 0.23571 0.45683 0.0
H48 H 1.01846 0.25294 0.48449 0.0
H49 H 0.99968 0.24192 0.44168 0.0
C50 C 0.07404 0.23873 0.63105 0.0
N51 N 0.09144 0.23225 0.59903 0.0
N52 N 0.06092 0.22909 0.57574 0.0
C53 C 1.02328 0.23388 0.59226 0.0
C54 C 0.02958 0.23999 0.62863 0.0
C55 C 0.09917 0.24137 0.66461 0.0
H56 H 0.12874 0.23121 0.66265 0.0
H57 H 0.10731 0.26006 0.66822 0.0
H58 H 0.08057 0.23559 0.68815 0.0
O59 O 0.14929 0.18665 0.58686 0.0
O60 O 0.10341 0.18114 0.54276 0.0
H61 H 0.97108 0.21464 0.57075 0.0
H62 H 0.95733 0.24288 0.58857 0.0
C63 C 0.9816 0.23302 0.57349 0.0
H64 H 0.98479 0.24058 0.54637 0.0
H65 H 1.01623 0.17403 0.53688 0.0
O66 O 0.19229 0.23552 0.61262 0.0
C67 C 0.12918 0.17295 0.56581 0.0
Co68 Co 0.14962 0.25312 0.77768 0.0
Co69 Co 0.21874 0.23972 0.82906 0.0
C70 C 0.14063 0.26287 0.86146 0.0
O71 O 0.127 0.2639 0.82899 0.0
O72 O 0.17796 0.25494 0.86659 0.0
C73 C 0.07965 0.27967 0.7452 0.0
O74 O 0.06854 0.29677 0.72407 0.0
C75 C 0.29142 0.2363 0.87799 0.0
C76 C 0.32512 0.20741 0.85104 0.0
C77 C 0.32795 0.22328 0.8789 0.0
N78 N 0.26823 0.22864 0.85018 0.0
N79 N 0.28831 0.21129 0.83448 0.0
C80 C 0.28007 0.25659 0.9012 0.0
H81 H 0.26055 0.26908 0.88591 0.0
H82 H 0.30888 0.26541 0.91166 0.0
H83 H 0.26119 0.25025 0.92427 0.0
C84 C 0.2263 0.26678 0.73112 0.0
N85 N 0.20808 0.26066 0.76294 0.0
N86 N 0.23791 0.25713 0.78643 0.0
C87 C 0.27605 0.26193 0.77065 0.0
C88 C 0.27083 0.26804 0.73403 0.0
C89 C 0.20171 0.26822 0.6971 0.0
H90 H 0.17457 0.25604 0.69835 0.0
H91 H 0.18957 0.28616 0.69387 0.0
H92 H 0.22155 0.26367 0.67367 0.0
O93 O 0.14144 0.21771 0.77436 0.0
O94 O 0.19108 0.20943 0.81403 0.0
H95 H 0.32968 0.24383 0.7909 0.0
H96 H 0.34014 0.27378 0.77878 0.0
C97 C 0.31674 0.26172 0.79097 0.0
H98 H 0.31123 0.26699 0.81921 0.0
H99 H 0.27739 0.20251 0.8116 0.0
O100 O 0.11648 0.2713 0.74215 0.0
C101 C 0.16208 0.20277 0.79257 0.0
Co102 Co 0.14763 0.05124 0.78871 0.0
Co103 Co 0.07593 0.06279 0.83858 0.0
C104 C 0.15584 0.04032 0.8704 0.0
O105 O 0.16997 0.03928 0.8383 0.0
O106 O 0.11877 0.04853 0.87534 0.0
C107 C 0.21539 0.02363 0.75033 0.0
O108 O 0.2249 0.01466 0.71923 0.0
C109 C 0.99987 0.05494 0.88099 0.0
C110 C 0.96915 0.08927 0.87663 0.0
C111 C 0.96326 0.06683 0.88921 0.0
N112 N 0.0258 0.06961 0.86354 0.0
N113 N 1.00756 0.09016 0.86152 0.0
C114 C 1.00849 0.02961 0.88616 0.0
H115 H 0.03347 0.02368 0.86741 0.0
H116 H 0.97922 0.01917 0.88214 0.0
H117 H 1.0196 0.02684 0.91401 0.0
C118 C 0.07408 0.03576 0.73949 0.0
N119 N 0.09035 0.042 0.77217 0.0
N120 N 0.059 0.04572 0.79435 0.0
C121 C 1.02186 0.04138 0.77645 0.0
C122 C 0.0296 0.03459 0.74063 0.0
C123 C 0.10049 0.03314 0.70655 0.0
H124 H 0.12486 0.0471 0.70574 0.0
H125 H 0.11679 0.01612 0.70736 0.0
H126 H 0.08094 0.03402 0.68198 0.0
O127 O 0.15192 0.08694 0.7872 0.0
O128 O 0.09887 0.09432 0.82397 0.0
H129 H 0.95393 0.04372 0.77133 0.0
H130 H 0.97308 0.03464 0.81456 0.0
C131 C 0.97917 0.04637 0.79162 0.0
H132 H 0.97822 0.0646 0.80148 0.0
H133 H 1.02044 0.10453 0.84828 0.0
O134 O 0.18438 0.03756 0.75159 0.0
C135 C 0.12855 0.10165 0.80369 0.0
Co136 Co 0.89891 1.00544 0.53497 0.0
Co137 Co 0.82888 0.98999 0.58536 0.0
C138 C 0.9084 0.01431 0.61776 0.0
O139 O 0.9214 0.01711 0.58544 0.0
O140 O 0.87218 1.00454 0.6226 0.0
C141 C 0.96863 0.03028 0.49999 0.0
O142 O 0.98122 0.04586 0.47664 0.0
C143 C 0.75676 0.98748 0.63579 0.0
C144 C 0.72186 0.95788 0.61125 0.0
C145 C 0.72004 0.97434 0.63831 0.0
N146 N 0.77917 0.97919 0.60798 0.0
N147 N 0.75833 0.96142 0.59378 0.0
C148 C 0.76905 1.00836 0.65755 0.0
H149 H 0.7865 0.02102 0.64061 0.0
H150 H 0.74085 0.01668 0.66961 0.0
H151 H 0.7904 1.00283 0.67945 0.0
C152 C 0.82413 0.01922 0.4886 0.0
N153 N 0.84098 1.01273 0.52065 0.0
N154 N 0.81029 1.00752 0.54276 0.0
C155 C 0.77274 1.01106 0.52538 0.0
C156 C 0.77973 0.01879 0.48992 0.0
C157 C 0.85006 0.02175 0.45538 0.0
H158 H 0.87352 1.00758 0.45448 0.0
H159 H 0.86722 0.03866 0.45614 0.0
H160 H 0.83046 0.02077 0.43081 0.0
O161 O 0.90707 0.97022 0.53202 0.0
O162 O 0.85456 0.96017 0.56816 0.0
H163 H 0.72254 0.98759 0.53823 0.0
H164 H 0.70567 0.01678 0.52859 0.0
C165 C 0.73052 1.00631 0.54174 0.0
H166 H 0.73123 1.01044 0.57079 0.0
H167 H 0.76847 0.95205 0.57124 0.0
O168 O 0.93155 0.02209 0.49752 0.0
C169 C 0.88509 0.95453 0.54775 0.0
Co170 Co 0.89869 0.80501 0.53262 0.0
Co171 Co 0.97161 0.81503 0.58195 0.0
C172 C 0.89125 0.79527 0.61547 0.0
O173 O 0.87673 0.79725 0.58376 0.0
O174 O 0.93063 0.79962 0.62029 0.0
C175 C 0.84993 0.76865 0.51882 0.0
O176 O 0.88511 0.75781 0.52659 0.0
C177 C 0.04814 0.81276 0.62736 0.0
C178 C 0.07943 0.84561 0.61114 0.0
C179 C 0.08437 0.8262 0.63252 0.0
N180 N 1.02327 0.82381 0.60382 0.0
N181 N 0.04216 0.84342 0.59439 0.0
C182 C 0.0369 0.79008 0.64458 0.0
H183 H 1.00229 0.78726 0.64438 0.0
H184 H 0.05162 0.77568 0.62919 0.0
H185 H 0.04879 0.78957 0.67255 0.0
C186 C 0.97095 0.78824 0.48299 0.0
N187 N 0.9551 0.79458 0.51562 0.0
N188 N 0.98673 0.79774 0.5378 0.0
C189 C 1.02356 0.79292 0.52001 0.0
C190 C 1.01548 0.78647 0.48397 0.0
C191 C 0.94361 0.78503 0.45097 0.0
H192 H 0.9595 0.79113 0.42632 0.0
H193 H 0.91375 0.79471 0.45474 0.0
H194 H 0.93628 0.7662 0.44805 0.0
O195 O 0.89512 0.83971 0.52868 0.0
O196 O 0.94725 0.84648 0.56714 0.0
H197 H 0.07005 0.81662 0.54017 0.0
H198 H 0.09201 0.79189 0.51757 0.0
C199 C 0.0663 0.79764 0.5356 0.0
H200 H 0.06912 0.78874 0.56179 0.0
H201 H 0.03005 0.85509 0.57579 0.0
O202 O 0.85309 0.78913 0.5062 0.0
C203 C 0.9185 0.854 0.54616 0.0
Co204 Co 0.89766 0.77195 0.33776 0.0
Co205 Co 0.8263 0.78055 0.28527 0.0
C206 C 0.90796 0.76011 0.25458 0.0
O207 O 0.92174 0.76073 0.28707 0.0
O208 O 0.86947 0.76607 0.24887 0.0
C209 C 0.97514 0.75427 0.37302 0.0
O210 O 0.9934 0.7435 0.39977 0.0
C211 C 0.75332 0.7826 0.23452 0.0
C212 C 0.71426 0.80751 0.26531 0.0
C213 C 0.71463 0.79379 0.2348 0.0
N214 N 0.77452 0.78919 0.26418 0.0
N215 N 0.75112 0.8042 0.28209 0.0
C216 C 0.76909 0.76535 0.20768 0.0
H217 H 0.78952 0.75237 0.22101 0.0
H218 H 0.74239 0.75647 0.19384 0.0
H219 H 0.78837 0.77465 0.18737 0.0
C220 C 0.82395 0.75597 0.38547 0.0
N221 N 0.84081 0.76168 0.35297 0.0
N222 N 0.81022 0.76333 0.32959 0.0
C223 C 0.77312 0.75726 0.34626 0.0
C224 C 0.77975 0.75222 0.3831 0.0
C225 C 0.84848 0.7592 0.41926 0.0
H226 H 0.87016 0.77417 0.4157 0.0
H227 H 0.86766 0.74348 0.42442 0.0
H228 H 0.82755 0.7628 0.44243 0.0
O229 O 0.89902 0.80733 0.33925 0.0
O230 O 0.8508 0.81246 0.29722 0.0
H231 H 0.71526 0.77326 0.3309 0.0
H232 H 0.71117 0.74243 0.33867 0.0
C233 C 0.73153 0.75637 0.32734 0.0
H234 H 0.73616 0.75309 0.29829 0.0
H235 H 0.76011 0.81192 0.30646 0.0
O236 O 0.93619 0.75931 0.37529 0.0
C237 C 0.87805 0.82084 0.31899 0.0
Co238 Co 0.89342 0.97181 0.33007 0.0
Co239 Co 0.96463 0.96154 0.27923 0.0
C240 C 0.88497 0.98395 0.24772 0.0
O241 O 0.87068 0.98365 0.27987 0.0
O242 O 0.92264 0.97667 0.24247 0.0
C243 C 0.84297 1.00572 0.35778 0.0
O244 O 0.8764 0.01913 0.35367 0.0
C245 C 0.0373 0.96829 0.23209 0.0
C246 C 0.07552 0.93745 0.24559 0.0
C247 C 0.07571 0.95772 0.22575 0.0
N248 N 1.01551 0.95493 0.25509 0.0
N249 N 0.03823 0.93639 0.2627 0.0
C250 C 1.02321 0.99173 0.21976 0.0
H251 H 1.00387 1.0002 0.24088 0.0
H252 H 0.05065 1.00297 0.21284 0.0
H253 H 1.00315 0.9895 0.19558 0.0
C254 C 0.9674 0.98839 0.3793 0.0
N255 N 0.95024 0.98175 0.3471 0.0
N256 N 0.98111 0.97795 0.32441 0.0
C257 C 1.01867 0.98237 0.34152 0.0
C258 C 1.01197 0.98899 0.37761 0.0
C259 C 0.94187 0.99197 0.41245 0.0
H260 H 0.91151 0.9823 0.41052 0.0
H261 H 0.9352 1.01082 0.41534 0.0
H262 H 0.95953 0.98629 0.43655 0.0
O263 O 0.89013 0.93629 0.33063 0.0
O264 O 0.94098 0.92966 0.29131 0.0
H265 H 0.06922 0.96198 0.32062 0.0
H266 H 0.08567 0.98969 0.33933 0.0
C267 C 0.06074 0.98058 0.32361 0.0
H268 H 0.05917 0.98846 0.29663 0.0
H269 H 0.02894 0.92346 0.2807 0.0
O270 O 0.84925 0.98409 0.36219 0.0
C271 C 0.91207 0.92201 0.31209 0.0
Co272 Co 0.14936 0.52123 0.07637 0.0
Co273 Co 0.2189 0.53813 1.02627 0.0
C274 C 0.14118 0.51279 0.99301 0.0
O275 O 0.12759 0.5099 1.02522 0.0
O276 O 0.1773 0.52279 0.98874 0.0
C277 C 0.07552 0.49991 0.11175 0.0
O278 O 0.05805 0.48845 0.13834 0.0
C279 C 0.29041 0.5464 0.97553 0.0
C280 C 0.31761 0.57763 1.00211 0.0
C281 C 0.3226 0.5629 0.97305 0.0
N282 N 0.26745 0.55138 1.00486 0.0
N283 N 0.28397 0.57003 1.02045 0.0
C284 C 0.28068 0.52689 0.95008 0.0
H285 H 0.24666 0.5223 0.95107 0.0
H286 H 0.29898 0.51135 0.95806 0.0
H287 H 0.28975 0.53166 0.92231 0.0
C288 C 0.22678 0.50613 0.12121 0.0
N289 N 0.20829 0.51383 0.09036 0.0
N290 N 0.23821 0.52011 0.06802 0.0
C291 C 0.27651 0.51633 0.08392 0.0
C292 C 0.27118 0.50727 0.11874 0.0
C293 C 0.20238 0.499 0.15366 0.0
H294 H 0.188 0.51472 0.16575 0.0
H295 H 0.17664 0.48682 0.14586 0.0
H296 H 0.22287 0.49054 0.17383 0.0
O297 O 0.14002 0.55647 0.07986 0.0
O298 O 0.19142 0.56735 1.04356 0.0
H299 H 0.34486 0.51612 0.08174 0.0
H300 H 0.31837 0.51966 1.03907 0.0
C301 C 0.31757 0.5241 0.06803 0.0
H302 H 0.32049 0.54326 0.07096 0.0
H303 H 0.27233 0.57758 1.04398 0.0
O304 O 0.11397 0.50614 0.11403 0.0
C305 C 0.16097 0.57254 0.06416 0.0
Co306 Co 0.14735 0.72316 0.08065 0.0
Co307 Co 0.07297 0.71213 1.03273 0.0
C308 C 0.15283 0.73387 0.99863 0.0
O309 O 0.16794 0.73416 1.03033 0.0
O310 O 0.1149 0.72643 0.99442 0.0
C311 C 0.19825 0.75882 0.10244 0.0
O312 O 0.1632 0.77035 0.09683 0.0
C313 C 0.99847 0.72209 0.99055 0.0
C314 C 0.96157 0.68942 0.99524 0.0
C315 C 0.96017 0.71183 0.98179 0.0
N316 N 1.02122 0.70659 1.00895 0.0
N317 N 0.99925 0.68702 1.0114 0.0
C318 C 1.01203 0.74674 0.98434 0.0
H319 H 0.03537 0.75229 1.00496 0.0
H320 H 0.98439 0.75852 0.98474 0.0
H321 H 0.02728 0.74796 0.95764 0.0
C322 C 0.0756 0.7391 0.13225 0.0
N323 N 0.09098 0.73291 0.09932 0.0
N324 N 0.05884 0.72889 0.07792 0.0
C325 C 1.02225 0.73278 0.09664 0.0
C326 C 0.03087 0.73973 0.13237 0.0
C327 C 0.10361 0.74334 0.16356 0.0
H328 H 0.13474 0.73521 0.15872 0.0
H329 H 0.10788 0.76241 0.16693 0.0
H330 H 0.08978 0.73619 0.18841 0.0
O331 O 0.15007 0.68768 0.08092 0.0
O332 O 0.09478 0.6803 1.04602 0.0
H333 H 0.95453 0.72838 0.1031 0.0
H334 H 0.97192 0.73803 0.05944 0.0
C335 C 0.97942 0.72661 0.08241 0.0
H336 H 0.97938 0.70832 0.07286 0.0
H337 H 1.00939 0.67227 1.02507 0.0
O338 O 0.19482 0.73707 0.10839 0.0
C339 C 0.12541 0.67307 0.06518 0.0
Co340 Co 0.14643 0.75338 0.28006 0.0
Co341 Co 0.21804 0.7413 0.33075 0.0
C342 C 0.1372 0.76398 0.36233 0.0
O343 O 0.12364 0.76549 0.32997 0.0
O344 O 0.17424 0.75555 0.36744 0.0
C345 C 0.07108 0.7724 0.24464 0.0
O346 O 0.05293 0.78303 0.2177 0.0
C347 C 0.28835 0.73896 0.38357 0.0
C348 C 0.32806 0.71307 0.35541 0.0
C349 C 0.32635 0.72718 0.38545 0.0
N350 N 0.2687 0.7322 0.35325 0.0
N351 N 0.29243 0.71662 0.33689 0.0
C352 C 0.27175 0.75688 0.40896 0.0
H353 H 0.25618 0.771 0.39377 0.0
H354 H 0.2974 0.76419 0.42602 0.0
H355 H 0.24757 0.74867 0.42643 0.0
C356 C 0.22065 0.77023 0.2334 0.0
N357 N 0.20401 0.76295 0.26523 0.0
N358 N 0.23502 0.75897 0.28756 0.0
C359 C 0.27234 0.76408 0.27057 0.0
C360 C 0.26513 0.77147 0.235 0.0
C361 C 0.19474 0.77207 0.20024 0.0
H362 H 0.17312 0.75695 0.1994 0.0
H363 H 0.17559 0.78816 0.20139 0.0
H364 H 0.21439 0.77203 0.17568 0.0
O365 O 0.1413 0.71771 0.27908 0.0
O366 O 0.19481 0.71014 0.31516 0.0
H367 H 0.32647 0.74371 0.28288 0.0
H368 H 0.33772 0.77406 0.27573 0.0
C369 C 0.31476 0.76162 0.28763 0.0
H370 H 0.31262 0.76479 0.3169 0.0
H371 H 0.28457 0.70864 0.31244 0.0
O372 O 0.10945 0.76641 0.24199 0.0
C373 C 0.16472 0.70302 0.29518 0.0
Co374 Co 0.15328 0.55142 0.27692 0.0
Co375 Co 0.082 0.56198 0.3269 0.0
C376 C 0.16311 0.5394 0.35863 0.0
O377 O 0.17711 0.53877 0.32635 0.0
O378 O 0.12563 0.54723 0.36336 0.0
C379 C 0.20727 0.51986 0.24729 0.0
O380 O 0.17782 0.50398 0.25235 0.0
C381 C 1.00633 0.55339 0.36995 0.0
C382 C 0.97807 0.58851 0.3703 0.0
C383 C 0.97138 0.56579 0.38124 0.0
N384 N 0.03228 0.5682 0.35281 0.0
N385 N 1.01549 0.58918 0.35351 0.0
C386 C 1.01353 0.52774 0.37235 0.0
H387 H 0.03361 0.52177 0.34976 0.0
H388 H 0.98306 0.51806 0.37239 0.0
H389 H 0.03048 0.52397 0.39768 0.0
C390 C 0.08021 0.53555 0.22682 0.0
N391 N 0.09647 0.54182 0.25949 0.0
N392 N 0.0651 0.54561 0.28166 0.0
C393 C 0.02794 0.54152 0.26364 0.0
C394 C 0.03561 0.53478 0.2277 0.0
C395 C 0.10707 0.53131 0.19461 0.0
H396 H 0.11933 0.51329 0.19585 0.0
H397 H 0.08886 0.53319 0.1695 0.0
H398 H 0.13428 0.54356 0.19449 0.0
O399 O 0.15735 0.58688 0.27816 0.0
O400 O 0.10333 0.5942 0.3139 0.0
H401 H 0.96032 0.54556 0.25823 0.0
H402 H 0.97816 0.53404 0.30046 0.0
C403 C 0.98539 0.5467 0.27895 0.0
H404 H 0.98554 0.56441 0.29092 0.0
H405 H 0.02888 0.60385 0.34147 0.0
O406 O 0.19538 0.54061 0.24198 0.0
C407 C 0.13381 0.60147 0.29453 0.0
Co408 Co 0.90136 0.5032 1.02227 0.0
Co409 Co 0.8325 0.49033 0.07569 0.0
C410 C 0.91283 0.5138 0.10567 0.0
O411 O 0.92585 0.51444 0.07295 0.0
O412 O 0.87535 0.50598 0.11173 0.0
C413 C 0.97775 0.52113 0.98585 0.0
O414 O 0.99598 0.53244 0.95947 0.0
C415 C 0.7623 0.48239 0.12838 0.0
C416 C 0.72869 0.45475 0.09784 0.0
C417 C 0.72702 0.46772 0.12911 0.0
N418 N 0.78303 0.47839 0.09751 0.0
N419 N 0.76295 0.46172 0.07977 0.0
C420 C 0.77851 0.49814 0.1574 0.0
H421 H 0.8135 0.49783 0.15794 0.0
H422 H 0.76875 0.51626 0.15166 0.0
H423 H 0.76607 0.49287 0.18399 0.0
C424 C 0.82532 0.51964 0.97766 0.0
N425 N 0.84342 0.51229 1.00887 0.0
N426 N 0.81343 0.50726 1.03184 0.0
C427 C 0.77525 0.51165 1.01585 0.0
C428 C 0.78081 0.51973 0.9803 0.0
C429 C 0.85039 0.52553 0.94501 0.0
H430 H 0.87645 0.53765 0.9523 0.0
H431 H 0.83044 0.53368 0.92432 0.0
H432 H 0.86454 0.50939 0.934 0.0
O433 O 0.90479 0.46772 1.01924 0.0
O434 O 0.85976 0.46011 0.06277 0.0
H435 H 0.70729 0.51496 1.02026 0.0
H436 H 0.7346 0.50892 0.06173 0.0
C437 C 0.73375 0.50538 1.03249 0.0
H438 H 0.72754 0.48657 1.028 0.0
H439 H 0.77274 0.4551 1.05502 0.0
O440 O 0.93848 0.51654 0.98407 0.0
C441 C 0.88648 0.45313 1.03982 0.0
Co442 Co 0.90132 0.3034 1.02932 0.0
Co443 Co 0.96995 0.31296 0.08138 0.0
C444 C 0.8886 0.29251 0.11171 0.0
O445 O 0.87559 0.29512 0.07957 0.0
O446 O 0.92784 0.29647 0.11772 0.0
C447 C 0.8503 0.26877 1.01181 0.0
O448 O 0.88296 0.25655 1.02226 0.0
C449 C 0.04351 0.30469 0.12506 0.0
C450 C 0.07736 0.33844 0.12177 0.0
C451 C 0.08057 0.31594 0.13458 0.0
N452 N 1.0197 0.31975 0.10682 0.0
N453 N 0.0398 0.33996 0.10519 0.0
C454 C 0.03235 0.27958 0.13015 0.0
H455 H 1.00985 0.27368 0.1091 0.0
H456 H 0.06114 0.26867 0.12958 0.0
H457 H 1.01693 0.27744 0.15665 0.0
C458 C 0.97466 0.28528 0.98241 0.0
N459 N 0.95769 0.29235 1.01424 0.0
N460 N 0.98851 0.29669 1.03676 0.0
C461 C 0.02608 0.29253 1.01955 0.0
C462 C 1.01916 0.28484 0.98386 0.0
C463 C 0.94864 0.27959 0.95046 0.0
H464 H 0.91757 0.27295 0.95921 0.0
H465 H 0.96456 0.26621 0.93414 0.0
H466 H 0.94421 0.29549 0.93415 0.0
O467 O 0.90014 0.33829 1.02472 0.0
O468 O 0.94632 0.34489 0.06831 0.0
H469 H 0.09358 0.29826 1.01466 0.0
H470 H 0.07573 0.28698 0.05725 0.0
C471 C 0.06815 0.29901 1.03504 0.0
H472 H 0.06694 0.31694 1.046 0.0
H473 H 0.02855 0.35452 0.09167 0.0
O474 O 0.85746 0.28905 0.99964 0.0
C475 C 0.92048 0.35252 1.04483 0.0
Co476 Co 0.90005 0.27414 0.83292 0.0
Co477 Co 0.82854 0.28396 0.78193 0.0
C478 C 0.90757 0.26244 0.74962 0.0
O479 O 0.92235 0.26408 0.78162 0.0
O480 O 0.86878 0.26788 0.74439 0.0
C481 C 0.9743 0.25151 0.86319 0.0
O482 O 0.99245 0.23812 0.88701 0.0
C483 C 0.75778 0.29317 0.73085 0.0
C484 C 0.72218 0.31741 0.76574 0.0
C485 C 0.72232 0.30725 0.7321 0.0
N486 N 0.77769 0.29511 0.76256 0.0
N487 N 0.75617 0.30958 0.78311 0.0
C488 C 0.77392 0.27941 0.69966 0.0
H489 H 0.8089 0.27915 0.69992 0.0
H490 H 0.76229 0.2612 0.70186 0.0
H491 H 0.76264 0.28676 0.67395 0.0
C492 C 0.82531 0.25955 0.88096 0.0
N493 N 0.84233 0.26503 0.84846 0.0
N494 N 0.81176 0.26662 0.82511 0.0
C495 C 0.77451 0.26091 0.84171 0.0
C496 C 0.78103 0.25602 0.87855 0.0
C497 C 0.84988 0.26266 0.91468 0.0
H498 H 0.87219 0.27743 0.91116 0.0
H499 H 0.86844 0.24672 0.91999 0.0
H500 H 0.82887 0.26645 0.93768 0.0
O501 O 0.90648 0.30918 0.83563 0.0
O502 O 0.85525 0.31512 0.79656 0.0
H503 H 0.71662 0.27718 0.82708 0.0
H504 H 0.71264 0.24621 0.83341 0.0
C505 C 0.73296 0.26039 0.82271 0.0
H506 H 0.73763 0.25776 0.79349 0.0
H507 H 0.7651 0.31432 0.80913 0.0
O508 O 0.93677 0.25836 0.86842 0.0
C509 C 0.88407 0.32315 0.81725 0.0
Co510 Co 0.90632 0.47504 0.8177 0.0
Co511 Co 0.97726 0.45939 0.77126 0.0
C512 C 0.90032 0.4793 0.73367 0.0
O513 O 0.8858 0.48 0.7655 0.0
O514 O 0.93902 0.47353 0.73016 0.0
C515 C 0.87825 0.51884 0.82647 0.0
O516 O 0.91694 0.52195 0.81472 0.0
C517 C 0.05246 0.46557 0.72984 0.0
C518 C 0.08222 0.4309 0.73177 0.0
C519 C 0.08793 0.45344 0.71937 0.0
N520 N 0.02706 0.45089 0.74765 0.0
N521 N 0.04462 0.43012 0.74849 0.0
C522 C 0.04425 0.4911 0.72642 0.0
H523 H 0.02493 0.49733 0.7493 0.0
H524 H 0.07427 0.50115 0.72507 0.0
H525 H 0.02596 0.49417 0.70154 0.0
C526 C 0.97885 0.49015 0.86773 0.0
N527 N 0.96351 0.48299 0.83523 0.0
N528 N 0.99516 0.47741 0.81445 0.0
C529 C 0.0319 0.48108 0.83327 0.0
C530 C 1.02344 0.48961 0.86826 0.0
C531 C 0.95083 0.49666 0.89832 0.0
H532 H 0.91819 0.49028 0.89352 0.0
H533 H 0.95034 0.51591 0.90096 0.0
H534 H 0.96265 0.48933 0.92376 0.0
O535 O 0.89668 0.4402 0.82538 0.0
O536 O 0.94939 0.42952 0.78928 0.0
H537 H 0.09832 0.47417 0.84172 0.0
H538 H 0.08452 0.48515 0.79802 0.0
C539 C 0.07429 0.47356 0.82009 0.0
H540 H 0.07215 0.45554 0.80943 0.0
H541 H 0.0316 0.41568 0.76139 0.0
O542 O 0.86807 0.49875 0.83854 0.0
C543 C 0.91868 0.42419 0.81017 0.0
Co544 Co 0.64409 0.02219 0.08448 0.0
Co545 Co 0.71191 0.03708 1.03166 0.0
C546 C 0.63146 1.01277 1.00183 0.0
O547 O 0.61824 1.01149 1.03437 0.0
O548 O 0.66881 0.02091 0.99645 0.0
C549 C 0.56935 1.003 0.12168 0.0
O550 O 0.55205 0.99112 0.1479 0.0
C551 C 0.78674 0.03662 0.9843 0.0
C552 C 0.80134 0.07435 0.983 0.0
C553 C 0.81388 0.053 0.96981 0.0
N554 N 0.75896 0.0479 1.00521 0.0
N555 N 0.76812 0.07039 1.00442 0.0
C556 C 0.78615 1.01099 0.97732 0.0
H557 H 0.7622 1.00223 0.99441 0.0
H558 H 0.81789 1.00371 0.98265 0.0
H559 H 0.77872 1.00775 0.94864 0.0
C560 C 0.72061 1.00386 0.12645 0.0
N561 N 0.70248 1.01288 0.09636 0.0
N562 N 0.73241 0.0208 0.0753 0.0
C563 C 0.77038 0.01791 0.09234 0.0
C564 C 0.76486 1.00685 0.12586 0.0
C565 C 0.69562 0.99344 0.15632 0.0
H566 H 0.67954 1.00758 0.17117 0.0
H567 H 0.67099 0.98162 0.14519 0.0
H568 H 0.71607 0.98354 0.17488 0.0
O569 O 0.64015 0.0581 0.08857 0.0
O570 O 0.68467 0.067 1.04526 0.0
H571 H 0.83702 0.02561 0.09794 0.0
H572 H 0.81998 0.01645 1.05379 0.0
C573 C 0.81134 0.02683 0.0778 0.0
H574 H 0.80769 0.04519 0.06929 0.0
H575 H 0.75151 0.08324 1.01832 0.0
O576 O 0.60855 1.00786 0.1229 0.0
C577 C 0.65786 0.07332 0.06855 0.0
Co578 Co 0.64429 0.22338 0.08029 0.0
Co579 Co 0.57448 0.21413 1.02962 0.0
C580 C 0.65527 0.2334 0.99763 0.0
O581 O 0.66883 0.23056 1.02952 0.0
O582 O 0.61575 0.23006 0.99218 0.0
C583 C 0.69594 0.25801 0.09448 0.0
O584 O 0.66234 0.27004 0.08589 0.0
C585 C 0.50332 0.22015 0.98226 0.0
C586 C 0.46388 0.18942 0.99565 0.0
C587 C 0.46497 0.20948 0.9753 0.0
N588 N 0.52401 0.207 1.0059 0.0
N589 N 0.50057 0.18859 1.01367 0.0
C590 C 0.5184 0.24353 0.96994 0.0
H591 H 0.53576 0.25251 0.99194 0.0
H592 H 0.49166 0.25443 0.9609 0.0
H593 H 0.54065 0.24115 0.94727 0.0
C594 C 0.57323 0.24499 0.12628 0.0
N595 N 0.58886 0.23609 0.09509 0.0
N596 N 0.55734 0.23141 0.07353 0.0
C597 C 0.52047 0.23687 0.09088 0.0
C598 C 0.52846 0.24581 0.12576 0.0
C599 C 0.60136 0.25006 0.15715 0.0
H600 H 0.60988 0.23336 0.16998 0.0
H601 H 0.63053 0.25831 0.14709 0.0
H602 H 0.58692 0.26182 0.17696 0.0
O603 O 0.64415 0.18836 0.08643 0.0
O604 O 0.59787 0.1821 1.04287 0.0
H605 H 0.47068 0.21407 0.07405 0.0
H606 H 0.45287 0.24199 0.09057 0.0
C607 C 0.47771 0.23302 0.07487 0.0
H608 H 0.47732 0.23966 1.04705 0.0
H609 H 0.50906 0.17586 1.03216 0.0
O610 O 0.68997 0.23793 0.10789 0.0
C611 C 0.62345 0.17424 0.06637 0.0
Co612 Co 0.64726 0.2464 0.28081 0.0
Co613 Co 0.72204 0.24187 0.33083 0.0
C614 C 0.63955 0.26194 0.36157 0.0
O615 O 0.62403 0.25939 0.3299 0.0
O616 O 0.67865 0.25701 0.36678 0.0
C617 C 0.56576 0.24175 0.24511 0.0
O618 O 0.54525 0.2345 0.21666 0.0
C619 C 0.79362 0.23719 0.38267 0.0
C620 C 0.83561 0.21695 0.34681 0.0
C621 C 0.83231 0.22592 0.38108 0.0
N622 N 0.77538 0.23514 0.35024 0.0
N623 N 0.80059 0.22299 0.32923 0.0
C624 C 0.77208 0.247 0.41498 0.0
H625 H 0.73773 0.24319 0.41373 0.0
H626 H 0.7763 0.2662 0.41523 0.0
H627 H 0.78545 0.23977 0.44004 0.0
C628 C 0.71935 0.26323 0.22916 0.0
N629 N 0.70318 0.25777 0.26211 0.0
N630 N 0.7343 0.25817 0.28524 0.0
C631 C 0.77038 0.26533 0.26806 0.0
C632 C 0.76311 0.26872 0.23101 0.0
C633 C 0.69483 0.25937 0.19572 0.0
H634 H 0.67356 0.24418 0.19944 0.0
H635 H 0.67545 0.27501 0.19056 0.0
H636 H 0.71589 0.25598 0.17258 0.0
O637 O 0.64785 0.21213 0.28624 0.0
O638 O 0.7026 0.20841 0.32186 0.0
H639 H 0.83226 0.2546 0.28369 0.0
H640 H 0.82763 0.28515 0.27504 0.0
C641 C 0.81134 0.26985 0.28693 0.0
H642 H 0.80596 0.27307 0.31591 0.0
H643 H 0.79313 0.2181 0.30289 0.0
O644 O 0.60442 0.2477 0.24222 0.0
C645 C 0.67255 0.19927 0.30389 0.0
Co646 Co 0.65077 0.04933 0.28584 0.0
Co647 Co 0.58087 0.06042 0.33757 0.0
C648 C 0.66056 0.03708 0.36669 0.0
O649 O 0.67498 0.03788 0.33469 0.0
O650 O 0.62267 0.04376 0.37223 0.0
C651 C 0.7207 0.02498 0.25112 0.0
O652 O 0.73719 0.01525 0.22268 0.0
C653 C 0.50772 0.05234 0.3826 0.0
C654 C 0.48746 0.08833 0.39453 0.0
C655 C 0.47835 0.06516 0.40136 0.0
N656 N 0.53329 0.06729 0.36545 0.0
N657 N 0.52105 0.08877 0.37257 0.0
C658 C 0.51328 0.02651 0.3828 0.0
H659 H 0.54113 0.02144 0.36656 0.0
H660 H 0.48463 0.01785 0.37182 0.0
H661 H 0.51724 0.02048 0.41082 0.0
C662 C 0.57527 0.03561 0.2376 0.0
N663 N 0.59244 0.04125 0.27015 0.0
N664 N 0.56172 0.04521 0.29282 0.0
C665 C 0.52404 0.04193 0.27536 0.0
C666 C 0.53064 0.03539 0.23917 0.0
C667 C 0.60156 0.03159 0.205 0.0
H668 H 0.62628 0.0453 0.20304 0.0
H669 H 0.6174 0.01451 0.20749 0.0
H670 H 0.58233 0.03164 0.18036 0.0
O671 O 0.65797 0.08418 0.28705 0.0
O672 O 0.60612 0.09185 0.3252 0.0
H673 H 0.48489 0.06474 0.30632 0.0
H674 H 0.45746 0.0496 0.27056 0.0
C675 C 0.48226 0.04805 0.2914 0.0
H676 H 0.47275 0.03428 0.31055 0.0
H677 H 0.53585 0.10372 0.36273 0.0
O678 O 0.68689 0.03645 0.24787 0.0
C679 C 0.63653 0.09875 0.30535 0.0
Co680 Co 0.397 1.00654 1.03461 0.0
Co681 Co 0.32895 0.98964 0.0861 0.0
C682 C 0.40699 0.01518 0.11772 0.0
O683 O 0.42033 0.01744 0.08533 0.0
O684 O 0.37033 1.00595 0.12267 0.0
C685 C 0.46993 0.02753 0.99849 0.0
O686 O 0.48732 0.03951 0.97242 0.0
C687 C 0.25464 0.98643 0.13399 0.0
C688 C 0.22754 0.95309 0.11429 0.0
C689 C 0.22058 0.97141 0.1376 0.0
N690 N 0.28049 0.97747 0.10901 0.0
N691 N 0.26432 0.95746 0.09774 0.0
C692 C 0.2609 1.00953 0.15183 0.0
H693 H 0.28492 0.02002 0.1373 0.0
H694 H 0.23052 0.01903 0.15309 0.0
H695 H 0.27186 1.00674 0.17973 0.0
C696 C 0.32028 0.02338 0.99182 0.0
N697 N 0.33847 0.0145 1.02198 0.0
N698 N 0.30871 1.00612 1.04275 0.0
C699 C 0.27078 1.00867 1.02554 0.0
C700 C 0.27623 0.0198 0.9922 0.0
C701 C 0.34507 0.0342 0.96213 0.0
H702 H 0.36492 0.02069 0.94937 0.0
H703 H 0.3665 0.04777 0.97332 0.0
H704 H 0.32418 0.04213 0.94173 0.0
O705 O 0.4048 0.97098 1.03063 0.0
O706 O 0.35853 0.96062 0.07207 0.0
H707 H 0.20277 1.00548 1.02321 0.0
H708 H 0.22548 1.00541 0.06776 0.0
C709 C 0.22978 0.99952 1.03967 0.0
H710 H 0.23039 0.98022 1.03936 0.0
H711 H 0.27771 0.94708 0.07768 0.0
O712 O 0.43133 0.02165 0.99635 0.0
C713 C 0.38703 0.95523 1.04965 0.0
Co714 Co 0.39645 0.80621 1.03204 0.0
Co715 Co 0.4687 0.81354 0.0835 0.0
C716 C 0.38622 0.79322 0.1133 0.0
O717 O 0.37156 0.79601 0.08163 0.0
O718 O 0.42555 0.7974 0.11863 0.0
C719 C 0.3206 0.78472 0.9988 0.0
O720 O 0.30071 0.77803 0.96975 0.0
C721 C 0.54084 0.8031 0.12894 0.0
C722 C 0.5795 0.83512 0.12351 0.0
C723 C 0.57902 0.81318 0.1387 0.0
N724 N 0.51981 0.81837 0.10867 0.0
N725 N 0.54288 0.83753 0.1057 0.0
C726 C 0.52595 0.77875 0.13579 0.0
H727 H 0.50819 0.77204 0.1122 0.0
H728 H 0.55285 0.76713 0.14185 0.0
H729 H 0.50405 0.77884 0.159 0.0
C730 C 0.46834 0.7903 0.98236 0.0
N731 N 0.45253 0.79566 1.01542 0.0
N732 N 0.48408 0.79804 1.03788 0.0
C733 C 0.52088 0.79362 1.0198 0.0
C734 C 0.51282 0.78851 0.9833 0.0
C735 C 0.441 0.78781 0.95002 0.0
H736 H 0.41691 0.80172 0.94977 0.0
H737 H 0.42452 0.77075 0.95142 0.0
H738 H 0.45956 0.78853 0.92501 0.0
O739 O 0.3975 0.84122 1.03118 0.0
O740 O 0.44729 0.84626 0.07242 0.0
H741 H 0.58919 0.79226 1.01696 0.0
H742 H 0.56639 0.78622 0.06041 0.0
C743 C 0.56371 0.797 1.03596 0.0
H744 H 0.56782 0.81552 1.04384 0.0
H745 H 0.53413 0.85201 0.09069 0.0
O746 O 0.35606 0.79497 0.99561 0.0
C747 C 0.42031 0.8547 1.05057 0.0
Co748 Co 0.3956 0.77268 0.8359 0.0
Co749 Co 0.3264 0.78526 0.78318 0.0
C750 C 0.40585 0.76127 0.75314 0.0
O751 O 0.41914 0.76074 0.78574 0.0
O752 O 0.3686 0.76922 0.74721 0.0
C753 C 0.4708 0.7547 0.87235 0.0
O754 O 0.48906 0.74456 0.89969 0.0
C755 C 0.25656 0.79456 0.73061 0.0
C756 C 0.22453 0.82176 0.76265 0.0
C757 C 0.22282 0.80996 0.73032 0.0
N758 N 0.27716 0.79737 0.7619 0.0
N759 N 0.25779 0.81367 0.78068 0.0
C760 C 0.2705 0.77863 0.70115 0.0
H761 H 0.30504 0.77582 0.70261 0.0
H762 H 0.25441 0.76153 0.70429 0.0
H763 H 0.26203 0.78584 0.67457 0.0
C764 C 0.31967 0.75477 0.88019 0.0
N765 N 0.33758 0.76316 0.84945 0.0
N766 N 0.30737 0.76876 0.82711 0.0
C767 C 0.26935 0.7644 0.84348 0.0
C768 C 0.27526 0.75547 0.87824 0.0
C769 C 0.34474 0.74736 0.91195 0.0
H770 H 0.3604 0.76291 0.92372 0.0
H771 H 0.36969 0.7351 0.90331 0.0
H772 H 0.32448 0.73893 0.93247 0.0
O773 O 0.40118 0.80849 0.83816 0.0
O774 O 0.35425 0.81545 0.79597 0.0
H775 H 0.21859 0.78757 0.83296 0.0
H776 H 0.20264 0.75775 0.8385 0.0
C777 C 0.22737 0.7693 0.827 0.0
H778 H 0.22871 0.76677 0.79754 0.0
H779 H 0.2676 0.8194 0.80598 0.0
O780 O 0.43199 0.75992 0.87439 0.0
C781 C 0.38191 0.82284 0.81796 0.0
Co782 Co 0.39226 0.97465 0.82965 0.0
Co783 Co 0.46522 0.96317 0.78016 0.0
C784 C 0.38537 0.98609 0.74756 0.0
O785 O 0.3702 0.98728 0.7795 0.0
O786 O 0.42264 0.97784 0.7436 0.0
C787 C 0.31986 0.997 0.87073 0.0
O788 O 0.30716 1.00367 0.90249 0.0
C789 C 0.54029 0.97137 0.73663 0.0
C790 C 0.57422 0.93815 0.74351 0.0
C791 C 0.57761 0.96014 0.72877 0.0
N792 N 0.51609 0.95681 0.75587 0.0
N793 N 0.53627 0.93689 0.75952 0.0
C794 C 0.52914 0.99604 0.72858 0.0
H795 H 0.50431 1.00226 0.74724 0.0
H796 H 0.55758 1.0074 0.7305 0.0
H797 H 0.51689 0.997 0.70076 0.0
C798 C 0.46508 0.99122 0.87904 0.0
N799 N 0.44931 0.98426 0.84653 0.0
N800 N 0.48101 0.97964 0.82516 0.0
C801 C 0.5179 0.98363 0.84354 0.0
C802 C 0.50976 0.99137 0.87896 0.0
C803 C 0.4375 0.99682 0.91028 0.0
H804 H 0.41926 0.98106 0.91802 0.0
H805 H 0.41471 1.01042 0.90232 0.0
H806 H 0.45614 1.00311 0.93344 0.0
O807 O 0.38945 0.93879 0.82979 0.0
O808 O 0.44218 0.93156 0.79245 0.0
H809 H 0.55937 0.95866 0.82009 0.0
H810 H 0.58542 0.97883 0.84983 0.0
C811 C 0.56032 0.97702 0.82928 0.0
H812 H 0.56818 0.98815 0.80598 0.0
H813 H 0.52478 0.92271 0.77406 0.0
O814 O 0.35417 0.98572 0.8685 0.0
C815 C 0.41246 0.92427 0.8126 0.0
Co816 Co 0.65438 0.51503 0.5729 0.0
Co817 Co 0.71952 0.53544 0.52266 0.0
C818 C 0.64204 0.50917 0.49056 0.0
O819 O 0.63007 0.50484 0.52266 0.0
O820 O 0.67707 0.52011 0.48609 0.0
C821 C 0.58469 0.48947 0.60476 0.0
O822 O 0.56964 0.47391 0.62714 0.0
C823 C 0.79494 0.53694 0.47704 0.0
C824 C 0.80197 0.57497 0.46948 0.0
C825 C 0.81929 0.55375 0.46029 0.0
N826 N 0.76447 0.54785 0.49551 0.0
N827 N 0.76893 0.57054 0.49093 0.0
C828 C 0.79858 0.51108 0.4737 0.0
H829 H 0.76882 0.50244 0.48228 0.0
H830 H 0.82463 0.50495 0.49102 0.0
H831 H 0.80625 0.50618 0.44563 0.0
C832 C 0.73307 0.49699 0.61209 0.0
N833 N 0.71389 0.50737 0.5836 0.0
N834 N 0.74265 0.51783 0.56416 0.0
C835 C 0.78082 0.51573 0.5812 0.0
C836 C 0.77701 0.50192 0.61269 0.0
C837 C 0.70942 0.48196 0.63799 0.0
H838 H 0.68422 0.47212 0.62374 0.0
H839 H 0.73058 0.46924 0.65104 0.0
H840 H 0.69447 0.49311 0.65873 0.0
O841 O 0.64396 0.5506 0.57976 0.0
O842 O 0.69021 0.56366 0.54011 0.0
H843 H 0.838 0.53449 0.59462 0.0
H844 H 0.83823 0.51977 0.55173 0.0
C845 C 0.81866 0.52989 0.57077 0.0
H846 H 0.80875 0.54612 0.55729 0.0
H847 H 0.74912 0.58308 0.50213 0.0
O848 O 0.62186 0.49729 0.60928 0.0
C849 C 0.66116 0.56755 0.56276 0.0
Co850 Co 0.64471 0.7162 0.58507 0.0
Co851 Co 0.57357 0.70903 0.53386 0.0
C852 C 0.65463 0.72854 0.50262 0.0
O853 O 0.66827 0.72487 0.5343 0.0
O854 O 0.61503 0.72554 0.49718 0.0
C855 C 0.69688 0.75072 0.60117 0.0
O856 O 0.66314 0.7625 0.59211 0.0
C857 C 0.49951 0.71845 0.49036 0.0
C858 C 0.46285 0.68577 0.49614 0.0
C859 C 0.46136 0.70794 0.48181 0.0
N860 N 0.52226 0.70332 0.5095 0.0
N861 N 0.50042 0.68374 0.51259 0.0
C862 C 0.51284 0.74303 0.48323 0.0
H863 H 0.53544 0.74912 0.50407 0.0
H864 H 0.48501 0.75466 0.48243 0.0
H865 H 0.52888 0.74378 0.45682 0.0
C866 C 0.57327 0.73452 0.63451 0.0
N867 N 0.58925 0.72781 0.60205 0.0
N868 N 0.55785 0.72503 0.5795 0.0
C869 C 0.52097 0.73016 0.59706 0.0
C870 C 0.5288 0.73666 0.63315 0.0
C871 C 0.60042 0.73863 0.66654 0.0
H872 H 0.63158 0.73029 0.66282 0.0
H873 H 0.60503 0.75768 0.66971 0.0
H874 H 0.58541 0.73187 0.69119 0.0
O875 O 0.64442 0.68115 0.58808 0.0
O876 O 0.59655 0.6764 0.54519 0.0
H877 H 0.47611 0.70781 0.57111 0.0
H878 H 0.45263 0.72861 0.60101 0.0
C879 C 0.4782 0.72595 0.58116 0.0
H880 H 0.47353 0.73787 0.55823 0.0
H881 H 0.5106 0.66926 0.52692 0.0
O882 O 0.69135 0.73011 0.61272 0.0
C883 C 0.6227 0.66774 0.56763 0.0
Co884 Co 0.64578 0.75597 0.77908 0.0
Co885 Co 0.71687 0.7473 0.83209 0.0
C886 C 0.63524 0.76836 0.86167 0.0
O887 O 0.62189 0.76801 0.82908 0.0
O888 O 0.67315 0.76167 0.86789 0.0
C889 C 0.56725 0.77216 0.74372 0.0
O890 O 0.54832 0.78222 0.71664 0.0
C891 C 0.78766 0.74518 0.8847 0.0
C892 C 0.82741 0.71963 0.85586 0.0
C893 C 0.82569 0.73342 0.88623 0.0
N894 N 0.768 0.73873 0.85424 0.0
N895 N 0.79176 0.72336 0.83747 0.0
C896 C 0.7708 0.76258 0.91082 0.0
H897 H 0.75488 0.77685 0.89622 0.0
H898 H 0.79638 0.76975 0.92808 0.0
H899 H 0.74687 0.75394 0.92804 0.0
C900 C 0.72145 0.77112 0.73162 0.0
N901 N 0.70329 0.76572 0.76381 0.0
N902 N 0.73322 0.76405 0.78786 0.0
C903 C 0.77103 0.76941 0.77201 0.0
C904 C 0.76579 0.77377 0.73485 0.0
C905 C 0.69734 0.77055 0.69727 0.0
H906 H 0.67118 0.75784 0.69958 0.0
H907 H 0.68383 0.788 0.69219 0.0
H908 H 0.71785 0.76556 0.67445 0.0
O909 O 0.64388 0.72062 0.77897 0.0
O910 O 0.69384 0.71561 0.81924 0.0
H911 H 0.82725 0.75457 0.79363 0.0
H912 H 0.83287 0.78449 0.77992 0.0
C913 C 0.81132 0.77166 0.7927 0.0
H914 H 0.80463 0.77723 0.82064 0.0
H915 H 0.78378 0.71554 0.81291 0.0
O916 O 0.60648 0.76772 0.74144 0.0
C917 C 0.66599 0.70706 0.79826 0.0
Co918 Co 0.65315 0.55792 0.78042 0.0
Co919 Co 0.57771 0.56559 0.8277 0.0
C920 C 0.65647 0.54298 0.86133 0.0
O921 O 0.67134 0.54318 0.82945 0.0
O922 O 0.61905 0.55091 0.86607 0.0
C923 C 0.72636 0.5378 0.7603 0.0
O924 O 0.70801 0.51941 0.77435 0.0
C925 C 0.5006 0.56278 0.87358 0.0
C926 C 0.46399 0.59069 0.84756 0.0
C927 C 0.46216 0.57432 0.87456 0.0
N928 N 0.52382 0.57198 0.84696 0.0
N929 N 0.50173 0.58867 0.83169 0.0
C930 C 0.51561 0.544 0.89802 0.0
H931 H 0.55046 0.54445 0.90024 0.0
H932 H 0.5061 0.52683 0.88674 0.0
H933 H 0.50144 0.5459 0.92507 0.0
C934 C 0.58339 0.54102 0.72599 0.0
N935 N 0.59875 0.54747 0.75895 0.0
N936 N 0.56679 0.54923 0.7812 0.0
C937 C 0.53053 0.54328 0.76336 0.0
C938 C 0.53882 0.5383 0.7269 0.0
C939 C 0.6105 0.53926 0.69329 0.0
H940 H 0.64044 0.54912 0.69717 0.0
H941 H 0.61821 0.52069 0.68837 0.0
H942 H 0.59348 0.54588 0.66944 0.0
O943 O 0.65449 0.59248 0.78497 0.0
O944 O 0.59832 0.59858 0.81836 0.0
H945 H 0.47297 0.55791 0.78283 0.0
H946 H 0.46789 0.52839 0.76669 0.0
C947 C 0.48865 0.54075 0.78153 0.0
H948 H 0.4931 0.53437 0.80927 0.0
H949 H 0.51231 0.5985 0.81003 0.0
O950 O 0.70322 0.55433 0.75014 0.0
C951 C 0.62975 0.60639 0.80082 0.0
Co952 Co 0.40611 0.50252 0.52369 0.0
Co953 Co 0.33779 0.48892 0.57692 0.0
C954 C 0.41756 0.51365 0.60577 0.0
O955 O 0.43153 0.51278 0.5735 0.0
O956 O 0.37943 0.50691 0.61168 0.0
C957 C 0.48198 0.52095 0.487 0.0
O958 O 0.49955 0.53342 0.4616 0.0
C959 C 0.26304 0.48762 0.62467 0.0
C960 C 0.25159 0.44955 0.62568 0.0
C961 C 0.2374 0.47047 0.63914 0.0
N962 N 0.29164 0.47713 0.60358 0.0
N963 N 0.28434 0.45443 0.60424 0.0
C964 C 0.26146 0.51323 0.63171 0.0
H965 H 0.28785 0.52233 0.61792 0.0
H966 H 0.23093 0.52018 0.62207 0.0
H967 H 0.26317 0.51653 0.66103 0.0
C968 C 0.32882 0.5194 0.48064 0.0
N969 N 0.34692 0.51119 0.51126 0.0
N970 N 0.31678 0.5044 0.533 0.0
C971 C 0.2787 0.50737 0.51609 0.0
C972 C 0.28432 0.5171 0.4815 0.0
C973 C 0.35387 0.53035 0.45144 0.0
H974 H 0.38079 0.54032 0.46292 0.0
H975 H 0.3339 0.54248 0.43597 0.0
H976 H 0.3666 0.51646 0.43386 0.0
O977 O 0.41193 0.46716 0.52054 0.0
O978 O 0.36572 0.45898 0.563 0.0
H979 H 0.21307 0.49736 0.5102 0.0
H980 H 0.22709 0.51103 0.55235 0.0
C981 C 0.23778 0.49876 0.5312 0.0
H982 H 0.2423 0.4815 0.54376 0.0
H983 H 0.30174 0.44202 0.59013 0.0
O984 O 0.4424 0.51712 0.4861 0.0
C985 C 0.39309 0.45233 0.54041 0.0
Co986 Co 0.40306 0.30177 0.53143 0.0
Co987 Co 0.47459 0.31223 0.58134 0.0
C988 C 0.39466 0.29156 0.61419 0.0
O989 O 0.38004 0.2936 0.58246 0.0
O990 O 0.43389 0.29624 0.61912 0.0
C991 C 0.35231 0.26658 0.51524 0.0
O992 O 0.38585 0.25405 0.52216 0.0
C993 C 0.55018 0.31062 0.62755 0.0
C994 C 0.5819 0.34322 0.61067 0.0
C995 C 0.5863 0.32406 0.63266 0.0
N996 N 0.5258 0.32135 0.60335 0.0
N997 N 0.54491 0.34081 0.59348 0.0
C998 C 0.53872 0.28816 0.6454 0.0
H999 H 0.50406 0.28568 0.64598 0.0
H1000 H 0.55254 0.27351 0.62997 0.0
H1001 H 0.55134 0.28772 0.67315 0.0
C1002 C 0.47551 0.28338 0.4834 0.0
N1003 N 0.45929 0.29077 0.51537 0.0
N1004 N 0.49073 0.29498 0.53739 0.0
C1005 C 0.52778 0.29022 0.51992 0.0
C1006 C 0.51999 0.28244 0.48458 0.0
C1007 C 0.44932 0.28057 0.4506 0.0
H1008 H 0.42274 0.29301 0.45156 0.0
H1009 H 0.43623 0.26262 0.44998 0.0
H1010 H 0.46851 0.28359 0.42617 0.0
O1011 O 0.40023 0.33658 0.52674 0.0
O1012 O 0.44969 0.34363 0.5672 0.0
H1013 H 0.57694 0.31321 0.53739 0.0
H1014 H 0.59548 0.28586 0.51953 0.0
C1015 C 0.5705 0.29422 0.53589 0.0
H1016 H 0.57132 0.28713 0.56344 0.0
H1017 H 0.53302 0.35229 0.57445 0.0
O1018 O 0.35837 0.28692 0.50294 0.0
C1019 C 0.42192 0.3511 0.54527 0.0
Co1020 Co 0.3981 0.27739 0.33292 0.0
Co1021 Co 0.32678 0.28553 0.2818 0.0
C1022 C 0.40849 0.26557 0.25017 0.0
O1023 O 0.42302 0.2671 0.28233 0.0
O1024 O 0.36947 0.27055 0.24493 0.0
C1025 C 0.46003 0.24769 0.36992 0.0
O1026 O 0.46533 0.23361 0.39699 0.0
C1027 C 0.25591 0.28669 0.23005 0.0
C1028 C 0.21383 0.31054 0.25998 0.0
C1029 C 0.21663 0.29711 0.22928 0.0
N1030 N 0.27532 0.29357 0.26036 0.0
N1031 N 0.25016 0.30788 0.27786 0.0
C1032 C 0.27395 0.26979 0.2037 0.0
H1033 H 0.28955 0.25538 0.2182 0.0
H1034 H 0.24914 0.26272 0.18557 0.0
H1035 H 0.29841 0.2788 0.18748 0.0
C1036 C 0.32457 0.26231 0.38142 0.0
N1037 N 0.34097 0.26776 0.34862 0.0
N1038 N 0.31029 0.26834 0.32532 0.0
C1039 C 0.27356 0.26199 0.34232 0.0
C1040 C 0.28068 0.25768 0.37931 0.0
C1041 C 0.34894 0.26621 0.41518 0.0
H1042 H 0.37056 0.28125 0.41147 0.0
H1043 H 0.36809 0.25059 0.42102 0.0
H1044 H 0.3277 0.26993 0.43809 0.0
O1045 O 0.40253 0.31243 0.33455 0.0
O1046 O 0.35017 0.31766 0.29607 0.0
H1047 H 0.21469 0.27691 0.32717 0.0
H1048 H 0.21243 0.24609 0.33537 0.0
C1049 C 0.23188 0.26029 0.32368 0.0
H1050 H 0.23644 0.25697 0.29463 0.0
H1051 H 0.25761 0.31559 0.30261 0.0
O1052 O 0.43032 0.2623 0.37145 0.0
C1053 C 0.37905 0.32606 0.31646 0.0
Co1054 Co 0.40137 0.47824 0.32066 0.0
Co1055 Co 0.47205 0.46211 0.27211 0.0
C1056 C 0.3949 0.48633 0.23814 0.0
O1057 O 0.3814 0.4892 0.27017 0.0
O1058 O 0.43085 0.47655 0.23387 0.0
C1059 C 0.34034 0.51205 0.34952 0.0
O1060 O 0.33392 0.52814 0.37385 0.0
C1061 C 0.54646 0.46312 0.2254 0.0
C1062 C 0.58092 0.43249 0.24564 0.0
C1063 C 0.58449 0.45131 0.22276 0.0
N1064 N 0.5224 0.45219 0.24979 0.0
N1065 N 0.54289 0.43374 0.26139 0.0
C1066 C 0.53212 0.48381 0.20456 0.0
H1067 H 0.49842 0.4817 0.19721 0.0
H1068 H 0.535 0.49965 0.2216 0.0
H1069 H 0.55092 0.48609 0.17972 0.0
C1070 C 0.47632 0.49155 0.36911 0.0
N1071 N 0.45945 0.48516 0.33675 0.0
N1072 N 0.49031 0.48011 0.31474 0.0
C1073 C 0.52779 0.48383 0.33237 0.0
C1074 C 0.52069 0.49137 0.36785 0.0
C1075 C 0.45059 0.49509 0.40221 0.0
H1076 H 0.43979 0.51342 0.40325 0.0
H1077 H 0.46957 0.49144 0.42648 0.0
H1078 H 0.42249 0.48347 0.40184 0.0
O1079 O 0.39107 0.44304 0.32405 0.0
O1080 O 0.44483 0.43238 0.28957 0.0
H1081 H 0.57488 0.4594 0.317 0.0
H1082 H 0.59573 0.48679 0.33298 0.0
C1083 C 0.57015 0.4785 0.31693 0.0
H1084 H 0.57191 0.4848 0.28895 0.0
H1085 H 0.53156 0.42252 0.28116 0.0
O1086 O 0.36856 0.49691 0.35528 0.0
C1087 C 0.41328 0.42705 0.30929 0.0
C1088 C 0.15025 0.11064 0.53423 0.0
C1089 C 0.15247 0.09765 0.56619 0.0
C1090 C 0.14195 0.13473 0.53448 0.0
C1091 C 0.13686 0.14721 0.56675 0.0
H1092 H 0.15464 0.10206 0.50858 0.0
H1093 H 0.14042 0.14376 0.50909 0.0
S1094 S 0.13904 0.12171 0.658 0.0
N1095 N 0.14748 0.09923 0.63114 0.0
N1096 N 0.13391 0.1446 0.63169 0.0
C1097 C 0.13907 0.13453 0.59897 0.0
C1098 C 0.14626 0.10979 0.59867 0.0
C1099 C 0.16467 0.1368 0.77453 0.0
C1100 C 0.13549 0.12769 0.79963 0.0
C1101 C 0.17197 0.1611 0.77112 0.0
C1102 C 0.15016 0.17744 0.79239 0.0
H1103 H 0.18245 0.12507 0.75757 0.0
H1104 H 0.19549 0.16711 0.75218 0.0
S1105 S 0.07159 0.16351 0.86279 0.0
N1106 N 0.08511 0.13784 0.8465 0.0
N1107 N 0.09932 0.18286 0.84002 0.0
C1108 C 0.12105 0.16872 0.8174 0.0
C1109 C 0.11351 0.14411 0.82095 0.0
C1110 C 0.86971 0.88843 0.54207 0.0
C1111 C 0.91112 0.87971 0.54349 0.0
C1112 C 0.86178 0.91258 0.5427 0.0
C1113 C 0.8949 0.92916 0.54358 0.0
H1114 H 0.84307 0.87649 0.54182 0.0
H1115 H 0.82927 0.91832 0.54281 0.0
S1116 S 1.00917 0.9156 0.54534 0.0
N1117 N 0.98576 0.88979 0.54474 0.0
N1118 N 0.97086 0.93496 0.54462 0.0
C1119 C 0.93647 0.9207 0.54361 0.0
C1120 C 0.94454 0.89609 0.54395 0.0
C1121 C 0.88685 0.88565 0.34511 0.0
C1122 C 0.90379 0.8961 0.31397 0.0
C1123 C 0.87959 0.86129 0.34718 0.0
C1124 C 0.88786 0.84642 0.31785 0.0
H1125 H 0.87957 0.89634 0.36827 0.0
H1126 H 0.86665 0.85411 0.37165 0.0
S1127 S 0.93197 0.86448 0.23015 0.0
N1128 N 0.92902 0.88901 0.2533 0.0
N1129 N 0.91386 0.84388 0.25689 0.0
C1130 C 0.90445 0.85659 0.28663 0.0
C1131 C 0.91282 0.88118 0.28477 0.0
C1132 C 0.17371 0.6386 0.07497 0.0
C1133 C 0.13296 0.64724 0.06799 0.0
C1134 C 0.18214 0.61447 0.07465 0.0
C1135 C 0.15003 0.59776 0.06846 0.0
H1136 H 0.19974 0.65061 0.07947 0.0
H1137 H 0.21431 0.60882 0.07887 0.0
S1138 S 0.03791 0.61078 1.04904 0.0
N1139 N 0.06002 0.63667 1.0548 0.0
N1140 N 0.07589 0.59164 1.05508 0.0
C1141 C 0.10901 0.60604 0.06242 0.0
C1142 C 0.10052 0.63062 0.06195 0.0
C1143 C 0.10861 0.64336 0.29268 0.0
C1144 C 0.14221 0.62728 0.29201 0.0
C1145 C 0.11584 0.66773 0.292 0.0
C1146 C 0.15706 0.67717 0.29178 0.0
H1147 H 0.07633 0.63705 0.29381 0.0
H1148 H 0.08894 0.67925 0.29297 0.0
S1149 S 0.2561 0.64288 0.2898 0.0
N1150 N 0.21834 0.62289 0.29017 0.0
N1151 N 0.23192 0.66826 0.29037 0.0
C1152 C 0.19085 0.66128 0.29092 0.0
C1153 C 0.18347 0.63653 0.29062 0.0
C1154 C 0.90617 0.41641 0.07189 0.0
C1155 C 0.89754 0.42779 1.03933 0.0
C1156 C 0.9145 0.39234 0.07316 0.0
C1157 C 0.91317 0.37829 1.04207 0.0
H1158 H 0.90659 0.42625 0.09674 0.0
H1159 H 0.92098 0.38457 0.09896 0.0
S1160 S 0.89224 0.39948 0.94985 0.0
N1161 N 0.88929 0.4232 0.97501 0.0
N1162 N 0.90294 0.37787 0.97745 0.0
C1163 C 0.90456 0.38946 1.00926 0.0
C1164 C 0.89734 0.41417 1.00787 0.0
C1165 C 0.94151 0.3824 0.81883 0.0
C1166 C 0.90864 0.39877 0.81561 0.0
C1167 C 0.93334 0.35818 0.82096 0.0
C1168 C 0.89195 0.34907 0.81868 0.0
H1169 H 0.97403 0.38837 0.81946 0.0
H1170 H 0.95983 0.34643 0.82301 0.0
S1171 S 0.79446 0.38427 0.81023 0.0
N1172 N 0.83285 0.4039 0.81122 0.0
N1173 N 0.81759 0.35868 0.81358 0.0
C1174 C 0.85879 0.36527 0.8157 0.0
C1175 C 0.86706 0.38996 0.81462 0.0
C1176 C 0.6417 0.11099 1.03741 0.0
C1177 C 0.64619 0.09869 0.06984 0.0
C1178 C 0.63341 0.13508 1.03678 0.0
C1179 C 0.63064 0.14838 0.06853 0.0
H1180 H 0.64459 0.10185 1.01205 0.0
H1181 H 0.63027 0.14351 1.01101 0.0
S1182 S 0.63917 0.12481 0.1608 0.0
N1183 N 0.64566 0.10172 0.13476 0.0
N1184 N 0.63217 0.14712 0.13364 0.0
C1185 C 0.63493 0.13635 0.10125 0.0
C1186 C 0.64207 0.11155 0.10189 0.0
C1187 C 0.6231 0.16477 0.30218 0.0
C1188 C 0.66477 0.1735 0.30427 0.0
C1189 C 0.61435 0.14068 0.30268 0.0
C1190 C 0.64694 0.12417 0.3041 0.0
H1191 H 0.59684 0.17669 0.30082 0.0
H1192 H 0.58171 0.13494 0.30157 0.0
S1193 S 0.76151 0.13763 0.30997 0.0
N1194 N 0.73899 0.16348 0.3085 0.0
N1195 N 0.72266 0.1183 0.30794 0.0
C1196 C 0.68879 0.13259 0.30581 0.0
C1197 C 0.69765 0.15718 0.30634 0.0
C1198 C 0.41624 0.89412 0.08038 0.0
C1199 C 0.41451 0.8806 1.04879 0.0
C1200 C 0.40843 0.91825 0.08 0.0
C1201 C 0.40002 0.93022 1.04788 0.0
H1202 H 0.42227 0.88584 0.10589 0.0
H1203 H 0.40857 0.92765 0.10527 0.0
S1204 S 0.39451 0.9034 0.95738 0.0
N1205 N 0.40471 0.88129 0.98415 0.0
N1206 N 0.39192 0.92674 0.9834 0.0
C1207 C 0.39977 0.91714 1.0159 0.0
C1208 C 0.40647 0.89237 1.01638 0.0
C1209 C 0.39172 0.86234 0.84888 0.0
C1210 C 0.39243 0.84842 0.81757 0.0
C1211 C 0.39702 0.88691 0.8473 0.0
C1212 C 0.40437 0.89844 0.81449 0.0
H1213 H 0.38587 0.85429 0.87462 0.0
H1214 H 0.39597 0.8969 0.87198 0.0
S1215 S 0.40973 0.86998 0.72501 0.0
N1216 N 0.40077 0.84826 0.75289 0.0
N1217 N 0.41225 0.89371 0.75014 0.0
C1218 C 0.4058 0.88458 0.78325 0.0
C1219 C 0.39942 0.85984 0.78474 0.0
C1220 C 0.63743 0.60495 0.53491 0.0
C1221 C 0.64628 0.59225 0.56629 0.0
C1222 C 0.6285 0.62897 0.5359 0.0
C1223 C 0.62941 0.64178 0.56821 0.0
H1224 H 0.63798 0.59623 0.50908 0.0
H1225 H 0.62233 0.63776 0.51083 0.0
S1226 S 0.6497 0.6169 0.65833 0.0
N1227 N 0.65365 0.59428 0.63096 0.0
N1228 N 0.63871 0.63953 0.63283 0.0
C1229 C 0.63773 0.62928 0.59995 0.0
C1230 C 0.64563 0.60455 0.59901 0.0
C1231 C 0.62536 0.67109 0.77719 0.0
C1232 C 0.65832 0.68107 0.79785 0.0
C1233 C 0.61557 0.64707 0.77878 0.0
C1234 C 0.63922 0.63184 0.80017 0.0
H1235 H 0.60667 0.68191 0.75972 0.0
H1236 H 0.58965 0.64031 0.76278 0.0
S1237 S 0.73145 0.64785 0.85641 0.0
N1238 N 0.71614 0.67279 0.839 0.0
N1239 N 0.69864 0.62787 0.84044 0.0
C1240 C 0.67327 0.6412 0.81966 0.0
C1241 C 0.68269 0.66568 0.8188 0.0
C1242 C 0.43477 0.41725 0.55923 0.0
C1243 C 0.40253 0.42688 0.53816 0.0
C1244 C 0.44119 0.39296 0.56075 0.0
C1245 C 0.41504 0.37702 0.54185 0.0
H1246 H 0.45469 0.42857 0.57537 0.0
H1247 H 0.46656 0.38665 0.57747 0.0
S1248 S 0.32383 0.39353 0.48474 0.0
N1249 N 0.34299 0.41871 0.49921 0.0
N1250 N 0.35432 0.37327 0.5021 0.0
C1251 C 0.38227 0.38658 0.52094 0.0
C1252 C 0.37606 0.41136 0.51927 0.0
C1253 C 0.42794 0.3611 0.31905 0.0
C1254 C 0.38654 0.35199 0.31747 0.0
C1255 C 0.43602 0.38529 0.31694 0.0
C1256 C 0.40308 0.40164 0.31437 0.0
H1257 H 0.45452 0.34939 0.32065 0.0
H1258 H 0.46855 0.39124 0.31716 0.0
S1259 S 0.28881 0.38712 0.3109 0.0
N1260 N 0.31203 0.36152 0.31362 0.0
N1261 N 0.32719 0.40677 0.31135 0.0
C1262 C 0.36148 0.39283 0.31399 0.0
C1263 C 0.35326 0.36814 0.31505 0.0
C1264 C 0.37331 0.03904 0.42686 0.0
C1265 C 0.36587 0.05011 0.45986 0.0
C1266 C 0.41174 0.04242 0.40887 0.0
C1267 C 0.44331 0.0569 0.42365 0.0
H1268 H 0.34826 0.02933 0.41364 0.0
H1269 H 0.41535 0.03523 0.38216 0.0
S1270 S 0.4414 0.08624 0.51219 0.0
N1271 N 0.39478 0.07336 0.50874 0.0
N1272 N 0.46687 0.07977 0.47486 0.0
C1273 C 0.43741 0.06634 0.45793 0.0
C1274 C 0.39862 0.06288 0.47615 0.0
C1275 C 0.87935 0.1984 0.41183 0.0
C1276 C 0.86288 0.221 0.40958 0.0
C1277 C 0.9122 0.19335 0.43532 0.0
C1278 C 0.93005 0.21081 0.45703 0.0
H1279 H 0.86722 0.18454 0.39479 0.0
H1280 H 0.92454 0.1758 0.43572 0.0
S1281 S 0.8961 0.27235 0.46338 0.0
N1282 N 0.86561 0.26082 0.43193 0.0
N1283 N 0.92658 0.25106 0.47751 0.0
C1284 C 0.91278 0.23329 0.45626 0.0
C1285 C 0.8793 0.23846 0.43213 0.0
C1286 C 0.38963 0.21814 0.96425 0.0
C1287 C 0.43128 0.21719 0.95144 0.0
C1288 C 0.35601 0.22211 0.94082 0.0
C1289 C 0.36333 0.22473 0.90398 0.0
H1290 H 0.38294 0.21502 0.99231 0.0
H1291 H 0.32407 0.2216 0.95118 0.0
S1292 S 0.46674 0.22517 0.8577 0.0
N1293 N 0.47829 0.22053 0.90023 0.0
N1294 N 0.41488 0.22773 0.856 0.0
C1295 C 0.40494 0.22493 0.89117 0.0
C1296 C 0.43912 0.22122 0.91503 0.0
C1297 C 0.925 0.04559 0.9378 0.0
C1298 C 0.924 0.05802 0.90543 0.0
C1299 C 0.88782 0.04166 0.95736 0.0
C1300 C 0.84898 0.04998 0.94481 0.0
H1301 H 0.95485 0.0405 0.94941 0.0
H1302 H 0.88992 0.0338 0.98363 0.0
S1303 S 0.82883 0.07971 0.85881 0.0
N1304 N 0.88039 0.07566 0.85946 0.0
N1305 N 0.81074 0.06847 0.89651 0.0
C1306 C 0.8472 0.06057 0.91116 0.0
C1307 C 0.88477 0.06455 0.89133 0.0
C1308 C 0.60861 0.97522 0.67241 0.0
C1309 C 0.61394 0.9688 0.70834 0.0
C1310 C 0.64368 0.97866 0.65022 0.0
C1311 C 0.68489 0.97636 0.66364 0.0
H1312 H 0.57729 0.97597 0.66079 0.0
H1313 H 0.63858 0.98202 0.62199 0.0
S1314 S 0.71516 0.9626 0.75694 0.0
N1315 N 0.663 0.96213 0.7572 0.0
N1316 N 0.72913 0.96927 0.71554 0.0
C1317 C 0.69056 0.9717 0.70014 0.0
C1318 C 0.6549 0.96771 0.72254 0.0
C1319 C 0.17137 0.79566 0.68401 0.0
C1320 C 0.19073 0.81423 0.70254 0.0
C1321 C 0.13716 0.79955 0.66098 0.0
C1322 C 0.12093 0.82207 0.65619 0.0
H1323 H 0.1817 0.77795 0.68816 0.0
H1324 H 0.12357 0.7848 0.64689 0.0
S1325 S 0.16256 0.87673 0.69687 0.0
N1326 N 0.19314 0.85608 0.71281 0.0
N1327 N 0.12819 0.86329 0.67058 0.0
C1328 C 0.14095 0.84083 0.67377 0.0
C1329 C 0.17587 0.83691 0.69683 0.0
C1330 C 0.65492 0.80499 0.14958 0.0
C1331 C 0.61276 0.80364 0.16125 0.0
C1332 C 0.68828 0.79961 0.17273 0.0
C1333 C 0.68028 0.79322 0.20835 0.0
H1334 H 0.66217 0.81108 0.12282 0.0
H1335 H 0.72042 0.80206 0.16349 0.0
S1336 S 0.57558 0.78587 0.25125 0.0
N1337 N 0.56482 0.79425 0.20998 0.0
N1338 N 0.62754 0.78438 0.25362 0.0
C1339 C 0.63826 0.79071 0.21975 0.0
C1340 C 0.60439 0.79588 0.19611 0.0
C1341 C 0.18741 0.97121 0.19769 0.0
C1342 C 0.18326 0.97354 0.16047 0.0
C1343 C 0.15183 0.96724 0.21912 0.0
C1344 C 0.11124 0.966 0.20392 0.0
H1345 H 0.21844 0.97086 0.20991 0.0
H1346 H 0.15618 0.96422 0.24753 0.0
S1347 S 0.08392 0.9732 0.10814 0.0
N1348 N 0.13587 0.97587 0.10949 0.0
N1349 N 0.06871 0.96895 0.14997 0.0
C1350 C 0.10656 0.96987 0.16708 0.0
C1351 C 0.14278 0.97349 0.14524 0.0
C1352 C 0.37843 0.54616 0.93322 0.0
C1353 C 0.35599 0.56555 0.9459 0.0
C1354 C 0.41291 0.54898 0.91006 0.0
C1355 C 0.4262 0.57129 0.89923 0.0
H1356 H 0.37011 0.52877 0.94195 0.0
H1357 H 0.42896 0.53359 0.90046 0.0
S1358 S 0.37681 0.62753 0.92399 0.0
N1359 N 0.34828 0.60764 0.94487 0.0
N1360 N 0.41358 0.613 0.9022 0.0
C1361 C 0.40348 0.59073 0.91128 0.0
C1362 C 0.36838 0.58786 0.93455 0.0
C1363 C 0.9004 0.73738 0.90434 0.0
C1364 C 0.85819 0.73337 0.91421 0.0
C1365 C 0.93347 0.73184 0.92754 0.0
C1366 C 0.92523 0.72168 0.96098 0.0
H1367 H 0.90792 0.7437 0.87776 0.0
H1368 H 0.96562 0.73404 0.91822 0.0
S1369 S 0.82006 0.70941 1.00035 0.0
N1370 N 0.80968 0.72026 0.96039 0.0
N1371 N 0.87204 0.70947 1.00403 0.0
C1372 C 0.88311 0.71872 0.9719 0.0
C1373 C 0.84943 0.72473 0.94849 0.0
C1374 C 0.40127 0.73142 0.403 0.0
C1375 C 0.35909 0.7277 0.41326 0.0
C1376 C 0.43446 0.72655 0.42646 0.0
C1377 C 0.42637 0.71732 0.46055 0.0
H1378 H 0.40867 0.73704 0.37601 0.0
H1379 H 0.46659 0.7285 0.41693 0.0
S1380 S 0.32141 0.70626 0.50111 0.0
N1381 N 0.31082 0.71596 0.46049 0.0
N1382 N 0.37342 0.70638 0.50458 0.0
C1383 C 0.38432 0.7147 0.47181 0.0
C1384 C 0.35051 0.72005 0.44813 0.0
C1385 C 0.85622 0.56218 0.40373 0.0
C1386 C 0.85628 0.55107 0.43711 0.0
C1387 C 0.89361 0.56527 0.38456 0.0
C1388 C 0.93229 0.55748 0.39826 0.0
H1389 H 0.82742 0.56964 0.3933 0.0
H1390 H 0.89257 0.57489 0.35965 0.0
S1391 S 0.94872 0.52651 0.48398 0.0
N1392 N 0.89738 0.53128 0.48251 0.0
N1393 N 0.96824 0.5373 0.44645 0.0
C1394 C 0.93245 0.54511 0.43064 0.0
C1395 C 0.89415 0.54186 0.45015 0.0
C1396 C 0.67799 0.44193 0.16219 0.0
C1397 C 0.69366 0.46457 0.15631 0.0
C1398 C 0.64295 0.43799 0.184 0.0
C1399 C 0.62205 0.45653 0.20078 0.0
H1400 H 0.69248 0.42706 0.14923 0.0
H1401 H 0.63156 0.42027 0.18708 0.0
S1402 S 0.65247 0.519 0.19676 0.0
N1403 N 0.68602 0.50584 0.16967 0.0
N1404 N 0.62219 0.49817 0.21339 0.0
C1405 C 0.63848 0.4792 0.19664 0.0
C1406 C 0.67384 0.48329 0.17373 0.0
C1407 C 0.10881 0.29609 0.18825 0.0
C1408 C 0.1162 0.30673 0.15504 0.0
C1409 C 0.14233 0.29123 0.21132 0.0
C1410 C 0.18411 0.29643 0.20145 0.0
H1411 H 0.07686 0.293 0.19752 0.0
H1412 H 0.13541 0.28452 0.23779 0.0
S1413 S 0.22012 0.32184 0.11566 0.0
N1414 N 0.16817 0.32051 0.11205 0.0
N1415 N 0.23147 0.311 0.15543 0.0
C1416 C 0.19213 0.30547 0.1673 0.0
C1417 C 0.15797 0.31078 0.14405 0.0
C1418 C 0.63909 0.2975 0.66078 0.0
C1419 C 0.62229 0.31995 0.65677 0.0
C1420 C 0.67266 0.29348 0.68434 0.0
C1421 C 0.69062 0.31185 0.70428 0.0
H1422 H 0.62635 0.28294 0.64566 0.0
H1423 H 0.68369 0.27582 0.68774 0.0
S1424 S 0.66029 0.37407 0.70132 0.0
N1425 N 0.62744 0.36089 0.67336 0.0
N1426 N 0.69102 0.35341 0.71705 0.0
C1427 C 0.67508 0.33446 0.69954 0.0
C1428 C 0.64093 0.33853 0.67576 0.0
C1429 C 0.16575 0.45566 0.71496 0.0
C1430 C 0.1262 0.46226 0.70158 0.0
C1431 C 0.20269 0.4606 0.69599 0.0
C1432 C 0.2012 0.47239 0.6632 0.0
H1433 H 0.16801 0.44574 0.73952 0.0
H1434 H 0.23237 0.45392 0.70594 0.0
S1435 S 0.10593 0.49393 0.61699 0.0
N1436 N 0.0878 0.48169 0.65394 0.0
N1437 N 0.15779 0.49127 0.61852 0.0
C1438 C 0.16227 0.48026 0.65044 0.0
C1439 C 0.12448 0.47509 0.66963 0.0
C1440 C 0.99817 1.001 0.54168 0.0
C1441 C 0.9955 0.02426 0.53052 0.0
C1442 C 1.02316 0.99489 0.57108 0.0
C1443 C 0.04663 1.01187 0.58973 0.0
H1444 H 0.98138 0.98742 0.52726 0.0
H1445 H 0.02461 0.97677 0.57894 0.0
S1446 S 0.0492 0.07522 0.57146 0.0
N1447 N 1.01812 0.06425 0.54006 0.0
N1448 N 0.06371 0.05293 0.59639 0.0
C1449 C 0.04392 0.03517 0.57897 0.0
C1450 C 1.01885 0.04133 0.54888 0.0
C1451 C 0.27708 0.27558 0.52927 0.0
C1452 C 0.31349 0.26264 0.53682 0.0
C1453 C 0.24126 0.27418 0.55117 0.0
C1454 C 0.24018 0.25968 0.58154 0.0
H1455 H 0.2762 0.28693 0.50617 0.0
H1456 H 0.21381 0.28412 0.54348 0.0
S1457 S 0.32786 0.22315 0.6146 0.0
N1458 N 0.34668 0.23539 0.57794 0.0
N1459 N 0.27926 0.23291 0.61896 0.0
C1460 C 0.27653 0.24692 0.5898 0.0
C1461 C 0.31307 0.24826 0.56742 0.0
C1462 C 1.00314 0.28197 0.82285 0.0
C1463 C 0.99765 0.2583 0.83102 0.0
C1464 C 0.02978 0.28886 0.7948 0.0
C1465 C 0.05128 0.27222 0.7741 0.0
H1466 H 0.98842 0.29522 0.83929 0.0
H1467 H 0.03441 0.30728 0.78987 0.0
S1468 S 0.03772 0.2082 0.77883 0.0
N1469 N 1.01012 0.21829 0.81303 0.0
N1470 N 0.0585 0.23127 0.75908 0.0
C1471 C 0.04328 0.24853 0.78031 0.0
C1472 C 1.01683 0.24154 0.80918 0.0
C1473 C 0.25223 0.03264 0.80814 0.0
C1474 C 0.23968 0.01627 0.7821 0.0
C1475 C 0.27862 0.02627 0.83663 0.0
C1476 C 0.29476 1.00356 0.83916 0.0
H1477 H 0.242 0.05056 0.80625 0.0
H1478 H 0.28688 0.03928 0.85663 0.0
S1479 S 0.2717 0.9542 0.77786 0.0
N1480 N 0.24532 0.97625 0.76081 0.0
N1481 N 0.29559 0.96455 0.814 0.0
C1482 C 0.28279 0.98708 0.81324 0.0
C1483 C 0.25536 0.99342 0.78462 0.0
C1484 C 0.77271 0.77336 0.53036 0.0
C1485 C 0.81103 0.76264 0.53922 0.0
C1486 C 0.73653 0.77022 0.55146 0.0
C1487 C 0.73702 0.75613 0.58232 0.0
H1488 H 0.77063 0.78438 0.50694 0.0
H1489 H 0.70769 0.77851 0.54283 0.0
S1490 S 0.82964 0.72503 0.61858 0.0
N1491 N 0.84748 0.73782 0.58202 0.0
N1492 N 0.77932 0.73203 0.6214 0.0
C1493 C 0.77513 0.74546 0.59174 0.0
C1494 C 0.81206 0.7486 0.57022 0.0
C1495 C 1.02243 0.74143 0.32372 0.0
C1496 C 0.99943 0.75926 0.34044 0.0
C1497 C 0.04598 0.74584 0.29268 0.0
C1498 C 0.04732 0.76822 0.2777 0.0
H1499 H 1.02171 0.72392 0.33441 0.0
H1500 H 0.0624 0.73159 0.27987 0.0
S1501 S 0.9984 0.82146 0.31472 0.0
N1502 N 0.98387 0.80055 0.34246 0.0
N1503 N 0.02677 0.80869 0.28323 0.0
C1504 C 0.02535 0.78626 0.29464 0.0
C1505 C 1.00177 0.78183 0.32637 0.0
C1506 C 0.74542 0.99984 0.30039 0.0
C1507 C 0.74207 0.02215 0.28565 0.0
C1508 C 0.77497 0.99525 0.32732 0.0
C1509 C 0.80341 1.01265 0.33933 0.0
H1510 H 0.72686 0.98554 0.28951 0.0
H1511 H 0.77793 0.97744 0.33631 0.0
S1512 S 0.80273 0.07475 0.31203 0.0
N1513 N 0.76503 0.06246 0.28774 0.0
N1514 N 0.82206 0.05387 0.33736 0.0
C1515 C 0.79756 0.03554 0.32686 0.0
C1516 C 0.7667 0.04025 0.30003 0.0
C1517 C 0.04879 0.52772 0.06647 0.0
C1518 C 0.05086 0.50489 0.07951 0.0
C1519 C 0.02487 0.53291 1.03601 0.0
C1520 C 1.00234 0.51534 1.01784 0.0
H1521 H 0.06505 0.54169 0.08034 0.0
H1522 H 1.02356 0.55077 1.0269 0.0
S1523 S 1.00408 0.45221 1.03762 0.0
N1524 N 0.03185 0.46431 0.07033 0.0
N1525 N 0.98853 0.47388 1.01193 0.0
C1526 C 1.00546 0.49232 1.02986 0.0
C1527 C 0.02935 0.48712 0.0611 0.0
C1528 C 0.29945 0.75847 1.0485 0.0
C1529 C 0.29989 0.78087 1.0336 0.0
C1530 C 0.26935 0.75215 0.07442 0.0
C1531 C 0.23774 0.76784 0.08545 0.0
H1532 H 0.32053 0.74525 1.03818 0.0
H1533 H 0.2686 0.73422 0.08328 0.0
S1534 S 0.22956 0.82966 0.05747 0.0
N1535 N 0.27004 0.81953 1.03446 0.0
N1536 N 0.21276 0.80781 0.08245 0.0
C1537 C 0.24054 0.79095 0.07294 0.0
C1538 C 0.27162 0.79738 1.047 0.0
C1539 C 0.30285 0.53464 0.30349 0.0
C1540 C 0.31512 0.51282 0.31649 0.0
C1541 C 0.27014 0.53663 0.27865 0.0
C1542 C 0.24799 0.51681 0.26615 0.0
H1543 H 0.31711 0.55046 0.31407 0.0
H1544 H 0.26066 0.55399 0.27099 0.0
S1545 S 0.27183 0.45544 0.28864 0.0
N1546 N 0.30555 0.47088 0.31297 0.0
N1547 N 0.24425 0.47446 0.26546 0.0
C1548 C 0.26221 0.49473 0.27688 0.0
C1549 C 0.29567 0.49276 0.30231 0.0
C1550 C 0.8078 0.25033 0.06068 0.0
C1551 C 0.80951 0.26477 1.03026 0.0
C1552 C 0.77151 0.24896 0.08198 0.0
C1553 C 0.7353 0.26187 0.07371 0.0
H1554 H 0.83509 0.24043 0.06887 0.0
H1555 H 0.77185 0.23766 0.10514 0.0
S1556 S 0.7226 0.30112 0.99539 0.0
N1557 N 0.77127 0.29134 0.99192 0.0
N1558 N 0.70302 0.28901 1.03185 0.0
C1559 C 0.73638 0.27617 1.04301 0.0
C1560 C 0.77335 0.27744 1.02124 0.0
C1561 C 0.80356 0.53502 0.75323 0.0
C1562 C 0.76928 0.54326 0.77283 0.0
C1563 C 0.8415 0.52978 0.77057 0.0
C1564 C 0.84516 0.53197 0.80802 0.0
H1565 H 0.79995 0.53123 0.72502 0.0
H1566 H 0.86685 0.5224 0.755 0.0
S1567 S 0.77426 0.56636 0.86579 0.0
N1568 N 0.74852 0.56361 0.8274 0.0
N1569 N 0.81872 0.55182 0.86076 0.0
C1570 C 0.81429 0.54448 0.82634 0.0
C1571 C 0.77637 0.55068 0.80836 0.0
C1572 C 0.49699 0.99848 1.04166 0.0
C1573 C 0.49468 0.02169 1.03024 0.0
C1574 C 0.52118 0.99251 0.07161 0.0
C1575 C 0.54374 1.00963 0.09075 0.0
H1576 H 0.48119 0.9848 1.02668 0.0
H1577 H 0.5229 0.9744 0.07942 0.0
S1578 S 0.54143 0.07327 0.07522 0.0
N1579 N 0.51332 0.06203 1.04201 0.0
N1580 N 0.55743 0.05092 0.09929 0.0
C1581 C 0.5403 0.03297 0.08035 0.0
C1582 C 0.51607 0.03899 1.04972 0.0
C1583 C 0.5091 0.26521 0.32585 0.0
C1584 C 0.48691 0.24557 0.33817 0.0
C1585 C 0.53708 0.26347 0.29691 0.0
C1586 C 0.54338 0.24207 0.27941 0.0
H1587 H 0.50494 0.28198 0.33879 0.0
H1588 H 0.55275 0.27909 0.28736 0.0
S1589 S 0.49189 0.18574 0.30093 0.0
N1590 N 0.47305 0.20414 0.33105 0.0
N1591 N 0.5245 0.20108 0.2756 0.0
C1592 C 0.52122 0.22236 0.2914 0.0
C1593 C 0.49338 0.22403 0.32124 0.0
C1594 C 0.49598 0.78108 0.82386 0.0
C1595 C 0.49488 0.75889 0.83941 0.0
C1596 C 0.51982 0.78531 0.79287 0.0
C1597 C 0.54325 0.76743 0.77666 0.0
H1598 H 0.47888 0.79529 0.83603 0.0
H1599 H 0.52025 0.80269 0.78172 0.0
S1600 S 0.54358 0.70545 0.80351 0.0
N1601 N 0.51527 0.71847 0.83469 0.0
N1602 N 0.55865 0.72611 0.7755 0.0
C1603 C 0.54089 0.74499 0.79123 0.0
C1604 C 0.51706 0.7408 0.82294 0.0
C1605 C 0.5287 0.52861 0.53928 0.0
C1606 C 0.5079 0.51258 0.51676 0.0
C1607 C 0.55375 0.52094 0.56778 0.0
C1608 C 0.55918 0.49704 0.57415 0.0
H1609 H 0.52505 0.54715 0.53517 0.0
H1610 H 0.5682 0.53373 0.5854 0.0
S1611 S 0.51464 0.44835 0.52062 0.0
N1612 N 0.4968 0.47199 0.50083 0.0
N1613 N 0.54316 0.45751 0.55504 0.0
C1614 C 0.53894 0.48091 0.55154 0.0
C1615 C 0.51362 0.48871 0.52249 0.0
C1616 C 0.32939 1.01132 0.71445 0.0
C1617 C 0.35806 0.99244 0.71438 0.0
C1618 C 0.30305 0.01664 0.68429 0.0
C1619 C 0.30111 1.00257 0.65295 0.0
H1620 H 0.32761 0.02241 0.73796 0.0
H1621 H 0.28354 0.032 0.68568 0.0
S1622 S 0.37177 0.95225 0.63654 0.0
N1623 N 0.38509 0.96099 0.67731 0.0
N1624 N 0.33398 0.96987 0.62307 0.0
C1625 C 0.33055 0.98417 0.65198 0.0
C1626 C 0.35878 0.97931 0.68196 0.0
C1627 C 0.97381 0.26988 0.71071 0.0
C1628 C 0.93729 0.25629 0.718 0.0
C1629 C 1.00226 0.26469 0.68196 0.0
C1630 C 0.9969 0.24535 0.65872 0.0
H1631 H 0.98012 0.28512 0.72708 0.0
H1632 H 0.02861 0.27627 0.67722 0.0
S1633 S 0.90671 0.20358 0.66554 0.0
N1634 N 0.89735 0.22245 0.69814 0.0
N1635 N 0.95093 0.21224 0.64607 0.0
C1636 C 0.96028 0.23162 0.66557 0.0
C1637 C 0.93079 0.23715 0.69448 0.0
C1638 C 0.32393 0.29538 0.64824 0.0
C1639 C 0.36449 0.28523 0.64544 0.0
C1640 C 0.29518 0.29017 0.67672 0.0
C1641 C 0.30392 0.27371 0.70404 0.0
H1642 H 0.31439 0.30798 0.62837 0.0
H1643 H 0.26559 0.29944 0.67728 0.0
S1644 S 0.40354 0.23939 0.70679 0.0
N1645 N 0.41077 0.25682 0.67221 0.0
N1646 N 0.35636 0.24553 0.72298 0.0
C1647 C 0.344 0.26278 0.70071 0.0
C1648 C 0.37399 0.2688 0.67236 0.0
C1649 C 0.97318 1.00931 0.7074 0.0
C1650 C 0.99768 0.03005 0.70966 0.0
C1651 C 0.94414 1.00471 0.67863 0.0
C1652 C 0.93767 0.02048 0.64993 0.0
H1653 H 0.97679 0.99626 0.728 0.0
H1654 H 0.92718 0.98827 0.67853 0.0
S1655 S 0.98758 0.07924 0.64605 0.0
N1656 N 1.00893 0.06767 0.68214 0.0
N1657 N 0.95595 0.0591 0.62871 0.0
C1658 C 0.96105 0.04158 0.65254 0.0
C1659 C 0.9903 0.04632 0.682 0.0
C1660 C 0.71324 1.00886 0.45116 0.0
C1661 C 0.74812 0.02372 0.45916 0.0
C1662 C 0.68507 0.01304 0.42182 0.0
C1663 C 0.69042 0.03213 0.39825 0.0
H1664 H 0.70789 0.99356 0.46742 0.0
H1665 H 0.65917 1.00097 0.41727 0.0
S1666 S 0.7727 0.07808 0.40918 0.0
N1667 N 0.78279 0.05982 0.44209 0.0
N1668 N 0.73195 0.06693 0.38723 0.0
C1669 C 0.72453 0.04727 0.40636 0.0
C1670 C 0.75261 0.04328 0.43645 0.0
C1671 C 0.07658 0.78789 0.39167 0.0
C1672 C 0.10794 0.77044 0.3943 0.0
C1673 C 0.04764 0.79308 0.42016 0.0
C1674 C 0.04739 0.78094 0.45328 0.0
H1675 H 0.07455 0.79792 0.36727 0.0
H1676 H 0.02548 0.80708 0.41615 0.0
S1677 S 0.12171 0.73304 0.47466 0.0
N1678 N 0.13613 0.74099 0.43394 0.0
N1679 N 0.08196 0.75004 0.48593 0.0
C1680 C 0.07865 0.76348 0.45625 0.0
C1681 C 0.10852 0.75845 0.42747 0.0
C1682 C 0.7053 0.75454 0.4144 0.0
C1683 C 0.7474 0.74593 0.41351 0.0
C1684 C 0.67563 0.74888 0.44229 0.0
C1685 C 0.68617 0.73474 0.47206 0.0
H1686 H 0.69492 0.76617 0.39356 0.0
H1687 H 0.64421 0.75611 0.44078 0.0
S1688 S 0.79035 0.70604 0.48304 0.0
N1689 N 0.7955 0.72036 0.44504 0.0
N1690 N 0.7424 0.71178 0.49774 0.0
C1691 C 0.72801 0.72611 0.47165 0.0
C1692 C 0.75761 0.73114 0.44269 0.0
C1693 C 0.04027 0.01391 0.43074 0.0
C1694 C 0.04439 0.99417 0.40812 0.0
C1695 C 0.06878 0.01899 0.45965 0.0
C1696 C 0.10398 1.00485 0.46778 0.0
H1697 H 1.01494 0.02588 0.42538 0.0
H1698 H 0.06372 0.03458 0.47543 0.0
S1699 S 0.13064 0.95084 0.41755 0.0
N1700 N 0.08752 0.96003 0.39726 0.0
N1701 N 0.14118 0.97002 0.44957 0.0
C1702 C 0.1091 0.98526 0.44502 0.0
C1703 C 0.07959 0.97985 0.41595 0.0
C1704 C 0.30341 0.51377 0.18195 0.0
C1705 C 0.30465 0.5025 0.14809 0.0
C1706 C 0.33336 0.50918 0.20968 0.0
C1707 C 0.3663 0.49278 0.20598 0.0
H1708 H 0.279 0.52646 0.18713 0.0
H1709 H 0.33085 0.51875 0.2345 0.0
S1710 S 0.38465 0.45823 0.12278 0.0
N1711 N 0.34293 0.47404 0.11278 0.0
N1712 N 0.39805 0.46548 0.16419 0.0
C1713 C 0.3684 0.48169 0.17196 0.0
C1714 C 0.33805 0.48644 0.14355 0.0
C1715 C 0.97219 0.73845 0.22614 0.0
C1716 C 0.93815 0.75426 0.22285 0.0
C1717 C 1.00134 0.73375 0.19752 0.0
C1718 C 0.99918 0.74485 0.16355 0.0
H1719 H 0.97608 0.72921 0.25112 0.0
H1720 H 0.02543 0.72086 0.20212 0.0
S1721 S 0.91731 0.78846 0.14022 0.0
N1722 N 0.90494 0.7811 0.18168 0.0
N1723 N 0.95931 0.77305 0.12947 0.0
C1724 C 0.96529 0.76071 0.15999 0.0
C1725 C 0.93526 0.7652 0.1889 0.0
C1726 C 0.33396 0.76413 0.19793 0.0
C1727 C 0.29698 0.7774 0.20455 0.0
C1728 C 0.36268 0.76921 0.16918 0.0
C1729 C 0.35593 0.78762 0.14465 0.0
H1730 H 0.34063 0.74935 0.21482 0.0
H1731 H 0.39011 0.75828 0.16579 0.0
S1732 S 0.26807 0.82994 0.15221 0.0
N1733 N 0.259 0.81171 0.18545 0.0
N1734 N 0.31061 0.82028 0.13149 0.0
C1735 C 0.31967 0.80123 0.15139 0.0
C1736 C 0.29108 0.79641 0.18102 0.0
C1737 C 0.97344 0.51174 0.1979 0.0
C1738 C 1.00354 0.53017 0.19669 0.0
C1739 C 0.94423 0.50699 0.16928 0.0
C1740 C 0.94298 0.52027 0.13722 0.0
H1741 H 0.97274 0.50057 0.22119 0.0
H1742 H 0.92282 0.49233 0.1721 0.0
S1743 S 1.00931 0.57308 0.12252 0.0
N1744 N 0.02589 0.56347 0.16167 0.0
N1745 N 0.97259 0.55452 0.10867 0.0
C1746 C 0.97197 0.5392 0.13624 0.0
C1747 C 1.00147 0.54413 0.16549 0.0
C1748 C 0.74848 0.51431 0.91638 0.0
C1749 C 0.74727 0.52499 0.95082 0.0
C1750 C 0.7187 0.51945 0.88857 0.0
C1751 C 0.68519 0.53557 0.8931 0.0
H1752 H 0.7731 0.50187 0.91059 0.0
H1753 H 0.72258 0.51094 0.86282 0.0
S1754 S 0.66822 0.56967 0.97694 0.0
N1755 N 0.70982 0.55366 0.98643 0.0
N1756 N 0.65412 0.56252 0.93567 0.0
C1757 C 0.68338 0.54618 0.92751 0.0
C1758 C 0.71405 0.54117 0.95565 0.0
C1759 C 0.07629 0.2843 0.88976 0.0
C1760 C 0.11141 0.2693 0.8936 0.0
C1761 C 0.04724 0.28914 0.91832 0.0
C1762 C 0.05137 0.27958 0.95321 0.0
H1763 H 0.07141 0.29271 0.8643 0.0
H1764 H 1.02138 0.30083 0.91293 0.0
S1765 S 0.13692 0.23873 0.9787 0.0
N1766 N 0.14762 0.24473 0.93639 0.0
N1767 N 0.09419 0.25366 0.98898 0.0
C1768 C 0.08657 0.2647 0.95757 0.0
C1769 C 0.11604 0.25971 0.92842 0.0
C1770 C 0.67678 0.25349 0.93739 0.0
C1771 C 0.68684 0.23916 0.96702 0.0
C1772 C 0.70669 0.25898 0.90965 0.0
C1773 C 0.74852 0.24999 0.90885 0.0
H1774 H 0.64562 0.26106 0.93593 0.0
H1775 H 0.69675 0.27078 0.88889 0.0
S1776 S 0.79002 0.20943 0.97802 0.0
N1777 N 0.74218 0.21554 0.99264 0.0
N1778 N 0.79581 0.22391 0.94023 0.0
C1779 C 0.75824 0.23502 0.93789 0.0
C1780 C 0.72838 0.23013 0.96667 0.0
C1781 C 0.05097 0.48458 0.93386 0.0
C1782 C 0.05465 0.49508 0.89958 0.0
C1783 C 0.07916 0.48982 0.96298 0.0
C1784 C 0.1131 0.50599 0.96021 0.0
H1785 H 0.02632 0.47178 0.93829 0.0
H1786 H 0.07451 0.48082 0.98806 0.0
S1787 S 0.13859 0.53807 0.87625 0.0
N1788 N 0.09683 0.52225 0.86501 0.0
N1789 N 0.14871 0.53196 0.91861 0.0
C1790 C 0.11774 0.51619 0.92578 0.0
C1791 C 0.08908 0.51083 0.89611 0.0
C1792 C 0.84086 0.97351 0.19116 0.0
C1793 C 0.85598 0.99056 0.21583 0.0
C1794 C 0.8122 0.97879 0.16257 0.0
C1795 C 0.79752 1.00165 0.1559 0.0
H1796 H 0.85056 0.9556 0.19445 0.0
H1797 H 0.80132 0.96469 0.14547 0.0
S1798 S 0.82761 0.05323 0.21131 0.0
N1799 N 0.85286 0.03165 0.23091 0.0
N1800 N 0.8021 0.04166 0.17681 0.0
C1801 C 0.81338 0.01898 0.17969 0.0
C1802 C 0.8414 0.01347 0.20956 0.0
C1803 C 0.43473 0.24076 0.19556 0.0
C1804 C 0.43862 0.26062 0.21817 0.0
C1805 C 0.46295 0.23632 0.16613 0.0
C1806 C 0.49659 0.25168 0.15656 0.0
H1807 H 0.40999 0.22816 0.20104 0.0
H1808 H 0.45867 0.22033 0.15103 0.0
S1809 S 0.51746 0.30798 0.20378 0.0
N1810 N 0.4782 0.29645 0.22696 0.0
N1811 N 0.52779 0.28936 0.1711 0.0
C1812 C 0.49931 0.27218 0.178 0.0
C1813 C 0.47153 0.27627 0.20863 0.0
C1814 C 0.86754 0.27284 0.17249 0.0
C1815 C 0.85673 0.28632 0.14208 0.0
C1816 C 0.83777 0.26716 0.20027 0.0
C1817 C 0.79516 0.27502 0.20038 0.0
H1818 H 0.89931 0.26617 0.17464 0.0
H1819 H 0.84851 0.2561 0.22171 0.0
S1820 S 0.75126 0.31327 0.1292 0.0
N1821 N 0.79975 0.30815 0.11519 0.0
N1822 N 0.74609 0.29919 0.16743 0.0
C1823 C 0.78453 0.28911 0.17053 0.0
C1824 C 0.81441 0.29429 0.14177 0.0
C1825 C 0.49894 0.04264 0.17551 0.0
C1826 C 0.49763 0.03084 0.20889 0.0
C1827 C 0.46938 0.03806 0.14715 0.0
C1828 C 0.43623 0.02142 0.14994 0.0
H1829 H 0.52298 0.05582 0.17122 0.0
H1830 H 0.47232 0.04792 0.12266 0.0
S1831 S 0.41662 0.9861 0.23185 0.0
N1832 N 0.45842 1.00198 0.24275 0.0
N1833 N 0.40385 0.99362 0.19058 0.0
C1834 C 0.43381 1.01001 0.18358 0.0
C1835 C 0.46395 0.01462 0.21243 0.0
C1836 C 0.22978 0.04726 0.95406 0.0
C1837 C 0.24359 0.02446 0.96215 0.0
C1838 C 0.20083 0.05199 0.92555 0.0
C1839 C 0.18472 0.03435 0.90241 0.0
H1840 H 0.24152 0.06173 0.97001 0.0
H1841 H 0.19176 0.06988 0.92103 0.0
S1842 S 0.21101 0.97161 0.91076 0.0
N1843 N 0.23715 0.98389 0.94435 0.0
N1844 N 0.18628 0.99288 0.88992 0.0
C1845 C 0.19857 1.01151 0.91 0.0
C1846 C 0.22668 1.00658 0.93994 0.0
C1847 C 0.6038 0.76136 0.925 0.0
C1848 C 0.60504 0.77462 0.89296 0.0
C1849 C 0.57456 0.7659 0.95348 0.0
C1850 C 0.54466 0.78417 0.95222 0.0
H1851 H 0.62518 0.74686 0.92787 0.0
H1852 H 0.57513 0.7547 0.97673 0.0
S1853 S 0.53845 0.82669 0.8774 0.0
N1854 N 0.57515 0.80834 0.86381 0.0
N1855 N 0.52232 0.81727 0.9169 0.0
C1856 C 0.54671 0.79811 0.92094 0.0
C1857 C 0.57603 0.79327 0.8917 0.0
C1858 C 0.23008 0.72734 0.9171 0.0
C1859 C 0.2421 0.75037 0.90784 0.0
C1860 C 0.2005 0.72232 0.94515 0.0
C1861 C 0.18159 0.73996 0.96645 0.0
H1862 H 0.24381 0.71291 0.90252 0.0
H1863 H 0.19311 0.70427 0.95078 0.0
S1864 S 0.2023 0.80327 0.95445 0.0
N1865 N 0.23105 0.79107 0.92259 0.0
N1866 N 0.17872 0.78172 0.97601 0.0
C1867 C 0.19359 0.76304 0.95763 0.0
C1868 C 0.2226 0.76817 0.9283 0.0
C1869 C 0.53755 0.98648 0.94457 0.0
C1870 C 0.54147 0.99665 0.91006 0.0
C1871 C 0.56665 0.99122 0.97328 0.0
C1872 C 0.6018 1.00655 0.96978 0.0
H1873 H 0.5118 0.97442 0.94953 0.0
H1874 H 0.56172 0.98249 0.99855 0.0
S1875 S 0.62681 0.03858 0.8857 0.0
N1876 N 0.58402 0.02346 0.87508 0.0
N1877 N 0.63773 0.03205 0.92774 0.0
C1878 C 0.60619 0.0167 0.93531 0.0
C1879 C 0.57656 1.01192 0.90614 0.0
C1880 C 0.82677 0.48797 0.70699 0.0
C1881 C 0.87064 0.48473 0.70147 0.0
C1882 C 0.79806 0.49387 0.67899 0.0
C1883 C 0.81012 0.49587 0.64248 0.0
H1884 H 0.81409 0.48636 0.73382 0.0
H1885 H 0.76587 0.49738 0.68672 0.0
S1886 S 0.92044 0.48573 0.6111 0.0
N1887 N 0.9241 0.48272 0.65501 0.0
N1888 N 0.87042 0.49151 0.60263 0.0
C1889 C 0.85378 0.49154 0.63613 0.0
C1890 C 0.88351 0.48636 0.66511 0.0
C1891 C 0.49654 0.73147 0.69732 0.0
C1892 C 0.49669 0.74279 0.66349 0.0
C1893 C 0.46733 0.73715 0.72541 0.0
C1894 C 0.43557 0.75429 0.7217 0.0
H1895 H 0.51889 0.7177 0.70219 0.0
H1896 H 0.46939 0.7277 0.75035 0.0
S1897 S 0.42123 0.78955 0.63912 0.0
N1898 N 0.46142 0.77258 0.62895 0.0
N1899 N 0.40689 0.78253 0.68027 0.0
C1900 C 0.43489 0.76545 0.68783 0.0
C1901 C 0.46499 0.75992 0.65942 0.0
C1902 C 0.79006 0.79408 0.67599 0.0
C1903 C 0.79911 0.77888 0.70487 0.0
C1904 C 0.81936 0.79886 0.64773 0.0
C1905 C 0.86065 0.78945 0.64663 0.0
H1906 H 0.75982 0.80269 0.67514 0.0
H1907 H 0.8096 0.81054 0.62664 0.0
S1908 S 0.90054 0.74653 0.7124 0.0
N1909 N 0.8526 0.75238 0.72717 0.0
N1910 N 0.90776 0.76284 0.67657 0.0
C1911 C 0.87033 0.77415 0.67503 0.0
C1912 C 0.8399 0.7686 0.70325 0.0
C1913 C 0.4868 0.5093 0.64165 0.0
C1914 C 0.44751 0.52052 0.63695 0.0
C1915 C 0.51556 0.51512 0.67004 0.0
C1916 C 0.50716 0.53259 0.69597 0.0
H1917 H 0.49482 0.49529 0.62355 0.0
H1918 H 0.54451 0.5054 0.6722 0.0
S1919 S 0.40935 0.56842 0.6956 0.0
N1920 N 0.40222 0.55044 0.66138 0.0
N1921 N 0.45576 0.56193 0.71297 0.0
C1922 C 0.46787 0.54411 0.69137 0.0
C1923 C 0.4384 0.53795 0.66266 0.0
C1924 C 0.25714 0.51358 0.41552 0.0
C1925 C 0.2515 0.52198 0.45108 0.0
C1926 C 0.22891 0.5189 0.38654 0.0
C1927 C 0.19197 0.53255 0.39098 0.0
H1928 H 0.2838 0.50247 0.41002 0.0
H1929 H 0.23613 0.51201 0.36021 0.0
S1930 S 0.15994 0.55809 0.4789 0.0
N1931 N 0.20426 0.54449 0.48855 0.0
N1932 N 0.15137 0.55362 0.43571 0.0
C1933 C 0.1851 0.54035 0.42679 0.0
C1934 C 0.21434 0.53526 0.45613 0.0
C1935 C 0.58043 0.2939 0.4404 0.0
C1936 C 0.55156 0.277 0.45383 0.0
C1937 C 0.60875 0.2892 0.41121 0.0
C1938 C 0.60995 0.2673 0.39346 0.0
H1939 H 0.58089 0.31112 0.45236 0.0
H1940 H 0.62966 0.303 0.40227 0.0
S1941 S 0.54803 0.21547 0.42209 0.0
N1942 N 0.53129 0.23628 0.44932 0.0
N1943 N 0.5825 0.22787 0.39488 0.0
C1944 C 0.58239 0.25011 0.40745 0.0
C1945 C 0.55395 0.2548 0.43725 0.0
C1946 C 0.17785 0.25383 0.43974 0.0
C1947 C 0.18927 0.23991 0.46952 0.0
C1948 C 0.20682 0.25955 0.41139 0.0
C1949 C 0.24907 0.25124 0.41011 0.0
H1950 H 0.14621 0.26079 0.43852 0.0
H1951 H 0.1958 0.27095 0.39048 0.0
S1952 S 0.29405 0.21171 0.47918 0.0
N1953 N 0.24628 0.21722 0.49453 0.0
N1954 N 0.29833 0.22608 0.44115 0.0
C1955 C 0.2602 0.23664 0.43928 0.0
C1956 C 0.23123 0.2315 0.46864 0.0
C1957 C 0.59903 0.52176 0.43512 0.0
C1958 C 0.61259 0.50384 0.45845 0.0
C1959 C 0.56987 0.51769 0.40637 0.0
C1960 C 0.55272 0.49536 0.39865 0.0
H1961 H 0.61039 0.53937 0.4396 0.0
H1962 H 0.56045 0.53232 0.39009 0.0
S1963 S 0.58135 0.44165 0.44787 0.0
N1964 N 0.60782 0.46232 0.46943 0.0
N1965 N 0.55479 0.45474 0.4157 0.0
C1966 C 0.56697 0.47719 0.42101 0.0
C1967 C 0.59614 0.48138 0.45063 0.0
loop_
_geom_bond_atom_site_label_1
_geom_bond_atom_site_label_2
_geom_bond_distance
_geom_bond_site_symmetry_2
_ccdc_geom_bond_type
Co0 O3 1.970 . S
Co0 N17 1.989 . S
Co0 O25 1.967 . S
Co0 O32 1.920 . S
Co1 O4 1.966 . S
Co1 N10 2.022 . S
Co1 N18 1.993 . S
Co1 O26 1.941 . S
C2 O3 1.258 . S
C2 O4 1.263 . S
O3 Co0 1.970 . S
O3 C2 1.258 . S
O4 Co1 1.966 . S
O4 C2 1.263 . S
C5 O6 1.235 1_545 S
C5 O32 1.289 . S
O6 C5 1.235 1_565 S
C7 C9 1.400 . S
C7 N10 1.351 . S
C7 C12 1.501 . S
C8 C9 1.387 . S
C8 N11 1.341 . S
C9 C7 1.400 . S
C9 C8 1.387 . S
N10 Co1 2.022 . S
N10 C7 1.351 . S
N10 N11 1.365 . S
N11 C8 1.341 . S
N11 N10 1.365 . S
N11 H31 0.862 . S
C12 C7 1.501 . S
C12 H13 0.961 . S
C12 H14 0.961 . S
C12 H15 0.960 . S
H13 C12 0.961 . S
H14 C12 0.961 . S
H15 C12 0.960 . S
C16 N17 1.342 . S
C16 C20 1.401 . S
C16 C21 1.499 . S
N17 Co0 1.989 . S
N17 C16 1.342 . S
N17 N18 1.388 . S
N18 Co1 1.993 . S
N18 N17 1.388 . S
N18 C19 1.346 . S
C19 N18 1.346 . S
C19 C20 1.396 . S
C19 C29 1.510 . S
C20 C16 1.401 . S
C20 C19 1.396 . S
C21 C16 1.499 . S
C21 H22 0.959 . S
C21 H23 0.960 1_545 S
C21 H24 0.961 . S
H22 C21 0.959 . S
H23 C21 0.960 1_565 S
H24 C21 0.961 . S
O25 Co0 1.967 . S
O25 C33 1.258 . S
O26 Co1 1.941 . S
O26 C33 1.266 . S
H27 C29 0.959 . S
H28 C29 0.961 . S
C29 C19 1.510 . S
C29 H27 0.959 . S
C29 H28 0.961 . S
C29 H30 0.960 . S
H30 C29 0.960 . S
H31 N11 0.862 . S
O32 Co0 1.920 . S
O32 C5 1.289 . S
C33 O25 1.258 . S
C33 O26 1.266 . S
Co34 O37 1.970 . S
Co34 N51 1.989 . S
Co34 O59 1.967 . S
Co34 O66 1.920 . S
Co35 O38 1.966 . S
Co35 N44 2.022 1_455 S
Co35 N52 1.993 . S
Co35 O60 1.941 . S
C36 O37 1.258 . S
C36 O38 1.263 . S
O37 Co34 1.970 . S
O37 C36 1.258 . S
O38 Co35 1.966 . S
O38 C36 1.263 . S
C39 O40 1.235 . S
C39 O66 1.289 . S
O40 C39 1.235 . S
C41 C43 1.400 . S
C41 N44 1.351 . S
C41 C46 1.501 . S
C42 C43 1.387 . S
C42 N45 1.341 . S
C43 C41 1.400 . S
C43 C42 1.387 . S
N44 Co35 2.022 1_655 S
N44 C41 1.351 . S
N44 N45 1.365 . S
N45 C42 1.341 . S
N45 N44 1.365 . S
N45 H65 0.862 . S
C46 C41 1.501 . S
C46 H47 0.961 1_655 S
C46 H48 0.961 . S
C46 H49 0.960 . S
H47 C46 0.961 1_455 S
H48 C46 0.961 . S
H49 C46 0.960 . S
C50 N51 1.342 . S
C50 C54 1.401 . S
C50 C55 1.499 . S
N51 Co34 1.989 . S
N51 C50 1.342 . S
N51 N52 1.388 . S
N52 Co35 1.993 . S
N52 N51 1.388 . S
N52 C53 1.346 . S
C53 N52 1.346 . S
C53 C54 1.396 . S
C53 C63 1.510 1_455 S
C54 C50 1.401 . S
C54 C53 1.396 . S
C55 C50 1.499 . S
C55 H56 0.959 . S
C55 H57 0.960 . S
C55 H58 0.961 . S
H56 C55 0.959 . S
H57 C55 0.960 . S
H58 C55 0.961 . S
O59 Co34 1.967 . S
O59 C67 1.258 . S
O60 Co35 1.941 . S
O60 C67 1.266 . S
H61 C63 0.959 . S
H62 C63 0.961 . S
C63 C53 1.510 1_655 S
C63 H61 0.959 . S
C63 H62 0.961 . S
C63 H64 0.960 . S
H64 C63 0.960 . S
H65 N45 0.862 . S
O66 Co34 1.920 . S
O66 C39 1.289 . S
C67 O59 1.258 . S
C67 O60 1.266 . S
Co68 O71 1.970 . S
Co68 N85 1.989 . S
Co68 O93 1.967 . S
Co68 O100 1.920 . S
Co69 O72 1.966 . S
Co69 N78 2.022 . S
Co69 N86 1.993 . S
Co69 O94 1.941 . S
C70 O71 1.258 . S
C70 O72 1.263 . S
O71 Co68 1.970 . S
O71 C70 1.258 . S
O72 Co69 1.966 . S
O72 C70 1.263 . S
C73 O74 1.235 . S
C73 O100 1.289 . S
O74 C73 1.235 . S
C75 C77 1.400 . S
C75 N78 1.351 . S
C75 C80 1.501 . S
C76 C77 1.387 . S
C76 N79 1.341 . S
C77 C75 1.400 . S
C77 C76 1.387 . S
N78 Co69 2.022 . S
N78 C75 1.351 . S
N78 N79 1.365 . S
N79 C76 1.341 . S
N79 N78 1.365 . S
N79 H99 0.862 . S
C80 C75 1.501 . S
C80 H81 0.961 . S
C80 H82 0.961 . S
C80 H83 0.960 . S
H81 C80 0.961 . S
H82 C80 0.961 . S
H83 C80 0.960 . S
C84 N85 1.342 . S
C84 C88 1.401 . S
C84 C89 1.499 . S
N85 Co68 1.989 . S
N85 C84 1.342 . S
N85 N86 1.388 . S
N86 Co69 1.993 . S
N86 N85 1.388 . S
N86 C87 1.346 . S
C87 N86 1.346 . S
C87 C88 1.396 . S
C87 C97 1.510 . S
C88 C84 1.401 . S
C88 C87 1.396 . S
C89 C84 1.499 . S
C89 H90 0.959 . S
C89 H91 0.960 . S
C89 H92 0.961 . S
H90 C89 0.959 . S
H91 C89 0.960 . S
H92 C89 0.961 . S
O93 Co68 1.967 . S
O93 C101 1.258 . S
O94 Co69 1.941 . S
O94 C101 1.266 . S
H95 C97 0.959 . S
H96 C97 0.961 . S
C97 C87 1.510 . S
C97 H95 0.959 . S
C97 H96 0.961 . S
C97 H98 0.960 . S
H98 C97 0.960 . S
H99 N79 0.862 . S
O100 Co68 1.920 . S
O100 C73 1.289 . S
C101 O93 1.258 . S
C101 O94 1.266 . S
Co102 O105 1.970 . S
Co102 N119 1.989 . S
Co102 O127 1.967 . S
Co102 O134 1.920 . S
Co103 O106 1.966 . S
Co103 N112 2.022 1_455 S
Co103 N120 1.993 . S
Co103 O128 1.941 . S
C104 O105 1.258 . S
C104 O106 1.263 . S
O105 Co102 1.970 . S
O105 C104 1.258 . S
O106 Co103 1.966 . S
O106 C104 1.263 . S
C107 O108 1.235 1_545 S
C107 O134 1.289 . S
O108 C107 1.235 1_565 S
C109 C111 1.400 . S
C109 N112 1.351 . S
C109 C114 1.501 . S
C110 C111 1.387 . S
C110 N113 1.341 . S
C111 C109 1.400 . S
C111 C110 1.387 . S
N112 Co103 2.022 1_655 S
N112 C109 1.351 . S
N112 N113 1.365 . S
N113 C110 1.341 . S
N113 N112 1.365 . S
N113 H133 0.862 . S
C114 C109 1.501 . S
C114 H115 0.961 1_655 S
C114 H116 0.961 . S
C114 H117 0.960 . S
H115 C114 0.961 1_455 S
H116 C114 0.961 . S
H117 C114 0.960 . S
C118 N119 1.342 . S
C118 C122 1.401 . S
C118 C123 1.499 . S
N119 Co102 1.989 . S
N119 C118 1.342 . S
N119 N120 1.388 . S
N120 Co103 1.993 . S
N120 N119 1.388 . S
N120 C121 1.346 . S
C121 N120 1.346 . S
C121 C122 1.396 . S
C121 C131 1.510 1_455 S
C122 C118 1.401 . S
C122 C121 1.396 . S
C123 C118 1.499 . S
C123 H124 0.959 . S
C123 H125 0.960 1_545 S
C123 H126 0.961 . S
H124 C123 0.959 . S
H125 C123 0.960 1_565 S
H126 C123 0.961 . S
O127 Co102 1.967 . S
O127 C135 1.258 . S
O128 Co103 1.941 . S
O128 C135 1.266 . S
H129 C131 0.959 . S
H130 C131 0.961 . S
C131 C121 1.510 1_655 S
C131 H129 0.959 . S
C131 H130 0.961 . S
C131 H132 0.960 . S
H132 C131 0.960 . S
H133 N113 0.862 . S
O134 Co102 1.920 . S
O134 C107 1.289 . S
C135 O127 1.258 . S
C135 O128 1.266 . S
Co136 O139 1.970 . S
Co136 N153 1.989 . S
Co136 O161 1.967 . S
Co136 O168 1.920 . S
Co137 O140 1.966 . S
Co137 N146 2.022 . S
Co137 N154 1.993 . S
Co137 O162 1.941 . S
C138 O139 1.258 . S
C138 O140 1.263 . S
O139 Co136 1.970 . S
O139 C138 1.258 . S
O140 Co137 1.966 . S
O140 C138 1.263 . S
C141 O142 1.235 1_565 S
C141 O168 1.289 . S
O142 C141 1.235 1_545 S
C143 C145 1.400 . S
C143 N146 1.351 . S
C143 C148 1.501 . S
C144 C145 1.387 . S
C144 N147 1.341 . S
C145 C143 1.400 . S
C145 C144 1.387 . S
N146 Co137 2.022 . S
N146 C143 1.351 . S
N146 N147 1.365 . S
N147 C144 1.341 . S
N147 N146 1.365 . S
N147 H167 0.862 . S
C148 C143 1.501 . S
C148 H149 0.961 . S
C148 H150 0.961 . S
C148 H151 0.960 . S
H149 C148 0.961 . S
H150 C148 0.961 . S
H151 C148 0.960 . S
C152 N153 1.342 . S
C152 C156 1.401 . S
C152 C157 1.499 . S
N153 Co136 1.989 . S
N153 C152 1.342 . S
N153 N154 1.388 . S
N154 Co137 1.993 . S
N154 N153 1.388 . S
N154 C155 1.346 . S
C155 N154 1.346 . S
C155 C156 1.396 . S
C155 C165 1.510 . S
C156 C152 1.401 . S
C156 C155 1.396 . S
C157 C152 1.499 . S
C157 H158 0.959 . S
C157 H159 0.960 1_565 S
C157 H160 0.961 . S
H158 C157 0.959 . S
H159 C157 0.960 1_545 S
H160 C157 0.961 . S
O161 Co136 1.967 . S
O161 C169 1.258 . S
O162 Co137 1.941 . S
O162 C169 1.266 . S
H163 C165 0.959 . S
H164 C165 0.961 . S
C165 C155 1.510 . S
C165 H163 0.959 . S
C165 H164 0.961 . S
C165 H166 0.960 . S
H166 C165 0.960 . S
H167 N147 0.862 . S
O168 Co136 1.920 . S
O168 C141 1.289 . S
C169 O161 1.258 . S
C169 O162 1.266 . S
Co170 O173 1.970 . S
Co170 N187 1.989 . S
Co170 O195 1.967 . S
Co170 O202 1.920 . S
Co171 O174 1.966 . S
Co171 N180 2.022 1_655 S
Co171 N188 1.993 . S
Co171 O196 1.941 . S
C172 O173 1.258 . S
C172 O174 1.263 . S
O173 Co170 1.970 . S
O173 C172 1.258 . S
O174 Co171 1.966 . S
O174 C172 1.263 . S
C175 O176 1.235 . S
C175 O202 1.289 . S
O176 C175 1.235 . S
C177 C179 1.400 . S
C177 N180 1.351 . S
C177 C182 1.501 . S
C178 C179 1.387 . S
C178 N181 1.341 . S
C179 C177 1.400 . S
C179 C178 1.387 . S
N180 Co171 2.022 1_455 S
N180 C177 1.351 . S
N180 N181 1.365 . S
N181 C178 1.341 . S
N181 N180 1.365 . S
N181 H201 0.862 . S
C182 C177 1.501 . S
C182 H183 0.961 1_455 S
C182 H184 0.961 . S
C182 H185 0.960 . S
H183 C182 0.961 1_655 S
H184 C182 0.961 . S
H185 C182 0.960 . S
C186 N187 1.342 . S
C186 C190 1.401 . S
C186 C191 1.499 . S
N187 Co170 1.989 . S
N187 C186 1.342 . S
N187 N188 1.388 . S
N188 Co171 1.993 . S
N188 N187 1.388 . S
N188 C189 1.346 . S
C189 N188 1.346 . S
C189 C190 1.396 . S
C189 C199 1.510 1_655 S
C190 C186 1.401 . S
C190 C189 1.396 . S
C191 C186 1.499 . S
C191 H192 0.959 . S
C191 H193 0.960 . S
C191 H194 0.961 . S
H192 C191 0.959 . S
H193 C191 0.960 . S
H194 C191 0.961 . S
O195 Co170 1.967 . S
O195 C203 1.258 . S
O196 Co171 1.941 . S
O196 C203 1.266 . S
H197 C199 0.959 . S
H198 C199 0.961 . S
C199 C189 1.510 1_455 S
C199 H197 0.959 . S
C199 H198 0.961 . S
C199 H200 0.960 . S
H200 C199 0.960 . S
H201 N181 0.862 . S
O202 Co170 1.920 . S
O202 C175 1.289 . S
C203 O195 1.258 . S
C203 O196 1.266 . S
Co204 O207 1.970 . S
Co204 N221 1.989 . S
Co204 O229 1.967 . S
Co204 O236 1.920 . S
Co205 O208 1.966 . S
Co205 N214 2.022 . S
Co205 N222 1.993 . S
Co205 O230 1.941 . S
C206 O207 1.258 . S
C206 O208 1.263 . S
O207 Co204 1.970 . S
O207 C206 1.258 . S
O208 Co205 1.966 . S
O208 C206 1.263 . S
C209 O210 1.235 . S
C209 O236 1.289 . S
O210 C209 1.235 . S
C211 C213 1.400 . S
C211 N214 1.351 . S
C211 C216 1.501 . S
C212 C213 1.387 . S
C212 N215 1.341 . S
C213 C211 1.400 . S
C213 C212 1.387 . S
N214 Co205 2.022 . S
N214 C211 1.351 . S
N214 N215 1.365 . S
N215 C212 1.341 . S
N215 N214 1.365 . S
N215 H235 0.862 . S
C216 C211 1.501 . S
C216 H217 0.961 . S
C216 H218 0.961 . S
C216 H219 0.960 . S
H217 C216 0.961 . S
H218 C216 0.961 . S
H219 C216 0.960 . S
C220 N221 1.342 . S
C220 C224 1.401 . S
C220 C225 1.499 . S
N221 Co204 1.989 . S
N221 C220 1.342 . S
N221 N222 1.388 . S
N222 Co205 1.993 . S
N222 N221 1.388 . S
N222 C223 1.346 . S
C223 N222 1.346 . S
C223 C224 1.396 . S
C223 C233 1.510 . S
C224 C220 1.401 . S
C224 C223 1.396 . S
C225 C220 1.499 . S
C225 H226 0.959 . S
C225 H227 0.960 . S
C225 H228 0.961 . S
H226 C225 0.959 . S
H227 C225 0.960 . S
H228 C225 0.961 . S
O229 Co204 1.967 . S
O229 C237 1.258 . S
O230 Co205 1.941 . S
O230 C237 1.266 . S
H231 C233 0.959 . S
H232 C233 0.961 . S
C233 C223 1.510 . S
C233 H231 0.959 . S
C233 H232 0.961 . S
C233 H234 0.960 . S
H234 C233 0.960 . S
H235 N215 0.862 . S
O236 Co204 1.920 . S
O236 C209 1.289 . S
C237 O229 1.258 . S
C237 O230 1.266 . S
Co238 O241 1.970 . S
Co238 N255 1.989 . S
Co238 O263 1.967 . S
Co238 O270 1.920 . S
Co239 O242 1.966 . S
Co239 N248 2.022 1_655 S
Co239 N256 1.993 . S
Co239 O264 1.941 . S
C240 O241 1.258 . S
C240 O242 1.263 . S
O241 Co238 1.970 . S
O241 C240 1.258 . S
O242 Co239 1.966 . S
O242 C240 1.263 . S
C243 O244 1.235 1_565 S
C243 O270 1.289 . S
O244 C243 1.235 1_545 S
C245 C247 1.400 . S
C245 N248 1.351 . S
C245 C250 1.501 . S
C246 C247 1.387 . S
C246 N249 1.341 . S
C247 C245 1.400 . S
C247 C246 1.387 . S
N248 Co239 2.022 1_455 S
N248 C245 1.351 . S
N248 N249 1.365 . S
N249 C246 1.341 . S
N249 N248 1.365 . S
N249 H269 0.862 . S
C250 C245 1.501 . S
C250 H251 0.961 1_455 S
C250 H252 0.961 . S
C250 H253 0.960 . S
H251 C250 0.961 1_655 S
H252 C250 0.961 . S
H253 C250 0.960 . S
C254 N255 1.342 . S
C254 C258 1.401 . S
C254 C259 1.499 . S
N255 Co238 1.989 . S
N255 C254 1.342 . S
N255 N256 1.388 . S
N256 Co239 1.993 . S
N256 N255 1.388 . S
N256 C257 1.346 . S
C257 N256 1.346 . S
C257 C258 1.396 . S
C257 C267 1.510 1_655 S
C258 C254 1.401 . S
C258 C257 1.396 . S
C259 C254 1.499 . S
C259 H260 0.959 . S
C259 H261 0.960 1_565 S
C259 H262 0.961 . S
H260 C259 0.959 . S
H261 C259 0.960 1_545 S
H262 C259 0.961 . S
O263 Co238 1.967 . S
O263 C271 1.258 . S
O264 Co239 1.941 . S
O264 C271 1.266 . S
H265 C267 0.959 . S
H266 C267 0.961 . S
C267 C257 1.510 1_455 S
C267 H265 0.959 . S
C267 H266 0.961 . S
C267 H268 0.960 . S
H268 C267 0.960 . S
H269 N249 0.862 . S
O270 Co238 1.920 . S
O270 C243 1.289 . S
C271 O263 1.258 . S
C271 O264 1.266 . S
Co272 O275 1.970 . S
Co272 N289 1.989 . S
Co272 O297 1.967 . S
Co272 O304 1.920 . S
Co273 O276 1.966 . S
Co273 N282 2.022 . S
Co273 N290 1.993 . S
Co273 O298 1.941 . S
C274 O275 1.258 . S
C274 O276 1.263 . S
O275 Co272 1.970 . S
O275 C274 1.258 . S
O276 Co273 1.966 . S
O276 C274 1.263 . S
C277 O278 1.235 . S
C277 O304 1.289 . S
O278 C277 1.235 . S
C279 C281 1.400 . S
C279 N282 1.351 . S
C279 C284 1.501 . S
C280 C281 1.387 . S
C280 N283 1.341 . S
C281 C279 1.400 . S
C281 C280 1.387 . S
N282 Co273 2.022 . S
N282 C279 1.351 . S
N282 N283 1.365 . S
N283 C280 1.341 . S
N283 N282 1.365 . S
N283 H303 0.862 . S
C284 C279 1.501 . S
C284 H285 0.961 . S
C284 H286 0.961 . S
C284 H287 0.960 . S
H285 C284 0.961 . S
H286 C284 0.961 . S
H287 C284 0.960 . S
C288 N289 1.342 1_554 S
C288 C292 1.401 . S
C288 C293 1.499 . S
N289 Co272 1.989 . S
N289 C288 1.342 1_556 S
N289 N290 1.388 . S
N290 Co273 1.993 . S
N290 N289 1.388 . S
N290 C291 1.346 . S
C291 N290 1.346 . S
C291 C292 1.396 1_556 S
C291 C301 1.510 . S
C292 C288 1.401 . S
C292 C291 1.396 1_554 S
C293 C288 1.499 . S
C293 H294 0.959 . S
C293 H295 0.960 . S
C293 H296 0.961 . S
H294 C293 0.959 . S
H295 C293 0.960 . S
H296 C293 0.961 . S
O297 Co272 1.967 . S
O297 C305 1.258 . S
O298 Co273 1.941 . S
O298 C305 1.266 . S
H299 C301 0.959 . S
H300 C301 0.961 . S
C301 C291 1.510 . S
C301 H299 0.959 . S
C301 H300 0.961 . S
C301 H302 0.960 . S
H302 C301 0.960 . S
H303 N283 0.862 . S
O304 Co272 1.920 . S
O304 C277 1.289 . S
C305 O297 1.258 . S
C305 O298 1.266 . S
Co306 O309 1.970 . S
Co306 N323 1.989 . S
Co306 O331 1.967 . S
Co306 O338 1.920 . S
Co307 O310 1.966 . S
Co307 N316 2.022 1_455 S
Co307 N324 1.993 . S
Co307 O332 1.941 . S
C308 O309 1.258 . S
C308 O310 1.263 . S
O309 Co306 1.970 . S
O309 C308 1.258 . S
O310 Co307 1.966 . S
O310 C308 1.263 . S
C311 O312 1.235 . S
C311 O338 1.289 . S
O312 C311 1.235 . S
C313 C315 1.400 . S
C313 N316 1.351 . S
C313 C318 1.501 . S
C314 C315 1.387 . S
C314 N317 1.341 . S
C315 C313 1.400 . S
C315 C314 1.387 . S
N316 Co307 2.022 1_655 S
N316 C313 1.351 . S
N316 N317 1.365 . S
N317 C314 1.341 . S
N317 N316 1.365 . S
N317 H337 0.862 . S
C318 C313 1.501 . S
C318 H319 0.961 1_655 S
C318 H320 0.961 . S
C318 H321 0.960 . S
H319 C318 0.961 1_455 S
H320 C318 0.961 . S
H321 C318 0.960 . S
C322 N323 1.342 1_554 S
C322 C326 1.401 . S
C322 C327 1.499 . S
N323 Co306 1.989 . S
N323 C322 1.342 1_556 S
N323 N324 1.388 . S
N324 Co307 1.993 . S
N324 N323 1.388 . S
N324 C325 1.346 . S
C325 N324 1.346 . S
C325 C326 1.396 1_556 S
C325 C335 1.510 1_455 S
C326 C322 1.401 . S
C326 C325 1.396 1_554 S
C327 C322 1.499 . S
C327 H328 0.959 . S
C327 H329 0.960 . S
C327 H330 0.961 . S
H328 C327 0.959 . S
H329 C327 0.960 . S
H330 C327 0.961 . S
O331 Co306 1.967 . S
O331 C339 1.258 . S
O332 Co307 1.941 . S
O332 C339 1.266 . S
H333 C335 0.959 . S
H334 C335 0.961 . S
C335 C325 1.510 1_655 S
C335 H333 0.959 . S
C335 H334 0.961 . S
C335 H336 0.960 . S
H336 C335 0.960 . S
H337 N317 0.862 . S
O338 Co306 1.920 . S
O338 C311 1.289 . S
C339 O331 1.258 . S
C339 O332 1.266 . S
Co340 O343 1.970 . S
Co340 N357 1.989 . S
Co340 O365 1.967 . S
Co340 O372 1.920 . S
Co341 O344 1.966 . S
Co341 N350 2.022 . S
Co341 N358 1.993 . S
Co341 O366 1.941 . S
C342 O343 1.258 . S
C342 O344 1.263 . S
O343 Co340 1.970 . S
O343 C342 1.258 . S
O344 Co341 1.966 . S
O344 C342 1.263 . S
C345 O346 1.235 . S
C345 O372 1.289 . S
O346 C345 1.235 . S
C347 C349 1.400 . S
C347 N350 1.351 . S
C347 C352 1.501 . S
C348 C349 1.387 . S
C348 N351 1.341 . S
C349 C347 1.400 . S
C349 C348 1.387 . S
N350 Co341 2.022 . S
N350 C347 1.351 . S
N350 N351 1.365 . S
N351 C348 1.341 . S
N351 N350 1.365 . S
N351 H371 0.862 . S
C352 C347 1.501 . S
C352 H353 0.961 . S
C352 H354 0.961 . S
C352 H355 0.960 . S
H353 C352 0.961 . S
H354 C352 0.961 . S
H355 C352 0.960 . S
C356 N357 1.342 . S
C356 C360 1.401 . S
C356 C361 1.499 . S
N357 Co340 1.989 . S
N357 C356 1.342 . S
N357 N358 1.388 . S
N358 Co341 1.993 . S
N358 N357 1.388 . S
N358 C359 1.346 . S
C359 N358 1.346 . S
C359 C360 1.396 . S
C359 C369 1.510 . S
C360 C356 1.401 . S
C360 C359 1.396 . S
C361 C356 1.499 . S
C361 H362 0.959 . S
C361 H363 0.960 . S
C361 H364 0.961 . S
H362 C361 0.959 . S
H363 C361 0.960 . S
H364 C361 0.961 . S
O365 Co340 1.967 . S
O365 C373 1.258 . S
O366 Co341 1.941 . S
O366 C373 1.266 . S
H367 C369 0.959 . S
H368 C369 0.961 . S
C369 C359 1.510 . S
C369 H367 0.959 . S
C369 H368 0.961 . S
C369 H370 0.960 . S
H370 C369 0.960 . S
H371 N351 0.862 . S
O372 Co340 1.920 . S
O372 C345 1.289 . S
C373 O365 1.258 . S
C373 O366 1.266 . S
Co374 O377 1.970 . S
Co374 N391 1.989 . S
Co374 O399 1.967 . S
Co374 O406 1.920 . S
Co375 O378 1.966 . S
Co375 N384 2.022 1_455 S
Co375 N392 1.993 . S
Co375 O400 1.941 . S
C376 O377 1.258 . S
C376 O378 1.263 . S
O377 Co374 1.970 . S
O377 C376 1.258 . S
O378 Co375 1.966 . S
O378 C376 1.263 . S
C379 O380 1.235 . S
C379 O406 1.289 . S
O380 C379 1.235 . S
C381 C383 1.400 . S
C381 N384 1.351 . S
C381 C386 1.501 . S
C382 C383 1.387 . S
C382 N385 1.341 . S
C383 C381 1.400 . S
C383 C382 1.387 . S
N384 Co375 2.022 1_655 S
N384 C381 1.351 . S
N384 N385 1.365 . S
N385 C382 1.341 . S
N385 N384 1.365 . S
N385 H405 0.862 . S
C386 C381 1.501 . S
C386 H387 0.961 1_655 S
C386 H388 0.961 . S
C386 H389 0.960 . S
H387 C386 0.961 1_455 S
H388 C386 0.961 . S
H389 C386 0.960 . S
C390 N391 1.342 . S
C390 C394 1.401 . S
C390 C395 1.499 . S
N391 Co374 1.989 . S
N391 C390 1.342 . S
N391 N392 1.388 . S
N392 Co375 1.993 . S
N392 N391 1.388 . S
N392 C393 1.346 . S
C393 N392 1.346 . S
C393 C394 1.396 . S
C393 C403 1.510 1_455 S
C394 C390 1.401 . S
C394 C393 1.396 . S
C395 C390 1.499 . S
C395 H396 0.959 . S
C395 H397 0.960 . S
C395 H398 0.961 . S
H396 C395 0.959 . S
H397 C395 0.960 . S
H398 C395 0.961 . S
O399 Co374 1.967 . S
O399 C407 1.258 . S
O400 Co375 1.941 . S
O400 C407 1.266 . S
H401 C403 0.959 . S
H402 C403 0.961 . S
C403 C393 1.510 1_655 S
C403 H401 0.959 . S
C403 H402 0.961 . S
C403 H404 0.960 . S
H404 C403 0.960 . S
H405 N385 0.862 . S
O406 Co374 1.920 . S
O406 C379 1.289 . S
C407 O399 1.258 . S
C407 O400 1.266 . S
Co408 O411 1.970 . S
Co408 N425 1.989 . S
Co408 O433 1.967 . S
Co408 O440 1.920 . S
Co409 O412 1.966 . S
Co409 N418 2.022 . S
Co409 N426 1.993 . S
Co409 O434 1.941 . S
C410 O411 1.258 . S
C410 O412 1.263 . S
O411 Co408 1.970 . S
O411 C410 1.258 . S
O412 Co409 1.966 . S
O412 C410 1.263 . S
C413 O414 1.235 . S
C413 O440 1.289 . S
O414 C413 1.235 . S
C415 C417 1.400 . S
C415 N418 1.351 . S
C415 C420 1.501 . S
C416 C417 1.387 . S
C416 N419 1.341 . S
C417 C415 1.400 . S
C417 C416 1.387 . S
N418 Co409 2.022 . S
N418 C415 1.351 . S
N418 N419 1.365 . S
N419 C416 1.341 . S
N419 N418 1.365 . S
N419 H439 0.862 . S
C420 C415 1.501 . S
C420 H421 0.961 . S
C420 H422 0.961 . S
C420 H423 0.960 . S
H421 C420 0.961 . S
H422 C420 0.961 . S
H423 C420 0.960 . S
C424 N425 1.342 1_556 S
C424 C428 1.401 . S
C424 C429 1.499 . S
N425 Co408 1.989 . S
N425 C424 1.342 1_554 S
N425 N426 1.388 . S
N426 Co409 1.993 . S
N426 N425 1.388 . S
N426 C427 1.346 . S
C427 N426 1.346 . S
C427 C428 1.396 1_554 S
C427 C437 1.510 . S
C428 C424 1.401 . S
C428 C427 1.396 1_556 S
C429 C424 1.499 . S
C429 H430 0.959 . S
C429 H431 0.960 . S
C429 H432 0.961 . S
H430 C429 0.959 . S
H431 C429 0.960 . S
H432 C429 0.961 . S
O433 Co408 1.967 . S
O433 C441 1.258 . S
O434 Co409 1.941 . S
O434 C441 1.266 . S
H435 C437 0.959 . S
H436 C437 0.961 . S
C437 C427 1.510 . S
C437 H435 0.959 . S
C437 H436 0.961 . S
C437 H438 0.960 . S
H438 C437 0.960 . S
H439 N419 0.862 . S
O440 Co408 1.920 . S
O440 C413 1.289 . S
C441 O433 1.258 . S
C441 O434 1.266 . S
Co442 O445 1.970 . S
Co442 N459 1.989 . S
Co442 O467 1.967 . S
Co442 O474 1.920 . S
Co443 O446 1.966 . S
Co443 N452 2.022 1_655 S
Co443 N460 1.993 . S
Co443 O468 1.941 . S
C444 O445 1.258 . S
C444 O446 1.263 . S
O445 Co442 1.970 . S
O445 C444 1.258 . S
O446 Co443 1.966 . S
O446 C444 1.263 . S
C447 O448 1.235 . S
C447 O474 1.289 . S
O448 C447 1.235 . S
C449 C451 1.400 . S
C449 N452 1.351 . S
C449 C454 1.501 . S
C450 C451 1.387 . S
C450 N453 1.341 . S
C451 C449 1.400 . S
C451 C450 1.387 . S
N452 Co443 2.022 1_455 S
N452 C449 1.351 . S
N452 N453 1.365 . S
N453 C450 1.341 . S
N453 N452 1.365 . S
N453 H473 0.862 . S
C454 C449 1.501 . S
C454 H455 0.961 1_455 S
C454 H456 0.961 . S
C454 H457 0.960 . S
H455 C454 0.961 1_655 S
H456 C454 0.961 . S
H457 C454 0.960 . S
C458 N459 1.342 1_556 S
C458 C462 1.401 . S
C458 C463 1.499 . S
N459 Co442 1.989 . S
N459 C458 1.342 1_554 S
N459 N460 1.388 . S
N460 Co443 1.993 . S
N460 N459 1.388 . S
N460 C461 1.346 . S
C461 N460 1.346 . S
C461 C462 1.396 1_554 S
C461 C471 1.510 1_655 S
C462 C458 1.401 . S
C462 C461 1.396 1_556 S
C463 C458 1.499 . S
C463 H464 0.959 . S
C463 H465 0.960 . S
C463 H466 0.961 . S
H464 C463 0.959 . S
H465 C463 0.960 . S
H466 C463 0.961 . S
O467 Co442 1.967 . S
O467 C475 1.258 . S
O468 Co443 1.941 . S
O468 C475 1.266 . S
H469 C471 0.959 . S
H470 C471 0.961 . S
C471 C461 1.510 1_455 S
C471 H469 0.959 . S
C471 H470 0.961 . S
C471 H472 0.960 . S
H472 C471 0.960 . S
H473 N453 0.862 . S
O474 Co442 1.920 . S
O474 C447 1.289 . S
C475 O467 1.258 . S
C475 O468 1.266 . S
Co476 O479 1.970 . S
Co476 N493 1.989 . S
Co476 O501 1.967 . S
Co476 O508 1.920 . S
Co477 O480 1.966 . S
Co477 N486 2.022 . S
Co477 N494 1.993 . S
Co477 O502 1.941 . S
C478 O479 1.258 . S
C478 O480 1.263 . S
O479 Co476 1.970 . S
O479 C478 1.258 . S
O480 Co477 1.966 . S
O480 C478 1.263 . S
C481 O482 1.235 . S
C481 O508 1.289 . S
O482 C481 1.235 . S
C483 C485 1.400 . S
C483 N486 1.351 . S
C483 C488 1.501 . S
C484 C485 1.387 . S
C484 N487 1.341 . S
C485 C483 1.400 . S
C485 C484 1.387 . S
N486 Co477 2.022 . S
N486 C483 1.351 . S
N486 N487 1.365 . S
N487 C484 1.341 . S
N487 N486 1.365 . S
N487 H507 0.862 . S
C488 C483 1.501 . S
C488 H489 0.961 . S
C488 H490 0.961 . S
C488 H491 0.960 . S
H489 C488 0.961 . S
H490 C488 0.961 . S
H491 C488 0.960 . S
C492 N493 1.342 . S
C492 C496 1.401 . S
C492 C497 1.499 . S
N493 Co476 1.989 . S
N493 C492 1.342 . S
N493 N494 1.388 . S
N494 Co477 1.993 . S
N494 N493 1.388 . S
N494 C495 1.346 . S
C495 N494 1.346 . S
C495 C496 1.396 . S
C495 C505 1.510 . S
C496 C492 1.401 . S
C496 C495 1.396 . S
C497 C492 1.499 . S
C497 H498 0.959 . S
C497 H499 0.960 . S
C497 H500 0.961 . S
H498 C497 0.959 . S
H499 C497 0.960 . S
H500 C497 0.961 . S
O501 Co476 1.967 . S
O501 C509 1.258 . S
O502 Co477 1.941 . S
O502 C509 1.266 . S
H503 C505 0.959 . S
H504 C505 0.961 . S
C505 C495 1.510 . S
C505 H503 0.959 . S
C505 H504 0.961 . S
C505 H506 0.960 . S
H506 C505 0.960 . S
H507 N487 0.862 . S
O508 Co476 1.920 . S
O508 C481 1.289 . S
C509 O501 1.258 . S
C509 O502 1.266 . S
Co510 O513 1.970 . S
Co510 N527 1.989 . S
Co510 O535 1.967 . S
Co510 O542 1.920 . S
Co511 O514 1.966 . S
Co511 N520 2.022 1_655 S
Co511 N528 1.993 . S
Co511 O536 1.941 . S
C512 O513 1.258 . S
C512 O514 1.263 . S
O513 Co510 1.970 . S
O513 C512 1.258 . S
O514 Co511 1.966 . S
O514 C512 1.263 . S
C515 O516 1.235 . S
C515 O542 1.289 . S
O516 C515 1.235 . S
C517 C519 1.400 . S
C517 N520 1.351 . S
C517 C522 1.501 . S
C518 C519 1.387 . S
C518 N521 1.341 . S
C519 C517 1.400 . S
C519 C518 1.387 . S
N520 Co511 2.022 1_455 S
N520 C517 1.351 . S
N520 N521 1.365 . S
N521 C518 1.341 . S
N521 N520 1.365 . S
N521 H541 0.862 . S
C522 C517 1.501 . S
C522 H523 0.961 1_455 S
C522 H524 0.961 . S
C522 H525 0.960 . S
H523 C522 0.961 1_655 S
H524 C522 0.961 . S
H525 C522 0.960 . S
C526 N527 1.342 . S
C526 C530 1.401 . S
C526 C531 1.499 . S
N527 Co510 1.989 . S
N527 C526 1.342 . S
N527 N528 1.388 . S
N528 Co511 1.993 . S
N528 N527 1.388 . S
N528 C529 1.346 . S
C529 N528 1.346 . S
C529 C530 1.396 . S
C529 C539 1.510 1_655 S
C530 C526 1.401 . S
C530 C529 1.396 . S
C531 C526 1.499 . S
C531 H532 0.959 . S
C531 H533 0.960 . S
C531 H534 0.961 . S
H532 C531 0.959 . S
H533 C531 0.960 . S
H534 C531 0.961 . S
O535 Co510 1.967 . S
O535 C543 1.258 . S
O536 Co511 1.941 . S
O536 C543 1.266 . S
H537 C539 0.959 . S
H538 C539 0.961 . S
C539 C529 1.510 1_455 S
C539 H537 0.959 . S
C539 H538 0.961 . S
C539 H540 0.960 . S
H540 C539 0.960 . S
H541 N521 0.862 . S
O542 Co510 1.920 . S
O542 C515 1.289 . S
C543 O535 1.258 . S
C543 O536 1.266 . S
Co544 O547 1.970 . S
Co544 N561 1.989 . S
Co544 O569 1.967 . S
Co544 O576 1.920 . S
Co545 O548 1.966 . S
Co545 N554 2.022 . S
Co545 N562 1.993 . S
Co545 O570 1.941 . S
C546 O547 1.258 . S
C546 O548 1.263 . S
O547 Co544 1.970 . S
O547 C546 1.258 . S
O548 Co545 1.966 . S
O548 C546 1.263 . S
C549 O550 1.235 1_545 S
C549 O576 1.289 . S
O550 C549 1.235 1_565 S
C551 C553 1.400 . S
C551 N554 1.351 . S
C551 C556 1.501 . S
C552 C553 1.387 . S
C552 N555 1.341 . S
C553 C551 1.400 . S
C553 C552 1.387 . S
N554 Co545 2.022 . S
N554 C551 1.351 . S
N554 N555 1.365 . S
N555 C552 1.341 . S
N555 N554 1.365 . S
N555 H575 0.862 . S
C556 C551 1.501 . S
C556 H557 0.961 . S
C556 H558 0.961 . S
C556 H559 0.960 . S
H557 C556 0.961 . S
H558 C556 0.961 . S
H559 C556 0.960 . S
C560 N561 1.342 1_554 S
C560 C564 1.401 . S
C560 C565 1.499 . S
N561 Co544 1.989 . S
N561 C560 1.342 1_556 S
N561 N562 1.388 . S
N562 Co545 1.993 . S
N562 N561 1.388 . S
N562 C563 1.346 . S
C563 N562 1.346 . S
C563 C564 1.396 1_556 S
C563 C573 1.510 . S
C564 C560 1.401 . S
C564 C563 1.396 1_554 S
C565 C560 1.499 . S
C565 H566 0.959 . S
C565 H567 0.960 1_545 S
C565 H568 0.961 . S
H566 C565 0.959 . S
H567 C565 0.960 1_565 S
H568 C565 0.961 . S
O569 Co544 1.967 . S
O569 C577 1.258 . S
O570 Co545 1.941 . S
O570 C577 1.266 . S
H571 C573 0.959 . S
H572 C573 0.961 . S
C573 C563 1.510 . S
C573 H571 0.959 . S
C573 H572 0.961 . S
C573 H574 0.960 . S
H574 C573 0.960 . S
H575 N555 0.862 . S
O576 Co544 1.920 . S
O576 C549 1.289 . S
C577 O569 1.258 . S
C577 O570 1.266 . S
Co578 O581 1.970 . S
Co578 N595 1.989 . S
Co578 O603 1.967 . S
Co578 O610 1.920 . S
Co579 O582 1.966 . S
Co579 N588 2.022 . S
Co579 N596 1.993 . S
Co579 O604 1.941 . S
C580 O581 1.258 . S
C580 O582 1.263 . S
O581 Co578 1.970 . S
O581 C580 1.258 . S
O582 Co579 1.966 . S
O582 C580 1.263 . S
C583 O584 1.235 . S
C583 O610 1.289 . S
O584 C583 1.235 . S
C585 C587 1.400 . S
C585 N588 1.351 . S
C585 C590 1.501 . S
C586 C587 1.387 . S
C586 N589 1.341 . S
C587 C585 1.400 . S
C587 C586 1.387 . S
N588 Co579 2.022 . S
N588 C585 1.351 . S
N588 N589 1.365 . S
N589 C586 1.341 . S
N589 N588 1.365 . S
N589 H609 0.862 . S
C590 C585 1.501 . S
C590 H591 0.961 . S
C590 H592 0.961 . S
C590 H593 0.960 . S
H591 C590 0.961 . S
H592 C590 0.961 . S
H593 C590 0.960 . S
C594 N595 1.342 1_554 S
C594 C598 1.401 . S
C594 C599 1.499 . S
N595 Co578 1.989 . S
N595 C594 1.342 1_556 S
N595 N596 1.388 . S
N596 Co579 1.993 . S
N596 N595 1.388 . S
N596 C597 1.346 . S
C597 N596 1.346 . S
C597 C598 1.396 1_556 S
C597 C607 1.510 . S
C598 C594 1.401 . S
C598 C597 1.396 1_554 S
C599 C594 1.499 . S
C599 H600 0.959 . S
C599 H601 0.960 . S
C599 H602 0.961 . S
H600 C599 0.959 . S
H601 C599 0.960 . S
H602 C599 0.961 . S
O603 Co578 1.967 . S
O603 C611 1.258 . S
O604 Co579 1.941 . S
O604 C611 1.266 . S
H605 C607 0.959 . S
H606 C607 0.961 . S
C607 C597 1.510 . S
C607 H605 0.959 . S
C607 H606 0.961 . S
C607 H608 0.960 . S
H608 C607 0.960 . S
H609 N589 0.862 . S
O610 Co578 1.920 . S
O610 C583 1.289 . S
C611 O603 1.258 . S
C611 O604 1.266 . S
Co612 O615 1.970 . S
Co612 N629 1.989 . S
Co612 O637 1.967 . S
Co612 O644 1.920 . S
Co613 O616 1.966 . S
Co613 N622 2.022 . S
Co613 N630 1.993 . S
Co613 O638 1.941 . S
C614 O615 1.258 . S
C614 O616 1.263 . S
O615 Co612 1.970 . S
O615 C614 1.258 . S
O616 Co613 1.966 . S
O616 C614 1.263 . S
C617 O618 1.235 . S
C617 O644 1.289 . S
O618 C617 1.235 . S
C619 C621 1.400 . S
C619 N622 1.351 . S
C619 C624 1.501 . S
C620 C621 1.387 . S
C620 N623 1.341 . S
C621 C619 1.400 . S
C621 C620 1.387 . S
N622 Co613 2.022 . S
N622 C619 1.351 . S
N622 N623 1.365 . S
N623 C620 1.341 . S
N623 N622 1.365 . S
N623 H643 0.862 . S
C624 C619 1.501 . S
C624 H625 0.961 . S
C624 H626 0.961 . S
C624 H627 0.960 . S
H625 C624 0.961 . S
H626 C624 0.961 . S
H627 C624 0.960 . S
C628 N629 1.342 . S
C628 C632 1.401 . S
C628 C633 1.499 . S
N629 Co612 1.989 . S
N629 C628 1.342 . S
N629 N630 1.388 . S
N630 Co613 1.993 . S
N630 N629 1.388 . S
N630 C631 1.346 . S
C631 N630 1.346 . S
C631 C632 1.396 . S
C631 C641 1.510 . S
C632 C628 1.401 . S
C632 C631 1.396 . S
C633 C628 1.499 . S
C633 H634 0.959 . S
C633 H635 0.960 . S
C633 H636 0.961 . S
H634 C633 0.959 . S
H635 C633 0.960 . S
H636 C633 0.961 . S
O637 Co612 1.967 . S
O637 C645 1.258 . S
O638 Co613 1.941 . S
O638 C645 1.266 . S
H639 C641 0.959 . S
H640 C641 0.961 . S
C641 C631 1.510 . S
C641 H639 0.959 . S
C641 H640 0.961 . S
C641 H642 0.960 . S
H642 C641 0.960 . S
H643 N623 0.862 . S
O644 Co612 1.920 . S
O644 C617 1.289 . S
C645 O637 1.258 . S
C645 O638 1.266 . S
Co646 O649 1.970 . S
Co646 N663 1.989 . S
Co646 O671 1.967 . S
Co646 O678 1.920 . S
Co647 O650 1.966 . S
Co647 N656 2.022 . S
Co647 N664 1.993 . S
Co647 O672 1.941 . S
C648 O649 1.258 . S
C648 O650 1.263 . S
O649 Co646 1.970 . S
O649 C648 1.258 . S
O650 Co647 1.966 . S
O650 C648 1.263 . S
C651 O652 1.235 1_545 S
C651 O678 1.289 . S
O652 C651 1.235 1_565 S
C653 C655 1.400 . S
C653 N656 1.351 . S
C653 C658 1.501 . S
C654 C655 1.387 . S
C654 N657 1.341 . S
C655 C653 1.400 . S
C655 C654 1.387 . S
N656 Co647 2.022 . S
N656 C653 1.351 . S
N656 N657 1.365 . S
N657 C654 1.341 . S
N657 N656 1.365 . S
N657 H677 0.862 . S
C658 C653 1.501 . S
C658 H659 0.961 . S
C658 H660 0.961 . S
C658 H661 0.960 . S
H659 C658 0.961 . S
H660 C658 0.961 . S
H661 C658 0.960 . S
C662 N663 1.342 . S
C662 C666 1.401 . S
C662 C667 1.499 . S
N663 Co646 1.989 . S
N663 C662 1.342 . S
N663 N664 1.388 . S
N664 Co647 1.993 . S
N664 N663 1.388 . S
N664 C665 1.346 . S
C665 N664 1.346 . S
C665 C666 1.396 . S
C665 C675 1.510 . S
C666 C662 1.401 . S
C666 C665 1.396 . S
C667 C662 1.499 . S
C667 H668 0.959 . S
C667 H669 0.960 1_545 S
C667 H670 0.961 . S
H668 C667 0.959 . S
H669 C667 0.960 1_565 S
H670 C667 0.961 . S
O671 Co646 1.967 . S
O671 C679 1.258 . S
O672 Co647 1.941 . S
O672 C679 1.266 . S
H673 C675 0.959 . S
H674 C675 0.961 . S
C675 C665 1.510 . S
C675 H673 0.959 . S
C675 H674 0.961 . S
C675 H676 0.960 . S
H676 C675 0.960 . S
H677 N657 0.862 . S
O678 Co646 1.920 . S
O678 C651 1.289 . S
C679 O671 1.258 . S
C679 O672 1.266 . S
Co680 O683 1.970 . S
Co680 N697 1.989 . S
Co680 O705 1.967 . S
Co680 O712 1.920 . S
Co681 O684 1.966 . S
Co681 N690 2.022 . S
Co681 N698 1.993 . S
Co681 O706 1.941 . S
C682 O683 1.258 . S
C682 O684 1.263 . S
O683 Co680 1.970 . S
O683 C682 1.258 . S
O684 Co681 1.966 . S
O684 C682 1.263 . S
C685 O686 1.235 1_565 S
C685 O712 1.289 . S
O686 C685 1.235 1_545 S
C687 C689 1.400 . S
C687 N690 1.351 . S
C687 C692 1.501 . S
C688 C689 1.387 . S
C688 N691 1.341 . S
C689 C687 1.400 . S
C689 C688 1.387 . S
N690 Co681 2.022 . S
N690 C687 1.351 . S
N690 N691 1.365 . S
N691 C688 1.341 . S
N691 N690 1.365 . S
N691 H711 0.862 . S
C692 C687 1.501 . S
C692 H693 0.961 . S
C692 H694 0.961 . S
C692 H695 0.960 . S
H693 C692 0.961 . S
H694 C692 0.961 . S
H695 C692 0.960 . S
C696 N697 1.342 1_556 S
C696 C700 1.401 . S
C696 C701 1.499 . S
N697 Co680 1.989 . S
N697 C696 1.342 1_554 S
N697 N698 1.388 . S
N698 Co681 1.993 . S
N698 N697 1.388 . S
N698 C699 1.346 . S
C699 N698 1.346 . S
C699 C700 1.396 1_554 S
C699 C709 1.510 . S
C700 C696 1.401 . S
C700 C699 1.396 1_556 S
C701 C696 1.499 . S
C701 H702 0.959 . S
C701 H703 0.960 1_565 S
C701 H704 0.961 . S
H702 C701 0.959 . S
H703 C701 0.960 1_545 S
H704 C701 0.961 . S
O705 Co680 1.967 . S
O705 C713 1.258 . S
O706 Co681 1.941 . S
O706 C713 1.266 . S
H707 C709 0.959 . S
H708 C709 0.961 . S
C709 C699 1.510 . S
C709 H707 0.959 . S
C709 H708 0.961 . S
C709 H710 0.960 . S
H710 C709 0.960 . S
H711 N691 0.862 . S
O712 Co680 1.920 . S
O712 C685 1.289 . S
C713 O705 1.258 . S
C713 O706 1.266 . S
Co714 O717 1.970 . S
Co714 N731 1.989 . S
Co714 O739 1.967 . S
Co714 O746 1.920 . S
Co715 O718 1.966 . S
Co715 N724 2.022 . S
Co715 N732 1.993 . S
Co715 O740 1.941 . S
C716 O717 1.258 . S
C716 O718 1.263 . S
O717 Co714 1.970 . S
O717 C716 1.258 . S
O718 Co715 1.966 . S
O718 C716 1.263 . S
C719 O720 1.235 . S
C719 O746 1.289 . S
O720 C719 1.235 . S
C721 C723 1.400 . S
C721 N724 1.351 . S
C721 C726 1.501 . S
C722 C723 1.387 . S
C722 N725 1.341 . S
C723 C721 1.400 . S
C723 C722 1.387 . S
N724 Co715 2.022 . S
N724 C721 1.351 . S
N724 N725 1.365 . S
N725 C722 1.341 . S
N725 N724 1.365 . S
N725 H745 0.862 . S
C726 C721 1.501 . S
C726 H727 0.961 . S
C726 H728 0.961 . S
C726 H729 0.960 . S
H727 C726 0.961 . S
H728 C726 0.961 . S
H729 C726 0.960 . S
C730 N731 1.342 1_556 S
C730 C734 1.401 . S
C730 C735 1.499 . S
N731 Co714 1.989 . S
N731 C730 1.342 1_554 S
N731 N732 1.388 . S
N732 Co715 1.993 . S
N732 N731 1.388 . S
N732 C733 1.346 . S
C733 N732 1.346 . S
C733 C734 1.396 1_554 S
C733 C743 1.510 . S
C734 C730 1.401 . S
C734 C733 1.396 1_556 S
C735 C730 1.499 . S
C735 H736 0.959 . S
C735 H737 0.960 . S
C735 H738 0.961 . S
H736 C735 0.959 . S
H737 C735 0.960 . S
H738 C735 0.961 . S
O739 Co714 1.967 . S
O739 C747 1.258 . S
O740 Co715 1.941 . S
O740 C747 1.266 . S
H741 C743 0.959 . S
H742 C743 0.961 . S
C743 C733 1.510 . S
C743 H741 0.959 . S
C743 H742 0.961 . S
C743 H744 0.960 . S
H744 C743 0.960 . S
H745 N725 0.862 . S
O746 Co714 1.920 . S
O746 C719 1.289 . S
C747 O739 1.258 . S
C747 O740 1.266 . S
Co748 O751 1.970 . S
Co748 N765 1.989 . S
Co748 O773 1.967 . S
Co748 O780 1.920 . S
Co749 O752 1.966 . S
Co749 N758 2.022 . S
Co749 N766 1.993 . S
Co749 O774 1.941 . S
C750 O751 1.258 . S
C750 O752 1.263 . S
O751 Co748 1.970 . S
O751 C750 1.258 . S
O752 Co749 1.966 . S
O752 C750 1.263 . S
C753 O754 1.235 . S
C753 O780 1.289 . S
O754 C753 1.235 . S
C755 C757 1.400 . S
C755 N758 1.351 . S
C755 C760 1.501 . S
C756 C757 1.387 . S
C756 N759 1.341 . S
C757 C755 1.400 . S
C757 C756 1.387 . S
N758 Co749 2.022 . S
N758 C755 1.351 . S
N758 N759 1.365 . S
N759 C756 1.341 . S
N759 N758 1.365 . S
N759 H779 0.862 . S
C760 C755 1.501 . S
C760 H761 0.961 . S
C760 H762 0.961 . S
C760 H763 0.960 . S
H761 C760 0.961 . S
H762 C760 0.961 . S
H763 C760 0.960 . S
C764 N765 1.342 . S
C764 C768 1.401 . S
C764 C769 1.499 . S
N765 Co748 1.989 . S
N765 C764 1.342 . S
N765 N766 1.388 . S
N766 Co749 1.993 . S
N766 N765 1.388 . S
N766 C767 1.346 . S
C767 N766 1.346 . S
C767 C768 1.396 . S
C767 C777 1.510 . S
C768 C764 1.401 . S
C768 C767 1.396 . S
C769 C764 1.499 . S
C769 H770 0.959 . S
C769 H771 0.960 . S
C769 H772 0.961 . S
H770 C769 0.959 . S
H771 C769 0.960 . S
H772 C769 0.961 . S
O773 Co748 1.967 . S
O773 C781 1.258 . S
O774 Co749 1.941 . S
O774 C781 1.266 . S
H775 C777 0.959 . S
H776 C777 0.961 . S
C777 C767 1.510 . S
C777 H775 0.959 . S
C777 H776 0.961 . S
C777 H778 0.960 . S
H778 C777 0.960 . S
H779 N759 0.862 . S
O780 Co748 1.920 . S
O780 C753 1.289 . S
C781 O773 1.258 . S
C781 O774 1.266 . S
Co782 O785 1.970 . S
Co782 N799 1.989 . S
Co782 O807 1.967 . S
Co782 O814 1.920 . S
Co783 O786 1.966 . S
Co783 N792 2.022 . S
Co783 N800 1.993 . S
Co783 O808 1.941 . S
C784 O785 1.258 . S
C784 O786 1.263 . S
O785 Co782 1.970 . S
O785 C784 1.258 . S
O786 Co783 1.966 . S
O786 C784 1.263 . S
C787 O788 1.235 1_565 S
C787 O814 1.289 . S
O788 C787 1.235 1_545 S
C789 C791 1.400 . S
C789 N792 1.351 . S
C789 C794 1.501 . S
C790 C791 1.387 . S
C790 N793 1.341 . S
C791 C789 1.400 . S
C791 C790 1.387 . S
N792 Co783 2.022 . S
N792 C789 1.351 . S
N792 N793 1.365 . S
N793 C790 1.341 . S
N793 N792 1.365 . S
N793 H813 0.862 . S
C794 C789 1.501 . S
C794 H795 0.961 . S
C794 H796 0.961 . S
C794 H797 0.960 . S
H795 C794 0.961 . S
H796 C794 0.961 . S
H797 C794 0.960 . S
C798 N799 1.342 . S
C798 C802 1.401 . S
C798 C803 1.499 . S
N799 Co782 1.989 . S
N799 C798 1.342 . S
N799 N800 1.388 . S
N800 Co783 1.993 . S
N800 N799 1.388 . S
N800 C801 1.346 . S
C801 N800 1.346 . S
C801 C802 1.396 . S
C801 C811 1.510 . S
C802 C798 1.401 . S
C802 C801 1.396 . S
C803 C798 1.499 . S
C803 H804 0.959 . S
C803 H805 0.960 1_565 S
C803 H806 0.961 . S
H804 C803 0.959 . S
H805 C803 0.960 1_545 S
H806 C803 0.961 . S
O807 Co782 1.967 . S
O807 C815 1.258 . S
O808 Co783 1.941 . S
O808 C815 1.266 . S
H809 C811 0.959 . S
H810 C811 0.961 . S
C811 C801 1.510 . S
C811 H809 0.959 . S
C811 H810 0.961 . S
C811 H812 0.960 . S
H812 C811 0.960 . S
H813 N793 0.862 . S
O814 Co782 1.920 . S
O814 C787 1.289 . S
C815 O807 1.258 . S
C815 O808 1.266 . S
Co816 O819 1.970 . S
Co816 N833 1.989 . S
Co816 O841 1.967 . S
Co816 O848 1.920 . S
Co817 O820 1.966 . S
Co817 N826 2.022 . S
Co817 N834 1.993 . S
Co817 O842 1.941 . S
C818 O819 1.258 . S
C818 O820 1.263 . S
O819 Co816 1.970 . S
O819 C818 1.258 . S
O820 Co817 1.966 . S
O820 C818 1.263 . S
C821 O822 1.235 . S
C821 O848 1.289 . S
O822 C821 1.235 . S
C823 C825 1.400 . S
C823 N826 1.351 . S
C823 C828 1.501 . S
C824 C825 1.387 . S
C824 N827 1.341 . S
C825 C823 1.400 . S
C825 C824 1.387 . S
N826 Co817 2.022 . S
N826 C823 1.351 . S
N826 N827 1.365 . S
N827 C824 1.341 . S
N827 N826 1.365 . S
N827 H847 0.862 . S
C828 C823 1.501 . S
C828 H829 0.961 . S
C828 H830 0.961 . S
C828 H831 0.960 . S
H829 C828 0.961 . S
H830 C828 0.961 . S
H831 C828 0.960 . S
C832 N833 1.342 . S
C832 C836 1.401 . S
C832 C837 1.499 . S
N833 Co816 1.989 . S
N833 C832 1.342 . S
N833 N834 1.388 . S
N834 Co817 1.993 . S
N834 N833 1.388 . S
N834 C835 1.346 . S
C835 N834 1.346 . S
C835 C836 1.396 . S
C835 C845 1.510 . S
C836 C832 1.401 . S
C836 C835 1.396 . S
C837 C832 1.499 . S
C837 H838 0.959 . S
C837 H839 0.960 . S
C837 H840 0.961 . S
H838 C837 0.959 . S
H839 C837 0.960 . S
H840 C837 0.961 . S
O841 Co816 1.967 . S
O841 C849 1.258 . S
O842 Co817 1.941 . S
O842 C849 1.266 . S
H843 C845 0.959 . S
H844 C845 0.961 . S
C845 C835 1.510 . S
C845 H843 0.959 . S
C845 H844 0.961 . S
C845 H846 0.960 . S
H846 C845 0.960 . S
H847 N827 0.862 . S
O848 Co816 1.920 . S
O848 C821 1.289 . S
C849 O841 1.258 . S
C849 O842 1.266 . S
Co850 O853 1.970 . S
Co850 N867 1.989 . S
Co850 O875 1.967 . S
Co850 O882 1.920 . S
Co851 O854 1.966 . S
Co851 N860 2.022 . S
Co851 N868 1.993 . S
Co851 O876 1.941 . S
C852 O853 1.258 . S
C852 O854 1.263 . S
O853 Co850 1.970 . S
O853 C852 1.258 . S
O854 Co851 1.966 . S
O854 C852 1.263 . S
C855 O856 1.235 . S
C855 O882 1.289 . S
O856 C855 1.235 . S
C857 C859 1.400 . S
C857 N860 1.351 . S
C857 C862 1.501 . S
C858 C859 1.387 . S
C858 N861 1.341 . S
C859 C857 1.400 . S
C859 C858 1.387 . S
N860 Co851 2.022 . S
N860 C857 1.351 . S
N860 N861 1.365 . S
N861 C858 1.341 . S
N861 N860 1.365 . S
N861 H881 0.862 . S
C862 C857 1.501 . S
C862 H863 0.961 . S
C862 H864 0.961 . S
C862 H865 0.960 . S
H863 C862 0.961 . S
H864 C862 0.961 . S
H865 C862 0.960 . S
C866 N867 1.342 . S
C866 C870 1.401 . S
C866 C871 1.499 . S
N867 Co850 1.989 . S
N867 C866 1.342 . S
N867 N868 1.388 . S
N868 Co851 1.993 . S
N868 N867 1.388 . S
N868 C869 1.346 . S
C869 N868 1.346 . S
C869 C870 1.396 . S
C869 C879 1.510 . S
C870 C866 1.401 . S
C870 C869 1.396 . S
C871 C866 1.499 . S
C871 H872 0.959 . S
C871 H873 0.960 . S
C871 H874 0.961 . S
H872 C871 0.959 . S
H873 C871 0.960 . S
H874 C871 0.961 . S
O875 Co850 1.967 . S
O875 C883 1.258 . S
O876 Co851 1.941 . S
O876 C883 1.266 . S
H877 C879 0.959 . S
H878 C879 0.961 . S
C879 C869 1.510 . S
C879 H877 0.959 . S
C879 H878 0.961 . S
C879 H880 0.960 . S
H880 C879 0.960 . S
H881 N861 0.862 . S
O882 Co850 1.920 . S
O882 C855 1.289 . S
C883 O875 1.258 . S
C883 O876 1.266 . S
Co884 O887 1.970 . S
Co884 N901 1.989 . S
Co884 O909 1.967 . S
Co884 O916 1.920 . S
Co885 O888 1.966 . S
Co885 N894 2.022 . S
Co885 N902 1.993 . S
Co885 O910 1.941 . S
C886 O887 1.258 . S
C886 O888 1.263 . S
O887 Co884 1.970 . S
O887 C886 1.258 . S
O888 Co885 1.966 . S
O888 C886 1.263 . S
C889 O890 1.235 . S
C889 O916 1.289 . S
O890 C889 1.235 . S
C891 C893 1.400 . S
C891 N894 1.351 . S
C891 C896 1.501 . S
C892 C893 1.387 . S
C892 N895 1.341 . S
C893 C891 1.400 . S
C893 C892 1.387 . S
N894 Co885 2.022 . S
N894 C891 1.351 . S
N894 N895 1.365 . S
N895 C892 1.341 . S
N895 N894 1.365 . S
N895 H915 0.862 . S
C896 C891 1.501 . S
C896 H897 0.961 . S
C896 H898 0.961 . S
C896 H899 0.960 . S
H897 C896 0.961 . S
H898 C896 0.961 . S
H899 C896 0.960 . S
C900 N901 1.342 . S
C900 C904 1.401 . S
C900 C905 1.499 . S
N901 Co884 1.989 . S
N901 C900 1.342 . S
N901 N902 1.388 . S
N902 Co885 1.993 . S
N902 N901 1.388 . S
N902 C903 1.346 . S
C903 N902 1.346 . S
C903 C904 1.396 . S
C903 C913 1.510 . S
C904 C900 1.401 . S
C904 C903 1.396 . S
C905 C900 1.499 . S
C905 H906 0.959 . S
C905 H907 0.960 . S
C905 H908 0.961 . S
H906 C905 0.959 . S
H907 C905 0.960 . S
H908 C905 0.961 . S
O909 Co884 1.967 . S
O909 C917 1.258 . S
O910 Co885 1.941 . S
O910 C917 1.266 . S
H911 C913 0.959 . S
H912 C913 0.961 . S
C913 C903 1.510 . S
C913 H911 0.959 . S
C913 H912 0.961 . S
C913 H914 0.960 . S
H914 C913 0.960 . S
H915 N895 0.862 . S
O916 Co884 1.920 . S
O916 C889 1.289 . S
C917 O909 1.258 . S
C917 O910 1.266 . S
Co918 O921 1.970 . S
Co918 N935 1.989 . S
Co918 O943 1.967 . S
Co918 O950 1.920 . S
Co919 O922 1.966 . S
Co919 N928 2.022 . S
Co919 N936 1.993 . S
Co919 O944 1.941 . S
C920 O921 1.258 . S
C920 O922 1.263 . S
O921 Co918 1.970 . S
O921 C920 1.258 . S
O922 Co919 1.966 . S
O922 C920 1.263 . S
C923 O924 1.235 . S
C923 O950 1.289 . S
O924 C923 1.235 . S
C925 C927 1.400 . S
C925 N928 1.351 . S
C925 C930 1.501 . S
C926 C927 1.387 . S
C926 N929 1.341 . S
C927 C925 1.400 . S
C927 C926 1.387 . S
N928 Co919 2.022 . S
N928 C925 1.351 . S
N928 N929 1.365 . S
N929 C926 1.341 . S
N929 N928 1.365 . S
N929 H949 0.862 . S
C930 C925 1.501 . S
C930 H931 0.961 . S
C930 H932 0.961 . S
C930 H933 0.960 . S
H931 C930 0.961 . S
H932 C930 0.961 . S
H933 C930 0.960 . S
C934 N935 1.342 . S
C934 C938 1.401 . S
C934 C939 1.499 . S
N935 Co918 1.989 . S
N935 C934 1.342 . S
N935 N936 1.388 . S
N936 Co919 1.993 . S
N936 N935 1.388 . S
N936 C937 1.346 . S
C937 N936 1.346 . S
C937 C938 1.396 . S
C937 C947 1.510 . S
C938 C934 1.401 . S
C938 C937 1.396 . S
C939 C934 1.499 . S
C939 H940 0.959 . S
C939 H941 0.960 . S
C939 H942 0.961 . S
H940 C939 0.959 . S
H941 C939 0.960 . S
H942 C939 0.961 . S
O943 Co918 1.967 . S
O943 C951 1.258 . S
O944 Co919 1.941 . S
O944 C951 1.266 . S
H945 C947 0.959 . S
H946 C947 0.961 . S
C947 C937 1.510 . S
C947 H945 0.959 . S
C947 H946 0.961 . S
C947 H948 0.960 . S
H948 C947 0.960 . S
H949 N929 0.862 . S
O950 Co918 1.920 . S
O950 C923 1.289 . S
C951 O943 1.258 . S
C951 O944 1.266 . S
Co952 O955 1.970 . S
Co952 N969 1.989 . S
Co952 O977 1.967 . S
Co952 O984 1.920 . S
Co953 O956 1.966 . S
Co953 N962 2.022 . S
Co953 N970 1.993 . S
Co953 O978 1.941 . S
C954 O955 1.258 . S
C954 O956 1.263 . S
O955 Co952 1.970 . S
O955 C954 1.258 . S
O956 Co953 1.966 . S
O956 C954 1.263 . S
C957 O958 1.235 . S
C957 O984 1.289 . S
O958 C957 1.235 . S
C959 C961 1.400 . S
C959 N962 1.351 . S
C959 C964 1.501 . S
C960 C961 1.387 . S
C960 N963 1.341 . S
C961 C959 1.400 . S
C961 C960 1.387 . S
N962 Co953 2.022 . S
N962 C959 1.351 . S
N962 N963 1.365 . S
N963 C960 1.341 . S
N963 N962 1.365 . S
N963 H983 0.862 . S
C964 C959 1.501 . S
C964 H965 0.961 . S
C964 H966 0.961 . S
C964 H967 0.960 . S
H965 C964 0.961 . S
H966 C964 0.961 . S
H967 C964 0.960 . S
C968 N969 1.342 . S
C968 C972 1.401 . S
C968 C973 1.499 . S
N969 Co952 1.989 . S
N969 C968 1.342 . S
N969 N970 1.388 . S
N970 Co953 1.993 . S
N970 N969 1.388 . S
N970 C971 1.346 . S
C971 N970 1.346 . S
C971 C972 1.396 . S
C971 C981 1.510 . S
C972 C968 1.401 . S
C972 C971 1.396 . S
C973 C968 1.499 . S
C973 H974 0.959 . S
C973 H975 0.960 . S
C973 H976 0.961 . S
H974 C973 0.959 . S
H975 C973 0.960 . S
H976 C973 0.961 . S
O977 Co952 1.967 . S
O977 C985 1.258 . S
O978 Co953 1.941 . S
O978 C985 1.266 . S
H979 C981 0.959 . S
H980 C981 0.961 . S
C981 C971 1.510 . S
C981 H979 0.959 . S
C981 H980 0.961 . S
C981 H982 0.960 . S
H982 C981 0.960 . S
H983 N963 0.862 . S
O984 Co952 1.920 . S
O984 C957 1.289 . S
C985 O977 1.258 . S
C985 O978 1.266 . S
Co986 O989 1.970 . S
Co986 N1003 1.989 . S
Co986 O1011 1.967 . S
Co986 O1018 1.920 . S
Co987 O990 1.966 . S
Co987 N996 2.022 . S
Co987 N1004 1.993 . S
Co987 O1012 1.941 . S
C988 O989 1.258 . S
C988 O990 1.263 . S
O989 Co986 1.970 . S
O989 C988 1.258 . S
O990 Co987 1.966 . S
O990 C988 1.263 . S
C991 O992 1.235 . S
C991 O1018 1.289 . S
O992 C991 1.235 . S
C993 C995 1.400 . S
C993 N996 1.351 . S
C993 C998 1.501 . S
C994 C995 1.387 . S
C994 N997 1.341 . S
C995 C993 1.400 . S
C995 C994 1.387 . S
N996 Co987 2.022 . S
N996 C993 1.351 . S
N996 N997 1.365 . S
N997 C994 1.341 . S
N997 N996 1.365 . S
N997 H1017 0.862 . S
C998 C993 1.501 . S
C998 H999 0.961 . S
C998 H1000 0.961 . S
C998 H1001 0.960 . S
H999 C998 0.961 . S
H1000 C998 0.961 . S
H1001 C998 0.960 . S
C1002 N1003 1.342 . S
C1002 C1006 1.401 . S
C1002 C1007 1.499 . S
N1003 Co986 1.989 . S
N1003 C1002 1.342 . S
N1003 N1004 1.388 . S
N1004 Co987 1.993 . S
N1004 N1003 1.388 . S
N1004 C1005 1.346 . S
C1005 N1004 1.346 . S
C1005 C1006 1.396 . S
C1005 C1015 1.510 . S
C1006 C1002 1.401 . S
C1006 C1005 1.396 . S
C1007 C1002 1.499 . S
C1007 H1008 0.959 . S
C1007 H1009 0.960 . S
C1007 H1010 0.961 . S
H1008 C1007 0.959 . S
H1009 C1007 0.960 . S
H1010 C1007 0.961 . S
O1011 Co986 1.967 . S
O1011 C1019 1.258 . S
O1012 Co987 1.941 . S
O1012 C1019 1.266 . S
H1013 C1015 0.959 . S
H1014 C1015 0.961 . S
C1015 C1005 1.510 . S
C1015 H1013 0.959 . S
C1015 H1014 0.961 . S
C1015 H1016 0.960 . S
H1016 C1015 0.960 . S
H1017 N997 0.862 . S
O1018 Co986 1.920 . S
O1018 C991 1.289 . S
C1019 O1011 1.258 . S
C1019 O1012 1.266 . S
Co1020 O1023 1.970 . S
Co1020 N1037 1.989 . S
Co1020 O1045 1.967 . S
Co1020 O1052 1.920 . S
Co1021 O1024 1.966 . S
Co1021 N1030 2.022 . S
Co1021 N1038 1.993 . S
Co1021 O1046 1.941 . S
C1022 O1023 1.258 . S
C1022 O1024 1.263 . S
O1023 Co1020 1.970 . S
O1023 C1022 1.258 . S
O1024 Co1021 1.966 . S
O1024 C1022 1.263 . S
C1025 O1026 1.235 . S
C1025 O1052 1.289 . S
O1026 C1025 1.235 . S
C1027 C1029 1.400 . S
C1027 N1030 1.351 . S
C1027 C1032 1.501 . S
C1028 C1029 1.387 . S
C1028 N1031 1.341 . S
C1029 C1027 1.400 . S
C1029 C1028 1.387 . S
N1030 Co1021 2.022 . S
N1030 C1027 1.351 . S
N1030 N1031 1.365 . S
N1031 C1028 1.341 . S
N1031 N1030 1.365 . S
N1031 H1051 0.862 . S
C1032 C1027 1.501 . S
C1032 H1033 0.961 . S
C1032 H1034 0.961 . S
C1032 H1035 0.960 . S
H1033 C1032 0.961 . S
H1034 C1032 0.961 . S
H1035 C1032 0.960 . S
C1036 N1037 1.342 . S
C1036 C1040 1.401 . S
C1036 C1041 1.499 . S
N1037 Co1020 1.989 . S
N1037 C1036 1.342 . S
N1037 N1038 1.388 . S
N1038 Co1021 1.993 . S
N1038 N1037 1.388 . S
N1038 C1039 1.346 . S
C1039 N1038 1.346 . S
C1039 C1040 1.396 . S
C1039 C1049 1.510 . S
C1040 C1036 1.401 . S
C1040 C1039 1.396 . S
C1041 C1036 1.499 . S
C1041 H1042 0.959 . S
C1041 H1043 0.960 . S
C1041 H1044 0.961 . S
H1042 C1041 0.959 . S
H1043 C1041 0.960 . S
H1044 C1041 0.961 . S
O1045 Co1020 1.967 . S
O1045 C1053 1.258 . S
O1046 Co1021 1.941 . S
O1046 C1053 1.266 . S
H1047 C1049 0.959 . S
H1048 C1049 0.961 . S
C1049 C1039 1.510 . S
C1049 H1047 0.959 . S
C1049 H1048 0.961 . S
C1049 H1050 0.960 . S
H1050 C1049 0.960 . S
H1051 N1031 0.862 . S
O1052 Co1020 1.920 . S
O1052 C1025 1.289 . S
C1053 O1045 1.258 . S
C1053 O1046 1.266 . S
Co1054 O1057 1.970 . S
Co1054 N1071 1.989 . S
Co1054 O1079 1.967 . S
Co1054 O1086 1.920 . S
Co1055 O1058 1.966 . S
Co1055 N1064 2.022 . S
Co1055 N1072 1.993 . S
Co1055 O1080 1.941 . S
C1056 O1057 1.258 . S
C1056 O1058 1.263 . S
O1057 Co1054 1.970 . S
O1057 C1056 1.258 . S
O1058 Co1055 1.966 . S
O1058 C1056 1.263 . S
C1059 O1060 1.235 . S
C1059 O1086 1.289 . S
O1060 C1059 1.235 . S
C1061 C1063 1.400 . S
C1061 N1064 1.351 . S
C1061 C1066 1.501 . S
C1062 C1063 1.387 . S
C1062 N1065 1.341 . S
C1063 C1061 1.400 . S
C1063 C1062 1.387 . S
N1064 Co1055 2.022 . S
N1064 C1061 1.351 . S
N1064 N1065 1.365 . S
N1065 C1062 1.341 . S
N1065 N1064 1.365 . S
N1065 H1085 0.862 . S
C1066 C1061 1.501 . S
C1066 H1067 0.961 . S
C1066 H1068 0.961 . S
C1066 H1069 0.960 . S
H1067 C1066 0.961 . S
H1068 C1066 0.961 . S
H1069 C1066 0.960 . S
C1070 N1071 1.342 . S
C1070 C1074 1.401 . S
C1070 C1075 1.499 . S
N1071 Co1054 1.989 . S
N1071 C1070 1.342 . S
N1071 N1072 1.388 . S
N1072 Co1055 1.993 . S
N1072 N1071 1.388 . S
N1072 C1073 1.346 . S
C1073 N1072 1.346 . S
C1073 C1074 1.396 . S
C1073 C1083 1.510 . S
C1074 C1070 1.401 . S
C1074 C1073 1.396 . S
C1075 C1070 1.499 . S
C1075 H1076 0.959 . S
C1075 H1077 0.960 . S
C1075 H1078 0.961 . S
H1076 C1075 0.959 . S
H1077 C1075 0.960 . S
H1078 C1075 0.961 . S
O1079 Co1054 1.967 . S
O1079 C1087 1.258 . S
O1080 Co1055 1.941 . S
O1080 C1087 1.266 . S
H1081 C1083 0.959 . S
H1082 C1083 0.961 . S
C1083 C1073 1.510 . S
C1083 H1081 0.959 . S
C1083 H1082 0.961 . S
C1083 H1084 0.960 . S
H1084 C1083 0.960 . S
H1085 N1065 0.862 . S
O1086 Co1054 1.920 . S
O1086 C1059 1.289 . S
C1087 O1079 1.258 . S
C1087 O1080 1.266 . S
C1088 C1089 1.369 . S
C1088 C1090 1.419 . S
C1088 H1092 0.930 . S
C1089 C1088 1.369 . S
C1089 C1098 1.429 . S
C1090 C1088 1.419 . S
C1090 C1091 1.363 . S
C1090 H1093 0.929 . S
C1091 C1090 1.363 . S
C1091 C1097 1.428 . S
H1092 C1088 0.930 . S
H1093 C1090 0.929 . S
S1094 N1095 1.613 . S
S1094 N1096 1.610 . S
N1095 S1094 1.613 . S
N1095 C1098 1.350 . S
N1096 S1094 1.610 . S
N1096 C1097 1.351 . S
C1097 C1091 1.428 . S
C1097 N1096 1.351 . S
C1097 C1098 1.434 . S
C1098 C1089 1.429 . S
C1098 N1095 1.350 . S
C1098 C1097 1.434 . S
C1099 C1100 1.369 . S
C1099 C1101 1.419 . S
C1099 H1103 0.930 . S
C1100 C1099 1.369 . S
C1100 C1109 1.429 . S
C1101 C1099 1.419 . S
C1101 C1102 1.363 . S
C1101 H1104 0.929 . S
C1102 C1101 1.363 . S
C1102 C1108 1.428 . S
H1103 C1099 0.930 . S
H1104 C1101 0.929 . S
S1105 N1106 1.613 . S
S1105 N1107 1.610 . S
N1106 S1105 1.613 . S
N1106 C1109 1.350 . S
N1107 S1105 1.610 . S
N1107 C1108 1.351 . S
C1108 C1102 1.428 . S
C1108 N1107 1.351 . S
C1108 C1109 1.434 . S
C1109 C1100 1.429 . S
C1109 N1106 1.350 . S
C1109 C1108 1.434 . S
C1110 C1111 1.369 . S
C1110 C1112 1.419 . S
C1110 H1114 0.930 . S
C1111 C1110 1.369 . S
C1111 C1120 1.429 . S
C1112 C1110 1.419 . S
C1112 C1113 1.363 . S
C1112 H1115 0.929 . S
C1113 C1112 1.363 . S
C1113 C1119 1.428 . S
H1114 C1110 0.930 . S
H1115 C1112 0.929 . S
S1116 N1117 1.613 . S
S1116 N1118 1.610 . S
N1117 S1116 1.613 . S
N1117 C1120 1.350 . S
N1118 S1116 1.610 . S
N1118 C1119 1.351 . S
C1119 C1113 1.428 . S
C1119 N1118 1.351 . S
C1119 C1120 1.434 . S
C1120 C1111 1.429 . S
C1120 N1117 1.350 . S
C1120 C1119 1.434 . S
C1121 C1122 1.369 . S
C1121 C1123 1.419 . S
C1121 H1125 0.930 . S
C1122 C1121 1.369 . S
C1122 C1131 1.429 . S
C1123 C1121 1.419 . S
C1123 C1124 1.363 . S
C1123 H1126 0.929 . S
C1124 C1123 1.363 . S
C1124 C1130 1.428 . S
H1125 C1121 0.930 . S
H1126 C1123 0.929 . S
S1127 N1128 1.613 . S
S1127 N1129 1.610 . S
N1128 S1127 1.613 . S
N1128 C1131 1.350 . S
N1129 S1127 1.610 . S
N1129 C1130 1.351 . S
C1130 C1124 1.428 . S
C1130 N1129 1.351 . S
C1130 C1131 1.434 . S
C1131 C1122 1.429 . S
C1131 N1128 1.350 . S
C1131 C1130 1.434 . S
C1132 C1133 1.369 . S
C1132 C1134 1.419 . S
C1132 H1136 0.930 . S
C1133 C1132 1.369 . S
C1133 C1142 1.429 . S
C1134 C1132 1.419 . S
C1134 C1135 1.363 . S
C1134 H1137 0.929 . S
C1135 C1134 1.363 . S
C1135 C1141 1.428 . S
H1136 C1132 0.930 . S
H1137 C1134 0.929 . S
S1138 N1139 1.613 1_554 S
S1138 N1140 1.610 1_554 S
N1139 S1138 1.613 1_556 S
N1139 C1142 1.350 . S
N1140 S1138 1.610 1_556 S
N1140 C1141 1.351 . S
C1141 C1135 1.428 . S
C1141 N1140 1.351 . S
C1141 C1142 1.434 . S
C1142 C1133 1.429 . S
C1142 N1139 1.350 . S
C1142 C1141 1.434 . S
C1143 C1144 1.369 . S
C1143 C1145 1.419 . S
C1143 H1147 0.930 . S
C1144 C1143 1.369 . S
C1144 C1153 1.429 . S
C1145 C1143 1.419 . S
C1145 C1146 1.363 . S
C1145 H1148 0.929 . S
C1146 C1145 1.363 . S
C1146 C1152 1.428 . S
H1147 C1143 0.930 . S
H1148 C1145 0.929 . S
S1149 N1150 1.613 . S
S1149 N1151 1.610 . S
N1150 S1149 1.613 . S
N1150 C1153 1.350 . S
N1151 S1149 1.610 . S
N1151 C1152 1.351 . S
C1152 C1146 1.428 . S
C1152 N1151 1.351 . S
C1152 C1153 1.434 . S
C1153 C1144 1.429 . S
C1153 N1150 1.350 . S
C1153 C1152 1.434 . S
C1154 C1155 1.369 . S
C1154 C1156 1.419 . S
C1154 H1158 0.930 . S
C1155 C1154 1.369 . S
C1155 C1164 1.429 . S
C1156 C1154 1.419 . S
C1156 C1157 1.363 . S
C1156 H1159 0.929 . S
C1157 C1156 1.363 . S
C1157 C1163 1.428 . S
H1158 C1154 0.930 . S
H1159 C1156 0.929 . S
S1160 N1161 1.613 1_556 S
S1160 N1162 1.610 1_556 S
N1161 S1160 1.613 1_554 S
N1161 C1164 1.350 . S
N1162 S1160 1.610 1_554 S
N1162 C1163 1.351 . S
C1163 C1157 1.428 . S
C1163 N1162 1.351 . S
C1163 C1164 1.434 . S
C1164 C1155 1.429 . S
C1164 N1161 1.350 . S
C1164 C1163 1.434 . S
C1165 C1166 1.369 . S
C1165 C1167 1.419 . S
C1165 H1169 0.930 . S
C1166 C1165 1.369 . S
C1166 C1175 1.429 . S
C1167 C1165 1.419 . S
C1167 C1168 1.363 . S
C1167 H1170 0.929 . S
C1168 C1167 1.363 . S
C1168 C1174 1.428 . S
H1169 C1165 0.930 . S
H1170 C1167 0.929 . S
S1171 N1172 1.613 . S
S1171 N1173 1.610 . S
N1172 S1171 1.613 . S
N1172 C1175 1.350 . S
N1173 S1171 1.610 . S
N1173 C1174 1.351 . S
C1174 C1168 1.428 . S
C1174 N1173 1.351 . S
C1174 C1175 1.434 . S
C1175 C1166 1.429 . S
C1175 N1172 1.350 . S
C1175 C1174 1.434 . S
C1176 C1177 1.369 . S
C1176 C1178 1.419 . S
C1176 H1180 0.930 . S
C1177 C1176 1.369 . S
C1177 C1186 1.429 . S
C1178 C1176 1.419 . S
C1178 C1179 1.363 . S
C1178 H1181 0.929 . S
C1179 C1178 1.363 . S
C1179 C1185 1.428 . S
H1180 C1176 0.930 . S
H1181 C1178 0.929 . S
S1182 N1183 1.613 . S
S1182 N1184 1.610 . S
N1183 S1182 1.613 . S
N1183 C1186 1.350 1_554 S
N1184 S1182 1.610 . S
N1184 C1185 1.351 1_554 S
C1185 C1179 1.428 . S
C1185 N1184 1.351 1_556 S
C1185 C1186 1.434 . S
C1186 C1177 1.429 . S
C1186 N1183 1.350 1_556 S
C1186 C1185 1.434 . S
C1187 C1188 1.369 . S
C1187 C1189 1.419 . S
C1187 H1191 0.930 . S
C1188 C1187 1.369 . S
C1188 C1197 1.429 . S
C1189 C1187 1.419 . S
C1189 C1190 1.363 . S
C1189 H1192 0.929 . S
C1190 C1189 1.363 . S
C1190 C1196 1.428 . S
H1191 C1187 0.930 . S
H1192 C1189 0.929 . S
S1193 N1194 1.613 . S
S1193 N1195 1.610 . S
N1194 S1193 1.613 . S
N1194 C1197 1.350 . S
N1195 S1193 1.610 . S
N1195 C1196 1.351 . S
C1196 C1190 1.428 . S
C1196 N1195 1.351 . S
C1196 C1197 1.434 . S
C1197 C1188 1.429 . S
C1197 N1194 1.350 . S
C1197 C1196 1.434 . S
C1198 C1199 1.369 . S
C1198 C1200 1.419 . S
C1198 H1202 0.930 . S
C1199 C1198 1.369 . S
C1199 C1208 1.429 . S
C1200 C1198 1.419 . S
C1200 C1201 1.363 . S
C1200 H1203 0.929 . S
C1201 C1200 1.363 . S
C1201 C1207 1.428 . S
H1202 C1198 0.930 . S
H1203 C1200 0.929 . S
S1204 N1205 1.613 1_556 S
S1204 N1206 1.610 1_556 S
N1205 S1204 1.613 1_554 S
N1205 C1208 1.350 . S
N1206 S1204 1.610 1_554 S
N1206 C1207 1.351 . S
C1207 C1201 1.428 . S
C1207 N1206 1.351 . S
C1207 C1208 1.434 . S
C1208 C1199 1.429 . S
C1208 N1205 1.350 . S
C1208 C1207 1.434 . S
C1209 C1210 1.369 . S
C1209 C1211 1.419 . S
C1209 H1213 0.930 . S
C1210 C1209 1.369 . S
C1210 C1219 1.429 . S
C1211 C1209 1.419 . S
C1211 C1212 1.363 . S
C1211 H1214 0.929 . S
C1212 C1211 1.363 . S
C1212 C1218 1.428 . S
H1213 C1209 0.930 . S
H1214 C1211 0.929 . S
S1215 N1216 1.613 . S
S1215 N1217 1.610 . S
N1216 S1215 1.613 . S
N1216 C1219 1.350 . S
N1217 S1215 1.610 . S
N1217 C1218 1.351 . S
C1218 C1212 1.428 . S
C1218 N1217 1.351 . S
C1218 C1219 1.434 . S
C1219 C1210 1.429 . S
C1219 N1216 1.350 . S
C1219 C1218 1.434 . S
C1220 C1221 1.369 . S
C1220 C1222 1.419 . S
C1220 H1224 0.930 . S
C1221 C1220 1.369 . S
C1221 C1230 1.429 . S
C1222 C1220 1.419 . S
C1222 C1223 1.363 . S
C1222 H1225 0.929 . S
C1223 C1222 1.363 . S
C1223 C1229 1.428 . S
H1224 C1220 0.930 . S
H1225 C1222 0.929 . S
S1226 N1227 1.613 . S
S1226 N1228 1.610 . S
N1227 S1226 1.613 . S
N1227 C1230 1.350 . S
N1228 S1226 1.610 . S
N1228 C1229 1.351 . S
C1229 C1223 1.428 . S
C1229 N1228 1.351 . S
C1229 C1230 1.434 . S
C1230 C1221 1.429 . S
C1230 N1227 1.350 . S
C1230 C1229 1.434 . S
C1231 C1232 1.369 . S
C1231 C1233 1.419 . S
C1231 H1235 0.930 . S
C1232 C1231 1.369 . S
C1232 C1241 1.429 . S
C1233 C1231 1.419 . S
C1233 C1234 1.363 . S
C1233 H1236 0.929 . S
C1234 C1233 1.363 . S
C1234 C1240 1.428 . S
H1235 C1231 0.930 . S
H1236 C1233 0.929 . S
S1237 N1238 1.613 . S
S1237 N1239 1.610 . S
N1238 S1237 1.613 . S
N1238 C1241 1.350 . S
N1239 S1237 1.610 . S
N1239 C1240 1.351 . S
C1240 C1234 1.428 . S
C1240 N1239 1.351 . S
C1240 C1241 1.434 . S
C1241 C1232 1.429 . S
C1241 N1238 1.350 . S
C1241 C1240 1.434 . S
C1242 C1243 1.369 . S
C1242 C1244 1.419 . S
C1242 H1246 0.930 . S
C1243 C1242 1.369 . S
C1243 C1252 1.429 . S
C1244 C1242 1.419 . S
C1244 C1245 1.363 . S
C1244 H1247 0.929 . S
C1245 C1244 1.363 . S
C1245 C1251 1.428 . S
H1246 C1242 0.930 . S
H1247 C1244 0.929 . S
S1248 N1249 1.613 . S
S1248 N1250 1.610 . S
N1249 S1248 1.613 . S
N1249 C1252 1.350 . S
N1250 S1248 1.610 . S
N1250 C1251 1.351 . S
C1251 C1245 1.428 . S
C1251 N1250 1.351 . S
C1251 C1252 1.434 . S
C1252 C1243 1.429 . S
C1252 N1249 1.350 . S
C1252 C1251 1.434 . S
C1253 C1254 1.369 . S
C1253 C1255 1.419 . S
C1253 H1257 0.930 . S
C1254 C1253 1.369 . S
C1254 C1263 1.429 . S
C1255 C1253 1.419 . S
C1255 C1256 1.363 . S
C1255 H1258 0.929 . S
C1256 C1255 1.363 . S
C1256 C1262 1.428 . S
H1257 C1253 0.930 . S
H1258 C1255 0.929 . S
S1259 N1260 1.613 . S
S1259 N1261 1.610 . S
N1260 S1259 1.613 . S
N1260 C1263 1.350 . S
N1261 S1259 1.610 . S
N1261 C1262 1.351 . S
C1262 C1256 1.428 . S
C1262 N1261 1.351 . S
C1262 C1263 1.434 . S
C1263 C1254 1.429 . S
C1263 N1260 1.350 . S
C1263 C1262 1.434 . S
C1264 C1265 1.369 . S
C1264 C1266 1.419 . S
C1264 H1268 0.930 . S
C1265 C1264 1.369 . S
C1265 C1274 1.429 . S
C1266 C1264 1.419 . S
C1266 C1267 1.363 . S
C1266 H1269 0.929 . S
C1267 C1266 1.363 . S
C1267 C1273 1.428 . S
H1268 C1264 0.930 . S
H1269 C1266 0.929 . S
S1270 N1271 1.613 . S
S1270 N1272 1.610 . S
N1271 S1270 1.613 . S
N1271 C1274 1.350 . S
N1272 S1270 1.610 . S
N1272 C1273 1.351 . S
C1273 C1267 1.428 . S
C1273 N1272 1.351 . S
C1273 C1274 1.434 . S
C1274 C1265 1.429 . S
C1274 N1271 1.350 . S
C1274 C1273 1.434 . S
C1275 C1276 1.369 . S
C1275 C1277 1.419 . S
C1275 H1279 0.930 . S
C1276 C1275 1.369 . S
C1276 C1285 1.429 . S
C1277 C1275 1.419 . S
C1277 C1278 1.363 . S
C1277 H1280 0.929 . S
C1278 C1277 1.363 . S
C1278 C1284 1.428 . S
H1279 C1275 0.930 . S
H1280 C1277 0.929 . S
S1281 N1282 1.613 . S
S1281 N1283 1.610 . S
N1282 S1281 1.613 . S
N1282 C1285 1.350 . S
N1283 S1281 1.610 . S
N1283 C1284 1.351 . S
C1284 C1278 1.428 . S
C1284 N1283 1.351 . S
C1284 C1285 1.434 . S
C1285 C1276 1.429 . S
C1285 N1282 1.350 . S
C1285 C1284 1.434 . S
C1286 C1287 1.369 . S
C1286 C1288 1.419 . S
C1286 H1290 0.930 . S
C1287 C1286 1.369 . S
C1287 C1296 1.429 . S
C1288 C1286 1.419 . S
C1288 C1289 1.363 . S
C1288 H1291 0.929 . S
C1289 C1288 1.363 . S
C1289 C1295 1.428 . S
H1290 C1286 0.930 . S
H1291 C1288 0.929 . S
S1292 N1293 1.613 . S
S1292 N1294 1.610 . S
N1293 S1292 1.613 . S
N1293 C1296 1.350 . S
N1294 S1292 1.610 . S
N1294 C1295 1.351 . S
C1295 C1289 1.428 . S
C1295 N1294 1.351 . S
C1295 C1296 1.434 . S
C1296 C1287 1.429 . S
C1296 N1293 1.350 . S
C1296 C1295 1.434 . S
C1297 C1298 1.369 . S
C1297 C1299 1.419 . S
C1297 H1301 0.930 . S
C1298 C1297 1.369 . S
C1298 C1307 1.429 . S
C1299 C1297 1.419 . S
C1299 C1300 1.363 . S
C1299 H1302 0.929 . S
C1300 C1299 1.363 . S
C1300 C1306 1.428 . S
H1301 C1297 0.930 . S
H1302 C1299 0.929 . S
S1303 N1304 1.613 . S
S1303 N1305 1.610 . S
N1304 S1303 1.613 . S
N1304 C1307 1.350 . S
N1305 S1303 1.610 . S
N1305 C1306 1.351 . S
C1306 C1300 1.428 . S
C1306 N1305 1.351 . S
C1306 C1307 1.434 . S
C1307 C1298 1.429 . S
C1307 N1304 1.350 . S
C1307 C1306 1.434 . S
C1308 C1309 1.369 . S
C1308 C1310 1.419 . S
C1308 H1312 0.930 . S
C1309 C1308 1.369 . S
C1309 C1318 1.429 . S
C1310 C1308 1.419 . S
C1310 C1311 1.363 . S
C1310 H1313 0.929 . S
C1311 C1310 1.363 . S
C1311 C1317 1.428 . S
H1312 C1308 0.930 . S
H1313 C1310 0.929 . S
S1314 N1315 1.613 . S
S1314 N1316 1.610 . S
N1315 S1314 1.613 . S
N1315 C1318 1.350 . S
N1316 S1314 1.610 . S
N1316 C1317 1.351 . S
C1317 C1311 1.428 . S
C1317 N1316 1.351 . S
C1317 C1318 1.434 . S
C1318 C1309 1.429 . S
C1318 N1315 1.350 . S
C1318 C1317 1.434 . S
C1319 C1320 1.369 . S
C1319 C1321 1.419 . S
C1319 H1323 0.930 . S
C1320 C1319 1.369 . S
C1320 C1329 1.429 . S
C1321 C1319 1.419 . S
C1321 C1322 1.363 . S
C1321 H1324 0.929 . S
C1322 C1321 1.363 . S
C1322 C1328 1.428 . S
H1323 C1319 0.930 . S
H1324 C1321 0.929 . S
S1325 N1326 1.613 . S
S1325 N1327 1.610 . S
N1326 S1325 1.613 . S
N1326 C1329 1.350 . S
N1327 S1325 1.610 . S
N1327 C1328 1.351 . S
C1328 C1322 1.428 . S
C1328 N1327 1.351 . S
C1328 C1329 1.434 . S
C1329 C1320 1.429 . S
C1329 N1326 1.350 . S
C1329 C1328 1.434 . S
C1330 C1331 1.369 . S
C1330 C1332 1.419 . S
C1330 H1334 0.930 . S
C1331 C1330 1.369 . S
C1331 C1340 1.429 . S
C1332 C1330 1.419 . S
C1332 C1333 1.363 . S
C1332 H1335 0.929 . S
C1333 C1332 1.363 . S
C1333 C1339 1.428 . S
H1334 C1330 0.930 . S
H1335 C1332 0.929 . S
S1336 N1337 1.613 . S
S1336 N1338 1.610 . S
N1337 S1336 1.613 . S
N1337 C1340 1.350 . S
N1338 S1336 1.610 . S
N1338 C1339 1.351 . S
C1339 C1333 1.428 . S
C1339 N1338 1.351 . S
C1339 C1340 1.434 . S
C1340 C1331 1.429 . S
C1340 N1337 1.350 . S
C1340 C1339 1.434 . S
C1341 C1342 1.369 . S
C1341 C1343 1.419 . S
C1341 H1345 0.930 . S
C1342 C1341 1.369 . S
C1342 C1351 1.429 . S
C1343 C1341 1.419 . S
C1343 C1344 1.363 . S
C1343 H1346 0.929 . S
C1344 C1343 1.363 . S
C1344 C1350 1.428 . S
H1345 C1341 0.930 . S
H1346 C1343 0.929 . S
S1347 N1348 1.613 . S
S1347 N1349 1.610 . S
N1348 S1347 1.613 . S
N1348 C1351 1.350 . S
N1349 S1347 1.610 . S
N1349 C1350 1.351 . S
C1350 C1344 1.428 . S
C1350 N1349 1.351 . S
C1350 C1351 1.434 . S
C1351 C1342 1.429 . S
C1351 N1348 1.350 . S
C1351 C1350 1.434 . S
C1352 C1353 1.369 . S
C1352 C1354 1.419 . S
C1352 H1356 0.930 . S
C1353 C1352 1.369 . S
C1353 C1362 1.429 . S
C1354 C1352 1.419 . S
C1354 C1355 1.363 . S
C1354 H1357 0.929 . S
C1355 C1354 1.363 . S
C1355 C1361 1.428 . S
H1356 C1352 0.930 . S
H1357 C1354 0.929 . S
S1358 N1359 1.613 . S
S1358 N1360 1.610 . S
N1359 S1358 1.613 . S
N1359 C1362 1.350 . S
N1360 S1358 1.610 . S
N1360 C1361 1.351 . S
C1361 C1355 1.428 . S
C1361 N1360 1.351 . S
C1361 C1362 1.434 . S
C1362 C1353 1.429 . S
C1362 N1359 1.350 . S
C1362 C1361 1.434 . S
C1363 C1364 1.369 . S
C1363 C1365 1.419 . S
C1363 H1367 0.930 . S
C1364 C1363 1.369 . S
C1364 C1373 1.429 . S
C1365 C1363 1.419 . S
C1365 C1366 1.363 . S
C1365 H1368 0.929 . S
C1366 C1365 1.363 . S
C1366 C1372 1.428 . S
H1367 C1363 0.930 . S
H1368 C1365 0.929 . S
S1369 N1370 1.613 . S
S1369 N1371 1.610 . S
N1370 S1369 1.613 . S
N1370 C1373 1.350 . S
N1371 S1369 1.610 . S
N1371 C1372 1.351 . S
C1372 C1366 1.428 . S
C1372 N1371 1.351 . S
C1372 C1373 1.434 . S
C1373 C1364 1.429 . S
C1373 N1370 1.350 . S
C1373 C1372 1.434 . S
C1374 C1375 1.369 . S
C1374 C1376 1.419 . S
C1374 H1378 0.930 . S
C1375 C1374 1.369 . S
C1375 C1384 1.429 . S
C1376 C1374 1.419 . S
C1376 C1377 1.363 . S
C1376 H1379 0.929 . S
C1377 C1376 1.363 . S
C1377 C1383 1.428 . S
H1378 C1374 0.930 . S
H1379 C1376 0.929 . S
S1380 N1381 1.613 . S
S1380 N1382 1.610 . S
N1381 S1380 1.613 . S
N1381 C1384 1.350 . S
N1382 S1380 1.610 . S
N1382 C1383 1.351 . S
C1383 C1377 1.428 . S
C1383 N1382 1.351 . S
C1383 C1384 1.434 . S
C1384 C1375 1.429 . S
C1384 N1381 1.350 . S
C1384 C1383 1.434 . S
C1385 C1386 1.369 . S
C1385 C1387 1.419 . S
C1385 H1389 0.930 . S
C1386 C1385 1.369 . S
C1386 C1395 1.429 . S
C1387 C1385 1.419 . S
C1387 C1388 1.363 . S
C1387 H1390 0.929 . S
C1388 C1387 1.363 . S
C1388 C1394 1.428 . S
H1389 C1385 0.930 . S
H1390 C1387 0.929 . S
S1391 N1392 1.613 . S
S1391 N1393 1.610 . S
N1392 S1391 1.613 . S
N1392 C1395 1.350 . S
N1393 S1391 1.610 . S
N1393 C1394 1.351 . S
C1394 C1388 1.428 . S
C1394 N1393 1.351 . S
C1394 C1395 1.434 . S
C1395 C1386 1.429 . S
C1395 N1392 1.350 . S
C1395 C1394 1.434 . S
C1396 C1397 1.369 . S
C1396 C1398 1.419 . S
C1396 H1400 0.930 . S
C1397 C1396 1.369 . S
C1397 C1406 1.429 . S
C1398 C1396 1.419 . S
C1398 C1399 1.363 . S
C1398 H1401 0.929 . S
C1399 C1398 1.363 . S
C1399 C1405 1.428 . S
H1400 C1396 0.930 . S
H1401 C1398 0.929 . S
S1402 N1403 1.613 . S
S1402 N1404 1.610 . S
N1403 S1402 1.613 . S
N1403 C1406 1.350 . S
N1404 S1402 1.610 . S
N1404 C1405 1.351 . S
C1405 C1399 1.428 . S
C1405 N1404 1.351 . S
C1405 C1406 1.434 . S
C1406 C1397 1.429 . S
C1406 N1403 1.350 . S
C1406 C1405 1.434 . S
C1407 C1408 1.369 . S
C1407 C1409 1.419 . S
C1407 H1411 0.930 . S
C1408 C1407 1.369 . S
C1408 C1417 1.429 . S
C1409 C1407 1.419 . S
C1409 C1410 1.363 . S
C1409 H1412 0.929 . S
C1410 C1409 1.363 . S
C1410 C1416 1.428 . S
H1411 C1407 0.930 . S
H1412 C1409 0.929 . S
S1413 N1414 1.613 . S
S1413 N1415 1.610 . S
N1414 S1413 1.613 . S
N1414 C1417 1.350 . S
N1415 S1413 1.610 . S
N1415 C1416 1.351 . S
C1416 C1410 1.428 . S
C1416 N1415 1.351 . S
C1416 C1417 1.434 . S
C1417 C1408 1.429 . S
C1417 N1414 1.350 . S
C1417 C1416 1.434 . S
C1418 C1419 1.369 . S
C1418 C1420 1.419 . S
C1418 H1422 0.930 . S
C1419 C1418 1.369 . S
C1419 C1428 1.429 . S
C1420 C1418 1.419 . S
C1420 C1421 1.363 . S
C1420 H1423 0.929 . S
C1421 C1420 1.363 . S
C1421 C1427 1.428 . S
H1422 C1418 0.930 . S
H1423 C1420 0.929 . S
S1424 N1425 1.613 . S
S1424 N1426 1.610 . S
N1425 S1424 1.613 . S
N1425 C1428 1.350 . S
N1426 S1424 1.610 . S
N1426 C1427 1.351 . S
C1427 C1421 1.428 . S
C1427 N1426 1.351 . S
C1427 C1428 1.434 . S
C1428 C1419 1.429 . S
C1428 N1425 1.350 . S
C1428 C1427 1.434 . S
C1429 C1430 1.369 . S
C1429 C1431 1.419 . S
C1429 H1433 0.930 . S
C1430 C1429 1.369 . S
C1430 C1439 1.429 . S
C1431 C1429 1.419 . S
C1431 C1432 1.363 . S
C1431 H1434 0.929 . S
C1432 C1431 1.363 . S
C1432 C1438 1.428 . S
H1433 C1429 0.930 . S
H1434 C1431 0.929 . S
S1435 N1436 1.613 . S
S1435 N1437 1.610 . S
N1436 S1435 1.613 . S
N1436 C1439 1.350 . S
N1437 S1435 1.610 . S
N1437 C1438 1.351 . S
C1438 C1432 1.428 . S
C1438 N1437 1.351 . S
C1438 C1439 1.434 . S
C1439 C1430 1.429 . S
C1439 N1436 1.350 . S
C1439 C1438 1.434 . S
C1440 C1441 1.369 . S
C1440 C1442 1.430 1_655 S
C1440 H1444 0.930 . S
C1441 C1440 1.369 . S
C1441 C1450 1.429 1_565 S
C1442 C1440 1.430 1_455 S
C1442 C1443 1.351 1_565 S
C1442 H1445 0.932 . S
C1443 C1442 1.351 1_545 S
C1443 C1449 1.428 . S
H1444 C1440 0.930 . S
H1445 C1442 0.932 . S
S1446 N1447 1.613 . S
S1446 N1448 1.610 1_655 S
N1447 S1446 1.613 . S
N1447 C1450 1.350 . S
N1448 S1446 1.610 1_455 S
N1448 C1449 1.351 . S
C1449 C1443 1.428 . S
C1449 N1448 1.351 . S
C1449 C1450 1.434 1_455 S
C1450 C1441 1.429 1_545 S
C1450 N1447 1.350 . S
C1450 C1449 1.434 1_655 S
C1451 C1452 1.369 . S
C1451 C1453 1.419 . S
C1451 H1455 0.930 . S
C1452 C1451 1.369 . S
C1452 C1461 1.429 . S
C1453 C1451 1.419 . S
C1453 C1454 1.363 . S
C1453 H1456 0.929 . S
C1454 C1453 1.363 . S
C1454 C1460 1.428 . S
H1455 C1451 0.930 . S
H1456 C1453 0.929 . S
S1457 N1458 1.613 . S
S1457 N1459 1.610 . S
N1458 S1457 1.613 . S
N1458 C1461 1.350 . S
N1459 S1457 1.610 . S
N1459 C1460 1.351 . S
C1460 C1454 1.428 . S
C1460 N1459 1.351 . S
C1460 C1461 1.434 . S
C1461 C1452 1.429 . S
C1461 N1458 1.350 . S
C1461 C1460 1.434 . S
C1462 C1463 1.369 . S
C1462 C1464 1.419 1_655 S
C1462 H1466 0.930 . S
C1463 C1462 1.369 . S
C1463 C1472 1.429 . S
C1464 C1462 1.419 1_455 S
C1464 C1465 1.363 . S
C1464 H1467 0.929 . S
C1465 C1464 1.363 . S
C1465 C1471 1.428 . S
H1466 C1462 0.930 . S
H1467 C1464 0.929 . S
S1468 N1469 1.613 . S
S1468 N1470 1.610 1_655 S
N1469 S1468 1.613 . S
N1469 C1472 1.350 . S
N1470 S1468 1.610 1_455 S
N1470 C1471 1.351 . S
C1471 C1465 1.428 . S
C1471 N1470 1.351 . S
C1471 C1472 1.434 1_455 S
C1472 C1463 1.429 . S
C1472 N1469 1.350 . S
C1472 C1471 1.434 1_655 S
C1473 C1474 1.369 . S
C1473 C1475 1.419 . S
C1473 H1477 0.930 . S
C1474 C1473 1.369 . S
C1474 C1483 1.429 1_545 S
C1475 C1473 1.419 . S
C1475 C1476 1.363 1_545 S
C1475 H1478 0.929 . S
C1476 C1475 1.363 1_565 S
C1476 C1482 1.428 . S
H1477 C1473 0.930 . S
H1478 C1475 0.929 . S
S1479 N1480 1.613 . S
S1479 N1481 1.610 . S
N1480 S1479 1.613 . S
N1480 C1483 1.350 . S
N1481 S1479 1.610 . S
N1481 C1482 1.351 . S
C1482 C1476 1.428 . S
C1482 N1481 1.351 . S
C1482 C1483 1.434 . S
C1483 C1474 1.429 1_565 S
C1483 N1480 1.350 . S
C1483 C1482 1.434 . S
C1484 C1485 1.369 . S
C1484 C1486 1.419 . S
C1484 H1488 0.930 . S
C1485 C1484 1.369 . S
C1485 C1494 1.429 . S
C1486 C1484 1.419 . S
C1486 C1487 1.363 . S
C1486 H1489 0.929 . S
C1487 C1486 1.363 . S
C1487 C1493 1.428 . S
H1488 C1484 0.930 . S
H1489 C1486 0.929 . S
S1490 N1491 1.613 . S
S1490 N1492 1.610 . S
N1491 S1490 1.613 . S
N1491 C1494 1.350 . S
N1492 S1490 1.610 . S
N1492 C1493 1.351 . S
C1493 C1487 1.428 . S
C1493 N1492 1.351 . S
C1493 C1494 1.434 . S
C1494 C1485 1.429 . S
C1494 N1491 1.350 . S
C1494 C1493 1.434 . S
C1495 C1496 1.369 . S
C1495 C1497 1.419 1_655 S
C1495 H1499 0.930 . S
C1496 C1495 1.369 . S
C1496 C1505 1.429 . S
C1497 C1495 1.419 1_455 S
C1497 C1498 1.363 . S
C1497 H1500 0.929 . S
C1498 C1497 1.363 . S
C1498 C1504 1.428 . S
H1499 C1495 0.930 . S
H1500 C1497 0.929 . S
S1501 N1502 1.613 1_455 S
S1501 N1503 1.610 . S
N1502 S1501 1.613 1_655 S
N1502 C1505 1.350 . S
N1503 S1501 1.610 . S
N1503 C1504 1.351 . S
C1504 C1498 1.428 . S
C1504 N1503 1.351 . S
C1504 C1505 1.434 1_455 S
C1505 C1496 1.429 . S
C1505 N1502 1.350 . S
C1505 C1504 1.434 1_655 S
C1506 C1507 1.369 1_565 S
C1506 C1508 1.419 . S
C1506 H1510 0.930 . S
C1507 C1506 1.369 1_545 S
C1507 C1516 1.429 . S
C1508 C1506 1.419 . S
C1508 C1509 1.363 . S
C1508 H1511 0.929 . S
C1509 C1508 1.363 . S
C1509 C1515 1.428 1_565 S
H1510 C1506 0.930 . S
H1511 C1508 0.929 . S
S1512 N1513 1.613 . S
S1512 N1514 1.610 . S
N1513 S1512 1.613 . S
N1513 C1516 1.350 . S
N1514 S1512 1.610 . S
N1514 C1515 1.351 . S
C1515 C1509 1.428 1_545 S
C1515 N1514 1.351 . S
C1515 C1516 1.434 . S
C1516 C1507 1.429 . S
C1516 N1513 1.350 . S
C1516 C1515 1.434 . S
C1517 C1518 1.369 . S
C1517 C1519 1.419 1_455 S
C1517 H1521 0.930 . S
C1518 C1517 1.369 . S
C1518 C1527 1.429 1_554 S
C1519 C1517 1.419 1_655 S
C1519 C1520 1.363 1_554 S
C1519 H1522 0.929 . S
C1520 C1519 1.363 1_556 S
C1520 C1526 1.428 . S
H1521 C1517 0.930 . S
H1522 C1519 0.929 . S
S1523 N1524 1.613 . S
S1523 N1525 1.610 1_455 S
N1524 S1523 1.613 . S
N1524 C1527 1.350 . S
N1525 S1523 1.610 1_655 S
N1525 C1526 1.351 . S
C1526 C1520 1.428 . S
C1526 N1525 1.351 . S
C1526 C1527 1.434 1_655 S
C1527 C1518 1.429 1_556 S
C1527 N1524 1.350 . S
C1527 C1526 1.434 1_455 S
C1528 C1529 1.369 . S
C1528 C1530 1.419 . S
C1528 H1532 0.930 . S
C1529 C1528 1.369 . S
C1529 C1538 1.429 1_556 S
C1530 C1528 1.419 . S
C1530 C1531 1.363 1_556 S
C1530 H1533 0.929 . S
C1531 C1530 1.363 1_554 S
C1531 C1537 1.428 . S
H1532 C1528 0.930 . S
H1533 C1530 0.929 . S
S1534 N1535 1.613 . S
S1534 N1536 1.610 . S
N1535 S1534 1.613 . S
N1535 C1538 1.350 . S
N1536 S1534 1.610 . S
N1536 C1537 1.351 . S
C1537 C1531 1.428 . S
C1537 N1536 1.351 . S
C1537 C1538 1.434 . S
C1538 C1529 1.429 1_554 S
C1538 N1535 1.350 . S
C1538 C1537 1.434 . S
C1539 C1540 1.369 . S
C1539 C1541 1.419 . S
C1539 H1543 0.930 . S
C1540 C1539 1.369 . S
C1540 C1549 1.429 . S
C1541 C1539 1.419 . S
C1541 C1542 1.363 . S
C1541 H1544 0.929 . S
C1542 C1541 1.363 . S
C1542 C1548 1.428 . S
H1543 C1539 0.930 . S
H1544 C1541 0.929 . S
S1545 N1546 1.613 . S
S1545 N1547 1.610 . S
N1546 S1545 1.613 . S
N1546 C1549 1.350 . S
N1547 S1545 1.610 . S
N1547 C1548 1.351 . S
C1548 C1542 1.428 . S
C1548 N1547 1.351 . S
C1548 C1549 1.434 . S
C1549 C1540 1.429 . S
C1549 N1546 1.350 . S
C1549 C1548 1.434 . S
C1550 C1551 1.369 1_554 S
C1550 C1552 1.419 . S
C1550 H1554 0.930 . S
C1551 C1550 1.369 1_556 S
C1551 C1560 1.429 . S
C1552 C1550 1.419 . S
C1552 C1553 1.363 . S
C1552 H1555 0.929 . S
C1553 C1552 1.363 . S
C1553 C1559 1.428 1_554 S
H1554 C1550 0.930 . S
H1555 C1552 0.929 . S
S1556 N1557 1.613 . S
S1556 N1558 1.610 . S
N1557 S1556 1.613 . S
N1557 C1560 1.350 . S
N1558 S1556 1.610 . S
N1558 C1559 1.351 . S
C1559 C1553 1.428 1_556 S
C1559 N1558 1.351 . S
C1559 C1560 1.434 . S
C1560 C1551 1.429 . S
C1560 N1557 1.350 . S
C1560 C1559 1.434 . S
C1561 C1562 1.369 . S
C1561 C1563 1.419 . S
C1561 H1565 0.930 . S
C1562 C1561 1.369 . S
C1562 C1571 1.429 . S
C1563 C1561 1.419 . S
C1563 C1564 1.363 . S
C1563 H1566 0.929 . S
C1564 C1563 1.363 . S
C1564 C1570 1.428 . S
H1565 C1561 0.930 . S
H1566 C1563 0.929 . S
S1567 N1568 1.613 . S
S1567 N1569 1.610 . S
N1568 S1567 1.613 . S
N1568 C1571 1.350 . S
N1569 S1567 1.610 . S
N1569 C1570 1.351 . S
C1570 C1564 1.428 . S
C1570 N1569 1.351 . S
C1570 C1571 1.434 . S
C1571 C1562 1.429 . S
C1571 N1568 1.350 . S
C1571 C1570 1.434 . S
C1572 C1573 1.369 1_554 S
C1572 C1574 1.419 . S
C1572 H1576 0.930 . S
C1573 C1572 1.369 1_556 S
C1573 C1582 1.429 1_565 S
C1574 C1572 1.419 . S
C1574 C1575 1.363 1_565 S
C1574 H1577 0.929 . S
C1575 C1574 1.363 1_545 S
C1575 C1581 1.428 1_554 S
H1576 C1572 0.930 . S
H1577 C1574 0.929 . S
S1578 N1579 1.613 . S
S1578 N1580 1.610 . S
N1579 S1578 1.613 . S
N1579 C1582 1.350 . S
N1580 S1578 1.610 . S
N1580 C1581 1.351 . S
C1581 C1575 1.428 1_556 S
C1581 N1580 1.351 . S
C1581 C1582 1.434 . S
C1582 C1573 1.429 1_545 S
C1582 N1579 1.350 . S
C1582 C1581 1.434 . S
C1583 C1584 1.369 . S
C1583 C1585 1.419 . S
C1583 H1587 0.930 . S
C1584 C1583 1.369 . S
C1584 C1593 1.429 . S
C1585 C1583 1.419 . S
C1585 C1586 1.363 . S
C1585 H1588 0.929 . S
C1586 C1585 1.363 . S
C1586 C1592 1.428 . S
H1587 C1583 0.930 . S
H1588 C1585 0.929 . S
S1589 N1590 1.613 . S
S1589 N1591 1.610 . S
N1590 S1589 1.613 . S
N1590 C1593 1.350 . S
N1591 S1589 1.610 . S
N1591 C1592 1.351 . S
C1592 C1586 1.428 . S
C1592 N1591 1.351 . S
C1592 C1593 1.434 . S
C1593 C1584 1.429 . S
C1593 N1590 1.350 . S
C1593 C1592 1.434 . S
C1594 C1595 1.369 . S
C1594 C1596 1.419 . S
C1594 H1598 0.930 . S
C1595 C1594 1.369 . S
C1595 C1604 1.429 . S
C1596 C1594 1.419 . S
C1596 C1597 1.363 . S
C1596 H1599 0.929 . S
C1597 C1596 1.363 . S
C1597 C1603 1.428 . S
H1598 C1594 0.930 . S
H1599 C1596 0.929 . S
S1600 N1601 1.613 . S
S1600 N1602 1.610 . S
N1601 S1600 1.613 . S
N1601 C1604 1.350 . S
N1602 S1600 1.610 . S
N1602 C1603 1.351 . S
C1603 C1597 1.428 . S
C1603 N1602 1.351 . S
C1603 C1604 1.434 . S
C1604 C1595 1.429 . S
C1604 N1601 1.350 . S
C1604 C1603 1.434 . S
C1605 C1606 1.369 . S
C1605 C1607 1.419 . S
C1605 H1609 0.930 . S
C1606 C1605 1.369 . S
C1606 C1615 1.429 . S
C1607 C1605 1.419 . S
C1607 C1608 1.363 . S
C1607 H1610 0.929 . S
C1608 C1607 1.363 . S
C1608 C1614 1.428 . S
H1609 C1605 0.930 . S
H1610 C1607 0.929 . S
S1611 N1612 1.613 . S
S1611 N1613 1.610 . S
N1612 S1611 1.613 . S
N1612 C1615 1.350 . S
N1613 S1611 1.610 . S
N1613 C1614 1.351 . S
C1614 C1608 1.428 . S
C1614 N1613 1.351 . S
C1614 C1615 1.434 . S
C1615 C1606 1.429 . S
C1615 N1612 1.350 . S
C1615 C1614 1.434 . S
C1616 C1617 1.369 1_545 S
C1616 C1618 1.419 . S
C1616 H1620 0.930 . S
C1617 C1616 1.369 1_565 S
C1617 C1626 1.429 . S
C1618 C1616 1.419 . S
C1618 C1619 1.362 . S
C1618 H1621 0.929 . S
C1619 C1618 1.362 . S
C1619 C1625 1.430 1_545 S
H1620 C1616 0.930 . S
H1621 C1618 0.929 . S
S1622 N1623 1.613 . S
S1622 N1624 1.610 . S
N1623 S1622 1.613 . S
N1623 C1626 1.350 . S
N1624 S1622 1.610 . S
N1624 C1625 1.351 . S
C1625 C1619 1.430 1_565 S
C1625 N1624 1.351 . S
C1625 C1626 1.434 . S
C1626 C1617 1.429 . S
C1626 N1623 1.350 . S
C1626 C1625 1.434 . S
C1627 C1628 1.369 . S
C1627 C1629 1.419 . S
C1627 H1631 0.930 . S
C1628 C1627 1.369 . S
C1628 C1637 1.429 . S
C1629 C1627 1.419 . S
C1629 C1630 1.363 . S
C1629 H1632 0.929 . S
C1630 C1629 1.363 . S
C1630 C1636 1.428 . S
H1631 C1627 0.930 . S
H1632 C1629 0.929 . S
S1633 N1634 1.613 . S
S1633 N1635 1.610 . S
N1634 S1633 1.613 . S
N1634 C1637 1.350 . S
N1635 S1633 1.610 . S
N1635 C1636 1.351 . S
C1636 C1630 1.428 . S
C1636 N1635 1.351 . S
C1636 C1637 1.434 . S
C1637 C1628 1.429 . S
C1637 N1634 1.350 . S
C1637 C1636 1.434 . S
C1638 C1639 1.369 . S
C1638 C1640 1.419 . S
C1638 H1642 0.930 . S
C1639 C1638 1.369 . S
C1639 C1648 1.429 . S
C1640 C1638 1.419 . S
C1640 C1641 1.363 . S
C1640 H1643 0.929 . S
C1641 C1640 1.363 . S
C1641 C1647 1.428 . S
H1642 C1638 0.930 . S
H1643 C1640 0.929 . S
S1644 N1645 1.613 . S
S1644 N1646 1.610 . S
N1645 S1644 1.613 . S
N1645 C1648 1.350 . S
N1646 S1644 1.610 . S
N1646 C1647 1.351 . S
C1647 C1641 1.428 . S
C1647 N1646 1.351 . S
C1647 C1648 1.434 . S
C1648 C1639 1.429 . S
C1648 N1645 1.350 . S
C1648 C1647 1.434 . S
C1649 C1650 1.357 1_565 S
C1649 C1651 1.419 . S
C1649 H1653 0.930 . S
C1650 C1649 1.357 1_545 S
C1650 C1659 1.436 . S
C1651 C1649 1.419 . S
C1651 C1652 1.363 . S
C1651 H1654 0.929 . S
C1652 C1651 1.363 . S
C1652 C1658 1.428 1_565 S
H1653 C1649 0.930 . S
H1654 C1651 0.929 . S
S1655 N1656 1.613 1_655 S
S1655 N1657 1.610 . S
N1656 S1655 1.613 1_455 S
N1656 C1659 1.350 1_455 S
N1657 S1655 1.610 . S
N1657 C1658 1.351 . S
C1658 C1652 1.428 1_545 S
C1658 N1657 1.351 . S
C1658 C1659 1.434 . S
C1659 C1650 1.436 . S
C1659 N1656 1.350 1_655 S
C1659 C1658 1.434 . S
C1660 C1661 1.368 . S
C1660 C1662 1.419 . S
C1660 H1664 0.930 . S
C1661 C1660 1.368 . S
C1661 C1670 1.431 1_565 S
C1662 C1660 1.419 . S
C1662 C1663 1.363 1_565 S
C1662 H1665 0.929 . S
C1663 C1662 1.363 1_545 S
C1663 C1669 1.428 . S
H1664 C1660 0.930 . S
H1665 C1662 0.929 . S
S1666 N1667 1.613 . S
S1666 N1668 1.610 . S
N1667 S1666 1.613 . S
N1667 C1670 1.350 . S
N1668 S1666 1.610 . S
N1668 C1669 1.351 . S
C1669 C1663 1.428 . S
C1669 N1668 1.351 . S
C1669 C1670 1.434 . S
C1670 C1661 1.431 1_545 S
C1670 N1667 1.350 . S
C1670 C1669 1.434 . S
C1671 C1672 1.369 . S
C1671 C1673 1.419 . S
C1671 H1675 0.930 . S
C1672 C1671 1.369 . S
C1672 C1681 1.429 . S
C1673 C1671 1.419 . S
C1673 C1674 1.363 . S
C1673 H1676 0.929 . S
C1674 C1673 1.363 . S
C1674 C1680 1.428 . S
H1675 C1671 0.930 . S
H1676 C1673 0.929 . S
S1677 N1678 1.613 . S
S1677 N1679 1.610 . S
N1678 S1677 1.613 . S
N1678 C1681 1.350 . S
N1679 S1677 1.610 . S
N1679 C1680 1.351 . S
C1680 C1674 1.428 . S
C1680 N1679 1.351 . S
C1680 C1681 1.434 . S
C1681 C1672 1.429 . S
C1681 N1678 1.350 . S
C1681 C1680 1.434 . S
C1682 C1683 1.369 . S
C1682 C1684 1.419 . S
C1682 H1686 0.930 . S
C1683 C1682 1.369 . S
C1683 C1692 1.429 . S
C1684 C1682 1.419 . S
C1684 C1685 1.363 . S
C1684 H1687 0.929 . S
C1685 C1684 1.363 . S
C1685 C1691 1.428 . S
H1686 C1682 0.930 . S
H1687 C1684 0.929 . S
S1688 N1689 1.613 . S
S1688 N1690 1.610 . S
N1689 S1688 1.613 . S
N1689 C1692 1.350 . S
N1690 S1688 1.610 . S
N1690 C1691 1.351 . S
C1691 C1685 1.428 . S
C1691 N1690 1.351 . S
C1691 C1692 1.434 . S
C1692 C1683 1.429 . S
C1692 N1689 1.350 . S
C1692 C1691 1.434 . S
C1693 C1694 1.346 1_545 S
C1693 C1695 1.419 . S
C1693 H1697 0.930 . S
C1694 C1693 1.346 1_565 S
C1694 C1703 1.447 . S
C1695 C1693 1.419 . S
C1695 C1696 1.363 . S
C1695 H1698 0.929 . S
C1696 C1695 1.363 . S
C1696 C1702 1.428 1_545 S
H1697 C1693 0.930 . S
H1698 C1695 0.929 . S
S1699 N1700 1.613 . S
S1699 N1701 1.610 . S
N1700 S1699 1.613 . S
N1700 C1703 1.350 . S
N1701 S1699 1.610 . S
N1701 C1702 1.351 . S
C1702 C1696 1.428 1_565 S
C1702 N1701 1.351 . S
C1702 C1703 1.434 . S
C1703 C1694 1.447 . S
C1703 N1700 1.350 . S
C1703 C1702 1.434 . S
C1704 C1705 1.369 . S
C1704 C1706 1.419 . S
C1704 H1708 0.930 . S
C1705 C1704 1.369 . S
C1705 C1714 1.429 . S
C1706 C1704 1.419 . S
C1706 C1707 1.363 . S
C1706 H1709 0.929 . S
C1707 C1706 1.363 . S
C1707 C1713 1.428 . S
H1708 C1704 0.930 . S
H1709 C1706 0.929 . S
S1710 N1711 1.613 . S
S1710 N1712 1.610 . S
N1711 S1710 1.613 . S
N1711 C1714 1.350 . S
N1712 S1710 1.610 . S
N1712 C1713 1.351 . S
C1713 C1707 1.428 . S
C1713 N1712 1.351 . S
C1713 C1714 1.434 . S
C1714 C1705 1.429 . S
C1714 N1711 1.350 . S
C1714 C1713 1.434 . S
C1715 C1716 1.369 . S
C1715 C1717 1.419 . S
C1715 H1719 0.930 . S
C1716 C1715 1.369 . S
C1716 C1725 1.429 . S
C1717 C1715 1.419 . S
C1717 C1718 1.363 . S
C1717 H1720 0.929 1_655 S
C1718 C1717 1.363 . S
C1718 C1724 1.428 . S
H1719 C1715 0.930 . S
H1720 C1717 0.929 1_455 S
S1721 N1722 1.613 . S
S1721 N1723 1.610 . S
N1722 S1721 1.613 . S
N1722 C1725 1.350 . S
N1723 S1721 1.610 . S
N1723 C1724 1.351 . S
C1724 C1718 1.428 . S
C1724 N1723 1.351 . S
C1724 C1725 1.434 . S
C1725 C1716 1.429 . S
C1725 N1722 1.350 . S
C1725 C1724 1.434 . S
C1726 C1727 1.369 . S
C1726 C1728 1.419 . S
C1726 H1730 0.930 . S
C1727 C1726 1.369 . S
C1727 C1736 1.429 . S
C1728 C1726 1.419 . S
C1728 C1729 1.363 . S
C1728 H1731 0.929 . S
C1729 C1728 1.363 . S
C1729 C1735 1.428 . S
H1730 C1726 0.930 . S
H1731 C1728 0.929 . S
S1732 N1733 1.613 . S
S1732 N1734 1.610 . S
N1733 S1732 1.613 . S
N1733 C1736 1.350 . S
N1734 S1732 1.610 . S
N1734 C1735 1.351 . S
C1735 C1729 1.428 . S
C1735 N1734 1.351 . S
C1735 C1736 1.434 . S
C1736 C1727 1.429 . S
C1736 N1733 1.350 . S
C1736 C1735 1.434 . S
C1737 C1738 1.369 . S
C1737 C1739 1.419 . S
C1737 H1741 0.930 . S
C1738 C1737 1.369 . S
C1738 C1747 1.429 . S
C1739 C1737 1.419 . S
C1739 C1740 1.363 . S
C1739 H1742 0.929 . S
C1740 C1739 1.363 . S
C1740 C1746 1.428 . S
H1741 C1737 0.930 . S
H1742 C1739 0.929 . S
S1743 N1744 1.613 1_655 S
S1743 N1745 1.610 . S
N1744 S1743 1.613 1_455 S
N1744 C1747 1.350 1_455 S
N1745 S1743 1.610 . S
N1745 C1746 1.351 . S
C1746 C1740 1.428 . S
C1746 N1745 1.351 . S
C1746 C1747 1.434 . S
C1747 C1738 1.429 . S
C1747 N1744 1.350 1_655 S
C1747 C1746 1.434 . S
C1748 C1749 1.369 . S
C1748 C1750 1.419 . S
C1748 H1752 0.930 . S
C1749 C1748 1.369 . S
C1749 C1758 1.429 . S
C1750 C1748 1.419 . S
C1750 C1751 1.363 . S
C1750 H1753 0.929 . S
C1751 C1750 1.363 . S
C1751 C1757 1.428 . S
H1752 C1748 0.930 . S
H1753 C1750 0.929 . S
S1754 N1755 1.613 . S
S1754 N1756 1.610 . S
N1755 S1754 1.613 . S
N1755 C1758 1.350 . S
N1756 S1754 1.610 . S
N1756 C1757 1.351 . S
C1757 C1751 1.428 . S
C1757 N1756 1.351 . S
C1757 C1758 1.434 . S
C1758 C1749 1.429 . S
C1758 N1755 1.350 . S
C1758 C1757 1.434 . S
C1759 C1760 1.369 . S
C1759 C1761 1.419 . S
C1759 H1763 0.930 . S
C1760 C1759 1.369 . S
C1760 C1769 1.429 . S
C1761 C1759 1.419 . S
C1761 C1762 1.363 . S
C1761 H1764 0.929 1_455 S
C1762 C1761 1.363 . S
C1762 C1768 1.428 . S
H1763 C1759 0.930 . S
H1764 C1761 0.929 1_655 S
S1765 N1766 1.613 . S
S1765 N1767 1.610 . S
N1766 S1765 1.613 . S
N1766 C1769 1.350 . S
N1767 S1765 1.610 . S
N1767 C1768 1.351 . S
C1768 C1762 1.428 . S
C1768 N1767 1.351 . S
C1768 C1769 1.434 . S
C1769 C1760 1.429 . S
C1769 N1766 1.350 . S
C1769 C1768 1.434 . S
C1770 C1771 1.369 . S
C1770 C1772 1.419 . S
C1770 H1774 0.930 . S
C1771 C1770 1.369 . S
C1771 C1780 1.429 . S
C1772 C1770 1.419 . S
C1772 C1773 1.363 . S
C1772 H1775 0.929 . S
C1773 C1772 1.363 . S
C1773 C1779 1.428 . S
H1774 C1770 0.930 . S
H1775 C1772 0.929 . S
S1776 N1777 1.613 . S
S1776 N1778 1.610 . S
N1777 S1776 1.613 . S
N1777 C1780 1.350 . S
N1778 S1776 1.610 . S
N1778 C1779 1.351 . S
C1779 C1773 1.428 . S
C1779 N1778 1.351 . S
C1779 C1780 1.434 . S
C1780 C1771 1.429 . S
C1780 N1777 1.350 . S
C1780 C1779 1.434 . S
C1781 C1782 1.369 . S
C1781 C1783 1.419 . S
C1781 H1785 0.930 1_455 S
C1782 C1781 1.369 . S
C1782 C1791 1.429 . S
C1783 C1781 1.419 . S
C1783 C1784 1.363 . S
C1783 H1786 0.929 . S
C1784 C1783 1.363 . S
C1784 C1790 1.428 . S
H1785 C1781 0.930 1_655 S
H1786 C1783 0.929 . S
S1787 N1788 1.613 . S
S1787 N1789 1.610 . S
N1788 S1787 1.613 . S
N1788 C1791 1.350 . S
N1789 S1787 1.610 . S
N1789 C1790 1.351 . S
C1790 C1784 1.428 . S
C1790 N1789 1.351 . S
C1790 C1791 1.434 . S
C1791 C1782 1.429 . S
C1791 N1788 1.350 . S
C1791 C1790 1.434 . S
C1792 C1793 1.369 . S
C1792 C1794 1.419 . S
C1792 H1796 0.930 . S
C1793 C1792 1.369 . S
C1793 C1802 1.429 1_565 S
C1794 C1792 1.419 . S
C1794 C1795 1.349 1_565 S
C1794 H1797 0.929 . S
C1795 C1794 1.349 1_545 S
C1795 C1801 1.438 . S
H1796 C1792 0.930 . S
H1797 C1794 0.929 . S
S1798 N1799 1.613 . S
S1798 N1800 1.610 . S
N1799 S1798 1.613 . S
N1799 C1802 1.350 . S
N1800 S1798 1.610 . S
N1800 C1801 1.351 . S
C1801 C1795 1.438 . S
C1801 N1800 1.351 . S
C1801 C1802 1.434 . S
C1802 C1793 1.429 1_545 S
C1802 N1799 1.350 . S
C1802 C1801 1.434 . S
C1803 C1804 1.369 . S
C1803 C1805 1.419 . S
C1803 H1807 0.930 . S
C1804 C1803 1.369 . S
C1804 C1813 1.429 . S
C1805 C1803 1.419 . S
C1805 C1806 1.363 . S
C1805 H1808 0.929 . S
C1806 C1805 1.363 . S
C1806 C1812 1.428 . S
H1807 C1803 0.930 . S
H1808 C1805 0.929 . S
S1809 N1810 1.613 . S
S1809 N1811 1.610 . S
N1810 S1809 1.613 . S
N1810 C1813 1.350 . S
N1811 S1809 1.610 . S
N1811 C1812 1.351 . S
C1812 C1806 1.428 . S
C1812 N1811 1.351 . S
C1812 C1813 1.434 . S
C1813 C1804 1.429 . S
C1813 N1810 1.350 . S
C1813 C1812 1.434 . S
C1814 C1815 1.369 . S
C1814 C1816 1.419 . S
C1814 H1818 0.930 . S
C1815 C1814 1.369 . S
C1815 C1824 1.429 . S
C1816 C1814 1.419 . S
C1816 C1817 1.363 . S
C1816 H1819 0.929 . S
C1817 C1816 1.363 . S
C1817 C1823 1.428 . S
H1818 C1814 0.930 . S
H1819 C1816 0.929 . S
S1820 N1821 1.613 . S
S1820 N1822 1.610 . S
N1821 S1820 1.613 . S
N1821 C1824 1.350 . S
N1822 S1820 1.610 . S
N1822 C1823 1.351 . S
C1823 C1817 1.428 . S
C1823 N1822 1.351 . S
C1823 C1824 1.434 . S
C1824 C1815 1.429 . S
C1824 N1821 1.350 . S
C1824 C1823 1.434 . S
C1825 C1826 1.371 . S
C1825 C1827 1.419 1_545 S
C1825 H1829 0.930 . S
C1826 C1825 1.371 . S
C1826 C1835 1.425 1_545 S
C1827 C1825 1.419 1_565 S
C1827 C1828 1.363 . S
C1827 H1830 0.929 1_565 S
C1828 C1827 1.363 . S
C1828 C1834 1.428 . S
H1829 C1825 0.930 . S
H1830 C1827 0.929 1_545 S
S1831 N1832 1.613 . S
S1831 N1833 1.610 . S
N1832 S1831 1.613 . S
N1832 C1835 1.350 . S
N1833 S1831 1.610 . S
N1833 C1834 1.351 . S
C1834 C1828 1.428 . S
C1834 N1833 1.351 . S
C1834 C1835 1.434 . S
C1835 C1826 1.425 1_565 S
C1835 N1832 1.350 . S
C1835 C1834 1.434 . S
C1836 C1837 1.354 1_545 S
C1836 C1838 1.419 . S
C1836 H1840 0.930 . S
C1837 C1836 1.354 1_565 S
C1837 C1846 1.440 . S
C1838 C1836 1.419 . S
C1838 C1839 1.363 . S
C1838 H1841 0.929 . S
C1839 C1838 1.363 . S
C1839 C1845 1.428 1_545 S
H1840 C1836 0.930 . S
H1841 C1838 0.929 . S
S1842 N1843 1.613 . S
S1842 N1844 1.610 . S
N1843 S1842 1.613 . S
N1843 C1846 1.350 . S
N1844 S1842 1.610 . S
N1844 C1845 1.351 . S
C1845 C1839 1.428 1_565 S
C1845 N1844 1.351 . S
C1845 C1846 1.434 . S
C1846 C1837 1.440 . S
C1846 N1843 1.350 . S
C1846 C1845 1.434 . S
C1847 C1848 1.369 . S
C1847 C1849 1.419 . S
C1847 H1851 0.930 . S
C1848 C1847 1.369 . S
C1848 C1857 1.429 . S
C1849 C1847 1.419 . S
C1849 C1850 1.363 . S
C1849 H1852 0.929 . S
C1850 C1849 1.363 . S
C1850 C1856 1.428 . S
H1851 C1847 0.930 . S
H1852 C1849 0.929 . S
S1853 N1854 1.613 . S
S1853 N1855 1.610 . S
N1854 S1853 1.613 . S
N1854 C1857 1.350 . S
N1855 S1853 1.610 . S
N1855 C1856 1.351 . S
C1856 C1850 1.428 . S
C1856 N1855 1.351 . S
C1856 C1857 1.434 . S
C1857 C1848 1.429 . S
C1857 N1854 1.350 . S
C1857 C1856 1.434 . S
C1858 C1859 1.369 . S
C1858 C1860 1.419 . S
C1858 H1862 0.930 . S
C1859 C1858 1.369 . S
C1859 C1868 1.429 . S
C1860 C1858 1.419 . S
C1860 C1861 1.363 . S
C1860 H1863 0.929 . S
C1861 C1860 1.363 . S
C1861 C1867 1.428 . S
H1862 C1858 0.930 . S
H1863 C1860 0.929 . S
S1864 N1865 1.613 . S
S1864 N1866 1.610 . S
N1865 S1864 1.613 . S
N1865 C1868 1.350 . S
N1866 S1864 1.610 . S
N1866 C1867 1.351 . S
C1867 C1861 1.428 . S
C1867 N1866 1.351 . S
C1867 C1868 1.434 . S
C1868 C1859 1.429 . S
C1868 N1865 1.350 . S
C1868 C1867 1.434 . S
C1869 C1870 1.369 1_545 S
C1869 C1871 1.419 . S
C1869 H1873 0.930 1_545 S
C1870 C1869 1.369 1_565 S
C1870 C1879 1.428 1_565 S
C1871 C1869 1.419 . S
C1871 C1872 1.363 . S
C1871 H1874 0.929 . S
C1872 C1871 1.363 . S
C1872 C1878 1.428 . S
H1873 C1869 0.930 1_565 S
H1874 C1871 0.929 . S
S1875 N1876 1.613 . S
S1875 N1877 1.610 . S
N1876 S1875 1.613 . S
N1876 C1879 1.350 . S
N1877 S1875 1.610 . S
N1877 C1878 1.351 . S
C1878 C1872 1.428 . S
C1878 N1877 1.351 . S
C1878 C1879 1.434 . S
C1879 C1870 1.428 1_545 S
C1879 N1876 1.350 . S
C1879 C1878 1.434 . S
C1880 C1881 1.369 . S
C1880 C1882 1.419 . S
C1880 H1884 0.930 . S
C1881 C1880 1.369 . S
C1881 C1890 1.429 . S
C1882 C1880 1.419 . S
C1882 C1883 1.363 . S
C1882 H1885 0.929 . S
C1883 C1882 1.363 . S
C1883 C1889 1.428 . S
H1884 C1880 0.930 . S
H1885 C1882 0.929 . S
S1886 N1887 1.613 . S
S1886 N1888 1.610 . S
N1887 S1886 1.613 . S
N1887 C1890 1.350 . S
N1888 S1886 1.610 . S
N1888 C1889 1.351 . S
C1889 C1883 1.428 . S
C1889 N1888 1.351 . S
C1889 C1890 1.434 . S
C1890 C1881 1.429 . S
C1890 N1887 1.350 . S
C1890 C1889 1.434 . S
C1891 C1892 1.369 . S
C1891 C1893 1.419 . S
C1891 H1895 0.930 . S
C1892 C1891 1.369 . S
C1892 C1901 1.429 . S
C1893 C1891 1.419 . S
C1893 C1894 1.363 . S
C1893 H1896 0.929 . S
C1894 C1893 1.363 . S
C1894 C1900 1.428 . S
H1895 C1891 0.930 . S
H1896 C1893 0.929 . S
S1897 N1898 1.613 . S
S1897 N1899 1.610 . S
N1898 S1897 1.613 . S
N1898 C1901 1.350 . S
N1899 S1897 1.610 . S
N1899 C1900 1.351 . S
C1900 C1894 1.428 . S
C1900 N1899 1.351 . S
C1900 C1901 1.434 . S
C1901 C1892 1.429 . S
C1901 N1898 1.350 . S
C1901 C1900 1.434 . S
C1902 C1903 1.369 . S
C1902 C1904 1.419 . S
C1902 H1906 0.930 . S
C1903 C1902 1.369 . S
C1903 C1912 1.429 . S
C1904 C1902 1.419 . S
C1904 C1905 1.363 . S
C1904 H1907 0.929 . S
C1905 C1904 1.363 . S
C1905 C1911 1.428 . S
H1906 C1902 0.930 . S
H1907 C1904 0.929 . S
S1908 N1909 1.613 . S
S1908 N1910 1.610 . S
N1909 S1908 1.613 . S
N1909 C1912 1.350 . S
N1910 S1908 1.610 . S
N1910 C1911 1.351 . S
C1911 C1905 1.428 . S
C1911 N1910 1.351 . S
C1911 C1912 1.434 . S
C1912 C1903 1.429 . S
C1912 N1909 1.350 . S
C1912 C1911 1.434 . S
C1913 C1914 1.369 . S
C1913 C1915 1.419 . S
C1913 H1917 0.930 . S
C1914 C1913 1.369 . S
C1914 C1923 1.429 . S
C1915 C1913 1.419 . S
C1915 C1916 1.363 . S
C1915 H1918 0.929 . S
C1916 C1915 1.363 . S
C1916 C1922 1.428 . S
H1917 C1913 0.930 . S
H1918 C1915 0.929 . S
S1919 N1920 1.613 . S
S1919 N1921 1.610 . S
N1920 S1919 1.613 . S
N1920 C1923 1.350 . S
N1921 S1919 1.610 . S
N1921 C1922 1.351 . S
C1922 C1916 1.428 . S
C1922 N1921 1.351 . S
C1922 C1923 1.434 . S
C1923 C1914 1.429 . S
C1923 N1920 1.350 . S
C1923 C1922 1.434 . S
C1924 C1925 1.369 . S
C1924 C1926 1.419 . S
C1924 H1928 0.930 . S
C1925 C1924 1.369 . S
C1925 C1934 1.429 . S
C1926 C1924 1.419 . S
C1926 C1927 1.363 . S
C1926 H1929 0.929 . S
C1927 C1926 1.363 . S
C1927 C1933 1.428 . S
H1928 C1924 0.930 . S
H1929 C1926 0.929 . S
S1930 N1931 1.613 . S
S1930 N1932 1.610 . S
N1931 S1930 1.613 . S
N1931 C1934 1.350 . S
N1932 S1930 1.610 . S
N1932 C1933 1.351 . S
C1933 C1927 1.428 . S
C1933 N1932 1.351 . S
C1933 C1934 1.434 . S
C1934 C1925 1.429 . S
C1934 N1931 1.350 . S
C1934 C1933 1.434 . S
C1935 C1936 1.369 . S
C1935 C1937 1.419 . S
C1935 H1939 0.930 . S
C1936 C1935 1.369 . S
C1936 C1945 1.429 . S
C1937 C1935 1.419 . S
C1937 C1938 1.363 . S
C1937 H1940 0.929 . S
C1938 C1937 1.363 . S
C1938 C1944 1.428 . S
H1939 C1935 0.930 . S
H1940 C1937 0.929 . S
S1941 N1942 1.613 . S
S1941 N1943 1.610 . S
N1942 S1941 1.613 . S
N1942 C1945 1.350 . S
N1943 S1941 1.610 . S
N1943 C1944 1.351 . S
C1944 C1938 1.428 . S
C1944 N1943 1.351 . S
C1944 C1945 1.434 . S
C1945 C1936 1.429 . S
C1945 N1942 1.350 . S
C1945 C1944 1.434 . S
C1946 C1947 1.369 . S
C1946 C1948 1.419 . S
C1946 H1950 0.930 . S
C1947 C1946 1.369 . S
C1947 C1956 1.429 . S
C1948 C1946 1.419 . S
C1948 C1949 1.363 . S
C1948 H1951 0.929 . S
C1949 C1948 1.363 . S
C1949 C1955 1.428 . S
H1950 C1946 0.930 . S
H1951 C1948 0.929 . S
S1952 N1953 1.613 . S
S1952 N1954 1.610 . S
N1953 S1952 1.613 . S
N1953 C1956 1.350 . S
N1954 S1952 1.610 . S
N1954 C1955 1.351 . S
C1955 C1949 1.428 . S
C1955 N1954 1.351 . S
C1955 C1956 1.434 . S
C1956 C1947 1.429 . S
C1956 N1953 1.350 . S
C1956 C1955 1.434 . S
C1957 C1958 1.369 . S
C1957 C1959 1.419 . S
C1957 H1961 0.930 . S
C1958 C1957 1.369 . S
C1958 C1967 1.429 . S
C1959 C1957 1.419 . S
C1959 C1960 1.363 . S
C1959 H1962 0.929 . S
C1960 C1959 1.363 . S
C1960 C1966 1.428 . S
H1961 C1957 0.930 . S
H1962 C1959 0.929 . S
S1963 N1964 1.613 . S
S1963 N1965 1.610 . S
N1964 S1963 1.613 . S
N1964 C1967 1.350 . S
N1965 S1963 1.610 . S
N1965 C1966 1.351 . S
C1966 C1960 1.428 . S
C1966 N1965 1.351 . S
C1966 C1967 1.434 . S
C1967 C1958 1.429 . S
C1967 N1964 1.350 . S
C1967 C1966 1.434 . S
C1089 C33 1.483 . S
C1091 C67 1.482 . S
C1100 C135 1.482 . S
C1102 C101 1.483 . S
C1111 C203 1.481 . S
C1113 C169 1.483 . S
C1122 C271 1.481 . S
C1124 C237 1.483 . S
C1133 C339 1.482 . S
C1135 C305 1.483 . S
C1144 C407 1.483 . S
C1146 C373 1.482 . S
C1155 C441 1.482 . S
C1157 C475 1.483 . S
C1166 C543 1.483 . S
C1168 C509 1.482 . S
C1177 C577 1.483 . S
C1179 C611 1.482 . S
C1188 C645 1.482 . S
C1190 C679 1.483 . S
C1199 C747 1.482 . S
C1201 C713 1.483 . S
C1210 C781 1.482 . S
C1212 C815 1.482 . S
C1221 C849 1.483 . S
C1223 C883 1.482 . S
C1232 C917 1.482 . S
C1234 C951 1.483 . S
C1243 C985 1.481 . S
C1245 C1019 1.482 . S
C1254 C1053 1.481 . S
C1256 C1087 1.482 . S
C1265 C9 0.718 . S
C1267 C655 0.726 . S
C1276 C621 0.727 . S
C1278 C43 0.740 . S
C1287 C587 0.742 . S
C1289 C77 0.732 . S
C1298 C111 0.717 . S
C1300 C553 0.728 . S
C1309 C791 0.720 . S
C1311 C145 0.738 . S
C1320 C757 0.719 . S
C1322 C179 0.724 . S
C1331 C723 0.726 . S
C1333 C213 0.720 . S
C1342 C689 0.721 . S
C1344 C247 0.738 . S
C1353 C281 0.727 . S
C1355 C927 0.720 . S
C1364 C893 0.743 . S
C1366 C315 0.730 . S
C1375 C349 0.739 . S
C1377 C859 0.720 . S
C1386 C825 0.716 . S
C1388 C383 0.730 . S
C1397 C417 0.742 . S
C1399 C1063 0.733 . S
C1408 C451 0.716 . S
C1410 C1029 0.731 . S
C1419 C995 0.719 . S
C1421 C485 0.724 . S
C1430 C519 0.743 . S
C1432 C961 0.727 . S
C1441 C141 0.753 . S
C1443 C5 0.775 . S
C1452 C991 0.752 . S
C1454 C39 0.775 . S
C1463 C481 0.752 . S
C1465 C73 0.775 . S
C1474 C107 0.759 . S
C1476 C787 0.770 . S
C1485 C175 0.771 . S
C1487 C855 0.762 . S
C1496 C209 0.774 . S
C1498 C345 0.758 . S
C1507 C651 0.778 . S
C1509 C243 0.756 . S
C1518 C277 0.754 1_554 S
C1520 C413 0.774 1_556 S
C1529 C719 0.758 1_556 S
C1531 C311 0.771 1_554 S
C1540 C1059 0.757 . S
C1542 C379 0.771 . S
C1551 C447 0.775 1_556 S
C1553 C583 0.757 1_554 S
C1562 C923 0.758 . S
C1564 C515 0.772 . S
C1573 C685 0.774 1_556 S
C1575 C549 0.760 1_554 S
C1584 C1025 0.766 . S
C1586 C617 0.766 . S
C1595 C753 0.753 . S
C1597 C889 0.775 . S
C1606 C957 0.763 . S
C1608 C821 0.766 . S
C1617 C784 2.397 . S
C1619 C20 2.425 . S
C1628 C478 2.397 . S
C1630 C54 2.425 1_655 S
C1639 C988 2.398 . S
C1641 C88 2.425 . S
C1650 C122 2.431 1_655 S
C1652 C138 2.395 . S
C1661 C156 2.425 . S
C1663 C648 2.395 . S
C1672 C342 2.397 . S
C1674 C190 2.425 1_455 S
C1683 C224 2.426 . S
C1685 C852 2.396 . S
C1694 C258 2.431 1_455 S
C1696 C2 2.397 . S
C1705 C292 2.425 . S
C1707 C1056 2.397 . S
C1716 C206 2.398 . S
C1718 C326 2.425 1_655 S
C1727 C360 2.426 . S
C1729 C716 2.395 . S
C1738 C394 2.426 1_655 S
C1740 C410 2.395 . S
C1749 C428 2.424 . S
C1751 C920 2.398 . S
C1760 C70 2.398 . S
C1762 C462 2.425 1_455 S
C1771 C580 2.395 . S
C1773 C496 2.426 . S
C1782 C530 2.424 1_455 S
C1784 C274 2.398 . S
C1793 C240 2.395 . S
C1795 C564 2.430 . S
C1804 C1022 2.394 . S
C1806 C598 2.426 . S
C1815 C444 2.396 . S
C1817 C632 2.426 . S
C1826 C666 2.429 . S
C1828 C682 2.395 . S
C1837 C700 2.430 . S
C1839 C104 2.395 . S
C1848 C886 2.396 . S
C1850 C734 2.426 . S
C1859 C768 2.426 . S
C1861 C308 2.396 . S
C1870 C802 2.427 . S
C1872 C546 2.395 . S
C1881 C512 2.398 . S
C1883 C836 2.425 . S
C1892 C870 2.426 . S
C1894 C750 2.396 . S
C1903 C904 2.424 . S
C1905 C172 2.398 . S
C1914 C954 2.397 . S
C1916 C938 2.425 . S
C1925 C972 2.424 . S
C1927 C376 2.398 . S
C1936 C1006 2.426 . S
C1938 C614 2.395 . S
C1947 C36 2.394 . S
C1949 C1040 2.426 . S
C1958 C818 2.398 . S
C1960 C1074 2.425 . S
