# Generated by pormake.
# Topology can, (4)-cn, num edge types: 1
# Building blocks:
#     Node 0, Type 0, BuildingBlock: NAHDIM_clean_sbu_0, # of connection points: 4
#     Node 1, Type 0, BuildingBlock: NAHDIM_clean_sbu_0, # of connection points: 4
#     Node 2, Type 0, BuildingBlock: NAHDIM_clean_sbu_0, # of connection points: 4
#     Node 3, Type 0, BuildingBlock: NAHDIM_clean_sbu_0, # of connection points: 4
#     Node 4, Type 0, BuildingBlock: NAHDIM_clean_sbu_0, # of connection points: 4
#     Node 5, Type 0, BuildingBlock: NAHDIM_clean_sbu_0, # of connection points: 4
#     Node 6, Type 0, BuildingBlock: NAHDIM_clean_sbu_0, # of connection points: 4
#     Node 7, Type 0, BuildingBlock: NAHDIM_clean_sbu_0, # of connection points: 4
#     Node 8, Type 0, BuildingBlock: NAHDIM_clean_sbu_0, # of connection points: 4
#     Node 9, Type 0, BuildingBlock: NAHDIM_clean_sbu_0, # of connection points: 4
#     Node 10, Type 0, BuildingBlock: NAHDIM_clean_sbu_0, # of connection points: 4
#     Node 11, Type 0, BuildingBlock: NAHDIM_clean_sbu_0, # of connection points: 4
#     Edge 12, Type (0, 0), BuildingBlock: AJUNOK_clean_linker_0, # of connection points: 2
#     Edge 13, Type (0, 0), BuildingBlock: AJUNOK_clean_linker_0, # of connection points: 2
#     Edge 14, Type (0, 0), BuildingBlock: AJUNOK_clean_linker_0, # of connection points: 2
#     Edge 15, Type (0, 0), BuildingBlock: AJUNOK_clean_linker_0, # of connection points: 2
#     Edge 16, Type (0, 0), BuildingBlock: AJUNOK_clean_linker_0, # of connection points: 2
#     Edge 17, Type (0, 0), BuildingBlock: AJUNOK_clean_linker_0, # of connection points: 2
#     Edge 18, Type (0, 0), BuildingBlock: AJUNOK_clean_linker_0, # of connection points: 2
#     Edge 19, Type (0, 0), BuildingBlock: AJUNOK_clean_linker_0, # of connection points: 2
#     Edge 20, Type (0, 0), BuildingBlock: AJUNOK_clean_linker_0, # of connection points: 2
#     Edge 21, Type (0, 0), BuildingBlock: AJUNOK_clean_linker_0, # of connection points: 2
#     Edge 22, Type (0, 0), BuildingBlock: AJUNOK_clean_linker_0, # of connection points: 2
#     Edge 23, Type (0, 0), BuildingBlock: AJUNOK_clean_linker_0, # of connection points: 2
#     Edge 24, Type (0, 0), BuildingBlock: AJUNOK_clean_linker_0, # of connection points: 2
#     Edge 25, Type (0, 0), BuildingBlock: AJUNOK_clean_linker_0, # of connection points: 2
#     Edge 26, Type (0, 0), BuildingBlock: AJUNOK_clean_linker_0, # of connection points: 2
#     Edge 27, Type (0, 0), BuildingBlock: AJUNOK_clean_linker_0, # of connection points: 2
#     Edge 28, Type (0, 0), BuildingBlock: AJUNOK_clean_linker_0, # of connection points: 2
#     Edge 29, Type (0, 0), BuildingBlock: AJUNOK_clean_linker_0, # of connection points: 2
#     Edge 30, Type (0, 0), BuildingBlock: AJUNOK_clean_linker_0, # of connection points: 2
#     Edge 31, Type (0, 0), BuildingBlock: AJUNOK_clean_linker_0, # of connection points: 2
#     Edge 32, Type (0, 0), BuildingBlock: AJUNOK_clean_linker_0, # of connection points: 2
#     Edge 33, Type (0, 0), BuildingBlock: AJUNOK_clean_linker_0, # of connection points: 2
#     Edge 34, Type (0, 0), BuildingBlock: AJUNOK_clean_linker_0, # of connection points: 2
#     Edge 35, Type (0, 0), BuildingBlock: AJUNOK_clean_linker_0, # of connection points: 2
# Relax obj value: 0.092
# Max RMSD: 0.086
# Mean RMSD: 0.086
data_MOF--net-can--node1-NAHDIM_clean_sbu_0--edge1-AJUNOK_clean_linker_0
_symmetry_space_group_name_H-M    P1
_symmetry_Int_Tables_number       1
_symmetry_cell_setting            triclinic
loop_
_symmetry_equiv_pos_as_xyz
'x, y, z'
_cell_length_a     44.508262
_cell_length_b     44.44989
_cell_length_c     18.449369
_cell_angle_alpha  89.921668
_cell_angle_beta   90.04431
_cell_angle_gamma 119.98346
loop_
_atom_site_label
_atom_site_type_symbol
_atom_site_fract_x
_atom_site_fract_y
_atom_site_fract_z
_atom_type_partial_charge
C0 C 0.12322 0.3853 0.22068 0.0
O1 O 0.09474 0.35704 0.24049 0.0
O2 O 0.04838 0.39935 0.13423 0.0
Zn3 Zn 0.07807 0.41405 0.22421 0.0
O4 O 0.05423 0.38619 0.31361 0.0
C5 C 0.06648 0.46692 0.27698 0.0
O6 O 0.03695 0.43911 0.29355 0.0
O7 O 0.12203 0.41284 0.20873 0.0
C8 C 0.02238 0.36358 0.32081 0.0
O9 O 0.00188 0.35475 0.26405 0.0
C10 C 0.035 0.37025 0.10191 0.0
O11 O 0.03945 0.34536 0.12867 0.0
O12 O 0.08975 0.46321 0.24526 0.0
C13 C 0.73008 0.12397 0.75211 0.0
O14 O 0.72738 0.0936 0.76443 0.0
O15 O 0.65137 0.05494 0.64975 0.0
Zn16 Zn 0.65693 0.08099 0.74351 0.0
O17 O 0.65531 0.05517 0.83471 0.0
C18 C 0.58946 0.07315 0.72158 0.0
O19 O 0.5853 0.04666 0.68252 0.0
O20 O 0.70262 0.12532 0.74089 0.0
C21 C 0.63143 0.02457 0.84989 0.0
O22 O 0.60734 0.00667 0.80157 0.0
C23 C 0.65269 0.02729 0.64051 0.0
O24 O 0.65886 0.01269 0.6961 0.0
O25 O 0.61848 0.09222 0.75232 0.0
C26 C 0.60408 0.73515 0.26574 0.0
O27 O 0.63401 0.73599 0.26599 0.0
O28 O 0.59666 0.65383 0.18485 0.0
Zn29 Zn 0.57851 0.66215 0.27852 0.0
O30 O 0.60531 0.66417 0.36779 0.0
C31 C 0.50713 0.61077 0.24706 0.0
O32 O 0.51412 0.6261 0.1834 0.0
O33 O 0.57637 0.70597 0.2705 0.0
C34 C 0.61585 0.64288 0.38031 0.0
O35 O 0.61293 0.62081 0.32973 0.0
C36 C 0.62738 0.66076 0.17025 0.0
O37 O 0.65166 0.67511 0.21989 0.0
O38 O 0.5306 0.62214 0.29524 0.0
C39 C 0.87301 0.60804 0.79546 0.0
O40 O 0.90143 0.63496 0.82014 0.0
O41 O 0.9486 0.60489 0.6886 0.0
Zn42 Zn 0.91806 0.57923 0.77401 0.0
O43 O 0.94383 0.5993 0.86776 0.0
C44 C 0.90827 0.51409 0.71389 0.0
O45 O 0.91992 0.53226 0.65393 0.0
O46 O 0.87436 0.58176 0.77297 0.0
C47 C 0.95887 0.58465 0.89792 0.0
O48 O 0.95815 0.55792 0.86597 0.0
C49 C 0.93896 0.61701 0.63676 0.0
O50 O 0.90795 0.61365 0.63903 0.0
O51 O 0.90464 0.5286 0.76987 0.0
C52 C 0.25006 0.86749 0.24999 0.0
O53 O 0.25125 0.8976 0.24688 0.0
O54 O 0.32794 0.93883 0.16502 0.0
Zn55 Zn 0.32243 0.91287 0.25866 0.0
O56 O 0.32061 0.9375 0.34828 0.0
C57 C 0.37911 0.9012 0.2197 0.0
O58 O 0.36793 0.90018 0.15334 0.0
O59 O 0.27836 0.86713 0.25446 0.0
C60 C 0.34525 0.96728 0.366 0.0
O61 O 0.37137 0.98425 0.32125 0.0
C62 C 0.32729 0.96689 0.15664 0.0
O63 O 0.3222 0.98182 0.21294 0.0
O64 O 0.36317 0.90557 0.27204 0.0
C65 C 0.38252 0.25999 0.73926 0.0
O66 O 0.35471 0.26314 0.74057 0.0
O67 O 0.40552 0.34425 0.62952 0.0
Zn68 Zn 0.41579 0.33403 0.73019 0.0
O69 O 0.38506 0.3376 0.80536 0.0
C70 C 0.48721 0.39128 0.71583 0.0
O71 O 0.48186 0.38622 0.64575 0.0
O72 O 0.41208 0.28724 0.73449 0.0
C73 C 0.39118 0.36838 0.81596 0.0
O74 O 0.41266 0.39302 0.77187 0.0
C75 C 0.37602 0.3387 0.60831 0.0
O76 O 0.34985 0.32511 0.65391 0.0
O77 O 0.46372 0.37103 0.75947 0.0
C78 C 0.60313 0.86573 0.25095 0.0
O79 O 0.63284 0.89508 0.25266 0.0
O80 O 0.59663 0.9372 0.34103 0.0
Zn81 Zn 0.57693 0.91272 0.24531 0.0
O82 O 0.60343 0.93941 0.15681 0.0
C83 C 0.5092 0.90444 0.28185 0.0
O84 O 0.52056 0.90928 0.34897 0.0
O85 O 0.5752 0.86683 0.24736 0.0
C86 C 0.60341 0.96711 0.13986 0.0
O87 O 0.58858 0.97915 0.18349 0.0
C88 C 0.62187 0.96779 0.35058 0.0
O89 O 0.6382 0.9871 0.29415 0.0
O90 O 0.52855 0.9044 0.2314 0.0
C91 C 0.74376 0.61147 0.79528 0.0
O92 O 0.74404 0.63984 0.81631 0.0
O93 O 0.66677 0.6066 0.87309 0.0
Zn94 Zn 0.67074 0.58629 0.7774 0.0
O95 O 0.66968 0.61288 0.68967 0.0
C96 C 0.60697 0.52091 0.80955 0.0
O97 O 0.60718 0.53607 0.87074 0.0
O98 O 0.71518 0.58533 0.77645 0.0
C99 C 0.64045 0.60762 0.66714 0.0
O100 O 0.61227 0.58664 0.70359 0.0
C101 C 0.65116 0.62371 0.88188 0.0
O102 O 0.6367 0.62967 0.82585 0.0
O103 O 0.63148 0.5372 0.76457 0.0
C104 C 0.11987 0.73592 0.26346 0.0
O105 O 0.0895 0.73342 0.25316 0.0
O106 O 0.0507 0.6601 0.37404 0.0
Zn107 Zn 0.07728 0.66267 0.2838 0.0
O108 O 0.04846 0.65522 0.19417 0.0
C109 C 0.07432 0.59932 0.3313 0.0
O110 O 0.05374 0.60057 0.38069 0.0
O111 O 0.12108 0.7086 0.27781 0.0
C112 C 0.02505 0.62423 0.18038 0.0
O113 O 0.01957 0.59957 0.2268 0.0
C114 C 0.02389 0.66329 0.37584 0.0
O115 O 0.01308 0.67064 0.31569 0.0
O116 O 0.08873 0.624 0.28574 0.0
C117 C 0.37619 0.12594 0.75731 0.0
O118 O 0.34672 0.09642 0.76053 0.0
O119 O 0.38157 0.05561 0.8556 0.0
Zn120 Zn 0.40034 0.07822 0.7582 0.0
O121 O 0.37153 0.05111 0.67276 0.0
C122 C 0.47144 0.09155 0.78492 0.0
O123 O 0.46905 0.10275 0.84933 0.0
O124 O 0.40433 0.12515 0.75638 0.0
C125 C 0.37029 0.02277 0.65636 0.0
O126 O 0.38476 0.01018 0.69972 0.0
C127 C 0.35521 0.02584 0.86644 0.0
O128 O 0.33729 0.00693 0.81091 0.0
O129 O 0.44642 0.08168 0.74072 0.0
C130 C 0.25294 0.38294 0.21726 0.0
O131 O 0.25223 0.35303 0.21599 0.0
O132 O 0.33037 0.38654 0.31181 0.0
Zn133 Zn 0.32747 0.41189 0.22366 0.0
O134 O 0.33365 0.39136 0.13032 0.0
C135 C 0.37972 0.47875 0.28637 0.0
O136 O 0.36914 0.46331 0.34949 0.0
O137 O 0.28199 0.4108 0.22123 0.0
C138 C 0.36128 0.40909 0.09377 0.0
O139 O 0.38542 0.43905 0.1194 0.0
C140 C 0.3584 0.38655 0.32508 0.0
O141 O 0.38415 0.40183 0.27881 0.0
O142 O 0.36499 0.4621 0.22905 0.0
C143 C 0.86356 0.25217 0.739 0.0
O144 O 0.89313 0.25256 0.7462 0.0
O145 O 0.93958 0.32736 0.80414 0.0
Zn146 Zn 0.91107 0.32306 0.71513 0.0
O147 O 0.93308 0.31839 0.62394 0.0
C148 C 0.89329 0.37683 0.74787 0.0
O149 O 0.8806 0.35949 0.80847 0.0
O150 O 0.86426 0.28053 0.7253 0.0
C151 C 0.96516 0.33834 0.61167 0.0
O152 O 0.98438 0.36044 0.66216 0.0
C153 C 0.96054 0.35657 0.83225 0.0
O154 O 0.9647 0.385 0.80112 0.0
O155 O 0.90673 0.36572 0.70213 0.0
C156 C 0.01819 0.39466 0.99758 0.0
C157 C 0.01563 0.36544 0.03325 0.0
C158 C 0.00057 0.39142 0.93261 0.0
C159 C 0.97937 0.35879 0.90045 0.0
H160 H 0.03415 0.42047 0.01968 0.0
H161 H 0.00356 0.41485 0.90773 0.0
S162 S 0.96323 0.27386 0.9725 0.0
N163 N 0.98991 0.3026 0.03183 0.0
N164 N 0.95658 0.29642 0.90978 0.0
C165 C 0.97644 0.32923 0.93553 0.0
C166 C -0.0054 0.33258 0.00178 0.0
C167 C 0.64636 0.01833 0.43558 0.0
C168 C 0.63124 0.98232 0.4248 0.0
C169 C 0.65342 0.03258 0.5055 0.0
C170 C 0.64637 0.0115 0.56734 0.0
H171 H 0.65194 0.0356 0.38978 0.0
H172 H 0.66446 0.0604 0.51109 0.0
S173 S 0.60839 0.91579 0.56846 0.0
N174 N 0.6103 0.92592 0.48179 0.0
N175 N 0.62431 0.95283 0.61306 0.0
C176 C 0.63217 0.97556 0.55727 0.0
C177 C 0.62438 0.96094 0.48608 0.0
C178 C 0.6137 0.64965 0.03839 0.0
C179 C 0.63522 0.65266 0.09714 0.0
C180 C 0.61961 0.64108 0.96888 0.0
C181 C 0.64694 0.63456 0.95539 0.0
H182 H 0.59202 0.65399 0.04603 0.0
H183 H 0.60209 0.63885 0.92573 0.0
S184 S 0.71117 0.63945 0.0903 0.0
N185 N 0.68544 0.64908 0.13696 0.0
N186 N 0.69624 0.63237 0.00641 0.0
C187 C 0.66887 0.6377 0.01348 0.0
C188 C 0.66313 0.64695 0.08424 0.0
C189 C 0.01268 0.64176 0.50372 0.0
C190 C 0.00327 0.65489 0.44372 0.0
C191 C 0.99224 0.63054 0.56634 0.0
C192 C 0.96144 0.63195 0.57193 0.0
H193 H 0.03564 0.63922 0.50192 0.0
H194 H 0.00035 0.61988 0.61001 0.0
S195 S 0.92684 0.66732 0.43309 0.0
N196 N 0.96223 0.67095 0.39592 0.0
N197 N 0.92378 0.64991 0.51376 0.0
C198 C 0.95237 0.64632 0.51355 0.0
C199 C 0.97327 0.65777 0.44951 0.0
C200 C 0.33023 0.97544 0.95178 0.0
C201 C 0.34649 0.01154 0.94087 0.0
C202 C 0.32392 0.96128 0.02179 0.0
C203 C 0.3329 0.98261 0.08356 0.0
H204 H 0.3232 0.95799 0.90595 0.0
H205 H 0.31195 0.93336 0.02752 0.0
S206 S 0.37447 0.07869 0.08441 0.0
N207 N 0.3706 0.06831 0.99764 0.0
N208 N 0.35796 0.04161 0.12924 0.0
C209 C 0.34823 0.01868 0.07344 0.0
C210 C 0.35527 0.03316 0.00211 0.0
C211 C 0.33604 0.35898 0.44656 0.0
C212 C 0.36289 0.37235 0.39477 0.0
C213 C 0.3403 0.34758 0.51469 0.0
C214 C 0.37162 0.3491 0.53413 0.0
H215 H 0.31161 0.35781 0.43506 0.0
H216 H 0.31899 0.33809 0.55283 0.0
S217 S 0.44935 0.37976 0.41664 0.0
N218 N 0.42146 0.38485 0.36661 0.0
N219 N 0.42946 0.36351 0.49437 0.0
C220 C 0.3984 0.36154 0.48218 0.0
C221 C 0.39403 0.37311 0.41268 0.0
C222 C 0.97905 0.57199 0.01371 0.0
C223 C 0.97522 0.59582 0.9701 0.0
C224 C -0.0056 0.58131 0.08224 0.0
C225 C 0.00715 0.61506 0.1095 0.0
H226 H 0.96993 0.54572 0.99505 0.0
H227 H -0.00307 0.56201 0.11337 0.0
S228 S 0.00318 0.68723 0.01732 0.0
N229 N 0.98483 0.65456 0.95957 0.0
N230 N 0.0145 0.67237 0.08819 0.0
C231 C 0.00344 0.63923 0.06672 0.0
C232 C 0.98722 0.62952 0.99713 0.0
C233 C 0.36281 0.01647 0.45226 0.0
C234 C 0.34699 0.98054 0.44009 0.0
C235 C 0.3682 0.02986 0.52284 0.0
C236 C 0.35889 0.00778 0.58352 0.0
H237 H 0.37168 0.03441 0.40695 0.0
H238 H 0.38142 0.05778 0.52989 0.0
S239 S 0.31543 0.91172 0.58099 0.0
N240 N 0.32043 0.92299 0.49459 0.0
N241 N 0.33188 0.94837 0.6272 0.0
C242 C 0.34225 0.9718 0.57214 0.0
C243 C 0.33592 0.9581 0.50037 0.0
C244 C 0.39826 0.41248 0.90744 0.0
C245 C 0.38018 0.37776 0.88397 0.0
C246 C 0.39159 0.42209 0.97495 0.0
C247 C 0.36624 0.39753 0.02174 0.0
H248 H 0.41863 0.43244 0.87451 0.0
H249 H 0.40675 0.44914 0.99061 0.0
S250 S 0.30999 0.30344 0.98437 0.0
N251 N 0.33475 0.31878 0.91164 0.0
N252 N 0.32181 0.33705 0.03865 0.0
C253 C 0.34705 0.36284 0.99817 0.0
C254 C 0.35415 0.35292 0.92936 0.0
C255 C 0.01509 0.36371 0.52548 0.0
C256 C 0.97978 0.34018 0.53837 0.0
C257 C 0.02889 0.36969 0.45539 0.0
C258 C 0.00796 0.35254 0.39491 0.0
H259 H 0.03214 0.37862 0.56952 0.0
H260 H 0.05599 0.38906 0.44855 0.0
S261 S 0.91481 0.28491 0.40003 0.0
N262 N 0.92482 0.29693 0.48535 0.0
N263 N 0.95083 0.3084 0.35346 0.0
C264 C 0.97306 0.32742 0.40735 0.0
C265 C 0.95897 0.32117 0.47903 0.0
C266 C 0.61311 0.97486 0.93581 0.0
C267 C 0.62835 0.01083 0.92425 0.0
C268 C 0.60697 0.96102 0.00619 0.0
C269 C 0.61497 0.98261 0.06727 0.0
H270 H 0.60537 0.95724 0.89014 0.0
H271 H 0.59436 0.93308 0.01267 0.0
S272 S 0.6565 0.07856 0.06669 0.0
N273 N 0.6529 0.0679 0.9801 0.0
N274 N 0.64014 0.04165 0.11209 0.0
C275 C 0.63095 0.01862 0.05658 0.0
C276 C 0.63801 0.03281 0.9851 0.0
C277 C 0.65025 0.62868 0.46677 0.0
C278 C 0.62522 0.63862 0.45487 0.0
C279 C 0.65663 0.62071 0.53671 0.0
C280 C 0.63739 0.62138 0.59651 0.0
H281 H 0.66452 0.62643 0.42154 0.0
H282 H 0.67548 0.61227 0.54341 0.0
S283 S 0.56972 0.6467 0.59464 0.0
N284 N 0.5822 0.65018 0.50929 0.0
N285 N 0.59336 0.63393 0.64007 0.0
C286 C 0.61292 0.63205 0.58561 0.0
C287 C 0.60705 0.64104 0.51491 0.0
C288 C 0.05132 0.53652 0.35732 0.0
C289 C 0.07583 0.567 0.32169 0.0
C290 C 0.04913 0.50458 0.34342 0.0
C291 C 0.0716 0.50174 0.29392 0.0
H292 H 0.03277 0.53696 0.39465 0.0
H293 H 0.02923 0.48181 0.37116 0.0
S294 S 0.1424 0.57418 0.19063 0.0
N295 N 0.12448 0.59271 0.23766 0.0
N296 N 0.12057 0.53255 0.21209 0.0
C297 C 0.09727 0.53221 0.26012 0.0
C298 C 0.09931 0.56483 0.27381 0.0
C299 C 0.53167 0.10301 0.80964 0.0
C300 C 0.50199 0.08819 0.76524 0.0
C301 C 0.5602 0.0988 0.79403 0.0
C302 C 0.56001 0.07924 0.7339 0.0
H303 H 0.53286 0.11778 0.85727 0.0
H304 H 0.58221 0.11029 0.83051 0.0
S305 S 0.48934 0.03622 0.59846 0.0
N306 N 0.47479 0.0541 0.65666 0.0
N307 N 0.52819 0.04605 0.62801 0.0
C308 C 0.5308 0.0648 0.68825 0.0
C309 C 0.50188 0.06933 0.70369 0.0
C310 C 0.45061 0.56215 0.20235 0.0
C311 C 0.47334 0.57884 0.26051 0.0
C312 C 0.41997 0.53039 0.21194 0.0
C313 C 0.41061 0.51401 0.2802 0.0
H314 H 0.45689 0.57313 0.14831 0.0
H315 H 0.40386 0.51828 0.16482 0.0
S316 S 0.45975 0.54838 0.45172 0.0
N317 N 0.48333 0.57769 0.39007 0.0
N318 N 0.4257 0.51802 0.40804 0.0
C319 C 0.43239 0.53109 0.33956 0.0
C320 C 0.46375 0.56345 0.32973 0.0
C321 C 0.89058 0.45954 0.78443 0.0
C322 C 0.90209 0.47803 0.71871 0.0
C323 C 0.88691 0.42652 0.79264 0.0
C324 C 0.89473 0.41058 0.73562 0.0
H325 H 0.88491 0.47086 0.83067 0.0
H326 H 0.87866 0.41381 0.84485 0.0
S327 S 0.92349 0.44676 0.55055 0.0
N328 N 0.91953 0.47699 0.59412 0.0
N329 N 0.91272 0.41505 0.60957 0.0
C330 C 0.90525 0.42828 0.66881 0.0
C331 C 0.90888 0.46191 0.66036 0.0
C332 C 0.42405 0.90373 0.30516 0.0
C333 C 0.41121 0.89967 0.23388 0.0
C334 C 0.45529 0.90452 0.32016 0.0
C335 C 0.47511 0.90129 0.26459 0.0
H336 H 0.41019 0.90692 0.34999 0.0
H337 H 0.46418 0.90828 0.37584 0.0
S338 S 0.45211 0.88804 0.06892 0.0
N339 N 0.42014 0.89086 0.10731 0.0
N340 N 0.4788 0.89232 0.13538 0.0
C341 C 0.46217 0.8963 0.19317 0.0
C342 C 0.43028 0.8955 0.17788 0.0
C343 C 0.57576 0.4728 0.71998 0.0
C344 C 0.57725 0.4864 0.78971 0.0
C345 C 0.54698 0.44164 0.6973 0.0
C346 C 0.51855 0.42254 0.74354 0.0
H347 H 0.59668 0.48669 0.68165 0.0
H348 H 0.54687 0.43272 0.64263 0.0
S349 S 0.50978 0.44595 0.9326 0.0
N350 N 0.54795 0.47763 0.90571 0.0
N351 N 0.49396 0.41905 0.86328 0.0
C352 C 0.52003 0.43526 0.8142 0.0
C353 C 0.5493 0.46716 0.83719 0.0
C354 C 0.15697 0.3541 0.22427 0.0
C355 C 0.15657 0.3854 0.21631 0.0
C356 C 0.18816 0.35351 0.22355 0.0
C357 C 0.22027 0.38423 0.21534 0.0
H358 H 0.13301 0.32975 0.23162 0.0
H359 H 0.18701 0.32876 0.23053 0.0
S360 S 0.23356 0.47305 0.19009 0.0
N361 N 0.19118 0.44793 0.19804 0.0
N362 N 0.24968 0.44685 0.19692 0.0
C363 C 0.22025 0.4157 0.20628 0.0
C364 C 0.18847 0.41628 0.20665 0.0
C365 C 0.79883 0.21887 0.72955 0.0
C366 C 0.82999 0.21917 0.74448 0.0
C367 C 0.76679 0.18805 0.7325 0.0
C368 C 0.76448 0.15618 0.75054 0.0
H369 H 0.79908 0.24259 0.71483 0.0
H370 H 0.74366 0.18932 0.72002 0.0
S371 S 0.83829 0.14292 0.79707 0.0
N372 N 0.85645 0.18486 0.77987 0.0
N373 N 0.79626 0.12699 0.78538 0.0
C374 C 0.79541 0.15612 0.76644 0.0
C375 C 0.82811 0.18756 0.76343 0.0
C376 C 0.63388 0.79999 0.2589 0.0
C377 C 0.60281 0.76785 0.26104 0.0
C378 C 0.63365 0.83136 0.25544 0.0
C379 C 0.60234 0.83196 0.25384 0.0
H380 H 0.65874 0.80109 0.2602 0.0
H381 H 0.65834 0.85533 0.25413 0.0
S382 S 0.51361 0.7549 0.25748 0.0
N383 N 0.53969 0.73854 0.26069 0.0
N384 N 0.53926 0.79742 0.25416 0.0
C385 C 0.571 0.79998 0.25553 0.0
C386 C 0.57124 0.76799 0.25915 0.0
C387 C 0.83845 0.63736 0.81976 0.0
C388 C 0.83977 0.60825 0.794 0.0
C389 C 0.80738 0.63818 0.8197 0.0
C390 C 0.7763 0.60992 0.79397 0.0
H391 H 0.86158 0.65977 0.84043 0.0
H392 H 0.80781 0.66119 0.84038 0.0
S393 S 0.76573 0.52754 0.7193 0.0
N394 N 0.80715 0.55048 0.74105 0.0
N395 N 0.74891 0.55202 0.74101 0.0
C396 C 0.77725 0.58066 0.76763 0.0
C397 C 0.8089 0.57984 0.76762 0.0
C398 C 0.21588 0.80282 0.26092 0.0
C399 C 0.21638 0.83448 0.25125 0.0
C400 C 0.18461 0.77127 0.26455 0.0
C401 C 0.15243 0.76992 0.25845 0.0
H402 H 0.23984 0.80229 0.26637 0.0
H403 H 0.18582 0.74773 0.27238 0.0
S404 S 0.13928 0.84535 0.23099 0.0
N405 N 0.18178 0.86248 0.2345 0.0
N406 N 0.123 0.80313 0.24123 0.0
C407 C 0.15248 0.80133 0.248 0.0
C408 C 0.18441 0.83357 0.24444 0.0
C409 C 0.41018 0.22297 0.74498 0.0
C410 C 0.37981 0.22536 0.74404 0.0
C411 C 0.40868 0.19081 0.74959 0.0
C412 C 0.37675 0.15959 0.75342 0.0
H413 H 0.43549 0.24615 0.74216 0.0
H414 H 0.43289 0.19055 0.75001 0.0
S415 S 0.28943 0.15134 0.75291 0.0
N416 N 0.31668 0.19352 0.74741 0.0
N417 N 0.31385 0.13309 0.75605 0.0
C418 C 0.3461 0.16152 0.75266 0.0
C419 C 0.34763 0.19435 0.74797 0.0
loop_
_geom_bond_atom_site_label_1
_geom_bond_atom_site_label_2
_geom_bond_distance
_geom_bond_site_symmetry_2
_ccdc_geom_bond_type
C0 O1 1.160 . S
C0 O7 1.185 . S
O1 C0 1.160 . S
O2 Zn3 1.899 . S
O2 C10 1.284 . S
Zn3 O2 1.899 . S
Zn3 O4 2.032 . S
Zn3 O7 2.086 . S
Zn3 O12 1.977 . S
O4 Zn3 2.032 . S
O4 C8 1.278 . S
C5 O6 1.203 . S
C5 O12 1.267 . S
O6 C5 1.203 . S
O7 C0 1.185 . S
O7 Zn3 2.086 . S
C8 O4 1.278 . S
C8 O9 1.211 . S
O9 C8 1.211 . S
C10 O2 1.284 . S
C10 O11 1.273 . S
O11 C10 1.273 . S
O12 Zn3 1.977 . S
O12 C5 1.267 . S
C13 O14 1.160 . S
C13 O20 1.185 . S
O14 C13 1.160 . S
O15 Zn16 1.899 . S
O15 C23 1.284 . S
Zn16 O15 1.899 . S
Zn16 O17 2.032 . S
Zn16 O20 2.086 . S
Zn16 O25 1.977 . S
O17 Zn16 2.032 . S
O17 C21 1.278 . S
C18 O19 1.203 . S
C18 O25 1.267 . S
O19 C18 1.203 . S
O20 C13 1.185 . S
O20 Zn16 2.086 . S
C21 O17 1.278 . S
C21 O22 1.211 . S
O22 C21 1.211 . S
C23 O15 1.284 . S
C23 O24 1.273 . S
O24 C23 1.273 . S
O25 Zn16 1.977 . S
O25 C18 1.267 . S
C26 O27 1.160 . S
C26 O33 1.185 . S
O27 C26 1.160 . S
O28 Zn29 1.899 . S
O28 C36 1.284 . S
Zn29 O28 1.899 . S
Zn29 O30 2.032 . S
Zn29 O33 2.086 . S
Zn29 O38 1.977 . S
O30 Zn29 2.032 . S
O30 C34 1.278 . S
C31 O32 1.203 . S
C31 O38 1.267 . S
O32 C31 1.203 . S
O33 C26 1.185 . S
O33 Zn29 2.086 . S
C34 O30 1.278 . S
C34 O35 1.211 . S
O35 C34 1.211 . S
C36 O28 1.284 . S
C36 O37 1.273 . S
O37 C36 1.273 . S
O38 Zn29 1.977 . S
O38 C31 1.267 . S
C39 O40 1.160 . S
C39 O46 1.185 . S
O40 C39 1.160 . S
O41 Zn42 1.899 . S
O41 C49 1.284 . S
Zn42 O41 1.899 . S
Zn42 O43 2.032 . S
Zn42 O46 2.086 . S
Zn42 O51 1.977 . S
O43 Zn42 2.032 . S
O43 C47 1.278 . S
C44 O45 1.203 . S
C44 O51 1.267 . S
O45 C44 1.203 . S
O46 C39 1.185 . S
O46 Zn42 2.086 . S
C47 O43 1.278 . S
C47 O48 1.211 . S
O48 C47 1.211 . S
C49 O41 1.284 . S
C49 O50 1.273 . S
O50 C49 1.273 . S
O51 Zn42 1.977 . S
O51 C44 1.267 . S
C52 O53 1.160 . S
C52 O59 1.185 . S
O53 C52 1.160 . S
O54 Zn55 1.899 . S
O54 C62 1.284 . S
Zn55 O54 1.899 . S
Zn55 O56 2.032 . S
Zn55 O59 2.086 . S
Zn55 O64 1.977 . S
O56 Zn55 2.032 . S
O56 C60 1.278 . S
C57 O58 1.203 . S
C57 O64 1.267 . S
O58 C57 1.203 . S
O59 C52 1.185 . S
O59 Zn55 2.086 . S
C60 O56 1.278 . S
C60 O61 1.211 . S
O61 C60 1.211 . S
C62 O54 1.284 . S
C62 O63 1.273 . S
O63 C62 1.273 . S
O64 Zn55 1.977 . S
O64 C57 1.267 . S
C65 O66 1.160 . S
C65 O72 1.185 . S
O66 C65 1.160 . S
O67 Zn68 1.899 . S
O67 C75 1.284 . S
Zn68 O67 1.899 . S
Zn68 O69 2.032 . S
Zn68 O72 2.086 . S
Zn68 O77 1.977 . S
O69 Zn68 2.032 . S
O69 C73 1.278 . S
C70 O71 1.203 . S
C70 O77 1.267 . S
O71 C70 1.203 . S
O72 C65 1.185 . S
O72 Zn68 2.086 . S
C73 O69 1.278 . S
C73 O74 1.211 . S
O74 C73 1.211 . S
C75 O67 1.284 . S
C75 O76 1.273 . S
O76 C75 1.273 . S
O77 Zn68 1.977 . S
O77 C70 1.267 . S
C78 O79 1.160 . S
C78 O85 1.185 . S
O79 C78 1.160 . S
O80 Zn81 1.899 . S
O80 C88 1.284 . S
Zn81 O80 1.899 . S
Zn81 O82 2.032 . S
Zn81 O85 2.086 . S
Zn81 O90 1.977 . S
O82 Zn81 2.032 . S
O82 C86 1.278 . S
C83 O84 1.203 . S
C83 O90 1.267 . S
O84 C83 1.203 . S
O85 C78 1.185 . S
O85 Zn81 2.086 . S
C86 O82 1.278 . S
C86 O87 1.211 . S
O87 C86 1.211 . S
C88 O80 1.284 . S
C88 O89 1.273 . S
O89 C88 1.273 . S
O90 Zn81 1.977 . S
O90 C83 1.267 . S
C91 O92 1.160 . S
C91 O98 1.185 . S
O92 C91 1.160 . S
O93 Zn94 1.899 . S
O93 C101 1.284 . S
Zn94 O93 1.899 . S
Zn94 O95 2.032 . S
Zn94 O98 2.086 . S
Zn94 O103 1.977 . S
O95 Zn94 2.032 . S
O95 C99 1.278 . S
C96 O97 1.203 . S
C96 O103 1.267 . S
O97 C96 1.203 . S
O98 C91 1.185 . S
O98 Zn94 2.086 . S
C99 O95 1.278 . S
C99 O100 1.211 . S
O100 C99 1.211 . S
C101 O93 1.284 . S
C101 O102 1.273 . S
O102 C101 1.273 . S
O103 Zn94 1.977 . S
O103 C96 1.267 . S
C104 O105 1.160 . S
C104 O111 1.185 . S
O105 C104 1.160 . S
O106 Zn107 1.899 . S
O106 C114 1.284 . S
Zn107 O106 1.899 . S
Zn107 O108 2.032 . S
Zn107 O111 2.086 . S
Zn107 O116 1.977 . S
O108 Zn107 2.032 . S
O108 C112 1.278 . S
C109 O110 1.203 . S
C109 O116 1.267 . S
O110 C109 1.203 . S
O111 C104 1.185 . S
O111 Zn107 2.086 . S
C112 O108 1.278 . S
C112 O113 1.211 . S
O113 C112 1.211 . S
C114 O106 1.284 . S
C114 O115 1.273 . S
O115 C114 1.273 . S
O116 Zn107 1.977 . S
O116 C109 1.267 . S
C117 O118 1.160 . S
C117 O124 1.185 . S
O118 C117 1.160 . S
O119 Zn120 1.899 . S
O119 C127 1.284 . S
Zn120 O119 1.899 . S
Zn120 O121 2.032 . S
Zn120 O124 2.086 . S
Zn120 O129 1.977 . S
O121 Zn120 2.032 . S
O121 C125 1.278 . S
C122 O123 1.203 . S
C122 O129 1.267 . S
O123 C122 1.203 . S
O124 C117 1.185 . S
O124 Zn120 2.086 . S
C125 O121 1.278 . S
C125 O126 1.211 . S
O126 C125 1.211 . S
C127 O119 1.284 . S
C127 O128 1.273 . S
O128 C127 1.273 . S
O129 Zn120 1.977 . S
O129 C122 1.267 . S
C130 O131 1.160 . S
C130 O137 1.185 . S
O131 C130 1.160 . S
O132 Zn133 1.899 . S
O132 C140 1.284 . S
Zn133 O132 1.899 . S
Zn133 O134 2.032 . S
Zn133 O137 2.086 . S
Zn133 O142 1.977 . S
O134 Zn133 2.032 . S
O134 C138 1.278 . S
C135 O136 1.203 . S
C135 O142 1.267 . S
O136 C135 1.203 . S
O137 C130 1.185 . S
O137 Zn133 2.086 . S
C138 O134 1.278 . S
C138 O139 1.211 . S
O139 C138 1.211 . S
C140 O132 1.284 . S
C140 O141 1.273 . S
O141 C140 1.273 . S
O142 Zn133 1.977 . S
O142 C135 1.267 . S
C143 O144 1.160 . S
C143 O150 1.185 . S
O144 C143 1.160 . S
O145 Zn146 1.899 . S
O145 C153 1.284 . S
Zn146 O145 1.899 . S
Zn146 O147 2.032 . S
Zn146 O150 2.086 . S
Zn146 O155 1.977 . S
O147 Zn146 2.032 . S
O147 C151 1.278 . S
C148 O149 1.203 . S
C148 O155 1.267 . S
O149 C148 1.203 . S
O150 C143 1.185 . S
O150 Zn146 2.086 . S
C151 O147 1.278 . S
C151 O152 1.211 . S
O152 C151 1.211 . S
C153 O145 1.284 . S
C153 O154 1.273 . S
O154 C153 1.273 . S
O155 Zn146 1.977 . S
O155 C148 1.267 . S
C156 C157 1.369 . S
C156 C158 1.419 1_554 S
C156 H160 0.930 . S
C157 C156 1.369 . S
C157 C166 1.429 1_455 S
C158 C156 1.419 1_556 S
C158 C159 1.363 1_455 S
C158 H161 0.929 . S
C159 C158 1.363 1_655 S
C159 C165 1.428 . S
H160 C156 0.930 . S
H161 C158 0.929 . S
S162 N163 1.613 . S
S162 N164 1.610 1_554 S
N163 S162 1.613 . S
N163 C166 1.350 . S
N164 S162 1.610 1_556 S
N164 C165 1.351 . S
C165 C159 1.428 . S
C165 N164 1.351 . S
C165 C166 1.434 1_556 S
C166 C157 1.429 1_655 S
C166 N163 1.350 . S
C166 C165 1.434 1_554 S
C167 C168 1.369 1_545 S
C167 C169 1.419 . S
C167 H171 0.930 . S
C168 C167 1.369 1_565 S
C168 C177 1.429 . S
C169 C167 1.419 . S
C169 C170 1.363 . S
C169 H172 0.929 . S
C170 C169 1.363 . S
C170 C176 1.428 1_545 S
H171 C167 0.930 . S
H172 C169 0.929 . S
S173 N174 1.613 . S
S173 N175 1.610 . S
N174 S173 1.613 . S
N174 C177 1.350 . S
N175 S173 1.610 . S
N175 C176 1.351 . S
C176 C170 1.428 1_565 S
C176 N175 1.351 . S
C176 C177 1.434 . S
C177 C168 1.429 . S
C177 N174 1.350 . S
C177 C176 1.434 . S
C178 C179 1.369 . S
C178 C180 1.419 1_554 S
C178 H182 0.930 . S
C179 C178 1.369 . S
C179 C188 1.429 . S
C180 C178 1.419 1_556 S
C180 C181 1.363 . S
C180 H183 0.929 . S
C181 C180 1.363 . S
C181 C187 1.428 . S
H182 C178 0.930 . S
H183 C180 0.929 . S
S184 N185 1.613 . S
S184 N186 1.610 1_554 S
N185 S184 1.613 . S
N185 C188 1.350 . S
N186 S184 1.610 1_556 S
N186 C187 1.351 . S
C187 C181 1.428 . S
C187 N186 1.351 . S
C187 C188 1.434 1_556 S
C188 C179 1.429 . S
C188 N185 1.350 . S
C188 C187 1.434 1_554 S
C189 C190 1.369 . S
C189 C191 1.419 1_455 S
C189 H193 0.930 . S
C190 C189 1.369 . S
C190 C199 1.429 . S
C191 C189 1.419 1_655 S
C191 C192 1.363 . S
C191 H194 0.929 . S
C192 C191 1.363 . S
C192 C198 1.428 . S
H193 C189 0.930 . S
H194 C191 0.929 . S
S195 N196 1.613 1_655 S
S195 N197 1.610 . S
N196 S195 1.613 1_455 S
N196 C199 1.350 . S
N197 S195 1.610 . S
N197 C198 1.351 . S
C198 C192 1.428 . S
C198 N197 1.351 . S
C198 C199 1.434 1_655 S
C199 C190 1.429 . S
C199 N196 1.350 . S
C199 C198 1.434 1_455 S
C200 C201 1.369 1_565 S
C200 C202 1.419 1_556 S
C200 H204 0.930 . S
C201 C200 1.369 1_545 S
C201 C210 1.429 . S
C202 C200 1.419 1_554 S
C202 C203 1.363 . S
C202 H205 0.929 . S
C203 C202 1.363 . S
C203 C209 1.428 1_565 S
H204 C200 0.930 . S
H205 C202 0.929 . S
S206 N207 1.613 1_554 S
S206 N208 1.610 . S
N207 S206 1.613 1_556 S
N207 C210 1.350 . S
N208 S206 1.610 . S
N208 C209 1.351 . S
C209 C203 1.428 1_545 S
C209 N208 1.351 . S
C209 C210 1.434 1_554 S
C210 C201 1.429 . S
C210 N207 1.350 . S
C210 C209 1.434 1_556 S
C211 C212 1.369 . S
C211 C213 1.419 . S
C211 H215 0.930 . S
C212 C211 1.369 . S
C212 C221 1.429 . S
C213 C211 1.419 . S
C213 C214 1.363 . S
C213 H216 0.929 . S
C214 C213 1.363 . S
C214 C220 1.428 . S
H215 C211 0.930 . S
H216 C213 0.929 . S
S217 N218 1.613 . S
S217 N219 1.610 . S
N218 S217 1.613 . S
N218 C221 1.350 . S
N219 S217 1.610 . S
N219 C220 1.351 . S
C220 C214 1.428 . S
C220 N219 1.351 . S
C220 C221 1.434 . S
C221 C212 1.429 . S
C221 N218 1.350 . S
C221 C220 1.434 . S
C222 C223 1.369 . S
C222 C224 1.419 1_656 S
C222 H226 0.930 . S
C223 C222 1.369 . S
C223 C232 1.429 . S
C224 C222 1.419 1_454 S
C224 C225 1.363 . S
C224 H227 0.929 . S
C225 C224 1.363 . S
C225 C231 1.428 . S
H226 C222 0.930 . S
H227 C224 0.929 . S
S228 N229 1.613 1_455 S
S228 N230 1.610 1_556 S
N229 S228 1.613 1_655 S
N229 C232 1.350 . S
N230 S228 1.610 1_554 S
N230 C231 1.351 . S
C231 C225 1.428 . S
C231 N230 1.351 . S
C231 C232 1.434 1_454 S
C232 C223 1.429 . S
C232 N229 1.350 . S
C232 C231 1.434 1_656 S
C233 C234 1.369 1_545 S
C233 C235 1.419 . S
C233 H237 0.930 . S
C234 C233 1.369 1_565 S
C234 C243 1.429 . S
C235 C233 1.419 . S
C235 C236 1.363 . S
C235 H238 0.929 . S
C236 C235 1.363 . S
C236 C242 1.428 1_545 S
H237 C233 0.930 . S
H238 C235 0.929 . S
S239 N240 1.613 . S
S239 N241 1.610 . S
N240 S239 1.613 . S
N240 C243 1.350 . S
N241 S239 1.610 . S
N241 C242 1.351 . S
C242 C236 1.428 1_565 S
C242 N241 1.351 . S
C242 C243 1.434 . S
C243 C234 1.429 . S
C243 N240 1.350 . S
C243 C242 1.434 . S
C244 C245 1.369 . S
C244 C246 1.419 1_556 S
C244 H248 0.930 . S
C245 C244 1.369 . S
C245 C254 1.429 . S
C246 C244 1.419 1_554 S
C246 C247 1.363 . S
C246 H249 0.929 . S
C247 C246 1.363 . S
C247 C253 1.428 . S
H248 C244 0.930 . S
H249 C246 0.929 . S
S250 N251 1.613 . S
S250 N252 1.610 1_556 S
N251 S250 1.613 . S
N251 C254 1.350 . S
N252 S250 1.610 1_554 S
N252 C253 1.351 . S
C253 C247 1.428 . S
C253 N252 1.351 . S
C253 C254 1.434 1_554 S
C254 C245 1.429 . S
C254 N251 1.350 . S
C254 C253 1.434 1_556 S
C255 C256 1.369 1_455 S
C255 C257 1.419 . S
C255 H259 0.930 . S
C256 C255 1.369 1_655 S
C256 C265 1.429 . S
C257 C255 1.419 . S
C257 C258 1.363 . S
C257 H260 0.929 . S
C258 C257 1.363 . S
C258 C264 1.428 1_455 S
H259 C255 0.930 . S
H260 C257 0.929 . S
S261 N262 1.613 . S
S261 N263 1.610 . S
N262 S261 1.613 . S
N262 C265 1.350 . S
N263 S261 1.610 . S
N263 C264 1.351 . S
C264 C258 1.428 1_655 S
C264 N263 1.351 . S
C264 C265 1.434 . S
C265 C256 1.429 . S
C265 N262 1.350 . S
C265 C264 1.434 . S
C266 C267 1.369 1_565 S
C266 C268 1.419 1_556 S
C266 H270 0.930 . S
C267 C266 1.369 1_545 S
C267 C276 1.429 . S
C268 C266 1.419 1_554 S
C268 C269 1.363 . S
C268 H271 0.929 . S
C269 C268 1.363 . S
C269 C275 1.428 1_565 S
H270 C266 0.930 . S
H271 C268 0.929 . S
S272 N273 1.613 . S
S272 N274 1.610 . S
N273 S272 1.613 . S
N273 C276 1.350 1_554 S
N274 S272 1.610 . S
N274 C275 1.351 . S
C275 C269 1.428 1_545 S
C275 N274 1.351 . S
C275 C276 1.434 1_554 S
C276 C267 1.429 . S
C276 N273 1.350 1_556 S
C276 C275 1.434 1_556 S
C277 C278 1.369 . S
C277 C279 1.419 . S
C277 H281 0.930 . S
C278 C277 1.369 . S
C278 C287 1.429 . S
C279 C277 1.419 . S
C279 C280 1.363 . S
C279 H282 0.929 . S
C280 C279 1.363 . S
C280 C286 1.428 . S
H281 C277 0.930 . S
H282 C279 0.929 . S
S283 N284 1.613 . S
S283 N285 1.610 . S
N284 S283 1.613 . S
N284 C287 1.350 . S
N285 S283 1.610 . S
N285 C286 1.351 . S
C286 C280 1.428 . S
C286 N285 1.351 . S
C286 C287 1.434 . S
C287 C278 1.429 . S
C287 N284 1.350 . S
C287 C286 1.434 . S
C288 C289 1.369 . S
C288 C290 1.419 . S
C288 H292 0.930 . S
C289 C288 1.369 . S
C289 C298 1.429 . S
C290 C288 1.419 . S
C290 C291 1.363 . S
C290 H293 0.929 . S
C291 C290 1.363 . S
C291 C297 1.428 . S
H292 C288 0.930 . S
H293 C290 0.929 . S
S294 N295 1.613 . S
S294 N296 1.610 . S
N295 S294 1.613 . S
N295 C298 1.350 . S
N296 S294 1.610 . S
N296 C297 1.351 . S
C297 C291 1.428 . S
C297 N296 1.351 . S
C297 C298 1.434 . S
C298 C289 1.429 . S
C298 N295 1.350 . S
C298 C297 1.434 . S
C299 C300 1.369 . S
C299 C301 1.419 . S
C299 H303 0.930 . S
C300 C299 1.369 . S
C300 C309 1.429 . S
C301 C299 1.419 . S
C301 C302 1.363 . S
C301 H304 0.929 . S
C302 C301 1.363 . S
C302 C308 1.428 . S
H303 C299 0.930 . S
H304 C301 0.929 . S
S305 N306 1.613 . S
S305 N307 1.610 . S
N306 S305 1.613 . S
N306 C309 1.350 . S
N307 S305 1.610 . S
N307 C308 1.351 . S
C308 C302 1.428 . S
C308 N307 1.351 . S
C308 C309 1.434 . S
C309 C300 1.429 . S
C309 N306 1.350 . S
C309 C308 1.434 . S
C310 C311 1.369 . S
C310 C312 1.419 . S
C310 H314 0.930 . S
C311 C310 1.369 . S
C311 C320 1.429 . S
C312 C310 1.419 . S
C312 C313 1.363 . S
C312 H315 0.929 . S
C313 C312 1.363 . S
C313 C319 1.428 . S
H314 C310 0.930 . S
H315 C312 0.929 . S
S316 N317 1.613 . S
S316 N318 1.610 . S
N317 S316 1.613 . S
N317 C320 1.350 . S
N318 S316 1.610 . S
N318 C319 1.351 . S
C319 C313 1.428 . S
C319 N318 1.351 . S
C319 C320 1.434 . S
C320 C311 1.429 . S
C320 N317 1.350 . S
C320 C319 1.434 . S
C321 C322 1.369 . S
C321 C323 1.419 . S
C321 H325 0.930 . S
C322 C321 1.369 . S
C322 C331 1.429 . S
C323 C321 1.419 . S
C323 C324 1.363 . S
C323 H326 0.929 . S
C324 C323 1.363 . S
C324 C330 1.428 . S
H325 C321 0.930 . S
H326 C323 0.929 . S
S327 N328 1.613 . S
S327 N329 1.610 . S
N328 S327 1.613 . S
N328 C331 1.350 . S
N329 S327 1.610 . S
N329 C330 1.351 . S
C330 C324 1.428 . S
C330 N329 1.351 . S
C330 C331 1.434 . S
C331 C322 1.429 . S
C331 N328 1.350 . S
C331 C330 1.434 . S
C332 C333 1.369 . S
C332 C334 1.419 . S
C332 H336 0.930 . S
C333 C332 1.369 . S
C333 C342 1.429 . S
C334 C332 1.419 . S
C334 C335 1.363 . S
C334 H337 0.929 . S
C335 C334 1.363 . S
C335 C341 1.428 . S
H336 C332 0.930 . S
H337 C334 0.929 . S
S338 N339 1.613 . S
S338 N340 1.610 . S
N339 S338 1.613 . S
N339 C342 1.350 . S
N340 S338 1.610 . S
N340 C341 1.351 . S
C341 C335 1.428 . S
C341 N340 1.351 . S
C341 C342 1.434 . S
C342 C333 1.429 . S
C342 N339 1.350 . S
C342 C341 1.434 . S
C343 C344 1.369 . S
C343 C345 1.419 . S
C343 H347 0.930 . S
C344 C343 1.369 . S
C344 C353 1.429 . S
C345 C343 1.419 . S
C345 C346 1.363 . S
C345 H348 0.929 . S
C346 C345 1.363 . S
C346 C352 1.428 . S
H347 C343 0.930 . S
H348 C345 0.929 . S
S349 N350 1.613 . S
S349 N351 1.610 . S
N350 S349 1.613 . S
N350 C353 1.350 . S
N351 S349 1.610 . S
N351 C352 1.351 . S
C352 C346 1.428 . S
C352 N351 1.351 . S
C352 C353 1.434 . S
C353 C344 1.429 . S
C353 N350 1.350 . S
C353 C352 1.434 . S
C354 C355 1.369 . S
C354 C356 1.419 . S
C354 H358 0.930 . S
C355 C354 1.369 . S
C355 C364 1.429 . S
C356 C354 1.419 . S
C356 C357 1.363 . S
C356 H359 0.929 . S
C357 C356 1.363 . S
C357 C363 1.428 . S
H358 C354 0.930 . S
H359 C356 0.929 . S
S360 N361 1.613 . S
S360 N362 1.610 . S
N361 S360 1.613 . S
N361 C364 1.350 . S
N362 S360 1.610 . S
N362 C363 1.351 . S
C363 C357 1.428 . S
C363 N362 1.351 . S
C363 C364 1.434 . S
C364 C355 1.429 . S
C364 N361 1.350 . S
C364 C363 1.434 . S
C365 C366 1.369 . S
C365 C367 1.419 . S
C365 H369 0.930 . S
C366 C365 1.369 . S
C366 C375 1.429 . S
C367 C365 1.419 . S
C367 C368 1.363 . S
C367 H370 0.929 . S
C368 C367 1.363 . S
C368 C374 1.428 . S
H369 C365 0.930 . S
H370 C367 0.929 . S
S371 N372 1.613 . S
S371 N373 1.610 . S
N372 S371 1.613 . S
N372 C375 1.350 . S
N373 S371 1.610 . S
N373 C374 1.351 . S
C374 C368 1.428 . S
C374 N373 1.351 . S
C374 C375 1.434 . S
C375 C366 1.429 . S
C375 N372 1.350 . S
C375 C374 1.434 . S
C376 C377 1.369 . S
C376 C378 1.419 . S
C376 H380 0.930 . S
C377 C376 1.369 . S
C377 C386 1.429 . S
C378 C376 1.419 . S
C378 C379 1.363 . S
C378 H381 0.929 . S
C379 C378 1.363 . S
C379 C385 1.428 . S
H380 C376 0.930 . S
H381 C378 0.929 . S
S382 N383 1.613 . S
S382 N384 1.610 . S
N383 S382 1.613 . S
N383 C386 1.350 . S
N384 S382 1.610 . S
N384 C385 1.351 . S
C385 C379 1.428 . S
C385 N384 1.351 . S
C385 C386 1.434 . S
C386 C377 1.429 . S
C386 N383 1.350 . S
C386 C385 1.434 . S
C387 C388 1.369 . S
C387 C389 1.419 . S
C387 H391 0.930 . S
C388 C387 1.369 . S
C388 C397 1.429 . S
C389 C387 1.419 . S
C389 C390 1.363 . S
C389 H392 0.929 . S
C390 C389 1.363 . S
C390 C396 1.428 . S
H391 C387 0.930 . S
H392 C389 0.929 . S
S393 N394 1.613 . S
S393 N395 1.610 . S
N394 S393 1.613 . S
N394 C397 1.350 . S
N395 S393 1.610 . S
N395 C396 1.351 . S
C396 C390 1.428 . S
C396 N395 1.351 . S
C396 C397 1.434 . S
C397 C388 1.429 . S
C397 N394 1.350 . S
C397 C396 1.434 . S
C398 C399 1.369 . S
C398 C400 1.419 . S
C398 H402 0.930 . S
C399 C398 1.369 . S
C399 C408 1.429 . S
C400 C398 1.419 . S
C400 C401 1.363 . S
C400 H403 0.929 . S
C401 C400 1.363 . S
C401 C407 1.428 . S
H402 C398 0.930 . S
H403 C400 0.929 . S
S404 N405 1.613 . S
S404 N406 1.610 . S
N405 S404 1.613 . S
N405 C408 1.350 . S
N406 S404 1.610 . S
N406 C407 1.351 . S
C407 C401 1.428 . S
C407 N406 1.351 . S
C407 C408 1.434 . S
C408 C399 1.429 . S
C408 N405 1.350 . S
C408 C407 1.434 . S
C409 C410 1.369 . S
C409 C411 1.419 . S
C409 H413 0.930 . S
C410 C409 1.369 . S
C410 C419 1.429 . S
C411 C409 1.419 . S
C411 C412 1.363 . S
C411 H414 0.929 . S
C412 C411 1.363 . S
C412 C418 1.428 . S
H413 C409 0.930 . S
H414 C411 0.929 . S
S415 N416 1.613 . S
S415 N417 1.610 . S
N416 S415 1.613 . S
N416 C419 1.350 . S
N417 S415 1.610 . S
N417 C418 1.351 . S
C418 C412 1.428 . S
C418 N417 1.351 . S
C418 C419 1.434 . S
C419 C410 1.429 . S
C419 N416 1.350 . S
C419 C418 1.434 . S
C157 C10 1.393 . S
C159 C153 1.394 . S
C168 C88 1.394 . S
C170 C23 1.392 . S
C179 C36 1.393 . S
C181 C101 1.395 . S
C190 C114 1.395 . S
C192 C49 1.394 . S
C201 C127 1.394 . S
C203 C62 1.392 . S
C212 C140 1.392 . S
C214 C75 1.393 . S
C223 C47 1.406 . S
C225 C112 1.405 . S
C234 C60 1.401 . S
C236 C125 1.401 . S
C245 C73 1.406 . S
C247 C138 1.404 . S
C256 C151 1.405 . S
C258 C8 1.404 . S
C267 C21 1.402 . S
C269 C86 1.402 . S
C278 C34 1.398 . S
C280 C99 1.399 . S
C289 C109 1.480 . S
C291 C5 1.478 . S
C300 C122 1.475 . S
C302 C18 1.475 . S
C311 C31 1.479 . S
C313 C135 1.477 . S
C322 C44 1.474 . S
C324 C148 1.476 . S
C333 C57 1.479 . S
C335 C83 1.479 . S
C344 C96 1.475 . S
C346 C70 1.477 . S
C355 C0 1.363 . S
C357 C130 1.363 . S
C366 C143 1.359 . S
C368 C13 1.363 . S
C377 C26 1.363 . S
C379 C78 1.362 . S
C388 C39 1.364 . S
C390 C91 1.361 . S
C399 C52 1.365 . S
C401 C104 1.358 . S
C410 C65 1.360 . S
C412 C117 1.362 . S
