# Generated by pormake.
# Topology uni, (4)-cn, num edge types: 1
# Building blocks:
#     Node 0, Type 0, BuildingBlock: CEKHIL_clean_sbu_0, # of connection points: 4
#     Node 1, Type 0, BuildingBlock: CEKHIL_clean_sbu_0, # of connection points: 4
#     Node 2, Type 0, BuildingBlock: CEKHIL_clean_sbu_0, # of connection points: 4
#     Node 3, Type 0, BuildingBlock: CEKHIL_clean_sbu_0, # of connection points: 4
#     Node 4, Type 0, BuildingBlock: CEKHIL_clean_sbu_0, # of connection points: 4
#     Node 5, Type 0, BuildingBlock: CEKHIL_clean_sbu_0, # of connection points: 4
#     Edge 6, Type (0, 0), BuildingBlock: XUDNAN_clean_linker_2, # of connection points: 2
#     Edge 7, Type (0, 0), BuildingBlock: XUDNAN_clean_linker_2, # of connection points: 2
#     Edge 8, Type (0, 0), BuildingBlock: XUDNAN_clean_linker_2, # of connection points: 2
#     Edge 9, Type (0, 0), BuildingBlock: XUDNAN_clean_linker_2, # of connection points: 2
#     Edge 10, Type (0, 0), BuildingBlock: XUDNAN_clean_linker_2, # of connection points: 2
#     Edge 11, Type (0, 0), BuildingBlock: XUDNAN_clean_linker_2, # of connection points: 2
#     Edge 12, Type (0, 0), BuildingBlock: XUDNAN_clean_linker_2, # of connection points: 2
#     Edge 13, Type (0, 0), BuildingBlock: XUDNAN_clean_linker_2, # of connection points: 2
#     Edge 14, Type (0, 0), BuildingBlock: XUDNAN_clean_linker_2, # of connection points: 2
#     Edge 15, Type (0, 0), BuildingBlock: XUDNAN_clean_linker_2, # of connection points: 2
#     Edge 16, Type (0, 0), BuildingBlock: XUDNAN_clean_linker_2, # of connection points: 2
#     Edge 17, Type (0, 0), BuildingBlock: XUDNAN_clean_linker_2, # of connection points: 2
# Relax obj value: 0.073
# Max RMSD: 0.102
# Mean RMSD: 0.095
data_MOF--net-uni--node1-CEKHIL_clean_sbu_0--edge1-XUDNAN_clean_linker_2
_symmetry_space_group_name_H-M    P1
_symmetry_Int_Tables_number       1
_symmetry_cell_setting            triclinic
loop_
_symmetry_equiv_pos_as_xyz
'x, y, z'
_cell_length_a     38.103851
_cell_length_b     37.872142
_cell_length_c     22.954601
_cell_angle_alpha  89.973543
_cell_angle_beta   90.029062
_cell_angle_gamma 120.99688
loop_
_atom_site_label
_atom_site_type_symbol
_atom_site_fract_x
_atom_site_fract_y
_atom_site_fract_z
_atom_type_partial_charge
Co0 Co 0.67879 0.03727 0.0854 0.0
O1 O 0.70709 0.02197 0.14084 0.0
O2 O 0.65297 0.97776 0.08962 0.0
C3 C 0.7363 0.08676 0.04 0.0
O4 O 0.64165 0.03942 0.02287 0.0
Co5 Co 0.68983 0.12369 0.07496 0.0
O6 O 0.6561 0.10352 1.00316 0.0
C7 C 0.64283 0.06893 0.17416 0.0
C8 C 0.681 0.98388 0.12731 0.0
C9 C 0.63619 0.06501 0.99287 0.0
O10 O 0.64277 0.03807 0.15019 0.0
O11 O 0.66265 0.10547 0.15308 0.0
O12 O 0.72009 0.04821 0.02589 0.0
O13 O 0.71867 0.09413 0.08225 0.0
Co14 Co 0.67002 0.66786 0.25749 0.0
O15 O 0.72041 0.68893 0.30202 0.0
O16 O 0.69815 0.63956 0.23582 0.0
C17 C 0.67802 0.73022 0.23618 0.0
O18 O 0.6226 0.6385 0.19988 0.0
Co19 Co 0.59866 0.67978 0.29041 0.0
O20 O 0.57572 0.65664 0.21248 0.0
C21 C 0.61057 0.61968 0.35616 0.0
C22 C 0.72576 0.66219 0.27412 0.0
C23 C 0.58984 0.6378 0.18404 0.0
O24 O 0.63866 0.62488 0.31982 0.0
O25 O 0.593 0.64077 0.35406 0.0
O26 O 0.69643 0.71581 0.2051 0.0
O27 O 0.65768 0.70812 0.28041 0.0
Co28 Co 0.04165 0.67134 0.38414 0.0
O29 O 1.01135 0.69099 0.3403 0.0
O30 O 0.98465 0.64159 0.40664 0.0
C31 C 0.09625 0.73447 0.40517 0.0
O32 O 0.06105 0.64349 0.44134 0.0
Co33 Co 0.1261 0.68622 0.34938 0.0
O34 O 0.12695 0.66376 0.42723 0.0
C35 C 0.05297 0.62403 0.28519 0.0
C36 C 0.97917 0.66377 0.36871 0.0
C37 C 0.09397 0.64423 0.45651 0.0
O38 O 0.02992 0.6286 0.32179 0.0
O39 O 0.0921 0.64614 0.28657 0.0
O40 O 0.06318 0.71905 0.43662 0.0
O41 O 0.09454 0.71283 0.36066 0.0
Co42 Co 0.40465 0.03338 0.5837 0.0
O43 O 0.37887 0.05487 0.63466 0.0
O44 O 0.43486 0.09274 0.58276 0.0
C45 C 0.34564 0.98559 0.53918 0.0
O46 O 0.44044 0.02663 0.52413 0.0
Co47 Co 0.3877 0.94489 0.57509 0.0
O48 O 0.42242 0.96173 0.50393 0.0
C49 C 0.43723 0.99929 0.67391 0.0
C50 C 0.40724 0.09128 0.61725 0.0
C51 C 0.44467 1.00022 0.49454 0.0
O52 O 0.43841 0.03097 0.65066 0.0
O53 O 0.4163 0.96298 0.65231 0.0
O54 O 0.3648 0.02385 0.52252 0.0
O55 O 0.36174 0.97736 0.58264 0.0
Co56 Co 0.40329 0.39778 0.75662 0.0
O57 O 0.3521 0.37608 0.79927 0.0
O58 O 0.37796 0.42946 0.73935 0.0
C59 C 0.39417 0.33685 0.72505 0.0
O60 O 0.45221 0.42842 0.70188 0.0
Co61 Co 0.47152 0.38091 0.7893 0.0
O62 O 0.49558 0.4055 0.71226 0.0
C63 C 0.46228 0.441 0.85876 0.0
C64 C 0.34897 0.4054 0.77504 0.0
C65 C 0.48376 0.427 0.68543 0.0
O66 O 0.4343 0.43674 0.82299 0.0
O67 O 0.47953 0.41966 0.85502 0.0
O68 O 0.37688 0.35431 0.69841 0.0
O69 O 0.41311 0.35449 0.77289 0.0
Co70 Co 0.03689 0.40382 0.88386 0.0
O71 O 0.06664 0.38353 0.84017 0.0
O72 O 0.09392 0.43308 0.90621 0.0
C73 C 0.98209 0.34099 0.90531 0.0
O74 O 1.0181 0.43225 0.94092 0.0
Co75 Co 0.95274 0.3898 0.84976 0.0
O76 O 0.95187 0.41116 0.9284 0.0
C77 C 0.02595 0.45188 0.78551 0.0
C78 C 0.09898 0.4105 0.86855 0.0
C79 C 0.98513 0.43106 0.95698 0.0
O80 O 0.04891 0.44647 0.82124 0.0
O81 O 0.98679 0.43052 0.78757 0.0
O82 O 1.01521 0.35634 0.93665 0.0
O83 O 0.98377 0.36255 0.86066 0.0
H84 H 0.57582 0.99742 0.21968 0.0
H85 H 0.65593 0.12852 0.25156 0.0
H86 H 0.61486 0.12372 0.33649 0.0
H87 H 0.48282 0.9929 0.2576 0.0
H88 H 0.45972 0.94363 0.29368 0.0
H89 H 0.49658 0.95574 0.23647 0.0
H90 H 0.54075 0.94055 0.30596 0.0
H91 H 0.50385 0.9281 0.3633 0.0
H92 H 0.55681 0.96693 0.37495 0.0
H93 H 0.56425 0.10749 0.41306 0.0
H94 H 0.50756 0.0793 0.48292 0.0
H95 H 0.45833 0.9576 0.40689 0.0
C96 C 0.58501 0.02489 0.24516 0.0
C97 C 0.61917 0.06341 0.22847 0.0
C98 C 0.62984 0.09871 0.26278 0.0
C99 C 0.60672 0.09636 0.3114 0.0
C100 C 0.57286 0.05843 0.32584 0.0
C101 C 0.56199 0.02315 0.29437 0.0
C102 C 0.5232 0.98666 0.31942 0.0
C103 C 0.48853 0.96868 0.27408 0.0
C104 C 0.53167 0.9536 0.34227 0.0
C105 C 0.51402 1.00731 0.36917 0.0
C106 C 0.54325 0.04874 0.37163 0.0
C107 C 0.54128 0.07501 0.41203 0.0
C108 C 0.5087 0.0586 0.45147 0.0
C109 C 0.47828 0.01613 0.45078 0.0
C110 C 0.48115 0.99012 0.40892 0.0
H111 H 0.5472 0.59486 0.43366 0.0
H112 H 0.64369 0.57193 0.38399 0.0
H113 H 0.62146 0.51953 0.46195 0.0
H114 H 0.55427 0.58526 0.58735 0.0
H115 H 0.49983 0.56026 0.59908 0.0
H116 H 0.52315 0.5954 0.53904 0.0
H117 H 0.47369 0.53864 0.46724 0.0
H118 H 0.45021 0.5033 0.52706 0.0
H119 H 0.47098 0.48969 0.46646 0.0
H120 H 0.58889 0.47016 0.54742 0.0
H121 H 0.54868 0.42786 0.63141 0.0
H122 H 0.47336 0.48321 0.6234 0.0
C123 C 0.5638 0.57892 0.43893 0.0
C124 C 0.59735 0.58773 0.40248 0.0
C125 C 0.61792 0.56583 0.41114 0.0
C126 C 0.60551 0.53599 0.45538 0.0
C127 C 0.57238 0.52824 0.49051 0.0
C128 C 0.55178 0.54906 0.48256 0.0
C129 C 0.51719 0.53521 0.52601 0.0
C130 C 0.52404 0.57117 0.56519 0.0
C131 C 0.47556 0.51554 0.49482 0.0
C132 C 0.52158 0.50345 0.56005 0.0
C133 C 0.55357 0.49983 0.53899 0.0
C134 C 0.56373 0.47273 0.5641 0.0
C135 C 0.54068 0.44883 0.61192 0.0
C136 C 0.50771 0.45204 0.63428 0.0
C137 C 0.49818 0.47975 0.60751 0.0
H138 H 0.98892 0.48284 0.71689 0.0
H139 H 0.1066 0.49438 0.75011 0.0
H140 H 0.13752 0.54655 0.6718 0.0
H141 H 0.99671 0.49127 0.56319 0.0
H142 H 0.97214 0.52101 0.5573 0.0
H143 H 0.95987 0.48583 0.61716 0.0
H144 H 0.97906 0.54517 0.69031 0.0
H145 H 0.99138 0.58058 0.63063 0.0
H146 H 0.02895 0.59123 0.68628 0.0
H147 H 0.15479 0.59581 0.58656 0.0
H148 H 0.15726 0.63826 0.50321 0.0
H149 H 0.0282 0.59476 0.52738 0.0
C150 C 0.02125 0.49631 0.70795 0.0
C151 C 0.04526 0.48426 0.73975 0.0
C152 C 0.08752 0.50306 0.72661 0.0
C153 C 0.10536 0.53273 0.68213 0.0
C154 C 0.08067 0.54362 0.65148 0.0
C155 C 0.03956 0.52612 0.66414 0.0
C156 C 1.01956 0.54283 0.62467 0.0
C157 C 0.98504 0.50817 0.58843 0.0
C158 C 1.00381 0.56635 0.66009 0.0
C159 C 0.05559 0.57185 0.5868 0.0
C160 C 0.09063 0.57209 0.60312 0.0
C161 C 0.12755 0.59598 0.5737 0.0
C162 C 0.12862 0.62002 0.52628 0.0
C163 C 0.09296 0.62005 0.50844 0.0
C164 C 0.05611 0.59571 0.53972 0.0
H165 H 0.61895 0.10809 0.91101 0.0
H166 H 0.57955 0.98428 0.97127 0.0
H167 H 0.52369 0.95593 0.89959 0.0
H168 H 0.51788 0.09129 0.8837 0.0
H169 H 0.5324 0.12215 0.81844 0.0
H170 H 0.56964 0.13378 0.875 0.0
H171 H 0.6175 0.12793 0.80071 0.0
H172 H 0.58056 0.11659 0.74385 0.0
H173 H 0.59835 0.08158 0.7581 0.0
H174 H 0.47179 0.94035 0.82441 0.0
H175 H 0.42894 0.93708 0.74285 0.0
H176 H 0.50113 0.07043 0.72571 0.0
C177 C 0.5986 0.07501 0.90908 0.0
C178 C 0.60379 0.04848 0.94721 0.0
C179 C 0.57651 1.00537 0.94281 0.0
C180 C 0.54446 0.98889 0.90231 0.0
C181 C 0.54 0.01579 0.86601 0.0
C182 C 0.56641 0.05787 0.86835 0.0
C183 C 0.55496 0.07946 0.82276 0.0
C184 C 0.54301 0.10838 0.85172 0.0
C185 C 0.58992 0.10276 0.77874 0.0
C186 C 0.51805 0.04281 0.79449 0.0
C187 C 0.51002 1.00656 0.82084 0.0
C188 C 0.47786 0.96847 0.80318 0.0
C189 C 0.45365 0.96706 0.75651 0.0
C190 C 0.4616 1.00348 0.7271 0.0
C191 C 0.49403 0.04203 0.74716 0.0
H192 H 0.60176 0.58211 0.12289 0.0
H193 H 0.52488 0.63578 0.12873 0.0
H194 H 0.4845 0.59193 0.04611 0.0
H195 H 0.60257 0.57264 0.96565 0.0
H196 H 0.60067 0.52412 0.96848 0.0
H197 H 0.62437 0.56074 0.02685 0.0
H198 H 0.57636 0.50524 0.10113 0.0
H199 H 0.55238 0.46851 0.04297 0.0
H200 H 0.52169 0.47939 0.09097 0.0
H201 H 0.45157 0.54125 0.96353 0.0
H202 H 0.4288 0.48791 0.88738 0.0
H203 H 0.52643 0.46638 0.93615 0.0
C204 C 0.57666 0.58497 0.10658 0.0
C205 C 0.56666 0.61262 0.13251 0.0
C206 C 0.53326 0.61493 0.10987 0.0
C207 C 0.51009 0.59012 0.06284 0.0
C208 C 0.52053 0.56296 0.03879 0.0
C209 C 0.55305 0.56026 0.05983 0.0
C210 C 0.55732 0.52793 0.02693 0.0
C211 C 0.59869 0.54754 0.99509 0.0
C212 C 0.55159 0.49321 0.06796 0.0
C213 C 0.52205 0.51277 0.98424 0.0
C214 C 0.5013 0.53348 0.99168 0.0
C215 C 0.46763 0.52487 0.95731 0.0
C216 C 0.45491 0.49443 0.91409 0.0
C217 C 0.47567 0.47269 0.90553 0.0
C218 C 0.50968 0.48216 0.94146 0.0
H219 H 0.05277 0.4879 0.01892 0.0
H220 H 0.9204 0.42928 0.01296 0.0
H221 H 0.9228 0.47099 0.09727 0.0
H222 H 0.06311 0.49534 0.17601 0.0
H223 H 0.10971 0.54495 0.17399 0.0
H224 H 0.09723 0.50936 0.11458 0.0
H225 H 0.10343 0.56479 0.0421 0.0
H226 H 0.11581 0.6005 0.10128 0.0
H227 H 0.07339 0.58851 0.05383 0.0
H228 H 0.94011 0.5206 0.1822 0.0
H229 H 0.97095 0.57395 0.25897 0.0
H230 H 0.09178 0.60027 0.20746 0.0
C231 C 0.02418 0.48349 0.03551 0.0
C232 C 0.98637 0.4551 0.00912 0.0
C233 C 0.9498 0.45077 0.03218 0.0
C234 C 0.95082 0.47432 0.0802 0.0
C235 C 0.98865 0.50224 0.10477 0.0
C236 C 0.02465 0.50689 0.08314 0.0
C237 C 0.06142 0.53972 0.11636 0.0
C238 C 0.0842 0.52122 0.14706 0.0
C239 C 0.0902 0.57549 0.07598 0.0
C240 C 0.04054 0.55295 0.15992 0.0
C241 C 0.99856 0.53091 0.15283 0.0
C242 C 0.97298 0.53799 0.18813 0.0
C243 C 0.99079 0.56839 0.23169 0.0
C244 C 0.03386 0.59154 0.23949 0.0
C245 C 0.05879 0.58339 0.20287 0.0
H246 H 0.66282 0.76241 0.1376 0.0
H247 H 0.70462 0.7905 0.31645 0.0
H248 H 0.7116 0.85886 0.30715 0.0
H249 H 0.72566 0.86641 0.07797 0.0
H250 H 0.68567 0.86226 0.03126 0.0
H251 H 0.68712 0.81684 0.05014 0.0
H252 H 0.61298 0.78258 0.08947 0.0
H253 H 0.61138 0.82795 0.07096 0.0
H254 H 0.60087 0.80857 0.14455 0.0
H255 H 0.71526 0.92451 0.27845 0.0
H256 H 0.70983 0.98121 0.23475 0.0
H257 H 0.65904 0.90901 0.07746 0.0
C258 C 0.67407 0.78337 0.17428 0.0
C259 C 0.68396 0.77168 0.22749 0.0
C260 C 0.69734 0.7992 0.27524 0.0
C261 C 0.70141 0.83806 0.27033 0.0
C262 C 0.69113 0.84871 0.21764 0.0
C263 C 0.67728 0.82208 0.17058 0.0
C264 C 0.66577 0.84036 0.12032 0.0
C265 C 0.69266 0.84685 0.06676 0.0
C266 C 0.62003 0.81325 0.10547 0.0
C267 C 0.67539 0.88128 0.14653 0.0
C268 C 0.6906 0.88565 0.2024 0.0
C269 C 0.70308 0.92131 0.2349 0.0
C270 C 0.69993 0.95338 0.20974 0.0
C271 C 0.68362 0.94935 0.15309 0.0
C272 C 0.67104 0.91267 0.12125 0.0
H273 H 0.95642 0.72071 0.34507 0.0
H274 H 0.9085 0.58976 0.36443 0.0
H275 H 0.83906 0.57543 0.34072 0.0
H276 H 0.86902 0.71817 0.41399 0.0
H277 H 0.87068 0.75729 0.36733 0.0
H278 H 0.91702 0.75735 0.38321 0.0
H279 H 0.9301 0.75598 0.27277 0.0
H280 H 0.88374 0.75579 0.25655 0.0
H281 H 0.89113 0.71575 0.22802 0.0
H282 H 0.77588 0.57496 0.30881 0.0
H283 H 0.72085 0.58854 0.28342 0.0
H284 H 0.80696 0.71995 0.29583 0.0
C285 C 0.93122 0.68908 0.34413 0.0
C286 C 0.93774 0.65622 0.35603 0.0
C287 C 0.90406 0.61529 0.35544 0.0
C288 C 0.86458 0.60687 0.3418 0.0
C289 C 0.85904 0.63982 0.3302 0.0
C290 C 0.89122 0.68017 0.33235 0.0
C291 C 0.87628 0.70985 0.32114 0.0
C292 C 0.88369 0.73728 0.37461 0.0
C293 C 0.89652 0.73587 0.26636 0.0
C294 C 0.83085 0.67985 0.31154 0.0
C295 C 0.82181 0.6396 0.31605 0.0
C296 C 0.78247 0.60633 0.30595 0.0
C297 C 0.75147 0.61432 0.29133 0.0
C298 C 0.75963 0.65519 0.28823 0.0
C299 C 0.79984 0.68839 0.29875 0.0
H300 H 0.13609 0.76766 0.50922 0.0
H301 H 0.13957 0.79321 0.32461 0.0
H302 H 0.20184 0.86152 0.33927 0.0
H303 H 0.17538 0.87196 0.56317 0.0
H304 H 0.20647 0.86805 0.61904 0.0
H305 H 0.16022 0.82261 0.59507 0.0
H306 H 0.20151 0.78744 0.57116 0.0
H307 H 0.24786 0.83277 0.59504 0.0
H308 H 0.24489 0.81272 0.52282 0.0
H309 H 0.26321 0.92782 0.37427 0.0
H310 H 0.32344 0.98404 0.42531 0.0
H311 H 0.28463 0.91294 0.5852 0.0
C312 C 0.14976 0.78799 0.47222 0.0
C313 C 0.13278 0.7756 0.41589 0.0
C314 C 0.15205 0.80238 0.36812 0.0
C315 C 0.18734 0.84124 0.37606 0.0
C316 C 0.20361 0.85262 0.43196 0.0
C317 C 0.18585 0.82657 0.47914 0.0
C318 C 0.21138 0.84512 0.53372 0.0
C319 C 0.1869 0.85237 0.58051 0.0
C320 C 0.22736 0.81789 0.55704 0.0
C321 C 0.24602 0.88561 0.50989 0.0
C322 C 0.24057 0.88963 0.4513 0.0
C323 C 0.26796 0.92488 0.42007 0.0
C324 C 0.30202 0.9567 0.44938 0.0
C325 C 0.30885 0.9527 0.50895 0.0
C326 C 0.28039 0.91664 0.53942 0.0
H327 H 0.40205 0.27677 0.78162 0.0
H328 H 0.38786 0.31647 0.61045 0.0
H329 H 0.38995 0.25831 0.56577 0.0
H330 H 0.46969 0.24065 0.74034 0.0
H331 H 0.44621 0.19629 0.78756 0.0
H332 H 0.44486 0.24172 0.80659 0.0
H333 H 0.36582 0.19812 0.81379 0.0
H334 H 0.36692 0.15253 0.79479 0.0
H335 H 0.33655 0.16718 0.75249 0.0
H336 H 0.39712 0.19866 0.53888 0.0
H337 H 0.40238 0.13654 0.53141 0.0
H338 H 0.40534 0.12974 0.71972 0.0
C339 C 0.39948 0.27317 0.73474 0.0
C340 C 0.39501 0.30131 0.69938 0.0
C341 C 0.39122 0.29531 0.63833 0.0
C342 C 0.3925 0.26242 0.61255 0.0
C343 C 0.39684 0.2352 0.64844 0.0
C344 C 0.39971 0.23974 0.70826 0.0
C345 C 0.40261 0.20496 0.73662 0.0
C346 C 0.44327 0.22193 0.76973 0.0
C347 C 0.36578 0.17917 0.7768 0.0
C348 C 0.40128 0.18044 0.68331 0.0
C349 C 0.3985 0.19895 0.63296 0.0
C350 C 0.39879 0.18361 0.57798 0.0
C351 C 0.40188 0.14839 0.57417 0.0
C352 C 0.40382 0.12822 0.62487 0.0
C353 C 0.40327 0.14429 0.68031 0.0
H354 H 0.11961 0.35243 0.84171 0.0
H355 H 0.17111 0.48333 0.86906 0.0
H356 H 0.24013 0.49594 0.84704 0.0
H357 H 0.2039 0.34931 0.91138 0.0
H358 H 0.20174 0.31108 0.86234 0.0
H359 H 0.15603 0.3123 0.87786 0.0
H360 H 0.14544 0.31786 0.76754 0.0
H361 H 0.19116 0.31675 0.75168 0.0
H362 H 0.18603 0.35877 0.7256 0.0
H363 H 0.30265 0.49496 0.81617 0.0
H364 H 0.35649 0.47985 0.79007 0.0
H365 H 0.26689 0.34897 0.79318 0.0
C366 C 0.1455 0.3837 0.84286 0.0
C367 C 0.14011 0.41704 0.85657 0.0
C368 C 0.17466 0.45744 0.85868 0.0
C369 C 0.21393 0.46489 0.84603 0.0
C370 C 0.21833 0.43148 0.83264 0.0
C371 C 0.18524 0.39158 0.83203 0.0
C372 C 0.19895 0.36113 0.81909 0.0
C373 C 0.1896 0.33172 0.87075 0.0
C374 C 0.17922 0.33722 0.76261 0.0
C375 C 0.24477 0.39022 0.81169 0.0
C376 C 0.25508 0.4307 0.81887 0.0
C377 C 0.29506 0.46338 0.81122 0.0
C378 C 0.32538 0.45452 0.79618 0.0
C379 C 0.31588 0.41333 0.79018 0.0
C380 C 0.27504 0.38074 0.79837 0.0
H381 H 0.94121 0.30837 0.00873 0.0
H382 H 0.94048 0.28135 0.82518 0.0
H383 H 0.87905 0.21239 0.84001 0.0
H384 H 0.90421 0.20558 0.06556 0.0
H385 H 0.87182 0.20884 0.11984 0.0
H386 H 0.91747 0.25487 0.0958 0.0
H387 H 0.87432 0.28746 0.06839 0.0
H388 H 0.82856 0.24153 0.09234 0.0
H389 H 0.83156 0.26047 0.01936 0.0
H390 H 0.8188 0.14535 0.87549 0.0
H391 H 0.7595 0.08819 0.92682 0.0
H392 H 0.79456 0.16123 0.08489 0.0
C393 C 0.92826 0.28763 0.97199 0.0
C394 C 0.94579 0.29974 0.91595 0.0
C395 C 0.92752 0.2724 0.86847 0.0
C396 C 0.89274 0.23318 0.87652 0.0
C397 C 0.87594 0.22205 0.93217 0.0
C398 C 0.89265 0.2487 0.97896 0.0
C399 C 0.86681 0.23016 0.03327 0.0
C400 C 0.89156 0.22453 0.08146 0.0
C401 C 0.84928 0.25647 0.05458 0.0
C402 C 0.83329 0.18891 0.0098 0.0
C403 C 0.83951 0.18458 0.9516 0.0
C404 C 0.8134 0.14855 0.92093 0.0
C405 C 0.77988 0.11621 0.95039 0.0
C406 C 0.77227 0.12047 0.00951 0.0
C407 C 0.79938 0.15736 0.03941 0.0
loop_
_geom_bond_atom_site_label_1
_geom_bond_atom_site_label_2
_geom_bond_distance
_geom_bond_site_symmetry_2
_ccdc_geom_bond_type
Co0 O1 2.216 1_545 S
Co0 O2 2.091 1_545 S
Co0 O4 2.004 1_554 S
Co0 O10 2.021 . S
Co0 O12 2.137 . S
Co0 O13 2.244 . S
O1 Co0 2.216 1_565 S
O1 C8 1.247 . S
O2 Co0 2.091 1_565 S
O2 C8 1.261 . S
C3 O12 1.247 . S
C3 O13 1.272 . S
O4 Co0 2.004 1_556 S
O4 C9 1.259 . S
Co5 O6 2.061 . S
Co5 O11 2.052 . S
Co5 O13 2.135 . S
O6 Co5 2.061 . S
O6 C9 1.235 1_554 S
C7 O10 1.238 . S
C7 O11 1.241 . S
C8 O1 1.247 . S
C8 O2 1.261 . S
C9 O4 1.259 . S
C9 O6 1.235 1_556 S
O10 Co0 2.021 . S
O10 C7 1.238 . S
O11 Co5 2.052 . S
O11 C7 1.241 . S
O12 Co0 2.137 . S
O12 C3 1.247 . S
O13 Co0 2.244 . S
O13 C3 1.272 . S
O13 Co5 2.135 . S
Co14 O15 2.216 . S
Co14 O16 2.091 . S
Co14 O18 2.004 . S
Co14 O24 2.021 . S
Co14 O26 2.137 . S
Co14 O27 2.244 . S
O15 Co14 2.216 . S
O15 C22 1.247 . S
O16 Co14 2.091 . S
O16 C22 1.261 . S
C17 O26 1.247 . S
C17 O27 1.272 . S
O18 Co14 2.004 . S
O18 C23 1.259 . S
Co19 O20 2.061 . S
Co19 O25 2.052 . S
Co19 O27 2.135 . S
O20 Co19 2.061 . S
O20 C23 1.235 . S
C21 O24 1.238 . S
C21 O25 1.241 . S
C22 O15 1.247 . S
C22 O16 1.261 . S
C23 O18 1.259 . S
C23 O20 1.235 . S
O24 Co14 2.021 . S
O24 C21 1.238 . S
O25 Co19 2.052 . S
O25 C21 1.241 . S
O26 Co14 2.137 . S
O26 C17 1.247 . S
O27 Co14 2.244 . S
O27 C17 1.272 . S
O27 Co19 2.135 . S
Co28 O29 2.216 1_455 S
Co28 O30 2.091 1_455 S
Co28 O32 2.004 . S
Co28 O38 2.028 1_455 S
Co28 O40 2.137 . S
Co28 O41 2.244 . S
O29 Co28 2.216 1_655 S
O29 C36 1.247 . S
O30 Co28 2.091 1_655 S
O30 C36 1.261 . S
C31 O40 1.247 . S
C31 O41 1.272 . S
O32 Co28 2.004 . S
O32 C37 1.259 . S
Co33 O34 2.061 . S
Co33 O39 2.052 . S
Co33 O41 2.135 . S
O34 Co33 2.061 . S
O34 C37 1.235 . S
C35 O38 1.213 1_455 S
C35 O39 1.241 . S
C36 O29 1.247 . S
C36 O30 1.261 . S
C37 O32 1.259 . S
C37 O34 1.235 . S
O38 Co28 2.028 1_655 S
O38 C35 1.213 1_655 S
O39 Co33 2.052 . S
O39 C35 1.241 . S
O40 Co28 2.137 . S
O40 C31 1.247 . S
O41 Co28 2.244 . S
O41 C31 1.272 . S
O41 Co33 2.135 . S
Co42 O43 2.216 . S
Co42 O44 2.091 . S
Co42 O46 2.004 . S
Co42 O52 2.021 . S
Co42 O54 2.137 . S
Co42 O55 2.244 1_545 S
O43 Co42 2.216 . S
O43 C50 1.247 . S
O44 Co42 2.091 . S
O44 C50 1.261 . S
C45 O54 1.247 1_565 S
C45 O55 1.272 . S
O46 Co42 2.004 . S
O46 C51 1.259 . S
Co47 O48 2.061 . S
Co47 O53 2.052 . S
Co47 O55 2.135 . S
O48 Co47 2.061 . S
O48 C51 1.235 1_565 S
C49 O52 1.238 . S
C49 O53 1.241 1_545 S
C50 O43 1.247 . S
C50 O44 1.261 . S
C51 O46 1.259 . S
C51 O48 1.235 1_545 S
O52 Co42 2.021 . S
O52 C49 1.238 . S
O53 Co47 2.052 . S
O53 C49 1.241 1_565 S
O54 Co42 2.137 . S
O54 C45 1.247 1_545 S
O55 Co42 2.244 1_565 S
O55 C45 1.272 . S
O55 Co47 2.135 . S
Co56 O57 2.216 . S
Co56 O58 2.091 . S
Co56 O60 2.004 . S
Co56 O66 2.021 . S
Co56 O68 2.137 . S
Co56 O69 2.244 . S
O57 Co56 2.216 . S
O57 C64 1.247 . S
O58 Co56 2.091 . S
O58 C64 1.261 . S
C59 O68 1.247 . S
C59 O69 1.272 . S
O60 Co56 2.004 . S
O60 C65 1.259 . S
Co61 O62 2.061 . S
Co61 O67 2.052 . S
Co61 O69 2.135 . S
O62 Co61 2.061 . S
O62 C65 1.235 . S
C63 O66 1.238 . S
C63 O67 1.241 . S
C64 O57 1.247 . S
C64 O58 1.261 . S
C65 O60 1.259 . S
C65 O62 1.235 . S
O66 Co56 2.021 . S
O66 C63 1.238 . S
O67 Co61 2.052 . S
O67 C63 1.241 . S
O68 Co56 2.137 . S
O68 C59 1.247 . S
O69 Co56 2.244 . S
O69 C59 1.272 . S
O69 Co61 2.135 . S
Co70 O71 2.216 . S
Co70 O72 2.091 . S
Co70 O74 2.004 . S
Co70 O80 2.021 . S
Co70 O82 2.137 1_455 S
Co70 O83 2.244 1_455 S
O71 Co70 2.216 . S
O71 C78 1.247 . S
O72 Co70 2.091 . S
O72 C78 1.261 . S
C73 O82 1.247 . S
C73 O83 1.272 . S
O74 Co70 2.004 . S
O74 C79 1.259 1_556 S
Co75 O76 2.061 . S
Co75 O81 2.052 . S
Co75 O83 2.135 . S
O76 Co75 2.061 . S
O76 C79 1.235 1_656 S
C77 O80 1.238 . S
C77 O81 1.241 1_455 S
C78 O71 1.247 . S
C78 O72 1.261 . S
C79 O74 1.259 1_554 S
C79 O76 1.235 1_454 S
O80 Co70 2.021 . S
O80 C77 1.238 . S
O81 Co75 2.052 . S
O81 C77 1.241 1_655 S
O82 Co70 2.137 1_655 S
O82 C73 1.247 . S
O83 Co70 2.244 1_655 S
O83 C73 1.272 . S
O83 Co75 2.135 . S
H84 C96 0.930 . S
H85 C98 0.930 . S
H86 C99 0.930 . S
H87 C103 0.959 . S
H88 C103 0.959 . S
H89 C103 0.961 . S
H90 C104 0.960 . S
H91 C104 0.961 . S
H92 C104 0.959 . S
H93 C107 0.929 . S
H94 C108 0.931 . S
H95 C110 0.930 . S
C96 H84 0.930 . S
C96 C97 1.399 1_565 S
C96 C101 1.399 . S
C97 C96 1.399 1_545 S
C97 C98 1.376 . S
C98 H85 0.930 . S
C98 C97 1.376 . S
C98 C99 1.388 . S
C99 H86 0.930 . S
C99 C98 1.388 . S
C99 C100 1.390 . S
C100 C99 1.390 . S
C100 C101 1.394 1_545 S
C100 C106 1.465 . S
C101 C96 1.399 . S
C101 C100 1.394 1_565 S
C101 C102 1.516 . S
C102 C101 1.516 . S
C102 C103 1.502 . S
C102 C104 1.561 . S
C102 C105 1.526 . S
C103 H87 0.959 . S
C103 H88 0.959 . S
C103 H89 0.961 . S
C103 C102 1.502 . S
C104 H90 0.960 . S
C104 H91 0.961 . S
C104 H92 0.959 . S
C104 C102 1.561 . S
C105 C102 1.526 . S
C105 C106 1.396 1_565 S
C105 C110 1.390 . S
C106 C100 1.465 . S
C106 C105 1.396 1_545 S
C106 C107 1.399 . S
C107 H93 0.929 . S
C107 C106 1.399 . S
C107 C108 1.385 . S
C108 H94 0.931 . S
C108 C107 1.385 . S
C108 C109 1.389 . S
C109 C108 1.389 . S
C109 C110 1.387 1_545 S
C110 H95 0.930 . S
C110 C105 1.390 . S
C110 C109 1.387 1_565 S
H111 C123 0.930 . S
H112 C125 0.930 . S
H113 C126 0.930 . S
H114 C130 0.959 . S
H115 C130 0.959 . S
H116 C130 0.961 . S
H117 C131 0.960 . S
H118 C131 0.961 . S
H119 C131 0.959 . S
H120 C134 0.929 . S
H121 C135 0.931 . S
H122 C137 0.930 . S
C123 H111 0.930 . S
C123 C124 1.399 . S
C123 C128 1.399 . S
C124 C123 1.399 . S
C124 C125 1.376 . S
C125 H112 0.930 . S
C125 C124 1.376 . S
C125 C126 1.388 . S
C126 H113 0.930 . S
C126 C125 1.388 . S
C126 C127 1.390 . S
C127 C126 1.390 . S
C127 C128 1.394 . S
C127 C133 1.465 . S
C128 C123 1.399 . S
C128 C127 1.394 . S
C128 C129 1.516 . S
C129 C128 1.516 . S
C129 C130 1.502 . S
C129 C131 1.561 . S
C129 C132 1.526 . S
C130 H114 0.959 . S
C130 H115 0.959 . S
C130 H116 0.961 . S
C130 C129 1.502 . S
C131 H117 0.960 . S
C131 H118 0.961 . S
C131 H119 0.959 . S
C131 C129 1.561 . S
C132 C129 1.526 . S
C132 C133 1.396 . S
C132 C137 1.390 . S
C133 C127 1.465 . S
C133 C132 1.396 . S
C133 C134 1.399 . S
C134 H120 0.929 . S
C134 C133 1.399 . S
C134 C135 1.385 . S
C135 H121 0.931 . S
C135 C134 1.385 . S
C135 C136 1.389 . S
C136 C135 1.389 . S
C136 C137 1.387 . S
C137 H122 0.930 . S
C137 C132 1.390 . S
C137 C136 1.387 . S
H138 C150 0.930 . S
H139 C152 0.930 . S
H140 C153 0.930 1_655 S
H141 C157 0.949 1_655 S
H142 C157 0.959 . S
H143 C157 0.961 . S
H144 C158 0.960 . S
H145 C158 0.961 . S
H146 C158 0.959 . S
H147 C161 0.930 1_655 S
H148 C162 0.931 . S
H149 C164 0.930 . S
C150 H138 0.930 . S
C150 C151 1.399 . S
C150 C155 1.399 . S
C151 C150 1.399 . S
C151 C152 1.376 . S
C152 H139 0.930 . S
C152 C151 1.376 . S
C152 C153 1.388 . S
C153 H140 0.930 1_455 S
C153 C152 1.388 . S
C153 C154 1.390 . S
C154 C153 1.390 . S
C154 C155 1.394 . S
C154 C160 1.465 . S
C155 C150 1.399 . S
C155 C154 1.394 . S
C155 C156 1.516 . S
C156 C155 1.516 . S
C156 C157 1.502 . S
C156 C158 1.561 . S
C156 C159 1.526 . S
C157 H141 0.949 1_455 S
C157 H142 0.959 . S
C157 H143 0.961 . S
C157 C156 1.502 . S
C158 H144 0.960 . S
C158 H145 0.961 . S
C158 H146 0.959 . S
C158 C156 1.561 . S
C159 C156 1.526 . S
C159 C160 1.396 . S
C159 C164 1.390 . S
C160 C154 1.465 . S
C160 C159 1.396 . S
C160 C161 1.399 . S
C161 H147 0.930 1_455 S
C161 C160 1.399 . S
C161 C162 1.385 . S
C162 H148 0.931 . S
C162 C161 1.385 . S
C162 C163 1.389 . S
C163 C162 1.389 . S
C163 C164 1.387 . S
C164 H149 0.930 . S
C164 C159 1.390 . S
C164 C163 1.387 . S
H165 C177 0.930 . S
H166 C179 0.930 . S
H167 C180 0.930 . S
H168 C184 0.959 . S
H169 C184 0.959 . S
H170 C184 0.961 . S
H171 C185 0.960 . S
H172 C185 0.961 . S
H173 C185 0.959 . S
H174 C188 0.929 . S
H175 C189 0.931 . S
H176 C191 0.930 . S
C177 H165 0.930 . S
C177 C178 1.399 . S
C177 C182 1.399 . S
C178 C177 1.399 . S
C178 C179 1.376 1_545 S
C179 H166 0.930 . S
C179 C178 1.376 1_565 S
C179 C180 1.388 . S
C180 H167 0.930 . S
C180 C179 1.388 . S
C180 C181 1.390 1_565 S
C181 C180 1.390 1_545 S
C181 C182 1.394 . S
C181 C187 1.465 . S
C182 C177 1.399 . S
C182 C181 1.394 . S
C182 C183 1.516 . S
C183 C182 1.516 . S
C183 C184 1.502 . S
C183 C185 1.561 . S
C183 C186 1.526 . S
C184 H168 0.959 . S
C184 H169 0.959 . S
C184 H170 0.961 . S
C184 C183 1.502 . S
C185 H171 0.960 . S
C185 H172 0.961 . S
C185 H173 0.959 . S
C185 C183 1.561 . S
C186 C183 1.526 . S
C186 C187 1.396 . S
C186 C191 1.390 . S
C187 C181 1.465 . S
C187 C186 1.396 . S
C187 C188 1.399 1_545 S
C188 H174 0.929 . S
C188 C187 1.399 1_565 S
C188 C189 1.385 . S
C189 H175 0.931 . S
C189 C188 1.385 . S
C189 C190 1.389 1_565 S
C190 C189 1.389 1_545 S
C190 C191 1.387 . S
C191 H176 0.930 . S
C191 C186 1.390 . S
C191 C190 1.387 . S
H192 C204 0.930 . S
H193 C206 0.930 . S
H194 C207 0.930 . S
H195 C211 0.959 1_556 S
H196 C211 0.959 . S
H197 C211 0.961 . S
H198 C212 0.960 . S
H199 C212 0.961 . S
H200 C212 0.959 . S
H201 C215 0.929 . S
H202 C216 0.931 . S
H203 C218 0.930 . S
C204 H192 0.930 . S
C204 C205 1.399 . S
C204 C209 1.399 . S
C205 C204 1.399 . S
C205 C206 1.376 . S
C206 H193 0.930 . S
C206 C205 1.376 . S
C206 C207 1.388 1_554 S
C207 H194 0.930 . S
C207 C206 1.388 1_556 S
C207 C208 1.390 . S
C208 C207 1.390 . S
C208 C209 1.394 1_556 S
C208 C214 1.465 . S
C209 C204 1.399 . S
C209 C208 1.394 1_554 S
C209 C210 1.516 . S
C210 C209 1.516 . S
C210 C211 1.502 . S
C210 C212 1.561 . S
C210 C213 1.526 1_554 S
C211 H195 0.959 1_554 S
C211 H196 0.959 . S
C211 H197 0.961 . S
C211 C210 1.502 . S
C212 H198 0.960 . S
C212 H199 0.961 . S
C212 H200 0.959 . S
C212 C210 1.561 . S
C213 C210 1.526 1_556 S
C213 C214 1.396 . S
C213 C218 1.390 . S
C214 C208 1.465 . S
C214 C213 1.396 . S
C214 C215 1.399 . S
C215 H201 0.929 . S
C215 C214 1.399 . S
C215 C216 1.385 . S
C216 H202 0.931 . S
C216 C215 1.385 . S
C216 C217 1.389 . S
C217 C216 1.389 . S
C217 C218 1.387 . S
C218 H203 0.930 . S
C218 C213 1.390 . S
C218 C217 1.387 . S
H219 C231 0.930 . S
H220 C233 0.930 . S
H221 C234 0.930 . S
H222 C238 0.959 . S
H223 C238 0.959 . S
H224 C238 0.961 . S
H225 C239 0.960 . S
H226 C239 0.961 . S
H227 C239 0.959 . S
H228 C242 0.929 . S
H229 C243 0.931 . S
H230 C245 0.930 . S
C231 H219 0.930 . S
C231 C232 1.399 . S
C231 C236 1.399 . S
C232 C231 1.399 . S
C232 C233 1.376 1_455 S
C233 H220 0.930 . S
C233 C232 1.376 1_655 S
C233 C234 1.388 . S
C234 H221 0.930 . S
C234 C233 1.388 . S
C234 C235 1.390 . S
C235 C234 1.390 . S
C235 C236 1.394 1_655 S
C235 C241 1.465 . S
C236 C231 1.399 . S
C236 C235 1.394 1_455 S
C236 C237 1.516 . S
C237 C236 1.516 . S
C237 C238 1.502 . S
C237 C239 1.561 . S
C237 C240 1.526 . S
C238 H222 0.959 . S
C238 H223 0.959 . S
C238 H224 0.961 . S
C238 C237 1.502 . S
C239 H225 0.960 . S
C239 H226 0.961 . S
C239 H227 0.959 . S
C239 C237 1.561 . S
C240 C237 1.526 . S
C240 C241 1.396 1_455 S
C240 C245 1.390 . S
C241 C235 1.465 . S
C241 C240 1.396 1_655 S
C241 C242 1.399 . S
C242 H228 0.929 . S
C242 C241 1.399 . S
C242 C243 1.385 . S
C243 H229 0.931 . S
C243 C242 1.385 . S
C243 C244 1.389 1_655 S
C244 C243 1.389 1_455 S
C244 C245 1.387 . S
C245 H230 0.930 . S
C245 C240 1.390 . S
C245 C244 1.387 . S
H246 C258 0.930 . S
H247 C260 0.930 . S
H248 C261 0.930 . S
H249 C265 0.959 . S
H250 C265 0.959 . S
H251 C265 0.961 . S
H252 C266 0.960 . S
H253 C266 0.961 . S
H254 C266 0.959 . S
H255 C269 0.929 . S
H256 C270 0.931 . S
H257 C272 0.930 . S
C258 H246 0.930 . S
C258 C259 1.399 . S
C258 C263 1.399 . S
C259 C258 1.399 . S
C259 C260 1.376 . S
C260 H247 0.930 . S
C260 C259 1.376 . S
C260 C261 1.388 . S
C261 H248 0.930 . S
C261 C260 1.388 . S
C261 C262 1.390 . S
C262 C261 1.390 . S
C262 C263 1.394 . S
C262 C268 1.465 . S
C263 C258 1.399 . S
C263 C262 1.394 . S
C263 C264 1.516 . S
C264 C263 1.516 . S
C264 C265 1.502 . S
C264 C266 1.561 . S
C264 C267 1.526 . S
C265 H249 0.959 . S
C265 H250 0.959 . S
C265 H251 0.961 . S
C265 C264 1.502 . S
C266 H252 0.960 . S
C266 H253 0.961 . S
C266 H254 0.959 . S
C266 C264 1.561 . S
C267 C264 1.526 . S
C267 C268 1.396 . S
C267 C272 1.390 . S
C268 C262 1.465 . S
C268 C267 1.396 . S
C268 C269 1.399 . S
C269 H255 0.929 . S
C269 C268 1.399 . S
C269 C270 1.385 . S
C270 H256 0.931 . S
C270 C269 1.385 . S
C270 C271 1.389 . S
C271 C270 1.389 . S
C271 C272 1.387 . S
C272 H257 0.930 . S
C272 C267 1.390 . S
C272 C271 1.387 . S
H273 C285 0.930 . S
H274 C287 0.930 . S
H275 C288 0.930 . S
H276 C292 0.959 . S
H277 C292 0.959 . S
H278 C292 0.961 . S
H279 C293 0.960 . S
H280 C293 0.961 . S
H281 C293 0.959 . S
H282 C296 0.929 . S
H283 C297 0.931 . S
H284 C299 0.930 . S
C285 H273 0.930 . S
C285 C286 1.399 . S
C285 C290 1.399 . S
C286 C285 1.399 . S
C286 C287 1.376 . S
C287 H274 0.930 . S
C287 C286 1.376 . S
C287 C288 1.388 . S
C288 H275 0.930 . S
C288 C287 1.388 . S
C288 C289 1.390 . S
C289 C288 1.390 . S
C289 C290 1.394 . S
C289 C295 1.465 . S
C290 C285 1.399 . S
C290 C289 1.394 . S
C290 C291 1.516 . S
C291 C290 1.516 . S
C291 C292 1.502 . S
C291 C293 1.561 . S
C291 C294 1.526 . S
C292 H276 0.959 . S
C292 H277 0.959 . S
C292 H278 0.961 . S
C292 C291 1.502 . S
C293 H279 0.960 . S
C293 H280 0.961 . S
C293 H281 0.959 . S
C293 C291 1.561 . S
C294 C291 1.526 . S
C294 C295 1.396 . S
C294 C299 1.390 . S
C295 C289 1.465 . S
C295 C294 1.396 . S
C295 C296 1.399 . S
C296 H282 0.929 . S
C296 C295 1.399 . S
C296 C297 1.385 . S
C297 H283 0.931 . S
C297 C296 1.385 . S
C297 C298 1.389 . S
C298 C297 1.389 . S
C298 C299 1.387 . S
C299 H284 0.930 . S
C299 C294 1.390 . S
C299 C298 1.387 . S
H300 C312 0.930 . S
H301 C314 0.930 . S
H302 C315 0.930 . S
H303 C319 0.959 . S
H304 C319 0.959 . S
H305 C319 0.961 . S
H306 C320 0.960 . S
H307 C320 0.961 . S
H308 C320 0.959 . S
H309 C323 0.929 . S
H310 C324 0.931 . S
H311 C326 0.930 . S
C312 H300 0.930 . S
C312 C313 1.399 . S
C312 C317 1.399 . S
C313 C312 1.399 . S
C313 C314 1.376 . S
C314 H301 0.930 . S
C314 C313 1.376 . S
C314 C315 1.388 . S
C315 H302 0.930 . S
C315 C314 1.388 . S
C315 C316 1.390 . S
C316 C315 1.390 . S
C316 C317 1.394 . S
C316 C322 1.465 . S
C317 C312 1.399 . S
C317 C316 1.394 . S
C317 C318 1.516 . S
C318 C317 1.516 . S
C318 C319 1.502 . S
C318 C320 1.561 . S
C318 C321 1.526 . S
C319 H303 0.959 . S
C319 H304 0.959 . S
C319 H305 0.961 . S
C319 C318 1.502 . S
C320 H306 0.960 . S
C320 H307 0.961 . S
C320 H308 0.959 . S
C320 C318 1.561 . S
C321 C318 1.526 . S
C321 C322 1.396 . S
C321 C326 1.390 . S
C322 C316 1.465 . S
C322 C321 1.396 . S
C322 C323 1.399 . S
C323 H309 0.929 . S
C323 C322 1.399 . S
C323 C324 1.385 . S
C324 H310 0.931 . S
C324 C323 1.385 . S
C324 C325 1.389 . S
C325 C324 1.389 . S
C325 C326 1.387 . S
C326 H311 0.930 . S
C326 C321 1.390 . S
C326 C325 1.387 . S
H327 C339 0.930 . S
H328 C341 0.930 . S
H329 C342 0.930 . S
H330 C346 0.959 . S
H331 C346 0.959 . S
H332 C346 0.961 . S
H333 C347 0.960 . S
H334 C347 0.961 . S
H335 C347 0.959 . S
H336 C350 0.929 . S
H337 C351 0.931 . S
H338 C353 0.930 . S
C339 H327 0.930 . S
C339 C340 1.399 . S
C339 C344 1.399 . S
C340 C339 1.399 . S
C340 C341 1.376 . S
C341 H328 0.930 . S
C341 C340 1.376 . S
C341 C342 1.388 . S
C342 H329 0.930 . S
C342 C341 1.388 . S
C342 C343 1.390 . S
C343 C342 1.390 . S
C343 C344 1.394 . S
C343 C349 1.465 . S
C344 C339 1.399 . S
C344 C343 1.394 . S
C344 C345 1.516 . S
C345 C344 1.516 . S
C345 C346 1.502 . S
C345 C347 1.561 . S
C345 C348 1.526 . S
C346 H330 0.959 . S
C346 H331 0.959 . S
C346 H332 0.961 . S
C346 C345 1.502 . S
C347 H333 0.960 . S
C347 H334 0.961 . S
C347 H335 0.959 . S
C347 C345 1.561 . S
C348 C345 1.526 . S
C348 C349 1.396 . S
C348 C353 1.390 . S
C349 C343 1.465 . S
C349 C348 1.396 . S
C349 C350 1.399 . S
C350 H336 0.929 . S
C350 C349 1.399 . S
C350 C351 1.385 . S
C351 H337 0.931 . S
C351 C350 1.385 . S
C351 C352 1.389 . S
C352 C351 1.389 . S
C352 C353 1.387 . S
C353 H338 0.930 . S
C353 C348 1.390 . S
C353 C352 1.387 . S
H354 C366 0.930 . S
H355 C368 0.930 . S
H356 C369 0.930 . S
H357 C373 0.959 . S
H358 C373 0.959 . S
H359 C373 0.961 . S
H360 C374 0.960 . S
H361 C374 0.961 . S
H362 C374 0.959 . S
H363 C377 0.929 . S
H364 C378 0.931 . S
H365 C380 0.930 . S
C366 H354 0.930 . S
C366 C367 1.399 . S
C366 C371 1.399 . S
C367 C366 1.399 . S
C367 C368 1.376 . S
C368 H355 0.930 . S
C368 C367 1.376 . S
C368 C369 1.388 . S
C369 H356 0.930 . S
C369 C368 1.388 . S
C369 C370 1.390 . S
C370 C369 1.390 . S
C370 C371 1.394 . S
C370 C376 1.465 . S
C371 C366 1.399 . S
C371 C370 1.394 . S
C371 C372 1.516 . S
C372 C371 1.516 . S
C372 C373 1.502 . S
C372 C374 1.561 . S
C372 C375 1.526 . S
C373 H357 0.959 . S
C373 H358 0.959 . S
C373 H359 0.961 . S
C373 C372 1.502 . S
C374 H360 0.960 . S
C374 H361 0.961 . S
C374 H362 0.959 . S
C374 C372 1.561 . S
C375 C372 1.526 . S
C375 C376 1.396 . S
C375 C380 1.390 . S
C376 C370 1.465 . S
C376 C375 1.396 . S
C376 C377 1.399 . S
C377 H363 0.929 . S
C377 C376 1.399 . S
C377 C378 1.385 . S
C378 H364 0.931 . S
C378 C377 1.385 . S
C378 C379 1.389 . S
C379 C378 1.389 . S
C379 C380 1.387 . S
C380 H365 0.930 . S
C380 C375 1.390 . S
C380 C379 1.387 . S
H381 C393 0.930 . S
H382 C395 0.930 . S
H383 C396 0.930 . S
H384 C400 0.959 . S
H385 C400 0.959 . S
H386 C400 0.961 . S
H387 C401 0.960 . S
H388 C401 0.961 . S
H389 C401 0.959 . S
H390 C404 0.929 . S
H391 C405 0.931 . S
H392 C407 0.930 . S
C393 H381 0.930 . S
C393 C394 1.399 1_554 S
C393 C398 1.399 . S
C394 C393 1.399 1_556 S
C394 C395 1.376 . S
C395 H382 0.930 . S
C395 C394 1.376 . S
C395 C396 1.388 . S
C396 H383 0.930 . S
C396 C395 1.388 . S
C396 C397 1.390 . S
C397 C396 1.390 . S
C397 C398 1.394 1_556 S
C397 C403 1.465 . S
C398 C393 1.399 . S
C398 C397 1.394 1_554 S
C398 C399 1.516 . S
C399 C398 1.516 . S
C399 C400 1.502 . S
C399 C401 1.561 . S
C399 C402 1.526 . S
C400 H384 0.959 . S
C400 H385 0.959 . S
C400 H386 0.961 . S
C400 C399 1.502 . S
C401 H387 0.960 . S
C401 H388 0.961 . S
C401 H389 0.959 . S
C401 C399 1.561 . S
C402 C399 1.526 . S
C402 C403 1.396 1_554 S
C402 C407 1.390 . S
C403 C397 1.465 . S
C403 C402 1.396 1_556 S
C403 C404 1.399 . S
C404 H390 0.929 . S
C404 C403 1.399 . S
C404 C405 1.385 . S
C405 H391 0.931 . S
C405 C404 1.385 . S
C405 C406 1.389 1_556 S
C406 C405 1.389 1_554 S
C406 C407 1.387 . S
C407 H392 0.930 . S
C407 C402 1.390 . S
C407 C406 1.387 . S
C97 C7 1.638 . S
C109 C51 1.689 . S
C124 C21 1.601 . S
C136 C65 1.622 . S
C151 C77 1.643 . S
C163 C37 1.650 . S
C178 C9 1.693 . S
C190 C49 1.623 . S
C205 C23 1.617 . S
C217 C63 1.610 . S
C232 C79 1.641 . S
C244 C35 1.646 . S
C259 C17 1.373 . S
C271 C8 1.376 . S
C286 C36 1.343 . S
C298 C22 1.333 . S
C313 C31 1.399 . S
C325 C45 1.400 . S
C340 C59 1.381 . S
C352 C50 1.368 . S
C367 C78 1.349 . S
C379 C64 1.332 . S
C394 C73 1.402 . S
C406 C3 1.402 . S
