# Generated by pormake.
# Topology unj, (4)-cn, num edge types: 1
# Building blocks:
#     Node 0, Type 0, BuildingBlock: NAHDIM_clean_sbu_0, # of connection points: 4
#     Node 1, Type 0, BuildingBlock: NAHDIM_clean_sbu_0, # of connection points: 4
#     Node 2, Type 0, BuildingBlock: NAHDIM_clean_sbu_0, # of connection points: 4
#     Node 3, Type 0, BuildingBlock: NAHDIM_clean_sbu_0, # of connection points: 4
#     Node 4, Type 0, BuildingBlock: NAHDIM_clean_sbu_0, # of connection points: 4
#     Node 5, Type 0, BuildingBlock: NAHDIM_clean_sbu_0, # of connection points: 4
#     Edge 6, Type (0, 0), BuildingBlock: CIFDUS_clean_linker_0, # of connection points: 2
#     Edge 7, Type (0, 0), BuildingBlock: CIFDUS_clean_linker_0, # of connection points: 2
#     Edge 8, Type (0, 0), BuildingBlock: CIFDUS_clean_linker_0, # of connection points: 2
#     Edge 9, Type (0, 0), BuildingBlock: CIFDUS_clean_linker_0, # of connection points: 2
#     Edge 10, Type (0, 0), BuildingBlock: CIFDUS_clean_linker_0, # of connection points: 2
#     Edge 11, Type (0, 0), BuildingBlock: CIFDUS_clean_linker_0, # of connection points: 2
#     Edge 12, Type (0, 0), BuildingBlock: CIFDUS_clean_linker_0, # of connection points: 2
#     Edge 13, Type (0, 0), BuildingBlock: CIFDUS_clean_linker_0, # of connection points: 2
#     Edge 14, Type (0, 0), BuildingBlock: CIFDUS_clean_linker_0, # of connection points: 2
#     Edge 15, Type (0, 0), BuildingBlock: CIFDUS_clean_linker_0, # of connection points: 2
#     Edge 16, Type (0, 0), BuildingBlock: CIFDUS_clean_linker_0, # of connection points: 2
#     Edge 17, Type (0, 0), BuildingBlock: CIFDUS_clean_linker_0, # of connection points: 2
# Relax obj value: 0.007
# Max RMSD: 0.037
# Mean RMSD: 0.037
data_MOF--net-unj--node1-NAHDIM_clean_sbu_0--edge1-CIFDUS_clean_linker_0
_symmetry_space_group_name_H-M    P1
_symmetry_Int_Tables_number       1
_symmetry_cell_setting            triclinic
loop_
_symmetry_equiv_pos_as_xyz
'x, y, z'
_cell_length_a     30.343572
_cell_length_b     30.448293
_cell_length_c     29.701514
_cell_angle_alpha  89.577066
_cell_angle_beta   90.322565
_cell_angle_gamma 119.90054
loop_
_atom_site_label
_atom_site_type_symbol
_atom_site_fract_x
_atom_site_fract_y
_atom_site_fract_z
_atom_type_partial_charge
C0 C 0.4141 0.2699 0.63938 0.0
O1 O 0.45837 0.2886 0.65968 0.0
O2 O 0.50033 0.28602 0.53476 0.0
Zn3 Zn 0.4612 0.23122 0.58081 0.0
O4 O 0.50606 0.23435 0.63284 0.0
C5 C 0.45266 0.15587 0.5176 0.0
O6 O 0.49611 0.19366 0.50352 0.0
O7 O 0.40569 0.24276 0.60456 0.0
C8 C 0.53011 0.2101 0.63439 0.0
O9 O 0.52732 0.18188 0.60006 0.0
C10 C 0.5478 0.30599 0.5278 0.0
O11 O 0.57453 0.2917 0.55249 0.0
O12 O 0.43024 0.1628 0.55055 0.0
C13 C 0.12424 0.41845 0.79087 0.0
O14 O 0.13421 0.45126 0.75811 0.0
O15 O 0.23493 0.49303 0.72764 0.0
Zn16 Zn 0.23301 0.4592 0.78717 0.0
O17 O 0.27289 0.50978 0.8357 0.0
C18 C 0.25529 0.3885 0.74342 0.0
O19 O 0.21906 0.38368 0.71595 0.0
O20 O 0.16051 0.41458 0.80836 0.0
C21 C 0.31834 0.54514 0.82939 0.0
O22 O 0.33901 0.55047 0.78951 0.0
C23 C 0.24084 0.53718 0.72291 0.0
O24 O 0.2463 0.5644 0.75882 0.0
O25 O 0.26654 0.41756 0.77719 0.0
C26 C 0.6727 0.13644 0.95271 0.0
O27 O 0.64763 0.16078 0.94593 0.0
O28 O 0.70175 0.22771 0.86905 0.0
Zn29 Zn 0.7483 0.23019 0.91942 0.0
O30 O 0.75022 0.27435 0.97071 0.0
C31 C 0.83145 0.28843 0.86032 0.0
O32 O 0.79728 0.29837 0.84337 0.0
O33 O 0.71994 0.1589 0.94369 0.0
C34 C 0.77063 0.32225 0.96768 0.0
O35 O 0.79064 0.34472 0.9292 0.0
C36 C 0.6735 0.24754 0.86974 0.0
O37 O 0.67221 0.2712 0.90607 0.0
O38 O 0.81952 0.25865 0.89407 0.0
C39 C 0.57276 0.70912 0.15672 0.0
O40 O 0.53044 0.69724 0.17811 0.0
O41 O 0.49551 0.72398 0.05192 0.0
Zn42 Zn 0.54075 0.76718 0.1026 0.0
O43 O 0.49845 0.76692 0.15542 0.0
C44 C 0.5622 0.8585 0.05721 0.0
O45 O 0.51294 0.83153 0.05042 0.0
O46 O 0.58548 0.73894 0.12298 0.0
C47 C 0.45511 0.76347 0.15119 0.0
O48 O 0.43638 0.76077 0.11067 0.0
C49 C 0.45661 0.68077 0.05874 0.0
O50 O 0.44531 0.66319 0.10011 0.0
O51 O 0.5841 0.83888 0.07938 0.0
C52 C 0.89532 0.59962 0.24331 0.0
O53 O 0.88626 0.59097 0.20004 0.0
O54 O 0.78154 0.49256 0.19951 0.0
Zn55 Zn 0.78535 0.53542 0.2527 0.0
O56 O 0.75036 0.49117 0.30659 0.0
C57 C 0.76145 0.60087 0.19939 0.0
O58 O 0.79555 0.60123 0.1721 0.0
O59 O 0.85835 0.58084 0.27077 0.0
C60 C 0.70602 0.47967 0.31952 0.0
O61 O 0.68028 0.49653 0.29659 0.0
C62 C 0.76628 0.4455 0.20324 0.0
O63 O 0.75275 0.42373 0.243 0.0
O64 O 0.75168 0.57614 0.23615 0.0
C65 C 0.30987 0.86831 0.43566 0.0
O66 O 0.33899 0.85948 0.40909 0.0
O67 O 0.28733 0.7543 0.38413 0.0
Zn68 Zn 0.24463 0.7586 0.43405 0.0
O69 O 0.24987 0.72603 0.49164 0.0
C70 C 0.16232 0.72991 0.37209 0.0
O71 O 0.20033 0.75734 0.34476 0.0
O72 O 0.26787 0.83144 0.44904 0.0
C73 C 0.24099 0.6808 0.49613 0.0
O74 O 0.22779 0.65129 0.46068 0.0
C75 C 0.32853 0.75352 0.38934 0.0
O76 O 0.34584 0.75474 0.43023 0.0
O77 O 0.17181 0.72485 0.41295 0.0
H78 H 0.36119 0.0715 0.53412 0.0
H79 H 0.49659 0.1271 0.45314 0.0
H80 H 0.46352 0.0437 0.41951 0.0
H81 H 0.39755 0.95442 0.41464 0.0
H82 H 0.26194 0.89843 0.49536 0.0
H83 H 0.29363 0.98261 0.5272 0.0
C84 C 0.38342 0.06541 0.50904 0.0
C85 C 0.4314 0.10549 0.49638 0.0
C86 C 0.36416 0.01728 0.48971 0.0
C87 C 0.45956 0.09698 0.46361 0.0
C88 C 0.44071 0.04924 0.44433 0.0
C89 C 0.37474 0.96062 0.43901 0.0
C90 C 0.32755 0.92006 0.45269 0.0
C91 C 0.39324 0.00905 0.45735 0.0
C92 C 0.29847 0.92891 0.48423 0.0
C93 C 0.31659 0.97705 0.50256 0.0
H94 H 0.41801 0.32031 0.71556 0.0
H95 H 0.32486 0.24965 0.59853 0.0
H96 H 0.26576 0.27765 0.62183 0.0
H97 H 0.24331 0.32646 0.67312 0.0
H98 H 0.33712 0.39724 0.78987 0.0
H99 H 0.39292 0.36457 0.76904 0.0
C100 C 0.38465 0.31075 0.69523 0.0
C101 C 0.37615 0.28331 0.65516 0.0
C102 C 0.35096 0.32711 0.7087 0.0
C103 C 0.33244 0.27087 0.62947 0.0
C104 C 0.29865 0.28696 0.64272 0.0
C105 C 0.27571 0.33441 0.69423 0.0
C106 C 0.28616 0.3646 0.73281 0.0
C107 C 0.30794 0.31574 0.68192 0.0
C108 C 0.3282 0.37427 0.75989 0.0
C109 C 0.36026 0.35569 0.74797 0.0
H110 H 0.91417 0.28252 0.88951 0.0
H111 H 0.86551 0.35134 0.78767 0.0
H112 H 0.95102 0.39618 0.75687 0.0
H113 H 0.03995 0.41796 0.75965 0.0
H114 H 0.09031 0.35044 0.86109 0.0
H115 H 0.00387 0.30295 0.89098 0.0
C116 C 0.92226 0.30714 0.86046 0.0
C117 C 0.88337 0.31359 0.84111 0.0
C118 C 0.97186 0.33319 0.84282 0.0
C119 C 0.89458 0.34567 0.80343 0.0
C120 C 0.94357 0.37144 0.78571 0.0
C121 C 0.03213 0.39276 0.78822 0.0
C122 C 0.07166 0.38797 0.80815 0.0
C123 C 0.98254 0.36579 0.8053 0.0
C124 C 0.06063 0.35495 0.84509 0.0
C125 C 0.01119 0.3278 0.86226 0.0
H126 H 0.52393 0.91442 0.02124 0.0
H127 H 0.66574 0.9204 0.05305 0.0
H128 H 0.71285 0.00665 0.02259 0.0
H129 H 0.71347 0.0807 0.987 0.0
H130 H 0.57062 0.07395 0.9579 0.0
H131 H 0.52439 0.98773 0.98711 0.0
C132 C 0.56516 0.93446 0.02148 0.0
C133 C 0.59122 0.91089 0.03929 0.0
C134 C 0.59188 0.98401 1.00434 0.0
C135 C 0.64469 0.93767 0.0396 0.0
C136 C 0.67166 0.98697 0.02211 0.0
C137 C 0.67224 0.06025 0.98695 0.0
C138 C 0.64562 0.0838 0.9702 0.0
C139 C 0.64564 0.01057 1.00437 0.0
C140 C 0.59217 0.0569 0.97067 0.0
C141 C 0.56559 0.00749 0.98735 0.0
H142 H 0.68127 0.59764 0.24298 0.0
H143 H 0.77719 0.66211 0.12637 0.0
H144 H 0.72817 0.70229 0.10341 0.0
H145 H 0.65677 0.71753 0.11547 0.0
H146 H 0.56002 0.65137 0.23139 0.0
H147 H 0.61073 0.61359 0.25548 0.0
C148 C 0.69167 0.62068 0.21265 0.0
C149 C 0.73288 0.6268 0.18646 0.0
C150 C 0.66305 0.6433 0.19939 0.0
C151 C 0.74562 0.65666 0.14716 0.0
C152 C 0.71759 0.67966 0.13397 0.0
C153 C 0.64687 0.695 0.14609 0.0
C154 C 0.60456 0.6873 0.1715 0.0
C155 C 0.67602 0.67299 0.15966 0.0
C156 C 0.59226 0.65786 0.21105 0.0
C157 C 0.62127 0.63621 0.22492 0.0
H158 H 0.13058 0.72386 0.28537 0.0
H159 H 0.07483 0.67904 0.421 0.0
H160 H 0.98743 0.63642 0.39318 0.0
H161 H 0.92696 0.61049 0.33039 0.0
H162 H 0.98257 0.65319 0.1945 0.0
H163 H 0.06995 0.69821 0.22251 0.0
C164 C 0.09934 0.70493 0.30891 0.0
C165 C 0.10931 0.70468 0.35522 0.0
C166 C 0.04915 0.6801 0.29266 0.0
C167 C 0.06831 0.67975 0.38518 0.0
C168 C 0.01828 0.65539 0.36931 0.0
C169 C 0.95814 0.62986 0.30686 0.0
C170 C 0.94817 0.62848 0.26039 0.0
C171 C 0.00828 0.65515 0.32312 0.0
C172 C 0.98911 0.65357 0.23042 0.0
C173 C 0.03912 0.67932 0.2464 0.0
H174 H 0.64291 0.342 0.49398 0.0
H175 H 0.50549 0.3493 0.47528 0.0
H176 H 0.54248 0.40409 0.40964 0.0
H177 H 0.61295 0.44823 0.35638 0.0
H178 H 0.74981 0.4397 0.37439 0.0
H179 H 0.7138 0.38707 0.44133 0.0
C180 C 0.62115 0.35584 0.47576 0.0
C181 C 0.5715 0.3415 0.48957 0.0
C182 C 0.64242 0.38692 0.43771 0.0
C183 C 0.54377 0.35963 0.46537 0.0
C184 C 0.56486 0.39094 0.42776 0.0
C185 C 0.63496 0.43492 0.37494 0.0
C186 C 0.68398 0.44788 0.36025 0.0
C187 C 0.61399 0.40449 0.4134 0.0
C188 C 0.71194 0.43029 0.38482 0.0
C189 C 0.69141 0.40019 0.42319 0.0
H190 H 0.22633 0.58728 0.51822 0.0
H191 H 0.26302 0.73136 0.57597 0.0
H192 H 0.26654 0.6999 0.6508 0.0
H193 H 0.25814 0.63129 0.70027 0.0
H194 H 0.22204 0.48731 0.64276 0.0
H195 H 0.21945 0.51901 0.56767 0.0
C196 C 0.23519 0.61184 0.54714 0.0
C197 C 0.24425 0.66158 0.54134 0.0
C198 C 0.23721 0.59354 0.59027 0.0
C199 C 0.25581 0.69288 0.5793 0.0
C200 C 0.25781 0.67493 0.62222 0.0
C201 C 0.24973 0.60681 0.67134 0.0
C202 C 0.24018 0.55695 0.67728 0.0
C203 C 0.24838 0.62528 0.62815 0.0
C204 C 0.22955 0.52588 0.63928 0.0
C205 C 0.22801 0.54394 0.59625 0.0
H206 H 0.66748 0.20089 0.79036 0.0
H207 H 0.61165 0.28827 0.85839 0.0
H208 H 0.56291 0.28489 0.79148 0.0
H209 H 0.53622 0.25723 0.71367 0.0
H210 H 0.5916 0.16919 0.64608 0.0
H211 H 0.64052 0.17291 0.71287 0.0
C212 C 0.64463 0.21918 0.79065 0.0
C213 C 0.64328 0.2448 0.82942 0.0
C214 C 0.61667 0.21707 0.7521 0.0
C215 C 0.6134 0.26824 0.82908 0.0
C216 C 0.58553 0.26638 0.79079 0.0
C217 C 0.55907 0.23893 0.71347 0.0
C218 C 0.56024 0.21302 0.67483 0.0
C219 C 0.58694 0.24096 0.7521 0.0
C220 C 0.58992 0.18937 0.6753 0.0
C221 C 0.61794 0.19146 0.71351 0.0
H222 H 0.29608 0.52985 0.91867 0.0
H223 H 0.40926 0.63341 0.82518 0.0
H224 H 0.4614 0.6852 0.88779 0.0
H225 H 0.47591 0.69985 0.96914 0.0
H226 H 0.36405 0.59441 0.06257 0.0
H227 H 0.31044 0.54461 0.9999 0.0
C228 C 0.33198 0.56395 0.91194 0.0
C229 C 0.34869 0.57776 0.86728 0.0
C230 C 0.36217 0.59309 0.94812 0.0
C231 C 0.39553 0.62184 0.85922 0.0
C232 C 0.42539 0.65148 0.89502 0.0
C233 C 0.43974 0.66605 0.97582 0.0
C234 C 0.4241 0.6509 0.02054 0.0
C235 C 0.40929 0.63725 0.93961 0.0
C236 C 0.37718 0.60688 0.02853 0.0
C237 C 0.34641 0.57839 0.99269 0.0
H238 H 0.74049 0.28848 0.05324 0.0
H239 H 0.8049 0.42393 0.97117 0.0
H240 H 0.80895 0.4739 0.0366 0.0
H241 H 0.79483 0.47931 0.11726 0.0
H242 H 0.73135 0.34384 0.19932 0.0
H243 H 0.72644 0.29386 0.13372 0.0
C244 C 0.75532 0.32891 0.04958 0.0
C245 C 0.77234 0.35236 0.00729 0.0
C246 C 0.75783 0.3575 0.08738 0.0
C247 C 0.79158 0.40485 1.00328 0.0
C248 C 0.79392 0.4335 0.04071 0.0
C249 C 0.77988 0.43885 0.12083 0.0
C250 C 0.76349 0.41543 0.16322 0.0
C251 C 0.77727 0.41025 0.08295 0.0
C252 C 0.7443 0.36294 0.16716 0.0
C253 C 0.74143 0.33425 0.12963 0.0
H254 H 0.3041 0.75408 0.30122 0.0
H255 H 0.41909 0.75422 0.3876 0.0
H256 H 0.46842 0.75742 0.32165 0.0
H257 H 0.47932 0.76104 0.23943 0.0
H258 H 0.36394 0.76082 0.15348 0.0
H259 H 0.31451 0.75688 0.21939 0.0
C260 C 0.3399 0.75469 0.30573 0.0
C261 C 0.35783 0.75395 0.34939 0.0
C262 C 0.36813 0.75667 0.26771 0.0
C263 C 0.40432 0.75475 0.35444 0.0
C264 C 0.43262 0.75665 0.31672 0.0
C265 C 0.4434 0.76021 0.23508 0.0
C266 C 0.4255 0.76137 0.19148 0.0
C267 C 0.41499 0.75782 0.27319 0.0
C268 C 0.37873 0.76003 0.18656 0.0
C269 C 0.35037 0.75775 0.22427 0.0
loop_
_geom_bond_atom_site_label_1
_geom_bond_atom_site_label_2
_geom_bond_distance
_geom_bond_site_symmetry_2
_ccdc_geom_bond_type
C0 O1 1.160 . S
C0 O7 1.185 . S
O1 C0 1.160 . S
O2 Zn3 1.899 . S
O2 C10 1.284 . S
Zn3 O2 1.899 . S
Zn3 O4 2.032 . S
Zn3 O7 2.086 . S
Zn3 O12 1.977 . S
O4 Zn3 2.032 . S
O4 C8 1.278 . S
C5 O6 1.203 . S
C5 O12 1.267 . S
O6 C5 1.203 . S
O7 C0 1.185 . S
O7 Zn3 2.086 . S
C8 O4 1.278 . S
C8 O9 1.211 . S
O9 C8 1.211 . S
C10 O2 1.284 . S
C10 O11 1.273 . S
O11 C10 1.273 . S
O12 Zn3 1.977 . S
O12 C5 1.267 . S
C13 O14 1.160 . S
C13 O20 1.185 . S
O14 C13 1.160 . S
O15 Zn16 1.899 . S
O15 C23 1.284 . S
Zn16 O15 1.899 . S
Zn16 O17 2.032 . S
Zn16 O20 2.086 . S
Zn16 O25 1.977 . S
O17 Zn16 2.032 . S
O17 C21 1.278 . S
C18 O19 1.203 . S
C18 O25 1.267 . S
O19 C18 1.203 . S
O20 C13 1.185 . S
O20 Zn16 2.086 . S
C21 O17 1.278 . S
C21 O22 1.211 . S
O22 C21 1.211 . S
C23 O15 1.284 . S
C23 O24 1.273 . S
O24 C23 1.273 . S
O25 Zn16 1.977 . S
O25 C18 1.267 . S
C26 O27 1.160 . S
C26 O33 1.185 . S
O27 C26 1.160 . S
O28 Zn29 1.899 . S
O28 C36 1.284 . S
Zn29 O28 1.899 . S
Zn29 O30 2.032 . S
Zn29 O33 2.086 . S
Zn29 O38 1.977 . S
O30 Zn29 2.032 . S
O30 C34 1.278 . S
C31 O32 1.203 . S
C31 O38 1.267 . S
O32 C31 1.203 . S
O33 C26 1.185 . S
O33 Zn29 2.086 . S
C34 O30 1.278 . S
C34 O35 1.211 . S
O35 C34 1.211 . S
C36 O28 1.284 . S
C36 O37 1.273 . S
O37 C36 1.273 . S
O38 Zn29 1.977 . S
O38 C31 1.267 . S
C39 O40 1.160 . S
C39 O46 1.185 . S
O40 C39 1.160 . S
O41 Zn42 1.899 . S
O41 C49 1.284 . S
Zn42 O41 1.899 . S
Zn42 O43 2.032 . S
Zn42 O46 2.086 . S
Zn42 O51 1.977 . S
O43 Zn42 2.032 . S
O43 C47 1.278 . S
C44 O45 1.203 . S
C44 O51 1.267 . S
O45 C44 1.203 . S
O46 C39 1.185 . S
O46 Zn42 2.086 . S
C47 O43 1.278 . S
C47 O48 1.211 . S
O48 C47 1.211 . S
C49 O41 1.284 . S
C49 O50 1.273 . S
O50 C49 1.273 . S
O51 Zn42 1.977 . S
O51 C44 1.267 . S
C52 O53 1.160 . S
C52 O59 1.185 . S
O53 C52 1.160 . S
O54 Zn55 1.899 . S
O54 C62 1.284 . S
Zn55 O54 1.899 . S
Zn55 O56 2.032 . S
Zn55 O59 2.086 . S
Zn55 O64 1.977 . S
O56 Zn55 2.032 . S
O56 C60 1.278 . S
C57 O58 1.203 . S
C57 O64 1.267 . S
O58 C57 1.203 . S
O59 C52 1.185 . S
O59 Zn55 2.086 . S
C60 O56 1.278 . S
C60 O61 1.211 . S
O61 C60 1.211 . S
C62 O54 1.284 . S
C62 O63 1.273 . S
O63 C62 1.273 . S
O64 Zn55 1.977 . S
O64 C57 1.267 . S
C65 O66 1.160 . S
C65 O72 1.185 . S
O66 C65 1.160 . S
O67 Zn68 1.899 . S
O67 C75 1.284 . S
Zn68 O67 1.899 . S
Zn68 O69 2.032 . S
Zn68 O72 2.086 . S
Zn68 O77 1.977 . S
O69 Zn68 2.032 . S
O69 C73 1.278 . S
C70 O71 1.203 . S
C70 O77 1.267 . S
O71 C70 1.203 . S
O72 C65 1.185 . S
O72 Zn68 2.086 . S
C73 O69 1.278 . S
C73 O74 1.211 . S
O74 C73 1.211 . S
C75 O67 1.284 . S
C75 O76 1.273 . S
O76 C75 1.273 . S
O77 Zn68 1.977 . S
O77 C70 1.267 . S
H78 C84 0.930 . S
H79 C87 0.930 . S
H80 C88 0.930 . S
H81 C89 0.930 . S
H82 C92 0.930 . S
H83 C93 0.930 . S
C84 H78 0.930 . S
C84 C85 1.355 . S
C84 C86 1.415 . S
C85 C84 1.355 . S
C85 C87 1.419 . S
C86 C84 1.415 . S
C86 C91 1.425 . S
C86 C93 1.409 1_545 S
C87 H79 0.930 . S
C87 C85 1.419 . S
C87 C88 1.362 . S
C88 H80 0.930 . S
C88 C87 1.362 . S
C88 C91 1.409 . S
C89 H81 0.930 . S
C89 C90 1.355 . S
C89 C91 1.415 1_565 S
C90 C89 1.355 . S
C90 C92 1.419 . S
C91 C86 1.425 . S
C91 C88 1.409 . S
C91 C89 1.415 1_545 S
C92 H82 0.930 . S
C92 C90 1.419 . S
C92 C93 1.362 . S
C93 H83 0.930 . S
C93 C86 1.409 1_565 S
C93 C92 1.362 . S
H94 C100 0.930 . S
H95 C103 0.930 . S
H96 C104 0.930 . S
H97 C105 0.930 . S
H98 C108 0.930 . S
H99 C109 0.930 . S
C100 H94 0.930 . S
C100 C101 1.355 . S
C100 C102 1.415 . S
C101 C100 1.355 . S
C101 C103 1.419 . S
C102 C100 1.415 . S
C102 C107 1.425 . S
C102 C109 1.409 . S
C103 H95 0.930 . S
C103 C101 1.419 . S
C103 C104 1.362 . S
C104 H96 0.930 . S
C104 C103 1.362 . S
C104 C107 1.409 . S
C105 H97 0.930 . S
C105 C106 1.355 . S
C105 C107 1.415 . S
C106 C105 1.355 . S
C106 C108 1.419 . S
C107 C102 1.425 . S
C107 C104 1.409 . S
C107 C105 1.415 . S
C108 H98 0.930 . S
C108 C106 1.419 . S
C108 C109 1.362 . S
C109 H99 0.930 . S
C109 C102 1.409 . S
C109 C108 1.362 . S
H110 C116 0.930 . S
H111 C119 0.930 . S
H112 C120 0.930 . S
H113 C121 0.930 . S
H114 C124 0.930 . S
H115 C125 0.930 . S
C116 H110 0.930 . S
C116 C117 1.355 . S
C116 C118 1.415 . S
C117 C116 1.355 . S
C117 C119 1.419 . S
C118 C116 1.415 . S
C118 C123 1.425 . S
C118 C125 1.409 1_655 S
C119 H111 0.930 . S
C119 C117 1.419 . S
C119 C120 1.362 . S
C120 H112 0.930 . S
C120 C119 1.362 . S
C120 C123 1.409 . S
C121 H113 0.930 . S
C121 C122 1.355 . S
C121 C123 1.415 1_455 S
C122 C121 1.355 . S
C122 C124 1.419 . S
C123 C118 1.425 . S
C123 C120 1.409 . S
C123 C121 1.415 1_655 S
C124 H114 0.930 . S
C124 C122 1.419 . S
C124 C125 1.362 . S
C125 H115 0.930 . S
C125 C118 1.409 1_455 S
C125 C124 1.362 . S
H126 C132 0.930 . S
H127 C135 0.930 . S
H128 C136 0.930 . S
H129 C137 0.930 . S
H130 C140 0.930 . S
H131 C141 0.930 . S
C132 H126 0.930 . S
C132 C133 1.355 . S
C132 C134 1.415 . S
C133 C132 1.355 . S
C133 C135 1.419 1_554 S
C134 C132 1.415 . S
C134 C139 1.425 1_554 S
C134 C141 1.409 1_565 S
C135 H127 0.930 . S
C135 C133 1.419 1_556 S
C135 C136 1.362 . S
C136 H128 0.930 . S
C136 C135 1.362 . S
C136 C139 1.409 . S
C137 H129 0.930 . S
C137 C138 1.355 . S
C137 C139 1.415 1_545 S
C138 C137 1.355 . S
C138 C140 1.419 1_556 S
C139 C134 1.425 1_556 S
C139 C136 1.409 . S
C139 C137 1.415 1_565 S
C140 H130 0.930 . S
C140 C138 1.419 1_554 S
C140 C141 1.362 . S
C141 H131 0.930 . S
C141 C134 1.409 1_545 S
C141 C140 1.362 . S
H142 C148 0.930 . S
H143 C151 0.930 . S
H144 C152 0.930 . S
H145 C153 0.930 . S
H146 C156 0.930 . S
H147 C157 0.930 . S
C148 H142 0.930 . S
C148 C149 1.355 . S
C148 C150 1.415 . S
C149 C148 1.355 . S
C149 C151 1.419 . S
C150 C148 1.415 . S
C150 C155 1.425 . S
C150 C157 1.409 . S
C151 H143 0.930 . S
C151 C149 1.419 . S
C151 C152 1.362 . S
C152 H144 0.930 . S
C152 C151 1.362 . S
C152 C155 1.409 . S
C153 H145 0.930 . S
C153 C154 1.355 . S
C153 C155 1.415 . S
C154 C153 1.355 . S
C154 C156 1.419 . S
C155 C150 1.425 . S
C155 C152 1.409 . S
C155 C153 1.415 . S
C156 H146 0.930 . S
C156 C154 1.419 . S
C156 C157 1.362 . S
C157 H147 0.930 . S
C157 C150 1.409 . S
C157 C156 1.362 . S
H158 C164 0.930 . S
H159 C167 0.930 . S
H160 C168 0.930 1_655 S
H161 C169 0.930 . S
H162 C172 0.930 . S
H163 C173 0.930 . S
C164 H158 0.930 . S
C164 C165 1.355 . S
C164 C166 1.415 . S
C165 C164 1.355 . S
C165 C167 1.419 . S
C166 C164 1.415 . S
C166 C171 1.425 1_455 S
C166 C173 1.409 . S
C167 H159 0.930 . S
C167 C165 1.419 . S
C167 C168 1.362 . S
C168 H160 0.930 1_455 S
C168 C167 1.362 . S
C168 C171 1.409 1_455 S
C169 H161 0.930 . S
C169 C170 1.355 . S
C169 C171 1.415 . S
C170 C169 1.355 . S
C170 C172 1.419 . S
C171 C166 1.425 1_655 S
C171 C168 1.409 1_655 S
C171 C169 1.415 . S
C172 H162 0.930 . S
C172 C170 1.419 . S
C172 C173 1.362 1_655 S
C173 H163 0.930 . S
C173 C166 1.409 . S
C173 C172 1.362 1_455 S
H174 C180 0.930 . S
H175 C183 0.930 . S
H176 C184 0.930 . S
H177 C185 0.930 . S
H178 C188 0.930 . S
H179 C189 0.930 . S
C180 H174 0.930 . S
C180 C181 1.355 . S
C180 C182 1.415 . S
C181 C180 1.355 . S
C181 C183 1.419 . S
C182 C180 1.415 . S
C182 C187 1.425 . S
C182 C189 1.409 . S
C183 H175 0.930 . S
C183 C181 1.419 . S
C183 C184 1.362 . S
C184 H176 0.930 . S
C184 C183 1.362 . S
C184 C187 1.409 . S
C185 H177 0.930 . S
C185 C186 1.355 . S
C185 C187 1.415 . S
C186 C185 1.355 . S
C186 C188 1.419 . S
C187 C182 1.425 . S
C187 C184 1.409 . S
C187 C185 1.415 . S
C188 H178 0.930 . S
C188 C186 1.419 . S
C188 C189 1.362 . S
C189 H179 0.930 . S
C189 C182 1.409 . S
C189 C188 1.362 . S
H190 C196 0.930 . S
H191 C199 0.930 . S
H192 C200 0.930 . S
H193 C201 0.930 . S
H194 C204 0.930 . S
H195 C205 0.930 . S
C196 H190 0.930 . S
C196 C197 1.355 . S
C196 C198 1.415 . S
C197 C196 1.355 . S
C197 C199 1.419 . S
C198 C196 1.415 . S
C198 C203 1.425 . S
C198 C205 1.409 . S
C199 H191 0.930 . S
C199 C197 1.419 . S
C199 C200 1.362 . S
C200 H192 0.930 . S
C200 C199 1.362 . S
C200 C203 1.409 . S
C201 H193 0.930 . S
C201 C202 1.355 . S
C201 C203 1.415 . S
C202 C201 1.355 . S
C202 C204 1.419 . S
C203 C198 1.425 . S
C203 C200 1.409 . S
C203 C201 1.415 . S
C204 H194 0.930 . S
C204 C202 1.419 . S
C204 C205 1.362 . S
C205 H195 0.930 . S
C205 C198 1.409 . S
C205 C204 1.362 . S
H206 C212 0.930 . S
H207 C215 0.930 . S
H208 C216 0.930 . S
H209 C217 0.930 . S
H210 C220 0.930 . S
H211 C221 0.930 . S
C212 H206 0.930 . S
C212 C213 1.355 . S
C212 C214 1.415 . S
C213 C212 1.355 . S
C213 C215 1.419 . S
C214 C212 1.415 . S
C214 C219 1.425 . S
C214 C221 1.409 . S
C215 H207 0.930 . S
C215 C213 1.419 . S
C215 C216 1.362 . S
C216 H208 0.930 . S
C216 C215 1.362 . S
C216 C219 1.409 . S
C217 H209 0.930 . S
C217 C218 1.355 . S
C217 C219 1.415 . S
C218 C217 1.355 . S
C218 C220 1.419 . S
C219 C214 1.425 . S
C219 C216 1.409 . S
C219 C217 1.415 . S
C220 H210 0.930 . S
C220 C218 1.419 . S
C220 C221 1.362 . S
C221 H211 0.930 . S
C221 C214 1.409 . S
C221 C220 1.362 . S
H222 C228 0.930 . S
H223 C231 0.930 . S
H224 C232 0.930 . S
H225 C233 0.930 . S
H226 C236 0.930 1_554 S
H227 C237 0.930 . S
C228 H222 0.930 . S
C228 C229 1.355 . S
C228 C230 1.415 . S
C229 C228 1.355 . S
C229 C231 1.419 . S
C230 C228 1.415 . S
C230 C235 1.425 . S
C230 C237 1.409 . S
C231 H223 0.930 . S
C231 C229 1.419 . S
C231 C232 1.362 . S
C232 H224 0.930 . S
C232 C231 1.362 . S
C232 C235 1.409 . S
C233 H225 0.930 . S
C233 C234 1.355 . S
C233 C235 1.415 . S
C234 C233 1.355 . S
C234 C236 1.419 . S
C235 C230 1.425 . S
C235 C232 1.409 . S
C235 C233 1.415 . S
C236 H226 0.930 1_556 S
C236 C234 1.419 . S
C236 C237 1.362 . S
C237 H227 0.930 . S
C237 C230 1.409 . S
C237 C236 1.362 . S
H238 C244 0.930 . S
H239 C247 0.940 . S
H240 C248 0.930 . S
H241 C249 0.930 . S
H242 C252 0.930 . S
H243 C253 0.930 . S
C244 H238 0.930 . S
C244 C245 1.355 . S
C244 C246 1.415 . S
C245 C244 1.355 . S
C245 C247 1.416 1_554 S
C246 C244 1.415 . S
C246 C251 1.425 . S
C246 C253 1.409 . S
C247 H239 0.940 . S
C247 C245 1.416 1_556 S
C247 C248 1.356 1_556 S
C248 H240 0.930 . S
C248 C247 1.356 1_554 S
C248 C251 1.409 . S
C249 H241 0.930 . S
C249 C250 1.355 . S
C249 C251 1.415 . S
C250 C249 1.355 . S
C250 C252 1.419 . S
C251 C246 1.425 . S
C251 C248 1.409 . S
C251 C249 1.415 . S
C252 H242 0.930 . S
C252 C250 1.419 . S
C252 C253 1.362 . S
C253 H243 0.930 . S
C253 C246 1.409 . S
C253 C252 1.362 . S
H254 C260 0.930 . S
H255 C263 0.930 . S
H256 C264 0.930 . S
H257 C265 0.930 . S
H258 C268 0.930 . S
H259 C269 0.930 . S
C260 H254 0.930 . S
C260 C261 1.355 . S
C260 C262 1.415 . S
C261 C260 1.355 . S
C261 C263 1.419 . S
C262 C260 1.415 . S
C262 C267 1.425 . S
C262 C269 1.409 . S
C263 H255 0.930 . S
C263 C261 1.419 . S
C263 C264 1.362 . S
C264 H256 0.930 . S
C264 C263 1.362 . S
C264 C267 1.409 . S
C265 H257 0.930 . S
C265 C266 1.355 . S
C265 C267 1.415 . S
C266 C265 1.355 . S
C266 C268 1.419 . S
C267 C262 1.425 . S
C267 C264 1.409 . S
C267 C265 1.415 . S
C268 H258 0.930 . S
C268 C266 1.419 . S
C268 C269 1.362 . S
C269 H259 0.930 . S
C269 C262 1.409 . S
C269 C268 1.362 . S
C85 C5 1.391 . S
C90 C65 1.422 . S
C101 C0 1.393 . S
C106 C18 1.418 . S
C117 C31 1.381 . S
C122 C13 1.435 . S
C133 C44 1.409 . S
C138 C26 1.412 . S
C149 C57 1.388 . S
C154 C39 1.432 . S
C165 C70 1.437 . S
C170 C52 1.377 . S
C181 C10 1.505 . S
C186 C60 1.497 . S
C197 C73 1.481 . S
C202 C23 1.512 . S
C213 C36 1.499 . S
C218 C8 1.485 . S
C229 C21 1.485 . S
C234 C49 1.499 1_556 S
C245 C34 1.491 1_554 S
C250 C62 1.502 . S
C261 C75 1.496 . S
C266 C47 1.476 . S
