# Generated by pormake.
# Topology uoy, (4)-cn, num edge types: 1
# Building blocks:
#     Node 0, Type 0, BuildingBlock: AZAVOO_clean_sbu_0, # of connection points: 4
#     Node 1, Type 0, BuildingBlock: AZAVOO_clean_sbu_0, # of connection points: 4
#     Node 2, Type 0, BuildingBlock: AZAVOO_clean_sbu_0, # of connection points: 4
#     Node 3, Type 0, BuildingBlock: AZAVOO_clean_sbu_0, # of connection points: 4
#     Node 4, Type 0, BuildingBlock: AZAVOO_clean_sbu_0, # of connection points: 4
#     Node 5, Type 0, BuildingBlock: AZAVOO_clean_sbu_0, # of connection points: 4
#     Node 6, Type 0, BuildingBlock: AZAVOO_clean_sbu_0, # of connection points: 4
#     Node 7, Type 0, BuildingBlock: AZAVOO_clean_sbu_0, # of connection points: 4
#     Node 8, Type 0, BuildingBlock: AZAVOO_clean_sbu_0, # of connection points: 4
#     Node 9, Type 0, BuildingBlock: AZAVOO_clean_sbu_0, # of connection points: 4
#     Node 10, Type 0, BuildingBlock: AZAVOO_clean_sbu_0, # of connection points: 4
#     Node 11, Type 0, BuildingBlock: AZAVOO_clean_sbu_0, # of connection points: 4
#     Node 12, Type 0, BuildingBlock: AZAVOO_clean_sbu_0, # of connection points: 4
#     Node 13, Type 0, BuildingBlock: AZAVOO_clean_sbu_0, # of connection points: 4
#     Node 14, Type 0, BuildingBlock: AZAVOO_clean_sbu_0, # of connection points: 4
#     Node 15, Type 0, BuildingBlock: AZAVOO_clean_sbu_0, # of connection points: 4
#     Edge 16, Type (0, 0), BuildingBlock: TEMPAE_clean_linker_10, # of connection points: 2
#     Edge 17, Type (0, 0), BuildingBlock: TEMPAE_clean_linker_10, # of connection points: 2
#     Edge 18, Type (0, 0), BuildingBlock: TEMPAE_clean_linker_10, # of connection points: 2
#     Edge 19, Type (0, 0), BuildingBlock: TEMPAE_clean_linker_10, # of connection points: 2
#     Edge 20, Type (0, 0), BuildingBlock: TEMPAE_clean_linker_10, # of connection points: 2
#     Edge 21, Type (0, 0), BuildingBlock: TEMPAE_clean_linker_10, # of connection points: 2
#     Edge 22, Type (0, 0), BuildingBlock: TEMPAE_clean_linker_10, # of connection points: 2
#     Edge 23, Type (0, 0), BuildingBlock: TEMPAE_clean_linker_10, # of connection points: 2
#     Edge 24, Type (0, 0), BuildingBlock: TEMPAE_clean_linker_10, # of connection points: 2
#     Edge 25, Type (0, 0), BuildingBlock: TEMPAE_clean_linker_10, # of connection points: 2
#     Edge 26, Type (0, 0), BuildingBlock: TEMPAE_clean_linker_10, # of connection points: 2
#     Edge 27, Type (0, 0), BuildingBlock: TEMPAE_clean_linker_10, # of connection points: 2
#     Edge 28, Type (0, 0), BuildingBlock: TEMPAE_clean_linker_10, # of connection points: 2
#     Edge 29, Type (0, 0), BuildingBlock: TEMPAE_clean_linker_10, # of connection points: 2
#     Edge 30, Type (0, 0), BuildingBlock: TEMPAE_clean_linker_10, # of connection points: 2
#     Edge 31, Type (0, 0), BuildingBlock: TEMPAE_clean_linker_10, # of connection points: 2
#     Edge 32, Type (0, 0), BuildingBlock: TEMPAE_clean_linker_10, # of connection points: 2
#     Edge 33, Type (0, 0), BuildingBlock: TEMPAE_clean_linker_10, # of connection points: 2
#     Edge 34, Type (0, 0), BuildingBlock: TEMPAE_clean_linker_10, # of connection points: 2
#     Edge 35, Type (0, 0), BuildingBlock: TEMPAE_clean_linker_10, # of connection points: 2
#     Edge 36, Type (0, 0), BuildingBlock: TEMPAE_clean_linker_10, # of connection points: 2
#     Edge 37, Type (0, 0), BuildingBlock: TEMPAE_clean_linker_10, # of connection points: 2
#     Edge 38, Type (0, 0), BuildingBlock: TEMPAE_clean_linker_10, # of connection points: 2
#     Edge 39, Type (0, 0), BuildingBlock: TEMPAE_clean_linker_10, # of connection points: 2
#     Edge 40, Type (0, 0), BuildingBlock: TEMPAE_clean_linker_10, # of connection points: 2
#     Edge 41, Type (0, 0), BuildingBlock: TEMPAE_clean_linker_10, # of connection points: 2
#     Edge 42, Type (0, 0), BuildingBlock: TEMPAE_clean_linker_10, # of connection points: 2
#     Edge 43, Type (0, 0), BuildingBlock: TEMPAE_clean_linker_10, # of connection points: 2
#     Edge 44, Type (0, 0), BuildingBlock: TEMPAE_clean_linker_10, # of connection points: 2
#     Edge 45, Type (0, 0), BuildingBlock: TEMPAE_clean_linker_10, # of connection points: 2
#     Edge 46, Type (0, 0), BuildingBlock: TEMPAE_clean_linker_10, # of connection points: 2
#     Edge 47, Type (0, 0), BuildingBlock: TEMPAE_clean_linker_10, # of connection points: 2
# Relax obj value: 0.170
# Max RMSD: 0.199
# Mean RMSD: 0.199
data_MOF--net-uoy--node1-AZAVOO_clean_sbu_0--edge1-TEMPAE_clean_linker_10
_symmetry_space_group_name_H-M    P1
_symmetry_Int_Tables_number       1
_symmetry_cell_setting            triclinic
loop_
_symmetry_equiv_pos_as_xyz
'x, y, z'
_cell_length_a     26.557041
_cell_length_b     26.667795
_cell_length_c     110.83527
_cell_angle_alpha  89.996863
_cell_angle_beta   89.970502
_cell_angle_gamma 90.048122
loop_
_atom_site_label
_atom_site_type_symbol
_atom_site_fract_x
_atom_site_fract_y
_atom_site_fract_z
_atom_type_partial_charge
Mg0 Mg 0.22361 0.16727 0.17644 0.0
O1 O 0.28734 0.11021 0.17359 0.0
O2 O 0.2842 0.08531 0.15437 0.0
Mg3 Mg 0.21944 0.1264 0.14506 0.0
C4 C 0.30427 0.08403 0.16483 0.0
C5 C 0.2751 0.16756 0.20154 0.0
O6 O 0.31431 0.17655 0.19463 0.0
O7 O 0.16401 0.10604 0.17635 0.0
O8 O 0.16068 0.08545 0.15684 0.0
O9 O 0.27605 0.22844 0.17109 0.0
O10 O 0.22689 0.18741 0.15837 0.0
C11 C 0.14495 0.08087 0.16769 0.0
C12 C 0.26189 0.22016 0.16009 0.0
O13 O 0.23236 0.16081 0.19668 0.0
Mg14 Mg 0.84136 0.78066 0.42256 0.0
O15 O 0.8936 0.84843 0.42451 0.0
O16 O 0.95549 0.84094 0.41103 0.0
Mg17 Mg 0.94178 0.76924 0.40018 0.0
C18 C 0.93375 0.86474 0.41955 0.0
C19 C 0.78897 0.8424 0.44317 0.0
O20 O 0.79101 0.87809 0.43501 0.0
O21 O 0.89805 0.72809 0.43149 0.0
O22 O 0.95507 0.71948 0.41682 0.0
O23 O 0.79584 0.82174 0.40879 0.0
O24 O 0.86082 0.77335 0.40449 0.0
C25 C 0.93809 0.70821 0.42727 0.0
C26 C 0.82599 0.8031 0.40077 0.0
O27 O 0.80622 0.79921 0.44065 0.0
Mg28 Mg 0.3346 0.30542 0.68726 0.0
O29 O 0.28548 0.37352 0.68259 0.0
O30 O 0.292 0.38831 0.66282 0.0
Mg31 Mg 0.35032 0.33423 0.65518 0.0
C32 C 0.27277 0.39773 0.67313 0.0
C33 C 0.27624 0.32308 0.71059 0.0
O34 O 0.24055 0.31893 0.70245 0.0
O35 O 0.40667 0.35211 0.68686 0.0
O36 O 0.41263 0.36761 0.6671 0.0
O37 O 0.26881 0.25859 0.68224 0.0
O38 O 0.32887 0.28102 0.66943 0.0
C39 C 0.42928 0.37183 0.67787 0.0
C40 C 0.28512 0.26148 0.67127 0.0
O41 O 0.32192 0.32052 0.70722 0.0
Mg42 Mg 0.61837 0.68591 0.90981 0.0
O43 O 0.56954 0.61606 0.91305 0.0
O44 O 0.50318 0.62217 0.90078 0.0
Mg45 Mg 0.51169 0.69258 0.88913 0.0
C46 C 0.52799 0.59906 0.90893 0.0
C47 C 0.68369 0.71068 0.93141 0.0
O48 O 0.68129 0.75308 0.92539 0.0
O49 O 0.56256 0.73741 0.91934 0.0
O50 O 0.50175 0.74469 0.90554 0.0
O51 O 0.66211 0.6461 0.89552 0.0
O52 O 0.5937 0.69074 0.89208 0.0
C53 C 0.52144 0.75684 0.91565 0.0
C54 C 0.62937 0.66312 0.88789 0.0
O55 O 0.66063 0.67263 0.92728 0.0
Mg56 Mg 0.33403 0.43129 0.06442 0.0
O57 O 0.40342 0.48224 0.06431 0.0
O58 O 0.39534 0.53768 0.07926 0.0
Mg59 Mg 0.32215 0.51943 0.0894 0.0
C60 C 0.41986 0.51948 0.07037 0.0
C61 C 0.36831 0.35891 0.04433 0.0
O62 O 0.37311 0.33063 0.05397 0.0
O63 O 0.28261 0.49242 0.057 0.0
O64 O 0.2727 0.54173 0.07313 0.0
O65 O 0.37313 0.37875 0.07687 0.0
O66 O 0.32471 0.44109 0.08293 0.0
C67 C 0.2622 0.52993 0.06223 0.0
C68 C 0.35328 0.40379 0.08567 0.0
O69 O 0.35342 0.4039 0.04558 0.0
Mg70 Mg 0.66738 0.70209 0.29927 0.0
O71 O 0.60887 0.76324 0.30324 0.0
O72 O 0.58019 0.75194 0.32198 0.0
Mg73 Mg 0.61908 0.68296 0.32985 0.0
C74 C 0.58113 0.77649 0.3121 0.0
C75 C 0.66604 0.68845 0.27132 0.0
O76 O 0.67113 0.6414 0.27463 0.0
O77 O 0.60728 0.6414 0.29696 0.0
O78 O 0.58209 0.63066 0.31602 0.0
O79 O 0.72593 0.7526 0.30727 0.0
O80 O 0.68294 0.69588 0.31755 0.0
C81 C 0.58029 0.61908 0.30484 0.0
C82 C 0.71465 0.73237 0.31755 0.0
O83 O 0.66364 0.72225 0.27938 0.0
Mg84 Mg 0.1715 0.11031 0.57674 0.0
O85 O 0.10338 0.05747 0.57813 0.0
O86 O 0.10816 0.01972 0.59614 0.0
Mg87 Mg 0.17863 0.04766 0.60614 0.0
C88 C 0.08614 0.02734 0.58607 0.0
C89 C 0.19697 0.13028 0.5502 0.0
O90 O 0.24131 0.13354 0.5554 0.0
O91 O 0.22647 0.04542 0.57351 0.0
O92 O 0.23535 0.01681 0.59235 0.0
O93 O 0.12826 0.17286 0.58585 0.0
O94 O 0.17378 0.11598 0.59531 0.0
C95 C 0.24851 0.01762 0.58126 0.0
C96 C 0.14412 0.15384 0.5959 0.0
O97 O 0.15875 0.1202 0.55666 0.0
Mg98 Mg 0.80386 0.81209 0.79295 0.0
O99 O 0.86102 0.75448 0.79984 0.0
O100 O 0.87183 0.76508 0.81963 0.0
Mg101 Mg 0.82322 0.83187 0.82526 0.0
C102 C 0.88091 0.74154 0.80985 0.0
C103 C 0.83278 0.82241 0.76533 0.0
O104 O 0.82396 0.87022 0.76724 0.0
O105 O 0.86069 0.8765 0.79368 0.0
O106 O 0.86881 0.88684 0.81359 0.0
O107 O 0.74366 0.75709 0.79773 0.0
O108 O 0.7718 0.816 0.81006 0.0
C109 C 0.87931 0.89946 0.80275 0.0
C110 C 0.74427 0.77679 0.80841 0.0
O111 O 0.82732 0.79136 0.77392 0.0
Mg112 Mg 0.83323 0.61061 0.66082 0.0
O113 O 0.90655 0.56742 0.66413 0.0
O114 O 0.90658 0.50271 0.65132 0.0
Mg115 Mg 0.83691 0.50723 0.63924 0.0
C116 C 0.927 0.52801 0.65979 0.0
C117 C 0.87864 0.67252 0.68289 0.0
O118 O 0.92038 0.67259 0.67653 0.0
O119 O 0.78601 0.54945 0.66952 0.0
O120 O 0.78399 0.49042 0.65524 0.0
O121 O 0.87104 0.6597 0.64727 0.0
O122 O 0.83309 0.58827 0.64291 0.0
C123 C 0.76992 0.50763 0.66547 0.0
C124 C 0.85831 0.62662 0.63927 0.0
O125 O 0.83982 0.6505 0.6788 0.0
Mg126 Mg 0.30825 0.18059 0.93742 0.0
O127 O 0.36623 0.24026 0.93176 0.0
O128 O 0.38283 0.23073 0.91217 0.0
Mg129 Mg 0.33641 0.16436 0.90537 0.0
C130 C 0.38896 0.25381 0.92215 0.0
C131 C 0.36697 0.20867 0.96126 0.0
O132 O 0.40635 0.20582 0.95412 0.0
O133 O 0.36656 0.11746 0.93725 0.0
O134 O 0.37941 0.10896 0.91743 0.0
O135 O 0.24822 0.2346 0.93217 0.0
O136 O 0.28121 0.17827 0.91984 0.0
C137 C 0.38761 0.09556 0.92833 0.0
C138 C 0.25215 0.21641 0.92138 0.0
O139 O 0.32351 0.19882 0.95708 0.0
Mg140 Mg 0.7266 0.83604 0.16057 0.0
O141 O 0.66236 0.89256 0.16366 0.0
O142 O 0.66824 0.95074 0.14921 0.0
Mg143 Mg 0.73372 0.93111 0.13672 0.0
C144 C 0.64665 0.93251 0.15853 0.0
C145 C 0.67462 0.79208 0.18387 0.0
O146 O 0.634 0.79571 0.17717 0.0
O147 O 0.7865 0.89122 0.16721 0.0
O148 O 0.79106 0.94504 0.15179 0.0
O149 O 0.67638 0.79031 0.14839 0.0
O150 O 0.72515 0.85286 0.14245 0.0
C151 C 0.80617 0.92934 0.16206 0.0
C152 C 0.69149 0.81999 0.13988 0.0
O153 O 0.71687 0.80517 0.17951 0.0
Mg154 Mg 0.15813 0.28754 0.43949 0.0
O155 O 0.09806 0.22721 0.43628 0.0
O156 O 0.06608 0.23749 0.41784 0.0
Mg157 Mg 0.10406 0.30603 0.40945 0.0
C158 C 0.06854 0.21363 0.42781 0.0
C159 C 0.16612 0.22133 0.46228 0.0
O160 O 0.17282 0.1879 0.45372 0.0
O161 O 0.09886 0.34848 0.44253 0.0
O162 O 0.07022 0.35842 0.42374 0.0
O163 O 0.21463 0.23658 0.43097 0.0
O164 O 0.17021 0.29306 0.421 0.0
C165 C 0.0704 0.37044 0.4349 0.0
C166 C 0.20168 0.25639 0.42076 0.0
O167 O 0.1589 0.26686 0.45936 0.0
Mg168 Mg 0.67969 0.80862 0.55254 0.0
O169 O 0.73324 0.86096 0.56288 0.0
O170 O 0.72549 0.84242 0.58246 0.0
Mg171 Mg 0.66243 0.78422 0.58471 0.0
C172 C 0.74655 0.8665 0.57386 0.0
C173 C 0.66039 0.85502 0.5273 0.0
O174 O 0.61576 0.83586 0.52955 0.0
O175 O 0.6106 0.85601 0.5573 0.0
O176 O 0.59988 0.83347 0.57658 0.0
O177 O 0.74138 0.75145 0.55285 0.0
O178 O 0.68144 0.75703 0.56662 0.0
C179 C 0.58547 0.8568 0.56712 0.0
C180 C 0.72336 0.73753 0.56318 0.0
O181 O 0.69423 0.85238 0.53537 0.0
Mg182 Mg 0.11084 0.3097 0.82074 0.0
O183 O 0.06097 0.37925 0.81883 0.0
O184 O 0.99704 0.37158 0.83177 0.0
Mg185 Mg 0.00856 0.29922 0.84259 0.0
C186 C 0.02044 0.39579 0.82356 0.0
C187 C 0.16544 0.29111 0.79683 0.0
O188 O 0.16198 0.24563 0.80133 0.0
O189 O 0.05356 0.25887 0.81151 0.0
O190 O 0.99545 0.2493 0.8259 0.0
O191 O 0.15693 0.34817 0.83477 0.0
O192 O 0.09006 0.30164 0.83867 0.0
C193 C 0.01331 0.2386 0.8155 0.0
C194 C 0.12602 0.32951 0.84264 0.0
O195 O 0.14786 0.32763 0.80285 0.0
Mg196 Mg 0.83321 0.74801 0.04166 0.0
O197 O 0.7785 0.68693 0.04817 0.0
O198 O 0.78888 0.67606 0.06799 0.0
Mg199 Mg 0.85491 0.72537 0.07377 0.0
C200 C 0.76576 0.66662 0.05816 0.0
C201 C 0.84207 0.7197 0.01371 0.0
O202 O 0.89091 0.72099 0.01557 0.0
O203 O 0.90105 0.69495 0.04178 0.0
O204 O 0.91072 0.68334 0.06161 0.0
O205 O 0.77342 0.80169 0.04702 0.0
O206 O 0.83553 0.77723 0.05902 0.0
C207 C 0.92415 0.67532 0.05071 0.0
C208 C 0.79289 0.79962 0.05772 0.0
O209 O 0.81218 0.72821 0.02242 0.0
Mg210 Mg 0.34982 0.20767 0.31678 0.0
O211 O 0.40242 0.14005 0.31613 0.0
O212 O 0.46047 0.14851 0.3305 0.0
Mg213 Mg 0.44274 0.22093 0.34081 0.0
C214 C 0.44109 0.1241 0.32175 0.0
C215 C 0.31092 0.2223 0.29085 0.0
O216 O 0.31155 0.26886 0.29472 0.0
O217 O 0.40914 0.25981 0.30883 0.0
O218 O 0.46151 0.27041 0.32437 0.0
O219 O 0.2999 0.16742 0.32983 0.0
O220 O 0.36312 0.21663 0.33508 0.0
C221 C 0.4475 0.28064 0.31362 0.0
C222 C 0.32722 0.18706 0.33829 0.0
O223 O 0.3229 0.18734 0.29806 0.0
C224 C 0.32569 0.40644 0.10716 0.0
C225 C 0.35635 0.38523 0.09822 0.0
C226 C 0.31813 0.38197 0.11821 0.0
C227 C 0.34217 0.33547 0.12037 0.0
C228 C 0.37712 0.31654 0.11188 0.0
C229 C 0.38371 0.34162 0.10086 0.0
C230 C 0.28077 0.4036 0.12706 0.0
C231 C 0.40426 0.26759 0.11395 0.0
C232 C 0.32663 0.27887 0.15163 0.0
C233 C 0.28514 0.24708 0.14985 0.0
C234 C 0.34684 0.3069 0.14205 0.0
C235 C 0.32465 0.3033 0.13048 0.0
C236 C 0.28355 0.27035 0.12858 0.0
C237 C 0.26442 0.24258 0.13828 0.0
C238 C 0.39105 0.34118 0.14436 0.0
C239 C 0.25874 0.26546 0.11637 0.0
H240 H 0.30474 0.44037 0.10524 0.0
H241 H 0.40795 0.3253 0.09404 0.0
H242 H 0.24581 0.38076 0.12692 0.0
H243 H 0.29594 0.40231 0.13638 0.0
H244 H 0.27078 0.44299 0.12486 0.0
H245 H 0.43648 0.26278 0.10766 0.0
H246 H 0.41833 0.26512 0.12336 0.0
H247 H 0.37767 0.23601 0.11255 0.0
H248 H 0.34296 0.28234 0.16056 0.0
H249 H 0.23227 0.21828 0.13683 0.0
H250 H 0.37907 0.38079 0.14335 0.0
H251 H 0.42121 0.33434 0.13762 0.0
H252 H 0.40694 0.33612 0.15355 0.0
H253 H 0.24272 0.30213 0.11361 0.0
H254 H 0.22806 0.23712 0.11634 0.0
H255 H 0.28702 0.25466 0.10948 0.0
C256 C 0.8506 0.78915 0.37932 0.0
C257 C 0.8177 0.81094 0.38771 0.0
C258 C 0.83779 0.78604 0.36708 0.0
C259 C 0.79081 0.80498 0.36318 0.0
C260 C 0.75974 0.83146 0.37137 0.0
C261 C 0.7736 0.83418 0.38358 0.0
C262 C 0.87228 0.75791 0.35863 0.0
C263 C 0.70958 0.85266 0.36752 0.0
C264 C 0.76033 0.79788 0.32964 0.0
C265 C 0.73427 0.75215 0.32908 0.0
C266 C 0.77836 0.8164 0.34072 0.0
C267 C 0.77023 0.7883 0.35138 0.0
C268 C 0.74376 0.74227 0.35083 0.0
C269 C 0.72629 0.72479 0.3397 0.0
C270 C 0.80638 0.86563 0.34101 0.0
C271 C 0.7344 0.71094 0.36198 0.0
H272 H 0.88502 0.77157 0.38238 0.0
H273 H 0.74818 0.85155 0.38999 0.0
H274 H 0.85649 0.72003 0.3569 0.0
H275 H 0.87528 0.7774 0.34982 0.0
H276 H 0.91067 0.75342 0.36245 0.0
H277 H 0.69482 0.88013 0.37418 0.0
H278 H 0.71255 0.87118 0.35859 0.0
H279 H 0.6819 0.82167 0.36667 0.0
H280 H 0.76649 0.81924 0.32145 0.0
H281 H 0.70674 0.68915 0.33934 0.0
H282 H 0.84558 0.8594 0.34411 0.0
H283 H 0.78841 0.89152 0.34755 0.0
H284 H 0.80749 0.88406 0.33202 0.0
H285 H 0.77083 0.69934 0.366 0.0
H286 H 0.71201 0.67669 0.36002 0.0
H287 H 0.71401 0.73335 0.36885 0.0
C288 C 0.13141 0.14631 0.61789 0.0
C289 C 0.13453 0.17712 0.6077 0.0
C290 C 0.14328 0.16492 0.62934 0.0
C291 C 0.15814 0.21563 0.63053 0.0
C292 C 0.15332 0.24858 0.62057 0.0
C293 C 0.14163 0.22877 0.60916 0.0
C294 C 0.14685 0.12858 0.63975 0.0
C295 C 0.16687 0.30335 0.6216 0.0
C296 C 0.19986 0.25691 0.66182 0.0
C297 C 0.25207 0.24969 0.66101 0.0
C298 C 0.16851 0.24785 0.65185 0.0
C299 C 0.19002 0.2301 0.64097 0.0
C300 C 0.24285 0.22299 0.64016 0.0
C301 C 0.27323 0.23354 0.65015 0.0
C302 C 0.11275 0.25795 0.65288 0.0
C303 C 0.2674 0.2034 0.62879 0.0
H304 H 0.12417 0.1066 0.61677 0.0
H305 H 0.14357 0.25275 0.60127 0.0
H306 H 0.18696 0.11861 0.64123 0.0
H307 H 0.13249 0.14569 0.64819 0.0
H308 H 0.12552 0.09351 0.63796 0.0
H309 H 0.14974 0.32567 0.6142 0.0
H310 H 0.1545 0.31895 0.63039 0.0
H311 H 0.20838 0.30756 0.62104 0.0
H312 H 0.1837 0.27071 0.67017 0.0
H313 H 0.31365 0.22834 0.64953 0.0
H314 H 0.09072 0.22486 0.6499 0.0
H315 H 0.10247 0.28959 0.64688 0.0
H316 H 0.10145 0.2677 0.66225 0.0
H317 H 0.25162 0.16608 0.62646 0.0
H318 H 0.30889 0.1997 0.62971 0.0
H319 H 0.25942 0.22897 0.62113 0.0
C320 C 0.7175 0.77695 0.8299 0.0
C321 C 0.71971 0.752 0.8188 0.0
C322 C 0.69851 0.75321 0.84019 0.0
C323 C 0.68054 0.70331 0.83936 0.0
C324 C 0.68091 0.67836 0.82809 0.0
C325 C 0.70073 0.703 0.81791 0.0
C326 C 0.69865 0.78138 0.85203 0.0
C327 C 0.66159 0.62539 0.82684 0.0
C328 C 0.68463 0.64463 0.87024 0.0
C329 C 0.63732 0.65871 0.87472 0.0
C330 C 0.69782 0.65425 0.8582 0.0
C331 C 0.66259 0.67794 0.8505 0.0
C332 C 0.61283 0.68633 0.85458 0.0
C333 C 0.60084 0.67686 0.86669 0.0
C334 C 0.75119 0.64429 0.85417 0.0
C335 C 0.57375 0.71028 0.84656 0.0
H336 H 0.73125 0.8151 0.83062 0.0
H337 H 0.70231 0.68352 0.80934 0.0
H338 H 0.6598 0.78391 0.85566 0.0
H339 H 0.72172 0.7609 0.85877 0.0
H340 H 0.71395 0.81998 0.85112 0.0
H341 H 0.65834 0.61376 0.81724 0.0
H342 H 0.68766 0.59924 0.83147 0.0
H343 H 0.62421 0.62148 0.83122 0.0
H344 H 0.71289 0.63008 0.87636 0.0
H345 H 0.56389 0.68701 0.87002 0.0
H346 H 0.77237 0.68019 0.85397 0.0
H347 H 0.75191 0.62844 0.84492 0.0
H348 H 0.77097 0.61811 0.86036 0.0
H349 H 0.58108 0.75118 0.84597 0.0
H350 H 0.53505 0.70474 0.85013 0.0
H351 H 0.57567 0.69482 0.83728 0.0
C352 C 0.80605 0.70428 0.57066 0.0
C353 C 0.75361 0.70835 0.57186 0.0
C354 C 0.83549 0.68478 0.58011 0.0
C355 C 0.81177 0.66998 0.59099 0.0
C356 C 0.75856 0.67093 0.59187 0.0
C357 C 0.73023 0.6895 0.58224 0.0
C358 C 0.89192 0.68294 0.57864 0.0
C359 C 0.73147 0.65561 0.60329 0.0
C360 C 0.85871 0.59791 0.61782 0.0
C361 C 0.86361 0.63684 0.62625 0.0
C362 C 0.84849 0.60836 0.60566 0.0
C363 C 0.84139 0.6587 0.60203 0.0
C364 C 0.85216 0.69808 0.6102 0.0
C365 C 0.8639 0.6866 0.62221 0.0
C366 C 0.84025 0.56546 0.59701 0.0
C367 C 0.84532 0.75232 0.60668 0.0
H368 H 0.82436 0.71854 0.56262 0.0
H369 H 0.68961 0.69148 0.58308 0.0
H370 H 0.90852 0.71839 0.58205 0.0
H371 H 0.90868 0.65141 0.58378 0.0
H372 H 0.90259 0.67916 0.56898 0.0
H373 H 0.68987 0.65769 0.60237 0.0
H374 H 0.74172 0.6167 0.60581 0.0
H375 H 0.74305 0.68046 0.61083 0.0
H376 H 0.85972 0.55931 0.62085 0.0
H377 H 0.86818 0.71683 0.62868 0.0
H378 H 0.85514 0.57478 0.58793 0.0
H379 H 0.79929 0.55817 0.5961 0.0
H380 H 0.85854 0.53052 0.60026 0.0
H381 H 0.86521 0.7603 0.59809 0.0
H382 H 0.85948 0.77835 0.61372 0.0
H383 H 0.80471 0.76007 0.60521 0.0
C384 C 0.22897 0.21755 0.89966 0.0
C385 C 0.22844 0.24129 0.91093 0.0
C386 C 0.2089 0.24095 0.88945 0.0
C387 C 0.18737 0.28931 0.89053 0.0
C388 C 0.18596 0.31335 0.90191 0.0
C389 C 0.20658 0.28898 0.91201 0.0
C390 C 0.21097 0.21384 0.87748 0.0
C391 C 0.16317 0.36481 0.90337 0.0
C392 C 0.18298 0.34994 0.85985 0.0
C393 C 0.13607 0.33297 0.85573 0.0
C394 C 0.1986 0.34044 0.87172 0.0
C395 C 0.16631 0.31367 0.8796 0.0
C396 C 0.11674 0.30183 0.87589 0.0
C397 C 0.10224 0.31153 0.86397 0.0
C398 C 0.25159 0.35419 0.87538 0.0
C399 C 0.08082 0.27406 0.88408 0.0
H400 H 0.24516 0.18045 0.89878 0.0
H401 H 0.20615 0.30755 0.92071 0.0
H402 H 0.17232 0.20843 0.87391 0.0
H403 H 0.23207 0.23666 0.8708 0.0
H404 H 0.22936 0.17655 0.87819 0.0
H405 H 0.16324 0.37752 0.91291 0.0
H406 H 0.18451 0.39236 0.89787 0.0
H407 H 0.12383 0.3649 0.9 0.0
H408 H 0.20917 0.36705 0.85357 0.0
H409 H 0.0656 0.299 0.86091 0.0
H410 H 0.27558 0.32015 0.87508 0.0
H411 H 0.25254 0.36879 0.88474 0.0
H412 H 0.2682 0.38271 0.86924 0.0
H413 H 0.09174 0.23393 0.88444 0.0
H414 H 0.04136 0.2764 0.8808 0.0
H415 H 0.08249 0.28904 0.8934 0.0
C416 C 0.78769 0.82161 0.07933 0.0
C417 C 0.76281 0.81132 0.06851 0.0
C418 C 0.7614 0.82348 0.09024 0.0
C419 C 0.70871 0.8147 0.09033 0.0
C420 C 0.68285 0.80668 0.07933 0.0
C421 C 0.71034 0.80509 0.06849 0.0
C422 C 0.79061 0.83272 0.10174 0.0
C423 C 0.62688 0.79704 0.07899 0.0
C424 C 0.67974 0.76884 0.12146 0.0
C425 C 0.67464 0.81498 0.12733 0.0
C426 C 0.68389 0.76693 0.10884 0.0
C427 C 0.68254 0.81221 0.10215 0.0
C428 C 0.66889 0.8574 0.10796 0.0
C429 C 0.66568 0.85837 0.12056 0.0
C430 C 0.69668 0.71767 0.10289 0.0
C431 C 0.6645 0.90596 0.10106 0.0
H432 H 0.82824 0.82647 0.07931 0.0
H433 H 0.69111 0.7963 0.06013 0.0
H434 H 0.77499 0.86563 0.10658 0.0
H435 H 0.78714 0.79979 0.10781 0.0
H436 H 0.83125 0.83964 0.10003 0.0
H437 H 0.61071 0.80708 0.07006 0.0
H438 H 0.61984 0.75651 0.0805 0.0
H439 H 0.60673 0.81829 0.08611 0.0
H440 H 0.68628 0.73523 0.12674 0.0
H441 H 0.66032 0.89385 0.12516 0.0
H442 H 0.73758 0.71676 0.10081 0.0
H443 H 0.67602 0.71344 0.09425 0.0
H444 H 0.68766 0.68524 0.1088 0.0
H445 H 0.70274 0.92113 0.09931 0.0
H446 H 0.6429 0.93447 0.10622 0.0
H447 H 0.64592 0.89982 0.09221 0.0
C448 C 0.24743 0.19145 0.40858 0.0
C449 C 0.22009 0.23639 0.40914 0.0
C450 C 0.26606 0.17345 0.39753 0.0
C451 C 0.25742 0.20136 0.38686 0.0
C452 C 0.22895 0.24616 0.38737 0.0
C453 C 0.21068 0.26307 0.39849 0.0
C454 C 0.29592 0.12534 0.39729 0.0
C455 C 0.21902 0.27722 0.37621 0.0
C456 C 0.34432 0.2041 0.36001 0.0
C457 C 0.31483 0.18034 0.3512 0.0
C458 C 0.32794 0.20746 0.37198 0.0
C459 C 0.28089 0.18654 0.37524 0.0
C460 C 0.25309 0.15859 0.36666 0.0
C461 C 0.2704 0.15585 0.3547 0.0
C462 C 0.3589 0.23739 0.38087 0.0
C463 C 0.20307 0.13516 0.36984 0.0
H464 H 0.25458 0.17053 0.41679 0.0
H465 H 0.18991 0.29798 0.39884 0.0
H466 H 0.28112 0.09982 0.39022 0.0
H467 H 0.33571 0.13362 0.39498 0.0
H468 H 0.29501 0.10556 0.40611 0.0
H469 H 0.19435 0.30994 0.37808 0.0
H470 H 0.25518 0.2912 0.37248 0.0
H471 H 0.20095 0.25386 0.36915 0.0
H472 H 0.37889 0.2228 0.35744 0.0
H473 H 0.24759 0.13705 0.34796 0.0
H474 H 0.36188 0.21738 0.38961 0.0
H475 H 0.34008 0.27382 0.38262 0.0
H476 H 0.39747 0.24505 0.37744 0.0
H477 H 0.20486 0.1165 0.37877 0.0
H478 H 0.19093 0.1073 0.36297 0.0
H479 H 0.17396 0.1649 0.3704 0.0
C480 C 0.23683 0.16419 0.22213 0.0
C481 C 0.27968 0.16948 0.21482 0.0
C482 C 0.23988 0.16989 0.23468 0.0
C483 C 0.2869 0.18102 0.24003 0.0
C484 C 0.33058 0.18479 0.23276 0.0
C485 C 0.32644 0.17899 0.22023 0.0
C486 C 0.19254 0.16546 0.24216 0.0
C487 C 0.38145 0.19634 0.23819 0.0
C488 C 0.29006 0.25 0.26991 0.0
C489 C 0.30118 0.21112 0.27799 0.0
C490 C 0.28444 0.24051 0.25755 0.0
C491 C 0.29014 0.19096 0.25318 0.0
C492 C 0.3002 0.15135 0.26131 0.0
C493 C 0.30554 0.16189 0.27364 0.0
C494 C 0.27346 0.28367 0.24913 0.0
C495 C 0.30647 0.09805 0.25695 0.0
H496 H 0.20056 0.15665 0.21803 0.0
H497 H 0.35975 0.18288 0.21465 0.0
H498 H 0.19801 0.13779 0.24952 0.0
H499 H 0.18406 0.20206 0.24646 0.0
H500 H 0.15947 0.15387 0.2367 0.0
H501 H 0.4121 0.19547 0.23136 0.0
H502 H 0.38075 0.23407 0.2424 0.0
H503 H 0.39038 0.16895 0.24541 0.0
H504 H 0.28655 0.2881 0.27321 0.0
H505 H 0.31413 0.13162 0.27983 0.0
H506 H 0.23885 0.27586 0.24385 0.0
H507 H 0.30482 0.28807 0.24259 0.0
H508 H 0.26841 0.31967 0.25402 0.0
H509 H 0.27283 0.08623 0.25175 0.0
H510 H 0.31221 0.07126 0.2645 0.0
H511 H 0.33931 0.09568 0.25079 0.0
C512 C 0.76463 0.81313 0.46373 0.0
C513 C 0.76728 0.85206 0.45525 0.0
C514 C 0.7448 0.82124 0.47526 0.0
C515 C 0.72711 0.86954 0.47843 0.0
C516 C 0.72939 0.90906 0.46993 0.0
C517 C 0.74951 0.89985 0.45841 0.0
C518 C 0.74306 0.77804 0.48408 0.0
C519 C 0.71088 0.96099 0.47303 0.0
C520 C 0.6401 0.86319 0.50536 0.0
C521 C 0.67426 0.86996 0.51487 0.0
C522 C 0.65589 0.86702 0.49332 0.0
C523 C 0.70697 0.87794 0.49077 0.0
C524 C 0.74044 0.88932 0.50031 0.0
C525 C 0.72366 0.88523 0.51227 0.0
C526 C 0.6189 0.85519 0.48338 0.0
C527 C 0.79509 0.9016 0.49797 0.0
H528 H 0.77822 0.77608 0.46137 0.0
H529 H 0.75148 0.93015 0.45191 0.0
H530 H 0.76547 0.78731 0.49223 0.0
H531 H 0.70372 0.77139 0.48705 0.0
H532 H 0.75797 0.74272 0.48015 0.0
H533 H 0.7144 0.98739 0.46532 0.0
H534 H 0.67083 0.95941 0.47586 0.0
H535 H 0.73262 0.97613 0.48076 0.0
H536 H 0.60168 0.85199 0.50729 0.0
H537 H 0.75015 0.89127 0.51956 0.0
H538 H 0.62712 0.81739 0.47969 0.0
H539 H 0.62257 0.88241 0.47586 0.0
H540 H 0.57937 0.85556 0.48666 0.0
H541 H 0.81523 0.867 0.4952 0.0
H542 H 0.81398 0.91706 0.5061 0.0
H543 H 0.79875 0.92902 0.4905 0.0
C544 C 0.30048 0.32638 0.73243 0.0
C545 C 0.26294 0.32585 0.72353 0.0
C546 C 0.28786 0.3244 0.74472 0.0
C547 C 0.23658 0.3216 0.74815 0.0
C548 C 0.19854 0.32289 0.73922 0.0
C549 C 0.21218 0.32516 0.72703 0.0
C550 C 0.32938 0.32361 0.75402 0.0
C551 C 0.1434 0.31996 0.74252 0.0
C552 C 0.19964 0.25813 0.77742 0.0
C553 C 0.18698 0.29925 0.78469 0.0
C554 C 0.21715 0.26501 0.7656 0.0
C555 C 0.22244 0.31422 0.76098 0.0
C556 C 0.21127 0.35596 0.76839 0.0
C557 C 0.19346 0.34797 0.78016 0.0
C558 C 0.22845 0.21955 0.75794 0.0
C559 C 0.21686 0.40896 0.76378 0.0
H560 H 0.33978 0.32717 0.7298 0.0
H561 H 0.1829 0.32505 0.72022 0.0
H562 H 0.32248 0.35253 0.76102 0.0
H563 H 0.32986 0.28669 0.75863 0.0
H564 H 0.36704 0.33028 0.74995 0.0
H565 H 0.11846 0.32403 0.73454 0.0
H566 H 0.13535 0.28332 0.74687 0.0
H567 H 0.13379 0.34966 0.74914 0.0
H568 H 0.19479 0.22038 0.78085 0.0
H569 H 0.18403 0.37995 0.78575 0.0
H570 H 0.26726 0.22189 0.75428 0.0
H571 H 0.20232 0.21836 0.75013 0.0
H572 H 0.22461 0.18394 0.76306 0.0
H573 H 0.25512 0.4147 0.76001 0.0
H574 H 0.21025 0.43728 0.77096 0.0
H575 H 0.18959 0.41563 0.75638 0.0
C576 C 0.76918 0.715 -0.00044 0.0
C577 C 0.82134 0.7119 0.00146 0.0
C578 C 0.74873 0.71138 0.98795 0.0
C579 C 0.78114 0.70411 0.97797 0.0
C580 C 0.83365 0.69919 0.97984 0.0
C581 C 0.8532 0.70331 0.99157 0.0
C582 C 0.69252 0.71703 0.98633 0.0
C583 C 0.86925 0.69092 0.9694 0.0
C584 C 0.71724 0.66229 0.94904 0.0
C585 C 0.71131 0.7081 0.94298 0.0
C586 C 0.7416 0.66005 0.96027 0.0
C587 C 0.76 0.70472 0.96557 0.0
C588 C 0.75511 0.75086 0.95937 0.0
C589 C 0.73098 0.75195 0.94814 0.0
C590 C 0.74649 0.61014 0.96659 0.0
C591 C 0.77391 0.79937 0.96479 0.0
H592 H 0.74418 0.72143 0.00713 0.0
H593 H 0.8935 0.7006 -0.00703 0.0
H594 H 0.68448 0.75102 0.98089 0.0
H595 H 0.67709 0.68443 0.98134 0.0
H596 H 0.67233 0.72027 -0.00492 0.0
H597 H 0.90848 0.68402 0.97245 0.0
H598 H 0.85661 0.65852 0.9639 0.0
H599 H 0.86911 0.72433 0.96344 0.0
H600 H 0.7024 0.6282 0.94507 0.0
H601 H 0.72663 0.78749 0.94351 0.0
H602 H 0.72361 0.61033 0.97496 0.0
H603 H 0.78619 0.60359 0.96927 0.0
H604 H 0.73381 0.57843 0.96084 0.0
H605 H 0.7529 0.80755 0.97321 0.0
H606 H 0.76941 0.83165 0.95854 0.0
H607 H 0.81428 0.79598 0.96722 0.0
C608 C 0.38917 0.28667 0.03088 0.0
C609 C 0.37613 0.33735 0.03218 0.0
C610 C 0.39238 0.26447 0.01944 0.0
C611 C 0.38236 0.2937 0.00907 0.0
C612 C 0.37121 0.34535 0.01028 0.0
C613 C 0.36821 0.36658 0.02184 0.0
C614 C 0.40449 0.20928 0.01848 0.0
C615 C 0.36047 0.37774 -0.00059 0.0
C616 C 0.41846 0.24559 0.97798 0.0
C617 C 0.37214 0.22734 0.97376 0.0
C618 C 0.42266 0.26672 0.98954 0.0
C619 C 0.37955 0.26948 -0.00297 0.0
C620 C 0.33302 0.25006 -0.00708 0.0
C621 C 0.32989 0.22924 0.98135 0.0
C622 C 0.47289 0.28703 -0.00635 0.0
C623 C 0.28623 0.25216 0.00067 0.0
H624 H 0.39564 0.26386 0.03882 0.0
H625 H 0.3584 0.40584 0.02276 0.0
H626 H 0.37113 0.18872 0.01504 0.0
H627 H 0.43559 0.20318 0.01196 0.0
H628 H 0.41543 0.19284 0.02731 0.0
H629 H 0.35624 0.41795 0.00182 0.0
H630 H 0.3912 0.37413 -0.00732 0.0
H631 H 0.32522 0.36494 -0.005 0.0
H632 H 0.45127 0.24432 0.97217 0.0
H633 H 0.29398 0.21508 0.97818 0.0
H634 H 0.4838 0.26967 0.00236 0.0
H635 H 0.46996 0.32803 -0.00481 0.0
H636 H 0.50325 0.28006 0.98696 0.0
H637 H 0.29314 0.23323 0.00942 0.0
H638 H 0.25331 0.23413 -0.00374 0.0
H639 H 0.27658 0.29178 0.00266 0.0
C640 C 0.65878 0.75245 0.25492 0.0
C641 C 0.66399 0.70212 0.25838 0.0
C642 C 0.65827 0.76619 0.2427 0.0
C643 C 0.66311 0.72871 0.23374 0.0
C644 C 0.66748 0.67776 0.23716 0.0
C645 C 0.66787 0.66506 0.24945 0.0
C646 C 0.65353 0.82093 0.2394 0.0
C647 C 0.67271 0.63678 0.22784 0.0
C648 C 0.62479 0.76238 0.20172 0.0
C649 C 0.67145 0.77425 0.19651 0.0
C650 C 0.62149 0.74688 0.2138 0.0
C651 C 0.66589 0.74318 0.22081 0.0
C652 C 0.71311 0.75448 0.21556 0.0
C653 C 0.71532 0.76989 0.20348 0.0
C654 C 0.57048 0.73509 0.21912 0.0
C655 C 0.76131 0.75093 0.22274 0.0
H656 H 0.65557 0.78133 0.26176 0.0
H657 H 0.67174 0.62607 0.25205 0.0
H658 H 0.68797 0.83347 0.23459 0.0
H659 H 0.62131 0.82645 0.23317 0.0
H660 H 0.64801 0.84522 0.24744 0.0
H661 H 0.67351 0.59882 0.23197 0.0
H662 H 0.64101 0.63851 0.22134 0.0
H663 H 0.70796 0.64231 0.22263 0.0
H664 H 0.59073 0.76565 0.19639 0.0
H665 H 0.75157 0.77886 0.19953 0.0
H666 H 0.56246 0.761 0.22671 0.0
H667 H 0.57021 0.69646 0.22283 0.0
H668 H 0.53974 0.73845 0.21237 0.0
H669 H 0.75987 0.7772 0.23049 0.0
H670 H 0.79509 0.75988 0.21723 0.0
H671 H 0.76563 0.71257 0.22647 0.0
C672 C 0.16392 0.24241 0.48426 0.0
C673 C 0.16819 0.20631 0.47512 0.0
C674 C 0.16735 0.22886 0.49646 0.0
C675 C 0.17514 0.17799 0.49958 0.0
C676 C 0.17872 0.14124 0.49041 0.0
C677 C 0.17522 0.15585 0.47828 0.0
C678 C 0.16332 0.26909 0.506 0.0
C679 C 0.1869 0.08661 0.49341 0.0
C680 C 0.23382 0.15239 0.53014 0.0
C681 C 0.19148 0.1403 0.53714 0.0
C682 C 0.22908 0.16402 0.51786 0.0
C683 C 0.18084 0.16354 0.51244 0.0
C684 C 0.13804 0.15053 0.51938 0.0
C685 C 0.14387 0.13905 0.53166 0.0
C686 C 0.27561 0.1776 0.51073 0.0
C687 C 0.08603 0.14951 0.51389 0.0
H688 H 0.1584 0.28146 0.48189 0.0
H689 H 0.17835 0.12768 0.47127 0.0
H690 H 0.13251 0.2599 0.51239 0.0
H691 H 0.19874 0.27081 0.51129 0.0
H692 H 0.15599 0.30673 0.50208 0.0
H693 H 0.18727 0.06251 0.48523 0.0
H694 H 0.22326 0.08199 0.49821 0.0
H695 H 0.15682 0.07314 0.49956 0.0
H696 H 0.27076 0.15331 0.53429 0.0
H697 H 0.11097 0.12964 0.53699 0.0
H698 H 0.27226 0.2165 0.50727 0.0
H699 H 0.27932 0.15252 0.50279 0.0
H700 H 0.31052 0.17484 0.5162 0.0
H701 H 0.07591 0.18749 0.5106 0.0
H702 H 0.05686 0.137 0.52042 0.0
H703 H 0.08539 0.12402 0.50598 0.0
C704 C 0.82967 0.70158 0.70078 0.0
C705 C 0.876 0.69799 0.69475 0.0
C706 C 0.82602 0.72463 0.71209 0.0
C707 C 0.86982 0.74446 0.71757 0.0
C708 C 0.91666 0.7416 0.7115 0.0
C709 C 0.9192 0.71843 0.70012 0.0
C710 C 0.77532 0.72705 0.71826 0.0
C711 C 0.96413 0.7622 0.71711 0.0
C712 C 0.8449 0.83586 0.74313 0.0
C713 C 0.84683 0.804 0.75319 0.0
C714 C 0.85443 0.81749 0.73148 0.0
C715 C 0.86637 0.76618 0.72988 0.0
C716 C 0.87052 0.73439 0.74005 0.0
C717 C 0.86059 0.75365 0.75157 0.0
C718 C 0.8496 0.85247 0.72083 0.0
C719 C 0.88342 0.6795 0.73874 0.0
H720 H 0.79601 0.68615 0.69668 0.0
H721 H 0.95511 0.71582 0.69552 0.0
H722 H 0.77656 0.70568 0.72684 0.0
H723 H 0.76596 0.76646 0.72054 0.0
H724 H 0.74462 0.71148 0.71257 0.0
H725 H 0.99715 0.75893 0.71101 0.0
H726 H 0.95889 0.80225 0.71951 0.0
H727 H 0.97247 0.74173 0.72559 0.0
H728 H 0.83451 0.87485 0.74431 0.0
H729 H 0.86272 0.72886 0.75931 0.0
H730 H 0.8166 0.84135 0.7153 0.0
H731 H 0.88335 0.84977 0.71497 0.0
H732 H 0.84472 0.89214 0.72365 0.0
H733 H 0.85239 0.65982 0.73399 0.0
H734 H 0.88947 0.66095 0.74759 0.0
H735 H 0.9179 0.67493 0.73319 0.0
C736 C 0.08221 0.01664 0.16105 0.0
C737 C 0.09954 0.0498 0.16994 0.0
C738 C 0.0349 0.99361 0.16203 0.0
C739 C 0.00392 0.00428 0.17211 0.0
C740 C 0.02262 0.03483 0.18154 0.0
C741 C 0.07035 0.05713 0.18037 0.0
C742 C 0.01677 0.9605 0.15186 0.0
C743 C 0.9909 0.04685 0.19247 0.0
C744 C 0.86629 0.00077 0.16351 0.0
C745 C 0.85233 0.95232 0.16711 0.0
C746 C 0.91462 0.01943 0.16588 0.0
C747 C 0.95009 0.98871 0.17189 0.0
C748 C 0.93508 0.94123 0.17636 0.0
C749 C 0.88615 0.92363 0.17396 0.0
C750 C 0.92874 0.07068 0.16115 0.0
C751 C 0.97169 0.90744 0.18285 0.0
H752 H 0.10477 0.01016 0.15305 0.0
H753 H 0.08345 0.08255 0.18733 0.0
H754 H 0.0012 0.92492 0.15547 0.0
H755 H 0.98605 0.97974 0.1469 0.0
H756 H 0.0473 0.95148 0.14536 0.0
H757 H 0.01354 0.06399 0.19982 0.0
H758 H 0.96084 0.07362 0.18987 0.0
H759 H 0.97224 0.0126 0.19598 0.0
H760 H 0.84012 0.02332 0.15833 0.0
H761 H 0.87567 0.88606 0.17673 0.0
H762 H 0.95578 0.06659 0.15357 0.0
H763 H 0.94756 0.09301 0.16828 0.0
H764 H 0.89549 0.09188 0.15785 0.0
H765 H 0.9983 0.89107 0.17621 0.0
H766 H 0.95221 0.87625 0.18758 0.0
H767 H 0.99425 0.92892 0.1895 0.0
C768 C 0.00378 0.43385 0.43086 0.0
C769 C 0.04182 0.4158 0.43847 0.0
C770 C 0.98471 0.48247 0.43219 0.0
C771 C 0.00405 0.51392 0.44138 0.0
C772 C 0.03863 0.49422 0.44987 0.0
C773 C 0.05724 0.44523 0.44831 0.0
C774 C 0.94717 0.50155 0.42304 0.0
C775 C 0.05917 0.52602 0.45999 0.0
C776 C 0.00786 0.64653 0.4297 0.0
C777 C 0.96124 0.66502 0.43362 0.0
C778 C 0.02455 0.59878 0.43312 0.0
C779 C 0.99395 0.56877 0.44071 0.0
C780 C 0.94963 0.58938 0.44578 0.0
C781 C 0.93369 0.63737 0.44217 0.0
C782 C 0.07257 0.5787 0.42764 0.0
C783 C 0.9167 0.5592 0.45418 0.0
H784 H 0.99098 0.41098 0.42338 0.0
H785 H 0.0864 0.43148 0.45429 0.0
H786 H 0.91517 0.52026 0.42762 0.0
H787 H 0.96558 0.52977 0.41713 0.0
H788 H 0.9321 0.47101 0.41725 0.0
H789 H 0.07509 0.50258 0.46734 0.0
H790 H 0.08964 0.5504 0.45644 0.0
H791 H 0.02955 0.5507 0.4638 0.0
H792 H 0.02992 0.66802 0.42328 0.0
H793 H 0.89781 0.65148 0.44537 0.0
H794 H 0.06322 0.5495 0.42086 0.0
H795 H 0.09636 0.56093 0.43465 0.0
H796 H 0.09486 0.60853 0.42311 0.0
H797 H 0.89296 0.53327 0.4488 0.0
H798 H 0.89139 0.58372 0.45955 0.0
H799 H 0.93973 0.5362 0.46042 0.0
C800 C 0.4958 0.43073 0.67085 0.0
C801 C 0.47861 0.39669 0.67956 0.0
C802 C 0.5453 0.44878 0.67106 0.0
C803 C 0.57875 0.43202 0.68016 0.0
C804 C 0.56088 0.39992 0.6894 0.0
C805 C 0.51079 0.38274 0.68902 0.0
C806 C 0.56248 0.48375 0.66115 0.0
C807 C 0.59532 0.38133 0.69925 0.0
C808 C 0.71136 0.4349 0.66797 0.0
C809 C 0.72759 0.48241 0.67177 0.0
C810 C 0.66455 0.41576 0.67161 0.0
C811 C 0.6331 0.44498 0.67916 0.0
C812 C 0.65138 0.49061 0.68399 0.0
C813 C 0.69858 0.50874 0.68027 0.0
C814 C 0.64692 0.36636 0.66646 0.0
C815 C 0.61929 0.52261 0.69217 0.0
H816 H 0.4709 0.44213 0.6636 0.0
H817 H 0.49773 0.35629 0.69576 0.0
H818 H 0.58097 0.51733 0.66506 0.0
H819 H 0.59064 0.46448 0.65538 0.0
H820 H 0.53083 0.49629 0.65533 0.0
H821 H 0.57398 0.3641 0.70681 0.0
H822 H 0.6212 0.35268 0.69548 0.0
H823 H 0.61883 0.41231 0.70284 0.0
H824 H 0.73387 0.41387 0.66157 0.0
H825 H 0.71089 0.54531 0.68336 0.0
H826 H 0.61789 0.37341 0.65946 0.0
H827 H 0.6294 0.34291 0.67358 0.0
H828 H 0.67823 0.34494 0.66227 0.0
H829 H 0.59036 0.54219 0.6867 0.0
H830 H 0.64201 0.55134 0.69697 0.0
H831 H 0.59927 0.49925 0.69892 0.0
C832 C 0.40727 0.01792 0.94022 0.0
C833 C 0.41712 0.04913 0.93029 0.0
C834 C 0.42645 0.96877 0.94067 0.0
C835 C 0.45633 0.95079 0.931 0.0
C836 C 0.46992 0.98374 0.92152 0.0
C837 C 0.45002 0.03237 0.92126 0.0
C838 C 0.41155 0.93506 0.951 0.0
C839 C 0.50246 0.96652 0.91113 0.0
C840 C 0.53031 0.82924 0.92995 0.0
C841 C 0.50003 0.80047 0.92219 0.0
C842 C 0.51491 0.87713 0.93378 0.0
C843 C 0.46812 0.8964 0.9298 0.0
C844 C 0.43542 0.86545 0.92297 0.0
C845 C 0.45182 0.81797 0.91923 0.0
C846 C 0.55059 0.90857 0.94119 0.0
C847 C 0.38476 0.8841 0.91872 0.0
H848 H 0.38185 0.03059 0.94724 0.0
H849 H 0.45835 0.05654 0.91365 0.0
H850 H 0.38127 0.90927 0.94799 0.0
H851 H 0.44379 0.91172 0.95398 0.0
H852 H 0.39733 0.95686 0.95884 0.0
H853 H 0.51382 0.99805 0.90517 0.0
H854 H 0.53693 0.94783 0.91454 0.0
H855 H 0.48146 0.93869 0.90564 0.0
H856 H 0.56758 0.81602 0.93234 0.0
H857 H 0.42786 0.79569 0.9134 0.0
H858 H 0.53 0.92981 0.94824 0.0
H859 H 0.56951 0.93626 0.93524 0.0
H860 H 0.58004 0.8853 0.94558 0.0
H861 H 0.36372 0.9015 0.92628 0.0
H862 H 0.36142 0.85354 0.91482 0.0
H863 H 0.39028 0.91331 0.91171 0.0
C864 C 0.20266 0.60218 0.06069 0.0
C865 C 0.21919 0.55564 0.05635 0.0
C866 C 0.15579 0.6218 0.05727 0.0
C867 C 0.12429 0.59387 0.04944 0.0
C868 C 0.14249 0.54888 0.04425 0.0
C869 C 0.18993 0.53043 0.04771 0.0
C870 C 0.13837 0.67054 0.0628 0.0
C871 C 0.11021 0.51797 0.03586 0.0
C872 C 0.9868 0.61168 0.05731 0.0
C873 C 0.97147 0.64719 0.04875 0.0
C874 C 0.03554 0.59162 0.05711 0.0
C875 C 0.07024 0.60806 0.04824 0.0
C876 C 0.05406 0.64156 0.03911 0.0
C877 C 0.00461 0.66051 0.03942 0.0
C878 C 0.05077 0.55512 0.06687 0.0
C879 C 0.08985 0.66011 0.02952 0.0
H880 H 0.2253 0.62219 0.06726 0.0
H881 H 0.20232 0.4944 0.04429 0.0
H882 H 0.12181 0.6953 0.05581 0.0
H883 H 0.10862 0.66278 0.06958 0.0
H884 H 0.16958 0.69092 0.06733 0.0
H885 H 0.13259 0.48922 0.03098 0.0
H886 H 0.08064 0.49854 0.04118 0.0
H887 H 0.09093 0.54217 0.02917 0.0
H888 H 0.96115 0.60096 0.06448 0.0
H889 H 0.99304 0.68822 0.03282 0.0
H890 H 0.07829 0.57328 0.07301 0.0
H891 H 0.0694 0.52184 0.06286 0.0
H892 H 0.01809 0.54227 0.07232 0.0
H893 H 0.11651 0.68734 0.03358 0.0
H894 H 0.06971 0.679 0.022 0.0
H895 H 0.11246 0.62877 0.02579 0.0
C896 C 0.51325 0.5563 0.30909 0.0
C897 C 0.55178 0.57343 0.30149 0.0
C898 C 0.49436 0.50744 0.30806 0.0
C899 C 0.51475 0.47472 0.29926 0.0
C900 C 0.55014 0.49331 0.2908 0.0
C901 C 0.56822 0.54267 0.292 0.0
C902 C 0.45576 0.48958 0.31711 0.0
C903 C 0.57216 0.45998 0.28116 0.0
C904 C 0.51688 0.34339 0.31187 0.0
C905 C 0.47146 0.32388 0.30745 0.0
C906 C 0.53381 0.39102 0.30838 0.0
C907 C 0.50451 0.41998 0.30029 0.0
C908 C 0.46137 0.39849 0.29486 0.0
C909 C 0.44535 0.35053 0.29849 0.0
C910 C 0.58068 0.41204 0.31421 0.0
C911 C 0.4296 0.42768 0.28603 0.0
H912 H 0.49985 0.58019 0.31633 0.0
H913 H 0.59795 0.55569 0.28606 0.0
H914 H 0.42462 0.46958 0.3125 0.0
H915 H 0.47364 0.46276 0.32346 0.0
H916 H 0.43959 0.52099 0.32244 0.0
H917 H 0.58966 0.48222 0.27379 0.0
H918 H 0.60166 0.43583 0.28521 0.0
H919 H 0.543 0.435 0.27725 0.0
H920 H 0.53776 0.3227 0.31864 0.0
H921 H 0.41036 0.33568 0.29494 0.0
H922 H 0.56995 0.4417 0.32075 0.0
H923 H 0.60551 0.42948 0.30734 0.0
H924 H 0.6024 0.38282 0.3191 0.0
H925 H 0.40531 0.45427 0.29107 0.0
H926 H 0.4049 0.4026 0.28064 0.0
H927 H 0.45348 0.44996 0.2798 0.0
C928 C 0.49477 0.85336 0.5723 0.0
C929 C 0.53514 0.88018 0.56733 0.0
C930 C 0.44656 0.87444 0.57304 0.0
C931 C 0.43887 0.92435 0.56912 0.0
C932 C 0.47937 0.95136 0.56385 0.0
C933 C 0.52699 0.92852 0.56281 0.0
C934 C 0.40424 0.84376 0.57839 0.0
C935 C 0.47311 0.00515 0.55991 0.0
C936 C 0.30392 0.97238 0.56637 0.0
C937 C 0.29605 0.99222 0.57792 0.0
C938 C 0.3503 0.95012 0.56329 0.0
C939 C 0.39008 0.94958 0.57183 0.0
C940 C 0.38253 0.9709 0.58338 0.0
C941 C 0.33547 0.99109 0.58634 0.0
C942 C 0.35644 0.92631 0.55103 0.0
C943 C 0.42422 0.97244 0.59265 0.0
H944 H 0.50095 0.81559 0.57561 0.0
H945 H 0.5583 0.94914 0.55896 0.0
H946 H 0.39384 0.8591 0.58735 0.0
H947 H 0.37031 0.84588 0.57257 0.0
H948 H 0.41478 0.80374 0.57954 0.0
H949 H 0.50692 0.01957 0.55512 0.0
H950 H 0.43998 0.00901 0.5539 0.0
H951 H 0.46617 0.02904 0.56794 0.0
H952 H 0.27359 0.97353 0.55983 0.0
H953 H 0.32998 0.00741 0.5952 0.0
H954 H 0.36468 0.88575 0.55209 0.0
H955 H 0.38885 0.94329 0.54622 0.0
H956 H 0.32222 0.93052 0.54536 0.0
H957 H 0.43412 0.93377 0.59545 0.0
H958 H 0.41346 0.99405 0.60082 0.0
H959 H 0.45854 0.98962 0.5887 0.0
C960 C 0.94317 0.1779 0.81201 0.0
C961 C 0.99138 0.19525 0.80896 0.0
C962 C 0.9265 0.13043 0.8083 0.0
C963 C 0.95902 0.09927 0.80149 0.0
C964 C 0.00586 0.11835 0.79746 0.0
C965 C 0.02142 0.16632 0.80119 0.0
C966 C 0.87572 0.11204 0.81257 0.0
C967 C 0.04149 0.08659 0.79011 0.0
C968 C 0.94057 0.9633 0.81008 0.0
C969 C 0.90848 0.94621 0.80093 0.0
C970 C 0.96025 0.01205 0.80987 0.0
C971 C 0.94704 0.04488 0.80034 0.0
C972 C 0.91771 0.0267 0.7906 0.0
C973 C 0.89894 0.97735 0.79098 0.0
C974 C 0.99235 0.02947 0.82032 0.0
C975 C 0.90296 0.06034 0.78025 0.0
H976 H 0.91946 0.20031 0.81787 0.0
H977 H 0.05873 0.1794 0.79876 0.0
H978 H 0.85478 0.09422 0.80505 0.0
H979 H 0.88106 0.08322 0.81968 0.0
H980 H 0.85241 0.14283 0.81636 0.0
H981 H 0.07121 0.10961 0.78573 0.0
H982 H 0.06006 0.05891 0.79611 0.0
H983 H 0.02093 0.06533 0.78306 0.0
H984 H 0.94853 0.93918 0.81773 0.0
H985 H 0.87403 0.96443 0.78388 0.0
H986 H 0.97106 0.05721 0.82576 0.0
H987 H 0.02689 0.04831 0.81697 0.0
H988 H 0.00357 0.99801 0.82631 0.0
H989 H 0.87276 0.08622 0.78326 0.0
H990 H 0.8887 0.03854 0.77242 0.0
H991 H 0.93528 0.08363 0.77727 0.0
C992 C 0.56461 0.92865 0.16976 0.0
C993 C 0.59886 0.95574 0.16262 0.0
C994 C 0.51593 0.94715 0.172 0.0
C995 C 0.5014 0.99392 0.16706 0.0
C996 C 0.53691 0.02281 0.16053 0.0
C997 C 0.58508 0.00332 0.15837 0.0
C998 C 0.47921 0.91528 0.17903 0.0
C999 C 0.5232 0.0732 0.15525 0.0
C1000 C 0.36719 0.02113 0.15756 0.0
C1001 C 0.35149 0.05508 0.16646 0.0
C1002 C 0.41492 0.99876 0.15804 0.0
C1003 C 0.44803 0.01085 0.16762 0.0
C1004 C 0.43145 0.04288 0.177 0.0
C1005 C 0.38327 0.06449 0.17634 0.0
C1006 C 0.43088 0.96423 0.14794 0.0
C1007 C 0.4656 0.05662 0.18737 0.0
H1008 H 0.57487 0.89184 0.17309 0.0
H1009 H 0.61145 0.0248 0.15297 0.0
H1010 H 0.45916 0.93815 0.18587 0.0
H1011 H 0.45041 0.89989 0.17279 0.0
H1012 H 0.49811 0.88346 0.18364 0.0
H1013 H 0.55636 0.09293 0.15139 0.0
H1014 H 0.4949 0.06805 0.14799 0.0
H1015 H 0.50596 0.09748 0.16225 0.0
H1016 H 0.34274 0.01314 0.14997 0.0
H1017 H 0.37153 0.09061 0.18328 0.0
H1018 H 0.44637 0.92883 0.15165 0.0
H1019 H 0.46117 0.98233 0.14258 0.0
H1020 H 0.39922 0.95496 0.14178 0.0
H1021 H 0.48352 0.02262 0.19121 0.0
H1022 H 0.44507 0.07655 0.19467 0.0
H1023 H 0.49623 0.08136 0.18405 0.0
C1024 C 0.99938 0.93203 0.41842 0.0
C1025 C 0.9535 0.91466 0.42312 0.0
C1026 C 0.01605 0.98107 0.42065 0.0
C1027 C 0.98609 0.01372 0.42772 0.0
C1028 C 0.94077 0.9959 0.4329 0.0
C1029 C 0.92509 0.94652 0.43057 0.0
C1030 C 0.06493 0.99849 0.41506 0.0
C1031 C 0.90783 0.02957 0.44049 0.0
C1032 C 0.05284 0.13173 0.43828 0.0
C1033 C 0.04096 0.16545 0.42897 0.0
C1034 C 0.03333 0.08277 0.43834 0.0
C1035 C 1.00087 0.06731 0.42892 0.0
C1036 C 0.98614 0.10214 0.41995 0.0
C1037 C 0.00644 0.1507 0.42006 0.0
C1038 C 0.04984 0.04679 0.44808 0.0
C1039 C 0.95105 0.0873 0.40984 0.0
H1040 H 0.02182 0.90769 0.41275 0.0
H1041 H 0.88958 0.9335 0.43428 0.0
H1042 H 0.0572 0.02832 0.40834 0.0
H1043 H 0.08982 0.01488 0.42207 0.0
H1044 H 0.08544 0.96756 0.41049 0.0
H1045 H 0.87639 0.00873 0.44481 0.0
H1046 H 0.9304 0.04814 0.44762 0.0
H1047 H 0.89168 0.05958 0.43474 0.0
H1048 H 0.07933 0.1427 0.44523 0.0
H1049 H 0.99659 0.17656 0.4129 0.0
H1050 H 0.07518 0.0181 0.44412 0.0
H1051 H 0.01692 0.02676 0.45193 0.0
H1052 H 0.07022 0.06609 0.4555 0.0
H1053 H 0.97001 0.05966 0.4039 0.0
H1054 H 0.93947 0.11994 0.40427 0.0
H1055 H 0.91677 0.06905 0.41352 0.0
C1056 C 0.21467 0.45994 0.66361 0.0
C1057 C 0.22808 0.43096 0.67367 0.0
C1058 C 0.16682 0.48186 0.66275 0.0
C1059 C 0.13141 0.47423 0.67213 0.0
C1060 C 0.14614 0.44866 0.68274 0.0
C1061 C 0.19447 0.42762 0.68342 0.0
C1062 C 0.15291 0.50978 0.65138 0.0
C1063 C 0.10955 0.43972 0.69295 0.0
C1064 C 0.00838 0.54679 0.67038 0.0
C1065 C 0.97759 0.51283 0.6641 0.0
C1066 C 0.05829 0.53444 0.67336 0.0
C1067 C 0.07758 0.4869 0.67008 0.0
C1068 C 0.046 0.45172 0.66421 0.0
C1069 C 0.99654 0.46521 0.66124 0.0
C1070 C 0.09091 0.57296 0.67956 0.0
C1071 C 0.06493 0.40027 0.66071 0.0
H1072 H 0.24058 0.46329 0.65609 0.0
H1073 H 0.20445 0.40556 0.69127 0.0
H1074 H 0.1267 0.48655 0.64594 0.0
H1075 H 0.13323 0.54528 0.6536 0.0
H1076 H 0.18642 0.51857 0.64576 0.0
H1077 H 0.12878 0.42624 0.70124 0.0
H1078 H 0.08851 0.47447 0.69513 0.0
H1079 H 0.0816 0.41102 0.69016 0.0
H1080 H 0.99412 0.58373 0.67259 0.0
H1081 H 0.97291 0.43857 0.65649 0.0
H1082 H 0.12089 0.58567 0.67329 0.0
H1083 H 0.10982 0.55629 0.68753 0.0
H1084 H 0.069 0.60623 0.68253 0.0
H1085 H 0.0954 0.40387 0.65391 0.0
H1086 H 0.03472 0.37626 0.65687 0.0
H1087 H 0.08112 0.38098 0.66869 0.0
C1088 C 0.4144 0.33503 0.93183 0.0
C1089 C 0.41851 0.30112 0.92218 0.0
C1090 C 0.43537 0.38334 0.9311 0.0
C1091 C 0.46141 0.39794 0.92052 0.0
C1092 C 0.46847 0.36281 0.91109 0.0
C1093 C 0.44682 0.31494 0.91202 0.0
C1094 C 0.42701 0.41967 0.94135 0.0
C1095 C 0.49664 0.37662 0.89972 0.0
C1096 C 0.46062 0.53351 0.91014 0.0
C1097 C 0.50949 0.54937 0.91308 0.0
C1098 C 0.444 0.48494 0.91294 0.0
C1099 C 0.47713 0.45107 0.91874 0.0
C1100 C 0.5259 0.46729 0.92212 0.0
C1101 C 0.54144 0.51633 0.9193 0.0
C1102 C 0.39143 0.46934 0.90931 0.0
C1103 C 0.56234 0.43224 0.92828 0.0
H1104 H 0.39271 0.32478 0.93975 0.0
H1105 H 0.45068 0.28892 0.90456 0.0
H1106 H 0.46272 0.4387 0.9438 0.0
H1107 H 0.4001 0.44912 0.93847 0.0
H1108 H 0.41159 0.40087 0.9495 0.0
H1109 H 0.50317 0.34368 0.89379 0.0
H1110 H 0.47479 0.40493 0.89459 0.0
H1111 H 0.53354 0.39371 0.90199 0.0
H1112 H 0.43547 0.55883 0.90543 0.0
H1113 H 0.5793 0.52814 0.9216 0.0
H1114 H 0.37101 0.45366 0.91719 0.0
H1115 H 0.39348 0.43942 0.90237 0.0
H1116 H 0.36924 0.50107 0.90559 0.0
H1117 H 0.54437 0.41446 0.93624 0.0
H1118 H 0.59715 0.45177 0.93126 0.0
H1119 H 0.57302 0.4017 0.92199 0.0
C1120 C 0.70601 0.60958 0.06906 0.0
C1121 C 0.7182 0.63746 0.05872 0.0
C1122 C 0.65812 0.58798 0.07046 0.0
C1123 C 0.62121 0.59509 0.0614 0.0
C1124 C 0.63372 0.62185 0.05079 0.0
C1125 C 0.68216 0.64233 0.04953 0.0
C1126 C 0.64651 0.55896 0.08183 0.0
C1127 C 0.59522 0.63093 0.041 0.0
C1128 C 0.50554 0.5109 0.06115 0.0
C1129 C 0.47039 0.54007 0.06749 0.0
C1130 C 0.55473 0.5283 0.0591 0.0
C1131 C 0.5689 0.57642 0.06328 0.0
C1132 C 0.53325 0.6066 0.06942 0.0
C1133 C 0.48458 0.58787 0.07155 0.0
C1134 C 0.59191 0.4947 0.0527 0.0
C1135 C 0.54666 0.65854 0.07382 0.0
H1136 H 0.73356 0.60561 0.0762 0.0
H1137 H 0.69093 0.66424 0.04156 0.0
H1138 H 0.61815 0.57955 0.08725 0.0
H1139 H 0.63011 0.52187 0.07954 0.0
H1140 H 0.68051 0.55306 0.08749 0.0
H1141 H 0.61162 0.65025 0.03304 0.0
H1142 H 0.57846 0.59492 0.038 0.0
H1143 H 0.56413 0.6543 0.04463 0.0
H1144 H 0.49507 0.47375 0.05807 0.0
H1145 H 0.4576 0.61072 0.07641 0.0
H1146 H 0.62429 0.48678 0.05873 0.0
H1147 H 0.60703 0.51381 0.04458 0.0
H1148 H 0.57481 0.4585 0.0499 0.0
H1149 H 0.57722 0.65622 0.08062 0.0
H1150 H 0.514 0.67809 0.07795 0.0
H1151 H 0.56097 0.6816 0.06622 0.0
C1152 C 0.43547 0.04209 0.31074 0.0
C1153 C 0.46193 0.07418 0.31855 0.0
C1154 C 0.45238 0.9931 0.30847 0.0
C1155 C 0.49702 0.97588 0.31405 0.0
C1156 C 0.52486 0.00862 0.32159 0.0
C1157 C 0.5069 0.05726 0.32378 0.0
C1158 C 0.42157 0.95925 0.30042 0.0
C1159 C 0.57301 0.99182 0.32761 0.0
C1160 C 0.5187 0.83778 0.3204 0.0
C1161 C 0.55394 0.82502 0.31148 0.0
C1162 C 0.49817 0.88619 0.321 0.0
C1163 C 0.51358 0.92293 0.31254 0.0
C1164 C 0.54729 0.90971 0.30318 0.0
C1165 C 0.56687 0.86083 0.30272 0.0
C1166 C 0.46166 0.89859 0.33102 0.0
C1167 C 0.56471 0.94786 0.29401 0.0
H1168 H 0.40065 0.05468 0.30665 0.0
H1169 H 0.52781 0.08178 0.32976 0.0
H1170 H 0.44557 0.94296 0.29322 0.0
H1171 H 0.40634 0.92756 0.30579 0.0
H1172 H 0.3896 0.97932 0.29613 0.0
H1173 H 0.59171 0.02268 0.33263 0.0
H1174 H 0.5648 0.96088 0.33401 0.0
H1175 H 0.59969 0.97706 0.32077 0.0
H1176 H 0.50816 0.81031 0.32716 0.0
H1177 H 0.59416 0.85145 0.2958 0.0
H1178 H 0.42737 0.91652 0.32728 0.0
H1179 H 0.47924 0.9258 0.33731 0.0
H1180 H 0.45027 0.86484 0.33623 0.0
H1181 H 0.53198 0.96736 0.28994 0.0
H1182 H 0.58734 0.93058 0.28668 0.0
H1183 H 0.58808 0.97674 0.29855 0.0
C1184 C 0.82609 0.87886 0.58542 0.0
C1185 C 0.79281 0.89563 0.57647 0.0
C1186 C 0.87345 0.90135 0.587 0.0
C1187 C 0.88752 0.94239 0.57962 0.0
C1188 C 0.85319 0.96086 0.5709 0.0
C1189 C 0.80657 0.93668 0.56928 0.0
C1190 C 0.90929 0.87943 0.59616 0.0
C1191 C 0.86597 0.00575 0.56319 0.0
C1192 C 0.99573 0.02186 0.59143 0.0
C1193 C 0.03582 0.00555 0.58423 0.0
C1194 C 0.94694 0.00281 0.58976 0.0
C1195 C 0.93849 0.96533 0.58094 0.0
C1196 C 0.97918 0.9485 0.57369 0.0
C1197 C 0.02733 0.96955 0.57529 0.0
C1198 C 0.90453 0.02246 0.5975 0.0
C1199 C 0.97208 0.90753 0.56445 0.0
H1200 H 0.81612 0.84648 0.59084 0.0
H1201 H 0.78096 0.94968 0.56234 0.0
H1202 H 0.93909 0.85807 0.59138 0.0
H1203 H 0.9281 0.90926 0.60148 0.0
H1204 H 0.88991 0.85373 0.60252 0.0
H1205 H 0.8338 0.0177 0.55747 0.0
H1206 H 0.87748 0.0377 0.56898 0.0
H1207 H 0.8983 0.99678 0.55723 0.0
H1208 H 0.00252 0.05015 0.59827 0.0
H1209 H 0.05857 0.95713 0.56974 0.0
H1210 H 0.88979 0.99197 0.60333 0.0
H1211 H 0.87299 0.03537 0.59172 0.0
H1212 H 0.91668 0.05404 0.60336 0.0
H1213 H 0.95801 0.87305 0.56895 0.0
H1214 H 0.00758 0.89843 0.55962 0.0
H1215 H 0.94337 0.9189 0.55773 0.0
C1216 C 0.90667 0.65904 0.80098 0.0
C1217 C 0.91001 0.69409 0.81041 0.0
C1218 C 0.92718 0.61077 0.80216 0.0
C1219 C 0.95223 0.5974 0.81296 0.0
C1220 C 0.95829 0.63349 0.82222 0.0
C1221 C 0.93685 0.68128 0.82087 0.0
C1222 C 0.91962 0.57328 0.79211 0.0
C1223 C 0.98555 0.62096 0.83378 0.0
C1224 C 0.95305 0.46148 0.8232 0.0
C1225 C 0.00177 0.44612 0.82 0.0
C1226 C 0.93612 0.51021 0.82068 0.0
C1227 C 0.96891 0.54474 0.81495 0.0
C1228 C 0.01779 0.52927 0.81149 0.0
C1229 C 0.03352 0.48005 0.81399 0.0
C1230 C 0.8834 0.52503 0.82435 0.0
C1231 C 0.05397 0.56512 0.80548 0.0
H1232 H 0.88589 0.66841 0.79288 0.0
H1233 H 0.93993 0.70816 0.82816 0.0
H1234 H 0.9559 0.55541 0.78966 0.0
H1235 H 0.89396 0.54305 0.79522 0.0
H1236 H 0.90321 0.59073 0.78391 0.0
H1237 H 0.99116 0.65445 0.83959 0.0
H1238 H 0.9636 0.59275 0.83894 0.0
H1239 H 0.02284 0.6042 0.83177 0.0
H1240 H 0.92814 0.43548 0.82779 0.0
H1241 H 0.07134 0.46867 0.81153 0.0
H1242 H 0.86262 0.53999 0.81645 0.0
H1243 H 0.88504 0.55532 0.8312 0.0
H1244 H 0.86178 0.49308 0.82817 0.0
H1245 H 0.0366 0.5815 0.79728 0.0
H1246 H 0.08989 0.54669 0.80289 0.0
H1247 H 0.06256 0.59662 0.81169 0.0
loop_
_geom_bond_atom_site_label_1
_geom_bond_atom_site_label_2
_geom_bond_distance
_geom_bond_site_symmetry_2
_ccdc_geom_bond_type
Mg0 O1 2.028 . S
Mg0 O7 1.986 . S
Mg0 O9 2.114 . S
Mg0 O10 2.251 . S
Mg0 O13 2.010 . S
O1 Mg0 2.028 . S
O1 C4 1.250 . S
O2 Mg3 2.028 . S
O2 C4 1.248 . S
Mg3 O2 2.028 . S
Mg3 O8 2.032 . S
Mg3 O10 2.079 . S
C4 O1 1.250 . S
C4 O2 1.248 . S
C5 O6 1.264 . S
C5 O13 1.249 . S
O6 C5 1.264 . S
O7 Mg0 1.986 . S
O7 C11 1.246 . S
O8 Mg3 2.032 . S
O8 C11 1.259 . S
O9 Mg0 2.114 . S
O9 C12 1.252 . S
O10 Mg0 2.251 . S
O10 Mg3 2.079 . S
O10 C12 1.273 . S
C11 O7 1.246 . S
C11 O8 1.259 . S
C12 O9 1.252 . S
C12 O10 1.273 . S
O13 Mg0 2.010 . S
O13 C5 1.249 . S
Mg14 O15 2.028 . S
Mg14 O21 1.986 . S
Mg14 O23 2.114 . S
Mg14 O24 2.251 . S
Mg14 O27 2.010 . S
O15 Mg14 2.028 . S
O15 C18 1.250 . S
O16 Mg17 2.028 . S
O16 C18 1.248 . S
Mg17 O16 2.028 . S
Mg17 O22 2.032 . S
Mg17 O24 2.079 . S
C18 O15 1.250 . S
C18 O16 1.248 . S
C19 O20 1.264 . S
C19 O27 1.249 . S
O20 C19 1.264 . S
O21 Mg14 1.986 . S
O21 C25 1.246 . S
O22 Mg17 2.032 . S
O22 C25 1.259 . S
O23 Mg14 2.114 . S
O23 C26 1.252 . S
O24 Mg14 2.251 . S
O24 Mg17 2.079 . S
O24 C26 1.273 . S
C25 O21 1.246 . S
C25 O22 1.259 . S
C26 O23 1.252 . S
C26 O24 1.273 . S
O27 Mg14 2.010 . S
O27 C19 1.249 . S
Mg28 O29 2.028 . S
Mg28 O35 1.986 . S
Mg28 O37 2.114 . S
Mg28 O38 2.251 . S
Mg28 O41 2.010 . S
O29 Mg28 2.028 . S
O29 C32 1.250 . S
O30 Mg31 2.028 . S
O30 C32 1.248 . S
Mg31 O30 2.028 . S
Mg31 O36 2.032 . S
Mg31 O38 2.079 . S
C32 O29 1.250 . S
C32 O30 1.248 . S
C33 O34 1.264 . S
C33 O41 1.249 . S
O34 C33 1.264 . S
O35 Mg28 1.986 . S
O35 C39 1.246 . S
O36 Mg31 2.032 . S
O36 C39 1.259 . S
O37 Mg28 2.114 . S
O37 C40 1.252 . S
O38 Mg28 2.251 . S
O38 Mg31 2.079 . S
O38 C40 1.273 . S
C39 O35 1.246 . S
C39 O36 1.259 . S
C40 O37 1.252 . S
C40 O38 1.273 . S
O41 Mg28 2.010 . S
O41 C33 1.249 . S
Mg42 O43 2.028 . S
Mg42 O49 1.986 . S
Mg42 O51 2.114 . S
Mg42 O52 2.251 . S
Mg42 O55 2.010 . S
O43 Mg42 2.028 . S
O43 C46 1.250 . S
O44 Mg45 2.028 . S
O44 C46 1.248 . S
Mg45 O44 2.028 . S
Mg45 O50 2.032 . S
Mg45 O52 2.079 . S
C46 O43 1.250 . S
C46 O44 1.248 . S
C47 O48 1.264 . S
C47 O55 1.249 . S
O48 C47 1.264 . S
O49 Mg42 1.986 . S
O49 C53 1.246 . S
O50 Mg45 2.032 . S
O50 C53 1.259 . S
O51 Mg42 2.114 . S
O51 C54 1.252 . S
O52 Mg42 2.251 . S
O52 Mg45 2.079 . S
O52 C54 1.273 . S
C53 O49 1.246 . S
C53 O50 1.259 . S
C54 O51 1.252 . S
C54 O52 1.273 . S
O55 Mg42 2.010 . S
O55 C47 1.249 . S
Mg56 O57 2.028 . S
Mg56 O63 1.986 . S
Mg56 O65 2.114 . S
Mg56 O66 2.251 . S
Mg56 O69 2.010 . S
O57 Mg56 2.028 . S
O57 C60 1.250 . S
O58 Mg59 2.028 . S
O58 C60 1.248 . S
Mg59 O58 2.028 . S
Mg59 O64 2.032 . S
Mg59 O66 2.079 . S
C60 O57 1.250 . S
C60 O58 1.248 . S
C61 O62 1.264 . S
C61 O69 1.249 . S
O62 C61 1.264 . S
O63 Mg56 1.986 . S
O63 C67 1.246 . S
O64 Mg59 2.032 . S
O64 C67 1.259 . S
O65 Mg56 2.114 . S
O65 C68 1.252 . S
O66 Mg56 2.251 . S
O66 Mg59 2.079 . S
O66 C68 1.273 . S
C67 O63 1.246 . S
C67 O64 1.259 . S
C68 O65 1.252 . S
C68 O66 1.273 . S
O69 Mg56 2.010 . S
O69 C61 1.249 . S
Mg70 O71 2.028 . S
Mg70 O77 1.986 . S
Mg70 O79 2.114 . S
Mg70 O80 2.251 . S
Mg70 O83 2.010 . S
O71 Mg70 2.028 . S
O71 C74 1.250 . S
O72 Mg73 2.028 . S
O72 C74 1.248 . S
Mg73 O72 2.028 . S
Mg73 O78 2.032 . S
Mg73 O80 2.079 . S
C74 O71 1.250 . S
C74 O72 1.248 . S
C75 O76 1.264 . S
C75 O83 1.249 . S
O76 C75 1.264 . S
O77 Mg70 1.986 . S
O77 C81 1.246 . S
O78 Mg73 2.032 . S
O78 C81 1.259 . S
O79 Mg70 2.114 . S
O79 C82 1.252 . S
O80 Mg70 2.251 . S
O80 Mg73 2.079 . S
O80 C82 1.273 . S
C81 O77 1.246 . S
C81 O78 1.259 . S
C82 O79 1.252 . S
C82 O80 1.273 . S
O83 Mg70 2.010 . S
O83 C75 1.249 . S
Mg84 O85 2.028 . S
Mg84 O91 1.986 . S
Mg84 O93 2.114 . S
Mg84 O94 2.251 . S
Mg84 O97 2.010 . S
O85 Mg84 2.028 . S
O85 C88 1.250 . S
O86 Mg87 2.028 . S
O86 C88 1.248 . S
Mg87 O86 2.028 . S
Mg87 O92 2.032 . S
Mg87 O94 2.079 . S
C88 O85 1.250 . S
C88 O86 1.248 . S
C89 O90 1.264 . S
C89 O97 1.249 . S
O90 C89 1.264 . S
O91 Mg84 1.986 . S
O91 C95 1.246 . S
O92 Mg87 2.032 . S
O92 C95 1.259 . S
O93 Mg84 2.114 . S
O93 C96 1.252 . S
O94 Mg84 2.251 . S
O94 Mg87 2.079 . S
O94 C96 1.273 . S
C95 O91 1.246 . S
C95 O92 1.259 . S
C96 O93 1.252 . S
C96 O94 1.273 . S
O97 Mg84 2.010 . S
O97 C89 1.249 . S
Mg98 O99 2.028 . S
Mg98 O105 1.986 . S
Mg98 O107 2.114 . S
Mg98 O108 2.251 . S
Mg98 O111 2.010 . S
O99 Mg98 2.028 . S
O99 C102 1.250 . S
O100 Mg101 2.028 . S
O100 C102 1.248 . S
Mg101 O100 2.028 . S
Mg101 O106 2.032 . S
Mg101 O108 2.079 . S
C102 O99 1.250 . S
C102 O100 1.248 . S
C103 O104 1.264 . S
C103 O111 1.249 . S
O104 C103 1.264 . S
O105 Mg98 1.986 . S
O105 C109 1.246 . S
O106 Mg101 2.032 . S
O106 C109 1.259 . S
O107 Mg98 2.114 . S
O107 C110 1.252 . S
O108 Mg98 2.251 . S
O108 Mg101 2.079 . S
O108 C110 1.273 . S
C109 O105 1.246 . S
C109 O106 1.259 . S
C110 O107 1.252 . S
C110 O108 1.273 . S
O111 Mg98 2.010 . S
O111 C103 1.249 . S
Mg112 O113 2.028 . S
Mg112 O119 1.986 . S
Mg112 O121 2.114 . S
Mg112 O122 2.251 . S
Mg112 O125 2.010 . S
O113 Mg112 2.028 . S
O113 C116 1.250 . S
O114 Mg115 2.028 . S
O114 C116 1.248 . S
Mg115 O114 2.028 . S
Mg115 O120 2.032 . S
Mg115 O122 2.079 . S
C116 O113 1.250 . S
C116 O114 1.248 . S
C117 O118 1.264 . S
C117 O125 1.249 . S
O118 C117 1.264 . S
O119 Mg112 1.986 . S
O119 C123 1.246 . S
O120 Mg115 2.032 . S
O120 C123 1.259 . S
O121 Mg112 2.114 . S
O121 C124 1.252 . S
O122 Mg112 2.251 . S
O122 Mg115 2.079 . S
O122 C124 1.273 . S
C123 O119 1.246 . S
C123 O120 1.259 . S
C124 O121 1.252 . S
C124 O122 1.273 . S
O125 Mg112 2.010 . S
O125 C117 1.249 . S
Mg126 O127 2.028 . S
Mg126 O133 1.986 . S
Mg126 O135 2.114 . S
Mg126 O136 2.251 . S
Mg126 O139 2.010 . S
O127 Mg126 2.028 . S
O127 C130 1.250 . S
O128 Mg129 2.028 . S
O128 C130 1.248 . S
Mg129 O128 2.028 . S
Mg129 O134 2.032 . S
Mg129 O136 2.079 . S
C130 O127 1.250 . S
C130 O128 1.248 . S
C131 O132 1.264 . S
C131 O139 1.249 . S
O132 C131 1.264 . S
O133 Mg126 1.986 . S
O133 C137 1.246 . S
O134 Mg129 2.032 . S
O134 C137 1.259 . S
O135 Mg126 2.114 . S
O135 C138 1.252 . S
O136 Mg126 2.251 . S
O136 Mg129 2.079 . S
O136 C138 1.273 . S
C137 O133 1.246 . S
C137 O134 1.259 . S
C138 O135 1.252 . S
C138 O136 1.273 . S
O139 Mg126 2.010 . S
O139 C131 1.249 . S
Mg140 O141 2.028 . S
Mg140 O147 1.986 . S
Mg140 O149 2.114 . S
Mg140 O150 2.251 . S
Mg140 O153 2.010 . S
O141 Mg140 2.028 . S
O141 C144 1.250 . S
O142 Mg143 2.028 . S
O142 C144 1.248 . S
Mg143 O142 2.028 . S
Mg143 O148 2.032 . S
Mg143 O150 2.079 . S
C144 O141 1.250 . S
C144 O142 1.248 . S
C145 O146 1.264 . S
C145 O153 1.249 . S
O146 C145 1.264 . S
O147 Mg140 1.986 . S
O147 C151 1.246 . S
O148 Mg143 2.032 . S
O148 C151 1.259 . S
O149 Mg140 2.114 . S
O149 C152 1.252 . S
O150 Mg140 2.251 . S
O150 Mg143 2.079 . S
O150 C152 1.273 . S
C151 O147 1.246 . S
C151 O148 1.259 . S
C152 O149 1.252 . S
C152 O150 1.273 . S
O153 Mg140 2.010 . S
O153 C145 1.249 . S
Mg154 O155 2.028 . S
Mg154 O161 1.986 . S
Mg154 O163 2.114 . S
Mg154 O164 2.251 . S
Mg154 O167 2.010 . S
O155 Mg154 2.028 . S
O155 C158 1.250 . S
O156 Mg157 2.028 . S
O156 C158 1.248 . S
Mg157 O156 2.028 . S
Mg157 O162 2.032 . S
Mg157 O164 2.079 . S
C158 O155 1.250 . S
C158 O156 1.248 . S
C159 O160 1.264 . S
C159 O167 1.249 . S
O160 C159 1.264 . S
O161 Mg154 1.986 . S
O161 C165 1.246 . S
O162 Mg157 2.032 . S
O162 C165 1.259 . S
O163 Mg154 2.114 . S
O163 C166 1.252 . S
O164 Mg154 2.251 . S
O164 Mg157 2.079 . S
O164 C166 1.273 . S
C165 O161 1.246 . S
C165 O162 1.259 . S
C166 O163 1.252 . S
C166 O164 1.273 . S
O167 Mg154 2.010 . S
O167 C159 1.249 . S
Mg168 O169 2.028 . S
Mg168 O175 1.986 . S
Mg168 O177 2.114 . S
Mg168 O178 2.251 . S
Mg168 O181 2.010 . S
O169 Mg168 2.028 . S
O169 C172 1.250 . S
O170 Mg171 2.028 . S
O170 C172 1.248 . S
Mg171 O170 2.028 . S
Mg171 O176 2.032 . S
Mg171 O178 2.079 . S
C172 O169 1.250 . S
C172 O170 1.248 . S
C173 O174 1.264 . S
C173 O181 1.249 . S
O174 C173 1.264 . S
O175 Mg168 1.986 . S
O175 C179 1.246 . S
O176 Mg171 2.032 . S
O176 C179 1.259 . S
O177 Mg168 2.114 . S
O177 C180 1.252 . S
O178 Mg168 2.251 . S
O178 Mg171 2.079 . S
O178 C180 1.273 . S
C179 O175 1.246 . S
C179 O176 1.259 . S
C180 O177 1.252 . S
C180 O178 1.273 . S
O181 Mg168 2.010 . S
O181 C173 1.249 . S
Mg182 O183 2.028 . S
Mg182 O189 1.986 . S
Mg182 O191 2.114 . S
Mg182 O192 2.251 . S
Mg182 O195 2.010 . S
O183 Mg182 2.028 . S
O183 C186 1.250 . S
O184 Mg185 2.028 . S
O184 C186 1.248 . S
Mg185 O184 2.028 . S
Mg185 O190 2.032 . S
Mg185 O192 2.079 . S
C186 O183 1.250 . S
C186 O184 1.248 . S
C187 O188 1.264 . S
C187 O195 1.249 . S
O188 C187 1.264 . S
O189 Mg182 1.986 . S
O189 C193 1.246 . S
O190 Mg185 2.032 . S
O190 C193 1.259 . S
O191 Mg182 2.114 . S
O191 C194 1.252 . S
O192 Mg182 2.251 . S
O192 Mg185 2.079 . S
O192 C194 1.273 . S
C193 O189 1.246 . S
C193 O190 1.259 . S
C194 O191 1.252 . S
C194 O192 1.273 . S
O195 Mg182 2.010 . S
O195 C187 1.249 . S
Mg196 O197 2.028 . S
Mg196 O203 1.986 . S
Mg196 O205 2.114 . S
Mg196 O206 2.251 . S
Mg196 O209 2.010 . S
O197 Mg196 2.028 . S
O197 C200 1.250 . S
O198 Mg199 2.028 . S
O198 C200 1.248 . S
Mg199 O198 2.028 . S
Mg199 O204 2.032 . S
Mg199 O206 2.079 . S
C200 O197 1.250 . S
C200 O198 1.248 . S
C201 O202 1.264 . S
C201 O209 1.249 . S
O202 C201 1.264 . S
O203 Mg196 1.986 . S
O203 C207 1.246 . S
O204 Mg199 2.032 . S
O204 C207 1.259 . S
O205 Mg196 2.114 . S
O205 C208 1.252 . S
O206 Mg196 2.251 . S
O206 Mg199 2.079 . S
O206 C208 1.273 . S
C207 O203 1.246 . S
C207 O204 1.259 . S
C208 O205 1.252 . S
C208 O206 1.273 . S
O209 Mg196 2.010 . S
O209 C201 1.249 . S
Mg210 O211 2.028 . S
Mg210 O217 1.986 . S
Mg210 O219 2.114 . S
Mg210 O220 2.251 . S
Mg210 O223 2.010 . S
O211 Mg210 2.028 . S
O211 C214 1.250 . S
O212 Mg213 2.028 . S
O212 C214 1.248 . S
Mg213 O212 2.028 . S
Mg213 O218 2.032 . S
Mg213 O220 2.079 . S
C214 O211 1.250 . S
C214 O212 1.248 . S
C215 O216 1.264 . S
C215 O223 1.249 . S
O216 C215 1.264 . S
O217 Mg210 1.986 . S
O217 C221 1.246 . S
O218 Mg213 2.032 . S
O218 C221 1.259 . S
O219 Mg210 2.114 . S
O219 C222 1.252 . S
O220 Mg210 2.251 . S
O220 Mg213 2.079 . S
O220 C222 1.273 . S
C221 O217 1.246 . S
C221 O218 1.259 . S
C222 O219 1.252 . S
C222 O220 1.273 . S
O223 Mg210 2.010 . S
O223 C215 1.249 . S
C224 C225 1.391 . S
C224 C226 1.394 . S
C224 H240 0.931 . S
C225 C224 1.391 . S
C225 C229 1.376 . S
C226 C224 1.394 . S
C226 C227 1.369 . S
C226 C230 1.531 . S
C227 C226 1.369 . S
C227 C228 1.410 . S
C227 C235 1.503 . S
C228 C227 1.410 . S
C228 C229 1.392 . S
C228 C231 1.511 . S
C229 C225 1.376 . S
C229 C228 1.392 . S
C229 H241 0.929 . S
C230 C226 1.531 . S
C230 H242 0.960 . S
C230 H243 0.962 . S
C230 H244 0.960 . S
C231 C228 1.511 . S
C231 H245 0.961 . S
C231 H246 0.961 . S
C231 H247 0.961 . S
C232 C233 1.370 . S
C232 C234 1.363 . S
C232 H248 0.931 . S
C233 C232 1.370 . S
C233 C237 1.408 . S
C234 C232 1.363 . S
C234 C235 1.370 . S
C234 C238 1.524 . S
C235 C227 1.503 . S
C235 C234 1.370 . S
C235 C236 1.403 . S
C236 C235 1.403 . S
C236 C237 1.404 . S
C236 C239 1.539 . S
C237 C233 1.408 . S
C237 C236 1.404 . S
C237 H249 0.930 . S
C238 C234 1.524 . S
C238 H250 0.956 . S
C238 H251 0.961 . S
C238 H252 0.961 . S
C239 C236 1.539 . S
C239 H253 0.958 . S
C239 H254 0.961 . S
C239 H255 0.960 . S
H240 C224 0.931 . S
H241 C229 0.929 . S
H242 C230 0.960 . S
H243 C230 0.962 . S
H244 C230 0.960 . S
H245 C231 0.961 . S
H246 C231 0.961 . S
H247 C231 0.961 . S
H248 C232 0.931 . S
H249 C237 0.930 . S
H250 C238 0.956 . S
H251 C238 0.961 . S
H252 C238 0.961 . S
H253 C239 0.958 . S
H254 C239 0.961 . S
H255 C239 0.960 . S
C256 C257 1.391 . S
C256 C258 1.394 . S
C256 H272 0.931 . S
C257 C256 1.391 . S
C257 C261 1.376 . S
C258 C256 1.394 . S
C258 C259 1.369 . S
C258 C262 1.531 . S
C259 C258 1.369 . S
C259 C260 1.410 . S
C259 C267 1.503 . S
C260 C259 1.410 . S
C260 C261 1.392 . S
C260 C263 1.511 . S
C261 C257 1.376 . S
C261 C260 1.392 . S
C261 H273 0.929 . S
C262 C258 1.531 . S
C262 H274 0.960 . S
C262 H275 0.962 . S
C262 H276 0.960 . S
C263 C260 1.511 . S
C263 H277 0.961 . S
C263 H278 0.961 . S
C263 H279 0.961 . S
C264 C265 1.370 . S
C264 C266 1.363 . S
C264 H280 0.931 . S
C265 C264 1.370 . S
C265 C269 1.408 . S
C266 C264 1.363 . S
C266 C267 1.370 . S
C266 C270 1.524 . S
C267 C259 1.503 . S
C267 C266 1.370 . S
C267 C268 1.403 . S
C268 C267 1.403 . S
C268 C269 1.404 . S
C268 C271 1.539 . S
C269 C265 1.408 . S
C269 C268 1.404 . S
C269 H281 0.930 . S
C270 C266 1.524 . S
C270 H282 0.956 . S
C270 H283 0.961 . S
C270 H284 0.961 . S
C271 C268 1.539 . S
C271 H285 0.958 . S
C271 H286 0.961 . S
C271 H287 0.960 . S
H272 C256 0.931 . S
H273 C261 0.929 . S
H274 C262 0.960 . S
H275 C262 0.962 . S
H276 C262 0.960 . S
H277 C263 0.961 . S
H278 C263 0.961 . S
H279 C263 0.961 . S
H280 C264 0.931 . S
H281 C269 0.930 . S
H282 C270 0.956 . S
H283 C270 0.961 . S
H284 C270 0.961 . S
H285 C271 0.958 . S
H286 C271 0.961 . S
H287 C271 0.960 . S
C288 C289 1.391 . S
C288 C290 1.394 . S
C288 H304 0.931 . S
C289 C288 1.391 . S
C289 C293 1.376 . S
C290 C288 1.394 . S
C290 C291 1.369 . S
C290 C294 1.531 . S
C291 C290 1.369 . S
C291 C292 1.410 . S
C291 C299 1.503 . S
C292 C291 1.410 . S
C292 C293 1.392 . S
C292 C295 1.511 . S
C293 C289 1.376 . S
C293 C292 1.392 . S
C293 H305 0.929 . S
C294 C290 1.531 . S
C294 H306 0.960 . S
C294 H307 0.962 . S
C294 H308 0.960 . S
C295 C292 1.511 . S
C295 H309 0.961 . S
C295 H310 0.961 . S
C295 H311 0.961 . S
C296 C297 1.370 . S
C296 C298 1.363 . S
C296 H312 0.931 . S
C297 C296 1.370 . S
C297 C301 1.408 . S
C298 C296 1.363 . S
C298 C299 1.370 . S
C298 C302 1.524 . S
C299 C291 1.503 . S
C299 C298 1.370 . S
C299 C300 1.403 . S
C300 C299 1.403 . S
C300 C301 1.404 . S
C300 C303 1.539 . S
C301 C297 1.408 . S
C301 C300 1.404 . S
C301 H313 0.930 . S
C302 C298 1.524 . S
C302 H314 0.956 . S
C302 H315 0.961 . S
C302 H316 0.961 . S
C303 C300 1.539 . S
C303 H317 0.958 . S
C303 H318 0.961 . S
C303 H319 0.960 . S
H304 C288 0.931 . S
H305 C293 0.929 . S
H306 C294 0.960 . S
H307 C294 0.962 . S
H308 C294 0.960 . S
H309 C295 0.961 . S
H310 C295 0.961 . S
H311 C295 0.961 . S
H312 C296 0.931 . S
H313 C301 0.930 . S
H314 C302 0.956 . S
H315 C302 0.961 . S
H316 C302 0.961 . S
H317 C303 0.958 . S
H318 C303 0.961 . S
H319 C303 0.960 . S
C320 C321 1.391 . S
C320 C322 1.394 . S
C320 H336 0.931 . S
C321 C320 1.391 . S
C321 C325 1.376 . S
C322 C320 1.394 . S
C322 C323 1.369 . S
C322 C326 1.531 . S
C323 C322 1.369 . S
C323 C324 1.410 . S
C323 C331 1.503 . S
C324 C323 1.410 . S
C324 C325 1.392 . S
C324 C327 1.511 . S
C325 C321 1.376 . S
C325 C324 1.392 . S
C325 H337 0.929 . S
C326 C322 1.531 . S
C326 H338 0.960 . S
C326 H339 0.962 . S
C326 H340 0.960 . S
C327 C324 1.511 . S
C327 H341 0.961 . S
C327 H342 0.961 . S
C327 H343 0.961 . S
C328 C329 1.370 . S
C328 C330 1.363 . S
C328 H344 0.931 . S
C329 C328 1.370 . S
C329 C333 1.408 . S
C330 C328 1.363 . S
C330 C331 1.370 . S
C330 C334 1.524 . S
C331 C323 1.503 . S
C331 C330 1.370 . S
C331 C332 1.403 . S
C332 C331 1.403 . S
C332 C333 1.404 . S
C332 C335 1.539 . S
C333 C329 1.408 . S
C333 C332 1.404 . S
C333 H345 0.930 . S
C334 C330 1.524 . S
C334 H346 0.956 . S
C334 H347 0.961 . S
C334 H348 0.961 . S
C335 C332 1.539 . S
C335 H349 0.958 . S
C335 H350 0.961 . S
C335 H351 0.960 . S
H336 C320 0.931 . S
H337 C325 0.929 . S
H338 C326 0.960 . S
H339 C326 0.962 . S
H340 C326 0.960 . S
H341 C327 0.961 . S
H342 C327 0.961 . S
H343 C327 0.961 . S
H344 C328 0.931 . S
H345 C333 0.930 . S
H346 C334 0.956 . S
H347 C334 0.961 . S
H348 C334 0.961 . S
H349 C335 0.958 . S
H350 C335 0.961 . S
H351 C335 0.960 . S
C352 C353 1.391 . S
C352 C354 1.394 . S
C352 H368 0.931 . S
C353 C352 1.391 . S
C353 C357 1.376 . S
C354 C352 1.394 . S
C354 C355 1.369 . S
C354 C358 1.531 . S
C355 C354 1.369 . S
C355 C356 1.410 . S
C355 C363 1.503 . S
C356 C355 1.410 . S
C356 C357 1.392 . S
C356 C359 1.511 . S
C357 C353 1.376 . S
C357 C356 1.392 . S
C357 H369 0.929 . S
C358 C354 1.531 . S
C358 H370 0.960 . S
C358 H371 0.962 . S
C358 H372 0.960 . S
C359 C356 1.511 . S
C359 H373 0.961 . S
C359 H374 0.961 . S
C359 H375 0.961 . S
C360 C361 1.370 . S
C360 C362 1.363 . S
C360 H376 0.931 . S
C361 C360 1.370 . S
C361 C365 1.408 . S
C362 C360 1.363 . S
C362 C363 1.370 . S
C362 C366 1.524 . S
C363 C355 1.503 . S
C363 C362 1.370 . S
C363 C364 1.403 . S
C364 C363 1.403 . S
C364 C365 1.404 . S
C364 C367 1.539 . S
C365 C361 1.408 . S
C365 C364 1.404 . S
C365 H377 0.930 . S
C366 C362 1.524 . S
C366 H378 0.956 . S
C366 H379 0.961 . S
C366 H380 0.961 . S
C367 C364 1.539 . S
C367 H381 0.958 . S
C367 H382 0.961 . S
C367 H383 0.960 . S
H368 C352 0.931 . S
H369 C357 0.929 . S
H370 C358 0.960 . S
H371 C358 0.962 . S
H372 C358 0.960 . S
H373 C359 0.961 . S
H374 C359 0.961 . S
H375 C359 0.961 . S
H376 C360 0.931 . S
H377 C365 0.930 . S
H378 C366 0.956 . S
H379 C366 0.961 . S
H380 C366 0.961 . S
H381 C367 0.958 . S
H382 C367 0.961 . S
H383 C367 0.960 . S
C384 C385 1.391 . S
C384 C386 1.394 . S
C384 H400 0.931 . S
C385 C384 1.391 . S
C385 C389 1.376 . S
C386 C384 1.394 . S
C386 C387 1.369 . S
C386 C390 1.531 . S
C387 C386 1.369 . S
C387 C388 1.410 . S
C387 C395 1.503 . S
C388 C387 1.410 . S
C388 C389 1.392 . S
C388 C391 1.511 . S
C389 C385 1.376 . S
C389 C388 1.392 . S
C389 H401 0.929 . S
C390 C386 1.531 . S
C390 H402 0.960 . S
C390 H403 0.962 . S
C390 H404 0.960 . S
C391 C388 1.511 . S
C391 H405 0.961 . S
C391 H406 0.961 . S
C391 H407 0.961 . S
C392 C393 1.370 . S
C392 C394 1.363 . S
C392 H408 0.931 . S
C393 C392 1.370 . S
C393 C397 1.408 . S
C394 C392 1.363 . S
C394 C395 1.370 . S
C394 C398 1.524 . S
C395 C387 1.503 . S
C395 C394 1.370 . S
C395 C396 1.403 . S
C396 C395 1.403 . S
C396 C397 1.404 . S
C396 C399 1.539 . S
C397 C393 1.408 . S
C397 C396 1.404 . S
C397 H409 0.930 . S
C398 C394 1.524 . S
C398 H410 0.956 . S
C398 H411 0.961 . S
C398 H412 0.961 . S
C399 C396 1.539 . S
C399 H413 0.958 . S
C399 H414 0.961 . S
C399 H415 0.960 . S
H400 C384 0.931 . S
H401 C389 0.929 . S
H402 C390 0.960 . S
H403 C390 0.962 . S
H404 C390 0.960 . S
H405 C391 0.961 . S
H406 C391 0.961 . S
H407 C391 0.961 . S
H408 C392 0.931 . S
H409 C397 0.930 . S
H410 C398 0.956 . S
H411 C398 0.961 . S
H412 C398 0.961 . S
H413 C399 0.958 . S
H414 C399 0.961 . S
H415 C399 0.960 . S
C416 C417 1.391 . S
C416 C418 1.394 . S
C416 H432 0.931 . S
C417 C416 1.391 . S
C417 C421 1.376 . S
C418 C416 1.394 . S
C418 C419 1.369 . S
C418 C422 1.531 . S
C419 C418 1.369 . S
C419 C420 1.410 . S
C419 C427 1.503 . S
C420 C419 1.410 . S
C420 C421 1.392 . S
C420 C423 1.511 . S
C421 C417 1.376 . S
C421 C420 1.392 . S
C421 H433 0.929 . S
C422 C418 1.531 . S
C422 H434 0.960 . S
C422 H435 0.962 . S
C422 H436 0.960 . S
C423 C420 1.511 . S
C423 H437 0.961 . S
C423 H438 0.961 . S
C423 H439 0.961 . S
C424 C425 1.370 . S
C424 C426 1.363 . S
C424 H440 0.931 . S
C425 C424 1.370 . S
C425 C429 1.408 . S
C426 C424 1.363 . S
C426 C427 1.370 . S
C426 C430 1.524 . S
C427 C419 1.503 . S
C427 C426 1.370 . S
C427 C428 1.403 . S
C428 C427 1.403 . S
C428 C429 1.404 . S
C428 C431 1.539 . S
C429 C425 1.408 . S
C429 C428 1.404 . S
C429 H441 0.930 . S
C430 C426 1.524 . S
C430 H442 0.956 . S
C430 H443 0.961 . S
C430 H444 0.961 . S
C431 C428 1.539 . S
C431 H445 0.958 . S
C431 H446 0.961 . S
C431 H447 0.960 . S
H432 C416 0.931 . S
H433 C421 0.929 . S
H434 C422 0.960 . S
H435 C422 0.962 . S
H436 C422 0.960 . S
H437 C423 0.961 . S
H438 C423 0.961 . S
H439 C423 0.961 . S
H440 C424 0.931 . S
H441 C429 0.930 . S
H442 C430 0.956 . S
H443 C430 0.961 . S
H444 C430 0.961 . S
H445 C431 0.958 . S
H446 C431 0.961 . S
H447 C431 0.960 . S
C448 C449 1.391 . S
C448 C450 1.394 . S
C448 H464 0.931 . S
C449 C448 1.391 . S
C449 C453 1.376 . S
C450 C448 1.394 . S
C450 C451 1.369 . S
C450 C454 1.531 . S
C451 C450 1.369 . S
C451 C452 1.410 . S
C451 C459 1.503 . S
C452 C451 1.410 . S
C452 C453 1.392 . S
C452 C455 1.511 . S
C453 C449 1.376 . S
C453 C452 1.392 . S
C453 H465 0.929 . S
C454 C450 1.531 . S
C454 H466 0.960 . S
C454 H467 0.962 . S
C454 H468 0.960 . S
C455 C452 1.511 . S
C455 H469 0.961 . S
C455 H470 0.961 . S
C455 H471 0.961 . S
C456 C457 1.370 . S
C456 C458 1.363 . S
C456 H472 0.931 . S
C457 C456 1.370 . S
C457 C461 1.408 . S
C458 C456 1.363 . S
C458 C459 1.370 . S
C458 C462 1.524 . S
C459 C451 1.503 . S
C459 C458 1.370 . S
C459 C460 1.403 . S
C460 C459 1.403 . S
C460 C461 1.404 . S
C460 C463 1.539 . S
C461 C457 1.408 . S
C461 C460 1.404 . S
C461 H473 0.930 . S
C462 C458 1.524 . S
C462 H474 0.956 . S
C462 H475 0.961 . S
C462 H476 0.961 . S
C463 C460 1.539 . S
C463 H477 0.958 . S
C463 H478 0.961 . S
C463 H479 0.960 . S
H464 C448 0.931 . S
H465 C453 0.929 . S
H466 C454 0.960 . S
H467 C454 0.962 . S
H468 C454 0.960 . S
H469 C455 0.961 . S
H470 C455 0.961 . S
H471 C455 0.961 . S
H472 C456 0.931 . S
H473 C461 0.930 . S
H474 C462 0.956 . S
H475 C462 0.961 . S
H476 C462 0.961 . S
H477 C463 0.958 . S
H478 C463 0.961 . S
H479 C463 0.960 . S
C480 C481 1.391 . S
C480 C482 1.394 . S
C480 H496 0.931 . S
C481 C480 1.391 . S
C481 C485 1.376 . S
C482 C480 1.394 . S
C482 C483 1.369 . S
C482 C486 1.531 . S
C483 C482 1.369 . S
C483 C484 1.410 . S
C483 C491 1.503 . S
C484 C483 1.410 . S
C484 C485 1.392 . S
C484 C487 1.511 . S
C485 C481 1.376 . S
C485 C484 1.392 . S
C485 H497 0.929 . S
C486 C482 1.531 . S
C486 H498 0.960 . S
C486 H499 0.962 . S
C486 H500 0.960 . S
C487 C484 1.511 . S
C487 H501 0.961 . S
C487 H502 0.961 . S
C487 H503 0.961 . S
C488 C489 1.370 . S
C488 C490 1.363 . S
C488 H504 0.931 . S
C489 C488 1.370 . S
C489 C493 1.408 . S
C490 C488 1.363 . S
C490 C491 1.370 . S
C490 C494 1.524 . S
C491 C483 1.503 . S
C491 C490 1.370 . S
C491 C492 1.403 . S
C492 C491 1.403 . S
C492 C493 1.404 . S
C492 C495 1.539 . S
C493 C489 1.408 . S
C493 C492 1.404 . S
C493 H505 0.930 . S
C494 C490 1.524 . S
C494 H506 0.956 . S
C494 H507 0.961 . S
C494 H508 0.961 . S
C495 C492 1.539 . S
C495 H509 0.958 . S
C495 H510 0.961 . S
C495 H511 0.960 . S
H496 C480 0.931 . S
H497 C485 0.929 . S
H498 C486 0.960 . S
H499 C486 0.962 . S
H500 C486 0.960 . S
H501 C487 0.961 . S
H502 C487 0.961 . S
H503 C487 0.961 . S
H504 C488 0.931 . S
H505 C493 0.930 . S
H506 C494 0.956 . S
H507 C494 0.961 . S
H508 C494 0.961 . S
H509 C495 0.958 . S
H510 C495 0.961 . S
H511 C495 0.960 . S
C512 C513 1.391 . S
C512 C514 1.394 . S
C512 H528 0.931 . S
C513 C512 1.391 . S
C513 C517 1.376 . S
C514 C512 1.394 . S
C514 C515 1.369 . S
C514 C518 1.531 . S
C515 C514 1.369 . S
C515 C516 1.410 . S
C515 C523 1.503 . S
C516 C515 1.410 . S
C516 C517 1.392 . S
C516 C519 1.511 . S
C517 C513 1.376 . S
C517 C516 1.392 . S
C517 H529 0.929 . S
C518 C514 1.531 . S
C518 H530 0.960 . S
C518 H531 0.962 . S
C518 H532 0.960 . S
C519 C516 1.511 . S
C519 H533 0.961 . S
C519 H534 0.961 . S
C519 H535 0.961 . S
C520 C521 1.370 . S
C520 C522 1.363 . S
C520 H536 0.931 . S
C521 C520 1.370 . S
C521 C525 1.408 . S
C522 C520 1.363 . S
C522 C523 1.370 . S
C522 C526 1.524 . S
C523 C515 1.503 . S
C523 C522 1.370 . S
C523 C524 1.403 . S
C524 C523 1.403 . S
C524 C525 1.404 . S
C524 C527 1.539 . S
C525 C521 1.408 . S
C525 C524 1.404 . S
C525 H537 0.930 . S
C526 C522 1.524 . S
C526 H538 0.956 . S
C526 H539 0.961 . S
C526 H540 0.961 . S
C527 C524 1.539 . S
C527 H541 0.958 . S
C527 H542 0.961 . S
C527 H543 0.960 . S
H528 C512 0.931 . S
H529 C517 0.929 . S
H530 C518 0.960 . S
H531 C518 0.962 . S
H532 C518 0.960 . S
H533 C519 0.961 . S
H534 C519 0.961 . S
H535 C519 0.961 . S
H536 C520 0.931 . S
H537 C525 0.930 . S
H538 C526 0.956 . S
H539 C526 0.961 . S
H540 C526 0.961 . S
H541 C527 0.958 . S
H542 C527 0.961 . S
H543 C527 0.960 . S
C544 C545 1.391 . S
C544 C546 1.394 . S
C544 H560 0.931 . S
C545 C544 1.391 . S
C545 C549 1.376 . S
C546 C544 1.394 . S
C546 C547 1.369 . S
C546 C550 1.531 . S
C547 C546 1.369 . S
C547 C548 1.410 . S
C547 C555 1.503 . S
C548 C547 1.410 . S
C548 C549 1.392 . S
C548 C551 1.511 . S
C549 C545 1.376 . S
C549 C548 1.392 . S
C549 H561 0.929 . S
C550 C546 1.531 . S
C550 H562 0.960 . S
C550 H563 0.962 . S
C550 H564 0.960 . S
C551 C548 1.511 . S
C551 H565 0.961 . S
C551 H566 0.961 . S
C551 H567 0.961 . S
C552 C553 1.370 . S
C552 C554 1.363 . S
C552 H568 0.931 . S
C553 C552 1.370 . S
C553 C557 1.408 . S
C554 C552 1.363 . S
C554 C555 1.370 . S
C554 C558 1.524 . S
C555 C547 1.503 . S
C555 C554 1.370 . S
C555 C556 1.403 . S
C556 C555 1.403 . S
C556 C557 1.404 . S
C556 C559 1.539 . S
C557 C553 1.408 . S
C557 C556 1.404 . S
C557 H569 0.930 . S
C558 C554 1.524 . S
C558 H570 0.956 . S
C558 H571 0.961 . S
C558 H572 0.961 . S
C559 C556 1.539 . S
C559 H573 0.958 . S
C559 H574 0.961 . S
C559 H575 0.960 . S
H560 C544 0.931 . S
H561 C549 0.929 . S
H562 C550 0.960 . S
H563 C550 0.962 . S
H564 C550 0.960 . S
H565 C551 0.961 . S
H566 C551 0.961 . S
H567 C551 0.961 . S
H568 C552 0.931 . S
H569 C557 0.930 . S
H570 C558 0.956 . S
H571 C558 0.961 . S
H572 C558 0.961 . S
H573 C559 0.958 . S
H574 C559 0.961 . S
H575 C559 0.960 . S
C576 C577 1.391 . S
C576 C578 1.394 . S
C576 H592 0.931 . S
C577 C576 1.391 . S
C577 C581 1.376 . S
C578 C576 1.394 . S
C578 C579 1.369 . S
C578 C582 1.531 . S
C579 C578 1.369 . S
C579 C580 1.410 . S
C579 C587 1.503 1_554 S
C580 C579 1.410 . S
C580 C581 1.392 . S
C580 C583 1.511 . S
C581 C577 1.376 . S
C581 C580 1.392 . S
C581 H593 0.929 . S
C582 C578 1.531 . S
C582 H594 0.960 . S
C582 H595 0.962 . S
C582 H596 0.960 . S
C583 C580 1.511 . S
C583 H597 0.961 . S
C583 H598 0.961 1_554 S
C583 H599 0.961 . S
C584 C585 1.370 . S
C584 C586 1.363 . S
C584 H600 0.931 . S
C585 C584 1.370 . S
C585 C589 1.408 . S
C586 C584 1.363 . S
C586 C587 1.370 . S
C586 C590 1.524 . S
C587 C579 1.503 1_556 S
C587 C586 1.370 . S
C587 C588 1.403 . S
C588 C587 1.403 . S
C588 C589 1.404 . S
C588 C591 1.539 . S
C589 C585 1.408 . S
C589 C588 1.404 . S
C589 H601 0.930 . S
C590 C586 1.524 . S
C590 H602 1.003 . S
C590 H603 0.961 . S
C590 H604 0.961 . S
C591 C588 1.539 . S
C591 H605 0.958 . S
C591 H606 0.961 . S
C591 H607 0.914 1_556 S
H592 C576 0.931 . S
H593 C581 0.929 . S
H594 C582 0.960 . S
H595 C582 0.962 . S
H596 C582 0.960 . S
H597 C583 0.961 . S
H598 C583 0.961 1_556 S
H599 C583 0.961 . S
H600 C584 0.931 . S
H601 C589 0.930 . S
H602 C590 1.003 . S
H603 C590 0.961 . S
H604 C590 0.961 . S
H605 C591 0.958 . S
H606 C591 0.961 . S
H607 C591 0.914 1_554 S
C608 C609 1.391 . S
C608 C610 1.394 . S
C608 H624 0.931 . S
C609 C608 1.391 . S
C609 C613 1.376 . S
C610 C608 1.394 . S
C610 C611 1.369 . S
C610 C614 1.531 . S
C611 C610 1.369 . S
C611 C612 1.410 . S
C611 C619 1.503 1_554 S
C612 C611 1.410 . S
C612 C613 1.392 . S
C612 C615 1.511 . S
C613 C609 1.376 . S
C613 C612 1.392 . S
C613 H625 0.929 . S
C614 C610 1.531 . S
C614 H626 0.960 1_554 S
C614 H627 0.962 . S
C614 H628 0.960 . S
C615 C612 1.511 . S
C615 H629 0.961 . S
C615 H630 1.038 . S
C615 H631 0.961 . S
C616 C617 1.370 . S
C616 C618 1.363 . S
C616 H632 0.931 . S
C617 C616 1.370 . S
C617 C621 1.408 . S
C618 C616 1.363 . S
C618 C619 1.370 . S
C618 C622 1.524 . S
C619 C611 1.503 1_556 S
C619 C618 1.370 . S
C619 C620 1.403 . S
C620 C619 1.403 . S
C620 C621 1.404 . S
C620 C623 1.539 . S
C621 C617 1.408 . S
C621 C620 1.404 . S
C621 H633 0.930 . S
C622 C618 1.524 . S
C622 H634 0.940 1_556 S
C622 H635 0.961 1_556 S
C622 H636 0.961 . S
C623 C620 1.539 . S
C623 H637 0.958 . S
C623 H638 0.961 . S
C623 H639 0.960 . S
H624 C608 0.931 . S
H625 C613 0.929 . S
H626 C614 0.960 1_556 S
H627 C614 0.962 . S
H628 C614 0.960 . S
H629 C615 0.961 . S
H630 C615 1.038 . S
H631 C615 0.961 . S
H632 C616 0.931 . S
H633 C621 0.930 . S
H634 C622 0.940 1_554 S
H635 C622 0.961 1_554 S
H636 C622 0.961 . S
H637 C623 0.958 . S
H638 C623 0.961 . S
H639 C623 0.960 . S
C640 C641 1.391 . S
C640 C642 1.394 . S
C640 H656 0.931 . S
C641 C640 1.391 . S
C641 C645 1.376 . S
C642 C640 1.394 . S
C642 C643 1.369 . S
C642 C646 1.531 . S
C643 C642 1.369 . S
C643 C644 1.410 . S
C643 C651 1.503 . S
C644 C643 1.410 . S
C644 C645 1.392 . S
C644 C647 1.511 . S
C645 C641 1.376 . S
C645 C644 1.392 . S
C645 H657 0.929 . S
C646 C642 1.531 . S
C646 H658 0.960 . S
C646 H659 0.962 . S
C646 H660 0.960 . S
C647 C644 1.511 . S
C647 H661 0.961 . S
C647 H662 0.961 . S
C647 H663 0.961 . S
C648 C649 1.370 . S
C648 C650 1.363 . S
C648 H664 0.931 . S
C649 C648 1.370 . S
C649 C653 1.408 . S
C650 C648 1.363 . S
C650 C651 1.370 . S
C650 C654 1.524 . S
C651 C643 1.503 . S
C651 C650 1.370 . S
C651 C652 1.403 . S
C652 C651 1.403 . S
C652 C653 1.404 . S
C652 C655 1.539 . S
C653 C649 1.408 . S
C653 C652 1.404 . S
C653 H665 0.930 . S
C654 C650 1.524 . S
C654 H666 0.956 . S
C654 H667 0.961 . S
C654 H668 0.961 . S
C655 C652 1.539 . S
C655 H669 0.958 . S
C655 H670 0.961 . S
C655 H671 0.960 . S
H656 C640 0.931 . S
H657 C645 0.929 . S
H658 C646 0.960 . S
H659 C646 0.962 . S
H660 C646 0.960 . S
H661 C647 0.961 . S
H662 C647 0.961 . S
H663 C647 0.961 . S
H664 C648 0.931 . S
H665 C653 0.930 . S
H666 C654 0.956 . S
H667 C654 0.961 . S
H668 C654 0.961 . S
H669 C655 0.958 . S
H670 C655 0.961 . S
H671 C655 0.960 . S
C672 C673 1.391 . S
C672 C674 1.394 . S
C672 H688 0.931 . S
C673 C672 1.391 . S
C673 C677 1.376 . S
C674 C672 1.394 . S
C674 C675 1.369 . S
C674 C678 1.531 . S
C675 C674 1.369 . S
C675 C676 1.410 . S
C675 C683 1.503 . S
C676 C675 1.410 . S
C676 C677 1.392 . S
C676 C679 1.511 . S
C677 C673 1.376 . S
C677 C676 1.392 . S
C677 H689 0.929 . S
C678 C674 1.531 . S
C678 H690 0.960 . S
C678 H691 0.962 . S
C678 H692 0.960 . S
C679 C676 1.511 . S
C679 H693 0.961 . S
C679 H694 0.961 . S
C679 H695 0.961 . S
C680 C681 1.370 . S
C680 C682 1.363 . S
C680 H696 0.931 . S
C681 C680 1.370 . S
C681 C685 1.408 . S
C682 C680 1.363 . S
C682 C683 1.370 . S
C682 C686 1.524 . S
C683 C675 1.503 . S
C683 C682 1.370 . S
C683 C684 1.403 . S
C684 C683 1.403 . S
C684 C685 1.404 . S
C684 C687 1.539 . S
C685 C681 1.408 . S
C685 C684 1.404 . S
C685 H697 0.930 . S
C686 C682 1.524 . S
C686 H698 0.956 . S
C686 H699 0.961 . S
C686 H700 0.961 . S
C687 C684 1.539 . S
C687 H701 0.958 . S
C687 H702 0.961 . S
C687 H703 0.960 . S
H688 C672 0.931 . S
H689 C677 0.929 . S
H690 C678 0.960 . S
H691 C678 0.962 . S
H692 C678 0.960 . S
H693 C679 0.961 . S
H694 C679 0.961 . S
H695 C679 0.961 . S
H696 C680 0.931 . S
H697 C685 0.930 . S
H698 C686 0.956 . S
H699 C686 0.961 . S
H700 C686 0.961 . S
H701 C687 0.958 . S
H702 C687 0.961 . S
H703 C687 0.960 . S
C704 C705 1.391 . S
C704 C706 1.394 . S
C704 H720 0.931 . S
C705 C704 1.391 . S
C705 C709 1.376 . S
C706 C704 1.394 . S
C706 C707 1.369 . S
C706 C710 1.531 . S
C707 C706 1.369 . S
C707 C708 1.410 . S
C707 C715 1.503 . S
C708 C707 1.410 . S
C708 C709 1.392 . S
C708 C711 1.511 . S
C709 C705 1.376 . S
C709 C708 1.392 . S
C709 H721 0.929 . S
C710 C706 1.531 . S
C710 H722 0.960 . S
C710 H723 0.962 . S
C710 H724 0.960 . S
C711 C708 1.511 . S
C711 H725 0.961 . S
C711 H726 0.961 . S
C711 H727 0.961 . S
C712 C713 1.370 . S
C712 C714 1.363 . S
C712 H728 0.931 . S
C713 C712 1.370 . S
C713 C717 1.408 . S
C714 C712 1.363 . S
C714 C715 1.370 . S
C714 C718 1.524 . S
C715 C707 1.503 . S
C715 C714 1.370 . S
C715 C716 1.403 . S
C716 C715 1.403 . S
C716 C717 1.404 . S
C716 C719 1.539 . S
C717 C713 1.408 . S
C717 C716 1.404 . S
C717 H729 0.930 . S
C718 C714 1.524 . S
C718 H730 0.956 . S
C718 H731 0.961 . S
C718 H732 0.961 . S
C719 C716 1.539 . S
C719 H733 0.958 . S
C719 H734 0.961 . S
C719 H735 0.960 . S
H720 C704 0.931 . S
H721 C709 0.929 . S
H722 C710 0.960 . S
H723 C710 0.962 . S
H724 C710 0.960 . S
H725 C711 0.961 . S
H726 C711 0.961 . S
H727 C711 0.961 . S
H728 C712 0.931 . S
H729 C717 0.930 . S
H730 C718 0.956 . S
H731 C718 0.961 . S
H732 C718 0.961 . S
H733 C719 0.958 . S
H734 C719 0.961 . S
H735 C719 0.960 . S
C736 C737 1.391 1_565 S
C736 C738 1.394 . S
C736 H752 0.931 . S
C737 C736 1.391 1_545 S
C737 C741 1.376 . S
C738 C736 1.394 . S
C738 C739 1.369 1_565 S
C738 C742 1.531 . S
C739 C738 1.369 1_545 S
C739 C740 1.410 . S
C739 C747 1.503 1_445 S
C740 C739 1.410 . S
C740 C741 1.392 . S
C740 C743 1.511 1_455 S
C741 C737 1.376 . S
C741 C740 1.392 . S
C741 H753 0.929 . S
C742 C738 1.531 . S
C742 H754 0.960 . S
C742 H755 0.962 . S
C742 H756 0.960 . S
C743 C740 1.511 1_655 S
C743 H757 0.961 1_655 S
C743 H758 0.961 . S
C743 H759 0.961 . S
C744 C745 1.370 . S
C744 C746 1.363 . S
C744 H760 0.931 . S
C745 C744 1.370 . S
C745 C749 1.408 . S
C746 C744 1.363 . S
C746 C747 1.370 . S
C746 C750 1.524 . S
C747 C739 1.503 1_665 S
C747 C746 1.370 . S
C747 C748 1.403 . S
C748 C747 1.403 . S
C748 C749 1.404 . S
C748 C751 1.539 1_565 S
C749 C745 1.408 . S
C749 C748 1.404 . S
C749 H761 0.930 . S
C750 C746 1.524 . S
C750 H762 0.956 1_655 S
C750 H763 0.961 1_665 S
C750 H764 0.961 . S
C751 C748 1.539 1_545 S
C751 H765 0.958 1_545 S
C751 H766 0.961 . S
C751 H767 0.960 . S
H752 C736 0.931 . S
H753 C741 0.929 . S
H754 C742 0.960 . S
H755 C742 0.962 . S
H756 C742 0.960 . S
H757 C743 0.961 1_455 S
H758 C743 0.961 . S
H759 C743 0.961 . S
H760 C744 0.931 . S
H761 C749 0.930 . S
H762 C750 0.956 1_455 S
H763 C750 0.961 1_445 S
H764 C750 0.961 . S
H765 C751 0.958 1_565 S
H766 C751 0.961 . S
H767 C751 0.960 . S
C768 C769 1.391 1_655 S
C768 C770 1.394 . S
C768 H784 0.931 . S
C769 C768 1.391 1_455 S
C769 C773 1.376 . S
C770 C768 1.394 . S
C770 C771 1.369 1_655 S
C770 C774 1.531 . S
C771 C770 1.369 1_455 S
C771 C772 1.410 . S
C771 C779 1.503 1_455 S
C772 C771 1.410 . S
C772 C773 1.392 . S
C772 C775 1.511 . S
C773 C769 1.376 . S
C773 C772 1.392 . S
C773 H785 0.929 . S
C774 C770 1.531 . S
C774 H786 0.960 . S
C774 H787 0.962 . S
C774 H788 0.960 . S
C775 C772 1.511 . S
C775 H789 0.961 . S
C775 H790 0.961 . S
C775 H791 0.961 . S
C776 C777 1.370 . S
C776 C778 1.363 . S
C776 H792 0.931 . S
C777 C776 1.370 . S
C777 C781 1.408 . S
C778 C776 1.363 . S
C778 C779 1.370 . S
C778 C782 1.524 . S
C779 C771 1.503 1_655 S
C779 C778 1.370 . S
C779 C780 1.403 . S
C780 C779 1.403 . S
C780 C781 1.404 . S
C780 C783 1.539 1_655 S
C781 C777 1.408 . S
C781 C780 1.404 . S
C781 H793 0.930 . S
C782 C778 1.524 . S
C782 H794 0.956 . S
C782 H795 0.961 1_655 S
C782 H796 0.961 . S
C783 C780 1.539 1_455 S
C783 H797 0.958 1_455 S
C783 H798 0.961 . S
C783 H799 0.960 . S
H784 C768 0.931 . S
H785 C773 0.929 . S
H786 C774 0.960 . S
H787 C774 0.962 . S
H788 C774 0.960 . S
H789 C775 0.961 . S
H790 C775 0.961 . S
H791 C775 0.961 . S
H792 C776 0.931 . S
H793 C781 0.930 . S
H794 C782 0.956 . S
H795 C782 0.961 1_455 S
H796 C782 0.961 . S
H797 C783 0.958 1_655 S
H798 C783 0.961 . S
H799 C783 0.960 . S
C800 C801 1.391 . S
C800 C802 1.394 . S
C800 H816 0.931 . S
C801 C800 1.391 . S
C801 C805 1.376 . S
C802 C800 1.394 . S
C802 C803 1.369 . S
C802 C806 1.531 . S
C803 C802 1.369 . S
C803 C804 1.410 . S
C803 C811 1.503 . S
C804 C803 1.410 . S
C804 C805 1.392 . S
C804 C807 1.511 . S
C805 C801 1.376 . S
C805 C804 1.392 . S
C805 H817 0.929 . S
C806 C802 1.531 . S
C806 H818 0.960 . S
C806 H819 0.962 . S
C806 H820 0.960 . S
C807 C804 1.511 . S
C807 H821 0.961 . S
C807 H822 0.961 . S
C807 H823 0.961 . S
C808 C809 1.370 . S
C808 C810 1.363 . S
C808 H824 0.931 . S
C809 C808 1.370 . S
C809 C813 1.408 . S
C810 C808 1.363 . S
C810 C811 1.370 . S
C810 C814 1.524 . S
C811 C803 1.503 . S
C811 C810 1.370 . S
C811 C812 1.403 . S
C812 C811 1.403 . S
C812 C813 1.404 . S
C812 C815 1.539 . S
C813 C809 1.408 . S
C813 C812 1.404 . S
C813 H825 0.930 . S
C814 C810 1.524 . S
C814 H826 0.956 . S
C814 H827 0.961 . S
C814 H828 0.961 . S
C815 C812 1.539 . S
C815 H829 0.958 . S
C815 H830 0.961 . S
C815 H831 0.960 . S
H816 C800 0.931 . S
H817 C805 0.929 . S
H818 C806 0.960 . S
H819 C806 0.962 . S
H820 C806 0.960 . S
H821 C807 0.961 . S
H822 C807 0.961 . S
H823 C807 0.961 . S
H824 C808 0.931 . S
H825 C813 0.930 . S
H826 C814 0.956 . S
H827 C814 0.961 . S
H828 C814 0.961 . S
H829 C815 0.958 . S
H830 C815 0.961 . S
H831 C815 0.960 . S
C832 C833 1.391 . S
C832 C834 1.394 . S
C832 H848 0.931 . S
C833 C832 1.391 . S
C833 C837 1.376 . S
C834 C832 1.394 . S
C834 C835 1.369 . S
C834 C838 1.531 . S
C835 C834 1.369 . S
C835 C836 1.410 . S
C835 C843 1.503 1_545 S
C836 C835 1.410 . S
C836 C837 1.392 . S
C836 C839 1.511 . S
C837 C833 1.376 . S
C837 C836 1.392 . S
C837 H849 0.929 . S
C838 C834 1.531 . S
C838 H850 0.960 . S
C838 H851 0.962 . S
C838 H852 0.960 . S
C839 C836 1.511 . S
C839 H853 0.961 . S
C839 H854 0.961 1_545 S
C839 H855 0.961 1_545 S
C840 C841 1.370 . S
C840 C842 1.363 . S
C840 H856 0.931 . S
C841 C840 1.370 . S
C841 C845 1.408 . S
C842 C840 1.363 . S
C842 C843 1.370 . S
C842 C846 1.524 1_565 S
C843 C835 1.503 1_565 S
C843 C842 1.370 . S
C843 C844 1.403 . S
C844 C843 1.403 . S
C844 C845 1.404 . S
C844 C847 1.539 . S
C845 C841 1.408 . S
C845 C844 1.404 . S
C845 H857 0.930 . S
C846 C842 1.524 1_545 S
C846 H858 0.956 . S
C846 H859 0.961 . S
C846 H860 0.961 1_545 S
C847 C844 1.539 . S
C847 H861 0.958 . S
C847 H862 0.961 . S
C847 H863 0.960 . S
H848 C832 0.931 . S
H849 C837 0.929 . S
H850 C838 0.960 . S
H851 C838 0.962 . S
H852 C838 0.960 . S
H853 C839 0.961 . S
H854 C839 0.961 1_565 S
H855 C839 0.961 1_565 S
H856 C840 0.931 . S
H857 C845 0.930 . S
H858 C846 0.956 . S
H859 C846 0.961 . S
H860 C846 0.961 1_565 S
H861 C847 0.958 . S
H862 C847 0.961 . S
H863 C847 0.960 . S
C864 C865 1.391 . S
C864 C866 1.394 . S
C864 H880 0.931 . S
C865 C864 1.391 . S
C865 C869 1.376 . S
C866 C864 1.394 . S
C866 C867 1.369 . S
C866 C870 1.531 . S
C867 C866 1.369 . S
C867 C868 1.410 . S
C867 C875 1.503 1_455 S
C868 C867 1.410 . S
C868 C869 1.392 . S
C868 C871 1.511 . S
C869 C865 1.376 . S
C869 C868 1.392 . S
C869 H881 0.929 . S
C870 C866 1.531 . S
C870 H882 0.960 1_455 S
C870 H883 0.962 1_455 S
C870 H884 0.960 . S
C871 C868 1.511 . S
C871 H885 0.961 . S
C871 H886 0.961 . S
C871 H887 0.961 . S
C872 C873 1.370 . S
C872 C874 1.363 . S
C872 H888 0.931 . S
C873 C872 1.370 . S
C873 C877 1.408 . S
C874 C872 1.363 . S
C874 C875 1.370 . S
C874 C878 1.524 . S
C875 C867 1.503 1_655 S
C875 C874 1.370 . S
C875 C876 1.403 . S
C876 C875 1.403 . S
C876 C877 1.404 . S
C876 C879 1.539 . S
C877 C873 1.408 . S
C877 C876 1.404 . S
C877 H889 0.930 . S
C878 C874 1.524 . S
C878 H890 0.956 . S
C878 H891 0.961 . S
C878 H892 0.961 . S
C879 C876 1.539 . S
C879 H893 0.958 . S
C879 H894 0.961 . S
C879 H895 0.960 1_655 S
H880 C864 0.931 . S
H881 C869 0.929 . S
H882 C870 0.960 1_655 S
H883 C870 0.962 1_655 S
H884 C870 0.960 . S
H885 C871 0.961 . S
H886 C871 0.961 . S
H887 C871 0.961 . S
H888 C872 0.931 . S
H889 C877 0.930 . S
H890 C878 0.956 . S
H891 C878 0.961 . S
H892 C878 0.961 . S
H893 C879 0.958 . S
H894 C879 0.961 . S
H895 C879 0.960 1_455 S
C896 C897 1.391 . S
C896 C898 1.394 . S
C896 H912 0.931 . S
C897 C896 1.391 . S
C897 C901 1.376 . S
C898 C896 1.394 . S
C898 C899 1.369 . S
C898 C902 1.531 . S
C899 C898 1.369 . S
C899 C900 1.410 . S
C899 C907 1.503 . S
C900 C899 1.410 . S
C900 C901 1.392 . S
C900 C903 1.511 . S
C901 C897 1.376 . S
C901 C900 1.392 . S
C901 H913 0.929 . S
C902 C898 1.531 . S
C902 H914 0.960 . S
C902 H915 0.962 . S
C902 H916 0.960 . S
C903 C900 1.511 . S
C903 H917 0.961 . S
C903 H918 0.961 . S
C903 H919 0.961 . S
C904 C905 1.370 . S
C904 C906 1.363 . S
C904 H920 0.931 . S
C905 C904 1.370 . S
C905 C909 1.408 . S
C906 C904 1.363 . S
C906 C907 1.370 . S
C906 C910 1.524 . S
C907 C899 1.503 . S
C907 C906 1.370 . S
C907 C908 1.403 . S
C908 C907 1.403 . S
C908 C909 1.404 . S
C908 C911 1.539 . S
C909 C905 1.408 . S
C909 C908 1.404 . S
C909 H921 0.930 . S
C910 C906 1.524 . S
C910 H922 0.956 . S
C910 H923 0.961 . S
C910 H924 0.961 . S
C911 C908 1.539 . S
C911 H925 0.958 . S
C911 H926 0.961 . S
C911 H927 0.960 . S
H912 C896 0.931 . S
H913 C901 0.929 . S
H914 C902 0.960 . S
H915 C902 0.962 . S
H916 C902 0.960 . S
H917 C903 0.961 . S
H918 C903 0.961 . S
H919 C903 0.961 . S
H920 C904 0.931 . S
H921 C909 0.930 . S
H922 C910 0.956 . S
H923 C910 0.961 . S
H924 C910 0.961 . S
H925 C911 0.958 . S
H926 C911 0.961 . S
H927 C911 0.960 . S
C928 C929 1.391 . S
C928 C930 1.394 . S
C928 H944 0.931 . S
C929 C928 1.391 . S
C929 C933 1.374 1_565 S
C930 C928 1.394 . S
C930 C931 1.369 . S
C930 C934 1.531 . S
C931 C930 1.369 . S
C931 C932 1.410 1_565 S
C931 C939 1.503 1_565 S
C932 C931 1.410 1_545 S
C932 C933 1.393 . S
C932 C935 1.511 . S
C933 C929 1.374 1_545 S
C933 C932 1.393 . S
C933 H945 0.930 . S
C934 C930 1.531 . S
C934 H946 0.960 . S
C934 H947 0.962 . S
C934 H948 0.960 . S
C935 C932 1.511 . S
C935 H949 0.961 . S
C935 H950 0.961 . S
C935 H951 0.961 . S
C936 C937 1.370 . S
C936 C938 1.363 1_545 S
C936 H952 0.931 1_545 S
C937 C936 1.370 . S
C937 C941 1.408 . S
C938 C936 1.363 1_565 S
C938 C939 1.370 1_565 S
C938 C942 1.524 . S
C939 C931 1.503 1_545 S
C939 C938 1.370 1_545 S
C939 C940 1.403 . S
C940 C939 1.403 . S
C940 C941 1.404 . S
C940 C943 1.539 . S
C941 C937 1.408 . S
C941 C940 1.404 . S
C941 H953 0.930 . S
C942 C938 1.524 . S
C942 H954 0.956 . S
C942 H955 0.961 . S
C942 H956 0.961 . S
C943 C940 1.539 . S
C943 H957 0.958 . S
C943 H958 0.961 . S
C943 H959 0.960 . S
H944 C928 0.931 . S
H945 C933 0.930 . S
H946 C934 0.960 . S
H947 C934 0.962 . S
H948 C934 0.960 . S
H949 C935 0.961 . S
H950 C935 0.961 . S
H951 C935 0.961 . S
H952 C936 0.931 1_565 S
H953 C941 0.930 . S
H954 C942 0.956 . S
H955 C942 0.961 . S
H956 C942 0.961 . S
H957 C943 0.958 . S
H958 C943 0.961 . S
H959 C943 0.960 . S
C960 C961 1.391 1_655 S
C960 C962 1.394 . S
C960 H976 0.931 . S
C961 C960 1.391 1_455 S
C961 C965 1.376 . S
C962 C960 1.394 . S
C962 C963 1.369 1_655 S
C962 C966 1.531 . S
C963 C962 1.369 1_455 S
C963 C964 1.410 . S
C963 C971 1.503 1_445 S
C964 C963 1.410 . S
C964 C965 1.392 . S
C964 C967 1.511 1_545 S
C965 C961 1.376 . S
C965 C964 1.392 . S
C965 H977 0.929 . S
C966 C962 1.531 . S
C966 H978 0.960 . S
C966 H979 0.962 . S
C966 H980 0.960 . S
C967 C964 1.511 1_565 S
C967 H981 0.961 1_565 S
C967 H982 0.961 . S
C967 H983 0.961 . S
C968 C969 1.370 . S
C968 C970 1.363 . S
C968 H984 0.931 . S
C969 C968 1.370 . S
C969 C973 1.408 . S
C970 C968 1.363 . S
C970 C971 1.370 . S
C970 C974 1.524 . S
C971 C963 1.503 1_665 S
C971 C970 1.370 . S
C971 C972 1.403 . S
C972 C971 1.403 . S
C972 C973 1.404 . S
C972 C975 1.539 1_655 S
C973 C969 1.408 . S
C973 C972 1.404 . S
C973 H985 0.930 . S
C974 C970 1.524 . S
C974 H986 0.956 1_565 S
C974 H987 0.961 1_565 S
C974 H988 0.961 . S
C975 C972 1.539 1_455 S
C975 H989 0.969 . S
C975 H990 0.961 . S
C975 H991 0.960 . S
H976 C960 0.931 . S
H977 C965 0.929 . S
H978 C966 0.960 . S
H979 C966 0.962 . S
H980 C966 0.960 . S
H981 C967 0.961 1_545 S
H982 C967 0.961 . S
H983 C967 0.961 . S
H984 C968 0.931 . S
H985 C973 0.930 . S
H986 C974 0.956 1_545 S
H987 C974 0.961 1_545 S
H988 C974 0.961 . S
H989 C975 0.969 . S
H990 C975 0.961 . S
H991 C975 0.960 . S
C992 C993 1.391 . S
C992 C994 1.394 . S
C992 H1008 0.931 . S
C993 C992 1.391 . S
C993 C997 1.376 . S
C994 C992 1.394 . S
C994 C995 1.369 . S
C994 C998 1.531 . S
C995 C994 1.369 . S
C995 C996 1.410 1_565 S
C995 C1003 1.503 1_565 S
C996 C995 1.410 1_545 S
C996 C997 1.392 1_545 S
C996 C999 1.511 . S
C997 C993 1.376 . S
C997 C996 1.392 1_565 S
C997 H1009 0.929 1_565 S
C998 C994 1.531 . S
C998 H1010 0.960 . S
C998 H1011 0.962 . S
C998 H1012 0.960 . S
C999 C996 1.511 . S
C999 H1013 0.961 . S
C999 H1014 0.961 . S
C999 H1015 0.961 . S
C1000 C1001 1.370 . S
C1000 C1002 1.363 1_545 S
C1000 H1016 0.931 . S
C1001 C1000 1.370 . S
C1001 C1005 1.408 . S
C1002 C1000 1.363 1_565 S
C1002 C1003 1.370 1_565 S
C1002 C1006 1.525 . S
C1003 C995 1.503 1_545 S
C1003 C1002 1.370 1_545 S
C1003 C1004 1.403 . S
C1004 C1003 1.403 . S
C1004 C1005 1.404 . S
C1004 C1007 1.539 . S
C1005 C1001 1.408 . S
C1005 C1004 1.404 . S
C1005 H1017 0.930 . S
C1006 C1002 1.525 . S
C1006 H1018 0.956 . S
C1006 H1019 0.961 . S
C1006 H1020 0.961 . S
C1007 C1004 1.539 . S
C1007 H1021 0.958 . S
C1007 H1022 0.961 . S
C1007 H1023 0.960 . S
H1008 C992 0.931 . S
H1009 C997 0.929 1_545 S
H1010 C998 0.960 . S
H1011 C998 0.962 . S
H1012 C998 0.960 . S
H1013 C999 0.961 . S
H1014 C999 0.961 . S
H1015 C999 0.961 . S
H1016 C1000 0.931 . S
H1017 C1005 0.930 . S
H1018 C1006 0.956 . S
H1019 C1006 0.961 . S
H1020 C1006 0.961 . S
H1021 C1007 0.958 . S
H1022 C1007 0.961 . S
H1023 C1007 0.960 . S
C1024 C1025 1.392 1_455 S
C1024 C1026 1.393 . S
C1024 H1040 0.930 . S
C1025 C1024 1.392 1_655 S
C1025 C1029 1.376 . S
C1026 C1024 1.393 . S
C1026 C1027 1.369 1_455 S
C1026 C1030 1.531 . S
C1027 C1026 1.369 1_655 S
C1027 C1028 1.410 . S
C1027 C1035 1.503 1_665 S
C1028 C1027 1.410 . S
C1028 C1029 1.392 . S
C1028 C1031 1.511 1_565 S
C1029 C1025 1.376 . S
C1029 C1028 1.392 . S
C1029 H1041 0.929 . S
C1030 C1026 1.531 . S
C1030 H1042 0.960 . S
C1030 H1043 0.962 . S
C1030 H1044 0.960 . S
C1031 C1028 1.511 1_545 S
C1031 H1045 0.961 . S
C1031 H1046 0.961 . S
C1031 H1047 0.961 . S
C1032 C1033 1.370 . S
C1032 C1034 1.363 . S
C1032 H1048 0.931 . S
C1033 C1032 1.370 . S
C1033 C1037 1.408 . S
C1034 C1032 1.363 . S
C1034 C1035 1.370 . S
C1034 C1038 1.524 . S
C1035 C1027 1.503 1_445 S
C1035 C1034 1.370 . S
C1035 C1036 1.403 . S
C1036 C1035 1.403 . S
C1036 C1037 1.404 . S
C1036 C1039 1.539 1_455 S
C1037 C1033 1.408 . S
C1037 C1036 1.404 . S
C1037 H1049 0.930 . S
C1038 C1034 1.524 . S
C1038 H1050 0.956 1_545 S
C1038 H1051 0.961 1_455 S
C1038 H1052 0.961 . S
C1039 C1036 1.539 1_655 S
C1039 H1053 0.958 1_655 S
C1039 H1054 0.961 . S
C1039 H1055 0.960 . S
H1040 C1024 0.930 . S
H1041 C1029 0.929 . S
H1042 C1030 0.960 . S
H1043 C1030 0.962 . S
H1044 C1030 0.960 . S
H1045 C1031 0.961 . S
H1046 C1031 0.961 . S
H1047 C1031 0.961 . S
H1048 C1032 0.931 . S
H1049 C1037 0.930 . S
H1050 C1038 0.956 1_565 S
H1051 C1038 0.961 1_655 S
H1052 C1038 0.961 . S
H1053 C1039 0.958 1_455 S
H1054 C1039 0.961 . S
H1055 C1039 0.960 . S
C1056 C1057 1.391 . S
C1056 C1058 1.394 . S
C1056 H1072 0.931 . S
C1057 C1056 1.391 . S
C1057 C1061 1.376 . S
C1058 C1056 1.394 . S
C1058 C1059 1.369 . S
C1058 C1062 1.531 . S
C1059 C1058 1.369 . S
C1059 C1060 1.410 . S
C1059 C1067 1.503 1_455 S
C1060 C1059 1.410 . S
C1060 C1061 1.392 . S
C1060 C1063 1.511 1_455 S
C1061 C1057 1.376 . S
C1061 C1060 1.392 . S
C1061 H1073 0.929 . S
C1062 C1058 1.531 . S
C1062 H1074 0.960 . S
C1062 H1075 0.962 . S
C1062 H1076 0.960 . S
C1063 C1060 1.511 1_655 S
C1063 H1077 0.961 1_655 S
C1063 H1078 0.961 . S
C1063 H1079 0.961 . S
C1064 C1065 1.370 . S
C1064 C1066 1.363 . S
C1064 H1080 0.931 . S
C1065 C1064 1.370 . S
C1065 C1069 1.408 . S
C1066 C1064 1.363 . S
C1066 C1067 1.370 . S
C1066 C1070 1.524 1_655 S
C1067 C1059 1.503 1_655 S
C1067 C1066 1.370 . S
C1067 C1068 1.403 . S
C1068 C1067 1.403 . S
C1068 C1069 1.404 . S
C1068 C1071 1.539 . S
C1069 C1065 1.408 . S
C1069 C1068 1.404 . S
C1069 H1081 0.930 . S
C1070 C1066 1.524 1_455 S
C1070 H1082 0.956 . S
C1070 H1083 0.961 . S
C1070 H1084 0.961 1_455 S
C1071 C1068 1.539 . S
C1071 H1085 0.958 . S
C1071 H1086 0.961 . S
C1071 H1087 0.960 . S
H1072 C1056 0.931 . S
H1073 C1061 0.929 . S
H1074 C1062 0.960 . S
H1075 C1062 0.962 . S
H1076 C1062 0.960 . S
H1077 C1063 0.961 1_455 S
H1078 C1063 0.961 . S
H1079 C1063 0.961 . S
H1080 C1064 0.931 . S
H1081 C1069 0.930 . S
H1082 C1070 0.956 . S
H1083 C1070 0.961 . S
H1084 C1070 0.961 1_655 S
H1085 C1071 0.958 . S
H1086 C1071 0.961 . S
H1087 C1071 0.960 . S
C1088 C1089 1.391 . S
C1088 C1090 1.394 . S
C1088 H1104 0.931 . S
C1089 C1088 1.391 . S
C1089 C1093 1.376 . S
C1090 C1088 1.394 . S
C1090 C1091 1.369 . S
C1090 C1094 1.531 . S
C1091 C1090 1.369 . S
C1091 C1092 1.410 . S
C1091 C1099 1.503 . S
C1092 C1091 1.410 . S
C1092 C1093 1.392 . S
C1092 C1095 1.511 . S
C1093 C1089 1.376 . S
C1093 C1092 1.392 . S
C1093 H1105 0.929 . S
C1094 C1090 1.531 . S
C1094 H1106 0.960 . S
C1094 H1107 0.962 . S
C1094 H1108 0.960 . S
C1095 C1092 1.511 . S
C1095 H1109 0.961 . S
C1095 H1110 0.961 . S
C1095 H1111 0.961 . S
C1096 C1097 1.370 . S
C1096 C1098 1.363 . S
C1096 H1112 0.931 . S
C1097 C1096 1.370 . S
C1097 C1101 1.408 . S
C1098 C1096 1.363 . S
C1098 C1099 1.370 . S
C1098 C1102 1.524 . S
C1099 C1091 1.503 . S
C1099 C1098 1.370 . S
C1099 C1100 1.403 . S
C1100 C1099 1.403 . S
C1100 C1101 1.404 . S
C1100 C1103 1.539 . S
C1101 C1097 1.408 . S
C1101 C1100 1.404 . S
C1101 H1113 0.930 . S
C1102 C1098 1.524 . S
C1102 H1114 0.956 . S
C1102 H1115 0.961 . S
C1102 H1116 0.961 . S
C1103 C1100 1.539 . S
C1103 H1117 0.958 . S
C1103 H1118 0.961 . S
C1103 H1119 0.960 . S
H1104 C1088 0.931 . S
H1105 C1093 0.929 . S
H1106 C1094 0.960 . S
H1107 C1094 0.962 . S
H1108 C1094 0.960 . S
H1109 C1095 0.961 . S
H1110 C1095 0.961 . S
H1111 C1095 0.961 . S
H1112 C1096 0.931 . S
H1113 C1101 0.930 . S
H1114 C1102 0.956 . S
H1115 C1102 0.961 . S
H1116 C1102 0.961 . S
H1117 C1103 0.958 . S
H1118 C1103 0.961 . S
H1119 C1103 0.960 . S
C1120 C1121 1.391 . S
C1120 C1122 1.394 . S
C1120 H1136 0.931 . S
C1121 C1120 1.391 . S
C1121 C1125 1.376 . S
C1122 C1120 1.394 . S
C1122 C1123 1.369 . S
C1122 C1126 1.531 . S
C1123 C1122 1.369 . S
C1123 C1124 1.410 . S
C1123 C1131 1.503 . S
C1124 C1123 1.410 . S
C1124 C1125 1.392 . S
C1124 C1127 1.511 . S
C1125 C1121 1.376 . S
C1125 C1124 1.392 . S
C1125 H1137 0.929 . S
C1126 C1122 1.531 . S
C1126 H1138 0.960 . S
C1126 H1139 0.962 . S
C1126 H1140 0.960 . S
C1127 C1124 1.511 . S
C1127 H1141 0.961 . S
C1127 H1142 0.961 . S
C1127 H1143 0.961 . S
C1128 C1129 1.370 . S
C1128 C1130 1.363 . S
C1128 H1144 0.931 . S
C1129 C1128 1.370 . S
C1129 C1133 1.408 . S
C1130 C1128 1.363 . S
C1130 C1131 1.370 . S
C1130 C1134 1.524 . S
C1131 C1123 1.503 . S
C1131 C1130 1.370 . S
C1131 C1132 1.403 . S
C1132 C1131 1.403 . S
C1132 C1133 1.404 . S
C1132 C1135 1.539 . S
C1133 C1129 1.408 . S
C1133 C1132 1.404 . S
C1133 H1145 0.930 . S
C1134 C1130 1.524 . S
C1134 H1146 0.956 . S
C1134 H1147 0.961 . S
C1134 H1148 0.961 . S
C1135 C1132 1.539 . S
C1135 H1149 0.958 . S
C1135 H1150 0.961 . S
C1135 H1151 0.960 . S
H1136 C1120 0.931 . S
H1137 C1125 0.929 . S
H1138 C1126 0.960 . S
H1139 C1126 0.962 . S
H1140 C1126 0.960 . S
H1141 C1127 0.961 . S
H1142 C1127 0.961 . S
H1143 C1127 0.961 . S
H1144 C1128 0.931 . S
H1145 C1133 0.930 . S
H1146 C1134 0.956 . S
H1147 C1134 0.961 . S
H1148 C1134 0.961 . S
H1149 C1135 0.958 . S
H1150 C1135 0.961 . S
H1151 C1135 0.960 . S
C1152 C1153 1.391 . S
C1152 C1154 1.394 . S
C1152 H1168 0.931 . S
C1153 C1152 1.391 . S
C1153 C1157 1.376 . S
C1154 C1152 1.394 . S
C1154 C1155 1.369 . S
C1154 C1158 1.531 . S
C1155 C1154 1.369 . S
C1155 C1156 1.410 . S
C1155 C1163 1.503 1_545 S
C1156 C1155 1.410 . S
C1156 C1157 1.392 . S
C1156 C1159 1.511 . S
C1157 C1153 1.376 . S
C1157 C1156 1.392 . S
C1157 H1169 0.929 . S
C1158 C1154 1.531 . S
C1158 H1170 0.960 1_545 S
C1158 H1171 0.962 1_545 S
C1158 H1172 0.960 . S
C1159 C1156 1.511 . S
C1159 H1173 0.961 . S
C1159 H1174 0.961 . S
C1159 H1175 0.961 . S
C1160 C1161 1.370 . S
C1160 C1162 1.363 . S
C1160 H1176 0.931 . S
C1161 C1160 1.370 . S
C1161 C1165 1.408 . S
C1162 C1160 1.363 . S
C1162 C1163 1.370 . S
C1162 C1166 1.524 . S
C1163 C1155 1.503 1_565 S
C1163 C1162 1.370 . S
C1163 C1164 1.403 . S
C1164 C1163 1.403 . S
C1164 C1165 1.404 . S
C1164 C1167 1.539 1_565 S
C1165 C1161 1.408 . S
C1165 C1164 1.404 . S
C1165 H1177 0.930 . S
C1166 C1162 1.524 . S
C1166 H1178 0.956 . S
C1166 H1179 0.961 . S
C1166 H1180 0.961 . S
C1167 C1164 1.539 1_545 S
C1167 H1181 0.958 . S
C1167 H1182 0.961 1_545 S
C1167 H1183 0.960 . S
H1168 C1152 0.931 . S
H1169 C1157 0.929 . S
H1170 C1158 0.960 1_565 S
H1171 C1158 0.962 1_565 S
H1172 C1158 0.960 . S
H1173 C1159 0.961 . S
H1174 C1159 0.961 . S
H1175 C1159 0.961 . S
H1176 C1160 0.931 . S
H1177 C1165 0.930 . S
H1178 C1166 0.956 . S
H1179 C1166 0.961 . S
H1180 C1166 0.961 . S
H1181 C1167 0.958 . S
H1182 C1167 0.961 1_565 S
H1183 C1167 0.960 . S
C1184 C1185 1.391 . S
C1184 C1186 1.394 . S
C1184 H1200 0.931 . S
C1185 C1184 1.391 . S
C1185 C1189 1.376 . S
C1186 C1184 1.394 . S
C1186 C1187 1.369 . S
C1186 C1190 1.531 1_655 S
C1187 C1186 1.369 . S
C1187 C1188 1.410 1_565 S
C1187 C1195 1.503 1_665 S
C1188 C1187 1.410 1_545 S
C1188 C1189 1.392 1_545 S
C1188 C1191 1.511 . S
C1189 C1185 1.376 . S
C1189 C1188 1.392 1_565 S
C1189 H1201 0.927 1_565 S
C1190 C1186 1.531 1_455 S
C1190 H1202 0.960 . S
C1190 H1203 0.962 . S
C1190 H1204 0.960 1_455 S
C1191 C1188 1.511 . S
C1191 H1205 0.961 . S
C1191 H1206 0.961 . S
C1191 H1207 0.961 . S
C1192 C1193 1.370 . S
C1192 C1194 1.363 . S
C1192 H1208 0.931 . S
C1193 C1192 1.370 . S
C1193 C1197 1.408 . S
C1194 C1192 1.363 . S
C1194 C1195 1.370 . S
C1194 C1198 1.524 1_455 S
C1195 C1187 1.503 1_445 S
C1195 C1194 1.370 . S
C1195 C1196 1.403 1_545 S
C1196 C1195 1.403 1_565 S
C1196 C1197 1.404 1_565 S
C1196 C1199 1.539 . S
C1197 C1193 1.408 . S
C1197 C1196 1.404 1_545 S
C1197 H1209 0.928 1_545 S
C1198 C1194 1.524 1_655 S
C1198 H1210 0.956 . S
C1198 H1211 0.961 . S
C1198 H1212 0.961 1_655 S
C1199 C1196 1.539 . S
C1199 H1213 0.958 . S
C1199 H1214 0.961 . S
C1199 H1215 0.960 . S
H1200 C1184 0.931 . S
H1201 C1189 0.927 1_545 S
H1202 C1190 0.960 . S
H1203 C1190 0.962 . S
H1204 C1190 0.960 1_655 S
H1205 C1191 0.961 . S
H1206 C1191 0.961 . S
H1207 C1191 0.961 . S
H1208 C1192 0.931 . S
H1209 C1197 0.928 1_565 S
H1210 C1198 0.956 . S
H1211 C1198 0.961 . S
H1212 C1198 0.961 1_455 S
H1213 C1199 0.958 . S
H1214 C1199 0.961 . S
H1215 C1199 0.960 . S
C1216 C1217 1.391 . S
C1216 C1218 1.394 . S
C1216 H1232 0.931 . S
C1217 C1216 1.391 . S
C1217 C1221 1.376 . S
C1218 C1216 1.394 . S
C1218 C1219 1.368 1_655 S
C1218 C1222 1.531 . S
C1219 C1218 1.368 1_455 S
C1219 C1220 1.409 1_455 S
C1219 C1227 1.504 . S
C1220 C1219 1.409 1_655 S
C1220 C1221 1.392 . S
C1220 C1223 1.511 1_655 S
C1221 C1217 1.376 . S
C1221 C1220 1.392 . S
C1221 H1233 0.929 . S
C1222 C1218 1.531 . S
C1222 H1234 0.960 1_655 S
C1222 H1235 0.962 . S
C1222 H1236 0.960 . S
C1223 C1220 1.511 1_455 S
C1223 H1237 0.961 1_455 S
C1223 H1238 0.961 . S
C1223 H1239 0.961 . S
C1224 C1225 1.370 . S
C1224 C1226 1.363 1_455 S
C1224 H1240 0.931 1_455 S
C1225 C1224 1.370 . S
C1225 C1229 1.408 . S
C1226 C1224 1.363 1_655 S
C1226 C1227 1.370 1_655 S
C1226 C1230 1.524 . S
C1227 C1219 1.504 . S
C1227 C1226 1.370 1_455 S
C1227 C1228 1.403 . S
C1228 C1227 1.403 . S
C1228 C1229 1.404 . S
C1228 C1231 1.539 . S
C1229 C1225 1.408 . S
C1229 C1228 1.404 . S
C1229 H1241 0.930 . S
C1230 C1226 1.524 . S
C1230 H1242 0.956 . S
C1230 H1243 0.961 . S
C1230 H1244 0.961 . S
C1231 C1228 1.539 . S
C1231 H1245 0.958 . S
C1231 H1246 0.961 . S
C1231 H1247 0.960 . S
H1232 C1216 0.931 . S
H1233 C1221 0.929 . S
H1234 C1222 0.960 1_455 S
H1235 C1222 0.962 . S
H1236 C1222 0.960 . S
H1237 C1223 0.961 1_655 S
H1238 C1223 0.961 . S
H1239 C1223 0.961 . S
H1240 C1224 0.931 1_655 S
H1241 C1229 0.930 . S
H1242 C1230 0.956 . S
H1243 C1230 0.961 . S
H1244 C1230 0.961 . S
H1245 C1231 0.958 . S
H1246 C1231 0.961 . S
H1247 C1231 0.960 . S
C225 C68 1.029 . S
C233 C12 0.997 . S
C257 C26 1.017 . S
C265 C82 0.996 . S
C289 C96 0.976 . S
C297 C40 1.014 . S
C321 C110 1.014 . S
C329 C54 0.996 . S
C353 C180 0.973 . S
C361 C124 1.015 . S
C385 C138 0.992 . S
C393 C194 1.005 . S
C417 C208 1.030 . S
C425 C152 0.997 . S
C449 C166 0.998 . S
C457 C222 1.011 . S
C481 C5 1.147 . S
C489 C215 1.127 . S
C513 C19 1.143 . S
C521 C173 1.095 . S
C545 C33 1.145 . S
C553 C187 1.127 . S
C577 C201 1.047 . S
C585 C47 1.070 . S
C609 C61 1.133 . S
C617 C131 1.127 . S
C641 C75 1.117 . S
C649 C145 1.083 . S
C673 C159 1.128 . S
C681 C89 1.088 . S
C705 C117 1.153 . S
C713 C103 1.127 . S
C737 C11 1.468 . S
C745 C151 1.465 . S
C769 C165 1.470 . S
C777 C25 1.465 . S
C801 C39 1.469 . S
C809 C123 1.465 . S
C833 C137 1.459 . S
C841 C53 1.464 . S
C865 C67 1.447 . S
C873 C207 1.452 . S
C897 C81 1.465 . S
C905 C221 1.458 . S
C929 C179 1.446 . S
C937 C95 1.452 . S
C961 C193 1.468 . S
C969 C109 1.465 . S
C993 C144 1.585 . S
C1001 C4 1.577 . S
C1025 C18 1.553 . S
C1033 C158 1.568 . S
C1057 C32 1.556 . S
C1065 C116 1.572 . S
C1089 C130 1.586 . S
C1097 C46 1.578 . S
C1121 C200 1.555 . S
C1129 C60 1.571 . S
C1153 C214 1.581 . S
C1161 C74 1.575 . S
C1185 C172 1.579 . S
C1193 C88 1.580 . S
C1217 C102 1.575 . S
C1225 C186 1.571 . S
