# Generated by pormake.
# Topology lhb, (8)-cn, num edge types: 1
# Building blocks:
#     Node 0, Type 0, BuildingBlock: AJUNOK_clean_sbu_0, # of connection points: 8
#     Node 1, Type 0, BuildingBlock: AJUNOK_clean_sbu_0, # of connection points: 8
#     Node 2, Type 0, BuildingBlock: AJUNOK_clean_sbu_0, # of connection points: 8
#     Node 3, Type 0, BuildingBlock: AJUNOK_clean_sbu_0, # of connection points: 8
#     Node 4, Type 0, BuildingBlock: AJUNOK_clean_sbu_0, # of connection points: 8
#     Node 5, Type 0, BuildingBlock: AJUNOK_clean_sbu_0, # of connection points: 8
#     Node 6, Type 0, BuildingBlock: AJUNOK_clean_sbu_0, # of connection points: 8
#     Node 7, Type 0, BuildingBlock: AJUNOK_clean_sbu_0, # of connection points: 8
#     Edge 8, Type (0, 0), BuildingBlock: UVAHIK_clean_linker_0, # of connection points: 2
#     Edge 9, Type (0, 0), BuildingBlock: UVAHIK_clean_linker_0, # of connection points: 2
#     Edge 10, Type (0, 0), BuildingBlock: UVAHIK_clean_linker_0, # of connection points: 2
#     Edge 11, Type (0, 0), BuildingBlock: UVAHIK_clean_linker_0, # of connection points: 2
#     Edge 12, Type (0, 0), BuildingBlock: UVAHIK_clean_linker_0, # of connection points: 2
#     Edge 13, Type (0, 0), BuildingBlock: UVAHIK_clean_linker_0, # of connection points: 2
#     Edge 14, Type (0, 0), BuildingBlock: UVAHIK_clean_linker_0, # of connection points: 2
#     Edge 15, Type (0, 0), BuildingBlock: UVAHIK_clean_linker_0, # of connection points: 2
#     Edge 16, Type (0, 0), BuildingBlock: UVAHIK_clean_linker_0, # of connection points: 2
#     Edge 17, Type (0, 0), BuildingBlock: UVAHIK_clean_linker_0, # of connection points: 2
#     Edge 18, Type (0, 0), BuildingBlock: UVAHIK_clean_linker_0, # of connection points: 2
#     Edge 19, Type (0, 0), BuildingBlock: UVAHIK_clean_linker_0, # of connection points: 2
#     Edge 20, Type (0, 0), BuildingBlock: UVAHIK_clean_linker_0, # of connection points: 2
#     Edge 21, Type (0, 0), BuildingBlock: UVAHIK_clean_linker_0, # of connection points: 2
#     Edge 22, Type (0, 0), BuildingBlock: UVAHIK_clean_linker_0, # of connection points: 2
#     Edge 23, Type (0, 0), BuildingBlock: UVAHIK_clean_linker_0, # of connection points: 2
#     Edge 24, Type (0, 0), BuildingBlock: UVAHIK_clean_linker_0, # of connection points: 2
#     Edge 25, Type (0, 0), BuildingBlock: UVAHIK_clean_linker_0, # of connection points: 2
#     Edge 26, Type (0, 0), BuildingBlock: UVAHIK_clean_linker_0, # of connection points: 2
#     Edge 27, Type (0, 0), BuildingBlock: UVAHIK_clean_linker_0, # of connection points: 2
#     Edge 28, Type (0, 0), BuildingBlock: UVAHIK_clean_linker_0, # of connection points: 2
#     Edge 29, Type (0, 0), BuildingBlock: UVAHIK_clean_linker_0, # of connection points: 2
#     Edge 30, Type (0, 0), BuildingBlock: UVAHIK_clean_linker_0, # of connection points: 2
#     Edge 31, Type (0, 0), BuildingBlock: UVAHIK_clean_linker_0, # of connection points: 2
#     Edge 32, Type (0, 0), BuildingBlock: UVAHIK_clean_linker_0, # of connection points: 2
#     Edge 33, Type (0, 0), BuildingBlock: UVAHIK_clean_linker_0, # of connection points: 2
#     Edge 34, Type (0, 0), BuildingBlock: UVAHIK_clean_linker_0, # of connection points: 2
#     Edge 35, Type (0, 0), BuildingBlock: UVAHIK_clean_linker_0, # of connection points: 2
#     Edge 36, Type (0, 0), BuildingBlock: UVAHIK_clean_linker_0, # of connection points: 2
#     Edge 37, Type (0, 0), BuildingBlock: UVAHIK_clean_linker_0, # of connection points: 2
#     Edge 38, Type (0, 0), BuildingBlock: UVAHIK_clean_linker_0, # of connection points: 2
#     Edge 39, Type (0, 0), BuildingBlock: UVAHIK_clean_linker_0, # of connection points: 2
# Relax obj value: 0.086
# Max RMSD: 0.171
# Mean RMSD: 0.171
data_MOF--net-lhb--node1-AJUNOK_clean_sbu_0--edge1-UVAHIK_clean_linker_0
_symmetry_space_group_name_H-M    P1
_symmetry_Int_Tables_number       1
_symmetry_cell_setting            triclinic
loop_
_symmetry_equiv_pos_as_xyz
'x, y, z'
_cell_length_a     41.033861
_cell_length_b     16.513553
_cell_length_c     93.132987
_cell_angle_alpha  90.033789
_cell_angle_beta   89.939098
_cell_angle_gamma 90.043965
loop_
_atom_site_label
_atom_site_type_symbol
_atom_site_fract_x
_atom_site_fract_y
_atom_site_fract_z
_atom_type_partial_charge
Cd0 Cd 0.04513 0.94783 0.01551 0.0
Cd1 Cd 0.93614 0.02099 0.00774 0.0
C2 C 0.07051 0.86568 0.98678 0.0
N3 N 0.05271 0.93096 0.99091 0.0
C4 C 0.04901 0.97671 0.9666 0.0
C5 C 0.0683 0.91105 0.96208 0.0
C6 C 0.0785 0.85431 0.97238 0.0
C7 C 0.04149 0.98558 0.98118 0.0
H8 H 0.07896 0.82303 0.99476 0.0
H9 H 0.02723 0.03675 0.98477 0.0
C10 C -0.00496 0.11936 0.01678 0.0
C11 C 0.89698 0.04005 0.03755 0.0
C12 C 0.88748 0.02564 0.05172 0.0
C13 C 0.90537 0.97127 0.0602 0.0
C14 C 0.93269 0.93294 0.05417 0.0
C15 C 0.94103 0.94825 0.03988 0.0
N16 N 0.9232 0.00103 0.0319 0.0
H17 H 0.88323 0.08188 0.03101 0.0
H18 H 0.96157 0.91734 0.03513 0.0
C19 C 0.93739 0.14382 0.98165 0.0
N20 N 0.94874 0.06907 0.98507 0.0
C21 C 0.95296 0.03333 0.96026 0.0
C22 C 0.93862 0.10752 0.95648 0.0
C23 C 0.93222 0.16455 0.96732 0.0
C24 C 0.95751 0.01482 0.97477 0.0
H25 H 0.92946 0.18438 0.99008 0.0
H26 H 0.9652 0.95464 0.97785 0.0
C27 C 0.98659 0.8419 1.00588 0.0
C28 C 0.10841 0.0057 0.01823 0.0
N29 N 0.04267 0.92199 0.03991 0.0
C30 C 0.06545 0.87369 0.04611 0.0
C31 C 0.07255 0.88207 0.06072 0.0
C32 C 0.05621 0.94125 0.06888 0.0
C33 C 0.03113 0.98574 0.06235 0.0
C34 C 0.02497 0.97566 0.04775 0.0
C35 C 0.87415 0.99271 0.99658 0.0
O36 O 0.00172 0.04546 0.01504 0.0
O37 O 0.96562 0.14124 0.01519 0.0
O38 O 0.97565 0.91236 0.00793 0.0
O39 O 0.0157 0.82618 0.00961 0.0
O40 O 0.08362 0.05168 0.01878 0.0
O41 O 0.10393 0.9303 0.01622 0.0
O42 O 0.89668 0.94002 0.996 0.0
O43 O 0.87996 0.05865 1.00317 0.0
H44 H 0.08009 0.83398 0.03949 0.0
H45 H 0.00797 0.0156 0.04247 0.0
H46 H 0.04067 0.02201 0.95906 0.0
H47 H 0.09275 0.8018 0.96937 0.0
H48 H 0.86648 0.05711 0.05603 0.0
H49 H 0.94699 0.8902 0.06033 0.0
H50 H 0.9579 0.98751 0.95223 0.0
H51 H 0.92129 0.22252 0.9648 0.0
H52 H 0.09234 0.84719 0.06527 0.0
H53 H 0.01767 0.03128 0.06827 0.0
Cd54 Cd 0.28925 0.26773 0.25835 0.0
Cd55 Cd 0.18019 0.20202 0.26369 0.0
C56 C 0.29287 0.39809 0.23169 0.0
N57 N 0.28679 0.31917 0.23495 0.0
C58 C 0.28864 0.2828 0.21013 0.0
C59 C 0.29611 0.36311 0.20642 0.0
C60 C 0.29731 0.42163 0.2174 0.0
C61 C 0.28417 0.26222 0.2245 0.0
H62 H 0.29582 0.4422 0.24017 0.0
H63 H 0.2806 0.19977 0.22742 0.0
C64 C 0.23879 0.10062 0.2584 0.0
C65 C 0.18469 0.15559 0.29722 0.0
C66 C 0.17959 0.16784 0.31191 0.0
C67 C 0.17685 0.24715 0.31729 0.0
C68 C 0.18118 0.31234 0.30781 0.0
C69 C 0.18599 0.29736 0.29323 0.0
N70 N 0.18711 0.22008 0.28822 0.0
H71 H 0.1846 0.09485 0.29286 0.0
H72 H 0.18646 0.34757 0.2858 0.0
C73 C 0.16082 0.11326 0.23532 0.0
N74 N 0.17983 0.17687 0.2392 0.0
C75 C 0.19129 0.20718 0.21461 0.0
C76 C 0.1715 0.14196 0.21032 0.0
C77 C 0.15638 0.09449 0.2209 0.0
C78 C 0.19522 0.22356 0.22926 0.0
H79 H 0.14863 0.07793 0.2435 0.0
H80 H 0.21049 0.27314 0.2327 0.0
C81 C 0.22882 0.39274 0.25956 0.0
C82 C 0.3496 0.20534 0.25058 0.0
N83 N 0.30112 0.2646 0.28272 0.0
C84 C 0.30995 0.33006 0.29067 0.0
C85 C 0.31951 0.32006 0.30499 0.0
C86 C 0.32003 0.242 0.31109 0.0
C87 C 0.3103 0.17606 0.30257 0.0
C88 C 0.30095 0.18883 0.28837 0.0
C89 C 0.11198 0.20603 0.26491 0.0
O90 O 0.24556 0.17408 0.26076 0.0
O91 O 0.21029 0.07694 0.26144 0.0
O92 O 0.21188 0.32864 0.2609 0.0
O93 O 0.25962 0.39103 0.26094 0.0
O94 O 0.32343 0.16512 0.2488 0.0
O95 O 0.34757 0.27511 0.25637 0.0
O96 O 0.12881 0.26191 0.25921 0.0
O97 O 0.12688 0.14644 0.27044 0.0
H98 H 0.31016 0.38958 0.28582 0.0
H99 H 0.29434 0.13784 0.28168 0.0
H100 H 0.28814 0.23524 0.20212 0.0
H101 H 0.30272 0.48441 0.21502 0.0
H102 H 0.17649 0.11593 0.31888 0.0
H103 H 0.17861 0.37435 0.31143 0.0
H104 H 0.20359 0.24478 0.20677 0.0
H105 H 0.14044 0.04467 0.21806 0.0
H106 H 0.32656 0.37269 0.3112 0.0
H107 H 0.3109 0.1147 0.30665 0.0
Cd108 Cd 0.69449 0.71812 0.26779 0.0
Cd109 Cd 0.80357 0.78286 0.25966 0.0
C110 C 0.66652 0.64096 0.23901 0.0
N111 N 0.68721 0.70146 0.24288 0.0
C112 C 0.69526 0.7372 0.21819 0.0
C113 C 0.67361 0.67562 0.21392 0.0
C114 C 0.65934 0.62701 0.22459 0.0
C115 C 0.7019 0.74881 0.23281 0.0
H116 H 0.65543 0.60342 0.24717 0.0
H117 H 0.71881 0.79536 0.23611 0.0
C118 C 0.74541 0.89014 0.26644 0.0
C119 C 0.83185 0.81512 0.29128 0.0
C120 C 0.84093 0.8001 0.30549 0.0
C121 C 0.82831 0.73225 0.31274 0.0
C122 C 0.80595 0.6824 0.30548 0.0
C123 C 0.79773 0.69936 0.29123 0.0
N124 N 0.81102 0.76426 0.28439 0.0
H125 H 0.8423 0.86593 0.28558 0.0
H126 H 0.78141 0.65923 0.28558 0.0
C127 C 0.80879 0.8959 0.23204 0.0
N128 N 0.79575 0.82377 0.23607 0.0
C129 C 0.78912 0.78413 0.21156 0.0
C130 C 0.80435 0.85607 0.20709 0.0
C131 C 0.81327 0.91348 0.21752 0.0
C132 C 0.7854 0.76868 0.22623 0.0
H133 H 0.81774 0.93736 0.24013 0.0
H134 H 0.77623 0.71064 0.22977 0.0
C135 C 0.75015 0.60443 0.25769 0.0
C136 C 0.62873 0.75383 0.27058 0.0
N137 N 0.69786 0.70938 0.29273 0.0
C138 C 0.68364 0.64664 0.2998 0.0
C139 C 0.67567 0.65416 0.31436 0.0
C140 C 0.68206 0.72728 0.32163 0.0
C141 C 0.69849 0.78907 0.31418 0.0
C142 C 0.70604 0.77893 0.29967 0.0
C143 C 0.86865 0.7484 0.25297 0.0
O144 O 0.73803 0.81578 0.26644 0.0
O145 O 0.77522 0.90863 0.26485 0.0
O146 O 0.76412 0.67189 0.25978 0.0
O147 O 0.72157 0.59351 0.26258 0.0
O148 O 0.6502 0.80903 0.26923 0.0
O149 O 0.63794 0.68037 0.27053 0.0
O150 O 0.84535 0.70097 0.24982 0.0
O151 O 0.86178 0.8139 0.25948 0.0
H152 H 0.67634 0.59315 0.29391 0.0
H153 H 0.71604 0.82917 0.29367 0.0
H154 H 0.7072 0.77531 0.21032 0.0
H155 H 0.64229 0.57938 0.22185 0.0
H156 H 0.85856 0.83973 0.31053 0.0
H157 H 0.79515 0.63022 0.31067 0.0
H158 H 0.78224 0.73796 0.20387 0.0
H159 H 0.82494 0.96981 0.21449 0.0
H160 H 0.66334 0.60458 0.3197 0.0
H161 H 0.70343 0.84695 0.3192 0.0
Cd162 Cd 0.05716 0.44656 0.51414 0.0
Cd163 Cd 0.94918 0.51801 0.50928 0.0
C164 C 0.04867 0.36274 0.4832 0.0
N165 N 0.0522 0.43678 0.48938 0.0
C166 C 0.06166 0.49796 0.46653 0.0
C167 C 0.05982 0.42163 0.45988 0.0
C168 C 0.05227 0.35378 0.46838 0.0
C169 C 0.05806 0.50405 0.4814 0.0
H170 H 0.04487 0.30992 0.48985 0.0
H171 H 0.06154 0.5618 0.48665 0.0
C172 C 0.0095 0.63779 0.50963 0.0
C173 C 0.94498 0.56377 0.54361 0.0
C174 C 0.936 0.55209 0.55798 0.0
C175 C 0.92038 0.47974 0.5621 0.0
C176 C 0.915 0.42007 0.5516 0.0
C177 C 0.92429 0.43431 0.53743 0.0
N178 N 0.93873 0.50529 0.53371 0.0
H179 H 0.9564 0.61983 0.54032 0.0
H180 H 0.91959 0.38906 0.5293 0.0
C181 C 0.93914 0.61737 0.48081 0.0
N182 N 0.95593 0.55085 0.48509 0.0
C183 C 0.96652 0.51417 0.46068 0.0
C184 C 0.94778 0.58029 0.45592 0.0
C185 C 0.9348 0.63341 0.46625 0.0
C186 C 0.97027 0.50042 0.47542 0.0
H187 H 0.92748 0.65548 0.48874 0.0
H188 H 0.98326 0.44755 0.47912 0.0
C189 C -0.00394 0.35087 0.51472 0.0
C190 C 0.12549 0.45698 0.51349 0.0
N191 N 0.05537 0.46191 0.53886 0.0
C192 C 0.07872 0.4202 0.54604 0.0
C193 C 0.08586 0.43917 0.56026 0.0
C194 C 0.06884 0.50191 0.56714 0.0
C195 C 0.04344 0.54075 0.55973 0.0
C196 C 0.03721 0.52002 0.54543 0.0
C197 C 0.88473 0.4849 0.50199 0.0
O198 O 0.02469 0.57143 0.51129 0.0
O199 O 0.97862 0.64052 0.51065 0.0
O200 O -0.00723 0.42584 0.51264 0.0
O201 O 0.02454 0.32459 0.51711 0.0
O202 O 0.10695 0.51721 0.51554 0.0
O203 O 0.11238 0.38819 0.51148 0.0
O204 O 0.90768 0.43485 0.49959 0.0
O205 O 0.89179 0.55104 0.50833 0.0
H206 H 0.0931 0.37529 0.54044 0.0
H207 H 0.01924 0.55342 0.53938 0.0
H208 H 0.06703 0.55205 0.4604 0.0
H209 H 0.05113 0.29358 0.4638 0.0
H210 H 0.94043 0.60003 0.56567 0.0
H211 H 0.90364 0.36281 0.55427 0.0
H212 H 0.97735 0.47222 0.45311 0.0
H213 H 0.91976 0.68436 0.46317 0.0
H214 H 0.10527 0.40689 0.56566 0.0
H215 H 0.02985 0.5897 0.56464 0.0
Cd216 Cd 0.19423 0.71657 0.76355 0.0
Cd217 Cd 0.30311 0.77991 0.75923 0.0
C218 C 0.1733 0.62703 0.73533 0.0
N219 N 0.19453 0.68619 0.73922 0.0
C220 C 0.20377 0.72111 0.71464 0.0
C221 C 0.18027 0.66394 0.71041 0.0
C222 C 0.16582 0.6147 0.72093 0.0
C223 C 0.21044 0.73162 0.72926 0.0
H224 H 0.16093 0.59216 0.74352 0.0
H225 H 0.22712 0.77833 0.73267 0.0
C226 C 0.2445 0.88585 0.76342 0.0
C227 C 0.305 0.80913 0.79352 0.0
C228 C 0.31296 0.79322 0.80782 0.0
C229 C 0.32358 0.71542 0.81181 0.0
C230 C 0.3246 0.65452 0.80127 0.0
C231 C 0.31644 0.67312 0.7871 0.0
N232 N 0.30728 0.74953 0.78351 0.0
H233 H 0.29823 0.86972 0.7903 0.0
H234 H 0.31876 0.62748 0.77882 0.0
C235 C 0.29337 0.87553 0.7293 0.0
N236 N 0.29397 0.79942 0.73485 0.0
C237 C 0.29755 0.74195 0.71136 0.0
C238 C 0.29885 0.81991 0.70534 0.0
C239 C 0.2956 0.88721 0.71448 0.0
C240 C 0.29533 0.7331 0.72623 0.0
H241 H 0.29322 0.92735 0.7364 0.0
H242 H 0.29653 0.67345 0.73098 0.0
C243 C 0.2511 0.59561 0.75914 0.0
C244 C 0.12873 0.75233 0.75906 0.0
N245 N 0.18965 0.73946 0.78797 0.0
C246 C 0.1974 0.68452 0.79827 0.0
C247 C 0.1897 0.70032 0.81265 0.0
C248 C 0.17366 0.7728 0.8163 0.0
C249 C 0.167 0.82913 0.80541 0.0
C250 C 0.17526 0.81111 0.79127 0.0
C251 C 0.37039 0.76088 0.75482 0.0
O252 O 0.23838 0.81091 0.76348 0.0
O253 O 0.27419 0.90706 0.7631 0.0
O254 O 0.26538 0.66366 0.76013 0.0
O255 O 0.22161 0.58914 0.7632 0.0
O256 O 0.15159 0.79812 0.75467 0.0
O257 O 0.13624 0.68914 0.76615 0.0
O258 O 0.34944 0.71008 0.75045 0.0
O259 O 0.36012 0.82327 0.76143 0.0
H260 H 0.20856 0.62763 0.79527 0.0
H261 H 0.16931 0.85332 0.78279 0.0
H262 H 0.21547 0.76018 0.70684 0.0
H263 H 0.14803 0.56896 0.71807 0.0
H264 H 0.31148 0.84178 0.81561 0.0
H265 H 0.33309 0.5941 0.80378 0.0
H266 H 0.29955 0.68836 0.70472 0.0
H267 H 0.29696 0.94841 0.71036 0.0
H268 H 0.19507 0.65506 0.82071 0.0
H269 H 0.15515 0.8862 0.80778 0.0
Cd270 Cd 0.68967 0.20935 0.76517 0.0
Cd271 Cd 0.7977 0.28711 0.76021 0.0
C272 C 0.66742 0.11835 0.7371 0.0
N273 N 0.68683 0.18208 0.74057 0.0
C274 C 0.69497 0.21286 0.71571 0.0
C275 C 0.67431 0.14839 0.71184 0.0
C276 C 0.66091 0.10019 0.72277 0.0
C277 C 0.7011 0.22845 0.73025 0.0
H278 H 0.65634 0.08271 0.74553 0.0
H279 H 0.71676 0.27821 0.7333 0.0
C280 C 0.73607 0.38447 0.7641 0.0
C281 C 0.81929 0.33212 0.79209 0.0
C282 C 0.82674 0.32094 0.80656 0.0
C283 C 0.81269 0.25615 0.81416 0.0
C284 C 0.79011 0.20633 0.807 0.0
C285 C 0.78362 0.21926 0.79245 0.0
N286 N 0.79879 0.28028 0.78526 0.0
H287 H 0.83113 0.37999 0.78614 0.0
H288 H 0.76749 0.17854 0.78681 0.0
C289 C 0.80247 0.39475 0.73187 0.0
N290 N 0.79363 0.31885 0.73594 0.0
C291 C 0.79511 0.27325 0.71157 0.0
C292 C 0.80599 0.35006 0.70713 0.0
C293 C 0.80863 0.41188 0.71745 0.0
C294 C 0.78927 0.25872 0.72615 0.0
H295 H 0.80661 0.44077 0.73993 0.0
H296 H 0.78317 0.19833 0.72975 0.0
C297 C 0.7494 0.09517 0.75846 0.0
C298 C 0.62246 0.22918 0.76492 0.0
N299 N 0.68985 0.23003 0.78987 0.0
C300 C 0.69504 0.17065 0.7997 0.0
C301 C 0.68807 0.18466 0.81423 0.0
C302 C 0.67535 0.26008 0.81855 0.0
C303 C 0.67173 0.32099 0.80814 0.0
C304 C 0.67899 0.30443 0.79383 0.0
C305 C 0.86542 0.26775 0.75791 0.0
O306 O 0.73135 0.30896 0.76412 0.0
O307 O 0.76526 0.40902 0.76333 0.0
O308 O 0.76453 0.16217 0.75944 0.0
O309 O 0.72043 0.08838 0.7632 0.0
O310 O 0.64171 0.28149 0.75953 0.0
O311 O 0.63457 0.16617 0.77069 0.0
O312 O 0.84545 0.21066 0.75552 0.0
O313 O 0.85408 0.33644 0.76143 0.0
H314 H 0.70306 0.11147 0.79619 0.0
H315 H 0.67449 0.34984 0.78571 0.0
H316 H 0.7061 0.25091 0.7076 0.0
H317 H 0.64458 0.05054 0.72032 0.0
H318 H 0.84457 0.36043 0.8115 0.0
H319 H 0.77818 0.15662 0.81248 0.0
H320 H 0.79307 0.22363 0.70402 0.0
H321 H 0.81657 0.47215 0.71448 0.0
H322 H 0.69101 0.13571 0.82185 0.0
H323 H 0.66256 0.38038 0.81096 0.0
Cd324 Cd 0.53529 0.96935 0.51712 0.0
Cd325 Cd 0.42683 0.02709 0.5075 0.0
C326 C 0.57079 0.88132 0.49023 0.0
N327 N 0.54578 0.93285 0.49308 0.0
C328 C 0.53506 0.94778 0.46793 0.0
C329 C 0.56128 0.89616 0.46464 0.0
C330 C 0.57903 0.86225 0.47606 0.0
C331 C 0.52762 0.96499 0.48229 0.0
H332 H 0.58469 0.85569 0.49897 0.0
H333 H 0.50722 0.00364 0.48483 0.0
C334 C 0.48421 0.13215 0.51315 0.0
C335 C 0.42043 0.06752 0.54118 0.0
C336 C 0.41348 0.05495 0.55569 0.0
C337 C 0.40904 0.97572 0.56085 0.0
C338 C 0.41296 0.9107 0.55127 0.0
C339 C 0.41982 0.92606 0.53683 0.0
N340 N 0.42308 0.00347 0.53209 0.0
H341 H 0.42261 0.1285 0.53707 0.0
H342 H 0.42124 0.87633 0.5293 0.0
C343 C 0.44012 0.12755 0.47818 0.0
N344 N 0.43976 0.05094 0.48353 0.0
C345 C 0.43785 -0.00467 0.45986 0.0
C346 C 0.43614 0.07371 0.45406 0.0
C347 C 0.43864 0.14037 0.46338 0.0
C348 C 0.43954 0.9853 0.47472 0.0
H349 H 0.43912 0.17886 0.48537 0.0
H350 H 0.43841 0.92514 0.47927 0.0
C351 C 0.47991 0.84254 0.50705 0.0
C352 C 0.59534 0.04787 0.51848 0.0
N353 N 0.53506 0.94471 0.54171 0.0
C354 C 0.5593 0.89976 0.54762 0.0
C355 C 0.5666 0.90755 0.56223 0.0
C356 C 0.54899 0.96278 0.57073 0.0
C357 C 0.52262 0.00404 0.56448 0.0
C358 C 0.51614 -0.00569 0.54985 0.0
C359 C 0.36025 0.01045 0.5008 0.0
O360 O 0.48955 0.05726 0.51474 0.0
O361 O 0.45495 0.15429 0.51148 0.0
O362 O 0.46203 0.9054 0.50725 0.0
O363 O 0.50831 0.8437 0.51251 0.0
O364 O 0.56865 0.08678 0.51823 0.0
O365 O 0.59409 0.97093 0.51826 0.0
O366 O 0.38146 0.95747 0.49773 0.0
O367 O 0.3696 0.07283 0.50765 0.0
H368 H 0.57467 0.86298 0.5408 0.0
H369 H 0.49766 0.03112 0.54477 0.0
H370 H 0.52019 0.97394 0.45953 0.0
H371 H 0.59963 0.82284 0.47411 0.0
H372 H 0.41096 0.10677 0.56274 0.0
H373 H 0.40927 0.84876 0.55472 0.0
H374 H 0.43626 0.94233 0.45304 0.0
H375 H 0.43696 0.20178 0.45938 0.0
H376 H 0.58736 0.87522 0.56653 0.0
H377 H 0.50815 0.04644 0.57066 0.0
Cd378 Cd 0.5414 0.47098 0.01707 0.0
Cd379 Cd 0.43321 0.5263 0.00845 0.0
C380 C 0.54557 0.36461 0.98684 0.0
N381 N 0.54889 0.44027 0.99249 0.0
C382 C 0.56716 0.49115 0.9698 0.0
C383 C 0.56429 0.41365 0.96367 0.0
C384 C 0.55294 0.35007 0.9724 0.0
C385 C 0.55961 0.50283 0.98427 0.0
H386 H 0.5383 0.31456 0.99356 0.0
H387 H 0.56317 0.56166 0.98908 0.0
C388 C 0.49102 0.63217 0.01017 0.0
C389 C 0.43016 0.57559 0.04245 0.0
C390 C 0.4222 0.56479 0.05694 0.0
C391 C 0.41104 0.48881 0.06174 0.0
C392 C 0.40941 0.42474 0.05184 0.0
C393 C 0.41742 0.43832 0.03751 0.0
N394 N 0.42722 0.51282 0.0331 0.0
H395 H 0.43761 0.63452 0.03858 0.0
H396 H 0.41496 0.38986 0.02976 0.0
C397 C 0.43108 0.61922 0.97926 0.0
N398 N 0.44525 0.55103 0.98448 0.0
C399 C 0.45828 0.50663 0.96073 0.0
C400 C 0.44249 0.57503 0.95505 0.0
C401 C 0.42976 0.63298 0.96453 0.0
C402 C 0.45956 0.49597 0.97564 0.0
H403 H 0.41914 0.66078 0.98654 0.0
H404 H 0.47056 0.44225 0.98009 0.0
C405 C 0.48418 0.33966 0.01274 0.0
C406 C 0.60324 0.53888 0.0167 0.0
N407 N 0.5443 0.46482 0.04203 0.0
C408 C 0.56707 0.4168 0.04829 0.0
C409 C 0.57577 0.42916 0.06264 0.0
C410 C 0.56118 0.49217 0.07055 0.0
C411 C 0.53639 0.5377 0.06396 0.0
C412 C 0.52842 0.52316 0.04959 0.0
C413 C 0.36734 0.51164 1.00103 0.0
O414 O 0.49673 0.56095 0.01443 0.0
O415 O 0.46156 0.65387 0.00935 0.0
O416 O 0.46692 0.40314 0.0113 0.0
O417 O 0.51317 0.34433 0.01753 0.0
O418 O 0.57767 0.58182 0.01807 0.0
O419 O 0.59998 0.46234 0.01578 0.0
O420 O 0.38851 0.45895 0.99768 0.0
O421 O 0.37654 0.5716 0.00857 0.0
H422 H 0.57991 0.37232 0.04191 0.0
H423 H 0.51115 0.56211 0.0442 0.0
H424 H 0.5755 0.54237 0.96354 0.0
H425 H 0.55095 0.2889 0.9683 0.0
H426 H 0.42352 0.61611 0.06416 0.0
H427 H 0.40152 0.36486 0.05507 0.0
H428 H 0.46851 0.46084 0.95372 0.0
H429 H 0.41699 0.68586 0.96059 0.0
H430 H 0.59464 0.39175 0.06732 0.0
H431 H 0.52473 0.58744 0.06953 0.0
C432 C 0.07038 0.04429 0.08765 0.0
C433 C 0.06757 0.96254 0.08354 0.0
C434 C 0.08265 0.06519 0.10114 0.0
C435 C 0.09676 0.98265 0.1374 0.0
H436 H 0.15701 0.16271 0.141 0.0
C437 C 0.16441 0.0439 0.19008 0.0
C438 C 0.16522 0.12441 0.19495 0.0
C439 C 0.15428 0.02588 0.17615 0.0
C440 C 0.13999 0.11276 0.14018 0.0
H441 H 0.07535 0.83876 0.09043 0.0
H442 H 0.09718 0.87519 0.11393 0.0
H443 H 0.13502 0.1275 0.11745 0.0
H444 H 0.15742 0.24954 0.18883 0.0
H445 H 0.1398 0.21804 0.16438 0.0
H446 H 0.10165 0.96785 0.16009 0.0
C447 C 0.0895 0.92312 0.10677 0.0
C448 C 0.12736 0.0926 0.1267 0.0
C449 C 0.07724 0.9022 0.09326 0.0
C450 C 0.15725 0.18695 0.18535 0.0
C451 C 0.14709 0.16887 0.17136 0.0
C452 C 0.1094 0.0027 0.15085 0.0
C453 C 0.09244 0.00487 0.11084 0.0
C454 C 0.10569 0.02707 0.12515 0.0
C455 C 0.14477 0.08795 0.16674 0.0
C456 C 0.1313 0.06766 0.15239 0.0
H457 H 0.06375 0.09245 0.08033 0.0
H458 H 0.0843 0.12866 0.10398 0.0
H459 H 0.07964 0.93289 0.13663 0.0
H460 H 0.17103 -0.00546 0.19716 0.0
H461 H 0.15352 0.96308 0.17281 0.0
C462 C 0.91851 0.9534 0.08631 0.0
C463 C 0.89536 0.95434 0.0752 0.0
C464 C 0.90882 0.93994 0.1005 0.0
C465 C 0.84335 0.85297 0.12266 0.0
H466 H 0.87508 0.00056 0.15185 0.0
C467 C 0.79219 0.85067 0.18063 0.0
C468 C 0.81396 0.86759 0.19187 0.0
C469 C 0.80193 0.86009 0.16631 0.0
C470 C 0.86634 0.95785 0.14391 0.0
H471 H 0.84414 0.93942 0.07016 0.0
H472 H 0.82723 0.91564 0.09497 0.0
H473 H 0.89338 0.01587 0.12715 0.0
H474 H 0.86334 0.90442 0.19693 0.0
H475 H 0.88059 0.91881 0.17212 0.0
H476 H 0.81679 0.79379 0.13941 0.0
C477 C 0.85282 0.92553 0.0927 0.0
C478 C 0.87681 0.9669 0.12973 0.0
C479 C 0.86245 0.93989 0.07853 0.0
C480 C 0.84576 0.89284 0.18851 0.0
C481 C 0.85562 0.90122 0.17424 0.0
C482 C 0.83316 0.84322 0.13689 0.0
C483 C 0.87585 0.92618 0.10384 0.0
C484 C 0.86535 0.91477 0.11895 0.0
C485 C 0.83382 0.88548 0.16293 0.0
C486 C 0.84447 0.89567 0.14772 0.0
H487 H 0.94402 0.96469 0.08405 0.0
H488 H 0.92712 0.94014 0.10888 0.0
H489 H 0.83435 0.81144 0.11457 0.0
H490 H 0.76752 0.83111 0.18293 0.0
H491 H 0.7843 0.84841 0.15792 0.0
C492 C 0.05309 0.35392 0.43583 0.0
C493 C 0.06893 0.41137 0.44452 0.0
C494 C 0.06402 0.33871 0.42186 0.0
C495 C 0.1378 0.35981 0.39923 0.0
H496 H 0.07833 0.30976 0.36815 0.0
C497 C 0.18019 0.32583 0.34033 0.0
C498 C 0.16638 0.26239 0.33231 0.0
C499 C 0.16832 0.34444 0.35401 0.0
C500 C 0.09525 0.32287 0.37676 0.0
H501 H 0.10839 0.49902 0.44515 0.0
H502 H 0.12648 0.47495 0.42069 0.0
H503 H 0.05667 0.34441 0.39176 0.0
H504 H 0.12922 0.16888 0.33236 0.0
H505 H 0.10895 0.20037 0.35635 0.0
H506 H 0.17636 0.33872 0.3842 0.0
C507 C 0.10604 0.4403 0.42475 0.0
C508 C 0.08284 0.34271 0.3903 0.0
C509 C 0.09527 0.45511 0.43873 0.0
C510 C 0.14074 0.21728 0.33836 0.0
C511 C 0.12879 0.23609 0.35201 0.0
C512 C 0.15018 0.34038 0.38569 0.0
C513 C 0.09095 0.3809 0.41622 0.0
C514 C 0.10397 0.36129 0.40172 0.0
C515 C 0.14228 0.30025 0.35995 0.0
C516 C 0.12907 0.32143 0.37431 0.0
H517 H 0.03252 0.31976 0.43989 0.0
H518 H 0.05194 0.29213 0.41564 0.0
H519 H 0.15484 0.37219 0.40783 0.0
H520 H 0.20001 0.36156 0.33598 0.0
H521 H 0.17906 0.39465 0.35981 0.0
C522 C 0.84453 0.63154 0.33177 0.0
C523 C 0.83925 0.71239 0.32758 0.0
C524 C 0.8559 0.61325 0.34555 0.0
C525 C 0.86506 0.70242 0.38204 0.0
H526 H 0.929 0.53204 0.38716 0.0
C527 C 0.93682 0.66928 0.43458 0.0
C528 C 0.93944 0.59116 0.44047 0.0
C529 C 0.92511 0.68045 0.42064 0.0
C530 C 0.91094 0.57932 0.38591 0.0
H531 H 0.8413 0.83715 0.33483 0.0
H532 H 0.86213 0.80569 0.35857 0.0
H533 H 0.9067 0.55823 0.36331 0.0
H534 H 0.93265 0.4632 0.43603 0.0
H535 H 0.91275 0.48284 0.41156 0.0
H536 H 0.86972 0.7244 0.40458 0.0
C537 C 0.85697 0.75608 0.35131 0.0
C538 C 0.89805 0.59424 0.37225 0.0
C539 C 0.84542 0.7743 0.33758 0.0
C540 C 0.93136 0.52419 0.4318 0.0
C541 C 0.9198 0.5354 0.41779 0.0
C542 C 0.8781 0.68792 0.39564 0.0
C543 C 0.86242 0.67535 0.35549 0.0
C544 C 0.87516 0.65659 0.37011 0.0
C545 C 0.91591 0.61381 0.41218 0.0
C546 C 0.90144 0.62681 0.39772 0.0
H547 H 0.84046 0.58224 0.32431 0.0
H548 H 0.85944 0.55034 0.34842 0.0
H549 H 0.84691 0.74955 0.38091 0.0
H550 H 0.9434 0.72216 0.44082 0.0
H551 H 0.92306 0.74155 0.41652 0.0
C552 C 0.11249 0.53824 0.58475 0.0
C553 C 0.07916 0.52963 0.58159 0.0
C554 C 0.12263 0.56218 0.5984 0.0
C555 C 0.09595 0.56057 0.63587 0.0
H556 H 0.16833 0.70833 0.64161 0.0
C557 C 0.13529 0.65482 0.69248 0.0
C558 C 0.16886 0.65904 0.69535 0.0
C559 C 0.12401 0.64695 0.67844 0.0
C560 C 0.14831 0.66634 0.64019 0.0
H561 H 0.03028 0.54147 0.59017 0.0
H562 H 0.04803 0.5837 0.61411 0.0
H563 H 0.14861 0.68146 0.61734 0.0
H564 H 0.21694 0.66119 0.68574 0.0
H565 H 0.19727 0.64553 0.66109 0.0
H566 H 0.096 0.54354 0.65858 0.0
C567 C 0.06629 0.5711 0.60601 0.0
C568 C 0.13694 0.65119 0.62629 0.0
C569 C 0.05611 0.54747 0.5923 0.0
C570 C 0.19094 0.65786 0.68382 0.0
C571 C 0.17963 0.64925 0.66972 0.0
C572 C 0.1074 0.57529 0.64973 0.0
C573 C 0.09968 0.57799 0.60923 0.0
C574 C 0.11071 0.59787 0.62398 0.0
C575 C 0.14601 0.64251 0.66689 0.0
C576 C 0.13375 0.62824 0.65208 0.0
H577 H 0.13083 0.5264 0.57664 0.0
H578 H 0.14851 0.56628 0.60056 0.0
H579 H 0.07611 0.51805 0.63443 0.0
H580 H 0.11765 0.65779 0.70112 0.0
H581 H 0.09796 0.64426 0.67665 0.0
C582 C 0.84586 0.4079 0.68945 0.0
C583 C 0.81708 0.36405 0.69211 0.0
C584 C 0.85702 0.4198 0.67544 0.0
C585 C 0.84913 0.34024 0.63833 0.0
H586 H 0.88845 0.54608 0.62817 0.0
C587 C 0.87908 0.42748 0.57977 0.0
C588 C 0.90893 0.46682 0.57711 0.0
C589 C 0.8683 0.41421 0.5938 0.0
C590 C 0.87787 0.48795 0.63088 0.0
H591 H 0.77747 0.2983 0.68206 0.0
H592 H 0.79667 0.3201 0.65753 0.0
H593 H 0.8681 0.52493 0.65246 0.0
H594 H 0.95087 0.52271 0.58725 0.0
H595 H 0.93182 0.50028 0.61178 0.0
H596 H 0.85861 0.3038 0.61666 0.0
C597 C 0.8109 0.34431 0.66633 0.0
C598 C 0.86619 0.47571 0.64482 0.0
C599 C 0.7998 0.33203 0.68039 0.0
C600 C 0.92759 0.49319 0.58888 0.0
C601 C 0.91669 0.4802 0.60294 0.0
C602 C 0.86066 0.35266 0.62437 0.0
C603 C 0.83967 0.38844 0.66368 0.0
C604 C 0.85171 0.40165 0.64875 0.0
C605 C 0.88695 0.44035 0.60556 0.0
C606 C 0.87517 0.42667 0.62047 0.0
H607 H 0.86023 0.43171 0.69825 0.0
H608 H 0.87964 0.45247 0.67387 0.0
H609 H 0.83866 0.28196 0.64101 0.0
H610 H 0.86371 0.40782 0.57098 0.0
H611 H 0.84502 0.38465 0.59542 0.0
C612 C 0.13175 0.8221 0.83386 0.0
C613 C 0.16272 0.78873 0.83124 0.0
C614 C 0.12124 0.83726 0.84787 0.0
C615 C 0.13739 0.77968 0.88557 0.0
H616 H 0.08758 0.9732 0.89427 0.0
C617 C 0.11039 0.87549 0.94361 0.0
C618 C 0.07871 0.90235 0.94685 0.0
C619 C 0.12013 0.86392 0.92941 0.0
C620 C 0.10117 0.9185 0.89198 0.0
H621 H 0.20708 0.74592 0.84129 0.0
H622 H 0.18891 0.77306 0.86578 0.0
H623 H 0.10605 0.94868 0.86973 0.0
H624 H 0.03264 0.93998 0.93761 0.0
H625 H 0.0498 0.92009 0.9127 0.0
H626 H 0.13271 0.74972 0.9078 0.0
C627 C 0.17249 0.78627 0.85699 0.0
C628 C 0.11176 0.90437 0.87791 0.0
C629 C 0.18295 0.77078 0.84297 0.0
C630 C 0.05726 0.91961 0.93549 0.0
C631 C 0.06708 0.90819 0.92122 0.0
C632 C 0.12692 0.79394 0.89961 0.0
C633 C 0.14147 0.81956 0.85962 0.0
C634 C 0.13011 0.83487 0.87455 0.0
C635 C 0.09851 0.87921 0.91805 0.0
C636 C 0.10883 0.86367 0.903 0.0
H637 H 0.11534 0.83531 0.82506 0.0
H638 H 0.097 0.86152 0.84949 0.0
H639 H 0.15086 0.72473 0.88333 0.0
H640 H 0.12785 0.8637 0.95206 0.0
H641 H 0.14474 0.84338 0.92732 0.0
C642 C 0.83059 0.30174 0.83868 0.0
C643 C 0.82308 0.2384 0.82915 0.0
C644 C 0.84274 0.28536 0.85237 0.0
C645 C 0.88243 0.12349 0.87388 0.0
H646 H 0.85908 0.26502 0.90545 0.0
C647 C 0.94539 0.10442 0.9296 0.0
C648 C 0.92619 0.12104 0.94173 0.0
C649 C 0.93285 0.11654 0.91577 0.0
C650 C 0.86562 0.22408 0.89683 0.0
H651 H 0.82225 0.10762 0.82673 0.0
H652 H 0.84195 0.07905 0.85084 0.0
H653 H 0.83543 0.28755 0.88199 0.0
H654 H 0.8783 0.15879 0.94894 0.0
H655 H 0.85624 0.17783 0.92503 0.0
H656 H 0.91158 0.05791 0.88897 0.0
C657 C 0.83919 0.14161 0.84759 0.0
C658 C 0.8524 0.2379 0.88326 0.0
C659 C 0.82732 0.15804 0.83382 0.0
C660 C 0.89402 0.1478 0.93979 0.0
C661 C 0.88138 0.1588 0.92604 0.0
C662 C 0.89538 0.10899 0.88754 0.0
C663 C 0.84734 0.20511 0.85701 0.0
C664 C 0.86076 0.18822 0.87157 0.0
C665 C 0.90068 0.14433 0.91382 0.0
C666 C 0.88719 0.15926 0.8992 0.0
H667 H 0.82728 0.36433 0.83555 0.0
H668 H 0.84913 0.33598 0.8592 0.0
H669 H 0.88978 0.08448 0.86511 0.0
H670 H 0.97022 0.08325 0.93081 0.0
H671 H 0.94857 0.10539 0.90664 0.0
C672 C 0.66354 0.05276 0.69145 0.0
C673 C 0.6654 0.13261 0.69661 0.0
C674 C 0.65181 0.03669 0.67767 0.0
C675 C 0.63334 0.13065 0.64234 0.0
H676 H 0.57632 0.94451 0.63845 0.0
C677 C 0.56111 0.06399 0.5902 0.0
C678 C 0.56009 0.9829 0.58554 0.0
C679 C 0.57365 0.08393 0.60371 0.0
C680 C 0.59245 -0.00378 0.6393 0.0
H681 H 0.65724 0.25853 0.69114 0.0
H682 H 0.63655 0.23053 0.66704 0.0
H683 H 0.59968 0.97676 0.66175 0.0
H684 H 0.57107 0.8592 0.59159 0.0
H685 H 0.59318 0.89394 0.61511 0.0
H686 H 0.62584 0.15015 0.61984 0.0
C687 C 0.64448 0.18025 0.67362 0.0
C688 C 0.60594 0.01471 0.65268 0.0
C689 C 0.65638 0.19637 0.68743 0.0
C690 C 0.57158 0.92221 0.59481 0.0
C691 C 0.58403 0.94213 0.60835 0.0
C692 C 0.61975 0.11222 0.62894 0.0
C693 C 0.64148 0.10002 0.66866 0.0
C694 C 0.62678 0.08176 0.65437 0.0
C695 C 0.58542 0.02329 0.61293 0.0
C696 C 0.5993 0.04441 0.62724 0.0
H697 H 0.67084 0.00239 0.69816 0.0
H698 H 0.65067 0.97433 0.6741 0.0
H699 H 0.64951 0.18228 0.6432 0.0
H700 H 0.55298 0.11249 0.58325 0.0
H701 H 0.57406 0.14694 0.60694 0.0
C702 C 0.41102 0.89619 0.58386 0.0
C703 C 0.39833 0.96112 0.57588 0.0
C704 C 0.3997 0.88045 0.59775 0.0
C705 C 0.3555 0.97488 0.62821 0.0
H706 H 0.34159 0.75224 0.63992 0.0
C707 C 0.29272 0.89407 0.68187 0.0
C708 C 0.30692 0.83125 0.68989 0.0
C709 C 0.30254 0.90853 0.66771 0.0
C710 C 0.34559 0.81473 0.63686 0.0
H711 H 0.3635 0.05986 0.57621 0.0
H712 H 0.34374 0.03239 0.60037 0.0
H713 H 0.36229 0.78102 0.61593 0.0
H714 H 0.34271 0.73455 0.68926 0.0
H715 H 0.35958 0.7594 0.66464 0.0
H716 H 0.33885 0.00856 0.64916 0.0
C717 C 0.36288 -0.00553 0.59602 0.0
C718 C 0.35754 0.83124 0.62311 0.0
C719 C 0.37425 0.0103 0.58216 0.0
C720 C 0.33071 0.78232 0.68332 0.0
C721 C 0.34048 0.79673 0.66919 0.0
C722 C 0.34352 0.95838 0.64195 0.0
C723 C 0.37534 0.92914 0.60397 0.0
C724 C 0.36272 0.91152 0.61863 0.0
C725 C 0.32678 0.86051 0.66125 0.0
C726 C 0.3385 0.87809 0.64646 0.0
H727 H 0.42985 0.85772 0.57939 0.0
H728 H 0.41022 0.83043 0.60366 0.0
H729 H 0.35965 0.03737 0.62519 0.0
H730 H 0.27411 0.93234 0.68655 0.0
H731 H 0.29114 0.95741 0.66182 0.0
C732 C 0.55807 0.34212 0.93985 0.0
C733 C 0.57463 0.39851 0.94852 0.0
C734 C 0.56865 0.32599 0.92584 0.0
C735 C 0.64119 0.34757 0.90203 0.0
H736 H 0.57862 0.3029 0.87191 0.0
C737 C 0.68146 0.24342 0.84534 0.0
C738 C 0.66403 0.27412 0.83356 0.0
C739 C 0.67043 0.25669 0.85939 0.0
C740 C 0.59647 0.31596 0.88015 0.0
H741 H 0.61552 0.48205 0.94907 0.0
H742 H 0.63292 0.45678 0.92457 0.0
H743 H 0.55944 0.33304 0.89604 0.0
H744 H 0.62081 0.34135 0.82737 0.0
H745 H 0.60236 0.36682 0.85172 0.0
H746 H 0.67817 0.33364 0.88601 0.0
C747 C 0.61216 0.42351 0.92868 0.0
C748 C 0.58545 0.33215 0.89408 0.0
C749 C 0.60178 0.43908 0.94271 0.0
C750 C 0.63523 0.31798 0.83617 0.0
C751 C 0.62431 0.33153 0.85018 0.0
C752 C 0.6522 0.33201 0.88808 0.0
C753 C 0.59595 0.36623 0.92007 0.0
C754 C 0.60764 0.34834 0.90522 0.0
C755 C 0.64172 0.30105 0.862 0.0
C756 C 0.63 0.31612 0.87694 0.0
H757 H 0.53684 0.31036 0.94387 0.0
H758 H 0.55569 0.28091 0.91962 0.0
H759 H 0.6591 0.35848 0.91034 0.0
H760 H 0.70381 0.20977 0.84373 0.0
H761 H 0.68429 0.23142 0.8682 0.0
C762 C 0.44089 0.65757 0.93254 0.0
C763 C 0.43611 0.58304 0.93946 0.0
C764 C 0.43043 0.66888 0.91842 0.0
C765 C 0.40089 0.56021 0.8858 0.0
H766 H 0.36237 0.76915 0.87732 0.0
C767 C 0.32896 0.62494 0.83346 0.0
C768 C 0.33549 0.69917 0.82662 0.0
C769 C 0.34138 0.60887 0.84715 0.0
C770 C 0.3733 0.71071 0.87947 0.0
H771 H 0.4172 0.46134 0.93699 0.0
H772 H 0.39834 0.48124 0.91241 0.0
H773 H 0.38487 0.74387 0.90103 0.0
H774 H 0.36078 0.814 0.82877 0.0
H775 H 0.38205 0.78633 0.85264 0.0
H776 H 0.38866 0.52699 0.86421 0.0
C777 C 0.41081 0.53062 0.91774 0.0
C778 C 0.38637 0.69623 0.89306 0.0
C779 C 0.42165 0.51907 0.93182 0.0
C780 C 0.35462 0.75696 0.83383 0.0
C781 C 0.36693 0.741 0.84751 0.0
C782 C 0.38758 0.57458 0.8722 0.0
C783 C 0.41448 0.60624 0.91094 0.0
C784 C 0.40058 0.62101 0.89639 0.0
C785 C 0.36051 0.66677 0.85433 0.0
C786 C 0.37384 0.65022 0.86887 0.0
H787 H 0.45215 0.70772 0.93817 0.0
H788 H 0.43444 0.72728 0.91344 0.0
H789 H 0.4119 0.50185 0.8879 0.0
H790 H 0.31404 0.57941 0.82827 0.0
H791 H 0.33568 0.55149 0.85219 0.0
C792 C 0.55214 0.53991 0.09602 0.0
C793 C 0.5735 0.51423 0.0851 0.0
C794 C 0.56411 0.56215 0.10955 0.0
C795 C 0.63612 0.53526 0.13308 0.0
H796 H 0.59815 0.71274 0.15461 0.0
C797 C 0.66249 0.58238 0.19319 0.0
C798 C 0.66553 0.6617 0.19852 0.0
C799 C 0.65277 0.5684 0.17904 0.0
C800 C 0.60928 0.66356 0.14868 0.0
H801 H 0.62443 0.49515 0.07978 0.0
H802 H 0.64514 0.53335 0.10325 0.0
H803 H 0.57807 0.68208 0.13053 0.0
H804 H 0.66122 0.78874 0.19298 0.0
H805 H 0.64477 0.76432 0.1681 0.0
H806 H 0.66763 0.51736 0.15106 0.0
C807 C 0.61906 0.53462 0.1015 0.0
C808 C 0.59746 0.64528 0.13494 0.0
C809 C 0.60713 0.51239 0.08802 0.0
C810 C 0.65932 0.72689 0.1892 0.0
C811 C 0.64951 0.71287 0.17499 0.0
C812 C 0.64793 0.55356 0.14677 0.0
C813 C 0.59774 0.55938 0.11249 0.0
C814 C 0.6106 0.58051 0.127 0.0
C815 C 0.64589 0.63334 0.16977 0.0
C816 C 0.63447 0.61739 0.15482 0.0
H817 H 0.52609 0.54173 0.09419 0.0
H818 H 0.54692 0.58 0.11779 0.0
H819 H 0.64665 0.48446 0.12737 0.0
H820 H 0.66748 0.53075 0.20002 0.0
H821 H 0.64993 0.50637 0.17547 0.0
C822 C 0.33197 0.43539 0.18871 0.0
C823 C 0.30548 0.38349 0.19142 0.0
C824 C 0.34281 0.44886 0.17469 0.0
C825 C 0.34158 0.35648 0.13858 0.0
H826 H 0.37101 0.56874 0.12633 0.0
C827 C 0.37192 0.42907 0.07956 0.0
C828 C 0.39959 0.47696 0.07676 0.0
C829 C 0.3608 0.4179 0.09358 0.0
C830 C 0.36324 0.50891 0.12964 0.0
H831 H 0.26892 0.30722 0.18139 0.0
H832 H 0.28777 0.331 0.15691 0.0
H833 H 0.34975 0.55061 0.15058 0.0
H834 H 0.43735 0.55024 0.0866 0.0
H835 H 0.4177 0.53119 0.11114 0.0
H836 H 0.35496 0.31488 0.11762 0.0
C837 C 0.30051 0.36023 0.16568 0.0
C838 C 0.35101 0.4985 0.14353 0.0
C839 C 0.28964 0.34679 0.17971 0.0
C840 C 0.41576 0.51377 0.08835 0.0
C841 C 0.40452 0.50281 0.10241 0.0
C842 C 0.35374 0.36693 0.12469 0.0
C843 C 0.32745 0.41074 0.16302 0.0
C844 C 0.34001 0.42218 0.14817 0.0
C845 C 0.37693 0.45466 0.10517 0.0
C846 C 0.36466 0.44329 0.12005 0.0
H847 H 0.34518 0.46338 0.19747 0.0
H848 H 0.36392 0.48717 0.17305 0.0
H849 H 0.3339 0.29655 0.14188 0.0
H850 H 0.3584 0.40124 0.07088 0.0
H851 H 0.33914 0.38165 0.09531 0.0
C852 C 0.58154 0.80112 0.44544 0.0
C853 C 0.57055 0.87859 0.44944 0.0
C854 C 0.59192 0.78553 0.43141 0.0
C855 C 0.62187 0.88889 0.39856 0.0
H856 H 0.60609 0.67911 0.3812 0.0
C857 C 0.68718 0.78746 0.34644 0.0
C858 C 0.66923 0.742 0.33641 0.0
C859 C 0.67422 0.80504 0.36 0.0
C860 C 0.61048 0.73836 0.3858 0.0
H861 H 0.56148 0.00019 0.4416 0.0
H862 H 0.57867 0.97236 0.41702 0.0
H863 H 0.58356 0.70901 0.40477 0.0
H864 H 0.62311 0.68096 0.33278 0.0
H865 H 0.60067 0.71116 0.35636 0.0
H866 H 0.64814 0.91884 0.37941 0.0
C867 C 0.57983 0.92393 0.42483 0.0
C868 C 0.59788 0.75518 0.39944 0.0
C869 C 0.56954 0.93962 0.43891 0.0
C870 C 0.63801 0.7144 0.34033 0.0
C871 C 0.62505 0.73202 0.35387 0.0
C872 C 0.63438 0.87216 0.38488 0.0
C873 C 0.59143 0.84681 0.42092 0.0
C874 C 0.60362 0.83041 0.40608 0.0
C875 C 0.64293 0.77773 0.3639 0.0
C876 C 0.62905 0.79642 0.37835 0.0
H877 H 0.58221 0.75224 0.45318 0.0
H878 H 0.60099 0.72564 0.42888 0.0
H879 H 0.62709 0.94722 0.40336 0.0
H880 H 0.71139 0.80918 0.34385 0.0
H881 H 0.68894 0.83929 0.3675 0.0
C882 C 0.44267 0.14806 0.43066 0.0
C883 C 0.42791 0.08604 0.43869 0.0
C884 C 0.43262 0.16383 0.41659 0.0
C885 C 0.38558 0.07569 0.38616 0.0
H886 H 0.37794 0.29997 0.37433 0.0
C887 C 0.31695 0.16942 0.33479 0.0
C888 C 0.33177 0.22824 0.32601 0.0
C889 C 0.32927 0.15257 0.34844 0.0
C890 C 0.38024 0.23701 0.37742 0.0
H891 H 0.39086 0.99228 0.43825 0.0
H892 H 0.3732 0.02004 0.41386 0.0
H893 H 0.39928 0.2681 0.39806 0.0
H894 H 0.37114 0.31577 0.32484 0.0
H895 H 0.39233 0.28708 0.34876 0.0
H896 H 0.36601 0.04482 0.36558 0.0
C897 C 0.39307 0.0554 0.41825 0.0
C898 C 0.39259 0.21866 0.39102 0.0
C899 C 0.40325 0.03936 0.43226 0.0
C900 C 0.3588 0.27102 0.33138 0.0
C901 C 0.37103 0.25439 0.34507 0.0
C902 C 0.37306 0.09409 0.3726 0.0
C903 C 0.4074 0.11833 0.41026 0.0
C904 C 0.39533 0.13775 0.39559 0.0
C905 C 0.35659 0.19443 0.35371 0.0
C906 C 0.37015 0.17497 0.36809 0.0
H907 H 0.46188 0.1847 0.4353 0.0
H908 H 0.44459 0.21186 0.41068 0.0
H909 H 0.38784 0.01267 0.38921 0.0
H910 H 0.29576 0.13627 0.33111 0.0
H911 H 0.31723 0.10703 0.35493 0.0
C912 C 0.9792 0.74923 0.986 0.0
C913 C 0.96731 0.77871 0.99912 0.0
C914 C 0.98127 0.66595 0.98384 0.0
C915 C 0.01364 0.55062 0.00986 0.0
H916 H 0.01048 0.35489 0.9871 0.0
C917 C 0.01563 0.24087 0.02886 0.0
C918 C 0.02039 0.18027 0.01859 0.0
C919 C 0.02663 0.31897 0.02609 0.0
C920 C 0.01257 0.41028 0.99327 0.0
H921 H 0.93996 0.74951 0.01825 0.0
H922 H 0.94303 0.60389 0.01439 0.0
H923 H 0.97753 0.47148 0.98 0.0
H924 H 0.04628 0.147 0.99922 0.0
H925 H 0.06439 0.28437 0.99405 0.0
H926 H 0.04762 0.4894 0.02343 0.0
C927 C 0.95156 0.64391 1.00597 0.0
C928 C -0.0069 0.47589 0.98936 0.0
C929 C 0.9497 0.72723 0.00818 0.0
C930 C 0.04191 0.19374 0.00714 0.0
C931 C 0.05237 0.27234 1.00419 0.0
C932 C 0.03319 0.48552 0.01372 0.0
C933 C 0.97131 0.61383 0.99484 0.0
C934 C -0.00761 0.54467 0.99807 0.0
C935 C 0.04107 0.33649 0.01274 0.0
C936 C 0.03163 0.4133 1.00588 0.0
H937 H -0.00756 0.78896 0.97879 0.0
H938 H -0.00399 0.6436 0.97503 0.0
H939 H 0.01433 0.60504 0.01637 0.0
H940 H -0.00051 0.2308 0.03791 0.0
H941 H 0.01834 0.36706 0.03312 0.0
C942 C 0.20621 0.46788 0.23918 0.0
C943 C 0.21469 0.46681 0.2538 0.0
C944 C 0.20896 0.53953 0.2313 0.0
C945 C 0.26645 0.6879 0.22958 0.0
H946 H 0.20969 0.87215 0.22404 0.0
C947 C 0.27528 0.98271 0.25541 0.0
C948 C 0.25923 0.0491 0.24938 0.0
C949 C 0.28145 0.91439 0.24698 0.0
C950 C 0.22603 0.82088 0.22491 0.0
H951 H 0.22801 0.53977 0.27215 0.0
H952 H 0.23071 0.66615 0.2586 0.0
H953 H 0.18607 0.73803 0.22706 0.0
H954 H 0.24055 0.10095 0.22975 0.0
H955 H 0.25081 0.98204 0.21515 0.0
H956 H 0.30611 0.77225 0.22967 0.0
C957 C 0.22292 0.61141 0.25316 0.0
C958 C 0.21235 0.74421 0.22667 0.0
C959 C 0.22102 0.53967 0.26093 0.0
C960 C 0.25354 0.051 0.23454 0.0
C961 C 0.25938 0.98273 0.22615 0.0
C962 C 0.28012 0.76477 0.22812 0.0
C963 C 0.21921 0.61035 0.23818 0.0
C964 C 0.23243 0.67874 0.23005 0.0
C965 C 0.27054 0.91151 0.23264 0.0
C966 C 0.25975 0.83255 0.22695 0.0
H967 H 0.20164 0.41202 0.23346 0.0
H968 H 0.20603 0.538 0.21974 0.0
H969 H 0.28223 0.63737 0.23218 0.0
H970 H 0.27952 0.97988 0.26688 0.0
H971 H 0.29013 0.86016 0.25229 0.0
C972 C 0.72608 0.02561 0.27346 0.0
C973 C 0.72069 0.95382 0.26582 0.0
C974 C 0.71382 0.09843 0.26822 0.0
C975 C 0.72709 0.17119 0.2359 0.0
H976 H 0.69472 0.37515 0.2506 0.0
C977 C 0.74821 0.53402 0.23485 0.0
C978 C 0.76359 0.54261 0.24823 0.0
C979 C 0.7418 0.45692 0.22945 0.0
C980 C 0.70322 0.31849 0.24605 0.0
H981 H 0.6935 0.89842 0.24852 0.0
H982 H 0.67462 0.02687 0.23855 0.0
H983 H 0.66981 0.24853 0.25869 0.0
H984 H 0.79083 0.48137 0.2648 0.0
H985 H 0.78154 0.34654 0.25488 0.0
H986 H 0.7639 0.24092 0.2251 0.0
C987 C 0.68745 0.02684 0.24872 0.0
C988 C 0.68883 0.24649 0.25062 0.0
C989 C 0.6985 0.95352 0.25436 0.0
C990 C 0.77899 0.47579 0.25445 0.0
C991 C 0.7735 0.39872 0.24879 0.0
C992 C 0.74217 0.24321 0.2317 0.0
C993 C 0.69734 0.09987 0.25502 0.0
C994 C 0.70175 0.17234 0.24611 0.0
C995 C 0.75195 0.38894 0.23719 0.0
C996 C 0.73115 0.31677 0.2373 0.0
H997 H 0.74293 0.02684 0.28241 0.0
H998 H 0.72164 0.15433 0.27327 0.0
H999 H 0.73779 0.11426 0.23254 0.0
H1000 H 0.73628 0.58533 0.22988 0.0
H1001 H 0.72512 0.4505 0.22051 0.0
C1002 C 0.02078 0.72695 0.48974 0.0
C1003 C 0.02563 0.71022 0.50437 0.0
C1004 C 0.01104 0.80429 0.48553 0.0
C1005 C 0.9553 0.93089 0.50183 0.0
H1006 H 0.9823 0.12111 0.48075 0.0
C1007 C 0.96458 0.23059 0.52212 0.0
C1008 C 0.9691 0.29463 0.51253 0.0
C1009 C 0.94977 0.15956 0.5174 0.0
C1010 C 0.97347 0.06745 0.4862 0.0
H1011 H 0.03261 0.76236 0.52541 0.0
H1012 H 0.01746 0.89871 0.51797 0.0
H1013 H 0.01393 -0.00312 0.47864 0.0
H1014 H 0.95726 0.34147 0.4915 0.0
H1015 H 0.93254 0.21628 0.48304 0.0
H1016 H 0.91684 0.00317 0.51055 0.0
C1017 C 0.01951 0.85178 0.50988 0.0
C1018 C -0.00802 -0.00308 0.48511 0.0
C1019 C 0.02873 0.77428 0.51409 0.0
C1020 C 0.95399 0.29239 0.49904 0.0
C1021 C 0.93968 0.22082 0.49421 0.0
C1022 C 0.93686 0.00131 0.50296 0.0
C1023 C 0.00749 0.86463 0.49595 0.0
C1024 C 0.9842 0.93057 0.49373 0.0
C1025 C 0.94103 0.15134 0.50285 0.0
C1026 C 0.94747 0.07213 0.49611 0.0
H1027 H 0.01838 0.67782 0.48208 0.0
H1028 H 0.00219 0.81364 0.4747 0.0
H1029 H 0.9486 0.8788 0.50827 0.0
H1030 H 0.97575 0.23196 0.53266 0.0
H1031 H 0.95057 0.1074 0.52444 0.0
C1032 C 0.20101 0.94335 0.74837 0.0
C1033 C 0.219 0.94626 0.76117 0.0
C1034 C 0.18893 0.01469 0.74239 0.0
C1035 C 0.1843 0.23498 0.74541 0.0
H1036 H 0.26605 0.23919 0.72429 0.0
C1037 C 0.27371 0.45857 0.75762 0.0
C1038 C 0.2644 0.52959 0.75057 0.0
C1039 C 0.26741 0.38376 0.75124 0.0
C1040 C 0.24252 0.23901 0.72958 0.0
H1041 H 0.23322 0.02089 0.77917 0.0
H1042 H 0.21052 0.14486 0.76918 0.0
H1043 H 0.23878 0.11011 0.72881 0.0
H1044 H 0.24664 0.58011 0.73062 0.0
H1045 H 0.23373 0.44933 0.71988 0.0
H1046 H 0.18958 0.36345 0.74717 0.0
C1047 C 0.20633 0.08838 0.76354 0.0
C1048 C 0.22676 0.1655 0.73212 0.0
C1049 C 0.21951 0.01767 0.76925 0.0
C1050 C 0.25401 0.52569 0.73621 0.0
C1051 C 0.24654 0.451 0.73004 0.0
C1052 C 0.19949 0.30866 0.74247 0.0
C1053 C 0.19402 0.0885 0.74946 0.0
C1054 C 0.19905 0.16265 0.74104 0.0
C1055 C 0.25097 0.38023 0.73803 0.0
C1056 C 0.22986 0.31013 0.73548 0.0
H1057 H 0.20024 0.88872 0.74202 0.0
H1058 H 0.17953 0.01362 0.73152 0.0
H1059 H 0.16324 0.23396 0.75244 0.0
H1060 H 0.28146 0.46042 0.76874 0.0
H1061 H 0.2709 0.32929 0.75755 0.0
C1062 C 0.6906 0.44243 0.75032 0.0
C1063 C 0.70938 0.44257 0.7629 0.0
C1064 C 0.67839 0.51533 0.74498 0.0
C1065 C 0.67823 0.73661 0.74996 0.0
H1066 H 0.75447 0.73363 0.72513 0.0
C1067 C 0.77217 0.95868 0.75739 0.0
C1068 C 0.76204 0.02798 0.75002 0.0
C1069 C 0.76403 0.88248 0.75202 0.0
C1070 C 0.73249 0.73552 0.73158 0.0
H1071 H 0.72405 0.51247 0.78141 0.0
H1072 H 0.70115 0.63868 0.7726 0.0
H1073 H 0.72552 0.6076 0.73032 0.0
H1074 H 0.74147 0.07368 0.73024 0.0
H1075 H 0.7258 0.94056 0.72121 0.0
H1076 H 0.68699 0.86378 0.75211 0.0
C1077 C 0.69663 0.58377 0.76654 0.0
C1078 C 0.7157 0.66383 0.73448 0.0
C1079 C 0.7099 0.51165 0.7716 0.0
C1080 C 0.74944 0.02048 0.73606 0.0
C1081 C 0.74032 0.94448 0.7309 0.0
C1082 C 0.69453 0.80848 0.74678 0.0
C1083 C 0.68418 0.58755 0.7525 0.0
C1084 C 0.68995 0.66312 0.74451 0.0
C1085 C 0.74529 0.87606 0.73946 0.0
C1086 C 0.72292 0.80719 0.73833 0.0
H1087 H 0.68958 0.38926 0.74356 0.0
H1088 H 0.66858 0.51691 0.73419 0.0
H1089 H 0.65876 0.73733 0.75783 0.0
H1090 H 0.78172 0.9634 0.7682 0.0
H1091 H 0.76805 0.82984 0.75874 0.0
C1092 C 0.48408 0.76966 0.48429 0.0
C1093 C 0.47143 0.77238 0.49831 0.0
C1094 C 0.49301 0.6957 0.47821 0.0
C1095 C 0.53815 0.54753 0.49025 0.0
H1096 H 0.49484 0.35397 0.47665 0.0
C1097 C 0.51171 0.26234 0.51799 0.0
C1098 C 0.5104 0.18991 0.51023 0.0
C1099 C 0.52615 0.33057 0.51187 0.0
C1100 C 0.50802 0.40775 0.47995 0.0
H1101 H 0.45316 0.70146 0.51606 0.0
H1102 H 0.4664 0.57131 0.50498 0.0
H1103 H 0.47073 0.48621 0.47182 0.0
H1104 H 0.52642 0.12838 0.49098 0.0
H1105 H 0.5498 0.24869 0.47991 0.0
H1106 H 0.57227 0.46844 0.50055 0.0
C1107 C 0.47032 0.62634 0.49888 0.0
C1108 C 0.49409 0.48317 0.4772 0.0
C1109 C 0.46253 0.70044 0.50518 0.0
C1110 C 0.5273 0.18355 0.49716 0.0
C1111 C 0.54088 0.25229 0.49084 0.0
C1112 C 0.55152 0.47198 0.49339 0.0
C1113 C 0.48791 0.62422 0.48593 0.0
C1114 C 0.50805 0.55274 0.48313 0.0
C1115 C 0.53804 0.32738 0.49771 0.0
C1116 C 0.5352 0.40154 0.48909 0.0
H1117 H 0.49101 0.82482 0.47885 0.0
H1118 H 0.50673 0.6951 0.46827 0.0
H1119 H 0.54907 0.60107 0.49497 0.0
H1120 H 0.49863 0.26844 0.52804 0.0
H1121 H 0.52353 0.38815 0.51735 0.0
C1122 C 0.52955 0.74694 0.00971 0.0
C1123 C 0.51541 0.6809 1.0027 0.0
C1124 C 0.53886 0.81484 1.00178 0.0
C1125 C 0.49119 0.91032 0.97727 0.0
H1126 H 0.54699 0.09023 0.9875 0.0
C1127 C 0.46456 0.25782 0.99226 0.0
C1128 C 0.47364 0.26193 1.0068 0.0
C1129 C 0.4698 0.18654 0.98446 0.0
C1130 C 0.53142 0.04082 0.98408 0.0
H1131 H 0.50458 0.62741 0.98204 0.0
H1132 H 0.51923 0.74728 0.96827 0.0
H1133 H 0.57025 0.95469 0.98543 0.0
H1134 H 0.48977 0.19301 0.02521 0.0
H1135 H 0.497 0.06736 0.01183 0.0
H1136 H 0.45154 -0.00527 0.97817 0.0
C1137 C 0.52387 0.74662 0.97972 0.0
C1138 C 0.54477 0.96356 0.98284 0.0
C1139 C 0.51525 0.67833 0.98763 0.0
C1140 C 0.48281 0.19115 0.01399 0.0
C1141 C 0.48731 0.11987 1.00631 0.0
C1142 C 0.47775 0.98746 0.97878 0.0
C1143 C 0.53288 0.81774 0.98689 0.0
C1144 C 0.52422 0.8969 0.98066 0.0
C1145 C 0.48316 0.11905 0.99136 0.0
C1146 C 0.49749 0.05149 0.98333 0.0
H1147 H 0.52963 0.75016 0.02133 0.0
H1148 H 0.54582 0.86904 0.00759 0.0
H1149 H 0.47476 0.8598 0.97557 0.0
H1150 H 0.4572 0.31174 0.98655 0.0
H1151 H 0.46607 0.1863 0.97294 0.0
C1152 C 0.30897 0.51228 0.00788 0.0
C1153 C 0.33312 0.49705 0.99758 0.0
C1154 C 0.2794 0.47076 0.00713 0.0
C1155 C 0.26196 0.26738 0.99702 0.0
H1156 H 0.17597 0.31079 0.01231 0.0
C1157 C 0.16239 0.02553 0.00705 0.0
C1158 C 0.14076 0.04178 0.01833 0.0
C1159 C 0.18748 0.08007 1.00404 0.0
C1160 C 0.20012 0.29787 0.0082 0.0
H1161 H 0.34376 0.44067 0.9771 0.0
H1162 H 0.29184 0.3694 0.97564 0.0
H1163 H 0.21051 0.42364 1.00486 0.0
H1164 H 0.13039 0.11897 0.03654 0.0
H1165 H 0.17523 0.21207 0.03178 0.0
H1166 H 0.25218 0.14203 1.00083 0.0
C1167 C 0.29597 0.41072 0.9845 0.0
C1168 C 0.21958 0.36235 1.00376 0.0
C1169 C 0.32558 0.45135 0.98534 0.0
C1170 C 0.14678 0.10641 0.02768 0.0
C1171 C 0.17208 0.15997 0.02484 0.0
C1172 C 0.24261 0.20302 1.00153 0.0
C1173 C 0.274 0.41457 0.99602 0.0
C1174 C 0.25084 0.34766 0.99832 0.0
C1175 C 0.19114 0.15034 0.01243 0.0
C1176 C 0.21177 0.2178 0.00742 0.0
H1177 H 0.31431 0.54813 0.01733 0.0
H1178 H 0.26266 0.47534 0.01609 0.0
H1179 H 0.28634 0.25442 0.99317 0.0
H1180 H 0.15788 0.97586 0.99971 0.0
H1181 H 0.20204 0.07083 0.99448 0.0
C1182 C 0.81383 0.00205 0.99769 0.0
C1183 C 0.84195 0.97398 0.99076 0.0
C1184 C 0.78399 0.9646 0.99499 0.0
C1185 C 0.76389 0.75763 0.98879 0.0
H1186 H 0.67572 0.83106 0.99587 0.0
C1187 C 0.65662 0.54601 1.0043 0.0
C1188 C 0.63457 0.57839 0.01428 0.0
C1189 C 0.68194 0.59393 0.99901 0.0
C1190 C 0.70032 0.80986 0.99395 0.0
H1191 H 0.86067 0.89683 0.97383 0.0
H1192 H 0.80839 0.83226 0.96895 0.0
H1193 H 0.71663 0.9275 0.98746 0.0
H1194 H 0.62331 0.68124 0.02783 0.0
H1195 H 0.66837 0.76373 0.01909 0.0
H1196 H 0.74816 0.6412 0.99601 0.0
C1197 C 0.80942 0.88084 0.97676 0.0
C1198 C 0.72352 0.86478 0.98898 0.0
C1199 C 0.83925 0.91741 0.97959 0.0
C1200 C 0.63987 0.65579 0.01996 0.0
C1201 C 0.66532 0.70315 0.01483 0.0
C1202 C 0.74075 0.70291 0.99381 0.0
C1203 C 0.78222 0.89943 0.98528 0.0
C1204 C 0.75577 0.83968 0.98682 0.0
C1205 C 0.6855 0.67418 1.00379 0.0
C1206 C 0.7091 0.72927 0.99693 0.0
H1207 H 0.81541 0.04656 1.00622 0.0
H1208 H 0.76334 0.98052 1.00167 0.0
H1209 H 0.78872 0.73671 0.98746 0.0
H1210 H 0.6528 0.48634 0.99975 0.0
H1211 H 0.69738 0.56992 0.99058 0.0
C1212 C 0.06407 0.2465 0.27883 0.0
C1213 C 0.07689 0.21608 0.26598 0.0
C1214 C 0.03617 0.29462 0.2785 0.0
C1215 C 0.97237 0.38402 0.25578 0.0
H1216 H 0.01002 0.58886 0.26792 0.0
C1217 C 0.90967 0.67056 0.23955 0.0
C1218 C 0.90209 0.71998 0.25131 0.0
C1219 C 0.93498 0.61489 0.24055 0.0
C1220 C -0.00092 0.53222 0.26457 0.0
H1221 H 0.06891 0.19996 0.24322 0.0
H1222 H 0.01946 0.28151 0.24266 0.0
H1223 H 0.0374 0.46226 0.27389 0.0
H1224 H 0.91749 0.76023 0.27236 0.0
H1225 H 0.96129 0.6615 0.27433 0.0
H1226 H 0.93397 0.45339 0.24653 0.0
C1227 C 0.03086 0.2696 0.25294 0.0
C1228 C 0.01448 0.4598 0.26813 0.0
C1229 C 0.05904 0.22276 0.25324 0.0
C1230 C 0.92299 0.72216 0.26319 0.0
C1231 C 0.94798 0.66528 0.26432 0.0
C1232 C 0.95677 0.45635 0.25235 0.0
C1233 C 0.02098 0.31135 0.26532 0.0
C1234 C 0.00138 0.38526 0.26365 0.0
C1235 C 0.95237 0.60704 0.25346 0.0
C1236 C 0.97021 0.53129 0.25654 0.0
H1237 H 0.07784 0.24229 0.28873 0.0
H1238 H 0.02862 0.32572 0.28819 0.0
H1239 H 0.96204 0.32723 0.25213 0.0
H1240 H 0.89401 0.66925 0.23018 0.0
H1241 H 0.93881 0.57288 0.23177 0.0
C1242 C 0.30433 0.98782 0.50958 0.0
C1243 C 0.32601 0.99259 0.498 0.0
C1244 C 0.27768 0.9354 0.5088 0.0
C1245 C 0.26717 0.73992 0.49168 0.0
H1246 H 0.18957 0.73065 0.5153 0.0
C1247 C 0.1738 0.47683 0.49845 0.0
C1248 C 0.16038 0.47133 0.51226 0.0
C1249 C 0.19864 0.53271 0.49574 0.0
C1250 C 0.21145 0.7325 0.50878 0.0
H1251 H 0.33422 0.96046 0.47577 0.0
H1252 H 0.28677 0.87205 0.47414 0.0
H1253 H 0.21445 0.86161 0.51012 0.0
H1254 H 0.16547 0.50717 0.53447 0.0
H1255 H 0.20949 0.60297 0.52986 0.0
H1256 H 0.26389 0.6104 0.49036 0.0
C1257 C 0.29095 0.90517 0.48401 0.0
C1258 C 0.22544 0.8074 0.50571 0.0
C1259 C 0.31784 0.95635 0.48488 0.0
C1260 C 0.17564 0.51082 0.52374 0.0
C1261 C 0.20044 0.5663 0.52107 0.0
C1262 C 0.25294 0.665 0.49464 0.0
C1263 C 0.27254 0.88841 0.49638 0.0
C1264 C 0.25388 0.81186 0.49739 0.0
C1265 C 0.20998 0.58254 0.50689 0.0
C1266 C 0.22549 0.66069 0.50352 0.0
H1267 H 0.31032 0.01552 0.51979 0.0
H1268 H 0.26373 0.92464 0.51849 0.0
H1269 H 0.2895 0.74089 0.48547 0.0
H1270 H 0.16206 0.44716 0.48945 0.0
H1271 H 0.20595 0.54382 0.48473 0.0
C1272 C 0.8452 0.40034 0.4887 0.0
C1273 C 0.85105 0.46298 0.49854 0.0
C1274 C 0.8145 0.36506 0.48785 0.0
C1275 C 0.72947 0.37031 0.50016 0.0
H1276 H 0.74576 0.14489 0.50958 0.0
C1277 C 0.62852 0.17019 0.52311 0.0
C1278 C 0.62632 0.09117 0.51772 0.0
C1279 C 0.65606 0.21685 0.52036 0.0
C1280 C 0.74065 0.20719 0.50674 0.0
H1281 H 0.82891 0.54534 0.51383 0.0
H1282 H 0.77507 0.4822 0.51257 0.0
H1283 H 0.79082 0.23159 0.50257 0.0
H1284 H 0.65123 -0.00318 0.50585 0.0
H1285 H 0.69903 0.07918 0.50055 0.0
H1286 H 0.6792 0.34575 0.50426 0.0
C1287 C 0.79419 0.46058 0.50551 0.0
C1288 C 0.76644 0.25679 0.50268 0.0
C1289 C 0.82497 0.49635 0.50629 0.0
C1290 C 0.65261 0.05767 0.51018 0.0
C1291 C 0.67992 0.10489 0.50716 0.0
C1292 C 0.7035 0.32029 0.50404 0.0
C1293 C 0.78939 0.39164 0.49692 0.0
C1294 C 0.76112 0.33882 0.49949 0.0
C1295 C 0.68151 0.18573 0.5119 0.0
C1296 C 0.70893 0.23844 0.50755 0.0
H1297 H 0.86483 0.37507 0.48233 0.0
H1298 H 0.81105 0.31298 0.48093 0.0
H1299 H 0.72489 0.43347 0.49777 0.0
H1300 H 0.60856 0.19661 0.52913 0.0
H1301 H 0.65704 0.27795 0.52456 0.0
C1302 C 0.9154 0.23169 0.74489 0.0
C1303 C 0.90011 0.25026 0.75792 0.0
C1304 C 0.94338 0.18388 0.7448 0.0
C1305 C 0.96849 0.01048 0.76411 0.0
H1306 H 0.04905 0.02223 0.74252 0.0
C1307 C 0.07371 0.78231 0.76852 0.0
C1308 C 0.09501 0.77692 0.75682 0.0
C1309 C 0.04613 0.83148 0.76759 0.0
C1310 C 0.02627 0.01734 0.74834 0.0
H1311 H 0.9028 0.24119 0.78106 0.0
H1312 H 0.95168 0.15617 0.78092 0.0
H1313 H 0.0141 0.14123 0.74408 0.0
H1314 H 0.10242 0.80637 0.73442 0.0
H1315 H 0.05338 0.88892 0.73251 0.0
H1316 H 0.98008 0.88621 0.76811 0.0
C1317 C 0.94232 0.17902 0.77084 0.0
C1318 C 0.00665 0.08588 0.74939 0.0
C1319 C 0.9147 0.2281 0.77092 0.0
C1320 C 0.08637 0.81134 0.74363 0.0
C1321 C 0.05855 0.85898 0.7426 0.0
C1322 C 0.98791 0.94157 0.76292 0.0
C1323 C 0.95562 0.15289 0.75774 0.0
C1324 C 0.9778 0.08307 0.75739 0.0
C1325 C 0.03961 0.8745 0.75487 0.0
C1326 C 0.01708 0.94436 0.75506 0.0
H1327 H 0.90404 0.24763 0.73478 0.0
H1328 H 0.95332 0.16435 0.73459 0.0
H1329 H 0.94581 0.00662 0.77004 0.0
H1330 H 0.08012 0.75587 0.77879 0.0
H1331 H 0.03188 0.84168 0.77721 0.0
C1332 C 0.57139 0.26202 0.75256 0.0
C1333 C 0.58775 0.24643 0.76543 0.0
C1334 C 0.54294 0.30781 0.75266 0.0
C1335 C 0.51976 0.48407 0.77144 0.0
H1336 H 0.4428 0.47875 0.74743 0.0
C1337 C 0.42242 0.73612 0.76724 0.0
C1338 C 0.4048 0.73866 0.75437 0.0
C1339 C 0.44815 0.68144 0.76872 0.0
C1340 C 0.46455 0.48148 0.75399 0.0
H1341 H 0.58629 0.25753 0.78857 0.0
H1342 H 0.53665 0.34001 0.78876 0.0
H1343 H 0.47344 0.35442 0.7515 0.0
H1344 H 0.40318 0.69874 0.73225 0.0
H1345 H 0.44921 0.60651 0.73455 0.0
H1346 H 0.5116 0.61161 0.77354 0.0
C1347 C 0.54553 0.31617 0.77865 0.0
C1348 C 0.48163 0.41006 0.75651 0.0
C1349 C 0.57366 0.26876 0.77855 0.0
C1350 C 0.41636 0.69668 0.74233 0.0
C1351 C 0.44233 0.64318 0.74372 0.0
C1352 C 0.5028 0.55573 0.76883 0.0
C1353 C 0.53125 0.3401 0.76563 0.0
C1354 C 0.50959 0.411 0.7651 0.0
C1355 C 0.45651 0.6301 0.75724 0.0
C1356 C 0.47536 0.55535 0.75987 0.0
H1357 H 0.58221 0.24529 0.74236 0.0
H1358 H 0.53233 0.32548 0.74249 0.0
H1359 H 0.54175 0.4865 0.77786 0.0
H1360 H 0.41375 0.76811 0.77666 0.0
H1361 H 0.45894 0.67342 0.77922 0.0
C1362 C 0.573 0.74033 0.2608 0.0
C1363 C 0.59441 0.77561 0.27074 0.0
C1364 C 0.54378 0.7793 0.25747 0.0
C1365 C 0.51967 0.98731 0.2549 0.0
H1366 H 0.43123 0.91206 0.24921 0.0
C1367 C 0.40927 0.19396 0.25445 0.0
C1368 C 0.38115 0.16875 0.24718 0.0
C1369 C 0.43745 0.14718 0.25377 0.0
C1370 C 0.45604 0.93347 0.25039 0.0
H1371 H 0.60089 0.87036 0.28652 0.0
H1372 H 0.54934 0.93702 0.28107 0.0
H1373 H 0.47278 0.8172 0.25752 0.0
H1374 H 0.36132 0.08242 0.23196 0.0
H1375 H 0.41092 0.0015 0.23051 0.0
H1376 H 0.5032 0.10349 0.24796 0.0
C1377 C 0.55546 0.88144 0.2755 0.0
C1378 C 0.4796 0.87933 0.25529 0.0
C1379 C 0.58471 0.84335 0.27866 0.0
C1380 C 0.38259 0.1017 0.23795 0.0
C1381 C 0.41087 0.05545 0.23713 0.0
C1382 C 0.49628 0.04114 0.24991 0.0
C1383 C 0.53603 0.85293 0.26418 0.0
C1384 C 0.51125 0.90678 0.25804 0.0
C1385 C 0.43787 0.07519 0.24568 0.0
C1386 C 0.464 0.01541 0.24804 0.0
H1387 H 0.58031 0.68784 0.2546 0.0
H1388 H 0.52892 0.75609 0.24878 0.0
H1389 H 0.54432 0.00901 0.25653 0.0
H1390 H 0.40876 0.24594 0.26155 0.0
H1391 H 0.45786 0.16397 0.2605 0.0
loop_
_geom_bond_atom_site_label_1
_geom_bond_atom_site_label_2
_geom_bond_distance
_geom_bond_site_symmetry_2
_ccdc_geom_bond_type
Cd0 N3 2.334 1_554 S
Cd0 N29 2.304 . S
Cd0 O36 2.270 . S
Cd0 O39 2.273 1_545 S
Cd0 O40 2.415 1_554 S
Cd0 O41 2.330 1_545 S
Cd1 N16 2.304 . S
Cd1 N20 2.334 1_554 S
Cd1 O37 2.273 1_565 S
Cd1 O38 2.270 . S
Cd1 O42 2.415 1_554 S
Cd1 O43 2.330 1_565 S
C2 N3 1.332 1_565 S
C2 C6 1.381 . S
C2 H8 0.931 . S
N3 Cd0 2.334 1_556 S
N3 C2 1.332 1_545 S
N3 C7 1.328 . S
C4 C5 1.396 . S
C4 C7 1.378 . S
C4 H46 0.931 . S
C5 C4 1.396 . S
C5 C6 1.382 1_545 S
C6 C2 1.381 . S
C6 C5 1.382 1_565 S
C6 H47 0.930 . S
C7 N3 1.328 . S
C7 C4 1.378 . S
C7 H9 0.930 . S
H8 C2 0.931 . S
H9 C7 0.930 . S
C10 O36 1.242 1_655 S
C10 O37 1.253 . S
C11 C12 1.379 . S
C11 N16 1.337 1_545 S
C11 H17 0.929 . S
C12 C11 1.379 . S
C12 C13 1.380 1_545 S
C12 H48 0.929 . S
C13 C12 1.380 1_565 S
C13 C14 1.399 . S
C14 C13 1.399 . S
C14 C15 1.376 . S
C14 H49 0.931 . S
C15 C14 1.376 . S
C15 N16 1.338 . S
C15 H18 0.930 . S
N16 Cd1 2.304 . S
N16 C11 1.337 1_565 S
N16 C15 1.338 . S
H17 C11 0.929 . S
H18 C15 0.930 . S
C19 N20 1.332 1_545 S
C19 C23 1.381 . S
C19 H25 0.931 . S
N20 Cd1 2.334 1_556 S
N20 C19 1.332 1_565 S
N20 C24 1.328 . S
C21 C22 1.396 . S
C21 C24 1.378 . S
C21 H50 0.931 . S
C22 C21 1.396 . S
C22 C23 1.382 1_565 S
C23 C19 1.381 . S
C23 C22 1.382 1_545 S
C23 H51 0.930 . S
C24 N20 1.328 . S
C24 C21 1.378 . S
C24 H26 0.930 . S
H25 C19 0.931 . S
H26 C24 0.930 . S
C27 O38 1.242 1_455 S
C27 O39 1.253 . S
C28 O40 1.235 1_554 S
C28 O41 1.236 1_545 S
N29 Cd0 2.304 . S
N29 C30 1.337 1_545 S
N29 C34 1.338 . S
C30 N29 1.337 1_565 S
C30 C31 1.379 . S
C30 H44 0.929 . S
C31 C30 1.379 . S
C31 C32 1.380 1_565 S
C31 H52 0.929 . S
C32 C31 1.380 1_545 S
C32 C33 1.399 . S
C33 C32 1.399 . S
C33 C34 1.376 . S
C33 H53 0.931 . S
C34 N29 1.338 . S
C34 C33 1.376 . S
C34 H45 0.930 . S
C35 O42 1.235 1_554 S
C35 O43 1.236 1_565 S
O36 Cd0 2.270 . S
O36 C10 1.242 1_455 S
O37 Cd1 2.273 1_545 S
O37 C10 1.253 . S
O38 Cd1 2.270 . S
O38 C27 1.242 1_655 S
O39 Cd0 2.273 1_565 S
O39 C27 1.253 . S
O40 Cd0 2.415 1_556 S
O40 C28 1.235 1_556 S
O41 Cd0 2.330 1_565 S
O41 C28 1.236 1_565 S
O42 Cd1 2.415 1_556 S
O42 C35 1.235 1_556 S
O43 Cd1 2.330 1_545 S
O43 C35 1.236 1_545 S
H44 C30 0.929 . S
H45 C34 0.930 . S
H46 C4 0.931 . S
H47 C6 0.930 . S
H48 C12 0.929 . S
H49 C14 0.931 . S
H50 C21 0.931 . S
H51 C23 0.930 . S
H52 C31 0.929 . S
H53 C33 0.931 . S
Cd54 N57 2.334 . S
Cd54 N83 2.304 . S
Cd54 O90 2.268 . S
Cd54 O93 2.273 . S
Cd54 O94 2.417 . S
Cd54 O95 2.330 . S
Cd55 N70 2.304 . S
Cd55 N74 2.334 . S
Cd55 O91 2.273 . S
Cd55 O92 2.268 . S
Cd55 O96 2.417 . S
Cd55 O97 2.330 . S
C56 N57 1.332 . S
C56 C60 1.381 . S
C56 H62 0.931 . S
N57 Cd54 2.334 . S
N57 C56 1.332 . S
N57 C61 1.328 . S
C58 C59 1.396 . S
C58 C61 1.378 . S
C58 H100 0.931 . S
C59 C58 1.396 . S
C59 C60 1.382 . S
C60 C56 1.381 . S
C60 C59 1.382 . S
C60 H101 0.930 . S
C61 N57 1.328 . S
C61 C58 1.378 . S
C61 H63 0.930 . S
H62 C56 0.931 . S
H63 C61 0.930 . S
C64 O90 1.238 . S
C64 O91 1.253 . S
C65 C66 1.379 . S
C65 N70 1.337 . S
C65 H71 0.929 . S
C66 C65 1.379 . S
C66 C67 1.380 . S
C66 H102 0.929 . S
C67 C66 1.380 . S
C67 C68 1.399 . S
C68 C67 1.399 . S
C68 C69 1.376 . S
C68 H103 0.931 . S
C69 C68 1.376 . S
C69 N70 1.338 . S
C69 H72 0.930 . S
N70 Cd55 2.304 . S
N70 C65 1.337 . S
N70 C69 1.338 . S
H71 C65 0.929 . S
H72 C69 0.930 . S
C73 N74 1.332 . S
C73 C77 1.381 . S
C73 H79 0.931 . S
N74 Cd55 2.334 . S
N74 C73 1.332 . S
N74 C78 1.328 . S
C75 C76 1.396 . S
C75 C78 1.378 . S
C75 H104 0.931 . S
C76 C75 1.396 . S
C76 C77 1.382 . S
C77 C73 1.381 . S
C77 C76 1.382 . S
C77 H105 0.930 . S
C78 N74 1.328 . S
C78 C75 1.378 . S
C78 H80 0.930 . S
H79 C73 0.931 . S
H80 C78 0.930 . S
C81 O92 1.238 . S
C81 O93 1.253 . S
C82 O94 1.239 . S
C82 O95 1.230 . S
N83 Cd54 2.304 . S
N83 C84 1.337 . S
N83 C88 1.338 . S
C84 N83 1.337 . S
C84 C85 1.379 . S
C84 H98 0.929 . S
C85 C84 1.379 . S
C85 C86 1.380 . S
C85 H106 0.929 . S
C86 C85 1.380 . S
C86 C87 1.399 . S
C87 C86 1.399 . S
C87 C88 1.376 . S
C87 H107 0.931 . S
C88 N83 1.338 . S
C88 C87 1.376 . S
C88 H99 0.930 . S
C89 O96 1.239 . S
C89 O97 1.230 . S
O90 Cd54 2.268 . S
O90 C64 1.238 . S
O91 Cd55 2.273 . S
O91 C64 1.253 . S
O92 Cd55 2.268 . S
O92 C81 1.238 . S
O93 Cd54 2.273 . S
O93 C81 1.253 . S
O94 Cd54 2.417 . S
O94 C82 1.239 . S
O95 Cd54 2.330 . S
O95 C82 1.230 . S
O96 Cd55 2.417 . S
O96 C89 1.239 . S
O97 Cd55 2.330 . S
O97 C89 1.230 . S
H98 C84 0.929 . S
H99 C88 0.930 . S
H100 C58 0.931 . S
H101 C60 0.930 . S
H102 C66 0.929 . S
H103 C68 0.931 . S
H104 C75 0.931 . S
H105 C77 0.930 . S
H106 C85 0.929 . S
H107 C87 0.931 . S
Cd108 N111 2.334 . S
Cd108 N137 2.304 . S
Cd108 O144 2.268 . S
Cd108 O147 2.273 . S
Cd108 O148 2.417 . S
Cd108 O149 2.330 . S
Cd109 N124 2.304 . S
Cd109 N128 2.334 . S
Cd109 O145 2.273 . S
Cd109 O146 2.268 . S
Cd109 O150 2.417 . S
Cd109 O151 2.330 . S
C110 N111 1.332 . S
C110 C114 1.381 . S
C110 H116 0.931 . S
N111 Cd108 2.334 . S
N111 C110 1.332 . S
N111 C115 1.328 . S
C112 C113 1.396 . S
C112 C115 1.378 . S
C112 H154 0.931 . S
C113 C112 1.396 . S
C113 C114 1.382 . S
C114 C110 1.381 . S
C114 C113 1.382 . S
C114 H155 0.930 . S
C115 N111 1.328 . S
C115 C112 1.378 . S
C115 H117 0.930 . S
H116 C110 0.931 . S
H117 C115 0.930 . S
C118 O144 1.238 . S
C118 O145 1.253 . S
C119 C120 1.379 . S
C119 N124 1.337 . S
C119 H125 0.929 . S
C120 C119 1.379 . S
C120 C121 1.380 . S
C120 H156 0.929 . S
C121 C120 1.380 . S
C121 C122 1.399 . S
C122 C121 1.399 . S
C122 C123 1.376 . S
C122 H157 0.931 . S
C123 C122 1.376 . S
C123 N124 1.338 . S
C123 H126 0.930 . S
N124 Cd109 2.304 . S
N124 C119 1.337 . S
N124 C123 1.338 . S
H125 C119 0.929 . S
H126 C123 0.930 . S
C127 N128 1.332 . S
C127 C131 1.381 . S
C127 H133 0.931 . S
N128 Cd109 2.334 . S
N128 C127 1.332 . S
N128 C132 1.328 . S
C129 C130 1.396 . S
C129 C132 1.378 . S
C129 H158 0.931 . S
C130 C129 1.396 . S
C130 C131 1.382 . S
C131 C127 1.381 . S
C131 C130 1.382 . S
C131 H159 0.930 . S
C132 N128 1.328 . S
C132 C129 1.378 . S
C132 H134 0.930 . S
H133 C127 0.931 . S
H134 C132 0.930 . S
C135 O146 1.238 . S
C135 O147 1.253 . S
C136 O148 1.239 . S
C136 O149 1.230 . S
N137 Cd108 2.304 . S
N137 C138 1.337 . S
N137 C142 1.338 . S
C138 N137 1.337 . S
C138 C139 1.379 . S
C138 H152 0.929 . S
C139 C138 1.379 . S
C139 C140 1.380 . S
C139 H160 0.929 . S
C140 C139 1.380 . S
C140 C141 1.399 . S
C141 C140 1.399 . S
C141 C142 1.376 . S
C141 H161 0.931 . S
C142 N137 1.338 . S
C142 C141 1.376 . S
C142 H153 0.930 . S
C143 O150 1.239 . S
C143 O151 1.230 . S
O144 Cd108 2.268 . S
O144 C118 1.238 . S
O145 Cd109 2.273 . S
O145 C118 1.253 . S
O146 Cd109 2.268 . S
O146 C135 1.238 . S
O147 Cd108 2.273 . S
O147 C135 1.253 . S
O148 Cd108 2.417 . S
O148 C136 1.239 . S
O149 Cd108 2.330 . S
O149 C136 1.230 . S
O150 Cd109 2.417 . S
O150 C143 1.239 . S
O151 Cd109 2.330 . S
O151 C143 1.230 . S
H152 C138 0.929 . S
H153 C142 0.930 . S
H154 C112 0.931 . S
H155 C114 0.930 . S
H156 C120 0.929 . S
H157 C122 0.931 . S
H158 C129 0.931 . S
H159 C131 0.930 . S
H160 C139 0.929 . S
H161 C141 0.931 . S
Cd162 N165 2.334 . S
Cd162 N191 2.304 . S
Cd162 O198 2.268 . S
Cd162 O201 2.273 . S
Cd162 O202 2.417 . S
Cd162 O203 2.330 . S
Cd163 N178 2.304 . S
Cd163 N182 2.334 . S
Cd163 O199 2.273 . S
Cd163 O200 2.268 . S
Cd163 O204 2.417 . S
Cd163 O205 2.330 . S
C164 N165 1.332 . S
C164 C168 1.381 . S
C164 H170 0.931 . S
N165 Cd162 2.334 . S
N165 C164 1.332 . S
N165 C169 1.328 . S
C166 C167 1.396 . S
C166 C169 1.378 . S
C166 H208 0.931 . S
C167 C166 1.396 . S
C167 C168 1.382 . S
C168 C164 1.381 . S
C168 C167 1.382 . S
C168 H209 0.930 . S
C169 N165 1.328 . S
C169 C166 1.378 . S
C169 H171 0.930 . S
H170 C164 0.931 . S
H171 C169 0.930 . S
C172 O198 1.238 1_655 S
C172 O199 1.253 . S
C173 C174 1.379 . S
C173 N178 1.337 . S
C173 H179 0.929 . S
C174 C173 1.379 . S
C174 C175 1.380 . S
C174 H210 0.929 . S
C175 C174 1.380 . S
C175 C176 1.399 . S
C176 C175 1.399 . S
C176 C177 1.376 . S
C176 H211 0.931 . S
C177 C176 1.376 . S
C177 N178 1.338 . S
C177 H180 0.930 . S
N178 Cd163 2.304 . S
N178 C173 1.337 . S
N178 C177 1.338 . S
H179 C173 0.929 . S
H180 C177 0.930 . S
C181 N182 1.332 . S
C181 C185 1.381 . S
C181 H187 0.931 . S
N182 Cd163 2.334 . S
N182 C181 1.332 . S
N182 C186 1.328 . S
C183 C184 1.396 . S
C183 C186 1.378 . S
C183 H212 0.931 . S
C184 C183 1.396 . S
C184 C185 1.382 . S
C185 C181 1.381 . S
C185 C184 1.382 . S
C185 H213 0.930 . S
C186 N182 1.328 . S
C186 C183 1.378 . S
C186 H188 0.930 . S
H187 C181 0.931 . S
H188 C186 0.930 . S
C189 O200 1.238 1_455 S
C189 O201 1.253 . S
C190 O202 1.239 . S
C190 O203 1.230 . S
N191 Cd162 2.304 . S
N191 C192 1.337 . S
N191 C196 1.338 . S
C192 N191 1.337 . S
C192 C193 1.379 . S
C192 H206 0.929 . S
C193 C192 1.379 . S
C193 C194 1.380 . S
C193 H214 0.929 . S
C194 C193 1.380 . S
C194 C195 1.399 . S
C195 C194 1.399 . S
C195 C196 1.376 . S
C195 H215 0.931 . S
C196 N191 1.338 . S
C196 C195 1.376 . S
C196 H207 0.930 . S
C197 O204 1.239 . S
C197 O205 1.230 . S
O198 Cd162 2.268 . S
O198 C172 1.238 1_455 S
O199 Cd163 2.273 . S
O199 C172 1.253 . S
O200 Cd163 2.268 . S
O200 C189 1.238 1_655 S
O201 Cd162 2.273 . S
O201 C189 1.253 . S
O202 Cd162 2.417 . S
O202 C190 1.239 . S
O203 Cd162 2.330 . S
O203 C190 1.230 . S
O204 Cd163 2.417 . S
O204 C197 1.239 . S
O205 Cd163 2.330 . S
O205 C197 1.230 . S
H206 C192 0.929 . S
H207 C196 0.930 . S
H208 C166 0.931 . S
H209 C168 0.930 . S
H210 C174 0.929 . S
H211 C176 0.931 . S
H212 C183 0.931 . S
H213 C185 0.930 . S
H214 C193 0.929 . S
H215 C195 0.931 . S
Cd216 N219 2.334 . S
Cd216 N245 2.304 . S
Cd216 O252 2.268 . S
Cd216 O255 2.273 . S
Cd216 O256 2.417 . S
Cd216 O257 2.330 . S
Cd217 N232 2.304 . S
Cd217 N236 2.334 . S
Cd217 O253 2.273 . S
Cd217 O254 2.268 . S
Cd217 O258 2.417 . S
Cd217 O259 2.330 . S
C218 N219 1.332 . S
C218 C222 1.381 . S
C218 H224 0.931 . S
N219 Cd216 2.334 . S
N219 C218 1.332 . S
N219 C223 1.328 . S
C220 C221 1.396 . S
C220 C223 1.378 . S
C220 H262 0.931 . S
C221 C220 1.396 . S
C221 C222 1.382 . S
C222 C218 1.381 . S
C222 C221 1.382 . S
C222 H263 0.930 . S
C223 N219 1.328 . S
C223 C220 1.378 . S
C223 H225 0.930 . S
H224 C218 0.931 . S
H225 C223 0.930 . S
C226 O252 1.238 . S
C226 O253 1.253 . S
C227 C228 1.379 . S
C227 N232 1.337 . S
C227 H233 0.929 . S
C228 C227 1.379 . S
C228 C229 1.380 . S
C228 H264 0.929 . S
C229 C228 1.380 . S
C229 C230 1.399 . S
C230 C229 1.399 . S
C230 C231 1.376 . S
C230 H265 0.931 . S
C231 C230 1.376 . S
C231 N232 1.338 . S
C231 H234 0.930 . S
N232 Cd217 2.304 . S
N232 C227 1.337 . S
N232 C231 1.338 . S
H233 C227 0.929 . S
H234 C231 0.930 . S
C235 N236 1.332 . S
C235 C239 1.381 . S
C235 H241 0.931 . S
N236 Cd217 2.334 . S
N236 C235 1.332 . S
N236 C240 1.328 . S
C237 C238 1.396 . S
C237 C240 1.378 . S
C237 H266 0.931 . S
C238 C237 1.396 . S
C238 C239 1.382 . S
C239 C235 1.381 . S
C239 C238 1.382 . S
C239 H267 0.930 . S
C240 N236 1.328 . S
C240 C237 1.378 . S
C240 H242 0.930 . S
H241 C235 0.931 . S
H242 C240 0.930 . S
C243 O254 1.238 . S
C243 O255 1.253 . S
C244 O256 1.239 . S
C244 O257 1.230 . S
N245 Cd216 2.304 . S
N245 C246 1.337 . S
N245 C250 1.338 . S
C246 N245 1.337 . S
C246 C247 1.379 . S
C246 H260 0.929 . S
C247 C246 1.379 . S
C247 C248 1.380 . S
C247 H268 0.929 . S
C248 C247 1.380 . S
C248 C249 1.399 . S
C249 C248 1.399 . S
C249 C250 1.376 . S
C249 H269 0.931 . S
C250 N245 1.338 . S
C250 C249 1.376 . S
C250 H261 0.930 . S
C251 O258 1.239 . S
C251 O259 1.230 . S
O252 Cd216 2.268 . S
O252 C226 1.238 . S
O253 Cd217 2.273 . S
O253 C226 1.253 . S
O254 Cd217 2.268 . S
O254 C243 1.238 . S
O255 Cd216 2.273 . S
O255 C243 1.253 . S
O256 Cd216 2.417 . S
O256 C244 1.239 . S
O257 Cd216 2.330 . S
O257 C244 1.230 . S
O258 Cd217 2.417 . S
O258 C251 1.239 . S
O259 Cd217 2.330 . S
O259 C251 1.230 . S
H260 C246 0.929 . S
H261 C250 0.930 . S
H262 C220 0.931 . S
H263 C222 0.930 . S
H264 C228 0.929 . S
H265 C230 0.931 . S
H266 C237 0.931 . S
H267 C239 0.930 . S
H268 C247 0.929 . S
H269 C249 0.931 . S
Cd270 N273 2.334 . S
Cd270 N299 2.304 . S
Cd270 O306 2.268 . S
Cd270 O309 2.273 . S
Cd270 O310 2.417 . S
Cd270 O311 2.330 . S
Cd271 N286 2.304 . S
Cd271 N290 2.334 . S
Cd271 O307 2.273 . S
Cd271 O308 2.268 . S
Cd271 O312 2.417 . S
Cd271 O313 2.330 . S
C272 N273 1.332 . S
C272 C276 1.381 . S
C272 H278 0.931 . S
N273 Cd270 2.334 . S
N273 C272 1.332 . S
N273 C277 1.328 . S
C274 C275 1.396 . S
C274 C277 1.378 . S
C274 H316 0.931 . S
C275 C274 1.396 . S
C275 C276 1.382 . S
C276 C272 1.381 . S
C276 C275 1.382 . S
C276 H317 0.930 . S
C277 N273 1.328 . S
C277 C274 1.378 . S
C277 H279 0.930 . S
H278 C272 0.931 . S
H279 C277 0.930 . S
C280 O306 1.238 . S
C280 O307 1.253 . S
C281 C282 1.379 . S
C281 N286 1.337 . S
C281 H287 0.929 . S
C282 C281 1.379 . S
C282 C283 1.380 . S
C282 H318 0.929 . S
C283 C282 1.380 . S
C283 C284 1.399 . S
C284 C283 1.399 . S
C284 C285 1.376 . S
C284 H319 0.931 . S
C285 C284 1.376 . S
C285 N286 1.338 . S
C285 H288 0.930 . S
N286 Cd271 2.304 . S
N286 C281 1.337 . S
N286 C285 1.338 . S
H287 C281 0.929 . S
H288 C285 0.930 . S
C289 N290 1.332 . S
C289 C293 1.381 . S
C289 H295 0.931 . S
N290 Cd271 2.334 . S
N290 C289 1.332 . S
N290 C294 1.328 . S
C291 C292 1.396 . S
C291 C294 1.378 . S
C291 H320 0.931 . S
C292 C291 1.396 . S
C292 C293 1.382 . S
C293 C289 1.381 . S
C293 C292 1.382 . S
C293 H321 0.930 . S
C294 N290 1.328 . S
C294 C291 1.378 . S
C294 H296 0.930 . S
H295 C289 0.931 . S
H296 C294 0.930 . S
C297 O308 1.238 . S
C297 O309 1.253 . S
C298 O310 1.239 . S
C298 O311 1.230 . S
N299 Cd270 2.304 . S
N299 C300 1.337 . S
N299 C304 1.338 . S
C300 N299 1.337 . S
C300 C301 1.379 . S
C300 H314 0.929 . S
C301 C300 1.379 . S
C301 C302 1.380 . S
C301 H322 0.929 . S
C302 C301 1.380 . S
C302 C303 1.399 . S
C303 C302 1.399 . S
C303 C304 1.376 . S
C303 H323 0.931 . S
C304 N299 1.338 . S
C304 C303 1.376 . S
C304 H315 0.930 . S
C305 O312 1.239 . S
C305 O313 1.230 . S
O306 Cd270 2.268 . S
O306 C280 1.238 . S
O307 Cd271 2.273 . S
O307 C280 1.253 . S
O308 Cd271 2.268 . S
O308 C297 1.238 . S
O309 Cd270 2.273 . S
O309 C297 1.253 . S
O310 Cd270 2.417 . S
O310 C298 1.239 . S
O311 Cd270 2.330 . S
O311 C298 1.230 . S
O312 Cd271 2.417 . S
O312 C305 1.239 . S
O313 Cd271 2.330 . S
O313 C305 1.230 . S
H314 C300 0.929 . S
H315 C304 0.930 . S
H316 C274 0.931 . S
H317 C276 0.930 . S
H318 C282 0.929 . S
H319 C284 0.931 . S
H320 C291 0.931 . S
H321 C293 0.930 . S
H322 C301 0.929 . S
H323 C303 0.931 . S
Cd324 N327 2.334 . S
Cd324 N353 2.304 . S
Cd324 O360 2.268 . S
Cd324 O363 2.273 1_545 S
Cd324 O364 2.417 . S
Cd324 O365 2.330 1_545 S
Cd325 N340 2.304 . S
Cd325 N344 2.334 . S
Cd325 O361 2.273 1_565 S
Cd325 O362 2.268 . S
Cd325 O366 2.417 . S
Cd325 O367 2.330 1_565 S
C326 N327 1.332 1_565 S
C326 C330 1.381 . S
C326 H332 0.931 . S
N327 Cd324 2.334 . S
N327 C326 1.332 1_545 S
N327 C331 1.328 . S
C328 C329 1.396 . S
C328 C331 1.378 . S
C328 H370 0.931 . S
C329 C328 1.396 . S
C329 C330 1.382 1_545 S
C330 C326 1.381 . S
C330 C329 1.382 1_565 S
C330 H371 0.930 . S
C331 N327 1.328 . S
C331 C328 1.378 . S
C331 H333 0.930 . S
H332 C326 0.931 . S
H333 C331 0.930 . S
C334 O360 1.238 . S
C334 O361 1.253 . S
C335 C336 1.379 . S
C335 N340 1.337 1_545 S
C335 H341 0.929 . S
C336 C335 1.379 . S
C336 C337 1.380 1_545 S
C336 H372 0.929 . S
C337 C336 1.380 1_565 S
C337 C338 1.399 . S
C338 C337 1.399 . S
C338 C339 1.376 . S
C338 H373 0.931 . S
C339 C338 1.376 . S
C339 N340 1.338 . S
C339 H342 0.930 . S
N340 Cd325 2.304 . S
N340 C335 1.337 1_565 S
N340 C339 1.338 . S
H341 C335 0.929 . S
H342 C339 0.930 . S
C343 N344 1.332 1_545 S
C343 C347 1.381 . S
C343 H349 0.931 . S
N344 Cd325 2.334 . S
N344 C343 1.332 1_565 S
N344 C348 1.328 . S
C345 C346 1.396 . S
C345 C348 1.378 . S
C345 H374 0.931 . S
C346 C345 1.396 . S
C346 C347 1.382 1_565 S
C347 C343 1.381 . S
C347 C346 1.382 1_545 S
C347 H375 0.930 . S
C348 N344 1.328 . S
C348 C345 1.378 . S
C348 H350 0.930 . S
H349 C343 0.931 . S
H350 C348 0.930 . S
C351 O362 1.238 . S
C351 O363 1.253 . S
C352 O364 1.239 . S
C352 O365 1.230 1_545 S
N353 Cd324 2.304 . S
N353 C354 1.337 1_545 S
N353 C358 1.338 . S
C354 N353 1.337 1_565 S
C354 C355 1.379 . S
C354 H368 0.929 . S
C355 C354 1.379 . S
C355 C356 1.380 1_565 S
C355 H376 0.929 . S
C356 C355 1.380 1_545 S
C356 C357 1.399 . S
C357 C356 1.399 . S
C357 C358 1.376 . S
C357 H377 0.931 . S
C358 N353 1.338 . S
C358 C357 1.376 . S
C358 H369 0.930 . S
C359 O366 1.239 . S
C359 O367 1.230 1_565 S
O360 Cd324 2.268 . S
O360 C334 1.238 . S
O361 Cd325 2.273 1_545 S
O361 C334 1.253 . S
O362 Cd325 2.268 . S
O362 C351 1.238 . S
O363 Cd324 2.273 1_565 S
O363 C351 1.253 . S
O364 Cd324 2.417 . S
O364 C352 1.239 . S
O365 Cd324 2.330 1_565 S
O365 C352 1.230 1_565 S
O366 Cd325 2.417 . S
O366 C359 1.239 . S
O367 Cd325 2.330 1_545 S
O367 C359 1.230 1_545 S
H368 C354 0.929 . S
H369 C358 0.930 . S
H370 C328 0.931 . S
H371 C330 0.930 . S
H372 C336 0.929 . S
H373 C338 0.931 . S
H374 C345 0.931 . S
H375 C347 0.930 . S
H376 C355 0.929 . S
H377 C357 0.931 . S
Cd378 N381 2.334 1_554 S
Cd378 N407 2.304 . S
Cd378 O414 2.270 . S
Cd378 O417 2.273 . S
Cd378 O418 2.415 1_554 S
Cd378 O419 2.330 . S
Cd379 N394 2.304 . S
Cd379 N398 2.334 1_554 S
Cd379 O415 2.273 . S
Cd379 O416 2.270 . S
Cd379 O420 2.415 1_554 S
Cd379 O421 2.330 . S
C380 N381 1.332 . S
C380 C384 1.381 . S
C380 H386 0.931 . S
N381 Cd378 2.334 1_556 S
N381 C380 1.332 . S
N381 C385 1.328 . S
C382 C383 1.396 . S
C382 C385 1.378 . S
C382 H424 0.931 . S
C383 C382 1.396 . S
C383 C384 1.382 . S
C384 C380 1.381 . S
C384 C383 1.382 . S
C384 H425 0.930 . S
C385 N381 1.328 . S
C385 C382 1.378 . S
C385 H387 0.930 . S
H386 C380 0.931 . S
H387 C385 0.930 . S
C388 O414 1.242 . S
C388 O415 1.253 . S
C389 C390 1.379 . S
C389 N394 1.337 . S
C389 H395 0.929 . S
C390 C389 1.379 . S
C390 C391 1.380 . S
C390 H426 0.929 . S
C391 C390 1.380 . S
C391 C392 1.399 . S
C392 C391 1.399 . S
C392 C393 1.376 . S
C392 H427 0.931 . S
C393 C392 1.376 . S
C393 N394 1.338 . S
C393 H396 0.930 . S
N394 Cd379 2.304 . S
N394 C389 1.337 . S
N394 C393 1.338 . S
H395 C389 0.929 . S
H396 C393 0.930 . S
C397 N398 1.332 . S
C397 C401 1.381 . S
C397 H403 0.931 . S
N398 Cd379 2.334 1_556 S
N398 C397 1.332 . S
N398 C402 1.328 . S
C399 C400 1.396 . S
C399 C402 1.378 . S
C399 H428 0.931 . S
C400 C399 1.396 . S
C400 C401 1.382 . S
C401 C397 1.381 . S
C401 C400 1.382 . S
C401 H429 0.930 . S
C402 N398 1.328 . S
C402 C399 1.378 . S
C402 H404 0.930 . S
H403 C397 0.931 . S
H404 C402 0.930 . S
C405 O416 1.242 . S
C405 O417 1.253 . S
C406 O418 1.235 1_554 S
C406 O419 1.236 . S
N407 Cd378 2.304 . S
N407 C408 1.337 . S
N407 C412 1.338 . S
C408 N407 1.337 . S
C408 C409 1.379 . S
C408 H422 0.929 . S
C409 C408 1.379 . S
C409 C410 1.380 . S
C409 H430 0.929 . S
C410 C409 1.380 . S
C410 C411 1.399 . S
C411 C410 1.399 . S
C411 C412 1.376 . S
C411 H431 0.931 . S
C412 N407 1.338 . S
C412 C411 1.376 . S
C412 H423 0.930 . S
C413 O420 1.235 1_554 S
C413 O421 1.236 . S
O414 Cd378 2.270 . S
O414 C388 1.242 . S
O415 Cd379 2.273 . S
O415 C388 1.253 . S
O416 Cd379 2.270 . S
O416 C405 1.242 . S
O417 Cd378 2.273 . S
O417 C405 1.253 . S
O418 Cd378 2.415 1_556 S
O418 C406 1.235 1_556 S
O419 Cd378 2.330 . S
O419 C406 1.236 . S
O420 Cd379 2.415 1_556 S
O420 C413 1.235 1_556 S
O421 Cd379 2.330 . S
O421 C413 1.236 . S
H422 C408 0.929 . S
H423 C412 0.930 . S
H424 C382 0.931 . S
H425 C384 0.930 . S
H426 C390 0.929 . S
H427 C392 0.931 . S
H428 C399 0.931 . S
H429 C401 0.930 . S
H430 C409 0.929 . S
H431 C411 0.931 . S
C432 C433 1.349 . S
C432 C434 1.327 . S
C432 H457 0.950 . S
C433 C432 1.349 . S
C433 C449 1.349 1_545 S
C434 C432 1.327 . S
C434 C453 1.429 . S
C434 H458 0.950 . S
C435 C452 1.574 . S
C435 C454 1.368 . S
C435 H459 0.949 1_545 S
H436 C440 0.949 . S
C437 C438 1.349 . S
C437 C439 1.327 . S
C437 H460 0.950 . S
C438 C437 1.349 . S
C438 C450 1.349 . S
C439 C437 1.327 . S
C439 C455 1.429 . S
C439 H461 0.950 . S
C440 H436 0.949 . S
C440 C448 1.574 . S
C440 C456 1.368 . S
H441 C449 0.950 . S
H442 C447 0.950 . S
H443 C448 0.949 . S
H444 C450 0.950 . S
H445 C451 0.950 . S
H446 C452 0.949 . S
C447 H442 0.950 . S
C447 C449 1.327 . S
C447 C453 1.429 1_565 S
C448 C440 1.574 . S
C448 H443 0.949 . S
C448 C454 1.368 . S
C449 C433 1.349 1_565 S
C449 H441 0.950 . S
C449 C447 1.327 . S
C450 C438 1.349 . S
C450 H444 0.950 . S
C450 C451 1.327 . S
C451 H445 0.950 . S
C451 C450 1.327 . S
C451 C455 1.429 . S
C452 C435 1.574 . S
C452 H446 0.949 . S
C452 C456 1.368 . S
C453 C434 1.429 . S
C453 C447 1.429 1_545 S
C453 C454 1.523 . S
C454 C435 1.368 . S
C454 C448 1.368 . S
C454 C453 1.523 . S
C455 C439 1.429 . S
C455 C451 1.429 . S
C455 C456 1.523 . S
C456 C440 1.368 . S
C456 C452 1.368 . S
C456 C455 1.523 . S
H457 C432 0.950 . S
H458 C434 0.950 . S
H459 C435 0.949 1_565 S
H460 C437 0.950 . S
H461 C439 0.950 . S
C462 C463 1.349 . S
C462 C464 1.327 . S
C462 H487 0.950 1_565 S
C463 C462 1.349 . S
C463 C479 1.349 . S
C464 C462 1.327 . S
C464 C483 1.429 . S
C464 H488 0.950 . S
C465 C482 1.574 . S
C465 C484 1.368 . S
C465 H489 0.949 . S
H466 C470 0.949 . S
C467 C468 1.349 . S
C467 C469 1.327 . S
C467 H490 0.950 . S
C468 C467 1.349 . S
C468 C480 1.349 . S
C469 C467 1.327 . S
C469 C485 1.429 . S
C469 H491 0.950 . S
C470 H466 0.949 . S
C470 C478 1.574 . S
C470 C486 1.368 . S
H471 C479 0.950 . S
H472 C477 0.950 . S
H473 C478 0.949 . S
H474 C480 0.950 . S
H475 C481 0.950 . S
H476 C482 0.949 . S
C477 H472 0.950 . S
C477 C479 1.327 . S
C477 C483 1.429 . S
C478 C470 1.574 . S
C478 H473 0.949 . S
C478 C484 1.368 . S
C479 C463 1.349 . S
C479 H471 0.950 . S
C479 C477 1.327 . S
C480 C468 1.349 . S
C480 H474 0.950 . S
C480 C481 1.327 . S
C481 H475 0.950 . S
C481 C480 1.327 . S
C481 C485 1.429 . S
C482 C465 1.574 . S
C482 H476 0.949 . S
C482 C486 1.368 . S
C483 C464 1.429 . S
C483 C477 1.429 . S
C483 C484 1.523 . S
C484 C465 1.368 . S
C484 C478 1.368 . S
C484 C483 1.523 . S
C485 C469 1.429 . S
C485 C481 1.429 . S
C485 C486 1.523 . S
C486 C470 1.368 . S
C486 C482 1.368 . S
C486 C485 1.523 . S
H487 C462 0.950 1_545 S
H488 C464 0.950 . S
H489 C465 0.949 . S
H490 C467 0.950 . S
H491 C469 0.950 . S
C492 C493 1.349 . S
C492 C494 1.327 . S
C492 H517 0.950 . S
C493 C492 1.349 . S
C493 C509 1.349 . S
C494 C492 1.327 . S
C494 C513 1.429 . S
C494 H518 0.950 . S
C495 C512 1.574 . S
C495 C514 1.368 . S
C495 H519 0.949 . S
H496 C500 0.949 . S
C497 C498 1.349 . S
C497 C499 1.327 . S
C497 H520 0.950 . S
C498 C497 1.349 . S
C498 C510 1.349 . S
C499 C497 1.327 . S
C499 C515 1.429 . S
C499 H521 0.950 . S
C500 H496 0.949 . S
C500 C508 1.574 . S
C500 C516 1.368 . S
H501 C509 0.950 . S
H502 C507 0.950 . S
H503 C508 0.949 . S
H504 C510 0.950 . S
H505 C511 0.950 . S
H506 C512 0.949 . S
C507 H502 0.950 . S
C507 C509 1.327 . S
C507 C513 1.429 . S
C508 C500 1.574 . S
C508 H503 0.949 . S
C508 C514 1.368 . S
C509 C493 1.349 . S
C509 H501 0.950 . S
C509 C507 1.327 . S
C510 C498 1.349 . S
C510 H504 0.950 . S
C510 C511 1.327 . S
C511 H505 0.950 . S
C511 C510 1.327 . S
C511 C515 1.429 . S
C512 C495 1.574 . S
C512 H506 0.949 . S
C512 C516 1.368 . S
C513 C494 1.429 . S
C513 C507 1.429 . S
C513 C514 1.523 . S
C514 C495 1.368 . S
C514 C508 1.368 . S
C514 C513 1.523 . S
C515 C499 1.429 . S
C515 C511 1.429 . S
C515 C516 1.523 . S
C516 C500 1.368 . S
C516 C512 1.368 . S
C516 C515 1.523 . S
H517 C492 0.950 . S
H518 C494 0.950 . S
H519 C495 0.949 . S
H520 C497 0.950 . S
H521 C499 0.950 . S
C522 C523 1.349 . S
C522 C524 1.327 . S
C522 H547 0.950 . S
C523 C522 1.349 . S
C523 C539 1.349 . S
C524 C522 1.327 . S
C524 C543 1.429 . S
C524 H548 0.950 . S
C525 C542 1.574 . S
C525 C544 1.368 . S
C525 H549 0.949 . S
H526 C530 0.949 . S
C527 C528 1.349 . S
C527 C529 1.327 . S
C527 H550 0.950 . S
C528 C527 1.349 . S
C528 C540 1.349 . S
C529 C527 1.327 . S
C529 C545 1.429 . S
C529 H551 0.950 . S
C530 H526 0.949 . S
C530 C538 1.574 . S
C530 C546 1.368 . S
H531 C539 0.950 . S
H532 C537 0.950 . S
H533 C538 0.949 . S
H534 C540 0.950 . S
H535 C541 0.950 . S
H536 C542 0.949 . S
C537 H532 0.950 . S
C537 C539 1.327 . S
C537 C543 1.429 . S
C538 C530 1.574 . S
C538 H533 0.949 . S
C538 C544 1.368 . S
C539 C523 1.349 . S
C539 H531 0.950 . S
C539 C537 1.327 . S
C540 C528 1.349 . S
C540 H534 0.950 . S
C540 C541 1.327 . S
C541 H535 0.950 . S
C541 C540 1.327 . S
C541 C545 1.429 . S
C542 C525 1.574 . S
C542 H536 0.949 . S
C542 C546 1.368 . S
C543 C524 1.429 . S
C543 C537 1.429 . S
C543 C544 1.523 . S
C544 C525 1.368 . S
C544 C538 1.368 . S
C544 C543 1.523 . S
C545 C529 1.429 . S
C545 C541 1.429 . S
C545 C546 1.523 . S
C546 C530 1.368 . S
C546 C542 1.368 . S
C546 C545 1.523 . S
H547 C522 0.950 . S
H548 C524 0.950 . S
H549 C525 0.949 . S
H550 C527 0.950 . S
H551 C529 0.950 . S
C552 C553 1.349 . S
C552 C554 1.327 . S
C552 H577 0.950 . S
C553 C552 1.349 . S
C553 C569 1.349 . S
C554 C552 1.327 . S
C554 C573 1.429 . S
C554 H578 0.950 . S
C555 C572 1.574 . S
C555 C574 1.368 . S
C555 H579 0.949 . S
H556 C560 0.949 . S
C557 C558 1.349 . S
C557 C559 1.327 . S
C557 H580 0.950 . S
C558 C557 1.349 . S
C558 C570 1.349 . S
C559 C557 1.327 . S
C559 C575 1.429 . S
C559 H581 0.950 . S
C560 H556 0.949 . S
C560 C568 1.574 . S
C560 C576 1.368 . S
H561 C569 0.950 . S
H562 C567 0.950 . S
H563 C568 0.949 . S
H564 C570 0.950 . S
H565 C571 0.950 . S
H566 C572 0.949 . S
C567 H562 0.950 . S
C567 C569 1.327 . S
C567 C573 1.429 . S
C568 C560 1.574 . S
C568 H563 0.949 . S
C568 C574 1.368 . S
C569 C553 1.349 . S
C569 H561 0.950 . S
C569 C567 1.327 . S
C570 C558 1.349 . S
C570 H564 0.950 . S
C570 C571 1.327 . S
C571 H565 0.950 . S
C571 C570 1.327 . S
C571 C575 1.429 . S
C572 C555 1.574 . S
C572 H566 0.949 . S
C572 C576 1.368 . S
C573 C554 1.429 . S
C573 C567 1.429 . S
C573 C574 1.523 . S
C574 C555 1.368 . S
C574 C568 1.368 . S
C574 C573 1.523 . S
C575 C559 1.429 . S
C575 C571 1.429 . S
C575 C576 1.523 . S
C576 C560 1.368 . S
C576 C572 1.368 . S
C576 C575 1.523 . S
H577 C552 0.950 . S
H578 C554 0.950 . S
H579 C555 0.949 . S
H580 C557 0.950 . S
H581 C559 0.950 . S
C582 C583 1.349 . S
C582 C584 1.327 . S
C582 H607 0.950 . S
C583 C582 1.349 . S
C583 C599 1.349 . S
C584 C582 1.327 . S
C584 C603 1.429 . S
C584 H608 0.950 . S
C585 C602 1.574 . S
C585 C604 1.368 . S
C585 H609 0.949 . S
H586 C590 0.949 . S
C587 C588 1.349 . S
C587 C589 1.327 . S
C587 H610 0.950 . S
C588 C587 1.349 . S
C588 C600 1.349 . S
C589 C587 1.327 . S
C589 C605 1.429 . S
C589 H611 0.950 . S
C590 H586 0.949 . S
C590 C598 1.574 . S
C590 C606 1.368 . S
H591 C599 0.950 . S
H592 C597 0.950 . S
H593 C598 0.949 . S
H594 C600 0.950 . S
H595 C601 0.950 . S
H596 C602 0.949 . S
C597 H592 0.950 . S
C597 C599 1.327 . S
C597 C603 1.429 . S
C598 C590 1.574 . S
C598 H593 0.949 . S
C598 C604 1.368 . S
C599 C583 1.349 . S
C599 H591 0.950 . S
C599 C597 1.327 . S
C600 C588 1.349 . S
C600 H594 0.950 . S
C600 C601 1.327 . S
C601 H595 0.950 . S
C601 C600 1.327 . S
C601 C605 1.429 . S
C602 C585 1.574 . S
C602 H596 0.949 . S
C602 C606 1.368 . S
C603 C584 1.429 . S
C603 C597 1.429 . S
C603 C604 1.523 . S
C604 C585 1.368 . S
C604 C598 1.368 . S
C604 C603 1.523 . S
C605 C589 1.429 . S
C605 C601 1.429 . S
C605 C606 1.523 . S
C606 C590 1.368 . S
C606 C602 1.368 . S
C606 C605 1.523 . S
H607 C582 0.950 . S
H608 C584 0.950 . S
H609 C585 0.949 . S
H610 C587 0.950 . S
H611 C589 0.950 . S
C612 C613 1.349 . S
C612 C614 1.327 . S
C612 H637 0.950 . S
C613 C612 1.349 . S
C613 C629 1.349 . S
C614 C612 1.327 . S
C614 C633 1.429 . S
C614 H638 0.950 . S
C615 C632 1.574 . S
C615 C634 1.368 . S
C615 H639 0.949 . S
H616 C620 0.949 . S
C617 C618 1.349 . S
C617 C619 1.327 . S
C617 H640 0.950 . S
C618 C617 1.349 . S
C618 C630 1.349 1_565 S
C619 C617 1.327 . S
C619 C635 1.429 . S
C619 H641 0.950 . S
C620 H616 0.949 . S
C620 C628 1.574 . S
C620 C636 1.368 . S
H621 C629 0.950 . S
H622 C627 0.950 . S
H623 C628 0.949 . S
H624 C630 0.950 . S
H625 C631 0.950 1_545 S
H626 C632 0.949 . S
C627 H622 0.950 . S
C627 C629 1.327 . S
C627 C633 1.429 . S
C628 C620 1.574 . S
C628 H623 0.949 . S
C628 C634 1.368 . S
C629 C613 1.349 . S
C629 H621 0.950 . S
C629 C627 1.327 . S
C630 C618 1.349 1_545 S
C630 H624 0.950 . S
C630 C631 1.327 1_545 S
C631 H625 0.950 1_565 S
C631 C630 1.327 1_565 S
C631 C635 1.429 . S
C632 C615 1.574 . S
C632 H626 0.949 . S
C632 C636 1.368 . S
C633 C614 1.429 . S
C633 C627 1.429 . S
C633 C634 1.523 . S
C634 C615 1.368 . S
C634 C628 1.368 . S
C634 C633 1.523 . S
C635 C619 1.429 . S
C635 C631 1.429 . S
C635 C636 1.523 . S
C636 C620 1.368 . S
C636 C632 1.368 . S
C636 C635 1.523 . S
H637 C612 0.950 . S
H638 C614 0.950 . S
H639 C615 0.949 . S
H640 C617 0.950 . S
H641 C619 0.950 . S
C642 C643 1.349 . S
C642 C644 1.327 . S
C642 H667 0.950 . S
C643 C642 1.349 . S
C643 C659 1.349 . S
C644 C642 1.327 . S
C644 C663 1.429 . S
C644 H668 0.950 . S
C645 C662 1.574 . S
C645 C664 1.368 . S
C645 H669 0.949 . S
H646 C650 0.949 . S
C647 C648 1.349 1_565 S
C647 C649 1.324 1_565 S
C647 H670 0.950 . S
C648 C647 1.349 1_545 S
C648 C660 1.349 . S
C649 C647 1.324 1_545 S
C649 C665 1.437 . S
C649 H671 0.944 1_545 S
C650 H646 0.949 . S
C650 C658 1.574 . S
C650 C666 1.368 . S
H651 C659 0.950 . S
H652 C657 0.950 . S
H653 C658 0.949 . S
H654 C660 0.950 . S
H655 C661 0.950 . S
H656 C662 0.957 . S
C657 H652 0.950 . S
C657 C659 1.327 . S
C657 C663 1.429 . S
C658 C650 1.574 . S
C658 H653 0.949 . S
C658 C664 1.368 . S
C659 C643 1.349 . S
C659 H651 0.950 . S
C659 C657 1.327 . S
C660 C648 1.349 . S
C660 H654 0.950 . S
C660 C661 1.327 . S
C661 H655 0.950 . S
C661 C660 1.327 . S
C661 C665 1.429 . S
C662 C645 1.574 . S
C662 H656 0.957 . S
C662 C666 1.368 . S
C663 C644 1.429 . S
C663 C657 1.429 . S
C663 C664 1.523 . S
C664 C645 1.368 . S
C664 C658 1.368 . S
C664 C663 1.523 . S
C665 C649 1.437 . S
C665 C661 1.429 . S
C665 C666 1.523 . S
C666 C650 1.368 . S
C666 C662 1.368 . S
C666 C665 1.523 . S
H667 C642 0.950 . S
H668 C644 0.950 . S
H669 C645 0.949 . S
H670 C647 0.950 . S
H671 C649 0.944 1_565 S
C672 C673 1.349 . S
C672 C674 1.327 . S
C672 H697 0.950 . S
C673 C672 1.349 . S
C673 C689 1.349 . S
C674 C672 1.327 . S
C674 C693 1.429 . S
C674 H698 0.950 . S
C675 C692 1.574 . S
C675 C694 1.368 . S
C675 H699 0.949 . S
H676 C680 0.949 1_565 S
C677 C678 1.349 . S
C677 C679 1.327 . S
C677 H700 0.950 . S
C678 C677 1.349 . S
C678 C690 1.349 1_545 S
C679 C677 1.327 . S
C679 C695 1.429 . S
C679 H701 0.950 . S
C680 H676 0.949 1_545 S
C680 C688 1.574 . S
C680 C696 1.368 . S
H681 C689 0.950 . S
H682 C687 0.950 . S
H683 C688 0.949 . S
H684 C690 0.950 . S
H685 C691 0.950 . S
H686 C692 0.949 . S
C687 H682 0.950 . S
C687 C689 1.327 . S
C687 C693 1.429 . S
C688 C680 1.574 . S
C688 H683 0.949 . S
C688 C694 1.368 . S
C689 C673 1.349 . S
C689 H681 0.950 . S
C689 C687 1.327 . S
C690 C678 1.349 1_565 S
C690 H684 0.950 . S
C690 C691 1.327 . S
C691 H685 0.950 . S
C691 C690 1.327 . S
C691 C695 1.429 1_565 S
C692 C675 1.574 . S
C692 H686 0.949 . S
C692 C696 1.368 . S
C693 C674 1.429 . S
C693 C687 1.429 . S
C693 C694 1.523 . S
C694 C675 1.368 . S
C694 C688 1.368 . S
C694 C693 1.523 . S
C695 C679 1.429 . S
C695 C691 1.429 1_545 S
C695 C696 1.523 . S
C696 C680 1.368 . S
C696 C692 1.368 . S
C696 C695 1.523 . S
H697 C672 0.950 . S
H698 C674 0.950 . S
H699 C675 0.949 . S
H700 C677 0.950 . S
H701 C679 0.950 . S
C702 C703 1.349 . S
C702 C704 1.327 . S
C702 H727 0.950 . S
C703 C702 1.349 . S
C703 C719 1.349 1_565 S
C704 C702 1.327 . S
C704 C723 1.429 . S
C704 H728 0.950 . S
C705 C722 1.574 . S
C705 C724 1.368 . S
C705 H729 0.949 . S
H706 C710 0.949 . S
C707 C708 1.349 . S
C707 C709 1.327 . S
C707 H730 0.950 . S
C708 C707 1.349 . S
C708 C720 1.349 . S
C709 C707 1.327 . S
C709 C725 1.429 . S
C709 H731 0.950 . S
C710 H706 0.949 . S
C710 C718 1.574 . S
C710 C726 1.368 . S
H711 C719 0.950 . S
H712 C717 0.950 1_545 S
H713 C718 0.949 . S
H714 C720 0.950 . S
H715 C721 0.950 . S
H716 C722 0.949 . S
C717 H712 0.950 1_565 S
C717 C719 1.327 1_565 S
C717 C723 1.429 . S
C718 C710 1.574 . S
C718 H713 0.949 . S
C718 C724 1.368 . S
C719 C703 1.349 1_545 S
C719 H711 0.950 . S
C719 C717 1.327 1_545 S
C720 C708 1.349 . S
C720 H714 0.950 . S
C720 C721 1.327 . S
C721 H715 0.950 . S
C721 C720 1.327 . S
C721 C725 1.429 . S
C722 C705 1.574 . S
C722 H716 0.949 . S
C722 C726 1.368 . S
C723 C704 1.429 . S
C723 C717 1.429 . S
C723 C724 1.523 . S
C724 C705 1.368 . S
C724 C718 1.368 . S
C724 C723 1.523 . S
C725 C709 1.429 . S
C725 C721 1.429 . S
C725 C726 1.523 . S
C726 C710 1.368 . S
C726 C722 1.368 . S
C726 C725 1.523 . S
H727 C702 0.950 . S
H728 C704 0.950 . S
H729 C705 0.949 . S
H730 C707 0.950 . S
H731 C709 0.950 . S
C732 C733 1.349 . S
C732 C734 1.327 . S
C732 H757 0.950 . S
C733 C732 1.349 . S
C733 C749 1.349 . S
C734 C732 1.327 . S
C734 C753 1.429 . S
C734 H758 0.950 . S
C735 C752 1.574 . S
C735 C754 1.368 . S
C735 H759 0.949 . S
H736 C740 0.949 . S
C737 C738 1.349 . S
C737 C739 1.327 . S
C737 H760 0.950 . S
C738 C737 1.349 . S
C738 C750 1.349 . S
C739 C737 1.327 . S
C739 C755 1.429 . S
C739 H761 0.950 . S
C740 H736 0.949 . S
C740 C748 1.574 . S
C740 C756 1.368 . S
H741 C749 0.950 . S
H742 C747 0.950 . S
H743 C748 0.949 . S
H744 C750 0.950 . S
H745 C751 0.950 . S
H746 C752 0.949 . S
C747 H742 0.950 . S
C747 C749 1.327 . S
C747 C753 1.429 . S
C748 C740 1.574 . S
C748 H743 0.949 . S
C748 C754 1.368 . S
C749 C733 1.349 . S
C749 H741 0.950 . S
C749 C747 1.327 . S
C750 C738 1.349 . S
C750 H744 0.950 . S
C750 C751 1.327 . S
C751 H745 0.950 . S
C751 C750 1.327 . S
C751 C755 1.429 . S
C752 C735 1.574 . S
C752 H746 0.949 . S
C752 C756 1.368 . S
C753 C734 1.429 . S
C753 C747 1.429 . S
C753 C754 1.523 . S
C754 C735 1.368 . S
C754 C748 1.368 . S
C754 C753 1.523 . S
C755 C739 1.429 . S
C755 C751 1.429 . S
C755 C756 1.523 . S
C756 C740 1.368 . S
C756 C752 1.368 . S
C756 C755 1.523 . S
H757 C732 0.950 . S
H758 C734 0.950 . S
H759 C735 0.949 . S
H760 C737 0.950 . S
H761 C739 0.950 . S
C762 C763 1.349 . S
C762 C764 1.327 . S
C762 H787 0.950 . S
C763 C762 1.349 . S
C763 C779 1.349 . S
C764 C762 1.327 . S
C764 C783 1.429 . S
C764 H788 0.950 . S
C765 C782 1.574 . S
C765 C784 1.368 . S
C765 H789 0.949 . S
H766 C770 0.949 . S
C767 C768 1.349 . S
C767 C769 1.327 . S
C767 H790 0.950 . S
C768 C767 1.349 . S
C768 C780 1.349 . S
C769 C767 1.327 . S
C769 C785 1.429 . S
C769 H791 0.950 . S
C770 H766 0.949 . S
C770 C778 1.574 . S
C770 C786 1.368 . S
H771 C779 0.950 . S
H772 C777 0.950 . S
H773 C778 0.949 . S
H774 C780 0.950 . S
H775 C781 0.950 . S
H776 C782 0.949 . S
C777 H772 0.950 . S
C777 C779 1.327 . S
C777 C783 1.429 . S
C778 C770 1.574 . S
C778 H773 0.949 . S
C778 C784 1.368 . S
C779 C763 1.349 . S
C779 H771 0.950 . S
C779 C777 1.327 . S
C780 C768 1.349 . S
C780 H774 0.950 . S
C780 C781 1.327 . S
C781 H775 0.950 . S
C781 C780 1.327 . S
C781 C785 1.429 . S
C782 C765 1.574 . S
C782 H776 0.949 . S
C782 C786 1.368 . S
C783 C764 1.429 . S
C783 C777 1.429 . S
C783 C784 1.523 . S
C784 C765 1.368 . S
C784 C778 1.368 . S
C784 C783 1.523 . S
C785 C769 1.429 . S
C785 C781 1.429 . S
C785 C786 1.523 . S
C786 C770 1.368 . S
C786 C782 1.368 . S
C786 C785 1.523 . S
H787 C762 0.950 . S
H788 C764 0.950 . S
H789 C765 0.949 . S
H790 C767 0.950 . S
H791 C769 0.950 . S
C792 C793 1.349 . S
C792 C794 1.327 . S
C792 H817 0.950 . S
C793 C792 1.349 . S
C793 C809 1.349 . S
C794 C792 1.327 . S
C794 C813 1.429 . S
C794 H818 0.950 . S
C795 C812 1.574 . S
C795 C814 1.368 . S
C795 H819 0.949 . S
H796 C800 0.949 . S
C797 C798 1.349 . S
C797 C799 1.327 . S
C797 H820 0.950 . S
C798 C797 1.349 . S
C798 C810 1.349 . S
C799 C797 1.327 . S
C799 C815 1.429 . S
C799 H821 0.950 . S
C800 H796 0.949 . S
C800 C808 1.574 . S
C800 C816 1.368 . S
H801 C809 0.950 . S
H802 C807 0.950 . S
H803 C808 0.949 . S
H804 C810 0.950 . S
H805 C811 0.950 . S
H806 C812 0.949 . S
C807 H802 0.950 . S
C807 C809 1.327 . S
C807 C813 1.429 . S
C808 C800 1.574 . S
C808 H803 0.949 . S
C808 C814 1.368 . S
C809 C793 1.349 . S
C809 H801 0.950 . S
C809 C807 1.327 . S
C810 C798 1.349 . S
C810 H804 0.950 . S
C810 C811 1.327 . S
C811 H805 0.950 . S
C811 C810 1.327 . S
C811 C815 1.429 . S
C812 C795 1.574 . S
C812 H806 0.949 . S
C812 C816 1.368 . S
C813 C794 1.429 . S
C813 C807 1.429 . S
C813 C814 1.523 . S
C814 C795 1.368 . S
C814 C808 1.368 . S
C814 C813 1.523 . S
C815 C799 1.429 . S
C815 C811 1.429 . S
C815 C816 1.523 . S
C816 C800 1.368 . S
C816 C812 1.368 . S
C816 C815 1.523 . S
H817 C792 0.950 . S
H818 C794 0.950 . S
H819 C795 0.949 . S
H820 C797 0.950 . S
H821 C799 0.950 . S
C822 C823 1.349 . S
C822 C824 1.327 . S
C822 H847 0.950 . S
C823 C822 1.349 . S
C823 C839 1.349 . S
C824 C822 1.327 . S
C824 C843 1.429 . S
C824 H848 0.950 . S
C825 C842 1.574 . S
C825 C844 1.368 . S
C825 H849 0.949 . S
H826 C830 0.949 . S
C827 C828 1.349 . S
C827 C829 1.327 . S
C827 H850 0.950 . S
C828 C827 1.349 . S
C828 C840 1.349 . S
C829 C827 1.327 . S
C829 C845 1.429 . S
C829 H851 0.950 . S
C830 H826 0.949 . S
C830 C838 1.574 . S
C830 C846 1.368 . S
H831 C839 0.950 . S
H832 C837 0.950 . S
H833 C838 0.949 . S
H834 C840 0.950 . S
H835 C841 0.950 . S
H836 C842 0.949 . S
C837 H832 0.950 . S
C837 C839 1.327 . S
C837 C843 1.429 . S
C838 C830 1.574 . S
C838 H833 0.949 . S
C838 C844 1.368 . S
C839 C823 1.349 . S
C839 H831 0.950 . S
C839 C837 1.327 . S
C840 C828 1.349 . S
C840 H834 0.950 . S
C840 C841 1.327 . S
C841 H835 0.950 . S
C841 C840 1.327 . S
C841 C845 1.429 . S
C842 C825 1.574 . S
C842 H836 0.949 . S
C842 C846 1.368 . S
C843 C824 1.429 . S
C843 C837 1.429 . S
C843 C844 1.523 . S
C844 C825 1.368 . S
C844 C838 1.368 . S
C844 C843 1.523 . S
C845 C829 1.429 . S
C845 C841 1.429 . S
C845 C846 1.523 . S
C846 C830 1.368 . S
C846 C842 1.368 . S
C846 C845 1.523 . S
H847 C822 0.950 . S
H848 C824 0.950 . S
H849 C825 0.949 . S
H850 C827 0.950 . S
H851 C829 0.950 . S
C852 C853 1.349 . S
C852 C854 1.327 . S
C852 H877 0.950 . S
C853 C852 1.349 . S
C853 C869 1.349 1_565 S
C854 C852 1.327 . S
C854 C873 1.429 . S
C854 H878 0.950 . S
C855 C872 1.574 . S
C855 C874 1.368 . S
C855 H879 0.949 1_565 S
H856 C860 0.949 . S
C857 C858 1.349 . S
C857 C859 1.327 . S
C857 H880 0.950 . S
C858 C857 1.349 . S
C858 C870 1.349 . S
C859 C857 1.327 . S
C859 C875 1.429 . S
C859 H881 0.950 . S
C860 H856 0.949 . S
C860 C868 1.574 . S
C860 C876 1.368 . S
H861 C869 0.950 . S
H862 C867 0.950 . S
H863 C868 0.949 . S
H864 C870 0.950 . S
H865 C871 0.950 . S
H866 C872 0.949 . S
C867 H862 0.950 . S
C867 C869 1.327 . S
C867 C873 1.429 1_545 S
C868 C860 1.574 . S
C868 H863 0.949 . S
C868 C874 1.368 . S
C869 C853 1.349 1_545 S
C869 H861 0.950 . S
C869 C867 1.327 . S
C870 C858 1.349 . S
C870 H864 0.950 . S
C870 C871 1.327 . S
C871 H865 0.950 . S
C871 C870 1.327 . S
C871 C875 1.429 . S
C872 C855 1.574 . S
C872 H866 0.949 . S
C872 C876 1.368 . S
C873 C854 1.429 . S
C873 C867 1.429 1_565 S
C873 C874 1.523 . S
C874 C855 1.368 . S
C874 C868 1.368 . S
C874 C873 1.523 . S
C875 C859 1.429 . S
C875 C871 1.429 . S
C875 C876 1.523 . S
C876 C860 1.368 . S
C876 C872 1.368 . S
C876 C875 1.523 . S
H877 C852 0.950 . S
H878 C854 0.950 . S
H879 C855 0.949 1_545 S
H880 C857 0.950 . S
H881 C859 0.950 . S
C882 C883 1.349 . S
C882 C884 1.327 . S
C882 H907 0.950 . S
C883 C882 1.349 . S
C883 C899 1.349 1_545 S
C884 C882 1.327 . S
C884 C903 1.429 . S
C884 H908 0.950 . S
C885 C902 1.574 . S
C885 C904 1.368 . S
C885 H909 0.943 1_545 S
H886 C890 0.949 . S
C887 C888 1.349 . S
C887 C889 1.327 . S
C887 H910 0.950 . S
C888 C887 1.349 . S
C888 C900 1.349 . S
C889 C887 1.327 . S
C889 C905 1.429 . S
C889 H911 0.950 . S
C890 H886 0.949 . S
C890 C898 1.574 . S
C890 C906 1.368 . S
H891 C899 0.950 . S
H892 C897 0.950 1_565 S
H893 C898 0.949 . S
H894 C900 0.950 . S
H895 C901 0.950 . S
H896 C902 0.949 . S
C897 H892 0.950 1_545 S
C897 C899 1.327 1_545 S
C897 C903 1.428 . S
C898 C890 1.574 . S
C898 H893 0.949 . S
C898 C904 1.368 . S
C899 C883 1.349 1_565 S
C899 H891 0.950 . S
C899 C897 1.327 1_565 S
C900 C888 1.349 . S
C900 H894 0.950 . S
C900 C901 1.327 . S
C901 H895 0.950 . S
C901 C900 1.327 . S
C901 C905 1.429 . S
C902 C885 1.574 . S
C902 H896 0.949 . S
C902 C906 1.368 . S
C903 C884 1.429 . S
C903 C897 1.428 . S
C903 C904 1.523 . S
C904 C885 1.368 . S
C904 C898 1.368 . S
C904 C903 1.523 . S
C905 C889 1.429 . S
C905 C901 1.429 . S
C905 C906 1.523 . S
C906 C890 1.368 . S
C906 C902 1.368 . S
C906 C905 1.523 . S
H907 C882 0.950 . S
H908 C884 0.950 . S
H909 C885 0.943 1_565 S
H910 C887 0.950 . S
H911 C889 0.950 . S
C912 C913 1.349 1_556 S
C912 C914 1.327 . S
C912 H937 0.950 . S
C913 C912 1.349 1_554 S
C913 C929 1.349 1_455 S
C914 C912 1.327 . S
C914 C933 1.429 1_556 S
C914 H938 0.950 . S
C915 C932 1.574 . S
C915 C934 1.368 1_655 S
C915 H939 0.949 . S
H916 C920 0.949 . S
C917 C918 1.349 . S
C917 C919 1.327 . S
C917 H940 0.950 . S
C918 C917 1.349 . S
C918 C930 1.349 1_654 S
C919 C917 1.327 . S
C919 C935 1.429 . S
C919 H941 0.950 . S
C920 H916 0.949 . S
C920 C928 1.574 . S
C920 C936 1.368 1_456 S
H921 C929 0.950 . S
H922 C927 0.950 . S
H923 C928 0.949 . S
H924 C930 0.950 . S
H925 C931 0.950 . S
H926 C932 0.949 . S
C927 H922 0.950 . S
C927 C929 1.327 . S
C927 C933 1.429 1_655 S
C928 C920 1.574 . S
C928 H923 0.949 . S
C928 C934 1.368 1_556 S
C929 C913 1.349 1_655 S
C929 H921 0.950 . S
C929 C927 1.327 . S
C930 C918 1.349 1_456 S
C930 H924 0.950 . S
C930 C931 1.327 . S
C931 H925 0.950 . S
C931 C930 1.327 . S
C931 C935 1.429 1_456 S
C932 C915 1.574 . S
C932 H926 0.949 . S
C932 C936 1.368 . S
C933 C914 1.429 1_554 S
C933 C927 1.429 1_455 S
C933 C934 1.523 . S
C934 C915 1.368 1_455 S
C934 C928 1.368 1_554 S
C934 C933 1.523 . S
C935 C919 1.429 . S
C935 C931 1.429 1_654 S
C935 C936 1.523 . S
C936 C920 1.368 1_654 S
C936 C932 1.368 . S
C936 C935 1.523 . S
H937 C912 0.950 . S
H938 C914 0.950 . S
H939 C915 0.949 . S
H940 C917 0.950 . S
H941 C919 0.950 . S
C942 C943 1.349 . S
C942 C944 1.327 . S
C942 H967 0.950 . S
C943 C942 1.349 . S
C943 C959 1.349 . S
C944 C942 1.327 . S
C944 C963 1.429 . S
C944 H968 0.950 . S
C945 C962 1.574 . S
C945 C964 1.368 . S
C945 H969 0.949 . S
H946 C950 0.949 . S
C947 C948 1.349 . S
C947 C949 1.327 1_545 S
C947 H970 0.950 . S
C948 C947 1.349 . S
C948 C960 1.349 . S
C949 C947 1.327 1_565 S
C949 C965 1.429 . S
C949 H971 0.950 . S
C950 H946 0.949 . S
C950 C958 1.574 . S
C950 C966 1.368 . S
H951 C959 0.950 . S
H952 C957 0.950 . S
H953 C958 0.949 . S
H954 C960 0.950 . S
H955 C961 0.950 . S
H956 C962 0.949 . S
C957 H952 0.950 . S
C957 C959 1.327 . S
C957 C963 1.429 . S
C958 C950 1.574 . S
C958 H953 0.949 . S
C958 C964 1.368 . S
C959 C943 1.349 . S
C959 H951 0.950 . S
C959 C957 1.327 . S
C960 C948 1.349 . S
C960 H954 0.950 . S
C960 C961 1.327 1_545 S
C961 H955 0.950 . S
C961 C960 1.327 1_565 S
C961 C965 1.429 . S
C962 C945 1.574 . S
C962 H956 0.949 . S
C962 C966 1.368 . S
C963 C944 1.429 . S
C963 C957 1.429 . S
C963 C964 1.523 . S
C964 C945 1.368 . S
C964 C958 1.368 . S
C964 C963 1.523 . S
C965 C949 1.429 . S
C965 C961 1.429 . S
C965 C966 1.523 . S
C966 C950 1.368 . S
C966 C962 1.368 . S
C966 C965 1.523 . S
H967 C942 0.950 . S
H968 C944 0.950 . S
H969 C945 0.949 . S
H970 C947 0.950 . S
H971 C949 0.950 . S
C972 C973 1.349 . S
C972 C974 1.327 1_565 S
C972 H997 0.950 . S
C973 C972 1.349 . S
C973 C989 1.349 . S
C974 C972 1.327 1_545 S
C974 C993 1.429 . S
C974 H998 0.950 . S
C975 C992 1.574 . S
C975 C994 1.368 . S
C975 H999 0.949 . S
H976 C980 0.949 . S
C977 C978 1.349 . S
C977 C979 1.327 . S
C977 H1000 0.950 . S
C978 C977 1.349 . S
C978 C990 1.349 . S
C979 C977 1.327 . S
C979 C995 1.429 . S
C979 H1001 0.950 . S
C980 H976 0.949 . S
C980 C988 1.574 . S
C980 C996 1.368 . S
H981 C989 0.950 . S
H982 C987 0.950 . S
H983 C988 0.949 . S
H984 C990 0.950 . S
H985 C991 0.950 . S
H986 C992 0.949 . S
C987 H982 0.950 . S
C987 C989 1.327 1_545 S
C987 C993 1.429 . S
C988 C980 1.574 . S
C988 H983 0.949 . S
C988 C994 1.368 . S
C989 C973 1.349 . S
C989 H981 0.950 . S
C989 C987 1.327 1_565 S
C990 C978 1.349 . S
C990 H984 0.950 . S
C990 C991 1.327 . S
C991 H985 0.950 . S
C991 C990 1.327 . S
C991 C995 1.429 . S
C992 C975 1.574 . S
C992 H986 0.949 . S
C992 C996 1.368 . S
C993 C974 1.429 . S
C993 C987 1.429 . S
C993 C994 1.523 . S
C994 C975 1.368 . S
C994 C988 1.368 . S
C994 C993 1.523 . S
C995 C979 1.429 . S
C995 C991 1.429 . S
C995 C996 1.523 . S
C996 C980 1.368 . S
C996 C992 1.368 . S
C996 C995 1.523 . S
H997 C972 0.950 . S
H998 C974 0.950 . S
H999 C975 0.949 . S
H1000 C977 0.950 . S
H1001 C979 0.950 . S
C1002 C1003 1.349 . S
C1002 C1004 1.327 . S
C1002 H1027 0.950 . S
C1003 C1002 1.349 . S
C1003 C1019 1.349 1_655 S
C1004 C1002 1.327 . S
C1004 C1023 1.429 . S
C1004 H1028 0.950 . S
C1005 C1022 1.574 1_565 S
C1005 C1024 1.368 1_455 S
C1005 H1029 0.949 . S
H1006 C1010 0.949 . S
C1007 C1008 1.349 . S
C1007 C1009 1.327 . S
C1007 H1030 0.950 . S
C1008 C1007 1.349 . S
C1008 C1020 1.349 1_455 S
C1009 C1007 1.327 . S
C1009 C1025 1.429 . S
C1009 H1031 0.950 . S
C1010 H1006 0.949 . S
C1010 C1018 1.574 1_545 S
C1010 C1026 1.368 1_655 S
H1011 C1019 0.950 . S
H1012 C1017 0.950 . S
H1013 C1018 0.949 . S
H1014 C1020 0.950 . S
H1015 C1021 0.950 . S
H1016 C1022 0.949 . S
C1017 H1012 0.950 . S
C1017 C1019 1.327 . S
C1017 C1023 1.429 1_455 S
C1018 C1010 1.574 1_565 S
C1018 H1013 0.949 . S
C1018 C1024 1.368 . S
C1019 C1003 1.349 1_455 S
C1019 H1011 0.950 . S
C1019 C1017 1.327 . S
C1020 C1008 1.349 1_655 S
C1020 H1014 0.950 . S
C1020 C1021 1.327 . S
C1021 H1015 0.950 . S
C1021 C1020 1.327 . S
C1021 C1025 1.429 1_655 S
C1022 C1005 1.574 1_545 S
C1022 H1016 0.949 . S
C1022 C1026 1.368 . S
C1023 C1004 1.429 . S
C1023 C1017 1.429 1_655 S
C1023 C1024 1.523 . S
C1024 C1005 1.368 1_655 S
C1024 C1018 1.368 . S
C1024 C1023 1.523 . S
C1025 C1009 1.429 . S
C1025 C1021 1.429 1_455 S
C1025 C1026 1.523 . S
C1026 C1010 1.368 1_455 S
C1026 C1022 1.368 . S
C1026 C1025 1.523 . S
H1027 C1002 0.950 . S
H1028 C1004 0.950 . S
H1029 C1005 0.949 . S
H1030 C1007 0.950 . S
H1031 C1009 0.950 . S
C1032 C1033 1.349 . S
C1032 C1034 1.327 1_565 S
C1032 H1057 0.950 . S
C1033 C1032 1.349 . S
C1033 C1049 1.349 . S
C1034 C1032 1.327 1_545 S
C1034 C1053 1.429 . S
C1034 H1058 0.950 . S
C1035 C1052 1.574 . S
C1035 C1054 1.368 . S
C1035 H1059 0.949 . S
H1036 C1040 0.949 . S
C1037 C1038 1.349 . S
C1037 C1039 1.327 . S
C1037 H1060 0.950 . S
C1038 C1037 1.349 . S
C1038 C1050 1.349 . S
C1039 C1037 1.327 . S
C1039 C1055 1.429 . S
C1039 H1061 0.950 . S
C1040 H1036 0.949 . S
C1040 C1048 1.574 . S
C1040 C1056 1.368 . S
H1041 C1049 0.950 . S
H1042 C1047 0.950 . S
H1043 C1048 0.949 . S
H1044 C1050 0.950 . S
H1045 C1051 0.950 . S
H1046 C1052 0.949 . S
C1047 H1042 0.950 . S
C1047 C1049 1.327 1_545 S
C1047 C1053 1.429 . S
C1048 C1040 1.574 . S
C1048 H1043 0.949 . S
C1048 C1054 1.368 . S
C1049 C1033 1.349 . S
C1049 H1041 0.950 . S
C1049 C1047 1.327 1_565 S
C1050 C1038 1.349 . S
C1050 H1044 0.950 . S
C1050 C1051 1.327 . S
C1051 H1045 0.950 . S
C1051 C1050 1.327 . S
C1051 C1055 1.429 . S
C1052 C1035 1.574 . S
C1052 H1046 0.949 . S
C1052 C1056 1.368 . S
C1053 C1034 1.429 . S
C1053 C1047 1.429 . S
C1053 C1054 1.523 . S
C1054 C1035 1.368 . S
C1054 C1048 1.368 . S
C1054 C1053 1.523 . S
C1055 C1039 1.429 . S
C1055 C1051 1.429 . S
C1055 C1056 1.523 . S
C1056 C1040 1.368 . S
C1056 C1052 1.368 . S
C1056 C1055 1.523 . S
H1057 C1032 0.950 . S
H1058 C1034 0.950 . S
H1059 C1035 0.949 . S
H1060 C1037 0.950 . S
H1061 C1039 0.950 . S
C1062 C1063 1.349 . S
C1062 C1064 1.327 . S
C1062 H1087 0.950 . S
C1063 C1062 1.349 . S
C1063 C1079 1.349 . S
C1064 C1062 1.327 . S
C1064 C1083 1.429 . S
C1064 H1088 0.950 . S
C1065 C1082 1.574 . S
C1065 C1084 1.368 . S
C1065 H1089 0.949 . S
H1066 C1070 0.949 . S
C1067 C1068 1.349 . S
C1067 C1069 1.327 1_545 S
C1067 H1090 0.950 . S
C1068 C1067 1.349 . S
C1068 C1080 1.349 . S
C1069 C1067 1.327 1_565 S
C1069 C1085 1.429 . S
C1069 H1091 0.950 . S
C1070 H1066 0.949 . S
C1070 C1078 1.574 . S
C1070 C1086 1.368 . S
H1071 C1079 0.950 . S
H1072 C1077 0.950 . S
H1073 C1078 0.949 . S
H1074 C1080 0.950 . S
H1075 C1081 0.950 . S
H1076 C1082 0.949 . S
C1077 H1072 0.950 . S
C1077 C1079 1.327 . S
C1077 C1083 1.429 . S
C1078 C1070 1.574 . S
C1078 H1073 0.949 . S
C1078 C1084 1.368 . S
C1079 C1063 1.349 . S
C1079 H1071 0.950 . S
C1079 C1077 1.327 . S
C1080 C1068 1.349 . S
C1080 H1074 0.950 . S
C1080 C1081 1.327 1_545 S
C1081 H1075 0.950 . S
C1081 C1080 1.327 1_565 S
C1081 C1085 1.429 . S
C1082 C1065 1.574 . S
C1082 H1076 0.949 . S
C1082 C1086 1.368 . S
C1083 C1064 1.429 . S
C1083 C1077 1.429 . S
C1083 C1084 1.523 . S
C1084 C1065 1.368 . S
C1084 C1078 1.368 . S
C1084 C1083 1.523 . S
C1085 C1069 1.429 . S
C1085 C1081 1.429 . S
C1085 C1086 1.523 . S
C1086 C1070 1.368 . S
C1086 C1082 1.368 . S
C1086 C1085 1.523 . S
H1087 C1062 0.950 . S
H1088 C1064 0.950 . S
H1089 C1065 0.949 . S
H1090 C1067 0.950 . S
H1091 C1069 0.950 . S
C1092 C1093 1.349 . S
C1092 C1094 1.327 . S
C1092 H1117 0.950 . S
C1093 C1092 1.349 . S
C1093 C1109 1.349 . S
C1094 C1092 1.327 . S
C1094 C1113 1.429 . S
C1094 H1118 0.950 . S
C1095 C1112 1.574 . S
C1095 C1114 1.368 . S
C1095 H1119 0.949 . S
H1096 C1100 0.949 . S
C1097 C1098 1.349 . S
C1097 C1099 1.327 . S
C1097 H1120 0.950 . S
C1098 C1097 1.349 . S
C1098 C1110 1.349 . S
C1099 C1097 1.327 . S
C1099 C1115 1.429 . S
C1099 H1121 0.950 . S
C1100 H1096 0.949 . S
C1100 C1108 1.574 . S
C1100 C1116 1.368 . S
H1101 C1109 0.950 . S
H1102 C1107 0.950 . S
H1103 C1108 0.949 . S
H1104 C1110 0.950 . S
H1105 C1111 0.950 . S
H1106 C1112 0.949 . S
C1107 H1102 0.950 . S
C1107 C1109 1.327 . S
C1107 C1113 1.429 . S
C1108 C1100 1.574 . S
C1108 H1103 0.949 . S
C1108 C1114 1.368 . S
C1109 C1093 1.349 . S
C1109 H1101 0.950 . S
C1109 C1107 1.327 . S
C1110 C1098 1.349 . S
C1110 H1104 0.950 . S
C1110 C1111 1.327 . S
C1111 H1105 0.950 . S
C1111 C1110 1.327 . S
C1111 C1115 1.429 . S
C1112 C1095 1.574 . S
C1112 H1106 0.949 . S
C1112 C1116 1.368 . S
C1113 C1094 1.429 . S
C1113 C1107 1.429 . S
C1113 C1114 1.523 . S
C1114 C1095 1.368 . S
C1114 C1108 1.368 . S
C1114 C1113 1.523 . S
C1115 C1099 1.429 . S
C1115 C1111 1.429 . S
C1115 C1116 1.523 . S
C1116 C1100 1.368 . S
C1116 C1112 1.368 . S
C1116 C1115 1.523 . S
H1117 C1092 0.950 . S
H1118 C1094 0.950 . S
H1119 C1095 0.949 . S
H1120 C1097 0.950 . S
H1121 C1099 0.950 . S
C1122 C1123 1.349 . S
C1122 C1124 1.327 . S
C1122 H1147 0.950 . S
C1123 C1122 1.349 . S
C1123 C1139 1.349 1_554 S
C1124 C1122 1.327 . S
C1124 C1143 1.429 . S
C1124 H1148 0.950 . S
C1125 C1142 1.574 1_565 S
C1125 C1144 1.368 1_556 S
C1125 H1149 0.949 . S
H1126 C1130 0.949 . S
C1127 C1128 1.349 1_556 S
C1127 C1129 1.327 . S
C1127 H1150 0.950 . S
C1128 C1127 1.349 1_554 S
C1128 C1140 1.349 . S
C1129 C1127 1.327 . S
C1129 C1145 1.429 1_556 S
C1129 H1151 0.950 . S
C1130 H1126 0.949 . S
C1130 C1138 1.574 1_545 S
C1130 C1146 1.368 . S
H1131 C1139 0.950 . S
H1132 C1137 0.950 . S
H1133 C1138 0.949 . S
H1134 C1140 0.950 . S
H1135 C1141 0.950 . S
H1136 C1142 0.949 . S
C1137 H1132 0.950 . S
C1137 C1139 1.327 . S
C1137 C1143 1.429 1_556 S
C1138 C1130 1.574 1_565 S
C1138 H1133 0.949 . S
C1138 C1144 1.368 . S
C1139 C1123 1.349 1_556 S
C1139 H1131 0.950 . S
C1139 C1137 1.327 . S
C1140 C1128 1.349 . S
C1140 H1134 0.950 . S
C1140 C1141 1.327 . S
C1141 H1135 0.950 . S
C1141 C1140 1.327 . S
C1141 C1145 1.429 . S
C1142 C1125 1.574 1_545 S
C1142 H1136 0.949 . S
C1142 C1146 1.368 1_556 S
C1143 C1124 1.429 . S
C1143 C1137 1.429 1_554 S
C1143 C1144 1.523 . S
C1144 C1125 1.368 1_554 S
C1144 C1138 1.368 . S
C1144 C1143 1.523 . S
C1145 C1129 1.429 1_554 S
C1145 C1141 1.429 . S
C1145 C1146 1.523 . S
C1146 C1130 1.368 . S
C1146 C1142 1.368 1_554 S
C1146 C1145 1.523 . S
H1147 C1122 0.950 . S
H1148 C1124 0.950 . S
H1149 C1125 0.949 . S
H1150 C1127 0.950 . S
H1151 C1129 0.950 . S
C1152 C1153 1.402 . S
C1152 C1154 1.327 . S
C1152 H1177 0.950 . S
C1153 C1152 1.402 . S
C1153 C1169 1.298 1_554 S
C1154 C1152 1.327 . S
C1154 C1173 1.480 . S
C1154 H1178 0.950 . S
C1155 C1172 1.574 . S
C1155 C1174 1.314 1_556 S
C1155 H1179 0.949 . S
H1156 C1160 0.949 . S
C1157 C1158 1.298 1_556 S
C1157 C1159 1.327 . S
C1157 H1180 0.950 . S
C1158 C1157 1.298 1_554 S
C1158 C1170 1.402 . S
C1159 C1157 1.327 . S
C1159 C1175 1.379 1_556 S
C1159 H1181 0.950 . S
C1160 H1156 0.949 . S
C1160 C1168 1.574 . S
C1160 C1176 1.424 . S
H1161 C1169 0.950 . S
H1162 C1167 0.950 . S
H1163 C1168 0.949 . S
H1164 C1170 0.950 . S
H1165 C1171 0.950 . S
H1166 C1172 0.949 . S
C1167 H1162 0.950 . S
C1167 C1169 1.327 . S
C1167 C1173 1.379 1_556 S
C1168 C1160 1.574 . S
C1168 H1163 0.949 . S
C1168 C1174 1.424 . S
C1169 C1153 1.298 1_556 S
C1169 H1161 0.950 . S
C1169 C1167 1.327 . S
C1170 C1158 1.402 . S
C1170 H1164 0.950 . S
C1170 C1171 1.327 . S
C1171 H1165 0.950 . S
C1171 C1170 1.327 . S
C1171 C1175 1.480 . S
C1172 C1155 1.574 . S
C1172 H1166 0.949 . S
C1172 C1176 1.314 1_556 S
C1173 C1154 1.480 . S
C1173 C1167 1.379 1_554 S
C1173 C1174 1.523 . S
C1174 C1155 1.314 1_554 S
C1174 C1168 1.424 . S
C1174 C1173 1.523 . S
C1175 C1159 1.379 1_554 S
C1175 C1171 1.480 . S
C1175 C1176 1.523 . S
C1176 C1160 1.424 . S
C1176 C1172 1.314 1_554 S
C1176 C1175 1.523 . S
H1177 C1152 0.950 . S
H1178 C1154 0.950 . S
H1179 C1155 0.949 . S
H1180 C1157 0.950 . S
H1181 C1159 0.950 . S
C1182 C1183 1.402 . S
C1182 C1184 1.327 . S
C1182 H1207 0.950 . S
C1183 C1182 1.402 . S
C1183 C1199 1.298 1_554 S
C1184 C1182 1.327 . S
C1184 C1203 1.480 . S
C1184 H1208 0.950 . S
C1185 C1202 1.574 . S
C1185 C1204 1.314 1_556 S
C1185 H1209 0.949 . S
H1186 C1190 0.949 . S
C1187 C1188 1.298 1_556 S
C1187 C1189 1.327 . S
C1187 H1210 0.950 . S
C1188 C1187 1.298 1_554 S
C1188 C1200 1.402 . S
C1189 C1187 1.327 . S
C1189 C1205 1.379 1_556 S
C1189 H1211 0.950 . S
C1190 H1186 0.949 . S
C1190 C1198 1.574 . S
C1190 C1206 1.424 . S
H1191 C1199 0.950 . S
H1192 C1197 0.950 . S
H1193 C1198 0.949 . S
H1194 C1200 0.950 . S
H1195 C1201 0.950 . S
H1196 C1202 0.949 . S
C1197 H1192 0.950 . S
C1197 C1199 1.327 . S
C1197 C1203 1.379 1_556 S
C1198 C1190 1.574 . S
C1198 H1193 0.949 . S
C1198 C1204 1.424 . S
C1199 C1183 1.298 1_556 S
C1199 H1191 0.950 . S
C1199 C1197 1.327 . S
C1200 C1188 1.402 . S
C1200 H1194 0.950 . S
C1200 C1201 1.327 . S
C1201 H1195 0.950 . S
C1201 C1200 1.327 . S
C1201 C1205 1.480 . S
C1202 C1185 1.574 . S
C1202 H1196 0.949 . S
C1202 C1206 1.314 1_556 S
C1203 C1184 1.480 . S
C1203 C1197 1.379 1_554 S
C1203 C1204 1.523 . S
C1204 C1185 1.314 1_554 S
C1204 C1198 1.424 . S
C1204 C1203 1.523 . S
C1205 C1189 1.379 1_554 S
C1205 C1201 1.480 . S
C1205 C1206 1.523 . S
C1206 C1190 1.424 . S
C1206 C1202 1.314 1_554 S
C1206 C1205 1.523 . S
H1207 C1182 0.950 . S
H1208 C1184 0.950 . S
H1209 C1185 0.949 . S
H1210 C1187 0.950 . S
H1211 C1189 0.950 . S
C1212 C1213 1.349 . S
C1212 C1214 1.327 . S
C1212 H1237 0.950 . S
C1213 C1212 1.349 . S
C1213 C1229 1.349 . S
C1214 C1212 1.327 . S
C1214 C1233 1.429 . S
C1214 H1238 0.950 . S
C1215 C1232 1.574 1_455 S
C1215 C1234 1.368 . S
C1215 H1239 0.949 . S
H1216 C1220 0.949 . S
C1217 C1218 1.349 . S
C1217 C1219 1.327 . S
C1217 H1240 0.950 . S
C1218 C1217 1.349 . S
C1218 C1230 1.349 . S
C1219 C1217 1.327 . S
C1219 C1235 1.429 . S
C1219 H1241 0.950 . S
C1220 H1216 0.949 . S
C1220 C1228 1.574 1_655 S
C1220 C1236 1.368 . S
H1221 C1229 0.950 . S
H1222 C1227 0.950 . S
H1223 C1228 0.949 . S
H1224 C1230 0.950 . S
H1225 C1231 0.950 . S
H1226 C1232 0.949 . S
C1227 H1222 0.950 . S
C1227 C1229 1.327 . S
C1227 C1233 1.429 . S
C1228 C1220 1.574 1_455 S
C1228 H1223 0.949 . S
C1228 C1234 1.368 . S
C1229 C1213 1.349 . S
C1229 H1221 0.950 . S
C1229 C1227 1.327 . S
C1230 C1218 1.349 . S
C1230 H1224 0.950 . S
C1230 C1231 1.327 . S
C1231 H1225 0.950 . S
C1231 C1230 1.327 . S
C1231 C1235 1.429 . S
C1232 C1215 1.574 1_655 S
C1232 H1226 0.949 . S
C1232 C1236 1.368 . S
C1233 C1214 1.429 . S
C1233 C1227 1.429 . S
C1233 C1234 1.523 . S
C1234 C1215 1.368 . S
C1234 C1228 1.368 . S
C1234 C1233 1.523 . S
C1235 C1219 1.429 . S
C1235 C1231 1.429 . S
C1235 C1236 1.523 . S
C1236 C1220 1.368 . S
C1236 C1232 1.368 . S
C1236 C1235 1.523 . S
H1237 C1212 0.950 . S
H1238 C1214 0.950 . S
H1239 C1215 0.949 . S
H1240 C1217 0.950 . S
H1241 C1219 0.950 . S
C1242 C1243 1.349 . S
C1242 C1244 1.327 . S
C1242 H1267 0.950 . S
C1243 C1242 1.349 . S
C1243 C1259 1.349 . S
C1244 C1242 1.327 . S
C1244 C1263 1.429 . S
C1244 H1268 0.950 . S
C1245 C1262 1.574 . S
C1245 C1264 1.368 . S
C1245 H1269 0.949 . S
H1246 C1250 0.949 . S
C1247 C1248 1.349 . S
C1247 C1249 1.327 . S
C1247 H1270 0.950 . S
C1248 C1247 1.349 . S
C1248 C1260 1.349 . S
C1249 C1247 1.327 . S
C1249 C1265 1.429 . S
C1249 H1271 0.950 . S
C1250 H1246 0.949 . S
C1250 C1258 1.574 . S
C1250 C1266 1.368 . S
H1251 C1259 0.950 . S
H1252 C1257 0.950 . S
H1253 C1258 0.949 . S
H1254 C1260 0.950 . S
H1255 C1261 0.950 . S
H1256 C1262 0.949 . S
C1257 H1252 0.950 . S
C1257 C1259 1.327 . S
C1257 C1263 1.429 . S
C1258 C1250 1.574 . S
C1258 H1253 0.949 . S
C1258 C1264 1.368 . S
C1259 C1243 1.349 . S
C1259 H1251 0.950 . S
C1259 C1257 1.327 . S
C1260 C1248 1.349 . S
C1260 H1254 0.950 . S
C1260 C1261 1.327 . S
C1261 H1255 0.950 . S
C1261 C1260 1.327 . S
C1261 C1265 1.429 . S
C1262 C1245 1.574 . S
C1262 H1256 0.949 . S
C1262 C1266 1.368 . S
C1263 C1244 1.429 . S
C1263 C1257 1.429 . S
C1263 C1264 1.523 . S
C1264 C1245 1.368 . S
C1264 C1258 1.368 . S
C1264 C1263 1.523 . S
C1265 C1249 1.429 . S
C1265 C1261 1.429 . S
C1265 C1266 1.523 . S
C1266 C1250 1.368 . S
C1266 C1262 1.368 . S
C1266 C1265 1.523 . S
H1267 C1242 0.950 . S
H1268 C1244 0.950 . S
H1269 C1245 0.949 . S
H1270 C1247 0.950 . S
H1271 C1249 0.950 . S
C1272 C1273 1.349 . S
C1272 C1274 1.327 . S
C1272 H1297 0.950 . S
C1273 C1272 1.349 . S
C1273 C1289 1.349 . S
C1274 C1272 1.327 . S
C1274 C1293 1.429 . S
C1274 H1298 0.950 . S
C1275 C1292 1.574 . S
C1275 C1294 1.368 . S
C1275 H1299 0.949 . S
H1276 C1280 0.949 . S
C1277 C1278 1.349 . S
C1277 C1279 1.327 . S
C1277 H1300 0.950 . S
C1278 C1277 1.349 . S
C1278 C1290 1.349 . S
C1279 C1277 1.327 . S
C1279 C1295 1.429 . S
C1279 H1301 0.950 . S
C1280 H1276 0.949 . S
C1280 C1288 1.574 . S
C1280 C1296 1.368 . S
H1281 C1289 0.950 . S
H1282 C1287 0.950 . S
H1283 C1288 0.949 . S
H1284 C1290 0.950 . S
H1285 C1291 0.950 . S
H1286 C1292 0.949 . S
C1287 H1282 0.950 . S
C1287 C1289 1.327 . S
C1287 C1293 1.429 . S
C1288 C1280 1.574 . S
C1288 H1283 0.949 . S
C1288 C1294 1.368 . S
C1289 C1273 1.349 . S
C1289 H1281 0.950 . S
C1289 C1287 1.327 . S
C1290 C1278 1.349 . S
C1290 H1284 0.950 . S
C1290 C1291 1.327 . S
C1291 H1285 0.950 . S
C1291 C1290 1.327 . S
C1291 C1295 1.429 . S
C1292 C1275 1.574 . S
C1292 H1286 0.949 . S
C1292 C1296 1.368 . S
C1293 C1274 1.429 . S
C1293 C1287 1.429 . S
C1293 C1294 1.523 . S
C1294 C1275 1.368 . S
C1294 C1288 1.368 . S
C1294 C1293 1.523 . S
C1295 C1279 1.429 . S
C1295 C1291 1.429 . S
C1295 C1296 1.523 . S
C1296 C1280 1.368 . S
C1296 C1292 1.368 . S
C1296 C1295 1.523 . S
H1297 C1272 0.950 . S
H1298 C1274 0.950 . S
H1299 C1275 0.949 . S
H1300 C1277 0.950 . S
H1301 C1279 0.950 . S
C1302 C1303 1.349 . S
C1302 C1304 1.327 . S
C1302 H1327 0.950 . S
C1303 C1302 1.349 . S
C1303 C1319 1.349 . S
C1304 C1302 1.327 . S
C1304 C1323 1.429 . S
C1304 H1328 0.950 . S
C1305 C1322 1.574 1_655 S
C1305 C1324 1.368 1_565 S
C1305 H1329 0.949 . S
H1306 C1310 0.949 . S
C1307 C1308 1.349 . S
C1307 C1309 1.327 . S
C1307 H1330 0.950 . S
C1308 C1307 1.349 . S
C1308 C1320 1.349 . S
C1309 C1307 1.327 . S
C1309 C1325 1.429 . S
C1309 H1331 0.950 . S
C1310 H1306 0.949 . S
C1310 C1318 1.574 1_455 S
C1310 C1326 1.368 1_545 S
H1311 C1319 0.950 . S
H1312 C1317 0.950 . S
H1313 C1318 0.949 . S
H1314 C1320 0.950 . S
H1315 C1321 0.950 . S
H1316 C1322 0.949 . S
C1317 H1312 0.950 . S
C1317 C1319 1.327 . S
C1317 C1323 1.429 . S
C1318 C1310 1.574 1_655 S
C1318 H1313 0.949 . S
C1318 C1324 1.368 . S
C1319 C1303 1.349 . S
C1319 H1311 0.950 . S
C1319 C1317 1.327 . S
C1320 C1308 1.349 . S
C1320 H1314 0.950 . S
C1320 C1321 1.327 . S
C1321 H1315 0.950 . S
C1321 C1320 1.327 . S
C1321 C1325 1.429 . S
C1322 C1305 1.574 1_455 S
C1322 H1316 0.949 . S
C1322 C1326 1.368 . S
C1323 C1304 1.429 . S
C1323 C1317 1.429 . S
C1323 C1324 1.523 . S
C1324 C1305 1.368 1_545 S
C1324 C1318 1.368 . S
C1324 C1323 1.523 . S
C1325 C1309 1.429 . S
C1325 C1321 1.429 . S
C1325 C1326 1.523 . S
C1326 C1310 1.368 1_565 S
C1326 C1322 1.368 . S
C1326 C1325 1.523 . S
H1327 C1302 0.950 . S
H1328 C1304 0.950 . S
H1329 C1305 0.949 . S
H1330 C1307 0.950 . S
H1331 C1309 0.950 . S
C1332 C1333 1.349 . S
C1332 C1334 1.327 . S
C1332 H1357 0.950 . S
C1333 C1332 1.349 . S
C1333 C1349 1.349 . S
C1334 C1332 1.327 . S
C1334 C1353 1.429 . S
C1334 H1358 0.950 . S
C1335 C1352 1.574 . S
C1335 C1354 1.368 . S
C1335 H1359 0.949 . S
H1336 C1340 0.949 . S
C1337 C1338 1.349 . S
C1337 C1339 1.327 . S
C1337 H1360 0.950 . S
C1338 C1337 1.349 . S
C1338 C1350 1.349 . S
C1339 C1337 1.327 . S
C1339 C1355 1.429 . S
C1339 H1361 0.950 . S
C1340 H1336 0.949 . S
C1340 C1348 1.574 . S
C1340 C1356 1.368 . S
H1341 C1349 0.950 . S
H1342 C1347 0.950 . S
H1343 C1348 0.949 . S
H1344 C1350 0.950 . S
H1345 C1351 0.950 . S
H1346 C1352 0.949 . S
C1347 H1342 0.950 . S
C1347 C1349 1.327 . S
C1347 C1353 1.429 . S
C1348 C1340 1.574 . S
C1348 H1343 0.949 . S
C1348 C1354 1.368 . S
C1349 C1333 1.349 . S
C1349 H1341 0.950 . S
C1349 C1347 1.327 . S
C1350 C1338 1.349 . S
C1350 H1344 0.950 . S
C1350 C1351 1.327 . S
C1351 H1345 0.950 . S
C1351 C1350 1.327 . S
C1351 C1355 1.429 . S
C1352 C1335 1.574 . S
C1352 H1346 0.949 . S
C1352 C1356 1.368 . S
C1353 C1334 1.429 . S
C1353 C1347 1.429 . S
C1353 C1354 1.523 . S
C1354 C1335 1.368 . S
C1354 C1348 1.368 . S
C1354 C1353 1.523 . S
C1355 C1339 1.429 . S
C1355 C1351 1.429 . S
C1355 C1356 1.523 . S
C1356 C1340 1.368 . S
C1356 C1352 1.368 . S
C1356 C1355 1.523 . S
H1357 C1332 0.950 . S
H1358 C1334 0.950 . S
H1359 C1335 0.949 . S
H1360 C1337 0.950 . S
H1361 C1339 0.950 . S
C1362 C1363 1.349 . S
C1362 C1364 1.327 . S
C1362 H1387 0.950 . S
C1363 C1362 1.349 . S
C1363 C1379 1.349 . S
C1364 C1362 1.327 . S
C1364 C1383 1.429 . S
C1364 H1388 0.950 . S
C1365 C1382 1.574 . S
C1365 C1384 1.368 1_545 S
C1365 H1389 0.949 . S
H1366 C1370 0.949 . S
C1367 C1368 1.349 . S
C1367 C1369 1.327 . S
C1367 H1390 0.950 . S
C1368 C1367 1.349 . S
C1368 C1380 1.349 . S
C1369 C1367 1.327 . S
C1369 C1385 1.429 . S
C1369 H1391 0.950 . S
C1370 H1366 0.949 . S
C1370 C1378 1.574 . S
C1370 C1386 1.368 1_565 S
H1371 C1379 0.950 . S
H1372 C1377 0.950 . S
H1373 C1378 0.949 . S
H1374 C1380 0.950 . S
H1375 C1381 0.950 . S
H1376 C1382 0.949 . S
C1377 H1372 0.950 . S
C1377 C1379 1.327 . S
C1377 C1383 1.429 . S
C1378 C1370 1.574 . S
C1378 H1373 0.949 . S
C1378 C1384 1.368 . S
C1379 C1363 1.349 . S
C1379 H1371 0.950 . S
C1379 C1377 1.327 . S
C1380 C1368 1.349 . S
C1380 H1374 0.950 . S
C1380 C1381 1.327 . S
C1381 H1375 0.950 . S
C1381 C1380 1.327 . S
C1381 C1385 1.429 . S
C1382 C1365 1.574 . S
C1382 H1376 0.949 . S
C1382 C1386 1.368 . S
C1383 C1364 1.429 . S
C1383 C1377 1.429 . S
C1383 C1384 1.523 . S
C1384 C1365 1.368 1_565 S
C1384 C1378 1.368 . S
C1384 C1383 1.523 . S
C1385 C1369 1.429 . S
C1385 C1381 1.429 . S
C1385 C1386 1.523 . S
C1386 C1370 1.368 1_545 S
C1386 C1382 1.368 . S
C1386 C1385 1.523 . S
H1387 C1362 0.950 . S
H1388 C1364 0.950 . S
H1389 C1365 0.949 . S
H1390 C1367 0.950 . S
H1391 C1369 0.950 . S
C433 C32 2.111 . S
C438 C76 2.114 . S
C463 C13 2.111 . S
C468 C130 2.117 . S
C493 C167 2.116 . S
C498 C67 2.110 . S
C523 C121 2.111 . S
C528 C184 2.117 . S
C553 C194 2.111 . S
C558 C221 2.115 . S
C583 C292 2.116 . S
C588 C175 2.113 . S
C613 C248 2.111 . S
C618 C5 2.115 1_565 S
C643 C283 2.111 . S
C648 C22 2.117 1_545 S
C673 C275 2.116 . S
C678 C356 2.111 . S
C703 C337 2.111 . S
C708 C238 2.116 . S
C733 C383 2.116 . S
C738 C302 2.111 . S
C763 C400 2.116 . S
C768 C229 2.111 . S
C793 C410 2.111 . S
C798 C113 2.116 . S
C823 C59 2.116 . S
C828 C391 2.111 . S
C853 C329 2.116 1_565 S
C858 C140 2.112 . S
C883 C346 2.116 1_545 S
C888 C86 2.111 . S
C913 C27 0.095 . S
C918 C10 0.095 . S
C943 C81 0.095 . S
C948 C64 0.095 . S
C973 C118 0.095 . S
C978 C135 0.095 . S
C1003 C172 0.095 . S
C1008 C189 0.095 . S
C1033 C226 0.095 . S
C1038 C243 0.095 . S
C1063 C280 0.095 . S
C1068 C297 0.095 . S
C1093 C351 0.095 . S
C1098 C334 0.095 . S
C1123 C388 0.095 . S
C1128 C405 0.095 . S
C1153 C413 0.723 . S
C1158 C28 0.719 . S
C1183 C35 0.723 . S
C1188 C406 0.728 . S
C1213 C89 0.723 . S
C1218 C143 0.723 . S
C1243 C359 0.723 . S
C1248 C190 0.720 . S
C1273 C197 0.723 . S
C1278 C352 0.727 . S
C1303 C305 0.723 . S
C1308 C244 0.723 . S
C1333 C298 0.723 . S
C1338 C251 0.723 . S
C1363 C136 0.723 . S
C1368 C82 0.723 . S
